Mass spectrum: AVE6324; LC-ESI-QFT; MS2; CE: 75; R=17500; [M+H]+
Name: AVE6324
Name: [(1R)-1-ethoxycarbonyloxyethyl] 1-[[5-(5-chlorothiophen-2-yl)-1,2-oxazol-3-yl]methyl]-2-[(1-propan-2-ylpiperidin-4-yl)carbamoyl]indole-5-carboxylate
Formula: C31H35ClN4O7S
Exact mass: 642.1915
SMILES: CCOC(=O)O[C@H](C)OC(=O)c1ccc2c(c1)cc(C(=O)NC1CCN(C(C)C)CC1)n2Cc1cc(-c2ccc(Cl)s2)on1
InChI: InChI=1S/C31H35ClN4O7S/c1-5-40-31(39)42-19(4)41-30(38)20-6-7-24-21(14-20)15-25(29(37)33-22-10-12-35(13-11-22)18(2)3)36(24)17-23-16-26(43-34-23)27-8-9-28(32)44-27/h6-9,14-16,18-19,22H,5,10-13,17H2,1-4H3,(H,33,37)/t19-/m1/s1
Instrument: Q Exactive Orbitrap (Thermo Scientific)
Instrument type: LC-ESI-QFT
Ms type: MS2
Ion mode: POSITIVE
Ionization: ESI
Fragmentation mode: HCD
Collision energy: 75
Resolution: 17500
Column name: Acquity BEH C18 1.7um, 2.1x150mm (Waters)
Retention time: 17.315 min
Base peak: 79.0212
Precursor m/z: 643.1988
Precursor type: [M+H]+
Precursor intensity: 10228647.84375
m/z	relative intensity	assigned
53.0022	11	C3HO+
53.0386	9	C4H5+
53.9974	1	C2NO+
54.0339	1	C3H4N+
55.0542	218	C4H7+
56.0495	424	C3H6N+
57.0699	14	C4H9+
57.9872	2	C2H2S+
58.0651	43	C3H8N+
63.023	2	C5H3+
65.0386	18	C5H5+
67.0416	23	C4H5N+
67.0542	69	C5H7+
68.0494	9	C4H6N+
68.9793	4	C3HS+
69.0572	5	C4H7N+
69.0699	17	C5H9+
69.9871	3	C3H2S+
70.0651	39	C4H8N+
70.9948	1	C3H3S+
71.0729	1	C4H9N+
72.0807	38	C4H10N+
72.9839	170	C3H2Cl+
77.0387	1	C6H5+
78.0463	1	C6H6+
78.9404	22	CClS+
79.0542	2	C6H7+
80.0131	14	C4H2NO+
80.0495	38	C5H6N+
81.0698	4	C6H9+
82.0651	357	C5H8N+
84.0808	461	C5H10N+
86.0964	2	C5H12N+
89.0385	5	C7H5+
90.0338	3	C6H4N+
91.0419	2	C6H5N+
91.0543	1	C7H7+
92.0256	3	C6H4O+
92.0493	1	C6H6N+
94.0651	1	C6H8N+
95.0493	1	C6H7O+
95.0604	2	C5H7N2+
96.0442	1	C5H6NO+
96.0808	3	C6H10N+
98.0964	14	C6H12N+
98.99	3	C4H3OS+
98.9996	4	C5H4Cl+
102.0464	5	C8H6+
103.0544	2	C8H7+
104.0495	20	C7H6N+
104.9559	1	C3H2ClS+
108.0028	36	C6H4S+
108.0444	8	C6H6NO+
108.0808	7	C7H10N+
109.0887	3	C7H11N+
110.0965	92	C7H12N+
112.1121	6	C7H14N+
114.0339	48	C8H4N+
115.0417	2	C8H5N+
115.0542	4	C9H7+
116.0494	12	C8H6N+
116.956	39	C4H2ClS+
117.0573	4	C8H7N+
119.0366	3	C7H5NO+
121.0105	1	C7H5S+
122.0964	7	C8H12N+
124.1121	126	C8H14N+
126.1278	179	C8H16N+
127.0866	10	C6H11N2O+
127.1229	1	C7H15N2+
128.0494	12	C9H6N+
129.0449	3	C8H5N2+
129.0574	24	C9H7N+
130.0286	6	C8H4NO+
130.0652	17	C9H8N+
130.9717	7	C5H4ClS+
132.0444	26	C8H6NO+
132.9509	22	C4H2ClOS+
132.9979	11	C7H3NS+
133.0284	38	C8H5O2+
134.006	13	C7H4NS+
134.0599	14	C8H8NO+
135.0137	55	C7H5NS+
136.0216	1	C7H6NS+
137.1072	4	C8H13N2+
139.1229	1	C8H15N2+
140.0495	31	C10H6N+
141.0574	2	C10H7N+
142.0288	64	C9H4NO+
142.0652	3	C10H8N+
142.9718	294	C6H4ClS+
143.0365	19	C9H5NO+
143.967	1	C5H3ClNS+
144.0446	17	C9H6NO+
144.0553	7	C8H6N3+
144.9509	999	C5H2ClOS+
150.0548	6	C8H8NO2+
152.0163	4	C7H6NOS+
153.1021	5	C8H13N2O+
154.0523	2	C10H6N2+
154.0651	5	C11H8N+
154.9719	3	C7H4ClS+
155.0603	10	C10H7N2+
156.0445	12	C10H6NO+
157.0523	8	C10H7NO+
158.0602	6	C10H8NO+
160.0394	15	C9H6NO2+
161.0471	60	C9H7NO2+
162.0008	10	C8H4NOS+
162.0184	1	C8H4NO3+
162.0548	3	C9H8NO2+
163.0086	13	C8H5NOS+
165.0446	5	C11H5N2+
166.0525	3	C11H6N2+
167.0607	13	C11H7N2+
167.073	3	C12H9N+
167.1178	1	C9H15N2O+
167.9671	11	C7H3ClNS+
168.0683	8	C11H8N2+
168.951	7	C7H2ClOS+
169.0396	11	C10H5N2O+
169.0507	7	C9H5N4+
169.0761	5	C11H9N2+
169.1335	5	C9H17N2O+
169.9826	182	C7H5ClNS+
170.0349	20	C9H4N3O+
170.9667	23	C7H4ClOS+
171.0551	5	C10H7N2O+
172.0395	5	C10H6NO2+
172.0631	5	C10H8N2O+
173.0469	2	C10H7NO2+
174.0551	12	C10H8NO2+
175.0265	24	C9H5NO3+
177.0419	3	C9H7NO3+
178.0496	12	C9H8NO3+
183.0552	7	C11H7N2O+
183.9745	1	C8H5ClOS+
184.0393	4	C11H6NO2+
186.0424	8	C10H6N2O2+
187.0501	3	C10H7N2O2+
188.0343	246	C10H6NO3+
189.0421	5	C10H7NO3+
190.0652	2	C14H8N+
193.0384	5	ClH16NO6S+
195.0553	18	C12H7N2O+
195.962	4	C8H3ClNOS+
197.9776	134	C8H5ClNOS+
200.0579	4	C11H8N2O2+
202.0498	10	ClH15N4O4S+
203.0602	2	C14H7N2+
204.0528	10	C10H8N2O3+
205.0372	9	C10H7NO4+
205.0761	23	C14H9N2+
206.0837	4	C14H10N2+
210.0369	2	C13H8NS+
211.0503	7	C12H7N2O2+
213.0657	5	C12H9N2O2+
214.0499	7	C12H8NO3+
215.0452	20	C11H7N2O3+
215.0601	1	C15H7N2+
215.9881	4	C8H7ClNO2S+
216.068	12	C15H8N2+
217.0762	6	C15H9N2+
222.0371	14	C14H8NS+
223.0488	7	C7H12ClN2O4+
226.0371	4	C12H6N2O3+
226.0495	1	C2H15ClN4O4S+
228.0532	2	C12H8N2O3+
230.0322	15	C11H6N2O4+
231.0397	1	C11H7N2O4+
232.063	4	C15H8N2O+
233.0711	17	C15H9N2O+
239.0452	10	C13H7N2O3+
243.0402	12	C12H7N2O4+
245.0712	6	C16H9N2O+
247.0324	10	C15H7N2S+
248.0402	31	C15H8N2S+
249.048	34	C15H9N2S+
250.0559	9	C15H10N2S+
259.0325	5	C16H7N2S+
260.0404	5	C16H8N2S+
261.0481	25	C16H9N2S+
261.0656	6	C16H9N2O2+
269.0054	3	C18H5OS+
270.0132	3	C18H6OS+
275.0273	9	C16H7N2OS+
276.0354	16	C16H8N2OS+
277.0429	55	C16H9N2OS+
277.0608	14	C16H9N2O3+
278.0684	30	C16H10N2O3+
279.0332	3	C14H7N4OS+
289.0608	6	C17H9N2O3+
293.0379	12	C16H9N2O2S+
305.038	29	C17H9N2O2S+
306.0453	4	C17H10N2O2S+
311.004	15	C16H8ClN2OS+
321.0329	65	C17H9N2O3S+
338.9992	5	C17H8ClN2O2S+
340.0068	5	C17H9ClN2O2S+
341.0147	1	C17H10ClN2O2S+
344.0027	7	C24H5ClO+
349.0271	10	C24H3N3O+
371.9969	2	C17H9ClN2O4S+
382.988	3	C24H2ClN3O+
