Mass spectrum: Hydroxyprogesterone caproate; LC-ESI-QFT; MS2; CE: 15; R=17500; [M+H]+
Name: Hydroxyprogesterone caproate
Name: [(8R,9S,10R,13S,14S,17R)-17-acetyl-10,13-dimethyl-3-oxo-2,6,7,8,9,11,12,14,15,16-decahydro-1H-cyclopenta[a]phenanthren-17-yl] hexanoate
Formula: C27H40O4
Exact mass: 428.2927
SMILES: CCCCCC(=O)O[C@@]1(CC[C@H]2[C@@H]3CCC4=CC(=O)CC[C@]4(C)[C@H]3CC[C@]12C)C(C)=O
InChI: InChI=1S/C27H40O4/c1-5-6-7-8-24(30)31-27(18(2)28)16-13-23-21-10-9-19-17-20(29)11-14-25(19,3)22(21)12-15-26(23,27)4/h17,21-23H,5-16H2,1-4H3/t21-,22+,23+,25+,26+,27+/m1/s1
Instrument: Q Exactive Orbitrap (Thermo Scientific)
Instrument type: LC-ESI-QFT
Ms type: MS2
Ion mode: POSITIVE
Ionization: ESI
Fragmentation mode: HCD
Collision energy: 15
Resolution: 17500
Column name: Acquity BEH C18 1.7um, 2.1x150mm (Waters)
Retention time: 19.791 min
Base peak: 79.0211
Precursor m/z: 429.2999
Precursor type: [M+H]+
Precursor intensity: 2624974.4375
m/z	relative intensity	assigned
71.0855	8	C5H11+
83.0492	5	C5H7O+
95.0854	2	C7H11+
97.0648	23	C6H9O+
99.0804	27	C6H11O+
109.0647	13	C7H9O+
111.0803	8	C7H11O+
119.0856	1	C9H11+
123.0804	2	C8H11O+
135.1169	1	C10H15+
145.1009	3	C11H13+
147.1171	3	C11H15+
157.1008	1	C12H13+
159.1167	1	C12H15+
161.0957	1	C11H13O+
161.1326	1	C12H17+
163.1119	2	C11H15O+
169.1016	2	C13H13+
171.1166	5	C13H15+
173.1326	1	C13H17+
175.1125	1	C12H15O+
175.148	3	C13H19+
183.1168	1	C14H15+
185.1326	1	C14H17+
187.1483	3	C14H19+
189.1273	1	C13H17O+
189.1635	1	C14H21+
191.1431	1	C13H19O+
197.1322	2	C15H17+
199.1483	3	C15H19+
203.1432	3	C14H19O+
205.1586	11	C14H21O+
211.1483	3	C16H19+
213.1272	2	C15H17O+
213.1637	6	C16H21+
217.1589	4	C15H21O+
229.1585	2	C16H21O+
231.1741	11	C16H23O+
237.1638	3	C18H21+
239.1428	1	C17H19O+
251.1799	1	C19H23+
253.195	25	C19H25+
255.1741	3	C18H23O+
269.1899	16	C19H25O+
270.198	1	C19H26O+
271.2056	191	C19H27O+
277.1954	7	C21H25+
295.2056	57	C21H27O+
313.2161	999	C21H29O2+
387.2894	3	C25H39O3+
