Mass spectrum: CP-471358; LC-ESI-QFT; MS2; CE: 30; R=17500; [M-H]-
Name: CP-471358
Name: 3-[[4-(4-fluorophenoxy)phenyl]sulfonyl-[1-(hydroxycarbamoyl)cyclopentyl]amino]propanoic acid
Formula: C21H23FN2O7S
Exact mass: 466.1210
SMILES: ONC(=O)C1(CCCC1)N(CCC(O)=O)S(=O)(=O)C1=CC=C(OC2=CC=C(F)C=C2)C=C1
InChI: InChI=1S/C21H23FN2O7S/c22-15-3-5-16(6-4-15)31-17-7-9-18(10-8-17)32(29,30)24(14-11-19(25)26)21(20(27)23-28)12-1-2-13-21/h3-10,28H,1-2,11-14H2,(H,23,27)(H,25,26)
Instrument: Q Exactive Orbitrap (Thermo Scientific)
Instrument type: LC-ESI-QFT
Ms type: MS2
Ion mode: NEGATIVE
Ionization: ESI
Fragmentation mode: HCD
Collision energy: 30
Resolution: 17500
Column name: Acquity BEH C18 1.7um, 2.1x150mm (Waters)
Retention time: 16.686 min
Base peak: 408.1942
Precursor m/z: 465.1137
Precursor type: [M-H]-
Precursor intensity: 2599561.550781
m/z	relative intensity	assigned
79.9815	1	H2NO2S-
111.0253	2	C6H4FO-
126.0562	2	C6H8NO2-
128.0719	2	C6H10NO2-
251.0182	31	C12H8FO3S-
266.0293	999	C12H9FNO3S-
332.0763	6	C17H15FNO3S-
338.0505	101	C15H13FNO5S-
388.1023	2	C20H19FNO4S-
393.0926	55	C18H18FN2O5S-
