Mass spectrum: Oxazepam; LC-ESI-QFT; MS2; CE: 90; R=17500; [M+H]+
Name: Oxazepam
Name: 7-chloro-3-hydroxy-5-phenyl-1,3-dihydro-1,4-benzodiazepin-2-one
Formula: C15H11ClN2O2
Exact mass: 286.0509
SMILES: OC1N=C(C2=CC=CC=C2)C2=CC(Cl)=CC=C2NC1=O
InChI: InChI=1S/C15H11ClN2O2/c16-10-6-7-12-11(8-10)13(9-4-2-1-3-5-9)18-15(20)14(19)17-12/h1-8,15,20H,(H,17,19)
Instrument: Q Exactive Orbitrap (Thermo Scientific)
Instrument type: LC-ESI-QFT
Ms type: MS2
Ion mode: POSITIVE
Ionization: ESI
Fragmentation mode: HCD
Collision energy: 90
Resolution: 17500
Column name: Acquity BEH C18 1.7um, 2.1x150mm (Waters)
Retention time: 16.615 min
Base peak: 79.0211
Precursor m/z: 287.0582
Precursor type: [M+H]+
Precursor intensity: 13806002.375
m/z	relative intensity	assigned
50.0151	1	C4H2+
51.023	3	C4H3+
53.0386	95	C4H5+
55.018	4	C3H3O+
63.0229	8	C5H3+
65.0385	7	C5H5+
66.0464	8	C5H6+
74.0965	2	C4H12N+
75.0229	18	C6H3+
76.0182	7	C5H2N+
77.0385	38	C6H5+
79.0179	3	C5H3O+
79.0542	19	C6H7+
80.0494	2	C5H6N+
81.0335	18	C5H5O+
86.9997	20	C4H4Cl+
90.0339	44	C6H4N+
91.0417	13	C6H5N+
91.0543	1	C7H7+
92.0495	6	C6H6N+
93.0574	390	C6H7N+
94.0413	9	C6H6O+
95.0492	254	C6H7O+
98.9996	37	C5H4Cl+
100.0182	41	C7H2N+
104.0495	999	C7H6N+
105.0448	115	C6H5N2+
108.0445	4	C6H6NO+
110.9996	9	C6H4Cl+
111.0441	6	C6H7O2+
117.0448	22	C7H5N2+
118.0526	192	C7H6N2+
122.0599	3	C7H8NO+
126.0105	71	C6H5ClN+
127.0183	2	C6H6ClN+
128.0262	51	C6H7ClN+
129.0102	63	C6H6ClO+
129.0447	7	C8H5N2+
130.0401	8	C9H6O+
135.0553	5	C7H7N2O+
135.9949	27	C7H3ClN+
136.0759	7	C8H10NO+
138.0106	123	C7H5ClN+
139.0058	135	C6H4ClN2+
145.051	18	C9H7NO+
151.0058	14	C7H4ClN2+
151.0544	4	C12H7+
152.0136	16	C7H5ClN2+
152.0621	50	C12H8+
153.0215	86	C7H6ClN2+
154.0054	30	C7H5ClNO+
155.035	4	C10H5NO+
163.0058	353	C8H4ClN2+
164.001	203	C10N2O+
165.0699	3	C13H9+
166.0053	12	C8H5ClNO+
167.073	3	C12H9N+
168.0808	2	C12H10N+
169.0648	37	C12H9O+
177.0573	13	C13H7N+
178.0652	32	C13H8N+
179.0008	10	C8H4ClN2O+
179.0604	14	C12H7N2+
179.073	35	C13H9N+
180.0807	8	C13H10N+
181.0163	75	C8H6ClN2O+
184.0519	2	C12H8O2+
187.0311	5	C12H8Cl+
194.084	37	C13H10N2+
195.032	46	C9H8ClN2O+
195.0917	65	C13H11N2+
196.0758	4	C13H10NO+
199.0267	6	C8H8ClN2O2+
205.0761	108	C14H9N2+
206.0597	2	C14H8NO+
206.084	13	C14H10N2+
207.0679	4	C14H9NO+
214.0418	35	C13H9ClN+
224.026	3	C14H7ClN+
226.0296	2	C13H7ClN2+
229.0528	62	C13H10ClN2+
238.0733	4	C14H10N2O2+
239.037	19	C14H8ClN2+
240.0448	4	C14H9ClN2+
241.0527	217	C14H10ClN2+
257.0477	11	C14H10ClN2O+
