Mass spectrum: Acesulfame; LC-ESI-QFT; MS2; CE: 30; R=17500; [M-H]-
Name: Acesulfame
Name: 6-methyl-2,2-dioxooxathiazin-4-one
Formula: C4H5NO4S
Exact mass: 162.9939
SMILES: CC1=CC(=O)NS(=O)(=O)O1
InChI: InChI=1S/C4H5NO4S/c1-3-2-4(6)5-10(7,8)9-3/h2H,1H3,(H,5,6)
Instrument: Q Exactive Orbitrap (Thermo Scientific)
Instrument type: LC-ESI-QFT
Ms type: MS2
Ion mode: NEGATIVE
Ionization: ESI
Fragmentation mode: HCD
Collision energy: 30
Resolution: 17500
Column name: Acquity BEH C18 1.7um, 2.1x150mm (Waters)
Retention time: 4.924 min
Base peak: 161.9867
Precursor m/z: 161.9867
Precursor type: [M-H]-
Precursor intensity: 4223742.138916
m/z	relative intensity	assigned
70.0299	15	C3H4NO-
77.9656	45	NO2S-
79.9575	1	O3S-
82.0299	999	C4H4NO-
98.0248	11	C4H4NO2-
101.9657	4	C2NO2S-
118.9807	2	C3H3O3S-
119.9761	1	C2H2NO3S-
161.9867	249	C4H4NO4S-
