Mass spectrum: Diacetone acrylamide; LC-ESI-QFT; MS2; CE: 30; R=17500; [M+H]+
Name: Diacetone acrylamide
Name: N-(2-methyl-4-oxopentan-2-yl)prop-2-enamide
Formula: C9H15NO2
Exact mass: 169.1103
SMILES: CC(=O)CC(C)(C)NC(=O)C=C
InChI: InChI=1S/C9H15NO2/c1-5-8(12)10-9(3,4)6-7(2)11/h5H,1,6H2,2-4H3,(H,10,12)
Instrument: Q Exactive Orbitrap (Thermo Scientific)
Instrument type: LC-ESI-QFT
Ms type: MS2
Ion mode: POSITIVE
Ionization: ESI
Fragmentation mode: HCD
Collision energy: 30
Resolution: 17500
Column name: Acquity BEH C18 1.7um, 2.1x150mm (Waters)
Retention time: 11.316 min
Base peak: 79.0211
Precursor m/z: 170.1176
Precursor type: [M+H]+
Precursor intensity: 4171961.09375
m/z	relative intensity	assigned
72.0444	439	C3H6NO+
92.0495	262	C6H6N+
93.0572	130	C6H7N+
99.0805	999	C6H11O+
