Mass spectrum: Glybenclamide; LC-ESI-QFT; MS2; CE: 15; R=17500; [M-H]-
Name: Glybenclamide
Name: Glyburide
Name: 5-chloro-N-[2-[4-(cyclohexylcarbamoylsulfamoyl)phenyl]ethyl]-2-methoxybenzamide
Formula: C23H28ClN3O5S
Exact mass: 493.1438
SMILES: COC1=C(C=C(Cl)C=C1)C(=O)NCCC1=CC=C(C=C1)S(=O)(=O)NC(=O)NC1CCCCC1
InChI: InChI=1S/C23H28ClN3O5S/c1-32-21-12-9-17(24)15-20(21)22(28)25-14-13-16-7-10-19(11-8-16)33(30,31)27-23(29)26-18-5-3-2-4-6-18/h7-12,15,18H,2-6,13-14H2,1H3,(H,25,28)(H2,26,27,29)
Instrument: Q Exactive Orbitrap (Thermo Scientific)
Instrument type: LC-ESI-QFT
Ms type: MS2
Ion mode: NEGATIVE
Ionization: ESI
Fragmentation mode: HCD
Collision energy: 15
Resolution: 17500
Column name: Acquity BEH C18 1.7um, 2.1x150mm (Waters)
Retention time: 17.825 min
Base peak: 112.9856
Precursor m/z: 492.1365
Precursor type: [M-H]-
Precursor intensity: 9593600.580078
m/z	relative intensity	assigned
170.0015	181	C7H5ClNO2-
196.0077	1	C5H9ClN2O2S-
196.044	1	C9H10NO2S-
367.0524	571	C16H16ClN2O4S-
378.0321	39	C16H13ClN3O4S-
460.1105	149	C22H23ClN3O4S-
492.1366	999	C23H27ClN3O5S-
