Mass spectrum: 2-[4-(Diethylamino)-2-hydroxybenzoyl]benzoic acid; LC-ESI-QFT; MS2; CE: 75; R=17500; [M-H]-
Name: 2-[4-(Diethylamino)-2-hydroxybenzoyl]benzoic acid
Name: 2-(4-(Diethylamino)-2-hydroxybenzoyl)benzoic acid
Formula: C18H19NO4
Exact mass: 313.1314
SMILES: CCN(CC)C1=CC(O)=C(C=C1)C(=O)C1=C(C=CC=C1)C(O)=O
InChI: InChI=1S/C18H19NO4/c1-3-19(4-2)12-9-10-15(16(20)11-12)17(21)13-7-5-6-8-14(13)18(22)23/h5-11,20H,3-4H2,1-2H3,(H,22,23)
Instrument: Q Exactive Orbitrap (Thermo Scientific)
Instrument type: LC-ESI-QFT
Ms type: MS2
Ion mode: NEGATIVE
Ionization: ESI
Fragmentation mode: HCD
Collision energy: 75
Resolution: 17500
Column name: Acquity BEH C18 1.7um, 2.1x150mm (Waters)
Retention time: 17.529 min
Base peak: 307.0977
Precursor m/z: 312.1241
Precursor type: [M-H]-
Precursor intensity: 23015711.08008
m/z	relative intensity	assigned
65.9986	2	C3NO-
71.0138	1	C3H3O2-
75.024	2	C6H3-
92.0142	3	C5H2NO-
93.0346	2	C6H5O-
94.0298	2	C5H4NO-
107.0377	1	C6H5NO-
108.0455	2	C6H6NO-
118.0298	4	C7H4NO-
119.0502	3	C8H7O-
120.0455	159	C7H6NO-
121.0295	406	C7H5O2-
134.0612	6	C8H8NO-
135.069	24	C8H9NO-
136.0766	4	C8H10NO-
141.0708	1	C11H9-
143.0505	3	C10H7O-
144.0452	2	C9H6NO-
145.0296	2	C9H5O2-
145.0656	1	C10H9O-
164.108	9	C10H14NO-
166.0662	1	C12H8N-
167.0505	2	C12H7O-
168.0454	1	C11H6NO-
169.0659	15	C12H9O-
170.0611	2	C11H8NO-
182.0378	4	C12H6O2-
182.061	1	C12H8NO-
183.0126	3	C14HN-
183.045	1	C12H7O2-
184.0153	2	C11H4O3-
184.0533	4	C12H8O2-
194.0612	7	C13H8NO-
195.0451	6	C13H7O2-
196.0533	3	C13H8O2-
196.0768	61	C13H10NO-
197.0608	13	C13H9O2-
205.0525	3	C14H7NO-
206.0611	4	C14H8NO-
207.0689	2	C14H9NO-
209.0483	6	C13H7NO2-
210.0561	25	C13H8NO2-
210.0925	1	C14H12NO-
211.0636	1	C13H9NO2-
211.0762	5	C14H11O2-
212.072	6	C13H10NO2-
220.0766	1	C15H10NO-
222.0561	10	C14H8NO2-
223.0639	6	C14H9NO2-
223.0766	13	C15H11O2-
224.0717	999	C14H10NO2-
238.0874	56	C15H12NO2-
240.1028	4	C15H14NO2-
252.1026	1	C16H14NO2-
268.1338	1	C17H18NO2-
