Mass spectrum: Methiuron; LC-ESI-QFT; MS2; CE: 90; R=17500; [M+H]+
Name: Methiuron
Name: N,N-dimethyl-N'-(3-methylphenyl)carbamimidothioic acid
Formula: C10H14N2S
Exact mass: 194.0878
SMILES: CN(C)C(=S)NC1=CC(C)=CC=C1
InChI: InChI=1S/C10H14N2S/c1-8-5-4-6-9(7-8)11-10(13)12(2)3/h4-7H,1-3H3,(H,11,13)
Instrument: Q Exactive Orbitrap (Thermo Scientific)
Instrument type: LC-ESI-QFT
Ms type: MS2
Ion mode: POSITIVE
Ionization: ESI
Fragmentation mode: HCD
Collision energy: 90
Resolution: 17500
Column name: Acquity BEH C18 1.7um, 2.1x150mm (Waters)
Retention time: 14.286 min
Base peak: 79.0211
Precursor m/z: 195.095
Precursor type: [M+H]+
Precursor intensity: 10499381.8125
m/z	relative intensity	assigned
56.0495	69	C3H6N+
61.0106	22	C2H5S+
63.023	1	C5H3+
63.0262	1	C2H7S+
65.0385	82	C5H5+
67.0542	4	C5H7+
71.0603	5	C3H7N2+
71.9901	17	C2H2NS+
72.998	202	C2H3NS+
79.0542	8	C6H7+
88.0215	999	C3H6NS+
91.0542	392	C7H7+
92.062	23	C7H8+
97.0076	4	C8H+
116.0495	1	C8H6N+
117.0572	2	C8H7N+
119.0604	34	C7H7N2+
123.0262	55	C7H7S+
125.0419	2	C7H9S+
135.0134	1	C7H5NS+
146.0839	3	C9H10N2+
150.0371	31	C8H8NS+
157.011	2	C10H5S+
