Mass spectrum: 3-Hydroxy-4-butyrophenetidide; LC-ESI-QFT; MS2; CE: 15; R=17500; [M+H]+
Name: 3-Hydroxy-4-butyrophenetidide
Name: Bucetin
Name: N-(4-ethoxyphenyl)-3-hydroxybutanamide
Formula: C12H17NO3
Exact mass: 223.1208
SMILES: CCOC1=CC=C(NC(=O)CC(C)O)C=C1
InChI: InChI=1S/C12H17NO3/c1-3-16-11-6-4-10(5-7-11)13-12(15)8-9(2)14/h4-7,9,14H,3,8H2,1-2H3,(H,13,15)
Instrument: Q Exactive Orbitrap (Thermo Scientific)
Instrument type: LC-ESI-QFT
Ms type: MS2
Ion mode: POSITIVE
Ionization: ESI
Fragmentation mode: HCD
Collision energy: 15
Resolution: 17500
Column name: Acquity BEH C18 1.7um, 2.1x150mm (Waters)
Retention time: 14.383 min
Base peak: 79.0211
Precursor m/z: 224.1281
Precursor type: [M+H]+
Precursor intensity: 10536585.875
m/z	relative intensity	assigned
69.0334	6	C4H5O+
87.0441	63	C4H7O2+
108.0442	16	C6H6NO+
109.0522	12	C6H7NO+
110.06	39	C6H8NO+
136.0757	436	C8H10NO+
138.0913	999	C8H12NO+
164.0705	813	C9H10NO2+
178.0863	28	C10H12NO2+
182.0815	6	C9H12NO3+
196.0972	1	C10H14NO3+
206.1176	729	C12H16NO2+
224.1281	665	C12H18NO3+
