Mass spectrum: 5-Chlorobenzotriazole; LC-ESI-QFT; MS2; CE: 90; R=17500; [M+H]+
Name: 5-Chlorobenzotriazole
Name: 5-chloro-2H-benzotriazole
Formula: C6H4ClN3
Exact mass: 153.0094
SMILES: ClC1=CC2=C(NN=N2)C=C1
InChI: InChI=1S/C6H4ClN3/c7-4-1-2-5-6(3-4)9-10-8-5/h1-3H,(H,8,9,10)
Instrument: Q Exactive Orbitrap (Thermo Scientific)
Instrument type: LC-ESI-QFT
Ms type: MS2
Ion mode: POSITIVE
Ionization: ESI
Fragmentation mode: HCD
Collision energy: 90
Resolution: 17500
Column name: Acquity BEH C18 1.7um, 2.1x150mm (Waters)
Retention time: 14.799 min
Base peak: 79.0211
Precursor m/z: 154.0167
Precursor type: [M+H]+
Precursor intensity: 452496.90625
m/z	relative intensity	assigned
61.9791	5	CHClN+
63.0229	264	C5H3+
64.0182	31	C4H2N+
72.984	303	C3H2Cl+
86.0035	22	C6N+
90.0339	311	C6H4N+
91.0417	136	C6H5N+
98.9997	999	C5H4Cl+
126.0106	85	C6H5ClN+
154.0167	230	C6H5ClN3+
