Mass spectrum: Fenbuconazole; LC-ESI-QFT; MS2; CE: 90; R=17500; [M+H]+
Name: Fenbuconazole
Name: 4-(4-chlorophenyl)-2-phenyl-2-(1,2,4-triazol-1-ylmethyl)butanenitrile
Formula: C19H17ClN4
Exact mass: 336.1142
SMILES: ClC1=CC=C(CCC(CN2C=NC=N2)(C#N)C2=CC=CC=C2)C=C1
InChI: InChI=1S/C19H17ClN4/c20-18-8-6-16(7-9-18)10-11-19(12-21,13-24-15-22-14-23-24)17-4-2-1-3-5-17/h1-9,14-15H,10-11,13H2
Instrument: Q Exactive Orbitrap (Thermo Scientific)
Instrument type: LC-ESI-QFT
Ms type: MS2
Ion mode: POSITIVE
Ionization: ESI
Fragmentation mode: HCD
Collision energy: 90
Resolution: 17500
Column name: Acquity BEH C18 1.7um, 2.1x150mm (Waters)
Retention time: 18.181 min
Base peak: 79.0211
Precursor m/z: 337.1215
Precursor type: [M+H]+
Precursor intensity: 10902840.15625
m/z	relative intensity	assigned
53.0386	6	C4H5+
63.0229	13	C5H3+
65.0385	21	C5H5+
66.0464	7	C5H6+
70.0399	658	C2H4N3+
72.9839	5	C3H2Cl+
74.9998	3	C3H4Cl+
77.0386	3	C6H5+
78.0464	4	C6H6+
79.0542	2	C6H7+
82.04	38	C3H4N3+
83.0478	5	C3H5N3+
89.0386	210	C7H5+
90.0464	44	C7H6+
91.0542	111	C7H7+
95.0491	22	C3H10ClN+
98.9996	95	C5H4Cl+
102.0464	6	C8H6+
103.0542	64	C8H7+
104.0493	2	C7H6N+
104.062	6	C8H8+
105.0448	8	C6H5N2+
115.0543	23	C9H7+
116.0495	5	C8H6N+
116.0621	11	C9H8+
117.0572	1	C8H7N+
121.065	1	C5H12ClN+
125.0153	999	C7H6Cl+
127.054	3	C10H7+
128.062	53	C10H8+
129.0573	7	C9H7N+
129.0698	13	C10H9+
139.031	3	C8H8Cl+
140.049	1	C10H6N+
145.0648	7	C7H12ClN+
149.0153	4	C9H6Cl+
154.0653	2	C11H8N+
155.0604	10	C10H7N2+
155.073	1	C11H9N+
215.0855	9	C17H11+
