Mass spectrum: SR125047; LC-ESI-QFT; MS2; CE: 45; R=17500; [M+H]+
Name: SR125047
Name: 1-[(2Z)-3-(2-Chloro-3'-methoxybiphenyl-4-yl)prop-2-en-1-yl]azepane
Name: 1-[(Z)-3-[3-chloro-4-(3-methoxyphenyl)phenyl]prop-2-enyl]azepane
Formula: C22H26ClNO
Exact mass: 355.1703
SMILES: COc1cccc(-c2ccc(/C=C\CN3CCCCCC3)cc2Cl)c1
InChI: InChI=1S/C22H26ClNO/c1-25-20-10-6-9-19(17-20)21-12-11-18(16-22(21)23)8-7-15-24-13-4-2-3-5-14-24/h6-12,16-17H,2-5,13-15H2,1H3/b8-7-
Instrument: Q Exactive Orbitrap (Thermo Scientific)
Instrument type: LC-ESI-QFT
Ms type: MS2
Ion mode: POSITIVE
Ionization: ESI
Fragmentation mode: HCD
Collision energy: 45
Resolution: 17500
Column name: Acquity BEH C18 1.7um, 2.1x150mm (Waters)
Retention time: 15.993 min
Base peak: 79.0212
Precursor m/z: 356.1776
Precursor type: [M+H]+
Precursor intensity: 31574164.5
m/z	relative intensity	assigned
98.0964	22	C6H12N+
100.112	2	C6H14N+
149.0154	1	C9H6Cl+
165.0699	4	C13H9+
166.0778	1	C13H10+
178.0776	8	C14H10+
179.0855	13	C14H11+
181.0648	1	C13H9O+
189.0469	2	C12H10Cl+
189.0698	2	C15H9+
190.0778	7	C15H10+
191.0855	17	C15H11+
192.0933	15	C15H12+
193.1013	24	C15H13+
194.0727	13	C14H10O+
194.109	37	C15H14+
195.0805	1	C14H11O+
199.031	4	C13H8Cl+
201.0467	9	C13H10Cl+
203.0853	4	C16H11+
204.0936	3	C16H12+
205.0646	1	C15H9O+
205.1013	2	C16H13+
206.0727	15	C15H10O+
207.0804	90	C15H11O+
212.0388	1	C14H9Cl+
214.018	1	C13H7ClO+
214.0546	2	C14H11Cl+
215.0262	2	C13H8ClO+
216.0339	1	C13H9ClO+
217.0409	2	C13H10ClO+
221.0962	113	C16H13O+
222.1038	999	C16H14O+
225.0464	13	C15H10Cl+
226.0543	6	C15H11Cl+
227.0257	3	C14H8ClO+
227.062	4	C15H12Cl+
228.0342	1	C14H9ClO+
229.0415	126	C14H10ClO+
229.0776	40	C15H14Cl+
239.062	2	C16H12Cl+
241.0413	1	C15H10ClO+
242.0492	109	C15H11ClO+
255.058	1	C16H12ClO+
257.0727	94	C16H14ClO+
