Mass spectrum: 4-Methylumbelliferone; LC-ESI-QFT; MS2; CE: 90; R=17500; [M+H]+
Name: 4-Methylumbelliferone
Name: 7-hydroxy-4-methylchromen-2-one
Formula: C10H8O3
Exact mass: 176.0473
SMILES: CC1=CC(=O)OC2=C1C=CC(O)=C2
InChI: InChI=1S/C10H8O3/c1-6-4-10(12)13-9-5-7(11)2-3-8(6)9/h2-5,11H,1H3
Instrument: Q Exactive Orbitrap (Thermo Scientific)
Instrument type: LC-ESI-QFT
Ms type: MS2
Ion mode: POSITIVE
Ionization: ESI
Fragmentation mode: HCD
Collision energy: 90
Resolution: 17500
Column name: Acquity BEH C18 1.7um, 2.1x150mm (Waters)
Retention time: 14.071 min
Base peak: 79.0211
Precursor m/z: 177.0546
Precursor type: [M+H]+
Precursor intensity: 3030356
m/z	relative intensity	assigned
50.0152	10	C4H2+
51.0229	16	C4H3+
53.0386	234	C4H5+
55.0179	94	C3H3O+
65.0386	43	C5H5+
67.0179	3	C4H3O+
68.9971	455	C3HO2+
77.0385	103	C6H5+
79.0542	413	C6H7+
81.0335	33	C5H5O+
81.0699	108	C6H9+
89.0386	12	C7H5+
91.0543	680	C7H7+
93.0699	348	C7H9+
94.0414	31	C6H6O+
95.0492	750	C6H7O+
102.0464	31	C8H6+
103.0543	999	C8H7+
104.062	8	C8H8+
105.0699	172	C8H9+
106.0414	8	C7H6O+
107.0492	67	C7H7O+
109.0647	8	C7H9O+
115.0543	97	C9H7+
118.0415	5	C8H6O+
119.0486	3	C8H7O+
121.0648	393	C8H9O+
131.0493	53	C9H7O+
132.057	19	C9H8O+
134.0362	31	C8H6O2+
135.0441	4	C8H7O2+
137.0234	5	C7H5O3+
147.0442	4	C9H7O2+
149.0597	7	C9H9O2+
177.0547	47	C10H9O3+
