Mass spectrum: Nimesulide; LC-ESI-QFT; MS2; CE: 30; R=17500; [M-H]-
Name: Nimesulide
Name: N-(4-nitro-2-phenoxyphenyl)methanesulfonamide
Formula: C13H12N2O5S
Exact mass: 308.0467
SMILES: CS(=O)(=O)NC1=CC=C(C=C1OC1=CC=CC=C1)[N+]([O-])=O
InChI: InChI=1S/C13H12N2O5S/c1-21(18,19)14-12-8-7-10(15(16)17)9-13(12)20-11-5-3-2-4-6-11/h2-9,14H,1H3
Instrument: Q Exactive Orbitrap (Thermo Scientific)
Instrument type: LC-ESI-QFT
Ms type: MS2
Ion mode: NEGATIVE
Ionization: ESI
Fragmentation mode: HCD
Collision energy: 30
Resolution: 17500
Column name: Acquity BEH C18 1.7um, 2.1x150mm (Waters)
Retention time: 16.701 min
Base peak: 429.0536
Precursor m/z: 307.0394
Precursor type: [M-H]-
Precursor intensity: 25150934.51563
m/z	relative intensity	assigned
63.9625	30	O2S-
78.986	221	CH3O2S-
122.0244	3	C6H4NO2-
198.0561	32	C12H8NO2-
199.064	3	C12H9NO2-
213.08	1	C13H11NO2-
227.0465	14	C12H7N2O3-
228.0543	330	C12H8N2O3-
229.0618	999	C12H9N2O3-
261.0463	4	C13H11NO3S-
307.0395	25	C13H11N2O5S-
