Mass spectrum: Warfarin; LC-ESI-QFT; MS2; CE: 45; R=17500; [M-H]-
Name: Warfarin
Name: 4-hydroxy-3-(3-oxo-1-phenylbutyl)chromen-2-one
Formula: C19H16O4
Exact mass: 308.1049
SMILES: CC(=O)CC(C1=CC=CC=C1)C1=C(O)C2=CC=CC=C2OC1=O
InChI: InChI=1S/C19H16O4/c1-12(20)11-15(13-7-3-2-4-8-13)17-18(21)14-9-5-6-10-16(14)23-19(17)22/h2-10,15,21H,11H2,1H3
Instrument: Q Exactive Orbitrap (Thermo Scientific)
Instrument type: LC-ESI-QFT
Ms type: MS2
Ion mode: NEGATIVE
Ionization: ESI
Fragmentation mode: HCD
Collision energy: 45
Resolution: 17500
Column name: Acquity BEH C18 1.7um, 2.1x150mm (Waters)
Retention time: 17.443 min
Base peak: 307.0976
Precursor m/z: 307.0976
Precursor type: [M-H]-
Precursor intensity: 103033806.0508
m/z	relative intensity	assigned
57.0345	448	C3H5O-
83.0138	16	C4H3O2-
93.0346	18	C6H5O-
101.0398	1	C8H5-
108.0218	1	C6H4O2-
115.0554	1	C9H7-
117.0345	233	C8H5O-
119.0501	2	C8H7O-
130.0422	5	C9H6O-
133.0295	1	C8H5O2-
133.0659	16	C9H9O-
135.0451	3	C8H7O2-
141.0714	1	C11H9-
143.0502	1	C10H7O-
145.066	3	C10H9O-
157.0658	16	C11H9O-
161.0244	999	C9H5O3-
187.0761	5	C12H11O2-
195.0815	7	C14H11O-
205.0661	2	C15H9O-
206.0735	30	C15H10O-
219.0815	4	C16H11O-
221.0606	6	C15H9O2-
221.0969	10	C16H13O-
222.0686	10	C15H10O2-
223.0764	43	C15H11O2-
233.0974	1	C17H13O-
237.0916	1	C16H13O2-
243.081	1	C18H11O-
245.0972	2	C18H13O-
247.0771	2	C17H11O2-
248.0845	3	C17H12O2-
249.0563	1	C16H9O3-
250.0634	954	C16H10O3-
261.092	7	C18H13O2-
263.108	1	C18H15O2-
289.0874	3	C19H13O3-
307.0975	38	C19H15O4-
