Mass spectrum: Oxadixyl; LC-ESI-QFT; MS2; CE: 15; R=17500; [M+H]+
Name: Oxadixyl
Name: N-(2,6-dimethylphenyl)-2-methoxy-N-(2-oxo-1,3-oxazolidin-3-yl)acetamide
Formula: C14H18N2O4
Exact mass: 278.1267
SMILES: COCC(=O)N(N1CCOC1=O)C1=C(C)C=CC=C1C
InChI: InChI=1S/C14H18N2O4/c1-10-5-4-6-11(2)13(10)16(12(17)9-19-3)15-7-8-20-14(15)18/h4-6H,7-9H2,1-3H3
Instrument: Q Exactive Orbitrap (Thermo Scientific)
Instrument type: LC-ESI-QFT
Ms type: MS2
Ion mode: POSITIVE
Ionization: ESI
Fragmentation mode: HCD
Collision energy: 15
Resolution: 17500
Column name: Acquity BEH C18 1.7um, 2.1x150mm (Waters)
Retention time: 14.470 min
Base peak: 79.0211
Precursor m/z: 279.1339
Precursor type: [M+H]+
Precursor intensity: 1146485.125
m/z	relative intensity	assigned
102.0549	183	C4H8NO2+
121.065	17	C8H9O+
132.081	39	C9H10N+
133.0882	18	C9H11N+
149.0236	35	C8H5O3+
219.1129	999	C12H15N2O2+
