Mass spectrum: Flutolanil; LC-ESI-QFT; MS2; CE: 60; R=17500; [M+H]+
Name: Flutolanil
Name: N-(3-propan-2-yloxyphenyl)-2-(trifluoromethyl)benzamide
Formula: C17H16F3NO2
Exact mass: 323.1133
SMILES: CC(C)OC1=CC(NC(=O)C2=C(C=CC=C2)C(F)(F)F)=CC=C1
InChI: InChI=1S/C17H16F3NO2/c1-11(2)23-13-7-5-6-12(10-13)21-16(22)14-8-3-4-9-15(14)17(18,19)20/h3-11H,1-2H3,(H,21,22)
Instrument: Q Exactive Orbitrap (Thermo Scientific)
Instrument type: LC-ESI-QFT
Ms type: MS2
Ion mode: POSITIVE
Ionization: ESI
Fragmentation mode: HCD
Collision energy: 60
Resolution: 17500
Column name: Acquity BEH C18 1.7um, 2.1x150mm (Waters)
Retention time: 17.455 min
Base peak: 79.0212
Precursor m/z: 324.1206
Precursor type: [M+H]+
Precursor intensity: 26042450.25
m/z	relative intensity	assigned
53.0022	8	C3HO+
53.0387	4	C4H5+
53.9974	2	C2NO+
55.0178	34	C3H3O+
65.0385	845	C5H5+
67.9893	1	C3O2+
68.997	12	C3HO2+
69.0335	6	C4H5O+
71.0128	4	C3H3O2+
79.0178	10	C5H3O+
83.0128	6	C4H3O2+
83.0491	1	C5H7O+
84.0205	1	C4H4O2+
91.0543	1	C7H7+
92.0495	1	C6H6N+
93.0335	46	C6H5O+
95.0491	1	C6H7O+
97.0285	3	C5H5O2+
107.0493	1	C7H7O+
110.0363	14	C6H6O2+
111.044	646	C6H7O2+
113.0483	1	C5H7NO2+
119.013	2	C7H3O2+
120.0445	3	C7H6NO+
122.0366	2	C7H6O2+
123.024	4	C7H4FO+
125.0599	2	C7H9O2+
130.0288	300	C8H4NO+
139.0189	2	C7H4FO2+
139.054	3	C11H7+
145.0259	79	C7H4F3+
146.0235	1	C8H4NO2+
150.035	3	C8H5FNO+
159.0603	1	C11H8F+
162.055	7	C9H8NO2+
166.0652	16	C12H8N+
167.0491	2	C12H7O+
171.0603	1	C12H8F+
173.0209	281	C8H4F3O+
174.0351	2	C10H5FNO+
180.0443	4	C12H6NO+
186.0717	2	C12H9FN+
187.0555	3	C12H8FO+
194.0602	17	C13H8NO+
195.0678	2	C13H9NO+
196.0556	1	C13H7FN+
198.0715	2	C13H9FN+
199.0551	1	C13H8FO+
200.0505	6	C12H7FNO+
201.0349	2	C12H6FO2+
212.0709	1	C13H10NO2+
214.0663	26	C13H9FNO+
215.0742	1	C13H10FNO+
222.0549	16	C14H8NO2+
224.0503	7	C14H7FNO+
240.0656	7	C12H9F3NO+
241.0535	1	C14H8FNO2+
242.0611	999	C14H9FNO2+
262.0674	41	C14H10F2NO2+
