Mass spectrum: 2-phenylphenate tetrahydrate; LC-ESI-QFT; MS2; CE: 60; R=17500; [M+H]+
Name: 2-phenylphenate tetrahydrate
Name: 2-phenylphenol
Formula: C12H10O
Exact mass: 170.0732
SMILES: OC1=C(C=CC=C1)C1=CC=CC=C1
InChI: InChI=1S/C12H10O/c13-12-9-5-4-8-11(12)10-6-2-1-3-7-10/h1-9,13H
Instrument: Q Exactive Orbitrap (Thermo Scientific)
Instrument type: LC-ESI-QFT
Ms type: MS2
Ion mode: POSITIVE
Ionization: ESI
Fragmentation mode: HCD
Collision energy: 60
Resolution: 17500
Column name: Acquity BEH C18 1.7um, 2.1x150mm (Waters)
Retention time: 18.023 min
Base peak: 79.0211
Precursor m/z: 171.0804
Precursor type: [M+H]+
Precursor intensity: 1543729.78125
m/z	relative intensity	assigned
55.0179	32	C3H3O+
55.0542	27	C4H7+
57.0699	23	C4H9+
65.0385	6	C5H5+
83.0856	22	C6H11+
91.0544	17	C7H7+
103.0542	29	C8H7+
115.0543	103	C9H7+
117.0701	6	C9H9+
127.0542	28	C10H7+
128.0621	999	C10H8+
129.0699	69	C10H9+
131.0495	7	C9H7O+
141.07	50	C11H9+
142.0775	12	C11H10+
143.0495	22	C10H7O+
143.0856	355	C11H11+
144.0573	6	C10H8O+
145.0649	134	C10H9O+
152.0622	330	C12H8+
153.0699	361	C12H9+
154.078	6	C12H10+
156.0569	5	C11H8O+
159.0807	3	C11H11O+
169.0648	36	C12H9O+
170.0729	18	C12H10O+
171.0805	354	C12H11O+
