Mass spectrum: Topramezone; LC-ESI-QFT; MS2; CE: 90; R=17500; [M-H]-
Name: Topramezone
Formula: C16H17N3O5S
Exact mass: 363.0889
SMILES: CN1N=CC(C(=O)C2=C(C)C(C3=NOCC3)=C(C=C2)S(C)(=O)=O)=C1O
InChI: InChI=1S/C16H17N3O5S/c1-9-10(15(20)11-8-17-19(2)16(11)21)4-5-13(25(3,22)23)14(9)12-6-7-24-18-12/h4-5,8,21H,6-7H2,1-3H3
Instrument: Q Exactive Orbitrap (Thermo Scientific)
Instrument type: LC-ESI-QFT
Ms type: MS2
Ion mode: NEGATIVE
Ionization: ESI
Fragmentation mode: HCD
Collision energy: 90
Resolution: 17500
Column name: Acquity BEH C18 1.7um, 2.1x150mm (Waters)
Retention time: 12.785 min
Base peak: 200.0387
Precursor m/z: 362.0816
Precursor type: [M-H]-
Precursor intensity: 474011.739502
m/z	relative intensity	assigned
63.9625	999	O2S-
65.9985	281	C3NO-
78.986	743	CH3O2S-
82.0174	332	C3H2N2O-
97.0408	479	C4H5N2O-
115.0553	160	C9H7-
116.0505	151	C8H6N-
130.0661	177	C9H8N-
131.0377	105	C8H5NO-
132.0452	57	C8H6NO-
168.0454	66	C11H6NO-
