Mass spectrum: Procyazine; LC-ESI-QFT; MS2; CE: 45; R=17500; [M+H]+
Name: Procyazine
Name: 2-[[4-chloro-6-(cyclopropylamino)-1,3,5-triazin-2-yl]amino]-2-methylpropanenitrile
Formula: C10H13ClN6
Exact mass: 252.0890
SMILES: CC(C)(NC1=NC(Cl)=NC(NC2CC2)=N1)C#N
InChI: InChI=1S/C10H13ClN6/c1-10(2,5-12)17-9-15-7(11)14-8(16-9)13-6-3-4-6/h6H,3-4H2,1-2H3,(H2,13,14,15,16,17)
Instrument: Q Exactive Orbitrap (Thermo Scientific)
Instrument type: LC-ESI-QFT
Ms type: MS2
Ion mode: POSITIVE
Ionization: ESI
Fragmentation mode: HCD
Collision energy: 45
Resolution: 17500
Column name: Acquity BEH C18 1.7um, 2.1x150mm (Waters)
Retention time: 15.117 min
Base peak: 79.0212
Precursor m/z: 253.0963
Precursor type: [M+H]+
Precursor intensity: 4922988.5
m/z	relative intensity	assigned
53.0022	1	ClH4N+
56.0495	9	C3H6N+
58.0651	11	C3H8N+
61.9794	2	CHClN+
67.0292	1	C3H3N2+
68.0243	7	C2H2N3+
68.0495	1	C4H6N+
70.0651	2	C4H8N+
74.9996	3	C3H4Cl+
79.0057	19	CH4ClN2+
79.029	2	C4H3N2+
81.0447	12	C4H5N2+
82.0651	6	C5H8N+
83.0604	112	C4H7N2+
85.0761	2	C4H9N2+
91.0057	1	C2H4ClN2+
102.0105	25	C4H5ClN+
103.0057	2	C3H4ClN2+
104.001	39	C2H3ClN3+
107.0603	2	C6H7N2+
108.0556	117	C5H6N3+
110.0713	55	C5H8N3+
117.0214	5	C4H6ClN2+
119.0371	248	C4H8ClN2+
120.0558	4	C6H6N3+
121.0509	13	C5H5N4+
123.0917	17	C7H11N2+
125.0821	6	C5H9N4+
125.1074	3	C7H13N2+
135.0665	4	C6H7N4+
136.0745	3	C6H8N4+
137.082	1	C6H9N4+
144.0324	163	C5H7ClN3+
145.0276	13	C4H6ClN4+
146.0227	5	C3H5ClN5+
148.087	193	C8H10N3+
149.0822	19	C7H9N4+
150.0774	19	C6H8N5+
150.1025	5	C8H12N3+
151.1104	3	C8H13N3+
157.0276	1	C5H6ClN4+
158.0231	2	C4H5ClN5+
159.0435	1	C5H8ClN4+
162.0776	1	C7H8N5+
165.1136	12	C8H13N4+
169.0279	5	C6H6ClN4+
170.0228	3	C5H5ClN5+
175.0976	1	C9H11N4+
184.0382	1	C6H7ClN5+
185.059	106	C7H10ClN4+
186.0542	289	C6H9ClN5+
190.1088	78	C9H12N5+
192.1246	2	C9H14N5+
198.0542	9	C7H9ClN5+
200.0935	1	C10H10N5+
209.0591	5	C9H10ClN4+
217.1197	44	C10H13N6+
226.0854	999	C9H13ClN5+
236.0698	2	C10H11ClN5+
253.0965	17	C10H14ClN6+
