Mass spectrum: Hexaconazole; LC-ESI-QFT; MS2; CE: 45; R=17500; [M+H]+
Name: Hexaconazole
Name: 2-(2,4-dichlorophenyl)-1-(1,2,4-triazol-1-yl)hexan-2-ol
Formula: C14H17Cl2N3O
Exact mass: 313.0749
SMILES: CCCCC(O)(CN1C=NC=N1)C1=CC=C(Cl)C=C1Cl
InChI: InChI=1S/C14H17Cl2N3O/c1-2-3-6-14(20,8-19-10-17-9-18-19)12-5-4-11(15)7-13(12)16/h4-5,7,9-10,20H,2-3,6,8H2,1H3
Instrument: Q Exactive Orbitrap (Thermo Scientific)
Instrument type: LC-ESI-QFT
Ms type: MS2
Ion mode: POSITIVE
Ionization: ESI
Fragmentation mode: HCD
Collision energy: 45
Resolution: 17500
Column name: Acquity BEH C18 1.7um, 2.1x150mm (Waters)
Retention time: 18.898 min
Base peak: 79.0211
Precursor m/z: 314.0821
Precursor type: [M+H]+
Precursor intensity: 19775164.78125
m/z	relative intensity	assigned
55.0543	6	C4H7+
57.0699	12	C4H9+
59.0491	2	C3H7O+
70.0399	999	C2H4N3+
81.0699	1	C6H9+
85.0648	6	C5H9O+
105.0335	3	C7H5O+
125.0153	18	C7H6Cl+
146.9763	3	C6H5Cl2+
149.0152	3	C9H6Cl+
150.0231	5	C9H7Cl+
153.0101	11	C8H6ClO+
158.9763	108	C7H5Cl2+
162.0663	2	C8H8N3O+
170.9765	2	C8H5Cl2+
172.992	2	C8H7Cl2+
174.9712	18	C7H5Cl2O+
184.9919	26	C9H7Cl2+
188.9868	11	C8H7Cl2O+
314.0824	1	C14H18Cl2N3O+
