Mass spectrum: Dimethenamid; LC-ESI-QFT; MS2; CE: 45; R=17500; [M+H]+
Name: Dimethenamid
Name: 2-chloro-N-(2,4-dimethylthiophen-3-yl)-N-(1-methoxypropan-2-yl)acetamide
Formula: C12H18ClNO2S
Exact mass: 275.0747
SMILES: COCC(C)N(C(=O)CCl)C1=C(C)SC=C1C
InChI: InChI=1S/C12H18ClNO2S/c1-8-7-17-10(3)12(8)14(11(15)5-13)9(2)6-16-4/h7,9H,5-6H2,1-4H3
Instrument: Q Exactive Orbitrap (Thermo Scientific)
Instrument type: LC-ESI-QFT
Ms type: MS2
Ion mode: POSITIVE
Ionization: ESI
Fragmentation mode: HCD
Collision energy: 45
Resolution: 17500
Column name: Acquity BEH C18 1.7um, 2.1x150mm (Waters)
Retention time: 17.366 min
Base peak: 79.0211
Precursor m/z: 276.082
Precursor type: [M+H]+
Precursor intensity: 15029368.3125
m/z	relative intensity	assigned
53.0022	2	C3HO+
53.0387	1	C4H5+
56.0495	2	C3H6N+
58.995	5	C2H3S+
70.065	1	C4H8N+
73.0647	56	C4H9O+
76.9788	29	C2H2ClO+
91.0542	11	C7H7+
93.0699	36	C7H9+
94.0652	1	C6H8N+
95.0491	3	C6H7O+
95.0729	4	C6H9N+
99.0262	2	C5H7S+
101.0417	1	C5H9S+
103.0543	12	C8H7+
107.0855	1	C8H11+
108.0807	8	C7H10N+
111.0263	144	C6H7S+
112.0342	2	C6H8S+
113.0295	1	C5H7NS+
113.0418	7	C6H9S+
114.0373	2	C5H8NS+
116.0262	8	C5H7ClN+
117.0698	3	C9H9+
120.0809	1	C8H10N+
121.0648	246	C8H9O+
122.0964	3	C8H12N+
123.026	1	C7H7S+
124.034	4	C7H8S+
125.0419	17	C7H9S+
126.0372	39	C6H8NS+
127.0212	9	C6H7OS+
127.045	4	C6H9NS+
127.0576	10	C7H11S+
128.0287	1	C6H8OS+
128.0528	15	C6H10NS+
129.01	2	C6H6ClO+
129.0367	9	C6H9OS+
132.0811	1	C9H10N+
133.0885	1	C9H11N+
134.0965	7	C9H12N+
135.1042	20	C9H13N+
137.0294	6	C7H7NS+
138.0372	19	C7H8NS+
138.9945	293	C7H4ClO+
140.0528	7	C7H10NS+
141.0733	1	C8H13S+
144.9875	1	C6H6ClS+
147.0028	2	C6H8ClS+
149.0421	2	C9H9S+
150.0372	13	C8H8NS+
151.0576	44	C9H11S+
152.0163	7	C7H6NOS+
152.0528	26	C8H10NS+
153.0243	19	C7H7NOS+
153.0605	4	C8H11NS+
154.032	4	C7H8NOS+
154.0684	4	C8H12NS+
159.0031	1	C7H8ClS+
166.0321	12	C8H8NOS+
166.0685	19	C9H12NS+
167.0764	68	C9H13NS+
168.0841	999	C9H14NS+
174.0143	6	C7H9ClNS+
186.0139	53	C8H9ClNS+
202.0088	13	C8H9ClNOS+
203.0165	34	C8H10ClNOS+
204.0245	19	C8H11ClNOS+
244.0557	962	C11H15ClNOS+
