Mass spectrum: PharmaGSID_48511; LC-ESI-QFT; MS2; CE: 90; R=17500; [M+H]+
Name: PharmaGSID_48511
Name: 4-[(9-cyclopentyl-7,7-difluoro-5-methyl-6-oxo-8H-pyrimido[4,5-b][1,4]diazepin-2-yl)amino]-3-methoxy-N-(1-methylpiperidin-4-yl)benzamide
Formula: C27H35F2N7O3
Exact mass: 543.2769
SMILES: COC1=C(NC2=NC3=C(C=N2)N(C)C(=O)C(F)(F)CN3C2CCCC2)C=CC(=C1)C(=O)NC1CCN(C)CC1
InChI: InChI=1S/C27H35F2N7O3/c1-34-12-10-18(11-13-34)31-24(37)17-8-9-20(22(14-17)39-3)32-26-30-15-21-23(33-26)36(19-6-4-5-7-19)16-27(28,29)25(38)35(21)2/h8-9,14-15,18-19H,4-7,10-13,16H2,1-3H3,(H,31,37)(H,30,32,33)
Instrument: Q Exactive Orbitrap (Thermo Scientific)
Instrument type: LC-ESI-QFT
Ms type: MS2
Ion mode: POSITIVE
Ionization: ESI
Fragmentation mode: HCD
Collision energy: 90
Resolution: 17500
Column name: Acquity BEH C18 1.7um, 2.1x150mm (Waters)
Retention time: 14.825 min
Base peak: 79.0211
Precursor m/z: 544.2842
Precursor type: [M+H]+
Precursor intensity: 7686382.375
m/z	relative intensity	assigned
53.0021	4	C3HO+
53.0384	5	C4H5+
54.0338	12	C3H4N+
55.0542	38	C4H7+
56.0494	3	C3H6N+
65.0386	13	C5H5+
67.0542	24	C5H7+
68.0493	6	C4H6N+
69.0447	9	C3H5N2+
69.0698	17	C5H9+
70.0651	33	C4H8N+
80.0495	15	C5H6N+
82.0651	15	C5H8N+
92.0306	17	C3H4F2N+
92.0368	8	C5H4N2+
92.0494	8	C6H6N+
93.0448	16	C5H5N2+
94.04	13	C4H4N3+
95.0365	3	C5H5NO+
96.0558	7	C4H6N3+
96.0807	19	C6H10N+
98.0965	9	C6H12N+
99.0351	6	C4H4FN2+
104.0305	4	C4H4F2N+
105.0447	20	C6H5N2+
107.0478	18	C5H5N3+
108.0556	9	C5H6N3+
116.0302	2	C5H4F2N+
118.0647	2	C3H7FN4+
119.0478	11	C6H5N3+
119.0603	11	C7H7N2+
120.0252	6	C4H4F2NO+
120.0556	32	C6H6N3+
121.0509	41	C5H5N4+
121.0635	20	C6H7N3+
122.0588	29	C5H6N4+
131.0414	9	C5H5F2N2+
133.0576	1	C5H7F2N2+
135.0665	15	C6H7N4+
143.0605	3	C9H7N2+
144.0496	3	C6H6F2N2+
145.051	29	C7H5N4+
145.0635	3	C8H7N3+
146.0586	18	C7H6N4+
156.0559	9	C9H6N3+
157.0444	11	C6H5F2N3+
160.0617	15	C7H6N5+
161.0518	2	C6H7F2N2O+
161.0584	4	C8H7N3O+
165.0408	22	C6H5N4O2+
165.0572	28	C12H7N+
166.0407	7	C2H4F2N6O+
171.0793	5	C10H9N3+
172.0507	3	C9H6N3O+
173.0697	51	C8H7N5+
174.0662	7	C9H8N3O+
174.0774	54	C8H8N5+
175.0487	3	C7H5N5O+
176.0817	4	C4H9FN6O+
177.0573	43	C13H7N+
182.0593	3	C2H6F2N7O+
183.0665	14	C10H7N4+
184.0748	15	C10H8N4+
185.0634	28	C12H8FN+
185.0825	14	C10H9N4+
186.0714	43	C12H9FN+
187.0538	6	C5H5F2N6+
195.0665	23	C11H7N4+
196.0749	8	C3H8F2N7O+
197.0624	42	C8H7F2N4+
198.0773	55	C10H8N5+
199.0621	11	C2H7F2N7O2+
199.0851	16	C10H9N5+
201.0579	18	C7H7F2N4O+
207.059	2	C10H7F2N3+
210.0775	34	C11H8N5+
212.0568	38	C10H6N5O+
212.0933	36	C11H10N5+
213.0574	13	C16H7N+
213.1008	6	C11H11N5+
214.0658	70	C8H8F2N4O+
216.0798	8	C6H8F2N7+
221.0632	4	C10H7F2N4+
222.0775	20	C9H10N4O3+
223.0852	27	C12H9N5+
224.0735	23	C9H8F2N5+
224.0931	20	C12H10N5+
225.0641	14	C11H7N5O+
225.0774	7	C12H9N4O+
225.1009	2	C12H11N5+
226.0726	115	C11H8N5O+
227.081	64	C8H10FN5O2+
228.068	134	C11H7FN5+
229.0532	161	C8H7F2N4O2+
231.0689	37	C13H10FNO2+
233.0631	12	C11H7F2N4+
236.0565	8	C12H6N5O+
236.0925	6	C13H10N5+
238.072	9	C12H8N5O+
238.1087	5	C13H12N5+
240.0512	10	C11H6N5O2+
240.0676	23	C12H7FN5+
241.0758	19	C12H8FN5+
242.0605	10	C17H8NO+
242.0835	47	C12H9FN5+
243.0678	34	C17H9NO+
243.0908	27	C12H10FN5+
246.0558	74	C8H8F2N4O3+
248.0743	26	C11H8F2N5+
249.058	5	C11H7F2N4O+
252.0687	14	C18H8N2+
252.0866	3	C13H10N5O+
254.0669	28	C12H8N5O2+
254.0835	13	C13H9FN5+
254.0987	3	C13H14F2NO2+
255.0745	34	C12H9N5O2+
256.0626	46	C12H7FN5O+
256.0987	5	C13H11FN5+
257.0703	8	C12H8FN5O+
257.0835	12	C18H11NO+
261.0582	4	C12H7F2N4O+
262.0664	10	C17H9FNO+
263.0739	74	C12H9F2N4O+
263.0967	11	C12H11F2N5+
265.0769	2	C11H9F2N5O+
265.0897	26	C17H12FNO+
267.0905	2	C14H10FN5+
268.0826	6	C13H10N5O2+
270.0551	11	C18H8NO2+
270.0793	45	C10H10F2N5O2+
271.0634	7	C13H7F2N5+
271.0862	11	C13H10FN5O+
276.0687	14	C12H8F2N5O+
276.0825	1	C15H12F2NO2+
278.0678	3	C14H8N5O2+
285.0779	5	C9H9F2N7O2+
287.0804	2	C16H9N5O+
290.0848	187	C13H10F2N5O+
291.0926	300	C13H11F2N5O+
297.0665	2	C11H9F2N5O3+
298.0746	999	C11H10F2N5O3+
302.0851	14	C19H11FN2O+
303.0926	15	C14H11F2N5O+
304.1005	26	C14H12F2N5O+
318.0799	10	C19H11FN2O2+
319.0876	236	C14H11F2N5O2+
330.0794	3	C15H10F2N5O2+
334.111	5	C15H14F2N5O2+
335.0824	47	C14H11F2N5O3+
342.1193	2	C19H16F2N2O2+
