Mass spectrum: Trinexapac-ethyl; LC-ESI-QFT; MS2; CE: 75; R=17500; [M-H]-
Name: Trinexapac-ethyl
Name: ethyl 4-[cyclopropyl(hydroxy)methylidene]-3,5-dioxocyclohexane-1-carboxylate
Formula: C13H16O5
Exact mass: 252.0998
SMILES: CCOC(=O)C1CC(=O)C(=C(O)C2CC2)C(=O)C1
InChI: InChI=1S/C13H16O5/c1-2-18-13(17)8-5-9(14)11(10(15)6-8)12(16)7-3-4-7/h7-8,16H,2-6H2,1H3
Instrument: Q Exactive Orbitrap (Thermo Scientific)
Instrument type: LC-ESI-QFT
Ms type: MS2
Ion mode: NEGATIVE
Ionization: ESI
Fragmentation mode: HCD
Collision energy: 75
Resolution: 17500
Column name: Acquity BEH C18 1.7um, 2.1x150mm (Waters)
Retention time: 17.175 min
Base peak: 193.0869
Precursor m/z: 251.0925
Precursor type: [M-H]-
Precursor intensity: 497798.9394531
m/z	relative intensity	assigned
65.0397	254	C5H5-
67.0188	163	C4H3O-
83.0502	468	C5H7O-
85.0296	120	C4H5O2-
91.0189	254	C6H3O-
93.0346	174	C6H5O-
95.0138	365	C5H3O2-
107.0503	322	C7H7O-
109.0296	999	C6H5O2-
111.0453	200	C6H7O2-
121.0297	135	C7H5O2-
122.0373	107	C7H6O2-
133.066	297	C9H9O-
135.0088	233	C7H3O3-
135.0454	185	C8H7O2-
135.082	108	C9H11O-
137.0608	322	C8H9O2-
159.0447	96	C10H7O2-
163.0402	125	C9H7O3-
177.0557	231	C10H9O3-
179.0718	88	C10H11O3-
