Mass spectrum: Bisphenol AF; LC-ESI-QFT; MS2; CE: 60; R=17500; [M-H]-
Name: Bisphenol AF
Name: 4-[1,1,1,3,3,3-hexafluoro-2-(4-hydroxyphenyl)propan-2-yl]phenol
Formula: C15H10F6O2
Exact mass: 336.0585
SMILES: OC1=CC=C(C=C1)C(C1=CC=C(O)C=C1)(C(F)(F)F)C(F)(F)F
InChI: InChI=1S/C15H10F6O2/c16-14(17,18)13(15(19,20)21,9-1-5-11(22)6-2-9)10-3-7-12(23)8-4-10/h1-8,22-23H
Instrument: Q Exactive Orbitrap (Thermo Scientific)
Instrument type: LC-ESI-QFT
Ms type: MS2
Ion mode: NEGATIVE
Ionization: ESI
Fragmentation mode: HCD
Collision energy: 60
Resolution: 17500
Column name: Acquity BEH C18 1.7um, 2.1x150mm (Waters)
Retention time: 17.625 min
Base peak: 335.0513
Precursor m/z: 335.0512
Precursor type: [M-H]-
Precursor intensity: 70717126.20898
m/z	relative intensity	assigned
68.9958	445	CF3-
84.9906	1	CF3O-
108.0217	11	C6H4O2-
108.9906	2	C3F3O-
111.0252	108	C6H4FO-
141.0347	1	C10H5O-
149.0397	13	C12H5-
153.0345	8	C3H6F5O-
161.022	22	C7H4F3O-
167.0502	7	C12H7O-
169.0459	19	C12H6F-
171.0451	2	C11H7O2-
177.0346	81	C13H5O-
178.0425	1	C13H6O-
185.0407	4	C4H7F6O-
187.0565	21	C12H8FO-
195.0451	69	C13H7O2-
196.0531	5	C13H8O2-
197.0408	121	C13H6FO-
199.0371	2	C10H6F3O-
201.0358	2	C12H6FO2-
205.0295	37	C14H5O2-
207.0252	7	C14H4FO-
213.0359	11	C13H6FO2-
215.0515	78	C13H8FO2-
216.0392	11	C13H6F2O-
217.047	14	C13H7F2O-
221.0238	1	C9H5F4O2-
223.0402	4	C9H7F4O2-
223.0595	4	C12H9F2O2-
224.0279	11	C14H5FO2-
225.0358	150	C14H6FO2-
227.0316	18	C14H5F2O-
235.0199	3	C7H5F6O2-
237.0536	1	C13H8F3O-
241.0306	2	C9H6F5O2-
244.0341	141	C14H6F2O2-
245.0419	178	C14H7F2O2-
246.0496	3	C14H8F2O2-
247.0374	2	C14H6F3O-
255.0265	12	C15H5F2O2-
265.0482	999	C14H8F3O2-
275.0324	5	C15H6F3O2-
295.0385	5	C15H7F4O2-
