Mass spectrum: Meloxicam; LC-ESI-QFT; MS2; CE: 45; R=17500; [M-H]-
Name: Meloxicam
Name: 4-hydroxy-2-methyl-N-(5-methyl-1,3-thiazol-2-yl)-1,1-dioxo-1lambda6,2-benzothiazine-3-carboxamide
Formula: C14H13N3O4S2
Exact mass: 351.0347
SMILES: CN1C(C(=O)NC2=NC=C(C)S2)=C(O)C2=C(C=CC=C2)S1(=O)=O
InChI: InChI=1S/C14H13N3O4S2/c1-8-7-15-14(22-8)16-13(19)11-12(18)9-5-3-4-6-10(9)23(20,21)17(11)2/h3-7,18H,1-2H3,(H,15,16,19)
Instrument: Q Exactive Orbitrap (Thermo Scientific)
Instrument type: LC-ESI-QFT
Ms type: MS2
Ion mode: NEGATIVE
Ionization: ESI
Fragmentation mode: HCD
Collision energy: 45
Resolution: 17500
Column name: Acquity BEH C18 1.7um, 2.1x150mm (Waters)
Retention time: 16.796 min
Base peak: 189.0169
Precursor m/z: 350.0275
Precursor type: [M-H]-
Precursor intensity: 15544038.49219
m/z	relative intensity	assigned
56.9805	2	C2HS-
57.9757	7	CNS-
65.0033	1	C4HO-
70.9836	1	C2HNS-
71.9914	3	C2H2NS-
79.0302	4	C4H3N2-
80.9806	1	C4HS-
84.0093	1	C3H2NO2-
86.007	13	C3H4NS-
91.0553	3	C7H7-
96.9993	1	C4H3NS-
97.9944	3	C3H2N2S-
101.0398	1	C8H5-
102.035	2	C7H4N-
106.996	8	C6H3S-
107.9912	1	C5H2NS-
109.0116	7	C6H5S-
111.0023	3	C4H3N2S-
112.0102	5	C4H4N2S-
113.0179	999	C4H5N2S-
116.0506	6	C8H6N-
118.0663	4	C8H8N-
119.0502	290	C8H7O-
120.9993	3	C6H3NS-
122.9908	1	C6H3OS-
123.9862	1	C5H2NOS-
124.994	11	C5H3NOS-
127.0335	5	C5H7N2S-
128.0505	29	C9H6N-
131.0376	298	C8H5NO-
132.0455	1	C8H6NO-
134.007	13	C7H4NS-
134.9909	6	C7H3OS-
135.9863	9	C6H2NOS-
136.0226	37	C7H6NS-
137.0066	1	C7H5OS-
138.013	3	C5H4N3S-
140.0287	3	C5H6N3S-
144.0455	139	C9H6NO-
145.0295	38	C9H5O2-
145.0405	3	C8H5N2O-
146.0611	839	C9H8NO-
147.0144	1	H9N3O2S2-
148.0225	17	C8H6NS-
148.9938	10	C7H3NOS-
150.9859	21	C7H3O2S-
151.9811	10	C6H2NO2S-
160.0405	6	C9H6NO2-
162.002	4	C8H4NOS-
162.0565	1	C9H8NO2-
163.0098	11	C8H5NOS-
164.0175	61	C8H6NOS-
164.989	12	C7H3NO2S-
172.0405	6	C10H6NO2-
176.989	14	C8H3NO2S-
182.0392	4	C7H8N3OS-
192.0125	104	C9H6NO2S-
199.0388	1	C10H5N3O2-
200.0461	1	C10H6N3O2-
208.0877	12	C13H10N3-
210.023	15	C9H8NO3S-
214.0623	2	C11H8N3O2-
217.0439	5	C11H9N2OS-
240.0776	3	C13H10N3O2-
243.0469	3	C12H9N3OS-
252.0778	51	C14H10N3O2-
271.0422	20	C13H9N3O2S-
286.0656	5	C14H12N3O2S-
