Mass spectrum: 1,4-Bis(N-isopropylamino)anthraquinone; LC-ESI-QFT; MS2; CE: 60; R=17500; [M+H]+
Name: 1,4-Bis(N-isopropylamino)anthraquinone
Name: Solvent Blue 36
Name: 1,4-bis(propan-2-ylamino)anthracene-9,10-dione
Formula: C20H22N2O2
Exact mass: 322.1681
SMILES: CC(C)NC1=CC=C(NC(C)C)C2=C1C(=O)C1=CC=CC=C1C2=O
InChI: InChI=1S/C20H22N2O2/c1-11(2)21-15-9-10-16(22-12(3)4)18-17(15)19(23)13-7-5-6-8-14(13)20(18)24/h5-12,21-22H,1-4H3
Instrument: Q Exactive Orbitrap (Thermo Scientific)
Instrument type: LC-ESI-QFT
Ms type: MS2
Ion mode: POSITIVE
Ionization: ESI
Fragmentation mode: HCD
Collision energy: 60
Resolution: 17500
Column name: Acquity BEH C18 1.7um, 2.1x150mm (Waters)
Retention time: 20.132 min
Base peak: 79.0211
Precursor m/z: 323.1754
Precursor type: [M+H]+
Precursor intensity: 2267854.53125
m/z	relative intensity	assigned
58.0652	21	C3H8N+
105.0335	6	C7H5O+
196.0758	7	C13H10NO+
208.0759	5	C14H10NO+
210.092	7	C14H12NO+
222.0916	12	C15H12NO+
223.0629	19	C14H9NO2+
223.0864	108	C14H11N2O+
224.0707	89	C14H10NO2+
225.0785	14	C14H11NO2+
230.0975	3	C17H12N+
232.0755	16	C16H10NO+
236.0946	7	C15H12N2O+
237.0666	5	C14H9N2O2+
237.1025	49	C15H13N2O+
238.0734	22	C14H10N2O2+
239.0816	25	C14H11N2O2+
240.0892	6	C14H12N2O2+
246.0915	18	C17H12NO+
247.0866	434	C16H11N2O+
248.0707	32	C16H10NO2+
248.092	12	C16H12N2O+
249.1018	11	C16H13N2O+
250.0862	5	C16H12NO2+
261.1021	5	C17H13N2O+
262.1098	6	C17H14N2O+
263.1174	14	C17H15N2O+
264.1018	3	C17H14NO2+
264.124	7	C17H16N2O+
265.0973	999	C16H13N2O2+
266.1049	12	C16H14N2O2+
275.1142	8	C18H15N2O+
280.1207	18	C17H16N2O2+
281.128	7	C17H17N2O2+
290.1372	24	C19H18N2O+
308.1478	39	C19H20N2O2+
