Mass spectrum: Isazofos; LC-ESI-QFT; MS2; CE: 15; R=17500; [M+H]+
Name: Isazofos
Name: (5-chloro-1-propan-2-yl-1,2,4-triazol-3-yl)oxy-diethoxy-sulfanylidene-lambda5-phosphane
Formula: C9H17ClN3O3PS
Exact mass: 313.0417
SMILES: CCOP(=S)(OCC)OC1=NN(C(C)C)C(Cl)=N1
InChI: InChI=1S/C9H17ClN3O3PS/c1-5-14-17(18,15-6-2)16-9-11-8(10)13(12-9)7(3)4/h7H,5-6H2,1-4H3
Instrument: Q Exactive Orbitrap (Thermo Scientific)
Instrument type: LC-ESI-QFT
Ms type: MS2
Ion mode: POSITIVE
Ionization: ESI
Fragmentation mode: HCD
Collision energy: 15
Resolution: 17500
Column name: Acquity BEH C18 1.7um, 2.1x150mm (Waters)
Retention time: 17.724 min
Base peak: 79.0211
Precursor m/z: 314.049
Precursor type: [M+H]+
Precursor intensity: 17733773.75
m/z	relative intensity	assigned
114.9613	16	H4O3PS+
142.9926	4	C2H8O3PS+
148.027	3	C3H7N3O2P+
153.0131	10	C4H10O2PS+
162.0428	452	C4H9N3O2P+
171.0238	48	C4H12O3PS+
178.02	1	C5H9ClN3S+
185.0394	3	C5H14O3PS+
190.074	12	C6H13N3O2P+
215.9392	3	C6HClN2O3S+
243.9706	46	C4H8ClN3O3PS+
257.9861	4	C9H7ClN2O3S+
272.0019	207	C6H12ClN3O3PS+
286.0176	182	C7H14ClN3O3PS+
314.0488	999	C9H18ClN3O3PS+
