Mass spectrum: Bupirimate; LC-ESI-QFT; MS2; CE: 45; R=17500; [M+H]+
Name: Bupirimate
Name: [5-butyl-2-(ethylamino)-6-methylpyrimidin-4-yl] N,N-dimethylsulfamate
Formula: C13H24N4O3S
Exact mass: 316.1569
SMILES: CCCCC1=C(OS(=O)(=O)N(C)C)N=C(NCC)N=C1C
InChI: InChI=1S/C13H24N4O3S/c1-6-8-9-11-10(3)15-13(14-7-2)16-12(11)20-21(18,19)17(4)5/h6-9H2,1-5H3,(H,14,15,16)
Instrument: Q Exactive Orbitrap (Thermo Scientific)
Instrument type: LC-ESI-QFT
Ms type: MS2
Ion mode: POSITIVE
Ionization: ESI
Fragmentation mode: HCD
Collision energy: 45
Resolution: 17500
Column name: Acquity BEH C18 1.7um, 2.1x150mm (Waters)
Retention time: 17.276 min
Base peak: 79.0211
Precursor m/z: 317.1642
Precursor type: [M+H]+
Precursor intensity: 29020840.4375
m/z	relative intensity	assigned
53.0386	1	C4H5+
55.0179	3	C3H3O+
55.0543	4	C4H7+
57.0699	1	C4H9+
67.0542	1	C5H7+
69.0083	11	C2HN2O+
69.0447	3	C3H5N2+
69.0697	2	C5H9+
70.0651	4	C4H8N+
71.0603	9	C3H7N2+
79.0541	1	C6H7+
80.0493	1	C5H6N+
81.0699	2	C6H9+
82.0651	3	C5H8N+
83.0603	2	C4H7N2+
84.0444	2	C4H6NO+
84.0808	8	C5H10N+
85.0759	1	C4H9N2+
86.0712	11	C3H8N3+
91.0542	1	C7H7+
93.0699	3	C7H9+
94.0651	1	C6H8N+
95.0603	5	C5H7N2+
95.0856	7	C7H11+
96.0444	22	C5H6NO+
96.0808	10	C6H10N+
97.0397	26	C4H5N2O+
97.0648	3	C6H9O+
98.06	17	C5H8NO+
106.065	1	C7H8N+
107.0729	1	C7H9N+
108.0114	999	C2H6NO2S+
109.076	6	C6H9N2+
110.06	2	C6H8NO+
110.0713	2	C5H8N3+
110.0964	23	C7H12N+
111.0917	1	C6H11N2+
112.0505	4	C4H6N3O+
112.1119	4	C7H14N+
114.0663	1	C4H8N3O+
120.0809	6	C8H10N+
121.0645	1	C8H9O+
121.0758	1	C7H9N2+
122.0712	6	C6H8N3+
122.0963	2	C8H12N+
123.0555	3	C6H7N2O+
123.0793	1	C6H9N3+
123.0917	3	C7H11N2+
124.0631	1	C6H8N2O+
124.076	1	C7H10NO+
124.0869	3	C6H10N3+
125.0585	3	C5H7N3O+
126.022	4	C2H8NO3S+
126.0662	1	C5H8N3O+
136.0873	1	C7H10N3+
137.0584	1	C6H7N3O+
137.0947	1	C7H11N3+
137.1075	8	C8H13N2+
138.0661	27	C6H8N3O+
138.0914	14	C8H12NO+
138.1026	13	C7H12N3+
139.074	33	C6H9N3O+
139.0866	2	C7H11N2O+
139.1229	6	C8H15N2+
140.0374	8	C3H10NO3S+
140.107	131	C8H14NO+
142.0975	2	C6H12N3O+
148.0869	29	C8H10N3+
149.1073	3	C9H13N2+
150.1026	228	C8H12N3+
151.0739	4	C7H9N3O+
151.1229	21	C9H15N2+
152.0818	22	C7H10N3O+
152.1181	4	C8H14N3+
153.0895	6	C7H11N3O+
154.0974	6	C7H12N3O+
156.0529	1	C6H8N2O3+
163.0868	2	C9H11N2O+
164.0821	5	C8H10N3O+
164.1183	4	C9H14N3+
165.09	61	C8H11N3O+
165.1022	85	C9H13N2O+
166.0975	910	C8H12N3O+
167.1053	100	C8H13N3O+
178.0648	2	C5H12N3O2S+
179.1292	3	C9H15N4+
180.1133	25	C9H14N3O+
180.1495	52	C10H18N3+
181.1209	15	C9H15N3O+
182.1289	27	C9H16N3O+
190.1342	1	C11H16N3+
191.1177	8	C11H15N2O+
192.1495	28	C11H18N3+
193.1336	67	C11H17N2O+
194.1288	91	C10H16N3O+
196.1317	3	C9H16N4O+
196.1441	2	C10H18N3O+
198.0998	2	C9H14N2O3+
206.1282	2	C11H16N3O+
208.1445	373	C11H18N3O+
209.1523	16	C11H19N3O+
209.1757	2	C11H21N4+
210.1601	539	C11H20N3O+
224.1757	40	C12H22N3O+
228.0799	5	C9H14N3O2S+
237.2073	183	C13H25N4+
244.0748	4	C9H14N3O3S+
254.0956	6	C11H16N3O2S+
262.0856	37	C12H14N4OS+
272.1063	123	C11H18N3O3S+
317.1642	49	C13H25N4O3S+
