Mass spectrum: 4,4`-Methylenebis(2-methylaniline); LC-ESI-QFT; MS2; CE: 75; R=17500; [M+H]+
Name: 4,4'-Methylenebis(2-methylaniline)
Name: 4-[(4-amino-3-methylphenyl)methyl]-2-methylaniline
Formula: C15H18N2
Exact mass: 226.1470
SMILES: CC1=C(N)C=CC(CC2=CC(C)=C(N)C=C2)=C1
InChI: InChI=1S/C15H18N2/c1-10-7-12(3-5-14(10)16)9-13-4-6-15(17)11(2)8-13/h3-8H,9,16-17H2,1-2H3
Instrument: Q Exactive Orbitrap (Thermo Scientific)
Instrument type: LC-ESI-QFT
Ms type: MS2
Ion mode: POSITIVE
Ionization: ESI
Fragmentation mode: HCD
Collision energy: 75
Resolution: 17500
Column name: Acquity BEH C18 1.7um, 2.1x150mm (Waters)
Retention time: 10.156 min
Base peak: 79.0211
Precursor m/z: 227.1543
Precursor type: [M+H]+
Precursor intensity: 14920773.75
m/z	relative intensity	assigned
53.0386	4	C4H5+
54.0338	1	C3H4N+
65.0386	1	C5H5+
67.0542	1	C5H7+
68.0494	1	C4H6N+
77.0383	2	C6H5+
79.0542	6	C6H7+
80.0494	6	C5H6N+
81.0574	3	C5H7N+
91.0542	18	C7H7+
92.0495	2	C6H6N+
93.0573	2	C6H7N+
93.0699	10	C7H9+
94.0652	2	C6H8N+
102.0464	1	C8H6+
103.0543	34	C8H7+
105.0447	5	C6H5N2+
105.0574	1	C7H7N+
105.07	2	C8H9+
107.073	3	C7H9N+
115.0542	1	C9H7+
117.0573	1	C8H7N+
118.0652	4	C8H8N+
119.0731	4	C8H9N+
120.0808	999	C8H10N+
128.062	8	C10H8+
129.0698	14	C10H9+
130.0652	3	C9H8N+
141.0699	2	C11H9+
142.0777	4	C11H10+
143.0857	1	C11H11+
144.0808	2	C10H10N+
145.0885	1	C10H11N+
152.0617	3	C12H8+
153.0697	4	C12H9+
154.0777	4	C12H10+
155.0604	1	C10H7N2+
155.0855	7	C12H11+
157.0887	1	C11H11N+
165.0698	5	C13H9+
166.0776	2	C13H10+
167.073	3	C12H9N+
167.0856	2	C13H11+
168.081	2	C12H10N+
168.0932	3	C13H12+
169.101	1	C13H13+
170.0964	1	C12H12N+
176.0619	1	C14H8+
177.0699	2	C14H9+
178.0777	93	C14H10+
179.0856	5	C14H11+
180.0807	95	C13H10N+
181.0886	3	C13H11N+
182.0966	2	C13H12N+
191.0853	2	C15H11+
192.0934	4	C15H12+
193.0887	5	C14H11N+
193.1012	13	C15H13+
194.0965	58	C14H12N+
195.1043	34	C14H13N+
208.1122	3	C15H14N+
209.1195	1	C15H15N+
210.1278	2	C15H16N+
211.1232	2	C14H15N2+
225.1385	1	C15H17N2+
227.1542	4	C15H19N2+
