Mass spectrum: Pyraclostrobin; LC-ESI-QFT; MS2; CE: 90; R=17500; [M+H]+
Name: Pyraclostrobin
Name: methyl N-[2-[[1-(4-chlorophenyl)pyrazol-3-yl]oxymethyl]phenyl]-N-methoxycarbamate
Formula: C19H18ClN3O4
Exact mass: 387.0986
SMILES: CON(C(=O)OC)C1=C(COC2=NN(C=C2)C2=CC=C(Cl)C=C2)C=CC=C1
InChI: InChI=1S/C19H18ClN3O4/c1-25-19(24)23(26-2)17-6-4-3-5-14(17)13-27-18-11-12-22(21-18)16-9-7-15(20)8-10-16/h3-12H,13H2,1-2H3
Instrument: Q Exactive Orbitrap (Thermo Scientific)
Instrument type: LC-ESI-QFT
Ms type: MS2
Ion mode: POSITIVE
Ionization: ESI
Fragmentation mode: HCD
Collision energy: 90
Resolution: 17500
Column name: Acquity BEH C18 1.7um, 2.1x150mm (Waters)
Retention time: 18.708 min
Base peak: 79.0211
Precursor m/z: 388.1059
Precursor type: [M+H]+
Precursor intensity: 17134726.25
m/z	relative intensity	assigned
51.0229	4	C4H3+
53.0386	38	C4H5+
55.0179	3	C3H3O+
58.0287	3	C2H4NO+
63.0229	7	C5H3+
65.0386	69	C5H5+
66.0464	26	C5H6+
75.0229	17	C6H3+
77.0385	24	C6H5+
78.0338	25	C5H4N+
78.0464	108	C6H6+
79.0542	43	C6H7+
80.0494	12	C5H6N+
81.0336	5	C5H5O+
81.0572	4	C5H7N+
81.07	2	C6H9+
86.9996	5	C4H4Cl+
89.0386	24	C7H5+
90.0339	6	C6H4N+
90.0464	9	C7H6+
91.0417	69	C6H5N+
91.0542	151	C7H7+
92.0257	31	C6H4O+
92.0495	69	C6H6N+
93.0336	7	C6H5O+
93.0575	15	C6H7N+
93.0699	6	C7H9+
94.0414	21	C6H6O+
95.0492	130	C6H7O+
96.0444	21	C5H6NO+
98.9996	4	C5H4Cl+
103.0416	14	C7H5N+
104.0495	999	C7H6N+
105.0573	459	C7H7N+
106.0288	110	C6H4NO+
106.0651	118	C7H8N+
107.0492	7	C7H7O+
107.0728	12	C7H9N+
108.0444	37	C6H6NO+
109.0523	11	C6H7NO+
109.0649	5	C7H9O+
110.0601	19	C6H8NO+
110.9996	4	C6H4Cl+
111.0441	13	C6H7O2+
116.0495	16	C8H6N+
117.0573	32	C8H7N+
118.0652	65	C8H8N+
119.0366	221	C7H5NO+
120.0444	540	C7H6NO+
121.0523	8	C7H7NO+
121.0648	106	C8H9O+
122.0601	7	C7H8NO+
123.0679	28	C7H9NO+
125.0154	3	C7H6Cl+
128.0495	27	C9H6N+
129.0102	17	C6H6ClO+
129.0447	4	C8H5N2+
129.0574	7	C9H7N+
130.0288	84	C8H4NO+
130.04	28	C7H4N3+
131.0605	4	C8H7N2+
132.0444	393	C8H6NO+
133.0522	106	C8H7NO+
134.0237	137	C7H4NO2+
134.06	40	C8H8NO+
135.0443	4	C8H7O2+
136.0758	12	C8H10NO+
137.0472	18	C7H7NO2+
138.0106	6	C7H5ClN+
139.0058	28	C6H4ClN2+
142.0529	4	C9H6N2+
144.0444	3	C9H6NO+
146.0237	6	C8H4NO2+
146.0602	9	C9H8NO+
148.0394	60	C8H6NO2+
149.0472	74	C8H7NO2+
150.0103	2	C8H5ClN+
151.0185	3	C8H6ClN+
151.0629	3	C8H9NO2+
161.0471	2	C9H7NO2+
162.055	145	C9H8NO2+
163.0627	21	C9H9NO2+
204.081	10	C15H10N+
216.0686	3	C15H8N2+
218.084	18	C15H10N2+
219.0916	2	C15H11N2+
232.0873	3	C15H10N3+
243.0794	3	C16H9N3+
253.0525	7	C15H10ClN2+
