Mass spectrum: 6-hydroxynaphthalene-2-sulfonate; LC-ESI-QFT; MS2; CE: 60; R=17500; [M-H]-
Name: 6-hydroxynaphthalene-2-sulfonate
Name: 2-Naphthol-6-sulfonic acid
Name: 6-hydroxynaphthalene-2-sulfonic acid
Formula: C10H8O4S
Exact mass: 224.0143
SMILES: OC1=CC2=C(C=C1)C=C(C=C2)S(O)(=O)=O
InChI: InChI=1S/C10H8O4S/c11-9-3-1-8-6-10(15(12,13)14)4-2-7(8)5-9/h1-6,11H,(H,12,13,14)
Instrument: Q Exactive Orbitrap (Thermo Scientific)
Instrument type: LC-ESI-QFT
Ms type: MS2
Ion mode: NEGATIVE
Ionization: ESI
Fragmentation mode: HCD
Collision energy: 60
Resolution: 17500
Column name: Acquity BEH C18 1.7um, 2.1x150mm (Waters)
Retention time: 7.768 min
Base peak: 75.0088
Precursor m/z: 223.0071
Precursor type: [M-H]-
Precursor intensity: 1971139.137939
m/z	relative intensity	assigned
79.9574	999	O3S-
80.9651	18	HO3S-
130.0424	7	C9H6O-
131.0504	17	C9H7O-
141.0347	7	C10H5O-
143.0503	152	C10H7O-
158.0374	656	C10H6O2-
159.0452	571	C10H7O2-
195.0119	7	C9H7O3S-
221.9994	6	C10H6O4S-
223.0072	489	C10H7O4S-
