Mass spectrum: 4-(4-Hydroxyphenyl)butan-2-one; LC-ESI-QFT; MS2; CE: 30; R=17500; [M+H]+
Name: 4-(4-Hydroxyphenyl)butan-2-one
Name: 4-(4-Hydroxyphenyl)-2-butanone
Formula: C10H12O2
Exact mass: 164.0837
SMILES: CC(=O)CCC1=CC=C(O)C=C1
InChI: InChI=1S/C10H12O2/c1-8(11)2-3-9-4-6-10(12)7-5-9/h4-7,12H,2-3H2,1H3
Instrument: Q Exactive Orbitrap (Thermo Scientific)
Instrument type: LC-ESI-QFT
Ms type: MS2
Ion mode: POSITIVE
Ionization: ESI
Fragmentation mode: HCD
Collision energy: 30
Resolution: 17500
Column name: Acquity BEH C18 1.7um, 2.1x150mm (Waters)
Retention time: 15.236 min
Base peak: 79.0212
Precursor m/z: 165.091
Precursor type: [M+H]+
Precursor intensity: 4749063.5
m/z	relative intensity	assigned
51.0231	1	C4H3+
53.0387	2	C4H5+
55.0543	84	C4H7+
77.0385	1	C6H5+
91.0542	7	C7H7+
95.0491	2	C6H7O+
109.0285	4	C6H5O2+
111.0441	10	C6H7O2+
119.0856	20	C9H11+
123.0441	999	C7H7O2+
137.0598	71	C8H9O2+
137.096	5	C9H13O+
147.0805	25	C10H11O+
165.0911	417	C10H13O2+
