Mass spectrum: Thiamethoxam; LC-ESI-QFT; MS2; CE: 90; R=17500; [M+H]+
Name: Thiamethoxam
Name: N-[3-[(2-chloro-1,3-thiazol-5-yl)methyl]-5-methyl-1,3,5-oxadiazinan-4-ylidene]nitramide
Formula: C8H10ClN5O3S
Exact mass: 291.0193
SMILES: CN1COCN(CC2=CN=C(Cl)S2)C1=N[N+]([O-])=O
InChI: InChI=1S/C8H10ClN5O3S/c1-12-4-17-5-13(8(12)11-14(15)16)3-6-2-10-7(9)18-6/h2H,3-5H2,1H3
Instrument: Q Exactive Orbitrap (Thermo Scientific)
Instrument type: LC-ESI-QFT
Ms type: MS2
Ion mode: POSITIVE
Ionization: ESI
Fragmentation mode: HCD
Collision energy: 90
Resolution: 17500
Column name: Acquity BEH C18 1.7um, 2.1x150mm (Waters)
Retention time: 11.173 min
Base peak: 79.0212
Precursor m/z: 292.0266
Precursor type: [M+H]+
Precursor intensity: 2344560.25
m/z	relative intensity	assigned
57.0448	40	C2H5N2+
67.0417	109	C4H5N+
69.0447	223	C3H5N2+
70.995	671	C3H3S+
78.9404	49	CClS+
81.0448	81	C4H5N2+
82.9825	34	C3HNS+
87.9949	96	C3H3ClN+
95.0605	43	C5H7N2+
97.0399	50	C4H5N2O+
98.006	166	C4H4NS+
99.0012	26	C3H3N2S+
108.0557	538	C5H6N3+
111.0012	56	C4H3N2S+
112.0217	53	C5H6NS+
113.0168	21	C4H5N2S+
122.0713	135	C6H8N3+
123.0794	59	C6H9N3+
124.009	60	C5H4N2S+
125.0167	104	C5H5N2S+
131.967	999	C4H3ClNS+
132.975	30	C4H4ClNS+
138.0123	54	C5H4N3S+
151.02	50	C6H5N3S+
152.0278	157	C6H6N3S+
165.0229	18	C6H5N4S+
