Mass spectrum: CI-959; LC-ESI-QFT; MS2; CE: 15; R=17500; [M-H]-
Name: CI-959
Name: CI-959 free acid
Name: 5-methoxy-3-propan-2-yloxy-N-(2H-tetrazol-5-yl)-1-benzothiophene-2-carboxamide
Formula: C14H15N5O3S
Exact mass: 333.0896
SMILES: COC1=CC2=C(SC(C(=O)NC3=NN=NN3)=C2OC(C)C)C=C1
InChI: InChI=1S/C14H15N5O3S/c1-7(2)22-11-9-6-8(21-3)4-5-10(9)23-12(11)13(20)15-14-16-18-19-17-14/h4-7H,1-3H3,(H2,15,16,17,18,19,20)
Instrument: Q Exactive Orbitrap (Thermo Scientific)
Instrument type: LC-ESI-QFT
Ms type: MS2
Ion mode: NEGATIVE
Ionization: ESI
Fragmentation mode: HCD
Collision energy: 15
Resolution: 17500
Column name: Acquity BEH C18 1.7um, 2.1x150mm (Waters)
Retention time: 17.310 min
Base peak: 329.1061
Precursor m/z: 332.0823
Precursor type: [M-H]-
Precursor intensity: 36047713.52539
m/z	relative intensity	assigned
77.0394	2	C6H5-
110.0108	162	C2N5O-
121.0295	999	C7H5O2-
122.0328	595	H4N5O3-
123.033	9	C6H5NO2-
124.037	3	C7H8S-
156.9874	20	C8HN2S-
157.9907	9	C3H2N4O2S-
179.0168	2	C9H7O2S-
244.0184	7	C11H6N3O2S-
247.018	35	C11H7N2O3S-
272.0247	33	C11H6N5O2S-
275.0365	21	C12H9N3O3S-
276.0444	14	C12H10N3O3S-
289.0653	696	C14H13N2O3S-
290.0353	33	C11H8N5O3S-
332.0831	746	C14H14N5O3S-
