Mass spectrum: PharmaGSID_47330; LC-ESI-QFT; MS2; CE: 45; R=17500; [M+H]+
Name: PharmaGSID_47330
Name: Unii-gmy695BP6Q
Name: 3-fluoro-2-[2-fluoro-5-[3-(2-hydroxypropan-2-yl)imidazo[1,2-b][1,2,4]triazin-7-yl]phenyl]benzonitrile
Formula: C21H15F2N5O
Exact mass: 391.1245
SMILES: CC(C)(O)C1=NC2=NC=C(N2N=C1)C1=CC(=C(F)C=C1)C1=C(C=CC=C1F)C#N
InChI: InChI=1S/C21H15F2N5O/c1-21(2,29)18-11-26-28-17(10-25-20(28)27-18)12-6-7-15(22)14(8-12)19-13(9-24)4-3-5-16(19)23/h3-8,10-11,29H,1-2H3
Instrument: Q Exactive Orbitrap (Thermo Scientific)
Instrument type: LC-ESI-QFT
Ms type: MS2
Ion mode: POSITIVE
Ionization: ESI
Fragmentation mode: HCD
Collision energy: 45
Resolution: 17500
Column name: Acquity BEH C18 1.7um, 2.1x150mm (Waters)
Retention time: 17.091 min
Base peak: 79.0211
Precursor m/z: 392.1317
Precursor type: [M+H]+
Precursor intensity: 19022656.75
m/z	relative intensity	assigned
53.0022	2	C3HO+
54.0339	3	C3H4N+
55.0417	2	C3H5N+
56.0369	4	C2H4N2+
56.0495	2	C3H6N+
59.0491	32	C3H7O+
68.0494	100	C4H6N+
69.0334	23	C4H5O+
69.0447	2	C3H5N2+
70.0651	6	C4H8N+
81.0447	2	C4H5N2+
82.0526	5	C4H6N2+
83.0603	23	C4H7N2+
84.0444	1	C4H6NO+
86.06	2	C4H8NO+
95.024	2	C4H3N2O+
96.0444	2	C5H6NO+
96.0556	34	C4H6N3+
97.0396	37	C4H5N2O+
97.0635	10	C4H7N3+
97.076	5	C5H9N2+
98.0475	89	C4H6N2O+
98.0599	7	FH7N4O+
108.0556	3	C5H6N3+
109.0635	5	C5H7N3+
110.0712	2	C5H8N3+
111.0553	8	C5H7N2O+
111.0666	1	C4H7N4+
123.0553	1	C6H7N2O+
125.0346	4	C3H3N5O+
126.0425	7	C3H4N5O+
126.0663	2	C5H8N3O+
201.0512	2	C13H7F2+
215.0542	2	C13H7F2N+
216.0625	1	C13H8F2N+
222.0585	1	C9H6F2N5+
223.0663	5	C9H7F2N5+
226.0461	3	C14H6F2N+
228.0618	22	C14H8F2N+
239.0541	365	C15H7F2N+
240.0487	2	C14H6F2N2+
240.0619	1	C15H8F2N+
241.0571	45	C14H7F2N2+
242.0416	1	C14H6F2NO+
242.0657	5	C14H8F2N2+
243.0727	35	C14H9F2N2+
244.0564	2	C14H8F2NO+
252.0496	1	C15H6F2N2+
252.0623	1	C16H8F2N+
253.0571	6	C15H7F2N2+
254.065	11	C15H8F2N2+
254.0779	2	C16H10F2N+
255.0727	257	C15H9F2N2+
256.0563	11	C15H8F2NO+
256.0796	3	C15H10F2N2+
258.0722	1	C15H10F2NO+
259.0676	1	C14H9F2N2O+
265.0569	2	C16H7F2N2+
266.0506	1	C15H6F2N3+
268.0681	9	C15H8F2N3+
269.052	2	C15H7F2N2O+
269.0755	14	C15H9F2N3+
269.0886	1	C16H11F2N2+
271.0438	10	C18H6FNO+
271.068	2	C15H9F2N2O+
273.0829	2	C15H11F2N2O+
279.0734	3	C17H9F2N2+
280.0678	43	C16H8F2N3+
281.0751	38	C16H9F2N3+
282.0838	36	C16H10F2N3+
283.0976	7	C18H11N4+
287.0732	1	C17H8FN4+
293.089	2	C18H11F2N2+
294.0864	1	C19H12F2O+
295.0551	4	C16H7F2N3O+
295.0778	6	C16H9F2N4+
295.1083	7	C18H13F2N2+
296.0631	316	C16H8F2N3O+
296.085	18	C16H10F2N4+
297.0708	30	C16H9F2N3O+
297.0945	21	C16H11F2N4+
298.0786	124	C16H10F2N3O+
301.0886	13	C18H10FN4+
302.0965	2	C18H11FN4+
303.1035	3	C18H12FN4+
305.0882	2	C19H11F2N2+
306.0838	12	C18H10F2N3+
307.0789	162	C17H9F2N4+
308.0866	2	C17H10F2N4+
309.0944	41	C17H11F2N4+
320.1008	7	C21H14F2O+
321.0946	50	C18H11F2N4+
322.0789	2	C18H10F2N3O+
322.1009	14	C18H12F2N4+
324.0944	4	C18H12F2N3O+
329.0839	1	C19H10FN4O+
330.083	2	C20H10F2N3+
331.0784	1	C19H9F2N4+
332.0868	2	C19H10F2N4+
333.0947	25	C19H11F2N4+
334.0899	37	C18H10F2N5+
335.0972	6	C18H11F2N5+
337.1259	280	C19H15F2N4+
338.1097	5	C19H14F2N3O+
347.1103	74	C20H13F2N4+
348.1061	71	C19H12F2N5+
349.1131	50	C19H13F2N5+
350.1211	59	C19H14F2N5+
351.1054	2	C19H13F2N4O+
358.09	1	C20H10F2N5+
360.1059	2	C20H12F2N5+
365.1209	999	C20H15F2N4O+
377.1084	56	C20H13F2N5O+
392.1317	17	C21H16F2N5O+
