Mass spectrum: 4-Aminobenzamide; LC-ESI-QFT; MS2; CE: 75; R=17500; [M+H]+
Name: 4-Aminobenzamide
Formula: C7H8N2O
Exact mass: 136.0637
SMILES: NC(=O)C1=CC=C(N)C=C1
InChI: InChI=1S/C7H8N2O/c8-6-3-1-5(2-4-6)7(9)10/h1-4H,8H2,(H2,9,10)
Instrument: Q Exactive Orbitrap (Thermo Scientific)
Instrument type: LC-ESI-QFT
Ms type: MS2
Ion mode: POSITIVE
Ionization: ESI
Fragmentation mode: HCD
Collision energy: 75
Resolution: 17500
Column name: Acquity BEH C18 1.7um, 2.1x150mm (Waters)
Retention time: 2.658 min
Base peak: 79.0211
Precursor m/z: 137.0709
Precursor type: [M+H]+
Precursor intensity: 6251517.25
m/z	relative intensity	assigned
53.0022	1	C3HO+
53.0386	25	C4H5+
54.0338	1	C3H4N+
55.0178	5	C3H3O+
55.0543	2	C4H7+
65.0386	195	C5H5+
67.0542	3	C5H7+
68.0495	38	C4H6N+
69.0335	2	C4H5O+
77.0385	6	C6H5+
78.0339	5	C5H4N+
79.0179	6	C5H3O+
81.0333	2	C5H5O+
82.0288	1	C4H4NO+
86.0036	81	C6N+
92.0495	417	C6H6N+
93.0575	7	C6H7N+
94.0652	298	C6H8N+
95.0492	68	C6H7O+
96.0445	6	C5H6NO+
105.0448	23	C6H5N2+
108.0443	7	C6H6NO+
110.0601	155	C6H8NO+
119.0603	5	C7H7N2+
120.0444	999	C7H6NO+
137.0712	5	C7H9N2O+
