Mass spectrum: Biochanin A; LC-ESI-QFT; MS2; CE: 75; R=17500; [M+H]+
Name: Biochanin A
Name: 5,7-dihydroxy-3-(4-methoxyphenyl)chromen-4-one
Formula: C16H12O5
Exact mass: 284.0685
SMILES: COC1=CC=C(C=C1)C1=COC2=C(C(O)=CC(O)=C2)C1=O
InChI: InChI=1S/C16H12O5/c1-20-11-4-2-9(3-5-11)12-8-21-14-7-10(17)6-13(18)15(14)16(12)19/h2-8,17-18H,1H3
Instrument: Q Exactive Orbitrap (Thermo Scientific)
Instrument type: LC-ESI-QFT
Ms type: MS2
Ion mode: POSITIVE
Ionization: ESI
Fragmentation mode: HCD
Collision energy: 75
Resolution: 17500
Column name: Acquity BEH C18 1.7um, 2.1x150mm (Waters)
Retention time: 17.742 min
Base peak: 79.0211
Precursor m/z: 285.0757
Precursor type: [M+H]+
Precursor intensity: 7611931.375
m/z	relative intensity	assigned
50.0152	2	C4H2+
52.0308	2	C4H4+
53.0023	3	C3HO+
53.0386	16	C4H5+
55.0179	20	C3H3O+
63.023	2	C5H3+
65.0385	25	C5H5+
66.01	3	C4H2O+
66.0463	32	C5H6+
67.0178	56	C4H3O+
67.0541	10	C5H7+
68.0256	18	C4H4O+
68.997	155	C3HO2+
69.0334	16	C4H5O+
71.0127	4	C3H3O2+
76.0307	2	C6H4+
77.0386	6	C6H5+
78.01	6	C5H2O+
78.0464	7	C6H6+
79.0179	6	C5H3O+
79.0542	91	C6H7+
81.0335	7	C5H5O+
83.0127	4	C4H3O2+
84.0207	5	C4H4O2+
89.0385	45	C7H5+
90.0464	182	C7H6+
91.0177	3	C6H3O+
91.0542	28	C7H7+
92.0257	8	C6H4O+
94.0413	5	C6H6O+
95.0127	30	C5H3O2+
95.0492	52	C6H7O+
96.0206	26	C5H4O2+
97.0284	8	C5H5O2+
102.0464	22	C8H6+
103.0542	86	C8H7+
104.0622	4	C8H8+
105.0334	10	C7H5O+
105.0699	49	C8H9+
106.0412	3	C7H6O+
107.0491	21	C7H7O+
108.0207	3	C6H4O2+
108.0569	5	C7H8O+
109.065	3	C7H9O+
111.0077	57	C5H3O3+
111.0441	5	C6H7O2+
115.0542	49	C9H7+
116.062	12	C9H8+
117.0334	44	C8H5O+
117.07	16	C9H9+
118.0413	352	C8H6O+
119.0492	17	C8H7O+
121.0284	90	C7H5O2+
121.0649	46	C8H9O+
123.0441	126	C7H7O2+
124.0155	481	C6H4O3+
125.0234	2	C6H5O3+
126.0311	15	C6H6O3+
127.0543	3	C10H7+
128.0621	17	C10H8+
129.0337	3	C9H5O+
129.0698	26	C10H9+
130.0414	26	C9H6O+
130.0778	8	C10H10+
131.0491	47	C9H7O+
132.0207	7	C8H4O2+
132.057	24	C9H8O+
133.0648	135	C9H9O+
134.0364	7	C8H6O2+
135.044	17	C8H7O2+
137.0232	7	C7H5O3+
139.0389	6	C7H7O3+
139.0543	10	C11H7+
140.062	22	C11H8+
141.0698	73	C11H9+
143.0491	10	C10H7O+
144.057	36	C10H8O+
145.0286	13	C9H5O2+
145.0649	66	C10H9O+
146.0726	6	C10H10O+
147.0443	9	C9H7O2+
148.0521	3	C9H8O2+
149.0234	133	C8H5O3+
151.0394	2	C8H7O3+
152.0104	92	C7H4O4+
152.062	21	C12H8+
153.0182	315	C7H5O4+
155.0492	22	C11H7O+
156.0571	6	C11H8O+
157.0648	35	C11H9O+
158.0363	297	C10H6O2+
158.0725	34	C11H10O+
159.0441	21	C10H7O2+
159.0805	13	C11H11O+
160.0518	9	C10H8O2+
161.0599	13	C10H9O2+
161.0962	4	C11H13O+
163.0388	11	C9H7O3+
165.0704	4	C13H9+
167.0338	4	C8H7O4+
168.057	98	C12H8O+
169.0649	62	C12H9O+
170.021	275	C7H6O5+
171.0441	48	C11H7O2+
171.0807	4	C12H11O+
172.052	23	C11H8O2+
173.0598	21	C11H9O2+
173.096	3	C12H13O+
175.0391	7	C10H7O3+
176.0469	15	C10H8O3+
179.0338	23	C9H7O4+
179.0491	4	C13H7O+
181.0648	11	C13H9O+
182.0363	2	C12H6O2+
183.0442	25	C12H7O2+
183.0804	17	C13H11O+
184.037	17	C8H8O5+
184.0518	31	C12H8O2+
185.0598	132	C12H9O2+
186.0315	5	C11H6O3+
186.0676	92	C12H10O2+
187.0389	5	C11H7O3+
187.0754	8	C12H11O2+
188.0468	5	C11H8O3+
195.0448	4	C13H7O2+
196.0521	31	C13H8O2+
197.0598	199	C13H9O2+
198.0679	13	C13H10O2+
199.0389	14	C12H7O3+
199.0754	3	C13H11O2+
200.0467	31	C12H8O3+
201.0544	12	C12H9O3+
201.0908	4	C13H13O2+
203.034	5	C11H7O4+
210.0312	2	C13H6O3+
211.0393	12	C13H7O3+
211.0755	9	C14H11O2+
212.0469	17	C13H8O3+
213.0546	999	C13H9O3+
214.0625	99	C13H10O3+
216.0417	60	C12H8O4+
224.0466	30	C14H8O3+
225.0546	85	C14H9O3+
226.0625	12	C14H10O3+
227.0338	15	C13H7O4+
228.0417	7	C13H8O4+
229.086	76	C14H13O3+
241.0495	337	C14H9O4+
242.0573	295	C14H10O4+
252.042	19	C15H8O4+
253.0495	176	C15H9O4+
269.0445	320	C15H9O5+
270.0522	59	C15H10O5+
285.0758	20	C16H13O5+
