Mass spectrum: Flumetsulam; LC-ESI-QFT; MS2; CE: 15; R=17500; [M+H]+
Name: Flumetsulam
Name: N-(2,6-difluorophenyl)-5-methyl-[1,2,4]triazolo[1,5-a]pyrimidine-2-sulfonamide
Formula: C12H9F2N5O2S
Exact mass: 325.0445
SMILES: CC1=NC2=NC(=NN2C=C1)S(=O)(=O)NC1=C(F)C=CC=C1F
InChI: InChI=1S/C12H9F2N5O2S/c1-7-5-6-19-11(15-7)16-12(17-19)22(20,21)18-10-8(13)3-2-4-9(10)14/h2-6,18H,1H3
Instrument: Q Exactive Orbitrap (Thermo Scientific)
Instrument type: LC-ESI-QFT
Ms type: MS2
Ion mode: POSITIVE
Ionization: ESI
Fragmentation mode: HCD
Collision energy: 15
Resolution: 17500
Column name: Acquity BEH C18 1.7um, 2.1x150mm (Waters)
Retention time: 12.583 min
Base peak: 79.0211
Precursor m/z: 326.0518
Precursor type: [M+H]+
Precursor intensity: 10963471.9375
m/z	relative intensity	assigned
128.0313	2	C6H4F2N+
129.0383	45	C6H5F2N+
182.0257	3	C6H6N4OS+
191.9925	5	C6H4F2NO2S+
215.0238	1	C9H2FN5O+
242.0837	1	C12H9FN5+
262.0898	8	C12H10F2N5+
326.0516	999	C12H10F2N5O2S+
