Mass spectrum: Dantrolene; LC-ESI-QFT; MS2; CE: 45; R=17500; [M-H]-
Name: Dantrolene
Name: 1-({[5-(4-Nitrophenyl)furan-2-yl]methylidene}amino)imidazolidine-2,4-dione
Name: 1-[[5-(4-nitrophenyl)furan-2-yl]methylideneamino]imidazolidine-2,4-dione
Formula: C14H10N4O5
Exact mass: 314.0651
SMILES: [O-][N+](=O)C1=CC=C(C=C1)C1=CC=C(O1)C=NN1CC(=O)NC1=O
InChI: InChI=1S/C14H10N4O5/c19-13-8-17(14(20)16-13)15-7-11-5-6-12(23-11)9-1-3-10(4-2-9)18(21)22/h1-7H,8H2,(H,16,19,20)
Instrument: Q Exactive Orbitrap (Thermo Scientific)
Instrument type: LC-ESI-QFT
Ms type: MS2
Ion mode: NEGATIVE
Ionization: ESI
Fragmentation mode: HCD
Collision energy: 45
Resolution: 17500
Column name: Acquity BEH C18 1.7um, 2.1x150mm (Waters)
Retention time: 15.460 min
Base peak: 165.0556
Precursor m/z: 313.0578
Precursor type: [M-H]-
Precursor intensity: 10532307.7627
m/z	relative intensity	assigned
91.0189	62	C6H3O-
99.02	73	C3H3N2O2-
117.0345	10	C8H5O-
122.0247	18	C6H4NO2-
142.0424	14	C10H6O-
145.0294	33	C9H5O2-
146.0247	410	C8H4NO2-
155.0503	49	C11H7O-
156.0582	8	C11H8O-
158.0369	8	C10H6O2-
169.0293	5	C11H5O2-
170.0374	28	C11H6O2-
172.0404	40	C10H6NO2-
183.0326	9	C11H5NO2-
183.045	30	C12H7O2-
184.0403	16	C11H6NO2-
188.0349	11	C10H6NO3-
192.03	8	C9H6NO4-
200.0353	999	C11H6NO3-
202.0513	6	C11H8NO3-
214.051	82	C12H8NO3-
215.0463	14	C11H7N2O3-
228.0411	25	C11H6N3O3-
