Mass spectrum: Imazaquin; LC-ESI-QFT; MS2; CE: 60; R=17500; [M+H]+
Name: Imazaquin
Name: 2-(4-methyl-5-oxo-4-propan-2-yl-1H-imidazol-2-yl)quinoline-3-carboxylic acid
Formula: C17H17N3O3
Exact mass: 311.1270
SMILES: CC(C)C1(C)N=C(NC1=O)C1=NC2=C(C=CC=C2)C=C1C(O)=O
InChI: InChI=1S/C17H17N3O3/c1-9(2)17(3)16(23)19-14(20-17)13-11(15(21)22)8-10-6-4-5-7-12(10)18-13/h4-9H,1-3H3,(H,21,22)(H,19,20,23)
Instrument: Q Exactive Orbitrap (Thermo Scientific)
Instrument type: LC-ESI-QFT
Ms type: MS2
Ion mode: POSITIVE
Ionization: ESI
Fragmentation mode: HCD
Collision energy: 60
Resolution: 17500
Column name: Acquity BEH C18 1.7um, 2.1x150mm (Waters)
Retention time: 15.221 min
Base peak: 79.0212
Precursor m/z: 312.1343
Precursor type: [M+H]+
Precursor intensity: 21718892.28125
m/z	relative intensity	assigned
53.0022	37	C3HO+
53.9974	6	C2NO+
56.0495	5	C3H6N+
58.0651	20	C3H8N+
67.0542	17	C5H7+
67.9892	1	C3O2+
69.0698	822	C5H9+
70.0651	16	C4H8N+
71.0729	21	C4H9N+
71.0856	12	C5H11+
72.0443	5	C3H6NO+
72.0808	1	C4H10N+
84.0808	11	C5H10N+
86.0964	746	C5H12N+
91.0417	4	C6H5N+
94.0651	2	C6H8N+
97.0647	28	C6H9O+
101.0388	3	C8H5+
105.0571	1	C7H7N+
114.0915	1	C6H12NO+
115.0417	4	C8H5N+
116.0494	3	C8H6N+
127.0415	2	C9H5N+
128.0488	8	C9H6N+
129.0574	2	C9H7N+
130.0526	15	C8H6N2+
130.065	2	C9H8N+
133.0523	1	C8H7NO+
142.065	5	C10H8N+
143.0365	14	C9H5NO+
143.0604	1	C9H7N2+
144.0442	5	C9H6NO+
146.06	62	C9H8NO+
153.0443	10	C10H5N2+
154.0524	13	C10H6N2+
154.0646	1	C11H8N+
155.0603	80	C10H7N2+
156.068	3	C10H8N2+
157.076	10	C10H9N2+
158.0476	13	C9H6N2O+
158.0597	3	C10H8NO+
160.0757	17	C10H10NO+
161.0472	5	C9H7NO2+
161.0703	2	C9H9N2O+
167.0728	3	C12H9N+
171.0552	43	C10H7N2O+
174.0548	36	C10H8NO2+
180.0808	6	C13H10N+
181.0395	499	C11H5N2O+
182.0842	2	C12H10N2+
182.0962	7	C13H12N+
183.0552	92	C11H7N2O+
183.0915	7	C12H11N2+
184.039	4	C11H6NO2+
184.0753	2	C12H10NO+
185.0707	1	C11H9N2O+
186.0545	6	C11H8NO2+
194.0966	1	C14H12N+
196.0871	4	C12H10N3+
197.0709	412	C12H9N2O+
198.0662	519	C11H8N3O+
199.0501	999	C11H7N2O2+
201.0655	4	C11H9N2O2+
206.0834	2	C14H10N2+
206.0957	2	C15H12N+
207.0559	1	C13H7N2O+
207.0914	1	C14H11N2+
208.076	2	C14H10NO+
208.0986	2	C14H12N2+
209.0698	1	C13H9N2O+
210.0787	12	C13H10N2O+
211.0496	4	C12H7N2O2+
213.0658	14	C12H9N2O2+
221.1071	8	C15H13N2+
222.0664	6	C13H8N3O+
222.0913	4	C15H12NO+
223.0739	22	C13H9N3O+
223.123	14	C15H15N2+
224.0817	379	C13H10N3O+
225.102	72	C14H13N2O+
226.0861	2	C14H12NO2+
226.0973	6	C13H12N3O+
227.0811	5	C13H11N2O2+
232.075	1	C16H10NO+
233.0707	1	C15H9N2O+
234.0787	17	C15H10N2O+
236.0815	1	C14H10N3O+
240.1025	1	C15H14NO2+
241.0849	9	C13H11N3O2+
242.0915	1	C13H12N3O2+
249.1021	90	C16H13N2O+
251.0689	26	C14H9N3O2+
252.0766	284	C14H10N3O2+
266.1287	26	C16H16N3O+
267.1127	49	C16H15N2O2+
269.0793	5	C14H11N3O3+
270.0871	11	C14H12N3O3+
282.0873	1	C15H12N3O3+
284.1386	1	C16H18N3O2+
312.1341	2	C17H18N3O3+
