Mass spectrum: 4,4`-Sulfonyldiphenol; LC-ESI-QFT; MS2; CE: 90; R=17500; [M-H]-
Name: 4,4'-Sulfonyldiphenol
Name: 4-(4-hydroxyphenyl)sulfonylphenol
Formula: C12H10O4S
Exact mass: 250.0300
SMILES: OC1=CC=C(C=C1)S(=O)(=O)C1=CC=C(O)C=C1
InChI: InChI=1S/C12H10O4S/c13-9-1-5-11(6-2-9)17(15,16)12-7-3-10(14)4-8-12/h1-8,13-14H
Instrument: Q Exactive Orbitrap (Thermo Scientific)
Instrument type: LC-ESI-QFT
Ms type: MS2
Ion mode: NEGATIVE
Ionization: ESI
Fragmentation mode: HCD
Collision energy: 90
Resolution: 17500
Column name: Acquity BEH C18 1.7um, 2.1x150mm (Waters)
Retention time: 13.529 min
Base peak: 249.0227
Precursor m/z: 249.0227
Precursor type: [M-H]-
Precursor intensity: 12413957.92236
m/z	relative intensity	assigned
53.0032	1	C3HO-
63.9624	14	O2S-
67.0189	1	C4H3O-
68.9982	5	C3HO2-
69.0347	4	C4H5O-
71.0138	3	C3H3O2-
72.9931	2	C2HO3-
79.0188	1	C5H3O-
79.9574	2	O3S-
79.9904	1	C4O2-
80.9981	1	C4HO2-
82.006	4	C4H2O2-
89.0397	1	C7H5-
92.0267	8	C6H4O-
93.0346	30	C6H5O-
95.0139	137	C5H3O2-
97.0295	2	C5H5O2-
98.0009	1	C4H2O3-
106.0061	7	C6H2O2-
108.0217	999	C6H4O2-
109.0294	2	C6H5O2-
117.0346	2	C8H5O-
123.0088	16	C6H3O3-
136.0165	1	C7H4O3-
138.9861	1	C6H3O2S-
139.9941	3	C6H4O2S-
143.0498	1	C10H7O-
156.058	2	C11H8O-
156.9967	1	C6H5O3S-
183.0451	1	C12H7O2-
184.0531	6	C12H8O2-
