Mass spectrum: MK-578; LC-ESI-QFT; MS2; CE: 45; R=17500; [M+H]+
Name: MK-578
Name: (2R)-2-[[(1R,3S,4S)-3-[[4-(5-benzyl-2-ethylpyrazol-3-yl)piperidin-1-yl]methyl]-4-(3-fluorophenyl)cyclopentyl]-methylamino]-3-methylbutanoic acid
Formula: C35H47FN4O2
Exact mass: 574.3683
SMILES: CCN1N=C(CC2=CC=CC=C2)C=C1C1CCN(C[C@H]2C[C@@H](C[C@@H]2C2=CC=CC(F)=C2)N(C)[C@H](C(C)C)C(O)=O)CC1
InChI: InChI=1S/C35H47FN4O2/c1-5-40-33(21-30(37-40)18-25-10-7-6-8-11-25)26-14-16-39(17-15-26)23-28-20-31(38(4)34(24(2)3)35(41)42)22-32(28)27-12-9-13-29(36)19-27/h6-13,19,21,24,26,28,31-32,34H,5,14-18,20,22-23H2,1-4H3,(H,41,42)/t28-,31+,32-,34-/m1/s1
Instrument: Q Exactive Orbitrap (Thermo Scientific)
Instrument type: LC-ESI-QFT
Ms type: MS2
Ion mode: POSITIVE
Ionization: ESI
Fragmentation mode: HCD
Collision energy: 45
Resolution: 17500
Column name: Acquity BEH C18 1.7um, 2.1x150mm (Waters)
Retention time: 14.569 min
Base peak: 79.0211
Precursor m/z: 575.3756
Precursor type: [M+H]+
Precursor intensity: 4447590.75
m/z	relative intensity	assigned
53.0386	4	C4H5+
55.0542	31	C4H7+
56.0495	36	C3H6N+
58.0651	330	C3H8N+
69.0698	4	C5H9+
70.0651	308	C4H8N+
71.0729	3	C4H9N+
72.0807	8	C4H10N+
79.0542	165	C6H7+
80.0494	3	C5H6N+
81.0698	5	C6H9+
82.0651	32	C5H8N+
83.0291	3	C5H4F+
83.0729	3	C5H9N+
84.0808	221	C5H10N+
86.0964	243	C5H12N+
91.0542	355	C7H7+
94.0651	8	C6H8N+
95.0492	8	C6H7O+
95.0729	3	C6H9N+
96.0807	80	C6H10N+
97.0449	3	C6H6F+
98.0964	741	C6H12N+
105.0448	6	C6H5N2+
105.0699	3	C8H9+
109.0448	999	C7H6F+
110.0964	4	C7H12N+
123.0917	14	C7H11N2+
129.0698	6	C10H9+
132.1019	17	C6H14NO2+
133.0448	131	C9H6F+
135.0605	12	C9H8F+
135.0914	4	C8H11N2+
137.1075	7	C8H13N2+
146.0525	13	C10H7F+
147.0604	701	C10H8F+
148.0994	5	C9H12N2+
149.0761	101	C10H10F+
149.1073	24	C9H13N2+
155.0604	7	C10H7N2+
155.0855	11	C12H11+
159.0602	4	C11H8F+
160.0683	138	C11H9F+
161.1073	19	C10H13N2+
163.1227	5	C10H15N2+
164.0867	7	C10H11FN+
173.076	19	C12H10F+
175.0917	452	C12H12F+
187.1229	187	C12H15N2+
190.1335	3	C11H16N3+
192.1494	45	C11H18N3+
199.1231	24	C13H15N2+
201.1387	11	C13H17N2+
204.1183	82	C13H15FN+
204.1498	7	C12H18N3+
206.134	94	C13H17FN+
211.1231	26	C14H15N2+
213.1388	70	C14H17N2+
216.1181	5	C14H15FN+
223.1229	3	C15H15N2+
225.1385	134	C15H17N2+
227.1542	8	C15H19N2+
239.1542	228	C16H19N2+
241.1698	104	C16H21N2+
242.1651	10	C15H20N3+
253.17	16	C17H21N2+
254.165	14	C16H20N3+
256.1489	19	C17H19FN+
258.1653	33	C17H21FN+
270.1963	362	C17H24N3+
282.1963	641	C18H24N3+
304.1709	10	C18H23FNO2+
306.1864	3	C18H25FNO2+
416.2497	105	C27H31FN3+
475.3231	115	C30H40FN4+
