Mass spectrum: 5,5-Dimethylbarbituric acid; LC-ESI-QFT; MS2; CE: 60; R=17500; [M-H]-
Name: 5,5-Dimethylbarbituric acid
Name: 5,5-dimethyl-1,3-diazinane-2,4,6-trione
Formula: C6H8N2O3
Exact mass: 156.0535
SMILES: CC1(C)C(=O)NC(=O)NC1=O
InChI: InChI=1S/C6H8N2O3/c1-6(2)3(9)7-5(11)8-4(6)10/h1-2H3,(H2,7,8,9,10,11)
Instrument: Q Exactive Orbitrap (Thermo Scientific)
Instrument type: LC-ESI-QFT
Ms type: MS2
Ion mode: NEGATIVE
Ionization: ESI
Fragmentation mode: HCD
Collision energy: 60
Resolution: 17500
Column name: Acquity BEH C18 1.7um, 2.1x150mm (Waters)
Retention time: 17.343 min
Base peak: 329.1063
Precursor m/z: 155.0462
Precursor type: [M-H]-
Precursor intensity: 11682349.96094
m/z	relative intensity	assigned
54.0349	6	C3H4N-
64.0067	78	C3N2-
65.0145	56	C3HN2-
65.9986	999	C3NO-
77.0145	2	C4HN2-
79.0302	236	C4H3N2-
80.0017	3	C3N2O-
87.0564	8	C3H7N2O-
96.0092	1	C4H2NO2-
97.017	36	C4H3NO2-
98.0247	2	C4H4NO2-
109.0044	27	C4HN2O2-
110.0122	30	C4H2N2O2-
123.02	6	C5H3N2O2-
125.0357	57	C5H5N2O2-
140.0228	66	C5H4N2O3-
141.0306	12	C5H5N2O3-
155.0463	82	C6H7N2O3-
