Mass spectrum: Nitrofurazone; LC-ESI-QFT; MS2; CE: 60; R=17500; [M-H]-
Name: Nitrofurazone
Name: [(E)-(5-nitrofuran-2-yl)methylideneamino]urea
Formula: C6H6N4O4
Exact mass: 198.0389
SMILES: NC(=O)N\N=C\C1=CC=C(O1)[N+]([O-])=O
InChI: InChI=1S/C6H6N4O4/c7-6(11)9-8-3-4-1-2-5(14-4)10(12)13/h1-3H,(H3,7,9,11)/b8-3+
Instrument: Q Exactive Orbitrap (Thermo Scientific)
Instrument type: LC-ESI-QFT
Ms type: MS2
Ion mode: NEGATIVE
Ionization: ESI
Fragmentation mode: HCD
Collision energy: 60
Resolution: 17500
Column name: Acquity BEH C18 1.7um, 2.1x150mm (Waters)
Retention time: 11.044 min
Base peak: 116.9285
Precursor m/z: 197.0316
Precursor type: [M-H]-
Precursor intensity: 1753893.531982
m/z	relative intensity	assigned
67.0302	713	C3H3N2-
79.0303	294	C4H3N2-
80.0381	494	C4H4N2-
82.0173	566	C3H2N2O-
92.0254	176	C4H2N3-
95.0138	999	C5H3O2-
107.0252	632	C5H3N2O-
