Mass spectrum: Coumatetralyl; LC-ESI-QFT; MS2; CE: 75; R=17500; [M-H]-
Name: Coumatetralyl
Name: 4-hydroxy-3-(1,2,3,4-tetrahydronaphthalen-1-yl)chromen-2-one
Formula: C19H16O3
Exact mass: 292.1099
SMILES: OC1=C(C2CCCC3=C2C=CC=C3)C(=O)OC2=C1C=CC=C2
InChI: InChI=1S/C19H16O3/c20-18-15-9-3-4-11-16(15)22-19(21)17(18)14-10-5-7-12-6-1-2-8-13(12)14/h1-4,6,8-9,11,14,20H,5,7,10H2
Instrument: Q Exactive Orbitrap (Thermo Scientific)
Instrument type: LC-ESI-QFT
Ms type: MS2
Ion mode: NEGATIVE
Ionization: ESI
Fragmentation mode: HCD
Collision energy: 75
Resolution: 17500
Column name: Acquity BEH C18 1.7um, 2.1x150mm (Waters)
Retention time: 18.177 min
Base peak: 434.9314
Precursor m/z: 291.1027
Precursor type: [M-H]-
Precursor intensity: 76894693.75781
m/z	relative intensity	assigned
59.0138	28	C2H3O2-
65.0397	18	C5H5-
67.019	17	C4H3O-
91.0553	9	C7H7-
92.0269	2	C6H4O-
93.0346	553	C6H5O-
95.014	3	C5H3O2-
106.0424	152	C7H6O-
107.0505	1	C7H7O-
108.0217	10	C6H4O2-
115.0553	64	C9H7-
117.0346	99	C8H5O-
119.0502	210	C8H7O-
121.0295	2	C7H5O2-
129.071	31	C10H9-
130.0425	1	C9H6O-
133.0296	2	C8H5O2-
135.0452	138	C8H7O2-
138.0322	32	C7H6O3-
139.0554	5	C11H7-
141.071	720	C11H9-
143.0502	999	C10H7O-
161.0244	2	C9H5O3-
165.0708	13	C13H9-
167.0503	1	C12H7O-
167.0865	20	C13H11-
169.0659	9	C12H9O-
171.0818	1	C12H11O-
185.0603	1	C12H9O2-
187.0401	57	C11H7O3-
191.0866	22	C15H11-
203.0863	2	C16H11-
215.0862	2	C17H11-
217.0659	16	C16H9O-
217.1021	5	C17H13-
218.0742	7	C16H10O-
218.1101	1	C17H14-
219.0815	105	C16H11O-
229.1018	2	C18H13-
230.0736	9	C17H10O-
231.0814	13	C17H11O-
232.089	3	C17H12O-
243.0814	86	C18H11O-
244.0896	4	C18H12O-
245.0971	277	C18H13O-
246.1047	2	C18H14O-
247.1126	15	C18H15O-
263.0708	1	C17H11O3-
291.1031	3	C19H15O3-
