Mass spectrum: Simetryn; LC-ESI-QFT; MS2; CE: 60; R=17500; [M+H]+
Name: Simetryn
Name: 2-N,4-N-diethyl-6-methylsulfanyl-1,3,5-triazine-2,4-diamine
Formula: C8H15N5S
Exact mass: 213.1048
SMILES: CCNC1=NC(SC)=NC(NCC)=N1
InChI: InChI=1S/C8H15N5S/c1-4-9-6-11-7(10-5-2)13-8(12-6)14-3/h4-5H2,1-3H3,(H2,9,10,11,12,13)
Instrument: Q Exactive Orbitrap (Thermo Scientific)
Instrument type: LC-ESI-QFT
Ms type: MS2
Ion mode: POSITIVE
Ionization: ESI
Fragmentation mode: HCD
Collision energy: 60
Resolution: 17500
Column name: Acquity BEH C18 1.7um, 2.1x150mm (Waters)
Retention time: 14.314 min
Base peak: 79.0211
Precursor m/z: 214.1121
Precursor type: [M+H]+
Precursor intensity: 30452997.34375
m/z	relative intensity	assigned
68.0243	491	C2H2N3+
71.0604	620	C3H7N2+
74.0059	99	C2H4NS+
85.0509	3	C2H5N4+
91.0325	30	C2H7N2S+
96.0556	999	C4H6N3+
98.0714	1	C4H8N3+
99.0011	1	C3H3N2S+
99.0917	2	C5H11N2+
102.0372	35	C4H8NS+
110.0461	3	C3H4N5+
113.0821	21	C4H9N4+
116.0277	296	C3H6N3S+
119.0638	4	C4H11N2S+
124.087	817	C6H10N3+
138.0775	30	C5H8N5+
141.1136	6	C6H13N4+
144.059	380	C5H10N3S+
158.0494	10	C4H8N5S+
159.0693	1	C5H11N4S+
166.1088	131	C7H12N5+
168.1246	2	C7H14N5+
171.0573	1	C5H9N5S+
186.0808	65	C6H12N5S+
198.0805	1	C7H12N5S+
199.0887	2	C7H13N5S+
212.0962	4	C8H14N5S+
214.1121	220	C8H16N5S+
