Mass spectrum: Formononetin; LC-ESI-QFT; MS2; CE: 60; R=17500; [M-H]-
Name: Formononetin
Name: 7-hydroxy-3-(4-methoxyphenyl)chromen-4-one
Formula: C16H12O4
Exact mass: 268.0736
SMILES: COC1=CC=C(C=C1)C1=COC2=C(C=CC(O)=C2)C1=O
InChI: InChI=1S/C16H12O4/c1-19-12-5-2-10(3-6-12)14-9-20-15-8-11(17)4-7-13(15)16(14)18/h2-9,17H,1H3
Instrument: Q Exactive Orbitrap (Thermo Scientific)
Instrument type: LC-ESI-QFT
Ms type: MS2
Ion mode: NEGATIVE
Ionization: ESI
Fragmentation mode: HCD
Collision energy: 60
Resolution: 17500
Column name: Acquity BEH C18 1.7um, 2.1x150mm (Waters)
Retention time: 16.859 min
Base peak: 291.0599
Precursor m/z: 267.0663
Precursor type: [M-H]-
Precursor intensity: 40766376.01563
m/z	relative intensity	assigned
65.0033	1	C4HO-
91.019	66	C6H3O-
104.0268	8	C7H4O-
108.0217	18	C6H4O2-
117.0346	3	C8H5O-
132.0217	423	C8H4O2-
135.0088	174	C7H3O3-
153.0194	48	C7H5O4-
167.0503	24	C12H7O-
168.0582	3	C12H8O-
171.0453	5	C11H7O2-
180.0581	24	C13H8O-
182.0368	1	C12H6O2-
183.0454	1	C12H7O2-
195.0452	355	C13H7O2-
196.0531	26	C13H8O2-
198.0321	1	C12H6O3-
207.0453	3	C14H7O2-
208.053	170	C14H8O2-
210.0326	3	C13H6O3-
223.0401	942	C14H7O3-
224.048	221	C14H8O3-
239.0353	5	C14H7O4-
250.0285	1	C15H6O4-
251.0351	571	C15H7O4-
252.0429	999	C15H8O4-
267.0663	6	C16H11O4-
