Mass spectrum: Metamitron; LC-ESI-QFT; MS2; CE: 90; R=17500; [M+H]+
Name: Metamitron
Name: 4-amino-3-methyl-6-phenyl-1,2,4-triazin-5-one
Formula: C10H10N4O
Exact mass: 202.0855
SMILES: CC1=NN=C(C(=O)N1N)C1=CC=CC=C1
InChI: InChI=1S/C10H10N4O/c1-7-12-13-9(10(15)14(7)11)8-5-3-2-4-6-8/h2-6H,11H2,1H3
Instrument: Q Exactive Orbitrap (Thermo Scientific)
Instrument type: LC-ESI-QFT
Ms type: MS2
Ion mode: POSITIVE
Ionization: ESI
Fragmentation mode: HCD
Collision energy: 90
Resolution: 17500
Column name: Acquity BEH C18 1.7um, 2.1x150mm (Waters)
Retention time: 12.813 min
Base peak: 79.0212
Precursor m/z: 203.0927
Precursor type: [M+H]+
Precursor intensity: 14901802.875
m/z	relative intensity	assigned
50.015	9	C4H2+
51.0229	16	C4H3+
53.0386	155	C4H5+
55.0178	10	C3H3O+
55.0291	35	C2H3N2+
55.0542	11	C4H7+
56.0131	107	C2H2NO+
56.0369	26	C2H4N2+
57.0447	121	C2H5N2+
59.024	122	CH3N2O+
63.0228	10	C5H3+
65.0385	57	C5H5+
66.0463	13	C5H6+
69.0083	4	C2HN2O+
71.0604	7	C3H7N2+
72.0443	5	C3H6NO+
72.0555	11	C2H6N3+
77.0385	66	C6H5+
78.0464	5	C6H6+
79.0542	100	C6H7+
80.0494	19	C5H6N+
81.0334	15	C5H5O+
83.024	73	C3H3N2O+
89.0385	134	C7H5+
90.0464	3	C7H6+
91.0417	15	C6H5N+
91.0542	9	C7H7+
92.0257	8	C6H4O+
92.0495	45	C6H6N+
93.0335	3	C6H5O+
93.0573	12	C6H7N+
94.0414	15	C6H6O+
95.0491	448	C6H7O+
103.0417	7	C7H5N+
103.0541	11	C8H7+
104.0494	999	C7H6N+
105.0447	188	C6H5N2+
105.0573	10	C7H7N+
106.0651	14	C7H8N+
107.0603	11	C6H7N2+
108.0443	4	C6H6NO+
109.0647	2	C7H9O+
116.0495	4	C8H6N+
117.0446	12	C7H5N2+
117.0575	4	C8H7N+
118.0414	6	C8H6O+
118.0524	51	C7H6N2+
119.0605	9	C7H7N2+
122.06	5	C7H8NO+
130.0286	8	C8H4NO+
130.0651	16	C9H8N+
131.0604	3	C8H7N2+
132.0682	3	C8H8N2+
134.0712	4	C7H8N3+
136.0757	5	C8H10NO+
145.0395	6	C8H5N2O+
145.0761	3	C9H9N2+
159.0791	13	C9H9N3+
173.0705	3	C10H9N2O+
174.0787	6	C10H10N2O+
175.0978	18	C9H11N4+
