Mass spectrum: Fluroxypyr; LC-ESI-QFT; MS2; CE: 75; R=17500; [M-H]-
Name: Fluroxypyr
Name: 2-(4-amino-3,5-dichloro-6-fluoropyridin-2-yl)oxyacetic acid
Formula: C7H5Cl2FN2O3
Exact mass: 253.9661
SMILES: NC1=C(Cl)C(F)=NC(OCC(O)=O)=C1Cl
InChI: InChI=1S/C7H5Cl2FN2O3/c8-3-5(11)4(9)7(12-6(3)10)15-1-2(13)14/h1H2,(H2,11,12)(H,13,14)
Instrument: Q Exactive Orbitrap (Thermo Scientific)
Instrument type: LC-ESI-QFT
Ms type: MS2
Ion mode: NEGATIVE
Ionization: ESI
Fragmentation mode: HCD
Collision energy: 75
Resolution: 17500
Column name: Acquity BEH C18 1.7um, 2.1x150mm (Waters)
Retention time: 15.115 min
Base peak: 194.9534
Precursor m/z: 252.9588
Precursor type: [M-H]-
Precursor intensity: 2402041.216797
m/z	relative intensity	assigned
50.0036	23	C3N-
65.9986	611	C3NO-
89.0146	117	C5HN2-
89.9985	157	C5NO-
95.0052	500	C4FN2-
98.9645	97	C4ClO-
98.9756	61	C3ClN2-
107.9413	64	C2Cl2N-
110.9756	125	C4ClN2-
115.971	123	C4ClFN-
123.0002	57	C5FN2O-
130.9817	52	C4HClFN2-
131.9414	999	C4Cl2N-
157.969	93	C5ClFN2O-
158.9766	114	C5HClFN2O-
174.9471	234	C5HCl2N2O-
174.9716	26	C5HClFN2O2-
176.9873	37	C5H3ClFN2O2-
193.9458	34	C5HCl2FN2O-
194.9536	178	C5H2Cl2FN2O-
