Mass spectrum: Norflurazon; LC-ESI-QFT; MS2; CE: 75; R=17500; [M+H]+
Name: Norflurazon
Name: 4-chloro-5-(methylamino)-2-[3-(trifluoromethyl)phenyl]pyridazin-3-one
Formula: C12H9ClF3N3O
Exact mass: 303.0386
SMILES: CNC1=C(Cl)C(=O)N(N=C1)C1=CC=CC(=C1)C(F)(F)F
InChI: InChI=1S/C12H9ClF3N3O/c1-17-9-6-18-19(11(20)10(9)13)8-4-2-3-7(5-8)12(14,15)16/h2-6,17H,1H3
Instrument: Q Exactive Orbitrap (Thermo Scientific)
Instrument type: LC-ESI-QFT
Ms type: MS2
Ion mode: POSITIVE
Ionization: ESI
Fragmentation mode: HCD
Collision energy: 75
Resolution: 17500
Column name: Acquity BEH C18 1.7um, 2.1x150mm (Waters)
Retention time: 16.641 min
Base peak: 79.0212
Precursor m/z: 304.0459
Precursor type: [M+H]+
Precursor intensity: 14784611.75
m/z	relative intensity	assigned
52.0182	41	C3H2N+
53.0022	8	C3HO+
53.0385	3	C4H5+
54.0338	113	C3H4N+
55.0179	3	C3H3O+
55.0292	5	C2H3N2+
55.0417	7	C3H5N+
56.0131	6	C2H2NO+
58.0287	240	C2H4NO+
60.0244	2	C2H3FN+
60.9839	28	C2H2Cl+
61.9792	8	CHClN+
62.9632	26	CClO+
62.9996	9	C2H4Cl+
63.0228	15	C5H3+
63.9948	33	CH3ClN+
64.0307	4	C5H4+
66.0211	6	C3H2N2+
66.0338	14	C4H4N+
67.0291	24	C3H3N2+
67.0415	4	C4H5N+
68.0131	5	C3H2NO+
68.0494	39	C4H6N+
69.0447	288	C3H5N2+
70.0287	2	C3H4NO+
70.0524	12	C3H6N2+
71.029	3	C4H4F+
72.9839	17	C3H2Cl+
73.9791	16	C2HClN+
74.9869	13	C2H2ClN+
74.9998	2	C3H4Cl+
75.004	4	C3HF2+
75.0229	10	C6H3+
75.9948	51	C2H3ClN+
76.0179	9	C5H2N+
78.0106	12	C2H5ClN+
78.0338	3	C5H4N+
79.0179	3	C5H3O+
79.0291	8	C4H3N2+
80.0369	19	C4H4N2+
80.0494	6	C5H6N+
81.0447	66	C4H5N2+
82.0287	32	C4H4NO+
83.0291	18	C5H4F+
85.9791	9	C3HClN+
86.9872	2	C3H2ClN+
87.9948	888	C3H3ClN+
89.0026	204	C3H4ClN+
90.0105	46	C3H5ClN+
90.9944	6	C3H4ClO+
90.9991	4	C3HF2O+
91.0416	67	C6H5N+
92.0256	4	C6H4O+
92.0369	5	C5H4N2+
93.0135	3	C6H2F+
93.0574	28	C6H7N+
95.0492	7	C6H7O+
96.0244	6	C5H3FN+
96.0367	2	CH4F2N3+
96.0444	23	C5H6NO+
97.0085	3	C5H2FO+
97.0396	52	C4H5N2O+
98.0361	3	C2H9ClNO+
98.9747	2	C3ClN2+
99.0232	2	C8H3+
99.9822	2	C3HClN2+
99.9948	48	C4H3ClN+
100.0181	22	C7H2N+
101.0028	3	C4H4ClN+
101.0198	14	C5H3F2+
102.0105	676	C4H5ClN+
102.0275	116	C5H4F2+
103.0057	3	C3H4ClN2+
103.9898	26	C3H3ClNO+
105.0451	3	C6H5N2+
105.0573	2	C7H7N+
107.0127	7	C3H6ClNO+
107.0291	7	C7H4F+
108.0319	3	C5H4N2O+
108.0445	3	C6H6NO+
109.0284	4	C3H8ClNO+
109.0397	26	C5H5N2O+
109.0448	9	C7H6F+
110.0161	12	CH2F2N3O+
110.0399	23	C6H5FN+
111.0241	16	C6H4FO+
111.0479	9	C6H6FN+
113.0197	22	C6H3F2+
113.0398	18	C6H6FO+
114.0106	9	C5H5ClN+
114.0276	29	C6H4F2+
114.0344	2	C5H5FNO+
115.0057	123	C4H4ClN2+
115.0354	25	C6H5F2+
115.0542	23	C9H7+
115.9897	172	C4H3ClNO+
116.0136	12	C4H5ClN2+
116.9738	6	C2ClN3O+
117.0572	7	C8H7N+
118.0053	18	C4H5ClNO+
118.0288	8	C7H4NO+
119.0296	4	C8H4F+
120.0244	23	C7H3FN+
122.04	19	C7H5FN+
123.0239	8	C2H3F2N3O+
123.0353	20	C6H4FN2+
124.0506	6	C5H6N3O+
125.0197	56	C7H3F2+
126.0275	109	C7H4F2+
127.0353	80	C7H5F2+
128.0495	7	C9H6N+
129.0146	8	C6H3F2O+
129.0341	2	C6H8ClN+
129.0447	5	C8H5N2+
130.0054	15	C5H5ClNO+
130.0225	24	C6H4F2O+
131.0132	250	C5H6ClNO+
132.0247	6	C8H3FN+
133.0259	244	C6H4F3+
134.0401	5	C8H5FN+
135.0479	5	C8H6FN+
139.0354	72	C8H5F2+
140.0306	999	C7H4F2N+
141.0258	143	C6H3F2N2+
141.0386	8	C7H5F2N+
142.0169	4	C5H5ClN3+
142.0463	72	C7H6F2N+
142.0651	8	C10H8N+
143.0006	81	C5H4ClN2O+
143.0604	4	C9H7N2+
143.0729	14	C10H9N+
144.0084	14	C5H5ClN2O+
144.037	7	C10H5F+
145.0259	461	C7H4F3+
146.0401	5	C9H5FN+
146.0526	18	C10H7F+
146.0591	3	C9H8NO+
147.0352	40	C8H4FN2+
148.0305	214	C7H3FN3+
149.0511	2	C8H6FN2+
150.035	8	C8H5FNO+
151.0354	126	C9H5F2+
152.0307	39	C8H4F2N+
152.043	29	C4H5F3N3+
152.0501	5	C8H7FNO+
153.0385	4	C8H5F2N+
153.0449	8	C10H5N2+
153.0573	6	C11H7N+
154.0399	3	C9H4N3+
154.0462	11	C8H6F2N+
154.0526	2	C10H6N2+
154.0651	12	C11H8N+
155.0604	7	C10H7N2+
156.0555	2	C9H6N3+
156.0618	19	C8H8F2N+
156.0683	3	C10H8N2+
157.0262	3	C8H4F3+
157.0397	3	C9H5N2O+
157.046	3	C8H7F2O+
158.0174	156	C4H7ClF2NO+
158.0407	32	C7H6F2NO+
159.0195	5	C5H6ClN3O+
159.0354	9	C9H4FN2+
159.0418	2	C8H6F3+
160.0276	78	C5H7ClN3O+
160.0368	475	C7H5F3N+
161.0447	127	C7H6F3N+
162.0277	17	C10H4F2+
162.0527	12	C7H7F3N+
163.0361	20	C7H6F3O+
164.0432	331	C10H6F2+
165.0386	4	C9H5F2N+
165.0512	41	C10H7F2+
166.0463	41	C9H6F2N+
167.0058	35	C9H5ClF+
167.0303	38	C9H5F2O+
167.0416	22	C8H5F2N2+
168.0011	37	C8H4ClFN+
168.0255	131	C8H4F2NO+
170.0336	4	C9H5F3+
170.0601	8	C11H8NO+
171.0287	4	C8H4F3N+
171.0363	11	C7H5F2N2O+
171.0554	6	C10H7N2O+
172.0368	75	C8H5F3N+
172.0556	70	C11H7FN+
173.0322	63	C7H4F3N2+
173.0509	70	C10H6FN2+
173.0637	8	C11H8FN+
173.071	5	C10H9N2O+
174.052	43	C8H7F3N+
174.0593	10	C10H7FN2+
174.0714	6	C11H9FN+
176.0307	10	C10H4F2N+
177.0382	5	C10H5F2N+
177.0457	2	C9H6FN2O+
178.0467	124	C10H6F2N+
179.03	3	C5H4F3N3O+
179.0411	3	C9H5F2N2+
179.0541	2	C10H7F2N+
180.0254	3	C9H4F2NO+
180.0379	4	C5H5F3N3O+
180.0551	4	C11H6N3+
180.0633	9	C7H9F3NO+
181.033	19	C9H5F2NO+
181.0634	5	C11H7N3+
182.0214	3	C9H3F3N+
182.041	8	C9H6F2NO+
183.0292	8	C9H4F3N+
183.0416	10	C10H6F3+
184.0367	4	C9H5F3N+
185.0448	28	C9H6F3N+
185.0529	1	C5H10ClF2N3+
186.0394	3	C8H5F3N2+
187.0478	15	C8H6F3N2+
188.0319	7	C8H5F3NO+
189.0211	9	C10H6ClN2+
190.0466	3	C11H6F2N+
190.9872	11	C8H3ClF3+
191.0413	20	C10H5F2N2+
192.0621	186	C11H8F2N+
193.0022	11	C8H5ClF3+
193.0697	142	C11H9F2N+
194.0411	11	C10H6F2NO+
194.0651	6	C10H8F2N2+
195.002	2	C10H5ClFO+
195.0115	13	C12H2FNO+
196.0365	8	C10H5F3N+
196.9962	2	C5H3ClF3N3+
198.0396	5	C9H5F3N2+
198.0525	7	C10H7F3N+
199.0477	105	C9H6F3N2+
200.0312	23	C9H5F3NO+
200.0621	15	C11H7FN3+
201.0464	10	C8H9ClFN3+
201.0698	6	C11H8FN3+
202.0549	11	C8H10ClFN3+
205.0164	4	C10H6ClN2O+
205.0332	12	C11H5F2NO+
205.0567	3	C11H7F2N2+
206.0288	5	C10H4F2N2O+
206.0414	13	C11H6F2NO+
206.0515	2	C10H6F2N3+
207.0121	7	C10H5ClFN2+
207.0364	19	C10H5F2N2O+
208.0322	4	C11H8ClFN+
208.0506	5	C12H6N3O+
209.0279	5	C10H7ClFN2+
209.0583	3	C12H7N3O+
210.0402	6	C10H5F3N2+
212.0076	10	C10H5ClF2N+
212.0676	4	C11H9F3N+
213.0152	17	C10H6ClF2N+
213.033	3	C11H4FN3O+
213.0632	11	C10H8F3N2+
214.0103	10	C9H5ClF2N2+
214.041	6	C11H5FN3O+
214.0713	3	C10H9F3N2+
216.0021	14	C9H5ClF2NO+
217.0158	4	C11H6ClN2O+
217.9979	76	C9H4ClF3N+
219.0359	3	C11H5F2N2O+
219.0591	4	C11H7F2N3+
220.0443	20	C11H6F2N2O+
220.0567	13	C12H8F2NO+
220.0679	4	C11H8F2N3+
221.0523	32	C11H7F2N2O+
221.9998	10	C10H4ClFN2O+
223.0066	12	C10H5ClFN2O+
223.0477	5	C11H6F3N2+
225.0029	7	C10H4ClF2N2+
226.035	6	C10H5F3N2O+
227.0305	8	C11H8ClF2N+
227.0427	17	C10H6F3N2O+
228.0566	11	C12H7FN3O+
229.065	3	C12H8FN3O+
230.0291	3	C9H7ClF2N3+
232.0133	7	C10H6ClF3N+
233.039	5	C11H5F2N3O+
234.0164	20	C9H6ClF3N2+
234.0463	7	C11H6F2N3O+
235.0003	26	C9H5ClF3NO+
236.0381	2	C11H8ClFN3+
237.0225	12	C11H7ClFN2O+
240.0751	3	C11H9F3N3+
240.9977	9	C10H4ClF2N2O+
241.0581	9	C11H8F3N2O+
242.0051	41	C10H5ClF2N2O+
243.0132	4	C10H6ClF2N2O+
244.0267	3	C12H7ClN3O+
245.0087	3	C10H5ClF3N2+
245.9921	4	C10H4ClF3NO+
247.0553	5	C12H7F2N3O+
248.063	42	C12H8F2N3O+
249.0102	4	C11H5ClFN3O+
249.0708	4	C12H9F2N3O+
250.0233	4	C10H8ClF3NO+
252.0343	2	C11H8ClFN3O+
256.0208	6	C11H7ClF2N2O+
256.0452	9	C11H9ClF2N3+
257.0286	9	C11H8ClF2N2O+
258.0169	2	C11H6ClF3N2+
259.0255	2	C11H7ClF3N2+
262.0114	46	C10H6ClF3N2O+
264.0334	58	C12H8ClFN3O+
268.0081	5	C11H5ClF2N3O+
268.0692	4	C12H9F3N3O+
269.0156	2	C11H6ClF2N3O+
274.0241	3	C12H8ClF3NO+
282.024	15	C12H7ClF2N3O+
283.0319	31	C12H8ClF2N3O+
284.0396	125	C12H9ClF2N3O+
288.0137	5	C11H6ClF3N3O+
304.0464	8	C12H10ClF3N3O+
