Mass spectrum: Prochloraz; LC-ESI-QFT; MS2; CE: 90; R=17500; [M+H]+
Name: Prochloraz
Name: N-propyl-N-[2-(2,4,6-trichlorophenoxy)ethyl]imidazole-1-carboxamide
Formula: C15H16Cl3N3O2
Exact mass: 375.0308
SMILES: CCCN(CCOC1=C(Cl)C=C(Cl)C=C1Cl)C(=O)N1C=CN=C1
InChI: InChI=1S/C15H16Cl3N3O2/c1-2-4-20(15(22)21-5-3-19-10-21)6-7-23-14-12(17)8-11(16)9-13(14)18/h3,5,8-10H,2,4,6-7H2,1H3
Instrument: Q Exactive Orbitrap (Thermo Scientific)
Instrument type: LC-ESI-QFT
Ms type: MS2
Ion mode: POSITIVE
Ionization: ESI
Fragmentation mode: HCD
Collision energy: 90
Resolution: 17500
Column name: Acquity BEH C18 1.7um, 2.1x150mm (Waters)
Retention time: 18.455 min
Base peak: 79.0211
Precursor m/z: 376.0381
Precursor type: [M+H]+
Precursor intensity: 8597727.625
m/z	relative intensity	assigned
53.0022	102	C3HO+
56.0495	513	C3H6N+
70.0287	999	C3H4NO+
70.0651	783	C4H8N+
132.9607	427	C5H3Cl2+
142.945	557	C6HCl2+
161.9632	332	C6H4Cl2O+
166.9218	669	C5H2Cl3+
178.9218	215	C6H2Cl3+
179.9296	71	C6H3Cl3+
206.9282	339	C6H2Cl3N2+
