Mass spectrum: 3-Dimethylaminophenol; LC-ESI-QFT; MS2; CE: 45; R=17500; [M+H]+
Name: 3-Dimethylaminophenol
Name: 3-(dimethylamino)phenol
Formula: C8H11NO
Exact mass: 137.0841
SMILES: CN(C)C1=CC=CC(O)=C1
InChI: InChI=1S/C8H11NO/c1-9(2)7-4-3-5-8(10)6-7/h3-6,10H,1-2H3
Instrument: Q Exactive Orbitrap (Thermo Scientific)
Instrument type: LC-ESI-QFT
Ms type: MS2
Ion mode: POSITIVE
Ionization: ESI
Fragmentation mode: HCD
Collision energy: 45
Resolution: 17500
Column name: Acquity BEH C18 1.7um, 2.1x150mm (Waters)
Retention time: 3.789 min
Base peak: 79.0211
Precursor m/z: 138.0913
Precursor type: [M+H]+
Precursor intensity: 1685298.875
m/z	relative intensity	assigned
79.0541	1	C6H7+
106.0651	1	C7H8N+
107.0492	9	C7H7O+
110.0967	1	C7H12N+
120.0809	3	C8H10N+
122.0601	26	C7H8NO+
123.0679	999	C7H9NO+
136.0758	2	C8H10NO+
138.0914	661	C8H12NO+
