Mass spectrum: CI-959; LC-ESI-QFT; MS2; CE: 60; R=17500; [M+H]+
Name: CI-959
Name: CI-959 free acid
Name: 5-methoxy-3-propan-2-yloxy-N-(2H-tetrazol-5-yl)-1-benzothiophene-2-carboxamide
Formula: C14H15N5O3S
Exact mass: 333.0896
SMILES: COC1=CC2=C(SC(C(=O)NC3=NN=NN3)=C2OC(C)C)C=C1
InChI: InChI=1S/C14H15N5O3S/c1-7(2)22-11-9-6-8(21-3)4-5-10(9)23-12(11)13(20)15-14-16-18-19-17-14/h4-7H,1-3H3,(H2,15,16,17,18,19,20)
Instrument: Q Exactive Orbitrap (Thermo Scientific)
Instrument type: LC-ESI-QFT
Ms type: MS2
Ion mode: POSITIVE
Ionization: ESI
Fragmentation mode: HCD
Collision energy: 60
Resolution: 17500
Column name: Acquity BEH C18 1.7um, 2.1x150mm (Waters)
Retention time: 17.398 min
Base peak: 79.0211
Precursor m/z: 334.0968
Precursor type: [M+H]+
Precursor intensity: 6207657.5625
m/z	relative intensity	assigned
58.04	16	CH4N3+
68.9793	3	C3HS+
69.0083	19	C2HN2O+
79.0543	6	C6H7+
84.0192	4	C2H2N3O+
86.0461	533	CH4N5+
95.0492	9	C6H7O+
107.0492	15	C7H7O+
109.0648	5	C7H9O+
112.0254	127	C2H2N5O+
117.0215	3	C7H3NO+
119.0491	11	C8H7O+
121.0108	3	C7H5S+
123.9978	5	C6H4OS+
125.0597	9	C7H9O2+
128.0928	3	C4H10N5+
135.0441	206	C8H7O2+
135.9978	24	C7H4OS+
138.0134	5	C7H6OS+
139.0213	999	C7H7OS+
147.9977	3	C8H4OS+
151.0213	309	C8H7OS+
153.0369	21	C8H9OS+
159.0804	12	C11H11O+
160.0881	5	C11H12O+
163.0213	21	C9H7OS+
163.9927	8	C8H4O2S+
166.0081	16	C8H6O2S+
178.0447	45	C10H10OS+
179.0162	423	C9H7O2S+
181.0318	23	C9H9O2S+
191.9873	10	C9H4O3S+
193.068	10	C11H13OS+
194.0273	9	C9H8NO2S+
207.0111	652	C10H7O3S+
209.9982	39	C10H2N4S+
