Mass spectrum: Glybenclamide; LC-ESI-QFT; MS2; CE: 75; R=17500; [M-H]-
Name: Glybenclamide
Name: Glyburide
Name: 5-chloro-N-[2-[4-(cyclohexylcarbamoylsulfamoyl)phenyl]ethyl]-2-methoxybenzamide
Formula: C23H28ClN3O5S
Exact mass: 493.1438
SMILES: COC1=C(C=C(Cl)C=C1)C(=O)NCCC1=CC=C(C=C1)S(=O)(=O)NC(=O)NC1CCCCC1
InChI: InChI=1S/C23H28ClN3O5S/c1-32-21-12-9-17(24)15-20(21)22(28)25-14-13-16-7-10-19(11-8-16)33(30,31)27-23(29)26-18-5-3-2-4-6-18/h7-12,15,18H,2-6,13-14H2,1H3,(H,25,28)(H2,26,27,29)
Instrument: Q Exactive Orbitrap (Thermo Scientific)
Instrument type: LC-ESI-QFT
Ms type: MS2
Ion mode: NEGATIVE
Ionization: ESI
Fragmentation mode: HCD
Collision energy: 75
Resolution: 17500
Column name: Acquity BEH C18 1.7um, 2.1x150mm (Waters)
Retention time: 17.825 min
Base peak: 112.9856
Precursor m/z: 492.1365
Precursor type: [M-H]-
Precursor intensity: 12875626.20215
m/z	relative intensity	assigned
61.9706	36	NOS-
63.9624	247	O2S-
64.9703	25	HO2S-
65.9985	3	C3NO-
74.0036	22	C5N-
77.9655	11	NO2S-
78.9734	160	HNO2S-
79.9574	2	O3S-
79.9812	27	H2NO2S-
80.9652	25	HO3S-
88.0192	2	C6H2N-
91.019	25	C6H3O-
92.9891	1	CH3NO2S-
93.0346	1	C6H5O-
93.9605	88	NO3S-
103.9685	3	CN2O2S-
106.0424	23	C7H6O-
107.9761	44	CH2NO3S-
108.0217	9	C6H4O2-
111.0007	4	C6H4Cl-
116.0142	129	C7H2NO-
118.0662	16	C8H8N-
121.0293	5	C7H5O2-
123.0927	6	C7H11N2-
126.9956	999	C6H4ClO-
130.0535	4	C8H6N2-
132.0816	6	C9H10N-
138.0322	3	C7H6O3-
151.9908	214	C7H3ClNO-
154.0094	135	C7H6O2S-
169.0203	49	C7H7NO2S-
170.0014	138	C7H5ClNO2-
182.0013	1	C8H5ClNO2-
184.0436	1	C8H10NO2S-
185.9992	42	C7H6O4S-
194.0154	34	C8H6N2O2S-
201.0101	14	C7H7NO4S-
207.0228	2	C9H7N2O2S-
224.05	15	C9H10N3O2S-
225.0342	5	C9H9N2O3S-
226.0052	4	C8H6N2O4S-
