Mass spectrum: Methoxyfenozide; LC-ESI-QFT; MS2; CE: 90; R=17500; [M-H]-
Name: Methoxyfenozide
Name: N'-tert-butyl-N'-(3,5-dimethylbenzoyl)-3-methoxy-2-methylbenzohydrazide
Formula: C22H28N2O3
Exact mass: 368.2100
SMILES: COC1=CC=CC(C(=O)NN(C(=O)C2=CC(C)=CC(C)=C2)C(C)(C)C)=C1C
InChI: InChI=1S/C22H28N2O3/c1-14-11-15(2)13-17(12-14)21(26)24(22(4,5)6)23-20(25)18-9-8-10-19(27-7)16(18)3/h8-13H,1-7H3,(H,23,25)
Instrument: Q Exactive Orbitrap (Thermo Scientific)
Instrument type: LC-ESI-QFT
Ms type: MS2
Ion mode: NEGATIVE
Ionization: ESI
Fragmentation mode: HCD
Collision energy: 90
Resolution: 17500
Column name: Acquity BEH C18 1.7um, 2.1x150mm (Waters)
Retention time: 17.518 min
Base peak: 307.0977
Precursor m/z: 367.2027
Precursor type: [M-H]-
Precursor intensity: 57543966.86523
m/z	relative intensity	assigned
91.019	999	C6H3O-
105.071	851	C8H9-
106.0423	66	C7H6O-
118.0299	236	C7H4NO-
121.0295	648	C7H5O2-
121.066	46	C8H9O-
122.0374	64	C7H6O2-
136.0403	77	C7H6NO2-
146.0248	651	C8H4NO2-
147.0323	39	C8H5NO2-
148.0403	59	C8H6NO2-
149.0608	318	C9H9O2-
