Mass spectrum: FR140423; LC-ESI-QFT; MS2; CE: 30; R=17500; [M+H]+
Name: FR140423
Name: 3-(Difluoromethyl)-1-(4-methoxyphenyl)-5-(4-(methylsulfinyl)phenyl)pyrazole
Name: 3-(difluoromethyl)-1-(4-methoxyphenyl)-5-(4-methylsulfinylphenyl)pyrazole
Formula: C18H16F2N2O2S
Exact mass: 362.0901
SMILES: COC1=CC=C(C=C1)N1N=C(C=C1C1=CC=C(C=C1)S(C)=O)C(F)F
InChI: InChI=1S/C18H16F2N2O2S/c1-24-14-7-5-13(6-8-14)22-17(11-16(21-22)18(19)20)12-3-9-15(10-4-12)25(2)23/h3-11,18H,1-2H3
Instrument: Q Exactive Orbitrap (Thermo Scientific)
Instrument type: LC-ESI-QFT
Ms type: MS2
Ion mode: POSITIVE
Ionization: ESI
Fragmentation mode: HCD
Collision energy: 30
Resolution: 17500
Column name: Acquity BEH C18 1.7um, 2.1x150mm (Waters)
Retention time: 16.264 min
Base peak: 79.0211
Precursor m/z: 363.0973
Precursor type: [M+H]+
Precursor intensity: 5109767.65625
m/z	relative intensity	assigned
150.0134	3	C8H6OS+
199.0678	7	C9H9F2N2O+
271.066	6	C15H13NO2S+
285.0837	2	C16H11F2N2O+
297.0687	1	C16H13N2O2S+
299.0992	4	C17H13F2N2O+
300.1068	32	C17H14F2N2O+
316.1016	1	C17H14F2N2O2+
328.0679	6	C17H13FN2O2S+
331.0717	2	C17H13F2N2OS+
332.079	22	C17H14F2N2OS+
332.0977	7	C17H17FN2O2S+
333.0511	2	C16H11F2N2O2S+
345.0876	2	C18H15F2N2OS+
346.0948	183	C18H16F2N2OS+
347.0672	1	C17H13F2N2O2S+
348.0738	999	C17H14F2N2O2S+
363.0973	466	C18H17F2N2O2S+
