Mass spectrum: SAR115740; LC-ESI-QFT; MS2; CE: 30; R=17500; [M+H]+
Name: SAR115740
Name: 5-fluoro-1-[(3-fluorophenyl)methyl]-N-(1H-indol-5-yl)indole-2-carboxamide
Formula: C24H17F2N3O
Exact mass: 401.1340
SMILES: FC1=CC=C2N(CC3=CC(F)=CC=C3)C(=CC2=C1)C(=O)NC1=CC=C2NC=CC2=C1
InChI: InChI=1S/C24H17F2N3O/c25-18-3-1-2-15(10-18)14-29-22-7-4-19(26)11-17(22)13-23(29)24(30)28-20-5-6-21-16(12-20)8-9-27-21/h1-13,27H,14H2,(H,28,30)
Instrument: Q Exactive Orbitrap (Thermo Scientific)
Instrument type: LC-ESI-QFT
Ms type: MS2
Ion mode: POSITIVE
Ionization: ESI
Fragmentation mode: HCD
Collision energy: 30
Resolution: 17500
Column name: Acquity BEH C18 1.7um, 2.1x150mm (Waters)
Retention time: 18.363 min
Base peak: 79.0212
Precursor m/z: 402.1412
Precursor type: [M+H]+
Precursor intensity: 8156138.90625
m/z	relative intensity	assigned
57.0135	1	C3H2F+
83.029	1	F2H3N3+
104.0493	1	C7H6N+
107.0291	1	C7H4F+
109.0448	999	C7H6F+
131.0604	396	C8H7N2+
132.0682	229	C8H8N2+
133.076	37	C8H9N2+
135.0481	1	C8H6FN+
136.0557	481	C8H7FN+
145.0757	1	C9H9N2+
148.0556	98	C9H7FN+
159.0553	128	C9H7N2O+
162.0349	290	C9H5FNO+
171.0552	89	C10H7N2O+
180.0812	1	C13H10N+
208.1117	5	C15H14N+
212.0873	1	C14H11FN+
224.0873	4	C15H11FN+
239.0979	190	C15H12FN2+
241.1135	135	C15H14FN2+
242.0777	3	C15H10F2N+
244.0932	577	C15H12F2N+
250.0663	1	C16H9FNO+
252.0618	6	C16H8F2N+
267.0927	84	C16H12FN2O+
270.0724	30	C16H10F2NO+
293.0959	43	C17H12FN3O+
374.147	2	C23H18F2N3+
384.1295	4	C24H16F2N3+
402.141	24	C24H18F2N3O+
