Mass spectrum: Flutolanil; LC-ESI-QFT; MS2; CE: 15; R=17500; [M-H]-
Name: Flutolanil
Name: N-(3-propan-2-yloxyphenyl)-2-(trifluoromethyl)benzamide
Formula: C17H16F3NO2
Exact mass: 323.1133
SMILES: CC(C)OC1=CC(NC(=O)C2=C(C=CC=C2)C(F)(F)F)=CC=C1
InChI: InChI=1S/C17H16F3NO2/c1-11(2)23-13-7-5-6-12(10-13)21-16(22)14-8-3-4-9-15(14)17(18,19)20/h3-11H,1-2H3,(H,21,22)
Instrument: Q Exactive Orbitrap (Thermo Scientific)
Instrument type: LC-ESI-QFT
Ms type: MS2
Ion mode: NEGATIVE
Ionization: ESI
Fragmentation mode: HCD
Collision energy: 15
Resolution: 17500
Column name: Acquity BEH C18 1.7um, 2.1x150mm (Waters)
Retention time: 17.426 min
Base peak: 456.1333
Precursor m/z: 322.106
Precursor type: [M-H]-
Precursor intensity: 16753400.02148
m/z	relative intensity	assigned
92.0504	1	C6H6N-
134.0246	10	C7H4NO2-
145.0269	260	C7H4F3-
150.0923	1	C9H12NO-
176.0716	10	C10H10NO2-
189.0168	11	C8H4F3O2-
238.0511	1	C12H7F3NO-
240.0465	11	C14H7FNO2-
260.0528	40	C14H8F2NO2-
279.051	2	C14H8F3NO2-
280.0587	1	C14H9F3NO2-
302.0992	2	C17H14F2NO2-
322.1059	999	C17H15F3NO2-
