Mass spectrum: 4-Hexylaniline; LC-ESI-QFT; MS2; CE: 15; R=17500; [M+H]+
Name: 4-Hexylaniline
Formula: C12H19N
Exact mass: 177.1517
SMILES: CCCCCCC1=CC=C(N)C=C1
InChI: InChI=1S/C12H19N/c1-2-3-4-5-6-11-7-9-12(13)10-8-11/h7-10H,2-6,13H2,1H3
Instrument: Q Exactive Orbitrap (Thermo Scientific)
Instrument type: LC-ESI-QFT
Ms type: MS2
Ion mode: POSITIVE
Ionization: ESI
Fragmentation mode: HCD
Collision energy: 15
Resolution: 17500
Column name: Acquity BEH C18 1.7um, 2.1x150mm (Waters)
Retention time: 16.558 min
Base peak: 79.0211
Precursor m/z: 178.159
Precursor type: [M+H]+
Precursor intensity: 24505238.46875
m/z	relative intensity	assigned
57.0699	1	C4H9+
91.0539	2	C7H7+
94.0651	22	C6H8N+
106.0652	1	C7H8N+
107.0724	1	C7H9N+
178.1589	999	C12H20N+
