Mass spectrum: Pyrithiobac; LC-ESI-QFT; MS2; CE: 90; R=17500; [M+H]+
Name: Pyrithiobac
Name: 2-chloro-6-(4,6-dimethoxypyrimidin-2-yl)sulfanylbenzoic acid
Formula: C13H11ClN2O4S
Exact mass: 326.0128
SMILES: COC1=CC(OC)=NC(SC2=C(C(O)=O)C(Cl)=CC=C2)=N1
InChI: InChI=1S/C13H11ClN2O4S/c1-19-9-6-10(20-2)16-13(15-9)21-8-5-3-4-7(14)11(8)12(17)18/h3-6H,1-2H3,(H,17,18)
Instrument: Q Exactive Orbitrap (Thermo Scientific)
Instrument type: LC-ESI-QFT
Ms type: MS2
Ion mode: POSITIVE
Ionization: ESI
Fragmentation mode: HCD
Collision energy: 90
Resolution: 17500
Column name: Acquity BEH C18 1.7um, 2.1x150mm (Waters)
Retention time: 17.367 min
Base peak: 79.0211
Precursor m/z: 327.0201
Precursor type: [M+H]+
Precursor intensity: 7415916.125
m/z	relative intensity	assigned
53.0022	27	C3HO+
53.0386	15	C4H5+
54.0338	31	C3H4N+
55.0179	14	C3H3O+
55.0291	12	C2H3N2+
56.0131	28	C2H2NO+
57.0447	11	C2H5N2+
63.0228	34	C5H3+
65.0385	17	C5H5+
66.0212	8	C3H2N2+
68.013	7	C3H2NO+
68.9971	298	C3HO2+
69.9924	7	C2NO2+
70.0288	5	C3H4NO+
71.0603	255	C3H7N2+
71.9902	39	C2H2NS+
72.0443	15	C3H6NO+
74.0059	9	C2H4NS+
74.9898	13	C2H3OS+
75.0229	90	C6H3+
77.0385	17	C6H5+
79.029	11	C4H3N2+
80.0368	12	C4H4N2+
81.0334	10	C5H5O+
81.0447	76	C4H5N2+
82.0287	81	C4H4NO+
83.024	758	C3H3N2O+
85.9695	153	C2NOS+
86.9994	8	C4H4Cl+
88.0215	7	C3H6NS+
89.0387	22	C7H5+
90.0338	17	C6H4N+
91.0542	40	C7H7+
92.0258	39	C6H4O+
93.0083	498	C4HN2O+
94.0162	11	C4H2N2O+
94.9948	7	C5H3S+
95.0491	54	C6H7O+
98.9841	27	CH4ClO3+
98.9995	14	C5H4Cl+
100.0181	24	C7H2N+
101.9974	28	C6NO+
102.0465	30	C8H6+
104.0495	5	C7H6N+
105.0447	18	C6H5N2+
105.0698	8	C8H9+
107.0239	23	C5H3N2O+
108.0028	11	C6H4S+
108.0446	5	C6H6NO+
109.0398	46	C5H5N2O+
109.9695	15	C4NOS+
110.9997	20	C6H4Cl+
113.015	5	C6H6Cl+
114.0338	84	C8H4N+
115.0545	11	C9H7+
116.0494	12	C8H6N+
117.0573	80	C8H7N+
119.0365	3	C7H5NO+
119.0491	12	C8H7O+
120.0444	10	C7H6NO+
122.9996	479	C7H4Cl+
123.9948	124	C6H3ClN+
124.0182	69	C9H2N+
125.0026	5	C6H4ClN+
125.0153	40	C7H6Cl+
125.0347	12	C5H5N2O2+
125.9867	491	C6H3ClO+
127.0417	31	C9H5N+
127.05	21	C5H7N2O2+
128.0494	78	C9H6N+
129.0101	32	C6H6ClO+
129.0447	30	C8H5N2+
129.0573	49	C9H7N+
129.9638	6	C5H3ClS+
130.0402	6	CH10N2O3S+
130.0649	5	C9H8N+
132.0446	10	C8H6NO+
132.998	43	C7H3NS+
133.0521	9	C8H7NO+
137.0027	11	C7H4ClN+
137.0156	4	C8H6Cl+
138.0105	45	C7H5ClN+
138.9951	16	C7H4ClO+
139.0057	63	C6H4ClN2+
139.0502	167	C6H7N2O2+
140.0496	5	C10H6N+
141.0209	129	C9H3NO+
141.9639	64	C6H3ClS+
141.9958	20	C5H4NO2S+
142.0289	35	C9H4NO+
142.9716	9	C6H4ClS+
144.0445	9	C9H6NO+
145.0522	5	C9H7NO+
146.006	12	C8H4NS+
146.0603	20	C9H8NO+
147.9948	999	C8H3ClN+
149.0025	25	C8H4ClN+
150.0105	64	C8H5ClN+
151.0183	15	C8H6ClN+
152.026	11	C8H7ClN+
152.037	12	C10H4N2+
153.9815	23	C7H3ClO2+
154.0054	15	C7H5ClNO+
154.9715	15	C7H4ClS+
155.0237	6	C9H3N2O+
156.0212	18	C7H7ClNO+
156.0446	5	C10H6NO+
157.0528	5	C7H10ClN2+
157.0606	27	C6H9N2O3+
159.9947	36	C9H3ClN+
161.0027	12	C9H4ClN+
161.0471	6	C9H7NO2+
161.9982	20	C5H6O4S+
162.0104	49	C9H5ClN+
163.006	21	C5H7O4S+
163.9897	105	C8H3ClNO+
164.0263	29	C9H7ClN+
164.9975	12	C8H4ClNO+
165.0212	7	C8H6ClN2+
166.0054	65	C8H5ClNO+
167.9671	11	C7H3ClNS+
168.021	30	C8H7ClNO+
168.975	10	C7H4ClNS+
169.005	13	C8H6ClO2+
169.9587	113	C7H3ClOS+
169.9825	17	C7H5ClNS+
170.9663	8	C7H4ClOS+
171.001	81	C9H3N2S+
171.0083	5	C7H6ClNO2+
171.9922	44	C7H5ClO3+
175.0058	82	C9H4ClN2+
175.9898	246	C9H3ClNO+
176.9975	40	C9H4ClNO+
178.0054	149	C9H5ClNO+
179.0005	11	C8H4ClN2O+
179.0353	4	C6H10ClNO3+
179.9668	36	C8H3ClNS+
179.9846	117	C8H3ClNO2+
180.021	36	C9H7ClNO+
183.0008	9	C10H3N2S+
183.0088	7	C8H6ClNO2+
184.0089	46	C10H4N2S+
184.9698	68	C7H4ClNOS+
185.9776	15	C7H5ClNOS+
187.0061	20	C7H7O4S+
187.9897	230	C10H3ClNO+
188.0007	69	C12N2O+
189.0216	6	C7H9O4S+
191.967	17	C9H3ClNS+
192.0211	8	C10H7ClNO+
192.9748	5	C9H4ClNS+
193.0166	17	C9H6ClN2O+
193.9701	75	C8H3ClN2S+
194.978	26	C8H4ClN2S+
195.9617	39	C8H3ClNOS+
196.0161	37	C9H7ClNO2+
198.9851	4	C8H6ClNOS+
199.9935	8	C8H7ClNOS+
201.0114	5	C10H5N2OS+
201.9936	4	C4H9ClNO4S+
203.9847	768	C10H3ClNO2+
206.0004	86	C10H5ClNO2+
206.9777	4	C9H4ClN2S+
208.9936	12	C9H6ClN2S+
209.9775	5	C9H5ClNOS+
210.0313	7	C13H6O3+
218.9777	27	C10H4ClN2S+
220.0159	26	C11H7ClNO2+
220.9932	11	C10H6ClN2S+
224.0108	12	C10H7ClNO3+
236.0109	48	C11H7ClNO3+
236.9884	14	C10H6ClN2OS+
238.0264	6	C11H9ClNO3+
261.9597	4	C11H3ClN2O2S+
278.9622	14	C11H4ClN2O3S+
