Mass spectrum: Tris(2-butoxyethyl) phosphate; LC-ESI-QFT; MS2; CE: 30; R=17500; [M+H]+
Name: Tris(2-butoxyethyl) phosphate
Formula: C18H39O7P
Exact mass: 398.2433
SMILES: CCCCOCCOP(=O)(OCCOCCCC)OCCOCCCC
InChI: InChI=1S/C18H39O7P/c1-4-7-10-20-13-16-23-26(19,24-17-14-21-11-8-5-2)25-18-15-22-12-9-6-3/h4-18H2,1-3H3
Instrument: Q Exactive Orbitrap (Thermo Scientific)
Instrument type: LC-ESI-QFT
Ms type: MS2
Ion mode: POSITIVE
Ionization: ESI
Fragmentation mode: HCD
Collision energy: 30
Resolution: 17500
Column name: Acquity BEH C18 1.7um, 2.1x150mm (Waters)
Retention time: 19.345 min
Base peak: 79.0211
Precursor m/z: 399.2506
Precursor type: [M+H]+
Precursor intensity: 33905320.6875
m/z	relative intensity	assigned
53.0022	8	C3HO+
53.0386	5	C4H5+
55.0542	365	C4H7+
57.0699	999	C4H9+
59.0491	95	C3H7O+
71.0854	2	C5H11+
83.0855	415	C6H11+
89.0597	13	C4H9O2+
98.9841	162	H4O4P+
101.0961	765	C6H13O+
116.995	1	H6O5P+
124.9998	66	C2H6O4P+
143.0104	220	C2H8O5P+
145.1224	4	C8H17O2+
169.0258	4	C4H10O5P+
199.073	564	C6H16O5P+
225.0885	8	C8H18O5P+
243.0992	16	C8H20O6P+
255.1346	2	C10H24O5P+
299.1618	41	C12H28O6P+
