Mass spectrum: Isoxathion; LC-ESI-QFT; MS2; CE: 30; R=17500; [M+H]+
Name: Isoxathion
Name: diethoxy-[(5-phenyl-1,2-oxazol-3-yl)oxy]-sulfanylidene-lambda5-phosphane
Formula: C13H16NO4PS
Exact mass: 313.0538
SMILES: CCOP(=S)(OCC)OC1=NOC(=C1)C1=CC=CC=C1
InChI: InChI=1S/C13H16NO4PS/c1-3-15-19(20,16-4-2)18-13-10-12(17-14-13)11-8-6-5-7-9-11/h5-10H,3-4H2,1-2H3
Instrument: Q Exactive Orbitrap (Thermo Scientific)
Instrument type: LC-ESI-QFT
Ms type: MS2
Ion mode: POSITIVE
Ionization: ESI
Fragmentation mode: HCD
Collision energy: 30
Resolution: 17500
Column name: Acquity BEH C18 1.7um, 2.1x150mm (Waters)
Retention time: 18.742 min
Base peak: 79.0212
Precursor m/z: 314.061
Precursor type: [M+H]+
Precursor intensity: 16101393.75
m/z	relative intensity	assigned
53.0386	2	C4H5+
61.0106	19	C2H5S+
64.9786	9	H2O2P+
77.0382	4	C6H5+
81.9815	3	H3O3P+
82.9892	2	H4O3P+
91.0542	2	C7H7+
93.01	30	C2H6O2P+
95.049	8	C6H7O+
96.9506	4	H2O2PS+
98.9664	4	H4O2PS+
98.9842	32	H4O4P+
105.0335	999	C7H5O+
107.9844	2	CH3NO3P+
109.0049	17	C2H6O3P+
112.9455	1	H2O3PS+
112.9999	2	CH6O4P+
113.9536	113	H3O3PS+
114.9614	150	H4O3PS+
116.0495	6	C8H6N+
117.0574	1	C8H7N+
123.0263	2	C7H7S+
123.9796	5	CH3NO4P+
124.9822	3	C2H6O2PS+
125.9899	15	C2H7O2PS+
126.9977	2	C2H8O2PS+
127.0155	11	C2H8O4P+
128.977	4	CH6O3PS+
129.948	2	H3O4PS+
130.9563	155	H4O4PS+
131.9639	1	H5O4PS+
132.0569	1	C9H8O+
132.9719	1	H6O4PS+
133.0106	1	C8H5S+
133.0647	1	C9H9O+
135.0263	17	C8H7S+
136.016	5	C3H7NO3P+
137.0056	3	C7H5OS+
140.977	21	C2H6O3PS+
141.9849	131	C2H7O3PS+
142.9926	30	C2H8O3PS+
144.9719	2	CH6O4PS+
145.0522	3	C9H7NO+
145.9796	1	CH7O4PS+
146.06	4	C9H8NO+
146.9875	1	CH8O4PS+
148.9669	2	C6NO2P+
151.0212	36	C8H7OS+
152.0109	1	C3H7NO4P+
153.0134	2	C4H10O2PS+
155.0465	1	C4H12O4P+
158.9876	22	C2H8O4PS+
160.0215	37	C9H6NS+
162.055	54	C9H8NO2+
162.9827	1	C7H2NO2P+
164.0473	2	C5H11NO3P+
169.0088	1	C4H10O3PS+
170.0161	210	C4H11O3PS+
171.0239	14	C4H12O3PS+
176.0163	1	C9H6NOS+
178.0321	157	C9H8NOS+
187.0189	42	C4H12O4PS+
190.0863	21	C11H12NO2+
201.0343	1	C5H14O4PS+
206.0636	16	C11H12NOS+
214.9927	3	C8H8O3PS+
216.9723	3	C7H6O4PS+
234.9825	24	C13H2NO2P+
239.9877	9	C9H7NO3PS+
240.9721	6	C9H6O4PS+
252.993	1	C13H4NO3P+
257.9984	86	C9H9NO4PS+
263.0137	8	C12H10NO2PS+
268.0193	1	C11H11NO3PS+
269.0033	3	C11H10O4PS+
286.0298	24	C11H13NO4PS+
314.0611	4	C13H17NO4PS+
