Mass spectrum: CP-544439; LC-ESI-QFT; MS2; CE: 30; R=17500; [M-H]-
Name: CP-544439
Name: 2H-Pyran-4-carboxamide, 4-(((4-(4-fluorophenoxy)phenyl)sulfonyl)amino)tetrahydro-N-hydroxy-
Name: 4-[[4-(4-fluorophenoxy)phenyl]sulfonylamino]-N-hydroxyoxane-4-carboxamide
Formula: C18H19FN2O6S
Exact mass: 410.0948
SMILES: ONC(=O)C1(CCOCC1)NS(=O)(=O)C1=CC=C(OC2=CC=C(F)C=C2)C=C1
InChI: InChI=1S/C18H19FN2O6S/c19-13-1-3-14(4-2-13)27-15-5-7-16(8-6-15)28(24,25)21-18(17(22)20-23)9-11-26-12-10-18/h1-8,21,23H,9-12H2,(H,20,22)
Instrument: Q Exactive Orbitrap (Thermo Scientific)
Instrument type: LC-ESI-QFT
Ms type: MS2
Ion mode: NEGATIVE
Ionization: ESI
Fragmentation mode: HCD
Collision energy: 30
Resolution: 17500
Column name: Acquity BEH C18 1.7um, 2.1x150mm (Waters)
Retention time: 15.940 min
Base peak: 409.0876
Precursor m/z: 409.0875
Precursor type: [M-H]-
Precursor intensity: 3586100.102051
m/z	relative intensity	assigned
57.9933	3	CNO2-
63.9624	1	O2S-
78.9733	1	HNO2S-
79.9813	1	H2NO2S-
106.0299	1	C6H4NO-
107.0376	2	C6H5NO-
111.0252	1	C6H4FO-
112.0404	26	C5H6NO2-
142.0509	23	C6H8NO3-
144.0665	1	C6H10NO3-
187.0566	3	C12H8FO-
201.0722	3	C13H10FO-
251.0183	36	C12H8FO3S-
266.0293	999	C12H9FNO3S-
318.0605	7	C16H13FNO3S-
409.0869	5	C18H18FN2O6S-
