Mass spectrum: Anastrozole; LC-ESI-QFT; MS2; CE: 75; R=17500; [M+H]+
Name: Anastrozole
Name: 2-[3-(2-cyanopropan-2-yl)-5-(1,2,4-triazol-1-ylmethyl)phenyl]-2-methylpropanenitrile
Formula: C17H19N5
Exact mass: 293.1640
SMILES: CC(C)(C#N)C1=CC(=CC(CN2C=NC=N2)=C1)C(C)(C)C#N
InChI: InChI=1S/C17H19N5/c1-16(2,9-18)14-5-13(8-22-12-20-11-21-22)6-15(7-14)17(3,4)10-19/h5-7,11-12H,8H2,1-4H3
Instrument: Q Exactive Orbitrap (Thermo Scientific)
Instrument type: LC-ESI-QFT
Ms type: MS2
Ion mode: POSITIVE
Ionization: ESI
Fragmentation mode: HCD
Collision energy: 75
Resolution: 17500
Column name: Acquity BEH C18 1.7um, 2.1x150mm (Waters)
Retention time: 14.587 min
Base peak: 79.0211
Precursor m/z: 294.1713
Precursor type: [M+H]+
Precursor intensity: 7800589.34375
m/z	relative intensity	assigned
53.0386	2	C4H5+
55.0542	2	C4H7+
68.0495	13	C4H6N+
79.0542	4	C6H7+
89.0384	2	C7H5+
90.0463	3	C7H6+
91.0542	96	C7H7+
92.0621	2	C7H8+
93.0697	1	C7H9+
102.0467	3	C8H6+
103.0542	23	C8H7+
104.062	2	C8H8+
105.0699	8	C8H9+
115.0542	233	C9H7+
116.0494	10	C8H6N+
116.0621	47	C9H8+
117.0572	21	C8H7N+
117.0699	20	C9H9+
118.065	6	C8H8N+
119.0857	3	C9H11+
128.062	47	C10H8+
129.0699	324	C10H9+
130.0657	38	C9H8N+
130.0777	423	C10H10+
131.0855	159	C10H11+
133.0647	2	C7H7N3+
140.0493	12	C10H6N+
140.0619	2	C11H8+
141.0572	11	C10H7N+
141.0699	81	C11H9+
142.0652	781	C10H8N+
143.0729	51	C10H9N+
143.0855	79	C11H11+
144.0806	10	C10H10N+
144.0932	8	C11H12+
145.0649	4	C8H7N3+
145.1013	5	C11H13+
153.0574	8	C11H7N+
153.0695	3	C12H9+
154.0651	40	C11H8N+
155.0602	5	C10H7N2+
155.0729	50	C11H9N+
155.0848	11	C12H11+
156.0809	136	C11H10N+
156.0929	50	C12H12+
157.0886	277	C11H11N+
158.0965	47	C11H12N+
158.1088	6	C12H14+
160.0756	28	C8H8N4+
165.0698	10	C13H9+
166.0651	3	C12H8N+
166.0777	8	C13H10+
167.073	25	C12H9N+
168.0808	299	C12H10N+
169.0648	4	C10H7N3+
169.076	20	C11H9N2+
169.0882	9	C12H11N+
169.1012	2	C13H13+
170.0964	69	C12H12N+
171.1043	4	C12H13N+
171.1168	37	C13H15+
172.1117	2	C12H14N+
178.065	6	C13H8N+
179.0599	2	C12H7N2+
180.0681	5	C12H8N2+
181.0764	2	C12H9N2+
181.0888	4	C13H11N+
181.1011	3	C14H13+
182.0965	58	C13H12N+
183.1043	122	C13H13N+
184.1118	6	C13H14N+
192.0805	2	C14H10N+
193.0764	2	C13H9N2+
194.0841	13	C13H10N2+
195.0917	431	C13H11N2+
196.1116	3	C14H14N+
197.1078	2	C13H13N2+
198.1277	124	C14H16N+
208.1001	2	C14H12N2+
209.1074	416	C14H13N2+
210.1151	673	C14H14N2+
225.1386	999	C15H17N2+
227.1174	2	C12H13N5+
228.1256	46	C12H14N5+
242.1414	16	C13H16N5+
