Mass spectrum: Bispyribac; LC-ESI-QFT; MS2; CE: 15; R=17500; [M-H]-
Name: Bispyribac
Formula: C19H18N4O8
Exact mass: 430.1125
SMILES: COC1=CC(OC)=NC(OC2=CC=CC(OC3=NC(OC)=CC(OC)=N3)=C2C(O)=O)=N1
InChI: InChI=1S/C19H18N4O8/c1-26-12-8-13(27-2)21-18(20-12)30-10-6-5-7-11(16(10)17(24)25)31-19-22-14(28-3)9-15(23-19)29-4/h5-9H,1-4H3,(H,24,25)
Instrument: Q Exactive Orbitrap (Thermo Scientific)
Instrument type: LC-ESI-QFT
Ms type: MS2
Ion mode: NEGATIVE
Ionization: ESI
Fragmentation mode: HCD
Collision energy: 15
Resolution: 17500
Column name: Acquity BEH C18 1.7um, 2.1x150mm (Waters)
Retention time: 17.312 min
Base peak: 112.9856
Precursor m/z: 429.1052
Precursor type: [M-H]-
Precursor intensity: 6661020.800781
m/z	relative intensity	assigned
135.0087	75	C7H3O3-
155.0463	639	C6H7N2O3-
179.0463	37	C8H7N2O3-
341.1247	6	C17H17N4O4-
385.1155	999	C18H17N4O6-
