Mass spectrum: Monolinuron; LC-ESI-QFT; MS2; CE: 30; R=17500; [M+H]+
Name: Monolinuron
Name: 3-(4-chlorophenyl)-1-methoxy-1-methylurea
Formula: C9H11ClN2O2
Exact mass: 214.0509
SMILES: CON(C)C(=O)NC1=CC=C(Cl)C=C1
InChI: InChI=1S/C9H11ClN2O2/c1-12(14-2)9(13)11-8-5-3-7(10)4-6-8/h3-6H,1-2H3,(H,11,13)
Instrument: Q Exactive Orbitrap (Thermo Scientific)
Instrument type: LC-ESI-QFT
Ms type: MS2
Ion mode: POSITIVE
Ionization: ESI
Fragmentation mode: HCD
Collision energy: 30
Resolution: 17500
Column name: Acquity BEH C18 1.7um, 2.1x150mm (Waters)
Retention time: 15.996 min
Base peak: 79.0211
Precursor m/z: 215.0582
Precursor type: [M+H]+
Precursor intensity: 1038035.28125
m/z	relative intensity	assigned
60.0444	86	C2H6NO+
62.06	284	C2H8NO+
98.9996	12	C5H4Cl+
103.9766	7	C2HClN2O+
126.0105	999	C6H5ClN+
127.0183	148	C6H6ClN+
148.0631	827	C8H8N2O+
183.0318	57	C8H8ClN2O+
