Mass spectrum: CP-457677; LC-ESI-QFT; MS2; CE: 75; R=17500; [M+H]+
Name: CP-457677
Name: 3-Pyridinecarboxamide, 2-(4-fluorophenoxy)-N-((4-(1-hydroxy-1-methylethyl)phenyl)methyl)-
Name: 2-(4-fluorophenoxy)-N-[[4-(2-hydroxypropan-2-yl)phenyl]methyl]pyridine-3-carboxamide
Formula: C22H21FN2O3
Exact mass: 380.1536
SMILES: CC(C)(O)C1=CC=C(CNC(=O)C2=CC=CN=C2OC2=CC=C(F)C=C2)C=C1
InChI: InChI=1S/C22H21FN2O3/c1-22(2,27)16-7-5-15(6-8-16)14-25-20(26)19-4-3-13-24-21(19)28-18-11-9-17(23)10-12-18/h3-13,27H,14H2,1-2H3,(H,25,26)
Instrument: Q Exactive Orbitrap (Thermo Scientific)
Instrument type: LC-ESI-QFT
Ms type: MS2
Ion mode: POSITIVE
Ionization: ESI
Fragmentation mode: HCD
Collision energy: 75
Resolution: 17500
Column name: Acquity BEH C18 1.7um, 2.1x150mm (Waters)
Retention time: 16.689 min
Base peak: 79.0211
Precursor m/z: 381.1609
Precursor type: [M+H]+
Precursor intensity: 9163494.375
m/z	relative intensity	assigned
53.0022	2	C3HO+
53.0387	15	C4H5+
57.0335	77	C3H5O+
59.0491	11	C3H7O+
65.0386	24	C5H5+
74.0962	2	C4H12N+
75.0225	2	C6H3+
78.0339	6	C5H4N+
79.0542	39	C6H7+
89.0385	5	C7H5+
91.0543	999	C7H7+
92.0621	11	C7H8+
93.0699	8	C7H9+
95.0129	2	C5H3O2+
95.0491	11	C6H7O+
96.0444	34	C5H6NO+
103.0542	40	C8H7+
105.0699	132	C8H9+
107.0856	167	C8H11+
109.0649	28	C7H9O+
113.0396	2	C6H6FO+
115.0543	104	C9H7+
116.0621	328	C9H8+
119.0604	14	C7H7N2+
119.0856	9	C9H11+
121.1011	8	C9H13+
122.0403	4	C7H5FN+
123.035	3	C6H4FN2+
123.0805	4	C8H11O+
128.0621	28	C10H8+
129.0699	125	C10H9+
130.0777	7	C10H10+
131.0856	457	C10H11+
132.0808	12	C9H10N+
133.0448	215	C9H6F+
134.0726	192	C9H10O+
140.0495	17	C10H6N+
143.0603	7	C9H7N2+
145.0644	4	C10H9O+
146.0401	4	C9H5FN+
146.096	2	C10H12N+
148.0191	3	C8H3FNO+
149.0959	4	C10H13O+
152.0505	3	C8H7FNO+
155.0603	3	C10H7N2+
158.04	5	C10H5FN+
158.0599	2	C10H8NO+
160.0558	135	C10H7FN+
164.0505	4	C9H7FNO+
168.0446	4	C11H6NO+
168.056	2	C12H8O+
188.0507	276	C11H7FNO+
216.0456	325	C12H7FNO2+
234.0559	5	C12H9FNO3+
