Mass spectrum: Azacyclotridecan-2-one; LC-ESI-QFT; MS2; CE: 45; R=17500; [M+H]+
Name: Azacyclotridecan-2-one
Formula: C12H23NO
Exact mass: 197.1780
SMILES: O=C1CCCCCCCCCCCN1
InChI: InChI=1S/C12H23NO/c14-12-10-8-6-4-2-1-3-5-7-9-11-13-12/h1-11H2,(H,13,14)
Instrument: Q Exactive Orbitrap (Thermo Scientific)
Instrument type: LC-ESI-QFT
Ms type: MS2
Ion mode: POSITIVE
Ionization: ESI
Fragmentation mode: HCD
Collision energy: 45
Resolution: 17500
Column name: Acquity BEH C18 1.7um, 2.1x150mm (Waters)
Retention time: 17.456 min
Base peak: 79.0211
Precursor m/z: 198.1852
Precursor type: [M+H]+
Precursor intensity: 40468687.75
m/z	relative intensity	assigned
53.0022	1	C3HO+
53.0386	1	C4H5+
55.0179	4	C3H3O+
55.0542	34	C4H7+
57.0699	34	C4H9+
58.0652	2	C3H8N+
67.0542	6	C5H7+
69.0698	50	C5H9+
70.0651	1	C4H8N+
71.049	2	C4H7O+
71.0855	15	C5H11+
72.0443	4	C3H6NO+
72.0807	7	C4H10N+
79.0542	6	C6H7+
81.0699	14	C6H9+
82.0651	3	C5H8N+
83.0491	3	C5H7O+
83.0855	64	C6H11+
84.0808	1	C5H10N+
85.0647	2	C5H9O+
85.1012	3	C6H13+
86.06	12	C4H8NO+
86.0965	3	C5H12N+
91.0542	1	C7H7+
93.0699	11	C7H9+
95.0855	12	C7H11+
96.0808	4	C6H10N+
97.0648	11	C6H9O+
97.1012	38	C7H13+
99.0804	1	C6H11O+
100.0757	17	C5H10NO+
100.112	1	C6H14N+
107.0855	11	C8H11+
109.1014	2	C8H13+
110.0964	3	C7H12N+
111.0804	8	C7H11O+
111.1167	2	C8H15+
114.0914	9	C6H12NO+
114.1277	2	C7H16N+
121.1012	9	C9H13+
123.1169	1	C9H15+
124.112	4	C8H14N+
125.0962	4	C8H13O+
128.1071	3	C7H14NO+
128.1434	3	C8H18N+
135.1167	2	C10H15+
138.1275	2	C9H16N+
139.1118	1	C9H15O+
156.1749	2	C10H22N+
163.1482	2	C12H19+
180.1749	3	C12H22N+
198.1852	999	C12H24NO+
