Mass spectrum: Triphenylphosphine oxide; LC-ESI-QFT; MS2; CE: 75; R=17500; [M+H]+
Name: Triphenylphosphine oxide
Name: diphenylphosphorylbenzene
Formula: C18H15OP
Exact mass: 278.0861
SMILES: O=P(C1=CC=CC=C1)(C1=CC=CC=C1)C1=CC=CC=C1
InChI: InChI=1S/C18H15OP/c19-20(16-10-4-1-5-11-16,17-12-6-2-7-13-17)18-14-8-3-9-15-18/h1-15H
Instrument: Q Exactive Orbitrap (Thermo Scientific)
Instrument type: LC-ESI-QFT
Ms type: MS2
Ion mode: POSITIVE
Ionization: ESI
Fragmentation mode: HCD
Collision energy: 75
Resolution: 17500
Column name: Acquity BEH C18 1.7um, 2.1x150mm (Waters)
Retention time: 16.902 min
Base peak: 79.0211
Precursor m/z: 279.0933
Precursor type: [M+H]+
Precursor intensity: 43543565.5
m/z	relative intensity	assigned
50.0152	3	C4H2+
51.0229	8	C4H3+
53.0386	271	C4H5+
55.0179	13	C3H3O+
56.989	2	C2H2P+
65.0385	1	C5H5+
67.0541	1	C5H7+
68.9888	9	C3H2P+
75.0229	1	C6H3+
77.0385	155	C6H5+
78.0464	1	C6H6+
79.0542	3	C6H7+
81.0335	25	C5H5O+
81.0699	4	C6H9+
91.0543	20	C7H7+
94.0413	30	C6H6O+
95.0046	360	C5H4P+
95.0491	752	C6H7O+
97.02	2	C5H6P+
105.0337	21	C7H5O+
106.0417	1	C7H6O+
107.0044	15	C6H4P+
107.0493	1	C7H7O+
108.0123	2	C6H5P+
109.0201	2	C6H6P+
109.0649	8	C7H9O+
113.0151	22	C5H6OP+
115.0543	17	C9H7+
116.062	2	C9H8+
122.9994	52	C6H4OP+
125.0151	37	C6H6OP+
127.0307	3	C6H8OP+
128.0621	241	C10H8+
129.0698	233	C10H9+
133.0202	118	C8H6P+
141.0699	52	C11H9+
145.0203	9	C9H6P+
147.0358	43	C9H8P+
152.062	10	C12H8+
153.0698	43	C12H9+
154.0777	203	C12H10+
155.0856	3	C12H11+
157.0203	2	C10H6P+
159.036	8	C10H8P+
165.0462	2	C9H10OP+
168.0572	1	C12H8O+
170.0279	11	C11H7P+
171.0358	476	C11H8P+
172.0441	2	C11H9P+
173.0515	999	C11H10P+
183.0359	270	C12H8P+
185.0517	1	C12H10P+
186.0227	3	C11H7OP+
199.0308	28	C12H8OP+
201.0464	546	C12H10OP+
279.0934	11	C18H16OP+
