Mass spectrum: Propyl gallate; LC-ESI-QFT; MS2; CE: 75; R=17500; [M-H]-
Name: Propyl gallate
Name: propyl 3,4,5-trihydroxybenzoate
Formula: C10H12O5
Exact mass: 212.0685
SMILES: CCCOC(=O)C1=CC(O)=C(O)C(O)=C1
InChI: InChI=1S/C10H12O5/c1-2-3-15-10(14)6-4-7(11)9(13)8(12)5-6/h4-5,11-13H,2-3H2,1H3
Instrument: Q Exactive Orbitrap (Thermo Scientific)
Instrument type: LC-ESI-QFT
Ms type: MS2
Ion mode: NEGATIVE
Ionization: ESI
Fragmentation mode: HCD
Collision energy: 75
Resolution: 17500
Column name: Acquity BEH C18 1.7um, 2.1x150mm (Waters)
Retention time: 14.149 min
Base peak: 211.0612
Precursor m/z: 211.0612
Precursor type: [M-H]-
Precursor intensity: 31286675.21387
m/z	relative intensity	assigned
53.0032	13	C3HO-
55.0189	19	C3H3O-
57.0345	24	C3H5O-
58.006	3	C2H2O2-
59.0138	9	C2H3O2-
60.9932	4	CHO3-
65.0033	63	C4HO-
67.0189	88	C4H3O-
68.9982	42	C3HO2-
69.0346	119	C4H5O-
71.0138	54	C3H3O2-
72.9932	57	C2HO3-
78.0111	53	C5H2O-
79.0189	28	C5H3O-
80.0266	2	C5H4O-
81.0346	27	C5H5O-
82.0061	30	C4H2O2-
83.0139	82	C4H3O2-
84.9932	8	C3HO3-
85.0297	4	C4H5O2-
86.001	13	C3H2O3-
87.0088	29	C3H3O3-
95.0139	71	C5H3O2-
96.9931	21	C4HO3-
97.0296	90	C5H5O2-
99.0088	23	C4H3O3-
100.9882	4	C3HO4-
106.006	118	C6H2O2-
107.0139	14	C6H3O2-
108.0217	4	C6H4O2-
108.9933	3	C5HO3-
110.0009	85	C5H2O3-
111.0088	487	C5H3O3-
112.9882	10	C4HO4-
123.0088	198	C6H3O3-
124.0166	317	C6H4O3-
125.0244	999	C6H5O3-
127.0037	201	C5H3O4-
136.988	356	C6HO4-
138.0318	2	C7H6O3-
139.0037	526	C6H3O4-
140.0115	819	C6H4O4-
141.9909	5	C5H2O5-
151.0035	4	C7H3O4-
153.0192	5	C7H5O4-
154.9986	78	C6H3O5-
168.0066	10	C7H4O5-
169.0141	51	C7H5O5-
211.0613	8	C10H11O5-
