Mass spectrum: 3-Trifluoromethyl-4-nitrophenol; LC-ESI-QFT; MS2; CE: 60; R=17500; [M-H]-
Name: 3-Trifluoromethyl-4-nitrophenol
Name: 4-nitro-3-(trifluoromethyl)phenol
Formula: C7H4F3NO3
Exact mass: 207.0143
SMILES: OC1=CC(=C(C=C1)[N+]([O-])=O)C(F)(F)F
InChI: InChI=1S/C7H4F3NO3/c8-7(9,10)5-3-4(12)1-2-6(5)11(13)14/h1-3,12H
Instrument: Q Exactive Orbitrap (Thermo Scientific)
Instrument type: LC-ESI-QFT
Ms type: MS2
Ion mode: NEGATIVE
Ionization: ESI
Fragmentation mode: HCD
Collision energy: 60
Resolution: 17500
Column name: Acquity BEH C18 1.7um, 2.1x150mm (Waters)
Retention time: 16.544 min
Base peak: 206.0069
Precursor m/z: 206.0071
Precursor type: [M-H]-
Precursor intensity: 156459480.2148
m/z	relative intensity	assigned
50.0035	4	C3N-
52.0192	4	C3H2N-
63.9955	14	C4O-
64.0193	3	C4H2N-
65.0033	5	C4HO-
65.9985	24	C3NO-
68.996	3	CF3-
68.9979	3	C3HO2-
70.0099	1	C3HFN-
70.9939	25	C3FO-
74.0036	34	C5N-
75.0052	1	C3HF2-
76.0192	1	C5H2N-
79.9904	4	C4O2-
80.0067	5	C5HF-
82.006	2	C4H2O2-
82.9938	1	C4FO-
84.0017	16	C4HFO-
86.9887	3	C3FO2-
87.0052	6	C4HF2-
87.9955	5	C6O-
89.0033	2	C6HO-
89.9985	4	C5NO-
91.0001	6	C3HF2O-
92.014	1	C5H2NO-
92.9952	3	C3F3-
92.9983	3	C5HO2-
94.0063	1	C5H2O2-
94.0098	4	C5HFN-
94.9939	5	C5FO-
95.0139	15	C5H3O2-
96.0016	2	C5HFO-
98.001	3	C4H2O3-
99.9968	1	C4HFO2-
100.013	1	C5H2F2-
101.9923	1	C4F2O-
101.9985	1	C6NO-
103	3	C4HF2O-
103.9904	2	C6O2-
106.0059	3	C6H2O2-
108.0017	31	C6HFO-
108.9907	7	C3F3O-
109.0093	4	C6H2FO-
110.9887	7	C5FO2-
111.9967	1	C5HFO2-
112.013	2	C6H2F2-
115	1	C5HF2O-
120.0016	2	C7HFO-
120.0091	11	C6H2NO2-
122.0008	2	C6H2O3-
122.0052	1	C6HFNO-
123.0087	6	C6H3O3-
123.9966	16	C6HFO2-
126.0122	11	C6H3FO2-
128.0079	82	C6H2F2O-
130.9951	1	C5HF2O2-
135.9965	2	C7HFO2-
137.9934	8	C4HF3O2-
137.9998	2	C6HFNO2-
140.0079	19	C7H2F2O-
142.9951	3	C6HF2O2-
144.0027	21	C6H2F2O2-
145.9822	3	C5F2O3-
148.0141	5	C6H3F3O-
151.9914	2	C7HFO3-
156.0029	18	C7H2F2O2-
159.0064	2	C7H2F3O-
160.0142	181	C7H3F3O-
163.0013	52	C6H2F3O2-
165.9881	2	C5HF3O3-
171.9978	1	C7H2F2O3-
176.009	999	C7H3F3O2-
190.9965	4	C7H2F3O3-
206.007	315	C7H3F3NO3-
