Mass spectrum: Oxypurinol; LC-ESI-QFT; MS2; CE: 75; R=17500; [M-H]-
Name: Oxypurinol
Name: 1,2-dihydropyrazolo[3,4-d]pyrimidine-4,6-dione
Formula: C5H4N4O2
Exact mass: 152.0334
SMILES: O=C1NC2=NNC=C2C(=O)N1
InChI: InChI=1S/C5H4N4O2/c10-4-2-1-6-9-3(2)7-5(11)8-4/h1H,(H3,6,7,8,9,10,11)
Instrument: Q Exactive Orbitrap (Thermo Scientific)
Instrument type: LC-ESI-QFT
Ms type: MS2
Ion mode: NEGATIVE
Ionization: ESI
Fragmentation mode: HCD
Collision energy: 75
Resolution: 17500
Column name: Acquity BEH C18 1.7um, 2.1x150mm (Waters)
Retention time: 3.142 min
Base peak: 151.0261
Precursor m/z: 151.0261
Precursor type: [M-H]-
Precursor intensity: 3864206.777344
m/z	relative intensity	assigned
52.0192	113	C3H2N-
65.0145	93	C3HN2-
65.9986	333	C3NO-
80.0254	33	C3H2N3-
90.0097	27	C4N3-
95.025	26	C4H3N2O-
108.0204	866	C4H2N3O-
133.0155	40	C5HN4O-
151.0262	999	C5H3N4O2-
