Mass spectrum: Diflufenican; LC-ESI-QFT; MS2; CE: 15; R=17500; [M-H]-
Name: Diflufenican
Name: N-(2,4-difluorophenyl)-2-[3-(trifluoromethyl)phenoxy]pyridine-3-carboxamide
Formula: C19H11F5N2O2
Exact mass: 394.0741
SMILES: FC1=CC=C(NC(=O)C2=C(OC3=CC(=CC=C3)C(F)(F)F)N=CC=C2)C(F)=C1
InChI: InChI=1S/C19H11F5N2O2/c20-12-6-7-16(15(21)10-12)26-17(27)14-5-2-8-25-18(14)28-13-4-1-3-11(9-13)19(22,23)24/h1-10H,(H,26,27)
Instrument: Q Exactive Orbitrap (Thermo Scientific)
Instrument type: LC-ESI-QFT
Ms type: MS2
Ion mode: NEGATIVE
Ionization: ESI
Fragmentation mode: HCD
Collision energy: 15
Resolution: 17500
Column name: Acquity BEH C18 1.7um, 2.1x150mm (Waters)
Retention time: 19.046 min
Base peak: 271.9888
Precursor m/z: 393.0668
Precursor type: [M-H]-
Precursor intensity: 8164518.205078
m/z	relative intensity	assigned
65.0033	23	C4HO-
66.035	4	C4H4N-
68.9958	7	CF3-
85.0095	34	C4H2FO-
96.0256	4	C5H3FN-
143.0114	2	C7H2F3-
161.0218	19	C7H4F3O-
185.0519	47	C11H6FN2-
229.0417	4	C12H6FN2O2-
252.0442	95	C13H6F4N-
272.0505	520	C13H7F5N-
289.0581	2	C18H7F2N2-
296.0339	16	C14H6F4NO2-
302.0602	2	C17H8F4N-
309.0645	182	C18H8F3N2-
321.0474	3	C18H7F2N2O2-
325.0594	23	C18H8F3N2O-
327.0547	5	C18H7F4N2-
327.0753	8	C18H10F3N2O-
328.0628	2	C18H8F4N2-
329.0707	906	C18H9F4N2-
345.0655	14	C18H9F4N2O-
346.0492	4	C18H8F4NO2-
349.0767	21	C18H10F5N2-
353.0542	234	C19H8F3N2O2-
355.05	2	C19H7F4N2O-
373.0605	495	C19H9F4N2O2-
393.0669	999	C19H10F5N2O2-
