Mass spectrum: PharmaGSID_48516; LC-ESI-QFT; MS2; CE: 30; R=17500; [M+H]+
Name: 2-chloro-4-fluoro-N-[(E)-2-phenylethenyl]sulfonylbenzamide
Name: 2-Chloro-4-fluoro-N-{[(E)-2-phenylethenyl]sulfonyl}benzamide
Name: PharmaGSID_48516
Formula: C15H11ClFNO3S
Exact mass: 339.0132
SMILES: O=C(NS(=O)(=O)/C=C/c1ccccc1)c1ccc(F)cc1Cl
InChI: InChI=1S/C15H11ClFNO3S/c16-14-10-12(17)6-7-13(14)15(19)18-22(20,21)9-8-11-4-2-1-3-5-11/h1-10H,(H,18,19)/b9-8+
Instrument: Q Exactive Orbitrap (Thermo Scientific)
Instrument type: LC-ESI-QFT
Ms type: MS2
Ion mode: POSITIVE
Ionization: ESI
Fragmentation mode: HCD
Collision energy: 30
Resolution: 17500
Column name: Acquity BEH C18 1.7um, 2.1x150mm (Waters)
Retention time: 16.772 min
Base peak: 79.0211
Precursor m/z: 340.0205
Precursor type: [M+H]+
Precursor intensity: 2364249.75
m/z	relative intensity	assigned
95.0491	5	C6H7O+
102.047	2	C8H6+
103.0542	999	C8H7+
118.0416	3	C5H9ClN+
121.0649	4	C8H9O+
135.0803	4	C9H11O+
156.001	20	C7H4ClFN+
156.9851	944	C7H3ClFO+
166.0323	5	C8H8NOS+
167.0162	472	C8H7O2S+
174.0119	9	C7H6ClFNO+
185.0267	5	C8H9O3S+
