Mass spectrum: AVE5638; LC-ESI-QFT; MS2; CE: 75; R=17500; [M+H]+
Name: AVE5638
Name: 1-{3-[1-({5-[(2-Fluorophenyl)ethynyl]furan-2-yl}carbonyl)piperidin-4-yl]phenyl}methanamine
Name: [4-[3-(aminomethyl)phenyl]piperidin-1-yl]-[5-[2-(2-fluorophenyl)ethynyl]furan-2-yl]methanone
Formula: C25H23FN2O2
Exact mass: 402.1744
SMILES: NCC1=CC=CC(=C1)C1CCN(CC1)C(=O)C1=CC=C(O1)C#CC1=CC=CC=C1F
InChI: InChI=1S/C25H23FN2O2/c26-23-7-2-1-5-20(23)8-9-22-10-11-24(30-22)25(29)28-14-12-19(13-15-28)21-6-3-4-18(16-21)17-27/h1-7,10-11,16,19H,12-15,17,27H2
Instrument: Q Exactive Orbitrap (Thermo Scientific)
Instrument type: LC-ESI-QFT
Ms type: MS2
Ion mode: POSITIVE
Ionization: ESI
Fragmentation mode: HCD
Collision energy: 75
Resolution: 17500
Column name: Acquity BEH C18 1.7um, 2.1x150mm (Waters)
Retention time: 16.173 min
Base peak: 79.0211
Precursor m/z: 403.1816
Precursor type: [M+H]+
Precursor intensity: 15490480
m/z	relative intensity	assigned
53.0387	2	C4H5+
55.0179	6	C3H3O+
55.0543	16	C4H7+
56.0495	89	C3H6N+
65.0386	2	C5H5+
67.0416	1	C4H5N+
67.0542	3	C5H7+
79.0179	1	C5H3O+
79.0542	1	C6H7+
80.0494	1	C5H6N+
81.0335	3	C5H5O+
82.0651	8	C5H8N+
83.029	2	C5H4F+
84.0809	3	C5H10N+
91.0543	83	C7H7+
95.0128	9	C5H3O2+
95.0493	1	C6H7O+
103.0542	5	C8H7+
105.0335	1	C7H5O+
105.0699	2	C8H9+
107.0292	1	C7H4F+
109.0449	18	C7H6F+
115.0543	18	C9H7+
116.0621	19	C9H8+
117.0699	8	C9H9+
118.065	3	C8H8N+
119.0855	1	C9H11+
121.0447	3	C8H6F+
123.0243	3	C7H4FO+
127.0542	1	C10H7+
128.0621	18	C10H8+
129.0699	22	C10H9+
130.0651	4	C9H8N+
131.0292	1	C9H4F+
131.0493	1	C9H7O+
131.073	1	C9H9N+
131.0856	13	C10H11+
133.0448	13	C9H6F+
141.0699	10	C11H9+
142.0653	1	C10H8N+
142.0778	13	C11H10+
143.0731	6	C10H9N+
143.0859	2	C11H11+
144.0808	6	C10H10N+
145.0449	2	C10H6F+
145.0651	3	C10H9O+
146.0527	1	C10H7F+
147.0242	9	C9H4FO+
147.0605	1	C10H8F+
150.0464	2	C12H6+
151.0543	3	C12H7+
152.062	6	C12H8+
153.0697	5	C12H9+
154.0778	2	C12H10+
155.0492	1	C11H7O+
155.0606	4	C10H7N2+
155.0856	4	C12H11+
156.0369	1	C11H5F+
156.0813	4	C11H10N+
157.0449	999	C11H6F+
159.0602	4	C11H8F+
165.07	11	C13H9+
166.0775	1	C13H10+
167.0855	2	C13H11+
169.0649	30	C12H9O+
170.0527	146	C12H7F+
171.0604	25	C12H8F+
172.0754	1	C11H10NO+
172.1121	3	C12H14N+
173.0516	2	C10H6FN2+
177.0703	1	C14H9+
178.0777	5	C14H10+
179.0604	7	C12H7N2+
179.0856	2	C14H11+
181.0645	1	C13H9O+
183.0607	3	C13H8F+
183.0803	1	C13H11O+
185.0632	1	C12H8FN+
187.0557	5	C12H8FO+
189.0697	1	C15H9+
190.0776	1	C15H10+
191.0857	2	C15H11+
196.0687	2	C14H9F+
197.0508	1	C12H6FN2+
199.0555	27	C13H8FO+
202.0782	2	C16H10+
203.0858	1	C16H11+
209.0761	2	C15H10F+
213.0347	36	C13H6FO2+
215.0856	3	C17H11+
220.0683	14	C16H9F+
221.0762	4	C16H10F+
225.0705	1	C15H10FO+
226.0778	122	C18H10+
227.0509	2	C14H8FO2+
227.0856	29	C18H11+
228.0931	1	C18H12+
233.0761	25	C17H10F+
234.0841	2	C17H11F+
235.0916	3	C17H12F+
239.0859	8	C19H11+
240.0935	1	C19H12+
241.1009	1	C19H13+
244.0683	5	C18H9F+
245.0763	18	C18H10F+
246.084	188	C18H11F+
247.0918	38	C18H12F+
250.0781	1	C20H10+
252.0931	6	C20H12+
253.1015	2	C20H13+
255.0802	4	C19H11O+
257.0762	23	C19H10F+
258.084	8	C19H11F+
259.0765	1	C18H11O2+
259.0919	19	C19H12F+
260.0997	3	C19H13F+
261.1071	1	C19H14F+
265.1011	3	C21H13+
268.0879	1	C20H12O+
270.084	25	C20H11F+
271.0917	13	C20H12F+
272.0999	3	C20H13F+
273.0711	4	C19H10FO+
273.1076	2	C20H14F+
274.0793	3	C19H11FO+
275.0869	4	C19H12FO+
276.0931	1	C22H12+
283.0924	9	C21H12F+
283.1114	1	C21H15O+
284.1009	2	C21H13F+
285.1083	4	C21H14F+
287.0863	1	C20H12FO+
294.084	1	C22H11F+
295.0915	2	C22H12F+
297.1076	1	C22H14F+
