Mass spectrum: 6-Nitrobenzimidazole; LC-ESI-QFT; MS2; CE: 60; R=17500; [M+H]+
Name: 6-Nitrobenzimidazole
Name: 5-Nitrobenzimidazole
Formula: C7H5N3O2
Exact mass: 163.0382
SMILES: [O-][N+](=O)C1=CC2=C(NC=N2)C=C1
InChI: InChI=1S/C7H5N3O2/c11-10(12)5-1-2-6-7(3-5)9-4-8-6/h1-4H,(H,8,9)
Instrument: Q Exactive Orbitrap (Thermo Scientific)
Instrument type: LC-ESI-QFT
Ms type: MS2
Ion mode: POSITIVE
Ionization: ESI
Fragmentation mode: HCD
Collision energy: 60
Resolution: 17500
Column name: Acquity BEH C18 1.7um, 2.1x150mm (Waters)
Retention time: 10.079 min
Base peak: 79.0211
Precursor m/z: 164.0455
Precursor type: [M+H]+
Precursor intensity: 15457689.125
m/z	relative intensity	assigned
54.0338	3	C3H4N+
72.0443	1	C3H6NO+
91.0416	4	C6H5N+
93.0448	2	C5H5N2+
94.0526	15	C5H6N2+
106.0526	28	C6H6N2+
109.0397	1	C5H5N2O+
117.0448	1	C7H5N2+
118.0525	557	C7H6N2+
133.0396	5	C7H5N2O+
134.0474	40	C7H6N2O+
150.0423	999	C7H6N2O2+
152.0466	3	C6H6N3O2+
164.0454	161	C7H6N3O2+
