Mass spectrum: Cladribine; LC-ESI-QFT; MS2; CE: 60; R=17500; [M-H]-
Name: Cladribine
Formula: C10H12ClN5O3
Exact mass: 285.0629
SMILES: NC1=NC(Cl)=NC2=C1N=CN2[C@H]1C[C@H](O)[C@@H](CO)O1
InChI: InChI=1S/C10H12ClN5O3/c11-10-14-8(12)7-9(15-10)16(3-13-7)6-1-4(18)5(2-17)19-6/h3-6,17-18H,1-2H2,(H2,12,14,15)/t4-,5+,6+/m0/s1
Instrument: Q Exactive Orbitrap (Thermo Scientific)
Instrument type: LC-ESI-QFT
Ms type: MS2
Ion mode: NEGATIVE
Ionization: ESI
Fragmentation mode: HCD
Collision energy: 60
Resolution: 17500
Column name: Acquity BEH C18 1.7um, 2.1x150mm (Waters)
Retention time: 10.813 min
Base peak: 276.0309
Precursor m/z: 284.0556
Precursor type: [M-H]-
Precursor intensity: 2478494.151855
m/z	relative intensity	assigned
59.0138	4	C2H3O2-
66.0098	201	C2N3-
78.0098	11	C3N3-
90.0097	7	C4N3-
105.0207	45	C4HN4-
107.0363	23	C4H3N4-
131.0238	230	C5HN5-
132.0316	999	C5H2N5-
158.0471	31	C7H4N5-
167.0004	16	C5H2ClN5-
168.0083	78	C5H3ClN5-
194.024	10	C7H5ClN5-
248.0792	7	C10H10N5O3-
