Mass spectrum: Carbaryl; LC-ESI-QFT; MS2; CE: 75; R=17500; [M+H]+
Name: Carbaryl
Name: naphthalen-1-yl N-methylcarbamate
Formula: C12H11NO2
Exact mass: 201.079
SMILES: CNC(=O)OC1=C2C=CC=CC2=CC=C1
InChI: InChI=1S/C12H11NO2/c1-13-12(14)15-11-8-4-6-9-5-2-3-7-10(9)11/h2-8H,1H3,(H,13,14)
Instrument: Q Exactive Orbitrap (Thermo Scientific)
Instrument type: LC-ESI-QFT
Ms type: MS2
Ion mode: POSITIVE
Ionization: ESI
Fragmentation mode: HCD
Collision energy: 75
Resolution: 17500
Column name: Acquity BEH C18 1.7um, 2.1x150mm (Waters)
Retention time: 15.238 min
Base peak: 79.0211
Precursor m/z: 202.0863
Precursor type: [M+H]+
Precursor intensity: 11194200.3125
m/z	relative intensity	assigned
66.0465	5	C5H6+
74.0965	2	C4H12N+
79.0057	103	C4HNO+
89.0385	29	C7H5+
90.0105	52	C6H2O+
90.0464	40	C7H6+
96.0556	999	C6H8O+
103.0543	5	C8H7+
107.0371	5	C6H5NO+
118.0413	19	C8H6O+
124.0869	284	C8H12O+
145.0283	16	C9H5O2+
146.0228	32	C8H4NO2+
146.0361	6	C9H6O2+
174.054	57	C10H8NO2+
202.0853	33	C12H12NO2+
