Mass spectrum: Clothianidin; LC-ESI-QFT; MS2; CE: 90; R=17500; [M-H]-
Name: Clothianidin
Name: 1-[(2-chloro-1,3-thiazol-5-yl)methyl]-2-methyl-3-nitroguanidine
Formula: C6H8ClN5O2S
Exact mass: 249.0087
SMILES: CN\C(NCC1=CN=C(Cl)S1)=N/[N+]([O-])=O
InChI: InChI=1S/C6H8ClN5O2S/c1-8-6(11-12(13)14)10-3-4-2-9-5(7)15-4/h2H,3H2,1H3,(H2,8,10,11)
Instrument: Q Exactive Orbitrap (Thermo Scientific)
Instrument type: LC-ESI-QFT
Ms type: MS2
Ion mode: NEGATIVE
Ionization: ESI
Fragmentation mode: HCD
Collision energy: 90
Resolution: 17500
Column name: Acquity BEH C18 1.7um, 2.1x150mm (Waters)
Retention time: 12.515 min
Base peak: 248.0015
Precursor m/z: 248.0014
Precursor type: [M-H]-
Precursor intensity: 11796912.17969
m/z	relative intensity	assigned
55.0301	53	C2H3N2-
56.9804	26	C2HS-
57.9757	999	CNS-
61.0043	37	HN2O2-
64.0067	2	C3N2-
65.0146	1	C3HN2-
79.0176	11	C3HN3-
81.9757	3	C3NS-
83.9914	3	C3H2NS-
85.9996	1	CN3O2-
90.0098	8	C4N3-
91.0175	1	C4HN3-
92.0254	11	C4H2N3-
95.0251	2	C4H3N2O-
96.9865	1	C3HN2S-
107.0125	2	C4HN3O-
111.0022	17	C4H3N2S-
117.0208	5	C5HN4-
117.9523	6	C3HClNS-
119.0361	1	C5H3N4-
122.9898	4	C4HN3S-
123.9978	1	C4H2N3S-
125.9894	1	C4H2N2OS-
133.0519	1	C6H5N4-
135.9976	1	C5H2N3S-
148.9927	24	C5HN4S-
150.0006	26	C5H2N4S-
165.024	2	C6H5N4S-
