Mass spectrum: 2-Amino-5-methylbenzenesulfonic acid; LC-ESI-QFT; MS2; CE: 30; R=17500; [M+H]+
Name: 2-Amino-5-methylbenzenesulfonic acid
Formula: C7H9NO3S
Exact mass: 187.0303
SMILES: CC1=CC=C(N)C(=C1)S(O)(=O)=O
InChI: InChI=1S/C7H9NO3S/c1-5-2-3-6(8)7(4-5)12(9,10)11/h2-4H,8H2,1H3,(H,9,10,11)
Instrument: Q Exactive Orbitrap (Thermo Scientific)
Instrument type: LC-ESI-QFT
Ms type: MS2
Ion mode: POSITIVE
Ionization: ESI
Fragmentation mode: HCD
Collision energy: 30
Resolution: 17500
Column name: Acquity BEH C18 1.7um, 2.1x150mm (Waters)
Retention time: 17.491 min
Base peak: 79.0212
Precursor m/z: 188.0376
Precursor type: [M+H]+
Precursor intensity: 1925225
m/z	relative intensity	assigned
65.0385	13	C5H5+
80.0495	3	C5H6N+
92.0495	999	C6H6N+
108.0444	310	C6H6NO+
110.0601	17	C6H8NO+
