Mass spectrum: 2,4-Dichlorophenol; LC-ESI-QFT; MS2; CE: 60; R=17500; [M-H]-
Name: 2,4-Dichlorophenol
Formula: C6H4Cl2O
Exact mass: 161.9639
SMILES: OC1=C(Cl)C=C(Cl)C=C1
InChI: InChI=1S/C6H4Cl2O/c7-4-1-2-6(9)5(8)3-4/h1-3,9H
Instrument: Q Exactive Orbitrap (Thermo Scientific)
Instrument type: LC-ESI-QFT
Ms type: MS2
Ion mode: NEGATIVE
Ionization: ESI
Fragmentation mode: HCD
Collision energy: 60
Resolution: 17500
Column name: Acquity BEH C18 1.7um, 2.1x150mm (Waters)
Retention time: 17.386 min
Base peak: 307.0977
Precursor m/z: 160.9566
Precursor type: [M-H]-
Precursor intensity: 5226667.193359
m/z	relative intensity	assigned
89.0033	151	C6HO-
124.98	999	C6H2ClO-
160.9567	983	C6H3Cl2O-
