Mass spectrum: 4-[3-(4-Acetyl-3-hydroxy-2-propylphenoxy)propoxy]phenoxy-acetic acid; LC-ESI-QFT; MS2; CE: 45; R=17500; [M+H]+
Name: 4-[3-(4-Acetyl-3-hydroxy-2-propylphenoxy)propoxy]phenoxy-acetic acid
Name: 2-(4-(3-(4-Acetyl-3-hydroxy-2-propylphenoxy)propoxy)phenoxy)acetic acid
Name: 2-[4-[3-(4-acetyl-3-hydroxy-2-propylphenoxy)propoxy]phenoxy]acetic acid
Formula: C22H26O7
Exact mass: 402.1679
SMILES: CCCC1=C(OCCCOC2=CC=C(OCC(O)=O)C=C2)C=CC(C(C)=O)=C1O
InChI: InChI=1S/C22H26O7/c1-3-5-19-20(11-10-18(15(2)23)22(19)26)28-13-4-12-27-16-6-8-17(9-7-16)29-14-21(24)25/h6-11,26H,3-5,12-14H2,1-2H3,(H,24,25)
Instrument: Q Exactive Orbitrap (Thermo Scientific)
Instrument type: LC-ESI-QFT
Ms type: MS2
Ion mode: POSITIVE
Ionization: ESI
Fragmentation mode: HCD
Collision energy: 45
Resolution: 17500
Column name: Acquity BEH C18 1.7um, 2.1x150mm (Waters)
Retention time: 19.209 min
Base peak: 79.0211
Precursor m/z: 403.1751
Precursor type: [M+H]+
Precursor intensity: 10109465.25
m/z	relative intensity	assigned
51.023	2	C4H3+
53.0021	4	C3HO+
53.0385	13	C4H5+
55.0178	26	C3H3O+
57.0336	2	C3H5O+
65.0385	10	C5H5+
67.0542	16	C5H7+
68.997	5	C3HO2+
69.0335	6	C4H5O+
77.0382	11	C6H5+
79.0542	177	C6H7+
81.0335	10	C5H5O+
81.0699	6	C6H9+
83.0491	3	C5H7O+
91.0541	34	C7H7+
92.0257	3	C6H4O+
93.0335	20	C6H5O+
93.0699	26	C7H9+
94.0414	7	C6H6O+
95.0491	287	C6H7O+
103.0542	23	C8H7+
105.0335	26	C7H5O+
105.0699	177	C8H9+
107.0491	672	C7H7O+
107.0855	47	C8H11+
109.0284	232	C6H5O2+
109.0648	49	C7H9O+
110.0359	3	C6H6O2+
111.044	68	C6H7O2+
115.0541	14	C9H7+
117.0699	39	C9H9+
119.0489	3	C8H7O+
119.0857	3	C9H11+
120.0569	3	C8H8O+
121.0285	9	C7H5O2+
121.0648	40	C8H9O+
122.0361	13	C7H6O2+
123.044	433	C7H7O2+
124.0518	8	C7H8O2+
125.0596	28	C7H9O2+
131.0491	3	C9H7O+
131.0857	4	C10H11+
133.0647	55	C9H9O+
134.0729	3	C9H10O+
135.0441	283	C8H7O2+
135.0804	930	C9H11O+
137.0597	262	C8H9O2+
139.0749	2	C8H11O2+
145.0646	10	C10H9O+
147.0439	47	C9H7O2+
147.0803	9	C10H11O+
148.0519	9	C9H8O2+
149.0597	168	C9H9O2+
150.0675	268	C9H10O2+
151.0753	470	C9H11O2+
153.0546	144	C8H9O3+
153.0909	71	C9H13O2+
155.0705	2	C8H11O3+
161.06	37	C10H9O2+
162.0677	4	C10H10O2+
163.0753	999	C10H11O2+
165.0546	132	C9H9O3+
165.091	278	C10H13O2+
167.0338	91	C8H7O4+
173.096	2	C12H13O+
174.0682	2	C11H10O2+
175.0754	59	C11H11O2+
177.091	269	C11H13O2+
179.0703	82	C10H11O3+
181.0495	451	C9H9O4+
189.0909	63	C12H13O2+
191.0698	4	C11H11O3+
191.1067	45	C12H15O2+
192.0781	4	C11H12O3+
193.0859	99	C11H13O3+
193.1223	112	C12H17O2+
195.1016	506	C11H15O3+
203.1064	8	C13H15O2+
205.0856	16	C12H13O3+
205.1222	8	C13H17O2+
207.1015	203	C12H15O3+
209.0814	3	C11H13O4+
215.0707	2	C13H11O3+
217.1225	3	C14H17O2+
233.1172	19	C14H17O3+
235.1333	14	C14H19O3+
257.1167	3	C16H17O3+
357.1707	2	C21H25O5+
