Mass spectrum: Propyl gallate; LC-ESI-QFT; MS2; CE: 90; R=17500; [M-H]-
Name: Propyl gallate
Name: propyl 3,4,5-trihydroxybenzoate
Formula: C10H12O5
Exact mass: 212.0685
SMILES: CCCOC(=O)C1=CC(O)=C(O)C(O)=C1
InChI: InChI=1S/C10H12O5/c1-2-3-15-10(14)6-4-7(11)9(13)8(12)5-6/h4-5,11-13H,2-3H2,1H3
Instrument: Q Exactive Orbitrap (Thermo Scientific)
Instrument type: LC-ESI-QFT
Ms type: MS2
Ion mode: NEGATIVE
Ionization: ESI
Fragmentation mode: HCD
Collision energy: 90
Resolution: 17500
Column name: Acquity BEH C18 1.7um, 2.1x150mm (Waters)
Retention time: 14.149 min
Base peak: 211.0612
Precursor m/z: 211.0612
Precursor type: [M-H]-
Precursor intensity: 28860898.67578
m/z	relative intensity	assigned
53.0032	68	C3HO-
55.0189	27	C3H3O-
57.0346	65	C3H5O-
58.0061	5	C2H2O2-
59.0138	11	C2H3O2-
60.9934	4	CHO3-
65.0033	119	C4HO-
67.019	173	C4H3O-
68.9982	60	C3HO2-
69.0346	282	C4H5O-
71.0139	73	C3H3O2-
72.9931	67	C2HO3-
78.0111	111	C5H2O-
79.019	71	C5H3O-
80.0268	9	C5H4O-
81.0346	39	C5H5O-
82.0061	31	C4H2O2-
83.0139	113	C4H3O2-
84.9931	12	C3HO3-
85.0295	4	C4H5O2-
86.001	12	C3H2O3-
87.0088	38	C3H3O3-
95.0139	189	C5H3O2-
96.9932	29	C4HO3-
97.0296	176	C5H5O2-
99.0089	29	C4H3O3-
100.0169	5	C4H4O3-
106.006	304	C6H2O2-
107.0138	22	C6H3O2-
108.0217	17	C6H4O2-
110.0009	102	C5H2O3-
111.0088	604	C5H3O3-
112.988	12	C4HO4-
123.0088	441	C6H3O3-
124.0166	405	C6H4O3-
125.0244	919	C6H5O3-
127.0037	257	C5H3O4-
136.988	397	C6HO4-
139.0037	665	C6H3O4-
140.0115	999	C6H4O4-
141.9908	5	C5H2O5-
152.0118	6	C7H4O4-
154.9986	83	C6H3O5-
169.0142	14	C7H5O5-
