Mass spectrum: 1,1`-Disulfanediyldiazepan-2-one; LC-ESI-QFT; MS2; CE: 60; R=17500; [M+H]+
Name: 1,1'-Disulfanediyldiazepan-2-one
Name: 1-[(2-oxoazepan-1-yl)disulfanyl]azepan-2-one
Formula: C12H20N2O2S2
Exact mass: 288.0966
SMILES: O=C1CCCCCN1SSN1CCCCCC1=O
InChI: InChI=1S/C12H20N2O2S2/c15-11-7-3-1-5-9-13(11)17-18-14-10-6-2-4-8-12(14)16/h1-10H2
Instrument: Q Exactive Orbitrap (Thermo Scientific)
Instrument type: LC-ESI-QFT
Ms type: MS2
Ion mode: POSITIVE
Ionization: ESI
Fragmentation mode: HCD
Collision energy: 60
Resolution: 17500
Column name: Acquity BEH C18 1.7um, 2.1x150mm (Waters)
Retention time: 16.230 min
Base peak: 79.0211
Precursor m/z: 289.1039
Precursor type: [M+H]+
Precursor intensity: 4998575.0625
m/z	relative intensity	assigned
55.0542	96	C4H7+
56.0496	110	C3H6N+
61.0106	72	C2H5S+
69.0699	245	C5H9+
82.0652	308	C5H8N+
83.0729	354	C5H9N+
96.0808	999	C6H10N+
114.0914	155	C6H12NO+
