Mass spectrum: Amiloride; LC-ESI-QFT; MS2; CE: 75; R=17500; [M-H]-
Name: Amiloride
Name: 3,5-diamino-6-chloro-N-(diaminomethylidene)pyrazine-2-carboxamide
Formula: C6H8ClN7O
Exact mass: 229.0479
SMILES: NC(=N)NC(=O)C1=NC(Cl)=C(N)N=C1N
InChI: InChI=1S/C6H8ClN7O/c7-2-4(9)13-3(8)1(12-2)5(15)14-6(10)11/h(H4,8,9,13)(H4,10,11,14,15)
Instrument: Q Exactive Orbitrap (Thermo Scientific)
Instrument type: LC-ESI-QFT
Ms type: MS2
Ion mode: NEGATIVE
Ionization: ESI
Fragmentation mode: HCD
Collision energy: 75
Resolution: 17500
Column name: Acquity BEH C18 1.7um, 2.1x150mm (Waters)
Retention time: 9.296 min
Base peak: 228.0407
Precursor m/z: 228.0406
Precursor type: [M-H]-
Precursor intensity: 2344130.276855
m/z	relative intensity	assigned
65.0145	999	C3HN2-
66.0098	251	C2N3-
78.0098	4	C3N3-
90.0098	44	C4N3-
106.0046	13	C4N3O-
107.0363	25	C4H3N4-
108.0204	300	C4H2N3O-
133.0158	2	C5HN4O-
143.0129	55	C4H4ClN4-
168.9925	9	C5H2ClN4O-
186.0189	4	C5H5ClN5O-
