Mass spectrum: Zamifenacin; LC-ESI-QFT; MS2; CE: 60; R=17500; [M+H]+
Name: Zamifenacin
Name: (3R)-3-benzhydryloxy-1-[2-(1,3-benzodioxol-5-yl)ethyl]piperidine
Formula: C27H29NO3
Exact mass: 415.2147
SMILES: C(CC1=CC2=C(OCO2)C=C1)N1CCC[C@H](C1)OC(C1=CC=CC=C1)C1=CC=CC=C1
InChI: InChI=1S/C27H29NO3/c1-3-8-22(9-4-1)27(23-10-5-2-6-11-23)31-24-12-7-16-28(19-24)17-15-21-13-14-25-26(18-21)30-20-29-25/h1-6,8-11,13-14,18,24,27H,7,12,15-17,19-20H2/t24-/m1/s1
Instrument: Q Exactive Orbitrap (Thermo Scientific)
Instrument type: LC-ESI-QFT
Ms type: MS2
Ion mode: POSITIVE
Ionization: ESI
Fragmentation mode: HCD
Collision energy: 60
Resolution: 17500
Column name: Acquity BEH C18 1.7um, 2.1x150mm (Waters)
Retention time: 16.040 min
Base peak: 79.0211
Precursor m/z: 416.222
Precursor type: [M+H]+
Precursor intensity: 36096167
m/z	relative intensity	assigned
65.0385	5	C5H5+
91.0542	137	C7H7+
98.0963	1	C6H12N+
112.0757	1	C6H10NO+
114.0913	2	C6H12NO+
119.0491	102	C8H7O+
128.0618	1	C10H8+
131.0493	2	C9H7O+
137.0597	20	C8H9O2+
141.0699	4	C11H9+
149.0597	113	C9H9O2+
151.0543	1	C12H7+
151.0753	1	C9H11O2+
152.062	227	C12H8+
165.07	239	C13H9+
166.0778	86	C13H10+
167.0854	999	C13H11+
169.0646	10	C12H9O+
