Mass spectrum: Aziprotryne; LC-ESI-QFT; MS2; CE: 60; R=17500; [M+H]+
Name: Aziprotryne
Name: 4-azido-6-methylsulfanyl-N-propan-2-yl-1,3,5-triazin-2-amine
Formula: C7H11N7S
Exact mass: 225.0797
SMILES: CSC1=NC(NC(C)C)=NC(N=[N+]=[N-])=N1
InChI: InChI=1S/C7H11N7S/c1-4(2)9-5-10-6(13-14-8)12-7(11-5)15-3/h4H,1-3H3,(H,9,10,11,12)
Instrument: Q Exactive Orbitrap (Thermo Scientific)
Instrument type: LC-ESI-QFT
Ms type: MS2
Ion mode: POSITIVE
Ionization: ESI
Fragmentation mode: HCD
Collision energy: 60
Resolution: 17500
Column name: Acquity BEH C18 1.7um, 2.1x150mm (Waters)
Retention time: 17.808 min
Base peak: 79.0212
Precursor m/z: 226.0869
Precursor type: [M+H]+
Precursor intensity: 13845159
m/z	relative intensity	assigned
55.0291	41	C2H3N2+
56.0495	52	C3H6N+
57.0448	2	C2H5N2+
58.0651	377	C3H8N+
58.9951	2	C2H3S+
59.9902	2	CH2NS+
61.0107	7	C2H5S+
62.0059	79	CH4NS+
67.029	2	C3H3N2+
68.0243	999	C2H2N3+
69.0447	27	C3H5N2+
71.0603	2	C3H7N2+
71.9902	4	C2H2NS+
72.9981	6	C2H3NS+
74.0059	101	C2H4NS+
81.0196	3	C2HN4+
81.0447	6	C4H5N2+
82.0401	4	C3H4N3+
83.0352	51	C2H3N4+
83.0604	155	C4H7N2+
84.9856	3	C2HN2S+
85.051	3	C2H5N4+
85.0761	3	C4H9N2+
87.0012	4	C2H3N2S+
89.0168	496	C2H5N2S+
91.0324	5	C2H7N2S+
91.0541	2	C7H7+
93.0196	30	C3HN4+
94.04	8	C4H4N3+
96.0556	3	C4H6N3+
98.0718	1	C4H8N3+
99.0012	286	C3H3N2S+
101.0168	5	C3H5N2S+
108.0305	177	C3H2N5+
108.0557	15	C5H6N3+
109.0384	2	C3H3N5+
109.0509	17	C4H5N4+
110.0461	61	C3H4N5+
112.0868	3	C5H10N3+
114.0121	296	C3H4N3S+
116.0277	10	C3H6N3S+
123.0666	11	C5H7N4+
125.0822	63	C5H9N4+
126.012	2	C4H4N3S+
131.0277	3	C2H5N5S+
136.0619	21	C5H6N5+
138.0123	21	C5H4N3S+
139.0071	3	C4H3N4S+
141.0104	149	C3H3N5S+
141.023	15	C4H5N4S+
150.0774	19	C6H8N5+
152.0282	4	C6H6N3S+
155.0224	3	C7HN5+
156.0235	10	C3H4N6S+
156.0338	183	C4H6N5S+
166.0076	3	C4H2N6S+
168.0338	43	C5H6N5S+
170.039	2	C4H6N6S+
182.0499	5	C6H8N5S+
