Mass spectrum: Methadone; LC-ESI-QFT; MS2; CE: 45; R=17500; [M+H]+
Name: Methadone
Name: 6-(dimethylamino)-4,4-diphenylheptan-3-one
Formula: C21H27NO
Exact mass: 309.2093
SMILES: CCC(=O)C(CC(C)N(C)C)(C1=CC=CC=C1)C1=CC=CC=C1
InChI: InChI=1S/C21H27NO/c1-5-20(23)21(16-17(2)22(3)4,18-12-8-6-9-13-18)19-14-10-7-11-15-19/h6-15,17H,5,16H2,1-4H3
Instrument: Q Exactive Orbitrap (Thermo Scientific)
Instrument type: LC-ESI-QFT
Ms type: MS2
Ion mode: POSITIVE
Ionization: ESI
Fragmentation mode: HCD
Collision energy: 45
Resolution: 17500
Column name: Acquity BEH C18 1.7um, 2.1x150mm (Waters)
Retention time: 15.477 min
Base peak: 79.0211
Precursor m/z: 310.2165
Precursor type: [M+H]+
Precursor intensity: 53116764.5
m/z	relative intensity	assigned
53.0385	4	C4H5+
55.0541	1	C4H7+
57.0335	262	C3H5O+
69.0334	5	C4H5O+
69.0699	2	C5H9+
77.0383	5	C6H5+
79.0541	1	C6H7+
85.0649	1	C5H9O+
91.0542	183	C7H7+
95.0491	16	C6H7O+
103.0541	1	C8H7+
105.0335	999	C7H5O+
105.0697	121	C8H9+
107.0493	4	C7H7O+
115.0542	2	C9H7+
117.0698	102	C9H9+
119.0854	5	C9H11+
128.062	1	C10H8+
129.0698	36	C10H9+
131.049	1	C9H7O+
131.0855	15	C10H11+
135.0804	13	C9H11O+
141.0695	3	C11H9+
143.0854	17	C11H11+
145.0648	18	C10H9O+
145.1012	6	C11H13+
147.0803	11	C10H11O+
154.0776	1	C12H10+
155.0856	3	C12H11+
158.0724	1	C11H10O+
159.0805	16	C11H11O+
159.1167	70	C12H15+
161.0958	3	C11H13O+
165.07	1	C13H9+
167.0855	13	C13H11+
169.1011	12	C13H13+
178.0774	2	C14H10+
179.0855	6	C14H11+
183.08	2	C13H11O+
187.1117	21	C13H15O+
191.0853	8	C15H11+
192.0931	1	C15H12+
193.101	1	C15H13+
194.0724	5	C14H10O+
195.0807	7	C14H11O+
195.1168	120	C15H15+
203.0857	2	C16H11+
204.0933	25	C16H12+
205.1011	32	C16H13+
206.1089	1	C16H14+
207.1167	13	C16H15+
209.096	1	C15H13O+
209.1326	2	C16H17+
217.1007	3	C17H13+
218.1089	38	C17H14+
219.1167	188	C17H15+
221.132	1	C17H17+
223.1116	151	C16H15O+
224.1188	3	C16H16O+
232.1246	11	C18H16+
236.1194	11	C17H16O+
247.148	33	C19H19+
265.1585	98	C19H21O+
