Mass spectrum: 2,2-Dimethyl-2,3-dihydro-1-benzofuran-7-amine; LC-ESI-QFT; MS2; CE: 60; R=17500; [M+H]+
Name: 2,2-Dimethyl-2,3-dihydro-1-benzofuran-7-amine
Name: 2,2-dimethyl-3H-1-benzofuran-7-amine
Formula: C10H13NO
Exact mass: 163.0997
SMILES: CC1(C)CC2=C(O1)C(N)=CC=C2
InChI: InChI=1S/C10H13NO/c1-10(2)6-7-4-3-5-8(11)9(7)12-10/h3-5H,6,11H2,1-2H3
Instrument: Q Exactive Orbitrap (Thermo Scientific)
Instrument type: LC-ESI-QFT
Ms type: MS2
Ion mode: POSITIVE
Ionization: ESI
Fragmentation mode: HCD
Collision energy: 60
Resolution: 17500
Column name: Acquity BEH C18 1.7um, 2.1x150mm (Waters)
Retention time: 12.296 min
Base peak: 79.0212
Precursor m/z: 164.107
Precursor type: [M+H]+
Precursor intensity: 17233852.375
m/z	relative intensity	assigned
51.023	1	C4H3+
53.0386	8	C4H5+
55.0178	14	C3H3O+
55.0542	40	C4H7+
65.0385	5	C5H5+
67.0542	5	C5H7+
77.0384	2	C6H5+
79.0542	8	C6H7+
80.0494	14	C5H6N+
81.0572	2	C5H7N+
91.0542	203	C7H7+
92.0493	3	C6H6N+
93.0334	3	C6H5O+
93.0573	7	C6H7N+
93.0699	3	C7H9+
94.0651	501	C6H8N+
95.0491	17	C6H7O+
103.0542	5	C8H7+
104.062	4	C8H8+
105.0334	1	C7H5O+
105.0698	4	C8H9+
106.065	2	C7H8N+
107.0491	20	C7H7O+
107.0729	1	C7H9N+
108.0444	19	C6H6NO+
108.0806	1	C7H10N+
109.0522	613	C6H7NO+
110.0599	24	C6H8NO+
115.0538	1	C9H7+
117.0698	27	C9H9+
118.0652	1	C8H8N+
119.0492	25	C8H7O+
119.0855	118	C9H11+
120.0443	1	C7H6NO+
120.0807	1	C8H10N+
122.0599	999	C7H8NO+
128.0619	2	C10H8+
129.0697	7	C10H9+
130.065	2	C9H8N+
131.0492	2	C9H7O+
131.0728	6	C9H9N+
132.0569	12	C9H8O+
132.0806	2	C9H10N+
134.0601	2	C8H8NO+
135.0675	2	C8H9NO+
136.0757	59	C8H10NO+
145.0645	2	C10H9O+
146.0964	2	C10H12N+
147.0803	161	C10H11O+
148.0754	2	C9H10NO+
149.0835	26	C9H11NO+
164.1069	85	C10H14NO+
