Mass spectrum: 3-Hydroxy-2-naphthoic o-anisidide; LC-ESI-QFT; MS2; CE: 45; R=17500; [M+H]+
Name: 3-Hydroxy-2-naphthoic o-anisidide
Name: 3-Hydroxy-2'-methoxy-2-naphthanilide
Name: 3-hydroxy-N-(2-methoxyphenyl)naphthalene-2-carboxamide
Formula: C18H15NO3
Exact mass: 293.1052
SMILES: COC1=CC=CC=C1NC(=O)C1=CC2=C(C=CC=C2)C=C1O
InChI: InChI=1S/C18H15NO3/c1-22-17-9-5-4-8-15(17)19-18(21)14-10-12-6-2-3-7-13(12)11-16(14)20/h2-11,20H,1H3,(H,19,21)
Instrument: Q Exactive Orbitrap (Thermo Scientific)
Instrument type: LC-ESI-QFT
Ms type: MS2
Ion mode: POSITIVE
Ionization: ESI
Fragmentation mode: HCD
Collision energy: 45
Resolution: 17500
Column name: Acquity BEH C18 1.7um, 2.1x150mm (Waters)
Retention time: 18.374 min
Base peak: 79.0211
Precursor m/z: 294.1125
Precursor type: [M+H]+
Precursor intensity: 3529368.375
m/z	relative intensity	assigned
57.0698	5	C4H9+
69.0698	16	C5H9+
91.0542	6	C7H7+
115.0542	59	C9H7+
124.0755	4	C7H10NO+
130.0414	3	C9H6O+
133.0717	1	C5H11NO3+
143.0492	1	C10H7O+
148.1119	3	C10H14N+
161.0597	20	C10H9O2+
171.044	999	C11H7O2+
175.0391	5	C10H7O3+
207.9936	3	C16O+
276.1025	1	C18H14NO2+
