Mass spectrum: 4-(2,5-Diethoxy-4-nitrophenyl)morpholine; LC-ESI-QFT; MS2; CE: 60; R=17500; [M+H]+
Name: 4-(2,5-Diethoxy-4-nitrophenyl)morpholine
Formula: C14H20N2O5
Exact mass: 296.1372
SMILES: CCOC1=CC(=C(OCC)C=C1N1CCOCC1)[N+]([O-])=O
InChI: InChI=1S/C14H20N2O5/c1-3-20-13-10-12(16(17)18)14(21-4-2)9-11(13)15-5-7-19-8-6-15/h9-10H,3-8H2,1-2H3
Instrument: Q Exactive Orbitrap (Thermo Scientific)
Instrument type: LC-ESI-QFT
Ms type: MS2
Ion mode: POSITIVE
Ionization: ESI
Fragmentation mode: HCD
Collision energy: 60
Resolution: 17500
Column name: Acquity BEH C18 1.7um, 2.1x150mm (Waters)
Retention time: 17.266 min
Base peak: 79.0212
Precursor m/z: 297.1445
Precursor type: [M+H]+
Precursor intensity: 7242441.96875
m/z	relative intensity	assigned
52.0181	17	C3H2N+
53.0023	8	C3HO+
53.0387	12	C4H5+
54.0338	26	C3H4N+
55.0179	73	C3H3O+
55.0417	4	C3H5N+
56.0495	32	C3H6N+
57.0573	7	C3H7N+
58.0652	6	C3H8N+
65.0385	20	C5H5+
66.0337	6	C4H4N+
66.0464	7	C5H6+
67.0417	35	C4H5N+
67.0542	13	C5H7+
68.013	26	C3H2NO+
68.0258	4	C4H4O+
68.0494	53	C4H6N+
68.9971	5	C3HO2+
69.0335	11	C4H5O+
69.0572	7	C4H7N+
70.0288	22	C3H4NO+
70.0651	22	C4H8N+
72.0443	26	C3H6NO+
73.0649	4	C4H9O+
74.0962	5	C4H12N+
78.0339	34	C5H4N+
79.0179	8	C5H3O+
79.0417	8	C5H5N+
79.0543	32	C6H7+
80.0495	130	C5H6N+
81.0336	14	C5H5O+
81.0449	4	C4H5N2+
81.0574	16	C5H7N+
82.0288	19	C4H4NO+
82.0413	6	C5H6O+
82.0651	24	C5H8N+
83.0365	9	C4H5NO+
84.0444	15	C4H6NO+
85.0523	9	C4H7NO+
86.0601	31	C4H8NO+
87.0678	4	C4H9NO+
88.0758	6	C4H10NO+
90.0341	4	C6H4N+
91.0418	15	C6H5N+
91.0541	24	C7H7+
92.0495	53	C6H6N+
93.0337	6	C6H5O+
93.045	18	C5H5N2+
93.0574	43	C6H7N+
93.07	15	C7H9+
94.0289	148	C5H4NO+
94.0652	100	C6H8N+
95.0367	12	C5H5NO+
95.0493	24	C6H7O+
95.0605	15	C5H7N2+
95.073	13	C6H9N+
96.0444	63	C5H6NO+
96.0809	8	C6H10N+
97.0523	7	C5H7NO+
98.0238	6	C4H4NO2+
98.0602	9	C5H8NO+
103.0542	7	C8H7+
104.0495	38	C7H6N+
105.0336	6	C7H5O+
105.0448	43	C6H5N2+
105.0574	14	C7H7N+
105.07	5	C8H9+
106.0288	35	C6H4NO+
106.0652	106	C7H8N+
107.0128	18	C6H3O2+
107.0243	5	C5H3N2O+
107.0367	11	C6H5NO+
107.0492	18	C7H7O+
107.0605	21	C6H7N2+
107.0729	7	C7H9N+
108.0206	8	C6H4O2+
108.0445	46	C6H6NO+
108.0682	10	C6H8N2+
108.0809	22	C7H10N+
109.0286	25	C6H5O2+
109.0523	35	C6H7NO+
109.0762	17	C6H9N2+
110.0238	13	C5H4NO2+
110.0363	9	C6H6O2+
110.0476	12	C5H6N2O+
110.06	45	C6H8NO+
111.0316	10	C5H5NO2+
111.0442	12	C6H7O2+
111.0554	14	C5H7N2O+
111.0681	16	C6H9NO+
112.0393	19	C5H6NO2+
112.0758	12	C6H10NO+
114.0551	5	C5H8NO2+
117.0449	10	C7H5N2+
117.0575	6	C8H7N+
118.0652	42	C8H8N+
119.0365	14	C7H5NO+
119.0494	10	C8H7O+
119.0605	20	C7H7N2+
119.0733	7	C8H9N+
120.0445	93	C7H6NO+
120.0808	40	C8H10N+
121.0285	5	C7H5O2+
121.0399	20	C6H5N2O+
121.0523	50	C7H7NO+
121.0647	9	C8H9O+
121.076	31	C7H9N2+
122.0236	28	C6H4NO2+
122.0601	260	C7H8NO+
123.0316	13	C6H5NO2+
123.0442	18	C7H7O2+
123.0554	66	C6H7N2O+
123.068	36	C7H9NO+
123.0917	5	C7H11N2+
124.0394	40	C6H6NO2+
124.0522	8	C7H8O2+
124.0634	10	C6H8N2O+
124.0759	31	C7H10NO+
125.0344	6	C5H5N2O2+
125.0474	8	C6H7NO2+
126.0552	9	C6H8NO2+
130.0652	5	C9H8N+
131.0492	8	C9H7O+
131.0604	8	C8H7N2+
132.0445	51	C8H6NO+
132.0807	12	C9H10N+
133.0397	7	C7H5N2O+
133.0523	47	C8H7NO+
133.076	13	C8H9N2+
134.0237	119	C7H4NO2+
134.0477	12	C7H6N2O+
134.0601	220	C8H8NO+
135.0315	56	C7H5NO2+
135.0442	19	C8H7O2+
135.0554	60	C7H7N2O+
135.0678	41	C8H9NO+
135.0917	14	C8H11N2+
136.0394	129	C7H6NO2+
136.0633	32	C7H8N2O+
136.0758	157	C8H10NO+
137.0347	17	C6H5N2O2+
137.0472	67	C7H7NO2+
137.0711	181	C7H9N2O+
138.0186	8	C6H4NO3+
138.055	102	C7H8NO2+
138.0915	13	C8H12NO+
139.0394	4	C7H7O3+
139.0502	28	C6H7N2O2+
139.0629	11	C7H9NO2+
140.0344	16	C6H6NO3+
140.0708	9	C7H10NO2+
146.0602	20	C9H8NO+
147.0437	4	C9H7O2+
147.0555	11	C8H7N2O+
147.0678	19	C9H9NO+
148.0394	330	C8H6NO2+
148.0757	123	C9H10NO+
149.0349	28	C7H5N2O2+
149.0473	136	C8H7NO2+
149.071	155	C8H9N2O+
150.0188	45	C7H4NO3+
150.0551	748	C8H8NO2+
151.0265	9	C7H5NO3+
151.0506	51	C7H7N2O2+
151.0629	169	C8H9NO2+
151.0867	63	C8H11N2O+
152.0343	52	C7H6NO3+
152.0581	17	C7H8N2O2+
152.0707	64	C8H10NO2+
153.0299	18	C6H5N2O3+
153.066	23	C7H9N2O2+
153.0788	6	C8H11NO2+
153.1024	10	C8H13N2O+
154.0136	33	C6H4NO4+
158.0598	4	C10H8NO+
160.0759	15	C10H10NO+
161.0345	13	C8H5N2O2+
161.0474	7	C9H7NO2+
161.0711	19	C9H9N2O+
161.0833	8	C10H11NO+
162.0427	8	C8H6N2O2+
162.0551	85	C9H8NO2+
162.0915	41	C10H12NO+
163.014	7	C7H3N2O3+
163.0266	9	C8H5NO3+
163.0505	70	C8H7N2O2+
163.0627	73	C9H9NO2+
163.0868	57	C9H11N2O+
163.099	31	C10H13NO+
164.0344	44	C8H6NO3+
164.0707	445	C9H10NO2+
164.1069	29	C10H14NO+
165.0296	13	C7H5N2O3+
165.0424	6	C8H7NO3+
165.0661	99	C8H9N2O2+
165.0783	42	C9H11NO2+
165.1022	13	C9H13N2O+
166.05	321	C8H8NO3+
166.0863	104	C9H12NO2+
167.0455	18	C7H7N2O3+
167.0576	23	C8H9NO3+
167.0815	11	C8H11N2O2+
167.0936	4	C9H13NO2+
168.0293	12	C7H6NO4+
169.0245	51	C6H5N2O4+
170.0321	8	C6H6N2O4+
174.0551	6	C10H8NO2+
175.0506	8	C9H7N2O2+
175.0629	9	C10H9NO2+
176.0708	221	C10H10NO2+
177.0296	8	C8H5N2O3+
177.066	14	C9H9N2O2+
177.0787	28	C10H11NO2+
177.1024	15	C10H13N2O+
178.0375	13	C8H6N2O3+
178.0501	24	C9H8NO3+
178.0739	17	C9H10N2O2+
178.0864	106	C10H12NO2+
179.0451	26	C8H7N2O3+
179.0578	28	C9H9NO3+
179.0816	72	C9H11N2O2+
179.0942	67	C10H13NO2+
179.1178	8	C10H15N2O+
180.0531	36	C8H8N2O3+
180.0657	47	C9H10NO3+
180.0892	26	C9H12N2O2+
180.1023	30	C10H14NO2+
181.0245	464	C7H5N2O4+
181.0972	227	C9H13N2O2+
182.0323	228	C7H6N2O4+
183.0401	46	C7H7N2O4+
189.066	7	C10H9N2O2+
190.0748	3	C10H10N2O2+
190.0862	26	C11H12NO2+
191.0817	16	C10H11N2O2+
191.0942	8	C11H13NO2+
192.0656	57	C10H10NO3+
192.102	217	C11H14NO2+
193.061	57	C9H9N2O3+
193.0735	16	C10H11NO3+
193.0974	130	C10H13N2O2+
193.1096	20	C11H15NO2+
194.0814	999	C10H12NO3+
195.0402	95	C8H7N2O4+
195.0511	5	C9H9NO4+
195.077	15	C9H11N2O3+
195.0892	68	C10H13NO3+
196.048	136	C8H8N2O4+
197.0559	288	C8H9N2O4+
204.1021	5	C12H14NO2+
205.0608	12	C10H9N2O3+
206.0689	18	C10H10N2O3+
206.0816	14	C11H12NO3+
206.1176	11	C12H16NO2+
207.0405	6	C9H7N2O4+
207.0767	52	C10H11N2O3+
207.0892	32	C11H13NO3+
207.113	13	C11H15N2O2+
207.1255	43	C12H17NO2+
208.0607	8	C10H10NO4+
208.0847	20	C10H12N2O3+
208.097	88	C11H14NO3+
208.121	10	C11H16N2O2+
208.1334	31	C12H18NO2+
209.0558	265	C9H9N2O4+
209.0922	71	C10H13N2O3+
209.1285	53	C11H17N2O2+
210.0637	35	C9H10N2O4+
210.0762	20	C10H12NO4+
210.1128	7	C11H16NO3+
211.0353	38	C8H7N2O5+
211.0715	43	C9H11N2O4+
211.0839	10	C10H13NO4+
218.1185	4	C13H16NO2+
220.1331	12	C13H18NO2+
221.0558	12	C10H9N2O4+
221.0922	22	C11H13N2O3+
221.1035	5	C12H15NO3+
222.1126	58	C12H16NO3+
223.0717	35	C10H11N2O4+
223.1209	23	C12H17NO3+
224.0795	45	C10H12N2O4+
224.1156	7	C11H16N2O3+
225.0509	92	C9H9N2O5+
225.0871	66	C10H13N2O4+
236.1283	282	C13H18NO3+
237.0871	138	C11H13N2O4+
238.1077	32	C12H16NO4+
239.0665	134	C10H11N2O5+
239.1025	23	C11H15N2O4+
239.1154	91	C12H17NO4+
240.0743	41	C10H12N2O5+
241.082	22	C10H13N2O5+
250.1441	11	C14H20NO3+
252.1103	26	C12H16N2O4+
253.0822	55	C11H13N2O5+
253.1177	6	C12H17N2O4+
267.0974	13	C12H15N2O5+
268.1055	25	C12H16N2O5+
269.1136	36	C12H17N2O5+
297.1447	15	C14H21N2O5+
