Mass spectrum: Fluconazole; LC-ESI-QFT; MS2; CE: 15; R=17500; [M-H]-
Name: Fluconazole
Name: 2-(2,4-difluorophenyl)-1,3-bis(1,2,4-triazol-1-yl)propan-2-ol
Formula: C13H12F2N6O
Exact mass: 306.1041
SMILES: OC(CN1C=NC=N1)(CN1C=NC=N1)C1=C(F)C=C(F)C=C1
InChI: InChI=1S/C13H12F2N6O/c14-10-1-2-11(12(15)3-10)13(22,4-20-8-16-6-18-20)5-21-9-17-7-19-21/h1-3,6-9,22H,4-5H2
Instrument: Q Exactive Orbitrap (Thermo Scientific)
Instrument type: LC-ESI-QFT
Ms type: MS2
Ion mode: NEGATIVE
Ionization: ESI
Fragmentation mode: HCD
Collision energy: 15
Resolution: 17500
Column name: Acquity BEH C18 1.7um, 2.1x150mm (Waters)
Retention time: 12.986 min
Base peak: 305.0967
Precursor m/z: 305.0968
Precursor type: [M-H]-
Precursor intensity: 9564937.800049
m/z	relative intensity	assigned
68.0254	60	C2H2N3-
94.0411	1	C4H4N3-
108.0204	2	C4H2N3O-
122.0361	6	C5H4N3O-
149.0583	1	C5H5N6-
191.0687	999	C7H7N6O-
222.0485	12	C10H6F2N3O-
