Mass spectrum: 4-(3-Phenylpropyl)pyridine; LC-ESI-QFT; MS2; CE: 75; R=17500; [M+H]+
Name: 4-(3-Phenylpropyl)pyridine
Formula: C14H15N
Exact mass: 197.1204
SMILES: C(CC1=CC=CC=C1)CC1=CC=NC=C1
InChI: InChI=1S/C14H15N/c1-2-5-13(6-3-1)7-4-8-14-9-11-15-12-10-14/h1-3,5-6,9-12H,4,7-8H2
Instrument: Q Exactive Orbitrap (Thermo Scientific)
Instrument type: LC-ESI-QFT
Ms type: MS2
Ion mode: POSITIVE
Ionization: ESI
Fragmentation mode: HCD
Collision energy: 75
Resolution: 17500
Column name: Acquity BEH C18 1.7um, 2.1x150mm (Waters)
Retention time: 13.607 min
Base peak: 79.0211
Precursor m/z: 198.1277
Precursor type: [M+H]+
Precursor intensity: 37561640.5
m/z	relative intensity	assigned
53.0385	3	C4H5+
65.0385	4	C5H5+
66.0464	5	C5H6+
67.0416	8	C4H5N+
67.0541	1	C5H7+
77.0385	2	C6H5+
78.034	1	C5H4N+
79.0416	45	C5H5N+
79.0542	39	C6H7+
80.0494	94	C5H6N+
91.0543	9	C7H7+
92.0495	30	C6H6N+
93.0573	899	C6H7N+
94.0651	49	C6H8N+
103.0542	27	C8H7+
105.07	226	C8H9+
106.0651	999	C7H8N+
107.0728	218	C7H9N+
117.07	1	C9H9+
118.065	3	C8H8N+
119.0734	1	C8H9N+
120.0807	17	C8H10N+
155.0855	2	C12H11+
198.1277	144	C14H16N+
