Mass spectrum: 2-Norbornene-5,6-dicarboxylic anhydride; LC-ESI-QFT; MS2; CE: 45; R=17500; [M+H]+
Name: 2-Norbornene-5,6-dicarboxylic anhydride
Name: 5-Norbornene-2,3-dicarboxylic anhydride
Name: 4-oxatricyclo[5.2.1.02,6]dec-8-ene-3,5-dione
Formula: C9H8O3
Exact mass: 164.0473
SMILES: O=C1OC(=O)C2C3CC(C=C3)C12
InChI: InChI=1S/C9H8O3/c10-8-6-4-1-2-5(3-4)7(6)9(11)12-8/h1-2,4-7H,3H2
Instrument: Q Exactive Orbitrap (Thermo Scientific)
Instrument type: LC-ESI-QFT
Ms type: MS2
Ion mode: POSITIVE
Ionization: ESI
Fragmentation mode: HCD
Collision energy: 45
Resolution: 17500
Column name: Acquity BEH C18 1.7um, 2.1x150mm (Waters)
Retention time: 17.413 min
Base peak: 79.0212
Precursor m/z: 165.0546
Precursor type: [M+H]+
Precursor intensity: 3257626.25
m/z	relative intensity	assigned
53.0386	6	C4H5+
55.0178	1	C3H3O+
65.0386	1	C5H5+
67.0541	1	C5H7+
75.0228	1	C6H3+
77.0385	7	C6H5+
79.0542	44	C6H7+
81.0334	4	C5H5O+
81.0699	5	C6H9+
82.0413	1	C5H6O+
91.0543	2	C7H7+
92.0258	6	C6H4O+
94.0413	4	C6H6O+
95.0491	21	C6H7O+
105.0336	11	C7H5O+
107.0127	25	C6H3O2+
107.0492	32	C7H7O+
109.0648	20	C7H9O+
120.0208	2	C7H4O2+
121.0283	1	C7H5O2+
122.0362	147	C7H6O2+
123.044	3	C7H7O2+
125.0234	2	C6H5O3+
125.0597	16	C7H9O2+
135.044	33	C8H7O2+
137.06	8	C8H9O2+
150.0312	244	C8H6O3+
165.0547	999	C9H9O3+
