Mass spectrum: Praziquantel; LC-ESI-QFT; MS2; CE: 30; R=17500; [M+H]+
Name: Praziquantel
Name: 2-(cyclohexanecarbonyl)-3,6,7,11b-tetrahydro-1H-pyrazino[2,1-a]isoquinolin-4-one
Formula: C19H24N2O2
Exact mass: 312.1838
SMILES: O=C(C1CCCCC1)N1CC2N(CCC3=C2C=CC=C3)C(=O)C1
InChI: InChI=1S/C19H24N2O2/c22-18-13-20(19(23)15-7-2-1-3-8-15)12-17-16-9-5-4-6-14(16)10-11-21(17)18/h4-6,9,15,17H,1-3,7-8,10-13H2
Instrument: Q Exactive Orbitrap (Thermo Scientific)
Instrument type: LC-ESI-QFT
Ms type: MS2
Ion mode: POSITIVE
Ionization: ESI
Fragmentation mode: HCD
Collision energy: 30
Resolution: 17500
Column name: Acquity BEH C18 1.7um, 2.1x150mm (Waters)
Retention time: 17.238 min
Base peak: 79.0211
Precursor m/z: 313.1911
Precursor type: [M+H]+
Precursor intensity: 15712909.09375
m/z	relative intensity	assigned
55.0543	25	C4H7+
83.0855	344	C6H11+
111.0804	18	C7H11O+
129.0699	1	C10H9+
132.0807	15	C9H10N+
144.0809	1	C10H10N+
146.0964	37	C10H12N+
158.0966	6	C11H12N+
173.1073	1	C11H13N2+
174.0914	31	C11H12NO+
175.123	35	C11H15N2+
201.1024	2	C12H13N2O+
203.1178	999	C12H15N2O+
256.1694	8	C17H22NO+
285.1961	15	C18H25N2O+
313.191	81	C19H25N2O2+
