Mass spectrum: Acetochlor; LC-ESI-QFT; MS2; CE: 45; R=17500; [M+H]+
Name: Acetochlor
Name: 2-chloro-N-(ethoxymethyl)-N-(2-ethyl-6-methylphenyl)acetamide
Formula: C14H20ClNO2
Exact mass: 269.1183
SMILES: CCOCN(C(=O)CCl)C1=C(CC)C=CC=C1C
InChI: InChI=1S/C14H20ClNO2/c1-4-12-8-6-7-11(3)14(12)16(10-18-5-2)13(17)9-15/h6-8H,4-5,9-10H2,1-3H3
Instrument: Q Exactive Orbitrap (Thermo Scientific)
Instrument type: LC-ESI-QFT
Ms type: MS2
Ion mode: POSITIVE
Ionization: ESI
Fragmentation mode: HCD
Collision energy: 45
Resolution: 17500
Column name: Acquity BEH C18 1.7um, 2.1x150mm (Waters)
Retention time: 18.047 min
Base peak: 79.0212
Precursor m/z: 270.1255
Precursor type: [M+H]+
Precursor intensity: 703291.25
m/z	relative intensity	assigned
57.0699	15	C4H9+
59.0491	45	C3H7O+
74.0963	20	C4H12N+
90.0105	12	C3H5ClN+
116.0278	5	C5H7ClN+
131.0854	7	C10H11+
133.0886	21	C9H11N+
148.1121	132	C10H14N+
158.0496	999	C8H11ClO+
214.1122	219	C12H19ClO+
224.084	11	C12H15ClNO+
