Mass spectrum: GSK163929B; LC-ESI-QFT; MS2; CE: 90; R=17500; [M+H]+
Name: GSK163929B
Name: 4-chloro-2-fluoro-5-[4-(3-fluorophenyl)-4-[2-[3-(2-methylbenzimidazol-1-yl)-8-azabicyclo[3.2.1]octan-8-yl]ethyl]piperidine-1-carbonyl]-N-methylbenzenesulfonamide
Formula: C36H40ClF2N5O3S
Exact mass: 695.2508
SMILES: CNS(=O)(=O)C1=C(F)C=C(Cl)C(=C1)C(=O)N1CCC(CCN2C3CCC2CC(C3)N2C(C)=NC3=C2C=CC=C3)(CC1)C1=CC(F)=CC=C1
InChI: InChI=1S/C36H40ClF2N5O3S/c1-23-41-32-8-3-4-9-33(32)44(23)28-19-26-10-11-27(20-28)43(26)17-14-36(24-6-5-7-25(38)18-24)12-15-42(16-13-36)35(45)29-21-34(48(46,47)40-2)31(39)22-30(29)37/h3-9,18,21-22,26-28,40H,10-17,19-20H2,1-2H3
Instrument: Q Exactive Orbitrap (Thermo Scientific)
Instrument type: LC-ESI-QFT
Ms type: MS2
Ion mode: POSITIVE
Ionization: ESI
Fragmentation mode: HCD
Collision energy: 90
Resolution: 17500
Column name: Acquity BEH C18 1.7um, 2.1x150mm (Waters)
Retention time: 13.147 min
Base peak: 79.0211
Precursor m/z: 696.2581
Precursor type: [M+H]+
Precursor intensity: 6959228.25
m/z	relative intensity	assigned
50.0152	4	C4H2+
51.023	4	C4H3+
53.0022	30	C3HO+
53.0386	43	C4H5+
54.0338	23	C3H4N+
54.0464	6	C4H6+
55.0178	8	C3H3O+
55.0416	24	C3H5N+
55.0542	48	C4H7+
56.0495	48	C3H6N+
57.0135	11	C3H2F+
58.0287	11	C2H4NO+
58.0651	17	C3H8N+
62.0059	45	CH4NS+
62.9632	5	CClO+
63.0229	55	C5H3+
65.0385	94	C5H5+
67.0416	25	C4H5N+
67.0542	295	C5H7+
68.0494	111	C4H6N+
68.997	14	C3HO2+
69.0572	20	C4H7N+
69.0698	10	C5H9+
70.0651	254	C4H8N+
72.9839	41	C3H2Cl+
73.0084	4	C3H2FO+
74.015	22	C6H2+
77.0385	16	C6H5+
78.0337	13	C5H4N+
79.0178	110	C5H3O+
79.0542	29	C6H7+
80.0494	104	C5H6N+
81.0335	27	C5H5O+
81.0573	27	C5H7N+
81.0699	15	C6H9+
82.0651	161	C5H8N+
82.0777	14	C6H10+
83.0291	55	C5H4F+
83.0729	42	C5H9N+
84.0808	9	C5H10N+
84.9839	61	C4H2Cl+
85.9918	6	C4H3Cl+
86.9631	21	C3ClO+
86.9995	21	C4H4Cl+
90.9745	39	C3HClF+
91.0542	143	C7H7+
92.0494	77	C6H6N+
93.0574	10	C6H7N+
93.0699	31	C7H9+
93.9958	16	CH4NO2S+
94.0651	73	C6H8N+
95.0491	98	C6H7O+
95.073	8	C6H9N+
95.0855	46	C7H11+
96.0443	20	C5H6NO+
96.0808	101	C6H10N+
96.984	41	C5H2Cl+
97.0084	23	C5H2FO+
97.0284	28	C5H5O2+
98.0965	3	C6H12N+
98.9996	51	C5H4Cl+
102.0338	68	C7H4N+
103.9823	10	C4H2ClF+
104.0494	43	C7H6N+
104.9901	28	C4H3ClF+
105.0448	42	C6H5N2+
106.065	5	C7H8N+
106.9695	9	C3HClFO+
107.0128	82	C6H3O2+
107.9902	14	C5H2NS+
108.0807	81	C7H10N+
108.9839	113	C6H2Cl+
109.0448	128	CH14ClOS+
109.0885	14	C7H11N+
109.9917	137	C6H3Cl+
110.0964	34	C7H12N+
110.9997	27	C6H4Cl+
111.0241	80	C6H4FO+
112.0319	39	C6H5FO+
112.9789	9	C5H2ClO+
115.0541	13	C9H7+
116.9902	444	C5H3ClF+
119.0059	22	C5H5ClF+
120.0443	42	C7H6NO+
120.0809	8	C8H10N+
122.0964	31	C8H12N+
123.0354	17	ClH12N2OS+
123.0478	28	C7H6FN+
123.0604	5	C3H7F2N3+
124.112	7	C8H14N+
125.9867	470	C6H3ClO+
126.9946	8	C6H4ClO+
127.0187	12	CH3F2N3O2+
127.9823	236	C6H2ClF+
128.9901	99	C6H3ClF+
129.0101	19	C6H6ClO+
130.0055	32	C5H5ClNO+
130.0399	62	C7H4N3+
131.0061	9	C6H5ClF+
131.0369	3	ClFH7N5+
131.9773	14	C5H2ClFO+
132.0681	3	C8H8N2+
133.0448	32	C9H6F+
133.076	68	C8H9N2+
134.9467	10	C4HClFS+
135.0603	12	C4H7F2N3+
136.1122	17	C9H14N+
137.9866	151	C7H3ClO+
138.0105	146	C7H5ClN+
138.1279	15	C9H16N+
138.9945	74	C7H4ClO+
139.0056	45	CH3ClFN5+
139.0184	27	C7H6ClN+
140.9738	21	C6H2ClO2+
142.9894	11	C6H4ClO2+
143.0058	5	C7H5ClF+
143.0503	7	C7H8FO2+
143.967	23	C5H3ClNS+
143.9771	17	CHClF2N3O+
144.9851	201	C6H3ClFO+
146.0168	14	C6H6ClFN+
146.0526	176	C10H7F+
146.9664	10	ClFH3N3OS+
147.0007	80	C6H5ClFO+
148.056	3	C3H15ClNOS+
149.0761	9	C10H10F+
150.1277	3	C10H16N+
150.9819	68	C7H2ClNO+
151.0425	6	C3H5F2N4O+
152.9848	27	CHClFN5O+
153.0294	20	C6H5N2O3+
154.9696	18	C7HClFO+
154.9895	11	C7H4ClO2+
155.9771	70	C2HClF2N3O+
156.9852	314	C3FN5S+
156.9963	662	C6H3ClFN2+
158.0167	11	C7H6ClFN+
158.9645	27	C6HClFO2+
158.9845	5	C2HN5O2S+
159.0008	7	C7H5ClFO+
159.0918	6	C10H11N2+
161.076	13	ClFH17N3OS+
166.0054	69	C8H5ClNO+
168.9512	6	C7H2ClOS+
169.9765	829	C7H3ClO3+
171.0081	58	C7H6ClNO2+
171.9722	27	C7H2ClFO2+
172.98	999	C7H3ClFO2+
173.9773	4	CH4ClFN4OS+
174.0116	18	C7H6ClFNO+
182.0002	10	C3H4ClFN4O2+
186.0118	14	C8H6ClFNO+
186.9955	11	C3H4ClF2N3O2+
187.9671	599	C7H2ClFO3+
190.9364	44	C6HClFO2S+
202.9564	52	C7H4ClO3S+
203.9444	7	C7H2ClFO2S+
206.1344	5	C2H22F2N3O3S+
220.947	231	C7H3ClFO3S+
229.9672	114	C8H5ClNO3S+
249.9735	152	C8H6ClFNO3S+
