Mass spectrum: Apomorphine; LC-ESI-QFT; MS2; CE: 75; R=17500; [M-H]-
Name: Apomorphine
Name: (6aR)-6-methyl-5,6,6a,7-tetrahydro-4H-dibenzo[de,g]quinoline-10,11-diol
Formula: C17H17NO2
Exact mass: 267.1259
SMILES: CN1CCc2cccc3c2[C@H]1Cc1ccc(O)c(O)c1-3
InChI: InChI=1S/C17H17NO2/c1-18-8-7-10-3-2-4-12-15(10)13(18)9-11-5-6-14(19)17(20)16(11)12/h2-6,13,19-20H,7-9H2,1H3/t13-/m1/s1
Instrument: Q Exactive Orbitrap (Thermo Scientific)
Instrument type: LC-ESI-QFT
Ms type: MS2
Ion mode: NEGATIVE
Ionization: ESI
Fragmentation mode: HCD
Collision energy: 75
Resolution: 17500
Column name: Acquity BEH C18 1.7um, 2.1x150mm (Waters)
Retention time: 11.103 min
Base peak: 153.0306
Precursor m/z: 266.1187
Precursor type: [M-H]-
Precursor intensity: 4548562.648926
m/z	relative intensity	assigned
167.0867	44	C13H11-
177.0712	8	C14H9-
179.0867	52	C14H11-
195.0815	23	C14H11O-
205.0659	11	C15H9O-
208.0531	18	C14H8O2-
209.0607	9	C14H9O2-
211.0399	8	C16H5N-
221.0609	6	C15H9O2-
222.0687	372	C15H10O2-
223.0765	999	C15H11O2-
224.0842	3	C15H12O2-
234.0562	6	C15H8NO2-
235.0765	22	C16H11O2-
236.0715	17	C15H10NO2-
247.0639	12	C16H9NO2-
248.0716	75	C16H10NO2-
249.0799	16	C16H11NO2-
250.0874	131	C16H12NO2-
264.1027	4	C17H14NO2-
266.1186	48	C17H16NO2-
