Mass spectrum: Chloridazon; LC-ESI-QFT; MS2; CE: 15; R=17500; [M-H]-
Name: Chloridazon
Name: 5-amino-4-chloro-2-phenylpyridazin-3-one
Formula: C10H8ClN3O
Exact mass: 221.0356
SMILES: NC1=C(Cl)C(=O)N(N=C1)C1=CC=CC=C1
InChI: InChI=1S/C10H8ClN3O/c11-9-8(12)6-13-14(10(9)15)7-4-2-1-3-5-7/h1-6H,12H2
Instrument: Q Exactive Orbitrap (Thermo Scientific)
Instrument type: LC-ESI-QFT
Ms type: MS2
Ion mode: NEGATIVE
Ionization: ESI
Fragmentation mode: HCD
Collision energy: 15
Resolution: 17500
Column name: Acquity BEH C18 1.7um, 2.1x150mm (Waters)
Retention time: 13.150 min
Base peak: 118.0299
Precursor m/z: 220.0283
Precursor type: [M-H]-
Precursor intensity: 6247071.258789
m/z	relative intensity	assigned
60.9725	1	CClN-
65.0146	15	C3HN2-
65.9984	5	C3NO-
73.9803	33	C2HClN-
74.9643	20	C2ClO-
100.9674	17	C3ClNO-
100.9912	23	C3H2ClN2-
117.0458	7	C7H5N2-
118.0299	2	C7H4NO-
126.9706	3	C4ClN2O-
141.0455	1	C9H5N2-
144.0568	7	C8H6N3-
150.0116	16	C8H5ClN-
184.0517	7	C10H6N3O-
193.0168	1	C9H6ClN2O-
220.0283	999	C10H7ClN3O-
