Mass spectrum: 8-Methoxypsoralen; LC-ESI-QFT; MS2; CE: 90; R=17500; [M+H]+
Name: 8-Methoxypsoralen
Name: Methoxsalen
Name: 9-methoxyfuro[3,2-g]chromen-7-one
Formula: C12H8O4
Exact mass: 216.0423
SMILES: COC1=C2OC(=O)C=CC2=CC2=C1OC=C2
InChI: InChI=1S/C12H8O4/c1-14-12-10-8(4-5-15-10)6-7-2-3-9(13)16-11(7)12/h2-6H,1H3
Instrument: Q Exactive Orbitrap (Thermo Scientific)
Instrument type: LC-ESI-QFT
Ms type: MS2
Ion mode: POSITIVE
Ionization: ESI
Fragmentation mode: HCD
Collision energy: 90
Resolution: 17500
Column name: Acquity BEH C18 1.7um, 2.1x150mm (Waters)
Retention time: 15.198 min
Base peak: 79.0211
Precursor m/z: 217.0495
Precursor type: [M+H]+
Precursor intensity: 9995987.625
m/z	relative intensity	assigned
51.023	1	C4H3+
53.0386	9	C4H5+
55.0178	5	C3H3O+
55.0543	4	C4H7+
63.0228	7	C5H3+
64.0306	4	C5H4+
65.0385	18	C5H5+
66.0464	88	C5H6+
68.0255	5	C4H4O+
75.0228	9	C6H3+
77.0385	8	C6H5+
78.0463	3	C6H6+
79.0542	28	C6H7+
81.0335	4	C5H5O+
83.049	2	C5H7O+
89.0385	328	C7H5+
90.0464	503	C7H6+
91.0542	25	C7H7+
92.0256	14	C6H4O+
93.0334	3	C6H5O+
94.0413	12	C6H6O+
95.0491	41	C6H7O+
97.0076	16	C8H+
101.0386	10	C8H5+
102.0464	32	C8H6+
103.0542	43	C8H7+
104.062	5	C8H8+
105.0336	4	C7H5O+
105.0699	26	C8H9+
107.0489	7	C7H7O+
108.0568	2	C7H8O+
111.0233	3	C9H3+
115.0542	84	C9H7+
116.0619	3	C9H8+
117.0335	18	C8H5O+
117.0698	2	C9H9+
118.0413	557	C8H6O+
119.049	3	C8H7O+
121.0284	4	C7H5O2+
122.036	8	C7H6O2+
129.0334	43	C9H5O+
130.0413	7	C9H6O+
131.0491	84	C9H7O+
132.0206	2	C8H4O2+
132.0567	3	C9H8O+
133.0286	3	C8H5O2+
133.0646	3	C9H9O+
134.036	1	C8H6O2+
135.0441	8	C8H7O2+
143.0493	1	C10H7O+
145.0284	243	C9H5O2+
146.0362	210	C9H6O2+
147.044	1	C9H7O2+
150.0309	1	C8H6O3+
157.0285	22	C10H5O2+
158.0362	10	C10H6O2+
161.0597	150	C10H9O2+
162.0309	7	C9H6O3+
173.0234	4	C10H5O3+
174.0311	999	C10H6O3+
178.0261	11	C9H6O4+
185.0233	2	C11H5O3+
189.0543	2	C11H9O3+
202.026	95	C11H6O4+
