Mass spectrum: Octrizole; LC-ESI-QFT; MS2; CE: 30; R=17500; [M+H]+
Name: Octrizole
Name: 2-(benzotriazol-2-yl)-4-(2,4,4-trimethylpentan-2-yl)phenol
Formula: C20H25N3O
Exact mass: 323.1998
SMILES: CC(C)(C)CC(C)(C)C1=CC(N2N=C3C=CC=CC3=N2)=C(O)C=C1
InChI: InChI=1S/C20H25N3O/c1-19(2,3)13-20(4,5)14-10-11-18(24)17(12-14)23-21-15-8-6-7-9-16(15)22-23/h6-12,24H,13H2,1-5H3
Instrument: Q Exactive Orbitrap (Thermo Scientific)
Instrument type: LC-ESI-QFT
Ms type: MS2
Ion mode: POSITIVE
Ionization: ESI
Fragmentation mode: HCD
Collision energy: 30
Resolution: 17500
Column name: Acquity BEH C18 1.7um, 2.1x150mm (Waters)
Retention time: 22.623 min
Base peak: 79.0211
Precursor m/z: 324.207
Precursor type: [M+H]+
Precursor intensity: 674646
m/z	relative intensity	assigned
57.0699	82	C4H9+
133.0651	2	C9H9O+
212.082	82	C12H10N3O+
324.2072	999	C20H26N3O+
