Mass spectrum: Metribuzin; LC-ESI-QFT; MS2; CE: 15; R=17500; [M+H]+
Name: Metribuzin
Name: 4-amino-6-tert-butyl-3-methylsulfanyl-1,2,4-triazin-5-one
Formula: C8H14N4OS
Exact mass: 214.0888
SMILES: CSC1=NN=C(C(=O)N1N)C(C)(C)C
InChI: InChI=1S/C8H14N4OS/c1-8(2,3)5-6(13)12(9)7(14-4)11-10-5/h9H2,1-4H3
Instrument: Q Exactive Orbitrap (Thermo Scientific)
Instrument type: LC-ESI-QFT
Ms type: MS2
Ion mode: POSITIVE
Ionization: ESI
Fragmentation mode: HCD
Collision energy: 15
Resolution: 17500
Column name: Acquity BEH C18 1.7um, 2.1x150mm (Waters)
Retention time: 15.295 min
Base peak: 79.0211
Precursor m/z: 215.0961
Precursor type: [M+H]+
Precursor intensity: 11974734.375
m/z	relative intensity	assigned
57.0698	4	C4H9+
74.006	1	C2H4NS+
82.0651	2	C5H8N+
84.0808	5	C5H10N+
89.0167	3	C2H5N2S+
89.0419	1	C4H9S+
97.0648	2	C6H9O+
114.9959	4	C3H3N2OS+
130.0684	2	C6H12NS+
131.0273	4	C4H7N2OS+
145.0541	2	C4H9N4S+
167.0927	1	C7H11N4O+
171.0585	1	C7H11N2OS+
186.082	6	C8H14N2OS+
187.1011	35	C7H15N4S+
200.0728	1	C7H12N4OS+
215.0959	999	C8H15N4OS+
