Mass spectrum: Indapamide; LC-ESI-QFT; MS2; CE: 60; R=17500; [M-H]-
Name: Indapamide
Name: 4-chloro-N-(2-methyl-2,3-dihydroindol-1-yl)-3-sulfamoylbenzamide
Formula: C16H16ClN3O3S
Exact mass: 365.0601
SMILES: CC1CC2=C(C=CC=C2)N1NC(=O)C1=CC(=C(Cl)C=C1)S(N)(=O)=O
InChI: InChI=1S/C16H16ClN3O3S/c1-10-8-11-4-2-3-5-14(11)20(10)19-16(21)12-6-7-13(17)15(9-12)24(18,22)23/h2-7,9-10H,8H2,1H3,(H,19,21)(H2,18,22,23)
Instrument: Q Exactive Orbitrap (Thermo Scientific)
Instrument type: LC-ESI-QFT
Ms type: MS2
Ion mode: NEGATIVE
Ionization: ESI
Fragmentation mode: HCD
Collision energy: 60
Resolution: 17500
Column name: Acquity BEH C18 1.7um, 2.1x150mm (Waters)
Retention time: 14.992 min
Base peak: 112.9857
Precursor m/z: 364.0528
Precursor type: [M-H]-
Precursor intensity: 2752460.467285
m/z	relative intensity	assigned
53.0033	18	C3HO-
61.9706	123	NOS-
63.9624	172	O2S-
64.0192	8	C4H2N-
65.0033	11	C4HO-
65.9985	53	C3NO-
68.0142	12	C3H2NO-
77.0033	59	C5HO-
77.9655	999	NO2S-
78.9733	347	HNO2S-
79.9812	314	H2NO2S-
80.9652	23	HO3S-
88.0193	15	C6H2N-
89.0271	29	C6H3N-
90.0349	59	C6H4N-
91.0302	33	C5H3N2-
92.0142	81	C5H2NO-
92.9982	13	C5HO2-
93.0221	9	C5H3NO-
93.9604	192	NO3S-
98.9313	35	ClO2S-
103.9903	15	C6O2-
105.022	341	C6H3NO-
106.006	92	C6H2O2-
107.9913	40	C5H2NS-
112.9801	15	C5H2ClO-
113.9423	8	ClHNO2S-
115.0301	39	C7H3N2-
116.0506	38	C8H6N-
120.009	38	C6H2NO2-
120.0328	82	C6H4N2O-
120.993	88	C6HO3-
123.996	15	C6H3ClN-
125.0037	32	C6H4ClN-
126.0115	83	C6H5ClN-
130.0662	54	C9H8N-
131.0251	140	C7H3N2O-
132.0329	122	C7H4N2O-
132.0819	20	C9H10N-
140.9987	21	C6H4ClNO-
141.9826	77	C6H3ClO2-
148.0279	43	C7H4N2O2-
151.0068	106	C7H4ClN2-
168.984	11	C6H3NO3S-
178.9921	109	C7H3N2O2S-
188.9656	147	C6H4ClNO2S-
189.9734	39	C6H5ClNO2S-
204.9609	52	C6H4ClNO3S-
214.9687	166	C7H4ClN2O2S-
215.9532	9	C7H3ClNO3S-
