Mass spectrum: Dimethenamid; LC-ESI-QFT; MS2; CE: 60; R=17500; [M+H]+
Name: Dimethenamid
Name: 2-chloro-N-(2,4-dimethylthiophen-3-yl)-N-(1-methoxypropan-2-yl)acetamide
Formula: C12H18ClNO2S
Exact mass: 275.0747
SMILES: COCC(C)N(C(=O)CCl)C1=C(C)SC=C1C
InChI: InChI=1S/C12H18ClNO2S/c1-8-7-17-10(3)12(8)14(11(15)5-13)9(2)6-16-4/h7,9H,5-6H2,1-4H3
Instrument: Q Exactive Orbitrap (Thermo Scientific)
Instrument type: LC-ESI-QFT
Ms type: MS2
Ion mode: POSITIVE
Ionization: ESI
Fragmentation mode: HCD
Collision energy: 60
Resolution: 17500
Column name: Acquity BEH C18 1.7um, 2.1x150mm (Waters)
Retention time: 17.366 min
Base peak: 79.0211
Precursor m/z: 276.082
Precursor type: [M+H]+
Precursor intensity: 12598356
m/z	relative intensity	assigned
50.0153	1	C4H2+
51.0231	2	C4H3+
53.0023	7	C3HO+
53.0386	12	C4H5+
55.0179	2	C3H3O+
55.0543	3	C4H7+
56.0495	16	C3H6N+
58.995	24	C2H3S+
65.0386	3	C5H5+
67.0542	9	C5H7+
70.0651	2	C4H8N+
70.995	2	C3H3S+
73.0107	3	C3H5S+
73.0648	72	C4H9O+
75.9949	3	C2H3ClN+
76.9789	95	C2H2ClO+
78.0464	4	C6H6+
79.018	2	C5H3O+
79.0542	8	C6H7+
82.0652	3	C5H8N+
85.0108	4	C4H5S+
86.9997	5	C4H4Cl+
91.0543	65	C7H7+
93.07	124	C7H9+
94.0412	2	C6H6O+
94.0652	18	C6H8N+
95.0492	33	C6H7O+
95.073	35	C6H9N+
96.0807	2	C6H10N+
97.0108	7	C5H5S+
99.0264	20	C5H7S+
101.0422	9	C5H9S+
103.0543	71	C8H7+
104.0498	2	C7H6N+
105.0574	5	C7H7N+
105.0701	3	C8H9+
106.0651	3	C7H8N+
107.0855	8	C8H11+
108.0809	30	C7H10N+
110.0185	3	C6H6S+
111.0264	549	C6H7S+
112.0216	3	C5H6NS+
112.0342	26	C6H8S+
113.0296	10	C5H7NS+
113.042	38	C6H9S+
114.0373	9	C5H8NS+
115.0542	3	C9H7+
116.0262	8	C5H7ClN+
117.0573	8	C8H7N+
117.07	21	C9H9+
118.0651	9	C8H8N+
118.0778	3	C9H10+
119.073	2	C8H9N+
120.0809	23	C8H10N+
121.0649	248	C8H9O+
122.0965	14	C8H12N+
123.0263	9	C7H7S+
124.0217	2	C6H6NS+
124.0342	25	C7H8S+
125.0296	3	C6H7NS+
125.0421	60	C7H9S+
126.0373	239	C6H8NS+
127.0213	21	C6H7OS+
127.0452	30	C6H9NS+
127.0577	36	C7H11S+
128.0292	4	C6H8OS+
128.0529	72	C6H10NS+
129.0102	22	C6H6ClO+
129.037	24	C6H9OS+
132.0811	4	C9H10N+
133.0887	6	C9H11N+
134.0965	39	C9H12N+
135.0264	6	C8H7S+
135.1043	97	C9H13N+
136.0218	5	C7H6NS+
136.0342	5	C8H8S+
137.0295	42	C7H7NS+
138.0373	101	C7H8NS+
138.9947	308	C7H4ClO+
139.0052	53	C9HNO+
140.0528	24	C7H10NS+
141.0735	4	C8H13S+
142.0081	2	C6H6O2S+
144.9877	3	C6H6ClS+
147.0031	4	C6H8ClS+
149.0425	7	C9H9S+
150.0374	70	C8H8NS+
151.0459	17	C8H9NS+
151.0577	108	C9H11S+
152.0166	34	C7H6NOS+
152.053	142	C8H10NS+
153.0244	76	C7H7NOS+
153.0608	39	C8H11NS+
154.0323	23	C7H8NOS+
154.0682	10	C8H12NS+
158.0365	4	C7H9ClNO+
159.0034	3	C7H8ClS+
166.0324	33	C8H8NOS+
166.0687	32	C9H12NS+
167.0765	86	C9H13NS+
168.0843	999	C9H14NS+
171.9983	3	C7H7ClNS+
174.0141	6	C7H9ClNS+
183.9987	1	C8H7ClNS+
186.014	62	C8H9ClNS+
202.0089	11	C8H9ClNOS+
203.0168	36	C8H10ClNOS+
204.0246	11	C8H11ClNOS+
244.0559	213	C11H15ClNOS+
