Mass spectrum: N,N-Dimethyl-4-nitrosoaniline; LC-ESI-QFT; MS2; CE: 60; R=17500; [M+H]+
Name: N,N-Dimethyl-4-nitrosoaniline
Formula: C8H10N2O
Exact mass: 150.0793
SMILES: CN(C)C1=CC=C(C=C1)N=O
InChI: InChI=1S/C8H10N2O/c1-10(2)8-5-3-7(9-11)4-6-8/h3-6H,1-2H3
Instrument: Q Exactive Orbitrap (Thermo Scientific)
Instrument type: LC-ESI-QFT
Ms type: MS2
Ion mode: POSITIVE
Ionization: ESI
Fragmentation mode: HCD
Collision energy: 60
Resolution: 17500
Column name: Acquity BEH C18 1.7um, 2.1x150mm (Waters)
Retention time: 4.498 min
Base peak: 79.0211
Precursor m/z: 151.0866
Precursor type: [M+H]+
Precursor intensity: 4860045.78125
m/z	relative intensity	assigned
55.0417	2	C3H5N+
65.0386	2	C5H5+
66.0337	1	C4H4N+
66.0464	2	C5H6+
68.0495	44	C4H6N+
79.0543	1	C6H7+
80.0495	2	C5H6N+
81.0574	10	C5H7N+
82.0651	10	C5H8N+
92.0494	9	C6H6N+
93.0448	63	C5H5N2+
93.0573	5	C6H7N+
94.0652	16	C6H8N+
96.0808	1	C6H10N+
106.0527	2	C6H6N2+
106.0652	10	C7H8N+
107.0604	4	C6H7N2+
107.0729	16	C7H9N+
108.0806	11	C7H10N+
110.06	1	C6H8NO+
118.0652	1	C8H8N+
119.0605	106	C7H7N2+
120.0809	141	C8H10N+
121.0887	92	C8H11N+
124.0759	5	C7H10NO+
133.0761	497	C8H9N2+
134.0839	999	C8H10N2+
136.0759	12	C8H10NO+
139.0868	1	C7H11N2O+
151.0867	763	C8H11N2O+
