Mass spectrum: Zearalenone; LC-ESI-QFT; MS2; CE: 75; R=17500; [M-H]-
Name: Zearalenone
Name: (4S,12E)-16,18-dihydroxy-4-methyl-3-oxabicyclo[12.4.0]octadeca-1(14),12,15,17-tetraene-2,8-dione
Formula: C18H22O5
Exact mass: 318.1467
SMILES: C[C@H]1CCCC(=O)CCC\C=C\C2=C(C(O)=CC(O)=C2)C(=O)O1
InChI: InChI=1S/C18H22O5/c1-12-6-5-9-14(19)8-4-2-3-7-13-10-15(20)11-16(21)17(13)18(22)23-12/h3,7,10-12,20-21H,2,4-6,8-9H2,1H3/b7-3+/t12-/m0/s1
Instrument: Q Exactive Orbitrap (Thermo Scientific)
Instrument type: LC-ESI-QFT
Ms type: MS2
Ion mode: NEGATIVE
Ionization: ESI
Fragmentation mode: HCD
Collision energy: 75
Resolution: 17500
Column name: Acquity BEH C18 1.7um, 2.1x150mm (Waters)
Retention time: 17.846 min
Base peak: 317.1395
Precursor m/z: 317.1394
Precursor type: [M-H]-
Precursor intensity: 40276178.25195
m/z	relative intensity	assigned
57.0346	750	C3H5O-
63.024	126	C5H3-
65.0033	149	C4HO-
65.0397	85	C5H5-
67.0189	16	C4H3O-
68.9982	15	C3HO2-
69.0346	42	C4H5O-
71.0503	4	C4H7O-
77.0397	5	C6H5-
79.0555	21	C6H7-
81.0346	55	C5H5O-
83.0503	24	C5H7O-
85.066	24	C5H9O-
89.0397	107	C7H5-
91.0191	14	C6H3O-
91.0554	81	C7H7-
93.0347	48	C6H5O-
95.0503	41	C6H7O-
97.0658	4	C6H9O-
101.0396	13	C8H5-
102.0476	217	C8H6-
103.0554	262	C8H7-
104.0268	6	C7H4O-
105.0346	60	C7H5O-
105.071	15	C8H9-
106.0423	3	C7H6O-
107.0503	152	C7H7O-
109.0659	9	C7H9O-
111.0817	16	C7H11O-
113.0609	3	C6H9O2-
115.0554	76	C9H7-
117.0347	53	C8H5O-
117.0709	11	C9H9-
119.0503	255	C8H7O-
121.0295	13	C7H5O2-
121.066	20	C8H9O-
123.0453	20	C7H7O2-
123.0819	3	C8H11O-
129.0345	6	C9H5O-
129.0709	14	C10H9-
129.0921	22	C7H13O2-
130.0424	999	C9H6O-
131.0503	945	C9H7O-
132.0217	620	C8H4O2-
133.0295	148	C8H5O2-
133.0659	46	C9H9O-
135.0452	8	C8H7O2-
135.0817	7	C9H11O-
136.053	4	C8H8O2-
137.0607	33	C8H9O2-
141.0347	5	C10H5O-
141.071	5	C11H9-
143.0503	179	C10H7O-
144.0581	11	C10H8O-
145.0296	195	C9H5O2-
146.0374	101	C9H6O2-
147.0452	204	C9H7O2-
147.0816	12	C10H11O-
149.0244	10	C8H5O3-
149.0607	23	C9H9O2-
151.0766	8	C9H11O2-
157.0659	30	C11H9O-
158.0374	14	C10H6O2-
159.0452	102	C10H7O2-
159.0814	32	C11H11O-
160.0166	481	C9H4O3-
161.0246	32	C9H5O3-
161.0609	19	C10H9O2-
163.0401	14	C9H7O3-
164.0478	4	C9H8O3-
171.0818	3	C12H11O-
173.0243	12	C10H5O3-
173.0608	13	C11H9O2-
174.0323	53	C10H6O3-
175.0401	103	C10H7O3-
175.0765	13	C11H11O2-
185.0608	11	C12H9O2-
187.0402	131	C11H7O3-
188.048	5	C11H8O3-
193.0867	5	C11H13O3-
199.0765	9	C13H11O2-
201.0558	18	C12H9O3-
203.0723	3	C12H11O3-
