Mass spectrum: Meloxicam; LC-ESI-QFT; MS2; CE: 90; R=17500; [M+H]+
Name: Meloxicam
Name: 4-hydroxy-2-methyl-N-(5-methyl-1,3-thiazol-2-yl)-1,1-dioxo-1lambda6,2-benzothiazine-3-carboxamide
Formula: C14H13N3O4S2
Exact mass: 351.0347
SMILES: CN1C(C(=O)NC2=NC=C(C)S2)=C(O)C2=C(C=CC=C2)S1(=O)=O
InChI: InChI=1S/C14H13N3O4S2/c1-8-7-15-14(22-8)16-13(19)11-12(18)9-5-3-4-6-10(9)23(20,21)17(11)2/h3-7,18H,1-2H3,(H,15,16,19)
Instrument: Q Exactive Orbitrap (Thermo Scientific)
Instrument type: LC-ESI-QFT
Ms type: MS2
Ion mode: POSITIVE
Ionization: ESI
Fragmentation mode: HCD
Collision energy: 90
Resolution: 17500
Column name: Acquity BEH C18 1.7um, 2.1x150mm (Waters)
Retention time: 16.851 min
Base peak: 79.0211
Precursor m/z: 352.042
Precursor type: [M+H]+
Precursor intensity: 8010587.4375
m/z	relative intensity	assigned
53.0386	9	C4H5+
54.0337	1	C3H4N+
56.0495	18	C3H6N+
57.0573	2	C3H7N+
57.9872	2	C2H2S+
58.0288	6	C2H4NO+
58.9951	5	C2H3S+
59.9664	8	COS+
59.9902	15	CH2NS+
65.0386	12	C5H5+
68.9793	2	C3HS+
69.0447	16	C3H5N2+
70.0287	31	C3H4NO+
70.9949	6	C3H3S+
71.0604	3	C3H7N2+
71.9903	3	C2H2NS+
73.0106	999	C3H5S+
77.0386	3	C6H5+
81.0337	3	C5H5O+
82.0526	2	C4H6N2+
85.0108	2	C4H5S+
85.9696	5	C2NOS+
86.0059	9	C3H4NS+
88.0216	186	C3H6NS+
91.0543	9	C7H7+
92.0257	4	C6H4O+
95.0492	10	C6H7O+
97.0107	27	C5H5S+
100.0215	1	C4H6NS+
104.0255	1	C7H4O+
104.0494	1	C7H6N+
105.0335	8	C7H5O+
105.0448	4	C6H5N2+
109.0107	31	C6H5S+
113.0057	1	C5H5OS+
113.0168	21	C4H5N2S+
114.0009	29	C4H4NOS+
115.0325	801	C4H7N2S+
117.0574	3	C8H7N+
125.0055	6	C6H5OS+
127.0325	2	C5H7N2S+
135.9979	3	C7H4OS+
137.0058	6	C7H5OS+
141.0117	209	C5H5N2OS+
146.06	2	C9H8NO+
151.9927	2	C7H4O2S+
153.0005	14	C7H5O2S+
164.0161	1	H10N3O3S2+
168.9954	4	C7H5O3S+
