Mass spectrum: Florasulam; LC-ESI-QFT; MS2; CE: 60; R=17500; [M+H]+
Name: Florasulam
Name: N-(2,6-difluorophenyl)-8-fluoro-5-methoxy-[1,2,4]triazolo[1,5-c]pyrimidine-2-sulfonamide
Formula: C12H8F3N5O3S
Exact mass: 359.0300
SMILES: COC1=NC=C(F)C2=NC(=NN12)S(=O)(=O)NC1=C(F)C=CC=C1F
InChI: InChI=1S/C12H8F3N5O3S/c1-23-12-16-5-8(15)10-17-11(18-20(10)12)24(21,22)19-9-6(13)3-2-4-7(9)14/h2-5,19H,1H3
Instrument: Q Exactive Orbitrap (Thermo Scientific)
Instrument type: LC-ESI-QFT
Ms type: MS2
Ion mode: POSITIVE
Ionization: ESI
Fragmentation mode: HCD
Collision energy: 60
Resolution: 17500
Column name: Acquity BEH C18 1.7um, 2.1x150mm (Waters)
Retention time: 13.974 min
Base peak: 79.0211
Precursor m/z: 360.0373
Precursor type: [M+H]+
Precursor intensity: 6445110.0625
m/z	relative intensity	assigned
57.0134	1	C3H2F+
63.0229	1	C5H3+
74.0035	1	C2HFNO+
74.04	1	C3H5FN+
84.0244	6	C4H3FN+
89.0259	1	C6H3N+
99.0352	1	C4H4FN2+
101.0197	3	C5H3F2+
101.051	1	C4H6FN2+
102.0276	4	C5H4F2+
104.0307	1	C4H4F2N+
108.0244	5	C6H3FN+
109.0323	20	C6H4FN+
114.0462	1	C4H5FN3+
115.0303	3	C4H4FN2O+
124.0194	1	C6H3FNO+
126.0352	4	C6H5FNO+
127.0303	1	C5H4FN2O+
128.0308	10	C6H4F2N+
129.0384	999	C6H5F2N+
144.0255	29	C6H4F2NO+
145.0333	4	C6H5F2NO+
146.0414	3	C6H6F2NO+
155.0416	1	C7H5F2N2+
