Mass spectrum: Strychnine; LC-ESI-QFT; MS2; CE: 45; R=17500; [M+H]+
Name: Strychnine
Name: (4aR,5aS,8aR,13aS,15aS,15bR)-4a,5,5a,7,8,13a,15,15a,15b,16-decahydro-2H-4,6-methanoindolo[3,2,1-ij]oxepino[2,3,4-de]pyrrolo[2,3-h]quinolin-14-one
Formula: C21H22N2O2
Exact mass: 334.1681
SMILES: O=C1C[C@@H]2OCC=C3CN4CC[C@]56c7ccccc7N1[C@H]5[C@H]2[C@H]3C[C@H]46
InChI: InChI=1S/C21H22N2O2/c24-18-10-16-19-13-9-17-21(6-7-22(17)11-12(13)5-8-25-16)14-3-1-2-4-15(14)23(18)20(19)21/h1-5,13,16-17,19-20H,6-11H2/t13-,16-,17-,19-,20-,21+/m0/s1
Instrument: Q Exactive Orbitrap (Thermo Scientific)
Instrument type: LC-ESI-QFT
Ms type: MS2
Ion mode: POSITIVE
Ionization: ESI
Fragmentation mode: HCD
Collision energy: 45
Resolution: 17500
Column name: Acquity BEH C18 1.7um, 2.1x150mm (Waters)
Retention time: 10.965 min
Base peak: 79.0211
Precursor m/z: 335.1754
Precursor type: [M+H]+
Precursor intensity: 18837808.75
m/z	relative intensity	assigned
56.0495	1	C3H6N+
81.0699	1	C6H9+
93.0698	1	C7H9+
95.0491	1	C6H7O+
108.0807	2	C7H10N+
122.0599	2	C7H8NO+
124.0756	2	C7H10NO+
144.0807	4	C10H10N+
156.0807	1	C11H10N+
168.0808	1	C12H10N+
171.0916	1	C11H11N2+
184.0757	37	C12H10NO+
194.0603	1	C13H8NO+
194.0962	1	C14H12N+
196.0757	3	C13H10NO+
198.0913	3	C13H12NO+
210.0912	2	C14H12NO+
212.0703	1	C13H10NO2+
212.1077	1	C14H14NO+
220.0756	5	C15H10NO+
220.1115	1	C16H14N+
222.0913	15	C15H12NO+
234.0915	5	C16H12NO+
236.1068	1	C16H14NO+
236.1441	1	C17H18N+
238.0862	1	C15H12NO2+
246.0912	1	C17H12NO+
246.128	1	C18H16N+
248.1066	3	C17H14NO+
250.1228	1	C17H16NO+
262.1227	7	C18H16NO+
264.1019	36	C17H14NO2+
266.1175	4	C17H16NO2+
272.1067	4	C19H14NO+
274.1222	3	C19H16NO+
289.1338	1	C19H17N2O+
290.1178	5	C19H16NO2+
292.1337	4	C19H18NO2+
306.149	3	C20H20NO2+
307.1439	13	C19H19N2O2+
335.1752	999	C21H23N2O2+
