Mass spectrum: 3-Methyl-N-phenylaniline; LC-ESI-QFT; MS2; CE: 75; R=17500; [M+H]+
Name: 3-Methyl-N-phenylaniline
Name: 3-Methyldiphenylamine
Formula: C13H13N
Exact mass: 183.1048
SMILES: CC1=CC(NC2=CC=CC=C2)=CC=C1
InChI: InChI=1S/C13H13N/c1-11-6-5-9-13(10-11)14-12-7-3-2-4-8-12/h2-10,14H,1H3
Instrument: Q Exactive Orbitrap (Thermo Scientific)
Instrument type: LC-ESI-QFT
Ms type: MS2
Ion mode: POSITIVE
Ionization: ESI
Fragmentation mode: HCD
Collision energy: 75
Resolution: 17500
Column name: Acquity BEH C18 1.7um, 2.1x150mm (Waters)
Retention time: 18.660 min
Base peak: 79.0212
Precursor m/z: 184.1121
Precursor type: [M+H]+
Precursor intensity: 9968392.640625
m/z	relative intensity	assigned
53.0385	5	C4H5+
65.0385	152	C5H5+
66.0463	17	C5H6+
67.0541	2	C5H7+
77.0385	4	C6H5+
79.0542	123	C6H7+
90.0464	1	C7H6+
91.0542	70	C7H7+
92.0494	337	C6H6N+
93.0573	682	C6H7N+
94.0651	1	C6H8N+
104.0494	1	C7H6N+
106.0651	316	C7H8N+
107.0729	999	C7H9N+
115.0542	2	C9H7+
128.062	2	C10H8+
129.0698	3	C10H9+
130.0653	1	C9H8N+
141.07	2	C11H9+
142.0777	7	C11H10+
143.0729	3	C10H9N+
144.0807	1	C10H10N+
152.062	26	C12H8+
154.0649	7	C11H8N+
156.0805	1	C11H10N+
157.1017	1	C12H13+
165.0698	17	C13H9+
166.0772	3	C13H10+
167.0728	6	C12H9N+
167.0853	4	C13H11+
168.0807	132	C12H10N+
169.0885	360	C12H11N+
182.0967	6	C13H12N+
183.1044	14	C13H13N+
184.112	79	C13H14N+
