Mass spectrum: Methyldopa; LC-ESI-QFT; MS2; CE: 60; R=17500; [M+H]+
Name: Methyldopa
Name: (2S)-2-amino-3-(3,4-dihydroxyphenyl)-2-methylpropanoic acid
Formula: C10H13NO4
Exact mass: 211.0845
SMILES: C[C@](N)(Cc1ccc(O)c(O)c1)C(=O)O
InChI: InChI=1S/C10H13NO4/c1-10(11,9(14)15)5-6-2-3-7(12)8(13)4-6/h2-4,12-13H,5,11H2,1H3,(H,14,15)/t10-/m0/s1
Instrument: Q Exactive Orbitrap (Thermo Scientific)
Instrument type: LC-ESI-QFT
Ms type: MS2
Ion mode: POSITIVE
Ionization: ESI
Fragmentation mode: HCD
Collision energy: 60
Resolution: 17500
Column name: Acquity BEH C18 1.7um, 2.1x150mm (Waters)
Retention time: 3.672 min
Base peak: 79.0211
Precursor m/z: 212.0917
Precursor type: [M+H]+
Precursor intensity: 2179735.75
m/z	relative intensity	assigned
55.0178	5	C3H3O+
56.0496	66	C3H6N+
57.0335	7	C3H5O+
57.0573	16	C3H7N+
58.0651	15	C3H8N+
65.0386	59	C5H5+
79.0542	17	C6H7+
88.0393	18	C3H6NO2+
91.0544	10	C7H7+
92.0493	6	C6H6N+
93.0336	140	C6H5O+
93.07	19	C7H9+
95.0492	12	C6H7O+
103.0543	249	C8H7+
105.07	68	C8H9+
107.0493	20	C7H7O+
109.0284	7	C6H5O2+
111.0441	999	C6H7O2+
120.0809	30	C8H10N+
121.0649	149	C8H9O+
123.0441	218	C7H7O2+
125.06	10	C7H9O2+
131.0493	389	C9H7O+
133.0523	11	C8H7NO+
133.065	31	C9H9O+
139.0391	798	C7H7O3+
148.076	23	C9H10NO+
149.0598	173	C9H9O2+
151.063	20	C8H9NO2+
151.0753	9	C9H11O2+
159.0438	9	C10H7O2+
166.0864	756	C9H12NO2+
177.0546	11	C10H9O3+
