Mass spectrum: Phenazopyridine; LC-ESI-QFT; MS2; CE: 90; R=17500; [M+H]+
Name: Phenazopyridine
Name: 3-phenyldiazenylpyridine-2,6-diamine
Formula: C11H11N5
Exact mass: 213.1014
SMILES: NC1=CC=C(N=NC2=CC=CC=C2)C(N)=N1
InChI: InChI=1S/C11H11N5/c12-10-7-6-9(11(13)14-10)16-15-8-4-2-1-3-5-8/h1-7H,(H4,12,13,14)
Instrument: Q Exactive Orbitrap (Thermo Scientific)
Instrument type: LC-ESI-QFT
Ms type: MS2
Ion mode: POSITIVE
Ionization: ESI
Fragmentation mode: HCD
Collision energy: 90
Resolution: 17500
Column name: Acquity BEH C18 1.7um, 2.1x150mm (Waters)
Retention time: 14.298 min
Base peak: 79.0211
Precursor m/z: 214.1087
Precursor type: [M+H]+
Precursor intensity: 43672248.8125
m/z	relative intensity	assigned
52.0182	16	C3H2N+
53.026	12	C3H3N+
53.0386	9	C4H5+
54.0338	14	C3H4N+
65.0385	9	C5H5+
66.0463	6	C5H6+
68.0243	999	C2H2N3+
69.0446	4	C3H5N2+
70.04	1	C2H4N3+
71.0603	253	C3H7N2+
77.0385	9	C6H5+
79.029	6	C4H3N2+
80.0368	220	C4H4N2+
81.0447	19	C4H5N2+
82.0525	71	C4H6N2+
85.0507	3	C2H5N4+
92.0495	11	C6H6N+
93.0573	108	C6H7N+
94.0403	1	C4H4N3+
94.0651	3	C6H8N+
95.0491	31	C4H5N3+
96.0555	266	C4H6N3+
97.0397	1	C2H3N5+
105.0447	12	C6H5N2+
106.04	1	C5H4N3+
107.0603	3	C6H7N2+
108.0555	26	C5H6N3+
109.0634	30	C5H7N3+
110.0461	2	C3H4N5+
110.0712	3	C5H8N3+
113.082	5	C4H9N4+
115.0542	2	C9H7+
121.0508	48	C5H5N4+
122.0586	31	C5H6N4+
123.0664	2	C5H7N4+
124.0869	28	C6H10N3+
138.0773	4	C5H8N5+
153.0448	2	C10H5N2+
166.1086	1	C7H12N5+
170.0712	2	C10H8N3+
180.0556	1	C11H6N3+
197.0822	6	C11H9N4+
