Mass spectrum: Flutolanil; LC-ESI-QFT; MS2; CE: 60; R=17500; [M-H]-
Name: Flutolanil
Name: N-(3-propan-2-yloxyphenyl)-2-(trifluoromethyl)benzamide
Formula: C17H16F3NO2
Exact mass: 323.1133
SMILES: CC(C)OC1=CC(NC(=O)C2=C(C=CC=C2)C(F)(F)F)=CC=C1
InChI: InChI=1S/C17H16F3NO2/c1-11(2)23-13-7-5-6-12(10-13)21-16(22)14-8-3-4-9-15(14)17(18,19)20/h3-11H,1-2H3,(H,21,22)
Instrument: Q Exactive Orbitrap (Thermo Scientific)
Instrument type: LC-ESI-QFT
Ms type: MS2
Ion mode: NEGATIVE
Ionization: ESI
Fragmentation mode: HCD
Collision energy: 60
Resolution: 17500
Column name: Acquity BEH C18 1.7um, 2.1x150mm (Waters)
Retention time: 17.426 min
Base peak: 456.1333
Precursor m/z: 322.106
Precursor type: [M-H]-
Precursor intensity: 26481069.00586
m/z	relative intensity	assigned
68.9957	28	CF3-
91.019	1	C6H3O-
105.0147	2	C7H2F-
125.0208	8	C7H3F2-
134.0249	104	C7H4NO2-
145.0271	999	C7H4F3-
146.025	2	C8H4NO2-
148.0204	1	C8H3FNO-
164.0506	1	C12H6N-
189.017	38	C8H4F3O2-
192.0457	4	C13H6NO-
210.0364	1	C13H5FNO-
212.0519	5	C13H7FNO-
220.0405	10	C14H6NO2-
240.0469	20	C14H7FNO2-
258.0374	2	C14H6F2NO2-
