Mass spectrum: Cybutryne; LC-ESI-QFT; MS2; CE: 60; R=17500; [M+H]+
Name: Cybutryne
Name: 2-N-tert-butyl-4-N-cyclopropyl-6-methylsulfanyl-1,3,5-triazine-2,4-diamine
Formula: C11H19N5S
Exact mass: 253.1361
SMILES: CSC1=NC(NC(C)(C)C)=NC(NC2CC2)=N1
InChI: InChI=1S/C11H19N5S/c1-11(2,3)16-9-13-8(12-7-5-6-7)14-10(15-9)17-4/h7H,5-6H2,1-4H3,(H2,12,13,14,15,16)
Instrument: Q Exactive Orbitrap (Thermo Scientific)
Instrument type: LC-ESI-QFT
Ms type: MS2
Ion mode: POSITIVE
Ionization: ESI
Fragmentation mode: HCD
Collision energy: 60
Resolution: 17500
Column name: Acquity BEH C18 1.7um, 2.1x150mm (Waters)
Retention time: 17.010 min
Base peak: 79.0211
Precursor m/z: 254.1434
Precursor type: [M+H]+
Precursor intensity: 58222838.125
m/z	relative intensity	assigned
54.0338	2	C3H4N+
55.0291	5	C2H3N2+
56.0495	165	C3H6N+
57.0447	2	C2H5N2+
57.0699	46	C4H9+
58.0651	60	C3H8N+
61.0105	3	C2H5S+
66.0338	1	C4H4N+
67.0415	1	C4H5N+
68.0243	73	C2H2N3+
70.0399	16	C2H4N3+
74.0058	128	C2H4NS+
81.0447	38	C4H5N2+
83.0603	713	C4H7N2+
85.0508	7	C2H5N4+
87.0263	57	C4H7S+
89.042	9	C4H9S+
91.0324	721	C2H7N2S+
97.0507	2	C3H5N4+
98.0713	7	C4H8N3+
99.0009	2	C3H3N2S+
103.0324	1	C3H7N2S+
108.0555	431	C5H6N3+
110.0459	5	C3H4N5+
112.0869	1	C5H10N3+
114.012	17	C3H4N3S+
114.0372	64	C5H8NS+
116.0276	165	C3H6N3S+
123.0664	7	C5H7N4+
125.0821	186	C5H9N4+
127.0071	5	C3H3N4S+
131.0636	8	C5H11N2S+
141.0227	2	C4H5N4S+
142.0431	2	C5H8N3S+
143.0385	7	C4H7N4S+
150.0774	112	C6H8N5+
151.0849	2	C6H9N5+
152.0931	11	C6H10N5+
156.0338	46	C4H6N5S+
156.0589	179	C6H10N3S+
157.0414	1	C4H7N5S+
158.0494	13	C4H8N5S+
168.0334	5	C5H6N5S+
170.0494	45	C5H8N5S+
171.0698	24	C6H11N4S+
181.0539	2	C7H9N4S+
182.049	3	C6H8N5S+
183.0573	4	C6H9N5S+
198.0807	999	C7H12N5S+
254.1436	1	C11H20N5S+
