Mass spectrum: Resmethrin; LC-ESI-QFT; MS2; CE: 30; R=17500; [M+H]+
Name: Resmethrin
Formula: C22H26O3
Exact mass: 338.1882
SMILES: CC(C)=CC1C(C(=O)OCC2=COC(CC3=CC=CC=C3)=C2)C1(C)C
InChI: InChI=1S/C22H26O3/c1-15(2)10-19-20(22(19,3)4)21(23)25-14-17-12-18(24-13-17)11-16-8-6-5-7-9-16/h5-10,12-13,19-20H,11,14H2,1-4H3
Instrument: Q Exactive Orbitrap (Thermo Scientific)
Instrument type: LC-ESI-QFT
Ms type: MS2
Ion mode: POSITIVE
Ionization: ESI
Fragmentation mode: HCD
Collision energy: 30
Resolution: 17500
Column name: Acquity BEH C18 1.7um, 2.1x150mm (Waters)
Retention time: 20.591 min
Base peak: 79.0211
Precursor m/z: 339.1955
Precursor type: [M+H]+
Precursor intensity: 1660874.34375
m/z	relative intensity	assigned
55.0544	17	C4H7+
59.0492	28	C3H7O+
69.0698	26	C5H9+
81.0699	46	C6H9+
83.0491	34	C5H7O+
91.0543	657	C7H7+
93.0701	25	C7H9+
95.0493	33	C6H7O+
95.0858	57	C7H11+
105.0336	49	C7H5O+
105.0701	33	C8H9+
107.0857	64	C8H11+
109.0649	13	C7H9O+
109.1011	14	C8H13+
117.07	34	C9H9+
119.0857	60	C9H11+
121.065	43	C8H9O+
121.1013	329	C9H13+
123.1169	67	C9H15+
125.0598	23	C7H9O2+
128.0622	18	C10H8+
131.0856	18	C10H11+
133.1014	33	C10H13+
135.0806	16	C9H11O+
135.1168	89	C10H15+
139.1119	73	C9H15O+
141.0912	40	C8H13O2+
143.0857	382	C11H11+
145.1013	13	C11H13+
149.0963	201	C10H13O+
155.0857	17	C12H11+
157.1014	22	C12H13+
159.0807	24	C11H11O+
159.1168	84	C12H15+
161.0963	30	C11H13O+
161.1326	23	C12H17+
167.1068	74	C10H15O2+
171.0806	999	C12H11O+
173.0962	26	C12H13O+
173.1328	53	C13H17+
175.1486	69	C13H19+
183.1166	12	C14H15+
185.0962	32	C13H13O+
187.1122	19	C13H15O+
197.1328	57	C15H17+
199.1118	88	C14H15O+
201.1275	16	C14H17O+
202.1356	18	C14H18O+
203.1435	93	C14H19O+
205.1225	33	C13H17O2+
219.1178	13	C17H15+
225.1276	120	C16H17O+
226.1354	37	C16H18O+
237.1273	39	C17H17O+
239.1433	92	C17H19O+
247.1332	41	C15H19O3+
251.1432	54	C18H19O+
275.1794	23	C21H23+
283.1318	19	C18H19O3+
293.1903	265	C21H25O+
321.1847	59	C22H25O2+
339.1958	140	C22H27O3+
