Mass spectrum: CI-959; LC-ESI-QFT; MS2; CE: 30; R=17500; [M+H]+
Name: CI-959
Name: CI-959 free acid
Name: 5-methoxy-3-propan-2-yloxy-N-(2H-tetrazol-5-yl)-1-benzothiophene-2-carboxamide
Formula: C14H15N5O3S
Exact mass: 333.0896
SMILES: COC1=CC2=C(SC(C(=O)NC3=NN=NN3)=C2OC(C)C)C=C1
InChI: InChI=1S/C14H15N5O3S/c1-7(2)22-11-9-6-8(21-3)4-5-10(9)23-12(11)13(20)15-14-16-18-19-17-14/h4-7H,1-3H3,(H2,15,16,17,18,19,20)
Instrument: Q Exactive Orbitrap (Thermo Scientific)
Instrument type: LC-ESI-QFT
Ms type: MS2
Ion mode: POSITIVE
Ionization: ESI
Fragmentation mode: HCD
Collision energy: 30
Resolution: 17500
Column name: Acquity BEH C18 1.7um, 2.1x150mm (Waters)
Retention time: 17.398 min
Base peak: 79.0211
Precursor m/z: 334.0968
Precursor type: [M+H]+
Precursor intensity: 7697311.25
m/z	relative intensity	assigned
58.04	2	CH4N3+
84.0192	2	C2H2N3O+
86.0461	124	CH4N5+
112.0254	48	C2H2N5O+
128.0931	31	C4H10N5+
135.0445	1	C8H7O2+
139.0213	6	C7H7OS+
154.0723	10	C5H8N5O+
159.0809	1	C11H11O+
163.0213	2	C9H7OS+
178.0447	1	C10H10OS+
179.0162	118	C9H7O2S+
181.0318	48	C9H9O2S+
191.0156	2	C10H7O2S+
191.988	1	C9H4O3S+
193.0682	26	C11H13OS+
194.0271	9	C9H8NO2S+
207.0111	999	C10H7O3S+
209.9979	3	C7H4N3O3S+
221.0631	25	C12H13O2S+
223.0794	1	C12H15O2S+
249.0196	1	C10H7N3O3S+
249.0581	16	C13H13O3S+
264.0439	13	C11H10N3O3S+
292.0499	33	C11H10N5O3S+
