Mass spectrum: Nootkatone; LC-ESI-QFT; MS2; CE: 75; R=17500; [M+H]+
Name: Nootkatone
Name: (4R,4aS,6R)-4,4a-dimethyl-6-prop-1-en-2-yl-3,4,5,6,7,8-hexahydronaphthalen-2-one
Formula: C15H22O
Exact mass: 218.1671
SMILES: C[C@@H]1CC(=O)C=C2CC[C@H](C[C@@]12C)C(C)=C
InChI: InChI=1S/C15H22O/c1-10(2)12-5-6-13-8-14(16)7-11(3)15(13,4)9-12/h8,11-12H,1,5-7,9H2,2-4H3/t11-,12-,15+/m1/s1
Instrument: Q Exactive Orbitrap (Thermo Scientific)
Instrument type: LC-ESI-QFT
Ms type: MS2
Ion mode: POSITIVE
Ionization: ESI
Fragmentation mode: HCD
Collision energy: 75
Resolution: 17500
Column name: Acquity BEH C18 1.7um, 2.1x150mm (Waters)
Retention time: 19.073 min
Base peak: 79.0211
Precursor m/z: 219.1743
Precursor type: [M+H]+
Precursor intensity: 10717630.125
m/z	relative intensity	assigned
53.0022	24	C3HO+
53.0386	50	C4H5+
55.0178	63	C3H3O+
55.0542	220	C4H7+
57.0335	9	C3H5O+
57.0699	33	C4H9+
59.0491	7	C3H7O+
65.0385	32	C5H5+
66.0465	3	C5H6+
67.0542	457	C5H7+
69.0334	213	C4H5O+
69.0698	187	C5H9+
71.049	8	C4H7O+
77.0385	9	C6H5+
78.0464	5	C6H6+
79.0542	421	C6H7+
80.0619	5	C6H8+
81.0699	999	C6H9+
83.0491	31	C5H7O+
83.0855	41	C6H11+
91.0542	300	C7H7+
92.0621	3	C7H8+
93.0699	478	C7H9+
94.0413	8	C6H6O+
94.0778	6	C7H10+
95.0491	107	C6H7O+
95.0855	250	C7H11+
96.0573	2	C6H8O+
97.0648	161	C6H9O+
103.0542	16	C8H7+
104.0621	4	C8H8+
105.0699	262	C8H9+
106.0412	15	C7H6O+
106.0775	7	C8H10+
107.0491	57	C7H7O+
107.0855	233	C8H11+
108.057	11	C7H8O+
108.0933	3	C8H12+
109.0648	83	C7H9O+
109.1012	116	C8H13+
111.0804	244	C7H11O+
115.0542	22	C9H7+
116.0618	13	C9H8+
117.0698	84	C9H9+
119.0855	185	C9H11+
120.0568	3	C8H8O+
120.0929	2	C9H12+
121.0648	127	C8H9O+
121.1012	107	C9H13+
122.0725	11	C8H10O+
123.0804	93	C8H11O+
123.1168	49	C9H15+
125.096	21	C8H13O+
128.0621	16	C10H8+
129.0698	33	C10H9+
130.0777	41	C10H10+
131.0855	89	C10H11+
132.0931	6	C10H12+
133.0648	23	C9H9O+
133.1011	70	C10H13+
134.0725	6	C9H10O+
135.0804	115	C9H11O+
135.1168	30	C10H15+
136.0883	3	C9H12O+
137.0961	67	C9H13O+
139.1118	2	C9H15O+
142.0776	5	C11H10+
143.0855	49	C11H11+
144.0934	19	C11H12+
145.1011	111	C11H13+
146.0728	3	C10H10O+
146.1093	3	C11H14+
147.0804	42	C10H11O+
147.1166	8	C11H15+
148.0881	10	C10H12O+
149.0961	56	C10H13O+
149.1323	6	C11H17+
150.1037	3	C10H14O+
151.1114	7	C10H15O+
157.1012	11	C12H13+
158.1088	7	C12H14+
159.1168	35	C12H15+
161.096	119	C11H13O+
161.1326	13	C12H17+
162.1036	6	C11H14O+
163.1117	136	C11H15O+
171.1168	5	C13H15+
173.1323	7	C13H17+
175.1117	9	C12H15O+
175.148	6	C13H19+
176.1195	19	C12H16O+
177.1273	7	C12H17O+
189.1274	20	C13H17O+
201.164	2	C15H21+
204.15	2	C14H20O+
219.1739	8	C15H23O+
