Mass spectrum: Suxibuzone; LC-ESI-QFT; MS2; CE: 30; R=17500; [M+H]+
Name: Suxibuzone
Name: 4-[(4-butyl-3,5-dioxo-1,2-diphenylpyrazolidin-4-yl)methoxy]-4-oxobutanoic acid
Formula: C24H26N2O6
Exact mass: 438.1791
SMILES: CCCCC1(COC(=O)CCC(O)=O)C(=O)N(N(C1=O)C1=CC=CC=C1)C1=CC=CC=C1
InChI: InChI=1S/C24H26N2O6/c1-2-3-16-24(17-32-21(29)15-14-20(27)28)22(30)25(18-10-6-4-7-11-18)26(23(24)31)19-12-8-5-9-13-19/h4-13H,2-3,14-17H2,1H3,(H,27,28)
Instrument: Q Exactive Orbitrap (Thermo Scientific)
Instrument type: LC-ESI-QFT
Ms type: MS2
Ion mode: POSITIVE
Ionization: ESI
Fragmentation mode: HCD
Collision energy: 30
Resolution: 17500
Column name: Acquity BEH C18 1.7um, 2.1x150mm (Waters)
Retention time: 17.593 min
Base peak: 79.0211
Precursor m/z: 439.1864
Precursor type: [M+H]+
Precursor intensity: 14218459.25
m/z	relative intensity	assigned
55.0179	14	C3H3O+
55.0542	10	C4H7+
69.0335	3	C4H5O+
69.0698	2	C5H9+
71.0856	1	C5H11+
73.0284	26	C3H5O2+
77.0389	2	C6H5+
81.0699	7	C6H9+
83.0855	11	C6H11+
92.0495	2	C6H6N+
93.0575	1	C6H7N+
94.0652	13	C6H8N+
95.0492	2	C6H7O+
97.0648	2	C6H9O+
99.0805	2	C6H11O+
101.0233	150	C4H5O3+
104.0494	14	C7H6N+
106.065	5	C7H8N+
109.0648	13	C7H9O+
111.0442	4	C6H7O2+
111.0805	6	C7H11O+
115.039	21	C5H7O3+
118.0651	23	C8H8N+
119.0339	2	C4H7O4+
120.0444	12	C7H6NO+
120.0808	7	C8H10N+
130.0651	6	C9H8N+
131.073	3	C9H9N+
132.0444	8	C8H6NO+
132.0809	2	C9H10N+
134.0601	2	C8H8NO+
139.0753	9	C8H11O2+
144.0809	1	C10H10N+
146.06	46	C9H8NO+
146.0962	4	C10H12N+
147.0678	1	C9H9NO+
148.0756	5	C9H10NO+
148.112	2	C10H14N+
150.055	1	C8H8NO2+
158.0602	1	C10H8NO+
160.0759	26	C10H10NO+
160.1121	510	C11H14N+
162.1276	41	C11H16N+
164.0706	1	C9H10NO2+
168.0808	4	C12H10N+
172.112	8	C12H14N+
173.1201	1	C12H15N+
174.0549	6	C10H8NO2+
174.1277	17	C12H16N+
184.1122	3	C13H14N+
185.1074	3	C12H13N2+
186.0915	3	C12H12NO+
188.107	30	C12H14NO+
190.1227	18	C12H16NO+
195.0918	3	C13H11N2+
200.107	24	C13H14NO+
202.1227	109	C13H16NO+
206.1174	7	C12H16NO2+
208.0994	5	C14H12N2+
209.1073	2	C14H13N2+
211.0866	24	C13H11N2O+
216.102	5	C13H14NO2+
218.1172	4	C13H16NO2+
221.1072	1	C15H13N2+
223.0868	5	C14H11N2O+
223.1229	2	C15H15N2+
228.1018	13	C14H14NO2+
237.1025	9	C15H13N2O+
239.117	3	C15H15N2O+
251.1541	16	C17H19N2+
253.0972	13	C15H13N2O2+
261.1024	2	C17H13N2O+
265.0975	6	C16H13N2O2+
265.1703	5	C18H21N2+
267.1128	206	C16H15N2O2+
275.1541	8	C19H19N2+
277.1706	2	C19H21N2+
279.1492	39	C18H19N2O+
281.165	15	C18H21N2O+
291.1487	1	C19H19N2O+
293.1648	45	C19H21N2O+
303.1491	17	C20H19N2O+
309.1599	999	C19H21N2O2+
321.1599	65	C20H21N2O2+
339.1705	3	C20H23N2O3+
