Mass spectrum: Ethoxyquin; LC-ESI-QFT; MS2; CE: 90; R=17500; [M+H]+
Name: Ethoxyquin
Name: 6-ethoxy-2,2,4-trimethyl-1H-quinoline
Formula: C14H19NO
Exact mass: 217.1467
SMILES: CCOC1=CC2=C(NC(C)(C)C=C2C)C=C1
InChI: InChI=1S/C14H19NO/c1-5-16-11-6-7-13-12(8-11)10(2)9-14(3,4)15-13/h6-9,15H,5H2,1-4H3
Instrument: Q Exactive Orbitrap (Thermo Scientific)
Instrument type: LC-ESI-QFT
Ms type: MS2
Ion mode: POSITIVE
Ionization: ESI
Fragmentation mode: HCD
Collision energy: 90
Resolution: 17500
Column name: Acquity BEH C18 1.7um, 2.1x150mm (Waters)
Retention time: 15.084 min
Base peak: 79.0211
Precursor m/z: 218.1539
Precursor type: [M+H]+
Precursor intensity: 8920784.5625
m/z	relative intensity	assigned
53.0022	5	C3HO+
53.0386	25	C4H5+
55.0179	7	C3H3O+
55.0542	13	C4H7+
56.0495	3	C3H6N+
57.0699	25	C4H9+
65.0385	85	C5H5+
67.0542	16	C5H7+
69.0699	4	C5H9+
77.0386	6	C6H5+
79.0542	135	C6H7+
80.0495	20	C5H6N+
81.0573	9	C5H7N+
81.0699	17	C6H9+
82.0288	5	C4H4NO+
91.0542	94	C7H7+
92.0495	15	C6H6N+
93.0573	17	C6H7N+
93.0699	23	C7H9+
94.0651	41	C6H8N+
95.0492	55	C6H7O+
96.0444	10	C5H6NO+
103.0542	81	C8H7+
105.0574	48	C7H7N+
105.0699	52	C8H9+
106.0652	189	C7H8N+
107.0492	157	C7H7O+
108.0444	27	C6H6NO+
108.0808	6	C7H10N+
109.0523	35	C6H7NO+
110.06	18	C6H8NO+
115.0543	55	C9H7+
116.0496	21	C8H6N+
116.062	8	C9H8+
117.0573	71	C8H7N+
117.0699	35	C9H9+
118.0651	189	C8H8N+
119.0494	3	C8H7O+
119.073	46	C8H9N+
119.0855	7	C9H11+
120.0446	10	C7H6NO+
120.0808	153	C8H10N+
121.0648	22	C8H9O+
121.1013	2	C9H13+
122.0601	144	C7H8NO+
128.062	15	C10H8+
129.0699	61	C10H9+
130.0414	4	C9H6O+
130.0652	76	C9H8N+
130.0777	24	C10H10+
131.0491	23	C9H7O+
131.073	128	C9H9N+
131.0854	8	C10H11+
132.0808	124	C9H10N+
133.0522	441	C8H7NO+
134.06	335	C8H8NO+
135.0682	11	C8H9NO+
136.0757	7	C8H10NO+
138.0916	4	C8H12NO+
143.0731	49	C10H9N+
143.0855	8	C11H11+
144.0015	4	C12+
144.0558	51	C10H8O+
144.0808	49	C10H10N+
145.0522	8	C9H7NO+
145.0648	13	C10H9O+
145.0886	36	C10H11N+
145.1014	13	C11H13+
146.0601	609	C9H8NO+
146.0964	272	C10H12N+
147.0679	166	C9H9NO+
148.0756	231	C9H10NO+
149.0836	5	C9H11NO+
150.0916	4	C9H12NO+
155.0854	6	C12H11+
156.0808	22	C11H10N+
157.0649	23	C11H9O+
157.0886	43	C11H11N+
158.0725	48	C11H10O+
158.0965	138	C11H12N+
159.0679	118	C10H9NO+
160.0757	999	C10H10NO+
161.0835	59	C10H11NO+
161.1199	11	C11H15N+
162.0914	25	C10H12NO+
162.1278	4	C11H16N+
172.1121	22	C12H14N+
173.0836	29	C11H11NO+
173.096	2	C12H13O+
174.0914	865	C11H12NO+
175.0992	29	C11H13NO+
176.1067	2	C11H14NO+
188.1071	182	C12H14NO+
189.1148	12	C12H15NO+
190.1226	17	C12H16NO+
202.1227	137	C13H16NO+
