Mass spectrum: 2,2-Dimethyl-2,3-dihydro-1-benzofuran-7-amine; LC-ESI-QFT; MS2; CE: 75; R=17500; [M+H]+
Name: 2,2-Dimethyl-2,3-dihydro-1-benzofuran-7-amine
Name: 2,2-dimethyl-3H-1-benzofuran-7-amine
Formula: C10H13NO
Exact mass: 163.0997
SMILES: CC1(C)CC2=C(O1)C(N)=CC=C2
InChI: InChI=1S/C10H13NO/c1-10(2)6-7-4-3-5-8(11)9(7)12-10/h3-5H,6,11H2,1-2H3
Instrument: Q Exactive Orbitrap (Thermo Scientific)
Instrument type: LC-ESI-QFT
Ms type: MS2
Ion mode: POSITIVE
Ionization: ESI
Fragmentation mode: HCD
Collision energy: 75
Resolution: 17500
Column name: Acquity BEH C18 1.7um, 2.1x150mm (Waters)
Retention time: 12.296 min
Base peak: 79.0212
Precursor m/z: 164.107
Precursor type: [M+H]+
Precursor intensity: 18215847.03125
m/z	relative intensity	assigned
51.023	1	C4H3+
53.0023	2	C3HO+
53.0386	30	C4H5+
54.0339	2	C3H4N+
55.0179	22	C3H3O+
55.0543	55	C4H7+
65.0386	24	C5H5+
67.0542	27	C5H7+
69.0334	1	C4H5O+
77.0385	10	C6H5+
78.0464	1	C6H6+
79.0542	23	C6H7+
80.0494	48	C5H6N+
81.0336	2	C5H5O+
81.0573	8	C5H7N+
91.0543	375	C7H7+
92.0494	9	C6H6N+
93.0335	6	C6H5O+
93.0574	34	C6H7N+
93.07	7	C7H9+
94.0652	999	C6H8N+
95.0491	88	C6H7O+
96.0445	2	C5H6NO+
103.0542	19	C8H7+
104.0621	18	C8H8+
105.0336	4	C7H5O+
105.0698	5	C8H9+
106.0651	7	C7H8N+
107.0492	29	C7H7O+
108.0445	18	C6H6NO+
108.0809	3	C7H10N+
109.0522	789	C6H7NO+
110.06	21	C6H8NO+
115.0542	7	C9H7+
117.0573	4	C8H7N+
117.0699	42	C9H9+
118.0651	5	C8H8N+
119.0492	35	C8H7O+
119.0856	83	C9H11+
120.0445	3	C7H6NO+
120.0808	3	C8H10N+
121.0524	1	C7H7NO+
121.0889	1	C8H11N+
122.06	731	C7H8NO+
128.0621	7	C10H8+
129.0698	8	C10H9+
130.0652	12	C9H8N+
131.0492	10	C9H7O+
131.073	10	C9H9N+
132.057	20	C9H8O+
132.0807	10	C9H10N+
134.0602	8	C8H8NO+
135.0679	3	C8H9NO+
136.0758	30	C8H10NO+
145.065	3	C10H9O+
147.0805	61	C10H11O+
148.0757	6	C9H10NO+
149.0837	27	C9H11NO+
164.1071	13	C10H14NO+
