Mass spectrum: CP-671305; LC-ESI-QFT; MS2; CE: 30; R=17500; [M-H]-
Name: CP-671305
Name: (2R)-2-[4-[[[2-(1,3-benzodioxol-5-yloxy)pyridine-3-carbonyl]amino]methyl]-3-fluorophenoxy]propanoic acid
Formula: C23H19FN2O7
Exact mass: 454.1176
SMILES: C[C@@H](OC1=CC=C(CNC(=O)C2=CC=CN=C2OC2=CC=C3OCOC3=C2)C(F)=C1)C(O)=O
InChI: InChI=1S/C23H19FN2O7/c1-13(23(28)29)32-15-5-4-14(18(24)9-15)11-26-21(27)17-3-2-8-25-22(17)33-16-6-7-19-20(10-16)31-12-30-19/h2-10,13H,11-12H2,1H3,(H,26,27)(H,28,29)/t13-/m1/s1
Instrument: Q Exactive Orbitrap (Thermo Scientific)
Instrument type: LC-ESI-QFT
Ms type: MS2
Ion mode: NEGATIVE
Ionization: ESI
Fragmentation mode: HCD
Collision energy: 30
Resolution: 17500
Column name: Acquity BEH C18 1.7um, 2.1x150mm (Waters)
Retention time: 16.733 min
Base peak: 316.055
Precursor m/z: 453.1104
Precursor type: [M-H]-
Precursor intensity: 16552095.63477
m/z	relative intensity	assigned
71.0139	4	C3H3O2-
94.0297	7	C5H4NO-
108.0454	3	C6H6NO-
118.0299	1	C7H4NO-
119.0253	1	C6H3N2O-
134.0247	4	C7H4NO2-
136.0403	22	C7H6NO2-
162.0197	2	C8H4NO3-
185.0721	4	C11H9N2O-
211.0512	43	C12H7N2O2-
213.0664	1	C12H9N2O2-
228.0541	22	C12H8N2O3-
229.0618	109	C12H9N2O3-
239.0461	20	C13H7N2O3-
243.0414	1	C12H7N2O4-
255.0775	2	C14H11N2O3-
256.0494	1	C13H8N2O4-
257.0567	999	C13H9N2O4-
299.0674	3	C15H11N2O5-
381.0891	2	C20H14FN2O5-
