Mass spectrum: 4-Aminobenzamide; LC-ESI-QFT; MS2; CE: 90; R=17500; [M+H]+
Name: 4-Aminobenzamide
Formula: C7H8N2O
Exact mass: 136.0637
SMILES: NC(=O)C1=CC=C(N)C=C1
InChI: InChI=1S/C7H8N2O/c8-6-3-1-5(2-4-6)7(9)10/h1-4H,8H2,(H2,9,10)
Instrument: Q Exactive Orbitrap (Thermo Scientific)
Instrument type: LC-ESI-QFT
Ms type: MS2
Ion mode: POSITIVE
Ionization: ESI
Fragmentation mode: HCD
Collision energy: 90
Resolution: 17500
Column name: Acquity BEH C18 1.7um, 2.1x150mm (Waters)
Retention time: 2.658 min
Base peak: 79.0211
Precursor m/z: 137.0709
Precursor type: [M+H]+
Precursor intensity: 2844448.78125
m/z	relative intensity	assigned
53.0022	4	C3HO+
53.0386	69	C4H5+
55.0178	9	C3H3O+
55.0544	4	C4H7+
65.0386	931	C5H5+
67.0542	11	C5H7+
68.0495	70	C4H6N+
69.0335	10	C4H5O+
77.0385	34	C6H5+
78.0339	10	C5H4N+
79.018	11	C5H3O+
81.0336	5	C5H5O+
82.0288	3	C4H4NO+
86.0036	198	C6N+
92.0495	999	C6H6N+
93.0573	27	C6H7N+
94.0652	373	C6H8N+
95.0492	196	C6H7O+
96.0444	13	C5H6NO+
105.0448	77	C6H5N2+
108.0444	19	C6H6NO+
110.0601	311	C6H8NO+
119.0605	7	C7H7N2+
120.0444	949	C7H6NO+
