Mass spectrum: 2,2`-(Tetradecylimino)diethanol; LC-ESI-QFT; MS2; CE: 75; R=17500; [M+H]+
Name: 2,2'-(Tetradecylimino)diethanol
Name: Tetradecyldiethanolamine
Formula: C18H39NO2
Exact mass: 301.2981
SMILES: CCCCCCCCCCCCCCN(CCO)CCO
InChI: InChI=1S/C18H39NO2/c1-2-3-4-5-6-7-8-9-10-11-12-13-14-19(15-17-20)16-18-21/h20-21H,2-18H2,1H3
Instrument: Q Exactive Orbitrap (Thermo Scientific)
Instrument type: LC-ESI-QFT
Ms type: MS2
Ion mode: POSITIVE
Ionization: ESI
Fragmentation mode: HCD
Collision energy: 75
Resolution: 17500
Column name: Acquity BEH C18 1.7um, 2.1x150mm (Waters)
Retention time: 18.110 min
Base peak: 79.0211
Precursor m/z: 302.3054
Precursor type: [M+H]+
Precursor intensity: 36459202
m/z	relative intensity	assigned
53.0023	86	C3HO+
53.9975	11	C2NO+
54.0101	3	C3H2O+
55.0179	2	C3H3O+
55.0417	3	C3H5N+
55.0543	32	C4H7+
56.0495	9	C3H6N+
57.0699	614	C4H9+
58.0651	57	C3H8N+
60.0444	13	C2H6NO+
62.0601	20	C2H8NO+
67.9892	5	C3O2+
68.0494	36	C4H6N+
68.9971	3	C3HO2+
69.0698	11	C5H9+
70.0651	999	C4H8N+
71.0855	87	C5H11+
72.0807	5	C4H10N+
74.0601	10	C3H8NO+
84.0809	2	C5H10N+
85.1011	13	C6H13+
86.0601	9	C4H8NO+
88.0757	438	C4H10NO+
102.0914	87	C5H12NO+
104.0706	1	C4H10NO2+
106.0863	74	C4H12NO2+
