Mass spectrum: N-Benzyl-9-(tetrahydro-2H-pyran-2-yl)adenine; LC-ESI-QFT; MS2; CE: 30; R=17500; [M+H]+
Name: N-Benzyl-9-(tetrahydro-2H-pyran-2-yl)adenine
Name: N-benzyl-9-(oxan-2-yl)purin-6-amine
Formula: C17H19N5O
Exact mass: 309.1590
SMILES: C(NC1=NC=NC2=C1N=CN2C1CCCCO1)C1=CC=CC=C1
InChI: InChI=1S/C17H19N5O/c1-2-6-13(7-3-1)10-18-16-15-17(20-11-19-16)22(12-21-15)14-8-4-5-9-23-14/h1-3,6-7,11-12,14H,4-5,8-10H2,(H,18,19,20)
Instrument: Q Exactive Orbitrap (Thermo Scientific)
Instrument type: LC-ESI-QFT
Ms type: MS2
Ion mode: POSITIVE
Ionization: ESI
Fragmentation mode: HCD
Collision energy: 30
Resolution: 17500
Column name: Acquity BEH C18 1.7um, 2.1x150mm (Waters)
Retention time: 16.569 min
Base peak: 79.0211
Precursor m/z: 310.1662
Precursor type: [M+H]+
Precursor intensity: 16289083.0625
m/z	relative intensity	assigned
85.0648	10	C5H9O+
91.0542	114	C7H7+
148.0617	7	C6H6N5+
226.1087	999	C12H12N5+
310.1659	3	C17H20N5O+
