Mass spectrum: 6-Pentyl-2H-pyran-2-one; LC-ESI-QFT; MS2; CE: 60; R=17500; [M+H]+
Name: 6-Pentyl-2H-pyran-2-one
Name: 6-pentylpyran-2-one
Formula: C10H14O2
Exact mass: 166.0994
SMILES: CCCCCC1=CC=CC(=O)O1
InChI: InChI=1S/C10H14O2/c1-2-3-4-6-9-7-5-8-10(11)12-9/h5,7-8H,2-4,6H2,1H3
Instrument: Q Exactive Orbitrap (Thermo Scientific)
Instrument type: LC-ESI-QFT
Ms type: MS2
Ion mode: POSITIVE
Ionization: ESI
Fragmentation mode: HCD
Collision energy: 60
Resolution: 17500
Column name: Acquity BEH C18 1.7um, 2.1x150mm (Waters)
Retention time: 16.695 min
Base peak: 79.0211
Precursor m/z: 167.1067
Precursor type: [M+H]+
Precursor intensity: 486443.5
m/z	relative intensity	assigned
53.0386	51	C4H5+
55.0179	171	C3H3O+
55.0543	296	C4H7+
57.0336	37	C3H5O+
65.0386	295	C5H5+
67.0542	830	C5H7+
69.0335	168	C4H5O+
69.0699	95	C5H9+
73.0283	31	C3H5O2+
79.0179	40	C5H3O+
79.0542	577	C6H7+
81.0699	318	C6H9+
83.0492	502	C5H7O+
91.0542	73	C7H7+
93.0337	139	C6H5O+
93.0699	240	C7H9+
95.0493	102	C6H7O+
95.0857	47	C7H11+
97.0285	999	C5H5O2+
97.0649	85	C6H9O+
105.07	34	C8H9+
107.0491	131	C7H7O+
107.0855	34	C8H11+
110.0364	34	C6H6O2+
111.0441	63	C6H7O2+
121.0651	19	C8H9O+
121.1013	37	C9H13+
122.0365	21	C7H6O2+
131.0856	28	C10H11+
167.1068	542	C10H15O2+
