Mass spectrum: Trazodone; LC-ESI-QFT; MS2; CE: 90; R=17500; [M+H]+
Name: Trazodone
Name: 2-[3-[4-(3-chlorophenyl)piperazin-1-yl]propyl]-[1,2,4]triazolo[4,3-a]pyridin-3-one
Formula: C19H22ClN5O
Exact mass: 371.1513
SMILES: ClC1=CC=CC(=C1)N1CCN(CCCN2N=C3C=CC=CN3C2=O)CC1
InChI: InChI=1S/C19H22ClN5O/c20-16-5-3-6-17(15-16)23-13-11-22(12-14-23)8-4-10-25-19(26)24-9-2-1-7-18(24)21-25/h1-3,5-7,9,15H,4,8,10-14H2
Instrument: Q Exactive Orbitrap (Thermo Scientific)
Instrument type: LC-ESI-QFT
Ms type: MS2
Ion mode: POSITIVE
Ionization: ESI
Fragmentation mode: HCD
Collision energy: 90
Resolution: 17500
Column name: Acquity BEH C18 1.7um, 2.1x150mm (Waters)
Retention time: 13.407 min
Base peak: 79.0211
Precursor m/z: 372.1586
Precursor type: [M+H]+
Precursor intensity: 2737671.25
m/z	relative intensity	assigned
50.0151	5	C4H2+
51.0229	7	C4H3+
53.0022	3	C3HO+
54.0337	5	C3H4N+
55.0417	2	C3H5N+
56.0495	6	C3H6N+
65.0387	2	C5H5+
67.0416	3	C4H5N+
68.0494	1	C4H6N+
69.0447	4	C3H5N2+
70.0287	2	C3H4NO+
70.0651	17	C4H8N+
78.0338	116	C5H4N+
79.0416	4	C5H5N+
79.0543	1	C6H7+
80.0494	38	C5H6N+
82.0287	4	C4H4NO+
92.0369	58	C5H4N2+
92.0495	4	C6H6N+
93.0447	59	C5H5N2+
94.0526	15	C5H6N2+
94.0651	5	C6H8N+
95.0365	21	C5H5NO+
95.0603	6	C5H7N2+
96.0443	999	C5H6NO+
98.0485	2	CH9ClN3+
104.0495	5	C7H6N+
105.0447	25	C6H5N2+
106.0652	8	C7H8N+
107.0603	24	C6H7N2+
110.06	19	C6H8NO+
111.0552	5	C5H7N2O+
116.0496	8	C8H6N+
117.0573	8	C8H7N+
118.0525	8	C7H6N2+
118.0652	16	C8H8N+
119.0604	58	C7H7N2+
119.0729	7	C8H9N+
120.0318	59	C6H4N2O+
120.0556	44	C6H6N3+
120.0682	4	C7H8N2+
120.0807	3	C8H10N+
121.0396	24	C6H5N2O+
121.076	49	C7H9N2+
123.0552	18	C6H7N2O+
131.0604	14	C8H7N2+
132.0681	10	C8H8N2+
133.0761	22	C8H9N2+
134.0601	7	C8H8NO+
135.0426	14	C6H5N3O+
136.0505	14	C6H6N3O+
137.0707	1	C7H9N2O+
138.0105	18	C7H5ClN+
139.0056	3	C6H4ClN2+
148.0505	281	C7H6N3O+
148.0869	54	C8H10N3+
154.0416	8	C8H9ClN+
166.0418	5	C9H9ClN+
176.0817	10	C9H10N3O+
180.0765	3	C5H13ClN4O+
194.0605	4	C10H11ClN2+
