Mass spectrum: Xanthone; LC-ESI-QFT; MS2; CE: 90; R=17500; [M+H]+
Name: Xanthone
Formula: C13H8O2
Exact mass: 196.0524
SMILES: O=C1C2=C(OC3=C1C=CC=C3)C=CC=C2
InChI: InChI=1S/C13H8O2/c14-13-9-5-1-3-7-11(9)15-12-8-4-2-6-10(12)13/h1-8H
Instrument: Q Exactive Orbitrap (Thermo Scientific)
Instrument type: LC-ESI-QFT
Ms type: MS2
Ion mode: POSITIVE
Ionization: ESI
Fragmentation mode: HCD
Collision energy: 90
Resolution: 17500
Column name: Acquity BEH C18 1.7um, 2.1x150mm (Waters)
Retention time: 17.885 min
Base peak: 79.0212
Precursor m/z: 197.0597
Precursor type: [M+H]+
Precursor intensity: 2534347.75
m/z	relative intensity	assigned
50.0151	18	C4H2+
51.023	37	C4H3+
53.0386	144	C4H5+
55.0178	9	C3H3O+
77.0385	96	C6H5+
81.0336	16	C5H5O+
91.0543	22	C7H7+
92.0256	32	C6H4O+
94.0414	16	C6H6O+
95.0492	450	C6H7O+
105.0335	13	C7H5O+
115.0543	999	C9H7+
121.0284	151	C7H5O2+
139.0542	23	C11H7+
141.0699	854	C11H9+
152.062	22	C12H8+
168.0571	175	C12H8O+
169.0648	74	C12H9O+
196.0519	13	C13H8O2+
197.0598	884	C13H9O2+
