Mass spectrum: Boscalid; LC-ESI-QFT; MS2; CE: 60; R=17500; [M+H]+
Name: Boscalid
Name: 2-chloro-N-[2-(4-chlorophenyl)phenyl]pyridine-3-carboxamide
Formula: C18H12Cl2N2O
Exact mass: 342.0327
SMILES: ClC1=CC=C(C=C1)C1=C(NC(=O)C2=C(Cl)N=CC=C2)C=CC=C1
InChI: InChI=1S/C18H12Cl2N2O/c19-13-9-7-12(8-10-13)14-4-1-2-6-16(14)22-18(23)15-5-3-11-21-17(15)20/h1-11H,(H,22,23)
Instrument: Q Exactive Orbitrap (Thermo Scientific)
Instrument type: LC-ESI-QFT
Ms type: MS2
Ion mode: POSITIVE
Ionization: ESI
Fragmentation mode: HCD
Collision energy: 60
Resolution: 17500
Column name: Acquity BEH C18 1.7um, 2.1x150mm (Waters)
Retention time: 17.424 min
Base peak: 79.0212
Precursor m/z: 343.0399
Precursor type: [M+H]+
Precursor intensity: 1303883.34375
m/z	relative intensity	assigned
51.0229	14	C4H3+
76.0181	19	C5H2N+
78.0338	60	C5H4N+
84.9597	11	CH3Cl2+
96.0444	274	C5H6NO+
111.9948	61	C5H3ClN+
112.0393	372	C2H9ClN2O+
114.0105	49	C5H5ClN+
130.0055	120	C5H5ClNO+
139.9898	488	C6H3ClNO+
152.0621	27	C12H8+
167.0601	7	C11H7N2+
177.0572	10	C13H7N+
202.0773	12	C16H10+
216.0801	16	C16H10N+
217.0892	13	C16H11N+
227.073	17	C17H9N+
228.0809	21	C17H10N+
229.0886	17	C17H11N+
242.0836	45	C17H10N2+
243.0918	154	C17H11N2+
244.0759	7	C17H10NO+
244.0996	66	C17H12N2+
245.071	7	C16H9N2O+
253.0762	87	C18H9N2+
254.0837	120	C18H10N2+
262.0419	12	C17H9ClN+
264.0573	18	C17H11ClN+
270.079	34	C18H10N2O+
271.0867	999	C18H11N2O+
272.0944	914	C18H12N2O+
279.0664	9	C17H12ClN2+
289.0526	170	C18H10ClN2+
305.0476	9	C18H10ClN2O+
307.0633	271	C18H12ClN2O+
