Mass spectrum: 4-Aminoazobenzene; LC-ESI-QFT; MS2; CE: 15; R=17500; [M+H]+
Name: 4-Aminoazobenzene
Name: 4-phenyldiazenylaniline
Formula: C12H11N3
Exact mass: 197.0953
SMILES: C1=CC=C(C=C1)N=NC2=CC=C(C=C2)N
InChI: InChI=1S/C12H11N3/c13-10-6-8-12(9-7-10)15-14-11-4-2-1-3-5-11/h1-9H,13H2
Instrument: Q Exactive Orbitrap (Thermo Scientific)
Instrument type: LC-ESI-QFT
Ms type: MS2
Ion mode: POSITIVE
Ionization: ESI
Fragmentation mode: HCD
Collision energy: 15
Resolution: 17500
Column name: Acquity BEH C18 1.7um, 2.1x150mm (Waters)
Retention time: 17.237 min
Base peak: 79.0212
Precursor m/z: 198.1026
Precursor type: [M+H]+
Precursor intensity: 19679672
m/z	relative intensity	assigned
53.0386	55	C4H5+
68.0494	1	C4H6N+
77.0384	24	C6H5+
92.0494	5	C6H6N+
93.0573	3	C6H7N+
94.0414	5	C4H4N3+
95.0491	167	C4H5N3+
105.0447	105	C6H5N2+
109.065	1	C5H7N3+
120.0558	1	C6H6N3+
153.0698	1	C12H9+
169.0882	1	C12H11N+
170.0966	1	C12H12N+
198.1025	999	C12H12N3+
