Mass spectrum: Triadimefon; LC-ESI-QFT; MS2; CE: 15; R=17500; [M+H]+
Name: Triadimefon
Name: 1-(4-chlorophenoxy)-3,3-dimethyl-1-(1,2,4-triazol-1-yl)butan-2-one
Formula: C14H16ClN3O2
Exact mass: 293.0931
SMILES: CC(C)(C)C(=O)C(OC1=CC=C(Cl)C=C1)N1C=NC=N1
InChI: InChI=1S/C14H16ClN3O2/c1-14(2,3)12(19)13(18-9-16-8-17-18)20-11-6-4-10(15)5-7-11/h4-9,13H,1-3H3
Instrument: Q Exactive Orbitrap (Thermo Scientific)
Instrument type: LC-ESI-QFT
Ms type: MS2
Ion mode: POSITIVE
Ionization: ESI
Fragmentation mode: HCD
Collision energy: 15
Resolution: 17500
Column name: Acquity BEH C18 1.7um, 2.1x150mm (Waters)
Retention time: 17.637 min
Base peak: 79.0211
Precursor m/z: 294.1004
Precursor type: [M+H]+
Precursor intensity: 8729658.1875
m/z	relative intensity	assigned
57.0699	27	C4H9+
69.0699	78	C5H9+
70.04	2	C2H4N3+
87.0806	6	C5H11O+
110.9998	1	C6H4Cl+
115.0754	431	C6H11O2+
129.0103	9	C6H6ClO+
141.0102	17	C7H6ClO+
155.0259	7	C8H8ClO+
167.1055	5	C8H13N3O+
169.0049	4	C8H6ClO2+
171.1378	2	C8H17N3O+
197.0729	462	C11H14ClO+
225.0678	78	C12H14ClO2+
294.1005	999	C14H17ClN3O2+
