Mass spectrum: Tribenzylamine; LC-ESI-QFT; MS2; CE: 45; R=17500; [M+H]+
Name: Tribenzylamine
Name: N,N-dibenzyl-1-phenylmethanamine
Formula: C21H21N
Exact mass: 287.1674
SMILES: C(N(CC1=CC=CC=C1)CC1=CC=CC=C1)C1=CC=CC=C1
InChI: InChI=1S/C21H21N/c1-4-10-19(11-5-1)16-22(17-20-12-6-2-7-13-20)18-21-14-8-3-9-15-21/h1-15H,16-18H2
Instrument: Q Exactive Orbitrap (Thermo Scientific)
Instrument type: LC-ESI-QFT
Ms type: MS2
Ion mode: POSITIVE
Ionization: ESI
Fragmentation mode: HCD
Collision energy: 45
Resolution: 17500
Column name: Acquity BEH C18 1.7um, 2.1x150mm (Waters)
Retention time: 15.466 min
Base peak: 79.0211
Precursor m/z: 288.1747
Precursor type: [M+H]+
Precursor intensity: 59793478.03125
m/z	relative intensity	assigned
65.0385	8	C5H5+
91.0542	999	C7H7+
103.0544	1	C8H7+
106.065	2	C7H8N+
120.0807	11	C8H10N+
141.0698	1	C11H9+
153.0697	3	C12H9+
165.0698	6	C13H9+
166.0776	28	C13H10+
179.0855	6	C14H11+
181.1011	93	C14H13+
196.112	26	C14H14N+
288.1747	2	C21H22N+
