Mass spectrum: AM580; LC-ESI-QFT; MS2; CE: 60; R=17500; [M+H]+
Name: AM580
Name: 4-{[(5,5,8,8-Tetramethyl-5,6,7,8-tetrahydronaphthalen-2-yl)carbonyl]amino}benzoic acid
Name: 4-[(5,5,8,8-tetramethyl-6,7-dihydronaphthalene-2-carbonyl)amino]benzoic acid
Formula: C22H25NO3
Exact mass: 351.1834
SMILES: CC1(C)CCC(C)(C)C2=C1C=CC(=C2)C(=O)NC1=CC=C(C=C1)C(O)=O
InChI: InChI=1S/C22H25NO3/c1-21(2)11-12-22(3,4)18-13-15(7-10-17(18)21)19(24)23-16-8-5-14(6-9-16)20(25)26/h5-10,13H,11-12H2,1-4H3,(H,23,24)(H,25,26)
Instrument: Q Exactive Orbitrap (Thermo Scientific)
Instrument type: LC-ESI-QFT
Ms type: MS2
Ion mode: POSITIVE
Ionization: ESI
Fragmentation mode: HCD
Collision energy: 60
Resolution: 17500
Column name: Acquity BEH C18 1.7um, 2.1x150mm (Waters)
Retention time: 19.378 min
Base peak: 79.0211
Precursor m/z: 352.1907
Precursor type: [M+H]+
Precursor intensity: 7523468.75
m/z	relative intensity	assigned
53.0022	1	C3HO+
53.0387	2	C4H5+
55.0542	5	C4H7+
57.0699	9	C4H9+
65.0385	18	C5H5+
66.0464	2	C5H6+
67.0542	3	C5H7+
69.0698	16	C5H9+
71.0855	3	C5H11+
77.0386	1	C6H5+
79.0541	5	C6H7+
81.0699	8	C6H9+
83.0855	1	C6H11+
89.0386	1	C7H5+
90.0466	1	C7H6+
91.0542	171	C7H7+
92.0496	1	C6H6N+
93.0335	1	C6H5O+
93.0699	5	C7H9+
95.0491	14	C6H7O+
95.0855	5	C7H11+
103.0542	5	C8H7+
105.0699	82	C8H9+
107.0491	1	C7H7O+
107.0855	5	C8H11+
108.0443	31	C6H6NO+
111.0438	1	C6H7O2+
115.054	7	C9H7+
116.062	10	C9H8+
117.0698	26	C9H9+
118.0413	33	C8H6O+
118.0776	3	C9H10+
119.0855	79	C9H11+
120.0443	7	C7H6NO+
121.0284	21	C7H5O2+
121.0648	2	C8H9O+
121.1012	1	C9H13+
124.0757	9	C7H10NO+
128.0621	1	C10H8+
129.0697	6	C10H9+
130.0777	5	C10H10+
131.0491	103	C9H7O+
131.0855	143	C10H11+
132.0569	9	C9H8O+
132.0932	1	C10H12+
133.1012	19	C10H13+
135.044	4	C8H7O2+
135.0804	6	C9H11O+
136.0393	115	C7H6NO2+
139.0389	17	C7H7O3+
143.0854	12	C11H11+
144.0809	2	C10H10N+
144.0935	5	C11H12+
145.0648	197	C10H9O+
145.1011	156	C11H13+
146.0234	4	C8H4NO2+
146.0725	13	C10H10O+
147.0804	2	C10H11O+
147.1166	1	C11H15+
149.0963	2	C10H13O+
150.0675	8	C9H10O2+
155.0856	2	C12H11+
157.1011	17	C12H13+
158.109	10	C12H14+
159.0804	58	C11H11O+
159.1168	43	C12H15+
164.0342	71	C8H6NO3+
168.0656	3	C8H10NO3+
171.1171	1	C13H15+
172.1245	66	C13H16+
173.096	11	C12H13O+
176.0832	1	C11H12O2+
182.0965	2	C13H12N+
187.1481	13	C14H19+
192.081	1	C14H10N+
200.1195	105	C14H16O+
204.1144	44	C13H16O2+
205.1588	3	C14H21O+
208.0761	4	C14H10NO+
210.0913	7	C14H12NO+
215.143	999	C15H19O+
226.0865	3	C14H12NO2+
236.0704	4	C15H10NO2+
250.0855	4	C16H12NO2+
254.0809	6	C15H12NO3+
264.1016	10	C17H14NO2+
268.0964	11	C16H14NO3+
282.1123	18	C17H16NO3+
283.1211	1	C17H17NO3+
296.1282	2	C18H18NO3+
