Mass spectrum: Pyrithiobac; LC-ESI-QFT; MS2; CE: 45; R=17500; [M-H]-
Name: Pyrithiobac
Name: 2-chloro-6-(4,6-dimethoxypyrimidin-2-yl)sulfanylbenzoic acid
Formula: C13H11ClN2O4S
Exact mass: 326.0128
SMILES: COC1=CC(OC)=NC(SC2=C(C(O)=O)C(Cl)=CC=C2)=N1
InChI: InChI=1S/C13H11ClN2O4S/c1-19-9-6-10(20-2)16-13(15-9)21-8-5-3-4-7(14)11(8)12(17)18/h3-6H,1-2H3,(H,17,18)
Instrument: Q Exactive Orbitrap (Thermo Scientific)
Instrument type: LC-ESI-QFT
Ms type: MS2
Ion mode: NEGATIVE
Ionization: ESI
Fragmentation mode: HCD
Collision energy: 45
Resolution: 17500
Column name: Acquity BEH C18 1.7um, 2.1x150mm (Waters)
Retention time: 17.343 min
Base peak: 329.1063
Precursor m/z: 325.0055
Precursor type: [M-H]-
Precursor intensity: 1155542.171875
m/z	relative intensity	assigned
65.9985	306	C3NO-
79.0302	110	C4H3N2-
150.0115	760	C8H5ClN-
155.0463	678	C6H7N2O3-
164.9985	237	C8H4ClNO-
183.012	999	C8H7O3S-
184.0201	482	C8H8O3S-
193.0175	397	C9H6ClN2O-
216.0099	485	C11H5ClN2O-
234.0202	339	C11H7ClN2O2-
