Mass spectrum: Cotinine; LC-ESI-QFT; MS2; CE: 60; R=17500; [M+H]+
Name: Cotinine
Name: (5S)-1-methyl-5-pyridin-3-ylpyrrolidin-2-one
Formula: C10H12N2O
Exact mass: 176.0950
SMILES: CN1[C@@H](CCC1=O)C1=CN=CC=C1
InChI: InChI=1S/C10H12N2O/c1-12-9(4-5-10(12)13)8-3-2-6-11-7-8/h2-3,6-7,9H,4-5H2,1H3/t9-/m0/s1
Instrument: Q Exactive Orbitrap (Thermo Scientific)
Instrument type: LC-ESI-QFT
Ms type: MS2
Ion mode: POSITIVE
Ionization: ESI
Fragmentation mode: HCD
Collision energy: 60
Resolution: 17500
Column name: Acquity BEH C18 1.7um, 2.1x150mm (Waters)
Retention time: 2.480 min
Base peak: 79.0211
Precursor m/z: 177.1022
Precursor type: [M+H]+
Precursor intensity: 11898007.46875
m/z	relative intensity	assigned
53.0386	3	C4H5+
58.0287	4	C2H4NO+
68.0495	4	C4H6N+
69.0334	1	C4H5O+
70.0651	26	C4H8N+
80.0494	999	C5H6N+
91.0541	3	C7H7+
92.0495	1	C6H6N+
94.065	2	C6H8N+
96.0444	1	C5H6NO+
98.06	313	C5H8NO+
106.0652	3	C7H8N+
117.0573	1	C8H7N+
118.0651	36	C8H8N+
119.0729	1	C8H9N+
120.0807	22	C8H10N+
132.0803	1	C9H10N+
134.0599	1	C8H8NO+
135.0916	1	C8H11N2+
144.0681	1	C9H8N2+
146.06	59	C9H8NO+
148.0755	2	C9H10NO+
149.0709	11	C8H9N2O+
149.1075	1	C9H13N2+
159.0918	3	C10H11N2+
177.1022	276	C10H13N2O+
