Mass spectrum: Haloperidol; LC-ESI-QFT; MS2; CE: 90; R=17500; [M+H]+
Name: Haloperidol
Name: 4-[4-(4-chlorophenyl)-4-hydroxypiperidin-1-yl]-1-(4-fluorophenyl)butan-1-one
Formula: C21H23ClFNO2
Exact mass: 375.1401
SMILES: OC1(CCN(CCCC(=O)C2=CC=C(F)C=C2)CC1)C1=CC=C(Cl)C=C1
InChI: InChI=1S/C21H23ClFNO2/c22-18-7-5-17(6-8-18)21(26)11-14-24(15-12-21)13-1-2-20(25)16-3-9-19(23)10-4-16/h3-10,26H,1-2,11-15H2
Instrument: Q Exactive Orbitrap (Thermo Scientific)
Instrument type: LC-ESI-QFT
Ms type: MS2
Ion mode: POSITIVE
Ionization: ESI
Fragmentation mode: HCD
Collision energy: 90
Resolution: 17500
Column name: Acquity BEH C18 1.7um, 2.1x150mm (Waters)
Retention time: 14.655 min
Base peak: 79.0211
Precursor m/z: 376.1474
Precursor type: [M+H]+
Precursor intensity: 21769602
m/z	relative intensity	assigned
51.0229	1	C4H3+
53.0021	2	C3HO+
55.0179	1	C3H3O+
71.0291	32	C4H4F+
73.0084	1	C3H2FO+
74.015	4	C6H2+
75.0229	37	C6H3+
79.0178	9	C5H3O+
93.0335	4	C6H5O+
95.0291	22	C6H4F+
97.0449	1	C6H6F+
99.024	6	C5H4FO+
109.0448	10	C7H6F+
111.044	8	C6H7O2+
113.0397	179	C6H6FO+
115.0542	3	C9H7+
123.0247	999	C4H7ClFN+
123.0328	221	C6H5NO2+
124.0325	2	C4H8ClFN+
125.015	2	C7H6Cl+
129.0695	1	C10H9+
135.0605	1	C9H8F+
137.0153	1	C8H6Cl+
146.0529	1	C10H7F+
165.071	8	C10H10FO+
173.0512	1	C9H11ClF+
