Mass spectrum: 4-Pentylaniline; LC-ESI-QFT; MS2; CE: 60; R=17500; [M+H]+
Name: 4-Pentylaniline
Formula: C11H17N
Exact mass: 163.1361
SMILES: CCCCCC1=CC=C(N)C=C1
InChI: InChI=1S/C11H17N/c1-2-3-4-5-10-6-8-11(12)9-7-10/h6-9H,2-5,12H2,1H3
Instrument: Q Exactive Orbitrap (Thermo Scientific)
Instrument type: LC-ESI-QFT
Ms type: MS2
Ion mode: POSITIVE
Ionization: ESI
Fragmentation mode: HCD
Collision energy: 60
Resolution: 17500
Column name: Acquity BEH C18 1.7um, 2.1x150mm (Waters)
Retention time: 15.630 min
Base peak: 79.0211
Precursor m/z: 164.1434
Precursor type: [M+H]+
Precursor intensity: 19013288.25
m/z	relative intensity	assigned
51.0229	1	C4H3+
53.0386	8	C4H5+
55.0543	24	C4H7+
65.0385	6	C5H5+
66.0464	4	C5H6+
67.0543	1	C5H7+
69.0699	4	C5H9+
71.0855	11	C5H11+
77.0385	3	C6H5+
79.0543	9	C6H7+
81.0698	1	C6H9+
90.0464	6	C7H6+
91.0543	422	C7H7+
93.0574	34	C6H7N+
94.0652	861	C6H8N+
103.0543	4	C8H7+
104.0619	1	C8H8+
105.07	41	C8H9+
106.0652	53	C7H8N+
107.073	154	C7H9N+
108.081	4	C7H10N+
117.0699	2	C9H9+
119.0856	4	C9H11+
120.0809	3	C8H10N+
121.0887	3	C8H11N+
122.0967	1	C8H12N+
163.1356	2	C11H17N+
164.1435	999	C11H18N+
