Mass spectrum: 1H-Benzotriazol-1-ol; LC-ESI-QFT; MS2; CE: 75; R=17500; [M+H]+
Name: 1H-Benzotriazol-1-ol
Name: 1-hydroxybenzotriazole
Formula: C6H5N3O
Exact mass: 135.0433
SMILES: ON1N=NC2=C1C=CC=C2
InChI: InChI=1S/C6H5N3O/c10-9-6-4-2-1-3-5(6)7-8-9/h1-4,10H
Instrument: Q Exactive Orbitrap (Thermo Scientific)
Instrument type: LC-ESI-QFT
Ms type: MS2
Ion mode: POSITIVE
Ionization: ESI
Fragmentation mode: HCD
Collision energy: 75
Resolution: 17500
Column name: Acquity BEH C18 1.7um, 2.1x150mm (Waters)
Retention time: 9.600 min
Base peak: 79.0211
Precursor m/z: 136.0505
Precursor type: [M+H]+
Precursor intensity: 7826677.25
m/z	relative intensity	assigned
50.0152	1	C4H2+
52.0182	6	C3H2N+
53.0386	77	C4H5+
54.0339	3	C3H4N+
54.0465	29	C4H6+
63.0229	35	C5H3+
64.0308	45	C5H4+
65.026	21	C4H3N+
65.0386	7	C5H5+
76.0181	1	C5H2N+
77.0386	3	C6H5+
78.0464	55	C6H6+
79.0417	1	C5H5N+
80.0495	49	C5H6N+
81.0335	13	C5H5O+
82.0415	1	C5H6O+
90.0339	7	C6H4N+
91.0417	999	C6H5N+
92.0369	5	C5H4N2+
95.0492	24	C4H5N3+
96.0444	1	C5H6NO+
105.0448	13	C6H5N2+
106.0527	3	C6H6N2+
108.0442	3	C6H6NO+
119.0479	163	C6H5N3+
136.0506	245	C6H6N3O+
