Mass spectrum: Heptylparaben; LC-ESI-QFT; MS2; CE: 45; R=17500; [M-H]-
Name: Heptylparaben
Name: heptyl 4-hydroxybenzoate
Formula: C14H20O3
Exact mass: 236.1412
SMILES: CCCCCCCOC(=O)C1=CC=C(O)C=C1
InChI: InChI=1S/C14H20O3/c1-2-3-4-5-6-11-17-14(16)12-7-9-13(15)10-8-12/h7-10,15H,2-6,11H2,1H3
Instrument: Q Exactive Orbitrap (Thermo Scientific)
Instrument type: LC-ESI-QFT
Ms type: MS2
Ion mode: NEGATIVE
Ionization: ESI
Fragmentation mode: HCD
Collision energy: 45
Resolution: 17500
Column name: Acquity BEH C18 1.7um, 2.1x150mm (Waters)
Retention time: 19.502 min
Base peak: 235.1339
Precursor m/z: 235.134
Precursor type: [M-H]-
Precursor intensity: 88995611.80566
m/z	relative intensity	assigned
53.0033	1	C3HO-
65.0033	1	C4HO-
67.019	3	C4H3O-
68.9982	7	C3HO2-
69.0346	4	C4H5O-
70.006	5	C3H2O2-
71.0138	5	C3H3O2-
72.9931	3	C2HO3-
78.0111	2	C5H2O-
79.0189	5	C5H3O-
79.9903	4	C4O2-
80.9982	2	C4HO2-
82.006	23	C4H2O2-
86.0009	1	C3H2O3-
91.019	36	C6H3O-
92.0267	155	C6H4O-
93.0346	960	C6H5O-
95.0138	291	C5H3O2-
97.0295	2	C5H5O2-
106.006	15	C6H2O2-
106.0423	3	C7H6O-
107.0139	2	C6H3O2-
108.0217	259	C6H4O2-
113.0972	27	C7H13O-
119.0138	37	C7H3O2-
121.0295	32	C7H5O2-
123.0087	34	C6H3O3-
136.0165	999	C7H4O3-
137.0243	773	C7H5O3-
191.1441	6	C13H19O-
235.1339	698	C14H19O3-
