Mass spectrum: Clomazone; LC-ESI-QFT; MS2; CE: 60; R=17500; [M+H]+
Name: Clomazone
Name: 2-[(2-chlorophenyl)methyl]-4,4-dimethyl-1,2-oxazolidin-3-one
Formula: C12H14ClNO2
Exact mass: 239.0713
SMILES: CC1(C)CON(CC2=C(Cl)C=CC=C2)C1=O
InChI: InChI=1S/C12H14ClNO2/c1-12(2)8-16-14(11(12)15)7-9-5-3-4-6-10(9)13/h3-6H,7-8H2,1-2H3
Instrument: Q Exactive Orbitrap (Thermo Scientific)
Instrument type: LC-ESI-QFT
Ms type: MS2
Ion mode: POSITIVE
Ionization: ESI
Fragmentation mode: HCD
Collision energy: 60
Resolution: 17500
Column name: Acquity BEH C18 1.7um, 2.1x150mm (Waters)
Retention time: 16.986 min
Base peak: 79.0211
Precursor m/z: 240.0786
Precursor type: [M+H]+
Precursor intensity: 7413910.75
m/z	relative intensity	assigned
55.0542	2	C4H7+
63.0229	1	C5H3+
72.0444	3	C3H6NO+
89.0385	17	C7H5+
90.0466	2	C7H6+
91.0542	2	C7H7+
98.9995	5	C5H4Cl+
125.0152	999	C7H6Cl+
134.0964	98	C9H12N+
152.0622	3	C12H8+
165.0699	3	C7H14ClO2+
166.0777	1	C7H15ClO2+
