Mass spectrum: SB243213A; LC-ESI-QFT; MS2; CE: 30; R=17500; [M+H]+
Name: SB243213A
Name: SB 243213
Name: 5-methyl-N-[6-(2-methylpyridin-3-yl)oxypyridin-3-yl]-6-(trifluoromethyl)-2,3-dihydroindole-1-carboxamide
Formula: C22H19F3N4O2
Exact mass: 428.1460
SMILES: CC1=CC2=C(C=C1C(F)(F)F)N(CC2)C(=O)NC1=CC=C(OC2=CC=CN=C2C)N=C1
InChI: InChI=1S/C22H19F3N4O2/c1-13-10-15-7-9-29(18(15)11-17(13)22(23,24)25)21(30)28-16-5-6-20(27-12-16)31-19-4-3-8-26-14(19)2/h3-6,8,10-12H,7,9H2,1-2H3,(H,28,30)
Instrument: Q Exactive Orbitrap (Thermo Scientific)
Instrument type: LC-ESI-QFT
Ms type: MS2
Ion mode: POSITIVE
Ionization: ESI
Fragmentation mode: HCD
Collision energy: 30
Resolution: 17500
Column name: Acquity BEH C18 1.7um, 2.1x150mm (Waters)
Retention time: 18.000 min
Base peak: 79.0211
Precursor m/z: 429.1533
Precursor type: [M+H]+
Precursor intensity: 27355671.625
m/z	relative intensity	assigned
93.0574	1	C6H7N+
110.0599	4	C6H8NO+
202.0837	3	C10H11F3N+
228.0765	999	C12H10N3O2+
429.1533	136	C22H20F3N4O2+
