Mass spectrum: 3-Amino-4-methylbenzamide; LC-ESI-QFT; MS2; CE: 30; R=17500; [M+H]+
Name: 3-Amino-4-methylbenzamide
Formula: C8H10N2O
Exact mass: 150.0793
SMILES: CC1=C(N)C=C(C=C1)C(N)=O
InChI: InChI=1S/C8H10N2O/c1-5-2-3-6(8(10)11)4-7(5)9/h2-4H,9H2,1H3,(H2,10,11)
Instrument: Q Exactive Orbitrap (Thermo Scientific)
Instrument type: LC-ESI-QFT
Ms type: MS2
Ion mode: POSITIVE
Ionization: ESI
Fragmentation mode: HCD
Collision energy: 30
Resolution: 17500
Column name: Acquity BEH C18 1.7um, 2.1x150mm (Waters)
Retention time: 4.498 min
Base peak: 79.0211
Precursor m/z: 151.0866
Precursor type: [M+H]+
Precursor intensity: 4979952.71875
m/z	relative intensity	assigned
108.081	3	C7H10N+
120.0808	5	C8H10N+
121.0887	18	C8H11N+
133.076	7	C8H9N2+
134.0839	85	C8H10N2+
151.0866	999	C8H11N2O+
