Mass spectrum: 2-Chloro-N,N-dimethyl-3-oxobutanamide; LC-ESI-QFT; MS2; CE: 90; R=17500; [M+H]+
Name: 2-Chloro-N,N-dimethyl-3-oxobutanamide
Formula: C6H10ClNO2
Exact mass: 163.0400
SMILES: CN(C)C(=O)C(Cl)C(C)=O
InChI: InChI=1S/C6H10ClNO2/c1-4(9)5(7)6(10)8(2)3/h5H,1-3H3
Instrument: Q Exactive Orbitrap (Thermo Scientific)
Instrument type: LC-ESI-QFT
Ms type: MS2
Ion mode: POSITIVE
Ionization: ESI
Fragmentation mode: HCD
Collision energy: 90
Resolution: 17500
Column name: Acquity BEH C18 1.7um, 2.1x150mm (Waters)
Retention time: 8.382 min
Base peak: 79.0211
Precursor m/z: 164.0473
Precursor type: [M+H]+
Precursor intensity: 1586164.25
m/z	relative intensity	assigned
56.0131	30	C2H2NO+
58.0652	21	C3H8N+
72.0444	999	C3H6NO+
79.0542	21	C6H7+
94.0652	23	C6H8N+
95.0493	26	C6H7O+
104.0263	14	C4H7ClN+
109.0524	12	C6H7NO+
122.037	8	C4H9ClNO+
150.0426	24	C6H11ClO2+
