Mass spectrum: Ipconazole; LC-ESI-QFT; MS2; CE: 45; R=17500; [M+H]+
Name: Ipconazole
Name: 2-[(4-chlorophenyl)methyl]-5-propan-2-yl-1-(1,2,4-triazol-1-ylmethyl)cyclopentan-1-ol
Formula: C18H24ClN3O
Exact mass: 333.1608
SMILES: CC(C)C1CCC(CC2=CC=C(Cl)C=C2)C1(O)CN1C=NC=N1
InChI: InChI=1S/C18H24ClN3O/c1-13(2)17-8-5-15(9-14-3-6-16(19)7-4-14)18(17,23)10-22-12-20-11-21-22/h3-4,6-7,11-13,15,17,23H,5,8-10H2,1-2H3
Instrument: Q Exactive Orbitrap (Thermo Scientific)
Instrument type: LC-ESI-QFT
Ms type: MS2
Ion mode: POSITIVE
Ionization: ESI
Fragmentation mode: HCD
Collision energy: 45
Resolution: 17500
Column name: Acquity BEH C18 1.7um, 2.1x150mm (Waters)
Retention time: 19.299 min
Base peak: 79.0211
Precursor m/z: 334.1681
Precursor type: [M+H]+
Precursor intensity: 21505618.89062
m/z	relative intensity	assigned
55.0543	1	C4H7+
59.049	1	C3H7O+
67.0542	4	C5H7+
69.0698	1	C5H9+
70.0399	999	C2H4N3+
79.0542	1	C6H7+
81.0699	3	C6H9+
83.0854	1	C6H11+
95.0854	4	C7H11+
109.1012	10	C8H13+
121.1012	1	C9H13+
125.0153	71	C7H6Cl+
139.0309	3	C8H8Cl+
151.031	6	C9H8Cl+
163.0308	7	C10H8Cl+
165.0464	2	C10H10Cl+
177.0465	5	C11H10Cl+
191.0621	7	C12H12Cl+
334.1683	1	C18H25ClN3O+
