Mass spectrum: Tomelukast; LC-ESI-QFT; MS2; CE: 90; R=17500; [M+H]+
Name: Tomelukast
Name: 1-[2-hydroxy-3-propyl-4-[4-(2H-tetrazol-5-yl)butoxy]phenyl]ethanone
Formula: C16H22N4O3
Exact mass: 318.1692
SMILES: CCCC1=C(OCCCCC2=NN=NN2)C=CC(C(C)=O)=C1O
InChI: InChI=1S/C16H22N4O3/c1-3-6-13-14(9-8-12(11(2)21)16(13)22)23-10-5-4-7-15-17-19-20-18-15/h8-9,22H,3-7,10H2,1-2H3,(H,17,18,19,20)
Instrument: Q Exactive Orbitrap (Thermo Scientific)
Instrument type: LC-ESI-QFT
Ms type: MS2
Ion mode: POSITIVE
Ionization: ESI
Fragmentation mode: HCD
Collision energy: 90
Resolution: 17500
Column name: Acquity BEH C18 1.7um, 2.1x150mm (Waters)
Retention time: 17.693 min
Base peak: 79.0211
Precursor m/z: 319.1765
Precursor type: [M+H]+
Precursor intensity: 9931378
m/z	relative intensity	assigned
53.0022	41	C3HO+
53.0386	288	C4H5+
54.0339	123	C3H4N+
55.0291	999	C2H3N2+
55.0543	390	C4H7+
56.0495	85	C3H6N+
57.0448	10	C2H5N2+
57.0574	13	C3H7N+
58.0651	52	C3H8N+
65.0386	188	C5H5+
67.0542	247	C5H7+
68.0495	82	C4H6N+
69.0447	284	C3H5N2+
70.0651	23	C4H8N+
77.0386	33	C6H5+
79.0543	189	C6H7+
80.0495	137	C5H6N+
81.0574	21	C5H7N+
81.0699	17	C6H9+
82.0526	53	C4H6N2+
82.0652	184	C5H8N+
83.0489	10	C5H7O+
83.0605	10	C4H7N2+
89.0386	140	C7H5+
91.0543	532	C7H7+
93.0336	29	C6H5O+
93.07	37	C7H9+
95.0491	182	C6H7O+
97.0762	67	C5H9N2+
99.0918	11	C5H11N2+
103.0543	198	C8H7+
104.0496	31	C7H6N+
105.0337	17	C7H5O+
105.0449	75	C6H5N2+
105.0699	57	C8H9+
107.0492	180	C7H7O+
109.0649	13	C7H9O+
111.044	132	C6H7O2+
115.0544	104	C9H7+
116.0494	122	C8H6N+
116.0622	17	C9H8+
117.0699	41	C9H9+
119.0492	82	C8H7O+
121.065	34	C8H9O+
123.0442	99	C7H7O2+
125.0823	261	C5H9N4+
128.0496	40	C9H6N+
128.0622	76	C10H8+
129.0447	32	C8H5N2+
129.07	28	C10H9+
130.0651	34	C9H8N+
131.0492	156	C9H7O+
132.0447	25	C8H6NO+
133.0648	26	C9H9O+
134.0359	10	C8H6O2+
134.0602	20	C8H8NO+
135.044	43	C8H7O2+
137.0601	27	C8H9O2+
144.0446	32	C9H6NO+
145.0649	34	C10H9O+
147.0441	207	C9H7O2+
147.0807	11	C10H11O+
148.0392	12	C8H6NO2+
149.0595	22	C9H9O2+
156.0443	82	C10H6NO+
159.0444	18	C10H7O2+
160.052	38	C10H8O2+
161.0598	30	C10H9O2+
165.0549	22	C9H9O3+
171.0441	21	C11H7O2+
172.0392	65	C10H6NO2+
174.0675	11	C11H10O2+
177.0549	72	C10H9O3+
177.0914	13	C11H13O2+
179.0713	10	C10H11O3+
184.0394	17	C11H6NO2+
186.0552	17	C11H8NO2+
189.091	13	C12H13O2+
