Mass spectrum: Octrizole; LC-ESI-QFT; MS2; CE: 90; R=17500; [M+H]+
Name: Octrizole
Name: 2-(benzotriazol-2-yl)-4-(2,4,4-trimethylpentan-2-yl)phenol
Formula: C20H25N3O
Exact mass: 323.1998
SMILES: CC(C)(C)CC(C)(C)C1=CC(N2N=C3C=CC=CC3=N2)=C(O)C=C1
InChI: InChI=1S/C20H25N3O/c1-19(2,3)13-20(4,5)14-10-11-18(24)17(12-14)23-21-15-8-6-7-9-16(15)22-23/h6-12,24H,13H2,1-5H3
Instrument: Q Exactive Orbitrap (Thermo Scientific)
Instrument type: LC-ESI-QFT
Ms type: MS2
Ion mode: POSITIVE
Ionization: ESI
Fragmentation mode: HCD
Collision energy: 90
Resolution: 17500
Column name: Acquity BEH C18 1.7um, 2.1x150mm (Waters)
Retention time: 22.623 min
Base peak: 79.0211
Precursor m/z: 324.207
Precursor type: [M+H]+
Precursor intensity: 751095.484375
m/z	relative intensity	assigned
53.0022	31	C3HO+
55.0542	59	C4H7+
57.0699	473	C4H9+
58.0652	55	C3H8N+
65.0386	674	C5H5+
79.0543	77	C6H7+
80.0494	62	C5H6N+
91.0417	20	C6H5N+
91.0543	162	C7H7+
92.0495	999	C6H6N+
95.0493	36	C6H7O+
103.0542	40	C8H7+
105.0699	196	C8H9+
107.0491	65	C7H7O+
107.0606	21	C6H7N2+
110.0602	48	C6H8NO+
119.0491	55	C8H7O+
119.0606	47	C7H7N2+
120.0557	120	C6H6N3+
121.0649	56	C8H9O+
128.0622	17	C10H8+
129.07	22	C10H9+
133.0649	179	C9H9O+
134.0727	28	C9H10O+
139.0548	26	C11H7+
156.0804	20	C11H10N+
165.0702	35	C13H9+
167.0732	83	C12H9N+
180.0809	33	C13H10N+
182.0965	22	C13H12N+
183.0681	67	C12H9NO+
196.0757	48	C13H10NO+
209.0836	42	C14H11NO+
210.0913	36	C14H12NO+
252.1144	22	C15H14N3O+
