Mass spectrum: Megestrol acetate; LC-ESI-QFT; MS2; CE: 90; R=17500; [M+H]+
Name: Megestrol acetate
Formula: C24H32O4
Exact mass: 384.2301
SMILES: CC(=O)O[C@@]1(CC[C@H]2[C@@H]3C=C(C)C4=CC(=O)CC[C@]4(C)[C@H]3CC[C@]12C)C(C)=O
InChI: InChI=1S/C24H32O4/c1-14-12-18-19(22(4)9-6-17(27)13-21(14)22)7-10-23(5)20(18)8-11-24(23,15(2)25)28-16(3)26/h12-13,18-20H,6-11H2,1-5H3/t18-,19+,20+,22-,23+,24+/m1/s1
Instrument: Q Exactive Orbitrap (Thermo Scientific)
Instrument type: LC-ESI-QFT
Ms type: MS2
Ion mode: POSITIVE
Ionization: ESI
Fragmentation mode: HCD
Collision energy: 90
Resolution: 17500
Column name: Acquity BEH C18 1.7um, 2.1x150mm (Waters)
Retention time: 18.444 min
Base peak: 79.0211
Precursor m/z: 385.2373
Precursor type: [M+H]+
Precursor intensity: 7754677.75
m/z	relative intensity	assigned
53.0021	24	C3HO+
53.0386	54	C4H5+
55.0178	55	C3H3O+
55.0542	166	C4H7+
57.0698	21	C4H9+
59.0491	37	C3H7O+
65.0385	53	C5H5+
67.0542	185	C5H7+
69.0333	19	C4H5O+
69.0699	44	C5H9+
71.0491	7	C4H7O+
77.0385	16	C6H5+
79.0542	294	C6H7+
81.0698	135	C6H9+
83.0491	186	C5H7O+
91.0542	670	C7H7+
93.0699	224	C7H9+
95.0491	125	C6H7O+
95.0855	54	C7H11+
97.0648	257	C6H9O+
103.0542	82	C8H7+
105.0699	632	C8H9+
107.0491	63	C7H7O+
107.0854	86	C8H11+
109.0648	48	C7H9O+
109.1009	12	C8H13+
111.0805	13	C7H11O+
115.0542	147	C9H7+
116.0621	51	C9H8+
117.0699	203	C9H9+
118.0781	12	C9H10+
119.0855	268	C9H11+
121.0648	83	C8H9O+
121.1012	26	C9H13+
123.0804	19	C8H11O+
128.062	279	C10H8+
129.0698	310	C10H9+
130.0777	118	C10H10+
131.0855	249	C10H11+
132.0568	13	C9H8O+
132.0932	11	C10H12+
133.0647	31	C9H9O+
133.1011	123	C10H13+
135.0801	11	C9H11O+
137.0962	8	C9H13O+
141.0698	319	C11H9+
142.0777	334	C11H10+
143.0855	229	C11H11+
144.0569	21	C10H8O+
144.0934	53	C11H12+
145.0648	118	C10H9O+
145.1012	160	C11H13+
146.0725	26	C10H10O+
147.0804	37	C10H11O+
147.1167	39	C11H15+
152.062	62	C12H8+
153.0698	230	C12H9+
154.0776	119	C12H10+
155.0855	398	C12H11+
156.0933	122	C12H12+
157.0649	65	C11H9O+
157.1012	132	C12H13+
158.0724	39	C11H10O+
158.1087	9	C12H14+
159.0805	77	C11H11O+
159.1167	33	C12H15+
160.0883	90	C11H12O+
161.096	34	C11H13O+
165.0699	329	C13H9+
166.0777	125	C13H10+
167.0855	522	C13H11+
168.0934	176	C13H12+
169.1012	363	C13H13+
170.0725	13	C12H10O+
170.1091	54	C13H14+
171.0804	61	C12H11O+
171.1168	68	C13H15+
172.0881	46	C12H12O+
173.0959	110	C12H13O+
174.1042	8	C12H14O+
175.1115	36	C12H15O+
178.0777	167	C14H10+
179.0855	999	C14H11+
180.0932	172	C14H12+
181.1011	365	C14H13+
182.1091	97	C14H14+
183.1169	304	C14H15+
184.1245	15	C14H16+
185.096	17	C13H13O+
185.1324	47	C14H17+
187.1118	30	C13H15O+
190.0776	21	C15H10+
191.0853	72	C15H11+
192.0932	135	C15H12+
193.1012	406	C15H13+
194.1091	852	C15H14+
195.1169	255	C15H15+
196.1248	74	C15H16+
197.0961	22	C14H13O+
197.1325	114	C15H17+
198.104	13	C14H14O+
198.1398	7	C15H18+
199.1116	11	C14H15O+
199.148	10	C15H19+
203.0853	36	C16H11+
204.0935	55	C16H12+
205.1012	93	C16H13+
206.1088	52	C16H14+
207.1169	178	C16H15+
208.1246	140	C16H16+
209.1325	574	C16H17+
210.1044	11	C15H14O+
210.1402	39	C16H18+
211.1119	44	C15H15O+
211.148	60	C16H19+
212.1194	28	C15H16O+
213.1273	7	C15H17O+
217.1012	18	C17H13+
218.1089	17	C17H14+
219.1166	113	C17H15+
220.1248	32	C17H16+
221.1325	55	C17H17+
222.1038	9	C16H14O+
222.1411	6	C17H18+
223.112	24	C16H15O+
223.148	134	C17H19+
224.1201	11	C16H16O+
224.1558	15	C17H20+
225.1275	27	C16H17O+
225.1639	8	C17H21+
231.117	8	C18H15+
233.1325	28	C18H17+
234.1397	30	C18H18+
235.1473	32	C18H19+
236.1199	13	C17H16O+
237.1274	63	C17H17O+
238.1355	19	C17H18O+
239.1429	15	C17H19O+
244.1245	6	C19H16+
249.164	47	C19H21+
251.1428	40	C18H19O+
252.1509	20	C18H20O+
265.159	9	C19H21O+
266.1659	6	C19H22O+
267.1743	59	C19H23O+
