Mass spectrum: Nuarimol; LC-ESI-QFT; MS2; CE: 60; R=17500; [M-H]-
Name: Nuarimol
Name: (2-chlorophenyl)-(4-fluorophenyl)-pyrimidin-5-ylmethanol
Formula: C17H12ClFN2O
Exact mass: 314.0622
SMILES: OC(C1=CC=C(F)C=C1)(C1=CN=CN=C1)C1=CC=CC=C1Cl
InChI: InChI=1S/C17H12ClFN2O/c18-16-4-2-1-3-15(16)17(22,13-9-20-11-21-10-13)12-5-7-14(19)8-6-12/h1-11,22H
Instrument: Q Exactive Orbitrap (Thermo Scientific)
Instrument type: LC-ESI-QFT
Ms type: MS2
Ion mode: NEGATIVE
Ionization: ESI
Fragmentation mode: HCD
Collision energy: 60
Resolution: 17500
Column name: Acquity BEH C18 1.7um, 2.1x150mm (Waters)
Retention time: 17.326 min
Base peak: 112.9856
Precursor m/z: 313.0549
Precursor type: [M-H]-
Precursor intensity: 1575422.804688
m/z	relative intensity	assigned
57.0346	254	C3H5O-
59.0502	74	C3H7O-
101.0397	12	C8H5-
117.0346	28	C8H5O-
127.0554	23	C10H7-
137.0395	9	C11H5-
139.0554	104	C11H7-
141.0707	25	C11H9-
156.0581	197	C11H8O-
165.0346	816	C12H5O-
167.0503	44	C12H7O-
169.0659	999	C12H9O-
171.0452	185	C8H10ClNO-
182.0375	25	C9H9ClNO-
183.0452	100	C9H10ClNO-
184.0528	69	C9H11ClNO-
198.0559	18	C9H11ClN2O-
199.0404	39	C15H5N-
