Mass spectrum: 4,4`-Methylenebis(N,N-dimethylaniline); LC-ESI-QFT; MS2; CE: 45; R=17500; [M+H]+
Name: 4,4'-Methylenebis(N,N-dimethylaniline)
Name: 4-[[4-(dimethylamino)phenyl]methyl]-N,N-dimethylaniline
Formula: C17H22N2
Exact mass: 254.1783
SMILES: CN(C)C1=CC=C(CC2=CC=C(C=C2)N(C)C)C=C1
InChI: InChI=1S/C17H22N2/c1-18(2)16-9-5-14(6-10-16)13-15-7-11-17(12-8-15)19(3)4/h5-12H,13H2,1-4H3
Instrument: Q Exactive Orbitrap (Thermo Scientific)
Instrument type: LC-ESI-QFT
Ms type: MS2
Ion mode: POSITIVE
Ionization: ESI
Fragmentation mode: HCD
Collision energy: 45
Resolution: 17500
Column name: Acquity BEH C18 1.7um, 2.1x150mm (Waters)
Retention time: 10.439 min
Base peak: 79.0212
Precursor m/z: 255.1856
Precursor type: [M+H]+
Precursor intensity: 26953001.9375
m/z	relative intensity	assigned
118.0649	2	C8H8N+
119.073	4	C8H9N+
120.0807	20	C8H10N+
121.0886	23	C8H11N+
122.0964	3	C8H12N+
132.081	1	C9H10N+
133.0886	3	C9H11N+
134.0964	128	C9H12N+
194.0963	1	C14H12N+
195.1042	2	C14H13N+
196.1121	152	C14H14N+
209.12	1	C15H15N+
210.1277	80	C15H16N+
224.1312	1	C15H16N2+
225.1386	37	C15H17N2+
239.1544	273	C16H19N2+
240.162	999	C16H20N2+
255.1855	208	C17H23N2+
