Mass spectrum: Triamcinolone; LC-ESI-QFT; MS2; CE: 15; R=17500; [M-H]-
Name: Triamcinolone
Name: (8S,9R,10S,11S,13S,14S,16R,17S)-9-fluoro-11,16,17-trihydroxy-17-(2-hydroxyacetyl)-10,13-dimethyl-6,7,8,11,12,14,15,16-octahydrocyclopenta[a]phenanthren-3-one
Formula: C21H27FO6
Exact mass: 394.1792
SMILES: C[C@]12C[C@H](O)[C@@]3(F)[C@@H](CCC4=CC(=O)C=C[C@]34C)[C@@H]1C[C@@H](O)[C@]2(O)C(=O)CO
InChI: InChI=1S/C21H27FO6/c1-18-6-5-12(24)7-11(18)3-4-13-14-8-15(25)21(28,17(27)10-23)19(14,2)9-16(26)20(13,18)22/h5-7,13-16,23,25-26,28H,3-4,8-10H2,1-2H3/t13-,14-,15+,16-,18-,19-,20-,21-/m0/s1
Instrument: Q Exactive Orbitrap (Thermo Scientific)
Instrument type: LC-ESI-QFT
Ms type: MS2
Ion mode: NEGATIVE
Ionization: ESI
Fragmentation mode: HCD
Collision energy: 15
Resolution: 17500
Column name: Acquity BEH C18 1.7um, 2.1x150mm (Waters)
Retention time: 14.609 min
Base peak: 288.1355
Precursor m/z: 393.1719
Precursor type: [M-H]-
Precursor intensity: 4907099.13916
m/z	relative intensity	assigned
295.134	1	C19H19O3-
310.12	1	C19H18O4-
313.1444	9	C19H21O4-
325.1447	330	C20H21O4-
337.1447	35	C21H21O4-
345.1508	999	C20H22FO4-
357.1518	3	C21H22FO4-
375.1608	15	C21H24FO5-
