Mass spectrum: 3,4-Dichlorophenylurea; LC-ESI-QFT; MS2; CE: 75; R=17500; [M-H]-
Name: 3,4-Dichlorophenylurea
Name: 1-(3,4-Dichlorophenyl)urea
Name: (3,4-dichlorophenyl)urea
Formula: C7H6Cl2N2O
Exact mass: 203.9857
SMILES: NC(=O)NC1=CC=C(Cl)C(Cl)=C1
InChI: InChI=1S/C7H6Cl2N2O/c8-5-2-1-4(3-6(5)9)11-7(10)12/h1-3H,(H3,10,11,12)
Instrument: Q Exactive Orbitrap (Thermo Scientific)
Instrument type: LC-ESI-QFT
Ms type: MS2
Ion mode: NEGATIVE
Ionization: ESI
Fragmentation mode: HCD
Collision energy: 75
Resolution: 17500
Column name: Acquity BEH C18 1.7um, 2.1x150mm (Waters)
Retention time: 16.458 min
Base peak: 275.8488
Precursor m/z: 202.9784
Precursor type: [M-H]-
Precursor intensity: 17724245.85059
m/z	relative intensity	assigned
88.0193	220	C6H2N-
113.0143	15	C7HN2-
123.9959	415	C6H3ClN-
148.9912	25	C7H2ClN2-
159.9726	999	C6H4Cl2N-
184.9676	34	C7H3Cl2N2-
