Mass spectrum: Buprofezin; LC-ESI-QFT; MS2; CE: 15; R=17500; [M+H]+
Name: Buprofezin
Name: 2-tert-butylimino-5-phenyl-3-propan-2-yl-1,3,5-thiadiazinan-4-one
Formula: C16H23N3OS
Exact mass: 305.1562
SMILES: CC(C)N1C(SCN(C1=O)C1=CC=CC=C1)=NC(C)(C)C
InChI: InChI=1S/C16H23N3OS/c1-12(2)19-14(17-16(3,4)5)21-11-18(15(19)20)13-9-7-6-8-10-13/h6-10,12H,11H2,1-5H3
Instrument: Q Exactive Orbitrap (Thermo Scientific)
Instrument type: LC-ESI-QFT
Ms type: MS2
Ion mode: POSITIVE
Ionization: ESI
Fragmentation mode: HCD
Collision energy: 15
Resolution: 17500
Column name: Acquity BEH C18 1.7um, 2.1x150mm (Waters)
Retention time: 19.254 min
Base peak: 79.0212
Precursor m/z: 306.1635
Precursor type: [M+H]+
Precursor intensity: 46397318.42187
m/z	relative intensity	assigned
57.0699	96	C4H9+
85.0761	2	C4H9N2+
86.0599	2	C4H8NO+
106.0652	40	C7H8N+
116.0529	189	C5H10NS+
141.1387	8	C8H17N2+
142.1228	2	C8H16NO+
145.043	19	C5H9N2OS+
201.1057	999	C9H17N2OS+
208.0538	3	C9H10N3OS+
250.101	34	C12H16N3OS+
264.1171	2	C13H18N3OS+
306.1636	355	C16H24N3OS+
