Mass spectrum: Isoxaben; LC-ESI-QFT; MS2; CE: 45; R=17500; [M+H]+
Name: Isoxaben
Name: 2,6-dimethoxy-N-[3-(3-methylpentan-3-yl)-1,2-oxazol-5-yl]benzamide
Formula: C18H24N2O4
Exact mass: 332.1736
SMILES: CCC(C)(CC)C1=NOC(NC(=O)C2=C(OC)C=CC=C2OC)=C1
InChI: InChI=1S/C18H24N2O4/c1-6-18(3,7-2)14-11-15(24-20-14)19-17(21)16-12(22-4)9-8-10-13(16)23-5/h8-11H,6-7H2,1-5H3,(H,19,21)
Instrument: Q Exactive Orbitrap (Thermo Scientific)
Instrument type: LC-ESI-QFT
Ms type: MS2
Ion mode: POSITIVE
Ionization: ESI
Fragmentation mode: HCD
Collision energy: 45
Resolution: 17500
Column name: Acquity BEH C18 1.7um, 2.1x150mm (Waters)
Retention time: 17.390 min
Base peak: 79.0212
Precursor m/z: 333.1809
Precursor type: [M+H]+
Precursor intensity: 22559233.75
m/z	relative intensity	assigned
79.0542	3	C6H7+
85.1011	2	C6H13+
107.0124	1	C6H3O2+
107.0491	4	C7H7O+
109.0648	1	C7H9O+
122.0361	3	C7H6O2+
135.0438	1	C8H7O2+
137.06	1	C8H9O2+
150.0311	18	C8H6O3+
165.0545	999	C9H9O3+
168.0415	16	C8H8O4+
182.0568	1	C9H10O4+
