Mass spectrum: Azathioprine; LC-ESI-QFT; MS2; CE: 60; R=17500; [M-H]-
Name: Azathioprine
Name: 6-(3-methyl-5-nitroimidazol-4-yl)sulfanyl-7H-purine
Formula: C9H7N7O2S
Exact mass: 277.0382
SMILES: CN1C=NC(=C1SC1=NC=NC2=C1NC=N2)[N+]([O-])=O
InChI: InChI=1S/C9H7N7O2S/c1-15-4-14-7(16(17)18)9(15)19-8-5-6(11-2-10-5)12-3-13-8/h2-4H,1H3,(H,10,11,12,13)
Instrument: Q Exactive Orbitrap (Thermo Scientific)
Instrument type: LC-ESI-QFT
Ms type: MS2
Ion mode: NEGATIVE
Ionization: ESI
Fragmentation mode: HCD
Collision energy: 60
Resolution: 17500
Column name: Acquity BEH C18 1.7um, 2.1x150mm (Waters)
Retention time: 10.668 min
Base peak: 276.0308
Precursor m/z: 276.0309
Precursor type: [M-H]-
Precursor intensity: 14767538.54785
m/z	relative intensity	assigned
55.0301	4	C2H3N2-
56.9803	1	C2HS-
57.9757	43	CNS-
61.9707	1	NOS-
63.9625	1	O2S-
65.0145	5	C3HN2-
66.0098	12	C2N3-
67.0303	1	C3H3N2-
69.0095	4	C2HN2O-
69.9758	1	C2NS-
70.9835	1	C2HNS-
73.9706	32	CNOS-
79.0177	9	C3HN3-
81.9757	20	C3NS-
82.0411	1	C3H4N3-
85.9705	7	C2NOS-
90.0098	47	C4N3-
92.0253	7	C4H2N3-
93.0207	2	C3HN4-
94.0047	2	C3N3O-
95.9787	1	C3N2S-
96.9865	4	C3HN2S-
97.9944	10	C3H2N2S-
106.0286	7	C4H2N4-
107.0125	19	C4HN3O-
108.9865	2	C4HN2S-
109.9819	3	C3N3S-
111.0022	22	C4H3N2S-
112.0101	21	C4H4N2S-
112.0151	3	C3H2N3O2-
112.9815	25	C3HN2OS-
113.9894	3	C3H2N2OS-
114.9973	1	C3H3N2OS-
117.0207	276	C5HN4-
118.0283	1	C5H2N4-
118.0414	1	C6H4N3-
119.0364	3	C5H3N4-
123.9974	18	C4H2N3S-
126.9847	9	C3HN3OS-
128.005	42	C4H4N2OS-
131.0236	1	C5HN5-
132.0441	21	C6H4N4-
133.0154	1	C5HN4O-
134.0234	90	C5H2N4O-
135.9973	7	C5H2N3S-
136.0154	2	C5H2N3O2-
138.9846	6	C4HN3OS-
142.9794	18	C3HN3O2S-
143.0364	2	C7H3N4-
143.9875	10	C3H2N3O2S-
144.0315	32	C6H2N5-
145.0523	2	C7H5N4-
147.9976	1	C6H2N3S-
148.9924	1	C5HN4S-
150.0005	6	C5H2N4S-
151.0084	12	C5H3N4S-
151.9924	4	C5H2N3OS-
157.0392	2	C7H3N5-
158.0029	999	C4H4N3O2S-
163.0084	2	C6H3N4S-
164.034	3	C6H4N4O2-
168.0319	1	C8H2N5-
170.0475	3	C8H4N5-
172.0268	1	C7H2N5O-
175.0085	1	C7H3N4S-
176.0163	2	C7H4N4S-
182.0345	1	C8H2N6-
183.0429	4	C8H3N6-
184.0378	1	C7H2N7-
195.0424	1	C9H3N6-
197.0582	4	C9H5N6-
202.0194	2	C8H4N5S-
214.0069	3	C8H2N6S-
215.0144	7	C8H3N6S-
229.0303	10	C9H5N6S-
