Mass spectrum: Corticosterone; LC-ESI-QFT; MS2; CE: 15; R=17500; [M+H]+
Name: Corticosterone
Name: (8S,9S,10R,11S,13S,14S,17S)-11-hydroxy-17-(2-hydroxyacetyl)-10,13-dimethyl-1,2,6,7,8,9,11,12,14,15,16,17-dodecahydrocyclopenta[a]phenanthren-3-one
Formula: C21H30O4
Exact mass: 346.2144
SMILES: C[C@]12C[C@H](O)[C@H]3[C@@H](CCC4=CC(=O)CC[C@]34C)[C@@H]1CC[C@@H]2C(=O)CO
InChI: InChI=1S/C21H30O4/c1-20-8-7-13(23)9-12(20)3-4-14-15-5-6-16(18(25)11-22)21(15,2)10-17(24)19(14)20/h9,14-17,19,22,24H,3-8,10-11H2,1-2H3/t14-,15-,16+,17-,19+,20-,21-/m0/s1
Instrument: Q Exactive Orbitrap (Thermo Scientific)
Instrument type: LC-ESI-QFT
Ms type: MS2
Ion mode: POSITIVE
Ionization: ESI
Fragmentation mode: HCD
Collision energy: 15
Resolution: 17500
Column name: Acquity BEH C18 1.7um, 2.1x150mm (Waters)
Retention time: 16.831 min
Base peak: 79.0211
Precursor m/z: 347.2217
Precursor type: [M+H]+
Precursor intensity: 623021.8125
m/z	relative intensity	assigned
97.0649	7	C6H9O+
101.0597	5	C5H9O2+
121.0648	23	C8H9O+
123.0806	5	C8H11O+
193.1228	4	C12H17O2+
229.1585	4	C16H21O+
251.1798	5	C19H23+
253.1584	4	C18H21O+
265.1953	4	C20H25+
269.1899	6	C19H25O+
271.2057	5	C19H27O+
275.1782	3	C21H23+
281.1897	5	C20H25O+
283.2053	5	C20H27O+
293.1902	24	C21H25O+
311.2004	38	C21H27O2+
329.2115	129	C21H29O3+
347.2219	999	C21H31O4+
