Mass spectrum: Propamocarb; LC-ESI-QFT; MS2; CE: 45; R=17500; [M+H]+
Name: Propamocarb
Name: propyl N-[3-(dimethylamino)propyl]carbamate
Formula: C9H20N2O2
Exact mass: 188.1525
SMILES: CCCOC(=O)NCCCN(C)C
InChI: InChI=1S/C9H20N2O2/c1-4-8-13-9(12)10-6-5-7-11(2)3/h4-8H2,1-3H3,(H,10,12)
Instrument: Q Exactive Orbitrap (Thermo Scientific)
Instrument type: LC-ESI-QFT
Ms type: MS2
Ion mode: POSITIVE
Ionization: ESI
Fragmentation mode: HCD
Collision energy: 45
Resolution: 17500
Column name: Acquity BEH C18 1.7um, 2.1x150mm (Waters)
Retention time: 7.607 min
Base peak: 79.0212
Precursor m/z: 189.1598
Precursor type: [M+H]+
Precursor intensity: 14636705.0625
m/z	relative intensity	assigned
58.0651	29	C3H8N+
74.0236	110	C2H4NO2+
86.0964	15	C5H12N+
102.0549	999	C4H8NO2+
103.123	2	C5H15N2+
129.1022	6	C6H13N2O+
144.1019	97	C7H14NO2+
147.1127	4	C6H15N2O2+
189.1597	45	C9H21N2O2+
