Mass spectrum: FR167356; LC-ESI-QFT; MS2; CE: 30; R=17500; [M+H]+
Name: FR167356
Name: Benzamide, 2,6-dichloro-N-(3-(1-hydroxy-1-methylethyl)-2-methyl-7-benzofuranyl)-
Name: 2,6-dichloro-N-[3-(2-hydroxypropan-2-yl)-2-methyl-1-benzofuran-7-yl]benzamide
Formula: C19H17Cl2NO3
Exact mass: 377.0585
SMILES: CC1=C(C2=C(O1)C(NC(=O)C1=C(Cl)C=CC=C1Cl)=CC=C2)C(C)(C)O
InChI: InChI=1S/C19H17Cl2NO3/c1-10-16(19(2,3)24)11-6-4-9-14(17(11)25-10)22-18(23)15-12(20)7-5-8-13(15)21/h4-9,24H,1-3H3,(H,22,23)
Instrument: Q Exactive Orbitrap (Thermo Scientific)
Instrument type: LC-ESI-QFT
Ms type: MS2
Ion mode: POSITIVE
Ionization: ESI
Fragmentation mode: HCD
Collision energy: 30
Resolution: 17500
Column name: Acquity BEH C18 1.7um, 2.1x150mm (Waters)
Retention time: 16.868 min
Base peak: 79.0211
Precursor m/z: 378.0658
Precursor type: [M+H]+
Precursor intensity: 1571823.875
m/z	relative intensity	assigned
59.0491	2	C3H7O+
128.0624	1	C10H8+
129.0698	4	C10H9+
143.0855	14	C11H11+
144.0808	7	C10H10N+
146.0602	1	C9H8NO+
147.0806	8	C10H11O+
158.0961	1	C11H12N+
161.096	3	C11H13O+
170.0962	1	C12H12N+
171.0804	10	C12H11O+
172.0757	12	C11H10NO+
172.9556	227	C7H3Cl2O+
186.0914	7	C12H12NO+
189.0911	11	C12H13O2+
189.9821	2	C7H6Cl2NO+
214.0863	21	C13H12NO2+
300.0341	2	C17H12Cl2N+
317.0357	2	C17H13Cl2NO+
318.0449	66	C17H14Cl2NO+
320.024	6	C16H12Cl2NO2+
342.045	31	C19H14Cl2NO+
360.0554	999	C19H16Cl2NO2+
378.0658	12	C19H18Cl2NO3+
