Mass spectrum: Celecoxib; LC-ESI-QFT; MS2; CE: 45; R=17500; [M-H]-
Name: Celecoxib
Name: 4-[5-(4-methylphenyl)-3-(trifluoromethyl)pyrazol-1-yl]benzenesulfonamide
Formula: C17H14F3N3O2S
Exact mass: 381.0759
SMILES: CC1=CC=C(C=C1)C1=CC(=NN1C1=CC=C(C=C1)S(N)(=O)=O)C(F)(F)F
InChI: InChI=1S/C17H14F3N3O2S/c1-11-2-4-12(5-3-11)15-10-16(17(18,19)20)22-23(15)13-6-8-14(9-7-13)26(21,24)25/h2-10H,1H3,(H2,21,24,25)
Instrument: Q Exactive Orbitrap (Thermo Scientific)
Instrument type: LC-ESI-QFT
Ms type: MS2
Ion mode: NEGATIVE
Ionization: ESI
Fragmentation mode: HCD
Collision energy: 45
Resolution: 17500
Column name: Acquity BEH C18 1.7um, 2.1x150mm (Waters)
Retention time: 17.965 min
Base peak: 203.0131
Precursor m/z: 380.0686
Precursor type: [M-H]-
Precursor intensity: 26329489.39453
m/z	relative intensity	assigned
61.9706	29	NOS-
63.9624	8	O2S-
65.0146	1	C3HN2-
68.9957	999	CF3-
75.0051	1	C3HF2-
77.0144	2	C4HN2-
77.9655	68	NO2S-
78.9733	11	HNO2S-
79.9812	100	H2NO2S-
88.0004	35	C3F2N-
103.0303	4	C6H3N2-
105.0457	2	C6H5N2-
106.0537	6	C6H6N2-
108.0067	24	C3HF3N-
115.0301	1	C7H3N2-
116.0506	3	C8H6N-
117.0459	2	C7H5N2-
129.0458	7	C8H5N2-
130.0535	32	C8H6N2-
131.0381	1	C8H5NO-
132.0256	1	C8H3FN-
135.0366	1	C7H4FN2-
139.0302	30	C9H3N2-
142.0408	1	C8H4N3-
155.0427	4	C7H5F2N2-
155.0492	1	C9H5N3-
159.0364	142	C9H4FN2-
179.0426	209	C9H5F2N2-
180.0264	6	C9H4F2NO-
198.0724	3	C13H9FN-
207.0931	5	C14H11N2-
218.0976	3	C16H12N-
219.0928	5	C15H11N2-
220.088	3	C14H10N3-
220.1005	6	C15H12N2-
221.0959	55	C14H11N3-
221.1083	17	C15H13N2-
222.0807	2	C11H11FN2O2-
222.0925	1	C15H12NO-
222.1037	5	C14H12N3-
224.0566	6	C11H7F3N2-
225.0646	81	C11H8F3N2-
228.0819	6	C17H10N-
229.0771	9	C16H9N2-
232.0877	1	C15H10N3-
245.0961	10	C16H11N3-
246.1036	49	C16H12N3-
247.1114	237	C16H13N3-
249.0833	56	C16H10FN2-
251.0988	10	C16H12FN2-
255.0808	7	C14H10FN3O-
256.088	72	C17H10N3-
257.0719	3	C17H9N2O-
267.0866	1	C17H11F2N-
268.0943	47	C17H12F2N-
269.0902	31	C13H12F3N2O-
274.0786	2	C17H9FN3-
275.0865	29	C17H10FN3-
276.0941	451	C17H11FN3-
277.0783	15	C17H10FN2O-
287.0704	1	C17H9N3O2-
295.0925	25	C17H11F2N3-
296.1003	226	C17H12F2N3-
297.0842	4	C17H11F2N2O-
307.0756	1	C17H10FN3O2-
315.0989	20	C17H12F3N3-
316.1065	306	C17H13F3N3-
317.0904	29	C17H12F3N2O-
380.0685	100	C17H13F3N3O2S-
