Mass spectrum: 2-Methyl-4,6-dinitrophenol; LC-ESI-QFT; MS2; CE: 30; R=17500; [M-H]-
Name: 2-Methyl-4,6-dinitrophenol
Name: 4,6-Dinitro-O-cresol
Formula: C7H6N2O5
Exact mass: 198.0277
SMILES: CC1=C(O)C(=CC(=C1)[N+]([O-])=O)[N+]([O-])=O
InChI: InChI=1S/C7H6N2O5/c1-4-2-5(8(11)12)3-6(7(4)10)9(13)14/h2-3,10H,1H3
Instrument: Q Exactive Orbitrap (Thermo Scientific)
Instrument type: LC-ESI-QFT
Ms type: MS2
Ion mode: NEGATIVE
Ionization: ESI
Fragmentation mode: HCD
Collision energy: 30
Resolution: 17500
Column name: Acquity BEH C18 1.7um, 2.1x150mm (Waters)
Retention time: 16.349 min
Base peak: 197.0204
Precursor m/z: 197.0204
Precursor type: [M-H]-
Precursor intensity: 50750750.56152
m/z	relative intensity	assigned
63.0241	2	C5H3-
64.0193	4	C4H2N-
65.0145	1	C3HN2-
65.0397	3	C5H5-
65.9986	1	C3NO-
81.0346	1	C5H5O-
88.0192	2	C6H2N-
93.0345	2	C6H5O-
109.0295	21	C6H5O2-
122.0249	1	C6H4NO2-
123.0327	1	C6H5NO2-
137.0244	110	C7H5O3-
138.0196	2	C6H4NO3-
150.0193	3	C7H4NO3-
151.0274	2	C7H5NO3-
166.0144	2	C7H4NO4-
167.0224	92	C7H5NO4-
180.0177	77	C7H4N2O4-
197.0203	999	C7H5N2O5-
