Mass spectrum: 3-Hydroxy-4-butyrophenetidide; LC-ESI-QFT; MS2; CE: 45; R=17500; [M+H]+
Name: 3-Hydroxy-4-butyrophenetidide
Name: Bucetin
Name: N-(4-ethoxyphenyl)-3-hydroxybutanamide
Formula: C12H17NO3
Exact mass: 223.1208
SMILES: CCOC1=CC=C(NC(=O)CC(C)O)C=C1
InChI: InChI=1S/C12H17NO3/c1-3-16-11-6-4-10(5-7-11)13-12(15)8-9(2)14/h4-7,9,14H,3,8H2,1-2H3,(H,13,15)
Instrument: Q Exactive Orbitrap (Thermo Scientific)
Instrument type: LC-ESI-QFT
Ms type: MS2
Ion mode: POSITIVE
Ionization: ESI
Fragmentation mode: HCD
Collision energy: 45
Resolution: 17500
Column name: Acquity BEH C18 1.7um, 2.1x150mm (Waters)
Retention time: 14.372 min
Base peak: 79.0211
Precursor m/z: 224.1281
Precursor type: [M+H]+
Precursor intensity: 12257992.8125
m/z	relative intensity	assigned
69.0334	11	C4H5O+
81.0335	1	C5H5O+
87.044	11	C4H7O2+
108.0443	338	C6H6NO+
109.0522	10	C6H7NO+
110.06	33	C6H8NO+
135.0801	1	C9H11O+
136.0757	999	C8H10NO+
138.0912	205	C8H12NO+
150.0915	1	C9H12NO+
162.0912	1	C10H12NO+
164.0705	81	C9H10NO2+
164.1067	13	C10H14NO+
178.0861	11	C10H12NO2+
178.123	1	C11H16NO+
206.1175	28	C12H16NO2+
