Mass spectrum: Ilepatril; LC-ESI-QFT; MS2; CE: 60; R=17500; [M-H]-
Name: Ilepatril
Name: (4S,7S,12bR)-7-[[(2S)-2-acetylsulfanyl-3-methylbutanoyl]amino]-6-oxo-2,3,4,7,8,12b-hexahydro-1H-pyrido[2,1-a][2]benzazepine-4-carboxylic acid
Formula: C22H28N2O5S
Exact mass: 432.1719
SMILES: CC(C)[C@H](SC(C)=O)C(=O)N[C@H]1CC2=C(C=CC=C2)[C@H]2CCC[C@H](N2C1=O)C(O)=O
InChI: InChI=1S/C22H28N2O5S/c1-12(2)19(30-13(3)25)20(26)23-16-11-14-7-4-5-8-15(14)17-9-6-10-18(22(28)29)24(17)21(16)27/h4-5,7-8,12,16-19H,6,9-11H2,1-3H3,(H,23,26)(H,28,29)/t16-,17+,18-,19-/m0/s1
Instrument: Q Exactive Orbitrap (Thermo Scientific)
Instrument type: LC-ESI-QFT
Ms type: MS2
Ion mode: NEGATIVE
Ionization: ESI
Fragmentation mode: HCD
Collision energy: 60
Resolution: 17500
Column name: Acquity BEH C18 1.7um, 2.1x150mm (Waters)
Retention time: 16.862 min
Base peak: 231.0097
Precursor m/z: 431.1646
Precursor type: [M-H]-
Precursor intensity: 13923752.12891
m/z	relative intensity	assigned
57.0345	3	C3H5O-
57.9757	6	CNS-
58.0299	9	C2H4NO-
59.0138	107	C2H3O2-
59.9913	11	CH2NS-
66.0349	7	C4H4N-
69.0092	4	C2HN2O-
70.9835	6	C2HNS-
71.0251	43	C2H3N2O-
72.9754	27	C2HOS-
74.991	618	C2H3OS-
82.0662	4	C5H8N-
83.0503	9	C5H7O-
84.0456	9	C4H6NO-
85.0295	36	C4H5O2-
87.0274	79	C4H7S-
87.9862	6	C2H2NOS-
87.9988	40	C3H4OS-
88.9941	999	C2H3NOS-
90.0019	48	C2H4NOS-
96.082	18	C6H10N-
97.0044	11	C3HN2O2-
97.0169	11	C4H3NO2-
98.0123	13	C3H2N2O2-
98.0611	14	C5H8NO-
99.0201	31	C3H3N2O2-
99.0815	4	C6H11O-
100.0769	21	C5H10NO-
101.0609	4	C5H9O2-
103.0223	19	C4H7OS-
105.071	5	C8H9-
111.0199	5	C4H3N2O2-
112.0768	86	C6H10NO-
114.0383	41	C5H8NS-
115.0223	109	C5H7OS-
116.0174	4	C4H6NOS-
126.9972	47	C4H3N2OS-
130.0662	5	C9H8N-
131.0374	3	C8H5NO-
131.0535	13	C6H11OS-
132.0489	615	C5H10NOS-
137.072	20	C7H9N2O-
139.0514	4	C6H7N2O2-
140.0717	432	C7H10NO2-
141.0709	37	C11H9-
142.0662	19	C10H8N-
143.0504	14	C10H7O-
145.0076	4	C4H5N2O2S-
145.0661	22	C10H9O-
155.0864	5	C12H11-
156.0489	4	C7H10NOS-
156.0581	15	C11H8O-
156.0817	19	C11H10N-
157.053	5	C10H7NO-
157.0657	31	C11H9O-
157.1022	5	C12H13-
158.0612	45	C10H8NO-
159.0814	5	C11H11O-
160.0766	11	C10H10NO-
166.0665	16	C12H8N-
167.0868	8	C13H11-
168.0818	11	C12H10N-
169.1024	19	C13H13-
170.061	5	C11H8NO-
171.069	132	C11H9NO-
172.0767	19	C11H10NO-
172.1133	28	C12H14N-
174.1285	4	C12H16N-
181.0533	13	C12H7NO-
182.0611	5	C12H8NO-
182.0975	21	C13H12N-
183.0813	10	C13H11O-
184.0768	15	C12H10NO-
184.1131	47	C13H14N-
185.0972	6	C13H13O-
188.0481	8	C11H8O3-
192.0819	9	C14H10N-
194.0975	32	C14H12N-
195.0819	19	C14H11O-
199.1243	10	C13H15N2-
200.1081	16	C13H14NO-
201.038	7	C12H9OS-
202.1233	5	C13H16NO-
203.0588	204	C11H9NO3-
209.108	4	C14H13N2-
210.0922	17	C14H12NO-
211.1244	13	C14H15N2-
212.1081	455	C14H14NO-
214.0873	10	C13H12NO2-
222.0927	5	C15H12NO-
225.1037	5	C14H13N2O-
227.119	83	C14H15N2O-
228.1029	13	C14H14NO2-
229.1346	167	C14H17N2O-
255.1143	5	C9H21NO5S-
266.1541	3	C18H20NO-
268.1708	6	C18H22NO-
273.1248	54	C15H17N2O3-
