Mass spectrum: Ethoxyquin; LC-ESI-QFT; MS2; CE: 45; R=17500; [M+H]+
Name: Ethoxyquin
Name: 6-ethoxy-2,2,4-trimethyl-1H-quinoline
Formula: C14H19NO
Exact mass: 217.1467
SMILES: CCOC1=CC2=C(NC(C)(C)C=C2C)C=C1
InChI: InChI=1S/C14H19NO/c1-5-16-11-6-7-13-12(8-11)10(2)9-14(3,4)15-13/h6-9,15H,5H2,1-4H3
Instrument: Q Exactive Orbitrap (Thermo Scientific)
Instrument type: LC-ESI-QFT
Ms type: MS2
Ion mode: POSITIVE
Ionization: ESI
Fragmentation mode: HCD
Collision energy: 45
Resolution: 17500
Column name: Acquity BEH C18 1.7um, 2.1x150mm (Waters)
Retention time: 15.084 min
Base peak: 79.0211
Precursor m/z: 218.1539
Precursor type: [M+H]+
Precursor intensity: 9317847.71875
m/z	relative intensity	assigned
55.0542	3	C4H7+
57.0699	10	C4H9+
67.0541	1	C5H7+
71.0854	1	C5H11+
79.0541	2	C6H7+
81.0699	5	C6H9+
82.0287	1	C4H4NO+
83.0856	6	C6H11+
91.0542	1	C7H7+
97.1012	3	C7H13+
105.0698	1	C8H9+
106.0652	8	C7H8N+
107.0492	2	C7H7O+
107.0855	3	C8H11+
108.0443	1	C6H6NO+
109.0521	1	C6H7NO+
109.1011	2	C8H13+
110.06	1	C6H8NO+
117.0699	1	C9H9+
119.0856	1	C9H11+
120.0808	22	C8H10N+
121.101	1	C9H13+
122.06	18	C7H8NO+
130.0652	2	C9H8N+
131.0495	1	C9H7O+
131.0732	2	C9H9N+
131.0855	1	C10H11+
132.081	4	C9H10N+
133.0522	9	C8H7NO+
133.0648	1	C9H9O+
134.06	73	C8H8NO+
134.0963	6	C9H12N+
135.0803	2	C9H11O+
136.0757	20	C8H10NO+
137.0834	4	C8H11NO+
138.0913	2	C8H12NO+
144.0013	2	C12+
144.0559	2	C10H8O+
144.0808	9	C10H10N+
145.0646	5	C10H9O+
145.0887	2	C10H11N+
145.1012	15	C11H13+
146.0599	15	C9H8NO+
146.0964	3	C10H12N+
147.0678	38	C9H9NO+
148.0756	287	C9H10NO+
150.0913	12	C9H12NO+
155.0856	2	C12H11+
157.0883	6	C11H11N+
158.017	10	C13H2+
158.0724	6	C11H10O+
158.0964	34	C11H12N+
159.0807	1	C11H11O+
159.104	3	C11H13N+
160.0757	45	C10H10NO+
161.0835	36	C10H11NO+
161.1202	5	C11H15N+
162.0913	110	C10H12NO+
162.1275	14	C11H16N+
163.0991	2	C10H13NO+
164.1071	1	C10H14NO+
172.0326	1	C14H4+
172.1121	28	C12H14N+
173.0962	29	C12H13O+
173.1199	38	C12H15N+
174.0913	126	C11H12NO+
174.1278	10	C12H16N+
175.0992	67	C11H13NO+
176.1069	195	C11H14NO+
188.107	156	C12H14NO+
189.1148	118	C12H15NO+
190.1226	318	C12H16NO+
201.1275	6	C14H17O+
202.1227	137	C13H16NO+
203.1304	60	C13H17NO+
216.1387	2	C14H18NO+
218.1539	999	C14H20NO+
