Mass spectrum: Reserpine; LC-ESI-QFT; MS2; CE: 30; R=17500; [M+H]+
Name: Reserpine
Name: methyl (1R,15S,17R,18R,19S,20S)-6,18-dimethoxy-17-(3,4,5-trimethoxybenzoyl)oxy-1,3,11,12,14,15,16,17,18,19,20,21-dodecahydroyohimban-19-carboxylate
Formula: C33H40N2O9
Exact mass: 608.2734
SMILES: CO[C@H]1[C@@H](C[C@@H]2CN3CCC4=C(NC5=C4C=CC(OC)=C5)[C@H]3C[C@@H]2[C@@H]1C(=O)OC)OC(=O)C1=CC(OC)=C(OC)C(OC)=C1
InChI: InChI=1S/C33H40N2O9/c1-38-19-7-8-20-21-9-10-35-16-18-13-27(44-32(36)17-11-25(39-2)30(41-4)26(12-17)40-3)31(42-5)28(33(37)43-6)22(18)15-24(35)29(21)34-23(20)14-19/h7-8,11-12,14,18,22,24,27-28,31,34H,9-10,13,15-16H2,1-6H3/t18-,22+,24-,27-,28+,31+/m1/s1
Instrument: Q Exactive Orbitrap (Thermo Scientific)
Instrument type: LC-ESI-QFT
Ms type: MS2
Ion mode: POSITIVE
Ionization: ESI
Fragmentation mode: HCD
Collision energy: 30
Resolution: 17500
Column name: Acquity BEH C18 1.7um, 2.1x150mm (Waters)
Retention time: 15.330 min
Base peak: 79.0211
Precursor m/z: 609.2807
Precursor type: [M+H]+
Precursor intensity: 1758111.125
m/z	relative intensity	assigned
70.0651	2	C4H8N+
71.0491	2	C4H7O+
94.0651	4	C6H8N+
106.0651	2	C7H8N+
111.044	4	C6H7O2+
120.0808	3	C8H10N+
123.08	2	C8H11O+
126.0913	2	C7H12NO+
131.0856	2	C10H11+
132.0803	3	C9H10N+
144.0808	2	C10H10N+
148.0756	22	C9H10NO+
159.0677	2	C10H9NO+
160.0755	19	C10H10NO+
161.0833	2	C10H11NO+
162.0911	7	C10H12NO+
163.0752	1	C10H11O2+
167.0704	4	C9H11O3+
172.0758	4	C11H10NO+
174.0913	537	C11H12NO+
175.0751	4	C11H11O2+
176.1071	14	C11H14NO+
178.0861	6	C10H12NO2+
181.086	2	C10H13O3+
186.0914	7	C12H12NO+
187.0754	2	C12H11O2+
188.107	22	C12H14NO+
190.086	6	C11H12NO2+
192.1017	73	C11H14NO2+
193.086	3	C11H13O3+
195.0652	999	C10H11O4+
199.0986	1	C13H13NO+
200.1071	19	C13H14NO+
201.1026	4	C12H13N2O+
204.1021	20	C12H14NO2+
207.1016	3	C12H15O3+
212.1069	3	C14H14NO+
214.1099	6	C13H14N2O+
215.1177	20	C13H15N2O+
222.1122	11	C12H16NO3+
224.128	76	C12H18NO3+
227.1176	3	C14H15N2O+
228.1251	5	C14H16N2O+
229.1337	6	C14H17N2O+
236.128	149	C13H18NO3+
238.1227	4	C16H16NO+
248.1073	2	C17H14NO+
250.1216	3	C17H16NO+
253.1337	5	C16H17N2O+
262.1228	2	C18H16NO+
265.1332	2	C17H17N2O+
276.1388	5	C19H18NO+
288.1382	7	C20H18NO+
289.1449	2	C20H19NO+
290.1173	4	C19H16NO2+
304.1329	5	C20H18NO2+
305.165	4	C20H21N2O+
316.1334	6	C21H18NO2+
322.1438	11	C20H20NO3+
333.1599	9	C21H21N2O2+
336.1596	42	C21H22NO3+
337.19	4	C21H25N2O2+
348.1595	24	C22H22NO3+
365.1859	145	C22H25N2O3+
368.1493	15	C21H22NO5+
368.1853	24	C22H26NO4+
382.188	3	C22H26N2O4+
395.1967	5	C23H27N2O4+
397.2122	527	C23H29N2O4+
402.1547	3	C21H24NO7+
413.2072	8	C23H29N2O5+
434.1805	15	C22H28NO8+
448.1967	253	C23H30NO8+
577.2546	38	C32H37N2O8+
609.2806	240	C33H41N2O9+
