Mass spectrum: Dipropyl 2,5-pyridinedicarboxylate; LC-ESI-QFT; MS2; CE: 75; R=17500; [M+H]+
Name: Dipropyl 2,5-pyridinedicarboxylate
Name: Dipropyl isocinchomeronate
Name: dipropyl pyridine-2,5-dicarboxylate
Formula: C13H17NO4
Exact mass: 251.1158
SMILES: CCCOC(=O)C1=CC=C(N=C1)C(=O)OCCC
InChI: InChI=1S/C13H17NO4/c1-3-7-17-12(15)10-5-6-11(14-9-10)13(16)18-8-4-2/h5-6,9H,3-4,7-8H2,1-2H3
Instrument: Q Exactive Orbitrap (Thermo Scientific)
Instrument type: LC-ESI-QFT
Ms type: MS2
Ion mode: POSITIVE
Ionization: ESI
Fragmentation mode: HCD
Collision energy: 75
Resolution: 17500
Column name: Acquity BEH C18 1.7um, 2.1x150mm (Waters)
Retention time: 17.731 min
Base peak: 79.0212
Precursor m/z: 252.123
Precursor type: [M+H]+
Precursor intensity: 39259007.59375
m/z	relative intensity	assigned
51.0229	2	C4H3+
52.0182	1	C3H2N+
53.0022	68	C3HO+
53.9974	11	C2NO+
54.01	2	C3H2O+
55.0179	1	C3H3O+
56.0495	17	C3H6N+
66.0338	9	C4H4N+
67.0178	14	C4H3O+
67.9893	6	C3O2+
68.9971	2	C3HO2+
78.0338	131	C5H4N+
80.013	3	C4H2NO+
84.0444	28	C4H6NO+
94.0288	21	C5H4NO+
95.0128	9	C5H3O2+
95.0363	2	C5H5NO+
96.0443	3	C5H6NO+
109.0159	1	C5H3NO2+
111.0318	1	C5H5NO2+
112.0393	298	C5H6NO2+
122.0237	232	C6H4NO2+
124.0391	2	C6H6NO2+
126.0549	2	C6H8NO2+
140.0342	999	C6H6NO3+
154.0499	16	C7H8NO3+
168.0291	40	C7H6NO4+
182.0813	574	C9H12NO3+
184.0859	2	C13H12O+
196.097	4	C10H14NO3+
216.0809	2	C13H12O3+
217.0884	2	C13H13O3+
