Mass spectrum: 2,5-Dichlorophenol; LC-ESI-QFT; MS2; CE: 15; R=17500; [M-H]-
Name: 2,5-Dichlorophenol
Formula: C6H4Cl2O
Exact mass: 161.9639
SMILES: OC1=CC(Cl)=CC=C1Cl
InChI: InChI=1S/C6H4Cl2O/c7-4-1-2-5(8)6(9)3-4/h1-3,9H
Instrument: Q Exactive Orbitrap (Thermo Scientific)
Instrument type: LC-ESI-QFT
Ms type: MS2
Ion mode: NEGATIVE
Ionization: ESI
Fragmentation mode: HCD
Collision energy: 15
Resolution: 17500
Column name: Acquity BEH C18 1.7um, 2.1x150mm (Waters)
Retention time: 18.134 min
Base peak: 291.1027
Precursor m/z: 160.9566
Precursor type: [M-H]-
Precursor intensity: 3449115.841797
m/z	relative intensity	assigned
89.0032	4	C6HO-
124.98	146	C6H2ClO-
160.9567	999	C6H3Cl2O-
