Mass spectrum: Danazol; LC-ESI-QFT; MS2; CE: 45; R=17500; [M+H]+
Name: Danazol
Name: (1S,2R,13R,14S,17R,18S)-17-ethynyl-2,18-dimethyl-7-oxa-6-azapentacyclo[11.7.0.02,10.04,8.014,18]icosa-4(8),5,9-trien-17-ol
Formula: C22H27NO2
Exact mass: 337.2042
SMILES: C[C@]12CC[C@H]3[C@@H](CCC4=CC5=C(C[C@]34C)C=NO5)[C@@H]1CC[C@@]2(O)C#C
InChI: InChI=1S/C22H27NO2/c1-4-22(24)10-8-18-16-6-5-15-11-19-14(13-23-25-19)12-20(15,2)17(16)7-9-21(18,22)3/h1,11,13,16-18,24H,5-10,12H2,2-3H3/t16-,17+,18+,20+,21+,22+/m1/s1
Instrument: Q Exactive Orbitrap (Thermo Scientific)
Instrument type: LC-ESI-QFT
Ms type: MS2
Ion mode: POSITIVE
Ionization: ESI
Fragmentation mode: HCD
Collision energy: 45
Resolution: 17500
Column name: Acquity BEH C18 1.7um, 2.1x150mm (Waters)
Retention time: 18.811 min
Base peak: 79.0211
Precursor m/z: 338.2115
Precursor type: [M+H]+
Precursor intensity: 4449361.4375
m/z	relative intensity	assigned
53.0023	9	C3HO+
53.0386	20	C4H5+
55.0179	32	C3H3O+
55.0542	44	C4H7+
56.0495	164	C3H6N+
65.0385	17	C5H5+
67.0542	111	C5H7+
68.0495	16	C4H6N+
69.0333	29	C4H5O+
69.0698	42	C5H9+
70.0287	351	C3H4NO+
70.0651	405	C4H8N+
72.0444	14	C3H6NO+
79.0542	222	C6H7+
80.0496	43	C5H6N+
81.0335	39	C5H5O+
81.0699	206	C6H9+
82.0285	10	C4H4NO+
82.0652	60	C5H8N+
83.049	17	C5H7O+
84.0444	316	C4H6NO+
91.0543	344	C7H7+
93.07	297	C7H9+
94.0652	139	C6H8N+
95.0493	58	C6H7O+
95.0856	134	C7H11+
96.0444	111	C5H6NO+
96.0808	27	C6H10N+
97.0648	33	C6H9O+
98.0601	15	C5H8NO+
103.0542	38	C8H7+
105.0699	426	C8H9+
106.0652	124	C7H8N+
107.0492	40	C7H7O+
107.0728	17	C7H9N+
107.0856	178	C8H11+
108.0443	24	C6H6NO+
108.0808	133	C7H10N+
109.0524	11	C6H7NO+
109.0649	66	C7H9O+
109.1013	86	C8H13+
110.0601	83	C6H8NO+
111.0804	14	C7H11O+
112.0757	9	C6H10NO+
115.0543	78	C9H7+
116.0621	26	C9H8+
117.0699	263	C9H9+
118.0653	12	C8H8N+
119.0856	304	C9H11+
120.0444	218	C7H6NO+
120.0809	638	C8H10N+
121.0648	421	C8H9O+
121.0888	36	C8H11N+
121.1012	74	C9H13+
122.0601	126	C7H8NO+
122.0964	96	C8H12N+
123.068	63	C7H9NO+
123.0804	31	C8H11O+
124.0758	55	C7H10NO+
128.062	73	C10H8+
129.0699	207	C10H9+
130.0653	17	C9H8N+
130.0778	28	C10H10+
131.0491	21	C9H7O+
131.0856	392	C10H11+
132.0809	34	C9H10N+
133.0648	59	C9H9O+
133.0889	17	C9H11N+
133.1012	153	C10H13+
134.0601	52	C8H8NO+
134.0963	98	C9H12N+
135.0681	12	C8H9NO+
135.0804	81	C9H11O+
135.1168	31	C10H15+
136.0759	54	C8H10NO+
141.07	103	C11H9+
142.0777	75	C11H10+
143.0856	310	C11H11+
144.0809	32	C10H10N+
144.0935	17	C11H12+
145.0648	49	C10H9O+
145.0888	12	C10H11N+
145.1012	224	C11H13+
146.0729	9	C10H10O+
146.0964	68	C10H12N+
147.0805	176	C10H11O+
147.1169	56	C11H15+
148.0757	999	C9H10NO+
149.0835	35	C9H11NO+
149.0963	27	C10H13O+
150.0914	104	C9H12NO+
153.0701	33	C12H9+
154.0779	49	C12H10+
155.0855	207	C12H11+
156.0809	15	C11H10N+
156.0934	47	C12H12+
157.0646	23	C11H9O+
157.1013	310	C12H13+
158.0965	49	C11H12N+
159.0804	84	C11H11O+
159.1048	14	C11H13N+
159.1168	114	C12H15+
160.076	23	C10H10NO+
160.0888	10	C11H12O+
160.1121	63	C11H14N+
161.0959	74	C11H13O+
161.1326	32	C12H17+
162.0914	77	C10H12NO+
165.0698	51	C13H9+
166.0774	34	C13H10+
167.0856	127	C13H11+
168.0934	35	C13H12+
169.1013	215	C13H13+
170.0965	22	C12H12N+
170.1087	19	C13H14+
171.0805	58	C12H11O+
171.1168	178	C13H15+
172.076	8	C11H10NO+
172.1121	43	C12H14N+
173.0837	10	C11H11NO+
173.0961	88	C12H13O+
173.1201	15	C12H15N+
173.1325	26	C13H17+
174.0917	54	C11H12NO+
174.1279	59	C12H16N+
175.1119	26	C12H15O+
176.1068	27	C11H14NO+
178.0779	25	C14H10+
179.0856	61	C14H11+
180.0932	36	C14H12+
181.0646	11	C13H9O+
181.1011	150	C14H13+
182.0962	8	C13H12N+
182.109	36	C14H14+
183.0804	32	C13H11O+
183.1043	11	C13H13N+
183.1069	12	C13H13N+
183.1169	152	C14H15+
184.0883	12	C13H12O+
184.1119	39	C13H14N+
185.0963	96	C13H13O+
185.1325	84	C14H17+
186.0914	22	C12H12NO+
186.1278	23	C13H16N+
187.1117	39	C13H15O+
187.1485	18	C14H19+
188.1072	29	C12H14NO+
191.0856	22	C15H11+
192.0936	35	C15H12+
193.1012	120	C15H13+
194.0965	10	C14H12N+
194.109	25	C15H14+
195.0807	18	C14H11O+
195.1169	128	C15H15+
196.0882	9	C14H12O+
196.1121	20	C14H14N+
196.1247	29	C15H16+
197.0959	35	C14H13O+
197.1325	68	C15H17+
198.1275	24	C14H16N+
199.1117	36	C14H15O+
199.1484	20	C15H19+
200.1071	31	C13H14NO+
200.1438	13	C14H18N+
201.1276	10	C14H17O+
202.1229	23	C13H16NO+
203.0857	24	C16H11+
204.0933	48	C16H12+
205.1013	78	C16H13+
206.1093	39	C16H14+
207.117	93	C16H15+
208.1134	11	C15H14N+
208.1249	21	C16H16+
209.0962	21	C15H13O+
209.1324	83	C16H17+
210.1037	10	C15H14O+
210.1279	20	C15H16N+
210.1402	16	C16H18+
211.1123	39	C15H15O+
211.1487	42	C16H19+
212.1074	9	C14H14NO+
212.1432	18	C15H18N+
213.1276	25	C15H17O+
214.1226	17	C14H16NO+
216.0933	11	C17H12+
217.1013	55	C17H13+
218.1091	35	C17H14+
219.1166	91	C17H15+
220.1249	32	C17H16+
221.1322	61	C17H17+
222.1281	16	C16H16N+
223.1121	23	C16H15O+
223.148	55	C17H19+
224.1432	9	C16H18N+
225.127	38	C16H17O+
225.1637	78	C17H21+
226.159	13	C16H20N+
227.1431	24	C16H19O+
228.1386	28	C15H18NO+
229.1013	9	C18H13+
230.1088	11	C18H14+
231.1167	49	C18H15+
232.1246	29	C18H16+
233.0956	9	C17H13O+
233.1329	56	C18H17+
234.1274	12	C17H16N+
234.1403	13	C18H18+
235.1119	20	C17H15O+
235.1481	56	C18H19+
237.1273	23	C17H17O+
237.1637	12	C18H21+
238.1227	8	C16H16NO+
239.1437	15	C17H19O+
241.1584	8	C17H21O+
242.1903	49	C17H24N+
243.1178	11	C19H15+
245.1325	44	C19H17+
246.1409	35	C19H18+
247.1118	11	C18H15O+
247.148	28	C19H19+
248.1437	13	C18H18N+
249.1278	16	C18H17O+
249.164	17	C19H21+
250.159	8	C18H20N+
251.1429	28	C18H19O+
253.159	41	C18H21O+
257.1336	8	C20H17+
259.1487	16	C20H19+
260.1565	35	C20H20+
261.1275	11	C19H17O+
261.1641	18	C20H21+
262.1591	11	C19H20N+
263.1435	19	C19H19O+
263.1808	10	C20H23+
264.1751	18	C19H22N+
265.1587	17	C19H21O+
268.1695	13	C18H22NO+
270.185	41	C18H24NO+
273.1269	11	C20H17O+
275.1797	19	C21H23+
281.1909	9	C20H25O+
282.1854	20	C19H24NO+
283.1688	35	C19H23O2+
292.1697	15	C20H22NO+
292.2062	45	C21H26N+
293.1901	20	C21H25O+
294.1854	22	C20H24NO+
295.1698	25	C20H23O2+
295.1933	72	C20H25NO+
296.1648	50	C19H22NO2+
296.2012	59	C20H26NO+
303.1747	9	C22H23O+
309.1847	9	C21H25O2+
310.2167	297	C21H28NO+
320.2011	20	C22H26NO+
321.1852	19	C22H25O2+
338.2117	415	C22H28NO2+
