Mass spectrum: Fluazifop-P-butyl; LC-ESI-QFT; MS2; CE: 60; R=17500; [M+H]+
Name: Fluazifop-P-butyl
Name: butyl (2R)-2-[4-[5-(trifluoromethyl)pyridin-2-yl]oxyphenoxy]propanoate
Formula: C19H20F3NO4
Exact mass: 383.1344
SMILES: CCCCOC(=O)[C@@H](C)OC1=CC=C(OC2=CC=C(C=N2)C(F)(F)F)C=C1
InChI: InChI=1S/C19H20F3NO4/c1-3-4-11-25-18(24)13(2)26-15-6-8-16(9-7-15)27-17-10-5-14(12-23-17)19(20,21)22/h5-10,12-13H,3-4,11H2,1-2H3/t13-/m1/s1
Instrument: Q Exactive Orbitrap (Thermo Scientific)
Instrument type: LC-ESI-QFT
Ms type: MS2
Ion mode: POSITIVE
Ionization: ESI
Fragmentation mode: HCD
Collision energy: 60
Resolution: 17500
Column name: Acquity BEH C18 1.7um, 2.1x150mm (Waters)
Retention time: 19.276 min
Base peak: 79.0211
Precursor m/z: 384.1417
Precursor type: [M+H]+
Precursor intensity: 23391466
m/z	relative intensity	assigned
53.0022	12	C3HO+
53.0387	1	C4H5+
53.9975	1	C2NO+
55.0179	8	C3H3O+
55.0543	1	C4H7+
57.0699	59	C4H9+
63.0231	1	C5H3+
64.0307	1	C5H4+
65.0386	135	C5H5+
67.0542	1	C5H7+
73.0284	7	C3H5O2+
75.0229	2	C6H3+
79.0542	1	C6H7+
81.0336	1	C5H5O+
89.0384	1	C7H5+
91.0542	999	C7H7+
92.0257	2	C6H4O+
92.0621	3	C7H8+
93.0335	19	C6H5O+
93.07	2	C7H9+
94.0413	5	C6H6O+
95.0491	3	C6H7O+
103.0543	2	C8H7+
107.0491	3	C7H7O+
108.057	1	C7H8O+
109.0285	2	C6H5O2+
109.0649	14	C7H9O+
111.0441	29	C6H7O2+
117.0572	1	C8H7N+
118.0653	6	C8H8N+
119.0492	85	C8H7O+
119.0599	8	CH10FNO4+
120.0444	1	C7H6NO+
120.057	8	C8H8O+
121.0284	29	C7H5O2+
121.0648	5	C8H9O+
125.0598	2	C7H9O2+
131.0494	1	C9H7O+
135.0297	1	C5H4F3N+
135.0438	1	C8H7O2+
136.0519	2	C8H8O2+
137.0597	1	C8H9O2+
141.0573	15	C10H7N+
144.0256	3	C6H4F2NO+
146.0217	1	C6H3F3N+
146.0598	1	C9H8NO+
147.0293	2	C6H4F3N+
148.0367	5	C6H5F3N+
149.0208	1	C6H4F3O+
157.0886	2	C11H11N+
158.06	5	C10H8NO+
161.0447	1	C7H6F3N+
162.0525	1	C7H7F3N+
163.0237	4	C6H4F3NO+
164.0318	86	C6H5F3NO+
167.0729	12	C12H9N+
168.0447	1	C11H6NO+
169.0519	4	C11H7NO+
170.0603	1	C11H8NO+
172.0365	3	C8H5F3N+
176.0317	3	C7H5F3NO+
178.0473	3	C7H7F3NO+
179.0188	39	C6H4F3NO2+
180.038	1	C10H6F2O+
184.076	1	C12H10NO+
185.0446	5	C9H6F3N+
185.0838	2	C12H11NO+
186.0526	12	C9H7F3N+
186.0713	4	C12H9FN+
188.032	1	C8H5F3NO+
188.0506	4	C11H7FNO+
190.0461	7	C11H6F2N+
194.0599	1	C13H8NO+
196.056	1	C13H7FN+
198.0528	21	C10H7F3N+
199.0605	2	C10H8F3N+
200.0319	2	C9H5F3NO+
200.0437	1	C13H6F2+
201.0408	3	C11H7NO3+
206.0776	2	C12H10F2N+
207.049	2	C11H7F2NO+
208.0568	1	C11H8F2NO+
209.0444	1	C11H6F3N+
210.0524	6	C11H7F3N+
211.0604	15	C11H8F3N+
212.069	7	C11H9F3N+
213.0784	11	C13H11NO2+
214.0477	4	C10H7F3NO+
214.0658	4	C13H9FNO+
216.0457	1	C12H7FNO2+
216.0617	4	C13H8F2N+
218.0413	28	C12H6F2NO+
222.0527	1	C12H7F3N+
224.0683	1	C12H9F3N+
226.0476	9	C11H7F3NO+
226.0838	20	C12H11F3N+
227.0552	151	C11H8F3NO+
228.0635	3	C11H9F3NO+
234.0726	2	C13H10F2NO+
235.0607	7	C13H8F3N+
236.0681	19	C13H9F3N+
238.0474	481	C12H7F3NO+
239.0548	4	C12H8F3NO+
240.0633	6	C12H9F3NO+
252.0636	1	C13H9F3NO+
253.0353	1	C12H6F3NO2+
253.0705	1	C13H10F3NO+
254.0424	194	C12H7F3NO2+
254.0786	123	C13H11F3NO+
255.0501	32	C12H8F3NO2+
256.0579	63	C12H9F3NO2+
262.0671	1	C14H10F2NO2+
264.0629	9	C14H9F3NO+
267.0497	4	C13H8F3NO2+
268.0583	1	C13H9F3NO2+
282.0736	72	C14H11F3NO2+
