Mass spectrum: Tomelukast; LC-ESI-QFT; MS2; CE: 45; R=17500; [M+H]+
Name: Tomelukast
Name: 1-[2-hydroxy-3-propyl-4-[4-(2H-tetrazol-5-yl)butoxy]phenyl]ethanone
Formula: C16H22N4O3
Exact mass: 318.1692
SMILES: CCCC1=C(OCCCCC2=NN=NN2)C=CC(C(C)=O)=C1O
InChI: InChI=1S/C16H22N4O3/c1-3-6-13-14(9-8-12(11(2)21)16(13)22)23-10-5-4-7-15-17-19-20-18-15/h8-9,22H,3-7,10H2,1-2H3,(H,17,18,19,20)
Instrument: Q Exactive Orbitrap (Thermo Scientific)
Instrument type: LC-ESI-QFT
Ms type: MS2
Ion mode: POSITIVE
Ionization: ESI
Fragmentation mode: HCD
Collision energy: 45
Resolution: 17500
Column name: Acquity BEH C18 1.7um, 2.1x150mm (Waters)
Retention time: 17.696 min
Base peak: 79.0211
Precursor m/z: 319.1765
Precursor type: [M+H]+
Precursor intensity: 8573267.5
m/z	relative intensity	assigned
53.0022	3	C3HO+
53.0387	19	C4H5+
54.0339	12	C3H4N+
55.0291	219	C2H3N2+
55.0543	90	C4H7+
56.0495	12	C3H6N+
57.0699	8	C4H9+
67.0543	31	C5H7+
68.0495	25	C4H6N+
69.0447	40	C3H5N2+
70.065	11	C4H8N+
71.0602	2	C3H7N2+
80.0495	40	C5H6N+
81.0574	5	C5H7N+
82.0526	8	C4H6N2+
82.0652	40	C5H8N+
91.0542	3	C7H7+
95.0494	2	C6H7O+
97.0761	81	C5H9N2+
98.084	4	C5H10N2+
99.0918	12	C5H11N2+
107.0492	7	C7H7O+
111.0441	65	C6H7O2+
121.0651	2	C8H9O+
123.0441	49	C7H7O2+
125.0823	999	C5H9N4+
131.0494	3	C9H7O+
132.0811	2	C9H10N+
133.0645	4	C9H9O+
135.0443	8	C8H7O2+
137.0597	92	C8H9O2+
145.065	3	C10H9O+
147.0441	33	C9H7O2+
149.0599	26	C9H9O2+
151.0756	20	C9H11O2+
153.0547	28	C8H9O3+
153.0911	64	C9H13O2+
161.0597	29	C10H9O2+
161.0961	2	C11H13O+
162.0551	7	C9H8NO2+
163.0755	13	C10H11O2+
165.0548	54	C9H9O3+
165.091	51	C10H13O2+
172.0395	24	C10H6NO2+
174.0551	8	C10H8NO2+
175.0753	20	C11H11O2+
177.0545	4	C10H9O3+
177.0911	62	C11H13O2+
179.0704	55	C10H11O3+
179.1065	4	C11H15O2+
186.0551	23	C11H8NO2+
189.0793	4	C11H11NO2+
189.0911	66	C12H13O2+
190.0501	34	C10H8NO3+
190.0865	12	C11H12NO2+
191.0707	13	C11H11O3+
191.107	17	C12H15O2+
192.0782	4	C11H12O3+
193.0864	9	C11H13O3+
195.1018	142	C11H15O3+
200.0706	10	C12H10NO2+
202.0865	8	C12H12NO2+
204.0657	32	C11H10NO3+
204.1021	2	C12H14NO2+
205.1226	2	C13H17O2+
207.1019	13	C12H15O3+
207.1379	6	C13H19O2+
214.0866	18	C13H12NO2+
215.1068	6	C14H15O2+
218.0814	3	C12H12NO3+
220.0969	38	C12H14NO3+
230.0812	3	C13H12NO3+
231.1017	4	C14H15O3+
231.1258	5	C14H17NO2+
232.0969	6	C13H14NO3+
232.1335	6	C14H18NO2+
274.144	3	C16H20NO3+
