Mass spectrum: Indole-3-acetic acid; LC-ESI-QFT; MS2; CE: 75; R=17500; [M-H]-
Name: Indole-3-acetic acid
Name: 2-(1H-indol-3-yl)acetic acid
Formula: C10H9NO2
Exact mass: 175.0633
SMILES: OC(=O)CC1=CNC2=C1C=CC=C2
InChI: InChI=1S/C10H9NO2/c12-10(13)5-7-6-11-9-4-2-1-3-8(7)9/h1-4,6,11H,5H2,(H,12,13)
Instrument: Q Exactive Orbitrap (Thermo Scientific)
Instrument type: LC-ESI-QFT
Ms type: MS2
Ion mode: NEGATIVE
Ionization: ESI
Fragmentation mode: HCD
Collision energy: 75
Resolution: 17500
Column name: Acquity BEH C18 1.7um, 2.1x150mm (Waters)
Retention time: 14.046 min
Base peak: 175.04
Precursor m/z: 174.0561
Precursor type: [M-H]-
Precursor intensity: 34729077.4873
m/z	relative intensity	assigned
65.0033	136	C4HO-
65.0397	17	C5H5-
67.019	6	C4H3O-
77.0398	24	C6H5-
89.0397	285	C7H5-
91.019	39	C6H3O-
91.0553	17	C7H7-
93.0346	45	C6H5O-
95.0503	213	C6H7O-
102.0476	25	C8H6-
103.0554	49	C8H7-
105.0346	96	C7H5O-
107.0504	28	C7H7O-
109.0295	29	C6H5O2-
119.0503	870	C8H7O-
121.0294	7	C7H5O2-
123.0452	386	C7H7O2-
130.0424	122	C9H6O-
131.0503	465	C9H7O-
132.0216	36	C8H4O2-
133.0296	999	C8H5O2-
145.0294	7	C9H5O2-
146.0372	6	C9H6O2-
147.0452	589	C9H7O2-
