Mass spectrum: Novaluron; LC-ESI-QFT; MS2; CE: 30; R=17500; [M-H]-
Name: Novaluron
Name: N-[[3-chloro-4-[1,1,2-trifluoro-2-(trifluoromethoxy)ethoxy]phenyl]carbamoyl]-2,6-difluorobenzamide
Formula: C17H9ClF8N2O4
Exact mass: 492.0123
SMILES: FC(OC(F)(F)F)C(F)(F)OC1=C(Cl)C=C(NC(=O)NC(=O)C2=C(F)C=CC=C2F)C=C1
InChI: InChI=1S/C17H9ClF8N2O4/c18-8-6-7(4-5-11(8)31-16(22,23)14(21)32-17(24,25)26)27-15(30)28-13(29)12-9(19)2-1-3-10(12)20/h1-6,14H,(H2,27,28,29,30)
Instrument: Q Exactive Orbitrap (Thermo Scientific)
Instrument type: LC-ESI-QFT
Ms type: MS2
Ion mode: NEGATIVE
Ionization: ESI
Fragmentation mode: HCD
Collision energy: 30
Resolution: 17500
Column name: Acquity BEH C18 1.7um, 2.1x150mm (Waters)
Retention time: 18.982 min
Base peak: 183.0582
Precursor m/z: 491.005
Precursor type: [M-H]-
Precursor intensity: 15699609.11621
m/z	relative intensity	assigned
68.9957	11	CF3-
73.0081	1	C6H-
82.9695	2	C4Cl-
84.9907	999	CF3O-
93.0146	8	C6H2F-
113.0209	107	C6H3F2-
136.0206	8	C7H3FNO-
140.9987	31	C6H4ClNO-
156.0023	3	C7H4ClFN-
156.0268	70	C7H4F2NO-
162.9825	72	C3F5O2-
165.9938	16	C7H3ClN2O-
167.9857	69	C7H3ClNO2-
260.9996	11	C5H6ClF6NO2-
269.0364	11	C6H7F6N2O3-
305.0136	378	C14H7ClFN2O3-
307.9919	87	C9H5ClF6NO2-
332.9872	143	C10H4ClF6N2O2-
427.9928	17	C16H6ClF7NO3-
435.0219	2	C17H6F7N2O4-
450.992	3	C17H6ClF6N2O4-
470.9988	38	C17H7ClF7N2O4-
