Mass spectrum: PD-0333941; LC-ESI-QFT; MS2; CE: 15; R=17500; [M+H]+
Name: PD-0333941
Name: 3-[4-[2-(5-methyl-2-phenyl-1,3-oxazol-4-yl)ethoxy]indol-1-yl]propanoic acid
Formula: C23H22N2O4
Exact mass: 390.1580
SMILES: CC1=C(CCOC2=CC=CC3=C2C=CN3CCC(O)=O)N=C(O1)C1=CC=CC=C1
InChI: InChI=1S/C23H22N2O4/c1-16-19(24-23(29-16)17-6-3-2-4-7-17)12-15-28-21-9-5-8-20-18(21)10-13-25(20)14-11-22(26)27/h2-10,13H,11-12,14-15H2,1H3,(H,26,27)
Instrument: Q Exactive Orbitrap (Thermo Scientific)
Instrument type: LC-ESI-QFT
Ms type: MS2
Ion mode: POSITIVE
Ionization: ESI
Fragmentation mode: HCD
Collision energy: 15
Resolution: 17500
Column name: Acquity BEH C18 1.7um, 2.1x150mm (Waters)
Retention time: 18.720 min
Base peak: 79.0211
Precursor m/z: 391.1652
Precursor type: [M+H]+
Precursor intensity: 22021777.75
m/z	relative intensity	assigned
164.0711	2	C9H10NO2+
174.0914	1	C11H12NO+
186.0913	72	C12H12NO+
194.0812	7	C10H12NO3+
206.0814	2	C11H12NO3+
218.081	2	C12H12NO3+
270.1126	5	C16H16NO3+
323.019	1	C20H5NO4+
391.1652	999	C23H23N2O4+
