Mass spectrum: Flumetsulam; LC-ESI-QFT; MS2; CE: 90; R=17500; [M+H]+
Name: Flumetsulam
Name: N-(2,6-difluorophenyl)-5-methyl-[1,2,4]triazolo[1,5-a]pyrimidine-2-sulfonamide
Formula: C12H9F2N5O2S
Exact mass: 325.0445
SMILES: CC1=NC2=NC(=NN2C=C1)S(=O)(=O)NC1=C(F)C=CC=C1F
InChI: InChI=1S/C12H9F2N5O2S/c1-7-5-6-19-11(15-7)16-12(17-19)22(20,21)18-10-8(13)3-2-4-9(10)14/h2-6,18H,1H3
Instrument: Q Exactive Orbitrap (Thermo Scientific)
Instrument type: LC-ESI-QFT
Ms type: MS2
Ion mode: POSITIVE
Ionization: ESI
Fragmentation mode: HCD
Collision energy: 90
Resolution: 17500
Column name: Acquity BEH C18 1.7um, 2.1x150mm (Waters)
Retention time: 12.583 min
Base peak: 79.0211
Precursor m/z: 326.0518
Precursor type: [M+H]+
Precursor intensity: 9821129.28125
m/z	relative intensity	assigned
52.0182	8	C3H2N+
53.0022	5	C3HO+
53.0386	1	C4H5+
54.0339	2	C3H4N+
55.0179	1	C3H3O+
55.0291	1	C2H3N2+
56.0495	3	C3H6N+
57.0135	15	C3H2F+
62.0151	16	C5H2+
63.0229	13	C5H3+
65.026	10	C4H3N+
66.0213	1	C3H2N2+
66.0338	25	C4H4N+
67.0291	6	C3H3N2+
67.0416	1	C4H5N+
68.0243	2	C2H2N3+
68.0495	12	C4H6N+
69.0447	2	C3H5N2+
70.0213	1	C4H3F+
72.037	3	C4H5F+
75.0041	3	C3HF2+
76.0181	2	C5H2N+
77.0197	3	C3H3F2+
78.0338	7	C5H4N+
79.0178	2	C5H3O+
79.0291	4	C4H3N2+
79.0417	4	C5H5N+
80.0258	2	C5H4O+
80.0369	9	C4H4N2+
81.0135	15	C5H2F+
81.0447	4	C4H5N2+
82.0087	2	C4HFN+
82.0213	31	C5H3F+
82.0526	15	C4H6N2+
83.0289	2	F2H3N3+
84.0244	1	C4H3FN+
89.026	30	C6H3N+
92.0244	2	C4H2N3+
92.0369	4	C5H4N2+
93.0448	17	C5H5N2+
94.0401	3	C4H4N3+
96.0444	1	C5H6NO+
97.0397	11	C4H5N2O+
98.0363	6	C5H6O2+
98.0401	1	C5H5FN+
99.0241	3	C5H4FO+
100.0195	2	C4H3FNO+
100.032	2	C5H5FO+
101.0198	56	C5H3F2+
102.0276	47	C5H4F2+
104.0132	1	C6H2NO+
106.0289	1	C6H4NO+
106.04	5	C5H4N3+
107.0478	25	C5H5N3+
108.0245	31	C6H3FN+
109.0323	243	C6H4FN+
110.0476	1	C5H6N2O+
111.0553	53	C5H7N2O+
116.0307	5	C5H4F2N+
117.0322	1	C6H3N3+
119.0352	2	C5H3N4+
124.0193	8	C6H3FNO+
126.0351	21	C6H5FNO+
127.043	3	C6H6FNO+
128.0308	17	C6H4F2N+
129.0384	999	C6H5F2N+
134.0588	11	C6H6N4+
135.0428	1	C6H5N3O+
135.0665	1	C6H7N4+
142.0341	1	C6H4F2N2+
143.0415	1	C6H5F2N2+
144.0256	17	C6H4F2NO+
146.0412	2	C6H6F2NO+
147.0353	1	C8H4FN2+
153.0228	2	C5H5N4S+
154.0338	1	C7H4F2N2+
173.0512	3	C10H6FN2+
200.0618	1	C11H7FN3+
