Mass spectrum: Reserpine; LC-ESI-QFT; MS2; CE: 45; R=17500; [M+H]+
Name: Reserpine
Name: methyl (1R,15S,17R,18R,19S,20S)-6,18-dimethoxy-17-(3,4,5-trimethoxybenzoyl)oxy-1,3,11,12,14,15,16,17,18,19,20,21-dodecahydroyohimban-19-carboxylate
Formula: C33H40N2O9
Exact mass: 608.2734
SMILES: CO[C@H]1[C@@H](C[C@@H]2CN3CCC4=C(NC5=C4C=CC(OC)=C5)[C@H]3C[C@@H]2[C@@H]1C(=O)OC)OC(=O)C1=CC(OC)=C(OC)C(OC)=C1
InChI: InChI=1S/C33H40N2O9/c1-38-19-7-8-20-21-9-10-35-16-18-13-27(44-32(36)17-11-25(39-2)30(41-4)26(12-17)40-3)31(42-5)28(33(37)43-6)22(18)15-24(35)29(21)34-23(20)14-19/h7-8,11-12,14,18,22,24,27-28,31,34H,9-10,13,15-16H2,1-6H3/t18-,22+,24-,27-,28+,31+/m1/s1
Instrument: Q Exactive Orbitrap (Thermo Scientific)
Instrument type: LC-ESI-QFT
Ms type: MS2
Ion mode: POSITIVE
Ionization: ESI
Fragmentation mode: HCD
Collision energy: 45
Resolution: 17500
Column name: Acquity BEH C18 1.7um, 2.1x150mm (Waters)
Retention time: 15.330 min
Base peak: 79.0211
Precursor m/z: 609.2807
Precursor type: [M+H]+
Precursor intensity: 2238351.3125
m/z	relative intensity	assigned
53.0387	1	C4H5+
56.0496	3	C3H6N+
65.0385	2	C5H5+
67.0542	1	C5H7+
68.0494	2	C4H6N+
70.0651	5	C4H8N+
71.049	8	C4H7O+
75.044	3	C3H7O2+
79.0542	11	C6H7+
80.0494	4	C5H6N+
81.0336	3	C5H5O+
81.0699	7	C6H9+
85.0284	2	C4H5O2+
91.0542	13	C7H7+
93.07	2	C7H9+
94.0414	1	C6H6O+
94.0651	17	C6H8N+
95.0491	3	C6H7O+
96.057	2	C6H8O+
97.0649	5	C6H9O+
101.0595	2	C5H9O2+
103.0542	2	C8H7+
105.0698	4	C8H9+
106.065	8	C7H8N+
108.0569	5	C7H8O+
108.0807	3	C7H10N+
109.0647	16	C7H9O+
111.044	18	C6H7O2+
111.0805	3	C7H11O+
113.0235	1	C5H5O3+
113.0599	1	C6H9O2+
115.0543	5	C9H7+
116.062	1	C9H8+
117.0699	6	C9H9+
118.065	10	C8H8N+
120.0808	16	C8H10N+
121.0286	1	C7H5O2+
121.0648	4	C8H9O+
122.0361	5	C7H6O2+
122.0723	2	C8H10O+
123.0804	5	C8H11O+
124.0517	9	C7H8O2+
126.0917	2	C7H12NO+
128.0468	4	C6H8O3+
129.0699	3	C10H9+
130.0655	7	C9H8N+
131.0489	2	C9H7O+
131.0729	13	C9H9N+
131.0856	6	C10H11+
132.0807	21	C9H10N+
135.0447	2	C8H7O2+
135.0807	2	C9H11O+
136.0757	5	C8H10NO+
137.0597	3	C8H9O2+
139.0754	34	C8H11O2+
141.0182	5	C6H5O4+
142.0652	4	C10H8N+
143.0731	24	C10H9N+
144.0807	22	C10H10N+
145.0647	3	C10H9O+
145.0887	4	C10H11N+
146.0599	3	C9H8NO+
146.0964	3	C10H12N+
147.0683	4	C9H9NO+
147.0802	15	C10H11O+
148.0757	29	C9H10NO+
149.0598	6	C9H9O2+
150.0914	5	C9H12NO+
151.0385	2	C8H7O3+
152.0468	34	C8H8O3+
156.0416	9	C7H8O4+
156.0805	2	C11H10N+
157.0885	2	C11H11N+
158.0599	4	C10H8NO+
159.0679	49	C10H9NO+
160.0757	52	C10H10NO+
161.0599	3	C10H9O2+
161.0834	19	C10H11NO+
162.0914	14	C10H12NO+
163.0755	3	C10H11O2+
164.1067	8	C10H14NO+
167.0702	13	C9H11O3+
169.0861	4	C12H11N+
172.0755	11	C11H10NO+
173.0834	9	C11H11NO+
174.0914	899	C11H12NO+
175.0753	7	C11H11O2+
176.107	10	C11H14NO+
178.0859	8	C10H12NO2+
179.0697	3	C10H11O3+
181.0864	4	C10H13O3+
183.0689	1	C12H9NO+
184.0373	2	C8H8O5+
184.0756	5	C12H10NO+
185.0811	25	C9H13O4+
186.0914	21	C12H12NO+
187.0755	2	C12H11O2+
187.0993	7	C12H13NO+
188.1071	31	C12H14NO+
190.0859	12	C11H12NO2+
192.1019	72	C11H14NO2+
193.086	5	C11H13O3+
195.0652	999	C10H11O4+
197.0832	2	C13H11NO+
198.0914	7	C13H12NO+
199.087	3	C12H11N2O+
199.099	9	C13H13NO+
200.107	33	C13H14NO+
201.1022	7	C12H13N2O+
204.1019	34	C12H14NO2+
206.1175	2	C12H16NO2+
207.1019	2	C12H15O3+
210.0915	6	C14H12NO+
211.0984	3	C14H13NO+
212.1067	8	C14H14NO+
213.1023	2	C13H13N2O+
214.1097	9	C13H14N2O+
215.118	10	C13H15N2O+
222.1119	3	C12H16NO3+
223.0988	2	C15H13NO+
224.1068	6	C15H14NO+
224.128	22	C12H18NO3+
225.1148	1	C15H15NO+
226.1228	5	C15H16NO+
227.1178	16	C14H15N2O+
228.125	2	C14H16N2O+
229.1339	2	C14H17N2O+
234.0911	2	C16H12NO+
235.0988	2	C16H13NO+
236.1083	8	C16H14NO+
236.1282	68	C13H18NO3+
237.1028	2	C15H13N2O+
237.1149	7	C16H15NO+
238.11	2	C15H14N2O+
238.1224	12	C16H16NO+
239.1179	2	C15H15N2O+
247.0998	2	C17H13NO+
248.1082	7	C17H14NO+
249.115	4	C17H15NO+
250.1094	2	C16H14N2O+
250.1225	7	C17H16NO+
251.1179	7	C16H15N2O+
252.1253	4	C16H16N2O+
253.1336	9	C16H17N2O+
260.1071	2	C18H14NO+
261.1145	4	C18H15NO+
262.1224	9	C18H16NO+
264.1252	3	C17H16N2O+
264.1394	2	C18H18NO+
265.1333	16	C17H17N2O+
273.1143	3	C19H15NO+
274.1224	8	C19H16NO+
276.1382	20	C19H18NO+
288.1383	11	C20H18NO+
289.1469	3	C20H19NO+
290.1172	4	C19H16NO2+
291.149	4	C19H19N2O+
304.1334	9	C20H18NO2+
305.165	6	C20H21N2O+
316.1334	4	C21H18NO2+
322.1437	6	C20H20NO3+
333.1592	5	C21H21N2O2+
336.1591	22	C21H22NO3+
337.1921	2	C21H25N2O2+
348.1589	7	C22H22NO3+
350.1629	8	C21H22N2O3+
364.1717	2	C16H28O9+
365.1861	58	C22H25N2O3+
368.1487	2	C21H22NO5+
368.1859	2	C22H26NO4+
382.1888	5	C22H26N2O4+
395.196	4	C23H27N2O4+
397.2123	30	C23H29N2O4+
402.1534	3	C21H24NO7+
413.2089	2	C23H29N2O5+
434.1818	3	C22H28NO8+
448.1973	10	C23H30NO8+
