Mass spectrum: Salicylamide; LC-ESI-QFT; MS2; CE: 90; R=17500; [M-H]-
Name: Salicylamide
Name: 2-hydroxybenzamide
Formula: C7H7NO2
Exact mass: 137.0477
SMILES: NC(=O)C1=CC=CC=C1O
InChI: InChI=1S/C7H7NO2/c8-7(10)5-3-1-2-4-6(5)9/h1-4,9H,(H2,8,10)
Instrument: Q Exactive Orbitrap (Thermo Scientific)
Instrument type: LC-ESI-QFT
Ms type: MS2
Ion mode: NEGATIVE
Ionization: ESI
Fragmentation mode: HCD
Collision energy: 90
Resolution: 17500
Column name: Acquity BEH C18 1.7um, 2.1x150mm (Waters)
Retention time: 12.125 min
Base peak: 112.9857
Precursor m/z: 136.0404
Precursor type: [M-H]-
Precursor intensity: 3458368.912842
m/z	relative intensity	assigned
65.0033	76	C4HO-
65.0397	129	C5H5-
90.035	66	C6H4N-
91.019	425	C6H3O-
92.0504	24	C6H6N-
93.0346	999	C6H5O-
116.0141	29	C7H2NO-
118.0299	303	C7H4NO-
136.0406	19	C7H6NO2-
