Mass spectrum: Nomifensine; LC-ESI-QFT; MS2; CE: 90; R=17500; [M+H]+
Name: Nomifensine
Name: 2-methyl-4-phenyl-3,4-dihydro-1H-isoquinolin-8-amine
Formula: C16H18N2
Exact mass: 238.1470
SMILES: CN1CC(C2=CC=CC=C2)C2=CC=CC(N)=C2C1
InChI: InChI=1S/C16H18N2/c1-18-10-14(12-6-3-2-4-7-12)13-8-5-9-16(17)15(13)11-18/h2-9,14H,10-11,17H2,1H3
Instrument: Q Exactive Orbitrap (Thermo Scientific)
Instrument type: LC-ESI-QFT
Ms type: MS2
Ion mode: POSITIVE
Ionization: ESI
Fragmentation mode: HCD
Collision energy: 90
Resolution: 17500
Column name: Acquity BEH C18 1.7um, 2.1x150mm (Waters)
Retention time: 13.050 min
Base peak: 79.0211
Precursor m/z: 239.1543
Precursor type: [M+H]+
Precursor intensity: 34483987.25
m/z	relative intensity	assigned
51.023	4	C4H3+
53.0386	36	C4H5+
65.0385	60	C5H5+
68.0494	3	C4H6N+
77.0385	19	C6H5+
79.0542	48	C6H7+
80.0494	7	C5H6N+
81.0574	2	C5H7N+
90.0464	7	C7H6+
91.0543	999	C7H7+
92.0493	2	C6H6N+
93.0573	13	C6H7N+
93.0699	5	C7H9+
94.0651	9	C6H8N+
103.0542	87	C8H7+
104.0496	11	C7H6N+
105.0448	44	C6H5N2+
105.0698	16	C8H9+
106.0651	122	C7H8N+
107.0729	6	C7H9N+
108.0806	4	C7H10N+
115.0543	120	C9H7+
116.0495	8	C8H6N+
117.0573	162	C8H7N+
118.0651	641	C8H8N+
119.073	9	C8H9N+
120.0808	84	C8H10N+
121.0886	2	C8H11N+
128.0386	5	C8H4N2+
128.062	7	C10H8+
129.0698	4	C10H9+
130.0652	166	C9H8N+
131.0603	6	C8H7N2+
131.073	14	C9H9N+
132.0682	28	C8H8N2+
132.0807	41	C9H10N+
133.076	28	C8H9N2+
134.0966	1	C9H12N+
141.0701	13	C11H9+
143.0732	4	C10H9N+
145.0762	8	C9H9N2+
146.0839	26	C9H10N2+
147.0918	24	C9H11N2+
152.0387	2	C10H4N2+
152.0621	16	C12H8+
153.0698	16	C12H9+
154.065	4	C11H8N+
154.0776	4	C12H10+
155.0854	4	C12H11+
156.0806	3	C11H10N+
159.0917	12	C10H11N2+
165.07	68	C13H9+
166.0653	3	C12H8N+
166.0778	16	C13H10+
167.0729	20	C12H9N+
167.0853	14	C13H11+
168.0803	3	C12H10N+
176.0619	7	C14H8+
177.0702	12	C14H9+
178.0778	325	C14H10+
179.0856	90	C14H11+
180.0808	475	C13H10N+
181.0886	244	C13H11N+
182.0959	5	C13H12N+
189.0699	17	C15H9+
190.0778	12	C15H10+
191.0856	12	C15H11+
192.0808	14	C14H10N+
192.0929	2	C15H12+
193.0888	124	C14H11N+
194.0965	78	C14H12N+
195.1043	21	C14H13N+
196.1124	7	C14H14N+
197.1194	2	C14H15N+
206.0966	23	C15H12N+
207.1044	10	C15H13N+
208.0994	10	C14H12N2+
208.112	10	C15H14N+
209.1074	29	C14H13N2+
223.1228	7	C15H15N2+
237.1392	1	C16H17N2+
