Mass spectrum: Metronidazole; LC-ESI-QFT; MS2; CE: 30; R=17500; [M+H]+
Name: Metronidazole
Name: 2-(2-methyl-5-nitroimidazol-1-yl)ethanol
Formula: C6H9N3O3
Exact mass: 171.0644
SMILES: CC1=NC=C(N1CCO)[N+]([O-])=O
InChI: InChI=1S/C6H9N3O3/c1-5-7-4-6(9(11)12)8(5)2-3-10/h4,10H,2-3H2,1H3
Instrument: Q Exactive Orbitrap (Thermo Scientific)
Instrument type: LC-ESI-QFT
Ms type: MS2
Ion mode: POSITIVE
Ionization: ESI
Fragmentation mode: HCD
Collision energy: 30
Resolution: 17500
Column name: Acquity BEH C18 1.7um, 2.1x150mm (Waters)
Retention time: 6.904 min
Base peak: 79.0211
Precursor m/z: 172.0717
Precursor type: [M+H]+
Precursor intensity: 5098761.90625
m/z	relative intensity	assigned
56.0369	13	C2H4N2+
82.0523	6	C4H6N2+
89.0708	2	C3H9N2O+
98.0474	4	C4H6N2O+
111.0428	3	C4H5N3O+
128.0454	999	C4H6N3O2+
172.0717	553	C6H10N3O3+
