Mass spectrum: AVE6324; LC-ESI-QFT; MS2; CE: 60; R=17500; [M+H]+
Name: AVE6324
Name: [(1R)-1-ethoxycarbonyloxyethyl] 1-[[5-(5-chlorothiophen-2-yl)-1,2-oxazol-3-yl]methyl]-2-[(1-propan-2-ylpiperidin-4-yl)carbamoyl]indole-5-carboxylate
Formula: C31H35ClN4O7S
Exact mass: 642.1915
SMILES: CCOC(=O)O[C@H](C)OC(=O)c1ccc2c(c1)cc(C(=O)NC1CCN(C(C)C)CC1)n2Cc1cc(-c2ccc(Cl)s2)on1
InChI: InChI=1S/C31H35ClN4O7S/c1-5-40-31(39)42-19(4)41-30(38)20-6-7-24-21(14-20)15-25(29(37)33-22-10-12-35(13-11-22)18(2)3)36(24)17-23-16-26(43-34-23)27-8-9-28(32)44-27/h6-9,14-16,18-19,22H,5,10-13,17H2,1-4H3,(H,33,37)/t19-/m1/s1
Instrument: Q Exactive Orbitrap (Thermo Scientific)
Instrument type: LC-ESI-QFT
Ms type: MS2
Ion mode: POSITIVE
Ionization: ESI
Fragmentation mode: HCD
Collision energy: 60
Resolution: 17500
Column name: Acquity BEH C18 1.7um, 2.1x150mm (Waters)
Retention time: 17.315 min
Base peak: 79.0212
Precursor m/z: 643.1988
Precursor type: [M+H]+
Precursor intensity: 7766250.75
m/z	relative intensity	assigned
53.0022	5	C3HO+
53.0386	4	C4H5+
55.0542	139	C4H7+
56.0495	366	C3H6N+
57.0699	12	C4H9+
58.0651	50	C3H8N+
65.0386	7	C5H5+
67.0416	10	C4H5N+
67.0542	59	C5H7+
68.0495	6	C4H6N+
68.9795	1	C3HS+
69.0572	3	C4H7N+
69.0698	32	C5H9+
70.0651	44	C4H8N+
71.0729	2	C4H9N+
72.0807	59	C4H10N+
72.9839	36	C3H2Cl+
78.9403	6	CClS+
80.0132	7	C4H2NO+
80.0494	21	C5H6N+
81.0572	1	C5H7N+
82.0651	300	C5H8N+
84.0808	710	C5H10N+
86.0964	5	C5H12N+
90.0337	1	C6H4N+
95.0603	2	C5H7N2+
96.0809	2	C6H10N+
98.0965	21	C6H12N+
104.0494	3	C7H6N+
108.0028	6	C6H4S+
108.0446	2	C6H6NO+
108.0809	5	C7H10N+
110.0964	99	C7H12N+
112.1121	8	C7H14N+
114.0338	8	C8H4N+
116.0493	4	C8H6N+
116.9559	10	C4H2ClS+
117.0572	3	C8H7N+
119.0366	2	C7H5NO+
122.0964	16	C8H12N+
124.1121	334	C8H14N+
126.1277	648	C8H16N+
127.0865	26	C6H11N2O+
127.123	4	C7H15N2+
128.0494	5	C9H6N+
129.0572	20	C9H7N+
130.0652	12	C9H8N+
130.9716	6	C5H4ClS+
132.0445	7	C8H6NO+
132.9508	10	C4H2ClOS+
133.0284	6	C8H5O2+
134.0063	2	C7H4NS+
134.0601	8	C8H8NO+
135.0138	14	C7H5NS+
137.1073	7	C8H13N2+
139.1229	3	C8H15N2+
140.0495	7	C10H6N+
141.1386	3	C8H17N2+
142.0288	22	C9H4NO+
142.0652	3	C10H8N+
142.9717	232	C6H4ClS+
143.9673	2	C5H3ClNS+
144.0444	29	C9H6NO+
144.9509	999	C5H2ClOS+
146.0599	1	C9H8NO+
150.0549	5	C8H8NO2+
153.1022	4	C8H13N2O+
154.9718	2	C7H4ClS+
155.0603	4	C10H7N2+
156.0442	5	C10H6NO+
157.0521	16	C10H7NO+
158.0601	5	C10H8NO+
160.0392	7	C9H6NO2+
161.0471	56	C9H7NO2+
162.001	7	C8H4NOS+
162.0547	2	C9H8NO2+
163.0087	10	C8H5NOS+
167.0607	8	C11H7N2+
167.1177	1	C9H15N2O+
167.9671	9	C7H3ClNS+
168.0682	5	C11H8N2+
168.9511	5	C7H2ClOS+
169.0396	23	C10H5N2O+
169.0508	1	C9H5N4+
169.0762	3	C11H9N2+
169.1336	24	C9H17N2O+
169.9825	163	C7H5ClNS+
170.0348	14	C9H4N3O+
170.9666	12	C7H4ClOS+
171.0554	5	C10H7N2O+
172.0631	12	C10H8N2O+
173.047	5	C10H7NO2+
174.055	14	C10H8NO2+
175.0264	11	C9H5NO3+
178.0496	3	C9H8NO3+
183.0551	4	C11H7N2O+
183.9743	1	C8H5ClOS+
186.0423	5	C10H6N2O2+
188.0342	399	C10H6NO3+
189.0418	9	C10H7NO3+
190.0501	2	C7H11ClN2O2+
195.0553	26	C12H7N2O+
195.962	6	C8H3ClNOS+
196.0634	3	C9H11ClN3+
197.0707	3	C12H9N2O+
197.9775	348	C8H5ClNOS+
199.0501	19	C11H7N2O2+
200.0579	7	C11H8N2O2+
202.0496	15	ClH15N4O4S+
204.0528	20	C10H8N2O3+
205.0371	6	C10H7NO4+
205.076	6	C14H9N2+
211.0502	4	C12H7N2O2+
213.0658	10	C12H9N2O2+
215.0449	22	C11H7N2O3+
215.9882	6	C8H7ClNO2S+
216.0289	18	ClH13N4O5S+
216.0664	5	C6H16O6S+
223.0508	31	C7H12ClN2O4+
225.0661	3	C10H12ClN3O+
226.0371	4	C12H6N2O3+
226.0495	2	C2H15ClN4O4S+
227.0454	3	C9H10ClN3O2+
228.053	2	C12H8N2O3+
230.0039	13	C9H9ClNO2S+
230.0324	15	C11H6N2O4+
231.0402	2	C11H7N2O4+
233.0708	7	C15H9N2O+
239.0451	24	C13H7N2O3+
243.04	68	C12H7N2O4+
245.0709	3	C16H9N2O+
247.0324	2	C15H7N2S+
249.0482	19	C15H9N2S+
250.0559	11	C15H10N2S+
261.0478	10	C16H9N2S+
261.0658	6	C16H9N2O2+
269.0056	2	C18H5OS+
276.0352	14	C16H8N2OS+
277.0432	53	C16H9N2OS+
277.0606	6	C16H9N2O3+
278.0507	11	C16H10N2OS+
278.0686	23	C16H10N2O3+
279.0341	3	C14H7N4OS+
289.061	2	C17H9N2O3+
293.038	9	C16H9N2O2S+
304.0292	4	C19H9ClO2+
305.0378	39	C17H9N2O2S+
306.0453	17	C17H10N2O2S+
311.0043	16	C16H8ClN2OS+
313.0194	8	C19H7NO2S+
314.0036	24	C16H9ClNO2S+
321.0328	77	C17H9N2O3S+
322.0406	26	C17H10N2O3S+
336.0203	6	C14H11ClN3O3S+
340.0067	22	C17H9ClN2O2S+
341.9986	2	C17H9ClNO3S+
357.0093	33	C17H10ClN2O3S+
366.009	1	C21H6N2O3S+
366.9952	3	C26H4ClO+
370.0405	4	C21H10N2O3S+
371.9965	32	C17H9ClN2O4S+
382.9878	3	C24H2ClN3O+
384.0204	27	C18H11ClN3O3S+
422.0361	2	C21H13ClN3O3S+
