Mass spectrum: Prochloraz; LC-ESI-QFT; MS2; CE: 45; R=17500; [M+H]+
Name: Prochloraz
Name: N-propyl-N-[2-(2,4,6-trichlorophenoxy)ethyl]imidazole-1-carboxamide
Formula: C15H16Cl3N3O2
Exact mass: 375.0308
SMILES: CCCN(CCOC1=C(Cl)C=C(Cl)C=C1Cl)C(=O)N1C=CN=C1
InChI: InChI=1S/C15H16Cl3N3O2/c1-2-4-20(15(22)21-5-3-19-10-21)6-7-23-14-12(17)8-11(16)9-13(14)18/h3,5,8-10H,2,4,6-7H2,1H3
Instrument: Q Exactive Orbitrap (Thermo Scientific)
Instrument type: LC-ESI-QFT
Ms type: MS2
Ion mode: POSITIVE
Ionization: ESI
Fragmentation mode: HCD
Collision energy: 45
Resolution: 17500
Column name: Acquity BEH C18 1.7um, 2.1x150mm (Waters)
Retention time: 18.455 min
Base peak: 79.0211
Precursor m/z: 376.0381
Precursor type: [M+H]+
Precursor intensity: 9749667.0625
m/z	relative intensity	assigned
53.0022	31	C3HO+
56.0495	119	C3H6N+
57.0573	36	C3H7N+
60.0444	31	C2H6NO+
70.0287	999	C3H4NO+
70.0651	762	C4H8N+
74.06	22	C3H8NO+
85.0886	144	C5H11N+
98.0601	34	C5H8NO+
158.9761	18	C7H5Cl2+
161.9632	10	C6H4Cl2O+
165.0715	14	C13H9+
174.9711	35	C7H5Cl2O+
179.9299	11	C6H3Cl3+
194.9166	104	C6H2Cl3O+
196.9323	44	C6H4Cl3O+
201.9819	49	C8H6Cl2NO+
206.9279	45	C6H2Cl3N2+
222.9479	119	C8H6Cl3O+
237.9591	11	C8H7Cl3NO+
245.0377	12	C8H16Cl3N2+
265.9538	92	C9H7Cl3NO2+
308.0009	133	C12H13Cl3NO2+
