Mass spectrum: 4-(2,5-Diethoxy-4-nitrophenyl)morpholine; LC-ESI-QFT; MS2; CE: 45; R=17500; [M+H]+
Name: 4-(2,5-Diethoxy-4-nitrophenyl)morpholine
Formula: C14H20N2O5
Exact mass: 296.1372
SMILES: CCOC1=CC(=C(OCC)C=C1N1CCOCC1)[N+]([O-])=O
InChI: InChI=1S/C14H20N2O5/c1-3-20-13-10-12(16(17)18)14(21-4-2)9-11(13)15-5-7-19-8-6-15/h9-10H,3-8H2,1-2H3
Instrument: Q Exactive Orbitrap (Thermo Scientific)
Instrument type: LC-ESI-QFT
Ms type: MS2
Ion mode: POSITIVE
Ionization: ESI
Fragmentation mode: HCD
Collision energy: 45
Resolution: 17500
Column name: Acquity BEH C18 1.7um, 2.1x150mm (Waters)
Retention time: 17.266 min
Base peak: 79.0212
Precursor m/z: 297.1445
Precursor type: [M+H]+
Precursor intensity: 8457135.25
m/z	relative intensity	assigned
52.0182	5	C3H2N+
53.0386	3	C4H5+
54.0338	7	C3H4N+
55.0178	6	C3H3O+
56.0495	14	C3H6N+
57.0574	5	C3H7N+
58.0651	3	C3H8N+
65.0387	2	C5H5+
67.0415	6	C4H5N+
67.054	3	C5H7+
68.013	8	C3H2NO+
68.0494	15	C4H6N+
69.0335	4	C4H5O+
70.0287	4	C3H4NO+
70.065	4	C4H8N+
72.0444	15	C3H6NO+
73.0648	7	C4H9O+
74.0963	2	C4H12N+
78.0336	7	C5H4N+
80.0495	30	C5H6N+
81.0334	3	C5H5O+
82.0287	12	C4H4NO+
82.0652	4	C5H8N+
84.0444	5	C4H6NO+
85.0521	3	C4H7NO+
86.0601	18	C4H8NO+
90.034	2	C6H4N+
91.0543	4	C7H7+
92.0495	5	C6H6N+
93.0446	6	C5H5N2+
93.0572	7	C6H7N+
94.0287	59	C5H4NO+
94.0651	13	C6H8N+
95.0365	3	C5H5NO+
95.0603	7	C5H7N2+
96.0443	13	C5H6NO+
96.0806	2	C6H10N+
98.06	4	C5H8NO+
104.0493	7	C7H6N+
105.0447	34	C6H5N2+
105.0573	5	C7H7N+
106.0286	8	C6H4NO+
106.065	18	C7H8N+
107.0127	3	C6H3O2+
107.024	3	C5H3N2O+
107.0604	8	C6H7N2+
108.0443	8	C6H6NO+
108.0682	4	C6H8N2+
108.0806	3	C7H10N+
109.0281	4	C6H5O2+
109.0523	7	C6H7NO+
109.0762	3	C6H9N2+
110.0236	11	C5H4NO2+
110.06	14	C6H8NO+
111.068	6	C6H9NO+
112.0756	6	C6H10NO+
118.0651	9	C8H8N+
119.0604	10	C7H7N2+
119.0731	4	C8H9N+
120.0444	18	C7H6NO+
120.0807	4	C8H10N+
121.0397	8	C6H5N2O+
121.0522	11	C7H7NO+
121.0647	4	C8H9O+
121.076	10	C7H9N2+
122.0236	12	C6H4NO2+
122.0599	43	C7H8NO+
123.0317	6	C6H5NO2+
123.044	4	C7H7O2+
123.0551	19	C6H7N2O+
123.0678	8	C7H9NO+
124.0394	16	C6H6NO2+
124.0521	5	C7H8O2+
124.0629	4	C6H8N2O+
124.0757	8	C7H10NO+
125.0345	7	C5H5N2O2+
126.0549	5	C6H8NO2+
132.0445	6	C8H6NO+
133.0397	6	C7H5N2O+
133.0523	23	C8H7NO+
133.0759	11	C8H9N2+
134.0236	97	C7H4NO2+
134.0474	7	C7H6N2O+
134.06	43	C8H8NO+
135.0315	11	C7H5NO2+
135.0439	8	C8H7O2+
135.0552	23	C7H7N2O+
135.0679	10	C8H9NO+
135.0918	6	C8H11N2+
136.0393	26	C7H6NO2+
136.063	24	C7H8N2O+
136.0756	28	C8H10NO+
137.0472	14	C7H7NO2+
137.0709	76	C7H9N2O+
137.0835	5	C8H11NO+
138.0187	5	C6H4NO3+
138.0549	23	C7H8NO2+
138.0911	3	C8H12NO+
139.0501	12	C6H7N2O2+
139.0627	6	C7H9NO2+
140.0342	5	C6H6NO3+
140.0705	6	C7H10NO2+
147.0552	5	C8H7N2O+
147.0678	5	C9H9NO+
148.0392	121	C8H6NO2+
148.0758	23	C9H10NO+
149.0345	20	C7H5N2O2+
149.0471	67	C8H7NO2+
149.0709	70	C8H9N2O+
149.0831	4	C9H11NO+
150.0549	242	C8H8NO2+
150.0784	15	C8H10N2O+
151.0504	24	C7H7N2O2+
151.0627	89	C8H9NO2+
151.0865	36	C8H11N2O+
152.0344	6	C7H6NO3+
152.058	8	C7H8N2O2+
152.0704	25	C8H10NO2+
152.094	3	C8H12N2O+
153.0293	13	C6H5N2O3+
153.0658	9	C7H9N2O2+
153.079	3	C8H11NO2+
154.0134	32	C6H4NO4+
160.076	3	C10H10NO+
161.0345	10	C8H5N2O2+
161.0707	11	C9H9N2O+
162.0421	9	C8H6N2O2+
162.0547	36	C9H8NO2+
162.0913	31	C10H12NO+
163.0134	4	C7H3N2O3+
163.0501	42	C8H7N2O2+
163.0622	16	C9H9NO2+
163.0865	30	C9H11N2O+
163.0989	8	C10H13NO+
164.034	16	C8H6NO3+
164.0705	134	C9H10NO2+
164.1069	11	C10H14NO+
165.0294	5	C7H5N2O3+
165.0659	90	C8H9N2O2+
165.0779	22	C9H11NO2+
165.1022	11	C9H13N2O+
166.0498	85	C8H8NO3+
166.0861	26	C9H12NO2+
167.0452	11	C7H7N2O3+
167.0576	6	C8H9NO3+
167.0817	7	C8H11N2O2+
168.0295	3	C7H6NO4+
169.0242	28	C6H5N2O4+
175.0499	5	C9H7N2O2+
175.0628	5	C10H9NO2+
176.0706	135	C10H10NO2+
176.1068	7	C11H14NO+
177.0294	16	C8H5N2O3+
177.0658	28	C9H9N2O2+
177.0783	48	C10H11NO2+
177.102	15	C10H13N2O+
178.0372	9	C8H6N2O3+
178.0738	16	C9H10N2O2+
178.0862	76	C10H12NO2+
179.0452	36	C8H7N2O3+
179.0814	73	C9H11N2O2+
179.094	117	C10H13NO2+
179.1179	12	C10H15N2O+
180.0529	22	C8H8N2O3+
180.0656	26	C9H10NO3+
180.0892	30	C9H12N2O2+
180.1019	11	C10H14NO2+
181.0243	120	C7H5N2O4+
181.0605	21	C8H9N2O3+
181.0733	11	C9H11NO3+
181.0971	137	C9H13N2O2+
182.0321	43	C7H6N2O4+
182.0447	13	C8H8NO4+
182.0813	6	C9H12NO3+
183.0402	5	C7H7N2O4+
189.0655	4	C10H9N2O2+
190.0861	30	C11H12NO2+
191.0815	22	C10H11N2O2+
191.0934	5	C11H13NO2+
192.0653	26	C10H10NO3+
192.1019	200	C11H14NO2+
193.0607	26	C9H9N2O3+
193.0972	189	C10H13N2O2+
193.1094	19	C11H15NO2+
194.0812	999	C10H12NO3+
195.0401	65	C8H7N2O4+
195.0504	4	C9H9NO4+
195.0767	14	C9H11N2O3+
195.089	57	C10H13NO3+
196.0479	137	C8H8N2O4+
197.0556	281	C8H9N2O4+
204.1023	11	C12H14NO2+
205.0604	12	C10H9N2O3+
205.1099	15	C12H15NO2+
206.0688	26	C10H10N2O3+
206.0796	4	C11H12NO3+
206.1176	11	C12H16NO2+
207.04	6	C9H7N2O4+
207.0765	63	C10H11N2O3+
207.0891	11	C11H13NO3+
207.1131	9	C11H15N2O2+
207.1252	48	C12H17NO2+
208.0844	53	C10H12N2O3+
208.0968	62	C11H14NO3+
208.1206	97	C11H16N2O2+
208.133	29	C12H18NO2+
209.0557	149	C9H9N2O4+
209.0921	203	C10H13N2O3+
209.1044	20	C11H15NO3+
209.1284	150	C11H17N2O2+
210.0634	33	C9H10N2O4+
210.0761	29	C10H12NO4+
210.1001	6	C10H14N2O3+
210.112	6	C11H16NO3+
211.0346	13	C8H7N2O5+
211.0714	18	C9H11N2O4+
211.0832	5	C10H13NO4+
218.1175	6	C13H16NO2+
220.1331	21	C13H18NO2+
221.0554	6	C10H9N2O4+
221.0921	33	C11H13N2O3+
221.1036	5	C12H15NO3+
222.1123	151	C12H16NO3+
223.0714	70	C10H11N2O4+
223.1202	150	C12H17NO3+
224.0791	133	C10H12N2O4+
224.1153	6	C11H16N2O3+
225.0509	49	C9H9N2O5+
225.0868	267	C10H13N2O4+
226.0948	26	C10H14N2O4+
234.0997	12	C12H14N2O3+
235.108	13	C12H15N2O3+
236.128	614	C13H18NO3+
237.0868	146	C11H13N2O4+
237.1232	39	C12H17N2O3+
238.1074	58	C12H16NO4+
238.13	4	C12H18N2O3+
239.0661	125	C10H11N2O5+
239.1024	30	C11H15N2O4+
239.1152	68	C12H17NO4+
240.0738	103	C10H12N2O5+
241.0816	61	C10H13N2O5+
250.144	22	C14H20NO3+
251.1017	17	C12H15N2O4+
251.1526	4	C14H21NO3+
252.1103	116	C12H16N2O4+
252.123	12	C13H18NO4+
253.0818	78	C11H13N2O5+
253.1182	79	C12H17N2O4+
254.125	14	C12H18N2O4+
263.1384	6	C14H19N2O3+
267.0976	19	C12H15N2O5+
268.1053	224	C12H16N2O5+
269.113	321	C12H17N2O5+
280.1412	7	C14H20N2O4+
295.1289	7	C14H19N2O5+
297.1445	541	C14H21N2O5+
