Mass spectrum: 4,4`-Methylenebis(N,N-dimethylaniline); LC-ESI-QFT; MS2; CE: 90; R=17500; [M+H]+
Name: 4,4'-Methylenebis(N,N-dimethylaniline)
Name: 4-[[4-(dimethylamino)phenyl]methyl]-N,N-dimethylaniline
Formula: C17H22N2
Exact mass: 254.1783
SMILES: CN(C)C1=CC=C(CC2=CC=C(C=C2)N(C)C)C=C1
InChI: InChI=1S/C17H22N2/c1-18(2)16-9-5-14(6-10-16)13-15-7-11-17(12-8-15)19(3)4/h5-12H,13H2,1-4H3
Instrument: Q Exactive Orbitrap (Thermo Scientific)
Instrument type: LC-ESI-QFT
Ms type: MS2
Ion mode: POSITIVE
Ionization: ESI
Fragmentation mode: HCD
Collision energy: 90
Resolution: 17500
Column name: Acquity BEH C18 1.7um, 2.1x150mm (Waters)
Retention time: 10.439 min
Base peak: 79.0212
Precursor m/z: 255.1856
Precursor type: [M+H]+
Precursor intensity: 28513269.59375
m/z	relative intensity	assigned
56.0495	1	C3H6N+
58.0652	1	C3H8N+
65.0385	1	C5H5+
68.0495	2	C4H6N+
79.0542	6	C6H7+
91.0543	39	C7H7+
94.0651	3	C6H8N+
104.0495	7	C7H6N+
106.0652	4	C7H8N+
107.0731	3	C7H9N+
108.0807	2	C7H10N+
115.054	4	C9H7+
117.0574	12	C8H7N+
118.0652	74	C8H8N+
119.0731	10	C8H9N+
120.0808	198	C8H10N+
121.0887	24	C8H11N+
122.0965	2	C8H12N+
129.0698	2	C10H9+
132.0809	32	C9H10N+
133.0887	8	C9H11N+
134.0965	401	C9H12N+
141.0699	11	C11H9+
144.0809	2	C10H10N+
152.0621	15	C12H8+
153.0699	13	C12H9+
154.0778	5	C12H10+
155.0855	9	C12H11+
156.0806	1	C11H10N+
157.0888	1	C11H11N+
165.07	61	C13H9+
166.0778	58	C13H10+
167.0738	4	C12H9N+
167.0856	23	C13H11+
168.0807	4	C12H10N+
169.0892	1	C12H11N+
170.0967	6	C12H12N+
179.0856	7	C14H11+
180.0808	221	C13H10N+
181.0886	183	C13H11N+
182.0964	14	C13H12N+
183.1044	6	C13H13N+
184.1121	4	C13H14N+
193.0886	7	C14H11N+
194.0966	144	C14H12N+
195.1044	165	C14H13N+
196.1122	316	C14H14N+
197.12	26	C14H15N+
198.1276	2	C14H16N+
207.1041	2	C15H13N+
208.1121	33	C15H14N+
209.1074	56	C14H13N2+
209.1198	36	C15H15N+
210.1278	172	C15H16N+
223.1231	399	C15H15N2+
224.1308	321	C15H16N2+
225.1387	19	C15H17N2+
237.1393	5	C16H17N2+
238.1465	9	C16H18N2+
239.1543	999	C16H19N2+
