Mass spectrum: Propiconazole; LC-ESI-QFT; MS2; CE: 60; R=17500; [M+H]+
Name: Propiconazole
Name: 1-[[2-(2,4-dichlorophenyl)-4-propyl-1,3-dioxolan-2-yl]methyl]-1,2,4-triazole
Formula: C15H17Cl2N3O2
Exact mass: 341.0698
SMILES: CCCC1COC(CN2C=NC=N2)(O1)C1=C(Cl)C=C(Cl)C=C1
InChI: InChI=1S/C15H17Cl2N3O2/c1-2-3-12-7-21-15(22-12,8-20-10-18-9-19-20)13-5-4-11(16)6-14(13)17/h4-6,9-10,12H,2-3,7-8H2,1H3
Instrument: Q Exactive Orbitrap (Thermo Scientific)
Instrument type: LC-ESI-QFT
Ms type: MS2
Ion mode: POSITIVE
Ionization: ESI
Fragmentation mode: HCD
Collision energy: 60
Resolution: 17500
Column name: Acquity BEH C18 1.7um, 2.1x150mm (Waters)
Retention time: 18.657 min
Base peak: 79.0212
Precursor m/z: 342.0771
Precursor type: [M+H]+
Precursor intensity: 12977039.48437
m/z	relative intensity	assigned
53.0022	32	C3HO+
53.9975	4	C2NO+
67.0542	9	C5H7+
69.0699	187	C5H9+
70.0399	34	C2H4N3+
78.0086	1	C3N3+
84.0556	1	C3H6N3+
89.0386	1	C7H5+
98.9996	1	C5H4Cl+
122.9996	9	C7H4Cl+
124.0073	2	C7H5Cl+
132.9608	1	C5H3Cl2+
139.0059	1	C6H4ClN2+
146.9761	2	C6H5Cl2+
152.0023	1	C8H5ClO+
158.9763	999	C7H5Cl2+
169.005	1	C8H6ClO2+
172.9556	50	C7H3Cl2O+
186.9711	12	C8H5Cl2O+
190.9661	12	C7H5Cl2O2+
