Mass spectrum: Trifloxystrobin; LC-ESI-QFT; MS2; CE: 45; R=17500; [M+H]+
Name: Trifloxystrobin
Name: methyl 2-methoxyimino-2-[2-[[1-[3-(trifluoromethyl)phenyl]ethylideneamino]oxymethyl]phenyl]acetate
Formula: C20H19F3N2O4
Exact mass: 408.1297
SMILES: CON=C(C(=O)OC)C1=CC=CC=C1CON=C(C)C1=CC(=CC=C1)C(F)(F)F
InChI: InChI=1S/C20H19F3N2O4/c1-13(14-8-6-9-16(11-14)20(21,22)23)24-29-12-15-7-4-5-10-17(15)18(25-28-3)19(26)27-2/h4-11H,12H2,1-3H3
Instrument: Q Exactive Orbitrap (Thermo Scientific)
Instrument type: LC-ESI-QFT
Ms type: MS2
Ion mode: POSITIVE
Ionization: ESI
Fragmentation mode: HCD
Collision energy: 45
Resolution: 17500
Column name: Acquity BEH C18 1.7um, 2.1x150mm (Waters)
Retention time: 18.993 min
Base peak: 79.0211
Precursor m/z: 409.137
Precursor type: [M+H]+
Precursor intensity: 26481524.75
m/z	relative intensity	assigned
65.0386	1	C5H5+
66.0464	1	C5H6+
71.0292	1	C4H4F+
74.0965	1	C4H12N+
79.0542	6	C6H7+
89.0385	16	C7H5+
90.0463	2	C7H6+
91.0542	46	C7H7+
95.0489	1	C6H7O+
101.0197	6	C5H3F2+
103.0543	7	C8H7+
104.0495	1	C7H6N+
104.0619	1	C8H8+
105.0699	27	C8H9+
109.0648	6	C7H9O+
115.0542	4	C9H7+
116.0495	247	C8H6N+
117.0573	52	C8H7N+
118.0651	53	C8H8N+
119.0492	19	C8H7O+
119.0604	2	C7H7N2+
119.073	4	C8H9N+
121.0259	2	C5H4F3+
128.0497	3	C9H6N+
130.0652	30	C9H8N+
131.073	242	C9H9N+
132.0444	40	C8H6NO+
132.0808	112	C9H10N+
133.0521	4	C8H7NO+
134.06	61	C8H8NO+
143.0303	9	C7H5F2O+
143.0366	2	C9H5NO+
144.0444	3	C9H6NO+
145.0259	258	C7H4F3+
146.06	164	C9H8NO+
147.0678	39	C9H9NO+
148.0392	1	C8H6NO2+
148.0757	19	C9H10NO+
149.0472	7	C8H7NO2+
159.0421	3	C8H6F3+
161.0471	41	C9H7NO2+
162.0915	3	C10H12NO+
163.0365	21	C7H6F3O+
173.0321	124	C7H4F3N2+
174.055	7	C10H8NO2+
175.0629	16	C10H9NO2+
178.0862	10	C10H12NO2+
180.0614	1	C4H11F3O4+
186.0525	999	C9H7F3N+
191.0576	1	C10H9NO3+
204.063	1	C9H9F3NO+
206.0812	59	C11H12NO3+
