Mass spectrum: Formononetin; LC-ESI-QFT; MS2; CE: 75; R=17500; [M+H]+
Name: Formononetin
Name: 7-hydroxy-3-(4-methoxyphenyl)chromen-4-one
Formula: C16H12O4
Exact mass: 268.0736
SMILES: COC1=CC=C(C=C1)C1=COC2=C(C=CC(O)=C2)C1=O
InChI: InChI=1S/C16H12O4/c1-19-12-5-2-10(3-6-12)14-9-20-15-8-11(17)4-7-13(15)16(14)18/h2-9,17H,1H3
Instrument: Q Exactive Orbitrap (Thermo Scientific)
Instrument type: LC-ESI-QFT
Ms type: MS2
Ion mode: POSITIVE
Ionization: ESI
Fragmentation mode: HCD
Collision energy: 75
Resolution: 17500
Column name: Acquity BEH C18 1.7um, 2.1x150mm (Waters)
Retention time: 16.857 min
Base peak: 79.0211
Precursor m/z: 269.0808
Precursor type: [M+H]+
Precursor intensity: 18236739.625
m/z	relative intensity	assigned
51.0229	1	C4H3+
52.0308	2	C4H4+
53.0023	1	C3HO+
53.0386	12	C4H5+
55.0179	20	C3H3O+
65.0385	11	C5H5+
66.0464	17	C5H6+
67.0542	1	C5H7+
68.0256	1	C4H4O+
68.9971	65	C3HO2+
71.0127	1	C3H3O2+
77.0386	4	C6H5+
78.0466	1	C6H6+
79.0543	50	C6H7+
80.0256	4	C5H4O+
81.0336	33	C5H5O+
89.0386	19	C7H5+
90.0465	93	C7H6+
91.0542	15	C7H7+
92.0257	4	C6H4O+
92.0619	1	C7H8+
93.0337	1	C6H5O+
94.0413	4	C6H6O+
95.0492	36	C6H7O+
102.0464	3	C8H6+
103.0543	50	C8H7+
105.0336	18	C7H5O+
105.07	30	C8H9+
107.0492	95	C7H7O+
108.0206	108	C6H4O2+
109.0284	3	C6H5O2+
110.0364	3	C6H6O2+
111.0439	1	C6H7O2+
115.0542	13	C9H7+
116.062	2	C9H8+
117.0339	1	C8H5O+
118.0413	438	C8H6O+
119.0493	6	C8H7O+
120.0571	4	C8H8O+
121.0284	8	C7H5O2+
123.0442	6	C7H7O2+
127.0389	5	C6H7O3+
127.0541	2	C10H7+
128.0621	56	C10H8+
129.0699	40	C10H9+
130.0777	6	C10H10+
131.0493	7	C9H7O+
132.0204	2	C8H4O2+
132.0572	7	C9H8O+
133.0284	13	C8H5O2+
133.0648	87	C9H9O+
134.0363	2	C8H6O2+
135.0441	5	C8H7O2+
136.0156	12	C7H4O3+
137.0234	197	C7H5O3+
139.0545	2	C11H7+
140.0621	2	C11H8+
141.0699	45	C11H9+
142.0416	1	C10H6O+
142.0778	22	C11H10+
143.0493	2	C10H7O+
144.0571	11	C10H8O+
145.0281	4	C9H5O2+
145.065	9	C10H9O+
147.0441	8	C9H7O2+
148.0519	9	C9H8O2+
151.054	1	C12H7+
152.0622	133	C12H8+
153.0699	87	C12H9+
154.0261	83	C7H6O4+
154.0779	12	C12H10+
155.0492	17	C11H7O+
155.0857	7	C12H11+
156.057	155	C11H8O+
157.0649	63	C11H9O+
158.0727	54	C11H10O+
163.0389	9	C9H7O3+
163.0548	1	C13H7+
165.07	40	C13H9+
166.0779	2	C13H10+
167.0858	5	C13H11+
168.042	3	C8H8O4+
168.057	18	C12H8O+
169.0649	207	C12H9O+
170.0727	215	C12H10O+
171.044	3	C11H7O2+
171.0803	11	C12H11O+
172.0521	7	C11H8O2+
179.05	1	C13H7O+
180.0571	34	C13H8O+
181.0649	292	C13H9O+
182.0728	83	C13H10O+
183.0442	7	C12H7O2+
183.0805	8	C13H11O+
184.052	46	C12H8O2+
185.0597	9	C12H9O2+
185.0961	10	C13H13O+
186.0312	5	C11H6O3+
186.0678	1	C12H10O2+
187.0389	5	C11H7O3+
188.0834	4	C12H12O2+
194.0726	1	C14H10O+
195.0442	3	C13H7O2+
195.0807	26	C14H11O+
196.0521	23	C13H8O2+
196.0885	3	C14H12O+
197.0599	999	C13H9O2+
198.0676	201	C13H10O2+
199.0396	1	C12H7O3+
199.0753	5	C13H11O2+
200.0468	72	C12H8O3+
208.0519	15	C14H8O2+
209.0599	46	C14H9O2+
210.0676	13	C14H10O2+
211.0391	16	C13H7O3+
211.0754	9	C14H11O2+
212.0468	6	C13H8O3+
212.0833	7	C14H12O2+
213.0911	150	C14H13O2+
224.0474	1	C14H8O3+
225.0547	409	C14H9O3+
226.0625	309	C14H10O3+
228.0418	13	C13H8O4+
236.0473	7	C15H8O3+
237.0547	297	C15H9O3+
239.0695	1	C15H11O3+
241.0854	2	C15H13O3+
253.0496	469	C15H9O4+
254.0574	49	C15H10O4+
269.0809	29	C16H13O4+
