Mass spectrum: 2-Amino-6-methoxybenzothiazole; LC-ESI-QFT; MS2; CE: 30; R=17500; [M+H]+
Name: 2-Amino-6-methoxybenzothiazole
Name: 6-methoxy-1,3-benzothiazol-2-amine
Formula: C8H8N2OS
Exact mass: 180.0357
SMILES: COC1=CC2=C(C=C1)N=C(N)S2
InChI: InChI=1S/C8H8N2OS/c1-11-5-2-3-6-7(4-5)12-8(9)10-6/h2-4H,1H3,(H2,9,10)
Instrument: Q Exactive Orbitrap (Thermo Scientific)
Instrument type: LC-ESI-QFT
Ms type: MS2
Ion mode: POSITIVE
Ionization: ESI
Fragmentation mode: HCD
Collision energy: 30
Resolution: 17500
Column name: Acquity BEH C18 1.7um, 2.1x150mm (Waters)
Retention time: 11.161 min
Base peak: 79.0212
Precursor m/z: 181.043
Precursor type: [M+H]+
Precursor intensity: 14702247.4375
m/z	relative intensity	assigned
69.0446	1	C3H5N2+
150.0248	1	C7H6N2S+
152.0284	1	C8H8OS+
154.0326	1	C7H8NOS+
166.0196	31	C7H6N2OS+
181.0429	999	C8H9N2OS+
