Mass spectrum: 2-Amino-6-nitrobenzothiazole; LC-ESI-QFT; MS2; CE: 90; R=17500; [M-H]-
Name: 2-Amino-6-nitrobenzothiazole
Name: 6-nitro-1,3-benzothiazol-2-amine
Formula: C7H5N3O2S
Exact mass: 195.0102
SMILES: NC1=NC2=CC=C(C=C2S1)[N+]([O-])=O
InChI: InChI=1S/C7H5N3O2S/c8-7-9-5-2-1-4(10(11)12)3-6(5)13-7/h1-3H,(H2,8,9)
Instrument: Q Exactive Orbitrap (Thermo Scientific)
Instrument type: LC-ESI-QFT
Ms type: MS2
Ion mode: NEGATIVE
Ionization: ESI
Fragmentation mode: HCD
Collision energy: 90
Resolution: 17500
Column name: Acquity BEH C18 1.7um, 2.1x150mm (Waters)
Retention time: 14.420 min
Base peak: 194.0029
Precursor m/z: 194.003
Precursor type: [M-H]-
Precursor intensity: 16088742.26123
m/z	relative intensity	assigned
50.0035	15	C3N-
56.9804	39	C2HS-
57.9757	999	CNS-
60.9754	65	CHOS-
64.0193	7	C4H2N-
65.0145	12	C3HN2-
65.9985	8	C3NO-
70.9836	11	C2HNS-
76.0192	3	C5H2N-
80.9804	12	C4HS-
81.9757	31	C3NS-
83.9915	3	C3H2NS-
88.0194	4	C6H2N-
88.9704	12	C2HO2S-
89.0145	8	C5HN2-
91.0303	11	C5H3N2-
94.9835	7	C4HNS-
95.9913	4	C4H2NS-
96.0038	6	C5H4S-
104.038	9	C6H4N2-
104.9804	8	C6HS-
105.9757	6	C5NS-
106.9961	176	C6H3S-
107.9914	49	C5H2NS-
115.0301	116	C7H3N2-
119.0251	27	C6H3N2O-
119.9911	7	C6H2NS-
120.9992	99	C6H3NS-
123.9867	2	C5H2NOS-
130.0172	19	C7H2N2O-
131.0252	4	C7H3N2O-
132.0329	149	C7H4N2O-
132.9867	2	C6HN2S-
135.0023	17	C6H3N2S-
135.9862	15	C6H2NOS-
145.9944	7	C7H2N2S-
147.0023	16	C7H3N2S-
147.0201	25	C7H3N2O2-
148.0101	83	C7H4N2S-
150.9972	29	C6H3N2OS-
153.997	2	C6H4NO2S-
162.0309	102	C7H4N3O2-
162.9973	24	C7H3N2OS-
164.0049	6	C7H4N2OS-
177.0002	8	C7H3N3OS-
178.9915	2	C7H3N2O2S-
194.0027	9	C7H4N3O2S-
