Mass spectrum: Glipizide; LC-ESI-QFT; MS2; CE: 30; R=17500; [M+H]+
Name: Glipizide
Name: N-[2-[4-(cyclohexylcarbamoylsulfamoyl)phenyl]ethyl]-5-methylpyrazine-2-carboxamide
Formula: C21H27N5O4S
Exact mass: 445.1784
SMILES: CC1=NC=C(N=C1)C(=O)NCCC1=CC=C(C=C1)S(=O)(=O)NC(=O)NC1CCCCC1
InChI: InChI=1S/C21H27N5O4S/c1-15-13-24-19(14-23-15)20(27)22-12-11-16-7-9-18(10-8-16)31(29,30)26-21(28)25-17-5-3-2-4-6-17/h7-10,13-14,17H,2-6,11-12H2,1H3,(H,22,27)(H2,25,26,28)
Instrument: Q Exactive Orbitrap (Thermo Scientific)
Instrument type: LC-ESI-QFT
Ms type: MS2
Ion mode: POSITIVE
Ionization: ESI
Fragmentation mode: HCD
Collision energy: 30
Resolution: 17500
Column name: Acquity BEH C18 1.7um, 2.1x150mm (Waters)
Retention time: 16.353 min
Base peak: 79.0211
Precursor m/z: 446.1857
Precursor type: [M+H]+
Precursor intensity: 2977990.9375
m/z	relative intensity	assigned
55.0542	6	C4H7+
83.0855	39	C6H11+
93.0451	10	C5H5N2+
100.1121	384	C6H14N+
103.0545	20	C8H7+
107.0491	6	C7H7O+
111.0554	17	C5H7N2O+
120.0557	107	C6H6N3+
121.0649	18	C8H9O+
131.0604	83	C8H7N2+
139.0503	87	C6H7N2O2+
148.0216	35	C8H6NS+
149.0058	13	C8H5OS+
150.0662	84	C7H8N3O+
166.0322	44	C8H8NOS+
167.0162	999	C8H7O2S+
184.0428	36	C8H10NO2S+
201.0467	6	C8H11NO3S+
211.0863	7	C13H11N2O+
222.1027	10	C14H12N3+
226.0973	8	C13H12N3O+
240.1132	46	C14H14N3O+
255.1	14	C14H13N3O2+
256.1082	119	C14H14N3O2+
258.0698	17	C13H12N3OS+
286.0646	837	C14H12N3O2S+
304.0752	475	C14H14N3O3S+
321.1018	694	C14H17N4O3S+
322.0859	90	C14H16N3O4S+
347.0815	95	C15H15N4O4S+
