Mass spectrum: MK-547; LC-ESI-QFT; MS2; CE: 30; R=17500; [M+H]+
Name: MK-547
Name: J-104132
Name: (5S,6R,7R)-5-(1,3-benzodioxol-5-yl)-2-butyl-7-[2-[(2S)-2-carboxypropyl]-4-methoxyphenyl]-6,7-dihydro-5H-cyclopenta[b]pyridine-6-carboxylic acid
Formula: C31H33NO7
Exact mass: 531.2257
SMILES: CCCCc1ccc2c(n1)[C@@H](c1ccc(OC)cc1C[C@H](C)C(O)=O)[C@H](C(O)=O)[C@H]2c1ccc2c(c1)OCO2
InChI: InChI=1S/C31H33NO7/c1-4-5-6-20-8-10-23-26(18-7-12-24-25(15-18)39-16-38-24)28(31(35)36)27(29(23)32-20)22-11-9-21(37-3)14-19(22)13-17(2)30(33)34/h7-12,14-15,17,26-28H,4-6,13,16H2,1-3H3,(H,33,34)(H,35,36)/t17-,26-,27-,28+/m0/s1
Instrument: Q Exactive Orbitrap (Thermo Scientific)
Instrument type: LC-ESI-QFT
Ms type: MS2
Ion mode: POSITIVE
Ionization: ESI
Fragmentation mode: HCD
Collision energy: 30
Resolution: 17500
Column name: Acquity BEH C18 1.7um, 2.1x150mm (Waters)
Retention time: 18.582 min
Base peak: 79.0212
Precursor m/z: 532.233
Precursor type: [M+H]+
Precursor intensity: 22411592
m/z	relative intensity	assigned
121.0647	1	C8H9O+
122.036	1	C7H6O2+
130.065	8	C9H8N+
144.057	1	C10H8O+
146.06	4	C9H8NO+
149.0232	12	C8H5O3+
149.0962	7	C10H13O+
159.0802	6	C11H11O+
162.0674	1	C10H10O2+
170.096	1	C12H12N+
172.112	37	C12H14N+
174.0549	2	C10H8NO2+
175.0754	2	C11H11O2+
177.0909	999	C11H13O2+
188.1067	17	C12H14NO+
194.0963	5	C14H12N+
210.0917	1	C14H12NO+
216.1015	4	C13H14NO2+
222.0912	34	C15H12NO+
224.1432	5	C16H18N+
236.1432	8	C17H18N+
237.0789	1	C15H11NO2+
238.086	3	C15H12NO2+
248.0699	1	C16H10NO2+
250.086	97	C16H12NO2+
251.0938	5	C16H13NO2+
252.1014	3	C16H14NO2+
252.1382	3	C17H18NO+
262.1231	1	C18H16NO+
263.094	1	C17H13NO2+
264.138	62	C18H18NO+
266.0812	2	C16H12NO3+
266.1533	1	C18H20NO+
278.0806	1	C17H12NO3+
280.133	1	C18H18NO2+
282.1485	1	C18H20NO2+
290.1171	1	C19H16NO2+
292.1331	249	C19H18NO2+
293.1416	5	C19H19NO2+
294.1486	598	C19H20NO2+
295.0837	1	C17H13NO4+
296.0914	2	C17H14NO4+
308.1276	4	C19H18NO3+
310.1436	22	C19H20NO3+
320.1279	311	C20H18NO3+
337.13	1	C20H19NO4+
338.1384	935	C20H20NO4+
340.1534	2	C20H22NO4+
346.1805	1	C23H24NO2+
348.1958	1	C23H26NO2+
352.154	4	C21H22NO4+
374.1748	1	C24H24NO3+
392.1849	7	C24H26NO4+
414.2076	1	C27H28NO3+
440.222	1	C29H30NO3+
458.1961	9	C28H28NO5+
468.2171	13	C30H30NO4+
478.2018	1	C31H28NO4+
486.2276	119	C30H32NO5+
489.1779	1	C28H27NO7+
496.2113	15	C31H30NO5+
514.2227	92	C31H32NO6+
517.2116	1	C30H31NO7+
532.2331	725	C31H34NO7+
