Mass spectrum: Chloroxuron; LC-ESI-QFT; MS2; CE: 45; R=17500; [M+H]+
Name: Chloroxuron
Name: 3-[4-(4-chlorophenoxy)phenyl]-1,1-dimethylurea
Formula: C15H15ClN2O2
Exact mass: 290.0822
SMILES: CN(C)C(=O)NC1=CC=C(OC2=CC=C(Cl)C=C2)C=C1
InChI: InChI=1S/C15H15ClN2O2/c1-18(2)15(19)17-12-5-9-14(10-6-12)20-13-7-3-11(16)4-8-13/h3-10H,1-2H3,(H,17,19)
Instrument: Q Exactive Orbitrap (Thermo Scientific)
Instrument type: LC-ESI-QFT
Ms type: MS2
Ion mode: POSITIVE
Ionization: ESI
Fragmentation mode: HCD
Collision energy: 45
Resolution: 17500
Column name: Acquity BEH C18 1.7um, 2.1x150mm (Waters)
Retention time: 17.967 min
Base peak: 79.0211
Precursor m/z: 291.0895
Precursor type: [M+H]+
Precursor intensity: 26254381.125
m/z	relative intensity	assigned
56.0131	4	C2H2NO+
72.0443	999	C3H6NO+
73.0396	1	C2H5N2O+
94.0413	1	C6H6O+
106.0651	4	C7H8N+
118.0651	14	C8H8N+
119.073	11	C8H9N+
120.0807	2	C8H10N+
126.9944	2	C6H4ClO+
147.0679	7	C9H9NO+
149.0709	2	C8H9N2O+
163.0308	3	C10H8Cl+
163.0867	6	C9H11N2O+
164.0945	14	C9H12N2O+
218.0367	45	C12H9ClNO+
246.0322	1	C13H9ClNO2+
291.0896	6	C15H16ClN2O2+
