Mass spectrum: Thiophanate; LC-ESI-QFT; MS2; CE: 60; R=17500; [M+H]+
Name: Thiophanate
Name: N'-ethoxycarbonyl-N-[2-[(N-ethoxycarbonyl-C-sulfanylcarbonimidoyl)amino]phenyl]carbamimidothioic acid
Formula: C14H18N4O4S2
Exact mass: 370.0769
SMILES: CCOC(=O)NC(=S)NC1=C(NC(=S)NC(=O)OCC)C=CC=C1
InChI: InChI=1S/C14H18N4O4S2/c1-3-21-13(19)17-11(23)15-9-7-5-6-8-10(9)16-12(24)18-14(20)22-4-2/h5-8H,3-4H2,1-2H3,(H2,15,17,19,23)(H2,16,18,20,24)
Instrument: Q Exactive Orbitrap (Thermo Scientific)
Instrument type: LC-ESI-QFT
Ms type: MS2
Ion mode: POSITIVE
Ionization: ESI
Fragmentation mode: HCD
Collision energy: 60
Resolution: 17500
Column name: Acquity BEH C18 1.7um, 2.1x150mm (Waters)
Retention time: 16.519 min
Base peak: 79.0212
Precursor m/z: 371.0842
Precursor type: [M+H]+
Precursor intensity: 13818279.25
m/z	relative intensity	assigned
59.9902	178	CH2NS+
62.0236	70	CH4NO2+
65.0385	3	C5H5+
85.9695	115	C2NOS+
88.0216	1	C3H6NS+
90.055	3	C3H8NO2+
92.0495	30	C6H6N+
93.0573	124	C6H7N+
103.9801	45	C2H2NO2S+
107.0604	14	C6H7N2+
109.076	52	C6H9N2+
118.0525	46	C7H6N2+
119.0604	23	C7H7N2+
122.0059	1	C6H4NS+
124.0215	2	C6H6NS+
132.0115	1	C4H6NO2S+
132.0553	3	C7H6N3+
133.0635	1	C7H7N3+
134.0713	55	C7H8N3+
135.0138	2	C7H5NS+
135.0552	10	C7H7N2O+
149.0169	53	C7H5N2S+
150.0247	4	C7H6N2S+
151.0324	999	C7H7N2S+
160.0505	56	C8H6N3O+
176.0278	7	C8H6N3S+
178.0612	9	C8H8N3O2+
192.989	10	C8H5N2S2+
202.0071	1	C9H4N3OS+
