Mass spectrum: Triazophos; LC-ESI-QFT; MS2; CE: 30; R=17500; [M+H]+
Name: Triazophos
Name: diethoxy-[(1-phenyl-1,2,4-triazol-3-yl)oxy]-sulfanylidene-lambda5-phosphane
Formula: C12H16N3O3PS
Exact mass: 313.0650
SMILES: CCOP(=S)(OCC)OC1=NN(C=N1)C1=CC=CC=C1
InChI: InChI=1S/C12H16N3O3PS/c1-3-16-19(20,17-4-2)18-12-13-10-15(14-12)11-8-6-5-7-9-11/h5-10H,3-4H2,1-2H3
Instrument: Q Exactive Orbitrap (Thermo Scientific)
Instrument type: LC-ESI-QFT
Ms type: MS2
Ion mode: POSITIVE
Ionization: ESI
Fragmentation mode: HCD
Collision energy: 30
Resolution: 17500
Column name: Acquity BEH C18 1.7um, 2.1x150mm (Waters)
Retention time: 17.778 min
Base peak: 79.0211
Precursor m/z: 314.0723
Precursor type: [M+H]+
Precursor intensity: 24115398.75
m/z	relative intensity	assigned
77.0387	2	C6H5+
96.9508	1	H2O2PS+
114.9613	80	H4O3PS+
119.0604	9	C7H7N2+
124.9821	3	C2H6O2PS+
128.9768	2	CH6O3PS+
142.9923	2	C2H8O3PS+
153.0135	3	C4H10O2PS+
162.0661	999	C8H8N3O+
171.0239	13	C4H12O3PS+
178.0433	67	C8H8N3S+
190.0974	20	C10H12N3O+
206.0748	2	C10H12N3S+
258.0096	22	C8H9N3O3PS+
286.0408	23	C10H13N3O3PS+
314.0722	30	C12H17N3O3PS+
