Mass spectrum: Biotin; LC-ESI-QFT; MS2; CE: 75; R=17500; [M+H]+
Name: Biotin
Name: 5-[(3aS,4S,6aR)-2-oxo-1,3,3a,4,6,6a-hexahydrothieno[3,4-d]imidazol-4-yl]pentanoic acid
Formula: C10H16N2O3S
Exact mass: 244.0882
SMILES: OC(=O)CCCC[C@@H]1SC[C@@H]2NC(=O)N[C@H]12
InChI: InChI=1S/C10H16N2O3S/c13-8(14)4-2-1-3-7-9-6(5-16-7)11-10(15)12-9/h6-7,9H,1-5H2,(H,13,14)(H2,11,12,15)/t6-,7-,9-/m0/s1
Instrument: Q Exactive Orbitrap (Thermo Scientific)
Instrument type: LC-ESI-QFT
Ms type: MS2
Ion mode: POSITIVE
Ionization: ESI
Fragmentation mode: HCD
Collision energy: 75
Resolution: 17500
Column name: Acquity BEH C18 1.7um, 2.1x150mm (Waters)
Retention time: 11.913 min
Base peak: 79.0212
Precursor m/z: 245.0954
Precursor type: [M+H]+
Precursor intensity: 5018513.5
m/z	relative intensity	assigned
53.0024	6	C3HO+
53.0386	20	C4H5+
54.0338	28	C3H4N+
55.0178	18	C3H3O+
55.0542	245	C4H7+
56.0495	63	C3H6N+
57.07	14	C4H9+
58.0652	9	C3H8N+
58.995	81	C2H3S+
59.0492	30	C3H7O+
59.9903	10	CH2NS+
61.0106	99	C2H5S+
61.0396	59	CH5N2O+
65.0385	29	C5H5+
67.0417	14	C4H5N+
67.0542	231	C5H7+
68.0494	52	C4H6N+
69.0336	11	C4H5O+
69.0448	18	C3H5N2+
69.0699	71	C5H9+
70.0287	35	C3H4NO+
70.995	7	C3H3S+
71.0491	39	C4H7O+
73.0107	56	C3H5S+
74.0058	83	C2H4NS+
76.0215	123	C2H6NS+
79.0542	369	C6H7+
80.0494	48	C5H6N+
81.0574	14	C5H7N+
81.0699	197	C6H9+
82.0288	164	C4H4NO+
82.0652	37	C5H8N+
83.0491	49	C5H7O+
84.0442	10	C4H6NO+
85.0107	167	C4H5S+
85.0397	24	C3H5N2O+
85.0648	9	C5H9O+
86.0059	16	C3H4NS+
87.0263	67	C4H7S+
89.0419	5	C4H9S+
91.0542	147	C7H7+
93.0573	14	C6H7N+
93.0698	80	C7H9+
94.0652	54	C6H8N+
95.0491	33	C6H7O+
95.0855	55	C7H11+
96.0444	15	C5H6NO+
96.0808	36	C6H10N+
97.0107	618	C5H5S+
97.0397	999	C4H5N2O+
98.0059	7	C4H4NS+
98.0966	25	C6H12N+
99.0138	13	C4H5NS+
99.0263	75	C5H7S+
99.0552	27	C4H7N2O+
100.0215	124	C4H6NS+
101.0054	6	C4H5OS+
101.042	42	C5H9S+
102.0008	31	C3H4NOS+
103.0541	38	C8H7+
105.0699	574	C8H9+
106.0652	31	C7H8N+
107.073	14	C7H9N+
107.0855	38	C8H11+
108.0442	13	C6H6NO+
108.0807	91	C7H10N+
109.0648	24	C7H9O+
110.0964	14	C7H12N+
110.9896	12	C5H3OS+
111.0263	167	C6H7S+
111.0553	31	C5H7N2O+
112.0215	115	C5H6NS+
113.042	74	C6H9S+
114.001	14	C4H4NOS+
114.0373	16	C5H8NS+
115.0541	58	C9H7+
115.0579	14	C6H11S+
116.0621	14	C9H8+
117.0571	11	C8H7N+
118.0651	22	C8H8N+
120.0443	11	C7H6NO+
120.0807	55	C8H10N+
121.0648	45	C8H9O+
122.0602	11	C7H8NO+
122.0965	81	C8H12N+
123.0263	774	C7H7S+
124.0758	14	C7H10NO+
125.0295	61	C6H7NS+
125.0419	101	C7H9S+
126.0008	17	C5H4NOS+
126.0373	10	C6H8NS+
128.0165	11	C5H6NOS+
130.0651	12	C9H8N+
131.0276	12	C4H7N2OS+
132.0808	56	C9H10N+
133.0649	22	C9H9O+
133.0886	103	C9H11N+
134.0185	19	C8H6S+
134.0601	10	C8H8NO+
136.0214	7	C7H6NS+
136.0758	16	C8H10NO+
137.0422	25	C8H9S+
137.0708	12	C7H9N2O+
138.0008	93	C6H4NOS+
138.0371	60	C7H8NS+
139.0576	225	C8H11S+
140.0163	6	C6H6NOS+
140.053	26	C7H10NS+
142.0323	12	C6H8NOS+
142.0685	9	C7H12NS+
143.0274	22	C5H7N2OS+
148.0757	14	C9H10NO+
149.0419	96	C9H9S+
150.0913	16	C9H12NO+
151.0866	70	C8H11N2O+
152.0944	18	C8H12N2O+
153.1022	36	C8H13N2O+
153.9592	8	C5NO3S+
154.0683	26	C8H12NS+
155.0272	18	C6H7N2OS+
156.0476	15	C7H10NOS+
156.0844	27	C8H14NS+
157.0109	48	C10H5S+
163.0866	16	C9H11N2O+
164.0164	10	C8H6NOS+
164.0528	20	C9H10NS+
165.1023	16	C9H13N2O+
166.0686	164	C9H12NS+
167.0526	75	C9H11OS+
182.0633	18	C9H12NOS+
184.0789	54	C9H14NOS+
185.074	32	C8H13N2OS+
192.0479	39	C10H10NOS+
199.0901	63	C9H15N2OS+
209.0747	26	C10H13N2OS+
227.085	61	C10H15N2O2S+
