Mass spectrum: 4-Hexylaniline; LC-ESI-QFT; MS2; CE: 75; R=17500; [M+H]+
Name: 4-Hexylaniline
Formula: C12H19N
Exact mass: 177.1517
SMILES: CCCCCCC1=CC=C(N)C=C1
InChI: InChI=1S/C12H19N/c1-2-3-4-5-6-11-7-9-12(13)10-8-11/h7-10H,2-6,13H2,1H3
Instrument: Q Exactive Orbitrap (Thermo Scientific)
Instrument type: LC-ESI-QFT
Ms type: MS2
Ion mode: POSITIVE
Ionization: ESI
Fragmentation mode: HCD
Collision energy: 75
Resolution: 17500
Column name: Acquity BEH C18 1.7um, 2.1x150mm (Waters)
Retention time: 16.558 min
Base peak: 79.0211
Precursor m/z: 178.159
Precursor type: [M+H]+
Precursor intensity: 25593105.3125
m/z	relative intensity	assigned
53.0386	20	C4H5+
55.0542	29	C4H7+
57.0699	51	C4H9+
63.0229	1	C5H3+
65.0386	61	C5H5+
66.0464	35	C5H6+
67.0543	5	C5H7+
69.0699	3	C5H9+
77.0386	6	C6H5+
78.0464	3	C6H6+
79.0542	30	C6H7+
81.0701	1	C6H9+
85.1016	1	C6H13+
89.0384	8	C7H5+
90.0464	42	C7H6+
91.0543	999	C7H7+
93.0573	57	C6H7N+
94.0652	602	C6H8N+
103.0543	18	C8H7+
104.0621	7	C8H8+
105.07	54	C8H9+
106.0652	212	C7H8N+
107.073	257	C7H9N+
108.0809	2	C7H10N+
115.0542	1	C9H7+
117.07	6	C9H9+
119.0857	1	C9H11+
120.0808	25	C8H10N+
121.0886	4	C8H11N+
178.1591	194	C12H20N+
