Mass spectrum: Michler`s ketone; LC-ESI-QFT; MS2; CE: 15; R=17500; [M+H]+
Name: Michler's ketone
Name: bis[4-(dimethylamino)phenyl]methanone
Formula: C17H20N2O
Exact mass: 268.1576
SMILES: CN(C)C1=CC=C(C=C1)C(=O)C1=CC=C(C=C1)N(C)C
InChI: InChI=1S/C17H20N2O/c1-18(2)15-9-5-13(6-10-15)17(20)14-7-11-16(12-8-14)19(3)4/h5-12H,1-4H3
Instrument: Q Exactive Orbitrap (Thermo Scientific)
Instrument type: LC-ESI-QFT
Ms type: MS2
Ion mode: POSITIVE
Ionization: ESI
Fragmentation mode: HCD
Collision energy: 15
Resolution: 17500
Column name: Acquity BEH C18 1.7um, 2.1x150mm (Waters)
Retention time: 18.149 min
Base peak: 79.0211
Precursor m/z: 269.1648
Precursor type: [M+H]+
Precursor intensity: 32093899.03125
m/z	relative intensity	assigned
148.0756	79	C9H10NO+
254.1406	2	C16H18N2O+
269.1646	999	C17H21N2O+
