Mass spectrum: Tris(2-butoxyethyl) phosphate; LC-ESI-QFT; MS2; CE: 15; R=17500; [M+H]+
Name: Tris(2-butoxyethyl) phosphate
Formula: C18H39O7P
Exact mass: 398.2433
SMILES: CCCCOCCOP(=O)(OCCOCCCC)OCCOCCCC
InChI: InChI=1S/C18H39O7P/c1-4-7-10-20-13-16-23-26(19,24-17-14-21-11-8-5-2)25-18-15-22-12-9-6-3/h4-18H2,1-3H3
Instrument: Q Exactive Orbitrap (Thermo Scientific)
Instrument type: LC-ESI-QFT
Ms type: MS2
Ion mode: POSITIVE
Ionization: ESI
Fragmentation mode: HCD
Collision energy: 15
Resolution: 17500
Column name: Acquity BEH C18 1.7um, 2.1x150mm (Waters)
Retention time: 19.345 min
Base peak: 79.0211
Precursor m/z: 399.2506
Precursor type: [M+H]+
Precursor intensity: 45551327.82812
m/z	relative intensity	assigned
55.0542	16	C4H7+
57.0699	61	C4H9+
59.0491	10	C3H7O+
83.0855	73	C6H11+
89.0598	1	C4H9O2+
98.9839	6	H4O4P+
101.0961	163	C6H13O+
124.9998	8	C2H6O4P+
143.0104	26	C2H8O5P+
145.1224	2	C8H17O2+
169.0261	1	C4H10O5P+
199.073	753	C6H16O5P+
225.0886	29	C8H18O5P+
243.0991	24	C8H20O6P+
255.1351	6	C10H24O5P+
299.1618	999	C12H28O6P+
