Mass spectrum: SR271425; LC-ESI-QFT; MS2; CE: 60; R=17500; [M+H]+
Name: SR271425
Name: Formamide, N-((1-((2-(diethylamino)ethyl)amino)-7-methoxy-9-oxo-9H-thioxanthen-4-yl)methyl)-
Name: N-[[1-[2-(diethylamino)ethylamino]-7-methoxy-9-oxothioxanthen-4-yl]methyl]formamide
Formula: C22H27N3O3S
Exact mass: 413.1773
SMILES: CCN(CC)CCNC1=C2C(=O)C3=C(SC2=C(CNC=O)C=C1)C=CC(OC)=C3
InChI: InChI=1S/C22H27N3O3S/c1-4-25(5-2)11-10-24-18-8-6-15(13-23-14-26)22-20(18)21(27)17-12-16(28-3)7-9-19(17)29-22/h6-9,12,14,24H,4-5,10-11,13H2,1-3H3,(H,23,26)
Instrument: Q Exactive Orbitrap (Thermo Scientific)
Instrument type: LC-ESI-QFT
Ms type: MS2
Ion mode: POSITIVE
Ionization: ESI
Fragmentation mode: HCD
Collision energy: 60
Resolution: 17500
Column name: Acquity BEH C18 1.7um, 2.1x150mm (Waters)
Retention time: 14.230 min
Base peak: 79.0211
Precursor m/z: 414.1846
Precursor type: [M+H]+
Precursor intensity: 16110696
m/z	relative intensity	assigned
56.0495	1	C3H6N+
70.0651	7	C4H8N+
72.0807	394	C4H10N+
74.0963	1	C4H12N+
85.0887	1	C5H11N+
86.0965	4	C5H12N+
98.0966	2	C6H12N+
100.112	999	C6H14N+
212.0287	1	C13H8OS+
224.0528	1	C14H10NS+
225.0606	2	C14H11NS+
236.0531	1	C15H10NS+
241.0557	2	C14H11NOS+
252.0478	4	C15H10NOS+
252.1018	2	C16H14NO2+
253.0555	69	C15H11NOS+
254.0635	2	C15H12NOS+
255.0479	2	C15H11O2S+
264.0483	2	C16H10NOS+
264.1017	1	C17H14NO2+
266.0637	1	C16H12NOS+
268.0795	1	C16H14NOS+
269.0504	3	C15H11NO2S+
278.0633	8	C17H12NOS+
279.0715	6	C17H13NOS+
280.0421	2	C16H10NO2S+
280.0663	7	C16H12N2OS+
281.0505	37	C16H11NO2S+
282.0582	1	C16H12NO2S+
284.0739	7	C16H14NO2S+
296.074	92	C17H14NO2S+
308.0613	1	C17H12N2O2S+
323.0849	4	C18H15N2O2S+
