Mass spectrum: CP-401387; LC-ESI-QFT; MS2; CE: 45; R=17500; [M+H]+
Name: CP-401387
Name: 4-cyano-4-(1-cyclohexyl-3-ethylindazol-6-yl)cyclohexane-1-carboxylic acid
Formula: C23H29N3O2
Exact mass: 379.2260
SMILES: CCC1=NN(C2CCCCC2)C2=C1C=CC(=C2)[C@]1(CC[C@@H](CC1)C(O)=O)C#N
InChI: InChI=1S/C23H29N3O2/c1-2-20-19-9-8-17(23(15-24)12-10-16(11-13-23)22(27)28)14-21(19)26(25-20)18-6-4-3-5-7-18/h8-9,14,16,18H,2-7,10-13H2,1H3,(H,27,28)/t16-,23-
Instrument: Q Exactive Orbitrap (Thermo Scientific)
Instrument type: LC-ESI-QFT
Ms type: MS2
Ion mode: POSITIVE
Ionization: ESI
Fragmentation mode: HCD
Collision energy: 45
Resolution: 17500
Column name: Acquity BEH C18 1.7um, 2.1x150mm (Waters)
Retention time: 19.050 min
Base peak: 79.0211
Precursor m/z: 380.2333
Precursor type: [M+H]+
Precursor intensity: 5084365.203125
m/z	relative intensity	assigned
53.0385	2	C4H5+
55.0542	78	C4H7+
57.0698	3	C4H9+
58.0651	2	C3H8N+
69.0698	5	C5H9+
79.0542	28	C6H7+
81.0698	4	C6H9+
83.0855	60	C6H11+
97.0648	7	C6H9O+
106.065	6	C7H8N+
107.0493	3	C7H7O+
119.0605	9	C7H7N2+
125.0597	13	C7H9O2+
131.0603	5	C8H7N2+
132.0685	1	C8H8N2+
145.076	1	C9H9N2+
146.0839	30	C9H10N2+
147.0916	203	C9H11N2+
159.0916	57	C10H11N2+
170.0964	1	C12H12N+
173.1074	1	C11H13N2+
183.0916	2	C12H11N2+
184.0871	1	C11H10N3+
184.0993	1	C12H12N2+
185.1068	1	C12H13N2+
186.1146	1	C12H14N2+
197.1074	18	C13H13N2+
199.1226	1	C13H15N2+
208.1118	2	C15H14N+
210.1025	3	C13H12N3+
211.1108	1	C13H13N3+
212.2372	7	C14H30N+
224.1186	4	C14H14N3+
225.1386	292	C15H17N2+
227.1539	1	C15H19N2+
235.1228	2	C16H15N2+
252.1495	120	C16H18N3+
253.1335	47	C16H17N2O+
270.1234	3	C15H16N3O2+
271.144	250	C16H19N2O2+
283.1297	1	C16H17N3O2+
298.155	999	C17H20N3O2+
380.2335	13	C23H30N3O2+
