Mass spectrum: Imazapic; LC-ESI-QFT; MS2; CE: 15; R=17500; [M+H]+
Name: Imazapic
Name: 5-methyl-2-(4-methyl-5-oxo-4-propan-2-yl-1H-imidazol-2-yl)pyridine-3-carboxylic acid
Formula: C14H17N3O3
Exact mass: 275.1270
SMILES: CC(C)C1(C)NC(=NC1=O)C1=NC=C(C)C=C1C(O)=O
InChI: InChI=1S/C14H17N3O3/c1-7(2)14(4)13(20)16-11(17-14)10-9(12(18)19)5-8(3)6-15-10/h5-7H,1-4H3,(H,18,19)(H,16,17,20)
Instrument: Q Exactive Orbitrap (Thermo Scientific)
Instrument type: LC-ESI-QFT
Ms type: MS2
Ion mode: POSITIVE
Ionization: ESI
Fragmentation mode: HCD
Collision energy: 15
Resolution: 17500
Column name: Acquity BEH C18 1.7um, 2.1x150mm (Waters)
Retention time: 13.617 min
Base peak: 79.0211
Precursor m/z: 276.1343
Precursor type: [M+H]+
Precursor intensity: 19101005
m/z	relative intensity	assigned
86.0962	1	C5H12N+
187.123	1	C12H15N2+
216.0768	1	C11H10N3O2+
230.1288	2	C13H16N3O+
231.1126	7	C13H15N2O2+
234.0872	17	C11H12N3O3+
248.1392	15	C13H18N3O2+
258.1234	2	C14H16N3O2+
276.134	999	C14H18N3O3+
