Mass spectrum: Quizalofop-ethyl; LC-ESI-QFT; MS2; CE: 60; R=17500; [M+H]+
Name: Quizalofop-ethyl
Name: ethyl 2-[4-(6-chloroquinoxalin-2-yl)oxyphenoxy]propanoate
Formula: C19H17ClN2O4
Exact mass: 372.0877
SMILES: CCOC(=O)C(C)OC1=CC=C(OC2=CN=C3C=C(Cl)C=CC3=N2)C=C1
InChI: InChI=1S/C19H17ClN2O4/c1-3-24-19(23)12(2)25-14-5-7-15(8-6-14)26-18-11-21-17-10-13(20)4-9-16(17)22-18/h4-12H,3H2,1-2H3
Instrument: Q Exactive Orbitrap (Thermo Scientific)
Instrument type: LC-ESI-QFT
Ms type: MS2
Ion mode: POSITIVE
Ionization: ESI
Fragmentation mode: HCD
Collision energy: 60
Resolution: 17500
Column name: Acquity BEH C18 1.7um, 2.1x150mm (Waters)
Retention time: 19.435 min
Base peak: 79.0211
Precursor m/z: 373.095
Precursor type: [M+H]+
Precursor intensity: 8991153.34375
m/z	relative intensity	assigned
53.0023	2	C3HO+
53.0385	8	C4H5+
55.0178	27	C3H3O+
63.023	3	C5H3+
65.0385	226	C5H5+
67.0541	6	C5H7+
69.0335	7	C4H5O+
72.0808	3	C4H10N+
73.0283	30	C3H5O2+
73.0647	2	C4H9O+
74.0361	6	C3H6O2+
75.0229	3	C6H3+
76.0182	1	C5H2N+
77.0385	2	C6H5+
78.0337	8	C5H4N+
79.0542	10	C6H7+
81.0333	10	C5H5O+
81.0699	15	C6H9+
89.0384	2	C7H5+
90.0337	4	C6H4N+
90.0466	1	C7H6+
91.0542	999	C7H7+
92.0257	5	C6H4O+
92.062	14	C7H8+
93.0335	10	C6H5O+
93.0699	24	C7H9+
94.0413	18	C6H6O+
95.0127	6	C5H3O2+
95.0491	21	C6H7O+
98.9995	8	C5H4Cl+
100.0183	3	C7H2N+
103.0542	30	C8H7+
105.0335	2	C7H5O+
105.0447	23	C6H5N2+
107.049	9	C7H7O+
109.0283	4	C6H5O2+
109.0647	27	C7H9O+
110.0362	7	C6H6O2+
111.044	31	C6H7O2+
113.0027	6	C5H4ClN+
116.0498	2	C8H6N+
119.0491	99	C8H7O+
120.0569	49	C8H8O+
121.0283	99	C7H5O2+
121.0647	74	C8H9O+
123.9948	11	C6H3ClN+
125.0026	2	C6H4ClN+
125.0596	3	C7H9O2+
125.9864	2	C6H3ClO+
126.0104	38	C6H5ClN+
131.049	1	C9H7O+
135.0439	7	C8H7O2+
135.9949	3	C7H3ClN+
137.0024	7	C7H4ClN+
137.0597	16	C8H9O2+
138.0104	4	C7H5ClN+
140.0134	7	C6H5ClN2+
142.0528	1	C9H6N2+
147.0441	7	C9H7O2+
151.0057	15	C7H4ClN2+
152.0135	24	C7H5ClN2+
153.0213	6	C7H6ClN2+
154.0052	8	C7H5ClNO+
154.065	3	C11H8N+
161.0347	4	C8H5N2O2+
163.0057	305	C8H4ClN2+
164.001	56	C10N2O+
164.0133	56	C11H2NO+
164.0492	4	C12H6N+
165.0214	49	C8H6ClN2+
167.0729	1	C12H9N+
168.0085	9	C7H5ClN2O+
168.0682	4	C11H8N2+
168.9924	2	C7H4ClNO2+
173.0154	2	C11H6Cl+
177.0213	29	C9H6ClN2+
178.0292	13	C9H7ClN2+
179.0006	74	C8H4ClN2O+
179.0453	5	C8H7N2O3+
180.0085	29	C8H5ClN2O+
180.0682	2	C12H8N2+
180.0807	5	C13H10N+
181.0162	359	C8H6ClN2O+
181.0759	55	C12H9N2+
182.0597	7	C12H8NO+
182.0839	4	C12H10N2+
183.0679	2	C12H9NO+
189.0215	16	C10H6ClN2+
189.0338	5	C11H8ClN+
190.0649	2	C14H8N+
191.0368	5	C10H8ClN2+
191.0602	3	C13H7N2+
192.0681	311	C13H8N2+
193.076	64	C13H9N2+
194.0838	6	C13H10N2+
195.032	79	C9H8ClN2O+
196.0033	62	C8H5ClN2O2+
197.0475	2	C9H10ClN2O+
199.027	7	C8H8ClN2O2+
200.026	16	C12H7ClN+
201.0219	2	C11H6ClN2+
201.0337	4	C15H5O+
202.0291	29	C11H7ClN2+
203.037	66	C11H8ClN2+
205.0166	5	C10H6ClN2O+
205.0762	5	C14H9N2+
206.0837	3	C14H10N2+
207.0916	89	C14H11N2+
208.0634	5	C13H8N2O+
208.0994	67	C14H12N2+
209.071	50	C13H9N2O+
210.0784	10	C13H10N2O+
215.0369	179	C12H8ClN2+
216.0449	159	C12H9ClN2+
217.0526	18	C12H10ClN2+
217.0757	3	C15H9N2+
218.0838	44	C15H10N2+
219.0324	1	C11H8ClN2O+
219.0912	4	C15H11N2+
220.0633	12	C14H8N2O+
221.0709	50	C14H9N2O+
226.0292	15	C13H7ClN2+
227.037	80	C13H8ClN2+
228.0447	99	C13H9ClN2+
229.0171	2	C12H6ClN2O+
229.0526	38	C13H10ClN2+
235.0865	38	C15H11N2O+
236.057	1	C14H8N2O2+
236.0944	25	C15H12N2O+
237.0656	14	C14H9N2O2+
239.0372	6	C14H8ClN2+
240.0449	5	C14H9ClN2+
241.0528	16	C14H10ClN2+
242.024	5	C13H7ClN2O+
242.0603	8	C14H11ClN2+
243.0319	30	C13H8ClN2O+
243.0683	201	C14H12ClN2+
244.0397	279	C13H9ClN2O+
249.0653	9	C15H9N2O2+
253.0526	91	C15H10ClN2+
254.0608	2	C15H11ClN2+
255.0318	779	C14H8ClN2O+
256.0396	55	C14H9ClN2O+
263.0807	3	C16H11N2O2+
269.0477	4	C15H10ClN2O+
270.0193	11	C14H7ClN2O2+
270.0553	4	C15H11ClN2O+
271.0268	41	C14H8ClN2O2+
272.0345	16	C14H9ClN2O2+
273.0423	50	C14H10ClN2O2+
283.0268	2	C15H8ClN2O2+
