Mass spectrum: Crufomate; LC-ESI-QFT; MS2; CE: 75; R=17500; [M+H]+
Name: Crufomate
Name: N-[(4-tert-butyl-2-chlorophenoxy)-methoxyphosphoryl]methanamine
Formula: C12H19ClNO3P
Exact mass: 291.0791
SMILES: CNP(=O)(OC)OC1=CC=C(C=C1Cl)C(C)(C)C
InChI: InChI=1S/C12H19ClNO3P/c1-12(2,3)9-6-7-11(10(13)8-9)17-18(15,14-4)16-5/h6-8H,1-5H3,(H,14,15)
Instrument: Q Exactive Orbitrap (Thermo Scientific)
Instrument type: LC-ESI-QFT
Ms type: MS2
Ion mode: POSITIVE
Ionization: ESI
Fragmentation mode: HCD
Collision energy: 75
Resolution: 17500
Column name: Acquity BEH C18 1.7um, 2.1x150mm (Waters)
Retention time: 18.298 min
Base peak: 79.0211
Precursor m/z: 292.0864
Precursor type: [M+H]+
Precursor intensity: 22954233.25
m/z	relative intensity	assigned
53.0022	15	C3HO+
53.0386	1	C4H5+
53.9974	2	C2NO+
55.0542	1	C4H7+
57.0699	295	C4H9+
59.9997	48	CH3NP+
64.9787	2	H2O2P+
65.0385	4	C5H5+
67.0543	1	C5H7+
75.0229	2	C6H3+
78.0103	21	CH5NOP+
78.0464	1	C6H6+
78.9943	24	CH4O2P+
79.0543	4	C6H7+
86.9996	4	C4H4Cl+
89.0384	2	C7H5+
91.0542	26	C7H7+
93.0335	1	C6H5O+
94.0051	1	CH5NO2P+
94.0413	1	C6H6O+
94.0651	5	C6H8N+
95.0492	6	C6H7O+
95.9764	356	CH4ClNP+
96.9605	47	CH3ClOP+
98.9995	7	C5H4Cl+
103.0542	3	C8H7+
104.0619	1	C8H8+
105.0698	4	C8H9+
107.0491	4	C7H7O+
108.0209	6	C2H7NO2P+
108.057	2	C7H8O+
109.0284	1	C6H5O2+
111.044	2	C6H7O2+
112.0158	11	CH7NO3P+
112.9997	3	C2H6ClO3+
113.0149	1	C5H6OP+
115.0542	13	C9H7+
116.062	11	C9H8+
117.0698	21	C9H9+
119.0856	12	C9H11+
122.0601	7	C7H8NO+
122.0724	1	C8H10O+
123.0442	3	C7H7O2+
124.0078	1	C3H8ClNP+
125.0152	8	C7H6Cl+
125.0595	1	C7H9O2+
126.0314	999	C2H9NO3P+
126.9944	4	C5H4O2P+
128.0025	3	C6H5ClO+
128.0358	1	ClH14O3P+
128.062	2	C10H8+
129.0101	12	C6H6ClO+
129.0698	3	C10H9+
129.982	13	CH6ClNO2P+
130.0777	1	C10H10+
130.9658	1	CH5ClO3P+
131.0854	3	C10H11+
133.0648	2	C9H9O+
137.096	3	C9H13O+
138.0103	11	C6H5NOP+
139.0058	22	C9HNO+
140.0471	27	C3H11NO3P+
141.0099	4	C6H6O2P+
143.0258	7	C7H8ClO+
147.0805	2	C10H11O+
148.0756	1	C9H10NO+
152.0387	2	C9H9Cl+
153.0096	1	C7H6O2P+
155.0257	5	C7H8O2P+
163.0989	2	C10H13NO+
165.0905	1	C10H13O2+
168.0208	2	C7H7NO2P+
169.0414	5	C8H10O2P+
172.955	2	C6H3ClO2P+
172.9998	18	C7H6ClO3+
174.971	2	C6H5ClO2P+
181.0412	1	C9H10O2P+
186.0314	2	C7H9NO3P+
187.0153	1	C8H8ClO3+
188.9742	1	C6H5ClNO2P+
189.9582	34	C6H4ClO3P+
190.9658	6	C6H5ClO3P+
192.9814	2	C6H7ClO3P+
202.966	24	C7H5ClO3P+
203.9976	31	C7H8ClNO2P+
204.9818	10	C7H7ClO3P+
210.0679	5	C10H13NO2P+
211.0518	5	C10H12O3P+
215.0019	3	C9H9ClO2P+
222.0082	28	C7H10ClNO3P+
222.9919	1	C10H7ClNOP+
230.0131	2	C9H10ClNO2P+
230.9972	29	C9H9ClO3P+
236.0241	4	C8H12ClNO3P+
260.0598	3	C11H16ClNO2P+
261.0439	1	C11H15ClO3P+
