Mass spectrum: Theophylline; LC-ESI-QFT; MS2; CE: 45; R=17500; [M+H]+
Name: Theophylline
Name: 1,3-dimethyl-7H-purine-2,6-dione
Formula: C7H8N4O2
Exact mass: 180.0647
SMILES: CN1C2=C(NC=N2)C(=O)N(C)C1=O
InChI: InChI=1S/C7H8N4O2/c1-10-5-4(8-3-9-5)6(12)11(2)7(10)13/h3H,1-2H3,(H,8,9)
Instrument: Q Exactive Orbitrap (Thermo Scientific)
Instrument type: LC-ESI-QFT
Ms type: MS2
Ion mode: POSITIVE
Ionization: ESI
Fragmentation mode: HCD
Collision energy: 45
Resolution: 17500
Column name: Acquity BEH C18 1.7um, 2.1x150mm (Waters)
Retention time: 10.150 min
Base peak: 79.0211
Precursor m/z: 181.072
Precursor type: [M+H]+
Precursor intensity: 2205779.984375
m/z	relative intensity	assigned
69.0447	33	C3H5N2+
81.0448	2	C4H5N2+
83.0238	2	C3H3N2O+
93.0448	2	C5H5N2+
93.0698	1	C7H9+
96.0556	90	C4H6N3+
97.0398	3	C4H5N2O+
108.0557	3	C5H6N3+
110.0714	7	C5H8N3+
113.0347	1	C4H5N2O2+
120.0557	5	C6H6N3+
121.0285	3	C7H5O2+
124.0506	948	C5H6N3O+
133.0285	2	C6H3N3O+
135.0441	2	C6H5N3O+
137.0822	28	C6H9N4+
142.0612	86	C5H8N3O2+
149.0234	54	C6H3N3O2+
163.039	25	C7H5N3O2+
163.0612	2	C7H7N4O+
166.0483	2	C6H6N4O2+
167.0559	9	C6H7N4O2+
181.072	999	C7H9N4O2+
