Mass spectrum: 2,2`-[(4-Methylphenyl)imino]diethanol; LC-ESI-QFT; MS2; CE: 90; R=17500; [M+H]+
Name: 2,2'-[(4-Methylphenyl)imino]diethanol
Name: N,N-Bis(2-hydroxyethyl)-p-toluidine
Name: 2-[N-(2-hydroxyethyl)-4-methylanilino]ethanol
Formula: C11H17NO2
Exact mass: 195.1259
SMILES: CC1=CC=C(C=C1)N(CCO)CCO
InChI: InChI=1S/C11H17NO2/c1-10-2-4-11(5-3-10)12(6-8-13)7-9-14/h2-5,13-14H,6-9H2,1H3
Instrument: Q Exactive Orbitrap (Thermo Scientific)
Instrument type: LC-ESI-QFT
Ms type: MS2
Ion mode: POSITIVE
Ionization: ESI
Fragmentation mode: HCD
Collision energy: 90
Resolution: 17500
Column name: Acquity BEH C18 1.7um, 2.1x150mm (Waters)
Retention time: 9.123 min
Base peak: 79.0211
Precursor m/z: 196.1332
Precursor type: [M+H]+
Precursor intensity: 16119430.375
m/z	relative intensity	assigned
53.0386	2	C4H5+
65.0385	15	C5H5+
77.0385	1	C6H5+
79.0542	14	C6H7+
80.0494	1	C5H6N+
91.0542	149	C7H7+
92.062	33	C7H8+
93.0573	18	C6H7N+
93.0699	36	C7H9+
94.0651	1	C6H8N+
95.0491	9	C6H7O+
103.0543	4	C8H7+
104.0495	7	C7H6N+
105.0699	16	C8H9+
106.0651	41	C7H8N+
107.0729	57	C7H9N+
107.0853	4	C8H11+
108.0807	13	C7H10N+
109.0648	13	C7H9O+
115.0542	21	C9H7+
116.0619	1	C9H8+
117.0573	25	C8H7N+
117.0699	13	C9H9+
118.0652	137	C8H8N+
119.073	127	C8H9N+
120.0807	999	C8H10N+
128.0618	1	C10H8+
130.0651	12	C9H8N+
131.0729	4	C9H9N+
132.0808	137	C9H10N+
133.0885	36	C9H11N+
134.0964	101	C9H12N+
143.0729	1	C10H9N+
144.0807	13	C10H10N+
145.0885	3	C10H11N+
146.0962	2	C10H12N+
151.0994	2	C9H13NO+
158.0966	1	C11H12N+
