Mass spectrum: Crotamiton; LC-ESI-QFT; MS2; CE: 75; R=17500; [M+H]+
Name: Crotamiton
Name: N-ethyl-N-(2-methylphenyl)but-2-enamide
Formula: C13H17NO
Exact mass: 203.1310
SMILES: CCN(C(=O)C=CC)C1=CC=CC=C1C
InChI: InChI=1S/C13H17NO/c1-4-8-13(15)14(5-2)12-10-7-6-9-11(12)3/h4,6-10H,5H2,1-3H3
Instrument: Q Exactive Orbitrap (Thermo Scientific)
Instrument type: LC-ESI-QFT
Ms type: MS2
Ion mode: POSITIVE
Ionization: ESI
Fragmentation mode: HCD
Collision energy: 75
Resolution: 17500
Column name: Acquity BEH C18 1.7um, 2.1x150mm (Waters)
Retention time: 17.257 min
Base peak: 79.0211
Precursor m/z: 204.1383
Precursor type: [M+H]+
Precursor intensity: 32183826.4375
m/z	relative intensity	assigned
53.0022	30	C3HO+
53.9974	5	C2NO+
65.0385	6	C5H5+
68.0495	145	C4H6N+
69.0334	999	C4H5O+
77.0385	1	C6H5+
79.0542	9	C6H7+
91.0542	110	C7H7+
93.0573	30	C6H7N+
93.0699	4	C7H9+
95.0491	2	C6H7O+
96.0808	8	C6H10N+
97.0647	1	C6H9O+
103.0543	1	C8H7+
104.0494	1	C7H6N+
105.0335	1	C7H5O+
105.0699	7	C8H9+
106.0651	137	C7H8N+
107.0729	64	C7H9N+
108.0807	98	C7H10N+
109.0648	16	C7H9O+
115.0543	2	C9H7+
116.0494	8	C8H6N+
117.0573	8	C8H7N+
117.0698	4	C9H9+
118.0651	5	C8H8N+
119.0364	1	C7H5NO+
119.073	7	C8H9N+
119.0855	1	C9H11+
120.0808	6	C8H10N+
121.0886	86	C8H11N+
129.0697	1	C10H9+
130.0651	7	C9H8N+
131.073	1	C9H9N+
131.0853	1	C10H11+
132.0445	6	C8H6NO+
132.0809	4	C9H10N+
133.0885	1	C9H11N+
134.06	76	C8H8NO+
134.0964	51	C9H12N+
136.1121	110	C9H14N+
143.073	11	C10H9N+
144.0809	1	C10H10N+
146.0601	3	C9H8NO+
146.0962	3	C10H12N+
148.1118	1	C10H14N+
156.0807	1	C11H10N+
157.0883	1	C11H11N+
158.0965	17	C11H12N+
160.0756	4	C10H10NO+
161.0832	3	C10H11NO+
174.0912	2	C11H12NO+
204.1384	2	C13H18NO+
