Mass spectrum: Kinetin; LC-ESI-QFT; MS2; CE: 60; R=17500; [M+H]+
Name: Kinetin
Name: N-(furan-2-ylmethyl)-7H-purin-6-amine
Formula: C10H9N5O
Exact mass: 215.0807
SMILES: C(NC1=C2N=CN=C2N=CN1)C1=CC=CO1
InChI: InChI=1S/C10H9N5O/c1-2-7(16-3-1)4-11-9-8-10(13-5-12-8)15-6-14-9/h1-3,5-6H,4H2,(H2,11,12,13,14,15)
Instrument: Q Exactive Orbitrap (Thermo Scientific)
Instrument type: LC-ESI-QFT
Ms type: MS2
Ion mode: POSITIVE
Ionization: ESI
Fragmentation mode: HCD
Collision energy: 60
Resolution: 17500
Column name: Acquity BEH C18 1.7um, 2.1x150mm (Waters)
Retention time: 11.252 min
Base peak: 79.0211
Precursor m/z: 216.088
Precursor type: [M+H]+
Precursor intensity: 11715808.0625
m/z	relative intensity	assigned
53.0386	59	C4H5+
70.0652	1	C4H8N+
81.0335	999	C5H5O+
119.0353	3	C5H3N4+
121.0509	4	C5H5N4+
135.0664	5	C6H7N4+
136.0617	21	C5H6N5+
137.0455	2	C5H5N4O+
144.0553	1	C8H6N3+
146.0588	1	C7H6N4+
147.0666	1	C7H7N4+
148.0617	63	C6H6N5+
161.0821	3	C8H9N4+
171.0664	7	C9H7N4+
172.0619	1	C8H6N5+
173.0696	17	C8H7N5+
188.0931	23	C9H10N5+
198.0771	2	C10H8N5+
216.088	3	C10H10N5O+
