Mass spectrum: 2-Chlorobenzenesulfonamide; LC-ESI-QFT; MS2; CE: 15; R=17500; [M-H]-
Name: 2-Chlorobenzenesulfonamide
Formula: C6H6ClNO2S
Exact mass: 190.9808
SMILES: NS(=O)(=O)C1=CC=CC=C1Cl
InChI: InChI=1S/C6H6ClNO2S/c7-5-3-1-2-4-6(5)11(8,9)10/h1-4H,(H2,8,9,10)
Instrument: Q Exactive Orbitrap (Thermo Scientific)
Instrument type: LC-ESI-QFT
Ms type: MS2
Ion mode: NEGATIVE
Ionization: ESI
Fragmentation mode: HCD
Collision energy: 15
Resolution: 17500
Column name: Acquity BEH C18 1.7um, 2.1x150mm (Waters)
Retention time: 15.742 min
Base peak: 167.9858
Precursor m/z: 189.9735
Precursor type: [M-H]-
Precursor intensity: 1953057.171875
m/z	relative intensity	assigned
61.9706	1	NOS-
77.9656	3	NO2S-
78.9735	2	HNO2S-
79.9811	9	H2NO2S-
126.0116	301	C6H5ClN-
126.9957	3	C6H4ClO-
189.9736	999	C6H5ClNO2S-
