Mass spectrum: Chloridazon; LC-ESI-QFT; MS2; CE: 60; R=17500; [M+H]+
Name: Chloridazon
Name: 5-amino-4-chloro-2-phenylpyridazin-3-one
Formula: C10H8ClN3O
Exact mass: 221.0356
SMILES: NC1=C(Cl)C(=O)N(N=C1)C1=CC=CC=C1
InChI: InChI=1S/C10H8ClN3O/c11-9-8(12)6-13-14(10(9)15)7-4-2-1-3-5-7/h1-6H,12H2
Instrument: Q Exactive Orbitrap (Thermo Scientific)
Instrument type: LC-ESI-QFT
Ms type: MS2
Ion mode: POSITIVE
Ionization: ESI
Fragmentation mode: HCD
Collision energy: 60
Resolution: 17500
Column name: Acquity BEH C18 1.7um, 2.1x150mm (Waters)
Retention time: 13.186 min
Base peak: 79.0211
Precursor m/z: 222.0429
Precursor type: [M+H]+
Precursor intensity: 12914107.15625
m/z	relative intensity	assigned
51.023	2	C4H3+
53.0386	79	C4H5+
55.0178	3	C3H3O+
55.0291	57	C2H3N2+
63.0228	1	C5H3+
63.9948	29	CH3ClN+
65.0385	239	C5H5+
66.0212	4	C3H2N2+
66.0464	1	C5H6+
67.029	11	C3H3N2+
67.0542	1	C5H7+
73.0396	8	C2H5N2O+
73.9791	3	C2HClN+
75.9947	23	C2H3ClN+
77.0384	29	C6H5+
81.0334	8	C5H5O+
83.0239	24	C3H3N2O+
87.9948	54	C3H3ClN+
91.0057	6	C2H4ClN2+
92.0494	887	C6H6N+
93.0573	47	C6H7N+
94.0651	228	C6H8N+
95.0491	245	C6H7O+
100.9901	69	C3H2ClN2+
101.974	16	C3HClNO+
103.0057	5	C3H4ClN2+
103.0542	7	C8H7+
104.0494	999	C7H6N+
105.0447	97	C6H5N2+
106.065	3	C7H8N+
110.0601	2	C6H8NO+
111.044	5	C4H5N3O+
114.0336	1	C8H4N+
115.0542	3	C9H7+
115.9899	2	C4H3ClNO+
116.0493	6	C8H6N+
116.9975	9	C4H4ClNO+
117.0572	3	C8H7N+
119.0006	11	C3H4ClN2O+
119.0603	24	C7H7N2+
120.0443	8	C7H6NO+
125.0151	4	C7H6Cl+
128.9849	218	C4H2ClN2O+
130.0651	34	C9H8N+
131.0602	22	C8H7N2+
132.0443	25	C8H6NO+
132.0681	4	C8H8N2+
133.0521	1	C8H7NO+
134.0601	1	C8H8NO+
140.0494	56	C10H6N+
141.0572	118	C10H7N+
142.0526	11	C9H6N2+
143.0603	3	C9H7N2+
144.0555	3	C8H6N3+
144.0682	1	C9H8N2+
146.0115	168	C4H5ClN3O+
149.0152	94	C9H6Cl+
150.0104	21	C8H5ClN+
152.0262	1	C8H7ClN+
158.06	12	C10H8NO+
158.0713	6	C9H8N3+
159.0552	26	C9H7N2O+
159.0676	5	C10H9NO+
159.0789	7	C9H9N3+
160.0631	7	C9H8N2O+
166.0055	3	C8H5ClNO+
168.0209	1	C8H7ClNO+
169.0396	5	C10H5N2O+
176.0261	104	C10H7ClN+
177.0212	9	C9H6ClN2+
178.0051	8	C9H5ClNO+
186.0661	41	C10H8N3O+
187.0737	1	C10H9N3O+
193.0289	92	C10H8ClNO+
194.0367	133	C10H9ClNO+
195.032	9	C9H8ClN2O+
205.0161	22	C10H6ClN2O+
222.0425	824	C10H9ClN3O+
