Mass spectrum: Diofenolan; LC-ESI-QFT; MS2; CE: 75; R=17500; [M-H]-
Name: Diofenolan
Name: 2-ethyl-4-[(4-phenoxyphenoxy)methyl]-1,3-dioxolane
Formula: C18H20O4
Exact mass: 300.1362
SMILES: CCC1OCC(COC2=CC=C(OC3=CC=CC=C3)C=C2)O1
InChI: InChI=1S/C18H20O4/c1-2-18-20-13-17(22-18)12-19-14-8-10-16(11-9-14)21-15-6-4-3-5-7-15/h3-11,17-18H,2,12-13H2,1H3
Instrument: Q Exactive Orbitrap (Thermo Scientific)
Instrument type: LC-ESI-QFT
Ms type: MS2
Ion mode: NEGATIVE
Ionization: ESI
Fragmentation mode: HCD
Collision energy: 75
Resolution: 17500
Column name: Acquity BEH C18 1.7um, 2.1x150mm (Waters)
Retention time: 17.121 min
Base peak: 141.0113
Precursor m/z: 299.1289
Precursor type: [M-H]-
Precursor intensity: 1258757.359375
m/z	relative intensity	assigned
81.0345	36	C5H5O-
91.0189	23	C6H3O-
93.0347	44	C6H5O-
95.0139	10	C5H3O2-
95.0503	40	C6H7O-
108.0217	133	C6H4O2-
109.0295	999	C6H5O2-
121.0294	29	C7H5O2-
122.0375	29	C7H6O2-
123.0453	146	C7H7O2-
135.0453	16	C8H7O2-
148.0531	20	C9H8O2-
149.0609	112	C9H9O2-
159.045	8	C10H7O2-
173.0609	43	C11H9O2-
174.0689	11	C11H10O2-
175.0766	10	C11H11O2-
177.0919	9	C11H13O2-
