Mass spectrum: 2-[4-(Diethylamino)-2-hydroxybenzoyl]benzoic acid; LC-ESI-QFT; MS2; CE: 90; R=17500; [M+H]+
Name: 2-[4-(Diethylamino)-2-hydroxybenzoyl]benzoic acid
Name: 2-(4-(Diethylamino)-2-hydroxybenzoyl)benzoic acid
Formula: C18H19NO4
Exact mass: 313.1314
SMILES: CCN(CC)C1=CC(O)=C(C=C1)C(=O)C1=C(C=CC=C1)C(O)=O
InChI: InChI=1S/C18H19NO4/c1-3-19(4-2)12-9-10-15(16(20)11-12)17(21)13-7-5-6-8-14(13)18(22)23/h5-11,20H,3-4H2,1-2H3,(H,22,23)
Instrument: Q Exactive Orbitrap (Thermo Scientific)
Instrument type: LC-ESI-QFT
Ms type: MS2
Ion mode: POSITIVE
Ionization: ESI
Fragmentation mode: HCD
Collision energy: 90
Resolution: 17500
Column name: Acquity BEH C18 1.7um, 2.1x150mm (Waters)
Retention time: 17.555 min
Base peak: 79.0212
Precursor m/z: 314.1387
Precursor type: [M+H]+
Precursor intensity: 17357449.75
m/z	relative intensity	assigned
53.0022	9	C3HO+
53.0387	20	C4H5+
54.0339	2	C3H4N+
55.0179	20	C3H3O+
55.0543	3	C4H7+
58.0651	15	C3H8N+
65.0386	999	C5H5+
67.0416	6	C4H5N+
67.0542	13	C5H7+
68.0131	22	C3H2NO+
68.0494	7	C4H6N+
68.997	4	C3HO2+
69.0335	6	C4H5O+
70.0651	5	C4H8N+
72.0443	3	C3H6NO+
72.0807	17	C4H10N+
77.0387	5	C6H5+
78.0339	2	C5H4N+
79.0542	17	C6H7+
80.0494	89	C5H6N+
81.0574	12	C5H7N+
82.0413	18	C5H6O+
82.0651	20	C5H8N+
83.0492	7	C5H7O+
89.0387	3	C7H5+
91.0543	43	C7H7+
92.0494	48	C6H6N+
93.0335	143	C6H5O+
93.0572	11	C6H7N+
94.0413	27	C6H6O+
94.0652	26	C6H8N+
95.0492	73	C6H7O+
96.0444	8	C5H6NO+
96.0808	2	C6H10N+
98.0363	16	C5H6O2+
103.0542	22	C8H7+
104.0494	13	C7H6N+
105.0335	151	C7H5O+
106.0651	21	C7H8N+
107.0492	3	C7H7O+
108.0444	91	C6H6NO+
108.0808	13	C7H10N+
109.0523	147	C6H7NO+
110.0601	81	C6H8NO+
110.0965	6	C7H12N+
111.0441	175	C6H7O2+
115.0542	100	C9H7+
118.0651	16	C8H8N+
119.0128	21	C7H3O2+
119.073	3	C8H9N+
120.0446	14	C7H6NO+
120.0809	11	C8H10N+
121.0285	476	C7H5O2+
122.0601	382	C7H8NO+
125.0598	3	C7H9O2+
127.0543	9	C10H7+
128.0621	34	C10H8+
129.0699	37	C10H9+
130.0288	3	C8H4NO+
131.0492	6	C9H7O+
132.0809	4	C9H10N+
133.0285	29	C8H5O2+
133.0525	2	C8H7NO+
134.0601	18	C8H8NO+
134.0964	7	C9H12N+
135.068	7	C8H9NO+
136.0758	154	C8H10NO+
137.0836	30	C8H11NO+
138.0914	55	C8H12NO+
139.0542	182	C11H7+
140.0621	24	C11H8+
141.0699	126	C11H9+
142.0654	3	C10H8N+
142.0779	4	C11H10+
143.0492	29	C10H7O+
144.0566	5	C10H8O+
145.0649	14	C10H9O+
146.0604	7	C9H8NO+
148.0394	18	C8H6NO2+
149.0234	396	C8H5O3+
150.0916	22	C9H12NO+
151.0542	5	C12H7+
152.0621	99	C12H8+
153.0699	78	C12H9+
154.0652	38	C11H8N+
154.0782	2	C12H10+
155.0492	14	C11H7O+
155.073	4	C11H9N+
156.0569	11	C11H8O+
156.0807	13	C11H10N+
157.0649	23	C11H9O+
159.0441	6	C10H7O2+
163.0389	4	C9H7O3+
164.0706	162	C9H10NO2+
164.107	32	C10H14NO+
165.0699	59	C13H9+
166.0496	9	C8H8NO3+
166.0652	40	C12H8N+
166.1224	16	C10H16NO+
167.0492	117	C12H7O+
167.0729	45	C12H9N+
167.0857	8	C13H11+
168.057	78	C12H8O+
168.0808	32	C12H10N+
169.0649	75	C12H9O+
170.0363	16	C11H6O2+
170.0601	10	C11H8NO+
170.0726	3	C12H10O+
171.0441	12	C11H7O2+
176.0624	11	C14H8+
177.0701	10	C14H9+
178.0653	31	C13H8N+
178.0779	4	C14H10+
179.0495	6	C13H7O+
179.0729	5	C13H9N+
180.0445	13	C12H6NO+
180.057	15	C13H8O+
180.0809	43	C13H10N+
181.0497	9	C9H9O4+
181.0648	56	C13H9O+
182.0602	39	C12H8NO+
182.0728	2	C13H10O+
182.0966	8	C13H12N+
183.0441	28	C12H7O2+
183.0678	26	C12H9NO+
183.0814	3	C13H11O+
184.052	83	C12H8O2+
184.0758	10	C12H10NO+
185.0599	7	C12H9O2+
190.0654	9	C14H8N+
192.0809	9	C14H10N+
193.0526	10	C13H7NO+
193.0648	4	C14H9O+
193.089	6	C14H11N+
194.0602	18	C13H8NO+
194.0964	19	C14H12N+
195.0443	71	C13H7O2+
195.0678	46	C13H9NO+
196.0521	109	C13H8O2+
196.0757	111	C13H10NO+
197.0598	139	C13H9O2+
198.0552	24	C12H8NO2+
198.0658	4	C13H10O2+
198.0913	5	C13H12NO+
199.0391	3	C12H7O3+
204.0809	24	C15H10N+
205.065	6	C15H9O+
206.0601	38	C14H8NO+
207.0441	5	C14H7O2+
207.068	8	C14H9NO+
208.0758	71	C14H10NO+
209.0596	12	C14H9O2+
209.0837	6	C14H11NO+
210.0552	34	C13H8NO2+
210.0662	2	C14H10O2+
210.0914	22	C14H12NO+
211.0628	69	C13H9NO2+
212.0707	120	C13H10NO2+
220.0756	45	C15H10NO+
221.0482	3	C14H7NO2+
221.0599	6	C15H9O2+
222.0548	13	C14H8NO2+
222.0909	17	C15H12NO+
223.0391	50	C14H7O3+
223.0627	34	C14H9NO2+
224.0706	208	C14H10NO2+
225.0547	18	C14H9O3+
225.0785	38	C14H11NO2+
226.0501	7	C13H8NO3+
226.0624	2	C14H10O3+
226.0863	7	C14H12NO2+
227.0576	26	C13H9NO3+
228.0417	65	C13H8O4+
232.0752	12	C16H10NO+
233.0836	8	C16H11NO+
234.055	32	C15H8NO2+
235.0628	13	C15H9NO2+
236.0704	7	C15H10NO2+
237.0421	9	C14H7NO3+
238.0498	34	C14H8NO3+
238.0864	23	C15H12NO2+
239.058	7	C14H9NO3+
240.102	168	C15H14NO2+
248.0709	14	C16H10NO2+
249.0788	3	C16H11NO2+
250.0858	3	C16H12NO2+
251.0576	9	C15H9NO3+
252.0655	60	C15H10NO3+
255.0528	33	C14H9NO4+
266.0812	149	C16H12NO3+
