Mass spectrum: PHA-00568487; LC-ESI-QFT; MS2; CE: 75; R=17500; [M+H]+
Name: PHA-00568487
Name: N-(3R)-1-Azabicyclo(2.2.2)oct-3-yl-2,3-dihydro-1,4-benzodioxin-6-carboxamide
Name: N-[(3R)-1-azabicyclo[2.2.2]octan-3-yl]-2,3-dihydro-1,4-benzodioxine-6-carboxamide
Formula: C16H20N2O3
Exact mass: 288.1474
SMILES: O=C(N[C@H]1CN2CCC1CC2)C1=CC2=C(OCCO2)C=C1
InChI: InChI=1S/C16H20N2O3/c19-16(17-13-10-18-5-3-11(13)4-6-18)12-1-2-14-15(9-12)21-8-7-20-14/h1-2,9,11,13H,3-8,10H2,(H,17,19)/t13-/m0/s1
Instrument: Q Exactive Orbitrap (Thermo Scientific)
Instrument type: LC-ESI-QFT
Ms type: MS2
Ion mode: POSITIVE
Ionization: ESI
Fragmentation mode: HCD
Collision energy: 75
Resolution: 17500
Column name: Acquity BEH C18 1.7um, 2.1x150mm (Waters)
Retention time: 10.712 min
Base peak: 79.0211
Precursor m/z: 289.1547
Precursor type: [M+H]+
Precursor intensity: 19550266.625
m/z	relative intensity	assigned
51.023	1	C4H3+
53.0022	5	C3HO+
53.0386	19	C4H5+
53.9975	1	C2NO+
54.0339	19	C3H4N+
55.0543	99	C4H7+
56.0495	90	C3H6N+
65.0386	14	C5H5+
66.0464	1	C5H6+
67.0417	10	C4H5N+
67.0542	28	C5H7+
68.0495	103	C4H6N+
68.9971	3	C3HO2+
69.0334	3	C4H5O+
69.0573	35	C4H7N+
69.0699	11	C5H9+
70.0651	2	C4H8N+
77.0385	3	C6H5+
79.0542	175	C6H7+
80.0495	28	C5H6N+
81.0573	20	C5H7N+
81.0699	246	C6H9+
82.0651	366	C5H8N+
83.0856	2	C6H11+
84.0808	6	C5H10N+
91.0543	35	C7H7+
93.0574	3	C6H7N+
93.0699	41	C7H9+
94.0652	17	C6H8N+
95.0127	3	C5H3O2+
95.0492	22	C6H7O+
95.073	46	C6H9N+
96.0808	17	C6H10N+
98.0965	1	C6H12N+
105.0447	8	C6H5N2+
107.0128	123	C6H3O2+
108.0808	41	C7H10N+
109.0648	2	C7H9O+
110.0965	288	C7H12N+
111.0441	3	C6H7O2+
113.0234	1	C5H5O3+
118.0288	1	C7H4NO+
125.0234	5	C6H5O3+
128.107	26	C7H14NO+
135.044	6	C8H7O2+
136.0394	2	C7H6NO2+
137.0597	46	C8H9O2+
139.0391	1	C7H7O3+
149.0598	15	C9H9O2+
153.0547	59	C8H9O3+
162.0551	58	C9H8NO2+
163.0392	999	C9H7O3+
163.0491	178	C8H7N2O2+
164.0473	1	C9H8O3+
164.0706	1	C9H10NO2+
180.0654	5	C9H10NO3+
233.1289	2	C13H17N2O2+
289.1548	9	C16H21N2O3+
