Mass spectrum: Flufenpyr-ethyl; LC-ESI-QFT; MS2; CE: 90; R=17500; [M-H]-
Name: Flufenpyr-ethyl
Formula: C16H13ClF4N2O4
Exact mass: 408.0500
SMILES: CCOC(=O)COC1=CC(N2N=CC(=C(C)C2=O)C(F)(F)F)=C(F)C=C1Cl
InChI: InChI=1S/C16H13ClF4N2O4/c1-3-26-14(24)7-27-13-5-12(11(18)4-10(13)17)23-15(25)8(2)9(6-22-23)16(19,20)21/h4-6H,3,7H2,1-2H3
Instrument: Q Exactive Orbitrap (Thermo Scientific)
Instrument type: LC-ESI-QFT
Ms type: MS2
Ion mode: NEGATIVE
Ionization: ESI
Fragmentation mode: HCD
Collision energy: 90
Resolution: 17500
Column name: Acquity BEH C18 1.7um, 2.1x150mm (Waters)
Retention time: 18.108 min
Base peak: 112.9856
Precursor m/z: 407.0427
Precursor type: [M-H]-
Precursor intensity: 747964.5454102
m/z	relative intensity	assigned
64.0192	62	C4H2N-
65.9986	155	C3NO-
89.0146	999	C5HN2-
89.9987	360	C5NO-
94.9694	102	C5Cl-
110.0046	64	C5HFNO-
122.9642	56	C6ClO-
137.0159	153	C6H2FN2O-
159.0174	50	C6H2F3N2-
161.0147	108	C11HN2-
176.0204	81	C6H3F3N2O-
180.0152	98	C5H3F3N2O2-
181.0207	142	C11H2FN2-
207.0177	63	C6H8ClN2O4-
