Mass spectrum: Apomorphine; LC-ESI-QFT; MS2; CE: 45; R=17500; [M+H]+
Name: Apomorphine
Name: (6aR)-6-methyl-5,6,6a,7-tetrahydro-4H-dibenzo[de,g]quinoline-10,11-diol
Formula: C17H17NO2
Exact mass: 267.1259
SMILES: CN1CCc2cccc3c2[C@H]1Cc1ccc(O)c(O)c1-3
InChI: InChI=1S/C17H17NO2/c1-18-8-7-10-3-2-4-12-15(10)13(18)9-11-5-6-14(19)17(20)16(11)12/h2-6,13,19-20H,7-9H2,1H3/t13-/m1/s1
Instrument: Q Exactive Orbitrap (Thermo Scientific)
Instrument type: LC-ESI-QFT
Ms type: MS2
Ion mode: POSITIVE
Ionization: ESI
Fragmentation mode: HCD
Collision energy: 45
Resolution: 17500
Column name: Acquity BEH C18 1.7um, 2.1x150mm (Waters)
Retention time: 11.129 min
Base peak: 79.0211
Precursor m/z: 268.1332
Precursor type: [M+H]+
Precursor intensity: 20678590.15625
m/z	relative intensity	assigned
58.065	1	C3H8N+
152.0622	1	C12H8+
163.0545	1	C13H7+
165.07	1	C13H9+
179.0857	2	C14H11+
189.0695	8	C15H9+
190.0776	7	C15H10+
191.0855	742	C15H11+
201.07	7	C16H9+
202.0777	3	C16H10+
205.0646	6	C15H9O+
205.1015	1	C16H13+
207.0803	13	C15H11O+
209.0959	2	C15H13O+
218.0727	8	C16H10O+
219.0804	999	C16H11O+
233.0964	1	C17H13O+
237.0909	905	C16H13O2+
268.1331	13	C17H18NO2+
