Mass spectrum: Halofenozide; LC-ESI-QFT; MS2; CE: 60; R=17500; [M+H]+
Name: Halofenozide
Name: N'-benzoyl-N'-tert-butyl-4-chlorobenzohydrazide
Formula: C18H19ClN2O2
Exact mass: 330.1135
SMILES: CC(C)(C)N(NC(=O)C1=CC=C(Cl)C=C1)C(=O)C1=CC=CC=C1
InChI: InChI=1S/C18H19ClN2O2/c1-18(2,3)21(17(23)14-7-5-4-6-8-14)20-16(22)13-9-11-15(19)12-10-13/h4-12H,1-3H3,(H,20,22)
Instrument: Q Exactive Orbitrap (Thermo Scientific)
Instrument type: LC-ESI-QFT
Ms type: MS2
Ion mode: POSITIVE
Ionization: ESI
Fragmentation mode: HCD
Collision energy: 60
Resolution: 17500
Column name: Acquity BEH C18 1.7um, 2.1x150mm (Waters)
Retention time: 17.343 min
Base peak: 79.0211
Precursor m/z: 331.1208
Precursor type: [M+H]+
Precursor intensity: 1891624.71875
m/z	relative intensity	assigned
72.0809	101	C4H10N+
95.0491	94	C6H7O+
105.0335	275	C7H5O+
239.1545	999	C16H19N2+
