Mass spectrum: Tamoxifen; LC-ESI-QFT; MS2; CE: 30; R=17500; [M+H]+
Name: Tamoxifen
Name: 2-[4-[(Z)-1,2-diphenylbut-1-enyl]phenoxy]-N,N-dimethylethanamine
Formula: C26H29NO
Exact mass: 371.2249
SMILES: CC\C(=C(/C1=CC=CC=C1)C1=CC=C(OCCN(C)C)C=C1)C1=CC=CC=C1
InChI: InChI=1S/C26H29NO/c1-4-25(21-11-7-5-8-12-21)26(22-13-9-6-10-14-22)23-15-17-24(18-16-23)28-20-19-27(2)3/h5-18H,4,19-20H2,1-3H3/b26-25-
Instrument: Q Exactive Orbitrap (Thermo Scientific)
Instrument type: LC-ESI-QFT
Ms type: MS2
Ion mode: POSITIVE
Ionization: ESI
Fragmentation mode: HCD
Collision energy: 30
Resolution: 17500
Column name: Acquity BEH C18 1.7um, 2.1x150mm (Waters)
Retention time: 17.455 min
Base peak: 79.0212
Precursor m/z: 372.2322
Precursor type: [M+H]+
Precursor intensity: 29873861
m/z	relative intensity	assigned
56.0494	3	C3H6N+
57.0573	3	C3H7N+
58.0651	23	C3H8N+
70.0651	19	C4H8N+
72.0807	999	C4H10N+
91.0542	15	C7H7+
105.0698	5	C8H9+
107.0491	4	C7H7O+
119.0855	2	C9H11+
129.0697	26	C10H9+
167.0853	3	C13H11+
178.0773	1	C14H10+
179.0852	1	C14H11+
207.1167	8	C16H15+
209.096	6	C15H13O+
221.0958	1	C16H13O+
249.127	4	C18H17O+
298.135	3	C22H18O+
299.1424	1	C22H19O+
300.1508	3	C22H20O+
327.1743	9	C24H23O+
372.2321	246	C26H30NO+
