Mass spectrum: Diphenamid; LC-ESI-QFT; MS2; CE: 45; R=17500; [M+H]+
Name: Diphenamid
Name: N,N-dimethyl-2,2-diphenylacetamide
Formula: C16H17NO
Exact mass: 239.1310
SMILES: CN(C)C(=O)C(C1=CC=CC=C1)C1=CC=CC=C1
InChI: InChI=1S/C16H17NO/c1-17(2)16(18)15(13-9-5-3-6-10-13)14-11-7-4-8-12-14/h3-12,15H,1-2H3
Instrument: Q Exactive Orbitrap (Thermo Scientific)
Instrument type: LC-ESI-QFT
Ms type: MS2
Ion mode: POSITIVE
Ionization: ESI
Fragmentation mode: HCD
Collision energy: 45
Resolution: 17500
Column name: Acquity BEH C18 1.7um, 2.1x150mm (Waters)
Retention time: 16.705 min
Base peak: 79.0211
Precursor m/z: 240.1383
Precursor type: [M+H]+
Precursor intensity: 53724151.125
m/z	relative intensity	assigned
72.0444	21	C3H6NO+
91.0541	2	C7H7+
118.0646	1	C8H8N+
134.0964	999	C9H12N+
152.0622	2	C12H8+
160.0763	1	C10H10NO+
162.0914	13	C10H12NO+
165.0702	4	C13H9+
166.0777	1	C13H10+
167.0856	170	C13H11+
240.1384	49	C16H18NO+
