Mass spectrum: Imazamox; LC-ESI-QFT; MS2; CE: 15; R=17500; [M+H]+
Name: Imazamox
Name: 5-(methoxymethyl)-2-(4-methyl-5-oxo-4-propan-2-yl-1H-imidazol-2-yl)pyridine-3-carboxylic acid
Formula: C15H19N3O4
Exact mass: 305.1376
SMILES: COCC1=CN=C(C2=NC(C)(C(C)C)C(=O)N2)C(=C1)C(O)=O
InChI: InChI=1S/C15H19N3O4/c1-8(2)15(3)14(21)17-12(18-15)11-10(13(19)20)5-9(6-16-11)7-22-4/h5-6,8H,7H2,1-4H3,(H,19,20)(H,17,18,21)
Instrument: Q Exactive Orbitrap (Thermo Scientific)
Instrument type: LC-ESI-QFT
Ms type: MS2
Ion mode: POSITIVE
Ionization: ESI
Fragmentation mode: HCD
Collision energy: 15
Resolution: 17500
Column name: Acquity BEH C18 1.7um, 2.1x150mm (Waters)
Retention time: 13.539 min
Base peak: 79.0211
Precursor m/z: 306.1448
Precursor type: [M+H]+
Precursor intensity: 15270524.59375
m/z	relative intensity	assigned
86.0963	1	C5H12N+
217.1336	1	C13H17N2O+
260.1382	1	C14H18N3O2+
261.1233	3	C14H17N2O3+
264.098	8	C12H14N3O4+
278.1497	8	C14H20N3O3+
288.134	2	C15H18N3O3+
306.1446	999	C15H20N3O4+
