Mass spectrum: 2-Aminobenzimidazole; LC-ESI-QFT; MS2; CE: 45; R=17500; [M+H]+
Name: 2-Aminobenzimidazole
Formula: C7H7N3
Exact mass: 133.0640
SMILES: NC1=NC2=CC=CC=C2N1
InChI: InChI=1S/C7H7N3/c8-7-9-5-3-1-2-4-6(5)10-7/h1-4H,(H3,8,9,10)
Instrument: Q Exactive Orbitrap (Thermo Scientific)
Instrument type: LC-ESI-QFT
Ms type: MS2
Ion mode: POSITIVE
Ionization: ESI
Fragmentation mode: HCD
Collision energy: 45
Resolution: 17500
Column name: Acquity BEH C18 1.7um, 2.1x150mm (Waters)
Retention time: 8.666 min
Base peak: 79.0212
Precursor m/z: 134.0713
Precursor type: [M+H]+
Precursor intensity: 17727892.95313
m/z	relative intensity	assigned
65.0384	1	C5H5+
92.0494	20	C6H6N+
93.0573	4	C6H7N+
107.0603	3	C6H7N2+
133.0634	1	C7H7N3+
134.0711	999	C7H8N3+
