Mass spectrum: PharmaGSID_48511; LC-ESI-QFT; MS2; CE: 45; R=17500; [M-H]-
Name: PharmaGSID_48511
Name: 4-[(9-cyclopentyl-7,7-difluoro-5-methyl-6-oxo-8H-pyrimido[4,5-b][1,4]diazepin-2-yl)amino]-3-methoxy-N-(1-methylpiperidin-4-yl)benzamide
Formula: C27H35F2N7O3
Exact mass: 543.2769
SMILES: COC1=C(NC2=NC3=C(C=N2)N(C)C(=O)C(F)(F)CN3C2CCCC2)C=CC(=C1)C(=O)NC1CCN(C)CC1
InChI: InChI=1S/C27H35F2N7O3/c1-34-12-10-18(11-13-34)31-24(37)17-8-9-20(22(14-17)39-3)32-26-30-15-21-23(33-26)36(19-6-4-5-7-19)16-27(28,29)25(38)35(21)2/h8-9,14-15,18-19H,4-7,10-13,16H2,1-3H3,(H,31,37)(H,30,32,33)
Instrument: Q Exactive Orbitrap (Thermo Scientific)
Instrument type: LC-ESI-QFT
Ms type: MS2
Ion mode: NEGATIVE
Ionization: ESI
Fragmentation mode: HCD
Collision energy: 45
Resolution: 17500
Column name: Acquity BEH C18 1.7um, 2.1x150mm (Waters)
Retention time: 14.779 min
Base peak: 112.9857
Precursor m/z: 542.2697
Precursor type: [M-H]-
Precursor intensity: 1805315.485352
m/z	relative intensity	assigned
65.0143	16	C3HN2-
106.0284	142	C4H2N4-
109.0771	93	C6H9N2-
124.0077	34	C5HFN2O-
139.0313	257	C6H4FN2O-
217.0968	59	C10H11N5O-
238.0733	34	C12H8N5O-
247.1326	283	C13H17N3O2-
258.1246	91	C9H15FN6O2-
272.1279	627	C14H16N4O2-
273.1357	999	C14H17N4O2-
280.1138	294	C13H14F2N4O-
298.1301	44	C15H16N5O2-
324.1459	68	C17H18N5O2-
365.2089	31	C25H27F2-
378.1685	373	C19H20N7O2-
380.1843	194	C19H22N7O2-
381.1486	147	C24H19N3O2-
393.1479	43	C20H18FN6O2-
394.1629	163	C19H20N7O3-
395.1709	740	C19H21N7O3-
410.1957	303	C20H24N7O3-
419.1713	26	C21H21N7O3-
425.175	104	C26H23N3O3-
429.2041	143	C24H25N6O2-
470.2301	48	C26H28N7O2-
487.2345	30	C26H29N7O3-
506.2319	165	C26H29FN7O3-
507.2399	128	C26H30FN7O3-
522.2655	84	C27H33FN7O3-
526.2379	32	C26H30F2N7O3-
527.2462	237	C26H31F2N7O3-
542.2702	87	C27H34F2N7O3-
