Mass spectrum: Besonprodil; LC-ESI-QFT; MS2; CE: 90; R=17500; [M-H]-
Name: Besonprodil
Name: 6-[2-[4-[(4-fluorophenyl)methyl]piperidin-1-yl]ethylsulfinyl]-3H-1,3-benzoxazol-2-one
Formula: C21H23FN2O3S
Exact mass: 402.1413
SMILES: FC1=CC=C(CC2CCN(CCS(=O)C3=CC=C4NC(=O)OC4=C3)CC2)C=C1
InChI: InChI=1S/C21H23FN2O3S/c22-17-3-1-15(2-4-17)13-16-7-9-24(10-8-16)11-12-28(26)18-5-6-19-20(14-18)27-21(25)23-19/h1-6,14,16H,7-13H2,(H,23,25)
Instrument: Q Exactive Orbitrap (Thermo Scientific)
Instrument type: LC-ESI-QFT
Ms type: MS2
Ion mode: NEGATIVE
Ionization: ESI
Fragmentation mode: HCD
Collision energy: 90
Resolution: 17500
Column name: Acquity BEH C18 1.7um, 2.1x150mm (Waters)
Retention time: 13.201 min
Base peak: 118.0299
Precursor m/z: 401.1341
Precursor type: [M-H]-
Precursor intensity: 10219496.04395
m/z	relative intensity	assigned
50.0036	2	C3N-
56.9804	25	C2HS-
57.9757	55	CNS-
60.9754	1	CHOS-
62.0162	11	C5H2-
63.9624	10	O2S-
64.0192	9	C4H2N-
65.0033	7	C4HO-
65.9986	85	C3NO-
68.0142	97	C3H2NO-
68.9982	8	C3HO2-
71.9677	2	C2OS-
74.0037	2	C5N-
80.9805	10	C4HS-
81.0221	25	C4H3NO-
81.9758	51	C3NS-
81.9884	7	C4H2S-
83.9914	226	C3H2NS-
84.9754	3	C3HOS-
92.0143	20	C5H2NO-
93.022	3	C5H3NO-
93.9883	123	C5H2S-
96.0091	10	C4H2NO2-
96.9991	5	C4H3NS-
97.9832	4	C4H2OS-
98.9782	2	C3HNOS-
107.9914	102	C5H2NS-
109.0169	24	C5H3NO2-
110.9912	6	C5H3OS-
111.9864	9	C4H2NOS-
112.9941	21	C4H3NOS-
120.0091	168	C6H2NO2-
121.017	165	C6H3NO2-
123.9863	4	C5H2NOS-
124.0042	3	C5H2NO3-
124.994	10	C5H3NOS-
125.978	7	C5H2O2S-
133.017	14	C7H3NO2-
134.0249	2	C7H4NO2-
135.9863	41	C6H2NOS-
136.004	101	C6H2NO3-
136.9941	70	C6H3NOS-
137.9781	3	C6H2O2S-
138.9863	2	C6H3O2S-
139.981	4	C5H2NO2S-
149.0118	999	C7H3NO3-
151.9812	37	C6H2NO2S-
152.9889	12	C6H3NO2S-
153.0067	9	C7H4FNS-
164.989	190	C7H3NO2S-
179.9763	6	C7H2NO3S-
180.984	93	C7H3NO3S-
