Mass spectrum: Tris(2-butoxyethyl) phosphate; LC-ESI-QFT; MS2; CE: 60; R=17500; [M+H]+
Name: Tris(2-butoxyethyl) phosphate
Formula: C18H39O7P
Exact mass: 398.2433
SMILES: CCCCOCCOP(=O)(OCCOCCCC)OCCOCCCC
InChI: InChI=1S/C18H39O7P/c1-4-7-10-20-13-16-23-26(19,24-17-14-21-11-8-5-2)25-18-15-22-12-9-6-3/h4-18H2,1-3H3
Instrument: Q Exactive Orbitrap (Thermo Scientific)
Instrument type: LC-ESI-QFT
Ms type: MS2
Ion mode: POSITIVE
Ionization: ESI
Fragmentation mode: HCD
Collision energy: 60
Resolution: 17500
Column name: Acquity BEH C18 1.7um, 2.1x150mm (Waters)
Retention time: 19.345 min
Base peak: 79.0211
Precursor m/z: 399.2506
Precursor type: [M+H]+
Precursor intensity: 35318392.0625
m/z	relative intensity	assigned
53.0022	33	C3HO+
53.0386	9	C4H5+
55.0543	367	C4H7+
57.0699	999	C4H9+
59.0492	50	C3H7O+
61.0202	4	C2H6P+
62.028	21	C2H7P+
62.9995	2	CH4OP+
68.997	1	C3HO2+
71.0855	1	C5H11+
75.0358	2	C3H8P+
76.0437	58	C3H9P+
83.0856	28	C6H11+
89.0516	3	C4H10P+
89.0597	1	C4H9O2+
90.0594	24	C4H11P+
91.0309	2	C3H8OP+
91.0671	1	C4H12P+
98.9842	315	H4O4P+
101.0961	10	C6H13O+
103.0672	3	C5H12P+
104.075	2	C5H13P+
108.0335	4	C3H9O2P+
116.9947	5	H6O5P+
117.0828	3	C6H14P+
118.0906	1	C6H15P+
119.0621	12	C5H12OP+
124.9999	40	C2H6O4P+
131.0104	5	CH8O5P+
131.0986	9	C7H16P+
133.0777	12	C6H14OP+
143.0106	4	C2H8O5P+
145.1141	8	C8H18P+
147.1298	2	C8H20P+
159.1299	4	C9H20P+
173.1454	14	C10H22P+
182.9903	2	C7H3O6+
187.1613	10	C11H24P+
201.0009	2	C7H5O7+
201.1768	5	C12H26P+
203.1926	9	C12H28P+
215.1923	11	C13H28P+
229.208	21	C14H30P+
243.2235	3	C15H32P+
257.2395	6	C16H34P+
271.255	6	C17H36P+
285.2712	5	C18H38P+
