Mass spectrum: Trazodone; LC-ESI-QFT; MS2; CE: 75; R=17500; [M+H]+
Name: Trazodone
Name: 2-[3-[4-(3-chlorophenyl)piperazin-1-yl]propyl]-[1,2,4]triazolo[4,3-a]pyridin-3-one
Formula: C19H22ClN5O
Exact mass: 371.1513
SMILES: ClC1=CC=CC(=C1)N1CCN(CCCN2N=C3C=CC=CN3C2=O)CC1
InChI: InChI=1S/C19H22ClN5O/c20-16-5-3-6-17(15-16)23-13-11-22(12-14-23)8-4-10-25-19(26)24-9-2-1-7-18(24)21-25/h1-3,5-7,9,15H,4,8,10-14H2
Instrument: Q Exactive Orbitrap (Thermo Scientific)
Instrument type: LC-ESI-QFT
Ms type: MS2
Ion mode: POSITIVE
Ionization: ESI
Fragmentation mode: HCD
Collision energy: 75
Resolution: 17500
Column name: Acquity BEH C18 1.7um, 2.1x150mm (Waters)
Retention time: 13.407 min
Base peak: 79.0211
Precursor m/z: 372.1586
Precursor type: [M+H]+
Precursor intensity: 3252163.1875
m/z	relative intensity	assigned
50.0152	1	C4H2+
51.023	3	C4H3+
53.0022	1	C3HO+
54.0338	5	C3H4N+
55.0416	2	C3H5N+
56.0495	7	C3H6N+
65.0386	3	C5H5+
67.0416	2	C4H5N+
68.0496	2	C4H6N+
69.0447	8	C3H5N2+
70.0651	25	C4H8N+
78.0338	69	C5H4N+
79.0416	2	C5H5N+
79.0543	1	C6H7+
80.0495	45	C5H6N+
82.0287	5	C4H4NO+
92.0369	25	C5H4N2+
92.0495	4	C6H6N+
93.0448	74	C5H5N2+
94.0526	19	C5H6N2+
94.0652	4	C6H8N+
95.0365	8	C5H5NO+
95.0605	12	C5H7N2+
96.0444	999	C5H6NO+
98.0486	2	CH9ClN3+
104.0495	2	C7H6N+
105.0447	42	C6H5N2+
106.0652	12	C7H8N+
107.0604	27	C6H7N2+
110.0601	20	C6H8NO+
111.0553	12	C5H7N2O+
116.0496	9	C8H6N+
117.0574	6	C8H7N+
118.0522	7	C7H6N2+
118.0651	18	C8H8N+
119.0604	54	C7H7N2+
119.0728	7	C8H9N+
120.0319	46	C6H4N2O+
120.0556	45	C6H6N3+
120.0682	10	C7H8N2+
120.0807	9	C8H10N+
121.0397	24	C6H5N2O+
121.076	68	C7H9N2+
123.0553	37	C6H7N2O+
131.0604	16	C8H7N2+
132.0682	16	C8H8N2+
133.076	90	C8H9N2+
134.0601	18	C8H8NO+
135.0427	39	C6H5N3O+
136.0505	20	C6H6N3O+
137.0712	2	C7H9N2O+
138.0106	16	C7H5ClN+
139.0057	2	C6H4ClN2+
148.0505	987	C7H6N3O+
148.0868	211	C8H10N3+
154.0418	9	C8H9ClN+
166.0418	20	C9H9ClN+
176.0819	94	C9H10N3O+
180.0767	16	C5H13ClN4O+
194.0605	11	C10H11ClN2+
209.084	3	C11H14ClN2+
