Mass spectrum: Octabenzone; LC-ESI-QFT; MS2; CE: 90; R=17500; [M+H]+
Name: Octabenzone
Name: (2-hydroxy-4-octoxyphenyl)-phenylmethanone
Formula: C21H26O3
Exact mass: 326.1882
SMILES: CCCCCCCCOC1=CC(O)=C(C=C1)C(=O)C1=CC=CC=C1
InChI: InChI=1S/C21H26O3/c1-2-3-4-5-6-10-15-24-18-13-14-19(20(22)16-18)21(23)17-11-8-7-9-12-17/h7-9,11-14,16,22H,2-6,10,15H2,1H3
Instrument: Q Exactive Orbitrap (Thermo Scientific)
Instrument type: LC-ESI-QFT
Ms type: MS2
Ion mode: POSITIVE
Ionization: ESI
Fragmentation mode: HCD
Collision energy: 90
Resolution: 17500
Column name: Acquity BEH C18 1.7um, 2.1x150mm (Waters)
Retention time: 18.891 min
Base peak: 79.0211
Precursor m/z: 327.1955
Precursor type: [M+H]+
Precursor intensity: 12990937.21875
m/z	relative intensity	assigned
50.0152	22	C4H2+
51.0231	52	C4H3+
53.0023	62	C3HO+
53.0386	262	C4H5+
55.0179	314	C3H3O+
55.0543	118	C4H7+
63.0229	453	C5H3+
65.0386	999	C5H5+
67.0542	170	C5H7+
69.0336	51	C4H5O+
77.0386	65	C6H5+
79.0542	162	C6H7+
81.0335	56	C5H5O+
81.0699	19	C6H9+
91.0543	472	C7H7+
93.0337	71	C6H5O+
93.07	61	C7H9+
95.0492	396	C6H7O+
103.0543	72	C8H7+
105.07	21	C8H9+
108.0558	39	C7H8O+
110.0713	143	C7H10O+
111.0441	214	C6H7O2+
111.0792	39	C7H11O+
115.0542	229	C9H7+
120.0558	41	C8H8O+
122.0714	77	C8H10O+
128.0623	64	C10H8+
132.0558	93	C9H8O+
133.0637	54	C9H9O+
134.0716	75	C9H10O+
136.0875	19	C9H12O+
138.0662	238	C8H10O2+
139.0743	59	C8H11O2+
141.07	29	C11H9+
145.0643	30	C10H9O+
146.0713	63	C10H10O+
147.0793	19	C10H11O+
148.0871	50	C10H12O+
150.0665	62	C9H10O2+
150.1027	21	C10H14O+
152.0819	38	C9H12O2+
158.0711	162	C11H10O+
160.0506	30	C10H8O2+
160.087	38	C11H12O+
166.0977	36	C10H14O2+
170.0709	105	C12H10O+
172.0873	53	C12H12O+
182.0718	103	C13H10O+
183.0794	45	C13H11O+
184.0873	50	C13H12O+
186.0665	37	C12H10O2+
196.0873	255	C14H12O+
197.0945	21	C14H13O+
198.0668	19	C13H10O2+
199.0758	23	C13H11O2+
200.082	70	C13H12O2+
210.0666	47	C14H10O2+
210.1029	56	C15H14O+
212.0819	32	C14H12O2+
238.1334	23	C17H18O+
