Mass spectrum: 4-Ethoxy-4-oxobut-2-enoic acid; LC-ESI-QFT; MS2; CE: 75; R=17500; [M-H]-
Name: 4-Ethoxy-4-oxobut-2-enoic acid
Formula: C6H8O4
Exact mass: 144.0423
SMILES: CCOC(=O)C=CC(O)=O
InChI: InChI=1S/C6H8O4/c1-2-10-6(9)4-3-5(7)8/h3-4H,2H2,1H3,(H,7,8)
Instrument: Q Exactive Orbitrap (Thermo Scientific)
Instrument type: LC-ESI-QFT
Ms type: MS2
Ion mode: NEGATIVE
Ionization: ESI
Fragmentation mode: HCD
Collision energy: 75
Resolution: 17500
Column name: Acquity BEH C18 1.7um, 2.1x150mm (Waters)
Retention time: 12.845 min
Base peak: 143.035
Precursor m/z: 143.035
Precursor type: [M-H]-
Precursor intensity: 4181550.404785
m/z	relative intensity	assigned
55.0189	101	C3H3O-
68.9982	39	C3HO2-
69.0346	85	C4H5O-
71.0139	999	C3H3O2-
71.0503	61	C4H7O-
84.0217	119	C4H4O2-
