Mass spectrum: Nimesulide; LC-ESI-QFT; MS2; CE: 75; R=17500; [M-H]-
Name: Nimesulide
Name: N-(4-nitro-2-phenoxyphenyl)methanesulfonamide
Formula: C13H12N2O5S
Exact mass: 308.0467
SMILES: CS(=O)(=O)NC1=CC=C(C=C1OC1=CC=CC=C1)[N+]([O-])=O
InChI: InChI=1S/C13H12N2O5S/c1-21(18,19)14-12-8-7-10(15(16)17)9-13(12)20-11-5-3-2-4-6-11/h2-9,14H,1H3
Instrument: Q Exactive Orbitrap (Thermo Scientific)
Instrument type: LC-ESI-QFT
Ms type: MS2
Ion mode: NEGATIVE
Ionization: ESI
Fragmentation mode: HCD
Collision energy: 75
Resolution: 17500
Column name: Acquity BEH C18 1.7um, 2.1x150mm (Waters)
Retention time: 16.701 min
Base peak: 429.0536
Precursor m/z: 307.0394
Precursor type: [M-H]-
Precursor intensity: 26544523.42188
m/z	relative intensity	assigned
63.9625	994	O2S-
65.0033	3	C4HO-
65.9985	4	C3NO-
66.0349	10	C4H4N-
67.0189	2	C4H3O-
69.0346	62	C4H5O-
76.0193	34	C5H2N-
78.9859	507	CH3O2S-
80.0142	10	C4H2NO-
91.019	29	C6H3O-
92.0506	6	C6H6N-
93.0347	21	C6H5O-
94.0299	36	C5H4NO-
95.0139	38	C5H3O2-
96.0216	2	C5H4O2-
97.0296	40	C5H5O2-
111.0088	3	C5H3O3-
116.0506	39	C8H6N-
118.0299	15	C7H4NO-
120.0091	7	C6H2NO2-
121.017	6	C6H3NO2-
122.0248	999	C6H4NO2-
128.0118	1	C5H4O4-
128.0506	16	C9H6N-
130.0662	4	C9H8N-
136.0404	2	C7H6NO2-
140.0506	21	C10H6N-
142.0662	537	C10H8N-
144.0454	6	C9H6NO-
146.0612	3	C9H8NO-
152.0227	21	C6H4N2O3-
152.0507	2	C11H6N-
153.0304	4	C6H5N2O3-
153.0584	10	C11H7N-
154.0664	6	C11H8N-
156.0455	3	C10H6NO-
156.0577	1	C11H8O-
168.0454	7	C11H6NO-
169.0533	3	C11H7NO-
170.0612	255	C11H8NO-
172.0769	1	C11H10NO-
180.0457	4	C12H6NO-
181.0535	6	C12H7NO-
182.0611	6	C12H8NO-
183.0453	2	C12H7O2-
186.0559	11	C11H8NO2-
196.041	7	C12H6NO2-
197.0482	53	C12H7NO2-
198.056	118	C12H8NO2-
199.0638	24	C12H9NO2-
211.0512	4	C12H7N2O2-
227.0463	65	C12H7N2O3-
228.0546	2	C12H8N2O3-
229.0618	54	C12H9N2O3-
