Mass spectrum: Carbetamide; LC-ESI-QFT; MS2; CE: 45; R=17500; [M+H]+
Name: Carbetamide
Name: [1-(ethylamino)-1-oxopropan-2-yl] N-phenylcarbamate
Formula: C12H16N2O3
Exact mass: 236.1161
SMILES: CCNC(=O)C(C)OC(=O)NC1=CC=CC=C1
InChI: InChI=1S/C12H16N2O3/c1-3-13-11(15)9(2)17-12(16)14-10-7-5-4-6-8-10/h4-9H,3H2,1-2H3,(H,13,15)(H,14,16)
Instrument: Q Exactive Orbitrap (Thermo Scientific)
Instrument type: LC-ESI-QFT
Ms type: MS2
Ion mode: POSITIVE
Ionization: ESI
Fragmentation mode: HCD
Collision energy: 45
Resolution: 17500
Column name: Acquity BEH C18 1.7um, 2.1x150mm (Waters)
Retention time: 14.852 min
Base peak: 79.0211
Precursor m/z: 237.1234
Precursor type: [M+H]+
Precursor intensity: 3677757.5
m/z	relative intensity	assigned
72.0443	158	C3H6NO+
72.0808	651	C4H10N+
100.0758	243	C5H10NO+
118.0863	663	C5H12NO2+
120.0445	771	C7H6NO+
122.0714	71	C8H10O+
126.1279	148	C8H16N+
136.0872	76	C9H12O+
150.1028	999	C10H14O+
151.0976	68	C9H13NO+
151.1107	206	C10H15O+
165.1139	91	C10H15NO+
165.1262	372	C11H17O+
166.0975	198	C10H14O2+
179.1294	657	C11H17NO+
