Mass spectrum: 2-Chlorobenzenesulfonamide; LC-ESI-QFT; MS2; CE: 75; R=17500; [M-H]-
Name: 2-Chlorobenzenesulfonamide
Formula: C6H6ClNO2S
Exact mass: 190.9808
SMILES: NS(=O)(=O)C1=CC=CC=C1Cl
InChI: InChI=1S/C6H6ClNO2S/c7-5-3-1-2-4-6(5)11(8,9)10/h1-4H,(H2,8,9,10)
Instrument: Q Exactive Orbitrap (Thermo Scientific)
Instrument type: LC-ESI-QFT
Ms type: MS2
Ion mode: NEGATIVE
Ionization: ESI
Fragmentation mode: HCD
Collision energy: 75
Resolution: 17500
Column name: Acquity BEH C18 1.7um, 2.1x150mm (Waters)
Retention time: 15.742 min
Base peak: 167.9858
Precursor m/z: 189.9735
Precursor type: [M-H]-
Precursor intensity: 1759489.980469
m/z	relative intensity	assigned
61.9706	743	NOS-
63.9624	291	O2S-
77.9655	698	NO2S-
78.9734	483	HNO2S-
79.9812	999	H2NO2S-
111.0007	12	C6H4Cl-
126.0116	263	C6H5ClN-
126.9956	71	C6H4ClO-
189.9736	47	C6H5ClNO2S-
