Mass spectrum: Raloxifene; LC-ESI-QFT; MS2; CE: 45; R=17500; [M+H]+
Name: Raloxifene
Name: [6-hydroxy-2-(4-hydroxyphenyl)-1-benzothiophen-3-yl]-[4-(2-piperidin-1-ylethoxy)phenyl]methanone
Formula: C28H27NO4S
Exact mass: 473.1661
SMILES: OC1=CC=C(C=C1)C1=C(C(=O)C2=CC=C(OCCN3CCCCC3)C=C2)C2=CC=C(O)C=C2S1
InChI: InChI=1S/C28H27NO4S/c30-21-8-4-20(5-9-21)28-26(24-13-10-22(31)18-25(24)34-28)27(32)19-6-11-23(12-7-19)33-17-16-29-14-2-1-3-15-29/h4-13,18,30-31H,1-3,14-17H2
Instrument: Q Exactive Orbitrap (Thermo Scientific)
Instrument type: LC-ESI-QFT
Ms type: MS2
Ion mode: POSITIVE
Ionization: ESI
Fragmentation mode: HCD
Collision energy: 45
Resolution: 17500
Column name: Acquity BEH C18 1.7um, 2.1x150mm (Waters)
Retention time: 14.280 min
Base peak: 79.0211
Precursor m/z: 474.1734
Precursor type: [M+H]+
Precursor intensity: 9994871
m/z	relative intensity	assigned
53.0022	5	C3HO+
55.0542	34	C4H7+
56.0495	65	C3H6N+
57.0573	1	C3H7N+
58.0651	44	C3H8N+
67.0542	7	C5H7+
69.0698	122	C5H9+
70.0651	27	C4H8N+
82.0651	4	C5H8N+
83.073	2	C5H9N+
83.0855	5	C6H11+
84.0808	441	C5H10N+
85.0886	267	C5H11N+
86.0964	18	C5H12N+
95.0854	1	C7H11+
97.0886	5	C6H11N+
98.0964	12	C6H12N+
103.0177	3	C7H3O+
110.0965	18	C7H12N+
112.112	999	C7H14N+
121.0283	2	C7H5O2+
147.044	43	C9H7O2+
197.0597	7	C13H9O2+
213.0368	4	C13H9OS+
241.0316	4	C14H9O2S+
269.0266	98	C15H9O3S+
305.0629	3	C19H13O2S+
317.0627	1	C20H13O2S+
319.0427	1	C19H11O3S+
333.0575	3	C26H7N+
361.0529	5	C21H13O4S+
362.0607	11	C21H14O4S+
474.1735	24	C28H28NO4S+
