Mass spectrum: Octylphosphonic acid; LC-ESI-QFT; MS2; CE: 60; R=17500; [M-H]-
Name: Octylphosphonic acid
Formula: C8H19O3P
Exact mass: 194.1072
SMILES: CCCCCCCCP(O)(O)=O
InChI: InChI=1S/C8H19O3P/c1-2-3-4-5-6-7-8-12(9,10)11/h2-8H2,1H3,(H2,9,10,11)
Instrument: Q Exactive Orbitrap (Thermo Scientific)
Instrument type: LC-ESI-QFT
Ms type: MS2
Ion mode: NEGATIVE
Ionization: ESI
Fragmentation mode: HCD
Collision energy: 60
Resolution: 17500
Column name: Acquity BEH C18 1.7um, 2.1x150mm (Waters)
Retention time: 17.709 min
Base peak: 317.1618
Precursor m/z: 193.0999
Precursor type: [M-H]-
Precursor intensity: 26200289.08301
m/z	relative intensity	assigned
57.0346	12	C3H5O-
59.0138	21	C2H3O2-
62.9641	11	O2P-
65.0032	6	C4HO-
65.0396	27	C5H5-
67.0189	49	C4H3O-
67.0553	3	C5H7-
78.9591	754	O3P-
81.0346	42	C5H5O-
83.0503	274	C5H7O-
91.0189	5	C6H3O-
91.0554	26	C7H7-
93.0346	17	C6H5O-
95.0138	4	C5H3O2-
95.0503	5	C6H7O-
103.0553	4	C8H7-
104.0269	24	C7H4O-
105.0345	37	C7H5O-
105.0711	30	C8H9-
106.0423	10	C7H6O-
107.0503	62	C7H7O-
107.0866	999	C8H11-
108.0218	18	C6H4O2-
109.0295	126	C6H5O2-
109.0657	13	C7H9O-
119.0501	32	C8H7O-
120.0581	126	C8H8O-
121.0295	264	C7H5O2-
122.0373	110	C7H6O2-
123.0453	5	C7H7O2-
125.0244	6	C6H5O3-
135.0452	317	C8H7O2-
136.0529	979	C8H8O2-
137.0243	7	C7H5O3-
149.0244	146	C8H5O3-
150.0323	25	C8H6O3-
152.048	15	C8H8O3-
175.0887	19	C8H16O2P-
