Mass spectrum: Pantothenate; LC-ESI-QFT; MS2; CE: 90; R=17500; [M+H]+
Name: Pantothenate
Name: Pantothenic acid
Name: 3-[[(2R)-2,4-dihydroxy-3,3-dimethylbutanoyl]amino]propanoic acid
Formula: C9H17NO5
Exact mass: 219.1107
SMILES: CC(C)(CO)[C@@H](O)C(=O)NCCC(O)=O
InChI: InChI=1S/C9H17NO5/c1-9(2,5-11)7(14)8(15)10-4-3-6(12)13/h7,11,14H,3-5H2,1-2H3,(H,10,15)(H,12,13)/t7-/m0/s1
Instrument: Q Exactive Orbitrap (Thermo Scientific)
Instrument type: LC-ESI-QFT
Ms type: MS2
Ion mode: POSITIVE
Ionization: ESI
Fragmentation mode: HCD
Collision energy: 90
Resolution: 17500
Column name: Acquity BEH C18 1.7um, 2.1x150mm (Waters)
Retention time: 8.139 min
Base peak: 79.0211
Precursor m/z: 220.1179
Precursor type: [M+H]+
Precursor intensity: 7777279.9375
m/z	relative intensity	assigned
53.0023	55	C3HO+
53.0386	30	C4H5+
55.0179	154	C3H3O+
55.0543	143	C4H7+
56.0131	292	C2H2NO+
57.0699	300	C4H9+
59.0492	169	C3H7O+
60.0445	42	C2H6NO+
61.0284	25	C2H5O2+
65.0386	119	C5H5+
67.0542	784	C5H7+
69.0699	99	C5H9+
70.0288	999	C3H4NO+
72.0444	189	C3H6NO+
73.0285	70	C3H5O2+
74.0237	57	C2H4NO2+
79.0543	96	C6H7+
81.0574	53	C5H7N+
81.0699	62	C6H9+
83.0492	46	C5H7O+
85.0649	82	C5H9O+
86.0966	17	C5H12N+
90.055	173	C3H8NO2+
94.0651	18	C6H8N+
95.0492	219	C6H7O+
96.0808	140	C6H10N+
97.0651	13	C6H9O+
98.0237	133	C4H4NO2+
113.0599	22	C6H9O2+
116.0345	36	C4H6NO3+
124.0758	115	C7H10NO+
142.0864	15	C7H12NO2+
147.9769	20	C7O4+
