Mass spectrum: Cinchophen; LC-ESI-QFT; MS2; CE: 60; R=17500; [M+H]+
Name: Cinchophen
Name: 2-phenylquinoline-4-carboxylic acid
Formula: C16H11NO2
Exact mass: 249.0790
SMILES: OC(=O)C1=C2C=CC=CC2=NC(=C1)C1=CC=CC=C1
InChI: InChI=1S/C16H11NO2/c18-16(19)13-10-15(11-6-2-1-3-7-11)17-14-9-5-4-8-12(13)14/h1-10H,(H,18,19)
Instrument: Q Exactive Orbitrap (Thermo Scientific)
Instrument type: LC-ESI-QFT
Ms type: MS2
Ion mode: POSITIVE
Ionization: ESI
Fragmentation mode: HCD
Collision energy: 60
Resolution: 17500
Column name: Acquity BEH C18 1.7um, 2.1x150mm (Waters)
Retention time: 17.037 min
Base peak: 79.0211
Precursor m/z: 250.0863
Precursor type: [M+H]+
Precursor intensity: 9424898.625
m/z	relative intensity	assigned
89.0385	4	C7H5+
91.0542	2	C7H7+
95.0491	2	C6H7O+
103.0541	2	C8H7+
105.0335	9	C7H5O+
116.0495	51	C8H6N+
119.0491	1	C8H7O+
120.0444	2	C7H6NO+
128.0494	196	C9H6N+
130.0287	11	C8H4NO+
131.0366	1	C8H5NO+
132.0445	2	C8H6NO+
134.06	15	C8H8NO+
144.0444	6	C9H6NO+
146.06	90	C9H8NO+
148.0757	1	C9H10NO+
160.0757	3	C10H10NO+
162.0549	48	C9H8NO2+
167.0854	1	C13H11+
172.0392	12	C10H6NO2+
176.071	1	C10H10NO2+
177.07	1	C14H9+
178.0775	1	C14H10+
180.081	1	C13H10N+
191.0731	1	C14H9N+
193.088	1	C14H11N+
194.0967	2	C14H12N+
203.0735	2	C15H9N+
204.0809	99	C15H10N+
205.0886	6	C15H11N+
206.0964	267	C15H12N+
217.0887	2	C16H11N+
222.0914	349	C15H12NO+
232.0757	1	C16H10NO+
237.0785	3	C15H11NO2+
249.0792	1	C16H11NO2+
250.0862	999	C16H12NO2+
