Mass spectrum: SSR180711; LC-ESI-QFT; MS2; CE: 90; R=17500; [M+H]+
Name: SSR180711
Name: 4-Bromophenyl 1,4-diazabicyclo(3.2.2)nonane-4-carboxylate
Name: (4-bromophenyl) 1,4-diazabicyclo[3.2.2]nonane-4-carboxylate
Formula: C14H17BrN2O2
Exact mass: 324.0473
SMILES: BrC1=CC=C(OC(=O)N2CCN3CCC2CC3)C=C1
InChI: InChI=1S/C14H17BrN2O2/c15-11-1-3-13(4-2-11)19-14(18)17-10-9-16-7-5-12(17)6-8-16/h1-4,12H,5-10H2
Instrument: Q Exactive Orbitrap (Thermo Scientific)
Instrument type: LC-ESI-QFT
Ms type: MS2
Ion mode: POSITIVE
Ionization: ESI
Fragmentation mode: HCD
Collision energy: 90
Resolution: 17500
Column name: Acquity BEH C18 1.7um, 2.1x150mm (Waters)
Retention time: 13.135 min
Base peak: 79.0211
Precursor m/z: 325.0546
Precursor type: [M+H]+
Precursor intensity: 6999652.6875
m/z	relative intensity	assigned
50.0152	6	C4H2+
51.023	5	C4H3+
52.0308	7	C4H4+
53.0022	13	C3HO+
53.0386	29	C4H5+
54.0339	13	C3H4N+
55.0543	665	C4H7+
56.0495	999	C3H6N+
57.0573	5	C3H7N+
57.0699	15	C4H9+
58.0651	9	C3H8N+
65.0386	34	C5H5+
66.0464	7	C5H6+
67.0416	25	C4H5N+
67.0542	84	C5H7+
68.0495	142	C4H6N+
69.0447	41	C3H5N2+
69.0573	27	C4H7N+
70.0287	54	C3H4NO+
70.0651	109	C4H8N+
71.0604	2	C3H7N2+
71.073	10	C4H9N+
75.0229	77	C6H3+
76.0308	105	C6H4+
78.0464	24	C6H6+
79.0179	9	C5H3O+
80.0257	14	C5H4O+
80.0495	45	C5H6N+
81.0336	14	C5H5O+
82.0652	127	C5H8N+
83.0604	14	C4H7N2+
83.0732	2	C5H9N+
84.0808	314	C5H10N+
85.0397	2	C3H5N2O+
90.0465	7	C7H6+
91.0543	35	C7H7+
92.0621	33	C7H8+
94.0414	337	C6H6O+
95.0492	5	C6H7O+
95.0606	2	C5H7N2+
96.0445	10	C5H6NO+
97.0397	5	C4H5N2O+
97.0761	101	C5H9N2+
98.0363	8	C5H6O2+
98.0839	14	C5H10N2+
99.0553	14	C4H7N2O+
103.0543	6	C8H7+
104.0621	8	C8H8+
106.0415	2	C7H6O+
117.0698	2	C9H9+
118.0414	5	C8H6O+
118.0653	29	C8H8N+
119.0492	6	C8H7O+
120.057	53	C8H8O+
125.071	67	C6H9N2O+
126.0787	2	C6H10N2O+
126.1154	4	C7H14N2+
130.0652	33	C9H8N+
130.9491	53	C4H4Br+
131.0492	6	C9H7O+
132.0568	4	C9H8O+
142.9492	7	C5H4Br+
144.081	7	C10H10N+
154.9491	64	C6H4Br+
156.9649	5	C6H6Br+
158.944	6	C5H4BrO+
168.9649	13	C7H6Br+
170.9437	3	C6H4BrO+
170.9807	7	C7H8Br+
172.9598	298	C6H6BrO+
181.9602	8	C7H5BrN+
181.9728	2	C8H7Br+
182.9554	619	C6H4BrN2+
183.953	2	C7H5BrO+
184.9597	12	C7H6BrO+
198.9754	5	C8H8BrO+
241.9813	24	C9H9BrNO2+
253.9815	3	C10H9BrNO2+
267.9969	48	C11H11BrNO2+
