Mass spectrum: Pyrazophos; LC-ESI-QFT; MS2; CE: 15; R=17500; [M+H]+
Name: Pyrazophos
Name: ethyl 2-diethoxyphosphinothioyloxy-5-methylpyrazolo[1,5-a]pyrimidine-6-carboxylate
Formula: C14H20N3O5PS
Exact mass: 373.0861
SMILES: CCOC(=O)C1=CN2N=C(OP(=S)(OCC)OCC)C=C2N=C1C
InChI: InChI=1S/C14H20N3O5PS/c1-5-19-14(18)11-9-17-12(15-10(11)4)8-13(16-17)22-23(24,20-6-2)21-7-3/h8-9H,5-7H2,1-4H3
Instrument: Q Exactive Orbitrap (Thermo Scientific)
Instrument type: LC-ESI-QFT
Ms type: MS2
Ion mode: POSITIVE
Ionization: ESI
Fragmentation mode: HCD
Collision energy: 15
Resolution: 17500
Column name: Acquity BEH C18 1.7um, 2.1x150mm (Waters)
Retention time: 18.878 min
Base peak: 79.0211
Precursor m/z: 374.0934
Precursor type: [M+H]+
Precursor intensity: 12857821.375
m/z	relative intensity	assigned
170.0159	1	C4H11O3PS+
211.0533	1	C9H11N2O2S+
222.0872	61	C10H12N3O3+
236.0491	1	C10H10N3O2S+
238.0644	14	C10H12N3O2S+
318.0307	7	C10H13N3O5PS+
328.0514	1	C12H15N3O4PS+
346.062	72	C12H17N3O5PS+
374.0933	999	C14H21N3O5PS+
