Mass spectrum: Thiacloprid; LC-ESI-QFT; MS2; CE: 90; R=17500; [M+H]+
Name: Thiacloprid
Name: [3-[(6-chloropyridin-3-yl)methyl]-1,3-thiazolidin-2-ylidene]cyanamide
Formula: C10H9ClN4S
Exact mass: 252.0236
SMILES: C1CSC(=NC#N)N1CC2=CN=C(C=C2)Cl
InChI: InChI=1S/C10H9ClN4S/c11-9-2-1-8(5-13-9)6-15-3-4-16-10(15)14-7-12/h1-2,5H,3-4,6H2
Instrument: Q Exactive Orbitrap (Thermo Scientific)
Instrument type: LC-ESI-QFT
Ms type: MS2
Ion mode: POSITIVE
Ionization: ESI
Fragmentation mode: HCD
Collision energy: 90
Resolution: 17500
Column name: Acquity BEH C18 1.7um, 2.1x150mm (Waters)
Retention time: 13.720 min
Base peak: 79.0212
Precursor m/z: 253.0309
Precursor type: [M+H]+
Precursor intensity: 7651317.84375
m/z	relative intensity	assigned
58.995	2	C2H3S+
61.0106	1	C2H5S+
62.0151	2	C5H2+
63.0229	115	C5H3+
64.0181	13	C4H2N+
64.0307	1	C5H4+
65.0386	23	C5H5+
72.9839	186	C3H2Cl+
74.9996	5	C3H4Cl+
80.0495	22	C5H6N+
81.0335	135	C2H8ClN+
90.0339	564	C6H4N+
91.0417	155	C6H5N+
95.0492	3	C3H10ClN+
98.9996	625	C5H4Cl+
106.0286	1	C3H7ClN2+
108.0444	63	C3H9ClN2+
123.995	2	C6H3ClN+
126.0105	999	C6H5ClN+
144.0211	73	C4H5ClN4+
151.0055	3	C7H4ClN2+
166.0163	1	C7H5ClN3+
