Mass spectrum: Ethoxyquin; LC-ESI-QFT; MS2; CE: 30; R=17500; [M+H]+
Name: Ethoxyquin
Name: 6-ethoxy-2,2,4-trimethyl-1H-quinoline
Formula: C14H19NO
Exact mass: 217.1467
SMILES: CCOC1=CC2=C(NC(C)(C)C=C2C)C=C1
InChI: InChI=1S/C14H19NO/c1-5-16-11-6-7-13-12(8-11)10(2)9-14(3,4)15-13/h6-9,15H,5H2,1-4H3
Instrument: Q Exactive Orbitrap (Thermo Scientific)
Instrument type: LC-ESI-QFT
Ms type: MS2
Ion mode: POSITIVE
Ionization: ESI
Fragmentation mode: HCD
Collision energy: 30
Resolution: 17500
Column name: Acquity BEH C18 1.7um, 2.1x150mm (Waters)
Retention time: 15.084 min
Base peak: 79.0211
Precursor m/z: 218.1539
Precursor type: [M+H]+
Precursor intensity: 9651062.25
m/z	relative intensity	assigned
83.0856	1	C6H11+
122.0599	1	C7H8NO+
134.0599	4	C8H8NO+
136.0757	4	C8H10NO+
144.001	1	C12+
147.0678	1	C9H9NO+
148.0757	21	C9H10NO+
150.0914	1	C9H12NO+
158.0171	4	C13H2+
158.0965	1	C11H12N+
160.0759	1	C10H10NO+
161.0836	1	C10H11NO+
162.0914	13	C10H12NO+
162.1275	1	C11H16N+
172.1122	5	C12H14N+
173.0963	3	C12H13O+
173.1202	5	C12H15N+
174.0914	6	C11H12NO+
174.1278	2	C12H16N+
175.0993	5	C11H13NO+
176.1071	46	C11H14NO+
188.1071	11	C12H14NO+
189.1149	16	C12H15NO+
190.1227	43	C12H16NO+
201.1277	1	C14H17O+
202.1228	9	C13H16NO+
203.1306	11	C13H17NO+
218.154	999	C14H20NO+
