Mass spectrum: Amiodarone hydrochloride; LC-ESI-QFT; MS2; CE: 15; R=17500; [M+H]+
Name: Amiodarone
Name: (2-butyl-1-benzofuran-3-yl)-[4-[2-(diethylamino)ethoxy]-3,5-diiodophenyl]methanone
Formula: C25H29I2NO3
Exact mass: 645.0237
SMILES: CCCCC1=C(C(=O)C2=CC(I)=C(OCCN(CC)CC)C(I)=C2)C2=CC=CC=C2O1
InChI: InChI=1S/C25H29I2NO3/c1-4-7-11-22-23(18-10-8-9-12-21(18)31-22)24(29)17-15-19(26)25(20(27)16-17)30-14-13-28(5-2)6-3/h8-10,12,15-16H,4-7,11,13-14H2,1-3H3
Instrument: Q Exactive Orbitrap (Thermo Scientific)
Instrument type: LC-ESI-QFT
Ms type: MS2
Ion mode: POSITIVE
Ionization: ESI
Fragmentation mode: HCD
Collision energy: 15
Resolution: 17500
Column name: Acquity BEH C18 1.7um, 2.1x150mm (Waters)
Retention time: 18.103 min
Base peak: 79.0211
Precursor m/z: 646.031
Precursor type: [M+H]+
Precursor intensity: 19941543.75
m/z	relative intensity	assigned
58.0651	6	C3H8N+
72.0807	1	C4H10N+
73.0885	1	C4H11N+
86.0964	12	C5H12N+
100.112	28	C6H14N+
646.0311	999	C25H30I2NO3+
