Mass spectrum: Pyridaben; LC-ESI-QFT; MS2; CE: 60; R=17500; [M+H]+
Name: Pyridaben
Formula: C19H25ClN2OS
Exact mass: 364.1376
SMILES: CC(C)(C)N1N=CC(SCC2=CC=C(C=C2)C(C)(C)C)=C(Cl)C1=O
InChI: InChI=1S/C19H25ClN2OS/c1-18(2,3)14-9-7-13(8-10-14)12-24-15-11-21-22(19(4,5)6)17(23)16(15)20/h7-11H,12H2,1-6H3
Instrument: Q Exactive Orbitrap (Thermo Scientific)
Instrument type: LC-ESI-QFT
Ms type: MS2
Ion mode: POSITIVE
Ionization: ESI
Fragmentation mode: HCD
Collision energy: 60
Resolution: 17500
Column name: Acquity BEH C18 1.7um, 2.1x150mm (Waters)
Retention time: 20.420 min
Base peak: 79.0212
Precursor m/z: 365.1449
Precursor type: [M+H]+
Precursor intensity: 16984961.75
m/z	relative intensity	assigned
55.0542	18	C4H7+
57.0699	2	C4H9+
69.0699	3	C5H9+
79.0542	3	C6H7+
91.0542	31	C7H7+
93.0699	5	C7H9+
103.0544	1	C8H7+
104.062	2	C8H8+
105.0699	241	C8H9+
107.0855	33	C8H11+
117.0699	40	C9H9+
119.0856	276	C9H11+
131.0857	5	C10H11+
132.0934	263	C10H12+
145.1011	14	C11H13+
147.1168	999	C11H15+
