Mass spectrum: Propanil; LC-ESI-QFT; MS2; CE: 90; R=17500; [M-H]-
Name: Propanil
Name: N-(3,4-dichlorophenyl)propanamide
Formula: C9H9Cl2NO
Exact mass: 217.0061
SMILES: CCC(=O)NC1=CC=C(Cl)C(Cl)=C1
InChI: InChI=1S/C9H9Cl2NO/c1-2-9(13)12-6-3-4-7(10)8(11)5-6/h3-5H,2H2,1H3,(H,12,13)
Instrument: Q Exactive Orbitrap (Thermo Scientific)
Instrument type: LC-ESI-QFT
Ms type: MS2
Ion mode: NEGATIVE
Ionization: ESI
Fragmentation mode: HCD
Collision energy: 90
Resolution: 17500
Column name: Acquity BEH C18 1.7um, 2.1x150mm (Waters)
Retention time: 17.574 min
Base peak: 215.9988
Precursor m/z: 215.9988
Precursor type: [M-H]-
Precursor intensity: 72657592.06055
m/z	relative intensity	assigned
55.0189	41	C3H3O-
87.0112	16	C6HN-
88.0193	469	C6H2N-
121.9803	22	C6HClN-
123.9959	502	C6H3ClN-
124.9797	89	C6H2ClO-
149.9752	37	C7HClNO-
159.9726	999	C6H4Cl2N-
160.9566	53	C6H3Cl2O-
199.9675	47	C8H4Cl2NO-
