Mass spectrum: HC Red 3; LC-ESI-QFT; MS2; CE: 60; R=17500; [M+H]+
Name: HC Red 3
Name: 2-((4-Amino-2-nitrophenyl)amino)ethanol
Name: 2-(4-amino-2-nitroanilino)ethanol
Formula: C8H11N3O3
Exact mass: 197.0800
SMILES: NC1=CC(=C(NCCO)C=C1)[N+]([O-])=O
InChI: InChI=1S/C8H11N3O3/c9-6-1-2-7(10-3-4-12)8(5-6)11(13)14/h1-2,5,10,12H,3-4,9H2
Instrument: Q Exactive Orbitrap (Thermo Scientific)
Instrument type: LC-ESI-QFT
Ms type: MS2
Ion mode: POSITIVE
Ionization: ESI
Fragmentation mode: HCD
Collision energy: 60
Resolution: 17500
Column name: Acquity BEH C18 1.7um, 2.1x150mm (Waters)
Retention time: 3.132 min
Base peak: 79.0211
Precursor m/z: 198.0873
Precursor type: [M+H]+
Precursor intensity: 2287526
m/z	relative intensity	assigned
53.0021	2	C3HO+
53.0385	1	C4H5+
54.0339	8	C3H4N+
55.0542	6	C4H7+
57.0699	15	C4H9+
64.0182	4	C4H2N+
66.0339	4	C4H4N+
67.0178	3	C4H3O+
68.0495	3	C4H6N+
69.0335	5	C4H5O+
69.0698	6	C5H9+
71.0855	6	C5H11+
79.0292	2	C4H3N2+
80.0496	16	C5H6N+
81.0447	17	C4H5N2+
81.0573	3	C5H7N+
82.0288	8	C4H4NO+
82.0526	5	C4H6N2+
83.0857	2	C6H11+
86.0601	95	C4H8NO+
90.0466	1	C7H6+
91.0292	35	C5H3N2+
91.0543	3	C7H7+
92.0369	8	C5H4N2+
92.0495	6	C6H6N+
93.0448	12	C5H5N2+
93.0574	13	C6H7N+
94.0526	13	C5H6N2+
94.0654	2	C6H8N+
95.0604	136	C5H7N2+
105.0335	6	C7H5O+
105.0448	10	C6H5N2+
105.0573	3	C7H7N+
106.0526	12	C6H6N2+
106.0652	16	C7H8N+
107.0604	67	C6H7N2+
108.0682	146	C6H8N2+
109.0398	5	C5H5N2O+
109.0525	2	C6H7NO+
109.0756	2	C6H9N2+
110.0602	2	C6H8NO+
111.0553	3	C5H7N2O+
117.0448	4	C7H5N2+
117.0573	5	C8H7N+
118.04	28	C6H4N3+
118.0526	3	C7H6N2+
118.0652	3	C8H8N+
119.0479	111	C6H5N3+
120.0444	11	C7H6NO+
120.0554	9	C6H6N3+
120.0684	2	C7H8N2+
121.0636	5	C6H7N3+
121.076	35	C7H9N2+
122.0713	19	C6H8N3+
123.0554	3	C6H7N2O+
131.0605	6	C8H7N2+
132.0557	14	C7H6N3+
132.0682	7	C8H8N2+
133.0635	999	C7H7N3+
134.0713	73	C7H8N3+
134.0839	4	C8H10N2+
135.0558	2	C7H7N2O+
135.0919	9	C8H11N2+
136.0506	60	C6H6N3O+
136.0634	3	C7H8N2O+
137.0471	7	C7H7NO2+
137.071	36	C7H9N2O+
142.0726	3	C6H10N2O2+
144.0558	6	C8H6N3+
145.0634	26	C8H7N3+
146.0712	9	C8H8N3+
149.0585	3	C7H7N3O+
150.0663	21	C7H8N3O+
153.0534	39	C6H7N3O2+
162.0663	22	C8H8N3O+
163.0741	12	C8H9N3O+
164.082	3	C8H10N3O+
166.0612	4	C7H8N3O2+
167.0576	3	C8H9NO3+
198.0878	8	C8H12N3O3+
