Mass spectrum: SR271425; LC-ESI-QFT; MS2; CE: 30; R=17500; [M+H]+
Name: SR271425
Name: Formamide, N-((1-((2-(diethylamino)ethyl)amino)-7-methoxy-9-oxo-9H-thioxanthen-4-yl)methyl)-
Name: N-[[1-[2-(diethylamino)ethylamino]-7-methoxy-9-oxothioxanthen-4-yl]methyl]formamide
Formula: C22H27N3O3S
Exact mass: 413.1773
SMILES: CCN(CC)CCNC1=C2C(=O)C3=C(SC2=C(CNC=O)C=C1)C=CC(OC)=C3
InChI: InChI=1S/C22H27N3O3S/c1-4-25(5-2)11-10-24-18-8-6-15(13-23-14-26)22-20(18)21(27)17-12-16(28-3)7-9-19(17)29-22/h6-9,12,14,24H,4-5,10-11,13H2,1-3H3,(H,23,26)
Instrument: Q Exactive Orbitrap (Thermo Scientific)
Instrument type: LC-ESI-QFT
Ms type: MS2
Ion mode: POSITIVE
Ionization: ESI
Fragmentation mode: HCD
Collision energy: 30
Resolution: 17500
Column name: Acquity BEH C18 1.7um, 2.1x150mm (Waters)
Retention time: 14.230 min
Base peak: 79.0211
Precursor m/z: 414.1846
Precursor type: [M+H]+
Precursor intensity: 17465094
m/z	relative intensity	assigned
72.0807	38	C4H10N+
86.0965	1	C5H12N+
100.1119	999	C6H14N+
284.0736	2	C16H14NO2S+
296.0738	71	C17H14NO2S+
341.0953	13	C18H17N2O3S+
369.1632	1	C21H25N2O2S+
414.1847	4	C22H28N3O3S+
