Mass spectrum: 4-Methylumbelliferone; LC-ESI-QFT; MS2; CE: 60; R=17500; [M+H]+
Name: 4-Methylumbelliferone
Name: 7-hydroxy-4-methylchromen-2-one
Formula: C10H8O3
Exact mass: 176.0473
SMILES: CC1=CC(=O)OC2=C1C=CC(O)=C2
InChI: InChI=1S/C10H8O3/c1-6-4-10(12)13-9-5-7(11)2-3-8(6)9/h2-5,11H,1H3
Instrument: Q Exactive Orbitrap (Thermo Scientific)
Instrument type: LC-ESI-QFT
Ms type: MS2
Ion mode: POSITIVE
Ionization: ESI
Fragmentation mode: HCD
Collision energy: 60
Resolution: 17500
Column name: Acquity BEH C18 1.7um, 2.1x150mm (Waters)
Retention time: 14.071 min
Base peak: 79.0211
Precursor m/z: 177.0546
Precursor type: [M+H]+
Precursor intensity: 3237623.75
m/z	relative intensity	assigned
51.023	3	C4H3+
53.0386	26	C4H5+
55.0179	69	C3H3O+
67.0177	2	C4H3O+
68.9971	139	C3HO2+
77.0384	10	C6H5+
79.0542	247	C6H7+
81.0699	93	C6H9+
91.0543	128	C7H7+
93.0699	205	C7H9+
94.0416	3	C6H6O+
95.0492	78	C6H7O+
102.0463	2	C8H6+
103.0543	302	C8H7+
105.0699	666	C8H9+
107.0492	40	C7H7O+
109.0648	3	C7H9O+
115.0542	80	C9H7+
116.062	2	C9H8+
118.0413	2	C8H6O+
121.0648	706	C8H9O+
131.0493	43	C9H7O+
132.057	14	C9H8O+
133.0648	67	C9H9O+
134.0365	4	C8H6O2+
135.0441	6	C8H7O2+
137.0234	5	C7H5O3+
149.0598	56	C9H9O2+
177.0547	999	C10H9O3+
