Mass spectrum: Azathioprine; LC-ESI-QFT; MS2; CE: 90; R=17500; [M+H]+
Name: Azathioprine
Name: 6-(3-methyl-5-nitroimidazol-4-yl)sulfanyl-7H-purine
Formula: C9H7N7O2S
Exact mass: 277.0382
SMILES: CN1C=NC(=C1SC1=NC=NC2=C1NC=N2)[N+]([O-])=O
InChI: InChI=1S/C9H7N7O2S/c1-15-4-14-7(16(17)18)9(15)19-8-5-6(11-2-10-5)12-3-13-8/h2-4H,1H3,(H,10,11,12,13)
Instrument: Q Exactive Orbitrap (Thermo Scientific)
Instrument type: LC-ESI-QFT
Ms type: MS2
Ion mode: POSITIVE
Ionization: ESI
Fragmentation mode: HCD
Collision energy: 90
Resolution: 17500
Column name: Acquity BEH C18 1.7um, 2.1x150mm (Waters)
Retention time: 10.727 min
Base peak: 79.0212
Precursor m/z: 278.0455
Precursor type: [M+H]+
Precursor intensity: 3590241.46875
m/z	relative intensity	assigned
52.0183	11	C3H2N+
54.0213	71	C2H2N2+
54.0338	80	C3H4N+
57.9746	457	CNS+
58.0288	27	C2H4NO+
58.995	120	C2H3S+
59.9903	17	CH2NS+
61.0107	27	C2H5S+
65.0134	50	C3HN2+
66.0212	80	C3H2N2+
67.0291	999	C3H3N2+
69.0083	280	C2HN2O+
69.0447	371	C3H5N2+
70.04	60	C2H4N3+
71.9902	19	C2H2NS+
72.9854	8	CHN2S+
72.9981	84	C2H3NS+
74.0059	851	C2H4NS+
79.0292	32	C4H3N2+
81.0322	164	C3H3N3+
81.0448	356	C4H5N2+
84.9855	380	C2HN2S+
86.0059	271	C3H4NS+
92.0243	271	C4H2N3+
94.04	120	C4H4N3+
97.9933	62	C3H2N2S+
100.9803	13	C2HN2OS+
106.04	60	C5H4N3+
108.0194	24	C4H2N3O+
108.0431	106	C4H4N4+
109.027	44	C4H3N3O+
111.0012	54	C4H3N2S+
113.0168	334	C4H5N2S+
118.04	99	C6H4N3+
119.0353	969	C5H3N4+
120.0431	210	C5H4N4+
120.0557	21	C6H6N3+
121.0509	262	C5H5N4+
124.0506	197	C5H6N3O+
125.0043	200	C4H3N3S+
131.0353	14	C6H3N4+
132.0432	54	C6H4N4+
133.0513	44	C6H5N4+
134.0587	148	C6H6N4+
135.0304	18	C5H3N4O+
135.9966	93	C5H2N3S+
136.0378	49	C5H4N4O+
137.0043	14	C5H3N3S+
137.0458	104	C5H5N4O+
138.0123	33	C5H4N3S+
142.007	19	C4H4N3OS+
145.051	235	C7H5N4+
146.0462	171	C6H4N5+
147.0665	37	C7H7N4+
149.0043	84	C6H3N3S+
151.02	21	C6H5N3S+
152.0151	295	C5H4N4S+
152.0329	128	C5H4N4O2+
153.023	37	C5H5N4S+
158.0589	50	C8H6N4+
159.054	113	C7H5N5+
160.0617	64	C7H6N5+
163.0076	19	C6H3N4S+
164.0152	472	C6H4N4S+
165.0231	191	C6H5N4S+
170.0464	30	C8H4N5+
172.0618	360	C8H6N5+
173.07	12	C8H7N5+
174.0776	46	C8H8N5+
176.0154	132	C7H4N4S+
177.023	315	C7H5N4S+
181.0181	23	C6H5N4OS+
187.0729	30	C8H7N6+
188.015	13	C8H4N4S+
198.0656	22	C9H6N6+
199.0727	79	C9H7N6+
204.034	487	C8H6N5S+
231.0453	40	C9H7N6S+
