Mass spectrum: Pargyline; LC-ESI-QFT; MS2; CE: 75; R=17500; [M+H]+
Name: Pargyline
Name: N-benzyl-N-methylprop-2-yn-1-amine
Formula: C11H13N
Exact mass: 159.1048
SMILES: CN(CC#C)CC1=CC=CC=C1
InChI: InChI=1S/C11H13N/c1-3-9-12(2)10-11-7-5-4-6-8-11/h1,4-8H,9-10H2,2H3
Instrument: Q Exactive Orbitrap (Thermo Scientific)
Instrument type: LC-ESI-QFT
Ms type: MS2
Ion mode: POSITIVE
Ionization: ESI
Fragmentation mode: HCD
Collision energy: 75
Resolution: 17500
Column name: Acquity BEH C18 1.7um, 2.1x150mm (Waters)
Retention time: 8.888 min
Base peak: 79.0211
Precursor m/z: 160.1121
Precursor type: [M+H]+
Precursor intensity: 3713436.34375
m/z	relative intensity	assigned
56.0495	9	C3H6N+
65.0386	36	C5H5+
68.0495	12	C4H6N+
91.0543	999	C7H7+
103.0543	2	C8H7+
105.0698	1	C8H9+
115.0542	2	C9H7+
116.0625	2	C9H8+
117.0699	5	C9H9+
118.0657	2	C8H8N+
128.0622	45	C10H8+
129.0699	34	C10H9+
130.0652	6	C9H8N+
131.0731	3	C9H9N+
131.0855	3	C10H11+
144.081	19	C10H10N+
145.0888	6	C10H11N+
160.1123	6	C11H14N+
