Mass spectrum: 1,5-Naphthalenediamine; LC-ESI-QFT; MS2; CE: 45; R=17500; [M+H]+
Name: 1,5-Naphthalenediamine
Name: naphthalene-1,5-diamine
Formula: C10H10N2
Exact mass: 158.0844
SMILES: NC1=CC=CC2=C(N)C=CC=C12
InChI: InChI=1S/C10H10N2/c11-9-5-1-3-7-8(9)4-2-6-10(7)12/h1-6H,11-12H2
Instrument: Q Exactive Orbitrap (Thermo Scientific)
Instrument type: LC-ESI-QFT
Ms type: MS2
Ion mode: POSITIVE
Ionization: ESI
Fragmentation mode: HCD
Collision energy: 45
Resolution: 17500
Column name: Acquity BEH C18 1.7um, 2.1x150mm (Waters)
Retention time: 2.581 min
Base peak: 79.0211
Precursor m/z: 159.0917
Precursor type: [M+H]+
Precursor intensity: 7306039.0625
m/z	relative intensity	assigned
58.0652	1	C3H8N+
91.0539	1	C7H7+
93.0574	2	C6H7N+
115.0542	11	C9H7+
118.0651	19	C8H8N+
128.0494	1	C9H6N+
132.0807	27	C9H10N+
142.0652	29	C10H8N+
143.073	110	C10H9N+
158.084	82	C10H10N2+
159.0917	999	C10H11N2+
