Mass spectrum: 2-Amino-5-(5-nitro-2-furyl)-1,3,4-oxadiazole; LC-ESI-QFT; MS2; CE: 30; R=17500; [M-H]-
Name: 2-Amino-5-(5-nitro-2-furyl)-1,3,4-oxadiazole
Name: 5-(5-nitrofuran-2-yl)-1,3,4-oxadiazol-2-amine
Formula: C6H4N4O4
Exact mass: 196.0233
SMILES: NC1=NN=C(O1)C1=CC=C(O1)[N+]([O-])=O
InChI: InChI=1S/C6H4N4O4/c7-6-9-8-5(14-6)3-1-2-4(13-3)10(11)12/h1-2H,(H2,7,9)
Instrument: Q Exactive Orbitrap (Thermo Scientific)
Instrument type: LC-ESI-QFT
Ms type: MS2
Ion mode: NEGATIVE
Ionization: ESI
Fragmentation mode: HCD
Collision energy: 30
Resolution: 17500
Column name: Acquity BEH C18 1.7um, 2.1x150mm (Waters)
Retention time: 11.157 min
Base peak: 195.016
Precursor m/z: 195.016
Precursor type: [M-H]-
Precursor intensity: 2694851.111816
m/z	relative intensity	assigned
50.0036	14	C3N-
64.0193	159	C4H2N-
65.0033	94	C4HO-
65.0145	8	C3HN2-
65.9986	11	C3NO-
68.9982	9	C3HO2-
77.0033	93	C5HO-
77.0145	26	C4HN2-
77.9986	7	C4NO-
79.9905	12	C4O2-
80.0143	35	C4H2NO-
82.0047	999	C2N3O-
89.9986	9	C5NO-
92.0142	103	C5H2NO-
92.9983	7	C5HO2-
93.0094	11	C4HN2O-
105.0094	57	C5HN2O-
105.9937	12	C5NO2-
108.0092	14	C5H2NO2-
109.0169	8	C5H3NO2-
112.0041	23	C4H2NO3-
120.0204	20	C5H2N3O-
121.0281	118	C5H3N3O-
124.004	170	C5H2NO3-
136.0041	7	C6H2NO3-
137.0247	13	C5H3N3O2-
148.0153	148	C6H2N3O2-
165.0179	16	C6H3N3O3-
195.0161	42	C6H3N4O4-
