Mass spectrum: Diuron; LC-ESI-QFT; MS2; CE: 90; R=17500; [M+H]+
Name: Diuron
Name: 3-(3,4-dichlorophenyl)-1,1-dimethylurea
Formula: C9H10Cl2N2O
Exact mass: 232.0170
SMILES: CN(C)C(=O)NC1=CC(Cl)=C(Cl)C=C1
InChI: InChI=1S/C9H10Cl2N2O/c1-13(2)9(14)12-6-3-4-7(10)8(11)5-6/h3-5H,1-2H3,(H,12,14)
Instrument: Q Exactive Orbitrap (Thermo Scientific)
Instrument type: LC-ESI-QFT
Ms type: MS2
Ion mode: POSITIVE
Ionization: ESI
Fragmentation mode: HCD
Collision energy: 90
Resolution: 17500
Column name: Acquity BEH C18 1.7um, 2.1x150mm (Waters)
Retention time: 16.819 min
Base peak: 79.0212
Precursor m/z: 233.0243
Precursor type: [M+H]+
Precursor intensity: 5764646.46875
m/z	relative intensity	assigned
56.0131	28	C2H2NO+
72.0443	999	C3H6NO+
123.9948	4	C6H3ClN+
125.0027	21	C6H4ClN+
132.9606	46	C5H3Cl2+
152.9974	4	C7H4ClNO+
159.9715	39	C6H4Cl2N+
172.9669	5	C6H3Cl2N2+
