Mass spectrum: Cyanazine; LC-ESI-QFT; MS2; CE: 15; R=17500; [M+H]+
Name: Cyanazine
Name: 2-[[4-chloro-6-(ethylamino)-1,3,5-triazin-2-yl]amino]-2-methylpropanenitrile
Formula: C9H13ClN6
Exact mass: 240.0890
SMILES: CCNC1=NC(NC(C)(C)C#N)=NC(Cl)=N1
InChI: InChI=1S/C9H13ClN6/c1-4-12-7-13-6(10)14-8(15-7)16-9(2,3)5-11/h4H2,1-3H3,(H2,12,13,14,15,16)
Instrument: Q Exactive Orbitrap (Thermo Scientific)
Instrument type: LC-ESI-QFT
Ms type: MS2
Ion mode: POSITIVE
Ionization: ESI
Fragmentation mode: HCD
Collision energy: 15
Resolution: 17500
Column name: Acquity BEH C18 1.7um, 2.1x150mm (Waters)
Retention time: 14.784 min
Base peak: 79.0211
Precursor m/z: 241.0963
Precursor type: [M+H]+
Precursor intensity: 6031474.0625
m/z	relative intensity	assigned
72.0443	2	ClH9N2+
163.0978	3	C8H11N4+
174.0541	6	C5H9ClN5+
205.1197	11	C9H13N6+
214.0853	257	C8H13ClN5+
241.0962	999	C9H14ClN6+
