Mass spectrum: Betamethasone valerate; LC-ESI-QFT; MS2; CE: 75; R=17500; [M+H]+
Name: Betamethasone valerate
Name: [(8S,9R,10S,11S,13S,14S,16S,17R)-9-fluoro-11-hydroxy-17-(2-hydroxyacetyl)-10,13,16-trimethyl-3-oxo-6,7,8,11,12,14,15,16-octahydrocyclopenta[a]phenanthren-17-yl] pentanoate
Formula: C27H37FO6
Exact mass: 476.2574
SMILES: CCCCC(=O)O[C@@]1([C@@H](C)C[C@H]2[C@@H]3CCC4=CC(=O)C=C[C@]4(C)[C@@]3(F)[C@@H](O)C[C@]12C)C(=O)CO
InChI: InChI=1S/C27H37FO6/c1-5-6-7-23(33)34-27(22(32)15-29)16(2)12-20-19-9-8-17-13-18(30)10-11-24(17,3)26(19,28)21(31)14-25(20,27)4/h10-11,13,16,19-21,29,31H,5-9,12,14-15H2,1-4H3/t16-,19-,20-,21-,24-,25-,26-,27-/m0/s1
Instrument: Q Exactive Orbitrap (Thermo Scientific)
Instrument type: LC-ESI-QFT
Ms type: MS2
Ion mode: POSITIVE
Ionization: ESI
Fragmentation mode: HCD
Collision energy: 75
Resolution: 17500
Column name: Acquity BEH C18 1.7um, 2.1x150mm (Waters)
Retention time: 18.603 min
Base peak: 79.0211
Precursor m/z: 477.2647
Precursor type: [M+H]+
Precursor intensity: 4285480.0625
m/z	relative intensity	assigned
53.0386	88	C4H5+
55.0543	151	C4H7+
57.0698	154	C4H9+
65.0386	93	C5H5+
67.0541	332	C5H7+
69.0334	69	C4H5O+
69.0697	47	C5H9+
77.0384	36	C6H5+
79.0542	308	C6H7+
81.0699	102	C6H9+
91.0542	999	C7H7+
93.0699	293	C7H9+
95.049	198	C6H7O+
95.0856	224	C7H11+
103.0542	70	C8H7+
105.0699	632	C8H9+
107.0492	106	C7H7O+
107.0855	250	C8H11+
109.0648	52	C7H9O+
109.101	98	C8H13+
115.0543	303	C9H7+
116.0618	56	C9H8+
117.0699	198	C9H9+
119.0856	545	C9H11+
121.0648	588	C8H9O+
121.1013	42	C9H13+
123.0804	88	C8H11O+
128.062	482	C10H8+
129.0698	184	C10H9+
130.0776	71	C10H10+
131.049	60	C9H7O+
131.0856	194	C10H11+
132.057	138	C9H8O+
133.0647	46	C9H9O+
133.1014	104	C10H13+
135.0804	80	C9H11O+
141.0699	302	C11H9+
142.0777	151	C11H10+
143.0856	234	C11H11+
144.0571	119	C10H8O+
145.0648	241	C10H9O+
145.101	106	C11H13+
146.0725	77	C10H10O+
147.0804	523	C10H11O+
152.062	60	C12H8+
153.0698	90	C12H9+
155.0855	145	C12H11+
156.0931	39	C12H12+
157.0648	35	C11H9O+
158.0728	213	C11H10O+
159.0803	322	C11H11O+
161.0963	59	C11H13O+
165.0697	193	C13H9+
166.0776	59	C13H10+
167.0853	51	C13H11+
168.057	37	C12H8O+
169.0645	91	C12H9O+
170.0729	62	C12H10O+
171.0804	278	C12H11O+
172.0884	36	C12H12O+
173.096	111	C12H13O+
178.0772	151	C14H10+
179.0853	135	C14H11+
180.0933	88	C14H12+
181.0647	81	C13H9O+
181.1009	36	C14H13+
182.0724	61	C13H10O+
183.0805	84	C13H11O+
185.0962	121	C13H13O+
189.0702	70	C15H9+
190.0776	88	C15H10+
191.0854	126	C15H11+
192.0931	95	C15H12+
193.1012	83	C15H13+
194.073	52	C14H10O+
195.0804	101	C14H11O+
196.0879	67	C14H12O+
197.0961	41	C14H13O+
202.0777	56	C16H10+
203.0852	69	C16H11+
204.0936	56	C16H12+
205.065	35	C15H9O+
205.101	103	C16H13+
206.0723	46	C15H10O+
207.0803	82	C15H11O+
207.1161	44	C16H15+
208.0884	179	C15H12O+
209.096	114	C15H13O+
215.0852	111	C17H11+
216.0932	110	C17H12+
217.1008	45	C17H13+
218.0731	36	C16H10O+
219.0803	136	C16H11O+
219.1172	81	C17H15+
220.0875	55	C16H12O+
221.0964	219	C16H13O+
222.104	60	C16H14O+
223.1114	45	C16H15O+
228.0931	56	C18H12+
229.1012	118	C18H13+
230.1088	83	C18H14+
231.0805	79	C17H11O+
231.1169	61	C18H15+
232.0882	109	C17H12O+
233.0966	205	C17H13O+
234.104	117	C17H14O+
235.1121	106	C17H15O+
243.1162	49	C19H15+
244.0877	30	C18H12O+
245.0965	59	C18H13O+
246.1036	82	C18H14O+
247.1117	149	C18H15O+
248.1195	94	C18H16O+
249.1272	50	C18H17O+
259.1113	94	C19H15O+
261.1278	85	C19H17O+
263.1432	72	C19H19O+
