Mass spectrum: Dipropyl 2,5-pyridinedicarboxylate; LC-ESI-QFT; MS2; CE: 60; R=17500; [M+H]+
Name: Dipropyl 2,5-pyridinedicarboxylate
Name: Dipropyl isocinchomeronate
Name: dipropyl pyridine-2,5-dicarboxylate
Formula: C13H17NO4
Exact mass: 251.1158
SMILES: CCCOC(=O)C1=CC=C(N=C1)C(=O)OCCC
InChI: InChI=1S/C13H17NO4/c1-3-7-17-12(15)10-5-6-11(14-9-10)13(16)18-8-4-2/h5-6,9H,3-4,7-8H2,1-2H3
Instrument: Q Exactive Orbitrap (Thermo Scientific)
Instrument type: LC-ESI-QFT
Ms type: MS2
Ion mode: POSITIVE
Ionization: ESI
Fragmentation mode: HCD
Collision energy: 60
Resolution: 17500
Column name: Acquity BEH C18 1.7um, 2.1x150mm (Waters)
Retention time: 17.731 min
Base peak: 79.0212
Precursor m/z: 252.123
Precursor type: [M+H]+
Precursor intensity: 35697402.5
m/z	relative intensity	assigned
53.0022	16	C3HO+
53.9974	3	C2NO+
67.0177	1	C4H3O+
67.9892	2	C3O2+
78.0338	40	C5H4N+
84.0444	7	C4H6NO+
94.0287	5	C5H4NO+
95.0367	3	C5H5NO+
96.0444	1	C5H6NO+
109.0158	1	C5H3NO2+
112.0393	67	C5H6NO2+
122.0236	142	C6H4NO2+
124.0391	1	C6H6NO2+
140.0341	664	C6H6NO3+
154.0497	11	C7H8NO3+
164.0704	1	C9H10NO2+
168.0291	80	C7H6NO4+
182.0811	999	C9H12NO3+
196.0967	10	C10H14NO3+
210.076	23	C10H12NO4+
217.0886	1	C13H13O3+
