Mass spectrum: Finasteride; LC-ESI-QFT; MS2; CE: 90; R=17500; [M+H]+
Name: Finasteride
Name: (1S,3aS,3bS,5aR,9aR,9bS,11aS)-N-tert-butyl-9a,11a-dimethyl-7-oxo-1,2,3,3a,3b,4,5,5a,6,9b,10,11-dodecahydroindeno[5,4-f]quinoline-1-carboxamide
Formula: C23H36N2O2
Exact mass: 372.2777
SMILES: CC(C)(C)NC(=O)[C@H]1CC[C@H]2[C@@H]3CC[C@H]4NC(=O)C=C[C@]4(C)[C@H]3CC[C@]12C
InChI: InChI=1S/C23H36N2O2/c1-21(2,3)25-20(27)17-8-7-15-14-6-9-18-23(5,13-11-19(26)24-18)16(14)10-12-22(15,17)4/h11,13-18H,6-10,12H2,1-5H3,(H,24,26)(H,25,27)/t14-,15-,16-,17+,18+,22-,23+/m0/s1
Instrument: Q Exactive Orbitrap (Thermo Scientific)
Instrument type: LC-ESI-QFT
Ms type: MS2
Ion mode: POSITIVE
Ionization: ESI
Fragmentation mode: HCD
Collision energy: 90
Resolution: 17500
Column name: Acquity BEH C18 1.7um, 2.1x150mm (Waters)
Retention time: 17.671 min
Base peak: 79.0212
Precursor m/z: 373.285
Precursor type: [M+H]+
Precursor intensity: 17949028.5
m/z	relative intensity	assigned
53.0022	80	C3HO+
53.0386	45	C4H5+
53.9975	12	C2NO+
55.0179	86	C3H3O+
55.0542	167	C4H7+
56.0495	40	C3H6N+
57.0699	999	C4H9+
58.0651	5	C3H8N+
65.0385	39	C5H5+
67.0542	475	C5H7+
68.0494	24	C4H6N+
69.0334	697	C4H5O+
70.0651	57	C4H8N+
71.0491	5	C4H7O+
72.0443	135	C3H6NO+
72.0807	7	C4H10N+
74.0963	3	C4H12N+
77.0384	13	C6H5+
79.0542	395	C6H7+
80.0494	16	C5H6N+
81.0698	389	C6H9+
82.0651	28	C5H8N+
83.0491	6	C5H7O+
83.0855	27	C6H11+
84.0444	5	C4H6NO+
84.0807	8	C5H10N+
86.06	24	C4H8NO+
91.0542	495	C7H7+
93.0699	418	C7H9+
94.0414	3	C6H6O+
94.0652	24	C6H8N+
95.0491	95	C6H7O+
95.0855	562	C7H11+
96.0443	95	C5H6NO+
96.0807	22	C6H10N+
97.0648	6	C6H9O+
97.1012	3	C7H13+
98.06	41	C5H8NO+
103.0541	20	C8H7+
104.0495	10	C7H6N+
105.0699	445	C8H9+
106.065	11	C7H8N+
107.0855	157	C8H11+
108.0443	7	C6H6NO+
108.0807	32	C7H10N+
109.0522	44	C6H7NO+
109.0647	24	C7H9O+
109.1012	35	C8H13+
110.06	94	C6H8NO+
110.0964	13	C7H12N+
112.0757	3	C6H10NO+
115.0542	26	C9H7+
116.062	12	C9H8+
117.0698	106	C9H9+
118.0775	3	C9H10+
119.0855	231	C9H11+
120.0808	15	C8H10N+
121.0648	22	C8H9O+
121.1011	49	C9H13+
122.06	77	C7H8NO+
122.0963	8	C8H12N+
123.0677	9	C7H9NO+
123.0805	4	C8H11O+
123.1167	2	C9H15+
124.0757	23	C7H10NO+
124.1121	1	C8H14N+
126.0913	6	C7H12NO+
128.062	50	C10H8+
129.0698	74	C10H9+
130.0776	28	C10H10+
131.0855	162	C10H11+
132.0808	10	C9H10N+
132.0936	5	C10H12+
133.0648	9	C9H9O+
133.1011	103	C10H13+
134.0599	1	C8H8NO+
134.0964	8	C9H12N+
135.0803	6	C9H11O+
135.1167	17	C10H15+
136.0758	11	C8H10NO+
136.1122	4	C9H14N+
138.0911	5	C8H12NO+
141.0697	27	C11H9+
142.0777	35	C11H10+
143.0855	82	C11H11+
144.0807	6	C10H10N+
144.0932	11	C11H12+
145.1011	146	C11H13+
146.0725	4	C10H10O+
146.0963	8	C10H12N+
146.1091	5	C11H14+
147.0802	8	C10H11O+
147.1167	60	C11H15+
148.0758	4	C9H10NO+
148.1121	4	C10H14N+
149.0959	4	C10H13O+
149.1323	4	C11H17+
150.0913	7	C9H12NO+
152.1068	2	C9H14NO+
153.0696	8	C12H9+
154.0777	9	C12H10+
155.0854	46	C12H11+
156.0931	12	C12H12+
157.1011	46	C12H13+
158.0968	8	C11H12N+
158.1089	4	C12H14+
159.0803	7	C11H11O+
159.1167	47	C12H15+
160.112	4	C11H14N+
161.096	10	C11H13O+
161.1322	13	C12H17+
165.0699	15	C13H9+
166.0782	7	C13H10+
167.0856	17	C13H11+
168.0931	7	C13H12+
169.1011	22	C13H13+
170.1089	6	C13H14+
171.0805	3	C12H11O+
171.1168	15	C13H15+
172.112	4	C12H14N+
172.1249	3	C13H16+
173.0961	7	C12H13O+
173.1325	21	C13H17+
174.1278	2	C12H16N+
175.1122	4	C12H15O+
175.1479	12	C13H19+
179.0854	6	C14H11+
180.0935	7	C14H12+
181.101	12	C14H13+
182.1089	10	C14H14+
183.1169	10	C14H15+
185.0959	3	C13H13O+
185.1322	22	C14H17+
187.112	2	C13H15O+
187.1481	28	C14H19+
189.1637	2	C14H21+
193.1009	5	C15H13+
194.1091	4	C15H14+
195.1169	7	C15H15+
196.1243	3	C15H16+
197.1324	7	C15H17+
199.1119	1	C14H15O+
199.1477	2	C15H19+
207.117	5	C16H15+
209.1319	3	C16H17+
211.148	1	C16H19+
213.163	2	C16H21+
215.1431	3	C15H19O+
220.1697	2	C14H22NO+
240.1745	13	C17H22N+
299.2121	8	C19H27N2O+
301.1909	17	C18H25N2O2+
357.2543	8	C22H33N2O2+
