Mass spectrum: Bensulide; LC-ESI-QFT; MS2; CE: 45; R=17500; [M-H]-
Name: Bensulide
Name: N-[2-di(propan-2-yloxy)phosphinothioylsulfanylethyl]benzenesulfonamide
Formula: C14H24NO4PS3
Exact mass: 397.0605
SMILES: CC(C)OP(=S)(OC(C)C)SCCNS(=O)(=O)C1=CC=CC=C1
InChI: InChI=1S/C14H24NO4PS3/c1-12(2)18-20(21,19-13(3)4)22-11-10-15-23(16,17)14-8-6-5-7-9-14/h5-9,12-13,15H,10-11H2,1-4H3
Instrument: Q Exactive Orbitrap (Thermo Scientific)
Instrument type: LC-ESI-QFT
Ms type: MS2
Ion mode: NEGATIVE
Ionization: ESI
Fragmentation mode: HCD
Collision energy: 45
Resolution: 17500
Column name: Acquity BEH C18 1.7um, 2.1x150mm (Waters)
Retention time: 18.203 min
Base peak: 213.0177
Precursor m/z: 396.0532
Precursor type: [M-H]-
Precursor intensity: 1048378.014648
m/z	relative intensity	assigned
110.9134	999	OPS2-
170.9711	225	C3H8O2PS2-
213.0179	241	C6H14O2PS2-
