Mass spectrum: Ethionamide; LC-ESI-QFT; MS2; CE: 15; R=17500; [M+H]+
Name: Ethionamide
Name: 2-ethylpyridine-4-carboximidothioic acid
Formula: C8H10N2S
Exact mass: 166.0565
SMILES: CCC1=NC=CC(=C1)C(N)=S
InChI: InChI=1S/C8H10N2S/c1-2-7-5-6(8(9)11)3-4-10-7/h3-5H,2H2,1H3,(H2,9,11)
Instrument: Q Exactive Orbitrap (Thermo Scientific)
Instrument type: LC-ESI-QFT
Ms type: MS2
Ion mode: POSITIVE
Ionization: ESI
Fragmentation mode: HCD
Collision energy: 15
Resolution: 17500
Column name: Acquity BEH C18 1.7um, 2.1x150mm (Waters)
Retention time: 6.589 min
Base peak: 79.0212
Precursor m/z: 167.0637
Precursor type: [M+H]+
Precursor intensity: 10902179.75
m/z	relative intensity	assigned
61.0106	2	C2H5S+
107.0731	1	C7H9N+
133.0761	3	C8H9N2+
134.0839	14	C8H10N2+
140.0528	80	C7H10NS+
150.0374	1	C8H8NS+
167.0638	999	C8H11N2S+
