Mass spectrum: 2-Amino-5-(5-nitro-2-furyl)-1,3,4-oxadiazole; LC-ESI-QFT; MS2; CE: 30; R=17500; [M+H]+
Name: 2-Amino-5-(5-nitro-2-furyl)-1,3,4-oxadiazole
Name: 5-(5-nitrofuran-2-yl)-1,3,4-oxadiazol-2-amine
Formula: C6H4N4O4
Exact mass: 196.0233
SMILES: NC1=NN=C(O1)C1=CC=C(O1)[N+]([O-])=O
InChI: InChI=1S/C6H4N4O4/c7-6-9-8-5(14-6)3-1-2-4(13-3)10(11)12/h1-2H,(H2,7,9)
Instrument: Q Exactive Orbitrap (Thermo Scientific)
Instrument type: LC-ESI-QFT
Ms type: MS2
Ion mode: POSITIVE
Ionization: ESI
Fragmentation mode: HCD
Collision energy: 30
Resolution: 17500
Column name: Acquity BEH C18 1.7um, 2.1x150mm (Waters)
Retention time: 11.208 min
Base peak: 79.0211
Precursor m/z: 197.0305
Precursor type: [M+H]+
Precursor intensity: 764415.875
m/z	relative intensity	assigned
53.0021	5	C3HO+
54.0101	7	C3H2O+
54.0339	31	C3H4N+
55.018	5	C3H3O+
56.013	6	C2H2NO+
67.0415	5	C4H5N+
68.0256	6	C4H4O+
68.0368	41	C3H4N2+
71.0127	9	C3H3O2+
82.0049	518	C4H2O2+
94.0288	50	C5H4NO+
96.0206	13	C5H4O2+
108.0318	72	C5H4N2O+
111.0428	18	C4H5N3O+
123.0424	18	C5H5N3O+
134.0113	5	C6H2N2O2+
137.0119	6	C6H3NO3+
151.0377	72	C6H5N3O2+
154.0247	58	C5H4N3O3+
169.0358	11	C5H5N4O3+
180.004	182	C6H2N3O4+
197.0306	999	C6H5N4O4+
