Mass spectrum: SB281832; LC-ESI-QFT; MS2; CE: 90; R=17500; [M+H]+
Name: SB281832
Name: 2-[4-(4-fluorophenyl)-5-(2-phenoxypyrimidin-4-yl)imidazol-1-yl]propane-1,3-diol
Formula: C22H19FN4O3
Exact mass: 406.1441
SMILES: OCC(CO)N1C=NC(=C1C1=CC=NC(OC2=CC=CC=C2)=N1)C1=CC=C(F)C=C1
InChI: InChI=1S/C22H19FN4O3/c23-16-8-6-15(7-9-16)20-21(27(14-25-20)17(12-28)13-29)19-10-11-24-22(26-19)30-18-4-2-1-3-5-18/h1-11,14,17,28-29H,12-13H2
Instrument: Q Exactive Orbitrap (Thermo Scientific)
Instrument type: LC-ESI-QFT
Ms type: MS2
Ion mode: POSITIVE
Ionization: ESI
Fragmentation mode: HCD
Collision energy: 90
Resolution: 17500
Column name: Acquity BEH C18 1.7um, 2.1x150mm (Waters)
Retention time: 15.228 min
Base peak: 79.0211
Precursor m/z: 407.1514
Precursor type: [M+H]+
Precursor intensity: 18289080.625
m/z	relative intensity	assigned
50.0151	2	C4H2+
51.0229	5	C4H3+
52.0183	2	C3H2N+
53.0022	26	C3HO+
53.0386	147	C4H5+
54.0339	5	C3H4N+
55.0179	9	C3H3O+
57.0135	1	C3H2F+
64.0181	5	C4H2N+
66.0337	3	C4H4N+
67.029	2	C3H3N2+
68.013	1	C3H2NO+
68.9972	1	C3HO2+
70.0287	1	C3H4NO+
71.024	1	C2H3N2O+
77.0385	69	C6H5+
78.0463	2	C6H6+
81.0335	17	C5H5O+
81.0447	22	C4H5N2+
82.0287	4	C4H4NO+
91.0542	70	C7H7+
92.0494	3	C6H6N+
92.0576	9	C2H8N2O2+
93.0449	3	C5H5N2+
94.0414	12	C6H6O+
95.0491	433	C6H7O+
97.0448	9	C6H6F+
103.0543	5	C8H7+
104.0495	171	C7H6N+
105.0447	157	C6H5N2+
106.0402	3	C5H4N3+
107.0291	12	C7H4F+
109.0397	11	C5H5N2O+
109.0448	23	C7H6F+
109.0647	2	C7H9O+
115.0542	119	C9H7+
116.0495	23	C8H6N+
116.0621	5	C9H8+
117.0573	17	C8H7N+
117.0654	3	C4H9N2O2+
118.0399	9	C6H4N3+
118.0651	22	C8H8N+
119.073	4	C8H9N+
120.0444	10	C7H6NO+
120.0764	3	C3H10N3O2+
121.0448	2	C8H6F+
122.04	31	C7H5FN+
123.0352	3	C6H4FN2+
124.0557	6	C7H7FN+
128.0495	35	C9H6N+
128.062	28	C10H8+
129.0447	6	C8H5N2+
129.0573	4	C9H7N+
129.0654	19	C5H9N2O2+
129.07	5	C10H9+
130.0651	28	C9H8N+
130.0733	5	C5H10N2O2+
131.0858	3	C10H11+
132.037	9	C9H5F+
132.0442	5	C3H5FN4O+
132.0886	1	C5H12N2O2+
133.0448	999	C9H6F+
134.04	59	C8H5FN+
134.0596	3	C3H7FN4O+
135.0429	1	C6H5N3O+
135.0479	8	C8H6FN+
136.0505	24	C6H6N3O+
136.0559	7	C8H7FN+
140.0494	70	C10H6N+
141.0447	28	C9H5N2+
142.0652	47	C10H8N+
143.0605	6	C9H7N2+
145.0651	5	C10H9O+
145.0759	1	C9H9N2+
146.0401	8	C9H5FN+
146.06	36	C9H8NO+
147.0355	1	C8H4FN2+
147.0552	4	C8H7N2O+
147.0806	3	C10H11O+
148.0557	4	C9H7FN+
148.0837	1	C5H12N2O3+
152.0506	14	C8H7FNO+
155.0603	25	C10H7N2+
156.0557	3	C9H6N3+
157.076	17	C10H9N2+
158.0401	277	C10H5FN+
159.0359	3	C9H4FN2+
159.0478	12	C10H6FN+
159.0553	12	C9H7N2O+
160.0557	160	C10H7FN+
160.0756	37	C10H10NO+
161.0402	5	C10H6FO+
161.0509	51	C9H6FN2+
163.0665	5	C9H8FN2+
164.0502	4	C9H7FNO+
165.0447	12	C11H5N2+
167.0604	22	C11H7N2+
168.0555	9	C10H6N3+
168.0681	40	C11H8N2+
169.076	61	C11H9N2+
170.0399	10	C11H5FN+
171.0482	4	C11H6FN+
171.0542	4	C10H7N2O+
172.0558	2	C11H7FN+
173.0508	9	C10H6FN2+
174.0585	1	C10H7FN2+
174.0913	1	C11H12NO+
175.0666	1	C10H8FN2+
176.0505	13	C10H7FNO+
178.0662	20	C10H9FNO+
182.0713	4	C11H8N3+
183.0793	2	C11H9N3+
184.0629	1	C11H8N2O+
184.0868	2	C11H10N3+
185.051	75	C11H6FN2+
185.0704	6	C11H9N2O+
186.0587	111	C11H7FN2+
187.0665	119	C11H8FN2+
188.0617	138	C10H7FN3+
189.0458	3	C10H6FN2O+
190.0656	2	C14H8N+
192.0555	3	C12H6N3+
192.0817	2	C11H11FNO+
193.0637	1	C12H7N3+
194.0712	8	C12H8N3+
195.0554	2	C12H7N2O+
197.0509	13	C12H6FN2+
198.046	4	C11H5FN3+
198.0586	1	C12H7FN2+
201.0459	1	C11H6FN2O+
203.0615	13	C11H8FN2O+
204.0567	2	C10H7FN3O+
207.056	4	C10H8FN2O2+
209.0761	2	C15H10F+
211.0541	5	C12H6FN3+
212.0618	78	C12H7FN3+
213.0467	8	C12H6FN2O+
213.0574	3	C16H7N+
213.0697	25	C12H8FN3+
214.0774	22	C12H9FN3+
216.0807	2	C16H10N+
217.0775	2	C12H10FN2O+
222.0459	2	C13H5FN3+
230.0724	3	C12H9FN3O+
234.0711	3	C16H9FN+
235.0792	18	C16H10FN+
236.0744	1	C15H9FN2+
236.0864	6	C16H11FN+
237.0805	1	C12H12FNO3+
238.0647	1	C13H7FN4+
239.0726	5	C13H8FN4+
242.0838	4	C17H10N2+
243.0916	1	C17H11N2+
257.0833	8	C13H10FN4O+
260.0742	3	C17H9FN2+
261.0826	4	C17H10FN2+
262.0902	3	C17H11FN2+
263.0981	6	C17H12FN2+
270.1016	1	C18H12N3+
273.0821	1	C18H10FN2+
288.0932	4	C18H11FN3+
290.1085	14	C18H13FN3+
