Mass spectrum: Zoalene; LC-ESI-QFT; MS2; CE: 60; R=17500; [M-H]-
Name: Zoalene
Name: Dinitolmide
Name: 2-methyl-3,5-dinitrobenzamide
Formula: C8H7N3O5
Exact mass: 225.0386
SMILES: CC1=C(C=C(C=C1C(N)=O)[N+]([O-])=O)[N+]([O-])=O
InChI: InChI=1S/C8H7N3O5/c1-4-6(8(9)12)2-5(10(13)14)3-7(4)11(15)16/h2-3H,1H3,(H2,9,12)
Instrument: Q Exactive Orbitrap (Thermo Scientific)
Instrument type: LC-ESI-QFT
Ms type: MS2
Ion mode: NEGATIVE
Ionization: ESI
Fragmentation mode: HCD
Collision energy: 60
Resolution: 17500
Column name: Acquity BEH C18 1.7um, 2.1x150mm (Waters)
Retention time: 12.504 min
Base peak: 224.0313
Precursor m/z: 224.0313
Precursor type: [M-H]-
Precursor intensity: 6653398.711426
m/z	relative intensity	assigned
72.9931	12	C2HO3-
77.0397	999	C6H5-
78.035	18	C5H4N-
88.0193	11	C6H2N-
105.0346	82	C7H5O-
109.0293	8	C6H5O2-
121.0294	8	C7H5O2-
135.0202	49	C6H3N2O2-
166.0143	46	C7H4NO4-
