Mass spectrum: N-Benzyladenine; LC-ESI-QFT; MS2; CE: 15; R=17500; [M-H]-
Name: N-Benzyladenine
Name: 6-Benzylaminopurine
Name: N-benzyl-7H-purin-6-amine
Formula: C12H11N5
Exact mass: 225.1014
SMILES: C(NC1=C2N=CN=C2N=CN1)C1=CC=CC=C1
InChI: InChI=1S/C12H11N5/c1-2-4-9(5-3-1)6-13-11-10-12(15-7-14-10)17-8-16-11/h1-5,7-8H,6H2,(H2,13,14,15,16,17)
Instrument: Q Exactive Orbitrap (Thermo Scientific)
Instrument type: LC-ESI-QFT
Ms type: MS2
Ion mode: NEGATIVE
Ionization: ESI
Fragmentation mode: HCD
Collision energy: 15
Resolution: 17500
Column name: Acquity BEH C18 1.7um, 2.1x150mm (Waters)
Retention time: 13.477 min
Base peak: 112.9857
Precursor m/z: 224.0942
Precursor type: [M-H]-
Precursor intensity: 1319622.383789
m/z	relative intensity	assigned
132.0316	2	C5H2N5-
133.0394	205	C5H3N5-
224.0942	999	C12H10N5-
