Mass spectrum: Surinabant; LC-ESI-QFT; MS2; CE: 90; R=17500; [M+H]+
Name: Surinabant
Name: 5-(4-bromophenyl)-1-(2,4-dichlorophenyl)-4-ethyl-N-piperidin-1-ylpyrazole-3-carboxamide
Formula: C23H23BrCl2N4O
Exact mass: 520.0432
SMILES: CCC1=C(N(N=C1C(=O)NN1CCCCC1)C1=CC=C(Cl)C=C1Cl)C1=CC=C(Br)C=C1
InChI: InChI=1S/C23H23BrCl2N4O/c1-2-18-21(23(31)28-29-12-4-3-5-13-29)27-30(20-11-10-17(25)14-19(20)26)22(18)15-6-8-16(24)9-7-15/h6-11,14H,2-5,12-13H2,1H3,(H,28,31)
Instrument: Q Exactive Orbitrap (Thermo Scientific)
Instrument type: LC-ESI-QFT
Ms type: MS2
Ion mode: POSITIVE
Ionization: ESI
Fragmentation mode: HCD
Collision energy: 90
Resolution: 17500
Column name: Acquity BEH C18 1.7um, 2.1x150mm (Waters)
Retention time: 20.203 min
Base peak: 79.0211
Precursor m/z: 521.0505
Precursor type: [M+H]+
Precursor intensity: 16053062.5
m/z	relative intensity	assigned
51.023	5	C4H3+
52.0307	9	C4H4+
53.0022	15	C3HO+
53.0386	30	C4H5+
54.0339	11	C3H4N+
55.0179	22	C3H3O+
55.0543	183	C4H7+
56.0495	181	C3H6N+
57.0448	11	C2H5N2+
57.0699	3	C4H9+
62.9632	15	CClO+
65.0385	30	C5H5+
66.0338	5	C4H4N+
66.0464	11	C5H6+
67.0416	5	C4H5N+
67.0542	15	C5H7+
68.0494	8	C4H6N+
69.0572	3	C4H7N+
70.0651	12	C4H8N+
74.0151	143	C6H2+
75.0229	165	C6H3+
76.0307	197	C6H4+
78.0464	18	C6H6+
79.0178	14	C5H3O+
80.0257	13	C5H4O+
81.0335	32	C5H5O+
82.0651	38	C5H8N+
84.0808	449	C5H10N+
84.984	120	C4H2Cl+
86.9632	385	C3ClO+
89.0386	35	C7H5+
90.0338	9	C6H4N+
90.0464	37	C7H6+
91.0543	13	C7H7+
94.0413	138	C6H6O+
95.0491	39	C6H7O+
98.0363	13	C2H9ClNO+
98.9996	71	C5H4Cl+
99.0917	47	C5H11N2+
100.0995	4	C5H12N2+
102.0464	60	C8H6+
103.0542	64	C8H7+
104.0495	11	C7H6N+
104.0621	45	C8H8+
108.0567	4	C7H8O+
108.984	999	C6H2Cl+
112.979	20	C5H2ClO+
114.0463	7	C9H6+
115.0542	684	C9H7+
116.0621	348	C9H8+
117.0572	38	C8H7N+
117.07	7	C9H9+
118.0653	17	C8H8N+
120.9606	52	C4H3Cl2+
122.9996	19	C7H4Cl+
123.9949	31	C6H3ClN+
125.0026	28	C6H4ClN+
126.0104	25	C6H5ClN+
126.0464	111	C10H6+
126.9945	77	C6H4ClO+
127.0417	83	C9H5N+
127.0542	63	C10H7+
128.0023	119	C6H5ClO+
128.0495	28	C9H6N+
128.062	100	C10H8+
129.0102	18	C6H6ClO+
129.0572	9	C9H7N+
129.0698	5	C10H9+
130.0652	19	C9H8N+
130.9491	50	C4H4Br+
132.0569	14	C9H8O+
132.9607	408	C5H3Cl2+
135.0316	10	C4H8ClN2O+
136.0073	4	C8H5Cl+
138.0104	4	C7H5ClN+
139.0058	34	C6H4ClN2+
139.0541	11	C11H7+
140.0495	196	C10H6N+
141.0573	59	C10H7N+
141.0698	42	C11H9+
142.0055	6	C6H5ClNO+
142.0652	117	C10H8N+
143.073	201	C10H9N+
144.0568	5	C10H8O+
144.9606	307	C6H3Cl2+
145.0051	30	C3H9Cl2NO+
145.0648	119	C10H9O+
145.9683	16	C6H4Cl2+
146.0602	16	C9H8NO+
149.0153	102	C9H6Cl+
150.0105	11	C8H5ClN+
151.0185	31	C8H6ClN+
152.0137	10	C7H5ClN2+
152.0261	21	C8H7ClN+
152.0494	6	C11H6N+
153.0573	270	C11H7N+
154.0651	145	C11H8N+
154.9491	103	C6H4Br+
155.0007	9	C6H4ClN2O+
155.0604	173	C10H7N2+
157.0522	10	C10H7NO+
158.9436	4	C5H4BrO+
158.9763	18	C7H5Cl2+
159.0208	8	C4H11Cl2NO+
159.9715	194	C6H4Cl2N+
160.9793	89	C6H5Cl2N+
161.9632	12	C6H4Cl2O+
162.0104	14	C9H5ClN+
162.9712	177	C6H5Cl2O+
164.0008	24	C7H3ClN3+
164.0262	8	C9H7ClN+
166.0527	23	C11H6N2+
167.0603	18	C11H7N2+
168.0566	11	C9H11ClN+
168.0683	53	C11H8N2+
168.9648	44	C7H6Br+
169.0647	4	C12H9O+
169.0761	24	C11H9N2+
170.06	20	C11H8NO+
171.0555	6	C10H7N2O+
171.9715	79	C7H4Cl2N+
172.9597	224	C6H6BrO+
172.9668	982	C6H3Cl2N2+
173.9642	4	C7H4Cl2O+
174.0105	64	C10H5ClN+
175.0184	17	C10H6ClN+
176.0261	6	C10H7ClN+
177.0339	39	C10H8ClN+
177.0573	98	C13H7N+
177.9823	5	C6H6Cl2NO+
180.9646	9	C8H6Br+
181.9599	83	C7H5BrN+
182.9553	590	C6H4BrN2+
183.9527	6	C4H8BrClN+
183.9717	5	C8H4Cl2N+
184.9667	7	C7H3Cl2N2+
184.9793	21	C8H5Cl2N+
185.0472	3	C8H10ClN2O+
185.0708	15	C11H9N2O+
186.9827	6	C7H5Cl2N2+
189.0215	5	C10H6ClN2+
189.07	55	C15H9+
190.0657	16	C14H8N+
190.0776	17	C15H10+
191.0729	20	C14H9N+
192.9651	8	C9H6Br+
193.9599	25	C8H5BrN+
195.9716	34	C9H4Cl2N+
197.9873	15	C9H6Cl2N+
199.031	33	C13H8Cl+
201.0573	29	C15H7N+
202.0293	25	C11H7ClN2+
203.0371	10	C11H8ClN2+
203.0729	28	C15H9N+
204.0208	7	C11H7ClNO+
204.0808	20	C15H10N+
205.9606	4	C9H5BrN+
207.9761	7	C9H7BrN+
211.0186	32	C13H6ClN+
212.0262	32	C13H7ClN+
214.0651	41	C16H8N+
215.073	42	C16H9N+
216.0685	62	C15H8N2+
216.0805	327	C16H10N+
217.0886	669	C16H11N+
219.0323	6	C8H11Cl2N3+
224.0261	61	C14H7ClN+
225.0341	8	C14H8ClN+
225.0464	42	C15H10Cl+
226.0299	5	C13H7ClN2+
226.0417	9	C14H9ClN+
227.0604	24	C16H7N2+
227.073	54	C17H9N+
228.0683	139	C16H8N2+
228.0803	8	C17H10N+
229.076	645	C16H9N2+
230.0364	22	C13H9ClNO+
231.975	6	C11H7BrN+
232.9706	4	C10H6BrN2+
236.998	7	C11H7Cl2N2+
237.0338	80	C15H8ClN+
238.0418	47	C15H9ClN+
239.0377	4	C14H8ClN2+
241.0759	54	C17H9N2+
242.0838	383	C17H10N2+
243.0917	342	C17H11N2+
244.0994	84	C17H12N2+
246.9951	47	C13H7Cl2N+
248.003	35	C13H8Cl2N+
250.0288	9	C18H4NO+
250.0416	77	C16H9ClN+
251.0369	21	C15H8ClN2+
251.0497	207	C16H10ClN+
252.0576	54	C16H11ClN+
261.0337	21	C20H5O+
262.0431	21	C8H15BrN4O+
263.037	373	C16H8ClN2+
264.0447	238	C16H9ClN2+
264.0568	13	C20H8O+
272.0028	48	C15H8Cl2N+
276.0449	52	C17H9ClN2+
277.0527	388	C17H10ClN2+
278.0605	242	C17H11ClN2+
278.9849	70	C11H5Cl2N4O+
279.0683	30	C17H12ClN2+
285.0107	23	C16H9Cl2N+
286.0196	20	C7H16BrClN4O+
289.0527	14	C18H10ClN2+
290.9441	10	C16H4BrO+
291.0317	48	C17H8ClN2O+
291.9526	12	C13H8BrClN+
292.0391	17	C17H9ClN2O+
294.9992	9	C16H10BrN+
296.0344	8	C13H12Cl2N3O+
296.9972	16	C19H4ClNO+
299.0138	97	C16H9Cl2N2+
306.9861	11	C16H8BrN2+
312.0215	17	C17H10Cl2N2+
313.0294	77	C17H11Cl2N2+
315.9522	3	C15H8BrClN+
321.0024	16	C17H10BrN2+
323.0153	6	C8H20BrCl2N3O+
325.9133	247	C13H7BrCl2N+
329.9553	7	C15H8BrClN2+
342.9639	19	C16H9BrClN2+
356.9793	10	C17H11BrClN2+
