Mass spectrum: Pargyline; LC-ESI-QFT; MS2; CE: 30; R=17500; [M+H]+
Name: Pargyline
Name: N-benzyl-N-methylprop-2-yn-1-amine
Formula: C11H13N
Exact mass: 159.1048
SMILES: CN(CC#C)CC1=CC=CC=C1
InChI: InChI=1S/C11H13N/c1-3-9-12(2)10-11-7-5-4-6-8-11/h1,4-8H,9-10H2,2H3
Instrument: Q Exactive Orbitrap (Thermo Scientific)
Instrument type: LC-ESI-QFT
Ms type: MS2
Ion mode: POSITIVE
Ionization: ESI
Fragmentation mode: HCD
Collision energy: 30
Resolution: 17500
Column name: Acquity BEH C18 1.7um, 2.1x150mm (Waters)
Retention time: 8.888 min
Base peak: 79.0211
Precursor m/z: 160.1121
Precursor type: [M+H]+
Precursor intensity: 5439780
m/z	relative intensity	assigned
56.0494	23	C3H6N+
68.0495	30	C4H6N+
82.0652	4	C5H8N+
91.0542	999	C7H7+
117.0698	3	C9H9+
128.0624	4	C10H8+
129.0699	90	C10H9+
131.0855	27	C10H11+
145.089	11	C10H11N+
160.1121	381	C11H14N+
