Mass spectrum: Apomorphine; LC-ESI-QFT; MS2; CE: 45; R=17500; [M-H]-
Name: Apomorphine
Name: (6aR)-6-methyl-5,6,6a,7-tetrahydro-4H-dibenzo[de,g]quinoline-10,11-diol
Formula: C17H17NO2
Exact mass: 267.1259
SMILES: CN1CCc2cccc3c2[C@H]1Cc1ccc(O)c(O)c1-3
InChI: InChI=1S/C17H17NO2/c1-18-8-7-10-3-2-4-12-15(10)13(18)9-11-5-6-14(19)17(20)16(11)12/h2-6,13,19-20H,7-9H2,1H3/t13-/m1/s1
Instrument: Q Exactive Orbitrap (Thermo Scientific)
Instrument type: LC-ESI-QFT
Ms type: MS2
Ion mode: NEGATIVE
Ionization: ESI
Fragmentation mode: HCD
Collision energy: 45
Resolution: 17500
Column name: Acquity BEH C18 1.7um, 2.1x150mm (Waters)
Retention time: 11.104 min
Base peak: 266.1186
Precursor m/z: 266.1187
Precursor type: [M-H]-
Precursor intensity: 5275628.56958
m/z	relative intensity	assigned
167.0865	3	C13H11-
179.0867	3	C14H11-
195.0815	2	C14H11O-
205.0663	1	C15H9O-
208.0529	3	C14H8O2-
222.0686	28	C15H10O2-
223.0764	546	C15H11O2-
235.0767	4	C16H11O2-
236.0718	3	C15H10NO2-
248.072	6	C16H10NO2-
249.0795	14	C16H11NO2-
250.0873	29	C16H12NO2-
251.0952	5	C16H13NO2-
264.103	12	C17H14NO2-
266.1186	999	C17H16NO2-
