Mass spectrum: Promecarb; LC-ESI-QFT; MS2; CE: 15; R=17500; [M+H]+
Name: Promecarb
Name: (3-methyl-5-propan-2-ylphenyl) N-methylcarbamate
Formula: C12H17NO2
Exact mass: 207.1259
SMILES: CNC(=O)OC1=CC(=CC(C)=C1)C(C)C
InChI: InChI=1S/C12H17NO2/c1-8(2)10-5-9(3)6-11(7-10)15-12(14)13-4/h5-8H,1-4H3,(H,13,14)
Instrument: Q Exactive Orbitrap (Thermo Scientific)
Instrument type: LC-ESI-QFT
Ms type: MS2
Ion mode: POSITIVE
Ionization: ESI
Fragmentation mode: HCD
Collision energy: 15
Resolution: 17500
Column name: Acquity BEH C18 1.7um, 2.1x150mm (Waters)
Retention time: 17.557 min
Base peak: 79.0211
Precursor m/z: 208.1332
Precursor type: [M+H]+
Precursor intensity: 3930459.4375
m/z	relative intensity	assigned
72.0444	41	C3H6NO+
109.0648	784	C7H9O+
151.1118	999	C10H15O+
208.1333	75	C12H18NO2+
