Mass spectrum: MK-274; LC-ESI-QFT; MS2; CE: 45; R=17500; [M+H]+
Name: MK-274
Name: 3-[5'-Fluoro-2'-(2,2,3,3,3-pentafluoropropoxy)biphenyl-3-yl]-1H-1,2,4-triazole-5-carboxamide
Name: 3-[3-[5-fluoro-2-(2,2,3,3,3-pentafluoropropoxy)phenyl]phenyl]-1H-1,2,4-triazole-5-carboxamide
Formula: C18H12F6N4O2
Exact mass: 430.0864
SMILES: NC(=O)C1=NC(=NN1)C1=CC=CC(=C1)C1=CC(F)=CC=C1OCC(F)(F)C(F)(F)F
InChI: InChI=1S/C18H12F6N4O2/c19-11-4-5-13(30-8-17(20,21)18(22,23)24)12(7-11)9-2-1-3-10(6-9)15-26-16(14(25)29)28-27-15/h1-7H,8H2,(H2,25,29)(H,26,27,28)
Instrument: Q Exactive Orbitrap (Thermo Scientific)
Instrument type: LC-ESI-QFT
Ms type: MS2
Ion mode: POSITIVE
Ionization: ESI
Fragmentation mode: HCD
Collision energy: 45
Resolution: 17500
Column name: Acquity BEH C18 1.7um, 2.1x150mm (Waters)
Retention time: 17.808 min
Base peak: 79.0211
Precursor m/z: 431.0937
Precursor type: [M+H]+
Precursor intensity: 11996495.5
m/z	relative intensity	assigned
69.0083	92	C2HN2O+
69.9923	14	C2NO2+
104.0495	3	C7H6N+
146.0526	6	C10H7F+
157.045	3	C11H6F+
158.0525	6	C3H8F6+
159.0604	28	C11H8F+
170.0526	48	C12H7F+
171.0603	2	C4H9F6+
172.0553	2	C6H6F2N4+
173.0398	2	C11H6FO+
174.0476	18	C11H7FO+
178.0655	4	C13H8N+
183.0606	11	C13H8F+
185.0636	3	C12H8FN+
186.0475	347	C12H7FO+
187.0554	79	C12H8FO+
190.0652	7	C14H8N+
196.0558	34	C13H7FN+
197.0636	117	C13H8FN+
198.0476	80	C13H7FO+
201.0587	16	C12H8FNO+
202.0425	27	C12H7FO2+
205.0522	27	C14H7NO+
206.0602	7	C14H8NO+
207.0479	17	C14H6FN+
208.0557	142	C14H7FN+
209.0519	4	C10H7F2N2O+
209.0636	76	C14H8FN+
211.0428	59	C13H6FNO+
212.0506	543	C13H7FNO+
213.0346	166	C13H6FO2+
213.0583	103	C5H9F6NO+
214.0424	75	C13H7FO2+
214.0663	25	C13H9FNO+
215.0502	49	C5H9F6O2+
215.0615	25	C12H8FN2O+
215.0734	2	C16H9N+
223.0628	7	C14H9NO2+
224.0506	474	C14H7FNO+
225.0584	499	C14H8FNO+
226.0535	8	C5H8F6N2O+
226.0664	12	C14H9FNO+
228.0452	6	C8H6F2N4O2+
230.0377	20	C16H6O2+
230.0611	6	C5H10F6NO2+
236.0379	12	C6H6F6N2O+
236.0614	10	C6H8F6N3+
237.046	10	C14H6FN2O+
238.0535	13	C6H8F6N2O+
238.0663	6	C15H9FNO+
238.078	5	C11H11F5+
239.0378	27	C14H6FNO2+
239.0614	14	C14H8FN2O+
239.0742	6	C15H10FNO+
243.069	188	C14H10FNO2+
244.0768	20	C14H11FNO2+
253.0529	999	C10H7F2N4O2+
254.073	10	C11H11F5O+
255.0571	3	C14H8FN2O2+
257.085	10	C15H12FNO2+
264.0567	33	C7H8F6N3O+
269.0737	2	C15H10FN2O2+
270.0527	5	C16H7F3N+
280.052	9	C12H9F5O2+
282.0673	181	C7H10F6N3O2+
286.0475	5	C16H7F3NO+
297.0784	48	C12H12F5NO2+
298.0626	24	C15H10F4O2+
299.0701	384	C15H11F4O2+
319.0557	3	C15H9F6O+
320.0634	4	C15H10F6O+
326.0569	5	C14H7F5N4+
331.0553	100	C16H9F6O+
345.0583	47	C16H9F6NO+
346.0661	290	C16H10F6NO+
358.0661	218	C17H10F6NO+
359.0615	10	C16H9F6N2O+
364.0771	15	C16H12F6NO2+
371.0612	35	C17H9F6N2O+
378.0927	34	C15H12F6N4O+
392.0652	14	C18H9F5N4O+
413.0828	29	C18H11F6N4O+
414.0662	33	C18H10F6N3O2+
431.096	10	C18H13F6N4O2+
