Mass spectrum: 4-Methylumbelliferone; LC-ESI-QFT; MS2; CE: 30; R=17500; [M+H]+
Name: 4-Methylumbelliferone
Name: 7-hydroxy-4-methylchromen-2-one
Formula: C10H8O3
Exact mass: 176.0473
SMILES: CC1=CC(=O)OC2=C1C=CC(O)=C2
InChI: InChI=1S/C10H8O3/c1-6-4-10(12)13-9-5-7(11)2-3-8(6)9/h2-5,11H,1H3
Instrument: Q Exactive Orbitrap (Thermo Scientific)
Instrument type: LC-ESI-QFT
Ms type: MS2
Ion mode: POSITIVE
Ionization: ESI
Fragmentation mode: HCD
Collision energy: 30
Resolution: 17500
Column name: Acquity BEH C18 1.7um, 2.1x150mm (Waters)
Retention time: 14.071 min
Base peak: 79.0211
Precursor m/z: 177.0546
Precursor type: [M+H]+
Precursor intensity: 3332021.75
m/z	relative intensity	assigned
55.0178	1	C3H3O+
79.0541	2	C6H7+
103.0543	1	C8H7+
105.0699	22	C8H9+
115.054	1	C9H7+
121.0648	7	C8H9O+
133.0648	7	C9H9O+
149.0598	3	C9H9O2+
177.0546	999	C10H9O3+
