Mass spectrum: Thiazopyr; LC-ESI-QFT; MS2; CE: 45; R=17500; [M+H]+
Name: Thiazopyr
Name: methyl 2-(difluoromethyl)-5-(4,5-dihydro-1,3-thiazol-2-yl)-4-(2-methylpropyl)-6-(trifluoromethyl)pyridine-3-carboxylate
Formula: C16H17F5N2O2S
Exact mass: 396.0931
SMILES: COC(=O)C1=C(CC(C)C)C(C2=NCCS2)=C(N=C1C(F)F)C(F)(F)F
InChI: InChI=1S/C16H17F5N2O2S/c1-7(2)6-8-9(15(24)25-3)11(13(17)18)23-12(16(19,20)21)10(8)14-22-4-5-26-14/h7,13H,4-6H2,1-3H3
Instrument: Q Exactive Orbitrap (Thermo Scientific)
Instrument type: LC-ESI-QFT
Ms type: MS2
Ion mode: POSITIVE
Ionization: ESI
Fragmentation mode: HCD
Collision energy: 45
Resolution: 17500
Column name: Acquity BEH C18 1.7um, 2.1x150mm (Waters)
Retention time: 18.344 min
Base peak: 79.0211
Precursor m/z: 397.1004
Precursor type: [M+H]+
Precursor intensity: 23749084
m/z	relative intensity	assigned
53.0022	2	C3HO+
58.9949	13	C2H3S+
60.0028	10	C2H4S+
61.0106	858	C2H5S+
73.0647	13	C4H9O+
75.0262	87	C3H7S+
76.0215	30	C2H6NS+
78.0372	1	C2H8NS+
129.0701	3	C10H9+
155.0732	2	C11H9N+
174.0712	10	C11H9FN+
177.0508	1	C11H7F2+
178.066	1	C10H9FNO+
188.0506	2	C11H7FNO+
190.0463	1	C11H6F2N+
190.0662	2	C11H9FNO+
192.0818	15	C11H11FNO+
194.0781	2	C11H10F2N+
199.0478	2	C9H6F3N2+
201.0821	21	C12H10FN2+
202.0663	8	C12H9FNO+
202.0903	1	C12H11FN2+
204.062	4	C12H8F2N+
204.082	1	C12H11FNO+
206.0648	8	C11H8F2N2+
208.0572	3	C11H8F2NO+
209.0709	5	C13H9N2O+
213.0824	3	C13H10FN2+
215.0611	1	C12H8FN2O+
217.045	1	C11H9N2OS+
217.0573	10	C12H7F2N2+
219.0385	6	C11H8FN2S+
219.0729	3	C12H9F2N2+
220.0569	2	C12H8F2NO+
220.0772	4	C4H15F5NOS+
221.0882	20	C9H16FNO2S+
222.0723	221	C12H10F2NO+
223.0676	2	C11H9F2N2O+
224.068	23	C12H9F3N+
226.0375	1	C10H8F2N2S+
227.0437	2	C7H7F4N2O2+
229.024	2	C12H3F2N2O+
229.0769	42	C13H10FN2O+
231.0685	9	C8H13F4NS+
232.0105	1	C11H5FN2OS+
232.0235	1	C9H8F2NO2S+
233.0537	7	C9H8F3N2O2+
234.0599	9	C12H8F2N2O+
235.0333	3	C11H8FN2OS+
235.0461	1	C12H10FNOS+
235.0677	13	C12H9F2N2O+
237.048	4	C14H9N2S+
237.0636	21	C12H8F3N2+
238.0473	19	C12H7F3NO+
238.0713	5	C12H9F3N2+
239.0791	18	C12H10F3N2+
240.0292	1	C11H8F2NOS+
243.0933	4	C14H12FN2O+
246.9956	1	C6H4F5N2OS+
247.0332	9	C12H8FN2OS+
247.0486	6	C10H7F4N2O+
247.0683	5	C10H10F3N2O2+
248.0752	3	C13H10F2N2O+
249.0832	172	C13H11F2N2O+
250.0671	199	C13H10F2NO2+
251.048	2	C9H10F3N2OS+
251.0626	12	C12H9F2N2O2+
251.0793	4	C13H10F3N2+
252.0163	9	C11H6F2N2OS+
252.0634	7	C13H9F3NO+
253.0242	4	C11H7F2N2OS+
253.0584	9	C12H8F3N2O+
255.0199	7	C11H6F3N2S+
255.038	3	C11H6F3N2O2+
255.0501	3	C12H8F3NO2+
256.0041	4	C11H5F3NOS+
256.0948	2	C13H13F3NO+
257.0352	5	C11H8F3N2S+
257.0545	4	C14H10FN2S+
257.0714	51	C9H10F5N2O+
258.0067	5	C10H5F3N2OS+
263.0088	2	C15H4FN2S+
263.0245	2	C15H4FN2O2+
263.0625	25	C13H9F2N2O2+
263.0787	2	C11H15F2NO2S+
265.0582	188	C13H8F3N2O+
266.0317	3	C12H8F2N2OS+
267.0402	10	C12H9F2N2OS+
267.0741	5	C13H10F3N2O+
269.0893	158	C13H12F3N2O+
271.0149	11	C11H6F3N2OS+
271.0691	30	C12H10F3N2O2+
272.0223	14	C11H7F3N2OS+
272.0691	59	C13H10F4NO+
273.0301	5	C11H8F3N2OS+
273.0475	2	C9H10F5N2S+
275.0262	102	C11H7F4N2S+
275.0437	22	C11H7F4N2O2+
276.0336	154	C11H8F4N2S+
277.0606	14	C14H11F2N2S+
277.0778	111	C14H11F2N2O2+
279.0395	2	C13H9F2N2OS+
279.0741	9	C14H10F3N2O+
280.0112	21	C12H6F2N2O2S+
280.0399	2	C14H9F3NS+
280.0582	4	C14H9F3NO2+
281.0361	1	C10H9F4N2OS+
281.0543	4	C16H10FN2S+
282.0609	6	C13H9F3N2O2+
283.0148	29	C12H6F3N2OS+
283.0686	11	C13H10F3N2O2+
285.0645	274	C13H9F4N2O+
287.0095	1	C11H6F3N2O2S+
287.0457	25	C12H10F3N2OS+
288.0298	45	C12H9F3NO2S+
289.0253	3	C11H8F3N2O2S+
290.0131	2	C11H6F4N2OS+
290.9844	6	C10H3F4N2O2S+
291.0207	36	C11H7F4N2OS+
293.0547	8	C14H11F2N2OS+
295.0344	13	C13H9F2N2O2S+
295.0514	2	C14H10F3N2S+
297.0672	32	C14H12F3N2S+
297.0843	386	C14H12F3N2O2+
298.0748	4	C14H13F3N2S+
299.0095	39	C12H6F3N2O2S+
300.0173	225	C12H7F3N2O2S+
300.0639	61	C14H10F4NO2+
302.013	2	C12H6F4N2OS+
302.0516	4	C15H11FN2O2S+
303.0208	447	C12H7F4N2OS+
304.0114	10	C14H6F2N2O2S+
305.0364	7	C12H9F4N2OS+
305.0554	18	C15H11F2N2OS+
306.0079	44	C11H6F4N2O2S+
307.0159	9	C11H7F4N2O2S+
307.0346	3	C14H9F2N2O2S+
307.0515	1	C15H10F3N2S+
308.0242	12	C11H8F4N2O2S+
309.0862	20	C15H15F2N2OS+
310.0383	5	C14H9F3N2OS+
311.0998	20	C15H14F3N2O2+
314.033	37	C13H9F3N2O2S+
315.0408	191	C13H10F3N2O2S+
315.0946	15	C12H16F5N2S+
317.0908	270	C14H13F4N2O2+
319.0157	183	C12H7F4N2O2S+
320.0704	4	C14H11F5NO2+
321.0314	5	C12H9F4N2O2S+
322.0578	45	C15H12F2N2O2S+
324.0176	10	C14H7F3N2O2S+
325.0614	103	C15H12F3N2OS+
327.0406	4	C14H10F3N2O2S+
327.0579	40	C15H11F4N2S+
329.0919	7	C15H16F3N2OS+
331.0356	6	C16H9F2N2O2S+
333.0518	5	C16H11F2N2O2S+
334.0389	41	C13H10F4N2O2S+
335.0469	999	C13H11F4N2O2S+
337.0807	77	C16H15F2N2O2S+
342.0647	6	C15H13F3N2O2S+
345.0673	14	C15H13F4N2OS+
355.0548	1	C13H12F5N2O2S+
357.0876	85	C16H16F3N2O2S+
377.094	484	C16H17F4N2O2S+
397.1002	196	C16H18F5N2O2S+
