Mass spectrum: Biotin; LC-ESI-QFT; MS2; CE: 90; R=17500; [M+H]+
Name: Biotin
Name: 5-[(3aS,4S,6aR)-2-oxo-1,3,3a,4,6,6a-hexahydrothieno[3,4-d]imidazol-4-yl]pentanoic acid
Formula: C10H16N2O3S
Exact mass: 244.0882
SMILES: OC(=O)CCCC[C@@H]1SC[C@@H]2NC(=O)N[C@H]12
InChI: InChI=1S/C10H16N2O3S/c13-8(14)4-2-1-3-7-9-6(5-16-7)11-10(15)12-9/h6-7,9H,1-5H2,(H,13,14)(H2,11,12,15)/t6-,7-,9-/m0/s1
Instrument: Q Exactive Orbitrap (Thermo Scientific)
Instrument type: LC-ESI-QFT
Ms type: MS2
Ion mode: POSITIVE
Ionization: ESI
Fragmentation mode: HCD
Collision energy: 90
Resolution: 17500
Column name: Acquity BEH C18 1.7um, 2.1x150mm (Waters)
Retention time: 11.913 min
Base peak: 79.0212
Precursor m/z: 245.0954
Precursor type: [M+H]+
Precursor intensity: 5858303.09375
m/z	relative intensity	assigned
53.0023	20	C3HO+
53.0386	76	C4H5+
54.0338	56	C3H4N+
55.0179	22	C3H3O+
55.0543	290	C4H7+
56.0495	78	C3H6N+
57.0699	15	C4H9+
58.0652	6	C3H8N+
58.995	167	C2H3S+
59.0491	38	C3H7O+
59.9903	20	CH2NS+
61.0107	125	C2H5S+
61.0397	41	CH5N2O+
65.0386	69	C5H5+
67.0417	43	C4H5N+
67.0542	261	C5H7+
68.0495	92	C4H6N+
69.0335	8	C4H5O+
69.0447	38	C3H5N2+
69.0699	54	C5H9+
70.0287	88	C3H4NO+
70.0651	15	C4H8N+
70.995	22	C3H3S+
71.0491	26	C4H7O+
73.0107	94	C3H5S+
74.0059	129	C2H4NS+
76.0216	124	C2H6NS+
79.0542	668	C6H7+
80.0495	108	C5H6N+
81.0575	28	C5H7N+
81.0699	192	C6H9+
82.0288	153	C4H4NO+
82.0652	60	C5H8N+
83.0492	42	C5H7O+
84.0446	6	C4H6NO+
85.0107	241	C4H5S+
85.0397	32	C3H5N2O+
86.0059	34	C3H4NS+
87.0264	77	C4H7S+
91.0543	254	C7H7+
93.0574	43	C6H7N+
93.0699	77	C7H9+
94.0652	109	C6H8N+
95.0491	133	C6H7O+
95.0857	39	C7H11+
96.0444	17	C5H6NO+
96.0809	30	C6H10N+
97.0107	849	C5H5S+
97.0397	999	C4H5N2O+
98.0059	16	C4H4NS+
98.0964	17	C6H12N+
99.0137	22	C4H5NS+
99.0263	87	C5H7S+
99.0554	18	C4H7N2O+
100.0216	99	C4H6NS+
101.0421	42	C5H9S+
102.0007	20	C3H4NOS+
103.0543	116	C8H7+
105.07	535	C8H9+
106.0652	37	C7H8N+
107.073	21	C7H9N+
107.0855	14	C8H11+
108.0444	14	C6H6NO+
108.0808	91	C7H10N+
109.065	13	C7H9O+
110.0964	7	C7H12N+
110.9901	12	C5H3OS+
111.0264	198	C6H7S+
111.0553	27	C5H7N2O+
112.0216	115	C5H6NS+
113.0419	56	C6H9S+
114.0007	12	C4H4NOS+
114.0372	16	C5H8NS+
115.0542	60	C9H7+
115.058	6	C6H11S+
116.0621	21	C9H8+
117.0574	20	C8H7N+
118.0653	40	C8H8N+
120.0445	9	C7H6NO+
120.0809	48	C8H10N+
121.0649	40	C8H9O+
122.0599	15	C7H8NO+
122.0965	42	C8H12N+
123.0263	620	C7H7S+
124.0759	8	C7H10NO+
125.0296	69	C6H7NS+
125.042	41	C7H9S+
126.001	21	C5H4NOS+
126.0375	7	C6H8NS+
128.017	6	C5H6NOS+
130.0651	18	C9H8N+
132.0809	62	C9H10N+
133.0654	8	C9H9O+
133.0887	61	C9H11N+
134.0185	27	C8H6S+
134.0601	14	C8H8NO+
136.0217	18	C7H6NS+
136.076	10	C8H10NO+
137.0421	22	C8H9S+
137.0711	14	C7H9N2O+
138.0009	96	C6H4NOS+
138.0373	50	C7H8NS+
139.0576	91	C8H11S+
140.0165	6	C6H6NOS+
140.0529	8	C7H10NS+
142.0322	8	C6H8NOS+
148.0757	10	C9H10NO+
149.042	21	C9H9S+
150.0915	5	C9H12NO+
151.0867	25	C8H11N2O+
152.0943	7	C8H12N2O+
153.1022	12	C8H13N2O+
154.0688	10	C8H12NS+
155.0271	5	C6H7N2OS+
156.0477	6	C7H10NOS+
157.0109	31	C10H5S+
163.0864	7	C9H11N2O+
164.0528	14	C9H10NS+
166.0685	30	C9H12NS+
167.0529	12	C9H11OS+
192.0477	7	C10H10NOS+
199.09	10	C9H15N2OS+
