Mass spectrum: Cyproterone acetate; LC-ESI-QFT; MS2; CE: 45; R=17500; [M+H]+
Name: Cyproterone acetate
Name: [(1S,2S,3S,5R,11R,12S,15R,16S)-15-acetyl-9-chloro-2,16-dimethyl-6-oxo-15-pentacyclo[9.7.0.02,8.03,5.012,16]octadeca-7,9-dienyl] acetate
Formula: C24H29ClO4
Exact mass: 416.1754
SMILES: CC(=O)O[C@@]1(CC[C@H]2[C@@H]3C=C(Cl)C4=CC(=O)[C@@H]5C[C@@H]5[C@]4(C)[C@H]3CC[C@]12C)C(C)=O
InChI: InChI=1S/C24H29ClO4/c1-12(26)24(29-13(2)27)8-6-16-14-10-20(25)19-11-21(28)15-9-18(15)23(19,4)17(14)5-7-22(16,24)3/h10-11,14-18H,5-9H2,1-4H3/t14-,15+,16-,17-,18-,22-,23-,24-/m0/s1
Instrument: Q Exactive Orbitrap (Thermo Scientific)
Instrument type: LC-ESI-QFT
Ms type: MS2
Ion mode: POSITIVE
Ionization: ESI
Fragmentation mode: HCD
Collision energy: 45
Resolution: 17500
Column name: Acquity BEH C18 1.7um, 2.1x150mm (Waters)
Retention time: 18.263 min
Base peak: 79.0211
Precursor m/z: 417.1827
Precursor type: [M+H]+
Precursor intensity: 2908947.875
m/z	relative intensity	assigned
55.0178	25	C3H3O+
55.0542	55	C4H7+
59.049	36	C3H7O+
65.0385	13	C5H5+
67.0542	87	C5H7+
69.0334	36	C4H5O+
69.0697	40	C5H9+
71.049	30	C4H7O+
79.0542	93	C6H7+
81.0699	171	C6H9+
83.049	33	C5H7O+
85.0284	57	C4H5O2+
85.0648	54	C5H9O+
91.0542	198	C7H7+
93.0699	236	C7H9+
95.0492	75	C6H7O+
95.0855	126	C7H11+
97.0649	69	C6H9O+
99.0803	22	C6H11O+
105.0699	411	C8H9+
107.0491	55	C7H7O+
107.0856	188	C8H11+
109.0648	79	C7H9O+
109.1012	102	C8H13+
111.0805	29	C7H11O+
115.0541	19	C9H7+
117.0699	109	C9H9+
119.0856	335	C9H11+
121.0648	162	C8H9O+
121.1012	203	C9H13+
123.0806	59	C8H11O+
123.1169	25	C9H15+
127.0308	36	C7H8Cl+
128.0622	28	C10H8+
129.0698	131	C10H9+
130.0777	25	C10H10+
131.049	28	C9H7O+
131.0856	314	C10H11+
132.0565	11	C9H8O+
133.0648	58	C9H9O+
133.1012	957	C10H13+
135.0803	56	C9H11O+
135.1168	65	C10H15+
139.0308	30	C8H8Cl+
141.0464	29	C8H10Cl+
141.07	56	C11H9+
142.0779	69	C11H10+
143.0856	258	C11H11+
144.0932	30	C11H12+
145.0648	172	C10H9O+
145.1012	489	C11H13+
146.0724	35	C10H10O+
147.0803	159	C10H11O+
147.1168	895	C11H15+
149.0961	26	C10H13O+
151.0309	13	C9H8Cl+
151.1117	24	C10H15O+
153.0694	10	C12H9+
154.078	20	C12H10+
155.0256	42	C8H8ClO+
155.0618	19	C9H12Cl+
155.0855	190	C12H11+
156.0934	42	C12H12+
157.0413	29	C8H10ClO+
157.0648	65	C11H9O+
157.1012	345	C12H13+
158.0726	43	C11H10O+
159.0804	171	C11H11O+
159.1168	213	C12H15+
160.0883	19	C11H12O+
161.0961	55	C11H13O+
161.133	15	C12H17+
163.0309	27	C10H8Cl+
163.0755	16	C10H11O2+
163.1115	27	C11H15O+
165.0468	34	C10H10Cl+
165.07	47	C13H9+
167.0258	52	C9H8ClO+
167.0618	18	C10H12Cl+
167.0854	96	C13H11+
168.0932	36	C13H12+
169.0414	41	C9H10ClO+
169.0645	12	C12H9O+
169.1011	184	C13H13+
170.0724	16	C12H10O+
170.1092	35	C13H14+
171.0805	131	C12H11O+
171.1168	168	C13H15+
172.0881	26	C12H12O+
173.0963	85	C12H13O+
173.1326	35	C13H17+
175.0306	15	C11H8Cl+
175.0753	17	C11H11O2+
175.1118	281	C12H15O+
177.0465	113	C11H10Cl+
177.1271	36	C12H17O+
179.0258	43	C10H8ClO+
179.0624	24	C11H12Cl+
179.0856	59	C14H11+
180.0932	38	C14H12+
181.0415	255	C10H10ClO+
181.0646	14	C13H9O+
181.0779	91	C11H14Cl+
181.1013	174	C14H13+
182.0731	12	C13H10O+
182.1092	88	C14H14+
183.0574	29	C10H12ClO+
183.0807	64	C13H11O+
183.1169	295	C14H15+
184.0882	53	C13H12O+
184.1248	34	C14H16+
185.0962	296	C13H13O+
185.133	67	C14H17+
186.1037	18	C13H14O+
187.0753	45	C12H11O2+
187.1116	48	C13H15O+
189.0466	48	C12H10Cl+
189.0909	18	C12H13O2+
189.1275	24	C13H17O+
191.0256	43	C11H8ClO+
191.062	56	C12H12Cl+
191.0852	18	C15H11+
192.0931	27	C15H12+
193.0417	87	C11H10ClO+
193.0779	35	C12H14Cl+
193.1013	154	C15H13+
194.1091	49	C15H14+
195.0575	90	C11H12ClO+
195.0799	51	C14H11O+
195.1168	161	C15H15+
196.1248	53	C15H16+
197.0963	67	C14H13O+
197.1325	102	C15H17+
199.112	89	C14H15O+
201.0466	32	C13H10Cl+
201.1274	48	C14H17O+
202.0779	13	C16H10+
203.0625	52	C13H12Cl+
203.0859	18	C16H11+
204.0934	34	C16H12+
205.0417	185	C12H10ClO+
205.0773	26	C13H14Cl+
205.101	107	C16H13+
206.1088	44	C16H14+
207.0572	62	C12H12ClO+
207.0808	14	C15H11O+
207.1167	121	C16H15+
208.0886	13	C15H12O+
208.1245	25	C16H16+
209.0961	98	C15H13O+
209.1324	105	C16H17+
210.1041	19	C15H14O+
210.1404	37	C16H18+
211.1116	44	C15H15O+
211.148	25	C16H19+
213.1277	11	C15H17O+
215.0617	32	C14H12Cl+
217.0779	89	C14H14Cl+
217.1009	44	C17H13+
218.1088	30	C17H14+
219.0571	219	C13H12ClO+
219.0923	12	C14H16Cl+
219.1169	166	C17H15+
220.1247	55	C17H16+
221.0724	30	C13H14ClO+
221.0971	53	C16H13O+
221.1325	156	C17H17+
222.1039	36	C16H14O+
222.1395	30	C17H18+
223.1116	108	C16H15O+
223.1479	51	C17H19+
224.1199	17	C16H16O+
225.1272	36	C16H17O+
227.062	16	C15H12Cl+
227.1066	27	C15H15O2+
229.0774	41	C15H14Cl+
229.1014	17	C18H13+
230.109	20	C18H14+
231.0575	22	C14H12ClO+
231.094	54	C15H16Cl+
231.1164	72	C18H15+
232.1243	56	C18H16+
233.073	22	C14H14ClO+
233.1327	116	C18H17+
234.1035	18	C17H14O+
234.1401	39	C18H18+
235.0883	48	C14H16ClO+
235.1118	119	C17H15O+
235.1482	345	C18H19+
236.1195	70	C17H16O+
236.1559	35	C18H20+
237.1275	148	C17H17O+
237.1639	87	C18H21+
238.1354	23	C17H18O+
241.0781	26	C16H14Cl+
243.0569	12	C15H12ClO+
243.0928	37	C16H16Cl+
243.1166	22	C19H15+
244.1012	17	C16H17Cl+
244.1244	36	C19H16+
245.0728	20	C15H14ClO+
245.1094	42	C16H18Cl+
245.1323	71	C19H17+
246.1048	14	C18H14O+
246.1405	82	C19H18+
247.1118	31	C18H15O+
247.1483	86	C19H19+
248.1196	43	C18H16O+
248.1559	33	C19H20+
249.1278	123	C18H17O+
249.1637	162	C19H21+
250.1356	90	C18H18O+
250.1719	86	C19H22+
251.1431	120	C18H19O+
251.1799	93	C19H23+
252.1509	19	C18H20O+
253.1579	19	C18H21O+
255.0935	38	C17H16Cl+
257.0727	18	C16H14ClO+
257.1085	19	C17H18Cl+
259.088	21	C16H16ClO+
259.1481	89	C20H19+
260.1561	87	C20H20+
261.1271	32	C19H17O+
261.1637	251	C20H21+
262.1352	71	C19H18O+
262.1708	14	C20H22+
263.1431	611	C19H19O+
264.1511	79	C19H20O+
265.1587	29	C19H21O+
267.0941	14	C18H16Cl+
269.0715	13	C17H14ClO+
269.1089	21	C18H18Cl+
270.1403	20	C21H18+
271.0889	14	C17H16ClO+
271.1249	31	C18H20Cl+
273.1026	16	C17H18ClO+
273.1275	35	C20H17O+
275.1429	22	C20H19O+
275.1794	36	C21H23+
277.1588	637	C20H21O+
278.1664	263	C20H22O+
279.1744	999	C20H23O+
281.1089	24	C19H18Cl+
285.1043	42	C18H18ClO+
285.1631	17	C22H21+
288.1511	45	C21H20O+
295.1253	20	C20H20Cl+
297.1402	45	C20H22Cl+
299.12	202	C19H20ClO+
303.1743	79	C22H23O+
306.1615	17	C21H22O2+
313.1355	327	C20H22ClO+
314.1432	198	C20H23ClO+
315.1505	64	C20H24ClO+
321.1851	121	C22H25O2+
357.161	36	C22H26ClO2+
