Mass spectrum: Penoxsulam; LC-ESI-QFT; MS2; CE: 45; R=17500; [M-H]-
Name: Penoxsulam
Name: 2-(2,2-difluoroethoxy)-N-(5,8-dimethoxy-[1,2,4]triazolo[1,5-c]pyrimidin-2-yl)-6-(trifluoromethyl)benzenesulfonamide
Formula: C16H14F5N5O5S
Exact mass: 483.0636
SMILES: COC1=CN=C(OC)N2N=C(NS(=O)(=O)C3=C(C=CC=C3OCC(F)F)C(F)(F)F)N=C12
InChI: InChI=1S/C16H14F5N5O5S/c1-29-10-6-22-15(30-2)26-13(10)23-14(24-26)25-32(27,28)12-8(16(19,20)21)4-3-5-9(12)31-7-11(17)18/h3-6,11H,7H2,1-2H3,(H,24,25)
Instrument: Q Exactive Orbitrap (Thermo Scientific)
Instrument type: LC-ESI-QFT
Ms type: MS2
Ion mode: NEGATIVE
Ionization: ESI
Fragmentation mode: HCD
Collision energy: 45
Resolution: 17500
Column name: Acquity BEH C18 1.7um, 2.1x150mm (Waters)
Retention time: 15.561 min
Base peak: 99.9976
Precursor m/z: 482.0563
Precursor type: [M-H]-
Precursor intensity: 20173330.89648
m/z	relative intensity	assigned
53.9985	3	C2NO-
57.9757	2	CNS-
58.9938	6	C2FO-
61.0095	999	C2H2FO-
63.9625	2	O2S-
64.0067	4	C3N2-
65.0145	17	C3HN2-
66.0098	136	C2N3-
77.9655	3	NO2S-
78.0097	9	C3N3-
80.0017	3	C3N2O-
81.0158	235	C2H3F2O-
81.9935	97	C3NO2-
82.961	13	FO2S-
88.0066	3	C5N2-
90.0096	11	C4N3-
92.9958	16	C3F3-
93.0093	8	C4HN2O-
94.0046	14	C3N3O-
95.0251	19	C4H3N2O-
107.0128	3	CH3F4O-
109.0043	672	C4HN2O2-
121.0156	52	C4HN4O-
122.0237	10	CH4F4NO-
123.0074	8	C4HN3O2-
124.0152	17	C4H2N3O2-
124.0514	5	C5H6N3O-
135.0075	121	C2H3F4O2-
137.0211	9	C8H3F2-
138.0308	4	C5H4N3O2-
139.0387	20	C5H5N3O2-
145.0095	14	C9H2FO-
145.0205	3	C3HF2N5-
148.0142	13	C6H3F3O-
149.0105	57	C5HN4O2-
149.9818	4	C2F2N4S-
150.0308	24	C6H4N3O2-
150.042	5	C5H4N5O-
151.0023	28	C8H4FS-
151.0261	24	C5H3N4O2-
152.0193	4	C7H2F2N2-
153.0159	2	C8H3F2O-
154.011	11	C7H2F2NO-
157.0207	4	C9H2FN2-
157.027	10	C8H4F3-
159.006	3	C2HF4N3O-
161.022	138	C7H4F3O-
163.02	6	C9H4FO2-
164.034	413	C3H6F4NO2-
165.0159	42	C9H3F2O-
165.0288	13	C5H3N5O2-
166.0258	34	C9H7FS-
170.0226	5	C8H3F3N-
173.0226	7	H7N5O4S-
175.0252	20	C7H4F3NO-
176.0091	69	C7H3F3O2-
177.027	7	C9H3F2N2-
178.0223	6	C8H2F2N3-
178.0371	56	C3H6F4N2O2-
179.0575	331	C4H9F4NO2-
181.0104	7	C7H4FN3S-
183.0176	43	C8H2F3N2-
185.022	395	C9H4F3O-
186.0173	46	C8H3F3NO-
188.0466	11	C6H8F4O2-
193.0605	276	C7H7N5O2-
194.0683	5	C7H8N5O2-
195.0178	6	C9H2F3N2-
195.0375	58	C9H5F2N2O-
197.0207	91	C8H2F3N3-
201.0169	28	C9H4F3O2-
203.0123	3	C11H4FO3-
205.0282	146	C4H7F4N3S-
207.981	5	C2H2F4N3O2S-
208.013	3	C14H2F2-
210.0284	43	C9H3F3N3-
215.044	22	C9H6F3N2O-
221.9842	43	C4F2N4O5-
223.0243	37	C3H5F4N3O4-
224.0315	390	C9H3F3N4-
225.016	4	C3H8F3N2O4S-
225.0281	4	C2H7F4N5OS-
225.0396	14	C11H7F2O3-
226.0232	36	C9H3F3N3O-
240.0267	84	C14H4F2NO-
249.0392	13	C7H9F4O5-
250.0234	10	C11H3F3N3O-
251.0314	4	C16H5F2O-
252.0262	23	C12H9FO3S-
258.0232	6	C11H2F2N5O-
264.0264	5	C11H3F3N4O-
265.0412	21	C15H7NO4-
267.0264	14	C16H5F2O2-
268.0643	5	C10H9F5N2O-
279.0128	5	C8H7F2N3O4S-
282.0498	35	C12H7F3N3O2-
287.9935	135	C14H4F2NO2S-
289.0008	12	C11H3F4NO4-
289.022	11	C12H2F3N5O-
290.0294	13	C12H3F3N5O-
292.0091	2	C16H2F2N2O2-
296.0527	23	C12H7F3N4O2-
300.0135	17	C10H6F2N4O3S-
303.9868	48	C12H2F2N4O2S-
306.0242	66	C14H9FNO4S-
307.0323	86	C12H4F3N5O2-
308.0404	64	C6H11F3N4O5S-
313.0012	4	C11H4F3N4O2S-
321.0478	91	C13H6F3N5O2-
327.988	7	C11H3F3N4O3S-
334.0761	3	C14H10F2N5O3-
336.0712	14	C14H9F3N5O2-
353.0736	16	C12H12F5N5S-
361.0719	4	C14H10F5N4O2-
370.9941	52	C12H4F3N5O4S-
372.0024	8	C12H5F3N5O4S-
386.0176	72	C13H7F3N5O4S-
398.0378	15	C14H10F2N5O5S-
452.0095	43	C14H7F5N5O5S-
