Mass spectrum: 1-Phenyl-2-thiourea; LC-ESI-QFT; MS2; CE: 15; R=17500; [M+H]+
Name: 1-Phenyl-2-thiourea
Name: N'-phenylcarbamimidothioic acid
Formula: C7H8N2S
Exact mass: 152.0408
SMILES: NC(=S)NC1=CC=CC=C1
InChI: InChI=1S/C7H8N2S/c8-7(10)9-6-4-2-1-3-5-6/h1-5H,(H3,8,9,10)
Instrument: Q Exactive Orbitrap (Thermo Scientific)
Instrument type: LC-ESI-QFT
Ms type: MS2
Ion mode: POSITIVE
Ionization: ESI
Fragmentation mode: HCD
Collision energy: 15
Resolution: 17500
Column name: Acquity BEH C18 1.7um, 2.1x150mm (Waters)
Retention time: 10.382 min
Base peak: 79.0212
Precursor m/z: 153.0481
Precursor type: [M+H]+
Precursor intensity: 1428062
m/z	relative intensity	assigned
59.9903	39	CH2NS+
77.0387	6	C6H5+
93.0699	3	C7H9+
94.0652	835	C6H8N+
97.9945	4	C3H2N2S+
109.0107	8	C6H5S+
119.0605	7	C7H7N2+
123.0131	29	C6H5NS+
136.0217	678	C7H6NS+
153.0482	999	C7H9N2S+
