Mass spectrum: Imazalil; LC-ESI-QFT; MS2; CE: 75; R=17500; [M+H]+
Name: Imazalil
Name: Enilconazole
Name: 1-[2-(2,4-dichlorophenyl)-2-prop-2-enoxyethyl]imidazole
Formula: C14H14Cl2N2O
Exact mass: 296.0483
SMILES: ClC1=CC(Cl)=C(C=C1)C(CN1C=CN=C1)OCC=C
InChI: InChI=1S/C14H14Cl2N2O/c1-2-7-19-14(9-18-6-5-17-10-18)12-4-3-11(15)8-13(12)16/h2-6,8,10,14H,1,7,9H2
Instrument: Q Exactive Orbitrap (Thermo Scientific)
Instrument type: LC-ESI-QFT
Ms type: MS2
Ion mode: POSITIVE
Ionization: ESI
Fragmentation mode: HCD
Collision energy: 75
Resolution: 17500
Column name: Acquity BEH C18 1.7um, 2.1x150mm (Waters)
Retention time: 15.289 min
Base peak: 79.0212
Precursor m/z: 297.0556
Precursor type: [M+H]+
Precursor intensity: 34494247.5
m/z	relative intensity	assigned
52.0182	4	C3H2N+
53.0022	184	C3HO+
53.9975	24	C2NO+
54.0101	4	C3H2O+
54.0339	19	C3H4N+
55.0179	3	C3H3O+
55.0543	15	C4H7+
56.0497	1	C3H6N+
63.0229	1	C5H3+
65.0386	8	C5H5+
67.0417	38	C4H5N+
67.9893	8	ClH3NO+
68.0495	15	C4H6N+
69.0447	562	C3H5N2+
80.0495	16	C5H6N+
81.0448	244	C4H5N2+
82.0526	62	C4H6N2+
82.0652	36	C5H8N+
89.0386	8	C7H5+
91.0543	2	C7H7+
98.9997	12	C5H4Cl+
99.0554	2	C4H7N2O+
102.0464	42	C8H6+
103.0543	16	C8H7+
108.0682	2	C6H8N2+
109.0761	25	C6H9N2+
113.0711	2	C5H9N2O+
115.0543	26	C9H7+
119.0493	3	C8H7O+
122.9996	69	C7H4Cl+
124.0075	19	C7H5Cl+
125.0153	8	C7H6Cl+
128.0621	9	C10H8+
129.0448	7	C8H5N2+
129.0699	42	C10H9+
130.078	1	C10H10+
131.0491	2	C9H7O+
132.9607	7	C5H3Cl2+
136.0075	3	C8H5Cl+
137.0154	37	C8H6Cl+
138.0232	48	C8H7Cl+
139.0542	8	C11H7+
140.0618	7	C11H8+
141.0699	147	C11H9+
145.0645	3	C10H9O+
149.0153	16	C9H6Cl+
150.0233	21	C9H7Cl+
155.0602	2	C10H7N2+
158.9764	999	C7H5Cl2+
164.0387	9	C10H9Cl+
165.0101	2	C9H6ClO+
170.9765	5	C8H5Cl2+
171.9843	5	C8H6Cl2+
172.992	129	C8H7Cl2+
175.031	10	C11H8Cl+
176.0387	43	C11H9Cl+
179.0261	2	C10H8ClO+
182.9765	7	C9H5Cl2+
186.9715	4	C8H5Cl2O+
195.9842	3	C10H6Cl2+
200.9875	2	C9H7Cl2O+
203.0374	5	C11H8ClN2+
255.0091	5	C11H9Cl2N2O+
