Mass spectrum: 6-Methyl-2-thiouracil; LC-ESI-QFT; MS2; CE: 45; R=17500; [M-H]-
Name: 6-Methyl-2-thiouracil
Name: 6-methyl-2-sulfanyl-1H-pyrimidin-4-one
Formula: C5H6N2OS
Exact mass: 142.0201
SMILES: CC1=CC(=O)NC(=S)N1
InChI: InChI=1S/C5H6N2OS/c1-3-2-4(8)7-5(9)6-3/h2H,1H3,(H2,6,7,8,9)
Instrument: Q Exactive Orbitrap (Thermo Scientific)
Instrument type: LC-ESI-QFT
Ms type: MS2
Ion mode: NEGATIVE
Ionization: ESI
Fragmentation mode: HCD
Collision energy: 45
Resolution: 17500
Column name: Acquity BEH C18 1.7um, 2.1x150mm (Waters)
Retention time: 4.312 min
Base peak: 75.0088
Precursor m/z: 141.0128
Precursor type: [M-H]-
Precursor intensity: 2375914.570801
m/z	relative intensity	assigned
57.9757	999	CNS-
141.0129	72	C5H5N2OS-
