Mass spectrum: Clomazone; LC-ESI-QFT; MS2; CE: 15; R=17500; [M+H]+
Name: Clomazone
Name: 2-[(2-chlorophenyl)methyl]-4,4-dimethyl-1,2-oxazolidin-3-one
Formula: C12H14ClNO2
Exact mass: 239.0713
SMILES: CC1(C)CON(CC2=C(Cl)C=CC=C2)C1=O
InChI: InChI=1S/C12H14ClNO2/c1-12(2)8-16-14(11(12)15)7-9-5-3-4-6-10(9)13/h3-6H,7-8H2,1-2H3
Instrument: Q Exactive Orbitrap (Thermo Scientific)
Instrument type: LC-ESI-QFT
Ms type: MS2
Ion mode: POSITIVE
Ionization: ESI
Fragmentation mode: HCD
Collision energy: 15
Resolution: 17500
Column name: Acquity BEH C18 1.7um, 2.1x150mm (Waters)
Retention time: 16.986 min
Base peak: 79.0211
Precursor m/z: 240.0786
Precursor type: [M+H]+
Precursor intensity: 6413832.4375
m/z	relative intensity	assigned
73.0647	1	C4H9O+
89.0386	1	C7H5+
100.0756	6	C5H10NO+
114.055	3	C5H8NO2+
125.0153	850	C7H6Cl+
128.0706	47	C6H10NO2+
134.0964	27	C9H12N+
140.0261	2	C7H7ClN+
162.0915	2	C10H12NO+
240.0786	999	C12H15ClNO2+
