Mass spectrum: N-Phenyldiethanolamine; LC-ESI-QFT; MS2; CE: 15; R=17500; [M+H]+
Name: N-Phenyldiethanolamine
Name: 2-[N-(2-hydroxyethyl)anilino]ethanol
Formula: C10H15NO2
Exact mass: 181.1103
SMILES: OCCN(CCO)C1=CC=CC=C1
InChI: InChI=1S/C10H15NO2/c12-8-6-11(7-9-13)10-4-2-1-3-5-10/h1-5,12-13H,6-9H2
Instrument: Q Exactive Orbitrap (Thermo Scientific)
Instrument type: LC-ESI-QFT
Ms type: MS2
Ion mode: POSITIVE
Ionization: ESI
Fragmentation mode: HCD
Collision energy: 15
Resolution: 17500
Column name: Acquity BEH C18 1.7um, 2.1x150mm (Waters)
Retention time: 6.737 min
Base peak: 79.0212
Precursor m/z: 182.1176
Precursor type: [M+H]+
Precursor intensity: 4160571.5
m/z	relative intensity	assigned
94.0651	1	C6H8N+
104.0495	2	C7H6N+
106.0648	8	C7H8N+
118.0652	8	C8H8N+
119.0731	29	C8H9N+
120.0809	103	C8H10N+
131.0731	2	C9H9N+
137.0837	15	C8H11NO+
138.0915	35	C8H12NO+
146.0965	52	C10H12N+
164.1071	236	C10H14NO+
182.1177	999	C10H16NO2+
