Mass spectrum: SSR 240612; LC-ESI-QFT; MS2; CE: 90; R=17500; [M+H]+
Name: SSR 240612
Name: Ssr-240612 free base
Name: (2R)-2-[[(3R)-3-(1,3-benzodioxol-5-yl)-3-[(6-methoxynaphthalen-2-yl)sulfonylamino]propanoyl]amino]-3-[4-[[(2S,6R)-2,6-dimethylpiperidin-1-yl]methyl]phenyl]-N-methyl-N-propan-2-ylpropanamide
Formula: C42H52N4O7S
Exact mass: 756.3557
SMILES: COc1ccc2cc(S(=O)(=O)N[C@H](CC(=O)N[C@H](Cc3ccc(CN4[C@@H](C)CCC[C@H]4C)cc3)C(=O)N(C)C(C)C)c3ccc4c(c3)OCO4)ccc2c1
InChI: InChI=1S/C42H52N4O7S/c1-27(2)45(5)42(48)38(20-30-10-12-31(13-11-30)25-46-28(3)8-7-9-29(46)4)43-41(47)24-37(34-16-19-39-40(23-34)53-26-52-39)44-54(49,50)36-18-15-32-21-35(51-6)17-14-33(32)22-36/h10-19,21-23,27-29,37-38,44H,7-9,20,24-26H2,1-6H3,(H,43,47)/t28-,29+,37-,38-/m1/s1
Instrument: Q Exactive Orbitrap (Thermo Scientific)
Instrument type: LC-ESI-QFT
Ms type: MS2
Ion mode: POSITIVE
Ionization: ESI
Fragmentation mode: HCD
Collision energy: 90
Resolution: 17500
Column name: Acquity BEH C18 1.7um, 2.1x150mm (Waters)
Retention time: 15.712 min
Base peak: 79.0211
Precursor m/z: 757.3629
Precursor type: [M+H]+
Precursor intensity: 9943113.25
m/z	relative intensity	assigned
53.0022	3	C3HO+
53.0386	8	C4H5+
55.0178	1	C3H3O+
55.0542	10	C4H7+
56.0131	3	C2H2NO+
56.0495	15	C3H6N+
57.0573	22	C3H7N+
58.0287	21	C2H4NO+
58.0651	3	C3H8N+
59.0604	1	C2H7N2+
63.0228	12	C5H3+
65.0385	29	C5H5+
67.0542	2	C5H7+
70.0651	41	C4H8N+
71.0728	1	C4H9N+
72.0807	999	C4H10N+
74.0964	29	C4H12N+
77.0385	4	C6H5+
78.0465	2	C6H6+
79.0542	24	C6H7+
83.0365	9	C4H5NO+
84.0809	1	C5H10N+
85.0395	2	C3H5N2O+
87.0553	3	C3H7N2O+
89.0385	256	C7H5+
90.0465	5	C7H6+
91.0542	421	C7H7+
93.0337	1	C6H5O+
95.0491	22	C6H7O+
95.0854	1	C7H11+
96.0807	1	C6H10N+
102.0465	10	C8H6+
103.0542	77	C8H7+
104.0496	2	C7H6N+
104.062	3	C8H8+
105.0446	9	C6H5N2+
105.0699	91	C8H9+
106.0651	2	C7H8N+
107.0491	1	C7H7O+
110.0601	8	C6H8NO+
110.0963	3	C7H12N+
111.044	4	C6H7O2+
112.1121	20	C7H14N+
114.0463	3	C9H6+
115.0542	657	C9H7+
116.0621	67	C9H8+
117.0336	122	C8H5O+
117.0698	931	C9H9+
118.0412	5	C8H6O+
119.0491	12	C8H7O+
119.0853	2	C9H11+
123.0441	4	C7H7O2+
124.0757	49	C7H10NO+
125.0835	12	C7H11NO+
128.0494	3	C9H6N+
128.0619	31	C10H8+
129.0698	23	C10H9+
130.0651	46	C9H8N+
131.0492	22	C9H7O+
131.0729	22	C9H9N+
131.0852	2	C10H11+
132.0808	23	C9H10N+
133.0647	12	C9H9O+
135.044	53	C8H7O2+
137.0594	2	C8H9O2+
141.07	5	C11H9+
142.0413	119	C10H6O+
143.0491	8	C10H7O+
143.0853	1	C11H11+
144.057	11	C10H8O+
144.0809	5	C10H10N+
144.0933	2	C11H12+
145.0284	50	C9H5O2+
145.0647	59	C10H9O+
146.0964	71	C10H12N+
147.044	51	C9H7O2+
149.0597	11	C9H9O2+
150.055	9	C8H8NO2+
152.0102	1	C7H4O4+
155.0602	10	C10H7N2+
156.0805	1	C11H10N+
157.0648	13	C11H9O+
157.0887	1	C11H11N+
158.06	61	C10H8NO+
161.0595	8	C10H9O2+
163.0389	30	C9H7O3+
165.0696	3	C13H9+
171.0801	3	C12H11O+
173.0597	12	C11H9O2+
173.0834	4	C11H11NO+
174.0915	4	C11H12NO+
175.0391	12	C10H7O3+
175.0753	37	C11H11O2+
177.0548	5	C10H9O3+
178.0777	10	C14H10+
179.0853	3	C14H11+
185.0709	36	C11H9N2O+
188.1433	9	C13H18N+
189.0698	14	C15H9+
191.0855	7	C15H11+
202.0777	9	C16H10+
203.0853	6	C16H11+
217.0647	1	C16H9O+
218.0726	1	C16H10O+
219.0802	2	C16H11O+
231.0799	2	C9H15N2O3S+
247.0753	1	C17H11O2+
