Mass spectrum: Fluorometholone; LC-ESI-QFT; MS2; CE: 90; R=17500; [M+H]+
Name: Fluorometholone
Name: (6S,8S,9R,10S,11S,13S,14S,17R)-17-acetyl-9-fluoro-11,17-dihydroxy-6,10,13-trimethyl-6,7,8,11,12,14,15,16-octahydrocyclopenta[a]phenanthren-3-one
Formula: C22H29FO4
Exact mass: 376.2050
SMILES: C[C@H]1C[C@H]2[C@@H]3CC[C@](O)(C(C)=O)[C@@]3(C)C[C@H](O)[C@]2(F)[C@@]2(C)C=CC(=O)C=C12
InChI: InChI=1S/C22H29FO4/c1-12-9-17-15-6-8-21(27,13(2)24)20(15,4)11-18(26)22(17,23)19(3)7-5-14(25)10-16(12)19/h5,7,10,12,15,17-18,26-27H,6,8-9,11H2,1-4H3/t12-,15-,17-,18-,19-,20-,21-,22-/m0/s1
Instrument: Q Exactive Orbitrap (Thermo Scientific)
Instrument type: LC-ESI-QFT
Ms type: MS2
Ion mode: POSITIVE
Ionization: ESI
Fragmentation mode: HCD
Collision energy: 90
Resolution: 17500
Column name: Acquity BEH C18 1.7um, 2.1x150mm (Waters)
Retention time: 16.967 min
Base peak: 79.0212
Precursor m/z: 377.2123
Precursor type: [M+H]+
Precursor intensity: 7944908.375
m/z	relative intensity	assigned
53.0386	92	C4H5+
55.0179	22	C3H3O+
55.0542	99	C4H7+
59.0491	28	C3H7O+
65.0386	84	C5H5+
67.0542	150	C5H7+
69.0335	28	C4H5O+
69.07	12	C5H9+
79.0542	228	C6H7+
81.0336	15	C5H5O+
81.0699	67	C6H9+
91.0543	999	C7H7+
93.07	140	C7H9+
95.0492	189	C6H7O+
95.0857	61	C7H11+
103.0543	84	C8H7+
104.0619	11	C8H8+
105.0699	447	C8H9+
107.0492	87	C7H7O+
107.0856	106	C8H11+
109.0649	72	C7H9O+
111.0805	12	C7H11O+
115.0543	517	C9H7+
116.062	76	C9H8+
117.0699	211	C9H9+
119.0856	106	C9H11+
121.0649	288	C8H9O+
128.062	179	C10H8+
129.0699	132	C10H9+
130.0778	35	C10H10+
131.0492	60	C9H7O+
131.0856	52	C10H11+
132.0571	39	C9H8O+
133.065	27	C9H9O+
133.1011	47	C10H13+
135.0805	119	C9H11O+
141.0699	142	C11H9+
142.0777	137	C11H10+
143.0856	40	C11H11+
144.057	37	C10H8O+
145.0649	144	C10H9O+
145.101	25	C11H13+
146.0726	110	C10H10O+
147.0806	14	C10H11O+
152.0621	35	C12H8+
153.0701	53	C12H9+
154.0777	27	C12H10+
155.0857	57	C12H11+
156.0935	16	C12H12+
157.0648	61	C11H9O+
157.1012	20	C12H13+
158.0729	76	C11H10O+
159.0806	60	C11H11O+
160.0881	13	C11H12O+
161.096	35	C11H13O+
165.0701	135	C13H9+
166.0778	43	C13H10+
167.0855	45	C13H11+
169.065	30	C12H9O+
169.101	13	C13H13+
171.0804	33	C12H11O+
172.0882	34	C12H12O+
178.0777	97	C14H10+
179.0857	135	C14H11+
180.0927	13	C14H12+
181.0649	65	C13H9O+
181.101	23	C14H13+
182.0728	32	C13H10O+
183.0805	50	C13H11O+
185.0961	25	C13H13O+
189.07	34	C15H9+
190.0778	38	C15H10+
191.0854	55	C15H11+
192.0933	38	C15H12+
193.1014	78	C15H13+
194.0728	40	C14H10O+
195.0805	104	C14H11O+
196.0885	29	C14H12O+
197.0961	14	C14H13O+
203.0857	69	C16H11+
204.0935	25	C16H12+
205.1012	36	C16H13+
207.0806	88	C15H11O+
208.0882	67	C15H12O+
209.0961	61	C15H13O+
210.1042	13	C15H14O+
215.0857	51	C17H11+
216.0935	31	C17H12+
217.1012	42	C17H13+
219.0807	53	C16H11O+
219.1174	16	C14H16FO+
220.0884	15	C16H12O+
221.0962	115	C16H13O+
222.1039	33	C16H14O+
223.1119	15	C16H15O+
231.1167	14	C18H15+
233.0957	49	C17H13O+
234.1038	36	C17H14O+
235.1121	41	C17H15O+
245.0957	10	C18H13O+
248.1199	18	C18H16O+
249.1272	27	C18H17O+
293.1865	10	C21H25O+
