Mass spectrum: Tebuthiuron; LC-ESI-QFT; MS2; CE: 90; R=17500; [M+H]+
Name: Tebuthiuron
Name: 1-(5-tert-butyl-1,3,4-thiadiazol-2-yl)-1,3-dimethylurea
Formula: C9H16N4OS
Exact mass: 228.1045
SMILES: CNC(=O)N(C)C1=NN=C(S1)C(C)(C)C
InChI: InChI=1S/C9H16N4OS/c1-9(2,3)6-11-12-8(15-6)13(5)7(14)10-4/h1-5H3,(H,10,14)
Instrument: Q Exactive Orbitrap (Thermo Scientific)
Instrument type: LC-ESI-QFT
Ms type: MS2
Ion mode: POSITIVE
Ionization: ESI
Fragmentation mode: HCD
Collision energy: 90
Resolution: 17500
Column name: Acquity BEH C18 1.7um, 2.1x150mm (Waters)
Retention time: 15.522 min
Base peak: 79.0211
Precursor m/z: 229.1118
Precursor type: [M+H]+
Precursor intensity: 13635928.625
m/z	relative intensity	assigned
53.0023	9	C3HO+
54.0339	2	C3H4N+
55.0291	2	C2H3N2+
55.0542	13	C4H7+
56.0495	14	C3H6N+
57.0447	541	C2H5N2+
57.0699	290	C4H9+
57.9746	2	CNS+
58.0287	17	C2H4NO+
58.0652	3	C3H8N+
58.9825	2	CHNS+
58.995	47	C2H3S+
59.9902	29	CH2NS+
61.0107	5	C2H5S+
62.0059	597	CH4NS+
65.0386	17	C5H5+
67.0542	16	C5H7+
68.0493	4	C4H6N+
69.0698	9	C5H9+
70.0651	3	C4H8N+
71.0604	3	C3H7N2+
72.0808	5	C4H10N+
72.998	6	C2H3NS+
73.0106	6	C3H5S+
74.0059	726	C2H4NS+
75.0011	23	CH3N2S+
75.0262	2	C3H7S+
82.04	3	C3H4N3+
82.0651	9	C5H8N+
83.073	5	C5H9N+
84.0808	13	C5H10N+
84.9855	15	C2HN2S+
87.0262	2	C4H7S+
88.0216	30	C3H6NS+
89.0168	201	C2H5N2S+
99.0262	5	C5H7S+
100.0215	8	C4H6NS+
101.0294	4	C4H7NS+
101.042	41	C5H9S+
116.0277	999	C3H6N3S+
124.0867	5	C6H10N3+
129.0355	16	C4H7N3S+
141.0482	5	C6H9N2S+
142.0434	228	C5H8N3S+
156.059	148	C6H10N3S+
157.0669	200	C6H11N3S+
172.0903	101	C7H14N3S+
