Mass spectrum: Flubendiamide; LC-ESI-QFT; MS2; CE: 75; R=17500; [M-H]-
Name: Flubendiamide
Name: 1-N-[4-(1,1,1,2,3,3,3-heptafluoropropan-2-yl)-2-methylphenyl]-3-iodo-2-N-(2-methyl-1-methylsulfonylpropan-2-yl)benzene-1,2-dicarboxamide
Formula: C23H22F7IN2O4S
Exact mass: 682.0233
SMILES: CC1=CC(=CC=C1NC(=O)C1=CC=CC(I)=C1C(=O)NC(C)(C)CS(C)(=O)=O)C(F)(C(F)(F)F)C(F)(F)F
InChI: InChI=1S/C23H22F7IN2O4S/c1-12-10-13(21(24,22(25,26)27)23(28,29)30)8-9-16(12)32-18(34)14-6-5-7-15(31)17(14)19(35)33-20(2,3)11-38(4,36)37/h5-10H,11H2,1-4H3,(H,32,34)(H,33,35)
Instrument: Q Exactive Orbitrap (Thermo Scientific)
Instrument type: LC-ESI-QFT
Ms type: MS2
Ion mode: NEGATIVE
Ionization: ESI
Fragmentation mode: HCD
Collision energy: 75
Resolution: 17500
Column name: Acquity BEH C18 1.7um, 2.1x150mm (Waters)
Retention time: 18.117 min
Base peak: 243.1601
Precursor m/z: 681.016
Precursor type: [M-H]-
Precursor intensity: 27939218.83008
m/z	relative intensity	assigned
50.0035	9	C3N-
63.9624	101	O2S-
68.9958	16	CF3-
73.0083	7	C6H-
74.0037	5	C5N-
76.0193	138	C5H2N-
78.9859	18	CH3O2S-
79.9574	23	O3S-
92.9958	48	C3F3-
93.0015	23	C2H5O2S-
97.0085	7	C8H-
98.0037	2	C7N-
100.0007	1	C4F2N-
100.0193	13	C7H2N-
116.9958	153	C5F3-
123.0053	8	C7HF2-
124.0006	4	C6F2N-
124.0193	39	C9H2N-
126.905	999	I-
130.01	2	C8HFN-
134.0036	39	C10N-
142.0099	1	C9HFN-
143.0114	99	C7H2F3-
144.0255	17	C9H3FN-
147.0051	8	C9HF2-
154.0099	171	C10HFN-
158.0048	3	C9HFNO-
167.0114	42	C9H2F3-
185.022	5	C9H4F3O-
187.0174	8	C9H3F4-
188.0129	6	C8H2F4N-
194.0223	740	F2H15IN-
205.0282	12	C9H5F4O-
212.033	7	C10H5F3NO-
214.0285	52	F3H16IN-
271.9217	7	C8H3INO2-
