Mass spectrum: 3-Amino-4-methylbenzamide; LC-ESI-QFT; MS2; CE: 60; R=17500; [M+H]+
Name: 3-Amino-4-methylbenzamide
Formula: C8H10N2O
Exact mass: 150.0793
SMILES: CC1=C(N)C=C(C=C1)C(N)=O
InChI: InChI=1S/C8H10N2O/c1-5-2-3-6(8(10)11)4-7(5)9/h2-4H,9H2,1H3,(H2,10,11)
Instrument: Q Exactive Orbitrap (Thermo Scientific)
Instrument type: LC-ESI-QFT
Ms type: MS2
Ion mode: POSITIVE
Ionization: ESI
Fragmentation mode: HCD
Collision energy: 60
Resolution: 17500
Column name: Acquity BEH C18 1.7um, 2.1x150mm (Waters)
Retention time: 3.845 min
Base peak: 79.0211
Precursor m/z: 151.0866
Precursor type: [M+H]+
Precursor intensity: 4337996.3125
m/z	relative intensity	assigned
65.0386	3	C5H5+
66.0463	1	C5H6+
67.0542	1	C5H7+
79.0542	6	C6H7+
80.0495	1	C5H6N+
81.0699	2	C6H9+
91.0542	52	C7H7+
92.0492	1	C6H6N+
93.0574	358	C6H7N+
95.0492	1	C6H7O+
106.0652	24	C7H8N+
107.0492	1	C7H7O+
107.073	2	C7H9N+
108.0808	999	C7H10N+
109.0648	11	C7H9O+
110.0602	1	C6H8NO+
119.0605	7	C7H7N2+
124.0758	28	C7H10NO+
134.0601	49	C8H8NO+
151.0866	7	C8H11N2O+
