Mass spectrum: Carbendazim; LC-ESI-QFT; MS2; CE: 90; R=17500; [M+H]+
Name: Carbendazim
Name: methyl N-(1H-benzimidazol-2-yl)carbamate
Formula: C9H9N3O2
Exact mass: 191.0695
SMILES: COC(=O)NC1=NC2=CC=CC=C2N1
InChI: InChI=1S/C9H9N3O2/c1-14-9(13)12-8-10-6-4-2-3-5-7(6)11-8/h2-5H,1H3,(H2,10,11,12,13)
Instrument: Q Exactive Orbitrap (Thermo Scientific)
Instrument type: LC-ESI-QFT
Ms type: MS2
Ion mode: POSITIVE
Ionization: ESI
Fragmentation mode: HCD
Collision energy: 90
Resolution: 17500
Column name: Acquity BEH C18 1.7um, 2.1x150mm (Waters)
Retention time: 10.187 min
Base peak: 79.0211
Precursor m/z: 192.0768
Precursor type: [M+H]+
Precursor intensity: 23126490.21875
m/z	relative intensity	assigned
63.0229	1	C5H3+
65.0385	69	C5H5+
69.0083	1	C2HN2O+
78.0338	1	C5H4N+
80.0494	5	C5H6N+
81.0335	8	C5H5O+
90.0338	55	C6H4N+
92.0495	161	C6H6N+
105.0447	204	C6H5N2+
106.0526	10	C6H6N2+
107.0604	5	C6H7N2+
117.0446	7	C7H5N2+
118.0525	4	C7H6N2+
132.0556	576	C7H6N3+
133.0396	5	C7H5N2O+
133.0634	47	C7H7N3+
134.0713	1	C7H8N3+
135.0552	110	C7H7N2O+
159.0428	3	C8H5N3O+
160.0505	999	C8H6N3O+
