Mass spectrum: Carminic acid; LC-ESI-QFT; MS2; CE: 75; R=17500; [M-H]-
Name: Carminic acid
Name: 3,5,6,8-tetrahydroxy-1-methyl-9,10-dioxo-7-[(2S,3R,4R,5S,6R)-3,4,5-trihydroxy-6-(hydroxymethyl)oxan-2-yl]anthracene-2-carboxylic acid
Formula: C22H20O13
Exact mass: 492.0904
SMILES: CC1=C2C(=O)C3=C(C(O)=C(O)C([C@@H]4O[C@H](CO)[C@@H](O)[C@H](O)[C@H]4O)=C3O)C(=O)C2=CC(O)=C1C(O)=O
InChI: InChI=1S/C22H20O13/c1-4-8-5(2-6(24)9(4)22(33)34)13(25)10-11(15(8)27)16(28)12(18(30)17(10)29)21-20(32)19(31)14(26)7(3-23)35-21/h2,7,14,19-21,23-24,26,28-32H,3H2,1H3,(H,33,34)/t7-,14-,19+,20-,21+/m1/s1
Instrument: Q Exactive Orbitrap (Thermo Scientific)
Instrument type: LC-ESI-QFT
Ms type: MS2
Ion mode: NEGATIVE
Ionization: ESI
Fragmentation mode: HCD
Collision energy: 75
Resolution: 17500
Column name: Acquity BEH C18 1.7um, 2.1x150mm (Waters)
Retention time: 13.263 min
Base peak: 112.9857
Precursor m/z: 491.0831
Precursor type: [M-H]-
Precursor intensity: 298883.8417969
m/z	relative intensity	assigned
107.0502	122	C7H7O-
159.045	149	C10H7O2-
183.045	113	C12H7O2-
183.082	167	C13H11O-
197.0611	230	C13H9O2-
209.0609	122	C14H9O2-
212.0482	141	C13H8O3-
225.0558	382	C14H9O3-
226.0631	99	C14H10O3-
227.0353	255	C13H7O4-
227.072	202	C14H11O3-
241.0509	873	C14H9O4-
242.0579	519	C14H10O4-
253.0505	336	C15H9O4-
254.059	146	C15H10O4-
255.0296	151	C14H7O5-
269.0456	999	C15H9O5-
270.0536	673	C15H10O5-
271.0614	393	C15H11O5-
281.0454	114	C16H9O5-
298.0479	104	C16H10O6-
299.0562	157	C16H11O6-
