Mass spectrum: CP-457677; LC-ESI-QFT; MS2; CE: 60; R=17500; [M+H]+
Name: CP-457677
Name: 3-Pyridinecarboxamide, 2-(4-fluorophenoxy)-N-((4-(1-hydroxy-1-methylethyl)phenyl)methyl)-
Name: 2-(4-fluorophenoxy)-N-[[4-(2-hydroxypropan-2-yl)phenyl]methyl]pyridine-3-carboxamide
Formula: C22H21FN2O3
Exact mass: 380.1536
SMILES: CC(C)(O)C1=CC=C(CNC(=O)C2=CC=CN=C2OC2=CC=C(F)C=C2)C=C1
InChI: InChI=1S/C22H21FN2O3/c1-22(2,27)16-7-5-15(6-8-16)14-25-20(26)19-4-3-13-24-21(19)28-18-11-9-17(23)10-12-18/h3-13,27H,14H2,1-2H3,(H,25,26)
Instrument: Q Exactive Orbitrap (Thermo Scientific)
Instrument type: LC-ESI-QFT
Ms type: MS2
Ion mode: POSITIVE
Ionization: ESI
Fragmentation mode: HCD
Collision energy: 60
Resolution: 17500
Column name: Acquity BEH C18 1.7um, 2.1x150mm (Waters)
Retention time: 16.689 min
Base peak: 79.0211
Precursor m/z: 381.1609
Precursor type: [M+H]+
Precursor intensity: 7273068.75
m/z	relative intensity	assigned
53.0386	5	C4H5+
57.0335	104	C3H5O+
59.0491	8	C3H7O+
65.0386	6	C5H5+
74.0963	1	C4H12N+
77.0386	1	C6H5+
79.0542	11	C6H7+
91.0542	464	C7H7+
92.0621	2	C7H8+
93.07	7	C7H9+
95.049	1	C6H7O+
96.0444	4	C5H6NO+
103.0542	13	C8H7+
105.0699	71	C8H9+
107.0855	168	C8H11+
109.0649	7	C7H9O+
115.0542	35	C9H7+
116.0621	143	C9H8+
119.0604	5	C7H7N2+
119.0856	13	C9H11+
121.1011	12	C9H13+
123.0804	2	C8H11O+
128.0619	8	C10H8+
129.0699	97	C10H9+
130.0778	3	C10H10+
131.0856	999	C10H11+
132.0804	7	C9H10N+
133.0448	32	C9H6F+
133.0647	7	C9H9O+
134.0726	114	C9H10O+
140.0497	1	C10H6N+
143.0605	4	C9H7N2+
147.1043	4	C10H13N+
149.0961	47	C10H13O+
160.0557	31	C10H7FN+
188.0507	119	C11H7FNO+
216.0455	593	C12H7FNO2+
234.0567	5	C12H9FNO3+
