Mass spectrum: Roxithromycin; LC-ESI-QFT; MS2; CE: 30; R=17500; [M+H]+
Name: Roxithromycin
Name: (3R,4S,5S,6R,7R,9R,11S,12R,13S,14R)-6-[(2S,3R,4S,6R)-4-(dimethylamino)-3-hydroxy-6-methyloxan-2-yl]oxy-14-ethyl-7,12,13-trihydroxy-4-[(2R,4R,5S,6S)-5-hydroxy-4-methoxy-4,6-dimethyloxan-2-yl]oxy-10-(2-methoxyethoxymethoxyimino)-3,5,7,9,11,13-hexamethyl-oxacyclotetradecan-2-one
Formula: C41H76N2O15
Exact mass: 836.5246
SMILES: CC[C@H]1OC(=O)[C@H](C)[C@@H](O[C@H]2C[C@@](C)(OC)[C@@H](O)[C@H](C)O2)[C@H](C)[C@@H](O[C@@H]2O[C@H](C)C[C@@H]([C@H]2O)N(C)C)[C@](C)(O)C[C@@H](C)C(=NOCOCCOC)[C@H](C)[C@@H](O)[C@]1(C)O
InChI: InChI=1S/C41H76N2O15/c1-15-29-41(10,49)34(45)24(4)31(42-53-21-52-17-16-50-13)22(2)19-39(8,48)36(58-38-32(44)28(43(11)12)18-23(3)54-38)25(5)33(26(6)37(47)56-29)57-30-20-40(9,51-14)35(46)27(7)55-30/h22-30,32-36,38,44-46,48-49H,15-21H2,1-14H3/t22-,23-,24+,25+,26-,27+,28+,29-,30+,32-,33+,34-,35+,36-,38+,39-,40-,41-/m1/s1
Instrument: Q Exactive Orbitrap (Thermo Scientific)
Instrument type: LC-ESI-QFT
Ms type: MS2
Ion mode: POSITIVE
Ionization: ESI
Fragmentation mode: HCD
Collision energy: 30
Resolution: 17500
Column name: Acquity BEH C18 1.7um, 2.1x150mm (Waters)
Retention time: 16.237 min
Base peak: 79.0211
Precursor m/z: 837.5318
Precursor type: [M+H]+
Precursor intensity: 7732671.5
m/z	relative intensity	assigned
58.0651	3	C3H8N+
59.0491	7	C3H7O+
69.0698	1	C5H9+
70.0649	2	C4H8N+
71.0729	1	C4H9N+
72.0807	85	C4H10N+
73.0522	1	C3H7NO+
73.0648	1	C4H9O+
81.0699	4	C6H9+
83.0491	339	C5H7O+
84.0808	3	C5H10N+
85.0284	1	C4H5O2+
85.0648	1	C5H9O+
87.0441	19	C4H7O2+
88.0757	15	C4H10NO+
89.0597	4	C4H9O2+
95.0492	3	C6H7O+
97.0648	2	C6H9O+
98.0964	115	C6H12N+
99.0804	5	C6H11O+
99.1043	1	C6H13N+
100.0757	16	C5H10NO+
109.0648	2	C7H9O+
109.1011	1	C8H13+
113.0597	62	C6H9O2+
114.0914	12	C6H12NO+
115.0754	18	C6H11O2+
116.0707	166	C5H10NO2+
116.1069	337	C6H14NO+
121.1012	1	C9H13+
123.0804	5	C8H11O+
125.0961	3	C8H13O+
127.0754	28	C7H11O2+
128.107	2	C7H14NO+
140.1069	3	C8H14NO+
142.1227	7	C8H16NO+
143.1068	1	C8H15O2+
158.1175	999	C8H16NO2+
176.128	6	C8H18NO3+
180.1383	1	C11H18NO+
183.102	1	C10H15O3+
193.1222	3	C12H17O2+
210.1491	1	C12H20NO2+
211.1328	1	C12H19O3+
221.1176	3	C13H17O3+
246.1703	1	C12H24NO4+
380.2436	5	C21H34NO5+
398.254	7	C21H36NO6+
410.2545	3	C22H36NO6+
416.2653	2	C21H38NO7+
446.2751	3	C22H40NO8+
555.3654	1	C29H51N2O8+
679.4382	4	C33H63N2O12+
