Mass spectrum: Propamocarb; LC-ESI-QFT; MS2; CE: 75; R=17500; [M+H]+
Name: Propamocarb
Name: propyl N-[3-(dimethylamino)propyl]carbamate
Formula: C9H20N2O2
Exact mass: 188.1525
SMILES: CCCOC(=O)NCCCN(C)C
InChI: InChI=1S/C9H20N2O2/c1-4-8-13-9(12)10-6-5-7-11(2)3/h4-8H2,1-3H3,(H,10,12)
Instrument: Q Exactive Orbitrap (Thermo Scientific)
Instrument type: LC-ESI-QFT
Ms type: MS2
Ion mode: POSITIVE
Ionization: ESI
Fragmentation mode: HCD
Collision energy: 75
Resolution: 17500
Column name: Acquity BEH C18 1.7um, 2.1x150mm (Waters)
Retention time: 7.607 min
Base peak: 79.0212
Precursor m/z: 189.1598
Precursor type: [M+H]+
Precursor intensity: 12066802.375
m/z	relative intensity	assigned
53.0022	7	C3HO+
53.9975	1	C2NO+
56.0131	3	C2H2NO+
56.0495	3	C3H6N+
58.0651	266	C3H8N+
71.073	1	C4H9N+
74.0236	999	C2H4NO2+
84.0444	5	C4H6NO+
84.0808	4	C5H10N+
86.0964	42	C5H12N+
102.055	951	C4H8NO2+
104.0496	1	C7H6N+
106.0652	1	C7H8N+
129.1024	5	C6H13N2O+
144.1019	1	C7H14NO2+
147.0919	1	C9H11N2+
