Mass spectrum: Tembotrione; LC-ESI-QFT; MS2; CE: 75; R=17500; [M-H]-
Name: Tembotrione
Name: 2-[2-chloro-4-methylsulfonyl-3-(2,2,2-trifluoroethoxymethyl)benzoyl]cyclohexane-1,3-dione
Formula: C17H16ClF3O6S
Exact mass: 440.0308
SMILES: CS(=O)(=O)C1=C(COCC(F)(F)F)C(Cl)=C(C=C1)C(=O)C1C(=O)CCCC1=O
InChI: InChI=1S/C17H16ClF3O6S/c1-28(25,26)13-6-5-9(15(18)10(13)7-27-8-17(19,20)21)16(24)14-11(22)3-2-4-12(14)23/h5-6,14H,2-4,7-8H2,1H3
Instrument: Q Exactive Orbitrap (Thermo Scientific)
Instrument type: LC-ESI-QFT
Ms type: MS2
Ion mode: NEGATIVE
Ionization: ESI
Fragmentation mode: HCD
Collision energy: 75
Resolution: 17500
Column name: Acquity BEH C18 1.7um, 2.1x150mm (Waters)
Retention time: 16.872 min
Base peak: 291.0599
Precursor m/z: 439.0235
Precursor type: [M-H]-
Precursor intensity: 2540568.570312
m/z	relative intensity	assigned
51.0239	421	C4H3-
63.9625	215	O2S-
68.9958	613	CF3-
78.986	174	CH3O2S-
93.0346	611	C6H5O-
117.0346	251	C8H5O-
139.0553	136	C11H7-
141.0709	65	C11H9-
143.0502	278	C10H7O-
161.0245	282	C9H5O3-
169.0659	618	C12H9O-
171.0451	91	C11H7O2-
183.0452	690	C12H7O2-
183.0819	68	C13H11O-
184.053	459	C12H8O2-
185.0609	90	C12H9O2-
195.0452	157	C13H7O2-
197.0608	714	C13H9O2-
209.0603	80	C14H9O2-
211.0764	95	C14H11O2-
216.0426	285	C10H10F2OS-
223.0401	137	C14H7O3-
224.048	234	C14H8O3-
225.0558	999	C14H9O3-
226.0637	433	C14H10O3-
230.0592	56	C8H13F3O2S-
237.0554	311	C13H11F2S-
238.0637	418	C15H10O3-
270.053	133	C13H12F2O2S-
