Mass spectrum: 1-Methoxy-2-nitrobenzene; LC-ESI-QFT; MS2; CE: 90; R=17500; [M-H]-
Name: 1-Methoxy-2-nitrobenzene
Name: 2-Nitroanisole
Formula: C7H7NO3
Exact mass: 153.0426
SMILES: COC1=C(C=CC=C1)[N+]([O-])=O
InChI: InChI=1S/C7H7NO3/c1-11-7-5-3-2-4-6(7)8(9)10/h2-5H,1H3
Instrument: Q Exactive Orbitrap (Thermo Scientific)
Instrument type: LC-ESI-QFT
Ms type: MS2
Ion mode: NEGATIVE
Ionization: ESI
Fragmentation mode: HCD
Collision energy: 90
Resolution: 17500
Column name: Acquity BEH C18 1.7um, 2.1x150mm (Waters)
Retention time: 14.758 min
Base peak: 152.0021
Precursor m/z: 152.0353
Precursor type: [M-H]-
Precursor intensity: 29672115.12109
m/z	relative intensity	assigned
88.0193	999	C6H2N-
104.0141	2	C6H2NO-
