Mass spectrum: Epoxiconazole; LC-ESI-QFT; MS2; CE: 45; R=17500; [M+H]+
Name: Epoxiconazole
Name: 1-[[3-(2-chlorophenyl)-2-(4-fluorophenyl)oxiran-2-yl]methyl]-1,2,4-triazole
Formula: C17H13ClFN3O
Exact mass: 329.0731
SMILES: FC1=CC=C(C=C1)C1(CN2C=NC=N2)OC1C1=C(Cl)C=CC=C1
InChI: InChI=1S/C17H13ClFN3O/c18-15-4-2-1-3-14(15)16-17(23-16,9-22-11-20-10-21-22)12-5-7-13(19)8-6-12/h1-8,10-11,16H,9H2
Instrument: Q Exactive Orbitrap (Thermo Scientific)
Instrument type: LC-ESI-QFT
Ms type: MS2
Ion mode: POSITIVE
Ionization: ESI
Fragmentation mode: HCD
Collision energy: 45
Resolution: 17500
Column name: Acquity BEH C18 1.7um, 2.1x150mm (Waters)
Retention time: 18.034 min
Base peak: 79.0212
Precursor m/z: 330.0804
Precursor type: [M+H]+
Precursor intensity: 15481818.375
m/z	relative intensity	assigned
70.0399	107	C2H4N3+
75.0227	3	CH2FN3+
77.0385	2	C6H5+
91.0542	9	C7H7+
95.0288	1	C6H4F+
95.0491	3	C6H7O+
101.0385	3	C8H5+
105.0447	1	C6H5N2+
109.0447	3	C7H6F+
113.0152	11	C6H6Cl+
113.0398	5	C6H6FO+
119.0492	7	C8H7O+
121.0448	999	C8H6F+
123.0239	232	C7H4FO+
129.0447	34	C8H5N2+
137.0155	1	C8H6Cl+
138.9944	14	C7H4ClO+
141.0101	71	C7H6ClO+
190.0773	1	C10H9FN3+
198.0841	1	C14H11F+
231.0372	1	C14H9ClF+
