Mass spectrum: CP-114271; LC-ESI-QFT; MS2; CE: 45; R=17500; [M+H]+
Name: CP-114271
Name: 2-[4-[2-[[2-hydroxy-2-[2-(trifluoromethyl)-1,3-thiazol-4-yl]ethyl]amino]propyl]phenoxy]acetic acid
Formula: C17H19F3N2O4S
Exact mass: 404.1018
SMILES: CC(CC1=CC=C(OCC(O)=O)C=C1)NCC(O)C1=CSC(=N1)C(F)(F)F
InChI: InChI=1S/C17H19F3N2O4S/c1-10(6-11-2-4-12(5-3-11)26-8-15(24)25)21-7-14(23)13-9-27-16(22-13)17(18,19)20/h2-5,9-10,14,21,23H,6-8H2,1H3,(H,24,25)
Instrument: Q Exactive Orbitrap (Thermo Scientific)
Instrument type: LC-ESI-QFT
Ms type: MS2
Ion mode: POSITIVE
Ionization: ESI
Fragmentation mode: HCD
Collision energy: 45
Resolution: 17500
Column name: Acquity BEH C18 1.7um, 2.1x150mm (Waters)
Retention time: 13.776 min
Base peak: 79.0211
Precursor m/z: 405.109
Precursor type: [M+H]+
Precursor intensity: 21466775.25
m/z	relative intensity	assigned
53.0387	1	C4H5+
55.0179	3	C3H3O+
65.0387	1	C5H5+
67.0416	1	C4H5N+
69.0335	1	C4H5O+
77.0386	1	C6H5+
78.0463	1	C6H6+
79.0541	5	C6H7+
90.0462	1	C7H6+
91.0542	291	C7H7+
93.07	2	C7H9+
95.0492	3	C6H7O+
100.0215	4	C4H6NS+
103.0542	2	C8H7+
105.0335	9	C7H5O+
105.0448	1	C6H5N2+
105.0699	15	C8H9+
107.0491	156	C7H7O+
115.0542	37	C9H7+
116.0621	1	C9H8+
117.0699	43	C9H9+
119.0855	321	C9H11+
128.062	2	C10H8+
129.0698	16	C10H9+
132.057	11	C9H8O+
133.0648	7	C9H9O+
134.0726	21	C9H10O+
135.0804	93	C9H11O+
136.0365	2	C2H10F2O2S+
137.0598	3	C8H9O2+
145.0649	6	C10H9O+
145.0761	67	C9H9N2+
147.0804	999	C10H11O+
165.0546	781	C9H9O3+
175.0137	1	C6H5F2N2S+
179.1065	8	C11H15O2+
193.0859	453	C11H13O3+
195.0198	38	C6H6F3N2S+
