Mass spectrum: Clomipramine; LC-ESI-QFT; MS2; CE: 45; R=17500; [M+H]+
Name: Clomipramine
Name: 3-(2-chloro-5,6-dihydrobenzo[b][1]benzazepin-11-yl)-N,N-dimethylpropan-1-amine
Formula: C19H23ClN2
Exact mass: 314.1550
SMILES: CN(C)CCCN1C2=CC(Cl)=CC=C2CCC2=C1C=CC=C2
InChI: InChI=1S/C19H23ClN2/c1-21(2)12-5-13-22-18-7-4-3-6-15(18)8-9-16-10-11-17(20)14-19(16)22/h3-4,6-7,10-11,14H,5,8-9,12-13H2,1-2H3
Instrument: Q Exactive Orbitrap (Thermo Scientific)
Instrument type: LC-ESI-QFT
Ms type: MS2
Ion mode: POSITIVE
Ionization: ESI
Fragmentation mode: HCD
Collision energy: 45
Resolution: 17500
Column name: Acquity BEH C18 1.7um, 2.1x150mm (Waters)
Retention time: 16.241 min
Base peak: 79.0211
Precursor m/z: 315.1623
Precursor type: [M+H]+
Precursor intensity: 29522018.75
m/z	relative intensity	assigned
56.0495	3	C3H6N+
58.0651	628	C3H8N+
71.0729	4	C4H9N+
86.0964	999	C5H12N+
207.1042	3	C15H13N+
220.112	9	C16H14N+
227.0495	12	C14H10ClN+
234.1274	2	C17H16N+
235.1355	14	C17H17N+
242.073	73	C15H13ClN+
270.1043	15	C17H17ClN+
