Mass spectrum: Tembotrione; LC-ESI-QFT; MS2; CE: 60; R=17500; [M-H]-
Name: Tembotrione
Name: 2-[2-chloro-4-methylsulfonyl-3-(2,2,2-trifluoroethoxymethyl)benzoyl]cyclohexane-1,3-dione
Formula: C17H16ClF3O6S
Exact mass: 440.0308
SMILES: CS(=O)(=O)C1=C(COCC(F)(F)F)C(Cl)=C(C=C1)C(=O)C1C(=O)CCCC1=O
InChI: InChI=1S/C17H16ClF3O6S/c1-28(25,26)13-6-5-9(15(18)10(13)7-27-8-17(19,20)21)16(24)14-11(22)3-2-4-12(14)23/h5-6,14H,2-4,7-8H2,1H3
Instrument: Q Exactive Orbitrap (Thermo Scientific)
Instrument type: LC-ESI-QFT
Ms type: MS2
Ion mode: NEGATIVE
Ionization: ESI
Fragmentation mode: HCD
Collision energy: 60
Resolution: 17500
Column name: Acquity BEH C18 1.7um, 2.1x150mm (Waters)
Retention time: 16.872 min
Base peak: 291.0599
Precursor m/z: 439.0235
Precursor type: [M-H]-
Precursor intensity: 1976092.03125
m/z	relative intensity	assigned
51.024	26	C4H3-
63.9625	45	O2S-
68.9958	101	CF3-
78.986	76	CH3O2S-
93.0347	145	C6H5O-
117.0348	27	C8H5O-
141.0706	36	C11H9-
143.0503	57	C10H7O-
161.0246	121	C9H5O3-
169.0659	165	C12H9O-
171.045	46	C11H7O2-
183.045	57	C12H7O2-
185.0607	63	C12H9O2-
195.0818	97	C14H11O-
197.061	410	C13H9O2-
209.0609	51	C14H9O2-
211.0764	90	C14H11O2-
213.0556	175	C13H9O3-
216.0426	36	C10H10F2OS-
224.0477	110	C12H10F2S-
225.0558	280	C14H9O3-
226.0637	999	C14H10O3-
237.0554	60	C13H11F2S-
238.0635	180	C15H10O3-
239.0714	202	C15H11O3-
240.0793	90	C15H12O3-
258.0534	913	C14H10O5-
270.0531	91	C13H12F2O2S-
271.0076	57	C14H7O4S-
