Mass spectrum: Physostigmine; LC-ESI-QFT; MS2; CE: 75; R=17500; [M+H]+
Name: Physostigmine
Name: [(3aR,8bS)-3,4,8b-trimethyl-2,3a-dihydro-1H-pyrrolo[2,3-b]indol-7-yl] N-methylcarbamate
Formula: C15H21N3O2
Exact mass: 275.1634
SMILES: CNC(=O)OC1=CC2=C(C=C1)N(C)[C@H]1N(C)CC[C@@]21C
InChI: InChI=1S/C15H21N3O2/c1-15-7-8-17(3)13(15)18(4)12-6-5-10(9-11(12)15)20-14(19)16-2/h5-6,9,13H,7-8H2,1-4H3,(H,16,19)/t13-,15+/m1/s1
Instrument: Q Exactive Orbitrap (Thermo Scientific)
Instrument type: LC-ESI-QFT
Ms type: MS2
Ion mode: POSITIVE
Ionization: ESI
Fragmentation mode: HCD
Collision energy: 75
Resolution: 17500
Column name: Acquity BEH C18 1.7um, 2.1x150mm (Waters)
Retention time: 10.625 min
Base peak: 79.0211
Precursor m/z: 276.1707
Precursor type: [M+H]+
Precursor intensity: 11289050.375
m/z	relative intensity	assigned
56.0495	10	C3H6N+
58.0651	11	C3H8N+
91.0542	11	C7H7+
93.0699	13	C7H9+
94.0651	2	C6H8N+
95.0493	2	C6H7O+
95.0729	4	C6H9N+
103.0542	10	C8H7+
105.0697	6	C8H9+
107.0491	4	C7H7O+
115.0542	3	C9H7+
117.0698	8	C9H9+
118.0652	4	C8H8N+
119.0729	3	C8H9N+
119.0853	3	C9H11+
121.0648	39	C8H9O+
128.0622	3	C10H8+
130.065	3	C9H8N+
131.0492	8	C9H7O+
133.0519	4	C8H7NO+
133.065	4	C9H9O+
134.06	7	C8H8NO+
134.0964	85	C9H12N+
144.0808	23	C10H10N+
145.0647	8	C10H9O+
145.0885	20	C10H11N+
146.0601	124	C9H8NO+
147.0679	999	C9H9NO+
148.0756	4	C9H10NO+
148.1119	2	C10H14N+
159.1043	3	C11H13N+
160.0758	95	C10H10NO+
160.1119	15	C11H14N+
161.0836	343	C10H11NO+
162.0913	677	C10H12NO+
172.0757	34	C11H10NO+
173.0836	184	C11H11NO+
176.1071	113	C11H14NO+
188.1071	119	C12H14NO+
