Mass spectrum: Chloranocryl; LC-ESI-QFT; MS2; CE: 30; R=17500; [M-H]-
Name: Chloranocryl
Name: N-(3,4-dichlorophenyl)-2-methylprop-2-enamide
Formula: C10H9Cl2NO
Exact mass: 229.0061
SMILES: CC(=C)C(=O)NC1=CC=C(Cl)C(Cl)=C1
InChI: InChI=1S/C10H9Cl2NO/c1-6(2)10(14)13-7-3-4-8(11)9(12)5-7/h3-5H,1H2,2H3,(H,13,14)
Instrument: Q Exactive Orbitrap (Thermo Scientific)
Instrument type: LC-ESI-QFT
Ms type: MS2
Ion mode: NEGATIVE
Ionization: ESI
Fragmentation mode: HCD
Collision energy: 30
Resolution: 17500
Column name: Acquity BEH C18 1.7um, 2.1x150mm (Waters)
Retention time: 17.863 min
Base peak: 227.999
Precursor m/z: 227.9988
Precursor type: [M-H]-
Precursor intensity: 43095855.59082
m/z	relative intensity	assigned
55.0189	49	C3H3O-
70.9461	1	Cl2H-
149.9752	1	C7HClNO-
156.0456	31	C10H6NO-
159.9726	4	C6H4Cl2N-
160.9567	7	C6H3Cl2O-
176.9988	1	C9H4ClNO-
185.9519	23	C7H2Cl2NO-
190.0066	5	C10H5ClNO-
192.0222	8	C10H7ClNO-
197.9886	1	C9H6Cl2N-
200.0038	2	C9H8Cl2N-
209.9884	1	C10H6Cl2N-
211.9676	1	C9H4Cl2NO-
211.9806	1	C10H6Cl2O-
212.9753	4	C9H5Cl2NO-
225.9834	26	C10H6Cl2NO-
227.9989	999	C10H8Cl2NO-
