Mass spectrum: Leucomalachite green; LC-ESI-QFT; MS2; CE: 30; R=17500; [M+H]+
Name: Leucomalachite green
Name: 4-[[4-(dimethylamino)phenyl]-phenylmethyl]-N,N-dimethylaniline
Formula: C23H26N2
Exact mass: 330.2096
SMILES: CN(C)C1=CC=C(C=C1)C(C1=CC=CC=C1)C1=CC=C(C=C1)N(C)C
InChI: InChI=1S/C23H26N2/c1-24(2)21-14-10-19(11-15-21)23(18-8-6-5-7-9-18)20-12-16-22(17-13-20)25(3)4/h5-17,23H,1-4H3
Instrument: Q Exactive Orbitrap (Thermo Scientific)
Instrument type: LC-ESI-QFT
Ms type: MS2
Ion mode: POSITIVE
Ionization: ESI
Fragmentation mode: HCD
Collision energy: 30
Resolution: 17500
Column name: Acquity BEH C18 1.7um, 2.1x150mm (Waters)
Retention time: 16.907 min
Base peak: 79.0211
Precursor m/z: 331.2169
Precursor type: [M+H]+
Precursor intensity: 34177809.25
m/z	relative intensity	assigned
121.0886	1	C8H11N+
134.0963	1	C9H12N+
195.1042	8	C14H13N+
196.112	3	C14H14N+
209.1199	11	C15H15N+
210.1276	8	C15H16N+
238.1461	2	C16H18N2+
239.1542	140	C16H19N2+
253.17	1	C17H21N2+
272.1433	14	C20H18N+
286.1588	7	C21H20N+
301.1704	2	C21H21N2+
315.1856	32	C22H23N2+
316.1934	413	C22H24N2+
330.2071	1	C23H26N2+
331.216	999	C23H27N2+
