Mass spectrum: Penoxsulam; LC-ESI-QFT; MS2; CE: 75; R=17500; [M+H]+
Name: Penoxsulam
Name: 2-(2,2-difluoroethoxy)-N-(5,8-dimethoxy-[1,2,4]triazolo[1,5-c]pyrimidin-2-yl)-6-(trifluoromethyl)benzenesulfonamide
Formula: C16H14F5N5O5S
Exact mass: 483.0636
SMILES: COC1=CN=C(OC)N2N=C(NS(=O)(=O)C3=C(C=CC=C3OCC(F)F)C(F)(F)F)N=C12
InChI: InChI=1S/C16H14F5N5O5S/c1-29-10-6-22-15(30-2)26-13(10)23-14(24-26)25-32(27,28)12-8(16(19,20)21)4-3-5-9(12)31-7-11(17)18/h3-6,11H,7H2,1-2H3,(H,24,25)
Instrument: Q Exactive Orbitrap (Thermo Scientific)
Instrument type: LC-ESI-QFT
Ms type: MS2
Ion mode: POSITIVE
Ionization: ESI
Fragmentation mode: HCD
Collision energy: 75
Resolution: 17500
Column name: Acquity BEH C18 1.7um, 2.1x150mm (Waters)
Retention time: 15.597 min
Base peak: 79.0211
Precursor m/z: 484.0709
Precursor type: [M+H]+
Precursor intensity: 13788358.5
m/z	relative intensity	assigned
52.0182	96	C3H2N+
53.0136	3	C2HN2+
53.026	19	C3H3N+
53.0386	10	C4H5+
53.9975	63	C2NO+
54.0338	129	C3H4N+
55.0179	13	C3H3O+
55.029	34	C2H3N2+
55.0417	16	C3H5N+
56.0131	17	C2H2NO+
56.037	8	C2H4N2+
56.0495	46	C3H6N+
57.0209	35	C2H3NO+
57.0321	11	CH3N3+
57.0447	39	C2H5N2+
58.0288	33	C2H4NO+
58.04	43	CH4N3+
59.0479	4	CH5N3+
60.0444	8	C2H6NO+
64.0183	5	C4H2N+
65.0134	26	C3HN2+
65.0197	27	C2H3F2+
65.0259	16	C4H3N+
65.0385	4	C5H5+
66.0212	11	C3H2N2+
66.0338	32	C4H4N+
67.029	131	C3H3N2+
67.0416	15	C4H5N+
68.013	34	C3H2NO+
68.0243	16	C2H2N3+
68.0369	66	C3H4N2+
68.0494	70	C4H6N+
69.0083	23	C2HN2O+
69.0447	300	C3H5N2+
70.0287	435	C3H4NO+
71.0128	5	C3H3O2+
71.024	9	C2H3N2O+
71.0478	8	C2H5N3+
72.0444	9	C3H6NO+
73.0395	3	C2H5N2O+
74.0963	7	C4H12N+
75.0229	5	C6H3+
79.0291	268	C4H3N2+
80.0131	20	C4H2NO+
80.0369	69	C4H4N2+
81.0319	17	C3H3N3+
81.0447	218	C4H5N2+
82.0162	11	C3H2N2O+
82.0287	36	C4H4NO+
82.0399	35	C3H4N3+
82.0524	16	C4H6N2+
83.0001	50	C3HNO2+
83.024	64	C3H3N2O+
83.0604	255	C4H7N2+
84.0192	174	C2H2N3O+
84.0318	18	C3H4N2O+
84.0444	33	C4H6NO+
85.0396	10	C3H5N2O+
85.0508	18	C2H5N4+
86.0237	9	C3H4NO2+
88.0393	54	C3H6NO2+
90.0338	7	C6H4N+
91.0291	4	C5H3N2+
91.0416	6	C6H5N+
92.0245	12	CH4F4+
92.0369	62	C5H4N2+
93.0083	4	C4HN2O+
93.0321	7	C4H3N3+
93.0447	86	C5H5N2+
94.0288	22	C5H4NO+
94.04	174	C4H4N3+
94.995	9	C5H3S+
95.024	94	C4H3N2O+
95.0477	43	C4H5N3+
95.0604	170	C5H7N2+
96.0318	18	C4H4N2O+
96.0444	16	C5H6NO+
96.0556	136	C4H6N3+
97.0397	551	C4H5N2O+
97.0508	44	C3H5N4+
98.0235	16	C4H4NO2+
98.035	13	F4H6O+
98.0474	8	C4H6N2O+
99.0552	4	C4H7N2O+
99.0666	31	F4H9N+
101.0197	56	C5H3F2+
105.0333	16	C2H4FN3O+
105.0447	10	C6H5N2+
107.0128	14	C6H3O2+
107.024	271	C5H3N2O+
108.043	999	C4H4N4+
109.0272	223	CH5F4O+
109.0397	437	C5H5N2O+
109.0508	236	C4H5N4+
110.011	8	C4H2N2O2+
110.0236	13	C5H4NO2+
110.0349	104	C4H4N3O+
110.0475	42	C5H6N2O+
110.0586	21	C4H6N4+
111.0189	26	C4H3N2O2+
111.0553	517	C5H7N2O+
111.0664	45	C4H7N4+
112.0268	50	C4H4N2O2+
113.0346	8	C4H5N2O2+
115.0615	181	C3H7N4O+
116.0454	7	C3H6N3O2+
118.0286	27	C2H3FN4O+
119.0353	23	C2H5F4N+
120.0437	3	C2H5FN4O+
120.0557	13	C3H8F4+
121.0033	10	C5HN2O2+
121.0321	4	C7H4FN+
121.0398	19	C6H5N2O+
121.0509	58	C5H5N4+
122.0349	95	C5H4N3O+
122.0585	18	CH11FO5+
122.9899	35	C6H3OS+
123.0189	5	C5H3N2O2+
123.0302	6	CH5F4NO+
123.0352	4	C6H4FN2+
123.0427	47	C5H5N3O+
123.054	36	CH7F4N2+
124.0268	548	C5H4N2O2+
124.0506	635	C5H6N3O+
124.0616	154	FH11NO5+
125.0346	264	C5H5N2O2+
125.0457	69	C4H5N4O+
125.0583	77	C5H7N3O+
126.0661	21	C5H8N3O+
127.0357	31	C7H5F2+
127.0501	24	C5H7N2O2+
127.0616	21	CH9F4NO+
129.0294	12	C4H5N2O3+
129.0405	82	C3H5N4O2+
129.0771	6	C4H9N4O+
130.0227	6	C6H4F2O+
130.0401	10	C4H6F4+
132.0181	47	C6H3F3+
133.026	7	C6H4F3+
134.0347	4	C6H4N3O+
135.0439	26	C3H6FN3O2+
135.0665	116	C6H7N4+
136.0618	963	C2H8F4N2+
137.0217	6	C5H3N3O2+
137.0345	13	C6H5N2O2+
137.0459	48	C2H7F4NO+
137.0584	11	C3H9F4O+
138.0299	7	C2H6F4O2+
138.0534	4	C5H6N4O+
138.0664	16	C3H10F4O+
139.0502	689	C6H7N2O2+
140.0217	7	C5H4N2O3+
141.0146	10	C7H3F2O+
143.046	6	F3H10N2OS+
143.0563	109	C4H7N4O2+
145.026	21	C7H4F3+
145.0395	11	F5H6N2O+
147.0354	6	C8H4FN2+
148.0504	11	C7H6N3O+
148.0617	56	C6H6N5+
149.0346	50	C7H5N2O2+
149.0456	34	F3H12O3S+
150.035	4	C8H5FNO+
150.0409	43	C5H4N5O+
150.0468	5	CH11FN2O3S+
151.0166	66	C6H3F4+
151.0489	212	C2H7F4N2O+
152.0455	552	C3H8F4O2+
152.0562	182	C5H6N5O+
153.0532	59	C6H7N3O2+
153.0774	3	C3H11F4NO+
153.9943	13	C4H2N4OS+
154.04	5	C9H4N3+
154.061	64	C6H8N3O2+
155.0325	92	C8H8FS+
155.0454	9	C6H7N2O3+
156.0558	8	C6H8F4+
157.0476	7	C3H9F2N3S+
158.0175	6	C7H4F2O2+
160.0129	26	C2H2F4N3O+
161.0276	5	C3H10FO4S+
161.0347	14	C8H5N2O2+
162.0411	4	C3H6F4N2O+
164.0567	343	C6H6N5O+
165.0529	5	C7H7N3O2+
165.0646	90	C3H9F4N2O+
166.0723	599	C6H8N5O+
170.0348	4	CH5F5N3O+
171.0362	4	C2H4F3N5O+
175.0301	3	C9H4FN2O+
176.0565	69	C7H6N5O+
177.0321	20	C11H3N3+
177.0405	8	C7H5N4O2+
177.0646	46	C4H9F4N2O+
178.0724	9	C4H10F4N2O+
179.0251	6	C8H4FN2O2+
180.0516	241	C6H6N5O2+
181.0332	7	C4H4F3N4O+
181.0413	7	C2H12FNO5S+
185.0434	6	C3H9F4O4+
188.0496	3	C14H6N+
188.9823	3	C4H4F3O3S+
194.0673	538	C4H10F4N2O2+
195.0752	125	C4H11F4N2O2+
200.0693	11	C7H10F4NO+
201.0157	7	CH4F5N3O3+
203.0363	4	C9H4FN4O+
205.0607	4	C2H10F5N2O3+
212.0237	7	C3H8F4N2O2S+
215.0564	16	C7H9F4NO2+
217.052	4	C10H6FN4O+
228.0441	14	C11H5FN4O+
231.0311	11	C10H4FN4O2+
240.0185	51	C7H6N5O3S+
243.0553	7	C16H7N2O+
254.0676	8	C9H10F4N2O2+
257.0465	6	C6H13F4O4S+
298.0733	12	C14H9FN5O2+
