Mass spectrum: Biotin; LC-ESI-QFT; MS2; CE: 60; R=17500; [M-H]-
Name: Biotin
Name: 5-[(3aS,4S,6aR)-2-oxo-1,3,3a,4,6,6a-hexahydrothieno[3,4-d]imidazol-4-yl]pentanoic acid
Formula: C10H16N2O3S
Exact mass: 244.0882
SMILES: OC(=O)CCCC[C@@H]1SC[C@@H]2NC(=O)N[C@H]12
InChI: InChI=1S/C10H16N2O3S/c13-8(14)4-2-1-3-7-9-6(5-16-7)11-10(15)12-9/h6-7,9H,1-5H2,(H,13,14)(H2,11,12,15)/t6-,7-,9-/m0/s1
Instrument: Q Exactive Orbitrap (Thermo Scientific)
Instrument type: LC-ESI-QFT
Ms type: MS2
Ion mode: NEGATIVE
Ionization: ESI
Fragmentation mode: HCD
Collision energy: 60
Resolution: 17500
Column name: Acquity BEH C18 1.7um, 2.1x150mm (Waters)
Retention time: 11.886 min
Base peak: 243.0807
Precursor m/z: 243.0809
Precursor type: [M-H]-
Precursor intensity: 8481371.204346
m/z	relative intensity	assigned
52.0192	84	C3H2N-
58.9961	42	C2H3S-
59.0138	210	C2H3O2-
59.0251	211	CH3N2O-
63.9624	34	O2S-
68.0142	231	C3H2NO-
68.0506	999	C4H6N-
71.9914	389	C2H2NS-
72.9992	104	C2H3NS-
74.007	936	C2H4NS-
82.0172	77	C3H2N2O-
82.0662	91	C5H8N-
83.025	110	C3H3N2O-
85.0118	92	C4H5S-
94.0662	67	C6H8N-
95.0251	904	C4H3N2O-
97.0409	168	C4H5N2O-
97.066	135	C6H9O-
99.0148	51	C4H5NS-
101.043	32	C5H9S-
103.0587	547	C5H11S-
109.0407	48	C5H5N2O-
110.0974	37	C7H12N-
111.0453	34	C6H7O2-
111.0564	184	C5H7N2O-
120.0819	135	C8H10N-
122.0976	675	C8H12N-
123.0564	67	C6H7N2O-
124.0766	44	C7H10NO-
130.0695	229	C6H12NS-
136.0766	73	C8H10NO-
139.0588	734	C8H11S-
140.0718	52	C7H10NO2-
148.0767	27	C9H10NO-
152.0717	75	C8H10NO2-
153.1033	310	C8H13N2O-
154.0875	298	C8H12NO2-
156.0853	641	C8H14NS-
165.1032	100	C9H13N2O-
166.0875	616	C9H12NO2-
179.0828	116	C9H11N2O2-
191.082	32	C10H11N2O2-
197.0928	83	C9H13N2O3-
200.0751	258	C9H14NO2S-
