Mass spectrum: Topramezone; LC-ESI-QFT; MS2; CE: 30; R=17500; [M-H]-
Name: Topramezone
Formula: C16H17N3O5S
Exact mass: 363.0889
SMILES: CN1N=CC(C(=O)C2=C(C)C(C3=NOCC3)=C(C=C2)S(C)(=O)=O)=C1O
InChI: InChI=1S/C16H17N3O5S/c1-9-10(15(20)11-8-17-19(2)16(11)21)4-5-13(25(3,22)23)14(9)12-6-7-24-18-12/h4-5,8,21H,6-7H2,1-3H3
Instrument: Q Exactive Orbitrap (Thermo Scientific)
Instrument type: LC-ESI-QFT
Ms type: MS2
Ion mode: NEGATIVE
Ionization: ESI
Fragmentation mode: HCD
Collision energy: 30
Resolution: 17500
Column name: Acquity BEH C18 1.7um, 2.1x150mm (Waters)
Retention time: 12.785 min
Base peak: 200.0387
Precursor m/z: 362.0816
Precursor type: [M-H]-
Precursor intensity: 500510.6850586
m/z	relative intensity	assigned
78.986	51	CH3O2S-
97.0406	21	C4H5N2O-
130.066	22	C9H8N-
147.0323	16	C8H5NO2-
194.0281	173	C9H8NO2S-
254.0937	17	C14H12N3O2-
282.0887	17	C15H12N3O3-
318.0553	503	C14H12N3O4S-
332.0715	48	C15H14N3O4S-
334.0505	880	C14H12N3O5S-
362.0817	999	C16H16N3O5S-
