Mass spectrum: Napropamide; LC-ESI-QFT; MS2; CE: 45; R=17500; [M+H]+
Name: Napropamide
Name: N,N-diethyl-2-naphthalen-1-yloxypropanamide
Formula: C17H21NO2
Exact mass: 271.1572
SMILES: CCN(CC)C(=O)C(C)OC1=C2C=CC=CC2=CC=C1
InChI: InChI=1S/C17H21NO2/c1-4-18(5-2)17(19)13(3)20-16-12-8-10-14-9-6-7-11-15(14)16/h6-13H,4-5H2,1-3H3
Instrument: Q Exactive Orbitrap (Thermo Scientific)
Instrument type: LC-ESI-QFT
Ms type: MS2
Ion mode: POSITIVE
Ionization: ESI
Fragmentation mode: HCD
Collision energy: 45
Resolution: 17500
Column name: Acquity BEH C18 1.7um, 2.1x150mm (Waters)
Retention time: 18.023 min
Base peak: 79.0211
Precursor m/z: 272.1645
Precursor type: [M+H]+
Precursor intensity: 35247521.5
m/z	relative intensity	assigned
55.0178	6	C3H3O+
57.0334	18	C3H5O+
58.0651	374	C3H8N+
72.0443	23	C3H6NO+
72.0807	225	C4H10N+
73.0885	5	C4H11N+
74.0963	207	C4H12N+
86.06	10	C4H8NO+
100.0756	175	C5H10NO+
100.112	51	C6H14N+
101.0835	57	C5H11NO+
114.0913	228	C6H12NO+
115.0543	3	C9H7+
128.062	17	C10H8+
128.1069	61	C7H14NO+
129.1147	309	C7H15NO+
141.0705	1	C11H9+
143.0855	97	C11H11+
144.0571	5	C10H8O+
145.0647	3	C10H9O+
152.0619	1	C12H8+
153.0698	35	C12H9+
171.0803	999	C12H11O+
199.0753	68	C13H11O2+
272.1654	1	C17H22NO2+
