Mass spectrum: 4`-Sulfamylacetanilide; LC-ESI-QFT; MS2; CE: 60; R=17500; [M+H]+
Name: 4'-Sulfamylacetanilide
Name: 4-Acetamidobenzenesulfonamide
Name: N-(4-sulfamoylphenyl)acetamide
Formula: C8H10N2O3S
Exact mass: 214.0412
SMILES: CC(=O)NC1=CC=C(C=C1)S(N)(=O)=O
InChI: InChI=1S/C8H10N2O3S/c1-6(11)10-7-2-4-8(5-3-7)14(9,12)13/h2-5H,1H3,(H,10,11)(H2,9,12,13)
Instrument: Q Exactive Orbitrap (Thermo Scientific)
Instrument type: LC-ESI-QFT
Ms type: MS2
Ion mode: POSITIVE
Ionization: ESI
Fragmentation mode: HCD
Collision energy: 60
Resolution: 17500
Column name: Acquity BEH C18 1.7um, 2.1x150mm (Waters)
Retention time: 8.299 min
Base peak: 79.0212
Precursor m/z: 215.0485
Precursor type: [M+H]+
Precursor intensity: 1549891.46875
m/z	relative intensity	assigned
61.0107	9	C2H5S+
65.0386	161	C5H5+
66.0464	5	C5H6+
79.0213	50	C2H7OS+
79.9802	7	H2NO2S+
92.0495	25	C6H6N+
93.0336	73	C6H5O+
93.0574	999	C6H7N+
94.0652	241	C6H8N+
95.0493	2	C6H7O+
106.0651	7	C7H8N+
108.0445	100	C6H6NO+
110.0601	17	C6H8NO+
111.0439	3	C6H7O2+
134.0601	102	C8H8NO+
135.068	11	C8H9NO+
136.0758	76	C8H10NO+
153.9596	9	C5NO3S+
156.0115	7	C6H6NO2S+
173.0383	3	C6H9N2O2S+
198.0225	5	C8H8NO3S+
