Mass spectrum: N-methyl-alpha-phenylbenzeneacetamide; LC-ESI-QFT; MS2; CE: 15; R=17500; [M+H]+
Name: N-methyl-alpha-phenylbenzeneacetamide
Name: N-methyl-2,2-diphenylacetamide
Formula: C15H15NO
Exact mass: 225.1154
SMILES: CNC(=O)C(C1=CC=CC=C1)C1=CC=CC=C1
InChI: InChI=1S/C15H15NO/c1-16-15(17)14(12-8-4-2-5-9-12)13-10-6-3-7-11-13/h2-11,14H,1H3,(H,16,17)
Instrument: Q Exactive Orbitrap (Thermo Scientific)
Instrument type: LC-ESI-QFT
Ms type: MS2
Ion mode: POSITIVE
Ionization: ESI
Fragmentation mode: HCD
Collision energy: 15
Resolution: 17500
Column name: Acquity BEH C18 1.7um, 2.1x150mm (Waters)
Retention time: 16.084 min
Base peak: 79.0212
Precursor m/z: 226.1226
Precursor type: [M+H]+
Precursor intensity: 32403785
m/z	relative intensity	assigned
91.0541	3	C7H7+
120.0808	404	C8H10N+
148.0757	178	C9H10NO+
165.071	1	C13H9+
167.0856	65	C13H11+
195.0806	1	C14H11O+
208.1123	1	C15H14N+
226.1226	999	C15H16NO+
