Mass spectrum: 4-Chlorophenoxyacetic acid; LC-ESI-QFT; MS2; CE: 45; R=17500; [M-H]-
Name: 4-Chlorophenoxyacetic acid
Name: 2-(4-chlorophenoxy)acetic acid
Formula: C8H7ClO3
Exact mass: 186.0084
SMILES: OC(=O)COC1=CC=C(Cl)C=C1
InChI: InChI=1S/C8H7ClO3/c9-6-1-3-7(4-2-6)12-5-8(10)11/h1-4H,5H2,(H,10,11)
Instrument: Q Exactive Orbitrap (Thermo Scientific)
Instrument type: LC-ESI-QFT
Ms type: MS2
Ion mode: NEGATIVE
Ionization: ESI
Fragmentation mode: HCD
Collision energy: 45
Resolution: 17500
Column name: Acquity BEH C18 1.7um, 2.1x150mm (Waters)
Retention time: 15.705 min
Base peak: 356.1304
Precursor m/z: 185.0011
Precursor type: [M-H]-
Precursor intensity: 6504380.292969
m/z	relative intensity	assigned
111.0005	7	C6H4Cl-
126.9955	999	C6H4ClO-
141.0112	3	C7H6ClO-
