Mass spectrum: 4,4`-Sulfonylbis[2-(prop-2-en-1-yl)phenol]; LC-ESI-QFT; MS2; CE: 90; R=17500; [M-H]-
Name: 4,4'-Sulfonylbis[2-(prop-2-en-1-yl)phenol]
Name: Phenol, 4,4'-sulfonylbis[2-(2-propenyl)-
Name: 4-(4-hydroxy-3-prop-2-enylphenyl)sulfonyl-2-prop-2-enylphenol
Formula: C18H18O4S
Exact mass: 330.0926
SMILES: OC1=C(CC=C)C=C(C=C1)S(=O)(=O)C1=CC(CC=C)=C(O)C=C1
InChI: InChI=1S/C18H18O4S/c1-3-5-13-11-15(7-9-17(13)19)23(21,22)16-8-10-18(20)14(12-16)6-4-2/h3-4,7-12,19-20H,1-2,5-6H2
Instrument: Q Exactive Orbitrap (Thermo Scientific)
Instrument type: LC-ESI-QFT
Ms type: MS2
Ion mode: NEGATIVE
Ionization: ESI
Fragmentation mode: HCD
Collision energy: 90
Resolution: 17500
Column name: Acquity BEH C18 1.7um, 2.1x150mm (Waters)
Retention time: 17.057 min
Base peak: 329.0853
Precursor m/z: 329.0853
Precursor type: [M-H]-
Precursor intensity: 41895613.49023
m/z	relative intensity	assigned
63.9624	364	O2S-
65.0033	12	C4HO-
65.0397	10	C5H5-
67.0189	12	C4H3O-
68.9981	17	C3HO2-
79.0191	4	C5H3O-
79.9574	5	O3S-
80.9982	7	C4HO2-
81.0346	38	C5H5O-
91.019	27	C6H3O-
91.0553	9	C7H7-
93.0346	82	C6H5O-
94.0424	15	C6H6O-
95.0139	101	C5H3O2-
98.0011	21	C4H2O3-
102.0475	6	C8H6-
103.0553	85	C8H7-
105.0345	8	C7H5O-
106.0424	15	C7H6O-
107.0502	28	C7H7O-
108.0217	99	C6H4O2-
109.0295	28	C6H5O2-
110.0371	6	C6H6O2-
117.0346	253	C8H5O-
118.0423	4	C8H6O-
119.0503	34	C8H7O-
121.0295	289	C7H5O2-
122.0371	20	C7H6O2-
123.0087	68	C6H3O3-
123.0452	8	C7H7O2-
130.0424	78	C9H6O-
131.0502	413	C9H7O-
132.058	272	C9H8O-
133.0295	156	C8H5O2-
133.0659	160	C9H9O-
134.0373	174	C8H6O2-
135.0452	999	C8H7O2-
137.0244	11	C7H5O3-
138.0323	12	C7H6O3-
145.0293	20	C9H5O2-
146.0371	9	C9H6O2-
147.0452	80	C9H7O2-
148.053	751	C9H8O2-
149.0244	66	C8H5O3-
149.0608	12	C9H9O2-
157.066	3	C11H9O-
163.0401	106	C9H7O3-
165.002	6	C8H5O2S-
166.0094	11	C8H6O2S-
167.0505	5	C12H7O-
180.0248	4	C9H8O2S-
180.0581	17	C13H8O-
180.9957	5	C8H5O3S-
181.0661	8	C13H9O-
193.0662	10	C14H9O-
195.0454	6	C13H7O2-
195.0817	9	C14H11O-
206.0736	48	C15H10O-
207.0819	15	C15H11O-
208.0535	5	C14H8O2-
209.061	30	C14H9O2-
221.0611	4	C15H9O2-
221.0978	8	C16H13O-
223.077	11	C15H11O2-
231.0817	5	C17H11O-
233.0606	25	C16H9O2-
234.0689	14	C16H10O2-
235.0766	118	C16H11O2-
248.0841	8	C17H12O2-
249.0917	31	C17H13O2-
299.0384	8	C16H11O4S-
