Mass spectrum: Penconazole; LC-ESI-QFT; MS2; CE: 30; R=17500; [M+H]+
Name: Penconazole
Name: 1-[2-(2,4-dichlorophenyl)pentyl]-1,2,4-triazole
Formula: C13H15Cl2N3
Exact mass: 283.0643
SMILES: CCCC(CN1C=NC=N1)C1=C(Cl)C=C(Cl)C=C1
InChI: InChI=1S/C13H15Cl2N3/c1-2-3-10(7-18-9-16-8-17-18)12-5-4-11(14)6-13(12)15/h4-6,8-10H,2-3,7H2,1H3
Instrument: Q Exactive Orbitrap (Thermo Scientific)
Instrument type: LC-ESI-QFT
Ms type: MS2
Ion mode: POSITIVE
Ionization: ESI
Fragmentation mode: HCD
Collision energy: 30
Resolution: 17500
Column name: Acquity BEH C18 1.7um, 2.1x150mm (Waters)
Retention time: 18.617 min
Base peak: 79.0212
Precursor m/z: 284.0716
Precursor type: [M+H]+
Precursor intensity: 18958574.25
m/z	relative intensity	assigned
70.0399	999	C2H4N3+
158.9763	298	C7H5Cl2+
172.992	94	C8H7Cl2+
215.039	5	C11H13Cl2+
284.0716	58	C13H16Cl2N3+
