Mass spectrum: Lufenuron; LC-ESI-QFT; MS2; CE: 45; R=17500; [M-H]-
Name: Lufenuron
Formula: C17H8Cl2F8N2O3
Exact mass: 509.9784
SMILES: FC(C(F)(F)F)C(F)(F)OC1=CC(Cl)=C(NC(=O)NC(=O)C2=C(F)C=CC=C2F)C=C1Cl
InChI: InChI=1S/C17H8Cl2F8N2O3/c18-6-5-11(32-17(26,27)14(22)16(23,24)25)7(19)4-10(6)28-15(31)29-13(30)12-8(20)2-1-3-9(12)21/h1-5,14H,(H2,28,29,30,31)
Instrument: Q Exactive Orbitrap (Thermo Scientific)
Instrument type: LC-ESI-QFT
Ms type: MS2
Ion mode: NEGATIVE
Ionization: ESI
Fragmentation mode: HCD
Collision energy: 45
Resolution: 17500
Column name: Acquity BEH C18 1.7um, 2.1x150mm (Waters)
Retention time: 19.448 min
Base peak: 112.9856
Precursor m/z: 508.9711
Precursor type: [M-H]-
Precursor intensity: 7056694.215332
m/z	relative intensity	assigned
93.0146	6	C6H2F-
113.0208	22	C6H3F2-
130.9925	23	C3F5-
146.9875	30	C3F5O-
165.9701	11	C7HClNO2-
173.952	3	C6H2Cl2NO-
174.9597	999	C6H3Cl2NO-
175.9675	1	C6H4Cl2NO-
185.952	3	C7H2Cl2NO-
199.955	21	C7H2Cl2N2O-
201.9469	113	C7H2Cl2NO2-
203.9835	3	C8H2ClF3N-
216.9504	1	C8H2Cl2FNO-
249.9689	2	C9HClF4NO-
257.9999	6	C5H5ClF6N2O-
265.9393	17	C9HCl2F3NO-
285.9456	19	C9H2Cl2F4NO-
294.961	4	C13H4Cl2FNO2-
302.998	21	C14H5ClFN2O3-
305.9517	7	C9H3Cl2F5NO-
338.9744	17	C6H7Cl2F6N2O3-
350.953	2	C10H3Cl2F6N2O-
