Mass spectrum: Triphenyl phosphate; LC-ESI-QFT; MS2; CE: 45; R=17500; [M+H]+
Name: Triphenyl phosphate
Formula: C18H15O4P
Exact mass: 326.0708
SMILES: O=P(OC1=CC=CC=C1)(OC1=CC=CC=C1)OC1=CC=CC=C1
InChI: InChI=1S/C18H15O4P/c19-23(20-16-10-4-1-5-11-16,21-17-12-6-2-7-13-17)22-18-14-8-3-9-15-18/h1-15H
Instrument: Q Exactive Orbitrap (Thermo Scientific)
Instrument type: LC-ESI-QFT
Ms type: MS2
Ion mode: POSITIVE
Ionization: ESI
Fragmentation mode: HCD
Collision energy: 45
Resolution: 17500
Column name: Acquity BEH C18 1.7um, 2.1x150mm (Waters)
Retention time: 18.547 min
Base peak: 79.0211
Precursor m/z: 327.0781
Precursor type: [M+H]+
Precursor intensity: 60705121.03125
m/z	relative intensity	assigned
50.015	1	C4H2+
51.0229	4	C4H3+
53.0386	140	C4H5+
55.0178	6	C3H3O+
57.0699	20	C4H9+
65.0385	8	C5H5+
68.997	1	C3HO2+
71.0855	9	C5H11+
77.0385	63	C6H5+
81.0334	13	C5H5O+
81.07	1	C6H9+
85.101	5	C6H13+
91.0542	114	C7H7+
93.0334	8	C6H5O+
94.0413	16	C6H6O+
95.0491	410	C6H7O+
98.9841	6	H4O4P+
109.0646	5	C7H9O+
111.0441	11	C6H7O2+
121.0283	10	C7H5O2+
122.0864	2	C5H15OP+
123.0998	2	C5H15O3+
125.0598	1	C7H9O2+
128.062	2	C10H8+
129.01	1	C5H6O2P+
138.9943	8	C6H4O2P+
140.0022	3	C6H5O2P+
141.0697	5	C11H9+
143.0857	7	C11H11+
151.0541	7	C12H7+
152.062	607	C12H8+
153.0698	808	C12H9+
154.0775	3	C12H10+
155.0613	1	C8H12OP+
157.0048	13	C6H6O3P+
168.0569	87	C12H8O+
169.0647	74	C12H9O+
170.0724	9	C12H10O+
171.0804	91	C12H11O+
175.0154	50	C6H8O4P+
179.0603	20	C10H12OP+
181.0758	9	C10H14OP+
187.0308	22	C11H8OP+
189.0462	3	C11H10OP+
202.0777	22	C16H10+
203.0852	7	C16H11+
205.0414	4	C11H10O2P+
214.0782	1	C17H10+
215.0256	158	C12H8O2P+
216.0331	8	C12H9O2P+
226.0772	5	C18H10+
227.0854	40	C18H11+
228.0933	241	C18H12+
229.1012	107	C18H13+
233.0361	999	C12H10O3P+
244.0883	5	C18H12O+
247.0518	37	C13H12O3P+
251.0466	576	C12H12O4P+
265.0629	3	C13H14O4P+
291.0566	10	C18H12O2P+
309.0676	29	C18H14O3P+
327.078	419	C18H16O4P+
