Mass spectrum: Betamethasone valerate; LC-ESI-QFT; MS2; CE: 60; R=17500; [M+H]+
Name: Betamethasone valerate
Name: [(8S,9R,10S,11S,13S,14S,16S,17R)-9-fluoro-11-hydroxy-17-(2-hydroxyacetyl)-10,13,16-trimethyl-3-oxo-6,7,8,11,12,14,15,16-octahydrocyclopenta[a]phenanthren-17-yl] pentanoate
Formula: C27H37FO6
Exact mass: 476.2574
SMILES: CCCCC(=O)O[C@@]1([C@@H](C)C[C@H]2[C@@H]3CCC4=CC(=O)C=C[C@]4(C)[C@@]3(F)[C@@H](O)C[C@]12C)C(=O)CO
InChI: InChI=1S/C27H37FO6/c1-5-6-7-23(33)34-27(22(32)15-29)16(2)12-20-19-9-8-17-13-18(30)10-11-24(17,3)26(19,28)21(31)14-25(20,27)4/h10-11,13,16,19-21,29,31H,5-9,12,14-15H2,1-4H3/t16-,19-,20-,21-,24-,25-,26-,27-/m0/s1
Instrument: Q Exactive Orbitrap (Thermo Scientific)
Instrument type: LC-ESI-QFT
Ms type: MS2
Ion mode: POSITIVE
Ionization: ESI
Fragmentation mode: HCD
Collision energy: 60
Resolution: 17500
Column name: Acquity BEH C18 1.7um, 2.1x150mm (Waters)
Retention time: 18.603 min
Base peak: 79.0211
Precursor m/z: 477.2647
Precursor type: [M+H]+
Precursor intensity: 5797878.65625
m/z	relative intensity	assigned
53.0386	24	C4H5+
55.0179	34	C3H3O+
55.0543	100	C4H7+
57.0699	213	C4H9+
65.0386	30	C5H5+
67.0543	238	C5H7+
69.0335	39	C4H5O+
69.0698	84	C5H9+
79.0542	164	C6H7+
81.0698	80	C6H9+
83.0855	39	C6H11+
85.0648	45	C5H9O+
91.0543	383	C7H7+
93.07	247	C7H9+
95.0491	100	C6H7O+
95.0857	269	C7H11+
103.0544	37	C8H7+
103.0757	38	C5H11O2+
105.07	505	C8H9+
107.0492	56	C7H7O+
107.0857	479	C8H11+
109.0649	40	C7H9O+
109.1012	203	C8H13+
115.0543	69	C9H7+
116.0624	33	C9H8+
117.0699	84	C9H9+
119.0856	484	C9H11+
121.0649	595	C8H9O+
121.1016	136	C9H13+
123.0804	174	C8H11O+
128.0622	173	C10H8+
129.07	88	C10H9+
130.0774	30	C10H10+
131.0857	185	C10H11+
132.0572	51	C9H8O+
133.0653	45	C9H9O+
133.1011	96	C10H13+
135.0805	306	C9H11O+
141.0699	134	C11H9+
142.0778	66	C11H10+
143.0857	226	C11H11+
144.0569	48	C10H8O+
145.0648	218	C10H9O+
145.1012	107	C11H13+
146.0727	40	C10H10O+
147.0805	999	C10H11O+
153.07	47	C12H9+
155.0857	102	C12H11+
156.0938	29	C12H12+
157.0649	34	C11H9O+
157.1013	77	C12H13+
158.0729	168	C11H10O+
159.0807	531	C11H11O+
161.0961	135	C11H13O+
165.0701	45	C13H9+
167.0858	69	C13H11+
169.0651	41	C12H9O+
170.0723	55	C12H10O+
171.0805	467	C12H11O+
172.0881	45	C12H12O+
173.096	164	C12H13O+
178.0779	54	C14H10+
179.0855	87	C14H11+
181.1014	32	C14H13+
182.073	38	C13H10O+
183.0805	49	C13H11O+
185.0964	257	C13H13O+
187.0756	113	C12H11O2+
191.0858	68	C15H11+
192.0929	50	C15H12+
193.1011	87	C15H13+
194.073	45	C14H10O+
195.0808	86	C14H11O+
196.0885	58	C14H12O+
197.0964	98	C14H13O+
203.0856	37	C16H11+
205.1016	62	C16H13+
209.097	163	C12H14FO2+
210.104	47	C15H14O+
211.1117	62	C15H15O+
216.0936	75	C17H12+
217.1013	40	C17H13+
219.0806	55	C16H11O+
219.1172	57	C17H15+
221.0962	176	C16H13O+
222.104	123	C16H14O+
223.1123	176	C16H15O+
229.1012	70	C18H13+
231.0808	39	C17H11O+
231.117	60	C18H15+
232.0876	42	C17H12O+
233.096	87	C17H13O+
234.1042	103	C17H14O+
235.1114	161	C17H15O+
236.1197	35	C17H16O+
243.1168	85	C19H15+
245.0962	67	C18H13O+
246.1043	78	C18H14O+
248.1197	173	C18H16O+
249.1276	164	C18H17O+
259.1119	115	C19H15O+
260.1193	40	C19H16O+
261.1639	40	C20H21+
262.135	103	C19H18O+
263.1435	301	C19H19O+
271.1126	71	C17H16FO2+
273.1272	36	C20H17O+
274.1354	69	C20H18O+
