Mass spectrum: Ilepatril; LC-ESI-QFT; MS2; CE: 90; R=17500; [M+H]+
Name: Ilepatril
Name: (4S,7S,12bR)-7-[[(2S)-2-acetylsulfanyl-3-methylbutanoyl]amino]-6-oxo-2,3,4,7,8,12b-hexahydro-1H-pyrido[2,1-a][2]benzazepine-4-carboxylic acid
Formula: C22H28N2O5S
Exact mass: 432.1719
SMILES: CC(C)[C@H](SC(C)=O)C(=O)N[C@H]1CC2=C(C=CC=C2)[C@H]2CCC[C@H](N2C1=O)C(O)=O
InChI: InChI=1S/C22H28N2O5S/c1-12(2)19(30-13(3)25)20(26)23-16-11-14-7-4-5-8-15(14)17-9-6-10-18(22(28)29)24(17)21(16)27/h4-5,7-8,12,16-19H,6,9-11H2,1-3H3,(H,23,26)(H,28,29)/t16-,17+,18-,19-/m0/s1
Instrument: Q Exactive Orbitrap (Thermo Scientific)
Instrument type: LC-ESI-QFT
Ms type: MS2
Ion mode: POSITIVE
Ionization: ESI
Fragmentation mode: HCD
Collision energy: 90
Resolution: 17500
Column name: Acquity BEH C18 1.7um, 2.1x150mm (Waters)
Retention time: 16.899 min
Base peak: 79.0212
Precursor m/z: 433.1792
Precursor type: [M+H]+
Precursor intensity: 10466085.25
m/z	relative intensity	assigned
53.0023	4	C3HO+
53.0386	47	C4H5+
54.0338	11	C3H4N+
55.0542	788	C4H7+
56.0495	226	C3H6N+
57.0698	7	C4H9+
61.0107	7	C2H5S+
68.0495	51	C4H6N+
70.0285	2	C3H4NO+
70.065	17	C4H8N+
74.0236	15	C2H4NO2+
80.0495	32	C5H6N+
82.0651	41	C5H8N+
89.042	793	C4H9S+
91.0542	186	C7H7+
103.0542	54	C8H7+
105.0699	41	C8H9+
114.0549	5	C5H8NO2+
115.0542	292	C9H7+
116.0495	28	C8H6N+
116.062	35	C9H8+
117.0574	29	C8H7N+
117.0699	98	C9H9+
128.062	144	C10H8+
128.0707	8	C6H10NO2+
129.0699	302	C10H9+
130.0652	304	C9H8N+
131.0855	273	C10H11+
132.0808	44	C9H10N+
133.0646	7	C9H9O+
141.0699	855	C11H9+
142.0652	41	C10H8N+
142.0776	15	C11H10+
143.073	407	C10H9N+
143.0855	28	C11H11+
144.0808	84	C10H10N+
145.0647	16	C10H9O+
145.0889	15	C10H11N+
146.0964	99	C10H12N+
152.0622	91	C12H8+
153.0699	24	C12H9+
154.065	29	C11H8N+
154.0776	18	C12H10+
155.073	26	C11H9N+
155.0852	25	C12H11+
156.0808	954	C11H10N+
157.0647	7	C11H9O+
157.0888	15	C11H11N+
157.1013	7	C12H13+
158.0964	616	C11H12N+
159.0807	5	C11H11O+
160.0756	31	C10H10NO+
165.0699	89	C13H9+
166.0778	29	C13H10+
167.0854	136	C13H11+
168.0808	251	C12H10N+
169.0645	6	C12H9O+
169.0886	84	C12H11N+
169.1013	8	C13H13+
170.0964	147	C12H12N+
171.1043	12	C12H13N+
172.1121	8	C12H14N+
174.0912	6	C11H12NO+
180.0808	148	C13H10N+
181.0884	14	C13H11N+
182.0965	999	C13H12N+
183.1043	86	C13H13N+
184.1121	645	C13H14N+
185.1198	28	C13H15N+
186.1276	24	C13H16N+
188.0702	7	C11H10NO2+
189.0781	9	C11H11NO2+
200.1069	10	C13H14NO+
202.0861	5	C12H12NO2+
202.1225	29	C13H16NO+
210.0907	4	C14H12NO+
212.1071	6	C14H14NO+
216.102	5	C13H14NO2+
228.1019	276	C14H14NO2+
230.1176	36	C14H16NO2+
