Mass spectrum: MK-274; LC-ESI-QFT; MS2; CE: 30; R=17500; [M-H]-
Name: MK-274
Name: 3-[5'-Fluoro-2'-(2,2,3,3,3-pentafluoropropoxy)biphenyl-3-yl]-1H-1,2,4-triazole-5-carboxamide
Name: 3-[3-[5-fluoro-2-(2,2,3,3,3-pentafluoropropoxy)phenyl]phenyl]-1H-1,2,4-triazole-5-carboxamide
Formula: C18H12F6N4O2
Exact mass: 430.0864
SMILES: NC(=O)C1=NC(=NN1)C1=CC=CC(=C1)C1=CC(F)=CC=C1OCC(F)(F)C(F)(F)F
InChI: InChI=1S/C18H12F6N4O2/c19-11-4-5-13(30-8-17(20,21)18(22,23)24)12(7-11)9-2-1-3-10(6-9)15-26-16(14(25)29)28-27-15/h1-7H,8H2,(H2,25,29)(H,26,27,28)
Instrument: Q Exactive Orbitrap (Thermo Scientific)
Instrument type: LC-ESI-QFT
Ms type: MS2
Ion mode: NEGATIVE
Ionization: ESI
Fragmentation mode: HCD
Collision energy: 30
Resolution: 17500
Column name: Acquity BEH C18 1.7um, 2.1x150mm (Waters)
Retention time: 17.920 min
Base peak: 112.9855
Precursor m/z: 429.0792
Precursor type: [M-H]-
Precursor intensity: 3023098.696289
m/z	relative intensity	assigned
68.9957	49	CF3-
252.0583	4	C11H9F5O-
276.0577	34	C8H8F6N3O-
295.0643	5	C12H10F5NO2-
326.0546	999	C17H7F3N3O-
346.0608	514	C17H8F4N3O-
366.067	433	C17H9F5N3O-
386.0741	7	C17H10F6N3O-
389.0669	135	C18H9F4N4O2-
409.073	160	C18H10F5N4O2-
429.0791	104	C18H11F6N4O2-
