Mass spectrum: 1-(2,6-Dichlorophenyl)-2-indolinone; LC-ESI-QFT; MS2; CE: 90; R=17500; [M+H]+
Name: 1-(2,6-Dichlorophenyl)-2-indolinone
Name: 1-(2,6-dichlorophenyl)-3H-indol-2-one
Formula: C14H9Cl2NO
Exact mass: 277.0061
SMILES: ClC1=CC=CC(Cl)=C1N1C(=O)CC2=C1C=CC=C2
InChI: InChI=1S/C14H9Cl2NO/c15-10-5-3-6-11(16)14(10)17-12-7-2-1-4-9(12)8-13(17)18/h1-7H,8H2
Instrument: Q Exactive Orbitrap (Thermo Scientific)
Instrument type: LC-ESI-QFT
Ms type: MS2
Ion mode: POSITIVE
Ionization: ESI
Fragmentation mode: HCD
Collision energy: 90
Resolution: 17500
Column name: Acquity BEH C18 1.7um, 2.1x150mm (Waters)
Retention time: 17.314 min
Base peak: 79.0212
Precursor m/z: 278.0134
Precursor type: [M+H]+
Precursor intensity: 3742191.46875
m/z	relative intensity	assigned
51.023	6	C4H3+
53.0386	64	C4H5+
66.0465	5	C5H6+
76.0182	4	C5H2N+
77.0385	29	C6H5+
79.0542	333	C6H7+
81.0335	6	C5H5O+
84.9839	14	C4H2Cl+
86.9632	20	C3ClO+
89.0385	8	C7H5+
90.0464	7	C7H6+
91.0542	3	C7H7+
94.0413	7	C6H6O+
95.0492	186	C6H7O+
96.0444	7	C5H6NO+
98.9996	5	C5H4Cl+
100.0182	25	C7H2N+
104.0494	37	C7H6N+
105.0336	65	C7H5O+
107.0492	8	C7H7O+
108.984	51	C6H2Cl+
111.995	3	C5H3ClN+
112.9786	3	C5H2ClO+
117.0572	2	C8H7N+
118.0288	15	C7H4NO+
120.9607	4	C4H3Cl2+
125.0153	3	C7H6Cl+
126.0109	2	C6H5ClN+
126.9945	7	C6H4ClO+
128.0025	7	C6H5ClO+
132.0443	23	C8H6NO+
132.9608	9	C5H3Cl2+
133.0523	4	C8H7NO+
135.9948	16	C7H3ClN+
137.0027	2	C7H4ClN+
144.9607	21	C6H3Cl2+
151.0539	8	C12H7+
152.0622	42	C12H8+
153.0698	11	C12H9+
154.0054	16	C7H5ClNO+
159.9719	1	C6H4Cl2N+
162.9714	16	C6H5Cl2O+
164.001	91	C9H5ClO+
166.0056	3	C8H5ClNO+
166.0651	11	C12H8N+
169.0648	98	C12H9O+
171.9716	115	C7H4Cl2N+
172.9669	121	C9ClNO+
177.0574	53	C13H7N+
178.0652	172	C13H8N+
179.073	269	C13H9N+
180.0808	445	C13H10N+
181.0651	4	C13H9O+
196.0754	4	C13H10NO+
201.0341	8	C12H8ClN+
207.0679	56	C14H9NO+
208.0758	155	C14H10NO+
213.0344	5	C13H8ClN+
214.0418	999	C13H9ClN+
215.0497	2	C13H10ClN+
241.029	3	C14H8ClNO+
242.0369	3	C14H9ClNO+
248.0031	6	C13H8Cl2N+
