Mass spectrum: Bromacil; LC-ESI-QFT; MS2; CE: 15; R=17500; [M-H]-
Name: Bromacil
Name: 5-bromo-3-butan-2-yl-6-methyl-1H-pyrimidine-2,4-dione
Formula: C9H13BrN2O2
Exact mass: 260.0160
SMILES: CCC(C)N1C(=O)NC(C)=C(Br)C1=O
InChI: InChI=1S/C9H13BrN2O2/c1-4-5(2)12-8(13)7(10)6(3)11-9(12)14/h5H,4H2,1-3H3,(H,11,14)
Instrument: Q Exactive Orbitrap (Thermo Scientific)
Instrument type: LC-ESI-QFT
Ms type: MS2
Ion mode: NEGATIVE
Ionization: ESI
Fragmentation mode: HCD
Collision energy: 15
Resolution: 17500
Column name: Acquity BEH C18 1.7um, 2.1x150mm (Waters)
Retention time: 15.371 min
Base peak: 259.0088
Precursor m/z: 259.0088
Precursor type: [M-H]-
Precursor intensity: 22447519.30518
m/z	relative intensity	assigned
78.9187	31	Br-
151.0876	2	C8H11N2O-
159.9403	5	C4H3BrNO-
202.9462	106	C5H4BrN2O2-
259.0086	999	C9H12BrN2O2-
