Mass spectrum: Octyl gallate; LC-ESI-QFT; MS2; CE: 90; R=17500; [M-H]-
Name: Octyl gallate
Name: octyl 3,4,5-trihydroxybenzoate
Formula: C15H22O5
Exact mass: 282.1467
SMILES: CCCCCCCCOC(=O)C1=CC(O)=C(O)C(O)=C1
InChI: InChI=1S/C15H22O5/c1-2-3-4-5-6-7-8-20-15(19)11-9-12(16)14(18)13(17)10-11/h9-10,16-18H,2-8H2,1H3
Instrument: Q Exactive Orbitrap (Thermo Scientific)
Instrument type: LC-ESI-QFT
Ms type: MS2
Ion mode: NEGATIVE
Ionization: ESI
Fragmentation mode: HCD
Collision energy: 90
Resolution: 17500
Column name: Acquity BEH C18 1.7um, 2.1x150mm (Waters)
Retention time: 18.717 min
Base peak: 357.026
Precursor m/z: 281.1394
Precursor type: [M-H]-
Precursor intensity: 3407128.436523
m/z	relative intensity	assigned
53.0032	74	C3HO-
55.019	26	C3H3O-
65.0033	112	C4HO-
67.019	186	C4H3O-
68.9983	54	C3HO2-
69.0346	291	C4H5O-
71.0139	65	C3H3O2-
72.9932	78	C2HO3-
78.0111	96	C5H2O-
79.0191	57	C5H3O-
81.0346	30	C5H5O-
82.0061	18	C4H2O2-
83.0139	97	C4H3O2-
87.0088	23	C3H3O3-
95.0139	220	C5H3O2-
96.9931	27	C4HO3-
97.0295	193	C5H5O2-
99.0089	19	C4H3O3-
106.006	287	C6H2O2-
107.014	23	C6H3O2-
110.0009	96	C5H2O3-
111.0088	626	C5H3O3-
123.0088	427	C6H3O3-
124.0166	305	C6H4O3-
125.0244	991	C6H5O3-
127.0037	223	C5H3O4-
136.988	405	C6HO4-
139.0037	592	C6H3O4-
140.0115	999	C6H4O4-
154.9988	85	C6H3O5-
