Mass spectrum: SSR69071; LC-ESI-QFT; MS2; CE: 75; R=17500; [M+H]+
Name: SSR69071
Name: 6-methoxy-1,1-dioxo-2-[[4-oxo-9-(2-piperidin-1-ylethoxy)pyrido[1,2-a]pyrimidin-2-yl]oxymethyl]-4-propan-2-yl-1,2-benzothiazol-3-one
Formula: C27H32N4O7S
Exact mass: 556.1992
SMILES: COC1=CC2=C(C(=O)N(COC3=CC(=O)N4C=CC=C(OCCN5CCCCC5)C4=N3)S2(=O)=O)C(=C1)C(C)C
InChI: InChI=1S/C27H32N4O7S/c1-18(2)20-14-19(36-3)15-22-25(20)27(33)31(39(22,34)35)17-38-23-16-24(32)30-11-7-8-21(26(30)28-23)37-13-12-29-9-5-4-6-10-29/h7-8,11,14-16,18H,4-6,9-10,12-13,17H2,1-3H3
Instrument: Q Exactive Orbitrap (Thermo Scientific)
Instrument type: LC-ESI-QFT
Ms type: MS2
Ion mode: POSITIVE
Ionization: ESI
Fragmentation mode: HCD
Collision energy: 75
Resolution: 17500
Column name: Acquity BEH C18 1.7um, 2.1x150mm (Waters)
Retention time: 15.597 min
Base peak: 79.0211
Precursor m/z: 557.2064
Precursor type: [M+H]+
Precursor intensity: 3422982.6875
m/z	relative intensity	assigned
53.0022	8	C3HO+
53.0386	2	C4H5+
53.9974	1	C2NO+
55.0543	39	C4H7+
56.0495	81	C3H6N+
58.0651	34	C3H8N+
67.0542	7	C5H7+
68.0494	1	C4H6N+
69.0699	127	C5H9+
70.0652	5	C4H8N+
74.0964	1	C4H12N+
78.0464	1	C6H6+
79.0543	4	C6H7+
82.0651	4	C5H8N+
83.073	1	C5H9N+
83.0857	3	C6H11+
84.0808	76	C5H10N+
91.0543	27	C7H7+
93.07	1	C7H9+
95.0489	1	C6H7O+
97.0888	3	C6H11N+
103.0543	4	C8H7+
104.0621	5	C8H8+
105.0699	25	C8H9+
106.0414	1	C7H6O+
107.0492	4	C7H7O+
108.057	2	C7H8O+
109.0649	3	C7H9O+
110.0965	15	C7H12N+
112.1121	999	C7H14N+
115.0543	22	C9H7+
116.0621	5	C9H8+
117.0337	2	C8H5O+
117.0699	11	C9H9+
118.0415	3	C8H6O+
118.0651	2	C8H8N+
119.0493	2	C8H7O+
119.0855	1	C9H11+
120.057	1	C8H8O+
121.0398	3	C6H5N2O+
121.0649	5	C8H9O+
122.0185	2	C7H6S+
128.062	2	C10H8+
130.0651	1	C9H8N+
131.049	4	C9H7O+
132.0447	2	C8H6NO+
132.057	16	C9H8O+
132.0809	4	C9H10N+
133.0648	43	C9H9O+
134.0188	1	C8H6S+
134.0727	2	C9H10O+
135.0552	1	C7H7N2O+
135.0806	1	C9H11O+
138.0135	2	C7H6OS+
143.0493	1	C10H7O+
144.057	6	C10H8O+
144.0806	3	C10H10N+
145.0649	1	C10H9O+
145.0887	2	C10H11N+
146.0601	12	C9H8NO+
146.0725	1	C10H10O+
147.0441	2	C9H7O2+
147.0682	1	C9H9NO+
147.0804	16	C10H11O+
148.0882	1	C10H12O+
149.0598	6	C9H9O2+
149.071	8	C8H9N2O+
150.0135	6	C8H6OS+
151.0214	1	C8H7OS+
151.0754	5	C9H11O2+
152.0292	1	C8H8OS+
153.0369	8	C8H9OS+
159.0806	4	C11H11O+
160.0519	2	C10H8O2+
160.0758	7	C10H10NO+
161.0598	45	C10H9O2+
161.0836	8	C10H11NO+
162.0676	4	C10H10O2+
163.0626	1	C9H9NO2+
165.037	17	C9H9OS+
174.055	2	C10H8NO2+
175.0755	17	C11H11O2+
176.0833	1	C11H12O2+
176.1069	2	C11H14NO+
177.0372	1	C10H9OS+
178.0497	1	C9H8NO3+
180.0781	2	C10H12O3+
189.0786	4	C11H11NO2+
193.0315	3	C10H9O2S+
193.0493	1	C10H9O4+
195.0109	1	C9H7O3S+
221.0683	14	C11H11NO4+
