Mass spectrum: Pantothenate; LC-ESI-QFT; MS2; CE: 45; R=17500; [M+H]+
Name: Pantothenate
Name: Pantothenic acid
Name: 3-[[(2R)-2,4-dihydroxy-3,3-dimethylbutanoyl]amino]propanoic acid
Formula: C9H17NO5
Exact mass: 219.1107
SMILES: CC(C)(CO)[C@@H](O)C(=O)NCCC(O)=O
InChI: InChI=1S/C9H17NO5/c1-9(2,5-11)7(14)8(15)10-4-3-6(12)13/h7,11,14H,3-5H2,1-2H3,(H,10,15)(H,12,13)/t7-/m0/s1
Instrument: Q Exactive Orbitrap (Thermo Scientific)
Instrument type: LC-ESI-QFT
Ms type: MS2
Ion mode: POSITIVE
Ionization: ESI
Fragmentation mode: HCD
Collision energy: 45
Resolution: 17500
Column name: Acquity BEH C18 1.7um, 2.1x150mm (Waters)
Retention time: 8.134 min
Base peak: 79.0211
Precursor m/z: 220.1179
Precursor type: [M+H]+
Precursor intensity: 6874316.5625
m/z	relative intensity	assigned
55.0179	10	C3H3O+
55.0544	4	C4H7+
57.0699	75	C4H9+
59.0491	69	C3H7O+
67.0542	51	C5H7+
69.0699	64	C5H9+
70.0287	39	C3H4NO+
72.0444	169	C3H6NO+
73.0284	52	C3H5O2+
74.0236	18	C2H4NO2+
83.0491	18	C5H7O+
85.0648	170	C5H9O+
86.0964	28	C5H12N+
87.0804	21	C5H11O+
88.0393	4	C3H6NO2+
90.055	999	C3H8NO2+
92.0496	6	C6H6N+
95.0492	88	C6H7O+
96.0808	15	C6H10N+
98.0237	200	C4H4NO2+
99.0805	7	C6H11O+
100.0393	31	C4H6NO2+
103.0753	102	C5H11O2+
112.0759	8	C6H10NO+
113.0597	36	C6H9O2+
116.0342	145	C4H6NO3+
124.0757	258	C7H10NO+
130.0862	5	C6H12NO2+
131.0705	11	C6H11O3+
142.0863	104	C7H12NO2+
156.102	7	C8H14NO2+
160.0968	28	C7H14NO3+
166.0865	18	C9H12NO2+
174.1125	12	C8H16NO3+
184.0968	92	C9H14NO3+
202.1074	93	C9H16NO4+
220.1179	10	C9H18NO5+
