Mass spectrum: Chlordimeform; LC-ESI-QFT; MS2; CE: 75; R=17500; [M+H]+
Name: Chlordimeform
Name: N'-(4-chloro-2-methylphenyl)-N,N-dimethylmethanimidamide
Formula: C10H13ClN2
Exact mass: 196.0767
SMILES: CN(C)C=NC1=CC=C(Cl)C=C1C
InChI: InChI=1S/C10H13ClN2/c1-8-6-9(11)4-5-10(8)12-7-13(2)3/h4-7H,1-3H3
Instrument: Q Exactive Orbitrap (Thermo Scientific)
Instrument type: LC-ESI-QFT
Ms type: MS2
Ion mode: POSITIVE
Ionization: ESI
Fragmentation mode: HCD
Collision energy: 75
Resolution: 17500
Column name: Acquity BEH C18 1.7um, 2.1x150mm (Waters)
Retention time: 11.347 min
Base peak: 79.0211
Precursor m/z: 197.084
Precursor type: [M+H]+
Precursor intensity: 45107730.25
m/z	relative intensity	assigned
58.0652	34	C3H8N+
63.023	1	C5H3+
66.0465	1	C5H6+
89.0386	24	C7H5+
90.0464	8	C7H6+
91.0541	1	C7H7+
92.0495	2	C6H6N+
98.9996	6	C5H4Cl+
104.0623	1	C8H8+
106.0652	3	C7H8N+
116.0495	7	C8H6N+
117.0573	999	C8H7N+
118.0652	7	C8H8N+
120.0808	3	C8H10N+
125.0153	161	C7H6Cl+
134.0601	21	C5H11ClN2+
134.0965	1	C9H12N+
140.0264	1	C7H7ClN+
141.0339	6	C7H8ClN+
144.0557	17	C7H11ClN+
147.0916	5	C9H11N2+
151.0184	1	C8H6ClN+
152.0262	45	C8H7ClN+
153.0213	4	C7H6ClN2+
154.0419	1	C8H9ClN+
161.1073	3	C10H13N2+
197.0841	39	C10H14ClN2+
