Mass spectrum: Raloxifene; LC-ESI-QFT; MS2; CE: 60; R=17500; [M+H]+
Name: Raloxifene
Name: [6-hydroxy-2-(4-hydroxyphenyl)-1-benzothiophen-3-yl]-[4-(2-piperidin-1-ylethoxy)phenyl]methanone
Formula: C28H27NO4S
Exact mass: 473.1661
SMILES: OC1=CC=C(C=C1)C1=C(C(=O)C2=CC=C(OCCN3CCCCC3)C=C2)C2=CC=C(O)C=C2S1
InChI: InChI=1S/C28H27NO4S/c30-21-8-4-20(5-9-21)28-26(24-13-10-22(31)18-25(24)34-28)27(32)19-6-11-23(12-7-19)33-17-16-29-14-2-1-3-15-29/h4-13,18,30-31H,1-3,14-17H2
Instrument: Q Exactive Orbitrap (Thermo Scientific)
Instrument type: LC-ESI-QFT
Ms type: MS2
Ion mode: POSITIVE
Ionization: ESI
Fragmentation mode: HCD
Collision energy: 60
Resolution: 17500
Column name: Acquity BEH C18 1.7um, 2.1x150mm (Waters)
Retention time: 14.280 min
Base peak: 79.0211
Precursor m/z: 474.1734
Precursor type: [M+H]+
Precursor intensity: 11110127.5
m/z	relative intensity	assigned
53.0022	14	C3HO+
53.0386	2	C4H5+
53.9975	2	C2NO+
55.0542	90	C4H7+
56.0495	171	C3H6N+
57.0573	6	C3H7N+
57.0699	1	C4H9+
58.0651	74	C3H8N+
65.0386	4	C5H5+
67.0542	16	C5H7+
68.0495	1	C4H6N+
69.0698	192	C5H9+
70.0651	68	C4H8N+
71.073	1	C4H9N+
82.0651	13	C5H8N+
83.0729	4	C5H9N+
83.0855	5	C6H11+
84.0808	999	C5H10N+
85.0886	221	C5H11N+
86.0964	17	C5H12N+
91.0542	7	C7H7+
96.0808	1	C6H10N+
97.0886	7	C6H11N+
98.0965	12	C6H12N+
103.0178	13	C7H3O+
110.0965	23	C7H12N+
112.1121	527	C7H14N+
117.0786	1	C5H11NO2+
121.0284	7	C7H5O2+
137.0053	1	C7H5OS+
147.0441	34	C9H7O2+
147.0552	2	C2H13NO4S+
185.0419	1	C12H9S+
197.0597	42	C13H9O2+
213.0368	23	C13H9OS+
224.0296	1	C14H8OS+
240.0234	1	C14H8O2S+
241.0318	8	C14H9O2S+
251.016	1	C15H7O2S+
252.0239	1	C15H8O2S+
253.032	1	C15H9O2S+
268.019	1	C15H8O3S+
269.0267	50	C15H9O3S+
274.0451	1	C18H10OS+
287.0523	5	C19H11OS+
288.0613	1	C19H12OS+
290.0402	1	C18H10O2S+
298.0443	1	C20H10OS+
300.0607	1	C20H12OS+
300.0785	1	C20H12O3+
303.0475	1	C19H11O2S+
304.0553	1	C19H12O2S+
305.0634	2	C19H13O2S+
315.048	1	C20H11O2S+
316.0547	2	C20H12O2S+
317.0637	2	C20H13O2S+
319.043	1	C19H11O3S+
327.047	1	C21H11O2S+
343.042	1	C21H11O3S+
345.0586	4	C21H13O3S+
361.0529	8	C21H13O4S+
362.0605	1	C21H14O4S+
