Mass spectrum: Diphenylacetonitrile; LC-ESI-QFT; MS2; CE: 45; R=17500; [M+H]+
Name: Diphenylacetonitrile
Name: 2,2-diphenylacetonitrile
Formula: C14H11N
Exact mass: 193.0891
SMILES: N#CC(C1=CC=CC=C1)C1=CC=CC=C1
InChI: InChI=1S/C14H11N/c15-11-14(12-7-3-1-4-8-12)13-9-5-2-6-10-13/h1-10,14H
Instrument: Q Exactive Orbitrap (Thermo Scientific)
Instrument type: LC-ESI-QFT
Ms type: MS2
Ion mode: POSITIVE
Ionization: ESI
Fragmentation mode: HCD
Collision energy: 45
Resolution: 17500
Column name: Acquity BEH C18 1.7um, 2.1x150mm (Waters)
Retention time: 15.768 min
Base peak: 79.0211
Precursor m/z: 194.0964
Precursor type: [M+H]+
Precursor intensity: 1468235.34375
m/z	relative intensity	assigned
167.0858	5	C13H11+
177.0704	1	C14H9+
179.073	3	C13H9N+
193.0888	11	C14H11N+
194.0965	999	C14H12N+
