Mass spectrum: Simetryn; LC-ESI-QFT; MS2; CE: 45; R=17500; [M+H]+
Name: Simetryn
Name: 2-N,4-N-diethyl-6-methylsulfanyl-1,3,5-triazine-2,4-diamine
Formula: C8H15N5S
Exact mass: 213.1048
SMILES: CCNC1=NC(SC)=NC(NCC)=N1
InChI: InChI=1S/C8H15N5S/c1-4-9-6-11-7(10-5-2)13-8(12-6)14-3/h4-5H2,1-3H3,(H2,9,10,11,12,13)
Instrument: Q Exactive Orbitrap (Thermo Scientific)
Instrument type: LC-ESI-QFT
Ms type: MS2
Ion mode: POSITIVE
Ionization: ESI
Fragmentation mode: HCD
Collision energy: 45
Resolution: 17500
Column name: Acquity BEH C18 1.7um, 2.1x150mm (Waters)
Retention time: 14.298 min
Base peak: 79.0211
Precursor m/z: 214.1121
Precursor type: [M+H]+
Precursor intensity: 33677959.375
m/z	relative intensity	assigned
53.0386	17	C4H5+
54.0338	1	C3H4N+
68.0242	49	C2H2N3+
71.0603	197	C3H7N2+
74.0058	13	C2H4NS+
77.0385	6	C6H5+
79.0289	1	C4H3N2+
80.0368	32	C4H4N2+
81.0447	12	C4H5N2+
82.0525	1	C4H6N2+
91.0324	8	C2H7N2S+
92.0495	4	C6H6N+
93.0573	57	C6H7N+
94.0651	5	C6H8N+
95.0491	45	C4H5N3+
96.0556	252	C4H6N3+
99.0916	1	C5H11N2+
102.0371	25	C4H8NS+
105.0447	22	C6H5N2+
107.0603	12	C6H7N2+
108.0556	22	C5H6N3+
109.0634	15	C5H7N3+
110.0711	4	C5H8N3+
113.0821	5	C4H9N4+
116.0277	55	C3H6N3S+
119.0597	1	C7H7N2+
119.0645	2	C4H11N2S+
121.0509	20	C5H5N4+
122.0587	342	C5H6N4+
123.0664	9	C5H7N4+
124.0869	687	C6H10N3+
138.0773	9	C5H8N5+
141.1134	6	C6H13N4+
144.0589	284	C5H10N3S+
158.0494	3	C4H8N5S+
166.1086	146	C7H12N5+
168.1243	1	C7H14N5+
186.0807	78	C6H12N5S+
199.0885	3	C7H13N5S+
212.096	2	C8H14N5S+
214.1114	999	C8H16N5S+
