Mass spectrum: Folic acid; LC-ESI-QFT; MS2; CE: 90; R=17500; [M-H]-
Name: Folic acid
Name: (2S)-2-[[4-[(2-amino-4-oxo-1H-pteridin-6-yl)methylamino]benzoyl]amino]pentanedioic acid
Formula: C19H19N7O6
Exact mass: 441.1397
SMILES: NC1=NC(=O)C2=C(N1)N=CC(CNC1=CC=C(C=C1)C(=O)N[C@@H](CCC(O)=O)C(O)=O)=N2
InChI: InChI=1S/C19H19N7O6/c20-19-25-15-14(17(30)26-19)23-11(8-22-15)7-21-10-3-1-9(2-4-10)16(29)24-12(18(31)32)5-6-13(27)28/h1-4,8,12,21H,5-7H2,(H,24,29)(H,27,28)(H,31,32)(H3,20,22,25,26,30)/t12-/m0/s1
Instrument: Q Exactive Orbitrap (Thermo Scientific)
Instrument type: LC-ESI-QFT
Ms type: MS2
Ion mode: NEGATIVE
Ionization: ESI
Fragmentation mode: HCD
Collision energy: 90
Resolution: 17500
Column name: Acquity BEH C18 1.7um, 2.1x150mm (Waters)
Retention time: 11.004 min
Base peak: 116.9285
Precursor m/z: 440.1324
Precursor type: [M-H]-
Precursor intensity: 525146.4367676
m/z	relative intensity	assigned
65.0146	56	C3HN2-
66.0098	999	C2N3-
92.0506	506	C6H6N-
102.0561	114	C4H8NO2-
105.0332	95	C5H3N3-
117.0457	78	C7H5N2-
119.0363	87	C5H3N4-
132.0442	801	C6H4N4-
133.0521	73	C6H5N4-
135.0566	39	C7H7N2O-
164.034	56	C6H4N4O2-
