Mass spectrum: Diclosulam; LC-ESI-QFT; MS2; CE: 60; R=17500; [M+H]+
Name: Diclosulam
Name: N-(2,6-dichlorophenyl)-5-ethoxy-7-fluoro-[1,2,4]triazolo[1,5-c]pyrimidine-2-sulfonamide
Formula: C13H10Cl2FN5O3S
Exact mass: 404.9865
SMILES: CCOC1=NC(F)=CC2=NC(=NN12)S(=O)(=O)NC1=C(Cl)C=CC=C1Cl
InChI: InChI=1S/C13H10Cl2FN5O3S/c1-2-24-13-17-9(16)6-10-18-12(19-21(10)13)25(22,23)20-11-7(14)4-3-5-8(11)15/h3-6,20H,2H2,1H3
Instrument: Q Exactive Orbitrap (Thermo Scientific)
Instrument type: LC-ESI-QFT
Ms type: MS2
Ion mode: POSITIVE
Ionization: ESI
Fragmentation mode: HCD
Collision energy: 60
Resolution: 17500
Column name: Acquity BEH C18 1.7um, 2.1x150mm (Waters)
Retention time: 15.765 min
Base peak: 79.0211
Precursor m/z: 405.9938
Precursor type: [M+H]+
Precursor intensity: 4231330.5625
m/z	relative intensity	assigned
63.0229	1	C5H3+
67.0291	1	C3H3N2+
90.0339	4	C6H4N+
98.9996	2	C5H4Cl+
108.9608	1	C3H3Cl2+
123.9948	5	C6H3ClN+
125.0027	11	C6H4ClN+
126.0106	6	C6H5ClN+
132.9608	2	C5H3Cl2+
142.0054	2	C6H5ClNO+
146.94	1	C5HCl2O+
147.9716	1	C5H4Cl2N+
159.9717	9	C6H4Cl2N+
160.9794	999	C6H5Cl2N+
166.0165	1	C7H5ClN3+
171.9714	2	C7H4Cl2N+
175.9666	19	C6H4Cl2NO+
176.9742	4	C6H5Cl2NO+
