Mass spectrum: Nimesulide; LC-ESI-QFT; MS2; CE: 45; R=17500; [M-H]-
Name: Nimesulide
Name: N-(4-nitro-2-phenoxyphenyl)methanesulfonamide
Formula: C13H12N2O5S
Exact mass: 308.0467
SMILES: CS(=O)(=O)NC1=CC=C(C=C1OC1=CC=CC=C1)[N+]([O-])=O
InChI: InChI=1S/C13H12N2O5S/c1-21(18,19)14-12-8-7-10(15(16)17)9-13(12)20-11-5-3-2-4-6-11/h2-9,14H,1H3
Instrument: Q Exactive Orbitrap (Thermo Scientific)
Instrument type: LC-ESI-QFT
Ms type: MS2
Ion mode: NEGATIVE
Ionization: ESI
Fragmentation mode: HCD
Collision energy: 45
Resolution: 17500
Column name: Acquity BEH C18 1.7um, 2.1x150mm (Waters)
Retention time: 16.701 min
Base peak: 429.0536
Precursor m/z: 307.0394
Precursor type: [M-H]-
Precursor intensity: 24597114.36719
m/z	relative intensity	assigned
63.9624	148	O2S-
69.0346	6	C4H5O-
76.0192	2	C5H2N-
78.9859	422	CH3O2S-
92.0506	2	C6H6N-
95.0136	2	C5H3O2-
96.0216	1	C5H4O2-
97.0296	3	C5H5O2-
111.0087	3	C5H3O3-
118.0298	1	C7H4NO-
120.0091	1	C6H2NO2-
121.017	3	C6H3NO2-
122.0247	124	C6H4NO2-
128.0115	2	C5H4O4-
136.0404	2	C7H6NO2-
142.0662	36	C10H8N-
152.0227	7	C6H4N2O3-
154.0663	3	C11H8N-
156.058	2	C11H8O-
169.053	1	C11H7NO-
170.0611	46	C11H8NO-
172.0773	1	C11H10NO-
182.061	5	C12H8NO-
186.056	2	C11H8NO2-
197.0483	5	C12H7NO2-
198.056	318	C12H8NO2-
199.0638	63	C12H9NO2-
211.0515	7	C12H7N2O2-
227.0463	110	C12H7N2O3-
228.0541	265	C12H8N2O3-
229.0617	999	C12H9N2O3-
261.0471	1	C13H11NO3S-
