Mass spectrum: 6-Nitrobenzimidazole; LC-ESI-QFT; MS2; CE: 90; R=17500; [M-H]-
Name: 6-Nitrobenzimidazole
Name: 5-Nitrobenzimidazole
Formula: C7H5N3O2
Exact mass: 163.0382
SMILES: [O-][N+](=O)C1=CC2=C(NC=N2)C=C1
InChI: InChI=1S/C7H5N3O2/c11-10(12)5-1-2-6-7(3-5)9-4-8-6/h1-4H,(H,8,9)
Instrument: Q Exactive Orbitrap (Thermo Scientific)
Instrument type: LC-ESI-QFT
Ms type: MS2
Ion mode: NEGATIVE
Ionization: ESI
Fragmentation mode: HCD
Collision energy: 90
Resolution: 17500
Column name: Acquity BEH C18 1.7um, 2.1x150mm (Waters)
Retention time: 10.075 min
Base peak: 162.0308
Precursor m/z: 162.0309
Precursor type: [M-H]-
Precursor intensity: 23814610.12744
m/z	relative intensity	assigned
64.0192	11	C4H2N-
65.0146	4	C3HN2-
65.9984	6	C3NO-
67.0301	8	C3H3N2-
68.0142	4	C3H2NO-
88.0192	10	C6H2N-
91.0302	177	C5H3N2-
92.038	83	C5H4N2-
93.022	7	C5H3NO-
95.0251	33	C4H3N2O-
97.0041	1	C3HN2O2-
104.038	218	C6H4N2-
105.022	14	C6H3NO-
106.0174	2	C5H2N2O-
107.0251	4	C5H3N2O-
108.0329	89	C5H4N2O-
115.0301	829	C7H3N2-
116.038	152	C7H4N2-
119.0251	167	C6H3N2O-
120.0331	1	C6H4N2O-
132.0329	999	C7H4N2O-
135.0201	1	C6H3N2O2-
147.0201	12	C7H3N2O2-
162.0309	104	C7H4N3O2-
