Mass spectrum: Isopropalin; LC-ESI-QFT; MS2; CE: 60; R=17500; [M+H]+
Name: Isopropalin
Name: 2,6-dinitro-4-propan-2-yl-N,N-dipropylaniline
Formula: C15H23N3O4
Exact mass: 309.1689
SMILES: CCCN(CCC)C1=C(C=C(C=C1[N+]([O-])=O)C(C)C)[N+]([O-])=O
InChI: InChI=1S/C15H23N3O4/c1-5-7-16(8-6-2)15-13(17(19)20)9-12(11(3)4)10-14(15)18(21)22/h9-11H,5-8H2,1-4H3
Instrument: Q Exactive Orbitrap (Thermo Scientific)
Instrument type: LC-ESI-QFT
Ms type: MS2
Ion mode: POSITIVE
Ionization: ESI
Fragmentation mode: HCD
Collision energy: 60
Resolution: 17500
Column name: Acquity BEH C18 1.7um, 2.1x150mm (Waters)
Retention time: 20.366 min
Base peak: 79.0212
Precursor m/z: 310.1761
Precursor type: [M+H]+
Precursor intensity: 1145944.5625
m/z	relative intensity	assigned
52.0182	90	C3H2N+
53.0022	181	C3HO+
55.0543	213	C4H7+
57.0335	268	C3H5O+
57.07	145	C4H9+
58.0651	124	C3H8N+
67.0542	78	C5H7+
69.0699	264	C5H9+
79.0543	283	C6H7+
81.0697	103	C6H9+
83.0855	97	C6H11+
91.0542	592	C7H7+
92.0495	102	C6H6N+
93.07	195	C7H9+
94.0651	184	C6H8N+
95.0493	114	C6H7O+
104.0496	203	C7H6N+
105.0448	149	C6H5N2+
105.0701	109	C8H9+
106.0652	277	C7H8N+
116.0496	168	C8H6N+
117.0572	204	C8H7N+
118.0651	878	C8H8N+
119.0606	202	C7H7N2+
120.0806	79	C8H10N+
121.0761	95	C7H9N2+
122.06	117	C7H8NO+
130.0651	358	C9H8N+
131.0604	394	C8H7N2+
132.0439	86	C8H6NO+
132.0683	251	C8H8N2+
132.0806	238	C9H10N+
133.0761	942	C8H9N2+
133.0887	290	C9H11N+
134.0477	107	C7H6N2O+
134.0604	135	C8H8NO+
134.0963	349	C9H12N+
135.0554	327	C7H7N2O+
143.0605	139	C9H7N2+
144.0681	78	C9H8N2+
145.0761	913	C9H9N2+
146.0838	136	C9H10N2+
147.0553	457	C8H7N2O+
147.0917	342	C9H11N2+
149.0221	335	C6H3N3O2+
149.0711	167	C8H9N2O+
159.0921	223	C10H11N2+
160.0633	192	C9H8N2O+
160.0996	116	C10H12N2+
161.0709	892	C9H9N2O+
163.0868	314	C9H11N2O+
171.0919	172	C11H11N2+
172.0998	409	C11H12N2+
173.1075	257	C11H13N2+
175.0867	939	C10H11N2O+
176.0946	278	C10H12N2O+
177.0661	153	C9H9N2O2+
187.0872	109	C11H11N2O+
187.1237	149	C12H15N2+
188.1312	325	C12H16N2+
189.1024	262	C11H13N2O+
190.0612	284	C9H8N3O2+
191.0693	302	C9H9N3O2+
191.0817	847	C10H11N2O2+
193.0973	240	C10H13N2O2+
194.0564	405	C8H8N3O3+
195.0766	156	C9H11N2O3+
201.1388	87	C13H17N2+
203.1177	999	C12H15N2O+
206.0925	485	C10H12N3O2+
208.0717	737	C9H10N3O3+
209.0795	468	C9H11N3O3+
218.0926	563	C11H12N3O2+
219.1131	94	C12H15N2O2+
222.0874	423	C10H12N3O3+
226.0835	126	C9H12N3O4+
234.1237	685	C12H16N3O2+
