Mass spectrum: 3-Hydroxy-4-butyrophenetidide; LC-ESI-QFT; MS2; CE: 90; R=17500; [M+H]+
Name: 3-Hydroxy-4-butyrophenetidide
Name: Bucetin
Name: N-(4-ethoxyphenyl)-3-hydroxybutanamide
Formula: C12H17NO3
Exact mass: 223.1208
SMILES: CCOC1=CC=C(NC(=O)CC(C)O)C=C1
InChI: InChI=1S/C12H17NO3/c1-3-16-11-6-4-10(5-7-11)13-12(15)8-9(2)14/h4-7,9,14H,3,8H2,1-2H3,(H,13,15)
Instrument: Q Exactive Orbitrap (Thermo Scientific)
Instrument type: LC-ESI-QFT
Ms type: MS2
Ion mode: POSITIVE
Ionization: ESI
Fragmentation mode: HCD
Collision energy: 90
Resolution: 17500
Column name: Acquity BEH C18 1.7um, 2.1x150mm (Waters)
Retention time: 14.372 min
Base peak: 79.0211
Precursor m/z: 224.1281
Precursor type: [M+H]+
Precursor intensity: 11460036.03125
m/z	relative intensity	assigned
53.0022	1	C3HO+
53.0386	8	C4H5+
65.0385	20	C5H5+
68.013	14	C3H2NO+
69.0334	8	C4H5O+
79.0542	1	C6H7+
80.0494	32	C5H6N+
81.0335	223	C5H5O+
82.065	3	C5H8N+
90.034	1	C6H4N+
91.0541	4	C7H7+
92.0494	8	C6H6N+
93.0335	3	C6H5O+
93.0573	3	C6H7N+
94.0412	1	C6H6O+
95.0492	2	C6H7O+
107.0492	4	C7H7O+
108.0443	999	C6H6NO+
109.0521	8	C6H7NO+
110.0599	36	C6H8NO+
111.044	14	C6H7O2+
134.0601	1	C8H8NO+
135.0682	1	C8H9NO+
136.0757	20	C8H10NO+
138.0913	5	C8H12NO+
