Mass spectrum: 7-Diethylamino-4-methylcoumarin; LC-ESI-QFT; MS2; CE: 75; R=17500; [M+H]+
Name: 7-Diethylamino-4-methylcoumarin
Name: 7-(diethylamino)-4-methylchromen-2-one
Formula: C14H17NO2
Exact mass: 231.1259
SMILES: CCN(CC)C1=CC=C2C(C)=CC(=O)OC2=C1
InChI: InChI=1S/C14H17NO2/c1-4-15(5-2)11-6-7-12-10(3)8-14(16)17-13(12)9-11/h6-9H,4-5H2,1-3H3
Instrument: Q Exactive Orbitrap (Thermo Scientific)
Instrument type: LC-ESI-QFT
Ms type: MS2
Ion mode: POSITIVE
Ionization: ESI
Fragmentation mode: HCD
Collision energy: 75
Resolution: 17500
Column name: Acquity BEH C18 1.7um, 2.1x150mm (Waters)
Retention time: 17.638 min
Base peak: 79.0211
Precursor m/z: 232.1332
Precursor type: [M+H]+
Precursor intensity: 43739153.5
m/z	relative intensity	assigned
55.0179	1	C3H3O+
56.0495	1	C3H6N+
58.0651	1	C3H8N+
65.0386	1	C5H5+
67.0178	8	C4H3O+
67.0542	1	C5H7+
68.013	31	C3H2NO+
70.065	1	C4H8N+
72.0807	4	C4H10N+
74.0963	1	C4H12N+
77.0386	1	C6H5+
79.0542	7	C6H7+
91.0542	16	C7H7+
93.0699	8	C7H9+
94.0651	1	C6H8N+
95.049	2	C6H7O+
96.0443	6	C5H6NO+
103.0542	18	C8H7+
104.0495	2	C7H6N+
104.0619	2	C8H8+
105.0699	27	C8H9+
106.065	7	C7H8N+
107.049	1	C7H7O+
107.0855	1	C8H11+
109.0648	4	C7H9O+
110.0601	1	C6H8NO+
115.0542	18	C9H7+
116.062	23	C9H8+
117.0572	11	C8H7N+
117.0699	14	C9H9+
118.0651	13	C8H8N+
119.0729	10	C8H9N+
120.0807	10	C8H10N+
121.0647	11	C8H9O+
122.0599	2	C7H8NO+
128.062	1	C10H8+
129.0696	1	C10H9+
130.0652	15	C9H8N+
131.0491	9	C9H7O+
131.073	9	C9H9N+
131.0853	2	C10H11+
132.057	18	C9H8O+
132.0807	58	C9H10N+
133.0524	1	C8H7NO+
133.0648	6	C9H9O+
133.0885	5	C9H11N+
134.06	6	C8H8NO+
134.0964	6	C9H12N+
135.0804	1	C9H11O+
136.0762	1	C8H10NO+
138.0913	3	C8H12NO+
142.065	3	C10H8N+
143.073	5	C10H9N+
144.0808	67	C10H10N+
145.0525	1	C9H7NO+
145.0647	1	C10H9O+
145.0885	4	C10H11N+
146.06	11	C9H8NO+
146.0964	21	C10H12N+
147.0678	20	C9H9NO+
147.1042	7	C10H13N+
148.0756	6	C9H10NO+
148.1121	27	C10H14N+
157.0887	2	C11H11N+
158.0965	15	C11H12N+
159.0443	3	C10H7O2+
159.1043	3	C11H13N+
160.0756	345	C10H10NO+
161.0596	4	C10H9O2+
161.0837	3	C10H11NO+
161.1197	13	C11H15N+
162.0912	3	C10H12NO+
162.1277	1	C11H16N+
172.112	13	C12H14N+
173.0836	1	C11H11NO+
173.1196	2	C12H15N+
174.0677	15	C11H10O2+
174.0913	65	C11H12NO+
174.1273	3	C12H16N+
175.0628	7	C10H9NO2+
175.0992	79	C11H13NO+
176.0707	6	C10H10NO2+
176.1069	12	C11H14NO+
176.1433	55	C12H18N+
186.1277	1	C13H16N+
188.0705	999	C11H10NO2+
189.0782	2	C11H11NO2+
189.1151	3	C12H15NO+
190.1223	1	C12H16NO+
192.0419	3	C13H6NO+
192.1016	1	C11H14NO2+
202.0862	53	C12H12NO2+
203.094	31	C12H13NO2+
204.1018	15	C12H14NO2+
204.1384	5	C13H18NO+
216.102	11	C13H14NO2+
217.1094	1	C13H15NO2+
232.1331	30	C14H18NO2+
