Mass spectrum: CP-401387; LC-ESI-QFT; MS2; CE: 30; R=17500; [M-H]-
Name: CP-401387
Name: 4-cyano-4-(1-cyclohexyl-3-ethylindazol-6-yl)cyclohexane-1-carboxylic acid
Formula: C23H29N3O2
Exact mass: 379.2260
SMILES: CCC1=NN(C2CCCCC2)C2=C1C=CC(=C2)[C@]1(CC[C@@H](CC1)C(O)=O)C#N
InChI: InChI=1S/C23H29N3O2/c1-2-20-19-9-8-17(23(15-24)12-10-16(11-13-23)22(27)28)14-21(19)26(25-20)18-6-4-3-5-7-18/h8-9,14,16,18H,2-7,10-13H2,1H3,(H,27,28)/t16-,23-
Instrument: Q Exactive Orbitrap (Thermo Scientific)
Instrument type: LC-ESI-QFT
Ms type: MS2
Ion mode: NEGATIVE
Ionization: ESI
Fragmentation mode: HCD
Collision energy: 30
Resolution: 17500
Column name: Acquity BEH C18 1.7um, 2.1x150mm (Waters)
Retention time: 19.021 min
Base peak: 271.9888
Precursor m/z: 378.2187
Precursor type: [M-H]-
Precursor intensity: 3385313.335938
m/z	relative intensity	assigned
68.0142	1	C3H2NO-
80.0506	12	C5H6N-
106.0662	2	C7H8N-
196.088	2	C12H10N3-
198.1161	1	C13H14N2-
199.1241	39	C13H15N2-
225.1397	6	C15H17N2-
241.1713	4	C16H21N2-
250.1347	5	C16H16N3-
251.1429	14	C16H17N3-
252.1507	68	C16H18N3-
266.1658	3	C17H20N3-
279.1858	1	C19H23N2-
281.2026	7	C19H25N2-
283.1324	3	C16H17N3O2-
332.2123	5	C22H26N3-
334.229	347	C22H28N3-
378.2188	999	C23H28N3O2-
