Mass spectrum: 4-[3-(4-Acetyl-3-hydroxy-2-propylphenoxy)propoxy]phenoxy-acetic acid; LC-ESI-QFT; MS2; CE: 15; R=17500; [M+H]+
Name: 4-[3-(4-Acetyl-3-hydroxy-2-propylphenoxy)propoxy]phenoxy-acetic acid
Name: 2-(4-(3-(4-Acetyl-3-hydroxy-2-propylphenoxy)propoxy)phenoxy)acetic acid
Name: 2-[4-[3-(4-acetyl-3-hydroxy-2-propylphenoxy)propoxy]phenoxy]acetic acid
Formula: C22H26O7
Exact mass: 402.1679
SMILES: CCCC1=C(OCCCOC2=CC=C(OCC(O)=O)C=C2)C=CC(C(C)=O)=C1O
InChI: InChI=1S/C22H26O7/c1-3-5-19-20(11-10-18(15(2)23)22(19)26)28-13-4-12-27-16-6-8-17(9-7-16)29-14-21(24)25/h6-11,26H,3-5,12-14H2,1-2H3,(H,24,25)
Instrument: Q Exactive Orbitrap (Thermo Scientific)
Instrument type: LC-ESI-QFT
Ms type: MS2
Ion mode: POSITIVE
Ionization: ESI
Fragmentation mode: HCD
Collision energy: 15
Resolution: 17500
Column name: Acquity BEH C18 1.7um, 2.1x150mm (Waters)
Retention time: 19.209 min
Base peak: 79.0211
Precursor m/z: 403.1751
Precursor type: [M+H]+
Precursor intensity: 12402041
m/z	relative intensity	assigned
123.0445	1	C7H7O2+
135.0804	3	C9H11O+
137.0596	1	C8H9O2+
149.0596	2	C9H9O2+
150.0676	2	C9H10O2+
151.0753	10	C9H11O2+
153.0911	9	C9H13O2+
163.0753	257	C10H11O2+
165.091	35	C10H13O2+
181.0494	7	C9H9O4+
191.0704	15	C11H11O3+
191.1066	13	C12H15O2+
193.0862	5	C11H13O3+
193.1224	74	C12H17O2+
195.1016	64	C11H15O3+
205.1222	6	C13H17O2+
207.1016	6	C12H15O3+
209.0808	20	C11H13O4+
233.1172	1	C14H17O3+
235.1327	8	C14H19O3+
285.1485	1	C18H21O3+
297.1477	2	C19H21O3+
315.1592	75	C19H23O4+
343.1544	18	C20H23O5+
357.1697	61	C21H25O5+
361.1646	43	C20H25O6+
403.1753	999	C22H27O7+
