Mass spectrum: Methyl red; LC-ESI-QFT; MS2; CE: 30; R=17500; [M+H]+
Name: Methyl red
Name: 2-[[4-(dimethylamino)phenyl]diazenyl]benzoic acid
Formula: C15H15N3O2
Exact mass: 269.1164
SMILES: CN(C)C1=CC=C(C=C1)N=NC2=CC=CC=C2C(=O)O
InChI: InChI=1S/C15H15N3O2/c1-18(2)12-9-7-11(8-10-12)16-17-14-6-4-3-5-13(14)15(19)20/h3-10H,1-2H3,(H,19,20)
Instrument: Q Exactive Orbitrap (Thermo Scientific)
Instrument type: LC-ESI-QFT
Ms type: MS2
Ion mode: POSITIVE
Ionization: ESI
Fragmentation mode: HCD
Collision energy: 30
Resolution: 17500
Column name: Acquity BEH C18 1.7um, 2.1x150mm (Waters)
Retention time: 18.101 min
Base peak: 79.0211
Precursor m/z: 270.1237
Precursor type: [M+H]+
Precursor intensity: 17213843.75
m/z	relative intensity	assigned
115.0542	2	C9H7+
121.0284	1	C7H5O2+
141.0698	2	C11H9+
148.0755	40	C9H10NO+
152.0618	4	C12H8+
153.0698	91	C12H9+
155.0854	6	C12H11+
162.1276	4	C11H16N+
165.0698	11	C13H9+
166.0777	2	C13H10+
167.0855	4	C13H11+
168.0933	1	C13H12+
179.0858	2	C14H11+
180.0569	7	C13H8O+
180.0806	15	C13H10N+
181.0647	17	C13H9O+
181.0885	74	C13H11N+
183.0804	7	C13H11O+
194.0963	13	C14H12N+
195.1042	3	C14H13N+
196.112	145	C14H14N+
208.0755	5	C14H10NO+
209.0834	156	C14H11NO+
222.0913	34	C15H12NO+
223.099	17	C15H13NO+
224.1068	100	C15H14NO+
226.134	2	C14H16N3+
237.0892	1	C14H11N3O+
238.0992	6	C14H12N3O+
252.1129	999	C15H14N3O+
270.1235	198	C15H16N3O2+
