Mass spectrum: PFOSA; LC-ESI-QFT; MS2; CE: 15; R=17500; [M-H]-
Name: PFOSA
Name: Perfluorooctanesulfonamide
Name: 1,1,2,2,3,3,4,4,5,5,6,6,7,7,8,8,8-heptadecafluorooctane-1-sulfonamide
Formula: C8H2F17NO2S
Exact mass: 498.9535
SMILES: NS(=O)(=O)C(F)(F)C(F)(F)C(F)(F)C(F)(F)C(F)(F)C(F)(F)C(F)(F)C(F)(F)F
InChI: InChI=1S/C8H2F17NO2S/c9-1(10,3(13,14)5(17,18)7(21,22)23)2(11,12)4(15,16)6(19,20)8(24,25)29(26,27)28/h(H2,26,27,28)
Instrument: Q Exactive Orbitrap (Thermo Scientific)
Instrument type: LC-ESI-QFT
Ms type: MS2
Ion mode: NEGATIVE
Ionization: ESI
Fragmentation mode: HCD
Collision energy: 15
Resolution: 17500
Column name: Acquity BEH C18 1.7um, 2.1x150mm (Waters)
Retention time: 19.172 min
Base peak: 497.9461
Precursor m/z: 497.9462
Precursor type: [M-H]-
Precursor intensity: 14769750.0332
m/z	relative intensity	assigned
77.9655	90	NO2S-
168.9898	1	C3F7-
477.9382	2	C8F16NO2S-
497.9461	999	C8HF17NO2S-
