Mass spectrum: Benzylparaben; LC-ESI-QFT; MS2; CE: 45; R=17500; [M-H]-
Name: Benzylparaben
Name: benzyl 4-hydroxybenzoate
Formula: C14H12O3
Exact mass: 228.0786
SMILES: OC1=CC=C(C=C1)C(=O)OCC1=CC=CC=C1
InChI: InChI=1S/C14H12O3/c15-13-8-6-12(7-9-13)14(16)17-10-11-4-2-1-3-5-11/h1-9,15H,10H2
Instrument: Q Exactive Orbitrap (Thermo Scientific)
Instrument type: LC-ESI-QFT
Ms type: MS2
Ion mode: NEGATIVE
Ionization: ESI
Fragmentation mode: HCD
Collision energy: 45
Resolution: 17500
Column name: Acquity BEH C18 1.7um, 2.1x150mm (Waters)
Retention time: 17.507 min
Base peak: 227.0714
Precursor m/z: 227.0714
Precursor type: [M-H]-
Precursor intensity: 69156267.27051
m/z	relative intensity	assigned
53.0032	2	C3HO-
65.0031	1	C4HO-
66.0112	2	C4H2O-
67.0189	3	C4H3O-
68.9982	13	C3HO2-
69.0346	8	C4H5O-
70.006	11	C3H2O2-
71.0138	7	C3H3O2-
72.9932	5	C2HO3-
78.0109	2	C5H2O-
79.019	10	C5H3O-
79.9903	6	C4O2-
80.9982	5	C4HO2-
82.006	42	C4H2O2-
86.0008	1	C3H2O3-
91.0187	1	C6H3O-
92.0268	332	C6H4O-
93.0345	3	C6H5O-
95.0139	533	C5H3O2-
97.0297	6	C5H5O2-
98.0009	2	C4H2O3-
106.006	24	C6H2O2-
107.0138	3	C6H3O2-
107.0503	8	C7H7O-
108.0217	483	C6H4O2-
109.0294	2	C6H5O2-
121.0293	4	C7H5O2-
123.0088	66	C6H3O3-
125.0242	1	C6H5O3-
136.0166	999	C7H4O3-
183.0816	15	C13H11O-
227.0715	41	C14H11O3-
