Mass spectrum: Scopolamine; LC-ESI-QFT; MS2; CE: 75; R=17500; [M+H]+
Name: Scopolamine
Formula: C17H21NO4
Exact mass: 303.1471
SMILES: CN1[C@H]2C[C@H](OC(=O)[C@H](CO)c3ccccc3)C[C@@H]1[C@H]1O[C@@H]21
InChI: InChI=1S/C17H21NO4/c1-18-13-7-11(8-14(18)16-15(13)22-16)21-17(20)12(9-19)10-5-3-2-4-6-10/h2-6,11-16,19H,7-9H2,1H3/t11-,12-,13-,14+,15-,16+/m1/s1
Instrument: Q Exactive Orbitrap (Thermo Scientific)
Instrument type: LC-ESI-QFT
Ms type: MS2
Ion mode: POSITIVE
Ionization: ESI
Fragmentation mode: HCD
Collision energy: 75
Resolution: 17500
Column name: Acquity BEH C18 1.7um, 2.1x150mm (Waters)
Retention time: 9.993 min
Base peak: 79.0212
Precursor m/z: 304.1543
Precursor type: [M+H]+
Precursor intensity: 17457211.25
m/z	relative intensity	assigned
53.0022	2	C3HO+
53.0386	29	C4H5+
54.0338	1	C3H4N+
55.0178	5	C3H3O+
55.0542	11	C4H7+
56.0495	11	C3H6N+
57.0335	9	C3H5O+
57.0573	1	C3H7N+
58.0288	6	C2H4NO+
58.0651	3	C3H8N+
59.0366	4	C2H5NO+
60.0443	3	C2H6NO+
65.0386	5	C5H5+
67.0417	11	C4H5N+
67.0542	55	C5H7+
68.0494	30	C4H6N+
69.0335	3	C4H5O+
69.0573	1	C4H7N+
69.0698	4	C5H9+
70.0651	111	C4H8N+
71.0491	1	C4H7O+
72.0444	21	C3H6NO+
73.0283	5	C3H5O2+
73.0522	2	C3H7NO+
74.06	7	C3H8NO+
74.0964	1	C4H12N+
77.0384	11	C6H5+
79.0542	218	C6H7+
80.0494	14	C5H6N+
81.0335	77	C5H5O+
81.0573	16	C5H7N+
81.0699	44	C6H9+
82.0651	105	C5H8N+
83.0491	40	C5H7O+
84.0444	6	C4H6NO+
84.0808	27	C5H10N+
86.06	3	C4H8NO+
91.0542	63	C7H7+
93.0574	5	C6H7N+
93.0699	41	C7H9+
94.0652	82	C6H8N+
95.0492	80	C6H7O+
95.073	39	C6H9N+
96.0444	44	C5H6NO+
96.0807	45	C6H10N+
97.0522	170	C5H7NO+
97.0646	9	C6H9O+
98.06	130	C5H8NO+
102.0464	8	C8H6+
103.0542	999	C8H7+
105.0573	1	C7H7N+
106.0652	1	C7H8N+
107.0491	16	C7H7O+
107.073	3	C7H9N+
108.0808	41	C7H10N+
109.0648	1	C7H9O+
109.0887	11	C7H11N+
110.0601	60	C6H8NO+
110.0964	192	C7H12N+
115.0628	2	C5H9NO2+
118.0651	1	C8H8N+
120.0808	24	C8H10N+
121.0648	102	C8H9O+
122.0599	1	C7H8NO+
123.0677	8	C7H9NO+
136.0757	1	C8H10NO+
138.0913	367	C8H12NO+
154.0863	3	C8H12NO2+
156.1019	68	C8H14NO2+
