Mass spectrum: 4`-Sulfamylacetanilide; LC-ESI-QFT; MS2; CE: 75; R=17500; [M-H]-
Name: 4'-Sulfamylacetanilide
Name: 4-Acetamidobenzenesulfonamide
Name: N-(4-sulfamoylphenyl)acetamide
Formula: C8H10N2O3S
Exact mass: 214.0412
SMILES: CC(=O)NC1=CC=C(C=C1)S(N)(=O)=O
InChI: InChI=1S/C8H10N2O3S/c1-6(11)10-7-2-4-8(5-3-7)14(9,12)13/h2-5H,1H3,(H,10,11)(H2,9,12,13)
Instrument: Q Exactive Orbitrap (Thermo Scientific)
Instrument type: LC-ESI-QFT
Ms type: MS2
Ion mode: NEGATIVE
Ionization: ESI
Fragmentation mode: HCD
Collision energy: 75
Resolution: 17500
Column name: Acquity BEH C18 1.7um, 2.1x150mm (Waters)
Retention time: 8.223 min
Base peak: 213.0339
Precursor m/z: 213.0339
Precursor type: [M-H]-
Precursor intensity: 4501190.392334
m/z	relative intensity	assigned
61.9706	104	NOS-
63.9624	65	O2S-
68.0141	2	C3H2NO-
77.9656	549	NO2S-
78.9734	261	HNO2S-
79.9812	105	H2NO2S-
80.9652	20	HO3S-
90.0349	6	C6H4N-
91.0428	27	C6H5N-
92.0506	999	C6H6N-
93.0346	8	C6H5O-
93.9604	146	NO3S-
94.0298	55	C5H4NO-
96.0091	6	C4H2NO2-
105.0459	4	C6H5N2-
106.0298	15	C6H4NO-
106.0536	53	C6H6N2-
107.0377	49	C6H5NO-
107.0615	6	C6H7N2-
118.0298	68	C7H4NO-
122.0248	135	C6H4NO2-
123.0327	5	C6H5NO2-
133.0408	10	C7H5N2O-
133.0531	17	C8H7NO-
134.0248	58	C7H4NO2-
134.0611	169	C8H8NO-
136.0404	35	C7H6NO2-
148.0643	4	C8H8N2O-
149.0482	43	C8H7NO2-
149.0721	14	C8H9N2O-
150.0199	15	C7H4NO3-
153.9968	8	C6H4NO2S-
155.0047	8	C6H5NO2S-
164.0355	3	C8H6NO3-
171.0237	10	C6H7N2O2S-
181.9916	5	C7H4NO3S-
