Mass spectrum: Bispyribac; LC-ESI-QFT; MS2; CE: 15; R=17500; [M+H]+
Name: Bispyribac
Formula: C19H18N4O8
Exact mass: 430.1125
SMILES: COC1=CC(OC)=NC(OC2=CC=CC(OC3=NC(OC)=CC(OC)=N3)=C2C(O)=O)=N1
InChI: InChI=1S/C19H18N4O8/c1-26-12-8-13(27-2)21-18(20-12)30-10-6-5-7-11(16(10)17(24)25)31-19-22-14(28-3)9-15(23-19)29-4/h5-9H,1-4H3,(H,24,25)
Instrument: Q Exactive Orbitrap (Thermo Scientific)
Instrument type: LC-ESI-QFT
Ms type: MS2
Ion mode: POSITIVE
Ionization: ESI
Fragmentation mode: HCD
Collision energy: 15
Resolution: 17500
Column name: Acquity BEH C18 1.7um, 2.1x150mm (Waters)
Retention time: 17.331 min
Base peak: 79.0211
Precursor m/z: 431.1197
Precursor type: [M+H]+
Precursor intensity: 12294477.25
m/z	relative intensity	assigned
125.0352	1	C5H5N2O2+
157.0608	6	C6H9N2O3+
260.043	1	C12H8N2O5+
275.0659	999	C13H11N2O5+
387.1295	11	C18H19N4O6+
413.1091	222	C19H17N4O7+
