Mass spectrum: Mifepristone; LC-ESI-QFT; MS2; CE: 30; R=17500; [M+H]+
Name: Mifepristone
Name: (8S,11R,13S,14S,17S)-11-[4-(dimethylamino)phenyl]-17-hydroxy-13-methyl-17-prop-1-ynyl-1,2,6,7,8,11,12,14,15,16-decahydrocyclopenta[a]phenanthren-3-one
Formula: C29H35NO2
Exact mass: 429.2668
SMILES: CC#C[C@]1(O)CC[C@H]2[C@@H]3CCC4=CC(=O)CCC4=C3[C@H](C[C@]12C)C1=CC=C(C=C1)N(C)C
InChI: InChI=1S/C29H35NO2/c1-5-15-29(32)16-14-26-24-12-8-20-17-22(31)11-13-23(20)27(24)25(18-28(26,29)2)19-6-9-21(10-7-19)30(3)4/h6-7,9-10,17,24-26,32H,8,11-14,16,18H2,1-4H3/t24-,25+,26-,28-,29-/m0/s1
Instrument: Q Exactive Orbitrap (Thermo Scientific)
Instrument type: LC-ESI-QFT
Ms type: MS2
Ion mode: POSITIVE
Ionization: ESI
Fragmentation mode: HCD
Collision energy: 30
Resolution: 17500
Column name: Acquity BEH C18 1.7um, 2.1x150mm (Waters)
Retention time: 16.426 min
Base peak: 79.0211
Precursor m/z: 430.2741
Precursor type: [M+H]+
Precursor intensity: 7763522.5
m/z	relative intensity	assigned
55.0178	7	C3H3O+
55.0542	3	C4H7+
57.0335	3	C3H5O+
67.0541	7	C5H7+
69.0334	4	C4H5O+
69.0698	8	C5H9+
79.0542	9	C6H7+
81.0698	19	C6H9+
83.049	7	C5H7O+
85.0648	3	C5H9O+
91.054	16	C7H7+
93.0699	42	C7H9+
95.0492	8	C6H7O+
95.0855	25	C7H11+
97.0647	52	C6H9O+
105.0699	25	C8H9+
107.0491	14	C7H7O+
107.0729	10	C7H9N+
107.0855	37	C8H11+
109.0647	34	C7H9O+
109.101	11	C8H13+
111.0803	7	C7H11O+
117.0699	18	C9H9+
119.0855	81	C9H11+
120.0808	29	C8H10N+
121.0646	13	C8H9O+
121.0886	135	C8H11N+
121.1011	44	C9H13+
122.0963	239	C8H12N+
123.0804	35	C8H11O+
125.0961	18	C8H13O+
129.0698	27	C10H9+
131.0856	37	C10H11+
132.0808	8	C9H10N+
133.0648	49	C9H9O+
133.0891	2	C9H11N+
133.1012	37	C10H13+
134.0963	826	C9H12N+
135.0804	114	C9H11O+
136.112	3	C9H14N+
137.0961	32	C9H13O+
141.0697	9	C11H9+
143.0854	28	C11H11+
145.0649	12	C10H9O+
145.1011	67	C11H13+
146.0965	19	C10H12N+
147.0803	78	C10H11O+
147.1043	12	C10H13N+
147.1166	9	C11H15+
148.0756	54	C9H10NO+
148.112	236	C10H14N+
149.096	76	C10H13O+
150.0913	7	C9H12NO+
151.075	3	C9H11O2+
155.0853	22	C12H11+
157.0649	27	C11H9O+
157.0883	2	C11H11N+
157.1012	22	C12H13+
158.0961	13	C11H12N+
159.0804	118	C11H11O+
159.1045	14	C11H13N+
159.1167	15	C12H15+
160.112	143	C11H14N+
161.096	128	C11H13O+
161.12	15	C11H15N+
162.1277	96	C11H16N+
163.1116	39	C11H15O+
167.0858	13	C13H11+
169.1011	26	C13H13+
171.0805	13	C12H11O+
171.1041	8	C12H13N+
171.1165	16	C13H15+
172.112	88	C12H14N+
173.0961	133	C12H13O+
173.1197	34	C12H15N+
174.1277	88	C12H16N+
175.1118	27	C12H15O+
175.1354	39	C12H17N+
176.1434	6	C12H18N+
179.0855	6	C14H11+
181.1012	23	C14H13+
183.0803	11	C13H11O+
183.1168	18	C14H15+
184.1121	15	C13H14N+
185.0961	48	C13H13O+
185.1198	18	C13H15N+
185.1321	8	C14H17+
186.1276	106	C13H16N+
187.1116	58	C13H15O+
187.1356	34	C13H17N+
188.1433	121	C13H18N+
189.1276	7	C13H17O+
190.1227	5	C12H16NO+
191.0853	4	C15H11+
193.1012	17	C15H13+
195.0803	6	C14H11O+
195.117	21	C15H15+
197.0961	37	C14H13O+
197.1325	10	C15H17+
198.1039	4	C14H14O+
198.1276	29	C14H16N+
199.1117	56	C14H15O+
199.1354	16	C14H17N+
200.1196	4	C14H16O+
200.1432	25	C14H18N+
201.1273	13	C14H17O+
202.1225	3	C13H16NO+
205.1011	6	C16H13+
207.1169	25	C16H15+
208.1238	2	C16H16+
209.0958	30	C15H13O+
209.1322	23	C16H17+
210.1042	3	C15H14O+
210.1277	8	C15H16N+
211.1117	75	C15H15O+
211.1354	7	C15H17N+
212.1193	3	C15H16O+
212.1433	35	C15H18N+
213.1274	60	C15H17O+
213.1511	25	C15H19N+
214.1225	6	C14H16NO+
214.1348	2	C15H18O+
214.1589	51	C15H20N+
215.1066	34	C14H15O2+
215.1433	5	C15H19O+
217.1009	4	C17H13+
219.1171	9	C17H15+
220.124	3	C17H16+
221.096	7	C16H13O+
221.1324	18	C17H17+
222.1278	8	C16H16N+
223.1117	47	C16H15O+
223.1363	5	C16H17N+
223.148	15	C17H19+
224.1436	29	C16H18N+
225.1273	69	C16H17O+
225.1511	8	C16H19N+
226.1225	5	C15H16NO+
226.159	24	C16H20N+
227.1308	4	C15H17NO+
227.1428	49	C16H19O+
228.1378	12	C15H18NO+
228.1748	3	C16H22N+
229.1222	3	C15H17O2+
231.1173	4	C18H15+
232.1247	3	C18H16+
233.1322	14	C18H17+
234.1037	3	C17H14O+
234.1277	2	C17H16N+
234.1402	3	C18H18+
235.1116	19	C17H15O+
235.1354	5	C17H17N+
235.1481	14	C18H19+
236.1199	6	C17H16O+
236.1433	101	C17H18N+
237.1274	34	C17H17O+
237.151	11	C17H19N+
237.1631	4	C18H21+
238.1236	3	C16H16NO+
238.1589	49	C17H20N+
239.1066	9	C16H15O2+
239.1428	18	C17H19O+
239.1663	9	C17H21N+
240.1384	15	C16H18NO+
240.1746	57	C17H22N+
241.1221	7	C16H17O2+
241.1455	5	C16H19NO+
241.1586	9	C17H21O+
242.1538	67	C16H20NO+
243.1379	22	C16H19O2+
243.1618	4	C16H21NO+
244.1697	7	C16H22NO+
245.1322	4	C19H17+
247.1486	6	C19H19+
248.1203	3	C18H16O+
248.1432	4	C18H18N+
249.1272	26	C18H17O+
249.152	12	C18H19N+
249.1636	20	C19H21+
250.1356	5	C18H18O+
250.1593	20	C18H20N+
251.1429	75	C18H19O+
251.1657	18	C18H21N+
252.1379	6	C17H18NO+
252.1745	10	C18H22N+
253.1227	6	C17H17O2+
253.1454	5	C17H19NO+
253.1588	11	C18H21O+
254.1292	3	C17H18O2+
254.1536	9	C17H20NO+
254.1909	7	C18H24N+
255.1378	9	C17H19O2+
256.1691	27	C17H22NO+
257.1539	5	C17H21O2+
262.1353	9	C19H18O+
262.1588	12	C19H20N+
263.1432	26	C19H19O+
263.1667	9	C19H21N+
263.1791	5	C20H23+
264.1746	71	C19H22N+
265.1443	5	C18H19NO+
265.1587	51	C19H21O+
265.1826	3	C19H23N+
266.1537	7	C18H20NO+
266.1673	4	C19H22O+
266.1899	49	C19H24N+
267.161	9	C18H21NO+
267.1744	28	C19H23O+
268.1695	34	C18H22NO+
269.1534	194	C18H21O2+
273.1643	6	C21H21+
274.1591	10	C20H20N+
275.1668	3	C20H21N+
276.1748	11	C20H22N+
277.1455	3	C19H19NO+
278.1541	8	C19H20NO+
278.1902	34	C20H24N+
279.1615	9	C19H21NO+
280.1694	132	C19H22NO+
281.1759	31	C19H23NO+
281.1908	7	C20H25O+
282.1852	75	C19H24NO+
283.1692	19	C19H23O2+
284.201	10	C19H26NO+
286.1583	3	C21H20N+
287.1676	3	C21H21N+
288.1744	56	C21H22N+
290.1904	13	C21H24N+
291.1743	71	C21H23O+
292.1697	9	C20H22NO+
294.1853	21	C20H24NO+
296.2005	31	C20H26NO+
301.1824	8	C22H23N+
302.1901	17	C22H24N+
304.1687	4	C21H22NO+
304.2069	4	C22H26N+
305.1764	5	C21H23NO+
306.1845	32	C21H24NO+
307.1933	5	C21H25NO+
308.2011	26	C21H26NO+
309.1848	110	C21H25O2+
312.1749	4	C23H22N+
314.1903	9	C23H24N+
316.1689	3	C22H22NO+
317.1767	6	C22H23NO+
318.1855	8	C22H24NO+
319.1933	9	C22H25NO+
320.2007	16	C22H26NO+
328.2059	4	C24H26N+
329.1769	3	C23H23NO+
329.2121	2	C24H27N+
330.1847	5	C23H24NO+
331.193	9	C23H25NO+
332.2006	64	C23H26NO+
333.2083	7	C23H27NO+
334.2169	12	C23H28NO+
339.198	3	C25H25N+
344.2016	6	C24H26NO+
345.2091	3	C24H27NO+
346.2165	31	C24H28NO+
348.2321	39	C24H30NO+
354.222	16	C26H28N+
357.2084	8	C25H27NO+
358.2172	8	C25H28NO+
359.2255	11	C25H29NO+
360.2321	57	C25H30NO+
372.2322	852	C26H30NO+
390.243	28	C26H32NO2+
397.2394	18	C28H31NO+
400.2274	5	C27H30NO2+
412.2634	98	C29H34NO+
415.2505	239	C28H33NO2+
430.2741	999	C29H36NO2+
