Mass spectrum: Amiloride; LC-ESI-QFT; MS2; CE: 90; R=17500; [M+H]+
Name: Amiloride
Name: 3,5-diamino-6-chloro-N-(diaminomethylidene)pyrazine-2-carboxamide
Formula: C6H8ClN7O
Exact mass: 229.0479
SMILES: NC(=N)NC(=O)C1=NC(Cl)=C(N)N=C1N
InChI: InChI=1S/C6H8ClN7O/c7-2-4(9)13-3(8)1(12-2)5(15)14-6(10)11/h(H4,8,9,13)(H4,10,11,14,15)
Instrument: Q Exactive Orbitrap (Thermo Scientific)
Instrument type: LC-ESI-QFT
Ms type: MS2
Ion mode: POSITIVE
Ionization: ESI
Fragmentation mode: HCD
Collision energy: 90
Resolution: 17500
Column name: Acquity BEH C18 1.7um, 2.1x150mm (Waters)
Retention time: 9.322 min
Base peak: 79.0211
Precursor m/z: 230.0552
Precursor type: [M+H]+
Precursor intensity: 15547477.25
m/z	relative intensity	assigned
53.0134	1	C2HN2+
55.0291	20	C2H3N2+
56.037	3	C2H4N2+
60.0556	589	CH6N3+
61.9791	80	CHClN+
62.9632	5	CClO+
63.9948	232	CH3ClN+
66.0212	11	C3H2N2+
69.0083	3	C2HN2O+
73.0395	2	C2H5N2O+
73.9791	11	C2HClN+
80.0243	6	C3H2N3+
82.04	1	C3H4N3+
86.0349	5	C2H4N3O+
88.99	152	C2H2ClN2+
91.0057	9	C2H4ClN2+
100.9901	104	C3H2ClN2+
107.0006	2	C2H4ClN2O+
107.0352	7	C4H3N4+
108.043	154	C4H4N4+
116.0009	999	C3H3ClN3+
125.0457	2	C4H5N4O+
140.9962	1	C4H2ClN4+
143.0119	31	C4H4ClN4+
161.0224	141	C4H6ClN4O+
171.0067	6	C5H4ClN4O+
189.0172	25	C3H4ClN7O+
