Mass spectrum: Tomelukast; LC-ESI-QFT; MS2; CE: 90; R=17500; [M-H]-
Name: Tomelukast
Name: 1-[2-hydroxy-3-propyl-4-[4-(2H-tetrazol-5-yl)butoxy]phenyl]ethanone
Formula: C16H22N4O3
Exact mass: 318.1692
SMILES: CCCC1=C(OCCCCC2=NN=NN2)C=CC(C(C)=O)=C1O
InChI: InChI=1S/C16H22N4O3/c1-3-6-13-14(9-8-12(11(2)21)16(13)22)23-10-5-4-7-15-17-19-20-18-15/h8-9,22H,3-7,10H2,1-2H3,(H,17,18,19,20)
Instrument: Q Exactive Orbitrap (Thermo Scientific)
Instrument type: LC-ESI-QFT
Ms type: MS2
Ion mode: NEGATIVE
Ionization: ESI
Fragmentation mode: HCD
Collision energy: 90
Resolution: 17500
Column name: Acquity BEH C18 1.7um, 2.1x150mm (Waters)
Retention time: 17.659 min
Base peak: 317.1618
Precursor m/z: 317.1619
Precursor type: [M-H]-
Precursor intensity: 30133388.32031
m/z	relative intensity	assigned
57.0345	16	C3H5O-
59.0138	20	C2H3O2-
65.0398	28	C5H5-
67.019	82	C4H3O-
79.0552	12	C6H7-
81.0346	98	C5H5O-
83.0503	406	C5H7O-
91.0554	50	C7H7-
93.0346	35	C6H5O-
95.0502	16	C6H7O-
104.0268	121	C7H4O-
105.0346	197	C7H5O-
105.071	40	C8H9-
106.0427	8	C7H6O-
107.0503	32	C7H7O-
107.0867	464	C8H11-
108.0218	21	C6H4O2-
109.0294	82	C6H5O2-
109.0658	11	C7H9O-
119.0501	32	C8H7O-
119.0866	19	C9H11-
120.0581	81	C8H8O-
121.0295	348	C7H5O2-
122.0373	124	C7H6O2-
123.0452	7	C7H7O2-
131.0866	22	C10H11-
133.066	749	C9H9O-
135.0452	447	C8H7O2-
136.053	671	C8H8O2-
146.0374	45	C9H6O2-
147.0817	22	C10H11O-
149.0245	216	C8H5O3-
149.0972	182	C10H13O-
150.0328	9	C8H6O3-
151.0766	526	C9H11O2-
163.0402	999	C9H7O3-
164.0481	414	C9H8O3-
165.0924	12	C10H13O2-
167.035	48	C9H3N4-
175.0763	51	C11H11O2-
177.056	87	C10H9O3-
178.0274	19	C10H2N4-
191.0714	21	C11H11O3-
193.0873	164	C11H13O3-
195.0663	39	C8H9N3O3-
196.038	46	C10H4N4O-
