Mass spectrum: Aplaviroc; LC-ESI-QFT; MS2; CE: 30; R=17500; [M-H]-
Name: Aplaviroc
Name: 4-[4-[[(3R)-1-butyl-3-[(R)-cyclohexyl(hydroxy)methyl]-2,5-dioxo-1,4,9-triazaspiro[5.5]undecan-9-yl]methyl]phenoxy]benzoic acid
Formula: C33H43N3O6
Exact mass: 577.3152
SMILES: CCCCN1C(=O)[C@@H]([C@H](O)C2CCCCC2)NC(=O)C12CCN(Cc1ccc(Oc3ccc(C(=O)O)cc3)cc1)CC2
InChI: InChI=1S/C33H43N3O6/c1-2-3-19-36-30(38)28(29(37)24-7-5-4-6-8-24)34-32(41)33(36)17-20-35(21-18-33)22-23-9-13-26(14-10-23)42-27-15-11-25(12-16-27)31(39)40/h9-16,24,28-29,37H,2-8,17-22H2,1H3,(H,34,41)(H,39,40)/t28-,29-/m1/s1
Instrument: Q Exactive Orbitrap (Thermo Scientific)
Instrument type: LC-ESI-QFT
Ms type: MS2
Ion mode: NEGATIVE
Ionization: ESI
Fragmentation mode: HCD
Collision energy: 30
Resolution: 17500
Column name: Acquity BEH C18 1.7um, 2.1x150mm (Waters)
Retention time: 15.958 min
Base peak: 229.0506
Precursor m/z: 576.3079
Precursor type: [M-H]-
Precursor intensity: 4419111.277344
m/z	relative intensity	assigned
84.0091	24	C3H2NO2-
110.0611	2	C6H8NO-
124.113	3	C8H14N-
127.0878	10	C6H11N2O-
129.1034	69	C6H13N2O-
136.0403	14	C7H6NO2-
137.0722	3	C7H9N2O-
139.0874	2	C7H11N2O-
154.0748	29	C7H10N2O2-
155.0826	53	C7H11N2O2-
163.0513	2	C8H7N2O2-
183.0816	27	C13H11O-
197.1296	7	C10H17N2O2-
209.1295	36	C11H17N2O2-
210.092	9	C14H12NO-
221.1301	2	C12H17N2O2-
234.1252	3	C12H16N3O2-
236.1405	66	C12H18N3O2-
264.1387	3	C18H18NO-
319.1443	3	C20H19N2O2-
321.161	20	C20H21N2O2-
334.1565	5	C20H20N3O2-
347.1395	14	C21H19N2O3-
420.2295	494	C25H30N3O3-
464.219	999	C26H30N3O5-
