Mass spectrum: Acetohexamide; LC-ESI-QFT; MS2; CE: 45; R=17500; [M-H]-
Name: Acetohexamide
Name: 1-(4-acetylphenyl)sulfonyl-3-cyclohexylurea
Formula: C15H20N2O4S
Exact mass: 324.1144
SMILES: CC(=O)C1=CC=C(C=C1)S(=O)(=O)NC(=O)NC1CCCCC1
InChI: InChI=1S/C15H20N2O4S/c1-11(18)12-7-9-14(10-8-12)22(20,21)17-15(19)16-13-5-3-2-4-6-13/h7-10,13H,2-6H2,1H3,(H2,16,17,19)
Instrument: Q Exactive Orbitrap (Thermo Scientific)
Instrument type: LC-ESI-QFT
Ms type: MS2
Ion mode: NEGATIVE
Ionization: ESI
Fragmentation mode: HCD
Collision energy: 45
Resolution: 17500
Column name: Acquity BEH C18 1.7um, 2.1x150mm (Waters)
Retention time: 16.005 min
Base peak: 323.107
Precursor m/z: 323.1071
Precursor type: [M-H]-
Precursor intensity: 23212922.03027
m/z	relative intensity	assigned
78.9734	1	HNO2S-
91.0423	1	C6H5N-
92.0506	37	C6H6N-
134.0611	999	C8H8NO-
135.045	14	C8H7O2-
198.023	439	C8H8NO3S-
