Mass spectrum: Cinchophen; LC-ESI-QFT; MS2; CE: 75; R=17500; [M+H]+
Name: Cinchophen
Name: 2-phenylquinoline-4-carboxylic acid
Formula: C16H11NO2
Exact mass: 249.0790
SMILES: OC(=O)C1=C2C=CC=CC2=NC(=C1)C1=CC=CC=C1
InChI: InChI=1S/C16H11NO2/c18-16(19)13-10-15(11-6-2-1-3-7-11)17-14-9-5-4-8-12(13)14/h1-10H,(H,18,19)
Instrument: Q Exactive Orbitrap (Thermo Scientific)
Instrument type: LC-ESI-QFT
Ms type: MS2
Ion mode: POSITIVE
Ionization: ESI
Fragmentation mode: HCD
Collision energy: 75
Resolution: 17500
Column name: Acquity BEH C18 1.7um, 2.1x150mm (Waters)
Retention time: 17.037 min
Base peak: 79.0211
Precursor m/z: 250.0863
Precursor type: [M+H]+
Precursor intensity: 9530618.75
m/z	relative intensity	assigned
50.0151	1	C4H2+
53.0386	12	C4H5+
55.018	1	C3H3O+
63.0227	1	C5H3+
65.0386	3	C5H5+
74.0149	1	C6H2+
75.0228	5	C6H3+
77.0384	11	C6H5+
89.0386	75	C7H5+
91.0543	39	C7H7+
92.0495	10	C6H6N+
94.0413	1	C6H6O+
95.0492	39	C6H7O+
101.0386	6	C8H5+
102.0466	1	C8H6+
103.0542	22	C8H7+
104.0494	3	C7H6N+
105.0335	25	C7H5O+
116.0495	327	C8H6N+
117.0333	2	C8H5O+
117.0572	1	C8H7N+
118.0415	1	C8H6O+
119.0491	18	C8H7O+
120.0444	15	C7H6NO+
127.0415	1	C9H5N+
128.0495	999	C9H6N+
130.0288	52	C8H4NO+
130.0399	7	C9H6O+
131.0367	7	C8H5NO+
132.0445	11	C8H6NO+
134.06	80	C8H8NO+
144.0444	34	C9H6NO+
146.06	324	C9H8NO+
148.0756	8	C9H10NO+
152.062	2	C12H8+
153.0697	2	C12H9+
154.0286	3	C10H4NO+
160.0756	20	C10H10NO+
162.0549	267	C9H8NO2+
165.0697	2	C13H9+
167.0728	1	C12H9N+
167.0856	12	C13H11+
169.0647	1	C12H9O+
172.0392	21	C10H6NO2+
176.062	10	C14H8+
176.0706	4	C10H10NO2+
177.0699	19	C14H9+
178.0653	1	C13H8N+
178.0777	7	C14H10+
180.0808	10	C13H10N+
191.073	5	C14H9N+
193.0884	8	C14H11N+
194.0963	14	C14H12N+
196.0759	1	C13H10NO+
202.065	2	C15H8N+
203.0731	31	C15H9N+
204.0809	268	C15H10N+
205.0886	14	C15H11N+
206.0964	371	C15H12N+
217.0883	3	C16H11N+
220.0752	1	C15H10NO+
222.0914	561	C15H12NO+
237.0784	12	C15H11NO2+
250.0862	384	C16H12NO2+
