Mass spectrum: Thiophanate-methyl; LC-ESI-QFT; MS2; CE: 45; R=17500; [M-H]-
Name: Thiophanate-methyl
Name: N'-methoxycarbonyl-N-[2-[(N-methoxycarbonyl-C-sulfanylcarbonimidoyl)amino]phenyl]carbamimidothioic acid
Formula: C12H14N4O4S2
Exact mass: 342.0456
SMILES: COC(=O)NC(=S)NC1=C(NC(=S)NC(=O)OC)C=CC=C1
InChI: InChI=1S/C12H14N4O4S2/c1-19-11(17)15-9(21)13-7-5-3-4-6-8(7)14-10(22)16-12(18)20-2/h3-6H,1-2H3,(H2,13,15,17,21)(H2,14,16,18,22)
Instrument: Q Exactive Orbitrap (Thermo Scientific)
Instrument type: LC-ESI-QFT
Ms type: MS2
Ion mode: NEGATIVE
Ionization: ESI
Fragmentation mode: HCD
Collision energy: 45
Resolution: 17500
Column name: Acquity BEH C18 1.7um, 2.1x150mm (Waters)
Retention time: 15.153 min
Base peak: 253.0506
Precursor m/z: 341.0384
Precursor type: [M-H]-
Precursor intensity: 2028111.773437
m/z	relative intensity	assigned
81.0457	55	C4H5N2-
117.0457	59	C7H5N2-
132.0566	89	C7H6N3-
149.0179	999	C7H5N2S-
158.036	553	C8H4N3O-
189.0667	53	C10H9N2O2-
190.0621	39	C9H8N3O2-
