Mass spectrum: N-(3,4-Dichlorophenyl)-N`-methylurea; LC-ESI-QFT; MS2; CE: 15; R=17500; [M+H]+
Name: N-(3,4-Dichlorophenyl)-N'-methylurea
Name: 1-(3,4-dichlorophenyl)-3-methylurea
Formula: C8H8Cl2N2O
Exact mass: 218.0014
SMILES: CNC(=O)NC1=CC(Cl)=C(Cl)C=C1
InChI: InChI=1S/C8H8Cl2N2O/c1-11-8(13)12-5-2-3-6(9)7(10)4-5/h2-4H,1H3,(H2,11,12,13)
Instrument: Q Exactive Orbitrap (Thermo Scientific)
Instrument type: LC-ESI-QFT
Ms type: MS2
Ion mode: POSITIVE
Ionization: ESI
Fragmentation mode: HCD
Collision energy: 15
Resolution: 17500
Column name: Acquity BEH C18 1.7um, 2.1x150mm (Waters)
Retention time: 16.777 min
Base peak: 79.0212
Precursor m/z: 219.0086
Precursor type: [M+H]+
Precursor intensity: 2028162.0625
m/z	relative intensity	assigned
58.0288	28	C2H4NO+
94.0652	15	C6H8N+
127.0183	36	C6H6ClN+
137.0711	10	C7H9N2O+
161.9873	585	C6H6Cl2N+
187.9669	4	C7H4Cl2NO+
219.0085	999	C8H9Cl2N2O+
