Mass spectrum: Dinitramine; LC-ESI-QFT; MS2; CE: 15; R=17500; [M-H]-
Name: Dinitramine
Formula: C11H13F3N4O4
Exact mass: 322.0889
SMILES: CCN(CC)C1=C(C=C(C(N)=C1[N+]([O-])=O)C(F)(F)F)[N+]([O-])=O
InChI: InChI=1S/C11H13F3N4O4/c1-3-16(4-2)9-7(17(19)20)5-6(11(12,13)14)8(15)10(9)18(21)22/h5H,3-4,15H2,1-2H3
Instrument: Q Exactive Orbitrap (Thermo Scientific)
Instrument type: LC-ESI-QFT
Ms type: MS2
Ion mode: NEGATIVE
Ionization: ESI
Fragmentation mode: HCD
Collision energy: 15
Resolution: 17500
Column name: Acquity BEH C18 1.7um, 2.1x150mm (Waters)
Retention time: 18.942 min
Base peak: 321.0815
Precursor m/z: 321.0816
Precursor type: [M-H]-
Precursor intensity: 23633980.57129
m/z	relative intensity	assigned
231.9972	2	C7HF3N3O3-
249.0009	1	C7H2F3N3O4-
258.0853	3	C11H11F3N3O-
274.0802	1	C11H11F3N3O2-
278.0759	1	C10H11F3N3O3-
321.0814	999	C11H12F3N4O4-
