Mass spectrum: Ethirimol; LC-ESI-QFT; MS2; CE: 60; R=17500; [M-H]-
Name: Ethirimol
Name: 5-butyl-2-(ethylamino)-6-methyl-1H-pyrimidin-4-one
Formula: C11H19N3O
Exact mass: 209.1528
SMILES: CCCCC1=C(O)N=C(NCC)N=C1C
InChI: InChI=1S/C11H19N3O/c1-4-6-7-9-8(3)13-11(12-5-2)14-10(9)15/h4-7H2,1-3H3,(H2,12,13,14,15)
Instrument: Q Exactive Orbitrap (Thermo Scientific)
Instrument type: LC-ESI-QFT
Ms type: MS2
Ion mode: NEGATIVE
Ionization: ESI
Fragmentation mode: HCD
Collision energy: 60
Resolution: 17500
Column name: Acquity BEH C18 1.7um, 2.1x150mm (Waters)
Retention time: 13.213 min
Base peak: 118.0298
Precursor m/z: 208.1455
Precursor type: [M-H]-
Precursor intensity: 11179794.69824
m/z	relative intensity	assigned
67.0302	12	C3H3N2-
69.0458	999	C3H5N2-
82.041	1	C3H4N3-
93.0459	5	C5H5N2-
121.077	1	C7H9N2-
136.0516	23	C6H6N3O-
137.0596	1	C6H7N3O-
137.1084	22	C8H13N2-
150.0673	7	C7H8N3O-
165.0909	5	C8H11N3O-
180.1143	105	C9H14N3O-
192.1144	4	C10H14N3O-
206.1298	4	C11H16N3O-
208.1456	26	C11H18N3O-
