Mass spectrum: 2-Methyl-4`-(methylthio)-2-morpholinopropiophenone; LC-ESI-QFT; MS2; CE: 75; R=17500; [M+H]+
Name: 2-Methyl-4'-(methylthio)-2-morpholinopropiophenone
Name: 2-methyl-1-(4-methylsulfanylphenyl)-2-morpholin-4-ylpropan-1-one
Formula: C15H21NO2S
Exact mass: 279.1293
SMILES: CSC1=CC=C(C=C1)C(=O)C(C)(C)N1CCOCC1
InChI: InChI=1S/C15H21NO2S/c1-15(2,16-8-10-18-11-9-16)14(17)12-4-6-13(19-3)7-5-12/h4-7H,8-11H2,1-3H3
Instrument: Q Exactive Orbitrap (Thermo Scientific)
Instrument type: LC-ESI-QFT
Ms type: MS2
Ion mode: POSITIVE
Ionization: ESI
Fragmentation mode: HCD
Collision energy: 75
Resolution: 17500
Column name: Acquity BEH C18 1.7um, 2.1x150mm (Waters)
Retention time: 14.172 min
Base peak: 79.0211
Precursor m/z: 280.1366
Precursor type: [M+H]+
Precursor intensity: 13269487.25
m/z	relative intensity	assigned
53.0022	2	C3HO+
53.0386	1	C4H5+
55.0545	1	C4H7+
56.0495	3	C3H6N+
58.0652	1	C3H8N+
58.995	4	C2H3S+
59.049	1	C3H7O+
60.0443	2	C2H6NO+
61.0106	7	C2H5S+
65.0385	1	C5H5+
68.0494	11	C4H6N+
70.0651	367	C4H8N+
74.0964	1	C4H12N+
78.0463	9	C6H6+
79.0541	1	C6H7+
84.0808	39	C5H10N+
86.0602	5	C4H8NO+
87.0263	4	C4H7S+
88.0757	579	C4H10NO+
91.0542	92	C7H7+
93.07	5	C7H9+
95.049	1	C6H7O+
97.0105	2	C5H5S+
103.0542	10	C8H7+
104.062	5	C8H8+
105.0697	6	C8H9+
109.0107	40	C6H5S+
110.0184	2	C6H6S+
111.0263	1	C6H7S+
114.0914	13	C6H12NO+
115.0543	266	C9H7+
116.0621	29	C9H8+
117.0699	999	C9H9+
118.0776	338	C9H10+
119.0856	2	C9H11+
121.0105	2	C7H5S+
122.0185	38	C7H6S+
123.0264	13	C7H7S+
124.0342	32	C7H8S+
125.042	80	C7H9S+
128.107	212	C7H14NO+
129.0697	2	C10H9+
131.0492	138	C9H7O+
134.0182	6	C8H6S+
135.0263	133	C8H7S+
137.042	715	C8H9S+
145.0648	63	C10H9O+
146.0726	142	C10H10O+
147.0258	1	C9H7S+
149.0421	39	C9H9S+
150.0498	258	C9H10S+
151.021	4	C8H7OS+
165.0733	509	C10H13S+
167.0525	2	C9H11OS+
178.0446	2	C10H10OS+
