Mass spectrum: Simazine; LC-ESI-QFT; MS2; CE: 45; R=17500; [M+H]+
Name: Simazine
Name: 6-chloro-2-N,4-N-diethyl-1,3,5-triazine-2,4-diamine
Formula: C7H12ClN5
Exact mass: 201.0781
SMILES: CCNC1=NC(NCC)=NC(Cl)=N1
InChI: InChI=1S/C7H12ClN5/c1-3-9-6-11-5(8)12-7(13-6)10-4-2/h3-4H2,1-2H3,(H2,9,10,11,12,13)
Instrument: Q Exactive Orbitrap (Thermo Scientific)
Instrument type: LC-ESI-QFT
Ms type: MS2
Ion mode: POSITIVE
Ionization: ESI
Fragmentation mode: HCD
Collision energy: 45
Resolution: 17500
Column name: Acquity BEH C18 1.7um, 2.1x150mm (Waters)
Retention time: 15.238 min
Base peak: 79.0211
Precursor m/z: 202.0854
Precursor type: [M+H]+
Precursor intensity: 7907474
m/z	relative intensity	assigned
61.9791	5	CHClN+
68.0242	46	C2H2N3+
71.0603	148	C3H7N2+
74.0964	1	C4H12N+
79.0057	19	CH4ClN2+
90.0105	18	C3H5ClN+
96.0556	230	C4H6N3+
104.0009	175	C2H3ClN3+
107.0371	6	C3H8ClN2+
110.046	1	C3H4N5+
118.0413	2	C5H9ClN+
124.0869	674	C6H10N3+
132.0322	688	C4H7ClN3+
138.0773	15	C5H8N5+
145.0283	1	C4H6ClN4+
146.0227	12	C3H5ClN5+
146.0359	5	C4H7ClN4+
166.1086	98	C7H12N5+
174.054	159	C5H9ClN5+
187.0619	1	C6H10ClN5+
200.0697	2	C7H11ClN5+
202.0853	999	C7H13ClN5+
