Mass spectrum: Flutolanil; LC-ESI-QFT; MS2; CE: 30; R=17500; [M-H]-
Name: Flutolanil
Name: N-(3-propan-2-yloxyphenyl)-2-(trifluoromethyl)benzamide
Formula: C17H16F3NO2
Exact mass: 323.1133
SMILES: CC(C)OC1=CC(NC(=O)C2=C(C=CC=C2)C(F)(F)F)=CC=C1
InChI: InChI=1S/C17H16F3NO2/c1-11(2)23-13-7-5-6-12(10-13)21-16(22)14-8-3-4-9-15(14)17(18,19)20/h3-11H,1-2H3,(H,21,22)
Instrument: Q Exactive Orbitrap (Thermo Scientific)
Instrument type: LC-ESI-QFT
Ms type: MS2
Ion mode: NEGATIVE
Ionization: ESI
Fragmentation mode: HCD
Collision energy: 30
Resolution: 17500
Column name: Acquity BEH C18 1.7um, 2.1x150mm (Waters)
Retention time: 17.426 min
Base peak: 456.1333
Precursor m/z: 322.106
Precursor type: [M-H]-
Precursor intensity: 22256899.70215
m/z	relative intensity	assigned
57.0344	1	C3H5O-
68.9957	2	CF3-
92.0505	3	C6H6N-
118.0299	1	C7H4NO-
134.0247	44	C7H4NO2-
145.0269	999	C7H4F3-
176.0716	6	C10H10NO2-
189.0168	43	C8H4F3O2-
212.0516	1	C13H7FNO-
238.0507	1	C12H7F3NO-
240.0466	42	C14H7FNO2-
260.0528	33	C14H8F2NO2-
279.0513	6	C14H8F3NO2-
280.0588	2	C14H9F3NO2-
302.0995	3	C17H14F2NO2-
322.106	83	C17H15F3NO2-
