Mass spectrum: Tribromsalan; LC-ESI-QFT; MS2; CE: 60; R=17500; [M-H]-
Name: Tribromsalan
Name: 3,5-dibromo-N-(4-bromophenyl)-2-hydroxybenzamide
Formula: C13H8Br3NO2
Exact mass: 446.8105
SMILES: OC1=C(Br)C=C(Br)C=C1C(=O)NC1=CC=C(Br)C=C1
InChI: InChI=1S/C13H8Br3NO2/c14-7-1-3-9(4-2-7)17-13(19)10-5-8(15)6-11(16)12(10)18/h1-6,18H,(H,17,19)
Instrument: Q Exactive Orbitrap (Thermo Scientific)
Instrument type: LC-ESI-QFT
Ms type: MS2
Ion mode: NEGATIVE
Ionization: ESI
Fragmentation mode: HCD
Collision energy: 60
Resolution: 17500
Column name: Acquity BEH C18 1.7um, 2.1x150mm (Waters)
Retention time: 20.992 min
Base peak: 112.9857
Precursor m/z: 445.8032
Precursor type: [M-H]-
Precursor intensity: 515836.0170898
m/z	relative intensity	assigned
78.9189	999	Br-
89.0033	8	C6HO-
168.9295	119	C6H2BrO-
248.8555	27	C6H3Br2O-
