Mass spectrum: Progesterone; LC-ESI-QFT; MS2; CE: 30; R=17500; [M+H]+
Name: Progesterone
Name: (8S,9S,10R,13S,14S,17S)-17-acetyl-10,13-dimethyl-1,2,6,7,8,9,11,12,14,15,16,17-dodecahydrocyclopenta[a]phenanthren-3-one
Formula: C21H30O2
Exact mass: 314.2246
SMILES: CC(=O)[C@H]1CC[C@H]2[C@@H]3CCC4=CC(=O)CC[C@]4(C)[C@H]3CC[C@]12C
InChI: InChI=1S/C21H30O2/c1-13(22)17-6-7-18-16-5-4-14-12-15(23)8-10-20(14,2)19(16)9-11-21(17,18)3/h12,16-19H,4-11H2,1-3H3/t16-,17+,18-,19-,20-,21+/m0/s1
Instrument: Q Exactive Orbitrap (Thermo Scientific)
Instrument type: LC-ESI-QFT
Ms type: MS2
Ion mode: POSITIVE
Ionization: ESI
Fragmentation mode: HCD
Collision energy: 30
Resolution: 17500
Column name: Acquity BEH C18 1.7um, 2.1x150mm (Waters)
Retention time: 18.764 min
Base peak: 79.0211
Precursor m/z: 315.2319
Precursor type: [M+H]+
Precursor intensity: 4703242
m/z	relative intensity	assigned
67.0541	1	C5H7+
69.0699	1	C5H9+
71.049	2	C4H7O+
79.0541	9	C6H7+
81.0699	17	C6H9+
83.0491	39	C5H7O+
85.0648	45	C5H9O+
91.054	1	C7H7+
93.0698	6	C7H9+
95.0855	19	C7H11+
97.0648	999	C6H9O+
99.0804	2	C6H11O+
105.0697	6	C8H9+
107.0856	14	C8H11+
109.0648	697	C7H9O+
111.0804	3	C7H11O+
113.0961	2	C7H13O+
119.0856	11	C9H11+
121.0648	4	C8H9O+
121.1011	23	C9H13+
123.0804	59	C8H11O+
123.1168	3	C9H15+
125.0961	1	C8H13O+
131.0855	8	C10H11+
133.1011	15	C10H13+
135.0804	2	C9H11O+
135.1167	12	C10H15+
137.096	16	C9H13O+
137.1324	2	C10H17+
143.0858	3	C11H11+
145.1012	16	C11H13+
147.1168	17	C11H15+
149.0962	5	C10H13O+
149.1323	7	C11H17+
151.1118	7	C10H15O+
157.1011	7	C12H13+
159.0807	1	C11H11O+
159.1168	22	C12H15+
161.0958	1	C11H13O+
161.1324	12	C12H17+
163.1117	18	C11H15O+
163.148	3	C12H19+
165.1275	4	C11H17O+
169.1009	3	C13H13+
171.1167	14	C13H15+
173.1324	22	C13H17+
175.1119	5	C12H15O+
175.1481	8	C13H19+
177.1274	28	C12H17O+
179.1433	3	C12H19O+
183.1171	5	C14H15+
185.1326	9	C14H17+
187.1119	6	C13H15O+
187.1479	14	C14H19+
189.1273	19	C13H17O+
189.1636	7	C14H21+
191.1428	12	C13H19O+
195.1173	1	C15H15+
197.1323	8	C15H17+
199.1481	11	C15H19+
201.1273	3	C14H17O+
201.1637	20	C15H21+
203.1433	5	C14H19O+
209.1326	6	C16H17+
211.1479	5	C16H19+
213.127	1	C15H17O+
213.1639	16	C16H21+
215.1428	12	C15H19O+
215.1793	22	C16H23+
217.1587	3	C15H21O+
219.1747	6	C15H23O+
223.148	10	C17H19+
225.1639	2	C17H21+
227.1431	3	C16H19O+
227.1795	15	C17H23+
229.1586	11	C16H21O+
231.1744	4	C16H23O+
233.1901	10	C16H25O+
237.1641	4	C18H21+
239.1794	27	C18H23+
241.1589	12	C17H21O+
245.19	12	C17H25O+
251.1799	3	C19H23+
253.1949	14	C19H25+
255.1745	5	C18H23O+
255.2106	39	C19H27+
257.1894	6	C18H25O+
269.1903	4	C19H25O+
271.2057	5	C19H27O+
273.2212	23	C19H29O+
279.2107	55	C21H27+
297.2214	154	C21H29O+
315.2319	530	C21H31O2+
