Mass spectrum: 2-Mercaptobenzimidazole; LC-ESI-QFT; MS2; CE: 60; R=17500; [M-H]-
Name: 2-Mercaptobenzimidazole
Name: 1H-benzimidazole-2-thiol
Formula: C7H6N2S
Exact mass: 150.0252
SMILES: S=C1NC2=CC=CC=C2N1
InChI: InChI=1S/C7H6N2S/c10-7-8-5-3-1-2-4-6(5)9-7/h1-4H,(H2,8,9,10)
Instrument: Q Exactive Orbitrap (Thermo Scientific)
Instrument type: LC-ESI-QFT
Ms type: MS2
Ion mode: NEGATIVE
Ionization: ESI
Fragmentation mode: HCD
Collision energy: 60
Resolution: 17500
Column name: Acquity BEH C18 1.7um, 2.1x150mm (Waters)
Retention time: 11.860 min
Base peak: 116.9285
Precursor m/z: 149.0179
Precursor type: [M-H]-
Precursor intensity: 1497144.145508
m/z	relative intensity	assigned
57.9756	124	CNS-
90.035	6	C6H4N-
117.0458	999	C7H5N2-
148.0101	29	C7H4N2S-
149.0178	588	C7H5N2S-
