Mass spectrum: Probenecid; LC-ESI-QFT; MS2; CE: 15; R=17500; [M-H]-
Name: Probenecid
Name: 4-(dipropylsulfamoyl)benzoic acid
Formula: C13H19NO4S
Exact mass: 285.1035
SMILES: CCCN(CCC)S(=O)(=O)C1=CC=C(C=C1)C(O)=O
InChI: InChI=1S/C13H19NO4S/c1-3-9-14(10-4-2)19(17,18)12-7-5-11(6-8-12)13(15)16/h5-8H,3-4,9-10H2,1-2H3,(H,15,16)
Instrument: Q Exactive Orbitrap (Thermo Scientific)
Instrument type: LC-ESI-QFT
Ms type: MS2
Ion mode: NEGATIVE
Ionization: ESI
Fragmentation mode: HCD
Collision energy: 15
Resolution: 17500
Column name: Acquity BEH C18 1.7um, 2.1x150mm (Waters)
Retention time: 17.130 min
Base peak: 284.0962
Precursor m/z: 284.0962
Precursor type: [M-H]-
Precursor intensity: 29401352.79297
m/z	relative intensity	assigned
60.9931	2	CHO3-
63.9623	35	O2S-
64.9703	184	HO2S-
79.9573	1	O3S-
139.9935	10	C6H4O2S-
141.0016	676	C6H5O2S-
164.075	60	C6H14NO2S-
198.0594	718	C9H12NO2S-
240.1064	366	C12H18NO2S-
256.1014	2	C12H18NO3S-
284.0962	999	C13H18NO4S-
