Mass spectrum: Octylparaben; LC-ESI-QFT; MS2; CE: 15; R=17500; [M-H]-
Name: Octylparaben
Name: octyl 4-hydroxybenzoate
Formula: C15H22O3
Exact mass: 250.1569
SMILES: CCCCCCCCOC(=O)C1=CC=C(O)C=C1
InChI: InChI=1S/C15H22O3/c1-2-3-4-5-6-7-12-18-15(17)13-8-10-14(16)11-9-13/h8-11,16H,2-7,12H2,1H3
Instrument: Q Exactive Orbitrap (Thermo Scientific)
Instrument type: LC-ESI-QFT
Ms type: MS2
Ion mode: NEGATIVE
Ionization: ESI
Fragmentation mode: HCD
Collision energy: 15
Resolution: 17500
Column name: Acquity BEH C18 1.7um, 2.1x150mm (Waters)
Retention time: 19.726 min
Base peak: 249.1495
Precursor m/z: 249.1496
Precursor type: [M-H]-
Precursor intensity: 122419053.1328
m/z	relative intensity	assigned
92.027	4	C6H4O-
93.0345	2	C6H5O-
120.022	1	C7H4O2-
136.0165	20	C7H4O3-
137.0244	12	C7H5O3-
249.1495	999	C15H21O3-
