Mass spectrum: Propoxur; LC-ESI-QFT; MS2; CE: 45; R=17500; [M+H]+
Name: Propoxur
Name: (2-propan-2-yloxyphenyl) N-methylcarbamate
Formula: C11H15NO3
Exact mass: 209.1052
SMILES: CNC(=O)OC1=CC=CC=C1OC(C)C
InChI: InChI=1S/C11H15NO3/c1-8(2)14-9-6-4-5-7-10(9)15-11(13)12-3/h4-8H,1-3H3,(H,12,13)
Instrument: Q Exactive Orbitrap (Thermo Scientific)
Instrument type: LC-ESI-QFT
Ms type: MS2
Ion mode: POSITIVE
Ionization: ESI
Fragmentation mode: HCD
Collision energy: 45
Resolution: 17500
Column name: Acquity BEH C18 1.7um, 2.1x150mm (Waters)
Retention time: 15.176 min
Base peak: 79.0211
Precursor m/z: 210.1125
Precursor type: [M+H]+
Precursor intensity: 2582043.75
m/z	relative intensity	assigned
83.0855	183	C6H11+
111.0442	999	C6H7O2+
128.1073	175	C7H14NO+
140.107	251	C8H14NO+
