Mass spectrum: 2-phenylphenate tetrahydrate; LC-ESI-QFT; MS2; CE: 75; R=17500; [M+H]+
Name: 2-phenylphenate tetrahydrate
Name: 2-phenylphenol
Formula: C12H10O
Exact mass: 170.0732
SMILES: OC1=C(C=CC=C1)C1=CC=CC=C1
InChI: InChI=1S/C12H10O/c13-12-9-5-4-8-11(12)10-6-2-1-3-7-10/h1-9,13H
Instrument: Q Exactive Orbitrap (Thermo Scientific)
Instrument type: LC-ESI-QFT
Ms type: MS2
Ion mode: POSITIVE
Ionization: ESI
Fragmentation mode: HCD
Collision energy: 75
Resolution: 17500
Column name: Acquity BEH C18 1.7um, 2.1x150mm (Waters)
Retention time: 18.023 min
Base peak: 79.0211
Precursor m/z: 171.0804
Precursor type: [M+H]+
Precursor intensity: 1680544.09375
m/z	relative intensity	assigned
55.0179	19	C3H3O+
55.0542	29	C4H7+
57.0699	21	C4H9+
65.0385	8	C5H5+
83.0855	15	C6H11+
91.0543	49	C7H7+
95.049	3	C6H7O+
103.0542	30	C8H7+
115.0543	119	C9H7+
116.062	2	C9H8+
117.0698	10	C9H9+
126.0464	3	C10H6+
127.0543	55	C10H7+
128.0621	999	C10H8+
129.0698	39	C10H9+
131.0492	8	C9H7O+
141.0698	49	C11H9+
142.0777	11	C11H10+
143.0491	11	C10H7O+
143.0856	103	C11H11+
144.0571	17	C10H8O+
145.0649	126	C10H9O+
151.0543	5	C12H7+
152.0621	534	C12H8+
153.0699	182	C12H9+
154.0777	5	C12H10+
156.0571	5	C11H8O+
159.0806	2	C11H11O+
169.0649	54	C12H9O+
170.0728	13	C12H10O+
171.0805	71	C12H11O+
