Mass spectrum: Michler`s ketone; LC-ESI-QFT; MS2; CE: 60; R=17500; [M+H]+
Name: Michler's ketone
Name: bis[4-(dimethylamino)phenyl]methanone
Formula: C17H20N2O
Exact mass: 268.1576
SMILES: CN(C)C1=CC=C(C=C1)C(=O)C1=CC=C(C=C1)N(C)C
InChI: InChI=1S/C17H20N2O/c1-18(2)15-9-5-13(6-10-15)17(20)14-7-11-16(12-8-14)19(3)4/h5-12H,1-4H3
Instrument: Q Exactive Orbitrap (Thermo Scientific)
Instrument type: LC-ESI-QFT
Ms type: MS2
Ion mode: POSITIVE
Ionization: ESI
Fragmentation mode: HCD
Collision energy: 60
Resolution: 17500
Column name: Acquity BEH C18 1.7um, 2.1x150mm (Waters)
Retention time: 18.149 min
Base peak: 79.0211
Precursor m/z: 269.1648
Precursor type: [M+H]+
Precursor intensity: 30341375.15625
m/z	relative intensity	assigned
53.0386	2	C4H5+
77.0386	1	C6H5+
79.0542	39	C6H7+
80.0494	4	C5H6N+
81.0335	5	C5H5O+
81.0573	1	C5H7N+
82.0288	1	C4H4NO+
91.0543	19	C7H7+
92.0496	2	C6H6N+
92.0621	5	C7H8+
93.0699	16	C7H9+
94.0651	1	C6H8N+
95.0492	5	C6H7O+
96.0808	5	C6H10N+
103.0543	11	C8H7+
104.0494	2	C7H6N+
105.0448	2	C6H5N2+
105.0573	27	C7H7N+
109.0523	1	C6H7NO+
110.0601	2	C6H8NO+
118.0651	9	C8H8N+
119.073	3	C8H9N+
120.0808	93	C8H10N+
124.0757	5	C7H10NO+
138.0912	1	C8H12NO+
148.0756	999	C9H10NO+
269.1645	1	C17H21N2O+
