Mass spectrum: Labetalol; LC-ESI-QFT; MS2; CE: 15; R=17500; [M-H]-
Name: Labetalol
Name: 2-hydroxy-5-[1-hydroxy-2-(4-phenylbutan-2-ylamino)ethyl]benzamide
Formula: C19H24N2O3
Exact mass: 328.1787
SMILES: CC(CCC1=CC=CC=C1)NCC(O)C1=CC=C(O)C(=C1)C(N)=O
InChI: InChI=1S/C19H24N2O3/c1-13(7-8-14-5-3-2-4-6-14)21-12-18(23)15-9-10-17(22)16(11-15)19(20)24/h2-6,9-11,13,18,21-23H,7-8,12H2,1H3,(H2,20,24)
Instrument: Q Exactive Orbitrap (Thermo Scientific)
Instrument type: LC-ESI-QFT
Ms type: MS2
Ion mode: NEGATIVE
Ionization: ESI
Fragmentation mode: HCD
Collision energy: 15
Resolution: 17500
Column name: Acquity BEH C18 1.7um, 2.1x150mm (Waters)
Retention time: 13.525 min
Base peak: 304.1303
Precursor m/z: 327.1714
Precursor type: [M-H]-
Precursor intensity: 5066023.058594
m/z	relative intensity	assigned
164.0357	1	C8H6NO3-
176.0591	2	C9H8N2O2-
291.1502	2	C19H19N2O-
309.161	142	C19H21N2O2-
327.1715	999	C19H23N2O3-
