Mass spectrum: Fluocinolone acetonide; LC-ESI-QFT; MS2; CE: 15; R=17500; [M+H]+
Name: Fluocinolone acetonide
Name: (1S,2S,4R,8S,9S,11S,12R,13S,19S)-12,19-difluoro-11-hydroxy-8-(2-hydroxyacetyl)-6,6,9,13-tetramethyl-5,7-dioxapentacyclo[10.8.0.02,9.04,8.013,18]icosa-14,17-dien-16-one
Formula: C24H30F2O6
Exact mass: 452.2010
SMILES: CC1(C)O[C@@H]2C[C@H]3[C@@H]4C[C@H](F)C5=CC(=O)C=C[C@]5(C)[C@@]4(F)[C@@H](O)C[C@]3(C)[C@@]2(O1)C(=O)CO
InChI: InChI=1S/C24H30F2O6/c1-20(2)31-19-9-13-14-8-16(25)15-7-12(28)5-6-21(15,3)23(14,26)17(29)10-22(13,4)24(19,32-20)18(30)11-27/h5-7,13-14,16-17,19,27,29H,8-11H2,1-4H3/t13-,14-,16-,17-,19+,21-,22-,23-,24+/m0/s1
Instrument: Q Exactive Orbitrap (Thermo Scientific)
Instrument type: LC-ESI-QFT
Ms type: MS2
Ion mode: POSITIVE
Ionization: ESI
Fragmentation mode: HCD
Collision energy: 15
Resolution: 17500
Column name: Acquity BEH C18 1.7um, 2.1x150mm (Waters)
Retention time: 16.806 min
Base peak: 79.0211
Precursor m/z: 453.2083
Precursor type: [M+H]+
Precursor intensity: 4483787.5625
m/z	relative intensity	assigned
59.0491	66	C3H7O+
83.0489	10	C5H7O+
95.0491	10	C6H7O+
97.0283	8	C5H5O2+
105.0695	7	C8H9+
109.0647	11	C7H9O+
113.0595	14	C6H9O2+
115.0387	9	C5H7O3+
121.0648	461	C8H9O+
123.0805	7	C8H11O+
125.0595	16	C7H9O2+
127.0748	5	C7H11O2+
133.0646	34	C9H9O+
135.0804	59	C9H11O+
137.0597	20	C8H9O2+
139.0751	12	C8H11O2+
145.0648	12	C10H9O+
147.0804	44	C10H11O+
149.0596	6	C9H9O2+
151.0751	31	C9H11O2+
153.0547	8	C8H9O3+
155.0703	50	C8H11O3+
159.0803	27	C11H11O+
161.0591	10	C10H9O2+
161.0964	9	C11H13O+
163.0753	16	C10H11O2+
165.0707	15	C10H10FO+
171.0803	25	C12H11O+
173.096	8	C12H13O+
177.0544	7	C10H9O3+
179.07	18	C10H11O3+
179.0868	23	C11H12FO+
181.0861	9	C10H13O3+
183.0809	12	C13H11O+
185.0596	18	C12H9O2+
185.096	15	C13H13O+
187.0756	18	C12H11O2+
189.0706	8	C12H10FO+
195.0812	8	C11H12FO2+
197.0962	30	C14H13O+
201.0908	10	C13H13O2+
205.0659	13	C12H10FO2+
209.0958	17	C15H13O+
211.1119	27	C15H15O+
213.0915	9	C14H13O2+
213.127	9	C15H17O+
221.0963	31	C16H13O+
222.1043	10	C16H14O+
223.0766	15	C12H12FO3+
223.1117	161	C16H15O+
225.0913	11	C15H13O2+
225.1277	12	C16H17O+
227.1069	13	C15H15O2+
235.1119	63	C17H15O+
237.0904	9	C16H13O2+
237.1274	71	C17H17O+
239.1067	79	C16H15O2+
241.1016	12	C19H13+
241.1221	62	C16H17O2+
245.0966	9	C18H13O+
247.1119	44	C18H15O+
249.0911	11	C17H13O2+
249.1276	56	C18H17O+
251.1067	69	C17H15O2+
251.1432	27	C18H19O+
253.1223	298	C17H17O2+
255.118	5	C17H16FO+
255.1382	18	C17H19O2+
257.1339	15	C17H18FO+
259.1112	38	C19H15O+
261.1275	123	C19H17O+
263.1076	46	C15H16FO3+
263.1428	51	C19H19O+
265.1226	40	C18H17O2+
267.1381	23	C18H19O2+
271.1488	8	C18H20FO+
273.1278	87	C20H17O+
275.1064	24	C19H15O2+
275.1431	10	C20H19O+
277.1222	157	C19H17O2+
279.1198	8	C16H17F2O2+
279.1378	159	C19H19O2+
281.1181	11	C15H18FO4+
281.134	43	C19H18FO+
281.1537	33	C19H21O2+
283.1488	10	C19H20FO+
289.1221	30	C20H17O2+
291.1379	235	C20H19O2+
293.1176	29	C19H17O3+
293.1338	14	C20H18FO+
295.1328	90	C19H19O3+
297.1286	38	C19H18FO2+
297.1487	28	C19H21O3+
299.1445	37	C19H20FO2+
301.1224	68	C21H17O2+
301.1405	21	C19H19F2O+
307.1325	63	C20H19O3+
309.1483	182	C20H21O3+
311.1442	63	C20H20FO2+
317.1345	20	C19H19F2O2+
319.1327	349	C21H19O3+
319.1509	46	C19H21F2O2+
329.1545	77	C20H22FO3+
331.15	50	C20H21F2O2+
337.1434	892	C21H21O4+
339.139	175	C21H20FO3+
347.1655	27	C20H24FO4+
349.1608	57	C20H23F2O3+
355.1542	455	C21H23O5+
357.1497	267	C21H22FO4+
359.1452	95	C21H21F2O3+
377.1557	160	C21H23F2O4+
381.1503	28	C20H23F2O5+
413.1961	999	C24H29O6+
453.2085	821	C24H31F2O6+
