Mass spectrum: Fluocinolone acetonide; LC-ESI-QFT; MS2; CE: 60; R=17500; [M+H]+
Name: Fluocinolone acetonide
Name: (1S,2S,4R,8S,9S,11S,12R,13S,19S)-12,19-difluoro-11-hydroxy-8-(2-hydroxyacetyl)-6,6,9,13-tetramethyl-5,7-dioxapentacyclo[10.8.0.02,9.04,8.013,18]icosa-14,17-dien-16-one
Formula: C24H30F2O6
Exact mass: 452.2010
SMILES: CC1(C)O[C@@H]2C[C@H]3[C@@H]4C[C@H](F)C5=CC(=O)C=C[C@]5(C)[C@@]4(F)[C@@H](O)C[C@]3(C)[C@@]2(O1)C(=O)CO
InChI: InChI=1S/C24H30F2O6/c1-20(2)31-19-9-13-14-8-16(25)15-7-12(28)5-6-21(15,3)23(14,26)17(29)10-22(13,4)24(19,32-20)18(30)11-27/h5-7,13-14,16-17,19,27,29H,8-11H2,1-4H3/t13-,14-,16-,17-,19+,21-,22-,23-,24+/m0/s1
Instrument: Q Exactive Orbitrap (Thermo Scientific)
Instrument type: LC-ESI-QFT
Ms type: MS2
Ion mode: POSITIVE
Ionization: ESI
Fragmentation mode: HCD
Collision energy: 60
Resolution: 17500
Column name: Acquity BEH C18 1.7um, 2.1x150mm (Waters)
Retention time: 16.806 min
Base peak: 79.0211
Precursor m/z: 453.2083
Precursor type: [M+H]+
Precursor intensity: 3566062.75
m/z	relative intensity	assigned
53.0386	21	C4H5+
55.0179	64	C3H3O+
55.0542	12	C4H7+
57.0334	3	C3H5O+
59.0491	138	C3H7O+
65.0386	8	C5H5+
67.0542	31	C5H7+
69.0335	45	C4H5O+
71.0128	5	C3H3O2+
71.0491	4	C4H7O+
77.0384	6	C6H5+
79.0542	59	C6H7+
81.0334	12	C5H5O+
81.0699	34	C6H9+
83.0491	10	C5H7O+
87.0441	4	C4H7O2+
91.0543	184	C7H7+
93.0699	104	C7H9+
94.0414	4	C6H6O+
95.0492	74	C6H7O+
95.0856	28	C7H11+
97.0284	19	C5H5O2+
97.0449	6	C6H6F+
97.0649	11	C6H9O+
99.0605	10	C6H8F+
101.0234	3	C4H5O3+
103.0542	41	C8H7+
105.0699	148	C8H9+
107.0492	26	C7H7O+
107.0855	34	C8H11+
109.0449	20	C7H6F+
109.0648	46	C7H9O+
111.044	16	C6H7O2+
111.0603	5	C7H8F+
111.0805	8	C7H11O+
115.0389	10	C5H7O3+
115.0542	57	C9H7+
116.0621	9	C9H8+
117.0699	77	C9H9+
119.0492	12	C8H7O+
119.0856	40	C9H11+
121.0648	999	C8H9O+
123.0441	11	C7H7O2+
123.0605	18	C8H8F+
123.0803	9	C8H11O+
125.0598	5	C7H9O2+
125.0761	6	C8H10F+
127.0552	7	C7H8FO+
128.062	46	C10H8+
129.0699	72	C10H9+
130.0777	3	C10H10+
131.0492	11	C9H7O+
131.0856	42	C10H11+
132.0569	11	C9H8O+
133.0648	54	C9H9O+
133.1012	8	C10H13+
135.0443	15	C8H7O2+
135.0605	26	C9H8F+
135.0804	65	C9H11O+
137.0597	11	C8H9O2+
137.0762	48	C9H10F+
139.0554	48	C8H8FO+
139.0758	4	C8H11O2+
141.0699	42	C11H9+
142.0777	13	C11H10+
143.0854	37	C11H11+
144.0569	17	C10H8O+
145.0648	131	C10H9O+
146.0527	14	C10H7F+
146.0727	7	C10H10O+
147.0606	10	C10H8F+
147.0804	76	C10H11O+
149.0594	3	C9H9O2+
149.0761	33	C10H10F+
151.0557	5	C9H8FO+
152.0621	6	C12H8+
153.07	24	C12H9+
154.078	4	C12H10+
155.0856	28	C12H11+
157.0649	25	C11H9O+
158.0727	35	C11H10O+
159.0805	112	C11H11O+
161.06	16	C10H9O2+
161.0759	6	C11H10F+
161.0964	16	C11H13O+
163.0556	16	C10H8FO+
163.0752	6	C10H11O2+
165.0704	47	C13H9+
166.0777	13	C13H10+
167.0854	26	C13H11+
168.0569	9	C12H8O+
168.0932	5	C13H12+
169.0649	38	C12H9O+
169.1008	7	C13H13+
170.0726	10	C12H10O+
171.0805	134	C12H11O+
172.0881	9	C12H12O+
173.0762	10	C12H10F+
173.0963	14	C12H13O+
175.0754	12	C11H11O2+
176.0632	4	C11H9FO+
177.0711	32	C11H10FO+
178.0777	35	C14H10+
179.0856	54	C14H11+
180.0936	26	C14H12+
181.0653	34	C13H9O+
181.1013	20	C14H13+
182.0726	28	C13H10O+
183.0806	26	C13H11O+
183.1167	9	C14H15+
184.0883	7	C13H12O+
185.0598	41	C12H9O2+
185.0752	4	C13H10F+
185.0963	21	C13H13O+
187.0755	11	C12H11O2+
189.0708	28	C12H10FO+
190.0776	38	C15H10+
191.086	34	C15H11+
192.0933	27	C15H12+
193.1013	49	C15H13+
194.0727	21	C14H10O+
194.1089	10	C15H14+
195.0806	57	C14H11O+
195.117	24	C15H15+
196.0883	47	C14H12O+
197.0962	67	C14H13O+
198.104	8	C14H14O+
199.0754	5	C13H11O2+
199.1119	8	C14H15O+
202.0781	22	C16H10+
203.0858	43	C16H11+
204.0933	20	C16H12+
205.0653	19	C15H9O+
205.1013	40	C16H13+
206.073	10	C15H10O+
206.1093	13	C16H14+
207.0804	22	C15H11O+
207.1172	22	C16H15+
208.0884	91	C15H12O+
209.0771	5	C12H11F2O+
209.0962	71	C15H13O+
210.104	22	C15H14O+
211.0755	10	C14H11O2+
211.1117	37	C15H15O+
212.1197	17	C15H16O+
213.0905	4	C14H13O2+
215.0856	39	C17H11+
216.0935	34	C17H12+
217.1013	23	C17H13+
218.0725	7	C16H10O+
218.109	22	C17H14+
219.0805	35	C16H11O+
219.1171	15	C17H15+
220.0884	31	C16H12O+
221.096	61	C16H13O+
222.104	68	C16H14O+
223.1119	57	C16H15O+
224.0833	13	C15H12O2+
225.0913	17	C15H13O2+
225.1269	8	C16H17O+
226.0788	6	C15H11FO+
227.0858	12	C18H11+
228.0935	23	C18H12+
229.1014	27	C18H13+
230.109	28	C18H14+
231.0805	34	C17H11O+
231.1164	18	C18H15+
232.0886	26	C17H12O+
233.0965	56	C17H13O+
233.1321	16	C18H17+
234.1038	36	C17H14O+
235.0757	9	C16H11O2+
235.1117	72	C17H15O+
236.0833	7	C16H12O2+
236.1195	16	C17H16O+
237.0906	9	C16H13O2+
237.1277	15	C17H17O+
238.0983	17	C16H14O2+
239.1066	8	C16H15O2+
240.0939	12	C16H13FO+
241.1021	9	C16H14FO+
242.11	3	C16H15FO+
243.0806	11	C18H11O+
243.1173	18	C19H15+
244.0883	13	C18H12O+
245.0964	39	C18H13O+
245.1323	8	C19H17+
246.1039	61	C18H14O+
247.0757	9	C17H11O2+
247.1117	27	C18H15O+
248.084	4	C14H13FO3+
248.1192	25	C18H16O+
249.0908	10	C17H13O2+
249.1273	22	C18H17O+
250.0989	6	C17H14O2+
251.1071	11	C17H15O2+
251.1432	10	C18H19O+
253.1022	7	C17H14FO+
253.1225	8	C17H17O2+
255.1163	6	C20H15+
257.0962	10	C19H13O+
258.1039	50	C19H14O+
259.1113	25	C19H15O+
260.1197	9	C19H16O+
261.1275	29	C19H17O+
262.0992	14	C18H14O2+
263.0869	5	C18H12FO+
263.1072	12	C18H15O2+
264.1152	10	C15H17FO3+
273.1269	16	C20H17O+
274.0987	11	C19H14O2+
275.1068	10	C19H15O2+
276.1146	9	C19H16O2+
277.1039	3	C16H15F2O2+
277.1222	9	C19H17O2+
279.1381	5	C19H19O2+
286.0989	4	C20H14O2+
291.1378	5	C20H19O2+
