Mass spectrum: CP-607366; LC-ESI-QFT; MS2; CE: 90; R=17500; [M+H]+
Name: CP-607366
Name: 1-(2-(3,4-Dichlorophenoxy)-5-fluorophenyl)-N-methylmethanamine
Name: 1-[2-(3,4-dichlorophenoxy)-5-fluorophenyl]-N-methylmethanamine
Formula: C14H12Cl2FNO
Exact mass: 299.0280
SMILES: CNCC1=C(OC2=CC=C(Cl)C(Cl)=C2)C=CC(F)=C1
InChI: InChI=1S/C14H12Cl2FNO/c1-18-8-9-6-10(17)2-5-14(9)19-11-3-4-12(15)13(16)7-11/h2-7,18H,8H2,1H3
Instrument: Q Exactive Orbitrap (Thermo Scientific)
Instrument type: LC-ESI-QFT
Ms type: MS2
Ion mode: POSITIVE
Ionization: ESI
Fragmentation mode: HCD
Collision energy: 90
Resolution: 17500
Column name: Acquity BEH C18 1.7um, 2.1x150mm (Waters)
Retention time: 15.598 min
Base peak: 79.0211
Precursor m/z: 300.0353
Precursor type: [M+H]+
Precursor intensity: 17992295.625
m/z	relative intensity	assigned
74.0151	1	C6H2+
75.0229	9	C6H3+
86.9632	1	C3ClO+
95.029	1	C6H4F+
108.984	4	C6H2Cl+
113.0396	2	C6H6FO+
123.0351	3	C2H13Cl2O+
129.0103	1	C6H6ClO+
150.0463	5	C12H6+
152.0624	3	C12H8+
169.0448	1	C12H6F+
169.0648	16	C12H9O+
170.0526	223	C12H7F+
171.0604	58	C12H8F+
172.9668	2	C9ClNO+
179.0491	5	C13H7O+
179.0603	5	C11H12Cl+
186.0231	85	C12H7Cl+
187.0551	4	C12H8FO+
197.0397	6	C13H6FO+
197.051	2	C11H11ClF+
198.0476	15	C13H7FO+
199.0553	598	C13H8FO+
205.0213	1	C12H7ClF+
206.0293	33	C12H8ClF+
213.01	3	C13H6ClO+
215.0257	36	C13H8ClO+
230.0374	21	C13H9ClNO+
232.0088	1	C13H6ClFO+
233.0163	999	C13H7ClFO+
248.9862	3	C13H7Cl2O+
