Mass spectrum: Dimethametryn; LC-ESI-QFT; MS2; CE: 60; R=17500; [M+H]+
Name: Dimethametryn
Name: 4-N-ethyl-2-N-(3-methylbutan-2-yl)-6-methylsulfanyl-1,3,5-triazine-2,4-diamine
Formula: C11H21N5S
Exact mass: 255.1518
SMILES: CCNC1=NC(SC)=NC(NC(C)C(C)C)=N1
InChI: InChI=1S/C11H21N5S/c1-6-12-9-14-10(13-8(4)7(2)3)16-11(15-9)17-5/h7-8H,6H2,1-5H3,(H2,12,13,14,15,16)
Instrument: Q Exactive Orbitrap (Thermo Scientific)
Instrument type: LC-ESI-QFT
Ms type: MS2
Ion mode: POSITIVE
Ionization: ESI
Fragmentation mode: HCD
Collision energy: 60
Resolution: 17500
Column name: Acquity BEH C18 1.7um, 2.1x150mm (Waters)
Retention time: 17.321 min
Base peak: 79.0211
Precursor m/z: 256.159
Precursor type: [M+H]+
Precursor intensity: 21057185.59375
m/z	relative intensity	assigned
55.0543	2	C4H7+
57.0699	2	C4H9+
68.0243	131	C2H2N3+
70.0651	3	C4H8N+
71.0603	272	C3H7N2+
71.0855	58	C5H11+
74.0058	46	C2H4NS+
85.0509	48	C2H5N4+
91.0324	440	C2H7N2S+
96.0556	345	C4H6N3+
102.0372	23	C4H8NS+
102.0913	2	C3H10N4+
110.0461	22	C3H4N5+
113.0821	56	C4H9N4+
116.0277	180	C3H6N3S+
130.0435	1	C4H8N3S+
131.0387	1	C3H7N4S+
138.0774	166	C5H8N5+
140.0928	3	C5H10N5+
143.0259	1	C3H5N5S+
144.059	126	C5H10N3S+
158.0495	146	C4H8N5S+
169.0542	3	C6H9N4S+
171.0574	3	C5H9N5S+
184.0651	3	C6H10N5S+
186.0808	999	C6H12N5S+
198.0811	1	C7H12N5S+
256.1589	23	C11H22N5S+
