Mass spectrum: N-(4-Methoxyphenyl)-3-oxobutanamide; LC-ESI-QFT; MS2; CE: 30; R=17500; [M+H]+
Name: N-(4-Methoxyphenyl)-3-oxobutanamide
Name: 4'-Methoxyacetoacetanilide
Formula: C11H13NO3
Exact mass: 207.0895
SMILES: COC1=CC=C(NC(=O)CC(C)=O)C=C1
InChI: InChI=1S/C11H13NO3/c1-8(13)7-11(14)12-9-3-5-10(15-2)6-4-9/h3-6H,7H2,1-2H3,(H,12,14)
Instrument: Q Exactive Orbitrap (Thermo Scientific)
Instrument type: LC-ESI-QFT
Ms type: MS2
Ion mode: POSITIVE
Ionization: ESI
Fragmentation mode: HCD
Collision energy: 30
Resolution: 17500
Column name: Acquity BEH C18 1.7um, 2.1x150mm (Waters)
Retention time: 12.857 min
Base peak: 79.0211
Precursor m/z: 208.0968
Precursor type: [M+H]+
Precursor intensity: 1875792.75
m/z	relative intensity	assigned
59.0492	86	C3H7O+
85.0284	44	C4H5O2+
92.0256	1	C6H4O+
92.0493	2	C6H6N+
93.0573	6	C6H7N+
103.039	4	C4H7O3+
109.0523	2	C6H7NO+
122.0601	38	C7H8NO+
123.0679	3	C7H9NO+
124.0758	999	C7H10NO+
148.0757	34	C9H10NO+
150.0551	157	C8H8NO2+
166.0862	2	C9H12NO2+
182.0814	2	C9H12NO3+
190.0864	82	C11H12NO2+
208.097	123	C11H14NO3+
