Mass spectrum: Methyl trans-styryl ketone; LC-ESI-QFT; MS2; CE: 60; R=17500; [M+H]+
Name: Methyl trans-styryl ketone
Name: Benzylideneacetone
Name: (E)-4-phenylbut-3-en-2-one
Formula: C10H10O
Exact mass: 146.0732
SMILES: CC(=O)\C=C\C1=CC=CC=C1
InChI: InChI=1S/C10H10O/c1-9(11)7-8-10-5-3-2-4-6-10/h2-8H,1H3/b8-7+
Instrument: Q Exactive Orbitrap (Thermo Scientific)
Instrument type: LC-ESI-QFT
Ms type: MS2
Ion mode: POSITIVE
Ionization: ESI
Fragmentation mode: HCD
Collision energy: 60
Resolution: 17500
Column name: Acquity BEH C18 1.7um, 2.1x150mm (Waters)
Retention time: 19.670 min
Base peak: 79.0211
Precursor m/z: 147.0804
Precursor type: [M+H]+
Precursor intensity: 2253316.375
m/z	relative intensity	assigned
53.0022	7	C3HO+
53.0387	8	C4H5+
55.0179	19	C3H3O+
65.0386	14	C5H5+
67.0541	5	C5H7+
69.0335	21	C4H5O+
79.0542	86	C6H7+
91.0543	925	C7H7+
93.0699	53	C7H9+
95.0492	33	C6H7O+
103.0543	92	C8H7+
104.0621	69	C8H8+
105.0699	18	C8H9+
107.0492	132	C7H7O+
115.0543	53	C9H7+
117.0699	378	C9H9+
119.0856	999	C9H11+
121.065	9	C8H9O+
128.062	55	C10H8+
129.0699	158	C10H9+
131.049	12	C9H7O+
132.057	116	C9H8O+
145.065	16	C10H9O+
147.0805	326	C10H11O+
