Mass spectrum: Hydramethylnon; LC-ESI-QFT; MS2; CE: 60; R=17500; [M+H]+
Name: Hydramethylnon
Name: N-[[(1E,4E)-1,5-bis[4-(trifluoromethyl)phenyl]penta-1,4-dien-3-ylidene]amino]-5,5-dimethyl-4,6-dihydro-1H-pyrimidin-2-amine
Formula: C25H24F6N4
Exact mass: 494.1905
SMILES: CC1(C)CNC(NC1)=NN=C(\C=C\C1=CC=C(C=C1)C(F)(F)F)/C=C/C1=CC=C(C=C1)C(F)(F)F
InChI: InChI=1S/C25H24F6N4/c1-23(2)15-32-22(33-16-23)35-34-21(13-7-17-3-9-19(10-4-17)24(26,27)28)14-8-18-5-11-20(12-6-18)25(29,30)31/h3-14H,15-16H2,1-2H3,(H2,32,33,35)/b13-7+,14-8+
Instrument: Q Exactive Orbitrap (Thermo Scientific)
Instrument type: LC-ESI-QFT
Ms type: MS2
Ion mode: POSITIVE
Ionization: ESI
Fragmentation mode: HCD
Collision energy: 60
Resolution: 17500
Column name: Acquity BEH C18 1.7um, 2.1x150mm (Waters)
Retention time: 17.750 min
Base peak: 79.0211
Precursor m/z: 495.1978
Precursor type: [M+H]+
Precursor intensity: 32626201.5
m/z	relative intensity	assigned
53.0386	2	C4H5+
54.0339	1	C3H4N+
55.0291	46	C2H3N2+
55.0542	48	C4H7+
56.0495	47	C3H6N+
56.062	9	C4H8+
57.0447	30	C2H5N2+
57.0573	5	C3H7N+
57.0699	7	C4H9+
58.0399	6	CH4N3+
58.0651	65	C3H8N+
59.0478	1	CH5N3+
60.0556	3	CH6N3+
65.0385	1	C5H5+
67.0416	3	C4H5N+
67.0542	7	C5H7+
68.0243	2	C2H2N3+
68.0494	11	C4H6N+
69.0447	41	C3H5N2+
69.0698	142	C5H9+
70.0399	19	C2H4N3+
70.0651	206	C4H8N+
71.0602	4	C3H7N2+
71.0729	88	C4H9N+
72.0556	7	C2H6N3+
72.0807	48	C4H10N+
80.0494	15	C5H6N+
81.0447	3	C4H5N2+
81.0572	2	C5H7N+
81.0697	1	CH8FN3+
82.0526	7	C4H6N2+
82.0651	73	C5H8N+
83.0478	13	C3H5N3+
83.0603	20	C4H7N2+
83.073	4	C5H9N+
84.0556	20	C3H6N3+
84.0807	36	C5H10N+
85.0508	1	C2H5N4+
85.076	4	C4H9N2+
86.0964	58	C5H12N+
94.0651	8	C6H8N+
95.0604	15	C5H7N2+
95.0728	1	CH8FN4+
96.0556	14	C4H6N3+
96.0682	2	C5H8N2+
96.0807	10	C6H10N+
97.0635	11	CH9F4+
97.076	132	C5H9N2+
98.0713	1	C4H8N3+
98.0838	3	C5H10N2+
99.0916	12	C5H11N2+
102.0464	114	C8H6+
107.0604	5	C6H7N2+
109.0448	24	C7H6F+
109.076	14	C6H9N2+
110.0713	2	C2H10F4+
110.0839	2	C6H10N2+
111.0916	20	C6H11N2+
112.0869	266	C5H10N3+
113.1072	80	C6H13N2+
115.0541	1	CH8F5+
116.0621	1	C9H8+
120.0371	3	C8H5F+
126.1026	102	C6H12N3+
127.0354	4	C7H5F2+
127.0865	10	CH11F4N2+
127.098	2	C2H13F4N+
127.1104	28	C6H13N3+
128.1182	188	C6H14N3+
140.0433	1	C8H6F2+
142.1211	4	C6H14N4+
143.0729	2	C10H9N+
145.0259	11	C7H4F3+
149.0396	8	C12H5+
151.0353	999	C9H5F2+
153.1134	44	C7H13N4+
154.0654	4	C11H8N+
156.0442	15	C5H6F4N+
156.0681	14	C2H9F5N2+
159.0416	206	C8H6F3+
163.1229	14	C10H15N2+
164.0436	1	C10H6F2+
165.0509	10	C10H7F2+
166.0467	4	C9H6F2N+
169.046	134	C12H6F+
171.0415	825	C9H6F3+
172.0365	5	C3H4F4N4+
173.0505	1	C2H7F6N2+
174.0527	3	C8H7F3N+
177.0511	11	C11H7F2+
178.0462	143	C10H6F2N+
182.0339	1	C10H5F3+
183.0416	61	C10H6F3+
183.0614	38	C13H8F+
184.0368	1	C9H5F3N+
185.0446	5	C9H6F3N+
186.0525	15	C9H7F3N+
187.0673	1	C11H8FN2+
188.0686	3	C9H9F3N+
190.0467	3	C11H6F2N+
190.066	12	C14H8N+
191.0411	1	C10H5F2N2+
193.057	5	C10H7F2N2+
196.0368	63	C10H5F3N+
197.0562	1	C6H7F4N3+
197.0827	4	C8H11F4N+
198.0525	48	C10H7F3N+
199.0479	2	C9H6F3N2+
200.0686	2	C10H9F3N+
202.0469	2	C12H6F2N+
202.0775	1	C8H11F5+
203.0685	1	C13H9F2+
210.0527	6	C11H7F3N+
211.0478	2	C10H6F3N2+
211.0601	3	C6H7F4N4+
212.0553	3	C10H7F3N2+
212.0682	5	C11H9F3N+
213.0632	46	C10H8F3N2+
214.0473	60	C13H6F2N+
217.1011	5	C17H13+
218.0525	19	C8H8F6+
219.0607	1	C16H8F+
219.0724	1	C12H9F2N2+
222.0524	9	C7H6F4N4+
223.0475	8	C11H6F3N2+
224.0676	1	C7H8F4N4+
225.0634	64	C11H8F3N2+
226.0834	1	C7H10F4N4+
226.1468	4	C15H18N2+
227.0717	1	C4H9F6N4+
228.0629	4	C14H8F2N+
230.0969	3	C17H12N+
234.0707	1	C11H8F2N4+
235.0605	6	C13H8F3N+
235.0789	3	C11H9F2N4+
237.0633	1	C12H8F3N2+
238.0585	134	C11H7F3N3+
239.0789	11	C12H10F3N2+
239.1543	3	C16H19N2+
242.1148	1	C8H14F4N4+
243.0877	1	C15H11F2N+
245.0628	1	C12H7F2N4+
246.0709	5	C12H8F2N4+
246.0838	3	C10H12F6+
247.0789	31	C12H9F2N4+
251.0661	1	C12H8F3N3+
251.079	3	C13H10F3N2+
252.074	2	C12H9F3N3+
252.0989	2	C9H12F4N4+
253.1446	17	C7H18F5N4+
255.0852	7	C11H10F3N4+
255.1108	2	C13H14F3N2+
266.0903	3	C18H12F2+
267.0851	45	C12H10F3N4+
269.1271	1	C14H16F3N2+
270.065	1	C17H9F3+
270.1336	9	C14H17F3N2+
272.081	3	C17H11F3+
278.0905	8	C19H12F2+
279.0854	7	C18H11F2N+
281.1258	4	C15H16F3N2+
283.0737	1	C18H10F3+
284.066	1	C12H8F4N4+
284.1363	1	C14H17F3N3+
285.0887	3	C18H12F3+
286.0958	7	C13H12F4N3+
294.1345	1	C16H17F3N2+
295.1421	1	C16H18F3N2+
296.1372	1	C20H18F2+
298.0838	54	C18H11F3N+
299.0913	14	C13H11F4N4+
301.0632	7	C13H8F5N3+
303.1406	1	C16H17F2N4+
307.1415	6	C17H18F3N2+
315.0795	4	C19H11F4+
323.1476	41	C16H18F3N4+
327.0658	5	C14H8F5N4+
334.1523	19	C18H19F3N3+
346.0647	1	C14H8F6N4+
347.0723	9	C14H9F6N4+
353.0632	20	C21H7F2N4+
363.0911	2	C19H12F5N2+
366.0712	15	C19H10F6N+
368.0867	37	C22H10F2N4+
