Mass spectrum: Cyprodinil; LC-ESI-QFT; MS2; CE: 60; R=17500; [M+H]+
Name: Cyprodinil
Name: 4-cyclopropyl-6-methyl-N-phenylpyrimidin-2-amine
Formula: C14H15N3
Exact mass: 225.1266
SMILES: CC1=NC(NC2=CC=CC=C2)=NC(=C1)C1CC1
InChI: InChI=1S/C14H15N3/c1-10-9-13(11-7-8-11)17-14(15-10)16-12-5-3-2-4-6-12/h2-6,9,11H,7-8H2,1H3,(H,15,16,17)
Instrument: Q Exactive Orbitrap (Thermo Scientific)
Instrument type: LC-ESI-QFT
Ms type: MS2
Ion mode: POSITIVE
Ionization: ESI
Fragmentation mode: HCD
Collision energy: 60
Resolution: 17500
Column name: Acquity BEH C18 1.7um, 2.1x150mm (Waters)
Retention time: 17.671 min
Base peak: 79.0211
Precursor m/z: 226.1339
Precursor type: [M+H]+
Precursor intensity: 57673286.25
m/z	relative intensity	assigned
53.0386	4	C4H5+
56.0495	2	C3H6N+
65.0385	24	C5H5+
66.0463	1	C5H6+
67.029	1	C3H3N2+
67.0417	2	C4H5N+
67.0542	27	C5H7+
68.0494	12	C4H6N+
77.0382	3	C6H5+
79.0542	27	C6H7+
80.0494	24	C5H6N+
81.0699	26	C6H9+
82.0651	16	C5H8N+
83.0602	4	C4H7N2+
84.0807	8	C5H10N+
89.0385	3	C7H5+
91.0542	72	C7H7+
92.0494	56	C6H6N+
92.0621	7	C7H8+
93.0573	174	C6H7N+
94.0651	15	C6H8N+
95.0491	10	C4H5N3+
96.0809	1	C6H10N+
104.0494	9	C7H6N+
105.0448	7	C6H5N2+
106.0651	94	C7H8N+
107.0603	5	C6H7N2+
107.073	5	C7H9N+
108.0683	23	C6H8N2+
108.0807	232	C7H10N+
109.0647	1	C5H7N3+
109.076	21	C6H9N2+
109.0886	7	C7H11N+
115.0541	3	C9H7+
116.0494	18	C8H6N+
117.0446	2	C7H5N2+
117.0573	19	C8H7N+
117.0699	3	C9H9+
118.0525	55	C7H6N2+
118.065	37	C8H8N+
119.0604	82	C7H7N2+
123.0917	17	C7H11N2+
130.065	3	C9H8N+
131.0604	20	C8H7N2+
132.0682	34	C8H8N2+
132.0807	2	C9H10N+
133.076	121	C8H9N2+
134.0837	1	C8H10N2+
140.0494	1	C10H6N+
141.0698	1	C11H9+
142.0651	9	C10H8N+
143.0603	28	C9H7N2+
143.073	5	C10H9N+
144.0807	76	C10H10N+
145.076	14	C9H9N2+
148.0869	1	C8H10N3+
152.062	1	C12H8+
154.0652	1	C11H8N+
156.068	1	C10H8N2+
156.0806	1	C11H10N+
157.076	4	C10H9N2+
158.0839	3	C10H10N2+
158.0963	5	C11H12N+
159.0917	29	C10H11N2+
165.0698	3	C13H9+
167.0603	2	C11H7N2+
167.0728	11	C12H9N+
168.0684	4	C11H8N2+
168.0807	18	C12H10N+
169.0631	1	C10H7N3+
169.0759	13	C11H9N2+
169.0885	1	C12H11N+
170.084	3	C11H10N2+
171.0917	4	C11H11N2+
180.0807	1	C13H10N+
181.076	3	C12H9N2+
181.0889	1	C13H11N+
182.0838	6	C12H10N2+
182.0964	4	C13H12N+
183.079	7	C11H9N3+
183.0916	14	C12H11N2+
184.0869	39	C11H10N3+
184.1119	2	C13H14N+
185.1073	35	C12H13N2+
191.073	2	C14H9N+
192.081	4	C14H10N+
193.076	6	C13H9N2+
193.0885	1	C14H11N+
194.0838	26	C13H10N2+
195.0913	1	C13H11N2+
196.0867	3	C12H10N3+
197.0947	8	C12H11N3+
197.1058	1	C13H13N2+
198.1026	14	C12H12N3+
199.111	2	C12H13N3+
199.1228	3	C13H15N2+
200.1183	1	C12H14N3+
207.0917	8	C14H11N2+
208.0994	10	C14H12N2+
209.1073	48	C14H13N2+
210.1025	72	C13H12N3+
211.1104	22	C13H13N3+
224.1183	13	C14H14N3+
225.1256	3	C14H15N3+
226.1338	999	C14H16N3+
