Mass spectrum: AVE3295; LC-ESI-QFT; MS2; CE: 30; R=17500; [M+H]+
Name: AVE3295
Name: 5-Fluoro-N-[(1S)-1-phenylpropyl]-2-[(quinolin-8-ylsulfonyl)amino]benzamide
Name: 5-fluoro-N-[(1S)-1-phenylpropyl]-2-(quinolin-8-ylsulfonylamino)benzamide
Formula: C25H22FN3O3S
Exact mass: 463.1366
SMILES: CC[C@H](NC(=O)c1cc(F)ccc1NS(=O)(=O)c1cccc2cccnc12)c1ccccc1
InChI: InChI=1S/C25H22FN3O3S/c1-2-21(17-8-4-3-5-9-17)28-25(30)20-16-19(26)13-14-22(20)29-33(31,32)23-12-6-10-18-11-7-15-27-24(18)23/h3-16,21,29H,2H2,1H3,(H,28,30)/t21-/m0/s1
Instrument: Q Exactive Orbitrap (Thermo Scientific)
Instrument type: LC-ESI-QFT
Ms type: MS2
Ion mode: POSITIVE
Ionization: ESI
Fragmentation mode: HCD
Collision energy: 30
Resolution: 17500
Column name: Acquity BEH C18 1.7um, 2.1x150mm (Waters)
Retention time: 17.503 min
Base peak: 79.0211
Precursor m/z: 464.1439
Precursor type: [M+H]+
Precursor intensity: 17401149.25
m/z	relative intensity	assigned
65.0384	1	FH4N3+
91.0542	797	C7H7+
106.065	2	C7H8N+
119.0855	468	C9H11+
129.0583	2	C6H8FNO+
134.0963	27	C9H12N+
138.0349	8	C7H5FNO+
154.0535	23	C7H7FN2O+
160.0215	4	C9H6NS+
161.0292	3	C9H7NS+
192.0112	11	C9H6NO2S+
210.0218	95	C9H8NO3S+
224.0373	1	C10H10NO3S+
236.0745	1	C15H9FN2+
243.0926	17	C14H12FN2O+
264.0692	6	C16H9FN2O+
265.077	999	C16H10FN2O+
272.1323	2	C16H17FN2O+
329.0388	936	C16H10FN2O3S+
346.0654	167	C16H13FN3O3S+
464.1438	2	C25H23FN3O3S+
