Mass spectrum: Pioglitazone hydrochloride; LC-ESI-QFT; MS2; CE: 75; R=17500; [M+H]+
Name: Pioglitazone
Name: 5-[[4-[2-(5-ethylpyridin-2-yl)ethoxy]phenyl]methyl]-1,3-thiazolidine-2,4-dione
Formula: C19H20N2O3S
Exact mass: 356.1195
SMILES: CCC1=CN=C(CCOC2=CC=C(CC3SC(=O)NC3=O)C=C2)C=C1
InChI: InChI=1S/C19H20N2O3S/c1-2-13-3-6-15(20-12-13)9-10-24-16-7-4-14(5-8-16)11-17-18(22)21-19(23)25-17/h3-8,12,17H,2,9-11H2,1H3,(H,21,22,23)
Instrument: Q Exactive Orbitrap (Thermo Scientific)
Instrument type: LC-ESI-QFT
Ms type: MS2
Ion mode: POSITIVE
Ionization: ESI
Fragmentation mode: HCD
Collision energy: 75
Resolution: 17500
Column name: Acquity BEH C18 1.7um, 2.1x150mm (Waters)
Retention time: 13.642 min
Base peak: 79.0211
Precursor m/z: 357.1267
Precursor type: [M+H]+
Precursor intensity: 24369141.75
m/z	relative intensity	assigned
53.0386	3	C4H5+
56.0494	1	C3H6N+
65.0384	2	C5H5+
66.0463	3	C5H6+
67.0542	1	C5H7+
68.0494	1	C4H6N+
77.0384	2	C6H5+
78.0337	1	C5H4N+
79.0542	50	C6H7+
80.0494	4	C5H6N+
81.0335	2	C5H5O+
82.0651	1	C5H8N+
91.0417	1	C6H5N+
91.0542	18	C7H7+
92.0494	6	C6H6N+
92.062	1	C7H8+
93.0573	13	C6H7N+
93.0699	1	C7H9+
95.0491	21	C6H7O+
96.0443	21	C5H6NO+
98.06	1	C5H8NO+
104.0494	13	C7H6N+
105.0447	5	C6H5N2+
105.057	2	C7H7N+
105.0699	1	C8H9+
106.0651	75	C7H8N+
107.0492	1	C7H7O+
107.0729	7	C7H9N+
108.0443	1	C6H6NO+
108.0807	4	C7H10N+
109.0521	4	C6H7NO+
110.06	3	C6H8NO+
117.0573	1	C8H7N+
118.0652	57	C8H8N+
119.0729	953	C8H9N+
120.0806	72	C8H10N+
121.0885	19	C8H11N+
122.06	6	C7H8NO+
123.0677	3	C7H9NO+
124.0756	22	C7H10NO+
132.0809	2	C9H10N+
133.0886	1	C9H11N+
134.0963	999	C9H12N+
135.104	43	C9H13N+
139.0627	5	C7H9NO2+
