Mass spectrum: Fabesetron; LC-ESI-QFT; MS2; CE: 45; R=17500; [M+H]+
Name: Fabesetron
Name: (7R)-10-methyl-7-[(5-methyl-1H-imidazol-4-yl)methyl]-8,9-dihydro-7H-pyrido[1,2-a]indol-6-one
Formula: C18H19N3O
Exact mass: 293.1528
SMILES: Cc1[nH]cnc1C[C@H]1CCc2c(C)c3ccccc3n2C1=O
InChI: InChI=1S/C18H19N3O/c1-11-14-5-3-4-6-17(14)21-16(11)8-7-13(18(21)22)9-15-12(2)19-10-20-15/h3-6,10,13H,7-9H2,1-2H3,(H,19,20)/t13-/m1/s1
Instrument: Q Exactive Orbitrap (Thermo Scientific)
Instrument type: LC-ESI-QFT
Ms type: MS2
Ion mode: POSITIVE
Ionization: ESI
Fragmentation mode: HCD
Collision energy: 45
Resolution: 17500
Column name: Acquity BEH C18 1.7um, 2.1x150mm (Waters)
Retention time: 15.393 min
Base peak: 79.0212
Precursor m/z: 294.1601
Precursor type: [M+H]+
Precursor intensity: 25116918.25
m/z	relative intensity	assigned
54.0338	2	C3H4N+
68.0494	1	C4H6N+
80.0494	5	C5H6N+
83.0604	2	C4H7N2+
94.0652	5	C6H8N+
95.0604	394	C5H7N2+
96.0681	41	C5H8N2+
97.0759	4	C5H9N2+
108.0808	2	C7H10N+
109.0759	4	C6H9N2+
121.076	60	C7H9N2+
122.0837	4	C7H10N2+
123.0917	10	C7H11N2+
127.0868	2	C6H11N2O+
130.0651	1	C9H8N+
132.0811	1	C9H10N+
135.0916	35	C8H11N2+
137.071	56	C7H9N2O+
143.0733	1	C10H9N+
144.0808	157	C10H10N+
146.0964	17	C10H12N+
149.0709	999	C8H9N2O+
158.0964	97	C11H12N+
163.0867	2	C9H11N2O+
170.0963	9	C12H12N+
172.1118	1	C12H14N+
180.0805	3	C13H10N+
181.0886	15	C13H11N+
182.0964	17	C13H12N+
184.1121	4	C13H14N+
198.0917	2	C13H12NO+
199.0994	1	C13H13NO+
200.1069	30	C13H14NO+
212.1069	11	C14H14NO+
250.1226	2	C17H16NO+
261.1264	1	C17H15N3+
266.1652	12	C17H20N3+
276.1495	17	C18H18N3+
294.16	721	C18H20N3O+
