Mass spectrum: Quinoxyfen; LC-ESI-QFT; MS2; CE: 45; R=17500; [M+H]+
Name: Quinoxyfen
Name: 5,7-dichloro-4-(4-fluorophenoxy)quinoline
Formula: C15H8Cl2FNO
Exact mass: 306.9967
SMILES: FC1=CC=C(OC2=CC=NC3=CC(Cl)=CC(Cl)=C23)C=C1
InChI: InChI=1S/C15H8Cl2FNO/c16-9-7-12(17)15-13(8-9)19-6-5-14(15)20-11-3-1-10(18)2-4-11/h1-8H
Instrument: Q Exactive Orbitrap (Thermo Scientific)
Instrument type: LC-ESI-QFT
Ms type: MS2
Ion mode: POSITIVE
Ionization: ESI
Fragmentation mode: HCD
Collision energy: 45
Resolution: 17500
Column name: Acquity BEH C18 1.7um, 2.1x150mm (Waters)
Retention time: 19.951 min
Base peak: 79.0211
Precursor m/z: 308.004
Precursor type: [M+H]+
Precursor intensity: 28910456
m/z	relative intensity	assigned
91.0415	1	C6H5N+
111.0239	1	C6H4FO+
113.0396	2	C6H6FO+
118.0286	1	C7H4NO+
126.0105	1	C6H5ClN+
133.0522	1	C8H7NO+
150.0106	2	C8H5ClN+
162.0105	1	C9H5ClN+
166.0051	2	C8H5ClNO+
168.0209	6	C8H7ClNO+
178.0061	1	C9H5ClNO+
178.0165	2	C10H7ClO+
183.9714	3	C8H4Cl2N+
195.9714	1	C9H4Cl2N+
196.9793	86	C9H5Cl2N+
209.0632	1	C14H8FN+
210.0712	1	C14H9FN+
212.9741	2	C9H5Cl2NO+
213.982	59	C9H6Cl2NO+
217.021	1	C13H7ClF+
225.0338	1	C14H8ClN+
228.9691	83	C15ClN+
237.0583	6	C15H8FNO+
238.0665	1	C15H9FNO+
244.0323	22	C14H8ClFN+
245.0401	32	C14H9ClFN+
253.0292	2	C15H8ClNO+
254.0367	4	C15H9ClNO+
260.0023	1	C14H8Cl2N+
272.0271	176	C15H8ClFNO+
273.0353	4	C15H9ClFNO+
280.009	25	C14H9Cl2FN+
287.9976	14	C15H8Cl2NO+
308.0038	999	C15H9Cl2FNO+
