Mass spectrum: Brucine; LC-ESI-QFT; MS2; CE: 90; R=17500; [M+H]+
Name: Brucine
Name: (4aR,5aS,8aR,13aS,15aS,15bR)-10,11-dimethoxy-4a,5,5a,7,8,13a,15,15a,15b,16-decahydro-2H-4,6-methanoindolo[3,2,1-ij]oxepino[2,3,4-de]pyrrolo[2,3-h]quinolin-14-one
Formula: C23H26N2O4
Exact mass: 394.1893
SMILES: COC1=CC2=C(C=C1OC)[C@@]13CCN4CC5=CCO[C@H]6CC(=O)N2[C@H]1[C@H]6[C@H]5C[C@@H]34
InChI: InChI=1S/C23H26N2O4/c1-27-16-8-14-15(9-17(16)28-2)25-20(26)10-18-21-13-7-19-23(14,22(21)25)4-5-24(19)11-12(13)3-6-29-18/h3,8-9,13,18-19,21-22H,4-7,10-11H2,1-2H3/t13-,18-,19-,21-,22-,23+/m0/s1
Instrument: Q Exactive Orbitrap (Thermo Scientific)
Instrument type: LC-ESI-QFT
Ms type: MS2
Ion mode: POSITIVE
Ionization: ESI
Fragmentation mode: HCD
Collision energy: 90
Resolution: 17500
Column name: Acquity BEH C18 1.7um, 2.1x150mm (Waters)
Retention time: 11.177 min
Base peak: 79.0211
Precursor m/z: 395.1965
Precursor type: [M+H]+
Precursor intensity: 8191074
m/z	relative intensity	assigned
53.0386	92	C4H5+
55.0179	99	C3H3O+
55.0543	22	C4H7+
56.0495	77	C3H6N+
65.0385	42	C5H5+
66.0464	8	C5H6+
67.0416	37	C4H5N+
67.0542	91	C5H7+
68.0494	72	C4H6N+
69.0334	19	C4H5O+
70.0651	35	C4H8N+
77.0385	17	C6H5+
78.0335	7	C5H4N+
79.0542	193	C6H7+
80.0494	230	C5H6N+
81.0335	23	C5H5O+
81.0573	44	C5H7N+
81.0699	69	C6H9+
82.0651	35	C5H8N+
83.0489	8	C5H7O+
84.0445	7	C4H6NO+
91.0542	205	C7H7+
92.0495	32	C6H6N+
93.0573	341	C6H7N+
93.0698	40	C7H9+
94.0652	131	C6H8N+
95.0492	148	C6H7O+
95.073	11	C6H9N+
95.0855	8	C7H11+
96.0444	37	C5H6NO+
96.0807	52	C6H10N+
98.06	8	C5H8NO+
103.0541	35	C8H7+
104.0494	14	C7H6N+
105.0447	38	C6H5N2+
105.07	36	C8H9+
106.0651	312	C7H8N+
107.0493	13	C7H7O+
107.0729	27	C7H9N+
107.0853	8	C8H11+
108.0808	91	C7H10N+
109.0648	5	C7H9O+
110.0599	11	C6H8NO+
115.0541	53	C9H7+
117.0573	47	C8H7N+
117.0698	46	C9H9+
118.0651	55	C8H8N+
119.0731	9	C8H9N+
119.0855	8	C9H11+
120.0443	31	C7H6NO+
120.0809	31	C8H10N+
121.0522	7	C7H7NO+
121.0648	25	C8H9O+
122.06	98	C7H8NO+
122.0964	6	C8H12N+
124.0757	32	C7H10NO+
128.0621	23	C10H8+
129.0699	60	C10H9+
130.0652	102	C9H8N+
131.0491	19	C9H7O+
131.073	17	C9H9N+
131.0852	8	C10H11+
132.0445	50	C8H6NO+
132.0808	34	C9H10N+
133.0522	31	C8H7NO+
134.06	39	C8H8NO+
134.0963	11	C9H12N+
142.0652	120	C10H8N+
143.073	44	C10H9N+
144.0568	21	C10H8O+
144.0808	50	C10H10N+
145.0525	11	C9H7NO+
145.0647	74	C10H9O+
146.06	151	C9H8NO+
147.0679	85	C9H9NO+
148.0394	67	C8H6NO2+
148.0757	37	C9H10NO+
154.0651	189	C11H8N+
155.0728	74	C11H9N+
156.0808	118	C11H10N+
158.0601	232	C10H8NO+
158.0726	21	C11H10O+
159.0679	44	C10H9NO+
160.0757	108	C10H10NO+
161.0471	13	C9H7NO2+
161.0834	13	C10H11NO+
162.0549	51	C9H8NO2+
163.0628	50	C9H9NO2+
164.07	7	C9H10NO2+
167.0729	47	C12H9N+
168.0808	49	C12H10N+
169.0522	70	C11H7NO+
170.06	903	C11H8NO+
171.0678	80	C11H9NO+
172.0757	366	C11H10NO+
173.0838	69	C11H11NO+
174.055	65	C10H8NO2+
174.0676	39	C11H10O2+
174.0915	11	C11H12NO+
175.0628	27	C10H9NO2+
176.0705	42	C10H10NO2+
177.0784	23	C10H11NO2+
178.0863	21	C10H12NO2+
180.0809	82	C13H10N+
182.0601	191	C12H8NO+
183.068	213	C12H9NO+
184.0758	447	C12H10NO+
185.0836	791	C12H11NO+
186.055	479	C11H8NO2+
186.0914	61	C12H12NO+
187.0628	42	C11H9NO2+
187.0868	12	C11H11N2O+
188.0707	68	C11H10NO2+
189.0784	16	C11H11NO2+
189.0912	15	C12H13O2+
190.0862	52	C11H12NO2+
191.073	36	C14H9N+
192.0658	31	C10H10NO3+
192.0808	57	C14H10N+
193.089	30	C14H11N+
194.0601	55	C13H8NO+
194.0963	33	C14H12N+
195.0677	30	C13H9NO+
196.0758	175	C13H10NO+
197.0473	15	C12H7NO2+
197.0835	142	C13H11NO+
198.055	999	C12H8NO2+
198.0909	59	C13H12NO+
199.063	53	C12H9NO2+
199.0994	13	C13H13NO+
200.0707	350	C12H10NO2+
201.0784	181	C12H11NO2+
202.0501	7	C11H8NO3+
202.0861	38	C12H12NO2+
204.0648	10	C11H10NO3+
204.0808	84	C15H10N+
204.1021	9	C12H14NO2+
206.0599	50	C14H8NO+
206.0813	6	C14H10N2+
206.0865	6	C14H10N2+
206.0965	58	C15H12N+
207.0679	36	C14H9NO+
208.0758	195	C14H10NO+
208.1122	20	C15H14N+
209.0837	65	C14H11NO+
210.055	48	C13H8NO2+
210.0914	178	C14H12NO+
211.063	48	C13H9NO2+
211.0995	12	C14H13NO+
212.0706	273	C13H10NO2+
213.0784	698	C13H11NO2+
214.0499	555	C12H8NO3+
214.0859	67	C13H12NO2+
215.0577	13	C12H9NO3+
215.0817	17	C12H11N2O2+
215.0944	21	C13H13NO2+
216.102	242	C13H14NO2+
217.0886	63	C16H11N+
218.0964	58	C16H12N+
219.0678	44	C15H9NO+
219.1043	11	C16H13N+
220.0756	229	C15H10NO+
220.1125	23	C16H14N+
221.0835	99	C15H11NO+
222.0548	38	C14H8NO2+
222.0914	120	C15H12NO+
223.099	67	C15H13NO+
224.0707	131	C14H10NO2+
224.1069	24	C15H14NO+
225.0788	50	C14H11NO2+
226.0502	16	C13H8NO3+
226.0863	84	C14H12NO2+
227.0585	5	C13H9NO3+
227.0939	39	C14H13NO2+
228.0656	148	C13H10NO3+
228.1016	32	C14H14NO2+
229.0734	296	C13H11NO3+
230.0814	15	C13H12NO3+
230.0965	24	C17H12N+
232.0756	60	C16H10NO+
232.1125	18	C17H14N+
233.0835	65	C16H11NO+
234.0553	41	C15H8NO2+
234.0914	200	C16H12NO+
235.0635	17	C15H9NO2+
235.0992	90	C16H13NO+
236.0707	297	C15H10NO2+
236.1069	150	C16H14NO+
237.0785	35	C15H11NO2+
237.1146	11	C16H15NO+
238.0863	101	C15H12NO2+
239.0938	18	C15H13NO2+
240.0652	31	C14H10NO3+
240.1016	32	C15H14NO2+
241.074	9	C14H11NO3+
242.0815	19	C14H12NO3+
243.0529	12	C13H9NO4+
243.0892	9	C14H13NO3+
244.0971	80	C14H14NO3+
246.0549	33	C16H8NO2+
246.0917	50	C17H12NO+
247.0628	14	C16H9NO2+
247.0992	44	C17H13NO+
248.0704	131	C16H10NO2+
248.1072	95	C17H14NO+
249.0782	63	C16H11NO2+
249.102	16	C16H13N2O+
249.1152	23	C17H15NO+
250.0502	12	C15H8NO3+
250.0863	100	C16H12NO2+
250.1227	30	C17H16NO+
251.0941	89	C16H13NO2+
252.0655	111	C15H10NO3+
252.1022	28	C16H14NO2+
254.0819	13	C15H12NO3+
254.1176	23	C16H16NO2+
256.0968	8	C15H14NO3+
258.0909	41	C18H12NO+
259.0979	7	C18H13NO+
260.0712	14	C17H10NO2+
260.1072	39	C18H14NO+
261.0781	15	C17H11NO2+
261.1157	9	C18H15NO+
262.0861	76	C17H12NO2+
262.1222	30	C18H16NO+
263.0942	82	C17H13NO2+
264.0655	57	C16H10NO3+
264.1021	90	C17H14NO2+
265.0738	18	C16H11NO3+
265.0964	9	C16H13N2O2+
265.1102	10	C17H15NO2+
266.0813	15	C16H12NO3+
266.1176	25	C17H16NO2+
267.0893	37	C16H13NO3+
268.0974	6	C16H14NO3+
272.1069	8	C19H14NO+
273.0785	13	C18H11NO2+
274.0867	41	C18H12NO2+
274.1238	7	C19H16NO+
275.0945	12	C18H13NO2+
276.1013	39	C18H14NO2+
277.0951	7	C17H13N2O2+
277.1102	13	C18H15NO2+
278.0811	18	C17H12NO3+
278.1176	60	C18H16NO2+
279.1122	6	C17H15N2O2+
280.0973	22	C17H14NO3+
286.0861	12	C19H12NO2+
288.1013	39	C19H14NO2+
290.0822	7	C18H12NO3+
290.118	19	C19H16NO2+
292.0971	20	C18H14NO3+
294.1125	10	C18H16NO3+
301.1117	6	C20H15NO2+
304.0967	10	C19H14NO3+
306.1126	38	C19H16NO3+
316.0969	8	C20H14NO3+
337.1551	17	C20H21N2O3+
379.1671	6	C22H23N2O4+
