Mass spectrum: Mefenamic acid; LC-ESI-QFT; MS2; CE: 15; R=17500; [M+H]+
Name: Mefenamic acid
Name: 2-(2,3-dimethylanilino)benzoic acid
Formula: C15H15NO2
Exact mass: 241.1103
SMILES: CC1=C(C)C(NC2=C(C=CC=C2)C(O)=O)=CC=C1
InChI: InChI=1S/C15H15NO2/c1-10-6-5-9-13(11(10)2)16-14-8-4-3-7-12(14)15(17)18/h3-9,16H,1-2H3,(H,17,18)
Instrument: Q Exactive Orbitrap (Thermo Scientific)
Instrument type: LC-ESI-QFT
Ms type: MS2
Ion mode: POSITIVE
Ionization: ESI
Fragmentation mode: HCD
Collision energy: 15
Resolution: 17500
Column name: Acquity BEH C18 1.7um, 2.1x150mm (Waters)
Retention time: 19.468 min
Base peak: 79.0211
Precursor m/z: 242.1176
Precursor type: [M+H]+
Precursor intensity: 1607482
m/z	relative intensity	assigned
95.0124	2	C5H3O2+
224.1071	999	C15H14NO+
242.1177	232	C15H16NO2+
