Mass spectrum: Fomesafen; LC-ESI-QFT; MS2; CE: 15; R=17500; [M-H]-
Name: Fomesafen
Name: 5-[2-chloro-4-(trifluoromethyl)phenoxy]-N-methylsulfonyl-2-nitrobenzamide
Formula: C15H10ClF3N2O6S
Exact mass: 437.9900
SMILES: CS(=O)(=O)NC(=O)C1=CC(OC2=CC=C(C=C2Cl)C(F)(F)F)=CC=C1[N+]([O-])=O
InChI: InChI=1S/C15H10ClF3N2O6S/c1-28(25,26)20-14(22)10-7-9(3-4-12(10)21(23)24)27-13-5-2-8(6-11(13)16)15(17,18)19/h2-7H,1H3,(H,20,22)
Instrument: Q Exactive Orbitrap (Thermo Scientific)
Instrument type: LC-ESI-QFT
Ms type: MS2
Ion mode: NEGATIVE
Ionization: ESI
Fragmentation mode: HCD
Collision energy: 15
Resolution: 17500
Column name: Acquity BEH C18 1.7um, 2.1x150mm (Waters)
Retention time: 17.863 min
Base peak: 227.999
Precursor m/z: 436.9827
Precursor type: [M-H]-
Precursor intensity: 21504812.19727
m/z	relative intensity	assigned
59.0138	18	C2H3O2-
72.0091	16	C2H2NO2-
75.9862	2	CH2NOS-
85.0295	5	C4H5O2-
101.0608	7	C5H9O2-
119.9761	28	C2H2NO3S-
122.0008	1	CH5F3OS-
315.9992	30	C13H6ClF3NO3-
436.9825	999	C15H9ClF3N2O6S-
