Mass spectrum: CP-114271; LC-ESI-QFT; MS2; CE: 30; R=17500; [M-H]-
Name: CP-114271
Name: 2-[4-[2-[[2-hydroxy-2-[2-(trifluoromethyl)-1,3-thiazol-4-yl]ethyl]amino]propyl]phenoxy]acetic acid
Formula: C17H19F3N2O4S
Exact mass: 404.1018
SMILES: CC(CC1=CC=C(OCC(O)=O)C=C1)NCC(O)C1=CSC(=N1)C(F)(F)F
InChI: InChI=1S/C17H19F3N2O4S/c1-10(6-11-2-4-12(5-3-11)26-8-15(24)25)21-7-14(23)13-9-27-16(22-13)17(18,19)20/h2-5,9-10,14,21,23H,6-8H2,1H3,(H,24,25)
Instrument: Q Exactive Orbitrap (Thermo Scientific)
Instrument type: LC-ESI-QFT
Ms type: MS2
Ion mode: NEGATIVE
Ionization: ESI
Fragmentation mode: HCD
Collision energy: 30
Resolution: 17500
Column name: Acquity BEH C18 1.7um, 2.1x150mm (Waters)
Retention time: 13.754 min
Base peak: 403.0945
Precursor m/z: 403.0945
Precursor type: [M-H]-
Precursor intensity: 11116906.89502
m/z	relative intensity	assigned
56.9804	26	C2HS-
58.0298	1	C2H4NO-
59.0139	1	C2H3O2-
68.9958	2	CF3-
84.0455	22	C4H6NO-
93.0346	1	C6H5O-
106.0425	2	C7H6O-
107.0502	19	C7H7O-
119.0502	1	C8H7O-
120.0582	1	C8H8O-
121.066	6	C8H9O-
127.9789	1	C2HF3NS-
133.0658	16	C9H9O-
135.0452	2	C8H7O2-
147.0818	3	C10H11O-
151.9787	559	C4HF3NS-
162.0924	2	C10H12NO-
174.0925	1	C11H12NO-
181.9894	14	C5H3F3NOS-
192.103	999	C11H14NO2-
195.9686	1	C5HF3NO2S-
206.1186	26	C12H16NO2-
345.0889	651	C15H16F3N2O2S-
403.0944	86	C17H18F3N2O4S-
