Mass spectrum: Spirotetramat; LC-ESI-QFT; MS2; CE: 45; R=17500; [M+H]+
Name: Spirotetramat
Formula: C21H27NO5
Exact mass: 373.1889
SMILES: CCOC(=O)OC1=C(C(=O)N[C@@]11CC[C@@H](CC1)OC)C1=C(C)C=CC(C)=C1
InChI: InChI=1S/C21H27NO5/c1-5-26-20(24)27-18-17(16-12-13(2)6-7-14(16)3)19(23)22-21(18)10-8-15(25-4)9-11-21/h6-7,12,15H,5,8-11H2,1-4H3,(H,22,23)/t15-,21+
Instrument: Q Exactive Orbitrap (Thermo Scientific)
Instrument type: LC-ESI-QFT
Ms type: MS2
Ion mode: POSITIVE
Ionization: ESI
Fragmentation mode: HCD
Collision energy: 45
Resolution: 17500
Column name: Acquity BEH C18 1.7um, 2.1x150mm (Waters)
Retention time: 17.784 min
Base peak: 79.0211
Precursor m/z: 374.1962
Precursor type: [M+H]+
Precursor intensity: 20500656.84375
m/z	relative intensity	assigned
55.0178	2	C3H3O+
55.0542	1	C4H7+
57.0698	2	C4H9+
67.0542	11	C5H7+
69.0333	2	C4H5O+
79.0542	6	C6H7+
81.0333	1	C5H5O+
81.0699	6	C6H9+
82.0651	1	C5H8N+
91.0542	15	C7H7+
93.0698	2	C7H9+
95.0491	2	C6H7O+
95.0854	1	C7H11+
96.0807	22	C6H10N+
105.0698	7	C8H9+
106.065	1	C7H8N+
107.0491	2	C7H7O+
107.0854	1	C8H11+
108.0809	2	C7H10N+
115.054	3	C9H7+
117.0698	65	C9H9+
119.0491	3	C8H7O+
119.0855	46	C9H11+
121.0648	1	C8H9O+
121.1011	1	C9H13+
124.0757	13	C7H10NO+
129.0698	6	C10H9+
130.0776	1	C10H10+
131.0855	12	C10H11+
133.0646	6	C9H9O+
133.1011	4	C10H13+
136.0758	15	C8H10NO+
141.07	1	C11H9+
142.078	1	C11H10+
142.0863	1	C7H12NO2+
143.0856	29	C11H11+
145.0647	22	C10H9O+
145.1011	71	C11H13+
146.0599	2	C9H8NO+
146.0727	1	C10H10O+
147.0803	13	C10H11O+
147.1168	19	C11H15+
155.0855	52	C12H11+
156.0933	2	C12H12+
157.0646	1	C11H9O+
157.1012	13	C12H13+
158.0726	4	C11H10O+
159.0804	8	C11H11O+
159.1169	6	C12H15+
160.1121	3	C11H14N+
161.0961	1	C11H13O+
164.0706	2	C9H10NO2+
165.0696	1	C13H9+
167.0854	3	C13H11+
168.093	1	C13H12+
169.1011	15	C13H13+
171.0806	8	C12H11O+
171.1168	13	C13H15+
172.112	3	C12H14N+
173.0597	92	C11H9O2+
173.096	38	C12H13O+
174.0917	1	C11H12NO+
175.1116	2	C12H15O+
179.0856	3	C14H11+
180.0934	1	C14H12+
181.1012	14	C14H13+
182.1089	8	C14H14+
183.0804	3	C13H11O+
183.1169	31	C14H15+
185.0962	2	C13H13O+
185.1322	2	C14H17+
186.0908	1	C12H12NO+
187.0755	2	C12H11O2+
187.1116	1	C13H15O+
188.1071	7	C12H14NO+
190.0863	5	C11H12NO2+
192.0936	7	C15H12+
193.1013	2	C15H13+
194.0563	3	C10H10O4+
194.1092	4	C15H14+
195.1171	5	C15H15+
196.0758	10	C13H10NO+
196.1246	5	C15H16+
197.0967	2	C14H13O+
197.1325	56	C15H17+
198.0911	2	C13H12NO+
199.0754	3	C13H11O2+
199.1118	2	C14H15O+
199.1479	4	C15H19+
200.107	6	C13H14NO+
200.1432	1	C14H18N+
201.08	1	C12H11NO2+
201.091	16	C13H13O2+
206.1089	1	C16H14+
207.1168	23	C16H15+
208.1247	1	C16H16+
209.1325	6	C16H17+
210.0911	1	C14H12NO+
210.1039	5	C15H14O+
211.0755	3	C14H11O2+
211.1113	1	C15H15O+
211.1482	3	C16H19+
214.0862	13	C13H12NO2+
214.159	11	C15H20N+
215.0942	2	C13H13NO2+
216.1018	999	C13H14NO2+
222.0873	1	C12H14O4+
224.1194	3	C16H16O+
224.1432	4	C16H18N+
225.1273	39	C16H17O+
225.1635	6	C17H21+
227.1428	2	C16H19O+
228.1017	10	C14H14NO2+
228.1377	2	C15H18NO+
229.1095	1	C14H15NO2+
234.1277	1	C17H16N+
235.1116	3	C17H15O+
235.1483	2	C18H19+
237.1145	2	C16H15NO+
242.0813	1	C14H12NO3+
242.1173	1	C15H16NO2+
242.1537	11	C16H20NO+
242.1907	2	C17H24N+
244.1332	293	C15H18NO2+
251.1304	1	C17H17NO+
252.1382	14	C17H18NO+
253.1222	42	C17H17O2+
253.1581	5	C18H21O+
254.1178	1	C16H16NO2+
256.1329	2	C16H18NO2+
268.1332	4	C17H18NO2+
269.1404	2	C17H19NO2+
270.1487	370	C17H20NO2+
280.1696	1	C19H22NO+
281.1521	2	C19H21O2+
286.144	7	C17H20NO3+
298.1801	56	C19H24NO2+
302.1751	79	C18H24NO3+
330.2064	8	C20H28NO3+
