Mass spectrum: Boscalid; LC-ESI-QFT; MS2; CE: 15; R=17500; [M-H]-
Name: Boscalid
Name: 2-chloro-N-[2-(4-chlorophenyl)phenyl]pyridine-3-carboxamide
Formula: C18H12Cl2N2O
Exact mass: 342.0327
SMILES: ClC1=CC=C(C=C1)C1=C(NC(=O)C2=C(Cl)N=CC=C2)C=CC=C1
InChI: InChI=1S/C18H12Cl2N2O/c19-13-9-7-12(8-10-13)14-4-1-2-6-16(14)22-18(23)15-5-3-11-21-17(15)20/h1-11H,(H,22,23)
Instrument: Q Exactive Orbitrap (Thermo Scientific)
Instrument type: LC-ESI-QFT
Ms type: MS2
Ion mode: NEGATIVE
Ionization: ESI
Fragmentation mode: HCD
Collision energy: 15
Resolution: 17500
Column name: Acquity BEH C18 1.7um, 2.1x150mm (Waters)
Retention time: 17.348 min
Base peak: 112.9856
Precursor m/z: 341.0254
Precursor type: [M-H]-
Precursor intensity: 11013463.44043
m/z	relative intensity	assigned
111.996	314	C5H3ClN-
155.9858	12	C3H6Cl2N2O-
202.0431	1	C12H9ClN-
228.0222	25	C13H7ClNO-
341.0252	999	C18H11Cl2N2O-
