Mass spectrum: Leucomalachite green; LC-ESI-QFT; MS2; CE: 15; R=17500; [M+H]+
Name: Leucomalachite green
Name: 4-[[4-(dimethylamino)phenyl]-phenylmethyl]-N,N-dimethylaniline
Formula: C23H26N2
Exact mass: 330.2096
SMILES: CN(C)C1=CC=C(C=C1)C(C1=CC=CC=C1)C1=CC=C(C=C1)N(C)C
InChI: InChI=1S/C23H26N2/c1-24(2)21-14-10-19(11-15-21)23(18-8-6-5-7-9-18)20-12-16-22(17-13-20)25(3)4/h5-17,23H,1-4H3
Instrument: Q Exactive Orbitrap (Thermo Scientific)
Instrument type: LC-ESI-QFT
Ms type: MS2
Ion mode: POSITIVE
Ionization: ESI
Fragmentation mode: HCD
Collision energy: 15
Resolution: 17500
Column name: Acquity BEH C18 1.7um, 2.1x150mm (Waters)
Retention time: 16.907 min
Base peak: 79.0211
Precursor m/z: 331.2169
Precursor type: [M+H]+
Precursor intensity: 35965201.71875
m/z	relative intensity	assigned
239.1534	4	C16H19N2+
315.1855	1	C22H23N2+
316.1931	6	C22H24N2+
331.2161	999	C23H27N2+
