Mass spectrum: Leflunomide; LC-ESI-QFT; MS2; CE: 30; R=17500; [M-H]-
Name: Leflunomide
Name: 5-methyl-N-[4-(trifluoromethyl)phenyl]-1,2-oxazole-4-carboxamide
Formula: C12H9F3N2O2
Exact mass: 270.0616
SMILES: CC1=C(C=NO1)C(=O)NC1=CC=C(C=C1)C(F)(F)F
InChI: InChI=1S/C12H9F3N2O2/c1-7-10(6-16-19-7)11(18)17-9-4-2-8(3-5-9)12(13,14)15/h2-6H,1H3,(H,17,18)
Instrument: Q Exactive Orbitrap (Thermo Scientific)
Instrument type: LC-ESI-QFT
Ms type: MS2
Ion mode: NEGATIVE
Ionization: ESI
Fragmentation mode: HCD
Collision energy: 30
Resolution: 17500
Column name: Acquity BEH C18 1.7um, 2.1x150mm (Waters)
Retention time: 17.631 min
Base peak: 269.0544
Precursor m/z: 269.0543
Precursor type: [M-H]-
Precursor intensity: 151415194.707
m/z	relative intensity	assigned
64.0193	1	C4H2N-
65.9985	36	C3NO-
82.0298	999	C4H4NO-
107.025	1	C5H3N2O-
108.009	1	C5H2NO2-
160.0379	179	C7H5F3N-
227.0437	1	C10H6F3N2O-
269.0544	126	C12H8F3N2O2-
