Mass spectrum: Etofenprox; LC-ESI-QFT; MS2; CE: 15; R=17500; [M+H]+
Name: Etofenprox
Name: 1-ethoxy-4-[2-methyl-1-[(3-phenoxyphenyl)methoxy]propan-2-yl]benzene
Formula: C25H28O3
Exact mass: 376.2038
SMILES: CCOC1=CC=C(C=C1)C(C)(C)COCC1=CC(OC2=CC=CC=C2)=CC=C1
InChI: InChI=1S/C25H28O3/c1-4-27-22-15-13-21(14-16-22)25(2,3)19-26-18-20-9-8-12-24(17-20)28-23-10-6-5-7-11-23/h5-17H,4,18-19H2,1-3H3
Instrument: Q Exactive Orbitrap (Thermo Scientific)
Instrument type: LC-ESI-QFT
Ms type: MS2
Ion mode: POSITIVE
Ionization: ESI
Fragmentation mode: HCD
Collision energy: 15
Resolution: 17500
Column name: Acquity BEH C18 1.7um, 2.1x150mm (Waters)
Retention time: 16.967 min
Base peak: 79.0212
Precursor m/z: 377.2111
Precursor type: [M+H]+
Precursor intensity: 7246455.5
m/z	relative intensity	assigned
85.0649	38	C5H9O+
95.0855	31	C7H11+
99.0805	15	C6H11O+
101.0598	23	C5H9O2+
107.0857	9	C8H11+
109.0649	41	C7H9O+
111.0804	8	C7H11O+
119.0858	7	C9H11+
121.0649	18	C8H9O+
123.0804	33	C8H11O+
125.0599	37	C7H9O2+
135.0804	112	C9H11O+
137.0965	19	C9H13O+
139.0754	32	C8H11O2+
145.1012	31	C11H13+
147.0807	12	C10H11O+
149.0961	34	C10H13O+
151.0757	8	C9H11O2+
161.0962	112	C11H13O+
163.0753	7	C10H11O2+
163.1117	8	C11H15O+
165.0911	152	C10H13O2+
171.117	11	C13H15+
173.0961	34	C12H13O+
175.1118	34	C12H15O+
177.0912	32	C11H13O2+
179.0872	8	C14H11+
185.0963	56	C13H13O+
187.1118	34	C13H15O+
189.1276	16	C13H17O+
193.1027	13	C15H13+
197.0961	7	C14H13O+
199.1119	18	C14H15O+
201.0911	20	C13H13O2+
211.1117	11	C15H15O+
213.1275	25	C15H17O+
217.1221	30	C14H17O2+
223.1115	12	C16H15O+
225.1274	13	C16H17O+
227.1065	9	C15H15O2+
229.1224	41	C15H17O2+
231.138	18	C15H19O2+
233.1338	20	C18H17+
237.1276	96	C17H17O+
239.1434	23	C17H19O+
249.1272	38	C18H17O+
251.1432	226	C18H19O+
253.1589	22	C18H21O+
263.1433	15	C19H19O+
267.1382	40	C18H19O2+
269.1539	53	C18H21O2+
277.1592	44	C20H21O+
278.1669	17	C20H22O+
279.1746	995	C20H23O+
281.1536	14	C19H21O2+
293.1897	60	C21H25O+
295.1693	57	C20H23O2+
297.1476	10	C19H21O3+
297.1851	176	C20H25O2+
303.1746	220	C22H23O+
311.2012	71	C21H27O2+
321.1853	885	C22H25O2+
339.1959	999	C22H27O3+
