Mass spectrum: Flutriafol; LC-ESI-QFT; MS2; CE: 75; R=17500; [M+H]+
Name: Flutriafol
Name: 1-(2-fluorophenyl)-1-(4-fluorophenyl)-2-(1,2,4-triazol-1-yl)ethanol
Formula: C16H13F2N3O
Exact mass: 301.1027
SMILES: OC(CN1C=NC=N1)(C1=CC=C(F)C=C1)C1=C(F)C=CC=C1
InChI: InChI=1S/C16H13F2N3O/c17-13-7-5-12(6-8-13)16(22,9-21-11-19-10-20-21)14-3-1-2-4-15(14)18/h1-8,10-11,22H,9H2
Instrument: Q Exactive Orbitrap (Thermo Scientific)
Instrument type: LC-ESI-QFT
Ms type: MS2
Ion mode: POSITIVE
Ionization: ESI
Fragmentation mode: HCD
Collision energy: 75
Resolution: 17500
Column name: Acquity BEH C18 1.7um, 2.1x150mm (Waters)
Retention time: 16.275 min
Base peak: 79.0211
Precursor m/z: 302.1099
Precursor type: [M+H]+
Precursor intensity: 6451922.5
m/z	relative intensity	assigned
70.0399	999	C2H4N3+
71.0292	9	C4H4F+
75.0229	5	C6H3+
79.0178	2	C5H3O+
83.0291	7	C5H4F+
91.0544	2	C7H7+
93.0335	1	C6H5O+
99.024	1	C5H4FO+
109.0448	194	C7H6F+
111.044	2	C4H5N3O+
113.0397	47	C6H6FO+
123.0241	352	C7H4FO+
123.035	96	C6H4FN2+
124.0321	1	C7H5FO+
165.0699	8	C13H9+
175.0542	1	C14H7+
183.0603	2	C8H7F2N3+
193.0649	3	C14H9O+
194.0527	8	C14H7F+
195.0604	5	C14H8F+
203.0603	2	C14H7N2+
214.0587	8	C14H8F2+
215.0671	1	C14H9F2+
