Mass spectrum: Tribenzylamine; LC-ESI-QFT; MS2; CE: 30; R=17500; [M+H]+
Name: Tribenzylamine
Name: N,N-dibenzyl-1-phenylmethanamine
Formula: C21H21N
Exact mass: 287.1674
SMILES: C(N(CC1=CC=CC=C1)CC1=CC=CC=C1)C1=CC=CC=C1
InChI: InChI=1S/C21H21N/c1-4-10-19(11-5-1)16-22(17-20-12-6-2-7-13-20)18-21-14-8-3-9-15-21/h1-15H,16-18H2
Instrument: Q Exactive Orbitrap (Thermo Scientific)
Instrument type: LC-ESI-QFT
Ms type: MS2
Ion mode: POSITIVE
Ionization: ESI
Fragmentation mode: HCD
Collision energy: 30
Resolution: 17500
Column name: Acquity BEH C18 1.7um, 2.1x150mm (Waters)
Retention time: 15.466 min
Base peak: 79.0211
Precursor m/z: 288.1747
Precursor type: [M+H]+
Precursor intensity: 62035081.125
m/z	relative intensity	assigned
65.0385	3	C5H5+
91.0542	999	C7H7+
106.065	6	C7H8N+
108.0807	1	C7H10N+
120.0808	85	C8H10N+
166.0777	5	C13H10+
179.0855	5	C14H11+
181.1011	290	C14H13+
196.112	194	C14H14N+
210.1272	1	C15H16N+
271.1484	2	C21H19+
288.1746	256	C21H22N+
