Mass spectrum: Ethiofencarb; LC-ESI-QFT; MS2; CE: 75; R=17500; [M+H]+
Name: Ethiofencarb
Name: [2-(ethylsulfanylmethyl)phenyl] N-methylcarbamate
Formula: C11H15NO2S
Exact mass: 225.0823
SMILES: CCSCC1=C(OC(=O)NC)C=CC=C1
InChI: InChI=1S/C11H15NO2S/c1-3-15-8-9-6-4-5-7-10(9)14-11(13)12-2/h4-7H,3,8H2,1-2H3,(H,12,13)
Instrument: Q Exactive Orbitrap (Thermo Scientific)
Instrument type: LC-ESI-QFT
Ms type: MS2
Ion mode: POSITIVE
Ionization: ESI
Fragmentation mode: HCD
Collision energy: 75
Resolution: 17500
Column name: Acquity BEH C18 1.7um, 2.1x150mm (Waters)
Retention time: 15.974 min
Base peak: 79.0212
Precursor m/z: 226.0896
Precursor type: [M+H]+
Precursor intensity: 2189163.25
m/z	relative intensity	assigned
57.0698	64	C4H9+
58.0287	97	C2H4NO+
65.0385	45	C5H5+
79.0211	92	C2H7OS+
91.0542	165	C7H7+
92.0493	42	C6H6N+
93.0573	104	C6H7N+
95.0493	41	C6H7O+
96.0556	167	C6H8O+
99.0664	118	C5H9NO+
100.0505	999	C5H8O2+
106.065	45	C7H8N+
107.0492	34	C7H7O+
108.0806	50	C7H10N+
110.0714	33	C7H10O+
114.0662	215	C6H10O2+
120.0017	51	C7H4S+
120.0555	79	C8H8O+
120.0809	37	C8H10N+
128.0819	98	C7H12O2+
134.0963	34	C9H12N+
138.0124	379	C7H6OS+
152.028	96	C8H8OS+
156.0229	351	C7H8O2S+
170.0389	79	C8H10O2S+
