Mass spectrum: Forchlorfenuron; LC-ESI-QFT; MS2; CE: 45; R=17500; [M-H]-
Name: Forchlorfenuron
Name: 1-(2-chloropyridin-4-yl)-3-phenylurea
Formula: C12H10ClN3O
Exact mass: 247.0512
SMILES: ClC1=NC=CC(NC(=O)NC2=CC=CC=C2)=C1
InChI: InChI=1S/C12H10ClN3O/c13-11-8-10(6-7-14-11)16-12(17)15-9-4-2-1-3-5-9/h1-8H,(H2,14,15,16,17)
Instrument: Q Exactive Orbitrap (Thermo Scientific)
Instrument type: LC-ESI-QFT
Ms type: MS2
Ion mode: NEGATIVE
Ionization: ESI
Fragmentation mode: HCD
Collision energy: 45
Resolution: 17500
Column name: Acquity BEH C18 1.7um, 2.1x150mm (Waters)
Retention time: 16.693 min
Base peak: 127.0068
Precursor m/z: 246.044
Precursor type: [M-H]-
Precursor intensity: 33462888.54687
m/z	relative intensity	assigned
91.0302	159	C5H3N2-
92.0506	15	C6H6N-
127.0068	999	C5H4ClN2-
