Mass spectrum: Phenethyl anthranilate; LC-ESI-QFT; MS2; CE: 90; R=17500; [M+H]+
Name: Phenethyl anthranilate
Name: 2-phenylethyl 2-aminobenzoate
Formula: C15H15NO2
Exact mass: 241.1103
SMILES: NC1=CC=CC=C1C(=O)OCCC1=CC=CC=C1
InChI: InChI=1S/C15H15NO2/c16-14-9-5-4-8-13(14)15(17)18-11-10-12-6-2-1-3-7-12/h1-9H,10-11,16H2
Instrument: Q Exactive Orbitrap (Thermo Scientific)
Instrument type: LC-ESI-QFT
Ms type: MS2
Ion mode: POSITIVE
Ionization: ESI
Fragmentation mode: HCD
Collision energy: 90
Resolution: 17500
Column name: Acquity BEH C18 1.7um, 2.1x150mm (Waters)
Retention time: 18.603 min
Base peak: 79.0211
Precursor m/z: 242.1176
Precursor type: [M+H]+
Precursor intensity: 13691852.65625
m/z	relative intensity	assigned
51.023	23	C4H3+
53.0023	14	C3HO+
53.0386	117	C4H5+
57.0699	133	C4H9+
58.0652	610	C3H8N+
65.0386	91	C5H5+
72.0807	21	C4H10N+
74.0964	11	C4H12N+
77.0386	46	C6H5+
79.0543	695	C6H7+
80.0495	7	C5H6N+
81.0336	9	C5H5O+
86.0965	8	C5H12N+
91.0543	315	C7H7+
92.0495	129	C6H6N+
94.0414	18	C6H6O+
95.0492	336	C6H7O+
100.1121	710	C6H14N+
103.0543	454	C8H7+
104.0495	48	C7H6N+
105.07	999	C8H9+
106.0653	9	C7H8N+
118.0652	53	C8H8N+
120.0445	48	C7H6NO+
128.0495	65	C9H6N+
132.0445	11	C8H6NO+
133.0527	8	C8H7NO+
146.06	18	C9H8NO+
178.0778	61	C14H10+
180.0808	11	C13H10N+
204.0806	23	C15H10N+
205.0882	7	C15H11N+
206.0967	114	C15H12N+
