Mass spectrum: 3-Trifluoromethyl-4-nitrophenol; LC-ESI-QFT; MS2; CE: 75; R=17500; [M-H]-
Name: 3-Trifluoromethyl-4-nitrophenol
Name: 4-nitro-3-(trifluoromethyl)phenol
Formula: C7H4F3NO3
Exact mass: 207.0143
SMILES: OC1=CC(=C(C=C1)[N+]([O-])=O)C(F)(F)F
InChI: InChI=1S/C7H4F3NO3/c8-7(9,10)5-3-4(12)1-2-6(5)11(13)14/h1-3,12H
Instrument: Q Exactive Orbitrap (Thermo Scientific)
Instrument type: LC-ESI-QFT
Ms type: MS2
Ion mode: NEGATIVE
Ionization: ESI
Fragmentation mode: HCD
Collision energy: 75
Resolution: 17500
Column name: Acquity BEH C18 1.7um, 2.1x150mm (Waters)
Retention time: 16.517 min
Base peak: 206.0068
Precursor m/z: 206.0071
Precursor type: [M-H]-
Precursor intensity: 142325014.5566
m/z	relative intensity	assigned
50.0035	23	C3N-
52.0192	5	C3H2N-
62.0036	3	C4N-
63.9955	40	C4O-
64.0194	3	C4H2N-
65.0033	14	C4HO-
65.9986	42	C3NO-
66.999	4	C4F-
68.9958	7	CF3-
68.9982	5	C3HO2-
70.0099	4	C3HFN-
70.9939	42	C3FO-
74.0037	65	C5N-
75.0052	4	C3HF2-
76.0193	2	C5H2N-
77.9922	2	C2F2O-
79.9905	12	C4O2-
80.0068	41	C5HF-
82.0061	4	C4H2O2-
82.9939	3	C4FO-
84.0017	27	C4HFO-
84.9971	2	C3FNO-
86.9888	9	C3FO2-
87.0052	25	C4HF2-
87.9955	37	C6O-
89.0033	18	C6HO-
89.9985	8	C5NO-
91.0002	9	C3HF2O-
92.0139	1	C5H2NO-
92.9957	5	C3F3-
92.9984	4	C5HO2-
94.0061	6	C5H2O2-
94.0097	3	C5HFN-
94.9939	12	C5FO-
95.0139	26	C5H3O2-
96.0016	9	C5HFO-
98.0009	8	C4H2O3-
98.0176	2	C5H3FO-
99.0051	5	C5HF2-
100.0132	9	C5H2F2-
101.9923	5	C4F2O-
103.0001	17	C4HF2O-
103.9905	6	C6O2-
106.0061	7	C6H2O2-
108.0018	143	C6HFO-
108.9907	17	C3F3O-
109.0095	16	C6H2FO-
110.9888	20	C5FO2-
111.0052	7	C6HF2-
111.9965	4	C5HFO2-
112.0131	30	C6H2F2-
115.0002	9	C5HF2O-
116.0079	3	C5H2F2O-
117.9872	1	C4F2O2-
120.0017	40	C7HFO-
120.0093	3	C6H2NO2-
123.009	10	C6H3O3-
123.9966	36	C6HFO2-
126.0123	34	C6H3FO2-
127.0001	9	C6HF2O-
128.008	193	C6H2F2O-
130.9949	4	C5HF2O2-
135.9967	5	C7HFO2-
137.9935	12	C4HF3O2-
140.0081	82	C7H2F2O-
142.9951	7	C6HF2O2-
144.0029	35	C6H2F2O2-
145.9822	5	C5F2O3-
148.0143	11	C6H3F3O-
151.992	5	C7HFO3-
156.003	32	C7H2F2O2-
159.0064	8	C7H2F3O-
160.0143	350	C7H3F3O-
163.0014	100	C6H2F3O2-
165.9884	5	C5HF3O3-
171.9978	3	C7H2F2O3-
176.0092	999	C7H3F3O2-
190.9965	7	C7H2F3O3-
206.0073	91	C7H3F3NO3-
