Mass spectrum: PharmaGSID_48505; LC-ESI-QFT; MS2; CE: 90; R=17500; [M+H]+
Name: PharmaGSID_48505
Name: 5-(2-chlorophenyl)-3-methyl-7-nitro-1,2-dihydropyrazolo[3,4-b][1,4]benzodiazepine
Formula: C17H12ClN5O2
Exact mass: 353.0680
SMILES: CC1=C2N=C(C3=CC=CC=C3Cl)C3=C(NC2=NN1)C=CC(=C3)[N+]([O-])=O
InChI: InChI=1S/C17H12ClN5O2/c1-9-15-17(22-21-9)19-14-7-6-10(23(24)25)8-12(14)16(20-15)11-4-2-3-5-13(11)18/h2-8H,1H3,(H2,19,21,22)
Instrument: Q Exactive Orbitrap (Thermo Scientific)
Instrument type: LC-ESI-QFT
Ms type: MS2
Ion mode: POSITIVE
Ionization: ESI
Fragmentation mode: HCD
Collision energy: 90
Resolution: 17500
Column name: Acquity BEH C18 1.7um, 2.1x150mm (Waters)
Retention time: 17.626 min
Base peak: 79.0212
Precursor m/z: 354.0752
Precursor type: [M+H]+
Precursor intensity: 5420239.375
m/z	relative intensity	assigned
55.0291	14	C2H3N2+
69.0448	15	C3H5N2+
70.0524	4	C3H6N2+
90.0339	6	C6H4N+
90.0466	7	C7H6+
91.0418	24	C6H5N+
95.0492	14	C6H7O+
103.0417	17	C7H5N+
104.0496	14	C7H6N+
105.0449	8	C6H5N2+
115.0418	18	C8H5N+
115.0542	30	C9H7+
116.0495	10	C8H6N+
117.0572	10	C8H7N+
118.0529	10	C7H6N2+
123.0242	15	C10H3+
125.0155	15	C7H6Cl+
128.0372	21	C8H4N2+
128.0496	15	C9H6N+
129.0448	57	C8H5N2+
130.0523	5	C8H6N2+
132.057	7	C9H8O+
139.0543	43	C11H7+
140.0496	83	C10H6N+
141.0449	20	C9H5N2+
141.0575	13	C10H7N+
142.0526	77	C9H6N2+
142.0655	8	C10H8N+
143.0481	7	C8H5N3+
143.0605	24	C9H7N2+
152.0371	23	C10H4N2+
152.0621	77	C12H8+
153.0702	20	C12H9+
154.0403	16	C11H6O+
154.0656	9	C11H8N+
155.0604	23	C10H7N2+
156.0559	22	C9H6N3+
157.0637	10	C9H7N3+
163.0543	210	C13H7+
164.0494	24	C12H6N+
165.07	35	C13H9+
166.0653	95	C12H8N+
167.0491	12	C12H7O+
167.0606	14	C11H7N2+
167.0732	18	C12H9N+
168.056	93	C10H6N3+
168.0687	9	C11H8N2+
169.0649	346	C12H9O+
170.0602	23	C11H8NO+
170.0717	14	C10H8N3+
171.0555	41	C10H7N2O+
174.0233	21	C11H7Cl+
176.0624	30	C14H8+
177.0575	457	C13H7N+
178.0653	381	C13H8N+
179.0606	132	C12H7N2+
179.0732	75	C13H9N+
180.0446	46	C12H6NO+
180.0553	8	C11H6N3+
180.0808	14	C13H10N+
185.071	8	C11H9N2O+
186.0233	104	C12H7Cl+
188.0494	24	C14H6N+
189.0699	16	C15H9+
190.0652	168	C14H8N+
191.0608	20	C13H7N2+
191.073	31	C14H9N+
192.0683	57	C13H8N2+
192.0795	8	C14H10N+
193.0531	24	C10H10ClN2+
193.075	20	C13H9N2+
194.0602	275	C13H8NO+
195.0667	156	C11H7N4+
196.051	18	C8H9ClN4+
196.0757	61	C13H10NO+
198.0232	47	C13H7Cl+
199.0309	43	C13H8Cl+
200.0266	17	C12H7ClN+
200.0621	6	C10H13ClO2+
201.0345	7	C12H8ClN+
201.0576	48	C9H12ClNO2+
202.0182	77	C12H7ClO+
202.0528	64	C14H6N2+
202.0653	40	C15H8N+
203.0607	285	C14H7N2+
203.0729	56	C15H9N+
204.0561	129	C13H6N3+
204.0685	340	C14H8N2+
204.0803	29	C15H10N+
205.0762	891	C14H9N2+
206.0843	5	C14H10N2+
207.068	12	C14H9NO+
211.0185	18	C13H6ClN+
212.0264	63	C13H7ClN+
213.0342	180	C13H8ClN+
214.0417	29	C13H9ClN+
215.0601	37	C15H7N2+
215.0723	14	C8H12ClN4O+
216.0685	56	C9H13ClN2O2+
216.0812	46	C16H10N+
217.0637	23	C14H7N3+
217.0762	49	C15H9N2+
217.089	40	C16H11N+
218.0841	51	C15H10N2+
218.0956	8	C16H12N+
219.0555	32	C14H7N2O+
219.0799	13	C16H11O+
219.0917	80	C15H11N2+
220.0643	8	C11H11ClN3+
220.0872	9	C14H10N3+
221.071	187	C14H9N2O+
224.0265	108	C14H7ClN+
225.0339	5	C14H8ClN+
227.0607	9	C16H7N2+
227.0733	18	C17H9N+
228.0812	12	C17H10N+
229.0762	125	C16H9N2+
230.013	34	C13H7ClO2+
230.0371	10	C13H9ClNO+
230.0716	174	C15H8N3+
230.0836	10	C16H10N2+
231.0793	39	C15H9N3+
231.0925	15	C16H11N2+
232.0871	11	C15H10N3+
235.0632	10	C12H12ClN2O+
235.0871	15	C15H11N2O+
237.0218	30	C14H6ClN2+
238.0296	41	C14H7ClN2+
238.0425	17	C15H9ClN+
239.0372	999	C14H8ClN2+
241.0533	8	C14H10ClN2+
242.0838	72	C17H10N2+
243.0918	152	C17H11N2+
244.0871	28	C16H10N3+
244.0998	18	C17H12N2+
245.0252	5	C13H8ClNO2+
245.0709	17	C16H9N2O+
245.0952	10	C16H11N3+
245.1082	4	C17H13N2+
246.1031	15	C16H12N3+
249.0214	12	C15H6ClN2+
251.0376	21	C15H8ClN2+
251.0506	8	C16H10ClN+
252.0453	20	C15H9ClN2+
252.0581	7	C16H11ClN+
253.0529	211	C15H10ClN2+
254.0368	19	C15H9ClNO+
254.0716	72	C17H8N3+
255.0321	137	C14H8ClN2O+
255.0792	18	C17H9N3+
256.0871	41	C17H10N3+
257.0822	32	C16H9N4+
257.0951	9	C17H11N3+
258.0905	29	C16H10N4+
259.0981	13	C16H11N4+
260.1062	18	C16H12N4+
261.1137	5	C16H13N4+
262.0429	10	C17H9ClN+
263.0372	98	C16H8ClN2+
264.0325	63	C15H7ClN3+
264.0477	6	C16H9ClN2+
265.0527	8	C16H10ClN2+
266.0481	20	C15H9ClN3+
269.0479	9	C15H10ClN2O+
270.0194	10	C14H7ClN2O2+
271.0979	69	C17H11N4+
272.1058	57	C17H12N4+
273.1149	7	C17H13N4+
276.1001	5	C16H12N4O+
277.053	34	C17H10ClN2+
278.0475	6	C16H9ClN3+
279.0688	30	C17H12ClN2+
280.0636	45	C16H11ClN3+
290.0482	45	C17H9ClN3+
292.0509	23	C16H9ClN4+
305.0596	5	C17H10ClN4+
306.0668	13	C17H11ClN4+
307.0742	21	C17H12ClN4+
