Mass spectrum: Pirimicarb; LC-ESI-QFT; MS2; CE: 45; R=17500; [M+H]+
Name: Pirimicarb
Name: [2-(dimethylamino)-5,6-dimethylpyrimidin-4-yl] N,N-dimethylcarbamate
Formula: C11H18N4O2
Exact mass: 238.1430
SMILES: CN(C)C(=O)OC1=C(C)C(C)=NC(=N1)N(C)C
InChI: InChI=1S/C11H18N4O2/c1-7-8(2)12-10(14(3)4)13-9(7)17-11(16)15(5)6/h1-6H3
Instrument: Q Exactive Orbitrap (Thermo Scientific)
Instrument type: LC-ESI-QFT
Ms type: MS2
Ion mode: POSITIVE
Ionization: ESI
Fragmentation mode: HCD
Collision energy: 45
Resolution: 17500
Column name: Acquity BEH C18 1.7um, 2.1x150mm (Waters)
Retention time: 12.666 min
Base peak: 79.0211
Precursor m/z: 239.1503
Precursor type: [M+H]+
Precursor intensity: 43744580.9375
m/z	relative intensity	assigned
56.0131	3	C2H2NO+
72.0443	999	C3H6NO+
83.024	2	C3H3N2O+
85.076	46	C4H9N2+
109.076	9	C6H9N2+
137.071	37	C7H9N2O+
138.0787	4	C7H10N2O+
150.1026	19	C8H12N3+
152.0816	1	C7H10N3O+
166.0975	1	C8H12N3O+
167.1053	10	C8H13N3O+
168.113	1	C8H14N3O+
182.1288	343	C9H16N3O+
195.1604	15	C10H19N4+
239.1501	7	C11H19N4O2+
