Mass spectrum: Methylprednisolone; LC-ESI-QFT; MS2; CE: 45; R=17500; [M+H]+
Name: Methylprednisolone
Formula: C22H30O5
Exact mass: 374.2093
SMILES: C[C@H]1C[C@H]2[C@@H]3CC[C@](O)(C(=O)CO)[C@@]3(C)C[C@H](O)[C@@H]2[C@@]2(C)C=CC(=O)C=C12
InChI: InChI=1S/C22H30O5/c1-12-8-14-15-5-7-22(27,18(26)11-23)21(15,3)10-17(25)19(14)20(2)6-4-13(24)9-16(12)20/h4,6,9,12,14-15,17,19,23,25,27H,5,7-8,10-11H2,1-3H3/t12-,14-,15-,17-,19+,20-,21-,22-/m0/s1
Instrument: Q Exactive Orbitrap (Thermo Scientific)
Instrument type: LC-ESI-QFT
Ms type: MS2
Ion mode: POSITIVE
Ionization: ESI
Fragmentation mode: HCD
Collision energy: 45
Resolution: 17500
Column name: Acquity BEH C18 1.7um, 2.1x150mm (Waters)
Retention time: 16.827 min
Base peak: 79.0211
Precursor m/z: 375.2166
Precursor type: [M+H]+
Precursor intensity: 6266834.625
m/z	relative intensity	assigned
55.0543	51	C4H7+
67.0541	36	C5H7+
79.0542	41	C6H7+
81.0698	65	C6H9+
83.0491	39	C5H7O+
91.0542	61	C7H7+
93.07	115	C7H9+
95.0855	55	C7H11+
97.0649	36	C6H9O+
99.0438	24	C5H7O2+
105.07	142	C8H9+
107.0856	153	C8H11+
109.1011	60	C8H13+
117.07	38	C9H9+
119.0857	107	C9H11+
121.0649	444	C8H9O+
123.0804	32	C8H11O+
129.0701	29	C10H9+
131.0854	98	C10H11+
133.0649	28	C9H9O+
133.1012	97	C10H13+
135.0805	640	C9H11O+
137.0962	25	C9H13O+
143.0852	68	C11H11+
145.0647	72	C10H9O+
145.1012	129	C11H13+
146.0726	37	C10H10O+
147.0805	139	C10H11O+
149.096	82	C10H13O+
157.1012	49	C12H13+
158.0728	45	C11H10O+
159.0803	231	C11H11O+
161.0961	999	C11H13O+
165.0695	24	C13H9+
171.0805	61	C12H11O+
173.0961	247	C12H13O+
175.1115	81	C12H15O+
177.0912	65	C11H13O2+
181.1009	25	C14H13+
185.0962	631	C13H13O+
187.1118	359	C13H15O+
189.0912	68	C12H13O2+
193.1013	27	C15H13+
195.0806	48	C14H11O+
196.0892	32	C14H12O+
197.0965	41	C14H13O+
199.1117	124	C14H15O+
201.1277	41	C14H17O+
207.1169	28	C16H15+
208.088	44	C15H12O+
209.0961	127	C15H13O+
210.1042	69	C15H14O+
211.1118	500	C15H15O+
213.1277	123	C15H17O+
222.1038	92	C16H14O+
223.1119	152	C16H15O+
224.1199	77	C16H16O+
225.1271	103	C16H17O+
227.1429	37	C16H19O+
235.1116	69	C17H15O+
236.1196	95	C17H16O+
237.1275	197	C17H17O+
238.135	108	C17H18O+
239.1428	75	C17H19O+
247.1113	27	C18H15O+
249.127	69	C18H17O+
250.1351	38	C18H18O+
251.1434	170	C18H19O+
253.1589	250	C18H21O+
261.1269	50	C19H17O+
263.1433	54	C19H19O+
265.1585	126	C19H21O+
267.1366	25	C18H19O2+
273.1266	31	C20H17O+
277.1591	33	C20H21O+
279.1364	24	C19H19O2+
279.1742	90	C20H23O+
280.1825	143	C20H24O+
288.1518	44	C21H20O+
303.1743	38	C22H23O+
309.1829	22	C21H25O2+
