Mass spectrum: Aplaviroc; LC-ESI-QFT; MS2; CE: 15; R=17500; [M+H]+
Name: Aplaviroc
Name: 4-[4-[[(3R)-1-butyl-3-[(R)-cyclohexyl(hydroxy)methyl]-2,5-dioxo-1,4,9-triazaspiro[5.5]undecan-9-yl]methyl]phenoxy]benzoic acid
Formula: C33H43N3O6
Exact mass: 577.3152
SMILES: CCCCN1C(=O)[C@@H]([C@H](O)C2CCCCC2)NC(=O)C12CCN(Cc1ccc(Oc3ccc(C(=O)O)cc3)cc1)CC2
InChI: InChI=1S/C33H43N3O6/c1-2-3-19-36-30(38)28(29(37)24-7-5-4-6-8-24)34-32(41)33(36)17-20-35(21-18-33)22-23-9-13-26(14-10-23)42-27-15-11-25(12-16-27)31(39)40/h9-16,24,28-29,37H,2-8,17-22H2,1H3,(H,34,41)(H,39,40)/t28-,29-/m1/s1
Instrument: Q Exactive Orbitrap (Thermo Scientific)
Instrument type: LC-ESI-QFT
Ms type: MS2
Ion mode: POSITIVE
Ionization: ESI
Fragmentation mode: HCD
Collision energy: 15
Resolution: 17500
Column name: Acquity BEH C18 1.7um, 2.1x150mm (Waters)
Retention time: 16.012 min
Base peak: 79.0212
Precursor m/z: 578.3225
Precursor type: [M+H]+
Precursor intensity: 5545185.125
m/z	relative intensity	assigned
227.0703	259	C14H11O3+
295.2015	10	C16H27N2O3+
350.2439	12	C19H32N3O3+
466.234	14	C26H32N3O5+
578.3227	999	C33H44N3O6+
