Mass spectrum: Flurandrenolide; LC-ESI-QFT; MS2; CE: 75; R=17500; [M+H]+
Name: Flurandrenolide
Name: (1S,2S,4R,8S,9S,11S,12S,13R,19S)-19-fluoro-11-hydroxy-8-(2-hydroxyacetyl)-6,6,9,13-tetramethyl-5,7-dioxapentacyclo[10.8.0.02,9.04,8.013,18]icos-17-en-16-one
Formula: C24H33FO6
Exact mass: 436.2261
SMILES: CC1(C)O[C@@H]2C[C@H]3[C@@H]4C[C@H](F)C5=CC(=O)CC[C@]5(C)[C@H]4[C@@H](O)C[C@]3(C)[C@@]2(O1)C(=O)CO
InChI: InChI=1S/C24H33FO6/c1-21(2)30-19-9-14-13-8-16(25)15-7-12(27)5-6-22(15,3)20(13)17(28)10-23(14,4)24(19,31-21)18(29)11-26/h7,13-14,16-17,19-20,26,28H,5-6,8-11H2,1-4H3/t13-,14-,16-,17-,19+,20+,22-,23-,24+/m0/s1
Instrument: Q Exactive Orbitrap (Thermo Scientific)
Instrument type: LC-ESI-QFT
Ms type: MS2
Ion mode: POSITIVE
Ionization: ESI
Fragmentation mode: HCD
Collision energy: 75
Resolution: 17500
Column name: Acquity BEH C18 1.7um, 2.1x150mm (Waters)
Retention time: 17.165 min
Base peak: 79.0212
Precursor m/z: 437.2334
Precursor type: [M+H]+
Precursor intensity: 351690.40625
m/z	relative intensity	assigned
55.0179	302	C3H3O+
59.0491	231	C3H7O+
67.0542	196	C5H7+
69.0336	151	C4H5O+
71.0492	82	C4H7O+
79.0543	504	C6H7+
81.0699	282	C6H9+
83.0491	197	C5H7O+
91.0543	957	C7H7+
93.07	414	C7H9+
95.0492	365	C6H7O+
95.0856	58	C7H11+
97.0648	246	C6H9O+
99.0443	67	C5H7O2+
105.07	999	C8H9+
107.0494	157	C7H7O+
107.0857	83	C8H11+
109.065	158	C7H9O+
117.07	385	C9H9+
119.0857	350	C9H11+
121.0649	357	C8H9O+
123.0807	66	C8H11O+
127.0555	103	C7H8FO+
129.0699	449	C10H9+
131.0855	458	C10H11+
133.065	92	C9H9O+
133.1014	112	C10H13+
135.081	54	C9H11O+
139.0555	325	C8H8FO+
142.078	306	C11H10+
143.0858	432	C11H11+
145.0652	179	C10H9O+
145.1013	204	C11H13+
147.0808	106	C10H11O+
154.078	150	C12H10+
155.0855	361	C12H11+
157.0648	83	C11H9O+
157.101	199	C12H13+
159.0805	164	C11H11O+
161.0963	85	C11H13O+
163.0929	44	C11H12F+
169.1009	195	C13H13+
171.0806	170	C12H11O+
179.0858	294	C14H11+
183.1172	115	C14H15+
185.0959	38	C13H13O+
192.0937	235	C15H12+
193.1014	217	C15H13+
195.0809	88	C14H11O+
195.1173	49	C15H15+
197.0961	82	C14H13O+
219.1174	59	C14H16FO+
221.0961	55	C16H13O+
