Mass spectrum: Cladribine; LC-ESI-QFT; MS2; CE: 45; R=17500; [M+H]+
Name: Cladribine
Formula: C10H12ClN5O3
Exact mass: 285.0629
SMILES: NC1=NC(Cl)=NC2=C1N=CN2[C@H]1C[C@H](O)[C@@H](CO)O1
InChI: InChI=1S/C10H12ClN5O3/c11-10-14-8(12)7-9(15-10)16(3-13-7)6-1-4(18)5(2-17)19-6/h3-6,17-18H,1-2H2,(H2,12,14,15)/t4-,5+,6+/m0/s1
Instrument: Q Exactive Orbitrap (Thermo Scientific)
Instrument type: LC-ESI-QFT
Ms type: MS2
Ion mode: POSITIVE
Ionization: ESI
Fragmentation mode: HCD
Collision energy: 45
Resolution: 17500
Column name: Acquity BEH C18 1.7um, 2.1x150mm (Waters)
Retention time: 10.837 min
Base peak: 79.0212
Precursor m/z: 286.0701
Precursor type: [M+H]+
Precursor intensity: 3675463.5625
m/z	relative intensity	assigned
53.0022	2	C3HO+
53.0386	4	C4H5+
57.0335	13	C3H5O+
69.0335	24	C4H5O+
70.0399	3	C2H4N3+
71.0491	49	C4H7O+
73.0284	67	C3H5O2+
75.044	2	C3H7O2+
81.0335	21	C5H5O+
99.0441	99	C5H7O2+
105.0334	2	C7H5O+
117.0546	125	C5H9O3+
134.0461	48	C5H4N5+
135.0301	7	C5H3N4O+
152.0567	35	C5H6N5O+
160.9738	1	C2ClN5O2+
170.0228	999	C5H5ClN5+
