Mass spectrum: SSR 241586 HCl; LC-ESI-QFT; MS2; CE: 60; R=17500; [M+H]+
Name: SSR 241586 HCl
Name: 1-[2-[(2R)-4-benzoyl-2-(3,4-dichlorophenyl)morpholin-2-yl]ethyl]-N,N-dimethyl-4-piperidin-1-ylpiperidine-4-carboxamide
Formula: C32H42Cl2N4O3
Exact mass: 600.2634
SMILES: CN(C)C(=O)C1(N2CCCCC2)CCN(CC[C@@]2(c3ccc(Cl)c(Cl)c3)CN(C(=O)c3ccccc3)CCO2)CC1
InChI: InChI=1S/C32H42Cl2N4O3/c1-35(2)30(40)31(38-16-7-4-8-17-38)13-18-36(19-14-31)20-15-32(26-11-12-27(33)28(34)23-26)24-37(21-22-41-32)29(39)25-9-5-3-6-10-25/h3,5-6,9-12,23H,4,7-8,13-22,24H2,1-2H3/t32-/m0/s1
Instrument: Q Exactive Orbitrap (Thermo Scientific)
Instrument type: LC-ESI-QFT
Ms type: MS2
Ion mode: POSITIVE
Ionization: ESI
Fragmentation mode: HCD
Collision energy: 60
Resolution: 17500
Column name: Acquity BEH C18 1.7um, 2.1x150mm (Waters)
Retention time: 16.670 min
Base peak: 79.0211
Precursor m/z: 601.2707
Precursor type: [M+H]+
Precursor intensity: 8138913.875
m/z	relative intensity	assigned
50.015	1	C4H2+
51.023	1	C4H3+
53.0022	2	C3HO+
53.0385	27	C4H5+
55.0542	18	C4H7+
56.0494	16	C3H6N+
58.0651	198	C3H8N+
67.0542	3	C5H7+
68.0494	2	C4H6N+
69.0698	49	C5H9+
70.0651	15	C4H8N+
72.0443	176	C3H6NO+
72.0807	25	C4H10N+
74.0599	6	C3H8NO+
77.0383	10	C6H5+
79.0541	1	C6H7+
80.0494	1	C5H6N+
81.0335	7	C5H5O+
81.0698	3	C6H9+
82.0651	12	C5H8N+
83.0491	11	C5H7O+
84.0807	74	C5H10N+
86.06	15	C4H8NO+
86.0964	11	C5H12N+
91.0542	1	C7H7+
93.0697	1	C7H9+
94.0413	2	C6H6O+
94.0653	1	C6H8N+
95.0491	68	C6H7O+
96.0807	12	C6H10N+
98.0964	58	C6H12N+
104.0495	169	C7H6N+
105.0335	999	C5H3N3+
108.0805	4	C7H10N+
110.0964	39	C7H12N+
112.1121	1	C7H14N+
122.0602	1	C7H8NO+
124.112	2	C8H14N+
126.0913	673	C7H12NO+
136.0756	2	C8H10NO+
136.112	4	C9H14N+
138.1276	624	C9H16N+
148.0756	147	C9H10NO+
149.0597	71	C9H9O2+
150.0231	4	C9H7Cl+
158.9761	14	C7H5Cl2+
162.0231	2	C10H7Cl+
163.0311	1	C10H8Cl+
164.0385	3	C10H9Cl+
179.0503	1	C10H10ClN+
184.9919	3	C9H7Cl2+
191.0495	7	C11H10ClN+
192.0574	2	C11H11ClN+
193.0652	7	C11H12ClN+
196.9917	3	C10H7Cl2+
199.0076	2	C10H9Cl2+
203.0496	1	C12H10ClN+
205.0656	1	C12H12ClN+
208.9918	1	C11H7Cl2+
212.0027	1	C10H8Cl2N+
213.0105	2	C10H9Cl2N+
214.0184	11	C10H10Cl2N+
226.0183	30	C11H10Cl2N+
227.0261	2	C11H11Cl2N+
228.034	115	C11H12Cl2N+
240.0342	4	C12H12Cl2N+
244.0291	5	C11H12Cl2NO+
256.0287	2	C15H9ClO2+
270.0445	5	C13H14Cl2NO+
332.0607	3	C18H16Cl2NO+
