Mass spectrum: Chrysin; LC-ESI-QFT; MS2; CE: 60; R=17500; [M+H]+
Name: Chrysin
Name: 5,7-dihydroxy-2-phenylchromen-4-one
Formula: C15H10O4
Exact mass: 254.0579
SMILES: OC1=CC2=C(C(O)=C1)C(=O)C=C(O2)C1=CC=CC=C1
InChI: InChI=1S/C15H10O4/c16-10-6-11(17)15-12(18)8-13(19-14(15)7-10)9-4-2-1-3-5-9/h1-8,16-17H
Instrument: Q Exactive Orbitrap (Thermo Scientific)
Instrument type: LC-ESI-QFT
Ms type: MS2
Ion mode: POSITIVE
Ionization: ESI
Fragmentation mode: HCD
Collision energy: 60
Resolution: 17500
Column name: Acquity BEH C18 1.7um, 2.1x150mm (Waters)
Retention time: 17.852 min
Base peak: 79.0212
Precursor m/z: 255.0652
Precursor type: [M+H]+
Precursor intensity: 1935523.25
m/z	relative intensity	assigned
53.0387	1	C4H5+
67.0178	102	C4H3O+
68.9971	54	C3HO2+
77.0387	1	C6H5+
81.0335	1	C5H5O+
83.0129	1	C4H3O2+
91.0179	4	C6H3O+
95.0492	4	C6H7O+
97.0284	2	C5H5O2+
103.0543	105	C8H7+
105.0336	38	C7H5O+
107.0127	1	C6H3O2+
109.0284	3	C6H5O2+
111.0078	5	C5H3O3+
115.0545	2	C9H7+
125.0236	4	C6H5O3+
127.039	2	C6H7O3+
129.0185	13	C5H5O4+
129.0335	54	C9H5O+
141.07	3	C11H9+
143.034	4	C6H7O4+
145.0647	1	C10H9O+
147.0441	55	C9H7O2+
149.0237	1	C8H5O3+
152.0621	7	C12H8+
153.0183	325	C7H5O4+
157.0649	1	C11H9O+
167.0495	1	C12H7O+
169.0648	2	C12H9O+
171.0436	11	C11H7O2+
181.065	10	C13H9O+
186.0676	5	C12H10O2+
187.0755	18	C12H11O2+
199.0753	3	C13H11O2+
209.0598	38	C14H9O2+
213.0546	13	C13H9O3+
227.0704	3	C14H11O3+
231.0653	12	C13H11O4+
237.0551	6	C15H9O3+
255.0653	999	C15H11O4+
