Mass spectrum: Phenazopyridine; LC-ESI-QFT; MS2; CE: 45; R=17500; [M+H]+
Name: Phenazopyridine
Name: 3-phenyldiazenylpyridine-2,6-diamine
Formula: C11H11N5
Exact mass: 213.1014
SMILES: NC1=CC=C(N=NC2=CC=CC=C2)C(N)=N1
InChI: InChI=1S/C11H11N5/c12-10-7-6-9(11(13)14-10)16-15-8-4-2-1-3-5-8/h1-7H,(H4,12,13,14)
Instrument: Q Exactive Orbitrap (Thermo Scientific)
Instrument type: LC-ESI-QFT
Ms type: MS2
Ion mode: POSITIVE
Ionization: ESI
Fragmentation mode: HCD
Collision energy: 45
Resolution: 17500
Column name: Acquity BEH C18 1.7um, 2.1x150mm (Waters)
Retention time: 14.298 min
Base peak: 79.0211
Precursor m/z: 214.1087
Precursor type: [M+H]+
Precursor intensity: 33677959.375
m/z	relative intensity	assigned
53.0386	17	C4H5+
54.0338	1	C3H4N+
68.0242	49	C2H2N3+
71.0603	197	C3H7N2+
77.0385	6	C6H5+
79.0289	1	C4H3N2+
80.0368	32	C4H4N2+
81.0447	12	C4H5N2+
82.0525	1	C4H6N2+
92.0495	4	C6H6N+
93.0573	57	C6H7N+
94.0651	5	C6H8N+
95.0491	45	C4H5N3+
96.0556	252	C4H6N3+
99.0916	1	C5H11N2+
105.0447	22	C6H5N2+
107.0603	12	C6H7N2+
108.0556	22	C5H6N3+
109.0634	15	C5H7N3+
110.0711	4	C5H8N3+
113.0821	5	C4H9N4+
115.0542	1	C9H7+
119.0597	1	C7H7N2+
121.0509	20	C5H5N4+
122.0587	342	C5H6N4+
123.0664	9	C5H7N4+
124.0869	687	C6H10N3+
138.0773	9	C5H8N5+
142.0653	1	C10H8N+
166.1086	146	C7H12N5+
169.0756	3	C11H9N2+
170.0712	13	C10H8N3+
180.0557	1	C11H6N3+
184.0869	1	C11H10N3+
187.098	2	C10H11N4+
197.0821	30	C11H9N4+
198.0899	21	C11H10N4+
212.096	2	C11H10N5+
213.101	2	C11H11N5+
214.1114	999	C11H12N5+
