Mass spectrum: 2,4-Dinitrophenol; LC-ESI-QFT; MS2; CE: 90; R=17500; [M-H]-
Name: 2,4-Dinitrophenol
Formula: C6H4N2O5
Exact mass: 184.0120
SMILES: OC1=C(C=C(C=C1)[N+]([O-])=O)[N+]([O-])=O
InChI: InChI=1S/C6H4N2O5/c9-6-2-1-4(7(10)11)3-5(6)8(12)13/h1-3,9H
Instrument: Q Exactive Orbitrap (Thermo Scientific)
Instrument type: LC-ESI-QFT
Ms type: MS2
Ion mode: NEGATIVE
Ionization: ESI
Fragmentation mode: HCD
Collision energy: 90
Resolution: 17500
Column name: Acquity BEH C18 1.7um, 2.1x150mm (Waters)
Retention time: 14.528 min
Base peak: 183.0047
Precursor m/z: 183.0047
Precursor type: [M-H]-
Precursor intensity: 42270571.44141
m/z	relative intensity	assigned
50.0035	11	C3N-
51.0239	11	C4H3-
52.0192	8	C3H2N-
53.0032	24	C3HO-
55.0189	19	C3H3O-
62.0162	12	C5H2-
63.024	19	C5H3-
64.0193	69	C4H2N-
65.0033	60	C4HO-
65.9986	36	C3NO-
66.0111	74	C4H2O-
67.019	243	C4H3O-
68.0142	20	C3H2NO-
68.9982	181	C3HO2-
72.9931	3	C2HO3-
79.019	56	C5H3O-
80.0141	2	C4H2NO-
80.9981	3	C4HO2-
82.006	6	C4H2O2-
89.9986	2	C5NO-
90.0112	5	C6H2O-
91.019	18	C6H3O-
92.0142	44	C5H2NO-
92.9982	42	C5HO2-
95.0139	999	C5H3O2-
106.006	3	C6H2O2-
107.0138	9	C6H3O2-
108.0092	5	C5H2NO2-
109.0169	152	C5H3NO2-
120.0091	41	C6H2NO2-
123.0088	339	C6H3O3-
124.0041	7	C5H2NO3-
125.0118	458	C5H3NO3-
137.012	15	C6H3NO3-
139.9995	2	C5H2NO4-
153.0069	37	C6H3NO4-
183.0045	11	C6H3N2O5-
