Mass spectrum: N-Butylurea; LC-ESI-QFT; MS2; CE: 60; R=17500; [M+H]+
Name: N-Butylurea
Name: butylurea
Formula: C5H12N2O
Exact mass: 116.0950
SMILES: CCCCNC(N)=O
InChI: InChI=1S/C5H12N2O/c1-2-3-4-7-5(6)8/h2-4H2,1H3,(H3,6,7,8)
Instrument: Q Exactive Orbitrap (Thermo Scientific)
Instrument type: LC-ESI-QFT
Ms type: MS2
Ion mode: POSITIVE
Ionization: ESI
Fragmentation mode: HCD
Collision energy: 60
Resolution: 17500
Column name: Acquity BEH C18 1.7um, 2.1x150mm (Waters)
Retention time: 10.164 min
Base peak: 79.0212
Precursor m/z: 117.1022
Precursor type: [M+H]+
Precursor intensity: 5348505.6875
m/z	relative intensity	assigned
53.0022	33	C3HO+
53.9975	5	C2NO+
57.0699	999	C4H9+
61.0396	196	CH5N2O+
74.0964	217	C4H12N+
100.0756	3	C5H10NO+
117.1022	243	C5H13N2O+
