Mass spectrum: Piragliatin; LC-ESI-QFT; MS2; CE: 75; R=17500; [M+H]+
Name: Piragliatin
Name: (2R)-2-(3-chloro-4-methylsulfonylphenyl)-3-[(1R)-3-oxocyclopentyl]-N-pyrazin-2-ylpropanamide
Formula: C19H20ClN3O4S
Exact mass: 421.0863
SMILES: CS(=O)(=O)C1=CC=C(C=C1Cl)[C@@H](C[C@H]1CCC(=O)C1)C(=O)NC1=NC=CN=C1
InChI: InChI=1S/C19H20ClN3O4S/c1-28(26,27)17-5-3-13(10-16(17)20)15(9-12-2-4-14(24)8-12)19(25)23-18-11-21-6-7-22-18/h3,5-7,10-12,15H,2,4,8-9H2,1H3,(H,22,23,25)/t12-,15+/m0/s1
Instrument: Q Exactive Orbitrap (Thermo Scientific)
Instrument type: LC-ESI-QFT
Ms type: MS2
Ion mode: POSITIVE
Ionization: ESI
Fragmentation mode: HCD
Collision energy: 75
Resolution: 17500
Column name: Acquity BEH C18 1.7um, 2.1x150mm (Waters)
Retention time: 14.557 min
Base peak: 79.0211
Precursor m/z: 422.0936
Precursor type: [M+H]+
Precursor intensity: 654822
m/z	relative intensity	assigned
52.0182	50	C3H2N+
55.0179	65	C3H3O+
55.0543	39	C4H7+
69.0447	67	C3H5N2+
78.9848	34	CH3O2S+
83.0491	118	C5H7O+
95.0493	39	C6H7O+
96.0556	999	C4H6N3+
97.0397	306	C4H5N2O+
115.0543	69	C9H7+
125.0154	37	C7H6Cl+
128.062	59	C10H8+
129.07	68	C10H9+
141.0102	592	C7H6ClO+
141.0699	108	C11H9+
142.0777	68	C11H10+
150.0231	31	C9H7Cl+
153.0699	74	C12H9+
155.0603	12	C10H7N2+
160.0871	9	C9H10N3+
162.0231	258	C10H7Cl+
163.031	89	C10H8Cl+
164.0388	14	C10H9Cl+
165.07	68	C13H9+
166.0778	27	C13H10+
167.0857	242	C13H11+
168.0933	48	C13H12+
175.0309	68	C11H8Cl+
176.0388	33	C11H9Cl+
177.0466	82	C11H10Cl+
179.0259	27	C10H8ClO+
191.0257	25	C11H8ClO+
193.0421	9	C11H10ClO+
194.0133	29	C10H7ClO2+
201.0463	8	C13H10Cl+
202.9931	8	C8H8ClO2S+
212.0388	21	C14H9Cl+
241.0082	22	C11H10ClO2S+
246.1025	17	C16H12N3+
