Mass spectrum: Karbutilate; LC-ESI-QFT; MS2; CE: 90; R=17500; [M+H]+
Name: Karbutilate
Name: [3-(dimethylcarbamoylamino)phenyl] N-tert-butylcarbamate
Formula: C14H21N3O3
Exact mass: 279.1583
SMILES: CN(C)C(=O)NC1=CC=CC(OC(=O)NC(C)(C)C)=C1
InChI: InChI=1S/C14H21N3O3/c1-14(2,3)16-13(19)20-11-8-6-7-10(9-11)15-12(18)17(4)5/h6-9H,1-5H3,(H,15,18)(H,16,19)
Instrument: Q Exactive Orbitrap (Thermo Scientific)
Instrument type: LC-ESI-QFT
Ms type: MS2
Ion mode: POSITIVE
Ionization: ESI
Fragmentation mode: HCD
Collision energy: 90
Resolution: 17500
Column name: Acquity BEH C18 1.7um, 2.1x150mm (Waters)
Retention time: 15.141 min
Base peak: 79.0211
Precursor m/z: 280.1656
Precursor type: [M+H]+
Precursor intensity: 6283820.3125
m/z	relative intensity	assigned
56.0131	14	C2H2NO+
57.0699	5	C4H9+
65.0386	39	C5H5+
70.0652	5	C4H8N+
72.0444	999	C3H6NO+
80.0495	9	C5H6N+
88.0758	4	C4H10NO+
108.0444	29	C6H6NO+
111.0442	27	C6H7O2+
115.0545	7	C9H7+
117.07	16	C9H9+
118.0779	4	C9H10+
121.0395	11	C6H5N2O+
136.0396	11	C7H6NO2+
