Mass spectrum: 3-Methyl-1-phenyl-1H-pyrazol-5-amine; LC-ESI-QFT; MS2; CE: 45; R=17500; [M+H]+
Name: 3-Methyl-1-phenyl-1H-pyrazol-5-amine
Name: 5-methyl-2-phenylpyrazol-3-amine
Formula: C10H11N3
Exact mass: 173.0953
SMILES: CC1=NN(C(N)=C1)C1=CC=CC=C1
InChI: InChI=1S/C10H11N3/c1-8-7-10(11)13(12-8)9-5-3-2-4-6-9/h2-7H,11H2,1H3
Instrument: Q Exactive Orbitrap (Thermo Scientific)
Instrument type: LC-ESI-QFT
Ms type: MS2
Ion mode: POSITIVE
Ionization: ESI
Fragmentation mode: HCD
Collision energy: 45
Resolution: 17500
Column name: Acquity BEH C18 1.7um, 2.1x150mm (Waters)
Retention time: 9.555 min
Base peak: 79.0211
Precursor m/z: 174.1026
Precursor type: [M+H]+
Precursor intensity: 4699616.15625
m/z	relative intensity	assigned
56.0495	1	C3H6N+
65.0386	1	C5H5+
68.0496	1	C4H6N+
71.0603	2	C3H7N2+
77.0384	1	C6H5+
79.0541	4	C6H7+
81.0448	1	C4H5N2+
92.0495	16	C6H6N+
93.0574	10	C6H7N+
96.0556	1	C4H6N3+
104.0493	3	C7H6N+
106.0651	258	C7H8N+
115.0543	1	C9H7+
116.0495	13	C8H6N+
117.0573	6	C8H7N+
118.0651	9	C8H8N+
119.0603	1	C7H7N2+
130.0652	20	C9H8N+
131.0737	1	C9H9N+
132.0685	10	C8H8N2+
132.0808	21	C9H10N+
133.076	247	C8H9N2+
134.0713	25	C7H8N3+
142.0527	1	C9H6N2+
144.0807	2	C10H10N+
145.0758	2	C9H9N2+
145.0885	4	C10H11N+
147.0917	12	C9H11N2+
156.068	2	C10H8N2+
157.076	29	C10H9N2+
159.0791	2	C9H9N3+
174.1026	999	C10H12N3+
