Mass spectrum: 2-Amino-6-methoxybenzothiazole; LC-ESI-QFT; MS2; CE: 90; R=17500; [M+H]+
Name: 2-Amino-6-methoxybenzothiazole
Name: 6-methoxy-1,3-benzothiazol-2-amine
Formula: C8H8N2OS
Exact mass: 180.0357
SMILES: COC1=CC2=C(C=C1)N=C(N)S2
InChI: InChI=1S/C8H8N2OS/c1-11-5-2-3-6-7(4-5)12-8(9)10-6/h2-4H,1H3,(H2,9,10)
Instrument: Q Exactive Orbitrap (Thermo Scientific)
Instrument type: LC-ESI-QFT
Ms type: MS2
Ion mode: POSITIVE
Ionization: ESI
Fragmentation mode: HCD
Collision energy: 90
Resolution: 17500
Column name: Acquity BEH C18 1.7um, 2.1x150mm (Waters)
Retention time: 11.161 min
Base peak: 79.0212
Precursor m/z: 181.043
Precursor type: [M+H]+
Precursor intensity: 18865901.0625
m/z	relative intensity	assigned
52.0308	1	C4H4+
53.0386	1	C4H5+
54.0338	2	C3H4N+
59.99	4	CH2NS+
65.0385	6	C5H5+
67.0416	26	C4H5N+
67.0541	4	C5H7+
68.0495	1	C4H6N+
68.9793	1	C3HS+
69.0447	3	C3H5N2+
69.0572	1	C4H7N+
69.9871	4	C3H2S+
70.9949	1	C3H3S+
78.0337	1	C5H4N+
79.0211	1	C2H7OS+
79.0416	14	C5H5N+
80.0494	11	C5H6N+
81.0448	1	C4H5N2+
81.0573	1	C5H7N+
84.0027	5	C4H4S+
93.0572	5	C6H7N+
94.065	2	C6H8N+
95.0491	32	C6H7O+
96.0028	99	C5H4S+
97.0522	9	C5H7NO+
98.0058	1	C4H4NS+
105.0447	14	C6H5N2+
107.0365	7	C6H5NO+
108.0444	3	C6H6NO+
109.0107	2	C6H5S+
110.0059	27	C5H4NS+
110.0601	12	C6H8NO+
111.0137	238	C5H5NS+
120.9981	11	C6H3NS+
122.0059	9	C6H4NS+
122.06	6	C7H8NO+
123.0137	12	C6H5NS+
123.9977	16	C6H4OS+
124.0216	1	C6H6NS+
133.0396	14	C7H5N2O+
137.0169	14	C6H5N2S+
138.0245	999	C6H6N2S+
139.0084	14	C6H5NOS+
139.021	14	C7H7OS+
148.0631	7	C8H8N2O+
148.9929	3	C7H3NOS+
149.0168	4	C7H5N2S+
150.0246	45	C7H6N2S+
151.0322	1	C7H7N2S+
152.0163	1	C7H6NOS+
154.0321	7	C7H8NOS+
165.0116	8	C7H5N2OS+
166.0194	626	C7H6N2OS+
181.0429	45	C8H9N2OS+
