Mass spectrum: Hydrochlorothiazide; LC-ESI-QFT; MS2; CE: 30; R=17500; [M-H]-
Name: Hydrochlorothiazide
Name: 6-chloro-1,1-dioxo-3,4-dihydro-2H-1lambda6,2,4-benzothiadiazine-7-sulfonamide
Formula: C7H8ClN3O4S2
Exact mass: 296.9645
SMILES: NS(=O)(=O)C1=CC2=C(NCNS2(=O)=O)C=C1Cl
InChI: InChI=1S/C7H8ClN3O4S2/c8-4-1-5-7(2-6(4)16(9,12)13)17(14,15)11-3-10-5/h1-2,10-11H,3H2,(H2,9,12,13)
Instrument: Q Exactive Orbitrap (Thermo Scientific)
Instrument type: LC-ESI-QFT
Ms type: MS2
Ion mode: NEGATIVE
Ionization: ESI
Fragmentation mode: HCD
Collision energy: 30
Resolution: 17500
Column name: Acquity BEH C18 1.7um, 2.1x150mm (Waters)
Retention time: 8.152 min
Base peak: 218.1034
Precursor m/z: 295.9572
Precursor type: [M-H]-
Precursor intensity: 1969668.027588
m/z	relative intensity	assigned
77.9656	100	NO2S-
78.9734	2	HNO2S-
79.9812	2	H2NO2S-
121.0409	1	C6H5N2O-
126.0116	14	C6H5ClN-
141.0227	3	C6H6ClN2-
169.008	7	C6H5N2O2S-
189.9731	9	C6H5ClNO2S-
196.0187	7	C7H6N3O2S-
203.9762	3	C6H5ClN2O2S-
204.9844	529	C6H6ClN2O2S-
214.9683	5	C7H4ClN2O2S-
216.9844	19	C7H6ClN2O2S-
219.971	2	C6H5ClN2O3S-
231.9952	42	C7H7ClN3O2S-
268.9464	999	C6H6ClN2O4S2-
295.9571	685	C7H7ClN3O4S2-
