Mass spectrum: N-Butyl-p-toluenesulfonamide; LC-ESI-QFT; MS2; CE: 45; R=17500; [M+H]+
Name: N-Butyl-p-toluenesulfonamide
Name: N-butyl-4-methylbenzenesulfonamide
Formula: C11H17NO2S
Exact mass: 227.0980
SMILES: CCCCNS(=O)(=O)C1=CC=C(C)C=C1
InChI: InChI=1S/C11H17NO2S/c1-3-4-9-12-15(13,14)11-7-5-10(2)6-8-11/h5-8,12H,3-4,9H2,1-2H3
Instrument: Q Exactive Orbitrap (Thermo Scientific)
Instrument type: LC-ESI-QFT
Ms type: MS2
Ion mode: POSITIVE
Ionization: ESI
Fragmentation mode: HCD
Collision energy: 45
Resolution: 17500
Column name: Acquity BEH C18 1.7um, 2.1x150mm (Waters)
Retention time: 16.819 min
Base peak: 79.0212
Precursor m/z: 228.1053
Precursor type: [M+H]+
Precursor intensity: 2322370.75
m/z	relative intensity	assigned
55.0178	30	C3H3O+
55.0541	9	C4H7+
57.0698	50	C4H9+
60.0444	14	C2H6NO+
61.0106	17	C2H5S+
65.0385	161	C5H5+
67.0542	82	C5H7+
72.0807	94	C4H10N+
91.0542	872	C7H7+
95.0491	28	C6H7O+
108.057	23	C7H8O+
109.0648	999	C7H9O+
120.0573	10	C8H8O+
155.0161	635	C7H7O2S+
172.0429	21	C7H10NO2S+
228.1019	9	C11H18NO2S+
