Mass spectrum: Ketoconazole; LC-ESI-QFT; MS2; CE: 75; R=17500; [M+H]+
Name: Ketoconazole
Name: Xolegel
Name: 1-[4-[4-[[(2R,4S)-2-(2,4-dichlorophenyl)-2-(imidazol-1-ylmethyl)-1,3-dioxolan-4-yl]methoxy]phenyl]piperazin-1-yl]ethanone
Formula: C26H28Cl2N4O4
Exact mass: 530.1488
SMILES: CC(=O)N1CCN(CC1)C1=CC=C(OC[C@H]2CO[C@@](CN3C=CN=C3)(O2)C2=CC=C(Cl)C=C2Cl)C=C1
InChI: InChI=1S/C26H28Cl2N4O4/c1-19(33)31-10-12-32(13-11-31)21-3-5-22(6-4-21)34-15-23-16-35-26(36-23,17-30-9-8-29-18-30)24-7-2-20(27)14-25(24)28/h2-9,14,18,23H,10-13,15-17H2,1H3/t23-,26-/m0/s1
Instrument: Q Exactive Orbitrap (Thermo Scientific)
Instrument type: LC-ESI-QFT
Ms type: MS2
Ion mode: POSITIVE
Ionization: ESI
Fragmentation mode: HCD
Collision energy: 75
Resolution: 17500
Column name: Acquity BEH C18 1.7um, 2.1x150mm (Waters)
Retention time: 15.405 min
Base peak: 79.0211
Precursor m/z: 531.156
Precursor type: [M+H]+
Precursor intensity: 11352577
m/z	relative intensity	assigned
53.0022	2	C3HO+
53.0386	4	C4H5+
54.0338	64	C3H4N+
55.0178	8	C3H3O+
55.0416	7	C3H5N+
55.0541	1	C4H7+
56.0495	92	C3H6N+
57.0574	2	C3H7N+
58.0651	8	C3H8N+
65.0385	9	C5H5+
68.0369	44	C3H4N2+
68.0494	8	C4H6N+
69.0447	122	C3H5N2+
70.0651	197	C4H8N+
71.0603	83	C3H7N2+
74.0963	1	C4H12N+
77.0383	2	C6H5+
79.0542	47	C6H7+
80.0132	2	C4H2NO+
80.0495	9	C5H6N+
81.0447	932	C4H5N2+
82.0525	999	C4H6N2+
83.0604	27	C4H7N2+
84.0681	2	C4H8N2+
84.9838	1	C4H2Cl+
86.06	39	C4H8NO+
89.0384	2	C7H5+
91.0542	28	C7H7+
92.0494	1	C6H6N+
93.0336	1	C6H5O+
93.0698	4	C7H9+
94.0413	9	C6H6O+
94.0651	4	C6H8N+
95.0491	16	C6H7O+
95.0605	9	C5H7N2+
96.0445	1	C5H6NO+
97.0395	1	C4H5N2O+
98.0599	1	C5H8NO+
98.9996	22	C5H4Cl+
103.0542	31	C8H7+
104.0494	8	C7H6N+
104.062	2	C8H8+
105.0447	3	C6H5N2+
105.0573	2	C7H7N+
105.0699	16	C8H9+
106.0651	20	C7H8N+
107.0491	43	C7H7O+
107.0604	12	C6H7N2+
108.0443	5	C6H6NO+
108.0568	2	C7H8O+
108.0807	1	C7H10N+
109.0397	22	C5H5N2O+
109.0522	4	C6H7NO+
109.076	8	C6H9N2+
111.0442	6	C6H7O2+
111.0554	5	C5H7N2O+
112.0757	187	C6H10NO+
113.0709	1	C5H9N2O+
114.0426	5	C4H6N2O2+
115.0542	35	C9H7+
116.0621	6	C9H8+
117.0573	26	C8H7N+
117.0698	24	C9H9+
118.0651	50	C8H8N+
119.0491	4	C8H7O+
119.0731	11	C8H9N+
119.0854	3	C9H11+
120.0444	272	C7H6NO+
120.0808	59	C8H10N+
121.0395	10	C6H5N2O+
121.0522	7	C7H7NO+
121.0647	10	C8H9O+
122.06	164	C7H8NO+
122.9996	48	C7H4Cl+
124.0075	2	C7H5Cl+
125.0151	16	C7H6Cl+
125.9866	4	C6H3ClO+
126.9946	11	C6H4ClO+
127.0502	144	C5H7N2O2+
128.0621	13	C10H8+
129.0101	2	C6H6ClO+
129.0699	21	C10H9+
130.0652	75	C9H8N+
131.0492	20	C9H7O+
131.0604	5	C8H7N2+
131.0729	35	C9H9N+
132.0445	3	C8H6NO+
132.057	18	C9H8O+
132.0808	29	C9H10N+
133.0522	11	C8H7NO+
133.0647	4	C9H9O+
134.06	138	C8H8NO+
135.0678	73	C8H9NO+
136.0075	9	C8H5Cl+
136.0757	120	C8H10NO+
137.0154	3	C8H6Cl+
138.0232	1	C8H7Cl+
139.0058	3	C6H4ClN2+
139.0308	10	C8H8Cl+
141.0102	3	C7H6ClO+
143.073	15	C10H9N+
144.0564	3	C10H8O+
144.0809	53	C10H10N+
145.0052	5	C6H6ClO2+
145.0648	13	C10H9O+
145.0886	16	C10H11N+
145.9684	6	C6H4Cl2+
146.06	34	C9H8NO+
146.0964	70	C10H12N+
146.9762	7	C6H5Cl2+
147.068	6	C9H9NO+
147.0804	1	C10H11O+
148.0756	133	C9H10NO+
149.0153	36	C9H6Cl+
150.0231	61	C9H7Cl+
151.0309	12	C9H8Cl+
154.065	3	C11H8N+
154.9891	4	C7H4ClO2+
155.0604	7	C10H7N2+
155.0727	1	C11H9N+
156.0682	4	C10H8N2+
156.0808	14	C11H10N+
157.0884	3	C11H11N+
157.9685	20	C7H4Cl2+
158.06	7	C10H8NO+
158.0964	20	C11H12N+
158.9763	271	C7H5Cl2+
159.0678	18	C10H9NO+
160.0757	29	C10H10NO+
161.0707	2	C2H19Cl2O3+
161.0834	4	C10H11NO+
161.9629	2	C6H4Cl2O+
162.091	7	C10H12NO+
163.0308	8	C10H8Cl+
163.0867	5	C9H11N2O+
164.0386	1	C10H9Cl+
165.0099	2	C9H6ClO+
167.0259	19	C9H8ClO+
167.0815	87	C8H11N2O2+
169.9684	167	C8H4Cl2+
170.9762	26	C8H5Cl2+
171.0676	2	C11H9NO+
171.984	3	C8H6Cl2+
172.0757	13	C11H10NO+
172.1118	3	C12H14N+
172.9556	130	C7H3Cl2O+
174.0913	81	C11H12NO+
174.9712	11	C7H5Cl2O+
175.0867	3	C10H11N2O+
176.0944	3	C10H12N2O+
176.1069	6	C11H14NO+
177.0339	2	C10H8ClN+
177.1021	37	C10H13N2O+
178.0861	4	C10H12NO2+
179.0255	3	C10H8ClO+
182.9764	3	C9H5Cl2+
184.0756	2	C12H10NO+
184.9919	23	C9H7Cl2+
185.9634	90	C8H4Cl2O+
186.9713	14	C8H5Cl2O+
188.1071	2	C12H14NO+
189.9584	4	C7H4Cl2O2+
190.0862	2	C11H12NO2+
192.1018	15	C11H14NO2+
200.1069	3	C13H14NO+
202.0861	1	C12H12NO2+
203.0371	34	C11H8ClN2+
204.021	3	C11H7ClNO+
205.0288	12	C11H8ClNO+
212.0025	5	C13H5ClO+
216.1021	1	C13H14NO2+
219.1128	2	C12H15N2O2+
239.0137	6	C11H9Cl2N2+
239.9975	3	C14H5ClO2+
247.0632	4	C13H12ClN2O+
252.9926	7	C14H4ClNO2+
255.0085	36	C11H9Cl2N2O+
267.0086	34	C12H9Cl2N2O+
281.0241	5	C13H11Cl2N2O+
311.0349	1	C14H13Cl2N2O2+
378.0663	2	C26H8N3O+
