Mass spectrum: 4-Nitrosodiphenylamine; LC-ESI-QFT; MS2; CE: 15; R=17500; [M-H]-
Name: 4-Nitrosodiphenylamine
Name: 4-nitroso-N-phenylaniline
Formula: C12H10N2O
Exact mass: 198.0793
SMILES: O=NC1=CC=C(NC2=CC=CC=C2)C=C1
InChI: InChI=1S/C12H10N2O/c15-14-12-8-6-11(7-9-12)13-10-4-2-1-3-5-10/h1-9,13H
Instrument: Q Exactive Orbitrap (Thermo Scientific)
Instrument type: LC-ESI-QFT
Ms type: MS2
Ion mode: NEGATIVE
Ionization: ESI
Fragmentation mode: HCD
Collision energy: 15
Resolution: 17500
Column name: Acquity BEH C18 1.7um, 2.1x150mm (Waters)
Retention time: 16.701 min
Base peak: 216.994
Precursor m/z: 197.072
Precursor type: [M-H]-
Precursor intensity: 3498423.926758
m/z	relative intensity	assigned
166.0664	6	C12H8N-
167.074	2	C12H9N-
170.0612	12	C11H8NO-
183.0689	1	C12H9NO-
197.0721	999	C12H9N2O-
