Mass spectrum: AVE2865; LC-ESI-QFT; MS2; CE: 30; R=17500; [M+H]+
Name: AVE2865
Name: 1-{2-[3-(2-Chloro-4,5-Difluoro-Benzoyl)-Ureido]-4-Fluoro-Phenyl}-Piperidine-4-Carboxylic Acid
Name: 1-[2-[(2-chloro-4,5-difluorobenzoyl)carbamoylamino]-4-fluorophenyl]piperidine-4-carboxylic acid
Formula: C20H17ClF3N3O4
Exact mass: 455.0860
SMILES: OC(=O)C1CCN(CC1)C1=C(NC(=O)NC(=O)C2=CC(F)=C(F)C=C2Cl)C=C(F)C=C1
InChI: InChI=1S/C20H17ClF3N3O4/c21-13-9-15(24)14(23)8-12(13)18(28)26-20(31)25-16-7-11(22)1-2-17(16)27-5-3-10(4-6-27)19(29)30/h1-2,7-10H,3-6H2,(H,29,30)(H2,25,26,28,31)
Instrument: Q Exactive Orbitrap (Thermo Scientific)
Instrument type: LC-ESI-QFT
Ms type: MS2
Ion mode: POSITIVE
Ionization: ESI
Fragmentation mode: HCD
Collision energy: 30
Resolution: 17500
Column name: Acquity BEH C18 1.7um, 2.1x150mm (Waters)
Retention time: 18.374 min
Base peak: 79.0211
Precursor m/z: 456.0932
Precursor type: [M+H]+
Precursor intensity: 2268068.75
m/z	relative intensity	assigned
67.0542	1	C5H7+
153.0459	1	C7H6FN2O+
165.0459	44	C8H6FN2O+
219.0927	14	C12H12FN2O+
247.0878	78	C13H12FN2O2+
265.0983	999	C13H14FN2O3+
