Mass spectrum: 4`-Sulfamylacetanilide; LC-ESI-QFT; MS2; CE: 45; R=17500; [M+H]+
Name: 4'-Sulfamylacetanilide
Name: 4-Acetamidobenzenesulfonamide
Name: N-(4-sulfamoylphenyl)acetamide
Formula: C8H10N2O3S
Exact mass: 214.0412
SMILES: CC(=O)NC1=CC=C(C=C1)S(N)(=O)=O
InChI: InChI=1S/C8H10N2O3S/c1-6(11)10-7-2-4-8(5-3-7)14(9,12)13/h2-5H,1H3,(H,10,11)(H2,9,12,13)
Instrument: Q Exactive Orbitrap (Thermo Scientific)
Instrument type: LC-ESI-QFT
Ms type: MS2
Ion mode: POSITIVE
Ionization: ESI
Fragmentation mode: HCD
Collision energy: 45
Resolution: 17500
Column name: Acquity BEH C18 1.7um, 2.1x150mm (Waters)
Retention time: 8.299 min
Base peak: 79.0212
Precursor m/z: 215.0485
Precursor type: [M+H]+
Precursor intensity: 2202003.875
m/z	relative intensity	assigned
61.0107	11	C2H5S+
65.0386	81	C5H5+
79.0212	47	C2H7OS+
79.9802	4	H2NO2S+
92.0496	15	C6H6N+
93.0336	91	C6H5O+
93.0574	999	C6H7N+
94.0652	194	C6H8N+
106.0654	4	C7H8N+
108.0444	194	C6H6NO+
110.0602	14	C6H8NO+
111.0443	4	C6H7O2+
134.0601	393	C8H8NO+
135.0679	90	C8H9NO+
136.0758	370	C8H10NO+
150.0549	26	C8H8NO2+
152.0707	15	C8H10NO2+
153.9594	13	C5NO3S+
156.0113	33	C6H6NO2S+
198.0222	133	C8H8NO3S+
215.0487	17	C8H11N2O3S+
