Mass spectrum: 2-Ethylhexyl diphenyl phosphate; LC-ESI-QFT; MS2; CE: 45; R=17500; [M+H]+
Name: 2-Ethylhexyl diphenyl phosphate
Formula: C20H27O4P
Exact mass: 362.1647
SMILES: CCCCC(CC)COP(=O)(OC1=CC=CC=C1)OC1=CC=CC=C1
InChI: InChI=1S/C20H27O4P/c1-3-5-12-18(4-2)17-22-25(21,23-19-13-8-6-9-14-19)24-20-15-10-7-11-16-20/h6-11,13-16,18H,3-5,12,17H2,1-2H3
Instrument: Q Exactive Orbitrap (Thermo Scientific)
Instrument type: LC-ESI-QFT
Ms type: MS2
Ion mode: POSITIVE
Ionization: ESI
Fragmentation mode: HCD
Collision energy: 45
Resolution: 17500
Column name: Acquity BEH C18 1.7um, 2.1x150mm (Waters)
Retention time: 20.148 min
Base peak: 79.0212
Precursor m/z: 363.172
Precursor type: [M+H]+
Precursor intensity: 2323729.53125
m/z	relative intensity	assigned
53.0387	68	C4H5+
95.0492	362	C6H7O+
152.0622	99	C12H8+
153.0701	349	C12H9+
175.0157	93	C6H8O4P+
233.0368	149	C12H10O3P+
251.047	999	C12H12O4P+
