Mass spectrum: Ifosfamide; LC-ESI-QFT; MS2; CE: 60; R=17500; [M+H]+
Name: Ifosfamide
Name: N,3-bis(2-chloroethyl)-2-oxo-1,3,2lambda5-oxazaphosphinan-2-amine
Formula: C7H15Cl2N2O2P
Exact mass: 260.0248
SMILES: ClCCNP1(=O)OCCCN1CCCl
InChI: InChI=1S/C7H15Cl2N2O2P/c8-2-4-10-14(12)11(6-3-9)5-1-7-13-14/h1-7H2,(H,10,12)
Instrument: Q Exactive Orbitrap (Thermo Scientific)
Instrument type: LC-ESI-QFT
Ms type: MS2
Ion mode: POSITIVE
Ionization: ESI
Fragmentation mode: HCD
Collision energy: 60
Resolution: 17500
Column name: Acquity BEH C18 1.7um, 2.1x150mm (Waters)
Retention time: 13.918 min
Base peak: 79.0211
Precursor m/z: 261.0321
Precursor type: [M+H]+
Precursor intensity: 9211363.8125
m/z	relative intensity	assigned
53.0023	2	C3HO+
54.0339	4	C3H4N+
55.0542	2	C4H7+
56.0495	91	C3H6N+
57.0573	1	C3H7N+
57.0699	2	C4H9+
58.0651	7	C3H8N+
59.0491	2	C3H7O+
62.9996	222	C2H4Cl+
63.9948	7	CH3ClN+
64.9787	1	H2O2P+
65.0385	1	C5H5+
67.0416	1	C4H5N+
67.0542	14	C5H7+
68.0494	3	C4H6N+
70.0651	1	C4H8N+
72.0443	14	C3H6NO+
74.0964	1	C4H12N+
78.0105	295	C2H5ClN+
80.0262	11	C2H7ClN+
80.0495	3	C5H6N+
82.0651	15	C5H8N+
83.0729	4	C5H9N+
84.0807	9	C5H10N+
92.0261	999	C3H7ClN+
98.0002	5	CH5ClNO2+
99.9947	1	C3H3NOP+
105.0099	1	C3H6O2P+
106.0051	6	C2H5NO2P+
109.0049	3	C3H6ClO2+
112.0158	1	C2H7ClNO2+
114.9709	1	CH5ClO2P+
115.9662	6	ClH4NO2P+
116.9503	86	CH3Cl2O2+
118.0052	3	C3H5NO2P+
118.0417	15	C5H9ClN+
120.021	6	C3H7NO2P+
120.0574	95	C5H11ClN+
123.9713	1	C2H4ClNOP+
124.0158	13	C3H7ClNO2+
125.9505	1	CH2ClNO2P+
126.971	5	C2H5ClO2P+
127.9662	22	CH4ClNO2P+
128.026	17	C5H7NOP+
130.966	1	C2H5Cl2O2+
134.9612	1	C6O2P+
136.0158	28	C4H7ClNO2+
137.9871	1	C3H6ClNOP+
138.0313	3	C4H9ClNO2+
139.9663	2	C2H4ClNO2P+
140.9865	1	C3H7ClO2P+
141.9819	29	C2H6ClNO2P+
143.9612	4	C2H4Cl2NO2+
146.0365	23	C5H9NO2P+
147.0205	2	C6H8ClO2+
153.9819	477	C3H6ClNO2P+
154.9468	6	C3H4Cl2NP+
155.9974	3	C7H5ClO2+
159.9924	1	C3H8Cl2NO2+
164.047	4	C6H11ClNO2+
171.9924	3	C4H8Cl2NO2+
172.9577	3	C3H6Cl2NOP+
182.0131	16	C5H10ClNO2P+
189.9585	1	C3H7Cl2NO2P+
200.0238	1	C6H12Cl2NO2+
233.0008	9	C5H12Cl2N2O2P+
261.0318	2	C7H16Cl2N2O2P+
