Mass spectrum: Triadimefon; LC-ESI-QFT; MS2; CE: 75; R=17500; [M-H]-
Name: Triadimefon
Name: 1-(4-chlorophenoxy)-3,3-dimethyl-1-(1,2,4-triazol-1-yl)butan-2-one
Formula: C14H16ClN3O2
Exact mass: 293.0931
SMILES: CC(C)(C)C(=O)C(OC1=CC=C(Cl)C=C1)N1C=NC=N1
InChI: InChI=1S/C14H16ClN3O2/c1-14(2,3)12(19)13(18-9-16-8-17-18)20-11-6-4-10(15)5-7-11/h4-9,13H,1-3H3
Instrument: Q Exactive Orbitrap (Thermo Scientific)
Instrument type: LC-ESI-QFT
Ms type: MS2
Ion mode: NEGATIVE
Ionization: ESI
Fragmentation mode: HCD
Collision energy: 75
Resolution: 17500
Column name: Acquity BEH C18 1.7um, 2.1x150mm (Waters)
Retention time: 17.606 min
Base peak: 247.0324
Precursor m/z: 292.0858
Precursor type: [M-H]-
Precursor intensity: 4343166.9375
m/z	relative intensity	assigned
66.0099	5	C2N3-
68.0255	999	C2H2N3-
83.0125	5	C2HN3O-
126.9957	52	C6H4ClO-
152.083	9	C7H10N3O-
