Mass spectrum: Chloroxuron; LC-ESI-QFT; MS2; CE: 60; R=17500; [M-H]-
Name: Chloroxuron
Name: 3-[4-(4-chlorophenoxy)phenyl]-1,1-dimethylurea
Formula: C15H15ClN2O2
Exact mass: 290.0822
SMILES: CN(C)C(=O)NC1=CC=C(OC2=CC=C(Cl)C=C2)C=C1
InChI: InChI=1S/C15H15ClN2O2/c1-18(2)15(19)17-12-5-9-14(10-6-12)20-13-7-3-11(16)4-8-13/h3-10H,1-2H3,(H,17,19)
Instrument: Q Exactive Orbitrap (Thermo Scientific)
Instrument type: LC-ESI-QFT
Ms type: MS2
Ion mode: NEGATIVE
Ionization: ESI
Fragmentation mode: HCD
Collision energy: 60
Resolution: 17500
Column name: Acquity BEH C18 1.7um, 2.1x150mm (Waters)
Retention time: 17.931 min
Base peak: 112.9856
Precursor m/z: 289.0749
Precursor type: [M-H]-
Precursor intensity: 4965768.922852
m/z	relative intensity	assigned
59.0138	2	C2H3O2-
65.0033	6	C4HO-
78.0349	24	C5H4N-
90.0348	3	C6H4N-
105.0218	3	C6H3NO-
106.0298	61	C6H4NO-
107.0377	6	C6H5NO-
116.0142	6	C7H2NO-
118.03	12	C7H4NO-
120.0455	772	C7H6NO-
126.9956	64	C6H4ClO-
133.0169	54	C7H3NO2-
134.0248	999	C7H4NO2-
134.0611	341	C8H8NO-
135.0326	18	C7H5NO2-
135.0691	4	C8H9NO-
163.0513	220	C8H7N2O2-
177.0676	2	C9H9N2O2-
178.0747	58	C9H10N2O2-
188.0272	26	C11H7ClN-
244.0171	62	C13H7ClNO2-
