Mass spectrum: Ancymidol; LC-ESI-QFT; MS2; CE: 60; R=17500; [M+H]+
Name: Ancymidol
Name: cyclopropyl-(4-methoxyphenyl)-pyrimidin-5-ylmethanol
Formula: C15H16N2O2
Exact mass: 256.1212
SMILES: COC1=CC=C(C=C1)C(O)(C1CC1)C1=CN=CN=C1
InChI: InChI=1S/C15H16N2O2/c1-19-14-6-4-12(5-7-14)15(18,11-2-3-11)13-8-16-10-17-9-13/h4-11,18H,2-3H2,1H3
Instrument: Q Exactive Orbitrap (Thermo Scientific)
Instrument type: LC-ESI-QFT
Ms type: MS2
Ion mode: POSITIVE
Ionization: ESI
Fragmentation mode: HCD
Collision energy: 60
Resolution: 17500
Column name: Acquity BEH C18 1.7um, 2.1x150mm (Waters)
Retention time: 15.425 min
Base peak: 79.0211
Precursor m/z: 257.1285
Precursor type: [M+H]+
Precursor intensity: 7237229.46875
m/z	relative intensity	assigned
52.0182	2	C3H2N+
53.0022	1	C3HO+
53.0386	8	C4H5+
54.0339	66	C3H4N+
55.0179	4	C3H3O+
57.0699	1	C4H9+
63.0229	1	C5H3+
65.0385	1	C5H5+
67.0543	9	C5H7+
68.0495	1	C4H6N+
69.0335	61	C4H5O+
71.0855	3	C5H11+
74.0965	1	C4H12N+
77.0386	3	C6H5+
79.0542	18	C6H7+
80.0371	1	C4H4N2+
80.0495	3	C5H6N+
81.0447	999	C4H5N2+
85.101	1	C6H13+
91.0542	10	C7H7+
92.0257	5	C6H4O+
93.0699	2	C7H9+
94.0414	2	C6H6O+
94.0652	14	C6H8N+
95.0492	51	C6H7O+
103.0543	1	C8H7+
104.0496	2	C7H6N+
105.0336	1	C7H5O+
105.0447	8	C6H5N2+
105.0698	2	C8H9+
107.0491	6	C7H7O+
107.0604	2	C6H7N2+
109.065	5	C7H9O+
115.0541	7	C9H7+
116.062	1	C9H8+
117.0698	1	C9H9+
119.0491	2	C8H7O+
119.0603	1	C7H7N2+
121.0648	106	C8H9O+
122.06	9	C7H8NO+
125.0597	21	C7H9O2+
128.062	7	C10H8+
129.0698	12	C10H9+
130.0414	1	C9H6O+
131.0493	1	C9H7O+
131.0605	5	C8H7N2+
133.0648	4	C9H9O+
135.0441	711	C8H7O2+
136.0753	2	C8H10NO+
137.0118	8	C9HN2+
141.0699	7	C11H9+
142.0778	19	C11H10+
144.057	15	C10H8O+
145.0649	17	C10H9O+
146.0603	1	C9H8NO+
146.0728	4	C10H10O+
147.0803	2	C10H11O+
149.071	6	C8H9N2O+
149.0961	25	C10H13O+
151.0274	1	C10H3N2+
152.0621	35	C12H8+
153.0699	46	C12H9+
154.0653	2	C11H8N+
154.0777	30	C12H10+
155.0225	5	C9H3N2O+
155.0491	4	C11H7O+
155.0603	7	C10H7N2+
155.0855	11	C12H11+
156.0571	2	C11H8O+
157.0649	1	C11H9O+
158.0602	1	C10H8NO+
158.0728	2	C11H10O+
159.0682	1	C10H9NO+
159.0806	14	C11H11O+
160.052	1	C10H8O2+
160.0757	4	C10H10NO+
161.096	16	C11H13O+
165.0066	2	C10HN2O+
165.0699	6	C13H9+
167.0728	1	C12H9N+
168.0684	5	C11H8N2+
168.0806	5	C12H10N+
169.0649	24	C12H9O+
169.0757	1	C11H9N2+
169.0886	9	C12H11N+
170.0726	79	C12H10O+
171.0804	15	C12H11O+
172.0521	6	C11H8O2+
172.0757	1	C11H10NO+
173.0469	1	C10H7NO2+
173.071	1	C10H9N2O+
173.0836	2	C11H11NO+
177.091	33	C11H13O2+
180.0571	9	C13H8O+
180.0807	4	C13H10N+
181.065	2	C13H9O+
181.0759	8	C12H9N2+
181.0887	2	C13H11N+
182.0597	2	C12H8NO+
182.0729	1	C13H10O+
183.0554	7	C11H7N2O+
183.0807	1	C13H11O+
184.0888	2	C13H12O+
185.0711	3	C11H9N2O+
185.0961	25	C13H13O+
186.0916	3	C12H12NO+
187.0865	1	C11H11N2O+
187.099	2	C12H13NO+
188.0708	10	C11H10NO2+
195.0804	18	C14H11O+
195.0916	7	C13H11N2+
196.0755	3	C13H10NO+
196.0995	13	C13H12N2+
197.0723	1	C12H9N2O+
197.0835	14	C13H11NO+
198.0681	1	C13H10O2+
198.0788	9	C12H10N2O+
200.1073	1	C13H14NO+
201.0657	5	C11H9N2O2+
202.0858	1	C12H12NO2+
202.1225	1	C13H16NO+
207.0919	7	C14H11N2+
209.0707	3	C13H9N2O+
211.0868	4	C13H11N2O+
212.1072	6	C14H14NO+
213.1026	1	C13H13N2O+
215.0813	9	C12H11N2O2+
216.0894	2	C12H12N2O2+
223.0866	5	C14H11N2O+
224.0943	9	C14H12N2O+
239.1178	3	C15H15N2O+
257.1289	2	C15H17N2O2+
