Mass spectrum: Ranitidine; LC-ESI-QFT; MS2; CE: 15; R=17500; [M+H]+
Name: Ranitidine
Name: Ranitidine Base
Name: 1-N'-[2-[[5-[(dimethylamino)methyl]furan-2-yl]methylsulfanyl]ethyl]-1-N-methyl-2-nitroethene-1,1-diamine
Formula: C13H22N4O3S
Exact mass: 314.1413
SMILES: CNC(NCCSCC1=CC=C(CN(C)C)O1)=C[N+]([O-])=O
InChI: InChI=1S/C13H22N4O3S/c1-14-13(9-17(18)19)15-6-7-21-10-12-5-4-11(20-12)8-16(2)3/h4-5,9,14-15H,6-8,10H2,1-3H3
Instrument: Q Exactive Orbitrap (Thermo Scientific)
Instrument type: LC-ESI-QFT
Ms type: MS2
Ion mode: POSITIVE
Ionization: ESI
Fragmentation mode: HCD
Collision energy: 15
Resolution: 17500
Column name: Acquity BEH C18 1.7um, 2.1x150mm (Waters)
Retention time: 7.821 min
Base peak: 79.0211
Precursor m/z: 315.1485
Precursor type: [M+H]+
Precursor intensity: 2220369.25
m/z	relative intensity	assigned
58.0651	1	C3H8N+
88.0217	11	C3H6NS+
98.0839	17	C5H10N2+
117.0482	4	C4H9N2S+
124.0757	119	C7H10NO+
125.006	5	C6H5OS+
130.0562	5	C5H10N2S+
138.0913	15	C8H12NO+
144.0768	68	C5H10N3O2+
147.0224	3	C4H7N2O2S+
153.0373	7	C8H9OS+
165.1025	2	C9H13N2O+
170.0635	13	C8H12NOS+
176.0489	267	C5H10N3O2S+
188.0489	7	C6H10N3O2S+
191.1182	2	C11H15N2O+
215.1216	13	C10H19N2OS+
224.0978	52	C11H16N2OS+
270.0908	227	C11H16N3O3S+
315.1486	999	C13H23N4O3S+
