Mass spectrum: 2,4,6-Tris(allyloxy)-1,3,5-triazine; LC-ESI-QFT; MS2; CE: 45; R=17500; [M+H]+
Name: 2,4,6-Tris(allyloxy)-1,3,5-triazine
Name: Triallyl cyanurate
Name: 2,4,6-tris(prop-2-enoxy)-1,3,5-triazine
Formula: C12H15N3O3
Exact mass: 249.1113
SMILES: C=CCOC1=NC(OCC=C)=NC(OCC=C)=N1
InChI: InChI=1S/C12H15N3O3/c1-4-7-16-10-13-11(17-8-5-2)15-12(14-10)18-9-6-3/h4-6H,1-3,7-9H2
Instrument: Q Exactive Orbitrap (Thermo Scientific)
Instrument type: LC-ESI-QFT
Ms type: MS2
Ion mode: POSITIVE
Ionization: ESI
Fragmentation mode: HCD
Collision energy: 45
Resolution: 17500
Column name: Acquity BEH C18 1.7um, 2.1x150mm (Waters)
Retention time: 17.729 min
Base peak: 79.0211
Precursor m/z: 250.1186
Precursor type: [M+H]+
Precursor intensity: 22061246.75
m/z	relative intensity	assigned
53.0022	75	C3HO+
53.0386	64	C4H5+
53.9974	11	C2NO+
54.0338	6	C3H4N+
55.0178	3	C3H3O+
55.0542	11	C4H7+
56.0131	65	C2H2NO+
56.0495	11	C3H6N+
58.0651	37	C3H8N+
65.0385	17	C5H5+
66.0464	9	C5H6+
67.0543	4	C5H7+
67.9892	3	C3O2+
68.0494	10	C4H6N+
69.9923	65	C2NO2+
70.0288	3	C3H4NO+
70.0649	4	C4H8N+
79.0542	566	C6H7+
81.0699	999	C6H9+
82.0288	134	C4H4NO+
84.0444	194	C4H6NO+
87.0189	167	C2H3N2O2+
95.0493	12	C6H7O+
96.0445	8	C5H6NO+
96.0809	18	C6H10N+
99.0189	50	C3H3N2O2+
105.0448	5	C6H5N2+
124.076	6	C7H10NO+
125.0349	10	C5H5N2O2+
127.0503	79	C5H7N2O2+
130.0248	56	C3H4N3O3+
139.0506	6	C6H7N2O2+
142.025	7	C4H4N3O3+
170.056	44	C6H8N3O3+
