Mass spectrum: PharmaGSID_48505; LC-ESI-QFT; MS2; CE: 30; R=17500; [M-H]-
Name: PharmaGSID_48505
Name: 5-(2-chlorophenyl)-3-methyl-7-nitro-1,2-dihydropyrazolo[3,4-b][1,4]benzodiazepine
Formula: C17H12ClN5O2
Exact mass: 353.0680
SMILES: CC1=C2N=C(C3=CC=CC=C3Cl)C3=C(NC2=NN1)C=CC(=C3)[N+]([O-])=O
InChI: InChI=1S/C17H12ClN5O2/c1-9-15-17(22-21-9)19-14-7-6-10(23(24)25)8-12(14)16(20-15)11-4-2-3-5-13(11)18/h2-8H,1H3,(H2,19,21,22)
Instrument: Q Exactive Orbitrap (Thermo Scientific)
Instrument type: LC-ESI-QFT
Ms type: MS2
Ion mode: NEGATIVE
Ionization: ESI
Fragmentation mode: HCD
Collision energy: 30
Resolution: 17500
Column name: Acquity BEH C18 1.7um, 2.1x150mm (Waters)
Retention time: 17.775 min
Base peak: 112.9857
Precursor m/z: 352.0607
Precursor type: [M-H]-
Precursor intensity: 12724976.22461
m/z	relative intensity	assigned
147.02	7	C7H3N2O2-
241.0605	1	C11H7N5O2-
244.0516	4	C15H6N3O-
245.0595	13	C15H7N3O-
249.0545	1	C14H7N3O2-
254.0257	1	C14H7ClN2O-
257.0722	5	C17H9N2O-
258.0926	3	C16H10N4-
265.0413	3	C15H8ClN3-
270.0914	2	C17H10N4-
271.0625	1	C16H7N4O-
273.0542	1	C16H7N3O2-
273.0785	1	C16H9N4O-
276.0646	3	C15H8N4O2-
279.0332	13	C16H8ClN2O-
280.0284	1	C15H7ClN3O-
283.0155	1	C14H6ClN3O2-
284.0231	11	C14H7ClN3O2-
285.0783	21	C17H9N4O-
286.0862	7	C17H10N4O-
287.0943	2	C17H11N4O-
288.0783	3	C17H10N3O2-
293.049	1	C17H10ClN2O-
294.0316	3	C15H7ClN4O-
296.0232	5	C15H7ClN3O2-
297.0434	12	C16H10ClN2O2-
299.0813	4	C17H9N5O-
305.0602	1	C17H10ClN4-
309.0321	2	C16H8ClN3O2-
310.0245	3	C15H7ClN4O2-
311.0341	2	C15H8ClN4O2-
315.0758	4	C17H9N5O2-
316.0838	10	C17H10N5O2-
322.0596	7	C17H11ClN4O-
323.0465	1	C17H10ClN3O2-
324.0542	5	C17H11ClN3O2-
337.0375	3	C16H8ClN5O2-
352.0606	999	C17H11ClN5O2-
