Mass spectrum: Pantothenate; LC-ESI-QFT; MS2; CE: 15; R=17500; [M+H]+
Name: Pantothenate
Name: Pantothenic acid
Name: 3-[[(2R)-2,4-dihydroxy-3,3-dimethylbutanoyl]amino]propanoic acid
Formula: C9H17NO5
Exact mass: 219.1107
SMILES: CC(C)(CO)[C@@H](O)C(=O)NCCC(O)=O
InChI: InChI=1S/C9H17NO5/c1-9(2,5-11)7(14)8(15)10-4-3-6(12)13/h7,11,14H,3-5H2,1-2H3,(H,10,15)(H,12,13)/t7-/m0/s1
Instrument: Q Exactive Orbitrap (Thermo Scientific)
Instrument type: LC-ESI-QFT
Ms type: MS2
Ion mode: POSITIVE
Ionization: ESI
Fragmentation mode: HCD
Collision energy: 15
Resolution: 17500
Column name: Acquity BEH C18 1.7um, 2.1x150mm (Waters)
Retention time: 8.134 min
Base peak: 79.0211
Precursor m/z: 220.1179
Precursor type: [M+H]+
Precursor intensity: 6827733.5
m/z	relative intensity	assigned
57.0699	6	C4H9+
59.0492	6	C3H7O+
67.0544	3	C5H7+
69.0699	21	C5H9+
72.0444	44	C3H6NO+
85.0648	19	C5H9O+
86.0966	3	C5H12N+
87.0805	17	C5H11O+
90.055	986	C3H8NO2+
95.0491	11	C6H7O+
98.0237	21	C4H4NO2+
100.0394	10	C4H6NO2+
103.0754	56	C5H11O2+
113.0597	9	C6H9O2+
116.0343	138	C4H6NO3+
124.0758	27	C7H10NO+
131.0704	8	C6H11O3+
142.0862	27	C7H12NO2+
156.102	10	C8H14NO2+
160.0967	19	C7H14NO3+
166.0864	15	C9H12NO2+
172.0966	3	C8H14NO3+
174.1125	35	C8H16NO3+
184.0969	296	C9H14NO3+
189.9886	6	C9H2O5+
190.9855	3	C8HNO5+
202.1075	523	C9H16NO4+
220.118	999	C9H18NO5+
