Mass spectrum: 2-Amino-5-(5-nitro-2-furyl)-1,3,4-oxadiazole; LC-ESI-QFT; MS2; CE: 90; R=17500; [M+H]+
Name: 2-Amino-5-(5-nitro-2-furyl)-1,3,4-oxadiazole
Name: 5-(5-nitrofuran-2-yl)-1,3,4-oxadiazol-2-amine
Formula: C6H4N4O4
Exact mass: 196.0233
SMILES: NC1=NN=C(O1)C1=CC=C(O1)[N+]([O-])=O
InChI: InChI=1S/C6H4N4O4/c7-6-9-8-5(14-6)3-1-2-4(13-3)10(11)12/h1-2H,(H2,7,9)
Instrument: Q Exactive Orbitrap (Thermo Scientific)
Instrument type: LC-ESI-QFT
Ms type: MS2
Ion mode: POSITIVE
Ionization: ESI
Fragmentation mode: HCD
Collision energy: 90
Resolution: 17500
Column name: Acquity BEH C18 1.7um, 2.1x150mm (Waters)
Retention time: 11.208 min
Base peak: 79.0211
Precursor m/z: 197.0305
Precursor type: [M+H]+
Precursor intensity: 1162807.65625
m/z	relative intensity	assigned
52.0183	570	C3H2N+
52.0309	71	C4H4+
53.0023	339	C3HO+
53.0261	115	C3H3N+
54.0101	151	C3H2O+
54.0339	46	C3H4N+
55.0179	37	C3H3O+
66.01	219	C4H2O+
66.0338	137	C4H4N+
67.0416	81	C4H5N+
68.0256	71	C4H4O+
68.0369	154	C3H4N2+
68.997	35	C3HO2+
69.9923	31	C2NO2+
71.0128	32	C3H3O2+
78.0213	117	C4H2N2+
79.0179	216	C5H3O+
79.0291	584	C4H3N2+
80.0131	64	C4H2NO+
80.0369	643	C4H4N2+
82.005	999	C4H2O2+
86.0349	68	C2H4N3O+
94.0051	148	C5H2O2+
94.0289	52	C5H4NO+
108.0319	279	C5H4N2O+
123.0428	113	C5H5N3O+
137.0118	62	C6H3NO3+
155.0223	54	C6H5NO4+
169.0354	30	C5H5N4O3+
