Mass spectrum: CP-532623; LC-ESI-QFT; MS2; CE: 60; R=17500; [M-H]-
Name: CP-532623
Name: propan-2-yl (2R,4S)-4-[acetyl-[[3,5-bis(trifluoromethyl)phenyl]methyl]amino]-2-ethyl-6-(trifluoromethyl)-3,4-dihydro-2H-quinoline-1-carboxylate
Formula: C27H27F9N2O3
Exact mass: 598.1878
SMILES: CC[C@@H]1C[C@H](N(CC2=CC(=CC(=C2)C(F)(F)F)C(F)(F)F)C(C)=O)C2=C(C=CC(=C2)C(F)(F)F)N1C(=O)OC(C)C
InChI: InChI=1S/C27H27F9N2O3/c1-5-20-12-23(21-11-17(25(28,29)30)6-7-22(21)38(20)24(40)41-14(2)3)37(15(4)39)13-16-8-18(26(31,32)33)10-19(9-16)27(34,35)36/h6-11,14,20,23H,5,12-13H2,1-4H3/t20-,23+/m1/s1
Instrument: Q Exactive Orbitrap (Thermo Scientific)
Instrument type: LC-ESI-QFT
Ms type: MS2
Ion mode: NEGATIVE
Ionization: ESI
Fragmentation mode: HCD
Collision energy: 60
Resolution: 17500
Column name: Acquity BEH C18 1.7um, 2.1x150mm (Waters)
Retention time: 19.739 min
Base peak: 249.1496
Precursor m/z: 597.1805
Precursor type: [M-H]-
Precursor intensity: 1128091
m/z	relative intensity	assigned
57.0346	41	C3H5O-
58.0299	10	C2H4NO-
193.0083	15	C16H-
197.0451	14	C2H7F8N-
199.0253	35	C9H4F3NO-
212.0696	20	C11H9F3N-
213.0146	222	C16H2F-
222.0173	13	C11H3F3NO-
225.0406	52	C11H6F3NO-
227.0302	999	C17H4F-
229.0356	50	C10H6F3NO2-
234.0733	17	C5H11F7NO-
238.0851	9	C13H11F3N-
242.0235	37	C11H4F4NO-
253.0094	37	C10H3F6O-
254.0796	24	C5H12F8NO-
262.0296	30	C11H5F5NO-
267.0751	23	C13H10F3N2O-
375.0607	26	C21H9F6-
396.0449	24	C22H7F5NO-
436.0733	12	C25H12F4O3-
