Mass spectrum: CP-401387; LC-ESI-QFT; MS2; CE: 60; R=17500; [M+H]+
Name: CP-401387
Name: 4-cyano-4-(1-cyclohexyl-3-ethylindazol-6-yl)cyclohexane-1-carboxylic acid
Formula: C23H29N3O2
Exact mass: 379.2260
SMILES: CCC1=NN(C2CCCCC2)C2=C1C=CC(=C2)[C@]1(CC[C@@H](CC1)C(O)=O)C#N
InChI: InChI=1S/C23H29N3O2/c1-2-20-19-9-8-17(23(15-24)12-10-16(11-13-23)22(27)28)14-21(19)26(25-20)18-6-4-3-5-7-18/h8-9,14,16,18H,2-7,10-13H2,1H3,(H,27,28)/t16-,23-
Instrument: Q Exactive Orbitrap (Thermo Scientific)
Instrument type: LC-ESI-QFT
Ms type: MS2
Ion mode: POSITIVE
Ionization: ESI
Fragmentation mode: HCD
Collision energy: 60
Resolution: 17500
Column name: Acquity BEH C18 1.7um, 2.1x150mm (Waters)
Retention time: 19.050 min
Base peak: 79.0211
Precursor m/z: 380.2333
Precursor type: [M+H]+
Precursor intensity: 5789889.1875
m/z	relative intensity	assigned
53.0023	4	C3HO+
53.0386	11	C4H5+
55.0543	369	C4H7+
57.0699	10	C4H9+
58.0651	15	C3H8N+
65.0387	3	C5H5+
67.0542	5	C5H7+
69.0698	23	C5H9+
73.0284	2	C3H5O2+
74.0963	2	C4H12N+
77.0387	2	C6H5+
79.0542	371	C6H7+
81.0699	85	C6H9+
83.0855	114	C6H11+
91.0546	2	C7H7+
92.0495	28	C6H6N+
95.0492	9	C6H7O+
96.0446	2	C5H6NO+
97.0649	69	C6H9O+
104.0493	2	C7H6N+
105.0448	3	C6H5N2+
106.0652	72	C7H8N+
107.0493	16	C7H7O+
115.0544	2	C9H7+
118.0526	18	C7H6N2+
119.0605	216	C7H7N2+
120.0811	2	C8H10N+
124.0758	2	C7H10NO+
125.0598	56	C7H9O2+
130.0653	4	C9H8N+
131.0605	184	C8H7N2+
132.0683	52	C8H8N2+
134.06	3	C8H8NO+
142.0651	4	C10H8N+
143.0858	6	C11H11+
144.0681	2	C9H8N2+
145.0762	57	C9H9N2+
146.084	314	C9H10N2+
147.0917	999	C9H11N2+
153.0702	5	C12H9+
155.0602	13	C10H7N2+
155.0728	2	C11H9N+
156.0686	2	C10H8N2+
157.0762	3	C10H9N2+
159.0918	504	C10H11N2+
160.0998	3	C10H12N2+
168.0685	2	C11H8N2+
168.081	3	C12H10N+
169.0762	17	C11H9N2+
170.0966	36	C12H12N+
171.0919	5	C11H11N2+
173.1076	6	C11H13N2+
180.0808	4	C13H10N+
181.0764	2	C12H9N2+
182.0714	4	C11H8N3+
182.084	6	C12H10N2+
182.0966	6	C13H12N+
183.0918	25	C12H11N2+
184.0873	11	C11H10N3+
184.0995	14	C12H12N2+
185.0952	4	C11H11N3+
185.1073	15	C12H13N2+
186.1153	10	C12H14N2+
193.0891	2	C14H11N+
195.0916	2	C13H11N2+
196.0997	11	C13H12N2+
196.1112	4	C14H14N+
197.1075	141	C13H13N2+
198.1029	9	C12H12N3+
199.123	15	C13H15N2+
207.0925	3	C14H11N2+
208.1123	39	C15H14N+
209.1072	2	C14H13N2+
210.1029	33	C13H12N3+
210.1153	14	C14H14N2+
211.1106	11	C13H13N3+
211.1218	3	C14H15N2+
212.2378	8	C14H30N+
223.1225	4	C15H15N2+
224.1184	28	C14H14N3+
225.1388	491	C15H17N2+
227.1548	4	C15H19N2+
235.1233	10	C16H15N2+
252.1496	100	C16H18N3+
253.1335	27	C16H17N2O+
270.1237	31	C15H16N3O2+
271.1442	120	C16H19N2O2+
283.1319	12	C16H17N3O2+
298.1552	739	C17H20N3O2+
