Mass spectrum: PharmaGSID_47263; LC-ESI-QFT; MS2; CE: 75; R=17500; [M+H]+
Name: PharmaGSID_47263
Name: 1-Ethyl-5-(4-hydroxyphenyl)-3-methyl-6,7-dihydropyrazolo(4,3-E)(1,4)diazepin-8(1H)-one
Name: 1-ethyl-5-(4-hydroxyphenyl)-3-methyl-6,7-dihydropyrazolo[4,3-e][1,4]diazepin-8-one
Formula: C15H16N4O2
Exact mass: 284.1273
SMILES: CCN1N=C(C)C2=C1C(=O)NCC(=N2)C1=CC=C(O)C=C1
InChI: InChI=1S/C15H16N4O2/c1-3-19-14-13(9(2)18-19)17-12(8-16-15(14)21)10-4-6-11(20)7-5-10/h4-7,20H,3,8H2,1-2H3,(H,16,21)
Instrument: Q Exactive Orbitrap (Thermo Scientific)
Instrument type: LC-ESI-QFT
Ms type: MS2
Ion mode: POSITIVE
Ionization: ESI
Fragmentation mode: HCD
Collision energy: 75
Resolution: 17500
Column name: Acquity BEH C18 1.7um, 2.1x150mm (Waters)
Retention time: 15.033 min
Base peak: 79.0212
Precursor m/z: 285.1346
Precursor type: [M+H]+
Precursor intensity: 7002137.75
m/z	relative intensity	assigned
50.0152	1	C4H2+
52.0182	7	C3H2N+
53.0022	13	C3HO+
53.0386	32	C4H5+
53.9975	2	C2NO+
54.0338	24	C3H4N+
55.018	5	C3H3O+
55.0291	5	C2H3N2+
55.0541	4	C4H7+
56.0495	72	C3H6N+
58.0652	2	C3H8N+
64.0182	2	C4H2N+
65.0385	19	C5H5+
66.0338	8	C4H4N+
67.029	12	C3H3N2+
67.0416	7	C4H5N+
68.0131	7	C3H2NO+
68.0494	40	C4H6N+
69.0447	12	C3H5N2+
70.0652	3	C4H8N+
77.0384	9	C6H5+
77.9975	2	C4NO+
78.0338	18	C5H4N+
79.0178	64	C5H3O+
79.029	35	C4H3N2+
79.0542	56	C6H7+
80.0131	10	C4H2NO+
80.0494	43	C5H6N+
81.0335	5	C5H5O+
81.0447	64	C4H5N2+
82.0287	15	C4H4NO+
82.0525	9	C4H6N2+
82.0651	10	C5H8N+
83.0603	53	C4H7N2+
84.0445	3	C4H6NO+
84.0681	3	C4H8N2+
85.076	7	C4H9N2+
89.0387	4	C7H5+
91.0291	2	C5H3N2+
91.0542	34	C7H7+
92.0494	16	C6H6N+
93.0448	15	C5H5N2+
94.0289	2	C5H4NO+
94.0403	7	C4H4N3+
94.0525	3	C5H6N2+
94.0654	10	C6H8N+
95.0491	92	C6H7O+
95.0604	37	C5H7N2+
96.0442	9	C5H6NO+
96.0556	16	C4H6N3+
96.068	3	C5H8N2+
96.0808	5	C6H10N+
97.0394	2	C4H5N2O+
97.0635	7	C4H7N3+
97.0758	2	C5H9N2+
98.0714	3	C4H8N3+
103.0543	4	C8H7+
104.0494	32	C7H6N+
105.0336	5	C7H5O+
105.0448	79	C6H5N2+
105.07	6	C8H9+
106.04	5	C5H4N3+
106.0524	7	C6H6N2+
106.0651	26	C7H8N+
107.0491	999	C7H7O+
108.0556	26	C5H6N3+
108.0681	5	C6H8N2+
109.0396	233	C5H5N2O+
109.076	22	C6H9N2+
110.06	5	C6H8NO+
110.0711	6	C5H8N3+
111.0441	12	C6H7O2+
111.0917	56	C6H11N2+
115.0542	15	C9H7+
116.0495	7	C8H6N+
117.0446	2	C7H5N2+
117.0573	6	C8H7N+
117.0699	4	C9H9+
118.0406	17	C6H4N3+
118.0651	5	C8H8N+
119.024	16	C6H3N2O+
119.0492	59	C8H7O+
119.0602	24	C7H7N2+
120.0445	100	C7H6NO+
120.0556	151	C6H6N3+
121.0284	76	C7H5O2+
121.0395	25	C6H5N2O+
121.0761	14	C7H9N2+
122.0348	15	C5H4N3O+
122.0601	47	C7H8NO+
122.0712	80	C6H8N3+
123.0552	5	C6H7N2O+
123.0793	2	C6H9N3+
123.0919	2	C7H11N2+
124.0505	10	C5H6N3O+
124.087	54	C6H10N3+
125.0947	5	C6H11N3+
126.0422	3	C5H6N2O2+
126.1027	17	C6H12N3+
127.0504	7	C5H7N2O2+
128.0493	2	C9H6N+
128.0617	2	C10H8+
129.0447	5	C8H5N2+
129.0699	7	C10H9+
130.0401	2	C7H4N3+
130.065	9	C9H8N+
131.0492	21	C9H7O+
131.0603	13	C8H7N2+
131.0726	1	C9H9N+
132.0444	224	C8H6NO+
133.0397	7	C7H5N2O+
133.0519	147	C8H7NO+
133.0636	10	C7H7N3+
134.0348	26	C6H4N3O+
134.0599	57	C8H8NO+
135.0551	2	C7H7N2O+
135.0666	3	C6H7N4+
136.0505	27	C6H6N3O+
136.0756	6	C8H10NO+
136.0869	7	C7H10N3+
136.1121	1	C9H14N+
137.0709	62	C7H9N2O+
139.05	3	C6H7N2O2+
140.0495	3	C10H6N+
142.0654	5	C10H8N+
144.0444	10	C9H6NO+
144.0559	6	C8H6N3+
144.0805	5	C10H10N+
145.0645	7	C10H9O+
146.0602	40	C9H8NO+
146.071	38	C8H8N3+
147.0554	55	C8H7N2O+
147.0664	62	C7H7N4+
148.0392	111	C8H6NO2+
148.0505	7	C7H6N3O+
148.0746	9	C7H8N4+
148.0868	29	C8H10N3+
149.0584	54	C7H7N3O+
149.0823	14	C7H9N4+
150.0553	9	C8H8NO2+
150.0661	21	C7H8N3O+
151.0501	8	C7H7N2O2+
151.0614	20	C6H7N4O+
152.0454	371	C6H6N3O2+
153.0696	3	C12H9+
154.0654	6	C11H8N+
155.0604	6	C10H7N2+
155.0727	3	C11H9N+
156.0684	3	C10H8N2+
156.0808	7	C11H10N+
157.0511	5	C8H5N4+
157.0649	3	C11H9O+
157.0752	2	C10H9N2+
158.0477	4	C9H6N2O+
158.0594	22	C8H6N4+
159.0557	11	C9H7N2O+
159.0678	28	C10H9NO+
160.0634	9	C9H8N2O+
160.0757	19	C10H10NO+
161.071	23	C9H9N2O+
161.0826	5	C8H9N4+
162.0548	4	C9H8NO2+
162.0662	5	C8H8N3O+
163.0613	50	C7H7N4O+
164.0817	15	C8H10N3O+
165.0659	2	C8H9N2O2+
165.0775	4	C7H9N4O+
166.0608	38	C7H8N3O2+
167.0728	4	C12H9N+
168.0809	2	C12H10N+
169.0508	4	C9H5N4+
169.076	5	C11H9N2+
170.0602	12	C11H8NO+
171.0552	6	C10H7N2O+
172.0395	3	C10H6NO2+
172.0628	7	C10H8N2O+
172.0756	43	C11H10NO+
173.0709	50	C10H9N2O+
173.0831	9	C9H9N4+
174.0662	53	C9H8N3O+
174.0783	13	C10H10N2O+
175.05	8	C9H7N2O2+
175.0859	3	C10H11N2O+
176.0692	111	C8H8N4O+
180.0772	7	C8H10N3O2+
181.0725	6	C7H9N4O2+
182.06	5	C12H8NO+
182.0838	12	C12H10N2+
183.068	19	C12H9NO+
184.0637	2	C11H8N2O+
184.0755	20	C12H10NO+
184.0853	2	C11H10N3+
185.0709	32	C11H9N2O+
185.0836	15	C12H11NO+
186.0661	4	C10H8N3O+
186.0785	9	C11H10N2O+
187.0865	27	C11H11N2O+
188.082	6	C10H10N3O+
191.0927	15	C9H11N4O+
192.077	3	C9H10N3O2+
195.0555	2	C12H7N2O+
196.0753	2	C13H10NO+
196.0994	3	C13H12N2+
197.0709	16	C12H9N2O+
197.1072	8	C13H13N2+
198.0669	2	C11H8N3O+
198.0789	11	C12H10N2O+
198.0913	4	C13H12NO+
199.0757	3	C13H11O2+
199.0864	23	C12H11N2O+
200.0818	42	C11H10N3O+
200.0938	5	C12H12N2O+
201.1023	12	C12H13N2O+
202.0967	4	C11H12N3O+
209.0708	5	C13H9N2O+
210.0686	2	C14H10O2+
210.0786	13	C13H10N2O+
211.0866	2	C13H11N2O+
212.0818	22	C12H10N3O+
213.0656	2	C12H9N2O2+
213.0897	6	C12H11N3O+
213.101	2	C13H13N2O+
214.0971	12	C12H12N3O+
215.1175	4	C13H15N2O+
223.0869	3	C14H11N2O+
224.0941	4	C14H12N2O+
225.1021	15	C14H13N2O+
226.0971	2	C13H12N3O+
227.0929	3	C12H11N4O+
228.0767	2	C12H10N3O2+
228.1129	21	C13H14N3O+
240.0768	4	C13H10N3O2+
240.1138	2	C14H14N3O+
242.1156	3	C13H14N4O+
242.129	2	C14H16N3O+
255.0867	2	C13H11N4O2+
257.1036	5	C13H13N4O2+
