Mass spectrum: UK-416244; LC-ESI-QFT; MS2; CE: 90; R=17500; [M+H]+
Name: UK-416244
Name: 3-((Dimethylamino)methyl)-4-(3-methyl-4-(methylthio)phenoxy)benzenesulfonamide
Name: 3-[(dimethylamino)methyl]-4-(3-methyl-4-methylsulfanylphenoxy)benzenesulfonamide
Formula: C17H22N2O3S2
Exact mass: 366.1072
SMILES: CSC1=CC=C(OC2=CC=C(C=C2CN(C)C)S(N)(=O)=O)C=C1C
InChI: InChI=1S/C17H22N2O3S2/c1-12-9-14(5-8-17(12)23-4)22-16-7-6-15(24(18,20)21)10-13(16)11-19(2)3/h5-10H,11H2,1-4H3,(H2,18,20,21)
Instrument: Q Exactive Orbitrap (Thermo Scientific)
Instrument type: LC-ESI-QFT
Ms type: MS2
Ion mode: POSITIVE
Ionization: ESI
Fragmentation mode: HCD
Collision energy: 90
Resolution: 17500
Column name: Acquity BEH C18 1.7um, 2.1x150mm (Waters)
Retention time: 13.853 min
Base peak: 79.0212
Precursor m/z: 367.1145
Precursor type: [M+H]+
Precursor intensity: 16830714.90625
m/z	relative intensity	assigned
63.9852	2	H2NOS+
65.0386	2	C5H5+
67.0541	2	C5H7+
94.0652	4	C6H8N+
95.0492	3	C6H7O+
115.0542	10	C9H7+
122.06	1	C7H8NO+
128.0621	5	C10H8+
129.0698	3	C10H9+
139.0541	4	C11H7+
141.0699	47	C11H9+
151.0545	1	C12H7+
152.0621	188	C12H8+
153.0699	9	C12H9+
155.0855	6	C12H11+
156.057	10	C11H8O+
156.0807	8	C11H10N+
164.0622	1	C13H8+
165.07	310	C13H9+
166.0777	93	C13H10+
167.073	3	C12H9N+
167.0856	13	C13H11+
168.057	106	C12H8O+
169.0648	52	C12H9O+
170.0726	6	C12H10O+
176.0621	3	C14H8+
179.0492	97	C13H7O+
180.057	421	C13H8O+
181.0648	26	C13H9O+
182.0727	69	C13H10O+
183.0442	16	C12H7O2+
183.0678	7	C12H9NO+
183.0805	19	C13H11O+
184.0344	3	C12H8S+
184.052	50	C12H8O2+
184.0758	31	C12H10NO+
193.065	96	C14H9O+
194.0728	543	C14H10O+
195.0805	464	C14H11O+
196.0522	4	C13H8O2+
196.0758	39	C13H10NO+
197.0598	139	C13H9O2+
198.0676	46	C13H10O2+
198.0914	20	C13H12NO+
208.0883	2	C15H12O+
209.0836	5	C14H11NO+
209.0958	1	C15H13O+
210.0676	8	C14H10O2+
210.0915	24	C14H12NO+
211.0754	85	C14H11O2+
212.0468	999	C13H8O3+
214.0521	5	C15H6N2+
225.0368	12	C14H9OS+
225.0546	7	C14H9O3+
226.0458	60	C11H14OS2+
226.0624	989	C14H10O3+
227.0525	24	C14H11OS+
228.0239	3	C13H8O2S+
241.0681	27	C15H13OS+
242.04	6	C14H10O2S+
243.0474	1	C14H11O2S+
244.0189	9	C13H8O3S+
257.0267	5	C14H9O3S+
258.0346	32	C14H10O3S+
259.0429	1	C14H11O3S+
260.0376	412	C13H10NO3S+
261.0451	1	C13H11NO3S+
272.0498	1	C15H12O3S+
273.0457	1	C14H11NO3S+
274.0532	334	C14H12NO3S+
291.0018	1	C13H9NO3S2+
292.0101	4	C13H10NO3S2+
305.0177	2	C14H11NO3S2+
306.0254	13	C14H12NO3S2+
