Mass spectrum: Dimetilan; LC-ESI-QFT; MS2; CE: 75; R=17500; [M+H]+
Name: Dimetilan
Name: [1-(dimethylcarbamoyl)-5-methylpyrazol-3-yl] N,N-dimethylcarbamate
Formula: C10H16N4O3
Exact mass: 240.1222
SMILES: CN(C)C(=O)OC1=NN(C(=O)N(C)C)C(C)=C1
InChI: InChI=1S/C10H16N4O3/c1-7-6-8(17-10(16)13(4)5)11-14(7)9(15)12(2)3/h6H,1-5H3
Instrument: Q Exactive Orbitrap (Thermo Scientific)
Instrument type: LC-ESI-QFT
Ms type: MS2
Ion mode: POSITIVE
Ionization: ESI
Fragmentation mode: HCD
Collision energy: 75
Resolution: 17500
Column name: Acquity BEH C18 1.7um, 2.1x150mm (Waters)
Retention time: 13.181 min
Base peak: 79.0211
Precursor m/z: 241.1295
Precursor type: [M+H]+
Precursor intensity: 18141886.1875
m/z	relative intensity	assigned
56.0131	14	C2H2NO+
72.0443	999	C3H6NO+
