Mass spectrum: Butralin; LC-ESI-QFT; MS2; CE: 45; R=17500; [M+H]+
Name: Butralin
Formula: C14H21N3O4
Exact mass: 295.1532
SMILES: CCC(C)NC1=C(C=C(C=C1[N+]([O-])=O)C(C)(C)C)[N+]([O-])=O
InChI: InChI=1S/C14H21N3O4/c1-6-9(2)15-13-11(16(18)19)7-10(14(3,4)5)8-12(13)17(20)21/h7-9,15H,6H2,1-5H3
Instrument: Q Exactive Orbitrap (Thermo Scientific)
Instrument type: LC-ESI-QFT
Ms type: MS2
Ion mode: POSITIVE
Ionization: ESI
Fragmentation mode: HCD
Collision energy: 45
Resolution: 17500
Column name: Acquity BEH C18 1.7um, 2.1x150mm (Waters)
Retention time: 20.167 min
Base peak: 79.0211
Precursor m/z: 296.1605
Precursor type: [M+H]+
Precursor intensity: 1323302.90625
m/z	relative intensity	assigned
57.0699	242	C4H9+
117.0699	132	C9H9+
119.0857	47	C9H11+
132.081	48	C9H10N+
133.1011	36	C10H13+
145.1014	153	C11H13+
147.1169	999	C11H15+
159.0916	49	C10H11N2+
161.0711	49	C9H9N2O+
208.0718	51	C9H10N3O3+
222.0876	666	C10H12N3O3+
223.0952	143	C10H13N3O3+
225.0732	27	C9H11N3O4+
240.0982	376	C10H14N3O4+
