Mass spectrum: Oxycarboxin; LC-ESI-QFT; MS2; CE: 75; R=17500; [M-H]-
Name: Oxycarboxin
Name: 6-methyl-4,4-dioxo-N-phenyl-2,3-dihydro-1,4-oxathiine-5-carboxamide
Formula: C12H13NO4S
Exact mass: 267.0565
SMILES: CC1=C(C(=O)NC2=CC=CC=C2)S(=O)(=O)CCO1
InChI: InChI=1S/C12H13NO4S/c1-9-11(18(15,16)8-7-17-9)12(14)13-10-5-3-2-4-6-10/h2-6H,7-8H2,1H3,(H,13,14)
Instrument: Q Exactive Orbitrap (Thermo Scientific)
Instrument type: LC-ESI-QFT
Ms type: MS2
Ion mode: NEGATIVE
Ionization: ESI
Fragmentation mode: HCD
Collision energy: 75
Resolution: 17500
Column name: Acquity BEH C18 1.7um, 2.1x150mm (Waters)
Retention time: 13.600 min
Base peak: 112.9857
Precursor m/z: 266.0493
Precursor type: [M-H]-
Precursor intensity: 583326.623291
m/z	relative intensity	assigned
57.0345	999	C3H5O-
60.9753	73	CHOS-
63.9624	92	O2S-
78.9859	120	CH3O2S-
83.0138	35	C4H3O2-
83.0503	316	C5H7O-
92.0476	30	C3H8O3-
92.0506	412	C6H6N-
120.9964	42	C3H5O3S-
