Mass spectrum: Dantrolene; LC-ESI-QFT; MS2; CE: 60; R=17500; [M-H]-
Name: Dantrolene
Name: 1-({[5-(4-Nitrophenyl)furan-2-yl]methylidene}amino)imidazolidine-2,4-dione
Name: 1-[[5-(4-nitrophenyl)furan-2-yl]methylideneamino]imidazolidine-2,4-dione
Formula: C14H10N4O5
Exact mass: 314.0651
SMILES: [O-][N+](=O)C1=CC=C(C=C1)C1=CC=C(O1)C=NN1CC(=O)NC1=O
InChI: InChI=1S/C14H10N4O5/c19-13-8-17(14(20)16-13)15-7-11-5-6-12(23-11)9-1-3-10(4-2-9)18(21)22/h1-7H,8H2,(H,16,19,20)
Instrument: Q Exactive Orbitrap (Thermo Scientific)
Instrument type: LC-ESI-QFT
Ms type: MS2
Ion mode: NEGATIVE
Ionization: ESI
Fragmentation mode: HCD
Collision energy: 60
Resolution: 17500
Column name: Acquity BEH C18 1.7um, 2.1x150mm (Waters)
Retention time: 15.460 min
Base peak: 165.0556
Precursor m/z: 313.0578
Precursor type: [M-H]-
Precursor intensity: 10622776.24414
m/z	relative intensity	assigned
91.019	138	C6H3O-
99.0201	66	C3H3N2O2-
116.0269	12	C8H4O-
117.0346	11	C8H5O-
122.0248	69	C6H4NO2-
141.0345	13	C10H5O-
142.0423	14	C10H6O-
145.0296	34	C9H5O2-
146.0248	999	C8H4NO2-
155.0503	48	C11H7O-
158.0369	9	C10H6O2-
169.0294	13	C11H5O2-
170.0372	26	C11H6O2-
172.0406	23	C10H6NO2-
183.033	17	C11H5NO2-
183.0452	29	C12H7O2-
184.0404	15	C11H6NO2-
192.0299	11	C9H6NO4-
200.0354	271	C11H6NO3-
214.0514	17	C12H8NO3-
215.0465	9	C11H7N2O3-
