Mass spectrum: Cyproterone acetate; LC-ESI-QFT; MS2; CE: 30; R=17500; [M+H]+
Name: Cyproterone acetate
Name: [(1S,2S,3S,5R,11R,12S,15R,16S)-15-acetyl-9-chloro-2,16-dimethyl-6-oxo-15-pentacyclo[9.7.0.02,8.03,5.012,16]octadeca-7,9-dienyl] acetate
Formula: C24H29ClO4
Exact mass: 416.1754
SMILES: CC(=O)O[C@@]1(CC[C@H]2[C@@H]3C=C(Cl)C4=CC(=O)[C@@H]5C[C@@H]5[C@]4(C)[C@H]3CC[C@]12C)C(C)=O
InChI: InChI=1S/C24H29ClO4/c1-12(26)24(29-13(2)27)8-6-16-14-10-20(25)19-11-21(28)15-9-18(15)23(19,4)17(14)5-7-22(16,24)3/h10-11,14-18H,5-9H2,1-4H3/t14-,15+,16-,17-,18-,22-,23-,24-/m0/s1
Instrument: Q Exactive Orbitrap (Thermo Scientific)
Instrument type: LC-ESI-QFT
Ms type: MS2
Ion mode: POSITIVE
Ionization: ESI
Fragmentation mode: HCD
Collision energy: 30
Resolution: 17500
Column name: Acquity BEH C18 1.7um, 2.1x150mm (Waters)
Retention time: 18.263 min
Base peak: 79.0211
Precursor m/z: 417.1827
Precursor type: [M+H]+
Precursor intensity: 4373561.375
m/z	relative intensity	assigned
55.0178	10	C3H3O+
59.0491	15	C3H7O+
67.0542	14	C5H7+
69.0333	14	C4H5O+
69.0698	12	C5H9+
71.049	12	C4H7O+
79.0541	9	C6H7+
81.0699	54	C6H9+
83.0491	13	C5H7O+
85.0282	31	C4H5O2+
85.0649	41	C5H9O+
91.0542	31	C7H7+
93.0699	65	C7H9+
95.049	31	C6H7O+
95.0856	55	C7H11+
97.0649	46	C6H9O+
99.0806	40	C6H11O+
105.0699	68	C8H9+
107.049	10	C7H7O+
107.0856	109	C8H11+
109.0647	21	C7H9O+
109.1012	48	C8H13+
111.0805	8	C7H11O+
117.0699	15	C9H9+
119.0855	89	C9H11+
121.0648	67	C8H9O+
121.1012	96	C9H13+
123.0804	28	C8H11O+
123.1167	29	C9H15+
129.0697	20	C10H9+
131.0856	103	C10H11+
133.1012	408	C10H13+
135.0803	28	C9H11O+
135.1168	36	C10H15+
141.0464	16	C8H10Cl+
141.0697	13	C11H9+
143.0855	57	C11H11+
145.0648	62	C10H9O+
145.1012	232	C11H13+
147.0804	101	C10H11O+
147.1169	779	C11H15+
149.0962	41	C10H13O+
151.1116	34	C10H15O+
153.0464	13	C9H10Cl+
155.0257	16	C8H8ClO+
155.0621	15	C9H12Cl+
155.0854	43	C12H11+
157.0416	54	C8H10ClO+
157.0648	11	C11H9O+
157.1012	85	C12H13+
159.0807	46	C11H11O+
159.1169	98	C12H15+
161.0961	43	C11H13O+
161.1324	14	C12H17+
163.0307	8	C10H8Cl+
163.075	19	C10H11O2+
163.1116	44	C11H15O+
165.0467	14	C10H10Cl+
167.0261	34	C9H8ClO+
167.0618	11	C10H12Cl+
167.0855	14	C13H11+
169.0414	30	C9H10ClO+
169.1012	57	C13H13+
171.0808	57	C12H11O+
171.1169	74	C13H15+
173.096	46	C12H13O+
173.1325	20	C13H17+
175.0755	18	C11H11O2+
175.1118	220	C12H15O+
177.0468	48	C11H10Cl+
177.1272	42	C12H17O+
179.0258	12	C10H8ClO+
179.0856	11	C14H11+
181.0415	183	C10H10ClO+
181.0779	113	C11H14Cl+
181.1012	36	C14H13+
183.0572	81	C10H12ClO+
183.0805	17	C13H11O+
183.1171	106	C14H15+
184.1248	7	C14H16+
185.0961	123	C13H13O+
185.1324	18	C14H17+
187.0757	47	C12H11O2+
187.1122	36	C13H15O+
189.0465	26	C12H10Cl+
189.0911	33	C12H13O2+
189.1274	69	C13H17O+
191.0259	19	C11H8ClO+
191.0622	21	C12H12Cl+
193.0418	49	C11H10ClO+
193.0776	12	C12H14Cl+
193.1015	35	C15H13+
195.0571	68	C11H12ClO+
195.08	16	C14H11O+
195.117	71	C15H15+
196.1245	15	C15H16+
197.0964	46	C14H13O+
197.1324	39	C15H17+
199.1117	34	C14H15O+
201.1275	141	C14H17O+
203.0621	24	C13H12Cl+
205.0416	180	C12H10ClO+
205.078	19	C13H14Cl+
205.1015	14	C16H13+
207.0573	47	C12H12ClO+
207.1165	33	C16H15+
209.0966	36	C15H13O+
209.1323	29	C16H17+
211.1115	19	C15H15O+
213.1277	22	C15H17O+
215.0617	19	C14H12Cl+
217.0778	25	C14H14Cl+
217.1016	8	C17H13+
218.1096	8	C17H14+
219.0573	157	C13H12ClO+
219.0934	24	C14H16Cl+
219.1172	48	C17H15+
220.1248	15	C17H16+
221.0728	26	C13H14ClO+
221.1323	70	C17H17+
223.1118	34	C16H15O+
223.1481	14	C17H19+
225.1277	23	C16H17O+
227.0626	11	C15H12Cl+
227.1067	39	C15H15O2+
229.0779	20	C15H14Cl+
231.0578	16	C14H12ClO+
231.0935	25	C15H16Cl+
231.1168	20	C18H15+
232.1253	9	C18H16+
233.0732	12	C14H14ClO+
233.1326	43	C18H17+
234.1414	8	C18H18+
235.0888	60	C14H16ClO+
235.1114	48	C17H15O+
235.1484	109	C18H19+
236.1557	15	C18H20+
237.1275	85	C17H17O+
237.1639	57	C18H21+
238.1346	10	C17H18O+
241.0777	8	C16H14Cl+
243.0575	7	C15H12ClO+
243.0938	17	C16H16Cl+
244.101	17	C16H17Cl+
245.0729	29	C15H14ClO+
245.1093	28	C16H18Cl+
245.1325	31	C19H17+
246.1403	29	C19H18+
247.1114	16	C18H15O+
247.1481	41	C19H19+
248.1205	10	C18H16O+
248.1551	14	C19H20+
249.1275	45	C18H17O+
249.1639	69	C19H21+
250.1353	26	C18H18O+
250.1718	38	C19H22+
251.1428	99	C18H19O+
251.1792	60	C19H23+
252.1507	11	C18H20O+
253.1587	26	C18H21O+
255.0941	38	C17H16Cl+
257.0721	9	C16H14ClO+
257.1088	34	C17H18Cl+
259.0881	14	C16H16ClO+
259.1482	26	C20H19+
260.1556	41	C20H20+
261.1272	16	C19H17O+
261.1639	229	C20H21+
262.1352	12	C19H18O+
262.1721	13	C20H22+
263.1431	191	C19H19O+
264.151	31	C19H20O+
265.1587	9	C19H21O+
267.0937	11	C18H16Cl+
269.0725	19	C17H14ClO+
269.1082	13	C18H18Cl+
270.14	10	C21H18+
271.0883	17	C17H16ClO+
271.1239	39	C18H20Cl+
273.1036	35	C17H18ClO+
275.1433	20	C20H19O+
275.1792	44	C21H23+
277.1588	378	C20H21O+
278.1665	309	C20H22O+
279.1744	999	C20H23O+
281.1095	19	C19H18Cl+
285.1041	19	C18H18ClO+
285.164	26	C22H21+
288.1506	25	C21H20O+
295.1255	15	C20H20Cl+
297.1406	92	C20H22Cl+
299.12	120	C19H20ClO+
303.1744	270	C22H23O+
306.1621	14	C21H22O2+
313.1355	827	C20H22ClO+
314.1433	563	C20H23ClO+
315.151	522	C20H24ClO+
321.185	673	C22H25O2+
339.151	115	C22H24ClO+
357.1617	738	C22H26ClO2+
417.1829	647	C24H30ClO4+
