Mass spectrum: Bezafibrate; LC-ESI-QFT; MS2; CE: 30; R=17500; [M+H]+
Name: Bezafibrate
Name: 2-[4-[2-[(4-chlorobenzoyl)amino]ethyl]phenoxy]-2-methylpropanoic acid
Formula: C19H20ClNO4
Exact mass: 361.1081
SMILES: CC(C)(OC1=CC=C(CCNC(=O)C2=CC=C(Cl)C=C2)C=C1)C(O)=O
InChI: InChI=1S/C19H20ClNO4/c1-19(2,18(23)24)25-16-9-3-13(4-10-16)11-12-21-17(22)14-5-7-15(20)8-6-14/h3-10H,11-12H2,1-2H3,(H,21,22)(H,23,24)
Instrument: Q Exactive Orbitrap (Thermo Scientific)
Instrument type: LC-ESI-QFT
Ms type: MS2
Ion mode: POSITIVE
Ionization: ESI
Fragmentation mode: HCD
Collision energy: 30
Resolution: 17500
Column name: Acquity BEH C18 1.7um, 2.1x150mm (Waters)
Retention time: 17.333 min
Base peak: 79.0211
Precursor m/z: 362.1154
Precursor type: [M+H]+
Precursor intensity: 12310436.625
m/z	relative intensity	assigned
59.0491	15	C3H7O+
69.0334	24	C4H5O+
87.044	46	C4H7O2+
91.0543	1	C7H7+
93.0698	2	C7H9+
103.0542	1	C8H7+
110.9997	2	C6H4Cl+
119.0854	3	C9H11+
120.0569	6	C8H8O+
121.0647	427	C8H9O+
133.0649	1	C9H9O+
133.1009	1	C10H13+
136.0752	1	C8H10NO+
138.9944	999	C7H4ClO+
156.0205	2	C10H4O2+
161.096	191	C11H13O+
171.0805	1	C12H11O+
178.1226	9	C11H16NO+
182.0369	3	C9H9ClNO+
189.0909	18	C12H13O2+
207.1015	34	C12H15O3+
276.0785	217	C15H15ClNO2+
299.083	4	C18H16ClO2+
316.1098	327	C18H19ClNO2+
326.0945	5	C19H17ClNO2+
344.1045	6	C19H19ClNO3+
348.0089	1	C19H7ClNO4+
362.1151	2	C19H21ClNO4+
