Mass spectrum: Dulcin; LC-ESI-QFT; MS2; CE: 90; R=17500; [M+H]+
Name: Dulcin
Name: (4-ethoxyphenyl)urea
Formula: C9H12N2O2
Exact mass: 180.0899
SMILES: CCOC1=CC=C(NC(N)=O)C=C1
InChI: InChI=1S/C9H12N2O2/c1-2-13-8-5-3-7(4-6-8)11-9(10)12/h3-6H,2H2,1H3,(H3,10,11,12)
Instrument: Q Exactive Orbitrap (Thermo Scientific)
Instrument type: LC-ESI-QFT
Ms type: MS2
Ion mode: POSITIVE
Ionization: ESI
Fragmentation mode: HCD
Collision energy: 90
Resolution: 17500
Column name: Acquity BEH C18 1.7um, 2.1x150mm (Waters)
Retention time: 13.186 min
Base peak: 79.0211
Precursor m/z: 181.0972
Precursor type: [M+H]+
Precursor intensity: 11708497.59375
m/z	relative intensity	assigned
53.0386	14	C4H5+
55.0179	2	C3H3O+
55.0542	5	C4H7+
63.0228	2	C5H3+
65.0386	612	C5H5+
67.0417	20	C4H5N+
67.0542	10	C5H7+
68.013	15	C3H2NO+
68.0496	1	C4H6N+
74.0963	1	C4H12N+
80.0495	60	C5H6N+
81.0335	273	C5H5O+
81.0573	18	C5H7N+
82.0651	68	C5H8N+
83.0492	3	C5H7O+
90.034	7	C6H4N+
91.0543	7	C7H7+
92.0495	151	C6H6N+
93.0335	76	C6H5O+
93.0574	92	C6H7N+
94.0413	2	C6H6O+
94.0652	2	C6H8N+
95.0491	13	C6H7O+
97.0075	1	C8H+
105.0449	5	C6H5N2+
108.0444	999	C6H6NO+
109.0523	83	C6H7NO+
110.0601	320	C6H8NO+
111.0441	238	C6H7O2+
121.0287	2	C7H5O2+
121.0397	27	C6H5N2O+
124.0758	2	C7H10NO+
125.0599	9	C7H9O2+
135.0314	1	C7H5NO2+
135.0437	1	C8H7O2+
135.0683	2	C8H9NO+
136.0394	4	C7H6NO2+
136.0764	10	C8H10NO+
137.0834	1	C8H11NO+
138.0913	9	C8H12NO+
164.07	1	C9H10NO2+
