Mass spectrum: Imazapic; LC-ESI-QFT; MS2; CE: 75; R=17500; [M-H]-
Name: Imazapic
Name: 5-methyl-2-(4-methyl-5-oxo-4-propan-2-yl-1H-imidazol-2-yl)pyridine-3-carboxylic acid
Formula: C14H17N3O3
Exact mass: 275.1270
SMILES: CC(C)C1(C)NC(=NC1=O)C1=NC=C(C)C=C1C(O)=O
InChI: InChI=1S/C14H17N3O3/c1-7(2)14(4)13(20)16-11(17-14)10-9(12(18)19)5-8(3)6-15-10/h5-7H,1-4H3,(H,18,19)(H,16,17,20)
Instrument: Q Exactive Orbitrap (Thermo Scientific)
Instrument type: LC-ESI-QFT
Ms type: MS2
Ion mode: NEGATIVE
Ionization: ESI
Fragmentation mode: HCD
Collision energy: 75
Resolution: 17500
Column name: Acquity BEH C18 1.7um, 2.1x150mm (Waters)
Retention time: 13.562 min
Base peak: 249.0227
Precursor m/z: 274.1197
Precursor type: [M-H]-
Precursor intensity: 2067003.078125
m/z	relative intensity	assigned
186.0673	999	C10H8N3O-
187.0751	781	C10H9N3O-
200.0829	226	C11H10N3O-
