Mass spectrum: 4,4`-Methylenebis(2-methylaniline); LC-ESI-QFT; MS2; CE: 60; R=17500; [M+H]+
Name: 4,4'-Methylenebis(2-methylaniline)
Name: 4-[(4-amino-3-methylphenyl)methyl]-2-methylaniline
Formula: C15H18N2
Exact mass: 226.1470
SMILES: CC1=C(N)C=CC(CC2=CC(C)=C(N)C=C2)=C1
InChI: InChI=1S/C15H18N2/c1-10-7-12(3-5-14(10)16)9-13-4-6-15(17)11(2)8-13/h3-8H,9,16-17H2,1-2H3
Instrument: Q Exactive Orbitrap (Thermo Scientific)
Instrument type: LC-ESI-QFT
Ms type: MS2
Ion mode: POSITIVE
Ionization: ESI
Fragmentation mode: HCD
Collision energy: 60
Resolution: 17500
Column name: Acquity BEH C18 1.7um, 2.1x150mm (Waters)
Retention time: 10.156 min
Base peak: 79.0211
Precursor m/z: 227.1543
Precursor type: [M+H]+
Precursor intensity: 15510010.90625
m/z	relative intensity	assigned
53.0386	1	C4H5+
54.0338	1	C3H4N+
68.0494	2	C4H6N+
79.0541	3	C6H7+
80.0494	4	C5H6N+
81.0573	5	C5H7N+
91.0542	4	C7H7+
93.0698	4	C7H9+
94.0651	1	C6H8N+
103.0542	18	C8H7+
105.0446	1	C6H5N2+
105.0698	2	C8H9+
107.073	1	C7H9N+
118.0651	3	C8H8N+
119.073	1	C8H9N+
120.0807	999	C8H10N+
128.0618	3	C10H8+
129.0697	22	C10H9+
141.0698	3	C11H9+
142.0776	3	C11H10+
143.0854	3	C11H11+
144.0806	1	C10H10N+
145.0883	2	C10H11N+
152.062	1	C12H8+
153.0696	1	C12H9+
154.0777	3	C12H10+
155.0854	8	C12H11+
157.1008	1	C12H13+
165.0697	3	C13H9+
166.0776	2	C13H10+
167.073	1	C12H9N+
167.0856	2	C13H11+
168.0808	2	C12H10N+
168.0932	4	C13H12+
169.1012	3	C13H13+
170.0961	1	C12H12N+
177.0699	1	C14H9+
178.0776	93	C14H10+
179.0856	2	C14H11+
180.0806	56	C13H10N+
181.0884	5	C13H11N+
181.1011	1	C14H13+
182.0964	5	C13H12N+
183.1167	2	C14H15+
191.0849	1	C15H11+
192.0932	3	C15H12+
193.0892	3	C14H11N+
193.1011	44	C15H13+
194.0964	29	C14H12N+
195.1042	71	C14H13N+
208.1119	4	C15H14N+
209.1197	2	C15H15N+
210.1275	11	C15H16N+
211.123	2	C14H15N2+
225.1382	2	C15H17N2+
226.1433	1	C15H18N2+
227.1541	69	C15H19N2+
