Mass spectrum: 1-(2,6-Dichlorophenyl)-2-indolinone; LC-ESI-QFT; MS2; CE: 75; R=17500; [M+H]+
Name: 1-(2,6-Dichlorophenyl)-2-indolinone
Name: 1-(2,6-dichlorophenyl)-3H-indol-2-one
Formula: C14H9Cl2NO
Exact mass: 277.0061
SMILES: ClC1=CC=CC(Cl)=C1N1C(=O)CC2=C1C=CC=C2
InChI: InChI=1S/C14H9Cl2NO/c15-10-5-3-6-11(16)14(10)17-12-7-2-1-4-9(12)8-13(17)18/h1-7H,8H2
Instrument: Q Exactive Orbitrap (Thermo Scientific)
Instrument type: LC-ESI-QFT
Ms type: MS2
Ion mode: POSITIVE
Ionization: ESI
Fragmentation mode: HCD
Collision energy: 75
Resolution: 17500
Column name: Acquity BEH C18 1.7um, 2.1x150mm (Waters)
Retention time: 17.314 min
Base peak: 79.0212
Precursor m/z: 278.0134
Precursor type: [M+H]+
Precursor intensity: 3560791.625
m/z	relative intensity	assigned
51.023	3	C4H3+
53.0386	21	C4H5+
66.0463	2	C5H6+
76.0182	2	C5H2N+
77.0384	7	C6H5+
79.0542	226	C6H7+
81.0335	2	C5H5O+
84.984	5	C4H2Cl+
86.9633	3	C3ClO+
89.0385	2	C7H5+
90.0465	2	C7H6+
91.0544	3	C7H7+
94.0413	3	C6H6O+
95.0492	71	C6H7O+
96.0445	4	C5H6NO+
98.9995	2	C5H4Cl+
100.0182	4	C7H2N+
104.0494	26	C7H6N+
105.0335	68	C7H5O+
107.0492	14	C7H7O+
108.9841	7	C6H2Cl+
111.9949	1	C5H3ClN+
112.9789	1	C5H2ClO+
117.0574	2	C8H7N+
118.0291	1	C7H4NO+
118.0413	4	C8H6O+
120.9606	1	C4H3Cl2+
125.0151	2	C7H6Cl+
126.0105	2	C6H5ClN+
126.9946	2	C6H4ClO+
128.0022	3	C6H5ClO+
132.0444	40	C8H6NO+
132.9609	5	C5H3Cl2+
133.0523	5	C8H7NO+
135.995	2	C7H3ClN+
137.0028	1	C7H4ClN+
138.0103	1	C7H5ClN+
144.9606	5	C6H3Cl2+
151.0543	1	C12H7+
152.0621	6	C12H8+
153.0701	2	C12H9+
154.0055	13	C7H5ClNO+
159.9715	3	C6H4Cl2N+
162.9711	9	C6H5Cl2O+
164.001	72	C9H5ClO+
166.0053	3	C8H5ClNO+
166.065	3	C12H8N+
169.0649	22	C12H9O+
171.9715	228	C7H4Cl2N+
172.9668	59	C9ClNO+
177.0574	9	C13H7N+
178.0652	49	C13H8N+
179.073	99	C13H9N+
180.0808	261	C13H10N+
181.065	2	C13H9O+
196.0755	2	C13H10NO+
199.9667	2	C8H4Cl2NO+
201.034	8	C12H8ClN+
207.068	22	C14H9NO+
208.0758	230	C14H10NO+
213.0346	2	C13H8ClN+
214.0418	999	C13H9ClN+
215.0493	12	C13H10ClN+
241.0295	4	C14H8ClNO+
242.0372	9	C14H9ClNO+
243.0442	8	C14H10ClNO+
248.0026	4	C13H8Cl2N+
250.0185	5	C13H10Cl2N+
