Mass spectrum: N-Octyl-2-pyrrolidone; LC-ESI-QFT; MS2; CE: 15; R=17500; [M+H]+
Name: N-Octyl-2-pyrrolidone
Name: 1-octylpyrrolidin-2-one
Formula: C12H23NO
Exact mass: 197.1780
SMILES: CCCCCCCCN1CCCC1=O
InChI: InChI=1S/C12H23NO/c1-2-3-4-5-6-7-10-13-11-8-9-12(13)14/h2-11H2,1H3
Instrument: Q Exactive Orbitrap (Thermo Scientific)
Instrument type: LC-ESI-QFT
Ms type: MS2
Ion mode: POSITIVE
Ionization: ESI
Fragmentation mode: HCD
Collision energy: 15
Resolution: 17500
Column name: Acquity BEH C18 1.7um, 2.1x150mm (Waters)
Retention time: 18.547 min
Base peak: 79.0211
Precursor m/z: 198.1852
Precursor type: [M+H]+
Precursor intensity: 61414666.5625
m/z	relative intensity	assigned
57.0699	1	C4H9+
71.0854	1	C5H11+
86.06	20	C4H8NO+
98.0603	1	C5H8NO+
198.1851	999	C12H24NO+
