Mass spectrum: 3-Hydroxy-2-naphthoic o-anisidide; LC-ESI-QFT; MS2; CE: 30; R=17500; [M-H]-
Name: 3-Hydroxy-2-naphthoic o-anisidide
Name: 3-Hydroxy-2'-methoxy-2-naphthanilide
Name: 3-hydroxy-N-(2-methoxyphenyl)naphthalene-2-carboxamide
Formula: C18H15NO3
Exact mass: 293.1052
SMILES: COC1=CC=CC=C1NC(=O)C1=CC2=C(C=CC=C2)C=C1O
InChI: InChI=1S/C18H15NO3/c1-22-17-9-5-4-8-15(17)19-18(21)14-10-12-6-2-3-7-13(12)11-16(14)20/h2-11,20H,1H3,(H,19,21)
Instrument: Q Exactive Orbitrap (Thermo Scientific)
Instrument type: LC-ESI-QFT
Ms type: MS2
Ion mode: NEGATIVE
Ionization: ESI
Fragmentation mode: HCD
Collision energy: 30
Resolution: 17500
Column name: Acquity BEH C18 1.7um, 2.1x150mm (Waters)
Retention time: 18.323 min
Base peak: 292.0981
Precursor m/z: 292.0979
Precursor type: [M-H]-
Precursor intensity: 39355832.03223
m/z	relative intensity	assigned
107.0376	35	C6H5NO-
114.0478	1	C9H6-
122.0611	1	C7H8NO-
130.0423	2	C9H6O-
134.0248	297	C7H4NO2-
142.0422	1	C10H6O-
143.0502	106	C10H7O-
158.0376	1	C10H6O2-
159.0453	1	C10H7O2-
168.0452	2	C11H6NO-
216.0818	1	C16H10N-
218.0611	2	C15H8NO-
232.0765	6	C16H10NO-
233.0613	5	C16H9O2-
233.0846	2	C16H11NO-
234.0688	2	C16H10O2-
249.0795	11	C16H11NO2-
260.0717	62	C17H10NO2-
274.0882	2	C18H12NO2-
276.0666	30	C17H10NO3-
277.0744	828	C17H11NO3-
278.0821	1	C17H12NO3-
292.0982	999	C18H14NO3-
