Mass spectrum: 2-Methyl-4-amino-6-methoxy-s-triazine; LC-ESI-QFT; MS2; CE: 90; R=17500; [M+H]+
Name: 2-Methyl-4-amino-6-methoxy-s-triazine
Name: 2-Amino-4-methoxy-6-methyl-1,3,5-triazine
Name: 4-methoxy-6-methyl-1,3,5-triazin-2-amine
Formula: C5H8N4O
Exact mass: 140.0698
SMILES: COC1=NC(C)=NC(N)=N1
InChI: InChI=1S/C5H8N4O/c1-3-7-4(6)9-5(8-3)10-2/h1-2H3,(H2,6,7,8,9)
Instrument: Q Exactive Orbitrap (Thermo Scientific)
Instrument type: LC-ESI-QFT
Ms type: MS2
Ion mode: POSITIVE
Ionization: ESI
Fragmentation mode: HCD
Collision energy: 90
Resolution: 17500
Column name: Acquity BEH C18 1.7um, 2.1x150mm (Waters)
Retention time: 5.041 min
Base peak: 79.0211
Precursor m/z: 141.0771
Precursor type: [M+H]+
Precursor intensity: 11996152.125
m/z	relative intensity	assigned
56.0495	214	C3H6N+
57.0447	999	C2H5N2+
58.0288	357	C2H4NO+
68.0243	138	C2H2N3+
69.0083	18	C2HN2O+
82.04	2	C3H4N3+
83.024	33	C3H3N2O+
84.0556	15	C3H6N3+
85.0397	99	C3H5N2O+
100.0505	93	C3H6N3O+
141.0771	76	C5H9N4O+
