Mass spectrum: 2,5-Dimethoxy-4-chloroaniline; LC-ESI-QFT; MS2; CE: 45; R=17500; [M+H]+
Name: 2,5-Dimethoxy-4-chloroaniline
Name: 4-chloro-2,5-dimethoxyaniline
Formula: C8H10ClNO2
Exact mass: 187.0400
SMILES: COC1=CC(N)=C(OC)C=C1Cl
InChI: InChI=1S/C8H10ClNO2/c1-11-7-4-6(10)8(12-2)3-5(7)9/h3-4H,10H2,1-2H3
Instrument: Q Exactive Orbitrap (Thermo Scientific)
Instrument type: LC-ESI-QFT
Ms type: MS2
Ion mode: POSITIVE
Ionization: ESI
Fragmentation mode: HCD
Collision energy: 45
Resolution: 17500
Column name: Acquity BEH C18 1.7um, 2.1x150mm (Waters)
Retention time: 13.442 min
Base peak: 79.0211
Precursor m/z: 188.0473
Precursor type: [M+H]+
Precursor intensity: 1985353.125
m/z	relative intensity	assigned
92.0496	4	C6H6N+
93.0573	2	C6H7N+
109.0525	1	C6H7NO+
124.0758	15	C7H10NO+
130.0054	6	C5H5ClNO+
138.055	99	C7H8NO2+
152.0708	9	C8H10NO2+
153.0785	343	C8H11NO2+
156.0208	8	C7H7ClNO+
157.0291	4	C7H8ClNO+
158.0003	16	C6H5ClNO2+
172.0161	16	C7H7ClNO2+
173.0239	999	C7H8ClNO2+
188.0474	322	C8H11ClNO2+
