Mass spectrum: Oxadiazon; LC-ESI-QFT; MS2; CE: 90; R=17500; [M+H]+
Name: Oxadiazon
Name: 5-tert-butyl-3-(2,4-dichloro-5-propan-2-yloxyphenyl)-1,3,4-oxadiazol-2-one
Formula: C15H18Cl2N2O3
Exact mass: 344.0694
SMILES: CC(C)OC1=CC(N2N=C(OC2=O)C(C)(C)C)=C(Cl)C=C1Cl
InChI: InChI=1S/C15H18Cl2N2O3/c1-8(2)21-12-7-11(9(16)6-10(12)17)19-14(20)22-13(18-19)15(3,4)5/h6-8H,1-5H3
Instrument: Q Exactive Orbitrap (Thermo Scientific)
Instrument type: LC-ESI-QFT
Ms type: MS2
Ion mode: POSITIVE
Ionization: ESI
Fragmentation mode: HCD
Collision energy: 90
Resolution: 17500
Column name: Acquity BEH C18 1.7um, 2.1x150mm (Waters)
Retention time: 19.664 min
Base peak: 79.0211
Precursor m/z: 345.0767
Precursor type: [M+H]+
Precursor intensity: 337079.03125
m/z	relative intensity	assigned
53.0022	230	C3HO+
57.0699	229	C4H9+
84.9841	500	C4H2Cl+
112.9789	999	C5H2ClO+
120.9607	231	C4H3Cl2+
122.0235	174	C6H4NO2+
128.9978	970	C5H4ClNO+
129.9817	296	C5H3ClO2+
140.974	435	C6H2ClO2+
148.9557	996	C5H3Cl2O+
155.9846	80	C6H3ClNO2+
173.9508	136	C6H2Cl2NO+
176.9505	268	C6H3Cl2O2+
184.9877	423	C7H4ClNO3+
