Mass spectrum: 1,3-Dipropan-2-ylurea; LC-ESI-QFT; MS2; CE: 90; R=17500; [M+H]+
Name: 1,3-Dipropan-2-ylurea
Name: 1,3-Diisopropylurea
Name: 1,3-di(propan-2-yl)urea
Formula: C7H16N2O
Exact mass: 144.1263
SMILES: CC(C)NC(=O)NC(C)C
InChI: InChI=1S/C7H16N2O/c1-5(2)8-7(10)9-6(3)4/h5-6H,1-4H3,(H2,8,9,10)
Instrument: Q Exactive Orbitrap (Thermo Scientific)
Instrument type: LC-ESI-QFT
Ms type: MS2
Ion mode: POSITIVE
Ionization: ESI
Fragmentation mode: HCD
Collision energy: 90
Resolution: 17500
Column name: Acquity BEH C18 1.7um, 2.1x150mm (Waters)
Retention time: 11.906 min
Base peak: 79.0212
Precursor m/z: 145.1335
Precursor type: [M+H]+
Precursor intensity: 20543542.53125
m/z	relative intensity	assigned
53.0023	83	C3HO+
53.9975	10	C2NO+
58.0652	7	C3H8N+
60.0808	130	C3H10N+
61.0397	999	CH5N2O+
86.06	6	C4H8NO+
103.0866	22	C4H11N2O+
