Mass spectrum: Methylprednisolone; LC-ESI-QFT; MS2; CE: 30; R=17500; [M+H]+
Name: Methylprednisolone
Formula: C22H30O5
Exact mass: 374.2093
SMILES: C[C@H]1C[C@H]2[C@@H]3CC[C@](O)(C(=O)CO)[C@@]3(C)C[C@H](O)[C@@H]2[C@@]2(C)C=CC(=O)C=C12
InChI: InChI=1S/C22H30O5/c1-12-8-14-15-5-7-22(27,18(26)11-23)21(15,3)10-17(25)19(14)20(2)6-4-13(24)9-16(12)20/h4,6,9,12,14-15,17,19,23,25,27H,5,7-8,10-11H2,1-3H3/t12-,14-,15-,17-,19+,20-,21-,22-/m0/s1
Instrument: Q Exactive Orbitrap (Thermo Scientific)
Instrument type: LC-ESI-QFT
Ms type: MS2
Ion mode: POSITIVE
Ionization: ESI
Fragmentation mode: HCD
Collision energy: 30
Resolution: 17500
Column name: Acquity BEH C18 1.7um, 2.1x150mm (Waters)
Retention time: 16.827 min
Base peak: 79.0211
Precursor m/z: 375.2166
Precursor type: [M+H]+
Precursor intensity: 4652021.875
m/z	relative intensity	assigned
81.0699	43	C6H9+
93.0701	57	C7H9+
95.0856	39	C7H11+
97.0648	23	C6H9O+
99.044	23	C5H7O2+
107.0857	60	C8H11+
109.0648	38	C7H9O+
109.1012	55	C8H13+
119.0857	31	C9H11+
121.0648	192	C8H9O+
123.0803	28	C8H11O+
131.0857	40	C10H11+
133.1011	58	C10H13+
135.0805	627	C9H11O+
137.0959	33	C9H13O+
143.0864	27	C11H11+
145.0648	24	C10H9O+
145.101	65	C11H13+
147.0805	115	C10H11O+
149.0962	90	C10H13O+
159.0804	141	C11H11O+
161.0962	999	C11H13O+
165.0913	53	C10H13O2+
173.0965	162	C12H13O+
175.1119	96	C12H15O+
177.0912	57	C11H13O2+
185.0962	567	C13H13O+
187.1117	440	C13H15O+
189.0908	54	C12H13O2+
197.0964	24	C14H13O+
199.1119	80	C14H15O+
201.1277	32	C14H17O+
209.0964	32	C15H13O+
211.112	278	C15H15O+
213.1274	144	C15H17O+
223.1116	36	C16H15O+
225.1278	118	C16H17O+
227.1434	61	C16H19O+
235.1124	61	C17H15O+
237.1276	227	C17H17O+
239.1432	98	C17H19O+
249.1278	56	C18H17O+
251.1432	282	C18H19O+
253.1588	672	C18H21O+
255.1747	70	C18H23O+
261.1279	77	C19H17O+
263.1432	91	C19H19O+
265.1588	65	C19H21O+
267.1381	80	C18H19O2+
277.1593	164	C20H21O+
279.1383	98	C19H19O2+
279.1741	268	C20H23O+
280.1822	219	C20H24O+
281.1906	88	C20H25O+
288.152	56	C21H20O+
291.1748	83	C21H23O+
293.1906	147	C21H25O+
297.1483	65	C19H21O3+
297.1859	28	C20H25O2+
303.1745	229	C22H23O+
309.1851	87	C21H25O2+
321.1851	220	C22H25O2+
339.1956	174	C22H27O3+
357.2061	210	C22H29O4+
