Mass spectrum: Acetohexamide; LC-ESI-QFT; MS2; CE: 90; R=17500; [M-H]-
Name: Acetohexamide
Name: 1-(4-acetylphenyl)sulfonyl-3-cyclohexylurea
Formula: C15H20N2O4S
Exact mass: 324.1144
SMILES: CC(=O)C1=CC=C(C=C1)S(=O)(=O)NC(=O)NC1CCCCC1
InChI: InChI=1S/C15H20N2O4S/c1-11(18)12-7-9-14(10-8-12)22(20,21)17-15(19)16-13-5-3-2-4-6-13/h7-10,13H,2-6H2,1H3,(H2,16,17,19)
Instrument: Q Exactive Orbitrap (Thermo Scientific)
Instrument type: LC-ESI-QFT
Ms type: MS2
Ion mode: NEGATIVE
Ionization: ESI
Fragmentation mode: HCD
Collision energy: 90
Resolution: 17500
Column name: Acquity BEH C18 1.7um, 2.1x150mm (Waters)
Retention time: 16.401 min
Base peak: 187.134
Precursor m/z: 323.1071
Precursor type: [M-H]-
Precursor intensity: 25130969.84863
m/z	relative intensity	assigned
61.9706	19	NOS-
63.9625	9	O2S-
77.9655	22	NO2S-
78.9734	18	HNO2S-
79.9812	14	H2NO2S-
91.0428	20	C6H5N-
92.0506	999	C6H6N-
93.0346	17	C6H5O-
93.9605	5	NO3S-
94.0297	3	C5H4NO-
95.0139	2	C5H3O2-
107.0377	8	C6H5NO-
108.0217	6	C6H4O2-
116.0506	26	C8H6N-
119.0503	1	C8H7O-
134.0612	560	C8H8NO-
135.0452	16	C8H7O2-
136.0403	1	C7H6NO2-
