Mass spectrum: CP-671305; LC-ESI-QFT; MS2; CE: 60; R=17500; [M+H]+
Name: CP-671305
Name: (2R)-2-[4-[[[2-(1,3-benzodioxol-5-yloxy)pyridine-3-carbonyl]amino]methyl]-3-fluorophenoxy]propanoic acid
Formula: C23H19FN2O7
Exact mass: 454.1176
SMILES: C[C@@H](OC1=CC=C(CNC(=O)C2=CC=CN=C2OC2=CC=C3OCOC3=C2)C(F)=C1)C(O)=O
InChI: InChI=1S/C23H19FN2O7/c1-13(23(28)29)32-15-5-4-14(18(24)9-15)11-26-21(27)17-3-2-8-25-22(17)33-16-6-7-19-20(10-16)31-12-30-19/h2-10,13H,11-12H2,1H3,(H,26,27)(H,28,29)/t13-/m1/s1
Instrument: Q Exactive Orbitrap (Thermo Scientific)
Instrument type: LC-ESI-QFT
Ms type: MS2
Ion mode: POSITIVE
Ionization: ESI
Fragmentation mode: HCD
Collision energy: 60
Resolution: 17500
Column name: Acquity BEH C18 1.7um, 2.1x150mm (Waters)
Retention time: 16.757 min
Base peak: 79.0211
Precursor m/z: 455.1249
Precursor type: [M+H]+
Precursor intensity: 8880222.25
m/z	relative intensity	assigned
53.0386	1	C4H5+
77.0383	1	C6H5+
95.0491	6	C6H7O+
97.0448	7	C6H6F+
105.0448	2	C6H5N2+
123.0353	1	C6H4FN2+
125.0396	999	C7H6FO+
156.0443	32	C10H6NO+
184.0392	58	C11H6NO2+
186.0548	1	C11H8NO2+
197.0609	3	C10H10FO3+
202.0497	8	C11H8NO3+
212.0341	33	C12H6NO3+
214.0496	2	C12H8NO3+
216.0654	3	C12H10NO3+
230.0448	1	C12H8NO4+
242.0446	64	C13H8NO4+
244.0605	3	C13H10NO4+
260.0553	6	C13H10NO5+
