Mass spectrum: 4-Aminoazobenzene; LC-ESI-QFT; MS2; CE: 45; R=17500; [M+H]+
Name: 4-Aminoazobenzene
Name: 4-phenyldiazenylaniline
Formula: C12H11N3
Exact mass: 197.0953
SMILES: C1=CC=C(C=C1)N=NC2=CC=C(C=C2)N
InChI: InChI=1S/C12H11N3/c13-10-6-8-12(9-7-10)15-14-11-4-2-1-3-5-11/h1-9H,13H2
Instrument: Q Exactive Orbitrap (Thermo Scientific)
Instrument type: LC-ESI-QFT
Ms type: MS2
Ion mode: POSITIVE
Ionization: ESI
Fragmentation mode: HCD
Collision energy: 45
Resolution: 17500
Column name: Acquity BEH C18 1.7um, 2.1x150mm (Waters)
Retention time: 17.237 min
Base peak: 79.0212
Precursor m/z: 198.1026
Precursor type: [M+H]+
Precursor intensity: 7628708.6875
m/z	relative intensity	assigned
51.023	2	C4H3+
53.0386	326	C4H5+
65.0385	8	C5H5+
67.0543	1	C5H7+
68.0494	6	C4H6N+
77.0385	93	C6H5+
79.0542	3	C6H7+
81.0699	4	C6H9+
91.0543	1	C7H7+
92.0495	36	C6H6N+
93.0573	36	C6H7N+
94.0414	36	C4H4N3+
94.0652	2	C6H8N+
95.0491	999	C4H5N3+
105.0447	434	C6H5N2+
106.0525	2	C6H6N2+
106.0651	2	C7H8N+
107.0493	1	C5H5N3+
107.0607	1	C6H7N2+
109.0648	11	C5H7N3+
120.0558	2	C6H6N3+
128.0621	1	C10H8+
143.0854	1	C11H11+
152.0621	6	C12H8+
153.0699	7	C12H9+
169.0885	8	C12H11N+
170.0965	1	C12H12N+
181.0761	3	C12H9N2+
196.0869	1	C12H10N3+
198.1025	245	C12H12N3+
