Mass spectrum: Propiconazole; LC-ESI-QFT; MS2; CE: 75; R=17500; [M+H]+
Name: Propiconazole
Name: 1-[[2-(2,4-dichlorophenyl)-4-propyl-1,3-dioxolan-2-yl]methyl]-1,2,4-triazole
Formula: C15H17Cl2N3O2
Exact mass: 341.0698
SMILES: CCCC1COC(CN2C=NC=N2)(O1)C1=C(Cl)C=C(Cl)C=C1
InChI: InChI=1S/C15H17Cl2N3O2/c1-2-3-12-7-21-15(22-12,8-20-10-18-9-19-20)13-5-4-11(16)6-14(13)17/h4-6,9-10,12H,2-3,7-8H2,1H3
Instrument: Q Exactive Orbitrap (Thermo Scientific)
Instrument type: LC-ESI-QFT
Ms type: MS2
Ion mode: POSITIVE
Ionization: ESI
Fragmentation mode: HCD
Collision energy: 75
Resolution: 17500
Column name: Acquity BEH C18 1.7um, 2.1x150mm (Waters)
Retention time: 18.657 min
Base peak: 79.0212
Precursor m/z: 342.0771
Precursor type: [M+H]+
Precursor intensity: 9329320.125
m/z	relative intensity	assigned
53.0022	36	C3HO+
53.9974	5	C2NO+
67.0542	8	C5H7+
69.0699	72	C5H9+
70.04	33	C2H4N3+
72.9839	1	C3H2Cl+
84.0557	1	C3H6N3+
89.0386	8	C7H5+
98.9997	11	C5H4Cl+
122.9996	67	C7H4Cl+
124.0075	16	C7H5Cl+
128.0024	1	C6H5ClO+
129.0101	1	C6H6ClO+
132.9607	9	C5H3Cl2+
139.0059	2	C6H4ClN2+
146.9765	2	C6H5Cl2+
151.0184	1	C8H6ClN+
152.0023	2	C8H5ClO+
158.9763	999	C7H5Cl2+
162.9713	1	C6H5Cl2O+
172.9556	58	C7H3Cl2O+
172.9666	8	C6H3Cl2N2+
190.9662	3	C7H5Cl2O2+
