Mass spectrum: PharmaGSID_48518; LC-ESI-QFT; MS2; CE: 60; R=17500; [M+H]+
Name: PharmaGSID_48518
Name: 2-bromo-4-fluoro-N-[(E)-2-thiophen-2-ylethenyl]sulfonylbenzamide
Formula: C13H9BrFNO3S2
Exact mass: 388.9191
SMILES: FC1=CC(Br)=C(C=C1)C(=O)NS(=O)(=O)\C=C\C1=CC=CS1
InChI: InChI=1S/C13H9BrFNO3S2/c14-12-8-9(15)3-4-11(12)13(17)16-21(18,19)7-5-10-2-1-6-20-10/h1-8H,(H,16,17)/b7-5+
Instrument: Q Exactive Orbitrap (Thermo Scientific)
Instrument type: LC-ESI-QFT
Ms type: MS2
Ion mode: POSITIVE
Ionization: ESI
Fragmentation mode: HCD
Collision energy: 60
Resolution: 17500
Column name: Acquity BEH C18 1.7um, 2.1x150mm (Waters)
Retention time: 16.424 min
Base peak: 79.0212
Precursor m/z: 389.9264
Precursor type: [M+H]+
Precursor intensity: 1414436.59375
m/z	relative intensity	assigned
65.0385	153	C5H5+
68.9793	22	C3HS+
81.0336	4	C5H5O+
82.9951	4	C4H3S+
83.0127	6	C4H3O2+
84.0028	6	C4H4S+
86.9899	6	C3H3OS+
97.0107	18	C5H5S+
102.967	18	C3H3S2+
108.0028	9	C6H4S+
109.0107	999	C6H5S+
112.0319	11	C6H5FO+
125.0057	3	C6H5OS+
126.967	19	C5H3S2+
144.9778	7	C5H5OS2+
148.9398	2	C4H3BrF+
154.962	23	C6H3OS2+
172.9399	2	C5FNOS2+
200.9347	99	C7H3BrFO+
