Mass spectrum: 1-Phenyl-2-thiourea; LC-ESI-QFT; MS2; CE: 90; R=17500; [M+H]+
Name: 1-Phenyl-2-thiourea
Name: N'-phenylcarbamimidothioic acid
Formula: C7H8N2S
Exact mass: 152.0408
SMILES: NC(=S)NC1=CC=CC=C1
InChI: InChI=1S/C7H8N2S/c8-7(10)9-6-4-2-1-3-5-6/h1-5H,(H3,8,9,10)
Instrument: Q Exactive Orbitrap (Thermo Scientific)
Instrument type: LC-ESI-QFT
Ms type: MS2
Ion mode: POSITIVE
Ionization: ESI
Fragmentation mode: HCD
Collision energy: 90
Resolution: 17500
Column name: Acquity BEH C18 1.7um, 2.1x150mm (Waters)
Retention time: 10.382 min
Base peak: 79.0212
Precursor m/z: 153.0481
Precursor type: [M+H]+
Precursor intensity: 1684094.875
m/z	relative intensity	assigned
50.0152	21	C4H2+
51.0229	60	C4H3+
53.0386	551	C4H5+
59.9902	618	CH2NS+
65.0385	22	C5H5+
67.0542	26	C5H7+
77.0385	215	C6H5+
78.0464	57	C6H6+
79.0541	5	C6H7+
86.0036	295	C6N+
92.0494	11	C6H6N+
93.0573	61	C6H7N+
93.0697	5	C7H9+
94.0652	999	C6H8N+
105.0448	645	C6H5N2+
109.0107	476	C6H5S+
119.0602	25	C7H7N2+
136.0216	457	C7H6NS+
