Mass spectrum: Warfarin; LC-ESI-QFT; MS2; CE: 75; R=17500; [M+H]+
Name: Warfarin
Name: 4-hydroxy-3-(3-oxo-1-phenylbutyl)chromen-2-one
Formula: C19H16O4
Exact mass: 308.1049
SMILES: CC(=O)CC(C1=CC=CC=C1)C1=C(O)C2=CC=CC=C2OC1=O
InChI: InChI=1S/C19H16O4/c1-12(20)11-15(13-7-3-2-4-8-13)17-18(21)14-9-5-6-10-16(14)23-19(17)22/h2-10,15,21H,11H2,1H3
Instrument: Q Exactive Orbitrap (Thermo Scientific)
Instrument type: LC-ESI-QFT
Ms type: MS2
Ion mode: POSITIVE
Ionization: ESI
Fragmentation mode: HCD
Collision energy: 75
Resolution: 17500
Column name: Acquity BEH C18 1.7um, 2.1x150mm (Waters)
Retention time: 17.456 min
Base peak: 79.0211
Precursor m/z: 309.1121
Precursor type: [M+H]+
Precursor intensity: 14010756.75
m/z	relative intensity	assigned
50.0151	1	C4H2+
51.023	3	C4H3+
53.0023	4	C3HO+
53.0386	58	C4H5+
55.0179	9	C3H3O+
63.023	1	C5H3+
65.0386	115	C5H5+
68.9971	67	C3HO2+
69.0335	5	C4H5O+
77.0385	23	C6H5+
79.0542	13	C6H7+
81.0335	5	C5H5O+
83.0128	2	C4H3O2+
89.0386	17	C7H5+
90.0465	1	C7H6+
91.0543	132	C7H7+
93.0336	63	C6H5O+
94.0413	10	C6H6O+
95.0492	342	C6H7O+
98.0364	1	C5H6O2+
102.0464	10	C8H6+
103.0543	151	C8H7+
105.0336	19	C7H5O+
105.07	10	C8H9+
107.0492	8	C7H7O+
109.0649	5	C7H9O+
111.0441	66	C6H7O2+
115.0542	11	C9H7+
117.0335	3	C8H5O+
117.0702	2	C9H9+
118.0413	2	C8H6O+
119.0492	22	C8H7O+
119.0857	2	C9H11+
121.0285	999	C7H5O2+
123.995	1	C9O+
125.0596	6	C7H9O2+
128.0621	39	C10H8+
129.0335	27	C9H5O+
129.0699	87	C10H9+
130.0416	10	C9H6O+
131.0492	101	C9H7O+
139.039	36	C7H7O3+
141.0699	6	C11H9+
143.0858	3	C11H11+
145.0284	29	C9H5O2+
145.0648	4	C10H9O+
147.0804	20	C10H11O+
147.9949	11	C11O+
149.0234	2	C8H5O3+
152.0621	34	C12H8+
153.0699	51	C12H9+
154.0778	16	C12H10+
155.0856	390	C12H11+
156.0572	1	C11H8O+
157.0284	17	C10H5O2+
163.039	513	C9H7O3+
163.99	3	C11O2+
164.0265	1	C12H4O+
165.07	83	C13H9+
166.0779	11	C13H10+
167.0855	108	C13H11+
169.0648	4	C12H9O+
171.0805	4	C12H11O+
173.0231	8	C10H5O3+
175.0391	26	C10H7O3+
175.99	5	C12O2+
176.0623	8	C14H8+
177.0701	16	C14H9+
178.0777	94	C14H10+
179.0856	14	C14H11+
179.9849	4	C11O3+
181.0649	9	C13H9O+
183.0805	109	C13H11O+
187.9896	7	C13O2+
189.0548	6	C11H9O3+
191.0339	321	C10H7O4+
194.0729	2	C14H10O+
195.0805	16	C14H11O+
203.9848	26	C13O3+
205.0497	4	C11H9O4+
205.0649	54	C15H9O+
206.0003	3	C13H2O3+
206.0726	2	C15H10O+
207.0802	2	C15H11O+
221.0596	2	C15H9O2+
223.0754	87	C15H11O2+
233.0597	34	C16H9O2+
234.0676	4	C16H10O2+
249.0548	10	C16H9O3+
250.0628	2	C16H10O3+
251.0703	39	C16H11O3+
