Mass spectrum: Pirinixic acid; LC-ESI-QFT; MS2; CE: 90; R=17500; [M+H]+
Name: Pirinixic acid
Name: 2-[4-chloro-6-(2,3-dimethylanilino)pyrimidin-2-yl]sulfanylacetic acid
Formula: C14H14ClN3O2S
Exact mass: 323.0495
SMILES: CC1=C(C)C(NC2=NC(SCC(O)=O)=NC(Cl)=C2)=CC=C1
InChI: InChI=1S/C14H14ClN3O2S/c1-8-4-3-5-10(9(8)2)16-12-6-11(15)17-14(18-12)21-7-13(19)20/h3-6H,7H2,1-2H3,(H,19,20)(H,16,17,18)
Instrument: Q Exactive Orbitrap (Thermo Scientific)
Instrument type: LC-ESI-QFT
Ms type: MS2
Ion mode: POSITIVE
Ionization: ESI
Fragmentation mode: HCD
Collision energy: 90
Resolution: 17500
Column name: Acquity BEH C18 1.7um, 2.1x150mm (Waters)
Retention time: 17.863 min
Base peak: 79.0211
Precursor m/z: 324.0568
Precursor type: [M+H]+
Precursor intensity: 8806713.25
m/z	relative intensity	assigned
51.023	3	C4H3+
52.0182	4	C3H2N+
53.0386	84	C4H5+
54.0339	3	C3H4N+
55.0179	4	C3H3O+
58.995	4	C2H3S+
59.9903	6	CH2NS+
60.984	4	C2H2Cl+
65.0385	36	C5H5+
68.0131	7	C3H2NO+
71.9902	264	C2H2NS+
75.9948	68	C2H3ClN+
77.0385	34	C6H5+
79.0542	787	C6H7+
80.0493	2	C5H6N+
83.9903	6	C3H2NS+
87.9949	8	C3H3ClN+
91.0542	85	C7H7+
92.0496	2	C6H6N+
93.0576	2	C6H7N+
93.07	4	C7H9+
94.0412	10	C6H6O+
94.0651	4	C6H8N+
95.0492	261	C6H7O+
99.0013	6	C3H3N2S+
103.0543	497	C8H7+
104.0495	4	C7H6N+
104.0622	7	C8H8+
105.0699	999	C8H9+
105.9513	6	C2HClNS+
106.0652	7	C7H8N+
106.0777	6	C8H10+
107.0855	15	C8H11+
109.0649	8	C7H9O+
111.0443	1	C6H7O2+
115.0542	107	C9H7+
116.0495	26	C8H6N+
116.062	21	C9H8+
117.0573	29	C8H7N+
117.0699	26	C9H9+
118.0651	23	C8H8N+
118.0777	1	C9H10+
119.0601	3	C7H7N2+
119.0729	24	C8H9N+
119.0856	8	C9H11+
123.0805	12	C8H11O+
128.0496	11	C9H6N+
128.0621	64	C10H8+
129.0698	118	C10H9+
130.0651	110	C9H8N+
131.0731	24	C9H9N+
131.0855	10	C10H11+
131.9671	1	C4H3ClNS+
132.0808	24	C9H10N+
133.0761	6	C8H9N2+
134.0964	29	C9H12N+
139.0312	4	C8H8Cl+
140.0494	25	C10H6N+
141.0572	35	C10H7N+
141.0699	4	C11H9+
142.0524	9	C9H6N2+
142.0652	55	C10H8N+
143.073	103	C10H9N+
144.0808	216	C10H10N+
144.962	1	C4H2ClN2S+
145.026	11	C7H3N3O+
145.0648	16	C10H9O+
145.0887	7	C10H11N+
146.06	7	C9H8NO+
148.0758	3	C9H10NO+
153.0572	6	C11H7N+
154.0651	73	C11H8N+
155.0604	79	C10H7N2+
155.0726	36	C3H13N3O2S+
156.0689	33	C10H8N2+
156.0808	121	C11H10N+
157.0773	10	C9H14Cl+
157.0886	65	C11H11N+
158.0965	58	C11H12N+
159.0917	3	C10H11N2+
160.0757	23	C10H10NO+
162.0372	5	C9H8NS+
163.0308	3	C10H8Cl+
165.0466	1	C10H10Cl+
166.0653	6	C12H8N+
167.0604	14	C11H7N2+
167.073	6	C12H9N+
168.0683	140	C11H8N2+
169.0761	155	C11H9N2+
170.0599	5	C11H8NO+
170.0838	16	C11H10N2+
171.0554	6	C10H7N2O+
171.0917	17	C11H11N2+
172.0216	3	C10H6NS+
172.0757	3	C11H10NO+
173.0216	2	C8H3N3O2+
173.0293	15	C10H7NS+
173.0713	1	C7H12ClN3+
174.0374	4	C10H8NS+
174.0914	15	C11H12NO+
175.0863	2	C10H11N2O+
176.0528	2	C10H10NS+
178.0416	8	C10H9ClN+
179.0603	18	C12H7N2+
180.0682	10	C12H8N2+
181.0645	2	C13H9O+
181.0664	2	C10H12ClN+
181.076	21	C12H9N2+
182.0839	35	C12H10N2+
183.0917	188	C12H11N2+
184.0871	4	C11H10N3+
184.0995	5	C12H12N2+
185.071	11	C11H9N2O+
185.1071	2	C12H13N2+
186.037	11	C11H8NS+
187.0324	4	C10H7N2S+
187.045	4	C11H9NS+
188.0263	14	C11H7ClN+
188.0529	5	C11H10NS+
189.0215	30	C10H6ClN2+
189.0477	7	C10H9N2S+
190.0418	14	C11H9ClN+
191.05	2	C11H10ClN+
192.0571	13	C14H8O+
193.0635	7	C12H7N3+
194.0715	22	C12H8N3+
195.0792	2	C12H9N3+
196.0869	6	C12H10N3+
198.025	4	C11H6N2S+
198.1029	2	C12H12N3+
199.0325	5	C11H7N2S+
199.0865	3	C12H11N2O+
200.0405	7	C11H8N2S+
201.048	3	C11H9N2S+
201.1031	2	C12H13N2O+
203.0371	77	C11H8ClN2+
204.0449	27	C11H9ClN2+
207.0792	3	C13H9N3+
208.0869	4	C13H10N3+
212.0277	30	C11H6N3S+
213.0479	8	C12H9N2S+
215.0637	14	C12H11N2S+
216.0443	2	C12H9ClN2+
217.0405	4	C11H8ClN3+
217.0529	9	C12H10ClN2+
218.0605	1	C12H11ClN2+
219.0684	30	C12H12ClN2+
226.0433	35	C12H8N3S+
227.0512	6	C12H9N3S+
228.0587	1	C12H10N3S+
230.0484	8	C12H9ClN3+
234.0012	1	C11H7ClN2S+
240.059	2	C13H10N3S+
242.0751	4	C13H12N3S+
262.02	7	C12H9ClN3S+
