Mass spectrum: Atorvastatin; LC-ESI-QFT; MS2; CE: 75; R=17500; [M-H]-
Name: Atorvastatin
Name: (3R,5R)-7-[2-(4-fluorophenyl)-3-phenyl-4-(phenylcarbamoyl)-5-propan-2-ylpyrrol-1-yl]-3,5-dihydroxyheptanoic acid
Formula: C33H35FN2O5
Exact mass: 558.2530
SMILES: CC(C)c1c(C(=O)Nc2ccccc2)c(-c2ccccc2)c(-c2ccc(F)cc2)n1CC[C@@H](O)C[C@@H](O)CC(O)=O
InChI: InChI=1S/C33H35FN2O5/c1-21(2)31-30(33(41)35-25-11-7-4-8-12-25)29(22-9-5-3-6-10-22)32(23-13-15-24(34)16-14-23)36(31)18-17-26(37)19-27(38)20-28(39)40/h3-16,21,26-27,37-38H,17-20H2,1-2H3,(H,35,41)(H,39,40)/t26-,27-/m1/s1
Instrument: Q Exactive Orbitrap (Thermo Scientific)
Instrument type: LC-ESI-QFT
Ms type: MS2
Ion mode: NEGATIVE
Ionization: ESI
Fragmentation mode: HCD
Collision energy: 75
Resolution: 17500
Column name: Acquity BEH C18 1.7um, 2.1x150mm (Waters)
Retention time: 17.798 min
Base peak: 317.1394
Precursor m/z: 557.2457
Precursor type: [M-H]-
Precursor intensity: 12129025.57324
m/z	relative intensity	assigned
59.0138	948	C2H3O2-
65.0397	2	C5H5-
67.019	4	C4H3O-
69.0346	4	C4H5O-
85.0295	89	C4H5O2-
92.0506	617	C6H6N-
236.0881	13	C16H11FN-
260.0881	13	C18H11FN-
262.1037	999	C18H13FN-
274.1053	4	C19H13FN-
276.1195	57	C19H15FN-
278.1351	943	C19H17FN-
290.1352	3	C20H17FN-
295.1019	14	C18H14FNO2-
