Mass spectrum: Acetohexamide; LC-ESI-QFT; MS2; CE: 75; R=17500; [M+H]+
Name: Acetohexamide
Name: 1-(4-acetylphenyl)sulfonyl-3-cyclohexylurea
Formula: C15H20N2O4S
Exact mass: 324.1144
SMILES: CC(=O)C1=CC=C(C=C1)S(=O)(=O)NC(=O)NC1CCCCC1
InChI: InChI=1S/C15H20N2O4S/c1-11(18)12-7-9-14(10-8-12)22(20,21)17-15(19)16-13-5-3-2-4-6-13/h7-10,13H,2-6H2,1H3,(H2,16,17,19)
Instrument: Q Exactive Orbitrap (Thermo Scientific)
Instrument type: LC-ESI-QFT
Ms type: MS2
Ion mode: POSITIVE
Ionization: ESI
Fragmentation mode: HCD
Collision energy: 75
Resolution: 17500
Column name: Acquity BEH C18 1.7um, 2.1x150mm (Waters)
Retention time: 16.086 min
Base peak: 79.0212
Precursor m/z: 325.1217
Precursor type: [M+H]+
Precursor intensity: 1514710.5625
m/z	relative intensity	assigned
53.0022	7	C3HO+
53.0386	24	C4H5+
55.0543	200	C4H7+
65.0386	70	C5H5+
67.0542	24	C5H7+
69.0334	15	C4H5O+
79.0542	51	C6H7+
81.0334	6	C5H5O+
81.0699	23	C6H9+
83.0856	48	C6H11+
91.0543	999	C7H7+
93.0699	42	C7H9+
95.0493	56	C6H7O+
95.0854	12	C7H11+
97.0651	6	C6H9O+
103.0543	15	C8H7+
105.0446	16	C6H5N2+
105.0699	81	C8H9+
107.0492	17	C7H7O+
107.0857	22	C8H11+
109.0648	9	C7H9O+
115.0542	36	C9H7+
117.07	39	C9H9+
119.0492	52	C8H7O+
119.0856	85	C9H11+
121.0648	108	C8H9O+
128.062	61	C10H8+
129.0701	36	C10H9+
130.0776	10	C10H10+
131.0494	8	C9H7O+
131.0858	16	C10H11+
132.0569	34	C9H8O+
133.0649	13	C9H9O+
135.0803	12	C9H11O+
137.06	19	C8H9O2+
141.0699	17	C11H9+
142.078	15	C11H10+
143.0854	31	C11H11+
144.0572	13	C10H8O+
145.0648	46	C10H9O+
145.1014	13	C11H13+
147.0553	94	C8H7N2O+
147.0805	143	C10H11O+
152.0627	6	C12H8+
153.0701	15	C12H9+
155.0602	13	C10H7N2+
155.0857	14	C12H11+
157.0648	6	C11H9O+
158.0728	55	C11H10O+
159.0806	36	C11H11O+
165.0701	36	C13H9+
166.0778	15	C13H10+
167.0856	10	C13H11+
169.065	15	C12H9O+
171.0805	110	C12H11O+
173.0963	26	C12H13O+
178.0778	19	C14H10+
179.0858	28	C14H11+
180.0936	15	C14H12+
181.0649	22	C13H9O+
181.1014	20	C14H13+
182.0729	16	C13H10O+
183.0804	12	C13H11O+
189.0702	15	C15H9+
190.0778	28	C15H10+
191.0857	20	C15H11+
193.1012	15	C15H13+
194.073	22	C14H10O+
195.0806	38	C14H11O+
196.0888	24	C14H12O+
197.0961	32	C14H13O+
202.0778	8	C8H14N2O2S+
203.086	16	C8H15N2O2S+
204.0934	6	C8H16N2O2S+
205.1017	19	C8H17N2O2S+
207.0808	16	C15H11O+
207.1172	7	C8H19N2O2S+
208.0885	58	C15H12O+
209.0961	37	C15H13O+
210.104	12	C15H14O+
211.1117	9	C15H15O+
215.0858	15	C9H15N2O2S+
216.0939	9	C9H16N2O2S+
217.1012	12	C9H17N2O2S+
219.0807	16	C8H15N2O3S+
220.0889	7	C8H16N2O3S+
221.0964	25	C8H17N2O3S+
222.1044	30	C8H18N2O3S+
223.1121	40	C8H19N2O3S+
228.0938	6	C10H16N2O2S+
229.1015	6	C10H17N2O2S+
232.0879	11	C9H16N2O3S+
233.0968	15	C9H17N2O3S+
234.1047	20	C9H18N2O3S+
235.1118	16	C9H19N2O3S+
236.1203	11	C9H20N2O3S+
237.1276	12	C9H21N2O3S+
245.0967	13	C10H17N2O3S+
246.1044	7	C10H18N2O3S+
247.1124	8	C10H19N2O3S+
249.1284	13	C10H21N2O3S+
259.1119	20	C11H19N2O3S+
