Mass spectrum: SSR69071; LC-ESI-QFT; MS2; CE: 30; R=17500; [M+H]+
Name: SSR69071
Name: 6-methoxy-1,1-dioxo-2-[[4-oxo-9-(2-piperidin-1-ylethoxy)pyrido[1,2-a]pyrimidin-2-yl]oxymethyl]-4-propan-2-yl-1,2-benzothiazol-3-one
Formula: C27H32N4O7S
Exact mass: 556.1992
SMILES: COC1=CC2=C(C(=O)N(COC3=CC(=O)N4C=CC=C(OCCN5CCCCC5)C4=N3)S2(=O)=O)C(=C1)C(C)C
InChI: InChI=1S/C27H32N4O7S/c1-18(2)20-14-19(36-3)15-22-25(20)27(33)31(39(22,34)35)17-38-23-16-24(32)30-11-7-8-21(26(30)28-23)37-13-12-29-9-5-4-6-10-29/h7-8,11,14-16,18H,4-6,9-10,12-13,17H2,1-3H3
Instrument: Q Exactive Orbitrap (Thermo Scientific)
Instrument type: LC-ESI-QFT
Ms type: MS2
Ion mode: POSITIVE
Ionization: ESI
Fragmentation mode: HCD
Collision energy: 30
Resolution: 17500
Column name: Acquity BEH C18 1.7um, 2.1x150mm (Waters)
Retention time: 15.597 min
Base peak: 79.0211
Precursor m/z: 557.2064
Precursor type: [M+H]+
Precursor intensity: 4785062.25
m/z	relative intensity	assigned
56.0493	2	C3H6N+
58.0651	1	C3H8N+
69.0698	3	C5H9+
74.0963	1	C4H12N+
84.0809	2	C5H10N+
112.112	999	C7H14N+
217.0607	15	C11H9N2O3+
239.0375	1	C11H11O4S+
268.0638	51	C12H14NO4S+
302.15	14	C16H20N3O3+
557.2063	1	C27H33N4O7S+
