Mass spectrum: PharmaGSID_48521; LC-ESI-QFT; MS2; CE: 60; R=17500; [M+H]+
Name: PharmaGSID_48521
Name: (5S)-5-butyl-9-[1-(4,6-dimethylpyrimidine-5-carbonyl)-4-methylpiperidin-4-yl]-3-(oxan-4-ylmethyl)-1-oxa-3,9-diazaspiro[5.5]undecan-2-one
Formula: C31H49N5O4
Exact mass: 555.3785
SMILES: CCCC[C@H]1CN(CC2CCOCC2)C(=O)OC11CCN(CC1)C1(C)CCN(CC1)C(=O)C1=C(C)N=CN=C1C
InChI: InChI=1S/C31H49N5O4/c1-5-6-7-26-21-35(20-25-8-18-39-19-9-25)29(38)40-31(26)12-16-36(17-13-31)30(4)10-14-34(15-11-30)28(37)27-23(2)32-22-33-24(27)3/h22,25-26H,5-21H2,1-4H3/t26-/m0/s1
Instrument: Q Exactive Orbitrap (Thermo Scientific)
Instrument type: LC-ESI-QFT
Ms type: MS2
Ion mode: POSITIVE
Ionization: ESI
Fragmentation mode: HCD
Collision energy: 60
Resolution: 17500
Column name: Acquity BEH C18 1.7um, 2.1x150mm (Waters)
Retention time: 13.096 min
Base peak: 79.0211
Precursor m/z: 556.3857
Precursor type: [M+H]+
Precursor intensity: 8875205.25
m/z	relative intensity	assigned
53.0022	6	C3HO+
53.0386	11	C4H5+
53.9974	1	C2NO+
55.0178	3	C3H3O+
55.0542	23	C4H7+
56.0495	33	C3H6N+
57.0335	6	C3H5O+
57.0699	7	C4H9+
58.0651	7	C3H8N+
65.0385	6	C5H5+
66.0338	180	C4H4N+
67.0178	10	C4H3O+
67.0542	147	C5H7+
68.0494	8	C4H6N+
69.0698	181	C5H9+
70.0651	75	C4H8N+
71.049	10	C4H7O+
71.0855	3	C5H11+
79.0542	107	C6H7+
80.0494	20	C5H6N+
81.0698	255	C6H9+
82.0651	83	C5H8N+
83.0729	7	C5H9N+
83.0855	30	C6H11+
84.0808	140	C5H10N+
86.0964	1	C5H12N+
91.0541	1	C7H7+
93.0699	9	C7H9+
94.0651	5	C6H8N+
95.0491	5	C6H7O+
95.0729	9	C6H9N+
95.0855	34	C7H11+
96.0807	34	C6H10N+
97.0648	467	C6H9O+
98.0964	54	C6H12N+
99.0804	96	C6H11O+
100.0757	2	C5H10NO+
105.045	2	C6H5N2+
107.0603	13	C6H7N2+
107.0856	3	C8H11+
108.0444	2	C6H6NO+
108.0807	15	C7H10N+
109.0761	2	C6H9N2+
109.0886	10	C7H11N+
109.1011	2	C8H13+
110.06	5	C6H8NO+
110.0964	86	C7H12N+
112.112	128	C7H14N+
114.0914	1	C6H12NO+
122.0965	3	C8H12N+
123.1042	3	C8H13N+
123.1168	2	C9H15+
124.1121	42	C8H14N+
125.0709	25	C6H9N2O+
125.1325	1	C9H17+
126.0913	3	C7H12NO+
126.1276	1	C8H16N+
128.1069	564	C7H14NO+
135.0552	999	C7H7N2O+
137.0711	6	C7H9N2O+
137.1324	3	C10H17+
138.1277	2	C9H16N+
140.1433	2	C9H18N+
142.1225	1	C8H16NO+
147.0552	2	C8H7N2O+
150.128	2	C10H16N+
152.0818	24	C7H10N3O+
152.1432	12	C10H18N+
154.1589	255	C10H20N+
164.082	8	C8H10N3O+
164.1433	3	C11H18N+
166.159	141	C11H20N+
168.1745	2	C11H22N+
176.0815	3	C9H10N3O+
180.1742	1	C12H22N+
196.1695	1	C12H22NO+
232.1444	17	C13H18N3O+
238.2163	12	C15H28NO+
252.2316	1	C16H30NO+
