Mass spectrum: CI-959; LC-ESI-QFT; MS2; CE: 30; R=17500; [M-H]-
Name: CI-959
Name: CI-959 free acid
Name: 5-methoxy-3-propan-2-yloxy-N-(2H-tetrazol-5-yl)-1-benzothiophene-2-carboxamide
Formula: C14H15N5O3S
Exact mass: 333.0896
SMILES: COC1=CC2=C(SC(C(=O)NC3=NN=NN3)=C2OC(C)C)C=C1
InChI: InChI=1S/C14H15N5O3S/c1-7(2)22-11-9-6-8(21-3)4-5-10(9)23-12(11)13(20)15-14-16-18-19-17-14/h4-7H,1-3H3,(H2,15,16,17,18,19,20)
Instrument: Q Exactive Orbitrap (Thermo Scientific)
Instrument type: LC-ESI-QFT
Ms type: MS2
Ion mode: NEGATIVE
Ionization: ESI
Fragmentation mode: HCD
Collision energy: 30
Resolution: 17500
Column name: Acquity BEH C18 1.7um, 2.1x150mm (Waters)
Retention time: 17.310 min
Base peak: 329.1061
Precursor m/z: 332.0823
Precursor type: [M-H]-
Precursor intensity: 3820722.962891
m/z	relative intensity	assigned
82.0047	7	C2N3O-
84.0314	1	CH2N5-
110.0108	227	C2N5O-
110.991	3	C5H3OS-
121.0295	9	C7H5O2-
122.0328	4	H4N5O3-
138.986	3	C6H3O2S-
154.9808	3	C6H3O3S-
163.9938	3	C8H4O2S-
164.0179	9	C8H6NOS-
178.0091	3	C9H6O2S-
179.0173	148	C9H7O2S-
188.9893	2	C9H3NO2S-
203.0288	3	C10H7N2OS-
204.0124	34	C10H6NO2S-
206.0408	2	C11H10O2S-
221.064	14	C12H13O2S-
228.9953	4	C10H3N3O2S-
231.9946	15	C10H4N2O3S-
244.0184	13	C11H6N3O2S-
246.0105	239	C11H6N2O3S-
247.0183	511	C11H7N2O3S-
272.0245	5	C11H6N5O2S-
289.0653	999	C14H13N2O3S-
290.0355	7	C11H8N5O3S-
332.0821	17	C14H14N5O3S-
