Mass spectrum: Dimethametryn; LC-ESI-QFT; MS2; CE: 75; R=17500; [M+H]+
Name: Dimethametryn
Name: 4-N-ethyl-2-N-(3-methylbutan-2-yl)-6-methylsulfanyl-1,3,5-triazine-2,4-diamine
Formula: C11H21N5S
Exact mass: 255.1518
SMILES: CCNC1=NC(SC)=NC(NC(C)C(C)C)=N1
InChI: InChI=1S/C11H21N5S/c1-6-12-9-14-10(13-8(4)7(2)3)16-11(15-9)17-5/h7-8H,6H2,1-5H3,(H2,12,13,14,15,16)
Instrument: Q Exactive Orbitrap (Thermo Scientific)
Instrument type: LC-ESI-QFT
Ms type: MS2
Ion mode: POSITIVE
Ionization: ESI
Fragmentation mode: HCD
Collision energy: 75
Resolution: 17500
Column name: Acquity BEH C18 1.7um, 2.1x150mm (Waters)
Retention time: 17.321 min
Base peak: 79.0211
Precursor m/z: 256.159
Precursor type: [M+H]+
Precursor intensity: 15491478.125
m/z	relative intensity	assigned
55.0543	6	C4H7+
57.0448	1	C2H5N2+
57.0699	5	C4H9+
68.0243	999	C2H2N3+
70.0399	2	C2H4N3+
70.0651	12	C4H8N+
71.0603	896	C3H7N2+
71.0855	76	C5H11+
74.0058	339	C2H4NS+
79.021	4	H5N3S+
85.0509	221	C2H5N4+
91.0325	993	C2H7N2S+
96.0556	928	C4H6N3+
99.001	2	C3H3N2S+
102.0372	39	C4H8NS+
102.0914	3	C3H10N4+
110.0461	133	C3H4N5+
113.0821	100	C4H9N4+
116.0277	543	C3H6N3S+
130.0434	2	C4H8N3S+
131.0385	1	C3H7N4S+
138.0774	284	C5H8N5+
140.0932	5	C5H10N5+
143.0262	4	C3H5N5S+
144.059	219	C5H10N3S+
156.0335	2	C4H6N5S+
158.0495	226	C4H8N5S+
159.0703	1	C5H11N4S+
169.0545	3	C6H9N4S+
170.0494	3	C5H8N5S+
171.0573	6	C5H9N5S+
184.065	7	C6H10N5S+
186.0808	529	C6H12N5S+
198.0807	2	C7H12N5S+
256.1582	1	C11H22N5S+
