Mass spectrum: Nicardipine; LC-ESI-QFT; MS2; CE: 45; R=17500; [M+H]+
Name: Nicardipine
Name: 5-O-[2-[benzyl(methyl)amino]ethyl] 3-O-methyl 2,6-dimethyl-4-(3-nitrophenyl)-1,4-dihydropyridine-3,5-dicarboxylate
Formula: C26H29N3O6
Exact mass: 479.2056
SMILES: COC(=O)C1=C(C)NC(C)=C(C1C1=CC(=CC=C1)[N+]([O-])=O)C(=O)OCCN(C)CC1=CC=CC=C1
InChI: InChI=1S/C26H29N3O6/c1-17-22(25(30)34-4)24(20-11-8-12-21(15-20)29(32)33)23(18(2)27-17)26(31)35-14-13-28(3)16-19-9-6-5-7-10-19/h5-12,15,24,27H,13-14,16H2,1-4H3
Instrument: Q Exactive Orbitrap (Thermo Scientific)
Instrument type: LC-ESI-QFT
Ms type: MS2
Ion mode: POSITIVE
Ionization: ESI
Fragmentation mode: HCD
Collision energy: 45
Resolution: 17500
Column name: Acquity BEH C18 1.7um, 2.1x150mm (Waters)
Retention time: 14.916 min
Base peak: 79.0211
Precursor m/z: 480.2129
Precursor type: [M+H]+
Precursor intensity: 22716806
m/z	relative intensity	assigned
56.0495	2	C3H6N+
58.0651	11	C3H8N+
65.0385	7	C5H5+
67.0159	1	C2HN3+
67.0179	13	C4H3O+
74.06	13	C3H8NO+
84.0445	1	C4H6NO+
91.0543	999	C7H7+
105.0699	72	C8H9+
111.0441	11	C6H7O2+
117.0702	1	C9H9+
119.0855	1	C9H11+
148.1121	286	C10H14N+
165.0784	4	C9H11NO2+
166.1227	94	C10H16NO+
168.0571	1	C12H8O+
168.0809	2	C12H10N+
171.0678	1	C11H9NO+
171.1042	4	C12H13N+
173.0836	2	C11H11NO+
176.0343	1	C9H6NO3+
180.0656	2	C9H10NO3+
181.0888	1	C13H11N+
182.0966	2	C13H12N+
183.1042	3	C13H13N+
184.1124	1	C13H14N+
192.0658	1	C10H10NO3+
193.1098	8	C11H15NO2+
196.0757	3	C13H10NO+
197.0684	6	C9H11NO4+
197.0838	2	C13H11NO+
198.0912	3	C13H12NO+
199.0993	1	C13H13NO+
200.0344	3	C11H6NO3+
202.0865	1	C12H12NO2+
208.0756	2	C14H10NO+
209.0833	11	C14H11NO+
210.0914	39	C14H12NO+
211.0871	1	C13H11N2O+
211.0991	10	C14H13NO+
212.0948	1	C13H12N2O+
213.0779	1	C13H11NO2+
214.0499	1	C12H8NO3+
214.0863	2	C13H12NO2+
215.0942	2	C13H13NO2+
217.0609	4	C11H9N2O3+
225.0786	2	C14H11NO2+
226.0863	99	C14H12NO2+
227.0816	9	C13H11N2O2+
228.0529	1	C12H8N2O3+
228.1016	2	C14H14NO2+
229.11	3	C14H15NO2+
235.0627	1	C15H9NO2+
236.0705	7	C15H10NO2+
237.0659	1	C14H9N2O2+
237.0787	3	C15H11NO2+
238.0739	5	C14H10N2O2+
239.0815	12	C14H11N2O2+
239.094	1	C15H13NO2+
240.0658	1	C14H10NO3+
240.0894	1	C14H12N2O2+
240.1023	4	C15H14NO2+
241.0607	2	C13H9N2O3+
241.0736	7	C14H11NO3+
241.1096	4	C15H15NO2+
242.081	8	C14H12NO3+
243.0891	11	C14H13NO3+
249.0866	3	C12H13N2O4+
253.0735	3	C15H11NO3+
254.0812	73	C15H12NO3+
255.0764	23	C14H11N2O3+
255.089	1	C15H13NO3+
256.097	10	C15H14NO3+
257.0687	1	C14H11NO4+
257.0915	5	C14H13N2O3+
257.1047	4	C15H15NO3+
266.069	3	C15H10N2O3+
267.0891	31	C16H13NO3+
268.0969	79	C16H14NO3+
269.1048	171	C16H15NO3+
270.0617	3	C14H10N2O4+
270.0995	7	C15H14N2O3+
280.0849	1	C16H12N2O3+
281.092	3	C16H13N2O3+
283.0713	97	C15H11N2O4+
284.0921	7	C16H14NO4+
285.0636	5	C15H11NO5+
285.0997	2	C16H15NO4+
287.1025	3	C15H15N2O4+
297.0873	7	C16H13N2O4+
298.095	117	C16H14N2O4+
299.0789	48	C16H13NO5+
301.0946	91	C16H15NO5+
313.082	10	C16H13N2O5+
313.1305	8	C18H19NO4+
315.0976	451	C16H15N2O5+
317.0893	1	C16H15NO6+
327.0974	6	C17H15N2O5+
331.0922	2	C16H15N2O6+
345.121	15	C18H19NO6+
359.1239	146	C18H19N2O6+
