Mass spectrum: 5-Nitroisophthalic acid; LC-ESI-QFT; MS2; CE: 75; R=17500; [M-H]-
Name: 5-Nitroisophthalic acid
Name: 5-nitrobenzene-1,3-dicarboxylic acid
Formula: C8H5NO6
Exact mass: 211.0117
SMILES: OC(=O)C1=CC(=CC(=C1)C(O)=O)[N+]([O-])=O
InChI: InChI=1S/C8H5NO6/c10-7(11)4-1-5(8(12)13)3-6(2-4)9(14)15/h1-3H,(H,10,11)(H,12,13)
Instrument: Q Exactive Orbitrap (Thermo Scientific)
Instrument type: LC-ESI-QFT
Ms type: MS2
Ion mode: NEGATIVE
Ionization: ESI
Fragmentation mode: HCD
Collision energy: 75
Resolution: 17500
Column name: Acquity BEH C18 1.7um, 2.1x150mm (Waters)
Retention time: 14.316 min
Base peak: 112.9857
Precursor m/z: 210.0044
Precursor type: [M-H]-
Precursor intensity: 2323226.585937
m/z	relative intensity	assigned
62.0162	67	C5H2-
63.024	224	C5H3-
65.0033	35	C4HO-
75.024	999	C6H3-
91.0189	627	C6H3O-
119.0138	816	C7H3O2-
