Mass spectrum: Pantothenate; LC-ESI-QFT; MS2; CE: 45; R=17500; [M-H]-
Name: Pantothenate
Name: Pantothenic acid
Name: 3-[[(2R)-2,4-dihydroxy-3,3-dimethylbutanoyl]amino]propanoic acid
Formula: C9H17NO5
Exact mass: 219.1107
SMILES: CC(C)(CO)[C@@H](O)C(=O)NCCC(O)=O
InChI: InChI=1S/C9H17NO5/c1-9(2,5-11)7(14)8(15)10-4-3-6(12)13/h7,11,14H,3-5H2,1-2H3,(H,10,15)(H,12,13)/t7-/m0/s1
Instrument: Q Exactive Orbitrap (Thermo Scientific)
Instrument type: LC-ESI-QFT
Ms type: MS2
Ion mode: NEGATIVE
Ionization: ESI
Fragmentation mode: HCD
Collision energy: 45
Resolution: 17500
Column name: Acquity BEH C18 1.7um, 2.1x150mm (Waters)
Retention time: 8.073 min
Base peak: 218.1033
Precursor m/z: 218.1034
Precursor type: [M-H]-
Precursor intensity: 3583590.125
m/z	relative intensity	assigned
59.0138	30	C2H3O2-
71.0139	163	C3H3O2-
71.0503	353	C4H7O-
72.009	14	C2H2NO2-
72.0456	7	C3H6NO-
88.0404	999	C3H6NO2-
98.0611	3	C5H8NO-
99.0452	113	C5H7O2-
116.0351	11	C4H6NO3-
116.0717	65	C5H10NO2-
129.0558	23	C6H9O3-
146.0823	709	C6H12NO3-
218.103	8	C9H16NO5-
