Mass spectrum: 1-Dodecyl-2-pyrrolidinone; LC-ESI-QFT; MS2; CE: 60; R=17500; [M+H]+
Name: 1-Dodecyl-2-pyrrolidinone
Name: 1-dodecylpyrrolidin-2-one
Formula: C16H31NO
Exact mass: 253.2406
SMILES: CCCCCCCCCCCCN1CCCC1=O
InChI: InChI=1S/C16H31NO/c1-2-3-4-5-6-7-8-9-10-11-14-17-15-12-13-16(17)18/h2-15H2,1H3
Instrument: Q Exactive Orbitrap (Thermo Scientific)
Instrument type: LC-ESI-QFT
Ms type: MS2
Ion mode: POSITIVE
Ionization: ESI
Fragmentation mode: HCD
Collision energy: 60
Resolution: 17500
Column name: Acquity BEH C18 1.7um, 2.1x150mm (Waters)
Retention time: 20.681 min
Base peak: 79.0211
Precursor m/z: 254.2478
Precursor type: [M+H]+
Precursor intensity: 33684173.25
m/z	relative intensity	assigned
53.0022	10	C3HO+
53.9975	1	C2NO+
55.0543	3	C4H7+
57.0699	139	C4H9+
58.0652	1	C3H8N+
68.0495	8	C4H6N+
69.0334	72	C4H5O+
70.0651	5	C4H8N+
71.0855	43	C5H11+
84.0443	1	C4H6NO+
85.1012	9	C6H13+
86.06	999	C4H8NO+
98.06	17	C5H8NO+
100.0758	3	C5H10NO+
114.0914	8	C6H12NO+
128.1069	10	C7H14NO+
142.1226	4	C8H16NO+
156.1385	1	C9H18NO+
170.1541	1	C10H20NO+
254.2478	125	C16H32NO+
