Mass spectrum: Oxazepam; LC-ESI-QFT; MS2; CE: 60; R=17500; [M-H]-
Name: Oxazepam
Name: 7-chloro-3-hydroxy-5-phenyl-1,3-dihydro-1,4-benzodiazepin-2-one
Formula: C15H11ClN2O2
Exact mass: 286.0509
SMILES: OC1N=C(C2=CC=CC=C2)C2=CC(Cl)=CC=C2NC1=O
InChI: InChI=1S/C15H11ClN2O2/c16-10-6-7-12-11(8-10)13(9-4-2-1-3-5-9)18-15(20)14(19)17-12/h1-8,15,20H,(H,17,19)
Instrument: Q Exactive Orbitrap (Thermo Scientific)
Instrument type: LC-ESI-QFT
Ms type: MS2
Ion mode: NEGATIVE
Ionization: ESI
Fragmentation mode: HCD
Collision energy: 60
Resolution: 17500
Column name: Acquity BEH C18 1.7um, 2.1x150mm (Waters)
Retention time: 16.709 min
Base peak: 127.0068
Precursor m/z: 285.0436
Precursor type: [M-H]-
Precursor intensity: 4241416.394531
m/z	relative intensity	assigned
63.0241	160	C5H3-
65.0033	102	C4HO-
65.0397	41	C5H5-
67.019	70	C4H3O-
83.0139	156	C4H3O2-
89.0396	53	C7H5-
91.019	102	C6H3O-
91.0302	51	C5H3N2-
93.0346	679	C6H5O-
95.0139	79	C5H3O2-
107.0139	203	C6H3O2-
109.0295	175	C6H5O2-
117.0346	299	C8H5O-
119.0503	49	C8H7O-
121.0296	42	C7H5O2-
123.0451	99	C7H7O2-
126.0115	119	C6H5ClN-
127.0067	98	C5H4ClN2-
130.0423	52	C9H6O-
131.0502	78	C9H7O-
133.0294	83	C8H5O2-
135.0087	153	C4H6ClNO2-
137.0244	161	C4H8ClNO2-
143.0504	344	C10H7O-
145.0295	202	C9H5O2-
151.0074	304	C7H4ClN2-
154.0067	40	C7H5ClNO-
154.0423	160	C11H6O-
155.0503	88	C11H7O-
156.0583	69	C11H8O-
157.0294	71	C10H5O2-
157.0659	166	C11H9O-
158.0374	51	C10H6O2-
159.0452	336	C10H7O2-
161.0244	150	C6H8ClNO2-
167.0502	108	C12H7O-
171.0452	170	C11H7O2-
173.0246	84	C7H8ClNO2-
179.0019	203	C8H4ClN2O-
183.0451	88	C12H7O2-
184.0526	75	C12H8O2-
185.0607	334	C12H9O2-
187.0403	399	C8H10ClNO2-
211.0401	268	C10H10ClNO2-
214.0272	135	C15H4NO-
227.0352	164	C13H8ClN2-
229.0507	191	C13H10ClN2-
239.0351	331	C14H8ClN2-
241.0302	331	C14H8ClNO-
242.038	70	C14H9ClNO-
255.0301	136	C14H8ClN2O-
257.0465	51	C14H10ClN2O-
285.0406	999	C15H10ClN2O2-
