Mass spectrum: Sulfaquinoxaline; LC-ESI-QFT; MS2; CE: 45; R=17500; [M-H]-
Name: Sulfaquinoxaline
Name: 4-amino-N-quinoxalin-2-ylbenzenesulfonamide
Formula: C14H12N4O2S
Exact mass: 300.0681
SMILES: NC1=CC=C(C=C1)S(=O)(=O)NC1=CN=C2C=CC=CC2=N1
InChI: InChI=1S/C14H12N4O2S/c15-10-5-7-11(8-6-10)21(19,20)18-14-9-16-12-3-1-2-4-13(12)17-14/h1-9H,15H2,(H,17,18)
Instrument: Q Exactive Orbitrap (Thermo Scientific)
Instrument type: LC-ESI-QFT
Ms type: MS2
Ion mode: NEGATIVE
Ionization: ESI
Fragmentation mode: HCD
Collision energy: 45
Resolution: 17500
Column name: Acquity BEH C18 1.7um, 2.1x150mm (Waters)
Retention time: 13.928 min
Base peak: 358.0229
Precursor m/z: 299.0608
Precursor type: [M-H]-
Precursor intensity: 4609793.041992
m/z	relative intensity	assigned
61.9707	4	NOS-
63.9625	14	O2S-
77.9655	26	NO2S-
79.9811	4	H2NO2S-
92.0506	30	C6H6N-
93.0346	75	C6H5O-
95.0504	4	C6H7O-
106.0411	12	C5H4N3-
107.0376	19	C6H5NO-
108.0455	25	C6H6NO-
117.0458	287	C7H5N2-
118.0299	76	C7H4NO-
120.0454	33	C7H6NO-
121.0295	201	C7H5O2-
123.0451	24	C7H7O2-
131.0378	27	C8H5NO-
132.0217	25	C8H4O2-
132.0328	5	C7H4N2O-
142.041	185	C8H4N3-
143.0489	176	C8H5N3-
144.0567	594	C8H6N3-
145.0407	13	C8H5N2O-
148.0404	6	C8H6NO2-
149.0469	15	C6H5N4O-
155.0047	8	C6H5NO2S-
156.0124	17	C6H6NO2S-
158.0484	24	C9H6N2O-
171.056	4	C10H7N2O-
181.0077	32	C7H5N2O2S-
181.0775	5	C12H9N2-
184.0519	5	C10H6N3O-
185.0595	14	C10H7N3O-
191.0159	16	C8H5N3OS-
198.0672	22	C11H8N3O-
199.0751	130	C11H9N3O-
200.0829	24	C11H10N3O-
207.011	8	C8H5N3O2S-
208.088	179	C13H10N3-
224.0821	7	C13H10N3O-
233.0833	156	C14H9N4-
235.099	169	C14H11N4-
297.0451	11	C14H9N4O2S-
299.0607	999	C14H11N4O2S-
