Mass spectrum: Pyrimethamine; LC-ESI-QFT; MS2; CE: 60; R=17500; [M+H]+
Name: Pyrimethamine
Name: 5-(4-chlorophenyl)-6-ethylpyrimidine-2,4-diamine
Formula: C12H13ClN4
Exact mass: 248.0829
SMILES: CCC1=NC(N)=NC(N)=C1C1=CC=C(Cl)C=C1
InChI: InChI=1S/C12H13ClN4/c1-2-9-10(11(14)17-12(15)16-9)7-3-5-8(13)6-4-7/h3-6H,2H2,1H3,(H4,14,15,16,17)
Instrument: Q Exactive Orbitrap (Thermo Scientific)
Instrument type: LC-ESI-QFT
Ms type: MS2
Ion mode: POSITIVE
Ionization: ESI
Fragmentation mode: HCD
Collision energy: 60
Resolution: 17500
Column name: Acquity BEH C18 1.7um, 2.1x150mm (Waters)
Retention time: 13.596 min
Base peak: 79.0211
Precursor m/z: 249.0902
Precursor type: [M+H]+
Precursor intensity: 15085266.75
m/z	relative intensity	assigned
56.0495	16	C3H6N+
60.0556	11	CH6N3+
82.0525	2	C4H6N2+
95.0602	1	C5H7N2+
103.0541	1	C8H7+
115.0543	1	C9H7+
116.0496	2	C8H6N+
117.0572	7	C8H7N+
125.0152	15	C7H6Cl+
127.0543	2	C10H7+
128.062	30	C10H8+
129.0099	1	C4H4ClN3+
129.0698	1	C10H9+
130.0776	2	C10H10+
139.0058	2	C6H4ClN2+
142.0525	1	C9H6N2+
143.0605	2	C9H7N2+
145.0648	10	C7H12ClN+
145.0883	5	C10H11N+
149.0151	4	C9H6Cl+
150.0104	5	C8H5ClN+
150.0233	1	C9H7Cl+
152.0261	64	C8H7ClN+
154.0651	12	C11H8N+
155.0606	12	C10H7N2+
155.0729	27	C11H9N+
161.0023	1	C9H4ClN+
163.0308	106	C10H8Cl+
165.0215	2	C8H6ClN2+
165.0466	2	C10H10Cl+
169.0761	1	C11H9N2+
170.0835	1	C11H10N2+
171.0913	2	C11H11N2+
172.0993	4	C11H12N2+
177.0213	867	C9H6ClN2+
178.0415	1	C10H9ClN+
179.0364	2	C9H8ClN2+
179.0604	1	C12H7N2+
180.0572	10	C10H11ClN+
180.0679	2	C12H8N2+
182.0719	1	C11H8N3+
188.0266	5	C11H7ClN+
190.0418	27	C11H9ClN+
191.037	2	C10H8ClN2+
191.0493	7	C11H10ClN+
192.0447	7	C10H9ClN2+
194.0483	4	C9H9ClN3+
196.0869	21	C12H10N3+
197.0831	1	C11H9N4+
197.0946	24	C12H11N3+
198.0899	23	C11H10N4+
199.0975	5	C11H11N4+
204.0322	2	C10H7ClN3+
205.0527	4	C11H10ClN2+
207.0682	87	C11H12ClN2+
213.1134	34	C12H13N4+
214.1204	1	C12H14N4+
215.0371	8	C12H8ClN2+
217.0401	7	C11H8ClN3+
232.0635	24	C12H11ClN3+
233.0587	780	C11H10ClN4+
234.0666	56	C11H11ClN4+
247.0746	2	C12H12ClN4+
249.09	999	C12H14ClN4+
