Mass spectrum: CI-959; LC-ESI-QFT; MS2; CE: 45; R=17500; [M+H]+
Name: CI-959
Name: CI-959 free acid
Name: 5-methoxy-3-propan-2-yloxy-N-(2H-tetrazol-5-yl)-1-benzothiophene-2-carboxamide
Formula: C14H15N5O3S
Exact mass: 333.0896
SMILES: COC1=CC2=C(SC(C(=O)NC3=NN=NN3)=C2OC(C)C)C=C1
InChI: InChI=1S/C14H15N5O3S/c1-7(2)22-11-9-6-8(21-3)4-5-10(9)23-12(11)13(20)15-14-16-18-19-17-14/h4-7H,1-3H3,(H2,15,16,17,18,19,20)
Instrument: Q Exactive Orbitrap (Thermo Scientific)
Instrument type: LC-ESI-QFT
Ms type: MS2
Ion mode: POSITIVE
Ionization: ESI
Fragmentation mode: HCD
Collision energy: 45
Resolution: 17500
Column name: Acquity BEH C18 1.7um, 2.1x150mm (Waters)
Retention time: 17.398 min
Base peak: 79.0211
Precursor m/z: 334.0968
Precursor type: [M+H]+
Precursor intensity: 6905179.75
m/z	relative intensity	assigned
58.0401	7	CH4N3+
69.0083	5	C2HN2O+
84.0193	3	C2H2N3O+
86.0462	275	CH4N5+
91.0544	2	C7H7+
107.0493	2	C7H7O+
112.0254	80	C2H2N5O+
128.0932	8	C4H10N5+
135.0442	45	C8H7O2+
139.0213	210	C7H7OS+
151.0214	19	C8H7OS+
153.0367	9	C8H9OS+
159.0803	5	C11H11O+
160.088	1	C11H12O+
163.0213	14	C9H7OS+
163.9933	2	C8H4O2S+
166.0082	4	C8H6O2S+
178.045	17	C10H10OS+
179.0162	268	C9H7O2S+
181.0319	45	C9H9O2S+
191.0164	3	C10H7O2S+
191.9877	2	C9H4O3S+
193.0683	31	C11H13OS+
194.027	13	C9H8NO2S+
207.0112	999	C10H7O3S+
209.998	21	C7H4N3O3S+
221.0634	4	C12H13O2S+
249.0206	2	C10H7N3O3S+
