Mass spectrum: Furalaxyl; LC-ESI-QFT; MS2; CE: 90; R=17500; [M+H]+
Name: Furalaxyl
Name: methyl 2-[N-(furan-2-carbonyl)-2,6-dimethylanilino]propanoate
Formula: C17H19NO4
Exact mass: 301.1314
SMILES: COC(=O)C(C)N(C(=O)C1=CC=CO1)C1=C(C)C=CC=C1C
InChI: InChI=1S/C17H19NO4/c1-11-7-5-8-12(2)15(11)18(13(3)17(20)21-4)16(19)14-9-6-10-22-14/h5-10,13H,1-4H3
Instrument: Q Exactive Orbitrap (Thermo Scientific)
Instrument type: LC-ESI-QFT
Ms type: MS2
Ion mode: POSITIVE
Ionization: ESI
Fragmentation mode: HCD
Collision energy: 90
Resolution: 17500
Column name: Acquity BEH C18 1.7um, 2.1x150mm (Waters)
Retention time: 17.020 min
Base peak: 79.0212
Precursor m/z: 302.1387
Precursor type: [M+H]+
Precursor intensity: 33293259.75
m/z	relative intensity	assigned
53.0022	8	C3HO+
55.0178	1	C3H3O+
79.0542	1	C6H7+
83.0127	25	C4H3O2+
95.0127	999	C5H3O2+
103.0542	1	C8H7+
105.0698	2	C8H9+
120.0806	1	C8H10N+
132.0807	1	C9H10N+
148.0758	2	C9H10NO+
