Mass spectrum: 2-Methyl-4`-(methylthio)-2-morpholinopropiophenone; LC-ESI-QFT; MS2; CE: 45; R=17500; [M+H]+
Name: 2-Methyl-4'-(methylthio)-2-morpholinopropiophenone
Name: 2-methyl-1-(4-methylsulfanylphenyl)-2-morpholin-4-ylpropan-1-one
Formula: C15H21NO2S
Exact mass: 279.1293
SMILES: CSC1=CC=C(C=C1)C(=O)C(C)(C)N1CCOCC1
InChI: InChI=1S/C15H21NO2S/c1-15(2,16-8-10-18-11-9-16)14(17)12-4-6-13(19-3)7-5-12/h4-7H,8-11H2,1-3H3
Instrument: Q Exactive Orbitrap (Thermo Scientific)
Instrument type: LC-ESI-QFT
Ms type: MS2
Ion mode: POSITIVE
Ionization: ESI
Fragmentation mode: HCD
Collision energy: 45
Resolution: 17500
Column name: Acquity BEH C18 1.7um, 2.1x150mm (Waters)
Retention time: 14.172 min
Base peak: 79.0211
Precursor m/z: 280.1366
Precursor type: [M+H]+
Precursor intensity: 15831740.75
m/z	relative intensity	assigned
59.0491	2	C3H7O+
70.065	52	C4H8N+
84.0808	2	C5H10N+
86.0599	2	C4H8NO+
88.0756	437	C4H10NO+
91.0541	1	C7H7+
114.0913	15	C6H12NO+
115.054	5	C9H7+
117.0698	82	C9H9+
118.0775	8	C9H10+
123.0261	1	C7H7S+
124.0342	1	C7H8S+
125.0418	3	C7H9S+
128.1069	150	C7H14NO+
131.049	1	C9H7O+
135.0262	2	C8H7S+
137.0419	42	C8H9S+
145.0647	7	C10H9O+
146.0725	92	C10H10O+
149.042	1	C9H9S+
150.0496	14	C9H10S+
153.0367	2	C8H9OS+
165.0731	999	C10H13S+
167.0527	2	C9H11OS+
178.0444	1	C10H10OS+
193.0681	21	C11H13OS+
280.1364	35	C15H22NO2S+
