Mass spectrum: 3,3`-Dimethoxybenzidine; LC-ESI-QFT; MS2; CE: 75; R=17500; [M+H]+
Name: 3,3'-Dimethoxybenzidine
Name: 4-(4-amino-3-methoxyphenyl)-2-methoxyaniline
Formula: C14H16N2O2
Exact mass: 244.1212
SMILES: COC1=CC(=CC=C1N)C1=CC(OC)=C(N)C=C1
InChI: InChI=1S/C14H16N2O2/c1-17-13-7-9(3-5-11(13)15)10-4-6-12(16)14(8-10)18-2/h3-8H,15-16H2,1-2H3
Instrument: Q Exactive Orbitrap (Thermo Scientific)
Instrument type: LC-ESI-QFT
Ms type: MS2
Ion mode: POSITIVE
Ionization: ESI
Fragmentation mode: HCD
Collision energy: 75
Resolution: 17500
Column name: Acquity BEH C18 1.7um, 2.1x150mm (Waters)
Retention time: 8.573 min
Base peak: 79.0211
Precursor m/z: 245.1285
Precursor type: [M+H]+
Precursor intensity: 1314271.8125
m/z	relative intensity	assigned
97.0078	23	C8H+
105.0702	5	C8H9+
115.0543	10	C9H7+
130.0653	11	C9H8N+
143.0731	71	C10H9N+
153.0574	19	C11H7N+
154.0649	42	C11H8N+
155.0733	7	C11H9N+
158.0839	30	C10H10N2+
166.0664	6	C12H8N+
169.0761	58	C11H9N2+
170.084	284	C11H10N2+
171.0684	18	C11H9NO+
171.0919	23	C11H11N2+
181.0765	17	C12H9N2+
182.0842	46	C12H10N2+
185.0715	12	C11H9N2O+
186.079	29	C11H10N2O+
186.0915	6	C12H12NO+
187.0869	999	C11H11N2O+
197.0716	20	C12H9N2O+
198.079	136	C12H10N2O+
199.087	12	C12H11N2O+
201.1024	25	C12H13N2O+
213.0664	9	C12H9N2O2+
213.1028	9	C13H13N2O+
215.0817	90	C12H11N2O2+
230.1051	30	C13H14N2O2+
