Mass spectrum: Trilostane; LC-ESI-QFT; MS2; CE: 60; R=17500; [M-H]-
Name: Trilostane
Name: (1S,2R,6R,8S,11S,12S,15S,16S)-5,15-dihydroxy-2,16-dimethyl-7-oxapentacyclo[9.7.0.02,8.06,8.012,16]octadec-4-ene-4-carbonitrile
Formula: C20H27NO3
Exact mass: 329.1991
SMILES: C[C@]12CC[C@H]3[C@@H](CC[C@@]45O[C@@H]4C(O)=C(C[C@]35C)C#N)[C@@H]1CC[C@@H]2O
InChI: InChI=1S/C20H27NO3/c1-18-7-6-14-12(13(18)3-4-15(18)22)5-8-20-17(24-20)16(23)11(10-21)9-19(14,20)2/h12-15,17,22-23H,3-9H2,1-2H3/t12-,13-,14-,15-,17+,18-,19+,20+/m0/s1
Instrument: Q Exactive Orbitrap (Thermo Scientific)
Instrument type: LC-ESI-QFT
Ms type: MS2
Ion mode: NEGATIVE
Ionization: ESI
Fragmentation mode: HCD
Collision energy: 60
Resolution: 17500
Column name: Acquity BEH C18 1.7um, 2.1x150mm (Waters)
Retention time: 16.712 min
Base peak: 429.0536
Precursor m/z: 328.1918
Precursor type: [M-H]-
Precursor intensity: 8242147.957031
m/z	relative intensity	assigned
57.0346	4	C3H5O-
65.0033	437	C4HO-
65.9985	18	C3NO-
71.0502	13	C4H7O-
73.0295	2	C3H5O2-
80.0506	4	C5H6N-
82.0298	5	C4H4NO-
83.0503	5	C5H7O-
92.0142	999	C5H2NO-
94.0299	2	C5H4NO-
95.0502	2	C6H7O-
97.066	5	C6H9O-
104.0506	4	C7H6N-
107.05	3	C7H7O-
109.0658	72	C7H9O-
116.0507	5	C8H6N-
117.0584	4	C8H7N-
118.0299	4	C7H4NO-
118.0662	14	C8H8N-
119.0376	71	C7H5NO-
120.0455	9	C7H6NO-
121.0657	5	C8H9O-
123.0815	244	C8H11O-
130.066	12	C9H8N-
131.0377	6	C8H5NO-
135.0815	22	C9H11O-
142.0662	3	C10H8N-
143.0739	27	C10H9N-
144.0818	9	C10H10N-
145.0533	38	C9H7NO-
146.0248	39	C8H4NO2-
146.0612	34	C9H8NO-
148.0403	27	C8H6NO2-
149.097	15	C10H13O-
154.0666	4	C11H8N-
156.0818	9	C11H10N-
158.0609	24	C10H8NO-
159.0323	4	C9H5NO2-
159.0686	6	C10H9NO-
161.0972	4	C11H13O-
163.1126	3	C11H15O-
168.0448	3	C11H6NO-
168.0819	2	C12H10N-
170.0611	9	C11H8NO-
173.0972	6	C12H13O-
175.1128	23	C12H15O-
176.0352	8	C9H6NO3-
177.043	14	C9H7NO3-
177.1284	221	C12H17O-
182.0608	7	C12H8NO-
182.0976	4	C13H12N-
184.0766	6	C12H10NO-
189.1283	11	C13H17O-
191.0591	3	C10H9NO3-
194.0975	4	C14H12N-
196.0767	31	C13H10NO-
205.1233	2	C13H17O2-
207.139	27	C13H19O2-
210.1291	3	C15H16N-
215.1443	11	C15H19O-
217.16	3	C15H21O-
222.0922	4	C15H12NO-
223.1703	3	C14H23O2-
224.1088	3	C15H14NO-
224.1449	3	C16H18N-
226.16	18	C16H20N-
231.1391	25	C15H19O2-
233.1547	520	C15H21O2-
235.1703	322	C15H23O2-
236.108	2	C16H14NO-
236.1447	2	C17H18N-
238.1237	6	C16H16NO-
245.1546	3	C16H21O2-
249.1499	21	C15H21O3-
250.1246	2	C17H16NO-
250.1605	2	C18H20N-
252.1396	2	C17H18NO-
254.155	8	C17H20NO-
257.1545	4	C17H21O2-
264.1394	20	C18H18NO-
264.1763	4	C19H22N-
266.1191	3	C17H16NO2-
266.155	51	C18H20NO-
267.1602	30	C18H21NO-
268.1705	78	C18H22NO-
273.1867	4	C18H25O2-
276.1387	2	C19H18NO-
278.155	25	C19H20NO-
279.1613	3	C19H21NO-
280.1344	6	C18H18NO2-
280.1707	118	C19H22NO-
282.1863	212	C19H24NO-
283.1569	4	C18H21NO2-
284.1657	19	C18H22NO2-
294.1499	116	C19H20NO2-
296.1657	18	C19H22NO2-
298.1826	4	C19H24NO2-
300.1969	38	C19H26NO2-
308.1673	3	C20H22NO2-
310.1814	62	C20H24NO2-
312.1601	8	C19H22NO3-
328.1918	73	C20H26NO3-
