Mass spectrum: Phenolphthalein; LC-ESI-QFT; MS2; CE: 90; R=17500; [M-H]-
Name: Phenolphthalein
Name: 3,3-bis(4-hydroxyphenyl)-2-benzofuran-1-one
Formula: C20H14O4
Exact mass: 318.0892
SMILES: OC1=CC=C(C=C1)C1(OC(=O)C2=C1C=CC=C2)C1=CC=C(O)C=C1
InChI: InChI=1S/C20H14O4/c21-15-9-5-13(6-10-15)20(14-7-11-16(22)12-8-14)18-4-2-1-3-17(18)19(23)24-20/h1-12,21-22H
Instrument: Q Exactive Orbitrap (Thermo Scientific)
Instrument type: LC-ESI-QFT
Ms type: MS2
Ion mode: NEGATIVE
Ionization: ESI
Fragmentation mode: HCD
Collision energy: 90
Resolution: 17500
Column name: Acquity BEH C18 1.7um, 2.1x150mm (Waters)
Retention time: 15.333 min
Base peak: 317.0818
Precursor m/z: 317.0819
Precursor type: [M-H]-
Precursor intensity: 8617105.705078
m/z	relative intensity	assigned
65.0397	46	C5H5-
75.0241	3	C6H3-
93.0346	999	C6H5O-
151.0554	2	C12H7-
195.0452	29	C13H7O2-
197.061	2	C13H9O2-
204.0579	1	C15H8O-
215.0868	5	C17H11-
223.0404	4	C14H7O3-
241.0657	2	C18H9O-
243.0817	16	C18H11O-
271.0767	23	C19H11O2-
