Mass spectrum: Nelivaptan; LC-ESI-QFT; MS2; CE: 15; R=17500; [M+H]+
Name: Nelivaptan
Name: (2S,4R)-1-[(3R)-5-chloro-1-(2,4-dimethoxyphenyl)sulfonyl-3-(2-methoxyphenyl)-2-oxoindol-3-yl]-4-hydroxy-N,N-dimethylpyrrolidine-2-carboxamide
Formula: C30H32ClN3O8S
Exact mass: 629.1599
SMILES: COC1=CC(OC)=C(C=C1)S(=O)(=O)N1C(=O)[C@@](N2C[C@H](O)C[C@H]2C(=O)N(C)C)(C2=CC(Cl)=CC=C12)C1=CC=CC=C1OC
InChI: InChI=1S/C30H32ClN3O8S/c1-32(2)28(36)24-15-19(35)17-33(24)30(21-8-6-7-9-25(21)41-4)22-14-18(31)10-12-23(22)34(29(30)37)43(38,39)27-13-11-20(40-3)16-26(27)42-5/h6-14,16,19,24,35H,15,17H2,1-5H3/t19-,24+,30+/m1/s1
Instrument: Q Exactive Orbitrap (Thermo Scientific)
Instrument type: LC-ESI-QFT
Ms type: MS2
Ion mode: POSITIVE
Ionization: ESI
Fragmentation mode: HCD
Collision energy: 15
Resolution: 17500
Column name: Acquity BEH C18 1.7um, 2.1x150mm (Waters)
Retention time: 18.171 min
Base peak: 79.0211
Precursor m/z: 630.1671
Precursor type: [M+H]+
Precursor intensity: 7493667.75
m/z	relative intensity	assigned
151.0754	103	C9H11O2+
153.0548	1	C8H9O3+
157.0972	12	C7H13N2O2+
185.0266	1	C8H9O3S+
201.0216	163	C8H9O4S+
219.0321	29	C8H11O5S+
233.0478	17	C9H13O5S+
254.0367	15	C15H9ClNO+
270.0317	5	C15H9ClNO2+
472.0619	999	C23H19ClNO6S+
