Mass spectrum: Propiconazole; LC-ESI-QFT; MS2; CE: 15; R=17500; [M+H]+
Name: Propiconazole
Name: 1-[[2-(2,4-dichlorophenyl)-4-propyl-1,3-dioxolan-2-yl]methyl]-1,2,4-triazole
Formula: C15H17Cl2N3O2
Exact mass: 341.0698
SMILES: CCCC1COC(CN2C=NC=N2)(O1)C1=C(Cl)C=C(Cl)C=C1
InChI: InChI=1S/C15H17Cl2N3O2/c1-2-3-12-7-21-15(22-12,8-20-10-18-9-19-20)13-5-4-11(16)6-14(13)17/h4-6,9-10,12H,2-3,7-8H2,1H3
Instrument: Q Exactive Orbitrap (Thermo Scientific)
Instrument type: LC-ESI-QFT
Ms type: MS2
Ion mode: POSITIVE
Ionization: ESI
Fragmentation mode: HCD
Collision energy: 15
Resolution: 17500
Column name: Acquity BEH C18 1.7um, 2.1x150mm (Waters)
Retention time: 18.657 min
Base peak: 79.0212
Precursor m/z: 342.0771
Precursor type: [M+H]+
Precursor intensity: 12009107.4375
m/z	relative intensity	assigned
69.0698	37	C5H9+
70.0399	4	C2H4N3+
87.0804	1	C5H11O+
158.9759	20	C7H5Cl2+
172.957	1	C7H3Cl2O+
186.9713	1	C8H5Cl2O+
204.9818	8	C8H7Cl2O2+
273.0442	8	C13H15Cl2O2+
342.0769	999	C15H18Cl2N3O2+
