Mass spectrum: Danazol; LC-ESI-QFT; MS2; CE: 90; R=17500; [M+H]+
Name: Danazol
Name: (1S,2R,13R,14S,17R,18S)-17-ethynyl-2,18-dimethyl-7-oxa-6-azapentacyclo[11.7.0.02,10.04,8.014,18]icosa-4(8),5,9-trien-17-ol
Formula: C22H27NO2
Exact mass: 337.2042
SMILES: C[C@]12CC[C@H]3[C@@H](CCC4=CC5=C(C[C@]34C)C=NO5)[C@@H]1CC[C@@]2(O)C#C
InChI: InChI=1S/C22H27NO2/c1-4-22(24)10-8-18-16-6-5-15-11-19-14(13-23-25-19)12-20(15,2)17(16)7-9-21(18,22)3/h1,11,13,16-18,24H,5-10,12H2,2-3H3/t16-,17+,18+,20+,21+,22+/m1/s1
Instrument: Q Exactive Orbitrap (Thermo Scientific)
Instrument type: LC-ESI-QFT
Ms type: MS2
Ion mode: POSITIVE
Ionization: ESI
Fragmentation mode: HCD
Collision energy: 90
Resolution: 17500
Column name: Acquity BEH C18 1.7um, 2.1x150mm (Waters)
Retention time: 18.811 min
Base peak: 79.0211
Precursor m/z: 338.2115
Precursor type: [M+H]+
Precursor intensity: 5493240.6875
m/z	relative intensity	assigned
50.0152	6	C4H2+
51.023	11	C4H3+
53.0022	37	C3HO+
53.0386	152	C4H5+
54.0339	13	C3H4N+
55.0179	52	C3H3O+
55.0543	72	C4H7+
56.0495	80	C3H6N+
63.023	5	C5H3+
65.0386	143	C5H5+
67.0416	15	C4H5N+
67.0542	169	C5H7+
68.0495	16	C4H6N+
69.0334	16	C4H5O+
69.0699	10	C5H9+
70.0287	116	C3H4NO+
70.0651	111	C4H8N+
77.0385	42	C6H5+
78.0339	5	C5H4N+
78.0463	16	C6H6+
79.0542	418	C6H7+
80.0495	88	C5H6N+
81.0335	37	C5H5O+
81.0574	14	C5H7N+
81.0699	110	C6H9+
82.0653	24	C5H8N+
84.0444	30	C4H6NO+
91.0543	999	C7H7+
92.0495	75	C6H6N+
93.0573	33	C6H7N+
93.0699	266	C7H9+
94.0652	116	C6H8N+
95.0492	347	C6H7O+
95.0855	43	C7H11+
96.0443	29	C5H6NO+
96.0809	4	C6H10N+
102.0463	10	C8H6+
103.0543	174	C8H7+
104.0495	11	C7H6N+
104.0621	19	C8H8+
105.0699	358	C8H9+
106.0651	159	C7H8N+
107.0491	26	C7H7O+
107.073	34	C7H9N+
107.0856	35	C8H11+
108.0446	6	C6H6NO+
108.0809	25	C7H10N+
109.0525	6	C6H7NO+
109.065	23	C7H9O+
109.1013	5	C8H13+
110.0601	24	C6H8NO+
115.0543	320	C9H7+
116.0621	95	C9H8+
117.0574	26	C8H7N+
117.0699	155	C9H9+
118.065	53	C8H8N+
118.0777	5	C9H10+
119.0493	13	C8H7O+
119.0731	21	C8H9N+
119.0856	101	C9H11+
120.0444	27	C7H6NO+
120.0808	184	C8H10N+
121.0648	143	C8H9O+
121.0889	12	C8H11N+
122.0601	24	C7H8NO+
122.0964	17	C8H12N+
123.068	10	C7H9NO+
124.0758	7	C7H10NO+
127.0542	16	C10H7+
128.0621	364	C10H8+
129.0699	208	C10H9+
130.0652	41	C9H8N+
130.0777	41	C10H10+
131.049	22	C9H7O+
131.0732	26	C9H9N+
131.0856	83	C10H11+
132.0571	13	C9H8O+
132.0808	45	C9H10N+
133.0525	13	C8H7NO+
133.0649	12	C9H9O+
133.0887	9	C9H11N+
133.1012	16	C10H13+
134.0602	8	C8H8NO+
134.0965	17	C9H12N+
135.0807	13	C9H11O+
141.0699	215	C11H9+
142.0778	124	C11H10+
143.0729	21	C10H9N+
143.0856	77	C11H11+
144.0572	9	C10H8O+
144.0809	47	C10H10N+
144.093	8	C11H12+
145.0648	57	C10H9O+
145.0887	14	C10H11N+
145.1013	20	C11H13+
146.0601	13	C9H8NO+
146.0723	9	C10H10O+
146.0964	29	C10H12N+
147.0679	5	C9H9NO+
147.0805	25	C10H11O+
148.0757	66	C9H10NO+
149.0838	9	C9H11NO+
152.0622	61	C12H8+
153.0699	138	C12H9+
154.066	6	C11H8N+
154.0778	56	C12H10+
155.0855	94	C12H11+
156.081	12	C11H10N+
156.0936	22	C12H12+
157.0648	9	C11H9O+
157.0888	13	C11H11N+
157.1013	27	C12H13+
158.0729	8	C11H10O+
158.0964	13	C11H12N+
159.0806	7	C11H11O+
159.105	7	C11H13N+
160.0756	9	C10H10NO+
160.1124	9	C11H14N+
162.0917	9	C10H12NO+
165.07	169	C13H9+
166.0778	48	C13H10+
167.0732	9	C12H9N+
167.0856	82	C13H11+
168.0809	15	C12H10N+
168.0934	18	C13H12+
169.0647	12	C12H9O+
169.1013	21	C13H13+
170.0963	9	C12H12N+
171.1041	4	C12H13N+
172.112	10	C12H14N+
174.0911	6	C11H12NO+
177.0699	5	C14H9+
178.0777	88	C14H10+
179.0857	84	C14H11+
180.0803	5	C13H10N+
180.0935	23	C14H12+
181.0647	7	C13H9O+
181.0889	7	C13H11N+
181.1011	28	C14H13+
182.0729	6	C13H10O+
182.0964	12	C13H12N+
182.1096	6	C14H14+
183.0802	6	C13H11O+
183.1172	7	C14H15+
184.1121	8	C13H14N+
189.0699	31	C15H9+
190.0776	32	C15H10+
191.0856	59	C15H11+
192.0932	24	C15H12+
193.1014	28	C15H13+
194.0971	6	C14H12N+
194.1093	4	C15H14+
195.0805	5	C14H11O+
195.117	11	C15H15+
196.1121	6	C14H14N+
197.1323	4	C15H17+
202.0778	52	C16H10+
203.0853	49	C16H11+
204.0933	16	C16H12+
205.1013	16	C16H13+
206.0965	8	C15H12N+
207.1161	7	C16H15+
208.1122	7	C15H14N+
210.1277	6	C15H16N+
215.0857	36	C17H11+
216.0933	8	C17H12+
217.1007	20	C17H13+
219.1168	6	C17H15+
220.1113	4	C16H14N+
229.1015	13	C18H13+
231.1177	6	C18H15+
248.1436	6	C18H18N+
