Mass spectrum: Folic acid; LC-ESI-QFT; MS2; CE: 30; R=17500; [M+H]+
Name: Folic acid
Name: (2S)-2-[[4-[(2-amino-4-oxo-1H-pteridin-6-yl)methylamino]benzoyl]amino]pentanedioic acid
Formula: C19H19N7O6
Exact mass: 441.1397
SMILES: NC1=NC(=O)C2=C(N1)N=CC(CNC1=CC=C(C=C1)C(=O)N[C@@H](CCC(O)=O)C(O)=O)=N2
InChI: InChI=1S/C19H19N7O6/c20-19-25-15-14(17(30)26-19)23-11(8-22-15)7-21-10-3-1-9(2-4-10)16(29)24-12(18(31)32)5-6-13(27)28/h1-4,8,12,21H,5-7H2,(H,24,29)(H,27,28)(H,31,32)(H3,20,22,25,26,30)/t12-/m0/s1
Instrument: Q Exactive Orbitrap (Thermo Scientific)
Instrument type: LC-ESI-QFT
Ms type: MS2
Ion mode: POSITIVE
Ionization: ESI
Fragmentation mode: HCD
Collision energy: 30
Resolution: 17500
Column name: Acquity BEH C18 1.7um, 2.1x150mm (Waters)
Retention time: 11.050 min
Base peak: 79.0211
Precursor m/z: 442.147
Precursor type: [M+H]+
Precursor intensity: 521194
m/z	relative intensity	assigned
120.0444	115	C7H6NO+
176.0568	62	C7H6N5O+
295.0941	999	C14H11N6O2+
