Mass spectrum: Fenamiphos; LC-ESI-QFT; MS2; CE: 75; R=17500; [M+H]+
Name: Fenamiphos
Name: N-[ethoxy-(3-methyl-4-methylsulfanylphenoxy)phosphoryl]propan-2-amine
Formula: C13H22NO3PS
Exact mass: 303.1058
SMILES: CCOP(=O)(NC(C)C)OC1=CC=C(SC)C(C)=C1
InChI: InChI=1S/C13H22NO3PS/c1-6-16-18(15,14-10(2)3)17-12-7-8-13(19-5)11(4)9-12/h7-10H,6H2,1-5H3,(H,14,15)
Instrument: Q Exactive Orbitrap (Thermo Scientific)
Instrument type: LC-ESI-QFT
Ms type: MS2
Ion mode: POSITIVE
Ionization: ESI
Fragmentation mode: HCD
Collision energy: 75
Resolution: 17500
Column name: Acquity BEH C18 1.7um, 2.1x150mm (Waters)
Retention time: 18.218 min
Base peak: 79.0212
Precursor m/z: 304.1131
Precursor type: [M+H]+
Precursor intensity: 33012705.75
m/z	relative intensity	assigned
53.0021	1	C3HO+
53.0386	9	C4H5+
58.995	36	C2H3S+
59.9664	2	COS+
60.0808	12	C3H10N+
62.9453	7	PS+
65.0385	4	C5H5+
66.0465	2	C5H6+
67.0542	2	C5H7+
70.9949	4	C3H3S+
77.0386	2	C6H5+
78.0464	13	C6H6+
79.0542	57	C6H7+
80.0621	2	C6H8+
81.0333	1	C5H5O+
81.0699	3	C6H9+
89.0386	2	C7H5+
90.0464	1	C7H6+
91.0542	81	C7H7+
92.0621	1	C7H8+
93.0699	27	C7H9+
94.0413	1	C6H6O+
95.0492	26	C6H7O+
97.0107	100	C5H5S+
98.0002	23	H5NO3P+
103.0543	34	C8H7+
104.062	28	C8H8+
105.0336	2	C7H5O+
105.0447	8	H11NO3S+
105.0699	4	C8H9+
106.0412	4	C7H6O+
106.0652	1	C7H8N+
107.0492	119	C7H7O+
108.057	83	C7H8O+
109.0107	8	C6H5S+
109.0648	39	C7H9O+
110.0185	29	C6H6S+
111.0263	16	C6H7S+
115.0543	1	C9H7+
117.0699	2	C9H9+
118.0775	1	C9H10+
119.0605	1	CH13NO3S+
121.0106	18	C7H5S+
121.0649	1	C8H9O+
122.0185	84	C7H6S+
125.042	23	C7H9S+
125.0597	2	C7H9O2+
134.0185	2	C8H6S+
135.0263	19	C8H7S+
136.0341	2	C8H8S+
137.0055	5	C7H5OS+
137.042	30	C8H9S+
138.0134	82	C7H6OS+
139.0212	41	C7H7OS+
140.0291	11	C7H8OS+
141.0102	2	C6H6O2P+
149.0419	2	C9H9S+
150.05	1	C5H13NPS+
153.0369	98	C8H9OS+
154.0447	5	C8H10OS+
154.9714	11	C6H4OPS+
155.0258	1	C7H8O2P+
155.0524	21	C8H11OS+
165.0483	1	C6H14OPS+
168.9872	94	C7H6OPS+
169.0048	61	C7H6O3P+
180.9877	3	C8H6OPS+
183.0204	1	C8H8O3P+
183.9742	1	C7H5O2PS+
184.982	4	C7H6O2PS+
186.9979	4	C7H8O2PS+
187.0158	2	C10H6NOP+
198.9979	18	C8H8O2PS+
200.9773	21	C7H6O3PS+
201.0009	8	C7H8NO2PS+
201.9848	999	C7H7O3PS+
202.9926	94	C7H8O3PS+
214.9926	19	C8H8O3PS+
217.0083	162	C8H10O3PS+
230.0162	2	C9H11O3PS+
235.0187	1	C11H10NOPS+
