Mass spectrum: CP-863187; LC-ESI-QFT; MS2; CE: 60; R=17500; [M+H]+
Name: CP-863187
Name: 1,2,4-Triazolo(4,3-a)pyridine, 6-(4-(2,5-difluorophenyl)-5-oxazolyl)-3-(1-methylethyl)-
Name: 4-(2,5-difluorophenyl)-5-(3-propan-2-yl-[1,2,4]triazolo[4,3-a]pyridin-6-yl)-1,3-oxazole
Formula: C18H14F2N4O
Exact mass: 340.1136
SMILES: CC(C)C1=NN=C2C=CC(=CN12)C1=C(N=CO1)C1=CC(F)=CC=C1F
InChI: InChI=1S/C18H14F2N4O/c1-10(2)18-23-22-15-6-3-11(8-24(15)18)17-16(21-9-25-17)13-7-12(19)4-5-14(13)20/h3-10H,1-2H3
Instrument: Q Exactive Orbitrap (Thermo Scientific)
Instrument type: LC-ESI-QFT
Ms type: MS2
Ion mode: POSITIVE
Ionization: ESI
Fragmentation mode: HCD
Collision energy: 60
Resolution: 17500
Column name: Acquity BEH C18 1.7um, 2.1x150mm (Waters)
Retention time: 15.986 min
Base peak: 79.0211
Precursor m/z: 341.1208
Precursor type: [M+H]+
Precursor intensity: 36510845.9375
m/z	relative intensity	assigned
67.0417	1	C4H5N+
78.0338	4	C5H4N+
93.0447	1	C5H5N2+
96.0443	1	C5H6NO+
103.0291	7	C6H3N2+
105.0447	19	C6H5N2+
106.0525	3	C6H6N2+
118.0399	1	C6H4N3+
119.024	3	C6H3N2O+
121.0397	3	C6H5N2O+
125.0197	3	C7H3F2+
127.0354	7	C7H5F2+
130.04	8	C7H4N3+
131.024	1	C7H3N2O+
139.0353	1	C8H5F2+
140.0307	3	C7H4F2N+
151.0355	1	C9H5F2+
152.0308	5	C8H4F2N+
153.0386	2	C8H5F2N+
163.0553	1	C5H7F2N3O+
164.0434	1	C10H6F2+
165.0511	6	C10H7F2+
166.0462	1	C9H6F2N+
170.0404	5	C11H5FN+
172.056	2	C11H7FN+
173.051	2	C10H6FN2+
175.0355	2	C11H5F2+
180.0257	1	C9H4F2NO+
182.04	7	C12H5FN+
188.0508	8	C11H7FNO+
189.0378	1	C11H5F2N+
190.0463	999	C11H6F2N+
191.0409	3	C10H5F2N2+
195.0552	2	C12H7N2O+
197.051	113	C12H6FN2+
198.0351	1	C12H5FNO+
198.0462	3	C11H5FN3+
200.0307	4	C12H4F2N+
202.0463	28	C12H6F2N+
203.0541	6	C12H7F2N+
204.0565	3	C10H7FN3O+
206.0649	1	C11H8F2N2+
207.0355	1	C13H4FN2+
208.0572	1	C11H8F2NO+
209.0509	22	C13H6FN2+
210.0588	2	C13H7FN2+
213.046	1	C12H6FN2O+
215.0618	2	C12H8FN2O+
216.0492	1	C12H6F2N2+
217.0572	349	C12H7F2N2+
218.0412	41	C12H6F2NO+
220.0567	2	C12H8F2NO+
221.0522	1	C11H7F2N2O+
223.0536	1	C13H6FN3+
224.0619	82	C13H7FN3+
225.046	8	C13H6FN2O+
225.0694	3	C13H8FN3+
227.0415	25	C13H5F2N2+
227.0607	5	C16H7N2+
228.0493	37	C13H6F2N2+
229.0572	67	C13H7F2N2+
243.0603	16	C13H7F2N3+
244.0445	1	C13H6F2N2O+
244.0681	19	C13H8F2N3+
245.052	17	C13H7F2N2O+
252.057	6	C14H7FN3O+
272.063	125	C14H8F2N3O+
273.0471	1	C17H6FN2O+
299.0736	6	C15H9F2N4O+
325.0895	27	C17H11F2N4O+
326.0975	4	C17H12F2N4O+
341.121	23	C18H15F2N4O+
