Mass spectrum: Enterolactone; LC-ESI-QFT; MS2; CE: 15; R=17500; [M-H]-
Name: Enterolactone
Name: (-)-Enterolactone
Name: (3R,4R)-3,4-bis[(3-hydroxyphenyl)methyl]oxolan-2-one
Formula: C18H18O4
Exact mass: 298.1205
SMILES: OC1=CC(C[C@H]2COC(=O)[C@@H]2CC2=CC(O)=CC=C2)=CC=C1
InChI: InChI=1S/C18H18O4/c19-15-5-1-3-12(8-15)7-14-11-22-18(21)17(14)10-13-4-2-6-16(20)9-13/h1-6,8-9,14,17,19-20H,7,10-11H2/t14-,17+/m0/s1
Instrument: Q Exactive Orbitrap (Thermo Scientific)
Instrument type: LC-ESI-QFT
Ms type: MS2
Ion mode: NEGATIVE
Ionization: ESI
Fragmentation mode: HCD
Collision energy: 15
Resolution: 17500
Column name: Acquity BEH C18 1.7um, 2.1x150mm (Waters)
Retention time: 15.387 min
Base peak: 297.1133
Precursor m/z: 297.1132
Precursor type: [M-H]-
Precursor intensity: 10180081.90479
m/z	relative intensity	assigned
107.0502	9	C7H7O-
119.0502	5	C8H7O-
121.0658	2	C8H9O-
131.0503	1	C9H7O-
145.0657	1	C10H9O-
147.0455	1	C9H7O2-
165.0557	15	C9H9O3-
189.0558	15	C11H9O3-
251.1075	2	C17H15O2-
253.1235	42	C17H17O2-
297.1131	999	C18H17O4-
