Mass spectrum: Methiuron; LC-ESI-QFT; MS2; CE: 60; R=17500; [M+H]+
Name: Methiuron
Name: N,N-dimethyl-N'-(3-methylphenyl)carbamimidothioic acid
Formula: C10H14N2S
Exact mass: 194.0878
SMILES: CN(C)C(=S)NC1=CC(C)=CC=C1
InChI: InChI=1S/C10H14N2S/c1-8-5-4-6-9(7-8)11-10(13)12(2)3/h4-7H,1-3H3,(H,11,13)
Instrument: Q Exactive Orbitrap (Thermo Scientific)
Instrument type: LC-ESI-QFT
Ms type: MS2
Ion mode: POSITIVE
Ionization: ESI
Fragmentation mode: HCD
Collision energy: 60
Resolution: 17500
Column name: Acquity BEH C18 1.7um, 2.1x150mm (Waters)
Retention time: 14.286 min
Base peak: 79.0211
Precursor m/z: 195.095
Precursor type: [M+H]+
Precursor intensity: 10213598.6875
m/z	relative intensity	assigned
56.0495	12	C3H6N+
61.0106	4	C2H5S+
63.0263	2	C2H7S+
65.0386	6	C5H5+
67.0542	3	C5H7+
71.0604	4	C3H7N2+
71.9903	2	C2H2NS+
72.9981	25	C2H3NS+
88.0216	999	C3H6NS+
91.0543	52	C7H7+
92.0621	14	C7H8+
117.0575	1	C8H7N+
119.0605	23	C7H7N2+
123.0264	40	C7H7S+
125.0421	2	C7H9S+
150.0373	182	C8H8NS+
157.011	4	C10H5S+
161.1073	2	C10H13N2+
