Mass spectrum: Fludioxonil; LC-ESI-QFT; MS2; CE: 75; R=17500; [M-H]-
Name: Fludioxonil
Name: 4-(2,2-difluoro-1,3-benzodioxol-4-yl)-1H-pyrrole-3-carbonitrile
Formula: C12H6F2N2O2
Exact mass: 248.0397
SMILES: FC1(F)OC2=CC=CC(=C2O1)C1=CNC=C1C#N
InChI: InChI=1S/C12H6F2N2O2/c13-12(14)17-10-3-1-2-8(11(10)18-12)9-6-16-5-7(9)4-15/h1-3,5-6,16H
Instrument: Q Exactive Orbitrap (Thermo Scientific)
Instrument type: LC-ESI-QFT
Ms type: MS2
Ion mode: NEGATIVE
Ionization: ESI
Fragmentation mode: HCD
Collision energy: 75
Resolution: 17500
Column name: Acquity BEH C18 1.7um, 2.1x150mm (Waters)
Retention time: 17.532 min
Base peak: 247.0324
Precursor m/z: 247.0325
Precursor type: [M-H]-
Precursor intensity: 167310530.7441
m/z	relative intensity	assigned
50.0035	47	C3N-
64.0066	12	C3N2-
65.0145	79	C3HN2-
65.9986	11	C3NO-
66.999	5	C4F-
70.9939	87	C3FO-
73.0084	3	C6H-
74.0037	7	C5N-
89.0145	133	C5HN2-
89.0397	77	C7H5-
94.9939	36	C5FO-
100.0194	3	C7H2N-
102.0348	2	C7H4N-
103.0303	3	C6H3N2-
114.035	20	C8H4N-
115.0303	15	C7H3N2-
116.0381	2	C7H4N2-
124.0193	41	C9H2N-
126.0349	999	C9H4N-
127.0301	63	C8H3N2-
130.0301	2	C8H4NO-
139.0301	10	C9H3N2-
140.0379	4	C9H4N2-
141.0459	104	C9H5N2-
142.0298	5	C9H4NO-
143.0249	3	C8H3N2O-
144.0255	19	C9H3FN-
145.0408	8	C8H5N2O-
151.0302	361	C10H3N2-
152.038	276	C10H4N2-
153.0458	80	C10H5N2-
154.0297	7	C10H4NO-
155.0249	4	C9H3N2O-
163.03	10	C11H3N2-
167.0248	2	C10H3N2O-
169.0408	499	C10H5N2O-
170.0249	12	C10H4NO2-
171.0363	14	C10H4FN2-
172.0204	9	C10H3FNO-
179.0252	68	C11H3N2O-
180.0329	978	C11H4N2O-
181.0408	76	C11H5N2O-
183.0361	15	C11H4FN2-
195.02	12	C11H3N2O2-
197.0356	77	C11H5N2O2-
198.0234	3	C11H3FN2O-
199.0313	31	C11H4FN2O-
207.0199	5	C12H3N2O2-
227.0267	4	C12H4FN2O2-
247.0324	202	C12H5F2N2O2-
