Mass spectrum: Ethyl 2-cyano-3,3-diphenylacrylate; LC-ESI-QFT; MS2; CE: 30; R=17500; [M+H]+
Name: Ethyl 2-cyano-3,3-diphenylacrylate
Name: ethyl 2-cyano-3,3-diphenylprop-2-enoate
Formula: C18H15NO2
Exact mass: 277.1103
SMILES: CCOC(=O)C(C#N)=C(C1=CC=CC=C1)C1=CC=CC=C1
InChI: InChI=1S/C18H15NO2/c1-2-21-18(20)16(13-19)17(14-9-5-3-6-10-14)15-11-7-4-8-12-15/h3-12H,2H2,1H3
Instrument: Q Exactive Orbitrap (Thermo Scientific)
Instrument type: LC-ESI-QFT
Ms type: MS2
Ion mode: POSITIVE
Ionization: ESI
Fragmentation mode: HCD
Collision energy: 30
Resolution: 17500
Column name: Acquity BEH C18 1.7um, 2.1x150mm (Waters)
Retention time: 17.863 min
Base peak: 79.0212
Precursor m/z: 278.1176
Precursor type: [M+H]+
Precursor intensity: 5219200.5
m/z	relative intensity	assigned
77.0388	1	C6H5+
96.0444	2	C5H6NO+
104.0495	9	C7H6N+
105.0336	90	C7H5O+
129.0336	4	C9H5O+
147.0441	13	C9H7O2+
157.0285	9	C10H5O2+
167.0858	6	C13H11+
176.063	1	C14H8+
178.0777	1	C14H10+
179.0858	5	C14H11+
182.0967	13	C13H12N+
183.0807	11	C13H11O+
191.0859	4	C15H11+
202.0781	1	C16H10+
203.0738	3	C15H9N+
204.081	34	C15H10N+
206.0965	10	C15H12N+
207.0807	8	C15H11O+
222.0917	17	C15H12NO+
232.0759	999	C16H10NO+
235.0754	28	C16H11O2+
236.1069	3	C16H14NO+
242.097	2	C18H12N+
243.0807	5	C18H11O+
246.0525	15	C16H8NO2+
250.0864	294	C16H12NO2+
260.1073	3	C18H14NO+
264.1023	7	C17H14NO2+
278.1178	82	C18H16NO2+
