Mass spectrum: Nelivaptan; LC-ESI-QFT; MS2; CE: 60; R=17500; [M+H]+
Name: Nelivaptan
Name: (2S,4R)-1-[(3R)-5-chloro-1-(2,4-dimethoxyphenyl)sulfonyl-3-(2-methoxyphenyl)-2-oxoindol-3-yl]-4-hydroxy-N,N-dimethylpyrrolidine-2-carboxamide
Formula: C30H32ClN3O8S
Exact mass: 629.1599
SMILES: COC1=CC(OC)=C(C=C1)S(=O)(=O)N1C(=O)[C@@](N2C[C@H](O)C[C@H]2C(=O)N(C)C)(C2=CC(Cl)=CC=C12)C1=CC=CC=C1OC
InChI: InChI=1S/C30H32ClN3O8S/c1-32(2)28(36)24-15-19(35)17-33(24)30(21-8-6-7-9-25(21)41-4)22-14-18(31)10-12-23(22)34(29(30)37)43(38,39)27-13-11-20(40-3)16-26(27)42-5/h6-14,16,19,24,35H,15,17H2,1-5H3/t19-,24+,30+/m1/s1
Instrument: Q Exactive Orbitrap (Thermo Scientific)
Instrument type: LC-ESI-QFT
Ms type: MS2
Ion mode: POSITIVE
Ionization: ESI
Fragmentation mode: HCD
Collision energy: 60
Resolution: 17500
Column name: Acquity BEH C18 1.7um, 2.1x150mm (Waters)
Retention time: 18.171 min
Base peak: 79.0211
Precursor m/z: 630.1671
Precursor type: [M+H]+
Precursor intensity: 9559740.25
m/z	relative intensity	assigned
51.023	1	C4H3+
52.0308	1	C4H4+
53.0386	82	C4H5+
54.0465	1	C4H6+
55.0178	10	C3H3O+
55.0543	3	C4H7+
63.0228	4	C5H3+
64.0308	2	C5H4+
65.0385	56	C5H5+
66.0464	7	C5H6+
67.0542	9	C5H7+
68.0256	6	C4H4O+
68.997	6	C3HO2+
69.0335	1	C4H5O+
72.0443	1	C3H6NO+
77.0385	21	C6H5+
79.0178	16	C5H3O+
79.0542	130	C6H7+
81.0335	10	C5H5O+
81.0699	35	C6H9+
82.0413	6	C5H6O+
83.049	2	C5H7O+
84.0444	6	C4H6NO+
91.0542	14	C7H7+
92.0256	104	C6H4O+
93.0335	38	C6H5O+
94.0413	123	C6H6O+
95.0491	262	C6H7O+
96.0207	1	C5H4O2+
97.0648	15	C6H9O+
105.0335	58	C7H5O+
105.0447	99	C6H5N2+
107.0127	37	C6H3O2+
107.0491	50	C7H7O+
108.0206	1	C6H4O2+
109.0648	186	C7H9O+
110.0362	138	C6H6O2+
111.044	107	C6H7O2+
121.0285	6	C7H5O2+
121.0396	4	C6H5N2O+
121.0648	8	C8H9O+
122.0362	474	C7H6O2+
123.044	3	C7H7O2+
124.0518	10	C7H8O2+
125.0597	999	C7H9O2+
135.0552	155	C7H7N2O+
137.0597	12	C8H9O2+
139.0752	4	C8H11O2+
141.0544	2	C7H9O3+
151.0754	8	C9H11O2+
153.0546	725	C8H9O3+
166.0053	1	C8H5ClNO+
180.0807	1	C13H10N+
207.0679	2	C14H9NO+
214.0421	1	C13H9ClN+
219.0324	4	C8H11O5S+
233.0478	3	C9H13O5S+
235.0626	1	C15H9NO2+
243.0444	2	C14H10ClNO+
270.0315	3	C15H9ClNO2+
