Mass spectrum: Bezafibrate; LC-ESI-QFT; MS2; CE: 15; R=17500; [M+H]+
Name: Bezafibrate
Name: 2-[4-[2-[(4-chlorobenzoyl)amino]ethyl]phenoxy]-2-methylpropanoic acid
Formula: C19H20ClNO4
Exact mass: 361.1081
SMILES: CC(C)(OC1=CC=C(CCNC(=O)C2=CC=C(Cl)C=C2)C=C1)C(O)=O
InChI: InChI=1S/C19H20ClNO4/c1-19(2,18(23)24)25-16-9-3-13(4-10-16)11-12-21-17(22)14-5-7-15(20)8-6-14/h3-10H,11-12H2,1-2H3,(H,21,22)(H,23,24)
Instrument: Q Exactive Orbitrap (Thermo Scientific)
Instrument type: LC-ESI-QFT
Ms type: MS2
Ion mode: POSITIVE
Ionization: ESI
Fragmentation mode: HCD
Collision energy: 15
Resolution: 17500
Column name: Acquity BEH C18 1.7um, 2.1x150mm (Waters)
Retention time: 17.333 min
Base peak: 79.0211
Precursor m/z: 362.1154
Precursor type: [M+H]+
Precursor intensity: 10920479.875
m/z	relative intensity	assigned
69.0335	4	C4H5O+
87.044	4	C4H7O2+
121.0646	25	C8H9O+
138.9944	84	C7H4ClO+
161.096	7	C11H13O+
178.1228	6	C11H16NO+
189.0907	4	C12H13O2+
207.1016	32	C12H15O3+
276.0786	527	C15H15ClNO2+
316.1099	999	C18H19ClNO2+
326.0938	4	C19H17ClNO2+
344.1048	108	C19H19ClNO3+
362.1154	696	C19H21ClNO4+
