Mass spectrum: Prednisone; LC-ESI-QFT; MS2; CE: 30; R=17500; [M+H]+
Name: Prednisone
Name: (8S,9S,10R,13S,14S,17R)-17-hydroxy-17-(2-hydroxyacetyl)-10,13-dimethyl-6,7,8,9,12,14,15,16-octahydrocyclopenta[a]phenanthrene-3,11-dione
Formula: C21H26O5
Exact mass: 358.1780
SMILES: C[C@]12CC(=O)[C@H]3[C@@H](CCC4=CC(=O)C=C[C@]34C)[C@@H]1CC[C@]2(O)C(=O)CO
InChI: InChI=1S/C21H26O5/c1-19-7-5-13(23)9-12(19)3-4-14-15-6-8-21(26,17(25)11-22)20(15,2)10-16(24)18(14)19/h5,7,9,14-15,18,22,26H,3-4,6,8,10-11H2,1-2H3/t14-,15-,18+,19-,20-,21-/m0/s1
Instrument: Q Exactive Orbitrap (Thermo Scientific)
Instrument type: LC-ESI-QFT
Ms type: MS2
Ion mode: POSITIVE
Ionization: ESI
Fragmentation mode: HCD
Collision energy: 30
Resolution: 17500
Column name: Acquity BEH C18 1.7um, 2.1x150mm (Waters)
Retention time: 15.437 min
Base peak: 79.0211
Precursor m/z: 359.1853
Precursor type: [M+H]+
Precursor intensity: 4583129.75
m/z	relative intensity	assigned
55.0541	18	C4H7+
57.0334	8	C3H5O+
69.0334	21	C4H5O+
69.0698	18	C5H9+
71.0492	20	C4H7O+
73.0647	26	C4H9O+
79.0541	19	C6H7+
81.0333	12	C5H5O+
81.0699	70	C6H9+
83.049	20	C5H7O+
85.0646	48	C5H9O+
91.0543	12	C7H7+
93.0699	182	C7H9+
95.0491	95	C6H7O+
95.0856	164	C7H11+
97.0648	59	C6H9O+
99.044	33	C5H7O2+
101.0598	75	C5H9O2+
105.0698	38	C8H9+
107.0491	11	C7H7O+
107.0855	127	C8H11+
109.0648	187	C7H9O+
109.1011	37	C8H13+
111.044	14	C6H7O2+
111.0804	86	C7H11O+
117.0699	26	C9H9+
119.0856	76	C9H11+
121.0647	176	C8H9O+
123.0803	91	C8H11O+
125.0599	10	C7H9O2+
125.0959	48	C8H13O+
129.0703	8	C10H9+
131.0855	21	C10H11+
133.0646	27	C9H9O+
133.101	10	C10H13+
135.0804	304	C9H11O+
137.0598	21	C8H9O2+
137.0962	70	C9H13O+
139.0754	95	C8H11O2+
145.0647	23	C10H9O+
147.0804	999	C10H11O+
149.0598	14	C9H9O2+
149.096	24	C10H13O+
151.0752	26	C9H11O2+
153.0911	147	C9H13O2+
155.0706	13	C8H11O3+
158.0726	10	C11H10O+
159.0804	317	C11H11O+
160.0884	11	C11H12O+
161.096	209	C11H13O+
163.0752	104	C10H11O2+
165.091	28	C10H13O2+
169.1006	9	C13H13+
171.0804	497	C12H11O+
173.0961	285	C12H13O+
175.0751	16	C11H11O2+
175.1117	20	C12H15O+
177.0909	31	C11H13O2+
179.0855	16	C14H11+
181.0858	61	C10H13O3+
181.1006	9	C14H13+
183.0804	31	C13H11O+
183.1016	72	C10H15O3+
185.0596	31	C12H9O2+
185.0961	89	C13H13O+
187.0754	204	C12H11O2+
187.1118	156	C13H15O+
189.0909	58	C12H13O2+
195.0807	45	C14H11O+
197.0961	394	C14H13O+
199.1118	220	C14H15O+
201.0908	16	C13H13O2+
201.127	17	C14H17O+
203.1067	16	C13H15O2+
208.0882	13	C15H12O+
209.096	116	C15H13O+
209.1329	11	C16H17+
210.1045	11	C15H14O+
211.1118	135	C15H15O+
212.1196	12	C15H16O+
213.0909	39	C14H13O2+
213.1275	175	C15H17O+
215.1068	85	C14H15O2+
219.1171	10	C17H15+
221.0961	108	C16H13O+
222.1039	34	C16H14O+
223.1116	164	C16H15O+
224.1197	13	C16H16O+
225.0911	25	C15H13O2+
225.1275	180	C16H17O+
227.1062	40	C15H15O2+
227.1432	123	C16H19O+
234.104	13	C17H14O+
235.1116	153	C17H15O+
237.1273	700	C17H17O+
239.1064	112	C16H15O2+
239.143	203	C17H19O+
241.1222	47	C16H17O2+
246.1042	21	C18H14O+
247.1119	36	C18H15O+
248.1196	30	C18H16O+
249.1272	158	C18H17O+
250.1362	10	C18H18O+
251.1073	10	C17H15O2+
251.1431	93	C18H19O+
252.1514	11	C18H20O+
253.1222	250	C17H17O2+
253.1585	97	C18H21O+
255.1379	300	C17H19O2+
255.1739	16	C18H23O+
258.1039	9	C19H14O+
259.112	10	C19H15O+
259.1486	11	C20H19+
260.1192	13	C19H16O+
261.1276	149	C19H17O+
262.1353	79	C19H18O+
263.1431	343	C19H19O+
264.151	133	C19H20O+
265.1226	35	C18H17O2+
265.1587	484	C19H21O+
267.1381	452	C18H19O2+
267.1739	93	C19H23O+
272.1195	34	C20H16O+
275.1425	91	C20H19O+
277.1223	24	C19H17O2+
277.1587	391	C20H21O+
279.1384	60	C19H19O2+
280.1456	21	C19H20O2+
281.1535	157	C19H21O2+
283.1691	56	C19H23O2+
287.1431	117	C21H19O+
290.1302	13	C20H18O2+
292.1458	30	C20H20O2+
293.1535	162	C20H21O2+
295.1693	437	C20H23O2+
297.1482	69	C19H21O3+
305.1536	236	C21H21O2+
311.1638	66	C20H23O3+
313.1799	244	C20H25O3+
323.1643	269	C21H23O3+
341.1749	229	C21H25O4+
359.1831	14	C21H27O5+
