Mass spectrum: Kaempferol; LC-ESI-QFT; MS2; CE: 60; R=17500; [M-H]-
Name: Kaempferol
Name: 3,5,7-trihydroxy-2-(4-hydroxyphenyl)chromen-4-one
Formula: C15H10O6
Exact mass: 286.0477
SMILES: OC1=CC=C(C=C1)C1=C(O)C(=O)C2=C(O1)C=C(O)C=C2O
InChI: InChI=1S/C15H10O6/c16-8-3-1-7(2-4-8)15-14(20)13(19)12-10(18)5-9(17)6-11(12)21-15/h1-6,16-18,20H
Instrument: Q Exactive Orbitrap (Thermo Scientific)
Instrument type: LC-ESI-QFT
Ms type: MS2
Ion mode: NEGATIVE
Ionization: ESI
Fragmentation mode: HCD
Collision energy: 60
Resolution: 17500
Column name: Acquity BEH C18 1.7um, 2.1x150mm (Waters)
Retention time: 16.377 min
Base peak: 112.9856
Precursor m/z: 285.0405
Precursor type: [M-H]-
Precursor intensity: 6142549.724365
m/z	relative intensity	assigned
55.0189	13	C3H3O-
63.024	183	C5H3-
65.0033	135	C4HO-
65.0398	32	C5H5-
67.0189	52	C4H3O-
68.9981	18	C3HO2-
79.0189	55	C5H3O-
80.0267	21	C5H4O-
81.0346	8	C5H5O-
83.0139	176	C4H3O2-
89.0397	22	C7H5-
91.0189	68	C6H3O-
93.0346	627	C6H5O-
95.0138	94	C5H3O2-
95.0503	12	C6H7O-
97.0295	7	C5H5O2-
107.0139	217	C6H3O2-
108.0217	130	C6H4O2-
109.0295	206	C6H5O2-
111.0087	17	C5H3O3-
115.0553	18	C9H7-
117.0345	260	C8H5O-
119.0138	66	C7H3O2-
119.0503	47	C8H7O-
120.0217	6	C7H4O2-
121.0295	63	C7H5O2-
123.0088	63	C6H3O3-
123.0452	103	C7H7O2-
124.0165	14	C6H4O3-
129.0348	22	C9H5O-
129.0707	6	C10H9-
130.0423	68	C9H6O-
131.0502	105	C9H7O-
132.0216	20	C8H4O2-
133.0295	106	C8H5O2-
133.066	11	C9H9O-
135.0088	128	C7H3O3-
135.0451	24	C8H7O2-
136.0167	33	C7H4O3-
137.0244	138	C7H5O3-
139.0553	6	C11H7-
141.0346	12	C10H5O-
141.071	36	C11H9-
143.0502	301	C10H7O-
145.0295	239	C9H5O2-
145.0658	41	C10H9O-
147.0085	9	C8H3O3-
147.0452	30	C9H7O2-
149.0242	7	C8H5O3-
151.0036	102	C7H3O4-
152.0115	9	C7H4O4-
153.0191	17	C7H5O4-
154.0424	170	C11H6O-
155.0502	137	C11H7O-
156.058	82	C11H8O-
157.0295	91	C10H5O2-
157.0658	170	C11H9O-
158.0373	63	C10H6O2-
159.0451	372	C10H7O2-
161.0244	175	C9H5O3-
161.0604	24	C10H9O2-
163.0038	116	C8H3O4-
164.0116	67	C8H4O4-
165.0194	44	C8H5O4-
167.0502	124	C12H7O-
168.0579	60	C12H8O-
169.0292	20	C11H5O2-
169.066	124	C12H9O-
170.0371	19	C11H6O2-
171.0452	243	C11H7O2-
173.0244	97	C10H5O3-
173.0605	39	C11H9O2-
174.0322	37	C10H6O3-
175.0403	29	C10H7O3-
182.0377	28	C12H6O2-
183.0451	129	C12H7O2-
184.053	110	C12H8O2-
185.0608	347	C12H9O2-
186.0324	17	C11H6O3-
187.0401	388	C11H7O3-
189.0556	29	C11H9O3-
190.9981	12	C9H3O5-
191.0346	30	C10H7O4-
192.0064	27	C9H4O5-
195.0452	76	C13H7O2-
196.0532	26	C13H8O2-
197.0241	11	C12H5O3-
197.0609	21	C13H9O2-
198.0325	41	C12H6O3-
199.04	45	C12H7O3-
200.0476	20	C12H8O3-
201.0557	93	C12H9O3-
202.0286	7	C11H6O4-
210.0327	28	C13H6O3-
211.04	258	C13H7O3-
212.0478	38	C13H8O3-
213.0196	31	C12H5O4-
213.0558	93	C13H9O3-
214.0272	132	C12H6O4-
215.0351	84	C12H7O4-
217.0505	12	C12H9O4-
219.0297	38	C11H7O5-
223.0397	14	C14H7O3-
227.0351	179	C13H7O4-
228.0432	11	C13H8O4-
229.0506	203	C13H9O4-
238.0274	9	C14H6O4-
239.035	271	C14H7O4-
240.0429	68	C14H8O4-
241.0503	23	C14H9O4-
243.0301	77	C13H7O5-
255.0299	127	C14H7O5-
256.0375	37	C14H8O5-
257.0461	31	C14H9O5-
267.0301	35	C15H7O5-
268.0378	72	C15H8O5-
284.0327	34	C15H8O6-
285.0405	999	C15H9O6-
