Mass spectrum: Fabesetron; LC-ESI-QFT; MS2; CE: 75; R=17500; [M+H]+
Name: Fabesetron
Name: (7R)-10-methyl-7-[(5-methyl-1H-imidazol-4-yl)methyl]-8,9-dihydro-7H-pyrido[1,2-a]indol-6-one
Formula: C18H19N3O
Exact mass: 293.1528
SMILES: Cc1[nH]cnc1C[C@H]1CCc2c(C)c3ccccc3n2C1=O
InChI: InChI=1S/C18H19N3O/c1-11-14-5-3-4-6-17(14)21-16(11)8-7-13(18(21)22)9-15-12(2)19-10-20-15/h3-6,10,13H,7-9H2,1-2H3,(H,19,20)/t13-/m1/s1
Instrument: Q Exactive Orbitrap (Thermo Scientific)
Instrument type: LC-ESI-QFT
Ms type: MS2
Ion mode: POSITIVE
Ionization: ESI
Fragmentation mode: HCD
Collision energy: 75
Resolution: 17500
Column name: Acquity BEH C18 1.7um, 2.1x150mm (Waters)
Retention time: 15.378 min
Base peak: 79.0211
Precursor m/z: 294.1601
Precursor type: [M+H]+
Precursor intensity: 28093212.75
m/z	relative intensity	assigned
53.0022	1	C3HO+
53.0386	6	C4H5+
54.0338	48	C3H4N+
55.0178	1	C3H3O+
65.0386	3	C5H5+
67.0542	22	C5H7+
68.0494	23	C4H6N+
69.0572	3	C4H7N+
70.0651	1	C4H8N+
77.0385	2	C6H5+
79.0542	1	C6H7+
80.0494	196	C5H6N+
81.0446	12	C4H5N2+
81.0699	3	C6H9+
82.0651	1	C5H8N+
83.0603	3	C4H7N2+
91.0542	10	C7H7+
93.0573	13	C6H7N+
94.0652	218	C6H8N+
95.0604	999	C5H7N2+
96.0681	169	C5H8N2+
97.076	2	C5H9N2+
103.0542	5	C8H7+
104.0495	18	C7H6N+
105.0447	5	C6H5N2+
105.0573	1	C7H7N+
106.065	3	C7H8N+
107.0603	13	C6H7N2+
108.0808	22	C7H10N+
109.076	9	C6H9N2+
115.0542	8	C9H7+
117.0572	6	C8H7N+
117.0699	28	C9H9+
118.0651	8	C8H8N+
119.0605	9	C7H7N2+
120.0683	13	C7H8N2+
121.076	426	C7H9N2+
122.06	1	C7H8NO+
122.0837	12	C7H10N2+
123.0916	8	C7H11N2+
127.0866	2	C6H11N2O+
128.0494	5	C9H6N+
128.0619	2	C10H8+
129.0698	4	C10H9+
130.0652	10	C9H8N+
131.073	10	C9H9N+
131.0856	2	C10H11+
132.0807	3	C9H10N+
133.0761	2	C8H9N2+
135.0917	27	C8H11N2+
137.071	11	C7H9N2O+
141.07	2	C11H9+
143.073	85	C10H9N+
144.0808	544	C10H10N+
145.0648	6	C10H9O+
145.0886	4	C10H11N+
146.0602	3	C9H8NO+
146.0964	5	C10H12N+
149.0709	591	C8H9N2O+
153.0696	1	C12H9+
154.0653	1	C11H8N+
155.0605	7	C10H7N2+
155.0726	3	C11H9N+
156.0809	3	C11H10N+
157.0885	2	C11H11N+
158.0964	106	C11H12N+
167.073	7	C12H9N+
168.0807	3	C12H10N+
169.0884	2	C12H11N+
170.0964	10	C12H12N+
172.112	1	C12H14N+
180.0808	23	C13H10N+
181.0885	12	C13H11N+
182.0965	10	C13H12N+
184.0757	1	C12H10NO+
184.1118	3	C13H14N+
194.0963	1	C14H12N+
197.0833	2	C13H11NO+
198.0914	2	C13H12NO+
200.107	4	C13H14NO+
212.107	1	C14H14NO+
246.1024	1	C16H12N3+
260.1194	1	C17H14N3+
261.1259	7	C17H15N3+
276.1501	1	C18H18N3+
294.1597	2	C18H20N3O+
