Mass spectrum: Farglitazar; LC-ESI-QFT; MS2; CE: 15; R=17500; [M+H]+
Name: Farglitazar
Name: (2S)-2-(2-benzoylanilino)-3-[4-[2-(5-methyl-2-phenyl-1,3-oxazol-4-yl)ethoxy]phenyl]propanoic acid
Formula: C34H30N2O5
Exact mass: 546.2155
SMILES: CC1=C(CCOC2=CC=C(C[C@H](NC3=C(C=CC=C3)C(=O)C3=CC=CC=C3)C(O)=O)C=C2)N=C(O1)C1=CC=CC=C1
InChI: InChI=1S/C34H30N2O5/c1-23-29(36-33(41-23)26-12-6-3-7-13-26)20-21-40-27-18-16-24(17-19-27)22-31(34(38)39)35-30-15-9-8-14-28(30)32(37)25-10-4-2-5-11-25/h2-19,31,35H,20-22H2,1H3,(H,38,39)/t31-/m0/s1
Instrument: Q Exactive Orbitrap (Thermo Scientific)
Instrument type: LC-ESI-QFT
Ms type: MS2
Ion mode: POSITIVE
Ionization: ESI
Fragmentation mode: HCD
Collision energy: 15
Resolution: 17500
Column name: Acquity BEH C18 1.7um, 2.1x150mm (Waters)
Retention time: 20.146 min
Base peak: 79.0211
Precursor m/z: 547.2227
Precursor type: [M+H]+
Precursor intensity: 9518569.25
m/z	relative intensity	assigned
186.0913	23	C12H12NO+
306.1494	1	C20H20NO2+
322.1435	41	C20H20NO3+
350.1387	37	C21H20NO4+
397.1907	6	C26H25N2O2+
501.2175	33	C33H29N2O3+
547.2229	999	C34H31N2O5+
