Mass spectrum: Tolazamide; LC-ESI-QFT; MS2; CE: 75; R=17500; [M+H]+
Name: Tolazamide
Name: 1-(azepan-1-yl)-3-(4-methylphenyl)sulfonylurea
Formula: C14H21N3O3S
Exact mass: 311.1304
SMILES: CC1=CC=C(C=C1)S(=O)(=O)NC(=O)NN1CCCCCC1
InChI: InChI=1S/C14H21N3O3S/c1-12-6-8-13(9-7-12)21(19,20)16-14(18)15-17-10-4-2-3-5-11-17/h6-9H,2-5,10-11H2,1H3,(H2,15,16,18)
Instrument: Q Exactive Orbitrap (Thermo Scientific)
Instrument type: LC-ESI-QFT
Ms type: MS2
Ion mode: POSITIVE
Ionization: ESI
Fragmentation mode: HCD
Collision energy: 75
Resolution: 17500
Column name: Acquity BEH C18 1.7um, 2.1x150mm (Waters)
Retention time: 16.183 min
Base peak: 79.0212
Precursor m/z: 312.1376
Precursor type: [M+H]+
Precursor intensity: 12240570
m/z	relative intensity	assigned
53.0022	5	C3HO+
53.0386	2	C4H5+
54.0338	14	C3H4N+
55.0179	3	C3H3O+
55.0416	15	C3H5N+
55.0542	42	C4H7+
56.0495	98	C3H6N+
57.0573	282	C3H7N+
58.0652	1	C3H8N+
59.0604	69	C2H7N2+
61.0396	38	CH5N2O+
63.0229	2	C5H3+
65.0386	180	C5H5+
67.0416	2	C4H5N+
67.0542	24	C5H7+
68.0495	206	C4H6N+
68.062	12	C5H8+
69.0573	32	C4H7N+
69.0698	38	C5H9+
70.0651	766	C4H8N+
71.024	7	C2H3N2O+
71.0603	1	C3H7N2+
71.0729	6	C4H9N+
72.0681	4	C3H8N2+
74.0963	1	C4H12N+
79.0542	5	C6H7+
80.0494	2	C5H6N+
81.0574	1	C5H7N+
81.0699	8	C6H9+
82.0651	109	C5H8N+
83.0729	3	C5H9N+
83.0855	5	C6H11+
84.0808	80	C5H10N+
85.0761	9	C4H9N2+
91.0542	999	C7H7+
93.07	1	C7H9+
95.0491	6	C6H7O+
96.0808	43	C6H10N+
97.0887	8	C6H11N+
98.0965	310	C6H12N+
99.1043	309	C6H13N+
108.0571	3	C7H8O+
109.0648	175	C7H9O+
113.1073	54	C6H13N2+
114.0914	16	C6H12NO+
114.1153	5	C6H14N2+
115.123	178	C6H15N2+
119.0604	214	C7H7N2+
123.0804	1	C8H11O+
131.0941	19	C6H13NO2+
139.0866	8	C7H11N2O+
141.1022	70	C7H13N2O+
155.0162	8	C7H7O2S+
