Mass spectrum: Norethindrone; LC-ESI-QFT; MS2; CE: 45; R=17500; [M+H]+
Name: Norethindrone
Name: (8R,9S,10R,13S,14S,17R)-17-ethynyl-17-hydroxy-13-methyl-1,2,6,7,8,9,10,11,12,14,15,16-dodecahydrocyclopenta[a]phenanthren-3-one
Formula: C20H26O2
Exact mass: 298.1933
SMILES: C[C@]12CC[C@H]3[C@@H](CCC4=CC(=O)CC[C@H]34)[C@@H]1CC[C@@]2(O)C#C
InChI: InChI=1S/C20H26O2/c1-3-20(22)11-9-18-17-6-4-13-12-14(21)5-7-15(13)16(17)8-10-19(18,20)2/h1,12,15-18,22H,4-11H2,2H3/t15-,16+,17+,18-,19-,20-/m0/s1
Instrument: Q Exactive Orbitrap (Thermo Scientific)
Instrument type: LC-ESI-QFT
Ms type: MS2
Ion mode: POSITIVE
Ionization: ESI
Fragmentation mode: HCD
Collision energy: 45
Resolution: 17500
Column name: Acquity BEH C18 1.7um, 2.1x150mm (Waters)
Retention time: 17.309 min
Base peak: 79.0211
Precursor m/z: 299.2006
Precursor type: [M+H]+
Precursor intensity: 3148152.46875
m/z	relative intensity	assigned
53.0386	6	C4H5+
55.0178	23	C3H3O+
55.0542	33	C4H7+
65.0385	5	C5H5+
67.0542	82	C5H7+
69.0698	28	C5H9+
71.049	10	C4H7O+
77.0387	4	C6H5+
79.0542	148	C6H7+
81.0334	17	C5H5O+
81.0699	211	C6H9+
83.0491	434	C5H7O+
91.0542	183	C7H7+
93.0699	184	C7H9+
95.0493	30	C6H7O+
95.0855	139	C7H11+
97.0648	44	C6H9O+
103.0543	13	C8H7+
105.0699	247	C8H9+
107.0492	158	C7H7O+
107.0855	135	C8H11+
109.0648	999	C7H9O+
109.1012	87	C8H13+
111.0804	37	C7H11O+
115.0542	22	C9H7+
116.0622	9	C9H8+
117.0699	180	C9H9+
119.0856	351	C9H11+
121.0647	40	C8H9O+
121.1012	113	C9H13+
123.0804	70	C8H11O+
123.1169	29	C9H15+
127.0754	8	C7H11O2+
128.0621	25	C10H8+
129.0699	132	C10H9+
130.0779	22	C10H10+
131.0856	272	C10H11+
133.0647	30	C9H9O+
133.1012	113	C10H13+
135.0804	210	C9H11O+
135.1168	40	C10H15+
137.0962	22	C9H13O+
141.0699	41	C11H9+
142.0777	22	C11H10+
143.0856	202	C11H11+
144.0935	12	C11H12+
145.0648	17	C10H9O+
145.1012	290	C11H13+
147.0805	43	C10H11O+
147.1168	62	C11H15+
149.0961	104	C10H13O+
149.1326	12	C11H17+
151.1118	5	C10H15O+
153.07	7	C12H9+
154.0777	11	C12H10+
155.0855	71	C12H11+
156.0934	22	C12H12+
157.0648	13	C11H9O+
157.1012	160	C12H13+
158.1095	8	C12H14+
159.0805	42	C11H11O+
159.1169	94	C12H15+
161.096	85	C11H13O+
161.1326	64	C12H17+
163.1117	77	C11H15O+
165.0697	8	C13H9+
166.0781	10	C13H10+
167.0855	43	C13H11+
168.0933	15	C13H12+
169.1013	106	C13H13+
170.1092	10	C13H14+
171.1168	219	C13H15+
172.1251	5	C13H16+
173.0961	25	C12H13O+
173.1325	87	C13H17+
175.1119	53	C12H15O+
175.1482	7	C13H19+
177.1276	7	C12H17O+
179.0853	28	C14H11+
180.0935	11	C14H12+
181.1013	68	C14H13+
182.1092	6	C14H14+
183.1168	76	C14H15+
184.1253	5	C14H16+
185.0962	24	C13H13O+
185.1325	93	C14H17+
187.1119	24	C13H15O+
187.1481	22	C14H19+
189.1273	23	C13H17O+
189.1636	5	C14H21+
191.0855	3	C15H11+
192.0935	9	C15H12+
193.1014	31	C15H13+
194.1091	9	C15H14+
195.1169	56	C15H15+
197.0962	7	C14H13O+
197.1325	57	C15H17+
198.1409	4	C15H18+
199.1119	20	C14H15O+
199.1482	23	C15H19+
201.1276	23	C14H17O+
201.1639	7	C15H21+
203.1436	7	C14H19O+
205.1012	6	C16H13+
206.1092	12	C16H14+
207.1169	39	C16H15+
208.1247	11	C16H16+
209.1325	21	C16H17+
211.1122	14	C15H15O+
211.1483	66	C16H19+
213.1277	8	C15H17O+
213.1637	130	C16H21+
215.1434	9	C15H19O+
219.1171	9	C17H15+
221.1326	42	C17H17+
222.1404	12	C17H18+
223.1481	63	C17H19+
225.1279	20	C16H17O+
225.1637	6	C17H21+
227.1432	8	C16H19O+
229.1588	8	C16H21O+
231.1744	218	C16H23O+
233.1327	8	C18H17+
234.1407	5	C18H18+
235.1487	24	C18H19+
237.164	18	C18H21+
239.1429	11	C17H19O+
239.1794	21	C18H23+
241.1585	10	C17H21O+
248.1563	7	C19H20+
253.1588	13	C18H21O+
253.1955	4	C19H25+
257.1902	5	C18H25O+
263.1793	31	C20H23+
266.1668	6	C19H22O+
281.1902	46	C20H25O+
299.2006	92	C20H27O2+
