Mass spectrum: Gemfibrozil; LC-ESI-QFT; MS2; CE: 30; R=17500; [M-H]-
Name: Gemfibrozil
Formula: C15H22O3
Exact mass: 250.1569
SMILES: CC1=CC(OCCCC(C)(C)C(O)=O)=C(C)C=C1
InChI: InChI=1S/C15H22O3/c1-11-6-7-12(2)13(10-11)18-9-5-8-15(3,4)14(16)17/h6-7,10H,5,8-9H2,1-4H3,(H,16,17)
Instrument: Q Exactive Orbitrap (Thermo Scientific)
Instrument type: LC-ESI-QFT
Ms type: MS2
Ion mode: NEGATIVE
Ionization: ESI
Fragmentation mode: HCD
Collision energy: 30
Resolution: 17500
Column name: Acquity BEH C18 1.7um, 2.1x150mm (Waters)
Retention time: 19.739 min
Base peak: 249.1496
Precursor m/z: 249.1496
Precursor type: [M-H]-
Precursor intensity: 88243980.43164
m/z	relative intensity	assigned
82.006	1	C4H2O2-
92.0263	15	C6H4O-
93.0346	41	C6H5O-
95.0139	16	C5H3O2-
108.0217	12	C6H4O2-
119.0138	3	C7H3O2-
121.0295	2	C7H5O2-
123.0087	1	C6H3O3-
136.0166	224	C7H4O3-
137.0244	100	C7H5O3-
205.16	2	C14H21O-
249.1496	999	C15H21O3-
