Mass spectrum: Pyrimethamine; LC-ESI-QFT; MS2; CE: 30; R=17500; [M+H]+
Name: Pyrimethamine
Name: 5-(4-chlorophenyl)-6-ethylpyrimidine-2,4-diamine
Formula: C12H13ClN4
Exact mass: 248.0829
SMILES: CCC1=NC(N)=NC(N)=C1C1=CC=C(Cl)C=C1
InChI: InChI=1S/C12H13ClN4/c1-2-9-10(11(14)17-12(15)16-9)7-3-5-8(13)6-4-7/h3-6H,2H2,1H3,(H4,14,15,16,17)
Instrument: Q Exactive Orbitrap (Thermo Scientific)
Instrument type: LC-ESI-QFT
Ms type: MS2
Ion mode: POSITIVE
Ionization: ESI
Fragmentation mode: HCD
Collision energy: 30
Resolution: 17500
Column name: Acquity BEH C18 1.7um, 2.1x150mm (Waters)
Retention time: 13.596 min
Base peak: 79.0211
Precursor m/z: 249.0902
Precursor type: [M+H]+
Precursor intensity: 12043468.625
m/z	relative intensity	assigned
177.0211	2	C9H6ClN2+
233.0582	2	C11H10ClN4+
234.0671	1	C11H11ClN4+
249.0899	999	C12H14ClN4+
