Mass spectrum: Cyprodinil; LC-ESI-QFT; MS2; CE: 90; R=17500; [M+H]+
Name: Cyprodinil
Name: 4-cyclopropyl-6-methyl-N-phenylpyrimidin-2-amine
Formula: C14H15N3
Exact mass: 225.1266
SMILES: CC1=NC(NC2=CC=CC=C2)=NC(=C1)C1CC1
InChI: InChI=1S/C14H15N3/c1-10-9-13(11-7-8-11)17-14(15-10)16-12-5-3-2-4-6-12/h2-6,9,11H,7-8H2,1H3,(H,15,16,17)
Instrument: Q Exactive Orbitrap (Thermo Scientific)
Instrument type: LC-ESI-QFT
Ms type: MS2
Ion mode: POSITIVE
Ionization: ESI
Fragmentation mode: HCD
Collision energy: 90
Resolution: 17500
Column name: Acquity BEH C18 1.7um, 2.1x150mm (Waters)
Retention time: 17.671 min
Base peak: 79.0211
Precursor m/z: 226.1339
Precursor type: [M+H]+
Precursor intensity: 61436817.1875
m/z	relative intensity	assigned
51.0229	2	C4H3+
53.0386	84	C4H5+
54.0339	6	C3H4N+
55.0543	4	C4H7+
56.0495	9	C3H6N+
65.0386	283	C5H5+
66.0338	10	C4H4N+
66.0464	47	C5H6+
67.0291	24	C3H3N2+
67.0416	34	C4H5N+
67.0542	62	C5H7+
68.0494	66	C4H6N+
70.0651	2	C4H8N+
77.0385	42	C6H5+
78.0338	8	C5H4N+
78.0464	15	C6H6+
79.0542	237	C6H7+
80.0495	98	C5H6N+
81.0574	15	C5H7N+
81.0699	100	C6H9+
82.0651	48	C5H8N+
83.0604	10	C4H7N2+
84.0809	17	C5H10N+
89.0386	56	C7H5+
90.0338	4	C6H4N+
91.0543	380	C7H7+
92.0495	197	C6H6N+
92.062	23	C7H8+
93.0573	999	C6H7N+
94.0413	7	C4H4N3+
94.0652	68	C6H8N+
95.0492	187	C4H5N3+
96.0809	3	C6H10N+
103.0415	4	C7H5N+
103.0543	2	C8H7+
104.0495	52	C7H6N+
105.0448	85	C6H5N2+
106.0652	179	C7H8N+
107.0604	11	C6H7N2+
107.0729	27	C7H9N+
108.0683	63	C6H8N2+
108.0808	192	C7H10N+
109.0648	7	C5H7N3+
109.0761	18	C6H9N2+
109.0885	3	C7H11N+
115.0543	28	C9H7+
116.0495	61	C8H6N+
117.0448	11	C7H5N2+
117.0573	66	C8H7N+
117.0699	5	C9H9+
118.0526	243	C7H6N2+
118.0651	45	C8H8N+
119.0604	158	C7H7N2+
120.0811	1	C8H10N+
121.0761	2	C7H9N2+
122.084	1	C7H10N2+
123.0917	7	C7H11N2+
128.0496	7	C9H6N+
128.0622	3	C10H8+
129.0697	2	C10H9+
130.04	9	C7H4N3+
130.0652	10	C9H8N+
131.0604	92	C8H7N2+
132.0682	88	C8H8N2+
133.076	54	C8H9N2+
134.0715	3	C7H8N3+
137.0123	1	C9HN2+
140.0495	14	C10H6N+
141.0698	4	C11H9+
142.0528	2	C9H6N2+
142.0652	15	C10H8N+
143.0604	53	C9H7N2+
143.073	15	C10H9N+
144.0558	4	C8H6N3+
144.0808	28	C10H10N+
145.065	3	C8H7N3+
145.0759	24	C9H9N2+
148.0869	6	C8H10N3+
150.1025	2	C8H12N3+
152.0623	1	C12H8+
153.0573	1	C11H7N+
154.065	8	C11H8N+
155.0607	7	C10H7N2+
156.0683	12	C10H8N2+
156.0808	2	C11H10N+
157.0761	9	C10H9N2+
158.0837	4	C10H10N2+
158.0968	2	C11H12N+
159.0916	14	C10H11N2+
165.07	9	C13H9+
166.0651	10	C12H8N+
167.0611	6	C11H7N2+
167.073	57	C12H9N+
168.0683	22	C11H8N2+
168.0806	18	C12H10N+
169.0637	7	C10H7N3+
169.0759	21	C11H9N2+
170.0839	5	C11H10N2+
171.0916	5	C11H11N2+
179.0604	2	C12H7N2+
180.0808	7	C13H10N+
181.0759	19	C12H9N2+
181.0887	3	C13H11N+
182.0715	9	C11H8N3+
182.0839	18	C12H10N2+
182.0965	2	C13H12N+
183.0791	16	C11H9N3+
183.0919	14	C12H11N2+
184.0869	23	C11H10N3+
184.0968	1	C12H12N2+
184.112	1	C13H14N+
185.1076	9	C12H13N2+
190.0652	2	C14H8N+
191.0732	7	C14H9N+
192.0684	3	C13H8N2+
192.0809	3	C14H10N+
193.0762	67	C13H9N2+
193.0879	4	C14H11N+
194.0839	45	C13H10N2+
195.0906	2	C13H11N2+
196.087	7	C12H10N3+
197.0945	9	C12H11N3+
198.1027	10	C12H12N3+
199.1106	2	C12H13N3+
206.0838	6	C14H10N2+
207.0917	49	C14H11N2+
208.0888	1	C13H10N3+
208.0994	9	C14H12N2+
209.1072	8	C14H13N2+
210.1026	88	C13H12N3+
211.1101	5	C13H13N3+
224.1183	21	C14H14N3+
226.1339	41	C14H16N3+
