Mass spectrum: Methadone; LC-ESI-QFT; MS2; CE: 30; R=17500; [M+H]+
Name: Methadone
Name: 6-(dimethylamino)-4,4-diphenylheptan-3-one
Formula: C21H27NO
Exact mass: 309.2093
SMILES: CCC(=O)C(CC(C)N(C)C)(C1=CC=CC=C1)C1=CC=CC=C1
InChI: InChI=1S/C21H27NO/c1-5-20(23)21(16-17(2)22(3)4,18-12-8-6-9-13-18)19-14-10-7-11-15-19/h6-15,17H,5,16H2,1-4H3
Instrument: Q Exactive Orbitrap (Thermo Scientific)
Instrument type: LC-ESI-QFT
Ms type: MS2
Ion mode: POSITIVE
Ionization: ESI
Fragmentation mode: HCD
Collision energy: 30
Resolution: 17500
Column name: Acquity BEH C18 1.7um, 2.1x150mm (Waters)
Retention time: 15.477 min
Base peak: 79.0211
Precursor m/z: 310.2165
Precursor type: [M+H]+
Precursor intensity: 68303675.5625
m/z	relative intensity	assigned
57.0335	118	C3H5O+
77.0385	1	C6H5+
91.0542	23	C7H7+
95.0491	1	C6H7O+
105.0334	267	C7H5O+
105.0698	44	C8H9+
117.0697	7	C9H9+
119.0855	2	C9H11+
129.0696	5	C10H9+
131.0853	3	C10H11+
135.0803	5	C9H11O+
143.0856	4	C11H11+
145.0651	2	C10H9O+
145.101	1	C11H13+
147.0801	3	C10H11O+
155.0853	1	C12H11+
159.0803	4	C11H11O+
159.1167	47	C12H15+
161.096	2	C11H13O+
169.101	5	C13H13+
183.0802	1	C13H11O+
187.1117	39	C13H15O+
191.0853	1	C15H11+
195.1167	32	C15H15+
205.1011	6	C16H13+
207.1169	9	C16H15+
218.1091	4	C17H14+
219.1167	60	C17H15+
221.1326	2	C17H17+
223.1116	119	C16H15O+
232.1243	1	C18H16+
236.1197	1	C17H16O+
247.148	68	C19H19+
265.1585	999	C19H21O+
310.2164	29	C21H28NO+
