Mass spectrum: Pyrimethanil; LC-ESI-QFT; MS2; CE: 45; R=17500; [M+H]+
Name: Pyrimethanil
Name: 4,6-dimethyl-N-phenylpyrimidin-2-amine
Formula: C12H13N3
Exact mass: 199.1109
SMILES: CC1=CC(C)=NC(NC2=CC=CC=C2)=N1
InChI: InChI=1S/C12H13N3/c1-9-8-10(2)14-12(13-9)15-11-6-4-3-5-7-11/h3-8H,1-2H3,(H,13,14,15)
Instrument: Q Exactive Orbitrap (Thermo Scientific)
Instrument type: LC-ESI-QFT
Ms type: MS2
Ion mode: POSITIVE
Ionization: ESI
Fragmentation mode: HCD
Collision energy: 45
Resolution: 17500
Column name: Acquity BEH C18 1.7um, 2.1x150mm (Waters)
Retention time: 16.235 min
Base peak: 79.0211
Precursor m/z: 200.1182
Precursor type: [M+H]+
Precursor intensity: 25629309.5
m/z	relative intensity	assigned
58.0651	1	C3H8N+
80.0493	2	C5H6N+
82.0651	26	C5H8N+
83.0604	1	C4H7N2+
107.0603	28	C6H7N2+
118.065	2	C8H8N+
119.0604	1	C7H7N2+
142.0652	1	C10H8N+
143.0603	4	C9H7N2+
156.0808	1	C11H10N+
159.0917	3	C10H11N2+
168.0685	1	C11H8N2+
182.0837	1	C12H10N2+
183.0917	21	C12H11N2+
185.0945	1	C11H11N3+
200.1181	999	C12H14N3+
