Mass spectrum: UK-416244; LC-ESI-QFT; MS2; CE: 30; R=17500; [M+H]+
Name: UK-416244
Name: 3-((Dimethylamino)methyl)-4-(3-methyl-4-(methylthio)phenoxy)benzenesulfonamide
Name: 3-[(dimethylamino)methyl]-4-(3-methyl-4-methylsulfanylphenoxy)benzenesulfonamide
Formula: C17H22N2O3S2
Exact mass: 366.1072
SMILES: CSC1=CC=C(OC2=CC=C(C=C2CN(C)C)S(N)(=O)=O)C=C1C
InChI: InChI=1S/C17H22N2O3S2/c1-12-9-14(5-8-17(12)23-4)22-16-7-6-15(24(18,20)21)10-13(16)11-19(2)3/h5-10H,11H2,1-4H3,(H2,18,20,21)
Instrument: Q Exactive Orbitrap (Thermo Scientific)
Instrument type: LC-ESI-QFT
Ms type: MS2
Ion mode: POSITIVE
Ionization: ESI
Fragmentation mode: HCD
Collision energy: 30
Resolution: 17500
Column name: Acquity BEH C18 1.7um, 2.1x150mm (Waters)
Retention time: 13.853 min
Base peak: 79.0212
Precursor m/z: 367.1145
Precursor type: [M+H]+
Precursor intensity: 19238426
m/z	relative intensity	assigned
137.0419	3	C8H9S+
186.0221	5	C7H8NO3S+
194.0723	9	C14H10O+
195.0804	24	C14H11O+
226.0625	9	C14H10O3+
241.068	8	C15H13OS+
242.0759	260	C15H14OS+
259.0426	1	C14H11O3S+
260.0375	136	C13H10NO3S+
274.0533	133	C14H12NO3S+
275.0609	999	C14H13NO3S+
276.0688	5	C14H14NO3S+
306.0254	5	C14H12NO3S2+
307.0328	8	C14H13NO3S2+
320.0409	11	C15H14NO3S2+
322.0565	386	C15H16NO3S2+
367.1144	135	C17H23N2O3S2+
