Mass spectrum: Brucine; LC-ESI-QFT; MS2; CE: 75; R=17500; [M+H]+
Name: Brucine
Name: (4aR,5aS,8aR,13aS,15aS,15bR)-10,11-dimethoxy-4a,5,5a,7,8,13a,15,15a,15b,16-decahydro-2H-4,6-methanoindolo[3,2,1-ij]oxepino[2,3,4-de]pyrrolo[2,3-h]quinolin-14-one
Formula: C23H26N2O4
Exact mass: 394.1893
SMILES: COC1=CC2=C(C=C1OC)[C@@]13CCN4CC5=CCO[C@H]6CC(=O)N2[C@H]1[C@H]6[C@H]5C[C@@H]34
InChI: InChI=1S/C23H26N2O4/c1-27-16-8-14-15(9-17(16)28-2)25-20(26)10-18-21-13-7-19-23(14,22(21)25)4-5-24(19)11-12(13)3-6-29-18/h3,8-9,13,18-19,21-22H,4-7,10-11H2,1-2H3/t13-,18-,19-,21-,22-,23+/m0/s1
Instrument: Q Exactive Orbitrap (Thermo Scientific)
Instrument type: LC-ESI-QFT
Ms type: MS2
Ion mode: POSITIVE
Ionization: ESI
Fragmentation mode: HCD
Collision energy: 75
Resolution: 17500
Column name: Acquity BEH C18 1.7um, 2.1x150mm (Waters)
Retention time: 11.177 min
Base peak: 79.0211
Precursor m/z: 395.1965
Precursor type: [M+H]+
Precursor intensity: 7531928.25
m/z	relative intensity	assigned
53.0386	41	C4H5+
55.0179	47	C3H3O+
55.0543	19	C4H7+
56.0495	59	C3H6N+
65.0386	14	C5H5+
66.0463	5	C5H6+
67.0416	11	C4H5N+
67.0542	48	C5H7+
68.0495	49	C4H6N+
69.0333	21	C4H5O+
70.0651	36	C4H8N+
77.0386	3	C6H5+
78.0341	4	C5H4N+
79.0542	104	C6H7+
80.0495	119	C5H6N+
81.0335	15	C5H5O+
81.0572	20	C5H7N+
81.0699	60	C6H9+
82.0651	22	C5H8N+
83.049	7	C5H7O+
84.0442	5	C4H6NO+
86.0601	3	C4H8NO+
91.0542	106	C7H7+
92.0493	7	C6H6N+
93.0573	186	C6H7N+
93.07	39	C7H9+
94.0652	98	C6H8N+
95.0492	79	C6H7O+
95.073	6	C6H9N+
95.0856	7	C7H11+
96.0445	16	C5H6NO+
96.0808	63	C6H10N+
98.06	8	C5H8NO+
103.0542	14	C8H7+
104.0492	4	C7H6N+
105.0448	11	C6H5N2+
105.0699	20	C8H9+
106.0652	241	C7H8N+
107.0492	12	C7H7O+
107.0729	16	C7H9N+
107.0855	7	C8H11+
108.0808	133	C7H10N+
109.0647	11	C7H9O+
110.0599	10	C6H8NO+
110.0965	4	C7H12N+
115.0543	10	C9H7+
117.0573	11	C8H7N+
117.0698	12	C9H9+
118.065	21	C8H8N+
119.0731	8	C8H9N+
119.0855	4	C9H11+
120.0445	12	C7H6NO+
120.0808	19	C8H10N+
121.0523	6	C7H7NO+
121.0649	19	C8H9O+
122.0601	117	C7H8NO+
122.0963	9	C8H12N+
123.0678	3	C7H9NO+
124.0757	65	C7H10NO+
128.062	6	C10H8+
129.0701	18	C10H9+
130.0651	23	C9H8N+
131.0491	6	C9H7O+
131.0733	5	C9H9N+
132.0443	12	C8H6NO+
132.0809	17	C9H10N+
133.0523	8	C8H7NO+
134.0602	13	C8H8NO+
134.0961	6	C9H12N+
136.0761	6	C8H10NO+
142.0651	10	C10H8N+
143.0735	8	C10H9N+
144.0566	5	C10H8O+
144.0809	23	C10H10N+
145.0521	4	C9H7NO+
145.0647	15	C10H9O+
146.0601	48	C9H8NO+
146.0969	5	C10H12N+
147.0679	59	C9H9NO+
148.0391	16	C8H6NO2+
148.0756	41	C9H10NO+
154.065	32	C11H8N+
155.0729	18	C11H9N+
156.0809	47	C11H10N+
158.06	41	C10H8NO+
158.0723	7	C11H10O+
159.0679	11	C10H9NO+
160.0758	50	C10H10NO+
161.0472	5	C9H7NO2+
161.0836	14	C10H11NO+
162.0548	20	C9H8NO2+
162.0914	7	C10H12NO+
163.0629	39	C9H9NO2+
164.0707	5	C9H10NO2+
166.0865	4	C9H12NO2+
167.0728	10	C12H9N+
168.0808	11	C12H10N+
169.0522	20	C11H7NO+
170.0601	154	C11H8NO+
171.0674	16	C11H9NO+
172.0757	99	C11H10NO+
173.0837	33	C11H11NO+
174.0551	13	C10H8NO2+
174.0676	27	C11H10O2+
174.0914	6	C11H12NO+
175.0627	14	C10H9NO2+
176.0706	31	C10H10NO2+
177.0785	25	C10H11NO2+
178.0862	61	C10H12NO2+
180.0809	8	C13H10N+
182.06	44	C12H8NO+
183.0679	63	C12H9NO+
184.0758	194	C12H10NO+
185.0836	484	C12H11NO+
186.055	115	C11H8NO2+
186.0914	38	C12H12NO+
187.0628	23	C11H9NO2+
187.0864	4	C11H11N2O+
188.0708	35	C11H10NO2+
189.0787	16	C11H11NO2+
189.091	13	C12H13O2+
190.0862	72	C11H12NO2+
191.073	6	C14H9N+
192.0654	62	C10H10NO3+
192.0809	9	C14H10N+
192.1014	5	C11H14NO2+
193.0883	5	C14H11N+
194.0605	9	C13H8NO+
194.0967	7	C14H12N+
195.0679	7	C13H9NO+
196.0758	51	C13H10NO+
197.0474	6	C12H7NO2+
197.0836	114	C13H11NO+
198.055	355	C12H8NO2+
198.0912	28	C13H12NO+
199.0628	34	C12H9NO2+
199.0995	10	C13H13NO+
200.0707	142	C12H10NO2+
201.0785	113	C12H11NO2+
202.05	7	C11H8NO3+
202.0863	31	C12H12NO2+
203.0936	7	C12H13NO2+
204.0655	5	C11H10NO3+
204.0803	8	C15H10N+
204.1018	26	C12H14NO2+
206.0597	7	C14H8NO+
206.096	12	C15H12N+
207.0679	9	C14H9NO+
208.0757	48	C14H10NO+
208.1119	5	C15H14N+
209.0833	30	C14H11NO+
210.0547	14	C13H8NO2+
210.0914	70	C14H12NO+
211.0628	45	C13H9NO2+
211.0996	18	C14H13NO+
212.0708	140	C13H10NO2+
213.0785	999	C13H11NO2+
214.0499	313	C12H8NO3+
214.0861	61	C13H12NO2+
215.0578	7	C12H9NO3+
215.0824	6	C12H11N2O2+
215.0941	20	C13H13NO2+
216.102	453	C13H14NO2+
217.0885	10	C16H11N+
218.0809	8	C12H12NO3+
218.0962	8	C16H12N+
219.0676	16	C15H9NO+
219.1038	4	C16H13N+
220.0758	70	C15H10NO+
220.1118	5	C16H14N+
221.0836	37	C15H11NO+
222.0546	11	C14H8NO2+
222.0913	44	C15H12NO+
223.0993	66	C15H13NO+
224.0707	65	C14H10NO2+
224.1069	16	C15H14NO+
225.0783	25	C14H11NO2+
226.0508	5	C13H8NO3+
226.0865	69	C14H12NO2+
227.058	4	C13H9NO3+
227.094	65	C14H13NO2+
228.0658	105	C13H10NO3+
228.1021	55	C14H14NO2+
229.0734	649	C13H11NO3+
230.0809	29	C13H12NO3+
230.0966	10	C17H12N+
230.1175	12	C14H16NO2+
232.0752	19	C16H10NO+
232.0967	10	C13H14NO3+
232.1119	7	C17H14N+
233.0839	27	C16H11NO+
234.0549	16	C15H8NO2+
234.0913	84	C16H12NO+
235.063	9	C15H9NO2+
235.0992	58	C16H13NO+
236.0707	175	C15H10NO2+
236.1071	108	C16H14NO+
237.0788	23	C15H11NO2+
237.1149	11	C16H15NO+
238.0864	78	C15H12NO2+
239.0939	34	C15H13NO2+
240.0656	23	C14H10NO3+
240.1019	32	C15H14NO2+
241.0735	16	C14H11NO3+
241.1097	11	C15H15NO2+
242.0817	23	C14H12NO3+
242.1179	9	C15H16NO2+
243.0522	6	C13H9NO4+
243.0889	34	C14H13NO3+
244.0969	411	C14H14NO3+
245.1054	7	C14H15NO3+
246.0547	15	C16H8NO2+
246.0912	29	C17H12NO+
246.1132	6	C14H16NO3+
247.0628	17	C16H9NO2+
247.0991	36	C17H13NO+
248.0708	104	C16H10NO2+
248.1069	67	C17H14NO+
249.0784	51	C16H11NO2+
249.1018	5	C16H13N2O+
249.1147	29	C17H15NO+
250.0496	10	C15H8NO3+
250.0863	75	C16H12NO2+
250.1228	36	C17H16NO+
251.0942	207	C16H13NO2+
252.0656	136	C15H10NO3+
252.1018	45	C16H14NO2+
253.0723	4	C15H11NO3+
253.1096	14	C16H15NO2+
254.0816	27	C15H12NO3+
254.1176	123	C16H16NO2+
255.0894	6	C15H13NO3+
255.1124	10	C15H15N2O2+
256.0962	35	C15H14NO3+
257.1044	6	C15H15NO3+
258.0761	11	C14H12NO4+
258.0913	24	C18H12NO+
258.1126	20	C15H16NO3+
259.098	6	C18H13NO+
260.0708	8	C17H10NO2+
260.0919	9	C14H14NO4+
260.1071	29	C18H14NO+
261.0784	7	C17H11NO2+
261.1144	10	C18H15NO+
262.0862	55	C17H12NO2+
262.1225	22	C18H16NO+
263.0942	230	C17H13NO2+
264.0657	60	C16H10NO3+
264.1018	93	C17H14NO2+
265.0734	47	C16H11NO3+
265.0966	7	C16H13N2O2+
265.1099	22	C17H15NO2+
266.0811	37	C16H12NO3+
266.1179	38	C17H16NO2+
267.0891	120	C16H13NO3+
268.097	16	C16H14NO3+
268.1331	8	C17H18NO2+
269.1042	6	C16H15NO3+
272.0911	7	C15H14NO4+
272.1066	9	C19H14NO+
273.0781	9	C18H11NO2+
273.1147	7	C19H15NO+
274.0866	24	C18H12NO2+
274.1223	10	C19H16NO+
275.0941	9	C18H13NO2+
276.102	48	C18H14NO2+
277.0951	7	C17H13N2O2+
277.1097	25	C18H15NO2+
278.0813	23	C17H12NO3+
278.1178	97	C18H16NO2+
279.0886	15	C17H13NO3+
279.1115	8	C17H15N2O2+
279.1262	8	C18H17NO2+
280.097	87	C17H14NO3+
280.1341	16	C18H18NO2+
281.1047	12	C17H15NO3+
282.1127	42	C17H16NO3+
286.0867	25	C19H12NO2+
288.1015	34	C19H14NO2+
289.1108	21	C19H15NO2+
290.0812	14	C18H12NO3+
290.118	31	C19H16NO2+
291.0895	4	C18H13NO3+
291.1264	25	C19H17NO2+
292.0969	40	C18H14NO3+
292.1178	7	C18H16N2O2+
292.1338	10	C19H18NO2+
293.1056	7	C18H15NO3+
294.1126	46	C18H16NO3+
294.1485	8	C19H20NO2+
296.1284	8	C18H18NO3+
297.0996	5	C17H15NO4+
300.1016	6	C20H14NO2+
301.1103	21	C20H15NO2+
302.0808	14	C19H12NO3+
302.1172	10	C20H16NO2+
304.0968	17	C19H14NO3+
305.1052	7	C19H15NO3+
305.1265	5	C19H17N2O2+
306.1126	107	C19H16NO3+
307.1202	13	C19H17NO3+
308.0917	4	C18H14NO4+
308.1284	13	C19H18NO3+
309.1232	18	C18H17N2O3+
316.0975	12	C20H14NO3+
317.1048	11	C20H15NO3+
318.1124	12	C20H16NO3+
318.1339	5	C20H18N2O2+
319.1211	8	C20H17NO3+
320.0912	6	C19H14NO4+
320.1294	7	C20H18NO3+
321.1369	30	C20H19NO3+
322.1445	26	C20H20NO3+
323.1385	4	C19H19N2O3+
324.1238	40	C19H18NO4+
332.1276	11	C21H18NO3+
333.1234	4	C20H17N2O3+
337.1188	4	C19H17N2O4+
337.1543	15	C20H21N2O3+
350.1387	9	C21H20NO4+
351.1334	6	C20H19N2O4+
351.1698	11	C21H23N2O3+
352.1406	11	C20H20N2O4+
367.1653	6	C21H23N2O4+
379.1654	32	C22H23N2O4+
395.196	8	C23H27N2O4+
