Mass spectrum: 1,2-Benzisothiazolin-3-one; LC-ESI-QFT; MS2; CE: 75; R=17500; [M+H]+
Name: 1,2-Benzisothiazolin-3-one
Name: 1,2-Benzisothiazol-3(2H)-one
Name: 1,2-benzothiazol-3-one
Formula: C7H5NOS
Exact mass: 151.0092
SMILES: O=C1NSC2=C1C=CC=C2
InChI: InChI=1S/C7H5NOS/c9-7-5-3-1-2-4-6(5)10-8-7/h1-4H,(H,8,9)
Instrument: Q Exactive Orbitrap (Thermo Scientific)
Instrument type: LC-ESI-QFT
Ms type: MS2
Ion mode: POSITIVE
Ionization: ESI
Fragmentation mode: HCD
Collision energy: 75
Resolution: 17500
Column name: Acquity BEH C18 1.7um, 2.1x150mm (Waters)
Retention time: 12.912 min
Base peak: 79.0211
Precursor m/z: 152.0165
Precursor type: [M+H]+
Precursor intensity: 2051829.0625
m/z	relative intensity	assigned
53.0387	12	C4H5+
63.0228	6	C5H3+
65.0386	25	C5H5+
68.9793	5	C3HS+
80.0495	96	C5H6N+
81.0335	7	C5H5O+
90.0339	49	C6H4N+
92.0494	9	C6H6N+
97.0108	7	C5H5S+
105.0336	321	C7H5O+
106.995	18	C6H3S+
109.0107	526	C6H5S+
124.0217	13	C6H6NS+
134.006	236	C7H4NS+
135.998	7	C7H4OS+
152.0165	999	C7H6NOS+
