Mass spectrum: SB236057A; LC-ESI-QFT; MS2; CE: 60; R=17500; [M+H]+
Name: SB236057A
Name: (1'-ethylspiro[6,7-dihydro-2H-furo[2,3-f]indole-3,4'-piperidine]-5-yl)-[4-[2-methyl-4-(5-methyl-1,3,4-oxadiazol-2-yl)phenyl]phenyl]methanone
Formula: C33H34N4O3
Exact mass: 534.2631
SMILES: CCN1CCC2(COC3=C2C=C2N(CCC2=C3)C(=O)C2=CC=C(C=C2)C2=CC=C(C=C2C)C2=NN=C(C)O2)CC1
InChI: InChI=1S/C33H34N4O3/c1-4-36-15-12-33(13-16-36)20-39-30-18-25-11-14-37(29(25)19-28(30)33)32(38)24-7-5-23(6-8-24)27-10-9-26(17-21(27)2)31-35-34-22(3)40-31/h5-10,17-19H,4,11-16,20H2,1-3H3
Instrument: Q Exactive Orbitrap (Thermo Scientific)
Instrument type: LC-ESI-QFT
Ms type: MS2
Ion mode: POSITIVE
Ionization: ESI
Fragmentation mode: HCD
Collision energy: 60
Resolution: 17500
Column name: Acquity BEH C18 1.7um, 2.1x150mm (Waters)
Retention time: 15.538 min
Base peak: 79.0211
Precursor m/z: 535.2704
Precursor type: [M+H]+
Precursor intensity: 14052235.75
m/z	relative intensity	assigned
53.0386	2	C4H5+
54.0338	3	C3H4N+
55.0542	6	C4H7+
56.0131	4	C2H2NO+
56.0495	85	C3H6N+
57.0572	2	C3H7N+
58.0651	402	C3H8N+
65.0385	2	C5H5+
67.0416	2	C4H5N+
67.0541	9	C5H7+
68.0494	13	C4H6N+
69.0572	5	C4H7N+
69.0698	2	C5H9+
70.065	6	C4H8N+
71.0728	1	C4H9N+
72.0807	12	C4H10N+
79.0542	17	C6H7+
80.0494	5	C5H6N+
81.0573	5	C5H7N+
81.0698	16	C6H9+
82.0651	47	C5H8N+
83.024	39	C3H3N2O+
84.0807	471	C5H10N+
85.0886	7	C5H11N+
86.0964	20	C5H12N+
91.0543	3	C7H7+
93.0573	2	C6H7N+
93.0698	2	C7H9+
94.0651	22	C6H8N+
95.049	1	C6H7O+
95.073	12	C6H9N+
95.0855	2	C7H11+
96.0807	95	C6H10N+
97.0886	26	C6H11N+
98.0965	2	C6H12N+
105.0449	1	C6H5N2+
105.0696	1	C8H9+
107.0854	2	C8H11+
108.0807	42	C7H10N+
109.0888	6	C7H11N+
110.0964	612	C7H12N+
112.1121	1	C7H14N+
115.0543	1	C9H7+
117.0696	1	C9H9+
120.0806	4	C8H10N+
122.0963	18	C8H12N+
123.1041	18	C8H13N+
124.1121	72	C8H14N+
125.1204	1	C8H15N+
128.0624	1	C10H8+
129.0696	1	C10H9+
130.0647	3	C9H8N+
134.0599	2	C8H8NO+
135.0439	3	C8H7O2+
141.0698	7	C11H9+
144.0808	8	C10H10N+
146.0598	1	C9H8NO+
146.0961	1	C10H12N+
150.1276	3	C10H16N+
152.0619	6	C12H8+
153.0698	34	C12H9+
156.0811	1	C11H10N+
158.0963	7	C11H12N+
163.0545	1	C13H7+
165.0698	135	C13H9+
166.0776	46	C13H10+
168.0805	1	C12H10N+
169.0647	5	C12H9O+
170.0962	1	C12H12N+
171.0802	1	C12H11O+
172.0756	31	C11H10NO+
172.112	1	C12H14N+
173.0834	7	C11H11NO+
174.0912	14	C11H12NO+
178.0776	2	C14H10+
180.0807	81	C13H10N+
181.0645	2	C13H9O+
183.0804	11	C13H11O+
184.0756	3	C12H10NO+
185.0835	4	C12H11NO+
186.0913	18	C12H12NO+
187.0993	4	C12H13NO+
190.065	8	C14H8N+
191.0729	60	C14H9N+
192.0808	3	C14H10N+
192.0932	2	C15H12+
193.0528	36	C13H7NO+
193.0648	299	C14H9O+
194.0724	5	C14H10O+
195.0803	2	C14H11O+
198.0911	1	C13H12NO+
200.1066	7	C13H14NO+
201.1022	3	C12H13N2O+
201.1145	2	C13H15NO+
201.1385	1	C13H17N2+
204.0804	3	C15H10N+
206.0601	6	C14H8NO+
206.0963	51	C15H12N+
207.0678	9	C14H9NO+
208.0756	65	C14H10NO+
212.1065	1	C14H14NO+
213.1387	1	C14H17N2+
215.1175	1	C13H15N2O+
218.0597	2	C15H8NO+
220.0756	91	C15H10NO+
223.0753	1	C15H11O2+
226.0624	5	C14H10O3+
226.0861	3	C14H12NO2+
229.1336	12	C14H17N2O+
230.1414	3	C14H18N2O+
231.0918	1	C16H11N2+
234.0549	1	C15H8NO2+
234.0787	3	C15H10N2O+
236.0705	216	C15H10NO2+
239.0945	1	C15H13NO2+
248.0944	1	C16H12N2O+
249.1021	65	C16H13N2O+
257.1647	20	C16H21N2O+
258.1719	1	C16H22N2O+
267.1127	3	C16H15N2O2+
275.0816	7	C17H11N2O2+
277.097	999	C17H13N2O2+
393.1594	9	C26H21N2O2+
409.1545	3	C26H21N2O3+
419.1767	1	C28H23N2O2+
450.1814	12	C28H24N3O3+
462.1808	2	C29H24N3O3+
476.2338	4	C31H30N3O2+
478.2493	13	C31H32N3O2+
533.2538	2	C33H33N4O3+
535.2722	2	C33H35N4O3+
