Mass spectrum: Atorvastatin; LC-ESI-QFT; MS2; CE: 90; R=17500; [M+H]+
Name: Atorvastatin
Name: (3R,5R)-7-[2-(4-fluorophenyl)-3-phenyl-4-(phenylcarbamoyl)-5-propan-2-ylpyrrol-1-yl]-3,5-dihydroxyheptanoic acid
Formula: C33H35FN2O5
Exact mass: 558.2530
SMILES: CC(C)c1c(C(=O)Nc2ccccc2)c(-c2ccccc2)c(-c2ccc(F)cc2)n1CC[C@@H](O)C[C@@H](O)CC(O)=O
InChI: InChI=1S/C33H35FN2O5/c1-21(2)31-30(33(41)35-25-11-7-4-8-12-25)29(22-9-5-3-6-10-22)32(23-13-15-24(34)16-14-23)36(31)18-17-26(37)19-27(38)20-28(39)40/h3-16,21,26-27,37-38H,17-20H2,1-2H3,(H,35,41)(H,39,40)/t26-,27-/m1/s1
Instrument: Q Exactive Orbitrap (Thermo Scientific)
Instrument type: LC-ESI-QFT
Ms type: MS2
Ion mode: POSITIVE
Ionization: ESI
Fragmentation mode: HCD
Collision energy: 90
Resolution: 17500
Column name: Acquity BEH C18 1.7um, 2.1x150mm (Waters)
Retention time: 17.830 min
Base peak: 79.0211
Precursor m/z: 559.2603
Precursor type: [M+H]+
Precursor intensity: 6997536.125
m/z	relative intensity	assigned
50.0152	6	C4H2+
51.023	14	C4H3+
53.0023	13	C3HO+
53.0386	110	C4H5+
55.0179	23	C3H3O+
55.0542	94	C4H7+
57.0335	60	C3H5O+
59.0492	13	C3H7O+
65.0385	100	C5H5+
67.0542	24	C5H7+
68.9971	7	C3HO2+
69.0334	65	C4H5O+
69.0698	10	C5H9+
71.0127	41	C3H3O2+
71.0491	48	C4H7O+
73.0283	11	C3H5O2+
77.0385	54	C6H5+
79.0542	118	C6H7+
80.0496	18	C5H6N+
81.0334	13	C5H5O+
81.07	7	C6H9+
83.0491	88	C5H7O+
91.0542	107	C7H7+
92.0495	211	C6H6N+
94.0414	13	C6H6O+
94.0652	13	C6H8N+
95.0492	304	C6H7O+
97.0284	12	C5H5O2+
101.0599	11	C5H9O2+
103.0542	112	C8H7+
104.0495	177	C7H6N+
105.0448	123	C6H5N2+
106.0652	15	C7H8N+
109.0448	140	C7H6F+
115.0543	318	C9H7+
116.0493	24	C8H6N+
116.0621	23	C9H8+
117.0573	141	C8H7N+
117.0699	11	C9H9+
120.0445	17	C7H6NO+
121.0449	59	C8H6F+
122.0401	197	C7H5FN+
124.0759	10	C7H10NO+
127.0543	88	C10H7+
128.0495	53	C9H6N+
128.062	200	C10H8+
129.0446	26	C8H5N2+
129.0698	80	C10H9+
130.0652	50	C9H8N+
132.0445	8	C8H6NO+
133.0448	266	C9H6F+
134.0402	18	C8H5FN+
134.0526	10	C9H7F+
134.0598	6	C8H8NO+
135.0478	56	C8H6FN+
135.0603	8	C9H8F+
140.0499	23	C10H6N+
141.0698	34	C11H9+
142.0654	15	C10H8N+
142.0778	8	C11H10+
143.0731	29	C4H12FO4+
145.0451	31	C10H6F+
145.0649	181	C10H9O+
146.0403	23	C9H5FN+
146.0527	118	C10H7F+
146.06	74	C9H8NO+
147.0604	34	C10H8F+
148.0558	44	C9H7FN+
152.062	64	C12H8+
153.0576	36	C11H7N+
153.0698	89	C12H9+
154.0651	252	C11H8N+
155.0604	272	C10H7N2+
155.0728	14	C11H9N+
156.0807	21	C11H10N+
159.0604	21	C11H8F+
160.056	15	C10H7FN+
161.0638	25	C10H8FN+
163.0553	52	C10H8FO+
164.0505	40	C9H7FNO+
165.0698	49	C13H9+
166.0654	32	C12H8N+
167.0728	68	C12H9N+
168.0812	13	C12H10N+
169.0648	18	C12H9O+
170.0524	14	C12H7F+
170.0601	52	C11H8NO+
171.0477	16	C11H6FN+
171.0605	42	C12H8F+
172.0557	171	C11H7FN+
172.0753	22	C11H10NO+
173.0511	126	C10H6FN2+
173.0641	15	C11H8FN+
174.0716	19	C11H9FN+
177.0699	17	C14H9+
178.078	12	C14H10+
180.0447	11	C12H6NO+
180.0558	18	C13H8O+
180.0807	57	C13H10N+
181.0885	13	C13H11N+
182.0968	11	C13H12N+
183.0604	106	C13H8F+
184.0557	12	C12H7FN+
185.0637	46	C12H8FN+
186.0716	11	C12H9FN+
189.0698	67	C15H9+
190.0659	17	C11H9FNO+
191.0857	12	C15H11+
192.0804	6	C14H10N+
193.0887	11	C14H11N+
194.0968	10	C14H12N+
196.0682	67	C14H9F+
197.0764	8	C14H10F+
198.0715	44	C13H9FN+
199.0791	9	C13H10FN+
200.0872	15	C13H11FN+
201.0699	13	C16H9+
202.0777	339	C16H10+
203.0855	129	C16H11+
204.0812	18	C15H10N+
207.0605	73	C15H8F+
208.0681	46	C15H9F+
209.0761	239	C15H10F+
210.0828	5	C15H11F+
211.0793	32	C14H10FN+
212.0869	11	C14H11FN+
215.0857	31	C17H11+
216.0813	25	C16H10N+
217.0888	67	C16H11N+
218.0957	24	C16H12N+
219.0805	13	C16H11O+
220.0682	222	C16H9F+
221.0762	139	C16H10F+
222.0714	114	C15H9FN+
222.0839	85	C16H11F+
223.0794	18	C15H10FN+
223.0918	28	C16H12F+
224.0871	9	C15H11FN+
226.0777	17	C18H10+
227.0728	22	C17H9N+
228.081	66	C17H10N+
229.0888	31	C17H11N+
230.0965	127	C17H12N+
233.0762	513	C17H10F+
234.0714	106	C16H9FN+
234.0838	21	C17H11F+
235.0792	700	C16H10FN+
236.087	98	C16H11FN+
236.0995	8	C17H13F+
237.0717	11	C16H10FO+
237.0948	77	C16H12FN+
238.1023	23	C16H13FN+
239.0854	19	C19H11+
241.0888	30	C18H11N+
242.0966	16	C18H12N+
243.1046	8	C18H13N+
245.0641	8	C17H8FN+
246.0719	38	C17H9FN+
246.0827	32	C18H11F+
247.0792	44	C17H10FN+
247.092	12	C18H12F+
248.087	999	C17H11FN+
249.0949	184	C17H12FN+
250.1027	372	C17H13FN+
256.1122	8	C19H14N+
257.0764	33	C19H10F+
259.079	66	C18H10FN+
259.0923	24	C19H12F+
260.087	109	C18H11FN+
261.0948	280	C18H12FN+
262.1025	182	C18H13FN+
263.0738	14	C17H10FNO+
263.1105	26	C18H14FN+
264.0818	19	C17H11FNO+
264.1186	37	C18H15FN+
270.0841	8	C20H11F+
271.0919	7	C20H12F+
272.0869	50	C19H11FN+
273.095	18	C19H12FN+
274.1025	164	C19H13FN+
275.0744	7	C18H10FNO+
275.1105	32	C19H14FN+
276.0821	40	C18H11FNO+
276.1182	245	C19H15FN+
285.0949	21	C20H12FN+
286.1027	42	C20H13FN+
287.1098	23	C20H14FN+
288.1183	52	C20H15FN+
290.0975	14	C19H13FNO+
290.1339	20	C20H17FN+
298.103	11	C21H13FN+
300.1188	29	C21H15FN+
302.1333	21	C21H17FN+
