Mass spectrum: Ioxynil; LC-ESI-QFT; MS2; CE: 30; R=17500; [M-H]-
Name: Ioxynil
Name: 4-hydroxy-3,5-diiodobenzonitrile
Formula: C7H3I2NO
Exact mass: 370.8304
SMILES: OC1=C(I)C=C(C=C1I)C#N
InChI: InChI=1S/C7H3I2NO/c8-5-1-4(3-10)2-6(9)7(5)11/h1-2,11H
Instrument: Q Exactive Orbitrap (Thermo Scientific)
Instrument type: LC-ESI-QFT
Ms type: MS2
Ion mode: NEGATIVE
Ionization: ESI
Fragmentation mode: HCD
Collision energy: 30
Resolution: 17500
Column name: Acquity BEH C18 1.7um, 2.1x150mm (Waters)
Retention time: 17.202 min
Base peak: 369.8229
Precursor m/z: 369.8231
Precursor type: [M-H]-
Precursor intensity: 79819048.87891
m/z	relative intensity	assigned
64.0192	1	C4H2N-
65.9986	1	C3NO-
76.0193	6	C5H2N-
92.0142	4	C5H2NO-
104.0142	9	C6H2NO-
116.0142	6	C7H2NO-
126.905	999	I-
214.9237	5	C6H2IN-
230.9186	6	C6H2INO-
241.9109	2	C7HINO-
242.9185	8	C7H2INO-
369.823	642	C7H2I2NO-
