Mass spectrum: Oxyphenisatin; LC-ESI-QFT; MS2; CE: 75; R=17500; [M+H]+
Name: Oxyphenisatin
Name: Oxyphenisatine
Name: 3,3-bis(4-hydroxyphenyl)-1H-indol-2-one
Formula: C20H15NO3
Exact mass: 317.1052
SMILES: OC1=CC=C(C=C1)C1(C(=O)NC2=CC=CC=C12)C1=CC=C(O)C=C1
InChI: InChI=1S/C20H15NO3/c22-15-9-5-13(6-10-15)20(14-7-11-16(23)12-8-14)17-3-1-2-4-18(17)21-19(20)24/h1-12,22-23H,(H,21,24)
Instrument: Q Exactive Orbitrap (Thermo Scientific)
Instrument type: LC-ESI-QFT
Ms type: MS2
Ion mode: POSITIVE
Ionization: ESI
Fragmentation mode: HCD
Collision energy: 75
Resolution: 17500
Column name: Acquity BEH C18 1.7um, 2.1x150mm (Waters)
Retention time: 15.339 min
Base peak: 79.0211
Precursor m/z: 318.1125
Precursor type: [M+H]+
Precursor intensity: 4059087.1875
m/z	relative intensity	assigned
53.0386	4	C4H5+
55.0178	10	C3H3O+
65.0385	9	C5H5+
68.9971	29	C3HO2+
79.0179	5	C5H3O+
91.0542	3	C7H7+
95.0492	8	C6H7O+
105.0336	3	C7H5O+
115.0543	30	C9H7+
121.0285	2	C7H5O2+
128.0623	6	C10H8+
129.0701	6	C10H9+
130.0287	8	C8H4NO+
130.0401	5	C9H6O+
130.0652	11	C9H8N+
140.0497	4	C10H6N+
140.0621	2	C11H8+
141.0699	191	C11H9+
142.0651	8	C10H8N+
144.0446	6	C9H6NO+
145.0651	3	C10H9O+
151.0543	9	C12H7+
152.062	24	C12H8+
153.0575	17	C11H7N+
153.0698	19	C12H9+
154.0653	31	C11H8N+
155.0493	7	C11H7O+
155.073	26	C11H9N+
159.0812	4	C11H11O+
166.0656	4	C12H8N+
167.0731	409	C12H9N+
168.0809	432	C12H10N+
169.0649	220	C12H9O+
170.0602	10	C11H8NO+
177.0573	34	C13H7N+
178.0652	124	C13H8N+
179.0734	11	C13H9N+
180.0571	4	C13H8O+
180.081	13	C13H10N+
181.0652	5	C13H9O+
181.0839	4	C10H13O3+
183.0681	3	C12H9NO+
184.0516	4	C12H8O2+
194.0599	3	C13H8NO+
194.0966	11	C14H12N+
195.0677	27	C13H9NO+
195.1	13	C11H15O3+
196.0758	999	C13H10NO+
197.0598	171	C13H9O2+
206.0603	7	C14H8NO+
207.0679	76	C14H9NO+
209.0833	11	C14H11NO+
210.1139	4	C11H16NO3+
211.0633	7	C13H9NO2+
223.0629	114	C14H9NO2+
224.0707	180	C14H10NO2+
227.0578	6	C13H9NO3+
228.0422	5	C16H6NO+
