Mass spectrum: N-Ethyl-4-menthane-3-carboxamide; LC-ESI-QFT; MS2; CE: 30; R=17500; [M+H]+
Name: N-Ethyl-4-menthane-3-carboxamide
Name: N-Ethyl-p-menthane-3-carboxamide
Name: N-ethyl-5-methyl-2-propan-2-ylcyclohexane-1-carboxamide
Formula: C13H25NO
Exact mass: 211.1936
SMILES: CCNC(=O)C1CC(C)CCC1C(C)C
InChI: InChI=1S/C13H25NO/c1-5-14-13(15)12-8-10(4)6-7-11(12)9(2)3/h9-12H,5-8H2,1-4H3,(H,14,15)
Instrument: Q Exactive Orbitrap (Thermo Scientific)
Instrument type: LC-ESI-QFT
Ms type: MS2
Ion mode: POSITIVE
Ionization: ESI
Fragmentation mode: HCD
Collision energy: 30
Resolution: 17500
Column name: Acquity BEH C18 1.7um, 2.1x150mm (Waters)
Retention time: 17.986 min
Base peak: 79.0211
Precursor m/z: 212.2009
Precursor type: [M+H]+
Precursor intensity: 96105363.6875
m/z	relative intensity	assigned
57.0699	3	C4H9+
69.0698	5	C5H9+
72.0443	6	C3H6NO+
74.0601	1	C3H8NO+
81.0698	1	C6H9+
83.0855	12	C6H11+
95.0855	1	C7H11+
97.1012	4	C7H13+
125.1326	1	C9H17+
168.1384	1	C10H18NO+
170.1539	21	C10H20NO+
194.1915	1	C13H24N+
196.17	2	C12H22NO+
212.2008	999	C13H26NO+
