Mass spectrum: Quinine; LC-ESI-QFT; MS2; CE: 15; R=17500; [M+H]+
Name: Quinine
Name: (R)-[(2S,4S,5R)-5-ethenyl-1-azabicyclo[2.2.2]octan-2-yl]-(6-methoxyquinolin-4-yl)methanol
Formula: C20H24N2O2
Exact mass: 324.1838
SMILES: C=C[C@H]1CN2CC[C@H]1C[C@H]2[C@H](O)c1ccnc2ccc(OC)cc12
InChI: InChI=1S/C20H24N2O2/c1-3-13-12-22-9-7-14(13)10-19(22)20(23)16-6-8-21-18-5-4-15(24-2)11-17(16)18/h3-6,8,11,13-14,19-20,23H,1,7,9-10,12H2,2H3/t13-,14-,19-,20+/m0/s1
Instrument: Q Exactive Orbitrap (Thermo Scientific)
Instrument type: LC-ESI-QFT
Ms type: MS2
Ion mode: POSITIVE
Ionization: ESI
Fragmentation mode: HCD
Collision energy: 15
Resolution: 17500
Column name: Acquity BEH C18 1.7um, 2.1x150mm (Waters)
Retention time: 11.420 min
Base peak: 79.0211
Precursor m/z: 325.1911
Precursor type: [M+H]+
Precursor intensity: 28488463.5
m/z	relative intensity	assigned
307.1794	1	C20H23N2O+
325.1909	999	C20H25N2O2+
