Mass spectrum: 6-Acetyl-1,1,2,4,4,7-hexamethyltetralin; LC-ESI-QFT; MS2; CE: 60; R=17500; [M+H]+
Name: 6-Acetyl-1,1,2,4,4,7-hexamethyltetralin
Name: Tonalid
Name: 1-(3,5,5,6,8,8-hexamethyl-6,7-dihydronaphthalen-2-yl)ethanone
Formula: C18H26O
Exact mass: 258.1984
SMILES: CC1CC(C)(C)C2=C(C=C(C)C(=C2)C(C)=O)C1(C)C
InChI: InChI=1S/C18H26O/c1-11-8-16-15(9-14(11)13(3)19)17(4,5)10-12(2)18(16,6)7/h8-9,12H,10H2,1-7H3
Instrument: Q Exactive Orbitrap (Thermo Scientific)
Instrument type: LC-ESI-QFT
Ms type: MS2
Ion mode: POSITIVE
Ionization: ESI
Fragmentation mode: HCD
Collision energy: 60
Resolution: 17500
Column name: Acquity BEH C18 1.7um, 2.1x150mm (Waters)
Retention time: 20.652 min
Base peak: 79.0211
Precursor m/z: 259.2056
Precursor type: [M+H]+
Precursor intensity: 15990051.39844
m/z	relative intensity	assigned
55.0543	17	C4H7+
57.0699	71	C4H9+
69.0699	24	C5H9+
71.0854	7	C5H11+
83.0855	17	C6H11+
105.0699	46	C8H9+
119.0855	129	C9H11+
129.0697	29	C10H9+
133.1012	158	C10H13+
142.0781	8	C11H10+
143.0858	8	C11H11+
145.1007	7	C11H13+
146.0725	7	C10H10O+
147.0804	364	C10H11O+
157.1013	20	C12H13+
159.0806	6	C11H11O+
161.0962	162	C11H13O+
175.1118	999	C12H15O+
