Mass spectrum: Bupirimate; LC-ESI-QFT; MS2; CE: 60; R=17500; [M+H]+
Name: Bupirimate
Name: [5-butyl-2-(ethylamino)-6-methylpyrimidin-4-yl] N,N-dimethylsulfamate
Formula: C13H24N4O3S
Exact mass: 316.1569
SMILES: CCCCC1=C(OS(=O)(=O)N(C)C)N=C(NCC)N=C1C
InChI: InChI=1S/C13H24N4O3S/c1-6-8-9-11-10(3)15-13(14-7-2)16-12(11)20-21(18,19)17(4)5/h6-9H2,1-5H3,(H,14,15,16)
Instrument: Q Exactive Orbitrap (Thermo Scientific)
Instrument type: LC-ESI-QFT
Ms type: MS2
Ion mode: POSITIVE
Ionization: ESI
Fragmentation mode: HCD
Collision energy: 60
Resolution: 17500
Column name: Acquity BEH C18 1.7um, 2.1x150mm (Waters)
Retention time: 17.276 min
Base peak: 79.0211
Precursor m/z: 317.1642
Precursor type: [M+H]+
Precursor intensity: 24865829.1875
m/z	relative intensity	assigned
53.0386	5	C4H5+
54.0338	2	C3H4N+
55.0179	25	C3H3O+
55.0542	26	C4H7+
56.0495	4	C3H6N+
57.0447	1	C2H5N2+
58.0652	2	C3H8N+
65.0385	2	C5H5+
67.0542	19	C5H7+
68.0495	7	C4H6N+
69.0083	52	C2HN2O+
69.0447	18	C3H5N2+
69.0574	3	C4H7N+
69.0698	7	C5H9+
70.0651	43	C4H8N+
71.0603	62	C3H7N2+
72.0443	1	C3H6NO+
79.0541	8	C6H7+
80.0495	6	C5H6N+
81.0335	4	C5H5O+
81.0447	6	C4H5N2+
81.0573	4	C5H7N+
81.0699	16	C6H9+
82.0651	19	C5H8N+
83.024	2	C3H3N2O+
83.0604	6	C4H7N2+
83.0729	1	C5H9N+
84.0444	9	C4H6NO+
84.0808	20	C5H10N+
85.076	9	C4H9N2+
86.0713	38	C3H8N3+
91.0543	5	C7H7+
92.0496	1	C6H6N+
93.0699	19	C7H9+
94.0651	9	C6H8N+
95.024	3	C4H3N2O+
95.0492	3	C6H7O+
95.0604	23	C5H7N2+
95.073	3	C6H9N+
95.0856	26	C7H11+
96.0444	193	C5H6NO+
96.0808	19	C6H10N+
97.0397	55	C4H5N2O+
97.065	5	C6H9O+
97.0762	7	C5H9N2+
98.0601	174	C5H8NO+
105.07	3	C8H9+
107.0604	2	C6H7N2+
107.073	15	C7H9N+
108.0114	999	C2H6NO2S+
109.0396	1	C5H5N2O+
109.0635	7	C5H7N3+
109.076	20	C6H9N2+
110.0601	18	C6H8NO+
110.0713	19	C5H8N3+
110.0965	36	C7H12N+
111.0555	2	C5H7N2O+
111.0791	6	C5H9N3+
111.0917	1	C6H11N2+
112.0504	12	C4H6N3O+
112.112	6	C7H14N+
114.0662	2	C4H8N3O+
120.0808	15	C8H10N+
121.0651	3	C8H9O+
121.0759	9	C7H9N2+
122.0712	44	C6H8N3+
122.0837	4	C7H10N2+
122.0963	12	C8H12N+
123.0553	18	C6H7N2O+
123.0793	6	C6H9N3+
123.0916	11	C7H11N2+
124.0505	2	C5H6N3O+
124.063	9	C6H8N2O+
124.0759	6	C7H10NO+
124.0869	9	C6H10N3+
125.0585	2	C5H7N3O+
125.071	2	C6H9N2O+
126.0221	4	C2H8NO3S+
126.0663	3	C5H8N3O+
126.1278	3	C8H16N+
128.0708	4	C6H10NO2+
135.0919	3	C8H11N2+
136.087	9	C7H10N3+
136.9904	2	C4HN4S+
137.0583	9	C6H7N3O+
137.0947	13	C7H11N3+
137.1075	6	C8H13N2+
138.0662	93	C6H8N3O+
138.0915	21	C8H12NO+
138.1026	30	C7H12N3+
139.074	84	C6H9N3O+
139.0866	6	C7H11N2O+
139.1231	10	C8H15N2+
140.107	385	C8H14NO+
148.0869	22	C8H10N3+
149.0711	5	C8H9N2O+
149.1076	2	C9H13N2+
150.1026	224	C8H12N3+
151.0741	9	C7H9N3O+
151.0975	1	C7H11N4+
151.1104	13	C8H13N3+
151.123	8	C9H15N2+
152.0819	40	C7H10N3O+
152.1183	4	C8H14N3+
153.0894	2	C7H11N3O+
154.0976	4	C7H12N3O+
156.0527	8	C6H8N2O3+
162.1029	1	C9H12N3+
164.082	32	C8H10N3O+
164.119	5	C3H20N2O3S+
165.0899	120	C8H11N3O+
165.1023	167	C9H13N2O+
166.0975	809	C8H12N3O+
167.1053	68	C8H13N3O+
168.1132	2	C8H14N3O+
177.1022	2	C10H13N2O+
179.1292	17	C9H15N4+
180.1132	36	C9H14N3O+
180.1495	26	C10H18N3+
181.1204	5	C9H15N3O+
182.1289	77	C9H16N3O+
191.1178	7	C11H15N2O+
192.1497	13	C11H18N3+
193.1336	76	C11H17N2O+
194.1289	106	C10H16N3O+
196.1443	5	C10H18N3O+
198.0998	3	C9H14N2O3+
206.1279	1	C11H16N3O+
208.1445	120	C11H18N3O+
209.1763	9	C11H21N4+
210.1601	347	C11H20N3O+
224.1758	18	C12H22N3O+
237.2073	61	C13H25N4+
244.0748	2	C9H14N3O3S+
262.0854	13	C12H14N4OS+
272.1065	4	C11H18N3O3S+
