Mass spectrum: Sulisobenzone; LC-ESI-QFT; MS2; CE: 45; R=17500; [M-H]-
Name: Sulisobenzone
Name: 5-benzoyl-4-hydroxy-2-methoxybenzenesulfonic acid
Formula: C14H12O6S
Exact mass: 308.0355
SMILES: COC1=C(C=C(C(=O)C2=CC=CC=C2)C(O)=C1)S(O)(=O)=O
InChI: InChI=1S/C14H12O6S/c1-20-12-8-11(15)10(7-13(12)21(17,18)19)14(16)9-5-3-2-4-6-9/h2-8,15H,1H3,(H,17,18,19)
Instrument: Q Exactive Orbitrap (Thermo Scientific)
Instrument type: LC-ESI-QFT
Ms type: MS2
Ion mode: NEGATIVE
Ionization: ESI
Fragmentation mode: HCD
Collision energy: 45
Resolution: 17500
Column name: Acquity BEH C18 1.7um, 2.1x150mm (Waters)
Retention time: 14.834 min
Base peak: 307.0282
Precursor m/z: 307.0282
Precursor type: [M-H]-
Precursor intensity: 16195435.47266
m/z	relative intensity	assigned
63.9624	23	O2S-
65.0033	3	C4HO-
68.9982	5	C3HO2-
79.9574	712	O3S-
80.9652	125	HO3S-
91.0189	1	C6H3O-
94.9809	2	CH3O3S-
95.014	2	C5H3O2-
110.0009	4	C5H2O3-
121.0295	12	C7H5O2-
122.0007	1	C6H2O3-
123.0087	7	C6H3O3-
139.055	1	C11H7-
145.0295	104	C9H5O2-
149.0246	7	C8H5O3-
149.9959	20	C7H2O4-
154.0424	46	C11H6O-
155.0502	8	C11H7O-
156.0582	3	C11H8O-
158.0372	35	C10H6O2-
159.045	2	C10H7O2-
160.0167	5	C9H4O3-
169.0296	17	C11H5O2-
169.0657	1	C12H9O-
172.053	5	C11H8O2-
175.04	2	C10H7O3-
181.0145	3	C8H5O5-
182.0374	190	C12H6O2-
183.0451	13	C12H7O2-
184.0528	39	C12H8O2-
184.9911	2	C7H5O4S-
185.0244	6	C11H5O3-
185.9628	20	C6H2O5S-
186.0321	14	C11H6O3-
190.0272	26	C10H6O4-
195.0452	2	C13H7O2-
197.0243	40	C12H5O3-
198.0322	88	C12H6O3-
199.0399	24	C12H7O3-
200.0479	137	C12H8O3-
200.9863	19	C7H5O5S-
201.9943	6	C7H6O5S-
210.0323	55	C13H6O3-
211.04	405	C13H7O3-
212.0478	169	C13H8O3-
213.0194	3	C12H5O4-
213.0558	5	C13H9O3-
213.9578	115	C7H2O6S-
226.0271	26	C13H6O4-
227.0714	784	C14H11O3-
228.0428	568	C13H8O4-
228.9811	304	C8H5O6S-
263.002	93	C12H7O5S-
264.0098	181	C12H8O5S-
275.0019	12	C13H7O5S-
290.9969	416	C13H7O6S-
292.0049	48	C13H8O6S-
293.0123	4	C13H9O6S-
307.0282	999	C14H11O6S-
