Mass spectrum: Loratadine; LC-ESI-QFT; MS2; CE: 60; R=17500; [M+H]+
Name: Loratadine
Name: ethyl 4-(13-chloro-4-azatricyclo[9.4.0.03,8]pentadeca-1(11),3(8),4,6,12,14-hexaen-2-ylidene)piperidine-1-carboxylate
Formula: C22H23ClN2O2
Exact mass: 382.1448
SMILES: CCOC(=O)N1CCC(CC1)=C1C2=C(CCC3=C1N=CC=C3)C=C(Cl)C=C2
InChI: InChI=1S/C22H23ClN2O2/c1-2-27-22(26)25-12-9-15(10-13-25)20-19-8-7-18(23)14-17(19)6-5-16-4-3-11-24-21(16)20/h3-4,7-8,11,14H,2,5-6,9-10,12-13H2,1H3
Instrument: Q Exactive Orbitrap (Thermo Scientific)
Instrument type: LC-ESI-QFT
Ms type: MS2
Ion mode: POSITIVE
Ionization: ESI
Fragmentation mode: HCD
Collision energy: 60
Resolution: 17500
Column name: Acquity BEH C18 1.7um, 2.1x150mm (Waters)
Retention time: 17.754 min
Base peak: 79.0212
Precursor m/z: 383.1521
Precursor type: [M+H]+
Precursor intensity: 28488046.40625
m/z	relative intensity	assigned
55.0542	3	C4H7+
58.0651	15	C3H8N+
65.0384	1	C5H5+
67.0415	4	C4H5N+
67.0541	7	C5H7+
80.0494	15	C5H6N+
82.0651	73	C5H8N+
88.0392	15	C3H6NO2+
93.0572	12	C6H7N+
94.0649	2	C6H8N+
102.0549	14	C4H8NO2+
106.065	4	C7H8N+
110.0964	2	C7H12N+
117.0572	4	C8H7N+
118.065	8	C8H8N+
126.0549	25	C6H8NO2+
130.0653	11	C9H8N+
131.0728	8	C9H9N+
132.0805	6	C9H10N+
143.0729	2	C10H9N+
144.0805	5	C10H10N+
154.0651	2	C11H8N+
154.086	7	C8H12NO2+
156.0813	2	C11H10N+
163.0307	2	C10H8Cl+
165.0695	3	C13H9+
175.0312	2	C11H8Cl+
191.0731	2	C14H9N+
192.0806	15	C14H10N+
193.0887	43	C14H11N+
194.0964	2	C14H12N+
199.0305	2	C13H8Cl+
204.0816	4	C15H10N+
205.0882	3	C15H11N+
214.0417	180	C13H9ClN+
215.0859	2	C17H11+
216.0809	5	C16H10N+
217.0885	15	C16H11N+
218.0963	29	C16H12N+
219.0924	2	C15H11N2+
219.1039	16	C16H13N+
220.099	14	C15H12N2+
220.1103	2	C10H19ClNO2+
226.0416	20	C14H9ClN+
227.05	13	C14H10ClN+
228.0573	141	C14H11ClN+
229.0651	105	C14H12ClN+
230.0961	44	C17H12N+
231.1041	162	C17H13N+
232.112	107	C17H14N+
233.1198	38	C17H15N+
238.0422	14	C15H9ClN+
239.0496	3	C15H10ClN+
240.0576	14	C15H11ClN+
241.0526	6	C14H10ClN2+
241.0879	4	C18H11N+
242.0726	11	C18H10O+
242.0947	10	C12H17ClNO2+
243.1041	132	C18H13N+
244.1119	180	C18H14N+
245.1198	100	C18H15N+
246.1276	179	C18H16N+
247.0865	3	C16H11N2O+
247.1355	58	C18H17N+
248.0942	34	C16H12N2O+
251.049	22	C19H7O+
252.0573	296	C16H11ClN+
253.0651	241	C16H12ClN+
254.0731	17	C16H13ClN+
254.0969	2	C19H12N+
256.1117	32	C19H14N+
257.1198	54	C19H15N+
258.1276	718	C19H16N+
259.1354	999	C19H17N+
260.1431	14	C19H18N+
264.0572	30	C17H11ClN+
265.0653	36	C17H12ClN+
266.073	953	C17H13ClN+
268.0881	23	C20H12O+
270.0554	38	C15H11ClN2O+
276.0574	3	C18H11ClN+
278.073	148	C18H13ClN+
279.0808	509	C18H14ClN+
280.0886	827	C18H15ClN+
281.0964	509	C18H16ClN+
282.1041	219	C21H14O+
283.0626	38	C19H9NO2+
286.1103	3	C19H14N2O+
287.1176	7	C19H15N2O+
290.0727	5	C22H10O+
292.0885	213	C19H15ClN+
293.0965	20	C19H16ClN+
294.1042	251	C19H17ClN+
296.121	4	C19H19ClN+
301.1328	5	C20H17N2O+
302.1412	38	C20H18N2O+
310.1361	5	C20H21ClN+
320.0833	3	C20H15ClNO+
322.0864	60	C22H12NO2+
335.0939	14	C20H16ClN2O+
337.11	99	C20H18ClN2O+
339.1622	24	C21H24ClN2+
