Mass spectrum: Deisopropylatrazine; LC-ESI-QFT; MS2; CE: 30; R=17500; [M+H]+
Name: Deisopropylatrazine
Name: 6-chloro-2-N-ethyl-1,3,5-triazine-2,4-diamine
Formula: C5H8ClN5
Exact mass: 173.0468
SMILES: CCNC1=NC(N)=NC(Cl)=N1
InChI: InChI=1S/C5H8ClN5/c1-2-8-5-10-3(6)9-4(7)11-5/h2H2,1H3,(H3,7,8,9,10,11)
Instrument: Q Exactive Orbitrap (Thermo Scientific)
Instrument type: LC-ESI-QFT
Ms type: MS2
Ion mode: POSITIVE
Ionization: ESI
Fragmentation mode: HCD
Collision energy: 30
Resolution: 17500
Column name: Acquity BEH C18 1.7um, 2.1x150mm (Waters)
Retention time: 11.807 min
Base peak: 79.0211
Precursor m/z: 174.0541
Precursor type: [M+H]+
Precursor intensity: 5167751.5
m/z	relative intensity	assigned
68.0242	4	C2H2N3+
71.0603	3	C3H7N2+
79.0058	47	CH4ClN2+
96.0556	42	C4H6N3+
104.001	8	C2H3ClN3+
110.046	2	C3H4N5+
132.0324	49	C4H7ClN3+
138.0775	10	C5H8N5+
146.0228	26	C3H5ClN5+
174.0542	999	C5H9ClN5+
