Mass spectrum: Raloxifene; LC-ESI-QFT; MS2; CE: 30; R=17500; [M-H]-
Name: Raloxifene
Name: [6-hydroxy-2-(4-hydroxyphenyl)-1-benzothiophen-3-yl]-[4-(2-piperidin-1-ylethoxy)phenyl]methanone
Formula: C28H27NO4S
Exact mass: 473.1661
SMILES: OC1=CC=C(C=C1)C1=C(C(=O)C2=CC=C(OCCN3CCCCC3)C=C2)C2=CC=C(O)C=C2S1
InChI: InChI=1S/C28H27NO4S/c30-21-8-4-20(5-9-21)28-26(24-13-10-22(31)18-25(24)34-28)27(32)19-6-11-23(12-7-19)33-17-16-29-14-2-1-3-15-29/h4-13,18,30-31H,1-3,14-17H2
Instrument: Q Exactive Orbitrap (Thermo Scientific)
Instrument type: LC-ESI-QFT
Ms type: MS2
Ion mode: NEGATIVE
Ionization: ESI
Fragmentation mode: HCD
Collision energy: 30
Resolution: 17500
Column name: Acquity BEH C18 1.7um, 2.1x150mm (Waters)
Retention time: 14.256 min
Base peak: 472.1585
Precursor m/z: 472.1588
Precursor type: [M-H]-
Precursor intensity: 9231339.375
m/z	relative intensity	assigned
93.0346	3	C6H5O-
239.0172	39	C14H7O2S-
240.0247	2	C14H8O2S-
241.0329	13	C14H9O2S-
266.0041	2	C15H6O3S-
267.012	20	C15H7O3S-
350.1215	5	C21H20NO2S-
352.1382	2	C21H22NO2S-
359.0384	5	C21H11O4S-
360.0462	400	C21H12O4S-
361.054	469	C21H13O4S-
387.07	6	C23H15O4S-
472.1584	999	C28H26NO4S-
