Mass spectrum: Hexaconazole; LC-ESI-QFT; MS2; CE: 15; R=17500; [M+H]+
Name: Hexaconazole
Name: 2-(2,4-dichlorophenyl)-1-(1,2,4-triazol-1-yl)hexan-2-ol
Formula: C14H17Cl2N3O
Exact mass: 313.0749
SMILES: CCCCC(O)(CN1C=NC=N1)C1=CC=C(Cl)C=C1Cl
InChI: InChI=1S/C14H17Cl2N3O/c1-2-3-6-14(20,8-19-10-17-9-18-19)12-5-4-11(15)7-13(12)16/h4-5,7,9-10,20H,2-3,6,8H2,1H3
Instrument: Q Exactive Orbitrap (Thermo Scientific)
Instrument type: LC-ESI-QFT
Ms type: MS2
Ion mode: POSITIVE
Ionization: ESI
Fragmentation mode: HCD
Collision energy: 15
Resolution: 17500
Column name: Acquity BEH C18 1.7um, 2.1x150mm (Waters)
Retention time: 18.898 min
Base peak: 79.0211
Precursor m/z: 314.0821
Precursor type: [M+H]+
Precursor intensity: 23081907.21875
m/z	relative intensity	assigned
70.0399	258	C2H4N3+
105.0335	3	C7H5O+
158.9756	4	C7H5Cl2+
162.0659	1	C8H8N3O+
170.0162	1	C14H2+
184.9919	1	C9H7Cl2+
245.0494	6	C12H15Cl2O+
314.0821	999	C14H18Cl2N3O+
