Mass spectrum: Buturon; LC-ESI-QFT; MS2; CE: 45; R=17500; [M+H]+
Name: Buturon
Name: 1-but-3-yn-2-yl-3-(4-chlorophenyl)-1-methylurea
Formula: C12H13ClN2O
Exact mass: 236.0716
SMILES: CC(C#C)N(C)C(=O)NC1=CC=C(Cl)C=C1
InChI: InChI=1S/C12H13ClN2O/c1-4-9(2)15(3)12(16)14-11-7-5-10(13)6-8-11/h1,5-9H,2-3H3,(H,14,16)
Instrument: Q Exactive Orbitrap (Thermo Scientific)
Instrument type: LC-ESI-QFT
Ms type: MS2
Ion mode: POSITIVE
Ionization: ESI
Fragmentation mode: HCD
Collision energy: 45
Resolution: 17500
Column name: Acquity BEH C18 1.7um, 2.1x150mm (Waters)
Retention time: 16.576 min
Base peak: 79.0212
Precursor m/z: 237.0789
Precursor type: [M+H]+
Precursor intensity: 1910285
m/z	relative intensity	assigned
51.023	7	C4H3+
53.0386	183	C4H5+
55.0542	37	C4H7+
56.0496	36	C3H6N+
57.07	5	C4H9+
58.0287	23	C2H4NO+
58.0652	110	C3H8N+
68.0495	74	C4H6N+
69.0335	70	C4H5O+
69.0573	10	C4H7N+
70.0652	6	C4H8N+
72.0807	9	C4H10N+
82.0652	10	C5H8N+
84.0808	999	C5H10N+
93.0574	25	C6H7N+
110.06	19	C6H8NO+
118.0652	19	C8H8N+
126.0105	188	C6H5ClN+
127.0182	10	C6H6ClN+
128.0262	125	C6H7ClN+
130.0652	24	C9H8N+
140.0258	6	C10H4O+
144.0808	31	C10H10N+
145.0885	20	C10H11N+
152.0259	12	C8H7ClN+
152.9977	19	C7H4ClNO+
153.034	9	C8H8ClN+
154.0055	54	C7H5ClNO+
159.0917	37	C10H11N2+
167.0371	107	C8H8ClN2+
178.0419	21	C10H9ClN+
185.0476	33	C8H10ClN2O+
193.0293	12	C10H8ClNO+
193.0525	11	C10H10ClN2+
194.0605	14	C10H11ClN2+
207.0324	35	C10H8ClN2O+
222.0557	100	C11H11ClN2O+
237.0791	985	C12H14ClN2O+
