Mass spectrum: Butachlor; LC-ESI-QFT; MS2; CE: 90; R=17500; [M+H]+
Name: Butachlor
Name: N-(butoxymethyl)-2-chloro-N-(2,6-diethylphenyl)acetamide
Formula: C17H26ClNO2
Exact mass: 311.1652
SMILES: CCCCOCN(C(=O)CCl)C1=C(CC)C=CC=C1CC
InChI: InChI=1S/C17H26ClNO2/c1-4-7-11-21-13-19(16(20)12-18)17-14(5-2)9-8-10-15(17)6-3/h8-10H,4-7,11-13H2,1-3H3
Instrument: Q Exactive Orbitrap (Thermo Scientific)
Instrument type: LC-ESI-QFT
Ms type: MS2
Ion mode: POSITIVE
Ionization: ESI
Fragmentation mode: HCD
Collision energy: 90
Resolution: 17500
Column name: Acquity BEH C18 1.7um, 2.1x150mm (Waters)
Retention time: 19.583 min
Base peak: 79.0211
Precursor m/z: 312.1725
Precursor type: [M+H]+
Precursor intensity: 647031.75
m/z	relative intensity	assigned
53.0023	125	C3HO+
55.0543	128	C4H7+
57.0699	999	C4H9+
90.0106	110	C3H5ClN+
118.0656	79	C8H8N+
132.0808	914	C9H10N+
146.0967	219	C10H12N+
147.1043	486	C10H13N+
