Mass spectrum: Oxfendazole; LC-ESI-QFT; MS2; CE: 15; R=17500; [M+H]+
Name: Oxfendazole
Name: methyl N-[6-(benzenesulfinyl)-1H-benzimidazol-2-yl]carbamate
Formula: C15H13N3O3S
Exact mass: 315.0678
SMILES: COC(=O)NC1=NC2=C(N1)C=CC(=C2)S(=O)C1=CC=CC=C1
InChI: InChI=1S/C15H13N3O3S/c1-21-15(19)18-14-16-12-8-7-11(9-13(12)17-14)22(20)10-5-3-2-4-6-10/h2-9H,1H3,(H2,16,17,18,19)
Instrument: Q Exactive Orbitrap (Thermo Scientific)
Instrument type: LC-ESI-QFT
Ms type: MS2
Ion mode: POSITIVE
Ionization: ESI
Fragmentation mode: HCD
Collision energy: 15
Resolution: 17500
Column name: Acquity BEH C18 1.7um, 2.1x150mm (Waters)
Retention time: 14.495 min
Base peak: 79.0211
Precursor m/z: 316.075
Precursor type: [M+H]+
Precursor intensity: 2327395.125
m/z	relative intensity	assigned
159.0431	1	C8H5N3O+
191.0689	15	C9H9N3O2+
207.0644	1	C9H9N3O3+
223.0589	5	C15H11S+
239.0354	3	C9H9N3O3S+
284.0489	29	C14H10N3O2S+
299.072	4	C15H13N3O2S+
316.0752	999	C15H14N3O3S+
