Mass spectrum: Ketoconazole; LC-ESI-QFT; MS2; CE: 30; R=17500; [M+H]+
Name: Ketoconazole
Name: Xolegel
Name: 1-[4-[4-[[(2R,4S)-2-(2,4-dichlorophenyl)-2-(imidazol-1-ylmethyl)-1,3-dioxolan-4-yl]methoxy]phenyl]piperazin-1-yl]ethanone
Formula: C26H28Cl2N4O4
Exact mass: 530.1488
SMILES: CC(=O)N1CCN(CC1)C1=CC=C(OC[C@H]2CO[C@@](CN3C=CN=C3)(O2)C2=CC=C(Cl)C=C2Cl)C=C1
InChI: InChI=1S/C26H28Cl2N4O4/c1-19(33)31-10-12-32(13-11-31)21-3-5-22(6-4-21)34-15-23-16-35-26(36-23,17-30-9-8-29-18-30)24-7-2-20(27)14-25(24)28/h2-9,14,18,23H,10-13,15-17H2,1H3/t23-,26-/m0/s1
Instrument: Q Exactive Orbitrap (Thermo Scientific)
Instrument type: LC-ESI-QFT
Ms type: MS2
Ion mode: POSITIVE
Ionization: ESI
Fragmentation mode: HCD
Collision energy: 30
Resolution: 17500
Column name: Acquity BEH C18 1.7um, 2.1x150mm (Waters)
Retention time: 15.405 min
Base peak: 79.0211
Precursor m/z: 531.156
Precursor type: [M+H]+
Precursor intensity: 10503475
m/z	relative intensity	assigned
69.0447	8	C3H5N2+
70.0651	1	C4H8N+
81.0448	6	C4H5N2+
82.0525	88	C4H6N2+
83.0604	1	C4H7N2+
86.0599	4	C4H8NO+
112.0757	28	C6H10NO+
135.0678	15	C8H9NO+
144.0809	1	C10H10N+
148.0758	4	C9H10NO+
158.9762	1	C7H5Cl2+
162.0914	1	C10H12NO+
163.1229	1	C10H15N2+
167.0816	6	C8H11N2O2+
172.0756	2	C11H10NO+
172.956	1	C7H3Cl2O+
174.0913	8	C11H12NO+
177.1022	10	C10H13N2O+
178.1101	3	C10H14N2O+
184.9919	2	C9H7Cl2+
185.9634	4	C8H4Cl2O+
188.107	1	C12H14NO+
189.1386	2	C12H17N2+
200.107	1	C13H14NO+
205.1334	1	C12H17N2O+
209.0363	4	C11H10ClO2+
215.1178	1	C13H15N2O+
216.1019	14	C13H14NO2+
217.1336	35	C13H17N2O+
219.1128	46	C12H15N2O2+
220.1206	36	C12H16N2O2+
234.1124	7	C13H16NO3+
235.1441	15	C13H19N2O2+
238.006	6	C11H8Cl2N2+
244.0053	66	C11H10Cl2O2+
247.0634	1	C13H12ClN2O+
255.0086	38	C11H9Cl2N2O+
259.1441	9	C15H19N2O2+
267.0086	7	C12H9Cl2N2O+
268.0163	3	C12H10Cl2N2O+
281.0247	1	C13H11Cl2N2O+
311.0347	5	C14H13Cl2N2O2+
378.066	1	C26H8N3O+
420.076	4	C21H20Cl2NO4+
446.1031	7	C22H22Cl2N3O3+
487.1298	1	C24H25Cl2N4O3+
489.1458	170	C24H27Cl2N4O3+
531.1565	999	C26H29Cl2N4O4+
