Mass spectrum: AM580; LC-ESI-QFT; MS2; CE: 30; R=17500; [M+H]+
Name: AM580
Name: 4-{[(5,5,8,8-Tetramethyl-5,6,7,8-tetrahydronaphthalen-2-yl)carbonyl]amino}benzoic acid
Name: 4-[(5,5,8,8-tetramethyl-6,7-dihydronaphthalene-2-carbonyl)amino]benzoic acid
Formula: C22H25NO3
Exact mass: 351.1834
SMILES: CC1(C)CCC(C)(C)C2=C1C=CC(=C2)C(=O)NC1=CC=C(C=C1)C(O)=O
InChI: InChI=1S/C22H25NO3/c1-21(2)11-12-22(3,4)18-13-15(7-10-17(18)21)19(24)23-16-8-5-14(6-9-16)20(25)26/h5-10,13H,11-12H2,1-4H3,(H,23,24)(H,25,26)
Instrument: Q Exactive Orbitrap (Thermo Scientific)
Instrument type: LC-ESI-QFT
Ms type: MS2
Ion mode: POSITIVE
Ionization: ESI
Fragmentation mode: HCD
Collision energy: 30
Resolution: 17500
Column name: Acquity BEH C18 1.7um, 2.1x150mm (Waters)
Retention time: 19.378 min
Base peak: 79.0211
Precursor m/z: 352.1907
Precursor type: [M+H]+
Precursor intensity: 7303570.75
m/z	relative intensity	assigned
57.0699	1	C4H9+
69.0699	3	C5H9+
71.0856	1	C5H11+
91.0542	20	C7H7+
105.0699	65	C8H9+
111.1169	6	C8H15+
119.0856	72	C9H11+
120.0444	7	C7H6NO+
131.0493	1	C9H7O+
133.1012	123	C10H13+
136.0396	2	C7H6NO2+
145.0647	2	C10H9O+
146.0237	2	C8H4NO2+
159.0805	4	C11H11O+
164.0343	54	C8H6NO3+
173.1326	1	C13H17+
197.1328	2	C15H17+
215.1432	274	C15H19O+
242.0811	1	C14H12NO3+
254.081	2	C15H12NO3+
264.1022	4	C17H14NO2+
268.0969	45	C16H14NO3+
282.1125	92	C17H16NO3+
296.1283	48	C18H18NO3+
310.1437	3	C19H20NO3+
352.1909	999	C22H26NO3+
