Mass spectrum: Trazodone; LC-ESI-QFT; MS2; CE: 60; R=17500; [M+H]+
Name: Trazodone
Name: 2-[3-[4-(3-chlorophenyl)piperazin-1-yl]propyl]-[1,2,4]triazolo[4,3-a]pyridin-3-one
Formula: C19H22ClN5O
Exact mass: 371.1513
SMILES: ClC1=CC=CC(=C1)N1CCN(CCCN2N=C3C=CC=CN3C2=O)CC1
InChI: InChI=1S/C19H22ClN5O/c20-16-5-3-6-17(15-16)23-13-11-22(12-14-23)8-4-10-25-19(26)24-9-2-1-7-18(24)21-25/h1-3,5-7,9,15H,4,8,10-14H2
Instrument: Q Exactive Orbitrap (Thermo Scientific)
Instrument type: LC-ESI-QFT
Ms type: MS2
Ion mode: POSITIVE
Ionization: ESI
Fragmentation mode: HCD
Collision energy: 60
Resolution: 17500
Column name: Acquity BEH C18 1.7um, 2.1x150mm (Waters)
Retention time: 13.407 min
Base peak: 79.0211
Precursor m/z: 372.1586
Precursor type: [M+H]+
Precursor intensity: 2793558.8125
m/z	relative intensity	assigned
54.0338	1	C3H4N+
56.0495	1	C3H6N+
69.0448	2	C3H5N2+
70.0287	1	C3H4NO+
70.0651	12	C4H8N+
78.0336	14	C5H4N+
80.0495	14	C5H6N+
82.0289	2	C4H4NO+
92.037	2	C5H4N2+
93.0448	25	C5H5N2+
94.0526	3	C5H6N2+
95.0364	1	C5H5NO+
95.0605	4	C5H7N2+
96.0444	247	C5H6NO+
105.0447	12	C6H5N2+
106.0651	4	C7H8N+
107.0604	8	C6H7N2+
110.0601	6	C6H8NO+
111.0553	7	C5H7N2O+
116.0495	2	C8H6N+
117.0572	1	C8H7N+
118.0652	6	C8H8N+
119.0603	14	C7H7N2+
119.0731	1	C8H9N+
120.032	5	C6H4N2O+
120.0556	12	C6H6N3+
120.0683	2	C7H8N2+
120.0807	4	C8H10N+
121.0397	9	C6H5N2O+
121.0761	27	C7H9N2+
123.0553	16	C6H7N2O+
131.0605	5	C8H7N2+
132.0682	5	C8H8N2+
133.0761	76	C8H9N2+
134.0601	8	C8H8NO+
135.0427	20	C6H5N3O+
136.0505	12	C6H6N3O+
138.0106	2	C7H5ClN+
148.0506	999	C7H6N3O+
148.0867	243	C8H10N3+
154.0417	5	C8H9ClN+
166.0418	10	C9H9ClN+
176.0819	329	C9H10N3O+
180.0768	14	C5H13ClN4O+
194.0607	6	C10H11ClN2+
209.084	10	C11H14ClN2+
237.1156	3	C13H18ClN2+
