Mass spectrum: Diphenylamine; LC-ESI-QFT; MS2; CE: 90; R=17500; [M+H]+
Name: Diphenylamine
Name: N-phenylaniline
Formula: C12H11N
Exact mass: 169.0891
SMILES: N(C1=CC=CC=C1)C1=CC=CC=C1
InChI: InChI=1S/C12H11N/c1-3-7-11(8-4-1)13-12-9-5-2-6-10-12/h1-10,13H
Instrument: Q Exactive Orbitrap (Thermo Scientific)
Instrument type: LC-ESI-QFT
Ms type: MS2
Ion mode: POSITIVE
Ionization: ESI
Fragmentation mode: HCD
Collision energy: 90
Resolution: 17500
Column name: Acquity BEH C18 1.7um, 2.1x150mm (Waters)
Retention time: 18.046 min
Base peak: 79.0211
Precursor m/z: 170.0964
Precursor type: [M+H]+
Precursor intensity: 4125824.96875
m/z	relative intensity	assigned
53.0386	3	C4H5+
65.0385	168	C5H5+
66.0464	48	C5H6+
77.0385	2	C6H5+
92.0495	176	C6H6N+
93.0573	999	C6H7N+
94.0653	1	C6H8N+
115.0543	2	C9H7+
128.062	10	C10H8+
130.0652	1	C9H8N+
141.07	1	C11H9+
143.0729	1	C10H9N+
143.0857	1	C11H11+
152.0621	46	C12H8+
153.07	10	C12H9+
154.0652	7	C11H8N+
154.0779	1	C12H10+
155.073	2	C11H9N+
168.0812	11	C12H10N+
169.089	10	C12H11N+
170.0964	13	C12H12N+
