Mass spectrum: Octabenzone; LC-ESI-QFT; MS2; CE: 45; R=17500; [M+H]+
Name: Octabenzone
Name: (2-hydroxy-4-octoxyphenyl)-phenylmethanone
Formula: C21H26O3
Exact mass: 326.1882
SMILES: CCCCCCCCOC1=CC(O)=C(C=C1)C(=O)C1=CC=CC=C1
InChI: InChI=1S/C21H26O3/c1-2-3-4-5-6-10-15-24-18-13-14-19(20(22)16-18)21(23)17-11-8-7-9-12-17/h7-9,11-14,16,22H,2-6,10,15H2,1H3
Instrument: Q Exactive Orbitrap (Thermo Scientific)
Instrument type: LC-ESI-QFT
Ms type: MS2
Ion mode: POSITIVE
Ionization: ESI
Fragmentation mode: HCD
Collision energy: 45
Resolution: 17500
Column name: Acquity BEH C18 1.7um, 2.1x150mm (Waters)
Retention time: 18.891 min
Base peak: 79.0211
Precursor m/z: 327.1955
Precursor type: [M+H]+
Precursor intensity: 12120521.6875
m/z	relative intensity	assigned
53.0386	45	C4H5+
55.0179	124	C3H3O+
55.0543	104	C4H7+
63.023	71	C5H3+
65.0386	113	C5H5+
67.0543	88	C5H7+
69.0334	44	C4H5O+
69.0698	46	C5H9+
79.0542	109	C6H7+
81.0337	26	C5H5O+
81.07	38	C6H9+
91.0543	186	C7H7+
93.0338	32	C6H5O+
93.0699	363	C7H9+
95.0493	98	C6H7O+
95.0855	90	C7H11+
103.0542	27	C8H7+
105.0699	23	C8H9+
110.0713	34	C7H10O+
111.0441	104	C6H7O2+
114.0666	23	C6H10O2+
120.0557	43	C8H8O+
122.0711	37	C8H10O+
128.0623	28	C10H8+
132.0558	99	C9H8O+
133.0641	28	C9H9O+
134.0712	110	C9H10O+
136.0866	23	C9H12O+
138.0662	226	C8H10O2+
138.1027	55	C9H14O+
139.0741	253	C8H11O2+
146.0711	44	C10H10O+
147.0793	48	C10H11O+
148.0869	46	C10H12O+
150.0658	40	C9H10O2+
150.1027	208	C10H14O+
152.0821	87	C9H12O2+
158.0717	60	C11H10O+
160.0507	145	C10H8O2+
160.087	155	C11H12O+
161.0952	30	C11H13O+
162.1027	86	C11H14O+
164.082	78	C10H12O2+
164.1186	52	C11H16O+
166.0976	999	C10H14O2+
167.1054	812	C10H15O2+
170.0715	31	C12H10O+
172.0874	48	C12H12O+
173.0586	40	C11H9O2+
178.0977	82	C11H14O2+
180.1132	67	C11H16O2+
180.1497	38	C12H20O+
181.122	23	C11H17O2+
183.0791	21	C13H11O+
184.0871	74	C13H12O+
185.0951	38	C13H13O+
186.0663	39	C12H10O2+
186.1022	36	C13H14O+
188.0819	99	C12H12O2+
192.1131	31	C12H16O2+
192.1499	131	C13H20O+
194.129	224	C12H18O2+
197.0936	37	C14H13O+
198.0667	26	C13H10O2+
198.101	91	C14H14O+
199.0744	84	C13H11O2+
200.0824	144	C13H12O2+
208.1449	95	C13H20O2+
210.103	43	C15H14O+
212.0824	207	C14H12O2+
212.1185	70	C15H16O+
213.0894	49	C14H13O2+
214.0609	37	C13H10O3+
214.0968	38	C14H14O2+
214.1341	63	C15H18O+
224.0823	42	C15H12O2+
225.1263	128	C16H17O+
226.1341	70	C16H18O+
238.0978	54	C16H14O2+
239.1063	31	C16H15O2+
240.1132	25	C16H16O2+
240.1496	229	C17H20O+
254.1292	126	C17H18O2+
268.181	446	C19H24O+
327.1938	25	C21H27O3+
