Mass spectrum: UK-373911; LC-ESI-QFT; MS2; CE: 45; R=17500; [M-H]-
Name: UK-373911
Name: (5S,8S)-5-(3,4-dichlorophenyl)-8-(methylamino)-5,6,7,8-tetrahydronaphthalene-2-sulfonamide
Formula: C17H18Cl2N2O2S
Exact mass: 384.0466
SMILES: CN[C@H]1CC[C@@H](C2=CC=C(Cl)C(Cl)=C2)C2=CC=C(C=C12)S(N)(=O)=O
InChI: InChI=1S/C17H18Cl2N2O2S/c1-21-17-7-5-12(10-2-6-15(18)16(19)8-10)13-4-3-11(9-14(13)17)24(20,22)23/h2-4,6,8-9,12,17,21H,5,7H2,1H3,(H2,20,22,23)/t12-,17-/m0/s1
Instrument: Q Exactive Orbitrap (Thermo Scientific)
Instrument type: LC-ESI-QFT
Ms type: MS2
Ion mode: NEGATIVE
Ionization: ESI
Fragmentation mode: HCD
Collision energy: 45
Resolution: 17500
Column name: Acquity BEH C18 1.7um, 2.1x150mm (Waters)
Retention time: 14.654 min
Base peak: 112.9857
Precursor m/z: 383.0393
Precursor type: [M-H]-
Precursor intensity: 2859159.714844
m/z	relative intensity	assigned
61.9706	113	NOS-
63.9625	40	O2S-
77.9656	122	NO2S-
78.9733	132	HNO2S-
79.9812	443	H2NO2S-
130.0536	27	C8H6N2-
130.0661	16	C9H8N-
142.0663	140	C10H8N-
143.0615	10	C9H7N2-
144.0819	138	C10H10N-
144.9618	306	C6H3Cl2-
145.0772	49	C9H9N2-
173.1084	771	C11H13N2-
173.9883	331	C7H6Cl2N-
174.0923	27	C11H12NO-
194.0282	257	C9H8NO2S-
206.028	77	C10H8NO2S-
208.0439	207	C10H10NO2S-
209.039	8	C9H9N2O2S-
235.0088	90	C13H9Cl2-
249.9958	85	C13H8Cl2O-
260.0037	9	C14H8Cl2N-
283.1008	14	C17H16ClN2-
288.0356	19	C16H12Cl2N-
297.9633	44	C13H8Cl2O2S-
311.086	32	C17H15N2O2S-
313.9816	357	C13H10Cl2NO2S-
319.0772	88	C17H17Cl2N2-
320.0613	21	C17H16Cl2NO-
323.966	59	C14H8Cl2NO2S-
325.9823	17	C14H10Cl2NO2S-
337.9814	193	C15H10Cl2NO2S-
347.0629	36	C17H16ClN2O2S-
351.9972	984	C16H12Cl2NO2S-
353.0056	141	C16H13Cl2NO2S-
355.0076	45	C15H13Cl2N2O2S-
381.0244	53	C17H15Cl2N2O2S-
383.0395	999	C17H17Cl2N2O2S-
