Mass spectrum: Methiuron; LC-ESI-QFT; MS2; CE: 75; R=17500; [M+H]+
Name: Methiuron
Name: N,N-dimethyl-N'-(3-methylphenyl)carbamimidothioic acid
Formula: C10H14N2S
Exact mass: 194.0878
SMILES: CN(C)C(=S)NC1=CC(C)=CC=C1
InChI: InChI=1S/C10H14N2S/c1-8-5-4-6-9(7-8)11-10(13)12(2)3/h4-7H,1-3H3,(H,11,13)
Instrument: Q Exactive Orbitrap (Thermo Scientific)
Instrument type: LC-ESI-QFT
Ms type: MS2
Ion mode: POSITIVE
Ionization: ESI
Fragmentation mode: HCD
Collision energy: 75
Resolution: 17500
Column name: Acquity BEH C18 1.7um, 2.1x150mm (Waters)
Retention time: 14.286 min
Base peak: 79.0211
Precursor m/z: 195.095
Precursor type: [M+H]+
Precursor intensity: 12114011.53125
m/z	relative intensity	assigned
56.0495	35	C3H6N+
61.0106	11	C2H5S+
63.0263	2	C2H7S+
65.0385	22	C5H5+
67.0542	4	C5H7+
71.0603	4	C3H7N2+
71.9902	5	C2H2NS+
72.998	72	C2H3NS+
79.0543	3	C6H7+
88.0215	999	C3H6NS+
91.0542	195	C7H7+
92.062	24	C7H8+
97.0078	2	C8H+
117.0573	2	C8H7N+
119.0604	38	C7H7N2+
123.0263	59	C7H7S+
125.0418	3	C7H9S+
135.0137	1	C7H5NS+
146.0839	2	C9H10N2+
148.0215	1	C8H6NS+
150.0372	91	C8H8NS+
157.011	3	C10H5S+
161.1073	1	C10H13N2+
