Mass spectrum: Metalaxyl; LC-ESI-QFT; MS2; CE: 60; R=17500; [M+H]+
Name: Metalaxyl
Name: methyl 2-(N-(2-methoxyacetyl)-2,6-dimethylanilino)propanoate
Formula: C15H21NO4
Exact mass: 279.1471
SMILES: COCC(=O)N(C(C)C(=O)OC)C1=C(C)C=CC=C1C
InChI: InChI=1S/C15H21NO4/c1-10-7-6-8-11(2)14(10)16(13(17)9-19-4)12(3)15(18)20-5/h6-8,12H,9H2,1-5H3
Instrument: Q Exactive Orbitrap (Thermo Scientific)
Instrument type: LC-ESI-QFT
Ms type: MS2
Ion mode: POSITIVE
Ionization: ESI
Fragmentation mode: HCD
Collision energy: 60
Resolution: 17500
Column name: Acquity BEH C18 1.7um, 2.1x150mm (Waters)
Retention time: 16.409 min
Base peak: 79.0211
Precursor m/z: 280.1543
Precursor type: [M+H]+
Precursor intensity: 36747422.15625
m/z	relative intensity	assigned
56.0495	2	C3H6N+
59.0491	4	C3H7O+
79.0542	2	C6H7+
91.0543	9	C7H7+
103.0542	2	C8H7+
105.07	39	C8H9+
106.0777	4	C8H10+
107.0854	7	C8H11+
117.0574	5	C8H7N+
117.0699	5	C9H9+
118.0651	14	C8H8N+
118.0779	1	C9H10+
119.0731	5	C8H9N+
119.0856	23	C9H11+
120.0808	7	C8H10N+
121.0887	16	C8H11N+
121.1008	2	C9H13+
123.0806	4	C8H11O+
128.062	6	C10H8+
130.0652	28	C9H8N+
131.0731	29	C9H9N+
131.0853	3	C10H11+
132.0809	121	C9H10N+
133.0887	116	C9H11N+
133.1009	6	C10H13+
134.0965	217	C9H12N+
135.1043	6	C9H13N+
143.0857	3	C11H11+
144.0809	20	C10H10N+
145.0887	225	C10H11N+
146.0965	91	C10H12N+
147.1044	8	C10H13N+
148.1121	237	C10H14N+
150.0915	24	C9H12NO+
158.0965	10	C11H12N+
159.1043	2	C11H13N+
160.1122	999	C11H14N+
161.0835	5	C10H11NO+
161.1198	4	C11H15N+
162.1278	206	C11H16N+
164.1071	11	C10H14NO+
165.1152	6	C10H15NO+
188.1074	2	C12H14NO+
192.1384	94	C12H18NO+
208.0606	4	C10H10NO4+
220.1333	13	C13H18NO2+
