Mass spectrum: Trinexapac-ethyl; LC-ESI-QFT; MS2; CE: 30; R=17500; [M-H]-
Name: Trinexapac-ethyl
Name: ethyl 4-[cyclopropyl(hydroxy)methylidene]-3,5-dioxocyclohexane-1-carboxylate
Formula: C13H16O5
Exact mass: 252.0998
SMILES: CCOC(=O)C1CC(=O)C(=C(O)C2CC2)C(=O)C1
InChI: InChI=1S/C13H16O5/c1-2-18-13(17)8-5-9(14)11(10(15)6-8)12(16)7-3-4-7/h7-8,16H,2-6H2,1H3
Instrument: Q Exactive Orbitrap (Thermo Scientific)
Instrument type: LC-ESI-QFT
Ms type: MS2
Ion mode: NEGATIVE
Ionization: ESI
Fragmentation mode: HCD
Collision energy: 30
Resolution: 17500
Column name: Acquity BEH C18 1.7um, 2.1x150mm (Waters)
Retention time: 17.175 min
Base peak: 193.0869
Precursor m/z: 251.0925
Precursor type: [M-H]-
Precursor intensity: 339929.1835937
m/z	relative intensity	assigned
57.0346	18	C3H5O-
95.014	15	C5H3O2-
109.0295	21	C6H5O2-
119.0503	12	C8H7O-
133.066	157	C9H9O-
135.0452	19	C8H7O2-
135.0815	41	C9H11O-
137.0608	147	C8H9O2-
141.0556	12	C7H9O3-
159.0449	12	C10H7O2-
161.0608	94	C10H9O2-
163.0401	36	C9H7O3-
177.0559	120	C10H9O3-
179.0714	39	C10H11O3-
183.0661	32	C9H11O4-
205.0506	71	C11H9O4-
207.1028	25	C12H15O3-
251.0926	999	C13H15O5-
