Mass spectrum: Raloxifene; LC-ESI-QFT; MS2; CE: 30; R=17500; [M+H]+
Name: Raloxifene
Name: [6-hydroxy-2-(4-hydroxyphenyl)-1-benzothiophen-3-yl]-[4-(2-piperidin-1-ylethoxy)phenyl]methanone
Formula: C28H27NO4S
Exact mass: 473.1661
SMILES: OC1=CC=C(C=C1)C1=C(C(=O)C2=CC=C(OCCN3CCCCC3)C=C2)C2=CC=C(O)C=C2S1
InChI: InChI=1S/C28H27NO4S/c30-21-8-4-20(5-9-21)28-26(24-13-10-22(31)18-25(24)34-28)27(32)19-6-11-23(12-7-19)33-17-16-29-14-2-1-3-15-29/h4-13,18,30-31H,1-3,14-17H2
Instrument: Q Exactive Orbitrap (Thermo Scientific)
Instrument type: LC-ESI-QFT
Ms type: MS2
Ion mode: POSITIVE
Ionization: ESI
Fragmentation mode: HCD
Collision energy: 30
Resolution: 17500
Column name: Acquity BEH C18 1.7um, 2.1x150mm (Waters)
Retention time: 14.280 min
Base peak: 79.0211
Precursor m/z: 474.1734
Precursor type: [M+H]+
Precursor intensity: 14210073.5
m/z	relative intensity	assigned
55.0542	3	C4H7+
56.0495	7	C3H6N+
58.0651	5	C3H8N+
69.0698	16	C5H9+
70.0651	3	C4H8N+
84.0808	48	C5H10N+
85.0886	78	C5H11N+
86.0964	9	C5H12N+
98.0964	5	C6H12N+
110.0964	3	C7H12N+
112.112	885	C7H14N+
147.044	22	C9H7O2+
269.0266	57	C15H9O3S+
361.0527	1	C21H13O4S+
362.061	6	C21H14O4S+
474.1734	999	C28H28NO4S+
