Mass spectrum: Triamterene; LC-ESI-QFT; MS2; CE: 75; R=17500; [M+H]+
Name: Triamterene
Name: 6-phenylpteridine-2,4,7-triamine
Formula: C12H11N7
Exact mass: 253.1076
SMILES: NC1=NC(N)=C2N=C(C(N)=NC2=N1)C1=CC=CC=C1
InChI: InChI=1S/C12H11N7/c13-9-7(6-4-2-1-3-5-6)16-8-10(14)18-12(15)19-11(8)17-9/h1-5H,(H6,13,14,15,17,18,19)
Instrument: Q Exactive Orbitrap (Thermo Scientific)
Instrument type: LC-ESI-QFT
Ms type: MS2
Ion mode: POSITIVE
Ionization: ESI
Fragmentation mode: HCD
Collision energy: 75
Resolution: 17500
Column name: Acquity BEH C18 1.7um, 2.1x150mm (Waters)
Retention time: 11.875 min
Base peak: 79.0211
Precursor m/z: 254.1149
Precursor type: [M+H]+
Precursor intensity: 32514151.53125
m/z	relative intensity	assigned
51.023	1	C4H3+
53.0387	4	C4H5+
55.0291	8	C2H3N2+
65.0134	1	C3HN2+
67.029	10	C3H3N2+
68.0243	3	C2H2N3+
77.0386	4	C6H5+
80.0243	8	C3H2N3+
82.0399	23	C3H4N3+
89.0384	5	C7H5+
92.0243	93	C4H2N3+
95.0491	11	C4H5N3+
97.0509	1	C3H5N4+
103.0418	3	C7H5N+
104.0494	954	C7H6N+
105.0448	4	C6H5N2+
106.0651	1	C7H8N+
107.0352	21	C4H3N4+
109.051	2	C4H5N4+
116.0494	134	C8H6N+
117.0572	3	C8H7N+
118.065	2	C8H8N+
122.06	3	C5H6N4+
124.0618	2	C4H6N5+
128.0368	3	C8H4N2+
129.0447	9	C8H5N2+
131.0603	26	C8H7N2+
132.0443	3	C6H4N4+
133.076	2	C8H9N2+
134.0461	25	C5H4N5+
134.06	18	C6H6N4+
136.0757	1	C6H8N4+
141.0447	107	C9H5N2+
142.0526	31	C9H6N2+
143.0603	337	C9H7N2+
144.0555	1	C8H6N3+
148.0756	1	C7H8N4+
153.0448	5	C10H5N2+
156.0554	3	C9H6N3+
158.0712	12	C9H8N3+
159.0552	3	C7H5N5+
161.0708	22	C7H7N5+
166.0401	3	C10H4N3+
167.0476	1	C10H5N3+
168.0556	476	C10H6N3+
169.0395	1	C8H3N5+
169.0633	5	C10H7N3+
170.0712	7	C10H8N3+
171.0553	3	C8H5N5+
176.0679	1	C6H6N7+
183.0665	86	C10H7N4+
184.0506	1	C8H4N6+
184.0746	2	C10H8N4+
185.0822	74	C10H9N4+
186.0661	25	C8H6N6+
193.0509	37	C11H5N4+
194.0587	1	C11H6N4+
195.0665	495	C11H7N4+
196.0505	2	C9H4N6+
209.0698	1	C11H7N5+
210.0774	213	C11H8N5+
211.0615	1	C9H5N7+
211.0854	1	C11H9N5+
212.093	123	C11H10N5+
213.077	42	C9H7N7+
220.0617	59	C12H6N5+
227.1039	39	C11H11N6+
235.0721	2	C12H7N6+
237.0882	999	C12H9N6+
239.0917	1	C11H9N7+
252.099	5	C12H10N7+
254.1147	186	C12H12N7+
