Mass spectrum: 4,4`-Methylenebis(2-methylaniline); LC-ESI-QFT; MS2; CE: 45; R=17500; [M+H]+
Name: 4,4'-Methylenebis(2-methylaniline)
Name: 4-[(4-amino-3-methylphenyl)methyl]-2-methylaniline
Formula: C15H18N2
Exact mass: 226.1470
SMILES: CC1=C(N)C=CC(CC2=CC(C)=C(N)C=C2)=C1
InChI: InChI=1S/C15H18N2/c1-10-7-12(3-5-14(10)16)9-13-4-6-15(17)11(2)8-13/h3-8H,9,16-17H2,1-2H3
Instrument: Q Exactive Orbitrap (Thermo Scientific)
Instrument type: LC-ESI-QFT
Ms type: MS2
Ion mode: POSITIVE
Ionization: ESI
Fragmentation mode: HCD
Collision energy: 45
Resolution: 17500
Column name: Acquity BEH C18 1.7um, 2.1x150mm (Waters)
Retention time: 10.156 min
Base peak: 79.0211
Precursor m/z: 227.1543
Precursor type: [M+H]+
Precursor intensity: 16921456
m/z	relative intensity	assigned
54.0339	1	C3H4N+
68.0494	2	C4H6N+
79.0541	1	C6H7+
80.0495	5	C5H6N+
81.0573	7	C5H7N+
91.0542	1	C7H7+
103.0542	7	C8H7+
105.0698	1	C8H9+
118.0652	2	C8H8N+
120.0808	999	C8H10N+
128.0621	1	C10H8+
129.0699	23	C10H9+
141.0701	1	C11H9+
142.0777	2	C11H10+
143.0857	4	C11H11+
144.081	1	C10H10N+
145.0884	1	C10H11N+
154.0775	1	C12H10+
155.0856	6	C12H11+
157.1011	2	C12H13+
165.0699	2	C13H9+
166.0777	1	C13H10+
167.0862	2	C13H11+
168.0807	2	C12H10N+
168.0934	2	C13H12+
169.1012	5	C13H13+
178.0778	71	C14H10+
180.0807	16	C13H10N+
181.0889	4	C13H11N+
181.1008	2	C14H13+
182.0965	7	C13H12N+
183.1169	5	C14H15+
192.0931	1	C15H12+
193.1013	92	C15H13+
194.0964	9	C14H12N+
195.1044	84	C14H13N+
208.1124	5	C15H14N+
209.1193	2	C15H15N+
210.1277	39	C15H16N+
211.1231	1	C14H15N2+
225.1387	5	C15H17N2+
226.1471	2	C15H18N2+
227.1543	782	C15H19N2+
