Mass spectrum: Farglitazar; LC-ESI-QFT; MS2; CE: 15; R=17500; [M-H]-
Name: Farglitazar
Name: (2S)-2-(2-benzoylanilino)-3-[4-[2-(5-methyl-2-phenyl-1,3-oxazol-4-yl)ethoxy]phenyl]propanoic acid
Formula: C34H30N2O5
Exact mass: 546.2155
SMILES: CC1=C(CCOC2=CC=C(C[C@H](NC3=C(C=CC=C3)C(=O)C3=CC=CC=C3)C(O)=O)C=C2)N=C(O1)C1=CC=CC=C1
InChI: InChI=1S/C34H30N2O5/c1-23-29(36-33(41-23)26-12-6-3-7-13-26)20-21-40-27-18-16-24(17-19-27)22-31(34(38)39)35-30-15-9-8-14-28(30)32(37)25-10-4-2-5-11-25/h2-19,31,35H,20-22H2,1H3,(H,38,39)/t31-/m0/s1
Instrument: Q Exactive Orbitrap (Thermo Scientific)
Instrument type: LC-ESI-QFT
Ms type: MS2
Ion mode: NEGATIVE
Ionization: ESI
Fragmentation mode: HCD
Collision energy: 15
Resolution: 17500
Column name: Acquity BEH C18 1.7um, 2.1x150mm (Waters)
Retention time: 20.138 min
Base peak: 112.9856
Precursor m/z: 545.2082
Precursor type: [M-H]-
Precursor intensity: 5945533.107422
m/z	relative intensity	assigned
92.0506	4	C6H6N-
93.0346	6	C6H5O-
106.0424	16	C7H6O-
107.0503	65	C7H7O-
108.0217	4	C6H4O2-
119.05	1	C8H7O-
123.0452	2	C7H7O2-
131.0376	17	C8H5NO-
138.0322	3	C7H6O3-
144.0454	6	C9H6NO-
184.0768	1	C12H10NO-
192.082	6	C14H10N-
194.0611	1	C13H8NO-
196.0767	24	C13H10NO-
204.0819	3	C15H10N-
207.069	4	C14H9NO-
208.0768	327	C14H10NO-
209.0845	2	C14H11NO-
210.0924	3	C14H12NO-
223.076	2	C15H11O2-
240.0664	3	C14H10NO3-
292.1344	56	C19H18NO2-
297.1159	1	C21H15NO-
298.124	2	C21H16NO-
315.1267	43	C21H17NO2-
316.1342	72	C21H18NO2-
320.1291	6	C20H18NO3-
423.1717	41	C27H23N2O3-
483.2078	170	C33H27N2O2-
501.2184	999	C33H29N2O3-
