Mass spectrum: Difenoconazole; LC-ESI-QFT; MS2; CE: 75; R=17500; [M+H]+
Name: Difenoconazole
Formula: C19H17Cl2N3O3
Exact mass: 405.0647
SMILES: CC1COC(CN2C=NC=N2)(O1)C1=C(Cl)C=C(OC2=CC=C(Cl)C=C2)C=C1
InChI: InChI=1S/C19H17Cl2N3O3/c1-13-9-25-19(27-13,10-24-12-22-11-23-24)17-7-6-16(8-18(17)21)26-15-4-2-14(20)3-5-15/h2-8,11-13H,9-10H2,1H3
Instrument: Q Exactive Orbitrap (Thermo Scientific)
Instrument type: LC-ESI-QFT
Ms type: MS2
Ion mode: POSITIVE
Ionization: ESI
Fragmentation mode: HCD
Collision energy: 75
Resolution: 17500
Column name: Acquity BEH C18 1.7um, 2.1x150mm (Waters)
Retention time: 18.993 min
Base peak: 79.0211
Precursor m/z: 406.072
Precursor type: [M+H]+
Precursor intensity: 6798784.375
m/z	relative intensity	assigned
50.0152	3	C4H2+
51.023	4	C4H3+
53.0022	17	C3HO+
53.0386	1	C4H5+
55.0179	5	C3H3O+
60.9839	2	C2H2Cl+
65.0385	6	C5H5+
70.0399	16	C2H4N3+
72.0808	1	C4H10N+
72.9838	1	C3H2Cl+
74.015	10	C6H2+
75.0229	130	C6H3+
77.0385	7	C6H5+
79.0178	12	C5H3O+
80.0258	2	C5H4O+
84.0555	3	C3H6N3+
84.9839	4	C4H2Cl+
86.9996	85	C4H4Cl+
88.9789	8	C3H2ClO+
89.0385	6	C7H5+
93.0334	10	C6H5O+
94.0413	9	C6H6O+
95.0492	7	C6H7O+
98.0362	2	C5H6O2+
98.9996	17	C5H4Cl+
103.0543	4	C8H7+
105.0335	3	C7H5O+
105.0447	2	C6H5N2+
110.9996	66	C6H4Cl+
111.0441	33	C6H7O2+
113.0154	1	C6H6Cl+
114.9945	9	C5H4ClO+
115.0542	10	C9H7+
116.062	5	C9H8+
117.0699	6	C9H9+
121.0394	5	C6H5N2O+
124.0073	2	C7H5Cl+
125.0152	5	C7H6Cl+
126.9947	5	C6H4ClO+
128.0025	8	C6H5ClO+
128.062	17	C10H8+
129.0101	301	C6H6ClO+
129.0698	64	C10H9+
134.9575	2	C2ClN2O3+
139.0058	491	C6H4ClN2+
141.0102	420	C7H6ClO+
145.0648	2	C10H9O+
149.0154	17	C9H6Cl+
151.0541	6	C12H7+
152.0621	561	C12H8+
153.0698	477	C12H9+
154.9896	8	C7H4ClO2+
155.9974	2	C7H5ClO2+
158.9768	1	C7H5Cl2+
162.0232	10	C10H7Cl+
163.0311	3	C10H8Cl+
164.0394	1	C10H9Cl+
165.0698	1	C13H9+
168.0564	2	C12H8O+
169.0649	29	C12H9O+
169.9763	2	C7H3ClO3+
173.0151	18	C11H6Cl+
174.0234	8	C11H7Cl+
175.0306	1	C11H8Cl+
179.0604	18	C12H7N2+
181.0648	284	C13H9O+
182.9765	26	C9H5Cl2+
186.0233	3	C12H7Cl+
187.031	144	C12H8Cl+
188.0387	999	C12H9Cl+
199.0306	2	C13H8Cl+
202.0181	96	C12H7ClO+
208.9919	42	C11H7Cl2+
215.0258	127	C13H8ClO+
216.0337	44	C13H9ClO+
223.0076	248	C12H9Cl2+
227.0259	2	C14H8ClO+
228.0336	6	C14H9ClO+
232.9915	2	C13H7Cl2+
236.9869	7	C12H7Cl2O+
251.0025	344	C13H9Cl2O+
261.9944	6	C14H8Cl2O+
263.0032	2	C14H9Cl2O+
264.9817	137	C13H7Cl2O2+
273.0321	2	C19H3N3+
