Mass spectrum: Dinitramine; LC-ESI-QFT; MS2; CE: 60; R=17500; [M-H]-
Name: Dinitramine
Formula: C11H13F3N4O4
Exact mass: 322.0889
SMILES: CCN(CC)C1=C(C=C(C(N)=C1[N+]([O-])=O)C(F)(F)F)[N+]([O-])=O
InChI: InChI=1S/C11H13F3N4O4/c1-3-16(4-2)9-7(17(19)20)5-6(11(12,13)14)8(15)10(9)18(21)22/h5H,3-4,15H2,1-2H3
Instrument: Q Exactive Orbitrap (Thermo Scientific)
Instrument type: LC-ESI-QFT
Ms type: MS2
Ion mode: NEGATIVE
Ionization: ESI
Fragmentation mode: HCD
Collision energy: 60
Resolution: 17500
Column name: Acquity BEH C18 1.7um, 2.1x150mm (Waters)
Retention time: 18.942 min
Base peak: 321.0815
Precursor m/z: 321.0816
Precursor type: [M-H]-
Precursor intensity: 27131142.04492
m/z	relative intensity	assigned
50.0036	53	C3N-
57.9935	54	CNO2-
59.0138	66	C2H3O2-
64.0067	175	C3N2-
64.0193	25	C4H2N-
65.0145	389	C3HN2-
65.9985	999	C3NO-
68.0142	17	C3H2NO-
68.9957	107	CF3-
70.994	54	C3FO-
74.0036	105	C5N-
76.0007	20	C2F2N-
76.0068	27	C4N2-
76.0194	16	C5H2N-
77.0146	25	C4HN2-
79.9905	18	C4O2-
80.0016	22	C3N2O-
81.0021	36	C4FN-
84.997	17	C3FNO-
85.9883	32	C2NO3-
87.0118	16	C6HN-
88.0005	979	C3F2N-
88.0067	524	C5N2-
89.0146	253	C5HN2-
89.9985	136	C5NO-
90.0097	103	C4N3-
90.0351	50	C6H4N-
91.0303	54	C5H3N2-
92.9957	42	C3F3-
93.0095	32	C4HN2O-
94.01	23	C5HFN-
95.0052	86	C4FN2-
100.0005	159	C4F2N-
101.0145	177	C6HN2-
102.0098	51	C5N3-
103.0174	21	C5HN3-
103.9953	175	C3F2NO-
104.0017	29	C5N2O-
106.0175	14	C5H2N2O-
106.0411	31	C5H4N3-
106.999	15	C3F3N-
107.0051	198	C5FN2-
107.0251	14	C5H3N2O-
108.0066	39	C3HF3N-
108.0256	22	C6H3FN-
108.9907	113	C3F3O-
108.997	137	C5FNO-
109.0207	46	C5H2FN2-
110.0048	18	C5HFNO-
111.0001	119	C4FN2O-
112.0005	453	C5F2N-
112.0067	47	C7N2-
113.0147	59	C7HN2-
114.0098	257	C6N3-
115.0302	183	C7H3N2-
116.0255	128	C6H2N3-
117.0094	47	C6HN2O-
117.0206	45	C5HN4-
117.0459	24	C7H5N2-
119.0049	101	C6FN2-
119.0252	93	C6H3N2O-
120.0067	60	C4HF3N-
120.0205	17	C5H2N3O-
121.0083	29	C5FN3-
121.0208	28	C6H2FN2-
122.0048	33	C6HFNO-
124.0004	44	C6F2N-
124.0078	34	C5HFN2O-
126.0036	131	C5F2N2-
126.0099	127	C7N3-
126.0153	24	CHF3N4-
127.0114	81	C5HF2N2-
127.0177	194	C7HN3-
127.0303	26	C8H3N2-
127.9954	40	C5F2NO-
128.0254	48	C7H2N3-
128.0381	16	C8H4N2-
129.0035	12	C5HF2NO-
129.0095	29	C7HN2O-
129.0333	43	C7H3N3-
129.0459	44	C8H5N2-
130.017	23	C7H2N2O-
130.0285	31	C6H2N4-
130.041	64	C7H4N3-
130.9989	291	C5F3N-
131.0045	34	C7FN2-
131.0126	21	C6HN3O-
131.0364	137	C6H3N4-
132.0068	31	C5HF3N-
132.0207	17	C6H2N3O-
132.0331	17	C7H4N2O-
133.0021	267	C4F3N2-
133.0209	79	C7H2FN2-
133.0407	52	C7H5N2O-
134.0049	38	C7HFNO-
134.0161	378	C6HFN3-
135	84	C6FN2O-
135.0365	29	C7H4FN2-
136.0016	238	C4HF3NO-
136.0072	26	C9N2-
136.0203	133	C2H2F2N4O-
137.0157	49	C6H2FN2O-
137.0281	88	C2H3F2N4O-
138.01	34	C8N3-
139.0114	257	C6HF2N2-
139.0171	15	C8HN3-
139.9954	42	C6F2NO-
140.0254	174	C8H2N3-
141.0207	35	C7HN4-
141.0334	41	C8H3N3-
141.0463	23	C9H5N2-
142.041	175	C8H4N3-
143.0251	104	C8H3N2O-
144.0066	165	C6HF3N-
144.0206	53	C7H2N3O-
145.0019	394	C5F3N2-
145.0208	35	C8H2FN2-
146.0098	171	C5HF3N2-
146.0161	118	C7HFN3-
146.036	19	C7H4N3O-
146.9938	52	C5F3NO-
147.0002	38	C7FN2O-
147.024	160	C7H2FN3-
147.0365	20	C8H4FN2-
148.0079	49	C7HFN2O-
148.0317	31	C7H3FN3-
149.0029	52	C6FN3O-
150.0236	29	C7H3FN2O-
151.0117	127	C7HF2N2-
151.0311	17	C7H4FN2O-
151.9954	28	C7F2NO-
152.0129	18	C8N4-
152.0256	42	C9H2N3-
153.027	17	C7H3F2N2-
153.0335	41	C9H3N3-
154.0113	35	C7H2F2NO-
154.0287	92	C8H2N4-
154.0413	47	C9H4N3-
154.9993	22	C7F3N-
155.0061	41	C6HF2N2O-
155.0127	80	C8HN3O-
155.0254	30	C9H3N2O-
155.0362	108	C8H3N4-
156.0203	39	C8H2N3O-
156.033	22	C9H4N2O-
157.0019	864	C6F3N2-
158.0095	51	C6HF3N2-
158.016	201	C8HFN3-
158.0226	63	C7H3F3N-
158.0359	24	C8H4N3O-
159.0111	40	C7FN4-
159.0176	357	C6H2F3N2-
159.0368	40	C9H4FN2-
160.0016	315	C6HF3NO-
160.0316	218	C8H3FN3-
160.9967	114	C5F3N2O-
161.0157	39	C8H2FN2O-
161.0393	45	C8H4FN3-
161.0719	44	C9H9N2O-
162.0111	104	C7HFN3O-
162.0176	29	C6H3F3NO-
162.0238	36	C8H3FN2O-
162.0474	18	C8H5FN3-
163.0313	65	C8H4FN2O-
164.0067	58	C7F2N3-
164.0266	22	C7H3FN3O-
165.0106	18	C7H2FN2O2-
165.0271	33	C8H3F2N2-
166.0221	49	C7H2F2N3-
167.0061	39	C7HF2N2O-
168.0204	75	C9H2N3O-
169.002	24	C7F3N2-
169.0285	27	C9H3N3O-
170.0098	96	C7HF3N2-
170.0359	156	C9H4N3O-
171.0173	69	C7H2F3N2-
171.0312	23	C8H3N4O-
172.0017	69	C7HF3NO-
173.0027	24	C8FN3O-
173.0207	61	C11H3F2-
173.0393	49	C9H4FN3-
173.0522	41	C10H6FN2-
174.0041	125	C6HF3N2O-
174.0473	280	C9H5FN3-
175.0188	134	C8H2FN3O-
175.0315	42	C9H4FN2O-
176.0268	83	C8H3FN3O-
178.022	151	C8H2F2N3-
179.0296	23	C2H6F3N2O4-
180.0015	15	C7F2N3O-
180.0215	23	C7H3FN3O2-
180.0379	20	C8H4F2N3-
180.0567	32	C11H6N3-
181.0217	77	C8H3F2N2O-
182.03	20	C8H4F2N2O-
184.0129	328	C7HF3N3-
184.032	22	C10H3FN3-
184.997	74	C7F3N2O-
185.0347	75	C8H4F3N2-
186.0184	50	C8H2N4O2-
186.0287	50	C7H3F3N3-
187.0122	90	C7H2F3N2O-
187.0494	42	C8H6F3N2-
187.9966	58	C7HF3NO2-
188.0267	138	C9H3FN3O-
188.083	816	C10H10N3O-
190.0125	54	C7H3F3NO2-
190.0424	48	C9H5FN3O-
191.0071	110	C6H2F3N2O2-
191.0298	34	C9H3F2N3-
192.038	351	C9H4F2N3-
194.0177	23	C8H2F2N3O-
194.053	19	C9H6F2N3-
195.025	34	C8H3F2N3O-
195.0373	31	C9H5F2N2O-
196.0326	24	C8H4F2N3O-
197.0186	25	C5H4F3N2O3-
198.0286	54	C8H3F3N3-
199.0361	101	C8H4F3N3-
200.008	30	C7HF3N3O-
200.0203	38	C8H3F3N2O-
200.0631	19	C11H7FN3-
201.0155	50	C7H2F3N3O-
201.0282	34	C8H4F3N2O-
201.9995	248	C7HF3N2O2-
203.0073	15	C7H2F3N2O2-
204.0025	118	C6HF3N3O2-
205.0163	93	C8H2FN4O2-
206.0372	21	C9H5FN3O2-
208.033	54	C9H4F2N3O-
210.0288	29	C9H3F3N3-
211.0241	34	C8H2F3N4-
212.028	19	C8H4F2N3O2-
212.0442	78	C9H5F3N3-
214.0235	193	C8H3F3N3O-
214.035	28	C9H5F3N2O-
215.0312	223	C8H4F3N3O-
215.0429	18	C9H6F3N2O-
216.0031	27	C7HF3N3O2-
217.0162	88	C9H2FN4O2-
217.9944	47	C7HF3N2O3-
218.0182	82	C7H3F3N3O2-
219.0331	62	C6H5F2N4O3-
221.0278	14	C9H3F2N4O-
224.0316	88	C9H3F3N4-
224.0425	13	C7H7F3N2O3-
225.0236	91	C5H4F3N4O3-
225.0391	63	C9H4F3N4-
226.0462	17	C8H9F3O4-
227.0191	25	C8H2F3N4O-
227.0317	34	C9H4F3N3O-
228.0266	43	C8H3F3N4O-
228.0392	195	C9H5F3N3O-
229.0106	37	C8H2F3N3O2-
230.0187	73	C8H3F3N3O2-
230.0545	102	C9H7F3N3O-
231.0131	84	C7H2F3N4O2-
231.0751	211	C10H10F3N2O-
231.9976	630	C7HF3N3O3-
234.0134	19	C7H3F3N3O3-
238.0802	46	C11H10F2N3O-
240.0392	17	C10H5F3N3O-
240.0765	19	C11H9F3N3-
241.0344	219	C9H4F3N4O-
245.0291	30	C8H4F3N4O2-
246.0491	21	C9H7F3N3O2-
256.0211	14	C9H3F3N4O2-
257.0295	108	C9H4F3N4O2-
258.0372	37	C9H5F3N4O2-
259.0203	25	C9H4F3N3O3-
260.0166	26	C8H3F3N4O3-
274.0817	27	C11H11F3N3O2-
275.0393	22	C9H6F3N4O3-
