Mass spectrum: Nilutamide; LC-ESI-QFT; MS2; CE: 30; R=17500; [M-H]-
Name: Nilutamide
Name: 5,5-dimethyl-3-[4-nitro-3-(trifluoromethyl)phenyl]imidazolidine-2,4-dione
Formula: C12H10F3N3O4
Exact mass: 317.0623
SMILES: CC1(C)NC(=O)N(C1=O)C1=CC(=C(C=C1)[N+]([O-])=O)C(F)(F)F
InChI: InChI=1S/C12H10F3N3O4/c1-11(2)9(19)17(10(20)16-11)6-3-4-8(18(21)22)7(5-6)12(13,14)15/h3-5H,1-2H3,(H,16,20)
Instrument: Q Exactive Orbitrap (Thermo Scientific)
Instrument type: LC-ESI-QFT
Ms type: MS2
Ion mode: NEGATIVE
Ionization: ESI
Fragmentation mode: HCD
Collision energy: 30
Resolution: 17500
Column name: Acquity BEH C18 1.7um, 2.1x150mm (Waters)
Retention time: 16.669 min
Base peak: 316.0549
Precursor m/z: 316.0551
Precursor type: [M-H]-
Precursor intensity: 73001575.05469
m/z	relative intensity	assigned
84.0455	35	C4H6NO-
110.0248	5	C5H4NO2-
173.0093	1	C7H2F3NO-
190.0121	9	C7H3F3NO2-
199.038	1	C10H6F3O-
202.0121	18	C8H3F3NO2-
204.0278	9	C8H5F3NO2-
205.0229	715	C7H4F3N2O2-
206.0067	1	C7H3F3NO3-
226.049	2	C11H7F3NO-
230.0181	1	C8H3F3N3O2-
231.002	3	C8H2F3N2O3-
232.0101	6	C8H3F3N2O3-
242.0434	1	C11H7F3NO2-
243.0507	1	C11H8F3NO2-
254.0313	1	C11H5F3N2O2-
273.0493	999	C11H8F3N2O3-
301.0315	54	C11H6F3N3O4-
316.0549	728	C12H9F3N3O4-
