Mass spectrum: Hydramethylnon; LC-ESI-QFT; MS2; CE: 75; R=17500; [M-H]-
Name: Hydramethylnon
Name: N-[[(1E,4E)-1,5-bis[4-(trifluoromethyl)phenyl]penta-1,4-dien-3-ylidene]amino]-5,5-dimethyl-4,6-dihydro-1H-pyrimidin-2-amine
Formula: C25H24F6N4
Exact mass: 494.1905
SMILES: CC1(C)CNC(NC1)=NN=C(\C=C\C1=CC=C(C=C1)C(F)(F)F)/C=C/C1=CC=C(C=C1)C(F)(F)F
InChI: InChI=1S/C25H24F6N4/c1-23(2)15-32-22(33-16-23)35-34-21(13-7-17-3-9-19(10-4-17)24(26,27)28)14-8-18-5-11-20(12-6-18)25(29,30)31/h3-14H,15-16H2,1-2H3,(H2,32,33,35)/b13-7+,14-8+
Instrument: Q Exactive Orbitrap (Thermo Scientific)
Instrument type: LC-ESI-QFT
Ms type: MS2
Ion mode: NEGATIVE
Ionization: ESI
Fragmentation mode: HCD
Collision energy: 75
Resolution: 17500
Column name: Acquity BEH C18 1.7um, 2.1x150mm (Waters)
Retention time: 17.721 min
Base peak: 317.1619
Precursor m/z: 493.1832
Precursor type: [M-H]-
Precursor intensity: 5087891.141602
m/z	relative intensity	assigned
65.0145	116	C3HN2-
67.0302	54	C3H3N2-
68.9957	28	CF3-
81.0457	13	C4H5N2-
91.0302	11	C5H3N2-
95.0615	22	C5H7N2-
105.0146	17	C7H2F-
111.024	9	C9H3-
121.0774	10	C7H9N2-
125.0209	20	C7H3F2-
126.035	13	C9H4N-
126.1037	45	C3H14F4-
144.0568	19	C5H8F4-
145.0271	999	C7H4F3-
156.0334	14	C4H4F4N2-
156.0817	22	C6H9FN4-
159.043	14	C8H6F3-
163.0365	143	C10H5F2-
164.0317	160	C9H4F2N-
169.0271	57	C9H4F3-
170.0413	15	C11H5FN-
176.088	89	C3H12F6N-
177.0458	63	C12H5N2-
183.0428	65	C10H6F3-
184.0381	38	C9H5F3N-
185.0593	70	C10H8F3-
189.017	69	C14H2F-
197.0522	91	C12H6FN2-
208.0379	19	C11H5F3N-
210.0536	42	C11H7F3N-
211.0493	32	C10H6F3N2-
215.0625	13	C15H7N2-
217.0582	159	C12H7F2N2-
220.0693	30	C8H10F6-
235.0488	89	C12H6F3N2-
237.0646	852	C12H8F3N2-
238.0598	147	C11H7F3N3-
293.0591	30	C19H8F3-
295.074	34	C19H10F3-
300.0775	15	C21H10F2-
381.0827	22	C19H11F6N2-
