Mass spectrum: Deisopropylatrazine; LC-ESI-QFT; MS2; CE: 90; R=17500; [M+H]+
Name: Deisopropylatrazine
Name: 6-chloro-2-N-ethyl-1,3,5-triazine-2,4-diamine
Formula: C5H8ClN5
Exact mass: 173.0468
SMILES: CCNC1=NC(N)=NC(Cl)=N1
InChI: InChI=1S/C5H8ClN5/c1-2-8-5-10-3(6)9-4(7)11-5/h2H2,1H3,(H3,7,8,9,10,11)
Instrument: Q Exactive Orbitrap (Thermo Scientific)
Instrument type: LC-ESI-QFT
Ms type: MS2
Ion mode: POSITIVE
Ionization: ESI
Fragmentation mode: HCD
Collision energy: 90
Resolution: 17500
Column name: Acquity BEH C18 1.7um, 2.1x150mm (Waters)
Retention time: 11.807 min
Base peak: 79.0211
Precursor m/z: 174.0541
Precursor type: [M+H]+
Precursor intensity: 7042781
m/z	relative intensity	assigned
61.9792	206	CHClN+
68.0243	999	C2H2N3+
71.0603	177	C3H7N2+
79.0058	296	CH4ClN2+
90.0105	8	C3H5ClN+
96.0557	149	C4H6N3+
104.001	576	C2H3ClN3+
110.0462	25	C3H4N5+
132.0324	54	C4H7ClN3+
138.0774	11	C5H8N5+
146.0229	29	C3H5ClN5+
174.0542	9	C5H9ClN5+
