Mass spectrum: Scopolamine; LC-ESI-QFT; MS2; CE: 45; R=17500; [M+H]+
Name: Scopolamine
Formula: C17H21NO4
Exact mass: 303.1471
SMILES: CN1[C@H]2C[C@H](OC(=O)[C@H](CO)c3ccccc3)C[C@@H]1[C@H]1O[C@@H]21
InChI: InChI=1S/C17H21NO4/c1-18-13-7-11(8-14(18)16-15(13)22-16)21-17(20)12(9-19)10-5-3-2-4-6-10/h2-6,11-16,19H,7-9H2,1H3/t11-,12-,13-,14+,15-,16+/m1/s1
Instrument: Q Exactive Orbitrap (Thermo Scientific)
Instrument type: LC-ESI-QFT
Ms type: MS2
Ion mode: POSITIVE
Ionization: ESI
Fragmentation mode: HCD
Collision energy: 45
Resolution: 17500
Column name: Acquity BEH C18 1.7um, 2.1x150mm (Waters)
Retention time: 9.993 min
Base peak: 79.0212
Precursor m/z: 304.1543
Precursor type: [M+H]+
Precursor intensity: 18464698.75
m/z	relative intensity	assigned
53.0386	1	C4H5+
55.0543	1	C4H7+
56.0495	1	C3H6N+
57.0335	2	C3H5O+
58.0287	1	C2H4NO+
60.0444	1	C2H6NO+
67.0542	8	C5H7+
68.0494	4	C4H6N+
70.0651	21	C4H8N+
72.0443	5	C3H6NO+
74.0599	13	C3H8NO+
77.0386	1	C6H5+
79.0542	78	C6H7+
80.0494	1	C5H6N+
81.0335	20	C5H5O+
81.0699	14	C6H9+
82.0651	41	C5H8N+
83.0491	27	C5H7O+
84.0808	32	C5H10N+
91.0542	11	C7H7+
93.0699	17	C7H9+
94.0651	23	C6H8N+
95.0491	5	C6H7O+
95.073	6	C6H9N+
96.0444	20	C5H6NO+
96.0808	17	C6H10N+
97.0522	22	C5H7NO+
97.0648	6	C6H9O+
98.06	163	C5H8NO+
103.0542	195	C8H7+
107.0491	11	C7H7O+
108.0807	8	C7H10N+
109.0647	1	C7H9O+
109.0887	3	C7H11N+
110.0601	28	C6H8NO+
110.0964	179	C7H12N+
114.0549	2	C5H8NO2+
115.0627	2	C5H9NO2+
120.0808	21	C8H10N+
121.0648	395	C8H9O+
123.0677	2	C7H9NO+
138.0913	999	C8H12NO+
139.0751	1	C8H11O2+
139.0994	3	C8H13NO+
153.0909	1	C9H13O2+
154.086	2	C8H12NO2+
156.1019	319	C8H14NO2+
228.1384	1	C15H18NO+
274.1438	2	C16H20NO3+
304.1543	89	C17H22NO4+
