Mass spectrum: Flumetsulam; LC-ESI-QFT; MS2; CE: 60; R=17500; [M+H]+
Name: Flumetsulam
Name: N-(2,6-difluorophenyl)-5-methyl-[1,2,4]triazolo[1,5-a]pyrimidine-2-sulfonamide
Formula: C12H9F2N5O2S
Exact mass: 325.0445
SMILES: CC1=NC2=NC(=NN2C=C1)S(=O)(=O)NC1=C(F)C=CC=C1F
InChI: InChI=1S/C12H9F2N5O2S/c1-7-5-6-19-11(15-7)16-12(17-19)22(20,21)18-10-8(13)3-2-4-9(10)14/h2-6,18H,1H3
Instrument: Q Exactive Orbitrap (Thermo Scientific)
Instrument type: LC-ESI-QFT
Ms type: MS2
Ion mode: POSITIVE
Ionization: ESI
Fragmentation mode: HCD
Collision energy: 60
Resolution: 17500
Column name: Acquity BEH C18 1.7um, 2.1x150mm (Waters)
Retention time: 12.583 min
Base peak: 79.0211
Precursor m/z: 326.0518
Precursor type: [M+H]+
Precursor intensity: 9424058.625
m/z	relative intensity	assigned
57.0135	2	C3H2F+
65.026	1	C4H3N+
66.0338	5	C4H4N+
67.029	1	C3H3N2+
68.0494	4	C4H6N+
79.0291	1	C4H3N2+
80.0369	1	C4H4N2+
81.0447	1	C4H5N2+
82.0214	1	C5H3F+
82.0525	5	C4H6N2+
84.0244	9	C4H3FN+
89.026	1	C6H3N+
92.0369	1	C5H4N2+
93.0447	6	C5H5N2+
94.04	1	C4H4N3+
97.0397	8	C4H5N2O+
101.0197	9	C5H3F2+
102.0275	3	C5H4F2+
104.0306	1	C4H4F2N+
106.04	10	C5H4N3+
107.0478	14	C5H5N3+
108.0244	7	C6H3FN+
108.0318	1	C5H4N2O+
109.0323	14	C6H4FN+
109.0635	4	C5H7N3+
111.0553	22	C5H7N2O+
112.0194	1	C5H3FNO+
114.999	1	C5HF2O+
124.0507	3	C5H6N3O+
126.0351	13	C6H5FNO+
128.0308	39	C6H4F2N+
129.0384	999	C6H5F2N+
132.0256	1	C5H4F2NO+
134.0587	45	C6H6N4+
135.0427	12	C6H5N3O+
135.0665	3	C6H7N4+
143.0416	3	C6H5F2N2+
144.0256	38	C6H4F2NO+
145.0332	2	C6H5F2NO+
146.0413	5	C6H6F2NO+
153.0229	7	C5H5N4S+
154.0335	1	C7H4F2N2+
155.0151	2	C5H5N3OS+
165.0462	1	C8H6FN2O+
170.0522	1	C7H6F2N3+
173.0512	1	C10H6FN2+
182.0255	2	C6H6N4OS+
197.0129	1	C6H5N4O2S+
200.062	2	C11H7FN3+
201.0697	5	C11H8FN3+
215.0727	2	C11H8FN4+
220.068	1	C11H8F2N3+
242.0833	1	C12H9FN5+
262.0896	2	C12H10F2N5+
