Mass spectrum: Mifepristone; LC-ESI-QFT; MS2; CE: 45; R=17500; [M+H]+
Name: Mifepristone
Name: (8S,11R,13S,14S,17S)-11-[4-(dimethylamino)phenyl]-17-hydroxy-13-methyl-17-prop-1-ynyl-1,2,6,7,8,11,12,14,15,16-decahydrocyclopenta[a]phenanthren-3-one
Formula: C29H35NO2
Exact mass: 429.2668
SMILES: CC#C[C@]1(O)CC[C@H]2[C@@H]3CCC4=CC(=O)CCC4=C3[C@H](C[C@]12C)C1=CC=C(C=C1)N(C)C
InChI: InChI=1S/C29H35NO2/c1-5-15-29(32)16-14-26-24-12-8-20-17-22(31)11-13-23(20)27(24)25(18-28(26,29)2)19-6-9-21(10-7-19)30(3)4/h6-7,9-10,17,24-26,32H,8,11-14,16,18H2,1-4H3/t24-,25+,26-,28-,29-/m0/s1
Instrument: Q Exactive Orbitrap (Thermo Scientific)
Instrument type: LC-ESI-QFT
Ms type: MS2
Ion mode: POSITIVE
Ionization: ESI
Fragmentation mode: HCD
Collision energy: 45
Resolution: 17500
Column name: Acquity BEH C18 1.7um, 2.1x150mm (Waters)
Retention time: 16.426 min
Base peak: 79.0211
Precursor m/z: 430.2741
Precursor type: [M+H]+
Precursor intensity: 7107166.9375
m/z	relative intensity	assigned
53.0021	2	C3HO+
53.0386	4	C4H5+
55.0179	20	C3H3O+
55.0543	14	C4H7+
57.0334	3	C3H5O+
65.0386	3	C5H5+
67.0177	3	C4H3O+
67.0542	31	C5H7+
69.0335	12	C4H5O+
69.0698	14	C5H9+
70.0651	3	C4H8N+
71.0492	4	C4H7O+
79.0542	48	C6H7+
81.0699	42	C6H9+
83.0491	33	C5H7O+
84.0808	4	C5H10N+
85.0648	4	C5H9O+
91.0543	93	C7H7+
93.0699	93	C7H9+
95.0492	24	C6H7O+
95.0856	35	C7H11+
97.0649	71	C6H9O+
103.0543	6	C8H7+
105.0699	101	C8H9+
107.0492	44	C7H7O+
107.073	32	C7H9N+
107.0855	56	C8H11+
109.0648	78	C7H9O+
109.1011	10	C8H13+
111.0803	6	C7H11O+
115.0543	11	C9H7+
116.0621	4	C9H8+
117.0699	70	C9H9+
118.0651	9	C8H8N+
119.0856	127	C9H11+
120.0808	63	C8H10N+
121.0647	29	C8H9O+
121.0886	167	C8H11N+
121.1012	31	C9H13+
122.0964	196	C8H12N+
123.0803	28	C8H11O+
125.0962	13	C8H13O+
128.0619	20	C10H8+
129.0698	85	C10H9+
130.0775	7	C10H10+
131.049	8	C9H7O+
131.0732	6	C9H9N+
131.0856	105	C10H11+
132.0807	26	C9H10N+
132.0932	2	C10H12+
133.0648	107	C9H9O+
133.0886	25	C9H11N+
133.1012	59	C10H13+
134.0964	999	C9H12N+
135.0804	187	C9H11O+
136.1123	5	C9H14N+
137.0961	19	C9H13O+
141.0699	38	C11H9+
142.0778	14	C11H10+
143.0855	78	C11H11+
144.0568	4	C10H8O+
144.0808	20	C10H10N+
145.0649	44	C10H9O+
145.0887	19	C10H11N+
145.1012	81	C11H13+
146.0726	9	C10H10O+
146.0964	48	C10H12N+
147.0804	74	C10H11O+
147.1043	41	C10H13N+
147.1167	8	C11H15+
148.0757	70	C9H10NO+
148.112	227	C10H14N+
149.0592	2	C9H9O2+
149.0961	53	C10H13O+
150.0915	7	C9H12NO+
151.0752	6	C9H11O2+
153.0698	11	C12H9+
154.0777	9	C12H10+
155.0855	73	C12H11+
156.0936	9	C12H12+
157.0648	38	C11H9O+
157.0894	12	C11H11N+
157.1012	44	C12H13+
158.0965	100	C11H12N+
159.0805	173	C11H11O+
159.1043	52	C11H13N+
159.1163	17	C12H15+
160.0883	16	C11H12O+
160.1121	145	C11H14N+
161.0961	138	C11H13O+
161.1202	18	C11H15N+
162.1277	62	C11H16N+
163.1119	10	C11H15O+
165.0695	15	C13H9+
166.0779	11	C13H10+
167.0856	44	C13H11+
168.0934	7	C13H12+
169.1011	54	C13H13+
170.0963	6	C12H12N+
170.1092	3	C13H14+
171.0804	26	C12H11O+
171.1043	58	C12H13N+
171.1167	29	C13H15+
172.1121	239	C12H14N+
173.0962	124	C12H13O+
173.12	64	C12H15N+
174.091	5	C11H12NO+
174.104	49	C12H14O+
174.1278	61	C12H16N+
175.1117	16	C12H15O+
175.1354	30	C12H17N+
176.1436	5	C12H18N+
178.0777	10	C14H10+
179.0855	38	C14H11+
180.0934	9	C14H12+
181.0654	5	C13H9O+
181.1012	59	C14H13+
182.0729	5	C13H10O+
182.1093	6	C14H14+
183.0806	16	C13H11O+
183.1045	10	C13H13N+
183.1169	37	C14H15+
184.0885	8	C13H12O+
184.1122	46	C13H14N+
185.0961	36	C13H13O+
185.1201	46	C13H15N+
185.1316	13	C14H17+
186.1038	5	C13H14O+
186.1279	85	C13H16N+
187.1118	40	C13H15O+
187.1358	21	C13H17N+
188.1073	4	C12H14NO+
188.1435	44	C13H18N+
189.1273	3	C13H17O+
190.1226	3	C12H16NO+
191.0854	13	C15H11+
192.0935	19	C15H12+
193.1011	40	C15H13+
194.073	3	C14H10O+
194.097	7	C14H12N+
194.1089	12	C15H14+
195.0805	11	C14H11O+
195.1045	5	C14H13N+
195.117	33	C15H15+
196.0881	10	C14H12O+
196.1121	8	C14H14N+
196.1237	3	C15H16+
197.096	40	C14H13O+
197.1202	14	C14H15N+
197.1319	15	C15H17+
198.1048	13	C14H14O+
198.1278	53	C14H16N+
199.112	41	C14H15O+
199.1357	43	C14H17N+
200.1071	3	C13H14NO+
200.1197	4	C14H16O+
200.1435	30	C14H18N+
201.1272	19	C14H17O+
202.1231	5	C13H16NO+
203.0858	4	C16H11+
204.0932	7	C16H12+
205.1016	18	C16H13+
206.109	9	C16H14+
207.0811	4	C15H11O+
207.1042	9	C15H13N+
207.117	37	C16H15+
208.0882	8	C15H12O+
208.1123	21	C15H14N+
208.1248	10	C16H16+
209.0964	35	C15H13O+
209.12	19	C15H15N+
209.1326	30	C16H17+
210.104	10	C15H14O+
210.1278	45	C15H16N+
211.1117	74	C15H15O+
211.1358	25	C15H17N+
212.1192	7	C15H16O+
212.1436	38	C15H18N+
213.1274	23	C15H17O+
213.151	28	C15H19N+
214.1225	4	C14H16NO+
214.1349	2	C15H18O+
214.1591	21	C15H20N+
215.0862	2	C17H11+
215.1067	11	C14H15O2+
215.1424	3	C15H19O+
216.0932	4	C17H12+
217.1015	6	C17H13+
218.1091	11	C17H14+
219.117	17	C17H15+
220.0886	4	C16H12O+
220.125	8	C17H16+
221.096	11	C16H13O+
221.1201	21	C16H15N+
221.1327	21	C17H17+
222.1039	10	C16H14O+
222.1278	56	C16H16N+
223.1117	42	C16H15O+
223.1356	53	C16H17N+
223.1482	18	C17H19+
224.1435	65	C16H18N+
225.1153	5	C15H15NO+
225.1272	42	C16H17O+
225.1511	21	C16H19N+
226.1226	6	C15H16NO+
226.159	19	C16H20N+
227.1304	10	C15H17NO+
227.1432	34	C16H19O+
228.1382	11	C15H18NO+
228.1742	3	C16H22N+
229.1011	3	C18H13+
229.122	5	C15H17O2+
230.1089	3	C18H14+
231.1167	5	C18H15+
232.124	5	C18H16+
233.0957	6	C17H13O+
233.1203	4	C17H15N+
233.1322	13	C18H17+
234.1036	4	C17H14O+
234.1278	12	C17H16N+
234.1398	5	C18H18+
235.1118	16	C17H15O+
235.1354	22	C17H17N+
235.1484	9	C18H19+
236.1198	13	C17H16O+
236.1434	229	C17H18N+
237.1151	5	C16H15NO+
237.1276	26	C17H17O+
237.1512	36	C17H19N+
237.1636	5	C18H21+
238.1226	9	C16H16NO+
238.1589	68	C17H20N+
239.1067	7	C16H15O2+
239.1307	6	C16H17NO+
239.1435	9	C17H19O+
239.1664	11	C17H21N+
240.1383	22	C16H18NO+
240.1748	26	C17H22N+
241.1231	4	C16H17O2+
241.1462	6	C16H19NO+
241.159	5	C17H21O+
242.1542	17	C16H20NO+
243.1171	5	C19H15+
243.1382	6	C16H19O2+
243.1623	3	C16H21NO+
244.1247	6	C19H16+
244.173	2	C16H22NO+
245.1327	3	C19H17+
246.1276	4	C18H16N+
247.1126	6	C18H15O+
247.1353	9	C18H17N+
247.1481	4	C19H19+
248.12	6	C18H16O+
248.1435	32	C18H18N+
249.1287	13	C18H17O+
249.1512	36	C18H19N+
249.1642	7	C19H21+
250.1219	5	C17H16NO+
250.1589	46	C18H20N+
251.1298	3	C17H17NO+
251.1432	34	C18H19O+
251.1661	18	C18H21N+
252.1386	19	C17H18NO+
252.1516	4	C18H20O+
252.1741	12	C18H22N+
253.1223	2	C17H17O2+
253.146	5	C17H19NO+
253.159	7	C18H21O+
254.1309	4	C17H18O2+
254.1536	13	C17H20NO+
254.1889	3	C18H24N+
256.1701	11	C17H22NO+
258.1277	7	C19H16N+
259.1353	8	C19H17N+
260.1436	22	C19H18N+
261.1283	3	C19H17O+
261.1508	18	C19H19N+
262.1356	6	C19H18O+
262.1592	38	C19H20N+
263.1433	7	C19H19O+
263.1659	19	C19H21N+
263.1802	3	C20H23+
264.1385	9	C18H18NO+
264.1748	29	C19H22N+
265.1458	16	C18H19NO+
265.1593	9	C19H21O+
265.1822	4	C19H23N+
266.1539	42	C18H20NO+
266.1684	4	C19H22O+
266.1905	11	C19H24N+
267.1618	17	C18H21NO+
267.1756	5	C19H23O+
268.17	10	C18H22NO+
269.1538	76	C18H21O2+
271.1354	3	C20H17N+
272.1431	11	C20H18N+
273.1507	26	C20H19N+
273.1644	2	C21H21+
274.1592	65	C20H20N+
275.1671	13	C20H21N+
276.1752	23	C20H22N+
277.1463	9	C19H19NO+
277.1828	4	C20H23N+
278.1538	14	C19H20NO+
278.1898	13	C20H24N+
279.1617	18	C19H21NO+
280.1699	70	C19H22NO+
281.1764	22	C19H23NO+
282.185	11	C19H24NO+
283.169	4	C19H23O2+
285.1514	4	C21H19N+
286.1596	18	C21H20N+
287.1669	15	C21H21N+
288.1747	226	C21H22N+
289.1826	7	C21H23N+
290.1542	8	C20H20NO+
290.1912	12	C21H24N+
291.1616	8	C20H21NO+
291.1766	4	C21H23O+
292.17	8	C20H22NO+
294.1849	8	C20H24NO+
296.2013	7	C20H26NO+
298.1585	4	C22H20N+
299.1668	12	C22H21N+
300.1752	11	C22H22N+
301.1828	5	C22H23N+
302.1907	14	C22H24N+
304.1697	8	C21H22NO+
304.2046	3	C22H26N+
305.1772	8	C21H23NO+
306.1852	50	C21H24NO+
307.1931	6	C21H25NO+
308.2019	7	C21H26NO+
309.1849	4	C21H25O2+
311.1666	6	C23H21N+
312.1736	5	C23H22N+
313.1821	7	C23H23N+
314.1566	3	C22H20NO+
314.1905	54	C23H24N+
315.1984	5	C23H25N+
316.1701	12	C22H22NO+
317.1772	27	C22H23NO+
318.1858	14	C22H24NO+
319.1931	18	C22H25NO+
320.201	8	C22H26NO+
324.1742	6	C24H22N+
326.1907	8	C24H24N+
328.1692	5	C23H22NO+
328.2064	3	C24H26N+
329.178	3	C23H23NO+
329.2133	5	C24H27N+
330.1862	17	C23H24NO+
331.1932	13	C23H25NO+
332.2011	121	C23H26NO+
333.2093	16	C23H27NO+
339.1981	11	C25H25N+
340.2058	8	C25H26N+
342.1856	4	C24H24NO+
344.2017	8	C24H26NO+
345.209	7	C24H27NO+
346.217	26	C24H28NO+
348.2324	18	C24H30NO+
354.222	15	C26H28N+
357.2086	7	C25H27NO+
358.2167	33	C25H28NO+
359.2238	17	C25H29NO+
360.2321	18	C25H30NO+
372.2324	171	C26H30NO+
390.244	2	C26H32NO2+
397.2397	7	C28H31NO+
400.2282	5	C27H30NO2+
412.2628	5	C29H34NO+
415.251	142	C28H33NO2+
430.2739	28	C29H36NO2+
