Mass spectrum: CP-457677; LC-ESI-QFT; MS2; CE: 30; R=17500; [M+H]+
Name: CP-457677
Name: 3-Pyridinecarboxamide, 2-(4-fluorophenoxy)-N-((4-(1-hydroxy-1-methylethyl)phenyl)methyl)-
Name: 2-(4-fluorophenoxy)-N-[[4-(2-hydroxypropan-2-yl)phenyl]methyl]pyridine-3-carboxamide
Formula: C22H21FN2O3
Exact mass: 380.1536
SMILES: CC(C)(O)C1=CC=C(CNC(=O)C2=CC=CN=C2OC2=CC=C(F)C=C2)C=C1
InChI: InChI=1S/C22H21FN2O3/c1-22(2,27)16-7-5-15(6-8-16)14-25-20(26)19-4-3-13-24-21(19)28-18-11-9-17(23)10-12-18/h3-13,27H,14H2,1-2H3,(H,25,26)
Instrument: Q Exactive Orbitrap (Thermo Scientific)
Instrument type: LC-ESI-QFT
Ms type: MS2
Ion mode: POSITIVE
Ionization: ESI
Fragmentation mode: HCD
Collision energy: 30
Resolution: 17500
Column name: Acquity BEH C18 1.7um, 2.1x150mm (Waters)
Retention time: 16.667 min
Base peak: 79.0212
Precursor m/z: 381.1609
Precursor type: [M+H]+
Precursor intensity: 7897274.875
m/z	relative intensity	assigned
57.0335	21	C3H5O+
59.0491	3	C3H7O+
91.0542	16	C7H7+
105.0699	2	C8H9+
107.0855	14	C8H11+
115.0542	1	C9H7+
116.062	2	C9H8+
119.0856	9	C9H11+
121.1013	2	C9H13+
129.0699	2	C10H9+
131.0855	999	C10H11+
134.0725	1	C9H10O+
147.1046	1	C10H13N+
149.0961	310	C10H13O+
216.0456	263	C12H7FNO2+
245.072	6	C13H10FN2O2+
323.1192	2	C19H16FN2O2+
363.1504	252	C22H20FN2O2+
