Mass spectrum: CP-401387; LC-ESI-QFT; MS2; CE: 90; R=17500; [M+H]+
Name: CP-401387
Name: 4-cyano-4-(1-cyclohexyl-3-ethylindazol-6-yl)cyclohexane-1-carboxylic acid
Formula: C23H29N3O2
Exact mass: 379.2260
SMILES: CCC1=NN(C2CCCCC2)C2=C1C=CC(=C2)[C@]1(CC[C@@H](CC1)C(O)=O)C#N
InChI: InChI=1S/C23H29N3O2/c1-2-20-19-9-8-17(23(15-24)12-10-16(11-13-23)22(27)28)14-21(19)26(25-20)18-6-4-3-5-7-18/h8-9,14,16,18H,2-7,10-13H2,1H3,(H,27,28)/t16-,23-
Instrument: Q Exactive Orbitrap (Thermo Scientific)
Instrument type: LC-ESI-QFT
Ms type: MS2
Ion mode: POSITIVE
Ionization: ESI
Fragmentation mode: HCD
Collision energy: 90
Resolution: 17500
Column name: Acquity BEH C18 1.7um, 2.1x150mm (Waters)
Retention time: 19.050 min
Base peak: 79.0211
Precursor m/z: 380.2333
Precursor type: [M+H]+
Precursor intensity: 5628024.75
m/z	relative intensity	assigned
53.0022	13	C3HO+
53.0386	62	C4H5+
55.0543	555	C4H7+
56.0495	6	C3H6N+
57.0699	5	C4H9+
58.0652	19	C3H8N+
65.0386	68	C5H5+
67.0541	26	C5H7+
69.0699	23	C5H9+
73.0284	4	C3H5O2+
74.0967	2	C4H12N+
77.0384	15	C6H5+
79.0542	790	C6H7+
80.0494	6	C5H6N+
81.0699	96	C6H9+
82.0653	3	C5H8N+
83.049	12	C5H7O+
83.0855	25	C6H11+
91.0542	19	C7H7+
92.0495	228	C6H6N+
95.0492	97	C6H7O+
97.0649	53	C6H9O+
103.0542	22	C8H7+
104.0495	74	C7H6N+
105.0448	53	C6H5N2+
106.0652	49	C7H8N+
107.0493	10	C7H7O+
110.0599	13	C6H8NO+
115.0542	51	C9H7+
117.0575	9	C8H7N+
117.07	7	C9H9+
118.0526	117	C7H6N2+
119.0604	486	C7H7N2+
120.0805	3	C8H10N+
124.0758	2	C7H10NO+
125.0599	5	C7H9O2+
128.0497	14	C9H6N+
128.0621	48	C10H8+
129.0699	12	C10H9+
130.0651	41	C9H8N+
131.0604	999	C8H7N2+
132.0682	100	C8H8N2+
134.0601	7	C8H8NO+
142.0652	35	C10H8N+
143.0606	19	C9H7N2+
143.0856	30	C11H11+
144.0683	114	C9H8N2+
144.0808	7	C10H10N+
145.0761	255	C9H9N2+
146.0839	94	C9H10N2+
147.0917	205	C9H11N2+
152.0624	13	C12H8+
153.07	23	C12H9+
154.0651	23	C11H8N+
155.0604	121	C10H7N2+
155.0722	23	C11H9N+
156.0556	22	C9H6N3+
156.0682	24	C10H8N2+
157.0761	32	C10H9N2+
158.0838	18	C10H10N2+
159.0917	603	C10H11N2+
160.0994	7	C10H12N2+
163.0868	8	C9H11N2O+
167.0732	14	C12H9N+
168.0682	41	C11H8N2+
168.0806	23	C12H10N+
169.0635	11	C10H7N3+
169.0761	81	C11H9N2+
169.0889	7	C12H11N+
170.0716	14	C10H8N3+
170.0841	5	C11H10N2+
170.0964	44	C12H12N+
171.0916	38	C11H11N2+
173.1075	6	C11H13N2+
178.0736	4	C9H10N2O2+
180.0812	16	C13H10N+
181.0636	5	C11H7N3+
181.076	34	C12H9N2+
182.0715	48	C11H8N3+
182.0841	41	C12H10N2+
182.0965	3	C13H12N+
183.0793	8	C11H9N3+
183.0918	39	C12H11N2+
184.0875	9	C11H10N3+
184.0997	25	C12H12N2+
185.0946	12	C11H11N3+
185.1077	24	C12H13N2+
192.069	3	C13H8N2+
192.0811	13	C14H10N+
193.0766	8	C13H9N2+
193.0891	10	C14H11N+
194.0715	6	C12H8N3+
195.0919	33	C13H11N2+
196.0876	11	C12H10N3+
196.0996	19	C13H12N2+
197.1074	51	C13H13N2+
198.1029	8	C12H12N3+
199.1232	11	C13H15N2+
206.085	3	C14H10N2+
206.0968	10	C15H12N+
207.0921	4	C14H11N2+
207.1038	6	C15H13N+
208.1121	19	C15H14N+
209.1076	19	C14H13N2+
210.1028	86	C13H12N3+
210.1152	18	C14H14N2+
211.1107	3	C13H13N3+
222.1023	3	C14H12N3+
224.1182	3	C14H14N3+
225.1384	23	C15H17N2+
