Mass spectrum: Benzenesulfonic acid; LC-ESI-QFT; MS2; CE: 60; R=17500; [M-H]-
Name: Benzenesulfonic acid
Formula: C6H6O3S
Exact mass: 158.0038
SMILES: OS(=O)(=O)C1=CC=CC=C1
InChI: InChI=1S/C6H6O3S/c7-10(8,9)6-4-2-1-3-5-6/h1-5H,(H,7,8,9)
Instrument: Q Exactive Orbitrap (Thermo Scientific)
Instrument type: LC-ESI-QFT
Ms type: MS2
Ion mode: NEGATIVE
Ionization: ESI
Fragmentation mode: HCD
Collision energy: 60
Resolution: 17500
Column name: Acquity BEH C18 1.7um, 2.1x150mm (Waters)
Retention time: 5.387 min
Base peak: 156.9965
Precursor m/z: 156.9965
Precursor type: [M-H]-
Precursor intensity: 8501749.633545
m/z	relative intensity	assigned
65.0397	3	C5H5-
79.9574	999	O3S-
80.9651	5	HO3S-
93.0346	755	C6H5O-
156.9964	883	C6H5O3S-
