Mass spectrum: Atrazine; LC-ESI-QFT; MS2; CE: 60; R=17500; [M+H]+
Name: Atrazine
Name: 6-chloro-4-N-ethyl-2-N-propan-2-yl-1,3,5-triazine-2,4-diamine
Formula: C8H14ClN5
Exact mass: 215.0938
SMILES: CCNC1=NC(NC(C)C)=NC(Cl)=N1
InChI: InChI=1S/C8H14ClN5/c1-4-10-7-12-6(9)13-8(14-7)11-5(2)3/h5H,4H2,1-3H3,(H2,10,11,12,13,14)
Instrument: Q Exactive Orbitrap (Thermo Scientific)
Instrument type: LC-ESI-QFT
Ms type: MS2
Ion mode: POSITIVE
Ionization: ESI
Fragmentation mode: HCD
Collision energy: 60
Resolution: 17500
Column name: Acquity BEH C18 1.7um, 2.1x150mm (Waters)
Retention time: 16.364 min
Base peak: 79.0211
Precursor m/z: 216.101
Precursor type: [M+H]+
Precursor intensity: 8998453.3125
m/z	relative intensity	assigned
53.0022	5	ClH4N+
61.9792	14	CHClN+
68.0243	271	C2H2N3+
71.0603	161	C3H7N2+
74.0964	1	C4H12N+
79.0058	500	CH4ClN2+
85.0761	10	C4H9N2+
90.0105	22	C3H5ClN+
96.0556	703	C4H6N3+
104.001	522	C2H3ClN3+
107.037	3	C3H8ClN2+
110.0462	56	C3H4N5+
121.0526	1	C4H10ClN2+
132.0323	409	C4H7ClN3+
138.0775	112	C5H8N5+
138.1027	11	C7H12N3+
146.0228	312	C3H5ClN5+
172.0387	2	C5H7ClN5+
174.0542	999	C5H9ClN5+
180.1244	5	C8H14N5+
188.0701	3	C6H11ClN5+
216.1011	67	C8H15ClN5+
