Mass spectrum: Metamitron; LC-ESI-QFT; MS2; CE: 30; R=17500; [M+H]+
Name: Metamitron
Name: 4-amino-3-methyl-6-phenyl-1,2,4-triazin-5-one
Formula: C10H10N4O
Exact mass: 202.0855
SMILES: CC1=NN=C(C(=O)N1N)C1=CC=CC=C1
InChI: InChI=1S/C10H10N4O/c1-7-12-13-9(10(15)14(7)11)8-5-3-2-4-6-8/h2-6H,11H2,1H3
Instrument: Q Exactive Orbitrap (Thermo Scientific)
Instrument type: LC-ESI-QFT
Ms type: MS2
Ion mode: POSITIVE
Ionization: ESI
Fragmentation mode: HCD
Collision energy: 30
Resolution: 17500
Column name: Acquity BEH C18 1.7um, 2.1x150mm (Waters)
Retention time: 12.813 min
Base peak: 79.0212
Precursor m/z: 203.0927
Precursor type: [M+H]+
Precursor intensity: 12432340.6875
m/z	relative intensity	assigned
57.0447	12	C2H5N2+
72.0444	11	C3H6NO+
72.0556	5	C2H6N3+
77.0386	1	C6H5+
79.0542	11	C6H7+
83.0239	8	C3H3N2O+
89.0385	5	C7H5+
95.0492	2	C6H7O+
100.0506	2	C3H6N3O+
103.0541	1	C8H7+
104.0494	39	C7H6N+
106.0651	32	C7H8N+
116.0494	1	C8H6N+
117.0335	3	C8H5O+
117.0446	1	C7H5N2+
117.0573	1	C8H7N+
118.0651	1	C8H8N+
119.0604	3	C7H7N2+
120.0807	1	C8H10N+
130.0652	8	C9H8N+
132.0681	1	C8H8N2+
134.0713	2	C7H8N3+
145.0396	51	C8H5N2O+
158.0601	2	C10H8NO+
158.0713	3	C9H8N3+
159.0791	1	C9H9N3+
174.0788	56	C10H10N2O+
175.0978	161	C9H11N4+
186.066	3	C10H8N3O+
187.0739	1	C10H9N3O+
203.0927	999	C10H11N4O+
