Mass spectrum: Metribuzin; LC-ESI-QFT; MS2; CE: 45; R=17500; [M+H]+
Name: Metribuzin
Name: 4-amino-6-tert-butyl-3-methylsulfanyl-1,2,4-triazin-5-one
Formula: C8H14N4OS
Exact mass: 214.0888
SMILES: CSC1=NN=C(C(=O)N1N)C(C)(C)C
InChI: InChI=1S/C8H14N4OS/c1-8(2,3)5-6(13)12(9)7(14-4)11-10-5/h9H2,1-4H3
Instrument: Q Exactive Orbitrap (Thermo Scientific)
Instrument type: LC-ESI-QFT
Ms type: MS2
Ion mode: POSITIVE
Ionization: ESI
Fragmentation mode: HCD
Collision energy: 45
Resolution: 17500
Column name: Acquity BEH C18 1.7um, 2.1x150mm (Waters)
Retention time: 15.295 min
Base peak: 79.0211
Precursor m/z: 215.0961
Precursor type: [M+H]+
Precursor intensity: 13099195.90625
m/z	relative intensity	assigned
53.0023	1	C3HO+
55.0542	3	C4H7+
56.0494	2	C3H6N+
57.0699	121	C4H9+
58.04	141	CH4N3+
58.995	2	C2H3S+
59.9665	1	COS+
59.9902	14	CH2NS+
60.9981	3	CH3NS+
61.0107	14	C2H5S+
62.0059	71	CH4NS+
65.0386	1	C5H5+
67.0416	2	C4H5N+
67.0542	5	C5H7+
68.0494	4	C4H6N+
69.0083	12	C2HN2O+
69.0699	33	C5H9+
70.0399	4	C2H4N3+
70.0651	3	C4H8N+
74.0058	67	C2H4NS+
74.9898	2	C2H3OS+
75.0136	1	C2H5NS+
76.0215	33	C2H6NS+
79.0212	18	C2H7OS+
79.0543	12	C6H7+
80.0495	1	C5H6N+
82.0651	68	C5H8N+
83.024	11	C3H3N2O+
83.0603	1	C4H7N2+
83.0728	1	C5H9N+
84.0808	287	C5H10N+
85.0885	3	C5H11N+
86.0964	3	C5H12N+
86.99	6	C3H3OS+
87.0012	38	C2H3N2S+
88.009	7	C2H4N2S+
89.0168	104	C2H5N2S+
89.0419	30	C4H9S+
94.0651	7	C6H8N+
95.0491	2	C6H7O+
95.0605	1	C5H7N2+
95.073	1	C6H9N+
97.0648	88	C6H9O+
97.076	5	C5H9N2+
98.0589	2	C3H6N4+
99.0917	24	C5H11N2+
103.0577	2	C5H11S+
104.0277	52	C2H6N3S+
108.0682	10	C6H8N2+
109.076	7	C6H9N2+
110.06	19	C6H8NO+
110.0838	1	C6H10N2+
111.0678	9	C6H9NO+
111.0916	3	C6H11N2+
112.0757	13	C6H10NO+
114.0372	2	C5H8NS+
114.9961	80	C3H3N2OS+
123.0792	4	C6H9N3+
124.087	5	C6H10N3+
125.071	3	C6H9N2O+
125.0822	4	C5H9N4+
126.0663	2	C5H8N3O+
126.1024	2	C6H12N3+
127.0866	10	C6H11N2O+
129.0481	4	C5H9N2S+
130.0308	1	C3H6N4S+
130.0685	20	C6H12NS+
131.0274	29	C4H7N2OS+
131.0386	95	C3H7N4S+
132.0225	5	C3H6N3OS+
136.0509	2	C6H6N3O+
139.0866	9	C7H11N2O+
139.0977	5	C6H11N4+
140.0403	4	C6H8N2S+
140.1055	10	C6H12N4+
143.0637	6	C6H11N2S+
144.035	3	C5H8N2OS+
145.0542	94	C4H9N4S+
150.066	3	C7H8N3O+
152.0818	2	C7H10N3O+
153.077	11	C6H9N4O+
153.0898	2	C7H11N3O+
154.0849	2	C6H10N4O+
154.0974	4	C7H12N3O+
155.0514	12	C6H9N3S+
155.0637	13	C7H11N2S+
156.0592	2	C6H10N3S+
157.0429	12	C6H9N2OS+
159.0335	4	C4H7N4OS+
167.0929	16	C7H11N4O+
169.1082	2	C7H13N4O+
170.0744	3	C7H12N3S+
171.0586	63	C7H11N2OS+
171.0825	3	C7H13N3S+
172.0661	5	C7H12N2OS+
172.0776	13	C6H12N4S+
183.0463	12	C7H9N3OS+
184.054	20	C7H10N3OS+
185.0743	1	C8H13N2OS+
186.0822	85	C8H14N2OS+
187.1012	970	C7H15N4S+
198.0698	2	C8H12N3OS+
200.0729	11	C7H12N4OS+
215.0961	999	C8H15N4OS+
