Mass spectrum: Propyl gallate; LC-ESI-QFT; MS2; CE: 45; R=17500; [M-H]-
Name: Propyl gallate
Name: propyl 3,4,5-trihydroxybenzoate
Formula: C10H12O5
Exact mass: 212.0685
SMILES: CCCOC(=O)C1=CC(O)=C(O)C(O)=C1
InChI: InChI=1S/C10H12O5/c1-2-3-15-10(14)6-4-7(11)9(13)8(12)5-6/h4-5,11-13H,2-3H2,1H3
Instrument: Q Exactive Orbitrap (Thermo Scientific)
Instrument type: LC-ESI-QFT
Ms type: MS2
Ion mode: NEGATIVE
Ionization: ESI
Fragmentation mode: HCD
Collision energy: 45
Resolution: 17500
Column name: Acquity BEH C18 1.7um, 2.1x150mm (Waters)
Retention time: 14.149 min
Base peak: 211.0612
Precursor m/z: 211.0612
Precursor type: [M-H]-
Precursor intensity: 30190837.16357
m/z	relative intensity	assigned
55.0189	6	C3H3O-
57.0345	2	C3H5O-
58.006	2	C2H2O2-
59.0138	4	C2H3O2-
60.9931	2	CHO3-
65.0033	23	C4HO-
66.0112	1	C4H2O-
67.0189	26	C4H3O-
68.9982	21	C3HO2-
69.0346	10	C4H5O-
71.0138	25	C3H3O2-
72.9931	28	C2HO3-
78.0111	2	C5H2O-
79.0188	2	C5H3O-
81.0345	7	C5H5O-
82.0061	18	C4H2O2-
83.0139	43	C4H3O2-
84.9931	5	C3HO3-
86.0009	5	C3H2O3-
87.0088	16	C3H3O3-
95.0138	12	C5H3O2-
96.9931	10	C4HO3-
97.0296	13	C5H5O2-
99.0088	10	C4H3O3-
100.0165	1	C4H4O3-
100.988	2	C3HO4-
106.0059	2	C6H2O2-
107.014	3	C6H3O2-
108.9927	1	C5HO3-
110.0009	45	C5H2O3-
111.0088	251	C5H3O3-
112.9881	5	C4HO4-
123.0088	36	C6H3O3-
124.0165	201	C6H4O3-
125.0244	999	C6H5O3-
127.0036	108	C5H3O4-
136.988	179	C6HO4-
138.0324	3	C7H6O3-
139.0037	260	C6H3O4-
140.0115	412	C6H4O4-
141.0191	2	C6H5O4-
141.9907	2	C5H2O5-
151.0036	29	C7H3O4-
153.0193	4	C7H5O4-
154.9986	36	C6H3O5-
167.0714	6	C9H11O3-
168.0064	366	C7H4O5-
169.0142	806	C7H5O5-
211.0612	980	C10H11O5-
