Mass spectrum: Famotidine; LC-ESI-QFT; MS2; CE: 75; R=17500; [M-H]-
Name: Famotidine
Name: 3-[[2-(diaminomethylideneamino)-1,3-thiazol-4-yl]methylsulfanyl]-N'-sulfamoylpropanimidamide
Formula: C8H15N7O2S3
Exact mass: 337.0449
SMILES: NC(N)=NC1=NC(CSCCC(N)=NS(N)(=O)=O)=CS1
InChI: InChI=1S/C8H15N7O2S3/c9-6(15-20(12,16)17)1-2-18-3-5-4-19-8(13-5)14-7(10)11/h4H,1-3H2,(H2,9,15)(H2,12,16,17)(H4,10,11,13,14)
Instrument: Q Exactive Orbitrap (Thermo Scientific)
Instrument type: LC-ESI-QFT
Ms type: MS2
Ion mode: NEGATIVE
Ionization: ESI
Fragmentation mode: HCD
Collision energy: 75
Resolution: 17500
Column name: Acquity BEH C18 1.7um, 2.1x150mm (Waters)
Retention time: 8.019 min
Base peak: 185.0455
Precursor m/z: 336.0377
Precursor type: [M-H]-
Precursor intensity: 1478044.139648
m/z	relative intensity	assigned
57.0458	9	C2H5N2-
57.9756	107	CNS-
58.9961	85	C2H3S-
63.9625	32	O2S-
66.0098	33	C2N3-
77.9656	559	NO2S-
78.9734	87	HNO2S-
83.0365	39	C2H3N4-
83.9915	8	C3H2NS-
86.007	13	C3H4NS-
94.9921	999	H3N2O2S-
103.0336	74	C3H7N2S-
111.0023	128	C4H3N2S-
113.0181	7	C4H5N2S-
138.0135	6	C5H4N3S-
