Mass spectrum: Clorophene; LC-ESI-QFT; MS2; CE: 30; R=17500; [M-H]-
Name: Clorophene
Name: 2-benzyl-4-chlorophenol
Formula: C13H11ClO
Exact mass: 218.0498
SMILES: OC1=C(CC2=CC=CC=C2)C=C(Cl)C=C1
InChI: InChI=1S/C13H11ClO/c14-12-6-7-13(15)11(9-12)8-10-4-2-1-3-5-10/h1-7,9,15H,8H2
Instrument: Q Exactive Orbitrap (Thermo Scientific)
Instrument type: LC-ESI-QFT
Ms type: MS2
Ion mode: NEGATIVE
Ionization: ESI
Fragmentation mode: HCD
Collision energy: 30
Resolution: 17500
Column name: Acquity BEH C18 1.7um, 2.1x150mm (Waters)
Retention time: 18.870 min
Base peak: 112.9856
Precursor m/z: 217.0426
Precursor type: [M-H]-
Precursor intensity: 1534723.040039
m/z	relative intensity	assigned
93.0346	2	C6H5O-
153.0711	2	C12H9-
180.0585	1	C13H8O-
181.0658	7	C13H9O-
217.0425	999	C13H10ClO-
