Mass spectrum: Trinexapac-ethyl; LC-ESI-QFT; MS2; CE: 60; R=17500; [M-H]-
Name: Trinexapac-ethyl
Name: ethyl 4-[cyclopropyl(hydroxy)methylidene]-3,5-dioxocyclohexane-1-carboxylate
Formula: C13H16O5
Exact mass: 252.0998
SMILES: CCOC(=O)C1CC(=O)C(=C(O)C2CC2)C(=O)C1
InChI: InChI=1S/C13H16O5/c1-2-18-13(17)8-5-9(14)11(10(15)6-8)12(16)7-3-4-7/h7-8,16H,2-6H2,1H3
Instrument: Q Exactive Orbitrap (Thermo Scientific)
Instrument type: LC-ESI-QFT
Ms type: MS2
Ion mode: NEGATIVE
Ionization: ESI
Fragmentation mode: HCD
Collision energy: 60
Resolution: 17500
Column name: Acquity BEH C18 1.7um, 2.1x150mm (Waters)
Retention time: 17.175 min
Base peak: 193.0869
Precursor m/z: 251.0925
Precursor type: [M-H]-
Precursor intensity: 396134.7714844
m/z	relative intensity	assigned
65.0396	110	C5H5-
67.0191	128	C4H3O-
83.0502	440	C5H7O-
85.0296	170	C4H5O2-
91.0189	200	C6H3O-
93.0346	198	C6H5O-
95.0139	331	C5H3O2-
107.0501	221	C7H7O-
109.0296	761	C6H5O2-
111.0449	225	C6H7O2-
119.0501	75	C8H7O-
122.0373	129	C7H6O2-
133.0659	547	C9H9O-
135.0088	250	C7H3O3-
135.0452	149	C8H7O2-
135.0815	213	C9H11O-
137.0245	116	C7H5O3-
137.0609	999	C8H9O2-
159.0454	174	C10H7O2-
161.0607	309	C10H9O2-
163.0401	243	C9H7O3-
177.0558	806	C10H9O3-
179.0714	164	C10H11O3-
183.0663	172	C9H11O4-
