Mass spectrum: Laurocapram; LC-ESI-QFT; MS2; CE: 30; R=17500; [M+H]+
Name: Laurocapram
Name: 1-dodecylazepan-2-one
Formula: C18H35NO
Exact mass: 281.2719
SMILES: CCCCCCCCCCCCN1CCCCCC1=O
InChI: InChI=1S/C18H35NO/c1-2-3-4-5-6-7-8-9-10-13-16-19-17-14-11-12-15-18(19)20/h2-17H2,1H3
Instrument: Q Exactive Orbitrap (Thermo Scientific)
Instrument type: LC-ESI-QFT
Ms type: MS2
Ion mode: POSITIVE
Ionization: ESI
Fragmentation mode: HCD
Collision energy: 30
Resolution: 17500
Column name: Acquity BEH C18 1.7um, 2.1x150mm (Waters)
Retention time: 21.255 min
Base peak: 79.0212
Precursor m/z: 282.2791
Precursor type: [M+H]+
Precursor intensity: 61918211.51563
m/z	relative intensity	assigned
57.0699	1	C4H9+
69.0699	1	C5H9+
71.0856	1	C5H11+
96.0807	1	C6H10N+
114.0914	26	C6H12NO+
282.279	999	C18H36NO+
