Mass spectrum: Decanedioic acid; LC-ESI-QFT; MS2; CE: 75; R=17500; [M-H]-
Name: Decanedioic acid
Name: Sebacic acid
Formula: C10H18O4
Exact mass: 202.1205
SMILES: OC(=O)CCCCCCCCC(O)=O
InChI: InChI=1S/C10H18O4/c11-9(12)7-5-3-1-2-4-6-8-10(13)14/h1-8H2,(H,11,12)(H,13,14)
Instrument: Q Exactive Orbitrap (Thermo Scientific)
Instrument type: LC-ESI-QFT
Ms type: MS2
Ion mode: NEGATIVE
Ionization: ESI
Fragmentation mode: HCD
Collision energy: 75
Resolution: 17500
Column name: Acquity BEH C18 1.7um, 2.1x150mm (Waters)
Retention time: 15.858 min
Base peak: 201.1133
Precursor m/z: 201.1132
Precursor type: [M-H]-
Precursor intensity: 31855849.2749
m/z	relative intensity	assigned
57.0346	612	C3H5O-
69.0346	71	C4H5O-
71.0503	62	C4H7O-
80.0268	160	C5H4O-
81.0347	43	C5H5O-
83.0503	154	C5H7O-
109.0656	30	C7H9O-
111.0815	447	C7H11O-
123.0815	22	C8H11O-
137.0972	308	C9H13O-
139.1128	999	C9H15O-
183.1025	93	C10H15O3-
