Mass spectrum: Zamifenacin; LC-ESI-QFT; MS2; CE: 45; R=17500; [M+H]+
Name: Zamifenacin
Name: (3R)-3-benzhydryloxy-1-[2-(1,3-benzodioxol-5-yl)ethyl]piperidine
Formula: C27H29NO3
Exact mass: 415.2147
SMILES: C(CC1=CC2=C(OCO2)C=C1)N1CCC[C@H](C1)OC(C1=CC=CC=C1)C1=CC=CC=C1
InChI: InChI=1S/C27H29NO3/c1-3-8-22(9-4-1)27(23-10-5-2-6-11-23)31-24-12-7-16-28(19-24)17-15-21-13-14-25-26(18-21)30-20-29-25/h1-6,8-11,13-14,18,24,27H,7,12,15-17,19-20H2/t24-/m1/s1
Instrument: Q Exactive Orbitrap (Thermo Scientific)
Instrument type: LC-ESI-QFT
Ms type: MS2
Ion mode: POSITIVE
Ionization: ESI
Fragmentation mode: HCD
Collision energy: 45
Resolution: 17500
Column name: Acquity BEH C18 1.7um, 2.1x150mm (Waters)
Retention time: 16.040 min
Base peak: 79.0211
Precursor m/z: 416.222
Precursor type: [M+H]+
Precursor intensity: 44897728
m/z	relative intensity	assigned
91.0542	28	C7H7+
98.0964	1	C6H12N+
114.0914	1	C6H12NO+
119.0492	39	C8H7O+
137.0597	8	C8H9O2+
149.0597	161	C9H9O2+
152.062	28	C12H8+
165.0701	43	C13H9+
166.078	13	C13H10+
167.0855	999	C13H11+
169.0647	1	C12H9O+
248.1281	1	C14H18NO3+
