Mass spectrum: Ethirimol; LC-ESI-QFT; MS2; CE: 30; R=17500; [M-H]-
Name: Ethirimol
Name: 5-butyl-2-(ethylamino)-6-methyl-1H-pyrimidin-4-one
Formula: C11H19N3O
Exact mass: 209.1528
SMILES: CCCCC1=C(O)N=C(NCC)N=C1C
InChI: InChI=1S/C11H19N3O/c1-4-6-7-9-8(3)13-11(12-5-2)14-10(9)15/h4-7H2,1-3H3,(H2,12,13,14,15)
Instrument: Q Exactive Orbitrap (Thermo Scientific)
Instrument type: LC-ESI-QFT
Ms type: MS2
Ion mode: NEGATIVE
Ionization: ESI
Fragmentation mode: HCD
Collision energy: 30
Resolution: 17500
Column name: Acquity BEH C18 1.7um, 2.1x150mm (Waters)
Retention time: 13.213 min
Base peak: 118.0298
Precursor m/z: 208.1455
Precursor type: [M-H]-
Precursor intensity: 14126891.96973
m/z	relative intensity	assigned
69.0458	326	C3H5N2-
137.1084	3	C8H13N2-
165.0907	5	C8H11N3O-
180.1143	229	C9H14N3O-
192.1138	2	C10H14N3O-
206.1295	4	C11H16N3O-
208.1455	999	C11H18N3O-
