Mass spectrum: Bezafibrate; LC-ESI-QFT; MS2; CE: 75; R=17500; [M+H]+
Name: Bezafibrate
Name: 2-[4-[2-[(4-chlorobenzoyl)amino]ethyl]phenoxy]-2-methylpropanoic acid
Formula: C19H20ClNO4
Exact mass: 361.1081
SMILES: CC(C)(OC1=CC=C(CCNC(=O)C2=CC=C(Cl)C=C2)C=C1)C(O)=O
InChI: InChI=1S/C19H20ClNO4/c1-19(2,18(23)24)25-16-9-3-13(4-10-16)11-12-21-17(22)14-5-7-15(20)8-6-14/h3-10H,11-12H2,1-2H3,(H,21,22)(H,23,24)
Instrument: Q Exactive Orbitrap (Thermo Scientific)
Instrument type: LC-ESI-QFT
Ms type: MS2
Ion mode: POSITIVE
Ionization: ESI
Fragmentation mode: HCD
Collision energy: 75
Resolution: 17500
Column name: Acquity BEH C18 1.7um, 2.1x150mm (Waters)
Retention time: 17.333 min
Base peak: 79.0211
Precursor m/z: 362.1154
Precursor type: [M+H]+
Precursor intensity: 11698016.25
m/z	relative intensity	assigned
50.0152	2	C4H2+
51.023	3	C4H3+
53.0022	7	C3HO+
53.0386	47	C4H5+
53.9975	1	C2NO+
55.0179	13	C3H3O+
59.0491	79	C3H7O+
65.0385	7	C5H5+
67.0541	1	C5H7+
69.0335	12	C4H5O+
74.0151	2	C6H2+
75.0228	27	C6H3+
77.0384	13	C6H5+
78.0464	2	C6H6+
79.0178	9	C5H3O+
79.0542	6	C6H7+
81.0335	5	C5H5O+
84.9838	1	C4H2Cl+
86.9996	71	C4H4Cl+
87.0441	12	C4H7O2+
88.9788	1	C3H2ClO+
91.0542	293	C7H7+
92.062	1	C7H8+
93.0699	330	C7H9+
94.0413	13	C6H6O+
95.0491	149	C6H7O+
98.0363	2	C5H6O2+
102.0463	5	C8H6+
103.0542	327	C8H7+
105.0699	19	C8H9+
107.0491	10	C7H7O+
108.0206	1	C6H4O2+
109.0649	1	C7H9O+
110.9994	22	C6H4Cl+
111.044	26	C6H7O2+
114.9943	6	C5H4ClO+
115.0542	2	C9H7+
117.0699	3	C9H9+
119.0491	8	C8H7O+
119.0855	9	C9H11+
120.0569	27	C8H8O+
121.0648	810	C8H9O+
125.0598	1	C7H9O2+
128.0023	4	C6H5ClO+
128.062	8	C10H8+
129.0101	208	C6H6ClO+
131.0492	2	C9H7O+
131.0853	1	C10H11+
132.0569	3	C9H8O+
133.0647	11	C9H9O+
133.101	2	C10H13+
138.9948	999	C7H4ClO+
139.005	457	C9HNO+
140.0028	3	C7H5ClO+
143.0853	1	C11H11+
145.0649	2	C10H9O+
146.0726	6	C10H10O+
156.0209	2	C7H7ClNO+
161.096	4	C11H13O+
171.0806	1	C12H11O+
