Mass spectrum: Isazofos; LC-ESI-QFT; MS2; CE: 30; R=17500; [M+H]+
Name: Isazofos
Name: (5-chloro-1-propan-2-yl-1,2,4-triazol-3-yl)oxy-diethoxy-sulfanylidene-lambda5-phosphane
Formula: C9H17ClN3O3PS
Exact mass: 313.0417
SMILES: CCOP(=S)(OCC)OC1=NN(C(C)C)C(Cl)=N1
InChI: InChI=1S/C9H17ClN3O3PS/c1-5-14-17(18,15-6-2)16-9-11-8(10)13(12-9)7(3)4/h7H,5-6H2,1-4H3
Instrument: Q Exactive Orbitrap (Thermo Scientific)
Instrument type: LC-ESI-QFT
Ms type: MS2
Ion mode: POSITIVE
Ionization: ESI
Fragmentation mode: HCD
Collision energy: 30
Resolution: 17500
Column name: Acquity BEH C18 1.7um, 2.1x150mm (Waters)
Retention time: 17.724 min
Base peak: 79.0211
Precursor m/z: 314.049
Precursor type: [M+H]+
Precursor intensity: 17691535.875
m/z	relative intensity	assigned
61.9792	1	CHClN+
96.9506	6	H2O2PS+
114.9613	387	H4O3PS+
119.9958	576	C2H3ClN3O+
124.982	13	C2H6O2PS+
128.9768	10	CH6O3PS+
132.9718	3	C3H3ClN2P+
135.973	56	C2H3ClN3S+
142.9926	19	C2H8O3PS+
148.0271	36	C4H7ClN3O+
153.0133	33	C4H10O2PS+
162.0427	999	C4H9N3O2P+
164.0042	4	C3H7N3OPS+
171.0238	174	C4H12O3PS+
178.0201	8	C5H9ClN3S+
185.0395	10	C5H14O3PS+
190.0739	11	C6H13N3O2P+
215.9393	72	C2H4ClN3O3PS+
243.9706	121	C4H8ClN3O3PS+
257.9861	8	C9H7ClN2O3S+
272.0018	80	C6H12ClN3O3PS+
286.0174	30	C7H14ClN3O3PS+
314.0488	38	C9H18ClN3O3PS+
