Mass spectrum: Iprovalicarb; LC-ESI-QFT; MS2; CE: 15; R=17500; [M+H]+
Name: Iprovalicarb
Name: propan-2-yl N-[(2S)-3-methyl-1-[1-(4-methylphenyl)ethylamino]-1-oxobutan-2-yl]carbamate
Formula: C18H28N2O3
Exact mass: 320.2100
SMILES: CC(C)OC(=O)N[C@@H](C(C)C)C(=O)NC(C)C1=CC=C(C)C=C1
InChI: InChI=1S/C18H28N2O3/c1-11(2)16(20-18(22)23-12(3)4)17(21)19-14(6)15-9-7-13(5)8-10-15/h7-12,14,16H,1-6H3,(H,19,21)(H,20,22)/t14?,16-/m0/s1
Instrument: Q Exactive Orbitrap (Thermo Scientific)
Instrument type: LC-ESI-QFT
Ms type: MS2
Ion mode: POSITIVE
Ionization: ESI
Fragmentation mode: HCD
Collision energy: 15
Resolution: 17500
Column name: Acquity BEH C18 1.7um, 2.1x150mm (Waters)
Retention time: 17.761 min
Base peak: 79.0211
Precursor m/z: 321.2173
Precursor type: [M+H]+
Precursor intensity: 8814966.625
m/z	relative intensity	assigned
116.0706	105	C5H10NO2+
117.1023	22	C5H13N2O+
119.0856	999	C9H11+
144.0656	128	C6H10NO3+
158.1178	34	C8H16NO2+
171.138	36	C10H19O2+
186.1127	209	C9H16NO3+
