Mass spectrum: HC Red 3; LC-ESI-QFT; MS2; CE: 45; R=17500; [M+H]+
Name: HC Red 3
Name: 2-((4-Amino-2-nitrophenyl)amino)ethanol
Name: 2-(4-amino-2-nitroanilino)ethanol
Formula: C8H11N3O3
Exact mass: 197.0800
SMILES: NC1=CC(=C(NCCO)C=C1)[N+]([O-])=O
InChI: InChI=1S/C8H11N3O3/c9-6-1-2-7(10-3-4-12)8(5-6)11(13)14/h1-2,5,10,12H,3-4,9H2
Instrument: Q Exactive Orbitrap (Thermo Scientific)
Instrument type: LC-ESI-QFT
Ms type: MS2
Ion mode: POSITIVE
Ionization: ESI
Fragmentation mode: HCD
Collision energy: 45
Resolution: 17500
Column name: Acquity BEH C18 1.7um, 2.1x150mm (Waters)
Retention time: 3.132 min
Base peak: 79.0211
Precursor m/z: 198.0873
Precursor type: [M+H]+
Precursor intensity: 2858800.78125
m/z	relative intensity	assigned
54.0339	3	C3H4N+
55.0543	2	C4H7+
57.0698	7	C4H9+
66.0338	2	C4H4N+
69.0697	2	C5H9+
71.0855	4	C5H11+
79.029	1	C4H3N2+
80.0494	8	C5H6N+
81.0448	10	C4H5N2+
82.0523	2	C4H6N2+
83.0854	2	C6H11+
86.0601	60	C4H8NO+
91.0291	13	C5H3N2+
91.0543	2	C7H7+
92.0495	1	C6H6N+
93.0448	10	C5H5N2+
93.0573	3	C6H7N+
94.0526	3	C5H6N2+
95.0604	115	C5H7N2+
105.0335	7	C7H5O+
105.0447	7	C6H5N2+
105.0574	2	C7H7N+
106.0526	1	C6H6N2+
106.0651	6	C7H8N+
107.0604	17	C6H7N2+
108.0682	103	C6H8N2+
109.0396	7	C5H5N2O+
110.0598	1	C6H8NO+
117.0449	3	C7H5N2+
118.0399	21	C6H4N3+
119.0479	58	C6H5N3+
120.0446	9	C7H6NO+
120.0556	13	C6H6N3+
120.0681	3	C7H8N2+
121.0392	1	C6H5N2O+
121.0634	2	C6H7N3+
121.0759	17	C7H9N2+
122.0713	46	C6H8N3+
123.0552	4	C6H7N2O+
132.0559	8	C7H6N3+
132.0681	8	C8H8N2+
133.0635	999	C7H7N3+
134.0713	54	C7H8N3+
134.0838	6	C8H10N2+
135.0915	4	C8H11N2+
136.0506	140	C6H6N3O+
137.0474	2	C7H7NO2+
137.071	28	C7H9N2O+
138.0662	3	C6H8N3O+
142.0725	2	C6H10N2O2+
145.0634	27	C8H7N3+
146.0713	6	C8H8N3+
149.0585	5	C7H7N3O+
150.0663	71	C7H8N3O+
153.0533	31	C6H7N3O2+
162.0662	18	C8H8N3O+
163.074	51	C8H9N3O+
164.0819	15	C8H10N3O+
166.0609	4	C7H8N3O2+
167.0577	6	C8H9NO3+
180.0769	31	C8H10N3O2+
181.085	2	C8H11N3O2+
198.0874	79	C8H12N3O3+
