Mass spectrum: Melengestrol acetate; LC-ESI-QFT; MS2; CE: 75; R=17500; [M+H]+
Name: Melengestrol acetate
Name: [(8R,9S,10R,13S,14S,17R)-17-acetyl-6,10,13-trimethyl-16-methylidene-3-oxo-1,2,8,9,11,12,14,15-octahydrocyclopenta[a]phenanthren-17-yl] acetate
Formula: C25H32O4
Exact mass: 396.2301
SMILES: CC(=O)O[C@]1(C(C)=O)C(=C)C[C@H]2[C@@H]3C=C(C)C4=CC(=O)CC[C@]4(C)[C@H]3CC[C@]12C
InChI: InChI=1S/C25H32O4/c1-14-11-19-20(23(5)9-7-18(28)13-21(14)23)8-10-24(6)22(19)12-15(2)25(24,16(3)26)29-17(4)27/h11,13,19-20,22H,2,7-10,12H2,1,3-6H3/t19-,20+,22+,23-,24+,25+/m1/s1
Instrument: Q Exactive Orbitrap (Thermo Scientific)
Instrument type: LC-ESI-QFT
Ms type: MS2
Ion mode: POSITIVE
Ionization: ESI
Fragmentation mode: HCD
Collision energy: 75
Resolution: 17500
Column name: Acquity BEH C18 1.7um, 2.1x150mm (Waters)
Retention time: 18.605 min
Base peak: 79.0212
Precursor m/z: 397.2373
Precursor type: [M+H]+
Precursor intensity: 2635865.75
m/z	relative intensity	assigned
55.0179	16	C3H3O+
55.0543	33	C4H7+
67.0542	42	C5H7+
69.0337	9	C4H5O+
69.0699	27	C5H9+
79.0543	61	C6H7+
81.07	23	C6H9+
83.0492	66	C5H7O+
91.0543	171	C7H7+
93.0699	66	C7H9+
95.0491	27	C6H7O+
95.0858	13	C7H11+
97.0649	121	C6H9O+
103.0543	19	C8H7+
105.0699	195	C8H9+
107.0492	16	C7H7O+
107.0857	47	C8H11+
109.0649	18	C7H9O+
115.0544	36	C9H7+
116.0621	13	C9H8+
117.0699	87	C9H9+
119.0856	102	C9H11+
121.0649	19	C8H9O+
121.1012	12	C9H13+
123.0804	10	C8H11O+
128.0622	70	C10H8+
129.0699	102	C10H9+
130.0777	43	C10H10+
131.0855	87	C10H11+
133.0646	12	C9H9O+
133.1013	51	C10H13+
135.0804	9	C9H11O+
141.0699	57	C11H9+
142.0778	132	C11H10+
143.0855	108	C11H11+
144.0932	37	C11H12+
145.0648	59	C10H9O+
145.1013	119	C11H13+
147.0809	12	C10H11O+
147.1176	11	C11H15+
153.0699	49	C12H9+
154.0779	42	C12H10+
155.0857	100	C12H11+
156.0936	47	C12H12+
157.0651	33	C11H9O+
157.1014	77	C12H13+
159.0804	38	C11H11O+
159.117	36	C12H15+
160.0882	106	C11H12O+
165.0699	91	C13H9+
166.0776	52	C13H10+
167.0854	65	C13H11+
168.0932	37	C13H12+
169.1012	89	C13H13+
170.1091	8	C13H14+
171.0806	32	C12H11O+
171.1164	16	C13H15+
172.0882	57	C12H12O+
173.0962	40	C12H13O+
175.1117	67	C12H15O+
178.0779	47	C14H10+
179.0855	190	C14H11+
180.0933	72	C14H12+
181.1013	127	C14H13+
182.1092	38	C14H14+
183.1171	37	C14H15+
185.0963	22	C13H13O+
187.1121	42	C13H15O+
190.078	14	C15H10+
191.0856	126	C15H11+
192.0935	102	C15H12+
193.1013	269	C15H13+
194.1091	109	C15H14+
195.1171	166	C15H15+
196.1249	25	C15H16+
197.1325	19	C15H17+
202.0771	10	C16H10+
203.0858	26	C16H11+
204.094	22	C16H12+
205.1014	107	C16H13+
206.1091	499	C16H14+
207.117	341	C16H15+
208.1248	112	C16H16+
209.1325	113	C16H17+
210.1399	11	C16H18+
211.1123	10	C15H15O+
211.1482	12	C16H19+
216.0938	26	C17H12+
217.1014	39	C17H13+
218.1098	17	C17H14+
219.1165	47	C17H15+
220.1251	52	C17H16+
221.1326	999	C17H17+
222.1401	87	C17H18+
223.1482	241	C17H19+
224.1563	10	C17H20+
229.1017	9	C18H13+
230.1093	15	C18H14+
231.1167	100	C18H15+
232.1249	33	C18H16+
233.1328	30	C18H17+
234.1409	14	C18H18+
235.1124	14	C17H15O+
235.1482	119	C18H19+
236.1558	37	C18H20+
237.1275	11	C17H17O+
237.1639	56	C18H21+
245.1331	31	C19H17+
246.1401	43	C19H18+
247.1488	25	C19H19+
249.127	51	C18H17O+
249.1638	9	C19H21+
250.1352	12	C18H18O+
251.1426	14	C18H19O+
251.1779	9	C19H23+
261.164	45	C20H21+
263.1431	48	C19H19O+
264.1514	41	C19H20O+
265.1587	15	C19H21O+
277.1589	16	C20H21O+
279.1742	77	C20H23O+
