Mass spectrum: Tebuthiuron; LC-ESI-QFT; MS2; CE: 15; R=17500; [M+H]+
Name: Tebuthiuron
Name: 1-(5-tert-butyl-1,3,4-thiadiazol-2-yl)-1,3-dimethylurea
Formula: C9H16N4OS
Exact mass: 228.1045
SMILES: CNC(=O)N(C)C1=NN=C(S1)C(C)(C)C
InChI: InChI=1S/C9H16N4OS/c1-9(2,3)6-11-12-8(15-6)13(5)7(14)10-4/h1-5H3,(H,10,14)
Instrument: Q Exactive Orbitrap (Thermo Scientific)
Instrument type: LC-ESI-QFT
Ms type: MS2
Ion mode: POSITIVE
Ionization: ESI
Fragmentation mode: HCD
Collision energy: 15
Resolution: 17500
Column name: Acquity BEH C18 1.7um, 2.1x150mm (Waters)
Retention time: 15.522 min
Base peak: 79.0211
Precursor m/z: 229.1118
Precursor type: [M+H]+
Precursor intensity: 17356823.75
m/z	relative intensity	assigned
99.0916	1	C5H11N2+
116.0275	2	C3H6N3S+
172.0903	433	C7H14N3S+
229.1116	999	C9H17N4OS+
