Mass spectrum: Heptylparaben; LC-ESI-QFT; MS2; CE: 90; R=17500; [M-H]-
Name: Heptylparaben
Name: heptyl 4-hydroxybenzoate
Formula: C14H20O3
Exact mass: 236.1412
SMILES: CCCCCCCOC(=O)C1=CC=C(O)C=C1
InChI: InChI=1S/C14H20O3/c1-2-3-4-5-6-11-17-14(16)12-7-9-13(15)10-8-12/h7-10,15H,2-6,11H2,1H3
Instrument: Q Exactive Orbitrap (Thermo Scientific)
Instrument type: LC-ESI-QFT
Ms type: MS2
Ion mode: NEGATIVE
Ionization: ESI
Fragmentation mode: HCD
Collision energy: 90
Resolution: 17500
Column name: Acquity BEH C18 1.7um, 2.1x150mm (Waters)
Retention time: 19.502 min
Base peak: 235.1339
Precursor m/z: 235.134
Precursor type: [M-H]-
Precursor intensity: 81526017.76465
m/z	relative intensity	assigned
53.0032	1	C3HO-
55.0188	1	C3H3O-
65.0033	1	C4HO-
65.0397	25	C5H5-
67.019	4	C4H3O-
68.9982	15	C3HO2-
69.0346	10	C4H5O-
70.0061	4	C3H2O2-
71.0139	7	C3H3O2-
72.9932	4	C2HO3-
78.0111	2	C5H2O-
79.0188	6	C5H3O-
79.9904	5	C4O2-
80.9983	3	C4HO2-
82.006	30	C4H2O2-
83.014	1	C4H3O2-
86.001	1	C3H2O3-
91.019	96	C6H3O-
92.0268	140	C6H4O-
93.0346	999	C6H5O-
95.0138	451	C5H3O2-
97.0296	6	C5H5O2-
98.0011	1	C4H2O3-
106.006	20	C6H2O2-
107.0139	3	C6H3O2-
108.0217	429	C6H4O2-
109.0295	1	C6H5O2-
111.0816	6	C7H11O-
113.0972	40	C7H13O-
119.0139	2	C7H3O2-
121.0295	36	C7H5O2-
123.0088	57	C6H3O3-
125.0242	1	C6H5O3-
136.0166	10	C7H4O3-
137.0244	8	C7H5O3-
149.0244	1	C8H5O3-
