Mass spectrum: 4,4`-Sulfonyldiphenol; LC-ESI-QFT; MS2; CE: 90; R=17500; [M+H]+
Name: 4,4'-Sulfonyldiphenol
Name: 4-(4-hydroxyphenyl)sulfonylphenol
Formula: C12H10O4S
Exact mass: 250.0300
SMILES: OC1=CC=C(C=C1)S(=O)(=O)C1=CC=C(O)C=C1
InChI: InChI=1S/C12H10O4S/c13-9-1-5-11(6-2-9)17(15,16)12-7-3-10(14)4-8-12/h1-8,13-14H
Instrument: Q Exactive Orbitrap (Thermo Scientific)
Instrument type: LC-ESI-QFT
Ms type: MS2
Ion mode: POSITIVE
Ionization: ESI
Fragmentation mode: HCD
Collision energy: 90
Resolution: 17500
Column name: Acquity BEH C18 1.7um, 2.1x150mm (Waters)
Retention time: 13.605 min
Base peak: 79.0211
Precursor m/z: 251.0373
Precursor type: [M+H]+
Precursor intensity: 798732.25
m/z	relative intensity	assigned
53.0022	22	C3HO+
53.0386	11	C4H5+
55.0179	10	C3H3O+
61.0106	13	C2H5S+
65.0386	999	C5H5+
66.0464	6	C5H6+
68.9971	4	C3HO2+
69.0335	2	C4H5O+
79.0179	4	C5H3O+
81.0335	93	C5H5O+
93.0337	6	C6H5O+
94.0414	33	C6H6O+
95.0491	2	C6H7O+
109.0285	76	C6H5O2+
110.0364	6	C6H6O2+
111.0441	106	C6H7O2+
141.0009	2	C6H5O2S+
