Mass spectrum: Fluconazole; LC-ESI-QFT; MS2; CE: 90; R=17500; [M+H]+
Name: Fluconazole
Name: 2-(2,4-difluorophenyl)-1,3-bis(1,2,4-triazol-1-yl)propan-2-ol
Formula: C13H12F2N6O
Exact mass: 306.1041
SMILES: OC(CN1C=NC=N1)(CN1C=NC=N1)C1=C(F)C=C(F)C=C1
InChI: InChI=1S/C13H12F2N6O/c14-10-1-2-11(12(15)3-10)13(22,4-20-8-16-6-18-20)5-21-9-17-7-19-21/h1-3,6-9,22H,4-5H2
Instrument: Q Exactive Orbitrap (Thermo Scientific)
Instrument type: LC-ESI-QFT
Ms type: MS2
Ion mode: POSITIVE
Ionization: ESI
Fragmentation mode: HCD
Collision energy: 90
Resolution: 17500
Column name: Acquity BEH C18 1.7um, 2.1x150mm (Waters)
Retention time: 13.017 min
Base peak: 79.0211
Precursor m/z: 307.1113
Precursor type: [M+H]+
Precursor intensity: 5308753.5
m/z	relative intensity	assigned
51.023	3	C4H3+
53.0022	5	C3HO+
53.0386	9	C4H5+
55.0178	69	C3H3O+
55.0291	14	C2H3N2+
57.0135	2	C3H2F+
63.0229	5	C5H3+
65.0386	6	C5H5+
70.0399	999	C2H4N3+
75.0229	181	C6H3+
77.0021	12	C5HO+
77.0385	49	C6H5+
82.0399	60	C3H4N3+
83.0477	20	C3H5N3+
84.0557	3	C3H6N3+
91.0542	136	C7H7+
95.0292	12	C6H4F+
95.0492	21	C6H7O+
99.0229	27	C8H3+
100.0505	9	C3H6N3O+
101.0197	29	C5H3F2+
101.0385	98	C8H5+
105.0446	7	C6H5N2+
107.0291	27	C7H4F+
109.0448	76	C7H6F+
113.0398	14	C6H6FO+
115.0354	19	C6H5F2+
115.0542	3	C9H7+
119.0491	186	C8H7O+
121.0448	424	C8H6F+
123.0352	20	C6H4FN2+
125.0385	9	C10H5+
127.0353	783	C7H5F2+
129.0446	531	C8H5N2+
130.0419	4	C9H6O+
131.03	11	C6H5F2O+
137.0398	31	C8H6FO+
139.0353	591	C8H5F2+
140.0306	6	C7H4F2N+
141.0146	97	C7H3F2O+
141.051	123	C8H7F2+
145.0451	2	C10H6F+
146.0401	27	C9H5FN+
147.0353	326	C8H4FN2+
149.0397	6	C9H6FO+
151.0353	649	C9H5F2+
152.0306	2	C8H4F2N+
152.0432	2	C9H6F2+
153.0383	8	C8H5F2N+
153.0449	9	C10H5N2+
154.0223	3	C8H4F2O+
154.0399	18	C9H4N3+
158.04	2	C10H5FN+
163.0554	2	C10H8FO+
164.0432	17	C10H6F2+
164.0506	4	C9H7FNO+
166.0461	30	C9H6F2N+
167.0302	3	C9H5F2O+
169.0459	27	C9H7F2O+
173.0509	39	C10H6FN2+
176.0308	6	C10H4F2N+
192.0489	1	C10H6F2N2+
193.0569	1	C10H7F2N2+
220.0681	2	C11H8F2N3+
