Mass spectrum: PharmaGSID_48507; LC-ESI-QFT; MS2; CE: 75; R=17500; [M-H]-
Name: PharmaGSID_48507
Name: 5-(2,4-Difluorophenoxy)-2-[(2-hydroxy-2-methylpropyl)amino]-8-methylpyrido[2,3-d]pyrimidin-7(8H)-one
Formula: C18H18F2N4O3
Exact mass: 376.1347
SMILES: CN1C(=O)C=C(OC2=C(F)C=C(F)C=C2)C2=C1N=C(NCC(C)(C)O)N=C2
InChI: InChI=1S/C18H18F2N4O3/c1-18(2,26)9-22-17-21-8-11-14(7-15(25)24(3)16(11)23-17)27-13-5-4-10(19)6-12(13)20/h4-8,26H,9H2,1-3H3,(H,21,22,23)
Instrument: Q Exactive Orbitrap (Thermo Scientific)
Instrument type: LC-ESI-QFT
Ms type: MS2
Ion mode: NEGATIVE
Ionization: ESI
Fragmentation mode: HCD
Collision energy: 75
Resolution: 17500
Column name: Acquity BEH C18 1.7um, 2.1x150mm (Waters)
Retention time: 16.608 min
Base peak: 206.007
Precursor m/z: 375.1274
Precursor type: [M-H]-
Precursor intensity: 5177683.886719
m/z	relative intensity	assigned
64.0194	3	C4H2N-
74.0036	7	C5N-
76.0193	6	C5H2N-
83.0302	3	C5H4F-
89.0033	114	C6HO-
91.0302	11	C5H3N2-
93.0146	79	C6H2F-
95.0306	4	C6H4F-
103.0302	32	C6H3N2-
105.0333	10	C5H3N3-
105.0458	9	C6H5N2-
106.0173	34	C5H2N2O-
108.0567	6	C5H6N3-
109.0095	124	C6H2FO-
111.0252	7	C6H4FO-
113.0208	31	C6H3F2-
115.0303	5	C7H3N2-
117.0095	12	C6HN2O-
118.0411	32	C6H4N3-
119.025	6	C6H3N2O-
120.033	6	C6H4N2O-
121.0409	5	C6H5N2O-
127.02	11	C6H4FO2-
129.0158	999	C6H3F2O-
130.041	14	C7H4N3-
132.0202	5	C6H2N3O-
132.0566	10	C7H6N3-
133.0282	119	C6H3N3O-
136.0204	15	C7H3FNO-
138.0361	13	C7H5FNO-
142.0475	4	C7H6F2N-
146.0361	11	C7H4N3O-
147.0313	6	C6H3N4O-
148.0517	879	C7H6N3O-
158.0356	13	C8H4N3O-
162.0547	16	C7H6N4O-
173.0468	10	C8H5N4O-
175.0264	5	C7H3N4O2-
175.0625	98	C8H7N4O-
176.0466	856	C8H6N3O2-
177.0539	9	C8H7N3O2-
185.0519	7	C11H6FN2-
186.0366	4	C11H5FNO-
190.0497	121	C8H6N4O2-
198.0235	3	C11H3FN2O-
199.0314	4	C11H4FN2O-
203.0576	131	C9H7N4O2-
206.0359	4	C12H4N3O-
213.0465	6	C12H6FN2O-
227.0258	2	C12H4FN2O2-
254.0373	113	C18H6O2-
