Mass spectrum: Tebufenpyrad; LC-ESI-QFT; MS2; CE: 45; R=17500; [M+H]+
Name: Tebufenpyrad
Name: N-[(4-tert-butylphenyl)methyl]-4-chloro-5-ethyl-2-methylpyrazole-3-carboxamide
Formula: C18H24ClN3O
Exact mass: 333.1608
SMILES: CCC1=NN(C)C(C(=O)NCC2=CC=C(C=C2)C(C)(C)C)=C1Cl
InChI: InChI=1S/C18H24ClN3O/c1-6-14-15(19)16(22(5)21-14)17(23)20-11-12-7-9-13(10-8-12)18(2,3)4/h7-10H,6,11H2,1-5H3,(H,20,23)
Instrument: Q Exactive Orbitrap (Thermo Scientific)
Instrument type: LC-ESI-QFT
Ms type: MS2
Ion mode: POSITIVE
Ionization: ESI
Fragmentation mode: HCD
Collision energy: 45
Resolution: 17500
Column name: Acquity BEH C18 1.7um, 2.1x150mm (Waters)
Retention time: 19.491 min
Base peak: 79.0211
Precursor m/z: 334.1681
Precursor type: [M+H]+
Precursor intensity: 15235270
m/z	relative intensity	assigned
54.0338	2	C3H4N+
55.0542	7	C4H7+
56.0132	1	C2H2NO+
56.0494	1	C3H6N+
57.0699	26	C4H9+
62.9996	1	C2H4Cl+
68.0495	3	C4H6N+
69.0698	1	C5H9+
74.0961	1	C4H12N+
75.9948	11	C2H3ClN+
78.0105	1	C2H5ClN+
81.0447	2	C4H5N2+
82.0653	2	C5H8N+
90.0105	17	C3H5ClN+
91.0542	66	C7H7+
93.0698	1	C7H9+
104.0261	5	C4H7ClN+
105.0699	98	C8H9+
107.0855	13	C8H11+
109.076	2	C6H9N2+
110.0837	1	C6H10N2+
115.0057	1	C4H4ClN2+
117.0214	453	C4H6ClN2+
118.0416	1	C5H9ClN+
119.0855	108	C9H11+
130.0292	3	C5H7ClN2+
131.0855	2	C10H11+
132.0934	58	C10H12+
145.0527	999	C6H10ClN2+
147.1167	643	C11H15+
162.1278	3	C11H16N+
171.0319	112	C7H8ClN2O+
188.0586	5	C7H11ClN3O+
200.0585	23	C8H11ClN3O+
278.1054	14	C14H17ClN3O+
318.1376	1	C17H21ClN3O+
319.1444	3	C17H22ClN3O+
334.168	322	C18H25ClN3O+
