Mass spectrum: Benzylparaben; LC-ESI-QFT; MS2; CE: 15; R=17500; [M-H]-
Name: Benzylparaben
Name: benzyl 4-hydroxybenzoate
Formula: C14H12O3
Exact mass: 228.0786
SMILES: OC1=CC=C(C=C1)C(=O)OCC1=CC=CC=C1
InChI: InChI=1S/C14H12O3/c15-13-8-6-12(7-9-13)14(16)17-10-11-4-2-1-3-5-11/h1-9,15H,10H2
Instrument: Q Exactive Orbitrap (Thermo Scientific)
Instrument type: LC-ESI-QFT
Ms type: MS2
Ion mode: NEGATIVE
Ionization: ESI
Fragmentation mode: HCD
Collision energy: 15
Resolution: 17500
Column name: Acquity BEH C18 1.7um, 2.1x150mm (Waters)
Retention time: 17.507 min
Base peak: 227.0714
Precursor m/z: 227.0714
Precursor type: [M-H]-
Precursor intensity: 62579543.5293
m/z	relative intensity	assigned
82.0061	2	C4H2O2-
92.0265	38	C6H4O-
95.0139	34	C5H3O2-
106.0062	1	C6H2O2-
107.0503	1	C7H7O-
108.0217	31	C6H4O2-
123.0086	4	C6H3O3-
136.0166	999	C7H4O3-
183.0816	22	C13H11O-
227.0714	934	C14H11O3-
