Mass spectrum: Oxfendazole; LC-ESI-QFT; MS2; CE: 75; R=17500; [M+H]+
Name: Oxfendazole
Name: methyl N-[6-(benzenesulfinyl)-1H-benzimidazol-2-yl]carbamate
Formula: C15H13N3O3S
Exact mass: 315.0678
SMILES: COC(=O)NC1=NC2=C(N1)C=CC(=C2)S(=O)C1=CC=CC=C1
InChI: InChI=1S/C15H13N3O3S/c1-21-15(19)18-14-16-12-8-7-11(9-13(12)17-14)22(20)10-5-3-2-4-6-10/h2-9H,1H3,(H2,16,17,18,19)
Instrument: Q Exactive Orbitrap (Thermo Scientific)
Instrument type: LC-ESI-QFT
Ms type: MS2
Ion mode: POSITIVE
Ionization: ESI
Fragmentation mode: HCD
Collision energy: 75
Resolution: 17500
Column name: Acquity BEH C18 1.7um, 2.1x150mm (Waters)
Retention time: 14.495 min
Base peak: 79.0211
Precursor m/z: 316.075
Precursor type: [M+H]+
Precursor intensity: 1680736.25
m/z	relative intensity	assigned
52.0308	3	C4H4+
53.0387	1	C4H5+
67.0416	1	C4H5N+
69.0083	2	C2HN2O+
77.0258	6	C5H3N+
79.0416	7	C5H5N+
91.0417	2	C6H5N+
92.037	1	C5H4N2+
95.0368	2	C5H5NO+
96.0442	1	C5H6NO+
97.0108	13	C5H5S+
97.0522	5	C5H7NO+
103.0417	3	C7H5N+
104.0369	38	C6H4N2+
105.0448	10	C6H5N2+
106.0524	2	C6H6N2+
116.0369	4	C7H4N2+
118.0525	12	C7H6N2+
119.0478	8	C6H5N3+
119.0604	17	C7H7N2+
122.0061	1	C6H4NS+
122.0475	2	C6H6N2O+
125.0056	9	C6H5OS+
129.0447	1	C8H5N2+
130.0399	3	C7H4N3+
131.0479	202	C7H5N3+
132.0557	2	C7H6N3+
133.0399	2	C7H5N2O+
133.0633	6	C7H7N3+
134.0476	2	C7H6N2O+
135.0429	4	C6H5N3O+
136.0266	2	C6H4N2O2+
146.0713	28	C8H8N3+
147.0428	33	C7H5N3O+
147.0552	3	C8H7N2O+
159.0428	499	C8H5N3O+
160.0507	3	C8H6N3O+
163.0369	1	C7H5N3O2+
171.0265	3	C11H7S+
172.0339	1	C11H8S+
174.03	33	C8H4N3O2+
175.0376	34	C8H5N3O2+
178.0071	3	C7H4N3OS+
190.007	9	C8H4N3OS+
191.0326	999	C8H5N3O3+
193.0371	4	C12H5N2O+
196.0217	3	C12H6NS+
198.0373	10	C12H8NS+
199.045	7	C12H9NS+
207.0098	90	C8H5N3O2S+
211.0331	2	C12H7N2S+
223.0589	15	C15H11S+
224.0404	9	C13H8N2S+
225.0239	2	C13H7NOS+
225.0479	3	C13H9N2S+
234.0665	3	C14H8N3O+
235.0739	11	C14H9N3O+
238.0434	15	C13H8N3S+
239.0514	4	C13H9N3S+
241.0443	1	C13H9N2OS+
252.0227	4	C13H6N3OS+
265.0313	4	C14H7N3OS+
266.0384	158	C14H8N3OS+
267.0464	27	C14H9N3OS+
