Mass spectrum: CP-401387; LC-ESI-QFT; MS2; CE: 75; R=17500; [M+H]+
Name: CP-401387
Name: 4-cyano-4-(1-cyclohexyl-3-ethylindazol-6-yl)cyclohexane-1-carboxylic acid
Formula: C23H29N3O2
Exact mass: 379.2260
SMILES: CCC1=NN(C2CCCCC2)C2=C1C=CC(=C2)[C@]1(CC[C@@H](CC1)C(O)=O)C#N
InChI: InChI=1S/C23H29N3O2/c1-2-20-19-9-8-17(23(15-24)12-10-16(11-13-23)22(27)28)14-21(19)26(25-20)18-6-4-3-5-7-18/h8-9,14,16,18H,2-7,10-13H2,1H3,(H,27,28)/t16-,23-
Instrument: Q Exactive Orbitrap (Thermo Scientific)
Instrument type: LC-ESI-QFT
Ms type: MS2
Ion mode: POSITIVE
Ionization: ESI
Fragmentation mode: HCD
Collision energy: 75
Resolution: 17500
Column name: Acquity BEH C18 1.7um, 2.1x150mm (Waters)
Retention time: 19.050 min
Base peak: 79.0211
Precursor m/z: 380.2333
Precursor type: [M+H]+
Precursor intensity: 6825537
m/z	relative intensity	assigned
53.0022	17	C3HO+
53.0386	41	C4H5+
55.0542	704	C4H7+
56.0494	11	C3H6N+
57.0699	8	C4H9+
58.0651	23	C3H8N+
65.0385	27	C5H5+
67.0541	31	C5H7+
69.0698	38	C5H9+
73.0283	4	C3H5O2+
74.0963	5	C4H12N+
77.0384	7	C6H5+
79.0542	974	C6H7+
80.0493	5	C5H6N+
81.0699	176	C6H9+
82.0652	3	C5H8N+
83.0491	14	C5H7O+
83.0855	82	C6H11+
91.0544	8	C7H7+
92.0495	152	C6H6N+
95.0491	59	C6H7O+
96.0443	3	C5H6NO+
97.0648	123	C6H9O+
103.0543	5	C8H7+
104.0493	27	C7H6N+
105.0446	25	C6H5N2+
106.0651	105	C7H8N+
107.0492	28	C7H7O+
110.0601	5	C6H8NO+
115.0543	23	C9H7+
117.057	3	C8H7N+
117.0697	4	C9H9+
118.0525	86	C7H6N2+
119.0604	647	C7H7N2+
120.081	5	C8H10N+
124.0757	3	C7H10NO+
125.0597	41	C7H9O2+
128.0498	5	C9H6N+
128.0619	18	C10H8+
129.0698	13	C10H9+
130.065	24	C9H8N+
131.0604	904	C8H7N2+
132.0682	140	C8H8N2+
142.0652	33	C10H8N+
143.0603	7	C9H7N2+
143.0856	42	C11H11+
144.0682	49	C9H8N2+
144.0807	5	C10H10N+
145.0761	246	C9H9N2+
146.0838	369	C9H10N2+
147.0916	833	C9H11N2+
152.062	4	C12H8+
153.0699	19	C12H9+
154.0649	10	C11H8N+
155.0604	76	C10H7N2+
155.0724	18	C11H9N+
156.0556	10	C9H6N3+
156.068	20	C10H8N2+
157.0763	27	C10H9N2+
158.0838	8	C10H10N2+
159.0917	999	C10H11N2+
160.0995	10	C10H12N2+
163.0865	5	C9H11N2O+
167.0729	3	C12H9N+
168.0683	21	C11H8N2+
168.0807	13	C12H10N+
169.0636	5	C10H7N3+
169.076	88	C11H9N2+
169.0885	7	C12H11N+
170.0711	8	C10H8N3+
170.0839	6	C11H10N2+
170.0964	112	C12H12N+
171.0916	32	C11H11N2+
173.1072	11	C11H13N2+
178.0734	6	C9H10N2O2+
180.0806	13	C13H10N+
181.063	3	C11H7N3+
181.0763	16	C12H9N2+
182.0715	38	C11H8N3+
182.0839	28	C12H10N2+
182.0965	7	C13H12N+
183.0782	4	C11H9N3+
183.0916	64	C12H11N2+
184.0872	26	C11H10N3+
184.0992	37	C12H12N2+
185.0948	23	C11H11N3+
185.1072	44	C12H13N2+
186.115	8	C12H14N2+
192.068	3	C13H8N2+
192.0805	8	C14H10N+
193.0759	7	C13H9N2+
193.0886	18	C14H11N+
194.0706	3	C12H8N3+
195.0917	19	C13H11N2+
196.0869	15	C12H10N3+
196.0994	36	C13H12N2+
196.11	6	C14H14N+
197.1074	183	C13H13N2+
198.1025	16	C12H12N3+
199.1233	20	C13H15N2+
206.0836	6	C14H10N2+
206.0963	8	C15H12N+
207.0918	8	C14H11N2+
207.104	11	C15H13N+
208.112	51	C15H14N+
209.107	8	C14H13N2+
210.1024	116	C13H12N3+
210.1148	37	C14H14N2+
211.1102	24	C13H13N3+
211.1213	5	C14H15N2+
222.1027	4	C14H12N3+
223.1227	7	C15H15N2+
224.1182	28	C14H14N3+
225.1386	188	C15H17N2+
227.1543	5	C15H19N2+
235.1231	4	C16H15N2+
252.1489	20	C16H18N3+
270.1235	18	C15H16N3O2+
271.1444	17	C16H19N2O2+
283.1313	18	C16H17N3O2+
298.155	89	C17H20N3O2+
