Mass spectrum: Kinetin; LC-ESI-QFT; MS2; CE: 30; R=17500; [M-H]-
Name: Kinetin
Name: N-(furan-2-ylmethyl)-7H-purin-6-amine
Formula: C10H9N5O
Exact mass: 215.0807
SMILES: C(NC1=C2N=CN=C2N=CN1)C1=CC=CO1
InChI: InChI=1S/C10H9N5O/c1-2-7(16-3-1)4-11-9-8-10(13-5-12-8)15-6-14-9/h1-3,5-6H,4H2,(H2,11,12,13,14,15)
Instrument: Q Exactive Orbitrap (Thermo Scientific)
Instrument type: LC-ESI-QFT
Ms type: MS2
Ion mode: NEGATIVE
Ionization: ESI
Fragmentation mode: HCD
Collision energy: 30
Resolution: 17500
Column name: Acquity BEH C18 1.7um, 2.1x150mm (Waters)
Retention time: 11.237 min
Base peak: 214.0735
Precursor m/z: 214.0734
Precursor type: [M-H]-
Precursor intensity: 6517799.500732
m/z	relative intensity	assigned
69.0346	3	C4H5O-
92.0255	5	C4H2N3-
106.0284	2	C4H2N4-
107.0364	6	C4H3N4-
117.0205	15	C5HN4-
119.0363	1	C5H3N4-
121.0409	3	C6H5N2O-
132.0317	4	C5H2N5-
133.0394	795	C5H3N5-
134.0472	764	C5H4N5-
142.0412	3	C8H4N3-
144.0317	3	C6H2N5-
146.0473	11	C6H4N5-
158.0472	21	C7H4N5-
160.0263	7	C6H2N5O-
160.063	11	C7H6N5-
169.0522	8	C9H5N4-
170.0473	76	C8H4N5-
171.0546	1	C8H5N5-
171.0677	1	C9H7N4-
172.0629	7	C8H6N5-
173.0344	15	C7H3N5O-
186.0785	64	C9H8N5-
187.0626	30	C9H7N4O-
196.0629	290	C10H6N5-
198.0555	1	C10H6N4O-
199.05	5	C9H5N5O-
212.0581	1	C10H6N5O-
214.0735	999	C10H8N5O-
