Mass spectrum: UK-343664; LC-ESI-QFT; MS2; CE: 75; R=17500; [M+H]+
Name: UK-343664
Name: 3-ethyl-5-[5-(4-ethylpiperazin-1-yl)sulfonyl-2-propoxyphenyl]-2-(pyridin-2-ylmethyl)-4H-pyrazolo[4,3-d]pyrimidin-7-one
Formula: C28H35N7O4S
Exact mass: 565.2471
SMILES: CCCOC1=C(C=C(C=C1)S(=O)(=O)N1CCN(CC)CC1)C1=NC2=C(CC)N(CC3=CC=CC=N3)N=C2C(=O)N1
InChI: InChI=1S/C28H35N7O4S/c1-4-17-39-24-11-10-21(40(37,38)34-15-13-33(6-3)14-16-34)18-22(24)27-30-25-23(5-2)35(32-26(25)28(36)31-27)19-20-9-7-8-12-29-20/h7-12,18H,4-6,13-17,19H2,1-3H3,(H,30,31,36)
Instrument: Q Exactive Orbitrap (Thermo Scientific)
Instrument type: LC-ESI-QFT
Ms type: MS2
Ion mode: POSITIVE
Ionization: ESI
Fragmentation mode: HCD
Collision energy: 75
Resolution: 17500
Column name: Acquity BEH C18 1.7um, 2.1x150mm (Waters)
Retention time: 14.203 min
Base peak: 79.0211
Precursor m/z: 566.2544
Precursor type: [M+H]+
Precursor intensity: 4147503.0625
m/z	relative intensity	assigned
53.0023	4	C3HO+
53.0386	2	C4H5+
54.0339	4	C3H4N+
55.0418	1	C3H5N+
55.0543	1	C4H7+
56.0495	128	C3H6N+
57.0573	30	C3H7N+
58.0652	190	C3H8N+
65.0386	254	C5H5+
66.0463	7	C5H6+
67.0417	2	C4H5N+
68.0495	7	C4H6N+
70.0651	159	C4H8N+
71.0604	3	C3H7N2+
71.073	43	C4H9N+
72.0808	999	C4H10N+
78.034	2	C5H4N+
80.0368	3	C4H4N2+
80.0495	36	C5H6N+
81.0447	2	C4H5N2+
82.0526	2	C4H6N2+
82.0652	3	C5H8N+
83.0494	1	C5H7O+
83.0605	20	C4H7N2+
84.0682	30	C4H8N2+
84.0808	109	C5H10N+
85.076	5	C4H9N2+
91.0542	2	C7H7+
92.0495	171	C6H6N+
93.0574	254	C6H7N+
94.0652	33	C6H8N+
95.0604	3	C5H7N2+
96.0444	8	C5H6NO+
96.0683	6	C5H8N2+
96.0808	2	C6H10N+
97.0761	9	C5H9N2+
98.0802	2	H10N4O2+
98.0839	44	C5H10N2+
99.0917	123	C5H11N2+
105.0449	3	C6H5N2+
106.04	17	C5H4N3+
106.065	2	C7H8N+
107.0477	8	C5H5N3+
107.0603	4	C6H7N2+
108.0445	2	C6H6NO+
110.0601	515	C6H8NO+
111.0918	9	C6H11N2+
112.0994	2	C6H12N2+
113.1073	41	C6H13N2+
115.0542	3	C9H7+
115.123	9	C6H15N2+
117.0572	9	C8H7N+
118.0286	1	C7H4NO+
118.0527	1	C7H6N2+
118.0651	4	C8H8N+
119.0603	5	C7H7N2+
120.0445	4	C7H6NO+
120.0557	2	C6H6N3+
120.0805	1	C8H10N+
124.0757	6	C7H10NO+
128.0492	1	C9H6N+
129.0444	1	C8H5N2+
130.065	4	C9H8N+
131.0603	3	C8H7N2+
134.0601	1	C8H8NO+
136.0506	6	C6H6N3O+
138.0664	1	C6H8N3O+
142.0652	3	C10H8N+
143.0601	1	C9H7N2+
144.0556	3	C8H6N3+
145.0395	1	C8H5N2O+
145.076	3	C9H9N2+
146.0711	2	C8H8N3+
147.0915	1	C9H11N2+
153.0576	3	C11H7N+
154.06	2	C4H6N6O+
155.0603	6	C10H7N2+
156.0554	2	C9H6N3+
156.0682	3	C10H8N2+
156.0815	2	C5H16O3S+
157.0635	2	C9H7N3+
157.076	2	C10H9N2+
167.0731	1	C12H9N+
168.0684	4	C11H8N2+
169.076	10	C11H9N2+
170.0599	1	C11H8NO+
170.0714	7	C10H8N3+
171.0552	2	C10H7N2O+
172.0504	2	C9H6N3O+
179.0603	2	C12H7N2+
180.0556	2	C11H6N3+
181.0635	2	C11H7N3+
181.0758	5	C12H9N2+
182.0513	1	C6H8N5S+
182.06	10	C12H8NO+
182.0714	3	C11H8N3+
183.0668	2	C10H7N4+
184.0756	1	C12H10NO+
184.087	8	C11H10N3+
186.0662	5	C10H8N3O+
186.1025	1	C11H12N3+
193.0759	1	C13H9N2+
196.0866	2	C12H10N3+
197.0711	4	C12H9N2O+
197.0821	10	C11H9N4+
198.0664	4	C11H8N3O+
198.0903	5	C11H10N4+
201.0772	4	C10H9N4O+
210.0663	6	C12H8N3O+
211.0615	19	C11H7N4O+
211.098	10	C12H11N4+
212.0816	10	C12H10N3O+
213.0775	2	C5H15N3O4S+
213.1133	1	C12H13N4+
224.0692	4	C12H8N4O+
224.0812	3	C5H14N5O3S+
225.0771	39	C12H9N4O+
226.085	56	C12H10N4O+
227.093	7	C12H11N4O+
230.0798	9	C11H10N4O2+
236.0823	2	C8H16N2O4S+
238.0845	2	C5H14N6O3S+
239.0561	7	C12H7N4O2+
239.0927	23	C13H11N4O+
240.1007	2	C13H12N4O+
252.064	2	C13H8N4O2+
253.0721	30	C13H9N4O2+
254.0798	19	C13H10N4O2+
255.088	14	C13H11N4O2+
256.0714	3	C13H10N3O3+
267.088	11	C14H11N4O2+
269.067	2	C13H9N4O3+
269.1038	2	C14H13N4O2+
271.0821	1	C13H11N4O3+
283.083	7	C14H11N4O3+
286.0694	11	C13H10N4O4+
379.1261	2	C25H19N2S+
