Mass spectrum: Flufenpyr-ethyl; LC-ESI-QFT; MS2; CE: 45; R=17500; [M+H]+
Name: Flufenpyr-ethyl
Formula: C16H13ClF4N2O4
Exact mass: 408.0500
SMILES: CCOC(=O)COC1=CC(N2N=CC(=C(C)C2=O)C(F)(F)F)=C(F)C=C1Cl
InChI: InChI=1S/C16H13ClF4N2O4/c1-3-26-14(24)7-27-13-5-12(11(18)4-10(13)17)23-15(25)8(2)9(6-22-23)16(19,20)21/h4-6H,3,7H2,1-2H3
Instrument: Q Exactive Orbitrap (Thermo Scientific)
Instrument type: LC-ESI-QFT
Ms type: MS2
Ion mode: POSITIVE
Ionization: ESI
Fragmentation mode: HCD
Collision energy: 45
Resolution: 17500
Column name: Acquity BEH C18 1.7um, 2.1x150mm (Waters)
Retention time: 18.118 min
Base peak: 79.0212
Precursor m/z: 409.0573
Precursor type: [M+H]+
Precursor intensity: 8577169.5
m/z	relative intensity	assigned
59.0491	13	C3H7O+
62.9631	1	CClO+
70.0287	2	C3H4NO+
71.0291	1	C4H4F+
77.0196	1	C3H3F2+
83.0292	2	C5H4F+
84.9839	1	C4H2Cl+
89.0197	5	C4H3F2+
98.9996	1	C5H4Cl+
101.0197	3	C5H3F2+
104.0306	1	C4H4F2N+
108.0242	1	C6H3FN+
109.0324	1	C6H4FN+
111.0242	1	C6H4FO+
116.0306	11	C5H4F2N+
116.9901	6	C5H3ClF+
121.026	16	C5H4F3+
122.0212	3	C4H3F3N+
123.9947	2	C6H3ClN+
126.0349	3	C6H5FNO+
126.9945	2	C6H4ClO+
128.9901	5	C6H3ClF+
132.0011	1	C5H4ClFN+
136.0192	1	C7H3FNO+
136.0369	21	C5H5F3N+
142.0053	2	C6H5ClNO+
143.006	1	C7H5ClF+
144.0011	70	C6H4ClFN+
144.9851	3	C6H3ClFO+
145.009	1	C6H5ClFN+
147.0006	1	C6H5ClFO+
147.0355	2	C8H4FN2+
148.0369	1	C6H5F3N+
150.035	4	C8H5FNO+
151.0427	8	C8H6FNO+
151.9898	2	C7H3ClNO+
156.0012	2	C7H4ClFN+
156.0206	1	C2H7ClF4N+
156.9852	66	C7H3ClFO+
156.9962	21	C6H3ClFN2+
158.0169	1	C7H6ClFN+
159.0009	1	C7H5ClFO+
159.9963	1	C6H4ClFNO+
162.0108	2	C9H5ClN+
163.0239	1	C6H4F3NO+
164.0317	9	C6H5F3NO+
170.0168	5	C8H6ClFN+
171.996	14	C7H4ClFNO+
172.9801	1	C7H3ClFO2+
173.0038	7	C7H5ClFNO+
173.0507	1	C10H6FN2+
174.0115	2	C7H6ClFNO+
174.059	3	C10H7FN2+
175.0667	1	C10H8FN2+
177.0581	1	C10H8FNO+
179.0426	7	C6H6F3N2O+
185.0039	11	C8H5ClFNO+
186.0117	1	C8H6ClFNO+
190.029	3	C10H7ClN2+
195.0418	1	C7H12ClO4+
198.0117	8	C9H6ClFNO+
199.0071	20	C8H5ClFN2O+
199.991	29	C8H4ClFNO2+
200.0146	1	C8H6ClFN2O+
202.0537	9	C11H7FN2O+
202.9939	2	C11HF2O2+
203.0616	18	C11H8FN2O+
204.0493	7	C11H6F2N2+
210.0352	4	C10H8ClFN2+
211.0193	8	C10H7ClFNO+
212.0073	1	C10H5ClF2N+
213.0461	2	C12H6FN2O+
215.002	1	C8H5ClFN2O2+
215.0477	1	C11H7N2O3+
216.043	5	C10H6F4N+
217.9981	3	C9H4ClF3N+
218.0242	2	C11H7ClN2O+
219.0119	2	C11H5ClFN2+
219.9962	1	C11H4ClFNO+
223.0069	5	C10H5ClFN2O+
223.0477	18	C11H6F3N2+
224.0321	1	C8H8ClF3N2+
224.0556	20	C11H7F3N2+
225.0392	4	C11H6F3NO+
232.0137	3	C10H6ClF3N+
236.015	8	C11H6ClFN2O+
237.0226	39	C11H7ClFN2O+
238.0305	39	C11H8ClFN2O+
239.0045	1	C4H7ClF3N2O4+
239.0183	28	C11H6ClF2N2+
240.0023	11	C11H5ClF2NO+
242.0461	1	C11H6F4N2+
243.0542	41	C7H13ClFN2O4+
244.0389	3	C8H9ClF4N2+
244.0616	9	C11H8F4N2+
245.0091	7	C10H5ClF3N2+
245.0451	4	C10H12ClNO4+
247.007	17	C12H5ClFN2O+
251.0428	33	C12H6F3N2O+
252.0504	37	C12H7F3N2O+
253.0588	4	C14H12ClF2+
254.0051	2	C11H5ClF2N2O+
254.0462	1	C12H6F4N2+
255.054	1	C12H7F4N2+
257.0333	2	C11H5F4N2O+
259.0244	34	C11H7ClF3N2+
260.0085	17	C11H6ClF3NO+
262.0046	1	C11H5ClF4N+
264.9916	6	C10H4ClF4NO+
265.0168	5	C15H4FNO3+
266.0004	13	C15H5ClNO2+
267.0132	106	C12H6ClF2N2O+
269.9928	3	C12H4ClF3NO+
270.0167	1	C12H6ClF3N2+
271.0489	218	C12H7F4N2O+
272.0567	74	C12H8F4N2O+
279.0305	40	C11H8ClF4N2+
280.0146	16	C11H7ClF4NO+
283.0499	1	C15H11ClF3+
283.0682	1	C16H9F2N2O+
285.0038	12	C12H5ClF3N2O+
286.0117	2	C12H6ClF3N2O+
287.0194	268	C12H7ClF3N2O+
289.9991	44	C12H5ClF4NO+
291.0308	12	C12H8ClF4N2+
292.002	142	C11H5ClF4N2O+
299.0439	140	C13H7F4N2O2+
300.0517	35	C13H8F4N2O2+
305.0103	11	C12H6ClF4N2O+
305.0282	1	C15H8ClF2N2O+
306.0185	2	C12H7ClF4N2O+
307.0256	999	C12H8ClF4N2O+
313.0599	3	C16H13ClF3O+
315.0143	70	C13H7ClF3N2O2+
317.0098	6	C13H6ClF4N2O+
318.0179	5	C13H7ClF4N2O+
327.0761	1	C15H11F4N2O2+
335.0206	483	C13H8ClF4N2O2+
353.0311	1	C13H10ClF4N2O3+
363.0158	1	C14H8ClF4N2O3+
363.052	2	C15H12ClF4N2O2+
