Mass spectrum: Nootkatone; LC-ESI-QFT; MS2; CE: 30; R=17500; [M+H]+
Name: Nootkatone
Name: (4R,4aS,6R)-4,4a-dimethyl-6-prop-1-en-2-yl-3,4,5,6,7,8-hexahydronaphthalen-2-one
Formula: C15H22O
Exact mass: 218.1671
SMILES: C[C@@H]1CC(=O)C=C2CC[C@H](C[C@@]12C)C(C)=C
InChI: InChI=1S/C15H22O/c1-10(2)12-5-6-13-8-14(16)7-11(3)15(13,4)9-12/h8,11-12H,1,5-7,9H2,2-4H3/t11-,12-,15+/m1/s1
Instrument: Q Exactive Orbitrap (Thermo Scientific)
Instrument type: LC-ESI-QFT
Ms type: MS2
Ion mode: POSITIVE
Ionization: ESI
Fragmentation mode: HCD
Collision energy: 30
Resolution: 17500
Column name: Acquity BEH C18 1.7um, 2.1x150mm (Waters)
Retention time: 19.073 min
Base peak: 79.0211
Precursor m/z: 219.1743
Precursor type: [M+H]+
Precursor intensity: 7477031.75
m/z	relative intensity	assigned
55.0179	1	C3H3O+
55.0542	5	C4H7+
57.0335	1	C3H5O+
57.0699	4	C4H9+
67.0541	11	C5H7+
69.0334	17	C4H5O+
69.0698	20	C5H9+
71.049	1	C4H7O+
77.0385	1	C6H5+
79.0541	7	C6H7+
81.0699	122	C6H9+
83.049	4	C5H7O+
83.0855	20	C6H11+
85.0647	2	C5H9O+
91.0541	1	C7H7+
93.0699	30	C7H9+
95.0855	74	C7H11+
97.0648	55	C6H9O+
97.101	5	C7H13+
99.0803	1	C6H11O+
105.0698	15	C8H9+
107.0855	44	C8H11+
109.0648	16	C7H9O+
109.1012	96	C8H13+
111.0804	90	C7H11O+
117.0699	2	C9H9+
119.0855	31	C9H11+
121.0648	16	C8H9O+
121.1011	53	C9H13+
123.0804	25	C8H11O+
123.1168	82	C9H15+
125.0961	17	C8H13O+
131.0856	11	C10H11+
133.1012	16	C10H13+
135.0804	69	C9H11O+
135.1168	50	C10H15+
137.0961	29	C9H13O+
139.1119	4	C9H15O+
145.1011	49	C11H13+
147.1169	7	C11H15+
149.0961	102	C10H13O+
149.1325	22	C11H17+
151.1119	8	C10H15O+
159.1168	46	C12H15+
161.1325	69	C12H17+
162.104	1	C11H14O+
163.1117	229	C11H15O+
173.1325	19	C13H17+
175.1481	17	C13H19+
176.1196	8	C12H16O+
177.1274	32	C12H17O+
177.1637	20	C13H21+
191.1437	1	C13H19O+
191.1796	9	C14H23+
201.1638	83	C15H21+
204.1505	1	C14H20O+
219.1743	999	C15H23O+
