Mass spectrum: Dipropyl 2,5-pyridinedicarboxylate; LC-ESI-QFT; MS2; CE: 45; R=17500; [M+H]+
Name: Dipropyl 2,5-pyridinedicarboxylate
Name: Dipropyl isocinchomeronate
Name: dipropyl pyridine-2,5-dicarboxylate
Formula: C13H17NO4
Exact mass: 251.1158
SMILES: CCCOC(=O)C1=CC=C(N=C1)C(=O)OCCC
InChI: InChI=1S/C13H17NO4/c1-3-7-17-12(15)10-5-6-11(14-9-10)13(16)18-8-4-2/h5-6,9H,3-4,7-8H2,1-2H3
Instrument: Q Exactive Orbitrap (Thermo Scientific)
Instrument type: LC-ESI-QFT
Ms type: MS2
Ion mode: POSITIVE
Ionization: ESI
Fragmentation mode: HCD
Collision energy: 45
Resolution: 17500
Column name: Acquity BEH C18 1.7um, 2.1x150mm (Waters)
Retention time: 17.731 min
Base peak: 79.0212
Precursor m/z: 252.123
Precursor type: [M+H]+
Precursor intensity: 36185503.03125
m/z	relative intensity	assigned
53.0022	3	C3HO+
78.0337	5	C5H4N+
95.0369	3	C5H5NO+
112.0393	4	C5H6NO2+
122.0236	24	C6H4NO2+
140.0341	431	C6H6NO3+
154.0496	5	C7H8NO3+
164.0707	1	C9H10NO2+
168.0291	118	C7H6NO4+
182.0811	999	C9H12NO3+
184.0856	2	C13H12O+
196.0967	12	C10H14NO3+
210.076	275	C10H12NO4+
224.0916	3	C11H14NO4+
