Mass spectrum: 2-Ethylhexyl 4-(dimethylamino)benzoate; LC-ESI-QFT; MS2; CE: 90; R=17500; [M+H]+
Name: 2-Ethylhexyl 4-(dimethylamino)benzoate
Formula: C17H27NO2
Exact mass: 277.2042
SMILES: CCCCC(CC)COC(=O)C1=CC=C(C=C1)N(C)C
InChI: InChI=1S/C17H27NO2/c1-5-7-8-14(6-2)13-20-17(19)15-9-11-16(12-10-15)18(3)4/h9-12,14H,5-8,13H2,1-4H3
Instrument: Q Exactive Orbitrap (Thermo Scientific)
Instrument type: LC-ESI-QFT
Ms type: MS2
Ion mode: POSITIVE
Ionization: ESI
Fragmentation mode: HCD
Collision energy: 90
Resolution: 17500
Column name: Acquity BEH C18 1.7um, 2.1x150mm (Waters)
Retention time: 20.789 min
Base peak: 79.0211
Precursor m/z: 278.2115
Precursor type: [M+H]+
Precursor intensity: 39729610.84375
m/z	relative intensity	assigned
55.0543	3	C4H7+
57.0698	2	C4H9+
65.0384	4	C5H5+
77.0385	1	C6H5+
78.0463	2	C6H6+
79.0542	30	C6H7+
91.0541	1	C7H7+
95.0491	6	C6H7O+
105.0335	1	C7H5O+
106.0651	107	C7H8N+
107.0729	38	C7H9N+
120.0807	6	C8H10N+
121.0888	4	C8H11N+
122.0599	2	C7H8NO+
122.0965	2	C8H12N+
123.0676	3	C7H9NO+
134.06	640	C8H8NO+
150.0551	826	C8H8NO2+
151.0627	999	C8H9NO2+
166.0863	19	C9H12NO2+
