Mass spectrum: Imazethapyr; LC-ESI-QFT; MS2; CE: 15; R=17500; [M+H]+
Name: Imazethapyr
Name: 5-ethyl-2-(4-methyl-5-oxo-4-propan-2-yl-1H-imidazol-2-yl)pyridine-3-carboxylic acid
Formula: C15H19N3O3
Exact mass: 289.1426
SMILES: CCC1=CN=C(C2=NC(C)(C(C)C)C(=O)N2)C(=C1)C(O)=O
InChI: InChI=1S/C15H19N3O3/c1-5-9-6-10(13(19)20)11(16-7-9)12-17-14(21)15(4,18-12)8(2)3/h6-8H,5H2,1-4H3,(H,19,20)(H,17,18,21)
Instrument: Q Exactive Orbitrap (Thermo Scientific)
Instrument type: LC-ESI-QFT
Ms type: MS2
Ion mode: POSITIVE
Ionization: ESI
Fragmentation mode: HCD
Collision energy: 15
Resolution: 17500
Column name: Acquity BEH C18 1.7um, 2.1x150mm (Waters)
Retention time: 14.647 min
Base peak: 79.0211
Precursor m/z: 290.1499
Precursor type: [M+H]+
Precursor intensity: 23048236.8125
m/z	relative intensity	assigned
244.1437	1	C14H18N3O+
245.1283	4	C14H17N2O2+
248.103	9	C12H14N3O3+
262.155	8	C14H20N3O2+
272.1392	2	C15H18N3O2+
290.1497	999	C15H20N3O3+
