Mass spectrum: Z-Tetrachlorvinphos; LC-ESI-QFT; MS2; CE: 90; R=17500; [M+H]+
Name: Z-Tetrachlorvinphos
Name: Tetrachlorvinphos
Name: [(Z)-2-chloro-1-(2,4,5-trichlorophenyl)ethenyl] dimethyl phosphate
Formula: C10H9Cl4O4P
Exact mass: 363.8993
SMILES: COP(=O)(OC)O\C(=C/Cl)C1=C(Cl)C=C(Cl)C(Cl)=C1
InChI: InChI=1S/C10H9Cl4O4P/c1-16-19(15,17-2)18-10(5-11)6-3-8(13)9(14)4-7(6)12/h3-5H,1-2H3/b10-5-
Instrument: Q Exactive Orbitrap (Thermo Scientific)
Instrument type: LC-ESI-QFT
Ms type: MS2
Ion mode: POSITIVE
Ionization: ESI
Fragmentation mode: HCD
Collision energy: 90
Resolution: 17500
Column name: Acquity BEH C18 1.7um, 2.1x150mm (Waters)
Retention time: 18.351 min
Base peak: 79.0211
Precursor m/z: 364.9065
Precursor type: [M+H]+
Precursor intensity: 2339452.71875
m/z	relative intensity	assigned
64.9787	9	H2O2P+
78.9944	66	CH4O2P+
86.9633	12	C3ClO+
110.9634	26	C5ClO+
112.9999	210	CH6O4P+
131.9762	83	C8HCl+
132.9841	37	C8H2Cl+
141.0309	4	C3H10O4P+
144.9607	10	C6H3Cl2+
156.9608	31	C7H3Cl2+
166.9452	42	C8HCl2+
168.9608	62	C8H3Cl2+
184.9557	8	C8H3Cl2O+
196.967	21	C6H8Cl2OP+
202.9216	7	C8H2Cl3+
203.9297	999	C8H3Cl3+
