Mass spectrum: Hexachlorophene; LC-ESI-QFT; MS2; CE: 75; R=17500; [M-H]-
Name: Hexachlorophene
Name: 3,4,6-trichloro-2-[(2,3,5-trichloro-6-hydroxyphenyl)methyl]phenol
Formula: C13H6Cl6O2
Exact mass: 403.8499
SMILES: OC1=C(CC2=C(Cl)C(Cl)=CC(Cl)=C2O)C(Cl)=C(Cl)C=C1Cl
InChI: InChI=1S/C13H6Cl6O2/c14-6-2-8(16)12(20)4(10(6)18)1-5-11(19)7(15)3-9(17)13(5)21/h2-3,20-21H,1H2
Instrument: Q Exactive Orbitrap (Thermo Scientific)
Instrument type: LC-ESI-QFT
Ms type: MS2
Ion mode: NEGATIVE
Ionization: ESI
Fragmentation mode: HCD
Collision energy: 75
Resolution: 17500
Column name: Acquity BEH C18 1.7um, 2.1x150mm (Waters)
Retention time: 20.867 min
Base peak: 112.9856
Precursor m/z: 402.8426
Precursor type: [M-H]-
Precursor intensity: 1026417.060547
m/z	relative intensity	assigned
122.9643	41	C6ClO-
132.9614	27	C5H3Cl2-
158.941	999	C6HCl2O-
194.9176	411	C6H2Cl3O-
