Mass spectrum: 1,4-Diaminoanthraquinone; LC-ESI-QFT; MS2; CE: 60; R=17500; [M+H]+
Name: 1,4-Diaminoanthraquinone
Name: 1,4-diaminoanthracene-9,10-dione
Formula: C14H10N2O2
Exact mass: 238.0742
SMILES: NC1=CC=C(N)C2=C1C(=O)C1=CC=CC=C1C2=O
InChI: InChI=1S/C14H10N2O2/c15-9-5-6-10(16)12-11(9)13(17)7-3-1-2-4-8(7)14(12)18/h1-6H,15-16H2
Instrument: Q Exactive Orbitrap (Thermo Scientific)
Instrument type: LC-ESI-QFT
Ms type: MS2
Ion mode: POSITIVE
Ionization: ESI
Fragmentation mode: HCD
Collision energy: 60
Resolution: 17500
Column name: Acquity BEH C18 1.7um, 2.1x150mm (Waters)
Retention time: 16.073 min
Base peak: 79.0211
Precursor m/z: 239.0815
Precursor type: [M+H]+
Precursor intensity: 3302465.59375
m/z	relative intensity	assigned
65.0386	17	C5H5+
72.0444	37	C3H6NO+
79.0291	3	C4H3N2+
80.0495	8	C5H6N+
91.0543	6	C7H7+
92.0495	40	C6H6N+
93.0576	5	C6H7N+
95.0494	11	C6H7O+
105.0336	221	C7H5O+
105.0448	24	C6H5N2+
110.06	17	C6H8NO+
115.0543	6	C9H7+
118.0653	3	C8H8N+
129.0702	4	C10H9+
130.029	43	C8H4NO+
130.0655	3	C9H8N+
133.0396	4	C7H5N2O+
133.0651	6	C9H9O+
135.0556	15	C7H7N2O+
139.0544	18	C11H7+
141.07	6	C11H9+
142.0654	5	C10H8N+
144.0084	13	C8H2NO2+
154.0654	6	C11H8N+
155.0617	3	C10H7N2+
156.0812	11	C11H10N+
157.0649	9	C11H9O+
161.0348	70	C8H5N2O2+
161.0598	20	C10H9O2+
166.0653	178	C12H8N+
167.0495	28	C12H7O+
167.0732	26	C12H9N+
168.081	12	C12H10N+
169.0649	4	C12H9O+
170.0603	13	C11H8NO+
182.0602	26	C12H8NO+
182.0848	26	C12H10N2+
183.0924	23	C12H11N2+
184.076	48	C12H10NO+
185.0597	12	C12H9O2+
192.0684	63	C13H8N2+
193.0763	190	C13H9N2+
194.0604	122	C13H8NO+
195.0678	16	C13H9NO+
195.0921	6	C13H11N2+
196.076	10	C13H10NO+
198.0553	11	C12H8NO2+
199.0631	17	C12H9NO2+
210.0556	22	C13H8NO2+
210.0792	61	C13H10N2O+
211.087	157	C13H11N2O+
212.0709	113	C13H10NO2+
221.0712	283	C14H9N2O+
222.0552	99	C14H8NO2+
223.0631	112	C14H9NO2+
224.0588	11	C13H8N2O2+
237.0667	6	C14H9N2O2+
238.074	344	C14H10N2O2+
239.0815	999	C14H11N2O2+
