Mass spectrum: Myclobutanil; LC-ESI-QFT; MS2; CE: 30; R=17500; [M+H]+
Name: Myclobutanil
Name: 2-(4-chlorophenyl)-2-(1,2,4-triazol-1-ylmethyl)hexanenitrile
Formula: C15H17ClN4
Exact mass: 288.1142
SMILES: CCCCC(CN1C=NC=N1)(C#N)C1=CC=C(Cl)C=C1
InChI: InChI=1S/C15H17ClN4/c1-2-3-8-15(9-17,10-20-12-18-11-19-20)13-4-6-14(16)7-5-13/h4-7,11-12H,2-3,8,10H2,1H3
Instrument: Q Exactive Orbitrap (Thermo Scientific)
Instrument type: LC-ESI-QFT
Ms type: MS2
Ion mode: POSITIVE
Ionization: ESI
Fragmentation mode: HCD
Collision energy: 30
Resolution: 17500
Column name: Acquity BEH C18 1.7um, 2.1x150mm (Waters)
Retention time: 17.761 min
Base peak: 79.0211
Precursor m/z: 289.1215
Precursor type: [M+H]+
Precursor intensity: 10195492.5
m/z	relative intensity	assigned
55.0542	1	C4H7+
70.0399	999	C2H4N3+
74.0963	1	C4H12N+
81.07	1	C6H9+
82.0651	2	C5H8N+
83.0478	2	C3H5N3+
95.0728	1	C6H9N+
108.0806	1	C7H10N+
125.0152	99	C7H6Cl+
151.0309	25	C9H8Cl+
163.0308	1	C10H8Cl+
164.026	7	C9H7ClN+
165.0341	3	C9H8ClN+
166.0417	7	C9H9ClN+
167.0854	1	C13H11+
168.0934	3	C13H12+
175.031	1	C11H8Cl+
178.0417	9	C10H9ClN+
185.12	1	C13H15N+
192.0573	3	C11H11ClN+
193.0778	13	C12H14Cl+
203.062	11	C13H12Cl+
220.0886	38	C13H15ClN+
289.1212	140	C15H18ClN4+
