Mass spectrum: Anastrozole; LC-ESI-QFT; MS2; CE: 60; R=17500; [M+H]+
Name: Anastrozole
Name: 2-[3-(2-cyanopropan-2-yl)-5-(1,2,4-triazol-1-ylmethyl)phenyl]-2-methylpropanenitrile
Formula: C17H19N5
Exact mass: 293.1640
SMILES: CC(C)(C#N)C1=CC(=CC(CN2C=NC=N2)=C1)C(C)(C)C#N
InChI: InChI=1S/C17H19N5/c1-16(2,9-18)14-5-13(8-22-12-20-11-21-22)6-15(7-14)17(3,4)10-19/h5-7,11-12H,8H2,1-4H3
Instrument: Q Exactive Orbitrap (Thermo Scientific)
Instrument type: LC-ESI-QFT
Ms type: MS2
Ion mode: POSITIVE
Ionization: ESI
Fragmentation mode: HCD
Collision energy: 60
Resolution: 17500
Column name: Acquity BEH C18 1.7um, 2.1x150mm (Waters)
Retention time: 14.587 min
Base peak: 79.0211
Precursor m/z: 294.1713
Precursor type: [M+H]+
Precursor intensity: 5056008.21875
m/z	relative intensity	assigned
68.0494	1	C4H6N+
91.0543	6	C7H7+
103.0543	1	C8H7+
115.0542	8	C9H7+
116.0622	2	C9H8+
117.0575	1	C8H7N+
117.0699	1	C9H9+
128.0622	1	C10H8+
129.0699	19	C10H9+
130.0659	4	C9H8N+
130.0778	58	C10H10+
131.0856	25	C10H11+
141.07	2	C11H9+
142.0652	41	C10H8N+
143.073	5	C10H9N+
143.0856	7	C11H11+
144.0811	1	C10H10N+
144.0934	1	C11H12+
154.0653	1	C11H8N+
155.0731	2	C11H9N+
156.081	12	C11H10N+
156.0931	4	C12H12+
157.0887	63	C11H11N+
158.0966	7	C11H12N+
158.1091	1	C12H14+
160.076	1	C8H8N4+
165.07	1	C13H9+
166.0778	1	C13H10+
168.0808	12	C12H10N+
169.076	1	C11H9N2+
170.0964	10	C12H12N+
171.1168	8	C13H15+
181.1012	1	C14H13+
182.0964	4	C13H12N+
183.1044	14	C13H13N+
195.0919	26	C13H11N2+
198.1279	36	C14H16N+
209.1075	43	C14H13N2+
210.1153	154	C14H14N2+
225.1387	999	C15H17N2+
228.1257	9	C12H14N5+
242.1415	4	C13H16N5+
