Mass spectrum: Chloramphenicol; LC-ESI-QFT; MS2; CE: 45; R=17500; [M-H]-
Name: Chloramphenicol
Name: 2,2-dichloro-N-[(1R,2R)-1,3-dihydroxy-1-(4-nitrophenyl)propan-2-yl]acetamide
Formula: C11H12Cl2N2O5
Exact mass: 322.0123
SMILES: OC[C@@H](NC(=O)C(Cl)Cl)[C@H](O)C1=CC=C(C=C1)[N+]([O-])=O
InChI: InChI=1S/C11H12Cl2N2O5/c12-10(13)11(18)14-8(5-16)9(17)6-1-3-7(4-2-6)15(19)20/h1-4,8-10,16-17H,5H2,(H,14,18)/t8-,9-/m1/s1
Instrument: Q Exactive Orbitrap (Thermo Scientific)
Instrument type: LC-ESI-QFT
Ms type: MS2
Ion mode: NEGATIVE
Ionization: ESI
Fragmentation mode: HCD
Collision energy: 45
Resolution: 17500
Column name: Acquity BEH C18 1.7um, 2.1x150mm (Waters)
Retention time: 13.753 min
Base peak: 321.005
Precursor m/z: 321.0051
Precursor type: [M-H]-
Precursor intensity: 13845445.87939
m/z	relative intensity	assigned
61.9884	12	NO3-
65.9988	3	C3NO-
70.9461	10	Cl2H-
71.0138	8	C3H3O2-
78.0349	170	C5H4N-
79.0189	4	C5H3O-
82.9461	158	CHCl2-
84.0091	44	C3H2NO2-
86.0249	5	C3H4NO2-
91.019	3	C6H3O-
92.0267	5	C6H4O-
93.0345	13	C6H5O-
95.0138	6	C5H3O2-
98.0247	9	C4H4NO2-
105.0221	19	C6H3NO-
106.0298	17	C6H4NO-
108.0217	10	C6H4O2-
117.0345	6	C8H5O-
118.0298	5	C7H4NO-
121.0295	999	C7H5O2-
122.0248	77	C6H4NO2-
123.0327	9	C6H5NO2-
124.0406	13	C6H6NO2-
125.952	9	C2H2Cl2NO-
126.936	42	C2HCl2O2-
131.0375	5	C8H5NO-
133.0296	5	C8H5O2-
134.0375	3	C8H6O2-
135.0326	24	C7H5NO2-
136.0404	15	C7H6NO2-
137.0246	3	C7H5O3-
138.0197	3	C6H4NO3-
146.0374	10	C9H6O2-
148.0405	127	C8H6NO2-
150.0198	39	C7H4NO3-
151.0275	911	C7H5NO3-
152.0353	923	C7H6NO3-
159.0325	57	C9H5NO2-
161.0356	17	C8H5N2O2-
162.0198	26	C8H4NO3-
164.0355	8	C8H6NO3-
166.0144	31	C7H4NO4-
166.051	8	C8H8NO3-
175.0269	3	C9H5NO3-
176.0353	69	C9H6NO3-
179.0463	26	C8H7N2O3-
194.0459	4	C9H8NO4-
219.0412	6	C10H7N2O4-
