Mass spectrum: Azacyclotridecan-2-one; LC-ESI-QFT; MS2; CE: 90; R=17500; [M+H]+
Name: Azacyclotridecan-2-one
Formula: C12H23NO
Exact mass: 197.1780
SMILES: O=C1CCCCCCCCCCCN1
InChI: InChI=1S/C12H23NO/c14-12-10-8-6-4-2-1-3-5-7-9-11-13-12/h1-11H2,(H,13,14)
Instrument: Q Exactive Orbitrap (Thermo Scientific)
Instrument type: LC-ESI-QFT
Ms type: MS2
Ion mode: POSITIVE
Ionization: ESI
Fragmentation mode: HCD
Collision energy: 90
Resolution: 17500
Column name: Acquity BEH C18 1.7um, 2.1x150mm (Waters)
Retention time: 17.456 min
Base peak: 79.0211
Precursor m/z: 198.1852
Precursor type: [M+H]+
Precursor intensity: 37318466
m/z	relative intensity	assigned
53.0022	85	C3HO+
53.0386	37	C4H5+
53.9975	14	C2NO+
54.0339	12	C3H4N+
55.0179	128	C3H3O+
55.0543	999	C4H7+
56.0495	21	C3H6N+
57.0699	286	C4H9+
58.0651	20	C3H8N+
60.0444	7	C2H6NO+
65.0386	11	C5H5+
67.0542	111	C5H7+
68.0495	9	C4H6N+
69.0699	390	C5H9+
70.0651	20	C4H8N+
71.0491	5	C4H7O+
71.0855	26	C5H11+
72.0444	36	C3H6NO+
72.0808	38	C4H10N+
74.0601	1	C3H8NO+
77.0385	4	C6H5+
79.0542	137	C6H7+
80.0495	5	C5H6N+
81.0699	78	C6H9+
82.0651	46	C5H8N+
83.0492	21	C5H7O+
83.0855	92	C6H11+
84.0807	7	C5H10N+
85.0649	2	C5H9O+
85.1014	2	C6H13+
86.0601	31	C4H8NO+
86.0964	18	C5H12N+
88.0756	2	C4H10NO+
91.0543	46	C7H7+
93.0699	50	C7H9+
94.0652	4	C6H8N+
95.0492	21	C6H7O+
95.0856	37	C7H11+
96.0808	33	C6H10N+
97.0649	22	C6H9O+
97.1012	20	C7H13+
98.0964	1	C6H12N+
100.0757	10	C5H10NO+
100.1122	5	C6H14N+
105.0698	7	C8H9+
107.0855	10	C8H11+
108.0808	6	C7H10N+
109.065	2	C7H9O+
109.0886	5	C7H11N+
109.1011	2	C8H13+
110.0966	7	C7H12N+
111.0805	5	C7H11O+
114.0916	1	C6H12NO+
121.1012	2	C9H13+
122.0966	1	C8H12N+
124.1123	2	C8H14N+
198.1852	11	C12H24NO+
