Mass spectrum: Pyrithiobac; LC-ESI-QFT; MS2; CE: 60; R=17500; [M-H]-
Name: Pyrithiobac
Name: 2-chloro-6-(4,6-dimethoxypyrimidin-2-yl)sulfanylbenzoic acid
Formula: C13H11ClN2O4S
Exact mass: 326.0128
SMILES: COC1=CC(OC)=NC(SC2=C(C(O)=O)C(Cl)=CC=C2)=N1
InChI: InChI=1S/C13H11ClN2O4S/c1-19-9-6-10(20-2)16-13(15-9)21-8-5-3-4-7(14)11(8)12(17)18/h3-6H,1-2H3,(H,17,18)
Instrument: Q Exactive Orbitrap (Thermo Scientific)
Instrument type: LC-ESI-QFT
Ms type: MS2
Ion mode: NEGATIVE
Ionization: ESI
Fragmentation mode: HCD
Collision energy: 60
Resolution: 17500
Column name: Acquity BEH C18 1.7um, 2.1x150mm (Waters)
Retention time: 17.343 min
Base peak: 329.1063
Precursor m/z: 325.0055
Precursor type: [M-H]-
Precursor intensity: 1164084.640625
m/z	relative intensity	assigned
65.9986	163	C3NO-
79.0303	31	C4H3N2-
79.9572	39	O3S-
150.0117	192	C8H5ClN-
155.0464	36	C6H7N2O3-
164.9988	40	C8H4ClNO-
183.0122	999	C8H7O3S-
184.02	172	C8H8O3S-
193.0173	31	C9H6ClN2O-
197.0276	108	C9H9O3S-
216.0101	204	C11H5ClN2O-
