Mass spectrum: Triamcinolone; LC-ESI-QFT; MS2; CE: 15; R=17500; [M+H]+
Name: Triamcinolone
Name: (8S,9R,10S,11S,13S,14S,16R,17S)-9-fluoro-11,16,17-trihydroxy-17-(2-hydroxyacetyl)-10,13-dimethyl-6,7,8,11,12,14,15,16-octahydrocyclopenta[a]phenanthren-3-one
Formula: C21H27FO6
Exact mass: 394.1792
SMILES: C[C@]12C[C@H](O)[C@@]3(F)[C@@H](CCC4=CC(=O)C=C[C@]34C)[C@@H]1C[C@@H](O)[C@]2(O)C(=O)CO
InChI: InChI=1S/C21H27FO6/c1-18-6-5-12(24)7-11(18)3-4-13-14-8-15(25)21(28,17(27)10-23)19(14,2)9-16(26)20(13,18)22/h5-7,13-16,23,25-26,28H,3-4,8-10H2,1-2H3/t13-,14-,15+,16-,18-,19-,20-,21-/m0/s1
Instrument: Q Exactive Orbitrap (Thermo Scientific)
Instrument type: LC-ESI-QFT
Ms type: MS2
Ion mode: POSITIVE
Ionization: ESI
Fragmentation mode: HCD
Collision energy: 15
Resolution: 17500
Column name: Acquity BEH C18 1.7um, 2.1x150mm (Waters)
Retention time: 14.647 min
Base peak: 79.0211
Precursor m/z: 395.1864
Precursor type: [M+H]+
Precursor intensity: 1686491.625
m/z	relative intensity	assigned
137.0601	21	C8H9O2+
147.0805	86	C10H11O+
155.0703	19	C8H11O3+
171.0803	44	C12H11O+
173.0966	16	C12H13O+
185.096	94	C13H13O+
187.0759	37	C12H11O2+
197.0961	30	C14H13O+
199.1117	21	C14H15O+
211.1111	21	C15H15O+
213.1276	58	C15H17O+
223.1116	95	C16H15O+
225.1275	291	C16H17O+
235.1115	22	C17H15O+
237.1277	140	C17H17O+
241.1223	22	C16H17O2+
251.1436	22	C18H19O+
253.1224	31	C17H17O2+
255.1379	16	C17H19O2+
261.1272	58	C19H17O+
263.1434	77	C19H19O+
267.1372	16	C18H19O2+
275.1433	74	C20H19O+
277.1212	15	C19H17O2+
279.1386	82	C16H20FO3+
281.1537	45	C19H21O2+
291.1378	43	C20H19O2+
293.1534	119	C20H21O2+
303.1381	66	C21H19O2+
339.1591	458	C21H23O4+
357.1699	999	C21H25O5+
