Mass spectrum: Acetyl tributyl citrate; LC-ESI-QFT; MS2; CE: 60; R=17500; [M+H]+
Name: Acetyl tributyl citrate
Name: tributyl 2-acetyloxypropane-1,2,3-tricarboxylate
Formula: C20H34O8
Exact mass: 402.2254
SMILES: CCCCOC(=O)CC(CC(=O)OCCCC)(OC(C)=O)C(=O)OCCCC
InChI: InChI=1S/C20H34O8/c1-5-8-11-25-17(22)14-20(28-16(4)21,19(24)27-13-10-7-3)15-18(23)26-12-9-6-2/h5-15H2,1-4H3
Instrument: Q Exactive Orbitrap (Thermo Scientific)
Instrument type: LC-ESI-QFT
Ms type: MS2
Ion mode: POSITIVE
Ionization: ESI
Fragmentation mode: HCD
Collision energy: 60
Resolution: 17500
Column name: Acquity BEH C18 1.7um, 2.1x150mm (Waters)
Retention time: 19.698 min
Base peak: 79.0211
Precursor m/z: 403.2326
Precursor type: [M+H]+
Precursor intensity: 10217575.75
m/z	relative intensity	assigned
57.0699	177	C4H9+
61.0284	34	C2H5O2+
68.9971	344	C3HO2+
87.0077	40	C3H3O3+
111.0077	176	C5H3O3+
125.0239	18	C6H5O3+
129.0183	999	C5H5O4+
139.0028	285	C6H3O4+
157.0133	64	C6H5O5+
194.0962	24	C11H14O3+
