Mass spectrum: Norflurazon; LC-ESI-QFT; MS2; CE: 90; R=17500; [M+H]+
Name: Norflurazon
Name: 4-chloro-5-(methylamino)-2-[3-(trifluoromethyl)phenyl]pyridazin-3-one
Formula: C12H9ClF3N3O
Exact mass: 303.0386
SMILES: CNC1=C(Cl)C(=O)N(N=C1)C1=CC=CC(=C1)C(F)(F)F
InChI: InChI=1S/C12H9ClF3N3O/c1-17-9-6-18-19(11(20)10(9)13)8-4-2-3-7(5-8)12(14,15)16/h2-6,17H,1H3
Instrument: Q Exactive Orbitrap (Thermo Scientific)
Instrument type: LC-ESI-QFT
Ms type: MS2
Ion mode: POSITIVE
Ionization: ESI
Fragmentation mode: HCD
Collision energy: 90
Resolution: 17500
Column name: Acquity BEH C18 1.7um, 2.1x150mm (Waters)
Retention time: 16.641 min
Base peak: 79.0212
Precursor m/z: 304.0459
Precursor type: [M+H]+
Precursor intensity: 18204842
m/z	relative intensity	assigned
52.0182	73	C3H2N+
53.0022	10	C3HO+
53.0387	5	C4H5+
54.0338	128	C3H4N+
55.0179	4	C3H3O+
55.029	7	C2H3N2+
55.0416	11	C3H5N+
56.0131	8	C2H2NO+
58.0288	209	C2H4NO+
60.0245	2	C2H3FN+
60.9839	80	C2H2Cl+
61.9791	9	CHClN+
62.9632	42	CClO+
62.9995	11	C2H4Cl+
63.0229	65	C5H3+
63.9948	36	CH3ClN+
64.0307	9	C5H4+
66.0212	5	C3H2N2+
66.0338	37	C4H4N+
67.0291	20	C3H3N2+
67.0416	12	C4H5N+
68.0131	7	C3H2NO+
68.0494	53	C4H6N+
69.0447	238	C3H5N2+
70.0288	3	C3H4NO+
70.0526	11	C3H6N2+
71.0291	8	C4H4F+
72.9839	33	C3H2Cl+
73.9791	27	C2HClN+
74.987	28	C2H2ClN+
74.9995	4	C3H4Cl+
75.004	22	C3HF2+
75.0229	44	C6H3+
75.9948	45	C2H3ClN+
76.0181	9	C5H2N+
78.0105	10	C2H5ClN+
78.0338	6	C5H4N+
79.0178	4	C5H3O+
79.0291	12	C4H3N2+
80.0369	23	C4H4N2+
80.0494	4	C5H6N+
81.0447	61	C4H5N2+
82.0288	45	C4H4NO+
83.0291	60	C5H4F+
85.9792	25	C3HClN+
86.987	6	C3H2ClN+
87.9949	999	C3H3ClN+
89.0027	233	C3H4ClN+
90.0106	33	C3H5ClN+
90.999	16	C3HF2O+
91.0417	105	C6H5N+
92.0256	6	C6H4O+
92.0369	9	C5H4N2+
93.0134	8	C6H2F+
93.0573	33	C6H7N+
95.0492	11	C6H7O+
96.0243	8	C5H3FN+
96.0369	2	CH4F2N3+
96.0444	26	C5H6NO+
97.0085	12	C5H2FO+
97.0397	15	C4H5N2O+
98.0361	4	C2H9ClNO+
98.9744	3	C3ClN2+
99.0231	10	C8H3+
99.9821	10	C3HClN2+
99.9948	22	C4H3ClN+
100.0182	96	C7H2N+
101.0025	2	C4H4ClN+
101.0199	15	C5H3F2+
102.0105	789	C4H5ClN+
102.0276	79	C5H4F2+
103.9897	32	C3H3ClNO+
104.0494	5	C7H6N+
105.0447	3	C6H5N2+
105.0573	4	C7H7N+
107.0127	5	C3H6ClNO+
107.0291	35	C7H4F+
108.0317	2	C5H4N2O+
108.0445	3	C6H6NO+
109.0283	4	C3H8ClNO+
109.0396	23	C5H5N2O+
109.0448	18	C7H6F+
110.04	35	C6H5FN+
111.0241	32	C6H4FO+
111.0479	22	C6H6FN+
113.0197	60	C6H3F2+
113.0397	58	C6H6FO+
114.0106	11	C5H5ClN+
114.0276	58	C6H4F2+
114.0344	3	C5H5FNO+
115.0058	76	C4H4ClN2+
115.0354	18	C6H5F2+
115.0542	34	C9H7+
115.9898	101	C4H3ClNO+
117.0573	11	C8H7N+
118.0055	6	C4H5ClNO+
118.0288	13	C7H4NO+
119.0291	13	C8H4F+
120.0245	56	C7H3FN+
122.0402	11	C7H5FN+
123.0239	7	C2H3F2N3O+
123.0353	63	C6H4FN2+
124.0507	10	C5H6N3O+
125.0198	162	C7H3F2+
126.0276	144	C7H4F2+
127.0354	79	C7H5F2+
128.0496	8	C9H6N+
129.0146	6	C6H3F2O+
129.0343	4	C6H8ClN+
129.0447	9	C8H5N2+
130.0054	8	C5H5ClNO+
130.0225	16	C6H4F2O+
131.0133	133	C5H6ClNO+
132.0246	6	C8H3FN+
133.026	273	C6H4F3+
133.0446	15	C4H5F2N3+
134.04	6	C8H5FN+
135.0479	9	C8H6FN+
138.0349	55	C7H5FNO+
139.0354	42	C8H5F2+
140.0307	655	C7H4F2N+
141.0259	268	C6H3F2N2+
141.0383	16	C7H5F2N+
142.0464	64	C7H6F2N+
142.0651	8	C10H8N+
143.0006	23	C5H4ClN2O+
143.03	33	C2H4F3N3O+
143.0605	4	C9H7N2+
143.0728	7	C10H9N+
144.0084	3	C5H5ClN2O+
144.0372	20	C10H5F+
145.026	656	C7H4F3+
146.04	8	C9H5FN+
146.0527	14	C10H7F+
146.0591	3	C9H8NO+
147.0352	47	C8H4FN2+
148.0305	253	C7H3FN3+
149.0149	10	C4H5ClFN3+
149.0514	2	C8H6FN2+
150.0349	8	C8H5FNO+
151.0354	136	C9H5F2+
152.0307	52	C8H4F2N+
152.043	13	C4H5F3N3+
152.0503	5	C8H7FNO+
153.0383	6	C8H5F2N+
153.0449	10	C10H5N2+
153.0575	2	C11H7N+
154.0396	7	C9H4N3+
154.0464	6	C8H6F2N+
154.0526	2	C10H6N2+
154.065	11	C11H8N+
155.0603	9	C10H7N2+
156.0443	4	C10H6NO+
156.0555	4	C9H6N3+
156.062	6	C8H8F2N+
157.026	8	C8H4F3+
157.0392	4	C9H5N2O+
157.0459	3	C8H7F2O+
158.0174	135	C4H7ClF2NO+
158.0405	29	C10H5FN+
159.0349	12	C9H4FN2+
159.0418	3	C8H6F3+
160.0273	52	C5H7ClN3O+
160.0368	159	C7H5F3N+
161.0448	99	C7H6F3N+
162.0278	15	C10H4F2+
163.0364	17	C7H6F3O+
163.0551	7	C5H7F2N3O+
164.0432	255	C10H6F2+
165.039	11	C9H5F2N+
165.0514	23	C10H7F2+
166.0462	39	C9H6F2N+
167.0058	20	C9H5ClF+
167.0303	7	C9H5F2O+
167.0416	20	C8H5F2N2+
168.0011	51	C8H4ClFN+
168.0256	83	C8H4F2NO+
170.0337	6	C9H5F3+
170.0599	6	C11H8NO+
171.0288	9	C8H4F3N+
171.0363	7	C7H5F2N2O+
171.0554	4	C10H7N2O+
172.0369	79	C8H5F3N+
172.0557	48	C11H7FN+
173.0322	53	C7H4F3N2+
173.0509	45	C10H6FN2+
173.0632	3	C11H8FN+
173.0708	5	C10H9N2O+
174.035	2	C10H5FNO+
174.0521	19	C8H7F3N+
174.0589	2	C10H7FN2+
176.0308	18	C10H4F2N+
177.038	4	C10H5F2N+
177.0457	3	C9H6FN2O+
178.0465	66	C10H6F2N+
179.0415	7	C9H5F2N2+
180.0134	5	C5H5ClF2N3+
180.0258	2	C9H4F2NO+
180.0627	4	C7H9F3NO+
181.0328	13	C9H5F2NO+
182.021	7	C9H3F3N+
182.0411	4	C9H6F2NO+
183.0289	19	C9H4F3N+
183.0414	6	C10H6F3+
184.0368	5	C9H5F3N+
185.045	23	C9H6F3N+
186.0402	4	C8H5F3N2+
187.0475	12	C8H6F3N2+
188.0319	5	C8H5F3NO+
189.0212	3	C10H6ClN2+
190.0467	4	C11H6F2N+
190.9871	16	C8H3ClF3+
191.0415	16	C10H5F2N2+
192.062	82	C11H8F2N+
193.0026	5	C8H5ClF3+
193.0695	15	C11H9F2N+
194.0413	8	C10H6F2NO+
194.0646	2	C10H8F2N2+
195.0116	4	C12H2FNO+
196.0367	11	C10H5F3N+
198.0395	3	C9H5F3N2+
198.0529	4	C10H7F3N+
199.0477	117	C9H6F3N2+
200.007	3	C12H2F2O+
200.0318	29	C9H5F3NO+
200.0617	4	C11H7FN3+
201.0457	3	C11H6FN2O+
202.0529	2	C11H7FN2O+
205.016	2	C10H6ClN2O+
205.0329	5	C11H5F2NO+
206.0285	17	C10H4F2N2O+
206.0404	5	C11H6F2NO+
207.0119	4	C10H5ClFN2+
210.0396	3	C10H5F3N2+
212.0074	7	C10H5ClF2N+
213.0148	5	C8H2F3N3O+
213.0634	10	C10H8F3N2+
214.0105	3	C9H5ClF2N2+
214.0397	3	C11H5FN3O+
216.0017	5	C9H5ClF2NO+
217.0022	2	C10H5ClF3+
217.9978	41	C9H4ClF3N+
219.0362	5	C11H5F2N2O+
220.0438	10	C11H6F2N2O+
220.0559	3	C12H8F2NO+
221.0522	22	C11H7F2N2O+
221.9985	6	C10H4ClFN2O+
223.0067	3	C10H5ClFN2O+
223.0475	6	C11H6F3N2+
226.0348	4	C10H5F3N2O+
227.0423	6	C10H6F3N2O+
230.0295	2	C9H7ClF2N3+
234.0171	12	C9H6ClF3N2+
234.0467	4	C11H6F2N3O+
235.0009	21	C9H5ClF3NO+
240.9975	11	C10H4ClF2N2O+
241.0578	7	C11H8F3N2O+
242.005	7	C10H5ClF2N2O+
247.0555	2	C12H7F2N3O+
248.0632	11	C12H8F2N3O+
254.0539	2	C11H7F3N3O+
262.0113	6	C10H6ClF3N2O+
282.0243	4	C12H7ClF2N3O+
283.0324	3	C12H8ClF2N3O+
284.0386	2	C12H9ClF2N3O+
