Mass spectrum: Fadrozole; LC-ESI-QFT; MS2; CE: 75; R=17500; [M+H]+
Name: Fadrozole
Name: 4-(5,6,7,8-tetrahydroimidazo[1,5-a]pyridin-5-yl)benzonitrile
Formula: C14H13N3
Exact mass: 223.1109
SMILES: N#CC1=CC=C(C=C1)C1CCCC2=CN=CN12
InChI: InChI=1S/C14H13N3/c15-8-11-4-6-12(7-5-11)14-3-1-2-13-9-16-10-17(13)14/h4-7,9-10,14H,1-3H2
Instrument: Q Exactive Orbitrap (Thermo Scientific)
Instrument type: LC-ESI-QFT
Ms type: MS2
Ion mode: POSITIVE
Ionization: ESI
Fragmentation mode: HCD
Collision energy: 75
Resolution: 17500
Column name: Acquity BEH C18 1.7um, 2.1x150mm (Waters)
Retention time: 10.622 min
Base peak: 79.0211
Precursor m/z: 224.1182
Precursor type: [M+H]+
Precursor intensity: 16428642.9375
m/z	relative intensity	assigned
52.0181	1	C3H2N+
54.0338	64	C3H4N+
55.0417	15	C3H5N+
68.0494	11	C4H6N+
69.0447	7	C3H5N2+
80.0495	5	C5H6N+
81.0447	802	C4H5N2+
82.0525	999	C4H6N2+
83.0603	1	C4H7N2+
89.0385	6	C7H5+
94.0652	2	C6H8N+
95.0491	2	C4H5N3+
95.0604	38	C5H7N2+
103.0542	9	C8H7+
104.0496	2	C7H6N+
107.0604	14	C6H7N2+
108.0682	36	C6H8N2+
115.0542	11	C9H7+
116.0494	75	C8H6N+
121.076	3	C7H9N2+
128.0621	6	C10H8+
129.0698	17	C10H9+
130.0651	11	C9H8N+
140.0494	3	C10H6N+
142.0651	11	C10H8N+
146.0964	1	C10H12N+
154.0652	1	C11H8N+
155.0604	2	C10H7N2+
156.0806	7	C11H10N+
169.0761	1	C11H9N2+
180.0806	1	C13H10N+
182.0711	1	C11H8N3+
224.1182	20	C14H14N3+
