Mass spectrum: N-(3-Chloro-4-methylphenyl)acetamide; LC-ESI-QFT; MS2; CE: 60; R=17500; [M-H]-
Name: N-(3-Chloro-4-methylphenyl)acetamide
Formula: C9H10ClNO
Exact mass: 183.0451
SMILES: CC(=O)NC1=CC(Cl)=C(C)C=C1
InChI: InChI=1S/C9H10ClNO/c1-6-3-4-8(5-9(6)10)11-7(2)12/h3-5H,1-2H3,(H,11,12)
Instrument: Q Exactive Orbitrap (Thermo Scientific)
Instrument type: LC-ESI-QFT
Ms type: MS2
Ion mode: NEGATIVE
Ionization: ESI
Fragmentation mode: HCD
Collision energy: 60
Resolution: 17500
Column name: Acquity BEH C18 1.7um, 2.1x150mm (Waters)
Retention time: 16.441 min
Base peak: 197.0204
Precursor m/z: 182.0378
Precursor type: [M-H]-
Precursor intensity: 2714830.529785
m/z	relative intensity	assigned
80.0268	42	C5H4O-
108.0218	114	C3H7ClNO-
140.0273	999	C7H7ClN-
146.0612	185	C9H8NO-
182.0379	423	C9H9ClNO-
