Mass spectrum: Acephate; LC-ESI-QFT; MS2; CE: 45; R=17500; [M-H]-
Name: Acephate
Name: N-[methoxy(methylsulfanyl)phosphoryl]acetamide
Formula: C4H10NO3PS
Exact mass: 183.0119
SMILES: COP(=O)(NC(C)=O)SC
InChI: InChI=1S/C4H10NO3PS/c1-4(6)5-9(7,8-2)10-3/h1-3H3,(H,5,6,7)
Instrument: Q Exactive Orbitrap (Thermo Scientific)
Instrument type: LC-ESI-QFT
Ms type: MS2
Ion mode: NEGATIVE
Ionization: ESI
Fragmentation mode: HCD
Collision energy: 45
Resolution: 17500
Column name: Acquity BEH C18 1.7um, 2.1x150mm (Waters)
Retention time: 5.731 min
Base peak: 198.9364
Precursor m/z: 182.0046
Precursor type: [M-H]-
Precursor intensity: 302516.8205566
m/z	relative intensity	assigned
58.0298	999	C2H4NO-
62.9641	223	O2P-
78.9591	726	O3P-
94.9905	103	CH4O3P-
101.9753	74	C2HNO2P-
103.9908	303	C2H3NO2P-
136.0171	78	C3H7NO3P-
140.9781	589	C2H6O3PS-
