Mass spectrum: Dimethenamid; LC-ESI-QFT; MS2; CE: 15; R=17500; [M+H]+
Name: Dimethenamid
Name: 2-chloro-N-(2,4-dimethylthiophen-3-yl)-N-(1-methoxypropan-2-yl)acetamide
Formula: C12H18ClNO2S
Exact mass: 275.0747
SMILES: COCC(C)N(C(=O)CCl)C1=C(C)SC=C1C
InChI: InChI=1S/C12H18ClNO2S/c1-8-7-17-10(3)12(8)14(11(15)5-13)9(2)6-16-4/h7,9H,5-6H2,1-4H3
Instrument: Q Exactive Orbitrap (Thermo Scientific)
Instrument type: LC-ESI-QFT
Ms type: MS2
Ion mode: POSITIVE
Ionization: ESI
Fragmentation mode: HCD
Collision energy: 15
Resolution: 17500
Column name: Acquity BEH C18 1.7um, 2.1x150mm (Waters)
Retention time: 17.366 min
Base peak: 79.0211
Precursor m/z: 276.082
Precursor type: [M+H]+
Precursor intensity: 16025774.375
m/z	relative intensity	assigned
73.0647	4	C4H9O+
121.0648	46	C8H9O+
138.9945	83	C7H4ClO+
152.0174	1	C7H6NOS+
168.0841	6	C9H14NS+
204.0246	1	C8H11ClNOS+
244.0557	999	C11H15ClNOS+
276.0809	238	C12H19ClNO2S+
