Mass spectrum: AVE2865; LC-ESI-QFT; MS2; CE: 75; R=17500; [M-H]-
Name: AVE2865
Name: 1-{2-[3-(2-Chloro-4,5-Difluoro-Benzoyl)-Ureido]-4-Fluoro-Phenyl}-Piperidine-4-Carboxylic Acid
Name: 1-[2-[(2-chloro-4,5-difluorobenzoyl)carbamoylamino]-4-fluorophenyl]piperidine-4-carboxylic acid
Formula: C20H17ClF3N3O4
Exact mass: 455.0860
SMILES: OC(=O)C1CCN(CC1)C1=C(NC(=O)NC(=O)C2=CC(F)=C(F)C=C2Cl)C=C(F)C=C1
InChI: InChI=1S/C20H17ClF3N3O4/c21-13-9-15(24)14(23)8-12(13)18(28)26-20(31)25-16-7-11(22)1-2-17(16)27-5-3-10(4-6-27)19(29)30/h1-2,7-10H,3-6H2,(H,29,30)(H2,25,26,28,31)
Instrument: Q Exactive Orbitrap (Thermo Scientific)
Instrument type: LC-ESI-QFT
Ms type: MS2
Ion mode: NEGATIVE
Ionization: ESI
Fragmentation mode: HCD
Collision energy: 75
Resolution: 17500
Column name: Acquity BEH C18 1.7um, 2.1x150mm (Waters)
Retention time: 18.369 min
Base peak: 292.098
Precursor m/z: 454.0787
Precursor type: [M-H]-
Precursor intensity: 6896921
m/z	relative intensity	assigned
50.0036	9	C3N-
69.0346	4	C4H5O-
76.0193	8	C5H2N-
92.0506	5	C6H6N-
102.0223	8	C6H2N2-
103.0302	17	C6H3N2-
110.041	12	C6H5FN-
115.03	5	C7H3N2-
124.0443	30	C6H5FN2-
125.0521	19	C6H6FN2-
131.0251	108	C7H3N2O-
134.0414	6	C8H5FN-
135.0364	557	C7H4FN2-
147.0199	8	C7H3N2O2-
148.0444	19	C8H5FN2-
149.0359	6	C4H8ClN3O-
149.052	36	C8H6FN2-
150.0235	312	C7H3FN2O-
151.0313	999	C7H4FN2O-
161.052	25	C9H6FN2-
163.0313	46	C8H4FN2O-
165.0469	28	C8H6FN2O-
175.0675	8	C10H8FN2-
176.0388	24	C9H5FN2O-
180.0341	38	C8H5FN2O2-
189.0833	19	C11H10FN2-
191.0986	6	C11H12FN2-
199.0681	10	ClF3H15N2O4-
199.0875	13	C12H11N2O-
201.083	9	C12H10FN2-
219.0939	319	C12H12FN2O-
