Mass spectrum: 4-Aminoazobenzene; LC-ESI-QFT; MS2; CE: 60; R=17500; [M+H]+
Name: 4-Aminoazobenzene
Name: 4-phenyldiazenylaniline
Formula: C12H11N3
Exact mass: 197.0953
SMILES: C1=CC=C(C=C1)N=NC2=CC=C(C=C2)N
InChI: InChI=1S/C12H11N3/c13-10-6-8-12(9-7-10)15-14-11-4-2-1-3-5-11/h1-9H,13H2
Instrument: Q Exactive Orbitrap (Thermo Scientific)
Instrument type: LC-ESI-QFT
Ms type: MS2
Ion mode: POSITIVE
Ionization: ESI
Fragmentation mode: HCD
Collision energy: 60
Resolution: 17500
Column name: Acquity BEH C18 1.7um, 2.1x150mm (Waters)
Retention time: 17.237 min
Base peak: 79.0212
Precursor m/z: 198.1026
Precursor type: [M+H]+
Precursor intensity: 20342976.25
m/z	relative intensity	assigned
50.0152	1	C4H2+
51.0229	2	C4H3+
53.0386	315	C4H5+
65.0385	27	C5H5+
67.0542	1	C5H7+
68.0495	3	C4H6N+
77.0385	129	C6H5+
79.0541	2	C6H7+
81.0699	4	C6H9+
91.0543	1	C7H7+
92.0495	45	C6H6N+
93.0573	45	C6H7N+
94.0414	33	C4H4N3+
94.0652	1	C6H8N+
95.0491	999	C4H5N3+
105.0447	410	C6H5N2+
106.0525	11	C6H6N2+
106.065	2	C7H8N+
107.0492	1	C5H5N3+
107.0606	2	C6H7N2+
107.0732	1	C7H9N+
109.0648	10	C5H7N3+
128.0621	2	C10H8+
152.062	9	C12H8+
153.0698	2	C12H9+
154.0652	1	C11H8N+
169.0884	5	C12H11N+
181.0759	2	C12H9N2+
198.1025	20	C12H12N3+
