Mass spectrum: Tolazamide; LC-ESI-QFT; MS2; CE: 90; R=17500; [M-H]-
Name: Tolazamide
Name: 1-(azepan-1-yl)-3-(4-methylphenyl)sulfonylurea
Formula: C14H21N3O3S
Exact mass: 311.1304
SMILES: CC1=CC=C(C=C1)S(=O)(=O)NC(=O)NN1CCCCCC1
InChI: InChI=1S/C14H21N3O3S/c1-12-6-8-13(9-7-12)21(19,20)16-14(18)15-17-10-4-2-3-5-11-17/h6-9H,2-5,10-11H2,1H3,(H2,15,16,18)
Instrument: Q Exactive Orbitrap (Thermo Scientific)
Instrument type: LC-ESI-QFT
Ms type: MS2
Ion mode: NEGATIVE
Ionization: ESI
Fragmentation mode: HCD
Collision energy: 90
Resolution: 17500
Column name: Acquity BEH C18 1.7um, 2.1x150mm (Waters)
Retention time: 16.140 min
Base peak: 112.9857
Precursor m/z: 310.1231
Precursor type: [M-H]-
Precursor intensity: 297071.8037109
m/z	relative intensity	assigned
61.9706	314	NOS-
63.9625	190	O2S-
77.9655	120	NO2S-
78.9734	398	HNO2S-
79.9812	571	H2NO2S-
80.9654	40	HO3S-
93.9605	188	NO3S-
106.0662	999	C7H8N-
107.0503	55	C7H7O-
122.0613	95	C7H8NO-
170.0283	163	C7H8NO2S-
