Mass spectrum: AVE9423; LC-ESI-QFT; MS2; CE: 90; R=17500; [M+H]+
Name: AVE9423
Name: 1-(2-carboxyphenyl)-7-chloro-6-(2-chloro-4,6-difluoroanilino)-4-oxoquinoline-3-carboxylic acid
Formula: C23H12Cl2F2N2O5
Exact mass: 504.0091
SMILES: OC(=O)C1=CC=CC=C1N1C=C(C(O)=O)C(=O)C2=C1C=C(Cl)C(NC1=C(F)C=C(F)C=C1Cl)=C2
InChI: InChI=1S/C23H12Cl2F2N2O5/c24-14-8-19-12(7-17(14)28-20-15(25)5-10(26)6-16(20)27)21(30)13(23(33)34)9-29(19)18-4-2-1-3-11(18)22(31)32/h1-9,28H,(H,31,32)(H,33,34)
Instrument: Q Exactive Orbitrap (Thermo Scientific)
Instrument type: LC-ESI-QFT
Ms type: MS2
Ion mode: POSITIVE
Ionization: ESI
Fragmentation mode: HCD
Collision energy: 90
Resolution: 17500
Column name: Acquity BEH C18 1.7um, 2.1x150mm (Waters)
Retention time: 17.513 min
Base peak: 79.0211
Precursor m/z: 505.0164
Precursor type: [M+H]+
Precursor intensity: 3157147.8125
m/z	relative intensity	assigned
68.997	7	C3HO2+
101.0197	32	C5H3F2+
116.9902	11	C5H3ClF+
126.0151	5	C6H2F2N+
127.0229	34	C6H3F2N+
134.9809	101	C5H2ClF2+
144.0257	19	C6H4F2NO+
152.0623	13	C12H8+
161.9917	59	C6H3ClF2N+
166.0653	31	C12H8N+
169.0649	47	C12H9O+
177.0573	113	C13H7N+
178.0653	138	C13H8N+
179.0728	5	C13H9N+
180.0024	11	C6H5ClF2NO+
189.0574	32	C14H7N+
190.0652	553	C14H8N+
201.0347	14	C12H6FO2+
202.0181	12	C12H7ClO+
202.0463	10	C12H6F2N+
204.0682	6	C14H8N2+
205.0762	59	C14H9N2+
206.0601	48	C14H8NO+
207.068	9	C14H9NO+
214.0464	54	C13H6F2N+
218.0598	12	C15H8NO+
224.0264	29	C14H7ClN+
225.0342	176	C14H8ClN+
234.0557	9	C12H11ClN2O+
239.0418	20	C14H5F2N2+
240.0213	14	C11H10Cl2N2+
240.0495	29	C14H6F2N2+
241.0291	8	C14H8ClNO+
241.0579	10	C14H7F2N2+
248.0072	13	C13H5ClF2N+
253.029	38	C15H8ClNO+
255.0119	18	C14H5ClFN2+
268.0431	9	C18H5FN2+
269.064	50	C19H8FN+
275.0184	13	C14H6ClF2N2+
287.054	71	C19H7F2N+
288.0631	49	C19H8F2N+
289.0711	44	C19H9F2N+
290.0785	84	C19H10F2N+
291.0731	47	C18H9F2N2+
294.0589	163	C20H7FN2+
295.0668	130	C20H8FN2+
297.0825	165	C20H10FN2+
298.0904	13	C20H11FN2+
302.065	15	C19H8F2N2+
303.072	18	C19H9F2N2+
304.0805	23	C19H10F2N2+
305.0892	16	C19H11F2N2+
307.0671	9	C21H8FN2+
312.0488	16	C20H6F2N2+
313.0569	50	C20H7F2N2+
314.0652	251	C20H8F2N2+
315.0731	999	C20H9F2N2+
316.0809	224	C20H10F2N2+
317.0891	18	C20H11F2N2+
320.0756	4	C19H10F2N2O+
324.0386	9	C19H9ClF2N+
325.0776	31	C21H10FN2O+
326.0655	16	C21H8F2N2+
327.0739	21	C21H9F2N2+
330.0355	33	C20H8ClFN2+
331.0435	51	C20H9ClFN2+
331.0671	10	C23H8FN2+
332.0516	6	C20H8F2NO2+
333.0838	5	C20H11F2N2O+
343.0679	141	C21H9F2N2O+
344.0748	25	C21H10F2N2O+
346.0559	8	C22H12ClFO+
349.0345	65	C20H8ClF2N2+
350.0419	12	C20H9ClF2N2+
365.006	10	C17H9Cl2F2N2O+
371.0629	7	C22H9F2N2O2+
377.029	6	C21H8ClF2N2O+
385.0108	13	C20H9Cl2F2N2+
