Mass spectrum: Albendazole; LC-ESI-QFT; MS2; CE: 75; R=17500; [M+H]+
Name: Albendazole
Name: methyl N-(6-propylsulfanyl-1H-benzimidazol-2-yl)carbamate
Formula: C12H15N3O2S
Exact mass: 265.0885
SMILES: CCCSC1=CC=C2NC(NC(=O)OC)=NC2=C1
InChI: InChI=1S/C12H15N3O2S/c1-3-6-18-8-4-5-9-10(7-8)14-11(13-9)15-12(16)17-2/h4-5,7H,3,6H2,1-2H3,(H2,13,14,15,16)
Instrument: Q Exactive Orbitrap (Thermo Scientific)
Instrument type: LC-ESI-QFT
Ms type: MS2
Ion mode: POSITIVE
Ionization: ESI
Fragmentation mode: HCD
Collision energy: 75
Resolution: 17500
Column name: Acquity BEH C18 1.7um, 2.1x150mm (Waters)
Retention time: 16.061 min
Base peak: 79.0211
Precursor m/z: 266.0958
Precursor type: [M+H]+
Precursor intensity: 27443432.1875
m/z	relative intensity	assigned
53.0022	1	C3HO+
104.037	1	C6H4N2+
105.0448	1	C6H5N2+
119.0478	9	C6H5N3+
119.0603	1	C7H7N2+
120.0558	1	C6H6N3+
120.9982	2	C6H3NS+
122.0058	4	C6H4NS+
123.0136	2	C6H5NS+
130.0398	2	C7H4N3+
131.0478	15	C7H5N3+
132.0556	2	C7H6N3+
133.0634	2	C7H7N3+
136.009	16	C6H4N2S+
137.0167	1	C6H5N2S+
146.0713	1	C8H8N3+
147.0428	10	C7H5N3O+
149.0168	1	C7H5N2S+
150.0249	3	C7H6N2S+
158.0353	3	C8H4N3O+
159.0427	488	C8H5N3O+
160.0505	13	C8H6N3O+
162.0119	1	C7H4N3S+
163.0198	84	C7H5N3S+
164.0276	33	C7H6N3S+
165.0354	5	C7H7N3S+
166.0197	2	C7H6N2OS+
172.0507	1	C9H6N3O+
177.036	2	C8H7N3S+
179.0513	5	C8H9N3S+
186.0411	1	C10H6N2O2+
190.0072	9	C8H4N3OS+
191.0148	999	C8H5N3OS+
192.0225	351	C8H6N3OS+
204.0228	5	C9H6N3OS+
205.0304	4	C9H7N3OS+
206.0746	1	C10H12N3S+
223.0413	1	C9H9N3O2S+
234.0695	118	C11H12N3OS+
