Mass spectrum: 4-(2,5-Diethoxy-4-nitrophenyl)morpholine; LC-ESI-QFT; MS2; CE: 75; R=17500; [M+H]+
Name: 4-(2,5-Diethoxy-4-nitrophenyl)morpholine
Formula: C14H20N2O5
Exact mass: 296.1372
SMILES: CCOC1=CC(=C(OCC)C=C1N1CCOCC1)[N+]([O-])=O
InChI: InChI=1S/C14H20N2O5/c1-3-20-13-10-12(16(17)18)14(21-4-2)9-11(13)15-5-7-19-8-6-15/h9-10H,3-8H2,1-2H3
Instrument: Q Exactive Orbitrap (Thermo Scientific)
Instrument type: LC-ESI-QFT
Ms type: MS2
Ion mode: POSITIVE
Ionization: ESI
Fragmentation mode: HCD
Collision energy: 75
Resolution: 17500
Column name: Acquity BEH C18 1.7um, 2.1x150mm (Waters)
Retention time: 17.266 min
Base peak: 79.0212
Precursor m/z: 297.1445
Precursor type: [M+H]+
Precursor intensity: 8794178
m/z	relative intensity	assigned
52.0183	27	C3H2N+
52.0308	7	C4H4+
53.0022	31	C3HO+
53.0386	63	C4H5+
54.0338	72	C3H4N+
55.0179	335	C3H3O+
56.0495	68	C3H6N+
57.0573	21	C3H7N+
58.0651	9	C3H8N+
64.0182	5	C4H2N+
65.026	7	C4H3N+
65.0386	78	C5H5+
66.0338	22	C4H4N+
66.0464	27	C5H6+
67.0178	15	C4H3O+
67.0416	110	C4H5N+
67.0542	87	C5H7+
68.013	92	C3H2NO+
68.0256	28	C4H4O+
68.0494	152	C4H6N+
68.9971	29	C3HO2+
69.0334	35	C4H5O+
69.0573	10	C4H7N+
70.0287	54	C3H4NO+
70.0651	70	C4H8N+
71.0128	10	C3H3O2+
72.0444	32	C3H6NO+
72.0806	6	C4H10N+
77.0385	11	C6H5+
78.0338	82	C5H4N+
78.0463	15	C6H6+
79.0178	25	C5H3O+
79.0416	37	C5H5N+
79.0542	158	C6H7+
80.0495	371	C5H6N+
81.0335	81	C5H5O+
81.0447	13	C4H5N2+
81.0573	60	C5H7N+
81.0698	10	C6H9+
82.0288	58	C4H4NO+
82.0412	23	C5H6O+
82.0651	79	C5H8N+
83.0127	18	C4H3O2+
83.0365	25	C4H5NO+
83.0491	8	C5H7O+
84.0445	29	C4H6NO+
85.0521	14	C4H7NO+
86.06	55	C4H8NO+
87.068	11	C4H9NO+
88.0757	10	C4H10NO+
90.0338	14	C6H4N+
91.0418	41	C6H5N+
91.0543	128	C7H7+
92.0495	272	C6H6N+
93.0336	27	C6H5O+
93.0448	23	C5H5N2+
93.0574	121	C6H7N+
93.0699	35	C7H9+
94.0288	287	C5H4NO+
94.0413	34	C6H6O+
94.0651	377	C6H8N+
95.0128	8	C5H3O2+
95.0367	46	C5H5NO+
95.0492	152	C6H7O+
95.0603	39	C5H7N2+
95.073	32	C6H9N+
96.0444	195	C5H6NO+
96.0807	12	C6H10N+
97.0284	18	C5H5O2+
97.0522	9	C5H7NO+
98.0237	6	C4H4NO2+
98.0599	17	C5H8NO+
103.0542	44	C8H7+
104.0495	179	C7H6N+
105.0336	33	C7H5O+
105.0447	62	C6H5N2+
105.0574	50	C7H7N+
105.0698	12	C8H9+
106.0288	79	C6H4NO+
106.0652	352	C7H8N+
107.0128	38	C6H3O2+
107.0366	52	C6H5NO+
107.0492	58	C7H7O+
107.0603	60	C6H7N2+
107.0728	36	C7H9N+
108.0207	33	C6H4O2+
108.0444	211	C6H6NO+
108.0681	15	C6H8N2+
108.0808	80	C7H10N+
109.0285	72	C6H5O2+
109.0522	100	C6H7NO+
109.0648	22	C7H9O+
109.076	29	C6H9N2+
110.0236	28	C5H4NO2+
110.0362	24	C6H6O2+
110.0475	19	C5H6N2O+
110.0601	140	C6H8NO+
111.0314	36	C5H5NO2+
111.0441	48	C6H7O2+
111.0554	35	C5H7N2O+
111.068	30	C6H9NO+
112.0393	38	C5H6NO2+
112.0759	9	C6H10NO+
114.0548	7	C5H8NO2+
117.0446	12	C7H5N2+
117.0572	26	C8H7N+
117.0699	7	C9H9+
118.0651	103	C8H8N+
119.0367	26	C7H5NO+
119.0491	25	C8H7O+
119.0605	48	C7H7N2+
119.0729	15	C8H9N+
120.0444	352	C7H6NO+
120.0808	87	C8H10N+
121.0283	18	C7H5O2+
121.0395	40	C6H5N2O+
121.0522	106	C7H7NO+
121.0649	33	C8H9O+
121.076	65	C7H9N2+
122.0238	37	C6H4NO2+
122.06	664	C7H8NO+
123.0314	47	C6H5NO2+
123.044	43	C7H7O2+
123.0553	100	C6H7N2O+
123.0679	61	C7H9NO+
123.0916	8	C7H11N2+
124.0393	140	C6H6NO2+
124.0633	10	C6H8N2O+
124.0758	45	C7H10NO+
125.0345	11	C5H5N2O2+
125.0471	19	C6H7NO2+
126.055	19	C6H8NO2+
130.0653	20	C9H8N+
131.0493	17	C9H7O+
131.0605	10	C8H7N2+
132.0444	186	C8H6NO+
132.0807	27	C9H10N+
133.0285	10	C8H5O2+
133.0396	11	C7H5N2O+
133.0522	90	C8H7NO+
133.0761	31	C8H9N2+
134.0237	95	C7H4NO2+
134.0477	18	C7H6N2O+
134.0601	358	C8H8NO+
135.0315	169	C7H5NO2+
135.044	25	C8H7O2+
135.0554	109	C7H7N2O+
135.0678	98	C8H9NO+
135.0916	18	C8H11N2+
136.0394	439	C7H6NO2+
136.0757	319	C8H10NO+
137.0346	12	C6H5N2O2+
137.0472	110	C7H7NO2+
137.071	219	C7H9N2O+
137.0836	18	C8H11NO+
138.0186	11	C6H4NO3+
138.055	179	C7H8NO2+
138.0913	25	C8H12NO+
139.0387	7	C7H7O3+
139.0501	33	C6H7N2O2+
139.0625	8	C7H9NO2+
140.0344	33	C6H6NO3+
140.0706	11	C7H10NO2+
144.0556	13	C10H8O+
146.06	42	C9H8NO+
147.0443	9	C9H7O2+
147.0552	21	C8H7N2O+
147.068	37	C9H9NO+
148.0394	506	C8H6NO2+
148.0757	265	C9H10NO+
149.0346	28	C7H5N2O2+
149.0472	189	C8H7NO2+
149.071	153	C8H9N2O+
149.0836	18	C9H11NO+
150.0186	231	C7H4NO3+
150.055	999	C8H8NO2+
151.0266	47	C7H5NO3+
151.0503	100	C7H7N2O2+
151.0627	161	C8H9NO2+
151.0866	43	C8H11N2O+
152.0342	184	C7H6NO3+
152.0579	29	C7H8N2O2+
152.0705	83	C8H10NO2+
153.0297	13	C6H5N2O3+
153.0659	24	C7H9N2O2+
153.1022	31	C8H13N2O+
154.0135	16	C6H4NO4+
158.0601	11	C10H8NO+
160.0392	9	C9H6NO2+
160.0759	36	C10H10NO+
161.0346	11	C8H5N2O2+
161.0472	9	C9H7NO2+
161.0711	21	C9H9N2O+
161.0836	7	C10H11NO+
162.0431	8	C8H6N2O2+
162.055	159	C9H8NO2+
162.0915	26	C10H12NO+
163.0264	19	C8H5NO3+
163.0505	57	C8H7N2O2+
163.0627	119	C9H9NO2+
163.0866	48	C9H11N2O+
163.0994	24	C10H13NO+
164.0342	88	C8H6NO3+
164.0706	601	C9H10NO2+
165.0296	12	C7H5N2O3+
165.042	13	C8H7NO3+
165.0661	45	C8H9N2O2+
165.0781	38	C9H11NO2+
166.0499	326	C8H8NO3+
166.0863	122	C9H12NO2+
167.045	17	C7H7N2O3+
167.0577	34	C8H9NO3+
167.0819	6	C8H11N2O2+
167.0935	7	C9H13NO2+
168.0294	12	C7H6NO4+
169.0243	66	C6H5N2O4+
170.0323	8	C6H6N2O4+
174.0547	15	C10H8NO2+
175.063	13	C10H9NO2+
176.0707	264	C10H10NO2+
176.1072	13	C11H14NO+
177.0658	9	C9H9N2O2+
177.0788	18	C10H11NO2+
177.1019	5	C10H13N2O+
178.0498	71	C9H8NO3+
178.0737	15	C9H10N2O2+
178.0863	87	C10H12NO2+
179.0454	15	C8H7N2O3+
179.0576	60	C9H9NO3+
179.0815	45	C9H11N2O2+
179.0941	29	C10H13NO2+
180.0529	19	C8H8N2O3+
180.0656	42	C9H10NO3+
180.089	26	C9H12N2O2+
180.102	16	C10H14NO2+
181.0244	917	C7H5N2O4+
181.0972	166	C9H13N2O2+
182.0322	231	C7H6N2O4+
182.0812	12	C9H12NO3+
183.0401	64	C7H7N2O4+
189.066	7	C10H9N2O2+
190.086	24	C11H12NO2+
191.0823	6	C10H11N2O2+
191.0939	8	C11H13NO2+
192.0656	70	C10H10NO3+
192.1019	93	C11H14NO2+
193.0608	44	C9H9N2O3+
193.0737	17	C10H11NO3+
193.0971	52	C10H13N2O2+
194.0813	418	C10H12NO3+
195.0402	76	C8H7N2O4+
195.0528	23	C9H9NO4+
195.0767	11	C9H11N2O3+
195.0891	34	C10H13NO3+
196.0478	43	C8H8N2O4+
197.0557	94	C8H9N2O4+
205.0613	8	C10H9N2O3+
206.0814	11	C11H12NO3+
207.0762	18	C10H11N2O3+
207.0889	18	C11H13NO3+
207.1256	14	C12H17NO2+
208.0605	16	C10H10NO4+
208.097	41	C11H14NO3+
208.1328	8	C12H18NO2+
209.0558	189	C9H9N2O4+
209.0921	13	C10H13N2O3+
210.0637	12	C9H10N2O4+
210.0757	9	C10H12NO4+
211.035	23	C8H7N2O5+
211.0713	21	C9H11N2O4+
211.0825	8	C10H13NO4+
221.0555	13	C10H9N2O4+
222.1122	13	C12H16NO3+
223.0713	9	C10H11N2O4+
224.0791	11	C10H12N2O4+
225.0507	42	C9H9N2O5+
236.1284	44	C13H18NO3+
237.0872	42	C11H13N2O4+
239.0662	50	C10H11N2O5+
239.1031	8	C11H15N2O4+
239.1149	28	C12H17NO4+
253.0822	8	C11H13N2O5+
267.0987	5	C12H15N2O5+
