Mass spectrum: CP-863187; LC-ESI-QFT; MS2; CE: 45; R=17500; [M+H]+
Name: CP-863187
Name: 1,2,4-Triazolo(4,3-a)pyridine, 6-(4-(2,5-difluorophenyl)-5-oxazolyl)-3-(1-methylethyl)-
Name: 4-(2,5-difluorophenyl)-5-(3-propan-2-yl-[1,2,4]triazolo[4,3-a]pyridin-6-yl)-1,3-oxazole
Formula: C18H14F2N4O
Exact mass: 340.1136
SMILES: CC(C)C1=NN=C2C=CC(=CN12)C1=C(N=CO1)C1=CC(F)=CC=C1F
InChI: InChI=1S/C18H14F2N4O/c1-10(2)18-23-22-15-6-3-11(8-24(15)18)17-16(21-9-25-17)13-7-12(19)4-5-14(13)20/h3-10H,1-2H3
Instrument: Q Exactive Orbitrap (Thermo Scientific)
Instrument type: LC-ESI-QFT
Ms type: MS2
Ion mode: POSITIVE
Ionization: ESI
Fragmentation mode: HCD
Collision energy: 45
Resolution: 17500
Column name: Acquity BEH C18 1.7um, 2.1x150mm (Waters)
Retention time: 15.986 min
Base peak: 79.0211
Precursor m/z: 341.1208
Precursor type: [M+H]+
Precursor intensity: 35960675.9375
m/z	relative intensity	assigned
67.0415	1	C4H5N+
105.0447	16	C6H5N2+
106.0524	1	C6H6N2+
127.0352	5	C7H5F2+
130.0399	5	C7H4N3+
131.024	1	C7H3N2O+
140.0306	1	C7H4F2N+
150.0348	1	C3H4F2N4O+
152.0306	3	C8H4F2N+
153.0385	1	C8H5F2N+
161.0947	1	C9H11N3+
162.1026	2	C9H12N3+
165.0506	1	C10H7F2+
190.0461	642	C11H6F2N+
193.0847	2	C12H11F2+
197.0508	46	C12H6FN2+
202.0459	10	C12H6F2N+
203.0537	3	C12H7F2N+
206.0643	1	C11H8F2N2+
209.0506	7	C13H6FN2+
217.0571	297	C12H7F2N2+
218.041	34	C12H6F2NO+
220.0566	1	C12H8F2NO+
224.0617	87	C13H7FN3+
225.0459	6	C13H6FN2O+
225.0694	2	C13H8FN3+
227.0414	20	C13H5F2N2+
227.0608	3	C16H7N2+
228.049	13	C13H6F2N2+
229.0571	108	C13H7F2N2+
243.0602	9	C13H7F2N3+
244.0679	43	C13H8F2N3+
245.0519	34	C13H7F2N2O+
247.0676	1	C13H9F2N2O+
252.0567	7	C14H7FN3O+
272.0627	999	C14H8F2N3O+
273.047	1	C17H6FN2O+
273.0699	4	C17H8FN3+
299.0737	25	C15H9F2N4O+
325.0892	16	C17H11F2N4O+
326.0972	35	C17H12F2N4O+
341.1207	941	C18H15F2N4O+
