Mass spectrum: Dinitramine; LC-ESI-QFT; MS2; CE: 45; R=17500; [M-H]-
Name: Dinitramine
Formula: C11H13F3N4O4
Exact mass: 322.0889
SMILES: CCN(CC)C1=C(C=C(C(N)=C1[N+]([O-])=O)C(F)(F)F)[N+]([O-])=O
InChI: InChI=1S/C11H13F3N4O4/c1-3-16(4-2)9-7(17(19)20)5-6(11(12,13)14)8(15)10(9)18(21)22/h5H,3-4,15H2,1-2H3
Instrument: Q Exactive Orbitrap (Thermo Scientific)
Instrument type: LC-ESI-QFT
Ms type: MS2
Ion mode: NEGATIVE
Ionization: ESI
Fragmentation mode: HCD
Collision energy: 45
Resolution: 17500
Column name: Acquity BEH C18 1.7um, 2.1x150mm (Waters)
Retention time: 18.942 min
Base peak: 321.0815
Precursor m/z: 321.0816
Precursor type: [M-H]-
Precursor intensity: 23304333.38574
m/z	relative intensity	assigned
57.9934	12	CNO2-
59.0138	26	C2H3O2-
64.0066	47	C3N2-
64.0194	5	C4H2N-
65.0145	70	C3HN2-
65.9985	220	C3NO-
68.0142	4	C3H2NO-
68.9957	21	CF3-
70.9939	9	C3FO-
74.0036	17	C5N-
77.0146	7	C4HN2-
79.9903	6	C4O2-
80.0017	6	C3N2O-
84.997	7	C3FNO-
85.9884	7	C2NO3-
88.0004	243	C3F2N-
88.0067	124	C5N2-
89.0146	33	C5HN2-
89.9985	17	C5NO-
90.0097	17	C4N3-
91.0302	13	C5H3N2-
92.0255	6	C4H2N3-
92.9957	10	C3F3-
93.0094	18	C4HN2O-
94.0047	11	C3N3O-
95.0051	32	C4FN2-
100.0004	32	C4F2N-
101.0146	29	C6HN2-
102.0097	16	C5N3-
103.0177	5	C5HN3-
103.9954	68	C3F2NO-
104.0016	8	C5N2O-
106.0171	6	C5H2N2O-
106.041	8	C5H4N3-
106.9988	10	C3F3N-
107.0052	27	C5FN2-
107.0251	9	C5H3N2O-
108.0065	13	C3HF3N-
108.9907	42	C3F3O-
108.997	27	C5FNO-
109.0208	15	C5H2FN2-
110.0049	6	C5HFNO-
111	48	C4FN2O-
112.0004	72	C5F2N-
112.005	4	C7N2-
112.0069	7	C7N2-
114.0097	38	C6N3-
115.0176	23	C6HN3-
115.0301	20	C7H3N2-
116.0254	21	C6H2N3-
117.0096	15	C6HN2O-
117.0207	9	C5HN4-
117.0457	6	C7H5N2-
118.0045	5	C5N3O-
118.0104	4	C4H2F2NO-
119.0049	23	C6FN2-
119.025	31	C6H3N2O-
120.0066	28	C4HF3N-
120.0203	11	C5H2N3O-
121.0082	9	C5FN3-
121.0206	8	C6H2FN2-
122.0048	8	C6HFNO-
122.9997	12	C5FN2O-
124.0079	9	C5HFN2O-
126.0036	35	C5F2N2-
126.0097	24	C7N3-
126.0153	9	CHF3N4-
127.0113	41	C5HF2N2-
127.0175	27	C7HN3-
127.0298	6	C8H3N2-
127.9953	14	C5F2NO-
128.0015	4	C7N2O-
128.0255	12	C7H2N3-
129.0034	6	C5HF2NO-
129.0094	8	C7HN2O-
129.0333	15	C7H3N3-
130.017	5	C7H2N2O-
130.0285	12	C6H2N4-
130.0409	15	C7H4N3-
130.9987	30	C5F3N-
131.0121	6	C6HN3O-
131.0363	37	C6H3N4-
132.0067	9	C5HF3N-
133.002	68	C4F3N2-
133.0076	7	C6FN3-
133.0207	15	C7H2FN2-
133.0409	9	C7H5N2O-
134.0161	137	C6HFN3-
135	29	C6FN2O-
135.0365	18	C7H4FN2-
136.0015	131	C4HF3NO-
136.0203	18	C7H3FNO-
137.0156	19	C6H2FN2O-
137.0281	58	C2H3F2N4O-
139.0112	41	C6HF2N2-
140.0256	44	C8H2N3-
141.0207	11	C7HN4-
141.0331	15	C8H3N3-
142.0047	9	C7N3O-
142.041	53	C8H4N3-
143.0248	24	C8H3N2O-
144.0066	55	C6HF3N-
144.0202	19	C7H2N3O-
145.0019	167	C5F3N2-
146.0097	102	C5HF3N2-
146.016	32	C7HFN3-
146.0361	15	C7H4N3O-
146.9937	14	C5F3NO-
146.9998	9	C7FN2O-
147.0243	35	C7H2FN3-
147.0364	12	C8H4FN2-
148.0078	13	C7HFN2O-
148.0318	7	C7H3FN3-
149.003	17	C6FN3O-
149.0092	8	C5H2F3NO-
150.0234	9	C7H3FN2O-
151.0112	16	C7HF2N2-
151.0309	7	C7H4FN2O-
152.0129	6	C8N4-
152.0254	17	C9H2N3-
153.0331	12	C9H3N3-
154.0286	22	C8H2N4-
154.0411	10	C9H4N3-
155.0061	15	C6HF2N2O-
155.0127	22	C8HN3O-
155.0247	4	C9H3N2O-
155.0361	24	C8H3N4-
156.0204	16	C8H2N3O-
156.033	5	C9H4N2O-
157.0019	287	C6F3N2-
158.0097	13	C6HF3N2-
158.0159	29	C8HFN3-
158.0226	20	C7H3F3N-
158.0359	11	C8H4N3O-
159.011	11	C7FN4-
159.0175	140	C6H2F3N2-
159.0363	11	C9H4FN2-
160.0016	114	C6HF3NO-
160.0317	51	C8H3FN3-
160.9968	60	C5F3N2O-
161.0157	10	C8H2FN2O-
161.0396	18	C8H4FN3-
161.0718	25	C9H9N2O-
162.0111	52	C7HFN3O-
162.0235	17	C8H3FN2O-
162.0476	8	C8H5FN3-
163.0314	36	C8H4FN2O-
164.0061	5	C7F2N3-
164.0261	7	C7H3FN3O-
165.0106	17	C7H2FN2O2-
165.0268	14	C8H3F2N2-
166.0224	15	C7H2F2N3-
167.0063	12	C7HF2N2O-
167.0301	6	C7H3F2N3-
168.0202	17	C9H2N3O-
169.0019	10	C7F3N2-
169.0285	28	C9H3N3O-
170.0096	19	C7HF3N2-
170.036	90	C9H4N3O-
171.0174	45	C7H2F3N2-
171.0313	13	C8H3N4O-
172.0012	10	C7HF3NO-
172.019	12	C8HFN4-
172.0318	20	C9H3FN3-
173.0207	19	C6H2F3N3-
173.0399	7	C9H4FN3-
173.052	12	C10H6FN2-
174.0042	43	C6HF3N2O-
174.0109	7	C8HFN3O-
174.0473	78	C9H5FN3-
175.0123	15	C6H2F3N2O-
175.0189	19	C8H2FN3O-
175.0311	15	C9H4FN2O-
177.0107	5	C8H2FN2O2-
178.0221	41	C8H2F2N3-
179.0266	14	C2H6F3N2O4-
180.0016	13	C7F2N3O-
180.0215	7	C7H3FN3O2-
180.0377	5	C8H4F2N3-
180.0566	17	C11H6N3-
181.0221	18	C8H3F2N2O-
184.0128	77	C7HF3N3-
184.9968	129	C7F3N2O-
185.0338	72	C8H4F3N2-
186.0278	35	C7H3F3N3-
187.0126	57	C7H2F3N2O-
187.049	50	C8H6F3N2-
188.0076	45	C6HF3N3O-
188.0261	38	C9H3FN3O-
188.0829	344	C10H10N3O-
189.0353	55	C6H5F2N3O2-
190.0126	30	C7H3F3NO2-
190.0421	74	C9H5FN3O-
191.0074	26	C6H2F3N2O2-
192.038	92	C9H4F2N3-
194.017	17	C8H2F2N3O-
194.0534	10	C9H6F2N3-
195.0249	19	C8H3F2N3O-
195.0373	12	C9H5F2N2O-
196.0329	26	C8H4F2N3O-
198.0282	9	C8H3F3N3-
199.0362	35	C8H4F3N3-
200.0075	21	C7HF3N3O-
200.0629	27	C11H7FN3-
201.0154	11	C7H2F3N3O-
201.0288	7	C8H4F3N2O-
201.9996	94	C7HF3N2O2-
203.0073	10	C7H2F3N2O2-
203.0375	9	C9H4FN4O-
204.0025	35	C6HF3N3O2-
205.023	27	C7H4F3N2O2-
205.0333	11	C8H7F2O4-
206.037	7	C9H5FN3O2-
208.0325	33	C9H4F2N3O-
209.0405	12	C9H5F2N3O-
210.0283	10	C9H3F3N3-
210.0482	36	C9H6F2N3O-
211.0231	10	C8H2F3N4-
211.0348	7	C6H6F3N2O3-
212.0277	33	C8H4F2N3O2-
212.0442	42	C9H5F3N3-
213.0524	8	C9H6F3N3-
214.0232	128	C8H3F3N3O-
214.035	7	C9H5F3N2O-
214.0599	13	C9H7F3N3-
215.0312	70	C8H4F3N3O-
215.0437	20	C9H6F3N2O-
216.0028	26	C7HF3N3O2-
217.0597	10	C9H8F3N2O-
217.9945	60	C7HF3N2O3-
218.0182	91	C7H3F3N3O2-
219.0329	52	C9H4FN4O2-
220.0325	6	C10H4F2N3O-
221.028	11	C9H3F2N4O-
222.0351	10	C9H4F2N4O-
224.0311	57	C9H3F3N4-
224.0442	12	C10H5F3N3-
225.0229	68	C8H3F2N4O2-
225.0394	55	C9H4F3N4-
225.0837	7	C11H11F2N2O-
226.0459	14	C8H9F3O4-
227.0185	24	C8H2F3N4O-
227.0316	14	C9H4F3N3O-
228.0269	10	C8H3F3N4O-
228.0389	128	C9H5F3N3O-
229.0105	8	C8H2F3N3O2-
229.0338	11	C8H4F3N4O-
229.0465	10	C9H6F3N3O-
230.0019	17	C7H2F2N3O4-
230.0182	55	C8H3F3N3O2-
230.0544	88	C9H7F3N3O-
231.0138	79	C7H2F3N4O2-
231.075	221	C10H10F3N2O-
231.9975	999	C7HF3N3O3-
233.0057	11	C7H2F3N3O3-
233.0286	9	C7H4F3N4O2-
234.0132	31	C7H3F3N3O3-
238.0797	195	C11H10F2N3O-
239.0387	13	C9H5F2N4O2-
240.0392	16	C10H5F3N3O-
240.0754	83	C11H9F3N3-
241.0345	47	C9H4F3N4O-
241.0787	6	C11H11F2N2O2-
242.0423	64	C9H5F3N4O-
243.0502	13	C9H6F3N4O-
244.021	10	C8H3F3N4O2-
244.0338	17	C9H5F3N3O2-
245.029	37	C8H4F3N4O2-
246.0499	18	C9H7F3N3O2-
249.0004	43	C7H2F3N3O4-
250.0084	41	C7H3F3N3O4-
256.0212	20	C9H3F3N4O2-
257.0292	64	C9H4F3N4O2-
258.0366	33	C9H5F3N4O2-
258.0859	117	C11H11F3N3O-
259.0216	11	C9H4F3N3O3-
260.0161	8	C8H3F3N4O3-
260.0651	6	C10H9F3N3O2-
261.0858	19	C11H12F3N2O2-
269.065	6	C11H8F3N4O-
273.0609	16	C10H8F3N4O2-
274.0327	10	C11H7F3NO4-
274.0809	147	C11H11F3N3O2-
275.04	46	C9H6F3N4O3-
278.0757	70	C10H11F3N3O3-
301.0748	7	C11H11F2N4O4-
303.0711	5	C11H10F3N4O3-
321.0814	518	C11H12F3N4O4-
