Mass spectrum: Indinavir; LC-ESI-QFT; MS2; CE: 15; R=17500; [M-H]-
Name: Indinavir
Formula: C36H47N5O4
Exact mass: 613.3628
SMILES: CC(C)(C)NC(=O)[C@@H]1CN(Cc2cccnc2)CCN1C[C@@H](O)C[C@@H](Cc1ccccc1)C(=O)N[C@H]1c2ccccc2C[C@H]1O
InChI: InChI=1S/C36H47N5O4/c1-36(2,3)39-35(45)31-24-40(22-26-12-9-15-37-21-26)16-17-41(31)23-29(42)19-28(18-25-10-5-4-6-11-25)34(44)38-33-30-14-8-7-13-27(30)20-32(33)43/h4-15,21,28-29,31-33,42-43H,16-20,22-24H2,1-3H3,(H,38,44)(H,39,45)/t28-,29+,31+,32-,33+/m1/s1
Instrument: Q Exactive Orbitrap (Thermo Scientific)
Instrument type: LC-ESI-QFT
Ms type: MS2
Ion mode: NEGATIVE
Ionization: ESI
Fragmentation mode: HCD
Collision energy: 15
Resolution: 17500
Column name: Acquity BEH C18 1.7um, 2.1x150mm (Waters)
Retention time: 15.252 min
Base peak: 112.9857
Precursor m/z: 612.3555
Precursor type: [M-H]-
Precursor intensity: 686233.828125
m/z	relative intensity	assigned
130.0665	1	C9H8N-
148.077	4	C9H10NO-
275.1879	12	C15H23N4O-
419.281	3	C26H35N4O-
463.2716	238	C27H35N4O3-
566.3494	1	C35H44N5O2-
584.3607	32	C35H46N5O3-
594.345	88	C36H44N5O3-
612.3554	999	C36H46N5O4-
