Mass spectrum: Bentazone; LC-ESI-QFT; MS2; CE: 75; R=17500; [M-H]-
Name: Bentazone
Name: 2,2-dioxo-3-propan-2-yl-1H-2lambda6,1,3-benzothiadiazin-4-one
Formula: C10H12N2O3S
Exact mass: 240.0569
SMILES: CC(C)N1C(=O)C2=C(NS1(=O)=O)C=CC=C2
InChI: InChI=1S/C10H12N2O3S/c1-7(2)12-10(13)8-5-3-4-6-9(8)11-16(12,14)15/h3-7,11H,1-2H3
Instrument: Q Exactive Orbitrap (Thermo Scientific)
Instrument type: LC-ESI-QFT
Ms type: MS2
Ion mode: NEGATIVE
Ionization: ESI
Fragmentation mode: HCD
Collision energy: 75
Resolution: 17500
Column name: Acquity BEH C18 1.7um, 2.1x150mm (Waters)
Retention time: 15.674 min
Base peak: 239.0496
Precursor m/z: 239.0496
Precursor type: [M-H]-
Precursor intensity: 71455706.16992
m/z	relative intensity	assigned
69.0347	1	C4H5O-
77.0396	1	C6H5-
77.9656	7	NO2S-
78.0348	1	C5H4N-
79.9574	71	O3S-
80.9652	5	HO3S-
83.0615	1	C4H7N2-
90.0349	4	C6H4N-
91.0189	1	C6H3O-
92.0506	1	C6H6N-
93.0345	1	C6H5O-
104.0381	3	C6H4N2-
105.022	6	C6H3NO-
105.0346	49	C7H5O-
106.0298	1	C6H4NO-
114.0223	2	C7H2N2-
115.0302	8	C7H3N2-
116.038	60	C7H4N2-
117.0458	179	C7H5N2-
121.0295	48	C7H5O2-
123.0452	12	C7H7O2-
130.0425	2	C9H6O-
131.0252	1	C7H3N2O-
132.0329	999	C7H4N2O-
133.0407	368	C7H5N2O-
145.0407	8	C8H5N2O-
145.0656	3	C10H9O-
147.0818	3	C10H11O-
149.0245	2	C8H5O3-
153.9967	3	C6H4NO2S-
159.0567	3	C9H7N2O-
168	12	C6H4N2O2S-
175.0876	16	C10H11N2O-
194.9869	9	C7H3N2O3S-
195.9948	34	C7H4N2O3S-
197.0026	85	C7H5N2O3S-
239.0498	4	C10H11N2O3S-
