Mass spectrum: Nordihydroguaiaretic acid; LC-ESI-QFT; MS2; CE: 45; R=17500; [M-H]-
Name: Nordihydroguaiaretic acid
Name: 4-[4-(3,4-dihydroxyphenyl)-2,3-dimethylbutyl]benzene-1,2-diol
Formula: C18H22O4
Exact mass: 302.1518
SMILES: CC(CC1=CC(O)=C(O)C=C1)C(C)CC1=CC=C(O)C(O)=C1
InChI: InChI=1S/C18H22O4/c1-11(7-13-3-5-15(19)17(21)9-13)12(2)8-14-4-6-16(20)18(22)10-14/h3-6,9-12,19-22H,7-8H2,1-2H3
Instrument: Q Exactive Orbitrap (Thermo Scientific)
Instrument type: LC-ESI-QFT
Ms type: MS2
Ion mode: NEGATIVE
Ionization: ESI
Fragmentation mode: HCD
Collision energy: 45
Resolution: 17500
Column name: Acquity BEH C18 1.7um, 2.1x150mm (Waters)
Retention time: 17.121 min
Base peak: 141.0113
Precursor m/z: 301.1445
Precursor type: [M-H]-
Precursor intensity: 12344112.59375
m/z	relative intensity	assigned
81.0345	1	C5H5O-
83.0503	6	C5H7O-
93.0346	5	C6H5O-
95.0502	3	C6H7O-
107.014	1	C6H3O2-
108.0217	214	C6H4O2-
109.0295	222	C6H5O2-
111.0087	3	C5H3O3-
121.0296	14	C7H5O2-
122.0373	866	C7H6O2-
123.0451	169	C7H7O2-
124.0165	102	C6H4O3-
125.0244	4	C6H5O3-
135.0452	28	C8H7O2-
136.0165	28	C7H4O3-
137.0244	199	C7H5O3-
149.0606	24	C9H9O2-
151.003	1	C7H3O4-
151.0763	8	C9H11O2-
153.0193	18	C7H5O4-
154.0272	266	C7H6O4-
173.1181	3	C9H17O3-
175.0767	1	C11H11O2-
177.0921	31	C11H13O2-
191.1078	7	C12H15O2-
243.0997	1	C15H15O3-
245.1546	6	C16H21O2-
273.1497	87	C17H21O3-
301.1445	999	C18H21O4-
