Mass spectrum: Caffeine; LC-ESI-QFT; MS2; CE: 60; R=17500; [M+H]+
Name: Caffeine
Name: 1,3,7-trimethylpurine-2,6-dione
Formula: C8H10N4O2
Exact mass: 194.0804
SMILES: CN1C=NC2=C1C(=O)N(C)C(=O)N2C
InChI: InChI=1S/C8H10N4O2/c1-10-4-9-6-5(10)7(13)12(3)8(14)11(6)2/h4H,1-3H3
Instrument: Q Exactive Orbitrap (Thermo Scientific)
Instrument type: LC-ESI-QFT
Ms type: MS2
Ion mode: POSITIVE
Ionization: ESI
Fragmentation mode: HCD
Collision energy: 60
Resolution: 17500
Column name: Acquity BEH C18 1.7um, 2.1x150mm (Waters)
Retention time: 11.252 min
Base peak: 79.0212
Precursor m/z: 195.0877
Precursor type: [M+H]+
Precursor intensity: 3174315.625
m/z	relative intensity	assigned
56.0494	15	C3H6N+
57.0447	3	C2H5N2+
67.0291	2	C3H3N2+
69.0447	94	C3H5N2+
70.0289	1	C3H4NO+
80.0131	1	C4H2NO+
81.0447	6	C4H5N2+
82.0526	4	C4H6N2+
83.0603	70	C4H7N2+
93.0448	2	C5H5N2+
97.0076	8	C8H+
97.0397	8	C4H5N2O+
108.0556	2	C5H6N3+
109.0397	21	C5H5N2O+
110.0713	287	C5H8N3+
111.0552	17	C5H7N2O+
112.0871	1	C5H10N3+
122.0715	1	C6H8N3+
123.0426	22	C5H5N3O+
135.0665	2	C6H7N4+
136.0742	2	C6H8N4+
138.0662	999	C6H8N3O+
151.0976	3	C7H11N4+
154.0613	2	C6H8N3O2+
156.0768	2	C6H10N3O2+
180.0642	2	C7H8N4O2+
181.0718	2	C7H9N4O2+
195.0877	194	C8H11N4O2+
