Mass spectrum: Betamethasone valerate; LC-ESI-QFT; MS2; CE: 15; R=17500; [M+H]+
Name: Betamethasone valerate
Name: [(8S,9R,10S,11S,13S,14S,16S,17R)-9-fluoro-11-hydroxy-17-(2-hydroxyacetyl)-10,13,16-trimethyl-3-oxo-6,7,8,11,12,14,15,16-octahydrocyclopenta[a]phenanthren-17-yl] pentanoate
Formula: C27H37FO6
Exact mass: 476.2574
SMILES: CCCCC(=O)O[C@@]1([C@@H](C)C[C@H]2[C@@H]3CCC4=CC(=O)C=C[C@]4(C)[C@@]3(F)[C@@H](O)C[C@]12C)C(=O)CO
InChI: InChI=1S/C27H37FO6/c1-5-6-7-23(33)34-27(22(32)15-29)16(2)12-20-19-9-8-17-13-18(30)10-11-24(17,3)26(19,28)21(31)14-25(20,27)4/h10-11,13,16,19-21,29,31H,5-9,12,14-15H2,1-4H3/t16-,19-,20-,21-,24-,25-,26-,27-/m0/s1
Instrument: Q Exactive Orbitrap (Thermo Scientific)
Instrument type: LC-ESI-QFT
Ms type: MS2
Ion mode: POSITIVE
Ionization: ESI
Fragmentation mode: HCD
Collision energy: 15
Resolution: 17500
Column name: Acquity BEH C18 1.7um, 2.1x150mm (Waters)
Retention time: 18.603 min
Base peak: 79.0211
Precursor m/z: 477.2647
Precursor type: [M+H]+
Precursor intensity: 4172808.875
m/z	relative intensity	assigned
85.0649	9	C5H9O+
95.0857	18	C7H11+
103.0755	9	C5H11O2+
107.0856	42	C8H11+
109.1013	29	C8H13+
119.0857	9	C9H11+
121.1011	12	C9H13+
123.0805	39	C8H11O+
133.1012	19	C10H13+
135.0805	30	C9H11O+
137.0961	38	C9H13O+
147.0805	73	C10H11O+
149.096	27	C10H13O+
151.0752	10	C9H11O2+
153.0912	132	C9H13O2+
159.0804	16	C11H11O+
161.0961	29	C11H13O+
167.1068	82	C10H15O2+
171.0806	40	C12H11O+
173.0966	25	C12H13O+
177.0915	20	C11H13O2+
185.0962	102	C13H13O+
187.0755	60	C12H11O2+
199.1121	11	C14H15O+
209.0971	10	C12H14FO2+
213.1273	13	C15H17O+
237.1275	11	C17H17O+
239.1067	17	C16H15O2+
261.1271	22	C19H17O+
263.1431	46	C19H19O+
275.1434	39	C20H19O+
277.1588	97	C20H21O+
279.1746	766	C20H23O+
289.1592	47	C21H21O+
291.1745	146	C21H23O+
297.185	62	C20H25O2+
301.1589	74	C22H21O+
307.1695	83	C21H23O2+
311.163	14	C20H23O3+
319.1695	330	C22H23O2+
325.1799	84	C21H25O3+
337.1801	592	C22H25O3+
355.1906	999	C22H27O4+
