Mass spectrum: 2-Methyl-4-isothiazolin-3-one; LC-ESI-QFT; MS2; CE: 60; R=17500; [M+H]+
Name: 2-Methyl-4-isothiazolin-3-one
Name: 2-methyl-1,2-thiazol-3-one
Formula: C4H5NOS
Exact mass: 115.0092
SMILES: CN1SC=CC1=O
InChI: InChI=1S/C4H5NOS/c1-5-4(6)2-3-7-5/h2-3H,1H3
Instrument: Q Exactive Orbitrap (Thermo Scientific)
Instrument type: LC-ESI-QFT
Ms type: MS2
Ion mode: POSITIVE
Ionization: ESI
Fragmentation mode: HCD
Collision energy: 60
Resolution: 17500
Column name: Acquity BEH C18 1.7um, 2.1x150mm (Waters)
Retention time: 3.894 min
Base peak: 79.0211
Precursor m/z: 116.0165
Precursor type: [M+H]+
Precursor intensity: 3968322.984375
m/z	relative intensity	assigned
53.0023	1	C3HO+
54.0338	7	C3H4N+
57.9871	1	C2H2S+
58.0287	11	C2H4NO+
58.9949	4	C2H3S+
59.9902	2	CH2NS+
61.0106	5	C2H5S+
62.0059	1	CH4NS+
68.9793	2	C3HS+
69.0334	5	C4H5O+
69.9745	4	C2NS+
70.995	85	C3H3S+
72.0443	1	C3H6NO+
73.0106	28	C3H5S+
84.9743	18	C3HOS+
86.9899	4	C3H3OS+
88.0216	8	C3H6NS+
98.0059	43	C4H4NS+
98.9899	60	C4H3OS+
100.993	35	C3H3NOS+
114.001	2	C4H4NOS+
116.0164	999	C4H6NOS+
