Mass spectrum: Terbutryn; LC-ESI-QFT; MS2; CE: 15; R=17500; [M+H]+
Name: Terbutryn
Name: 2-N-tert-butyl-4-N-ethyl-6-methylsulfanyl-1,3,5-triazine-2,4-diamine
Formula: C10H19N5S
Exact mass: 241.1361
SMILES: CCNC1=NC(SC)=NC(NC(C)(C)C)=N1
InChI: InChI=1S/C10H19N5S/c1-6-11-7-12-8(15-10(2,3)4)14-9(13-7)16-5/h6H2,1-5H3,(H2,11,12,13,14,15)
Instrument: Q Exactive Orbitrap (Thermo Scientific)
Instrument type: LC-ESI-QFT
Ms type: MS2
Ion mode: POSITIVE
Ionization: ESI
Fragmentation mode: HCD
Collision energy: 15
Resolution: 17500
Column name: Acquity BEH C18 1.7um, 2.1x150mm (Waters)
Retention time: 16.520 min
Base peak: 79.0212
Precursor m/z: 242.1434
Precursor type: [M+H]+
Precursor intensity: 60597191.5625
m/z	relative intensity	assigned
186.0808	259	C6H12N5S+
227.1192	1	C9H17N5S+
242.1433	999	C10H20N5S+
