Mass spectrum: Fenarimol; LC-ESI-QFT; MS2; CE: 60; R=17500; [M-H]-
Name: Fenarimol
Name: (2-chlorophenyl)-(4-chlorophenyl)-pyrimidin-5-ylmethanol
Formula: C17H12Cl2N2O
Exact mass: 330.0327
SMILES: OC(C1=CC=C(Cl)C=C1)(C1=CN=CN=C1)C1=CC=CC=C1Cl
InChI: InChI=1S/C17H12Cl2N2O/c18-14-7-5-12(6-8-14)17(22,13-9-20-11-21-10-13)15-3-1-2-4-16(15)19/h1-11,22H
Instrument: Q Exactive Orbitrap (Thermo Scientific)
Instrument type: LC-ESI-QFT
Ms type: MS2
Ion mode: NEGATIVE
Ionization: ESI
Fragmentation mode: HCD
Collision energy: 60
Resolution: 17500
Column name: Acquity BEH C18 1.7um, 2.1x150mm (Waters)
Retention time: 18.026 min
Base peak: 112.9857
Precursor m/z: 329.0254
Precursor type: [M-H]-
Precursor intensity: 1125858.912598
m/z	relative intensity	assigned
79.0301	913	C4H3N2-
121.0294	999	C4H8ClNO-
216.0093	430	C11H5ClN2O-
