Mass spectrum: Farglitazar; LC-ESI-QFT; MS2; CE: 60; R=17500; [M+H]+
Name: Farglitazar
Name: (2S)-2-(2-benzoylanilino)-3-[4-[2-(5-methyl-2-phenyl-1,3-oxazol-4-yl)ethoxy]phenyl]propanoic acid
Formula: C34H30N2O5
Exact mass: 546.2155
SMILES: CC1=C(CCOC2=CC=C(C[C@H](NC3=C(C=CC=C3)C(=O)C3=CC=CC=C3)C(O)=O)C=C2)N=C(O1)C1=CC=CC=C1
InChI: InChI=1S/C34H30N2O5/c1-23-29(36-33(41-23)26-12-6-3-7-13-26)20-21-40-27-18-16-24(17-19-27)22-31(34(38)39)35-30-15-9-8-14-28(30)32(37)25-10-4-2-5-11-25/h2-19,31,35H,20-22H2,1H3,(H,38,39)/t31-/m0/s1
Instrument: Q Exactive Orbitrap (Thermo Scientific)
Instrument type: LC-ESI-QFT
Ms type: MS2
Ion mode: POSITIVE
Ionization: ESI
Fragmentation mode: HCD
Collision energy: 60
Resolution: 17500
Column name: Acquity BEH C18 1.7um, 2.1x150mm (Waters)
Retention time: 20.146 min
Base peak: 79.0211
Precursor m/z: 547.2227
Precursor type: [M+H]+
Precursor intensity: 10537273.5
m/z	relative intensity	assigned
50.0152	1	C4H2+
51.0231	1	C4H3+
53.0386	22	C4H5+
55.0179	2	C3H3O+
55.0542	17	C4H7+
65.0385	4	C5H5+
69.0334	11	C4H5O+
77.0383	8	C6H5+
79.0542	4	C6H7+
81.0335	3	C5H5O+
83.0492	179	C5H7O+
84.0571	4	C5H8O+
91.0543	32	C7H7+
92.0495	1	C6H6N+
93.07	9	C7H9+
94.0414	3	C6H6O+
95.0492	67	C6H7O+
103.0543	5	C8H7+
104.0495	999	C7H6N+
105.0335	499	C7H5O+
105.0444	27	C6H5N2+
107.0492	13	C7H7O+
115.0543	7	C9H7+
116.062	1	C9H8+
117.0575	1	C8H7N+
117.0699	28	C9H9+
118.065	1	C8H8N+
119.0492	5	C8H7O+
120.0444	7	C7H6NO+
121.0287	2	C7H5O2+
121.0648	14	C8H9O+
122.06	8	C7H8NO+
123.0441	5	C7H7O2+
128.0621	19	C10H8+
129.0699	5	C10H9+
130.0291	2	C8H4NO+
130.0653	8	C9H8N+
131.0491	3	C9H7O+
131.0855	6	C10H11+
132.0443	4	C8H6NO+
136.0758	11	C8H10NO+
137.0599	1	C8H9O2+
141.0698	5	C11H9+
143.073	36	C10H9N+
144.0808	345	C10H10N+
145.0649	6	C10H9O+
147.0555	2	C8H7N2O+
147.0806	6	C10H11O+
149.06	13	C9H9O2+
153.0699	3	C12H9+
155.0605	4	C10H7N2+
158.0606	6	C10H8NO+
158.0965	23	C11H12N+
159.0807	5	C11H11O+
165.0702	4	C13H9+
167.0731	3	C12H9N+
167.0853	6	C13H11+
168.0808	6	C12H10N+
172.0757	81	C11H10NO+
173.0837	3	C11H11NO+
173.0965	3	C12H13O+
180.0809	10	C13H10N+
182.0964	6	C13H12N+
183.0809	2	C13H11O+
186.0915	800	C12H12NO+
187.0991	30	C12H13NO+
193.0889	14	C14H11N+
194.0965	29	C14H12N+
196.0757	7	C13H10NO+
201.0912	2	C13H13O2+
204.0808	4	C15H10N+
208.0758	91	C14H10NO+
209.0835	9	C14H11NO+
210.0912	10	C14H12NO+
220.0756	4	C15H10NO+
222.0917	10	C15H12NO+
268.1121	4	C20H14N+
280.1129	3	C21H14N+
286.123	3	C20H16NO+
296.1075	3	C21H14NO+
297.1153	1	C21H15NO+
298.1228	11	C21H16NO+
310.1227	1	C22H16NO+
314.1177	18	C21H16NO2+
315.125	6	C21H17NO2+
322.1438	14	C20H20NO3+
