Mass spectrum: 2-Amino-6-nitrobenzothiazole; LC-ESI-QFT; MS2; CE: 90; R=17500; [M+H]+
Name: 2-Amino-6-nitrobenzothiazole
Name: 6-nitro-1,3-benzothiazol-2-amine
Formula: C7H5N3O2S
Exact mass: 195.0102
SMILES: NC1=NC2=CC=C(C=C2S1)[N+]([O-])=O
InChI: InChI=1S/C7H5N3O2S/c8-7-9-5-2-1-4(10(11)12)3-6(5)13-7/h1-3H,(H2,8,9)
Instrument: Q Exactive Orbitrap (Thermo Scientific)
Instrument type: LC-ESI-QFT
Ms type: MS2
Ion mode: POSITIVE
Ionization: ESI
Fragmentation mode: HCD
Collision energy: 90
Resolution: 17500
Column name: Acquity BEH C18 1.7um, 2.1x150mm (Waters)
Retention time: 14.474 min
Base peak: 79.0211
Precursor m/z: 196.0175
Precursor type: [M+H]+
Precursor intensity: 2274224.75
m/z	relative intensity	assigned
59.9902	10	CH2NS+
61.0106	13	C2H5S+
67.0416	12	C4H5N+
72.0443	2	C3H6NO+
79.0417	7	C5H5N+
80.0495	20	C5H6N+
84.0029	5	C4H4S+
88.0216	3	C3H6NS+
89.0248	2	C6H3N+
91.0417	54	C6H5N+
92.0495	4	C6H6N+
95.0366	6	C5H5NO+
96.0028	339	C5H4S+
99.0137	6	C4H5NS+
105.0447	12	C6H5N2+
106.0526	39	C6H6N2+
108.0028	12	C6H4S+
110.0061	7	C5H4NS+
111.0138	29	C5H5NS+
111.9978	8	C5H4OS+
118.0525	57	C7H6N2+
122.006	36	C6H4NS+
123.0138	418	C6H5NS+
126.0246	11	C5H6N2S+
127.9927	71	C5H4O2S+
128.0289	8	C4H6N3S+
132.9981	13	C7H3NS+
138.0247	25	C6H6N2S+
149.0169	18	C7H5N2S+
150.0247	493	C7H6N2S+
153.0117	8	C6H5N2OS+
165.0118	28	C7H5N2OS+
166.0197	20	C7H6N2OS+
182.0145	999	C7H6N2O2S+
184.019	4	C6H6N3O2S+
