Mass spectrum: C.I. Solvent Yellow 14; LC-ESI-QFT; MS2; CE: 90; R=17500; [M+H]+
Name: C.I. Solvent Yellow 14
Name: 1-phenyldiazenylnaphthalen-2-ol
Formula: C16H12N2O
Exact mass: 248.0950
SMILES: OC1=CC=C2C=CC=CC2=C1N=NC1=CC=CC=C1
InChI: InChI=1S/C16H12N2O/c19-15-11-10-12-6-4-5-9-14(12)16(15)18-17-13-7-2-1-3-8-13/h1-11,19H
Instrument: Q Exactive Orbitrap (Thermo Scientific)
Instrument type: LC-ESI-QFT
Ms type: MS2
Ion mode: POSITIVE
Ionization: ESI
Fragmentation mode: HCD
Collision energy: 90
Resolution: 17500
Column name: Acquity BEH C18 1.7um, 2.1x150mm (Waters)
Retention time: 20.798 min
Base peak: 79.0211
Precursor m/z: 249.1022
Precursor type: [M+H]+
Precursor intensity: 1298663.859375
m/z	relative intensity	assigned
53.0386	26	C4H5+
65.0385	71	C5H5+
66.0464	104	C5H6+
75.023	32	C6H3+
77.0385	14	C6H5+
80.0495	21	C5H6N+
91.0541	26	C7H7+
92.0495	50	C6H6N+
93.0574	999	C6H7N+
95.0492	61	C6H7O+
101.0386	21	C8H5+
103.0541	5	C8H7+
105.0448	28	C6H5N2+
115.0543	23	C9H7+
119.0492	48	C8H7O+
128.0495	213	C9H6N+
129.0448	119	C8H5N2+
146.0602	38	C9H8NO+
155.0602	7	C10H7N2+
160.0759	4	C10H10NO+
167.0731	8	C12H9N+
176.062	16	C14H8+
177.0693	5	C14H9+
178.0648	6	C13H8N+
180.081	5	C13H10N+
203.073	33	C15H9N+
204.0811	74	C15H10N+
205.0762	17	C14H9N2+
205.0875	3	C15H11N+
206.0844	7	C14H10N2+
219.0919	34	C15H11N2+
229.0762	12	C16H9N2+
230.0839	8	C16H10N2+
231.0918	262	C16H11N2+
232.0765	20	C16H10NO+
232.0997	12	C16H12N2+
234.0789	5	C15H10N2O+
247.0864	20	C16H11N2O+
