Mass spectrum: Gibberellic acid; LC-ESI-QFT; MS2; CE: 15; R=17500; [M-H]-
Name: Gibberellic acid
Name: (1R,2R,5S,8S,9S,10R,11S,12S)-5,12-dihydroxy-11-methyl-6-methylidene-16-oxo-15-oxapentacyclo[9.3.2.15,8.01,10.02,8]heptadec-13-ene-9-carboxylic acid
Formula: C19H22O6
Exact mass: 346.1416
SMILES: C[C@@]12[C@H]3[C@H](C(O)=O)[C@@]45CC(=C)[C@@](O)(C4)CC[C@H]5[C@]3(OC1=O)C=C[C@@H]2O
InChI: InChI=1S/C19H22O6/c1-9-7-17-8-18(9,24)5-3-10(17)19-6-4-11(20)16(2,15(23)25-19)13(19)12(17)14(21)22/h4,6,10-13,20,24H,1,3,5,7-8H2,2H3,(H,21,22)/t10-,11+,12-,13-,16-,17+,18+,19-/m1/s1
Instrument: Q Exactive Orbitrap (Thermo Scientific)
Instrument type: LC-ESI-QFT
Ms type: MS2
Ion mode: NEGATIVE
Ionization: ESI
Fragmentation mode: HCD
Collision energy: 15
Resolution: 17500
Column name: Acquity BEH C18 1.7um, 2.1x150mm (Waters)
Retention time: 13.063 min
Base peak: 305.0968
Precursor m/z: 345.1344
Precursor type: [M-H]-
Precursor intensity: 8457826.971191
m/z	relative intensity	assigned
57.0346	2	C3H5O-
60.9931	2	CHO3-
71.0503	36	C4H7O-
73.0295	3	C3H5O2-
83.0503	49	C5H7O-
107.0502	1	C7H7O-
143.0866	160	C11H11-
145.0659	1	C10H9O-
147.0816	4	C10H11O-
155.0865	1	C12H11-
157.066	9	C11H9O-
159.0813	1	C11H11O-
161.0972	7	C11H13O-
169.0662	1	C12H9O-
169.1025	1	C13H13-
171.0814	4	C12H11O-
175.0763	6	C11H11O2-
183.0815	1	C13H11O-
185.0971	1	C13H13O-
187.0768	1	C12H11O2-
197.0972	3	C14H13O-
197.1337	1	C15H17-
199.113	2	C14H15O-
201.1286	1	C14H17O-
209.0978	1	C15H13O-
211.1128	2	C15H15O-
213.0919	1	C14H13O2-
213.1286	12	C15H17O-
215.1078	1	C14H15O2-
221.1336	74	C17H17-
223.1129	4	C16H15O-
225.092	11	C15H13O2-
227.1078	17	C15H15O2-
235.1131	10	C17H15O-
237.1287	16	C17H17O-
239.1442	254	C17H19O-
241.1233	3	C16H17O2-
243.1397	3	C16H19O2-
251.1077	10	C17H15O2-
253.1235	71	C17H17O2-
257.1547	36	C17H21O2-
269.1182	5	C17H17O3-
271.0979	10	C16H15O4-
283.1339	48	C18H19O3-
301.1445	37	C18H21O4-
327.123	6	C19H19O5-
345.1342	999	C19H21O6-
