Mass spectrum: Thidiazuron; LC-ESI-QFT; MS2; CE: 75; R=17500; [M+H]+
Name: Thidiazuron
Name: 1-phenyl-3-(thiadiazol-5-yl)urea
Formula: C9H8N4OS
Exact mass: 220.0419
SMILES: O=C(NC1=CN=NS1)NC1=CC=CC=C1
InChI: InChI=1S/C9H8N4OS/c14-9(12-8-6-10-13-15-8)11-7-4-2-1-3-5-7/h1-6H,(H2,11,12,14)
Instrument: Q Exactive Orbitrap (Thermo Scientific)
Instrument type: LC-ESI-QFT
Ms type: MS2
Ion mode: POSITIVE
Ionization: ESI
Fragmentation mode: HCD
Collision energy: 75
Resolution: 17500
Column name: Acquity BEH C18 1.7um, 2.1x150mm (Waters)
Retention time: 15.561 min
Base peak: 79.0211
Precursor m/z: 221.0492
Precursor type: [M+H]+
Precursor intensity: 5406129.0625
m/z	relative intensity	assigned
50.015	1	C4H2+
51.023	3	C4H3+
53.0386	22	C4H5+
59.9903	30	CH2NS+
61.0106	3	C2H5S+
65.0386	8	C5H5+
71.9902	64	C2H2NS+
72.998	12	C2H3NS+
74.0059	9	C2H4NS+
77.0385	6	C6H5+
91.0543	8	C7H7+
92.0495	81	C6H6N+
94.0652	74	C6H8N+
95.0492	59	C6H7O+
102.0121	999	C2H4N3S+
105.0448	26	C6H5N2+
120.0444	28	C7H6NO+
124.0758	2	C5H8N4+
127.9913	144	C3H2N3OS+
130.9819	10	C7HNS+
144.9974	2	C8H3NS+
