Mass spectrum: 2-phenylphenate tetrahydrate; LC-ESI-QFT; MS2; CE: 90; R=17500; [M+H]+
Name: 2-phenylphenate tetrahydrate
Name: 2-phenylphenol
Formula: C12H10O
Exact mass: 170.0732
SMILES: OC1=C(C=CC=C1)C1=CC=CC=C1
InChI: InChI=1S/C12H10O/c13-12-9-5-4-8-11(12)10-6-2-1-3-7-10/h1-9,13H
Instrument: Q Exactive Orbitrap (Thermo Scientific)
Instrument type: LC-ESI-QFT
Ms type: MS2
Ion mode: POSITIVE
Ionization: ESI
Fragmentation mode: HCD
Collision energy: 90
Resolution: 17500
Column name: Acquity BEH C18 1.7um, 2.1x150mm (Waters)
Retention time: 18.023 min
Base peak: 79.0211
Precursor m/z: 171.0804
Precursor type: [M+H]+
Precursor intensity: 1477275.5
m/z	relative intensity	assigned
55.0178	15	C3H3O+
55.0543	48	C4H7+
57.0699	14	C4H9+
65.0386	20	C5H5+
83.0855	6	C6H11+
91.0542	85	C7H7+
95.0493	18	C6H7O+
103.0542	41	C8H7+
115.0542	154	C9H7+
116.062	11	C9H8+
117.0699	7	C9H9+
126.0463	15	C10H6+
127.0542	98	C10H7+
128.062	999	C10H8+
129.0698	17	C10H9+
131.0494	6	C9H7O+
141.0698	56	C11H9+
142.0779	13	C11H10+
143.049	4	C10H7O+
143.0856	31	C11H11+
144.057	24	C10H8O+
145.0648	133	C10H9O+
151.0544	7	C12H7+
152.0621	649	C12H8+
153.07	76	C12H9+
154.0776	3	C12H10+
159.0805	2	C11H11O+
169.0648	81	C12H9O+
170.0726	10	C12H10O+
171.0804	18	C12H11O+
