Mass spectrum: Pargyline; LC-ESI-QFT; MS2; CE: 60; R=17500; [M+H]+
Name: Pargyline
Name: N-benzyl-N-methylprop-2-yn-1-amine
Formula: C11H13N
Exact mass: 159.1048
SMILES: CN(CC#C)CC1=CC=CC=C1
InChI: InChI=1S/C11H13N/c1-3-9-12(2)10-11-7-5-4-6-8-11/h1,4-8H,9-10H2,2H3
Instrument: Q Exactive Orbitrap (Thermo Scientific)
Instrument type: LC-ESI-QFT
Ms type: MS2
Ion mode: POSITIVE
Ionization: ESI
Fragmentation mode: HCD
Collision energy: 60
Resolution: 17500
Column name: Acquity BEH C18 1.7um, 2.1x150mm (Waters)
Retention time: 8.888 min
Base peak: 79.0211
Precursor m/z: 160.1121
Precursor type: [M+H]+
Precursor intensity: 3655269.71875
m/z	relative intensity	assigned
56.0495	10	C3H6N+
65.0386	12	C5H5+
68.0494	9	C4H6N+
82.0652	2	C5H8N+
91.0543	999	C7H7+
105.0699	3	C8H9+
116.062	2	C9H8+
117.0698	3	C9H9+
118.0653	2	C8H8N+
128.0621	30	C10H8+
129.07	60	C10H9+
130.0653	4	C9H8N+
131.0731	2	C9H9N+
131.0857	13	C10H11+
132.0805	2	C9H10N+
144.0809	12	C10H10N+
145.0888	14	C10H11N+
160.112	17	C11H14N+
