Mass spectrum: Carbutamide; LC-ESI-QFT; MS2; CE: 45; R=17500; [M+H]+
Name: Carbutamide
Name: 1-(4-aminophenyl)sulfonyl-3-butylurea
Formula: C11H17N3O3S
Exact mass: 271.0991
SMILES: CCCCNC(=O)NS(=O)(=O)C1=CC=C(N)C=C1
InChI: InChI=1S/C11H17N3O3S/c1-2-3-8-13-11(15)14-18(16,17)10-6-4-9(12)5-7-10/h4-7H,2-3,8,12H2,1H3,(H2,13,14,15)
Instrument: Q Exactive Orbitrap (Thermo Scientific)
Instrument type: LC-ESI-QFT
Ms type: MS2
Ion mode: POSITIVE
Ionization: ESI
Fragmentation mode: HCD
Collision energy: 45
Resolution: 17500
Column name: Acquity BEH C18 1.7um, 2.1x150mm (Waters)
Retention time: 13.516 min
Base peak: 79.0211
Precursor m/z: 272.1063
Precursor type: [M+H]+
Precursor intensity: 6324375.0625
m/z	relative intensity	assigned
53.0022	6	C3HO+
53.0386	8	C4H5+
54.0339	6	C3H4N+
55.0178	14	C3H3O+
57.0699	201	C4H9+
58.0652	4	C3H8N+
65.0386	51	C5H5+
67.0177	2	C4H3O+
68.0494	183	C4H6N+
69.0335	11	C4H5O+
72.0808	5	C4H10N+
74.0964	944	C4H12N+
78.0338	19	C5H4N+
79.0179	27	C5H3O+
80.0495	5	C5H6N+
82.0288	4	C4H4NO+
92.0495	389	C6H6N+
93.0574	6	C6H7N+
95.0365	6	C5H5NO+
96.0444	26	C5H6NO+
107.0604	33	C6H7N2+
108.0444	964	C6H6NO+
109.0524	4	C6H7NO+
110.0601	116	C6H8NO+
117.1024	4	C5H13N2O+
120.0557	26	C6H6N3+
155.0276	13	C6H7N2OS+
156.0114	999	C6H6NO2S+
171.0808	10	C4H15N2O3S+
173.0382	6	C6H9N2O2S+
