Mass spectrum: Ouabain; LC-ESI-QFT; MS2; CE: 45; R=17500; [M+H]+
Name: Ouabain
Name: 3-[(1R,3S,5S,8R,9S,10R,11R,13R,14S,17R)-1,5,11,14-tetrahydroxy-10-(hydroxymethyl)-13-methyl-3-[(2R,3R,4R,5R,6S)-3,4,5-trihydroxy-6-methyloxan-2-yl]oxy-2,3,4,6,7,8,9,11,12,15,16,17-dodecahydro-1H-cyclopenta[a]phenanthren-17-yl]-2H-furan-5-one
Formula: C29H44O12
Exact mass: 584.2833
SMILES: C[C@@H]1O[C@@H](O[C@H]2C[C@@H](O)[C@]3(CO)[C@H]4[C@H](O)C[C@]5(C)[C@H](CC[C@]5(O)[C@@H]4CC[C@]3(O)C2)C2=CC(=O)OC2)[C@H](O)[C@H](O)[C@H]1O
InChI: InChI=1S/C29H44O12/c1-13-22(34)23(35)24(36)25(40-13)41-15-8-19(32)28(12-30)21-17(3-5-27(28,37)9-15)29(38)6-4-16(14-7-20(33)39-11-14)26(29,2)10-18(21)31/h7,13,15-19,21-25,30-32,34-38H,3-6,8-12H2,1-2H3/t13-,15-,16+,17+,18+,19+,21+,22-,23+,24+,25-,26+,27-,28+,29-/m0/s1
Instrument: Q Exactive Orbitrap (Thermo Scientific)
Instrument type: LC-ESI-QFT
Ms type: MS2
Ion mode: POSITIVE
Ionization: ESI
Fragmentation mode: HCD
Collision energy: 45
Resolution: 17500
Column name: Acquity BEH C18 1.7um, 2.1x150mm (Waters)
Retention time: 11.918 min
Base peak: 79.0211
Precursor m/z: 585.2906
Precursor type: [M+H]+
Precursor intensity: 450421.25
m/z	relative intensity	assigned
57.0334	52	C3H5O+
67.0541	60	C5H7+
71.0491	397	C4H7O+
79.0541	59	C6H7+
81.0699	65	C6H9+
83.0493	161	C5H7O+
85.0284	617	C4H5O2+
91.0543	90	C7H7+
93.0701	98	C7H9+
105.07	135	C8H9+
107.0854	72	C8H11+
111.0442	100	C6H7O2+
117.0699	201	C9H9+
119.0854	85	C9H11+
121.0651	52	C8H9O+
125.0595	48	C7H9O2+
129.0546	67	C6H9O3+
129.0701	225	C10H9+
131.0857	265	C10H11+
133.1013	108	C10H13+
141.0699	358	C11H9+
143.0856	428	C11H11+
145.1012	253	C11H13+
147.0805	87	C10H11O+
155.0856	143	C12H11+
157.1012	999	C12H13+
159.0807	167	C11H11O+
159.1169	183	C12H15+
163.0759	51	C10H11O2+
167.0858	105	C13H11+
169.1012	169	C13H13+
173.0962	70	C12H13O+
179.0854	65	C14H11+
181.1012	127	C14H13+
183.1168	110	C14H15+
193.1011	80	C15H13+
195.1172	106	C15H15+
219.1173	71	C17H15+
259.1488	87	C20H19+
273.1638	133	C21H21+
319.1693	159	C22H23O2+
337.18	120	C22H25O3+
349.1802	152	C23H25O3+
355.1902	118	C22H27O4+
367.1896	77	C23H27O4+
