Mass spectrum: Zearalenone; LC-ESI-QFT; MS2; CE: 45; R=17500; [M-H]-
Name: Zearalenone
Name: (4S,12E)-16,18-dihydroxy-4-methyl-3-oxabicyclo[12.4.0]octadeca-1(14),12,15,17-tetraene-2,8-dione
Formula: C18H22O5
Exact mass: 318.1467
SMILES: C[C@H]1CCCC(=O)CCC\C=C\C2=C(C(O)=CC(O)=C2)C(=O)O1
InChI: InChI=1S/C18H22O5/c1-12-6-5-9-14(19)8-4-2-3-7-13-10-15(20)11-16(21)17(13)18(22)23-12/h3,7,10-12,20-21H,2,4-6,8-9H2,1H3/b7-3+/t12-/m0/s1
Instrument: Q Exactive Orbitrap (Thermo Scientific)
Instrument type: LC-ESI-QFT
Ms type: MS2
Ion mode: NEGATIVE
Ionization: ESI
Fragmentation mode: HCD
Collision energy: 45
Resolution: 17500
Column name: Acquity BEH C18 1.7um, 2.1x150mm (Waters)
Retention time: 17.846 min
Base peak: 317.1395
Precursor m/z: 317.1394
Precursor type: [M-H]-
Precursor intensity: 46434198.19922
m/z	relative intensity	assigned
57.0345	177	C3H5O-
59.0138	2	C2H3O2-
63.024	5	C5H3-
65.0033	4	C4HO-
65.0396	11	C5H5-
67.019	1	C4H3O-
68.9982	6	C3HO2-
69.0346	15	C4H5O-
71.0502	1	C4H7O-
79.0553	7	C6H7-
81.0346	22	C5H5O-
83.0502	10	C5H7O-
85.0659	15	C5H9O-
89.0396	4	C7H5-
91.0189	2	C6H3O-
91.0552	5	C7H7-
93.0345	11	C6H5O-
95.0503	14	C6H7O-
97.0661	2	C6H9O-
102.0474	7	C8H6-
103.0553	51	C8H7-
105.0345	37	C7H5O-
105.0709	13	C8H9-
106.0422	1	C7H6O-
107.0139	6	C6H3O2-
107.0502	90	C7H7O-
108.0217	2	C6H4O2-
109.0293	4	C6H5O2-
109.0659	8	C7H9O-
111.0815	30	C7H11O-
113.0608	12	C6H9O2-
115.0552	7	C9H7-
117.0346	11	C8H5O-
117.071	11	C9H9-
119.0502	55	C8H7O-
121.0295	7	C7H5O2-
121.0658	9	C8H9O-
122.0373	3	C7H6O2-
123.0451	27	C7H7O2-
123.0813	3	C8H11O-
127.0762	3	C7H11O2-
129.0921	166	C7H13O2-
130.0424	165	C9H6O-
131.0502	999	C9H7O-
132.0216	41	C8H4O2-
133.0294	53	C8H5O2-
133.0658	27	C9H9O-
134.0375	1	C8H6O2-
135.0451	11	C8H7O2-
135.0814	11	C9H11O-
137.0607	4	C8H9O2-
141.0712	1	C11H9-
143.0502	93	C10H7O-
144.0581	5	C10H8O-
145.0296	10	C9H5O2-
145.0659	10	C10H9O-
146.0373	15	C9H6O2-
147.0451	247	C9H7O2-
148.053	17	C9H8O2-
149.0244	75	C8H5O3-
149.0607	206	C9H9O2-
151.0401	3	C8H7O3-
151.0765	5	C9H11O2-
155.0714	8	C8H11O3-
155.1075	7	C9H15O2-
157.0659	12	C11H9O-
158.0375	2	C10H6O2-
158.0732	2	C11H10O-
159.0451	50	C10H7O2-
159.0815	84	C11H11O-
160.0165	330	C9H4O3-
161.0244	29	C9H5O3-
161.0607	134	C10H9O2-
162.0322	5	C9H6O3-
163.0398	12	C9H7O3-
164.0478	2	C9H8O3-
167.035	3	C8H7O4-
171.0815	2	C12H11O-
172.0526	1	C11H8O2-
173.0242	3	C10H5O3-
173.0607	6	C11H9O2-
173.0972	3	C12H13O-
174.0322	77	C10H6O3-
175.04	835	C10H7O3-
177.0556	3	C10H9O3-
177.0919	8	C11H13O2-
181.1233	9	C11H17O2-
185.0604	16	C12H9O2-
185.0975	2	C13H13O-
186.0683	2	C12H10O2-
187.04	318	C11H7O3-
188.0478	26	C11H8O3-
189.0557	3	C11H9O3-
189.0919	4	C12H13O2-
189.1284	3	C13H17O-
191.0352	3	C10H7O4-
193.0506	14	C10H9O4-
193.0869	32	C11H13O3-
199.0762	5	C13H11O2-
200.0843	5	C13H12O2-
201.0558	6	C12H9O3-
201.092	6	C13H13O2-
201.1285	5	C14H17O-
202.0633	5	C12H10O3-
203.0713	55	C12H11O3-
203.1075	9	C13H15O2-
206.0221	5	C10H6O5-
213.0916	2	C14H13O2-
213.1283	4	C15H17O-
215.1076	5	C14H15O2-
216.079	3	C13H12O3-
217.1242	2	C14H17O2-
219.1028	2	C13H15O3-
220.0377	9	C11H8O5-
226.0635	2	C14H10O3-
229.0873	2	C14H13O3-
229.1231	5	C15H17O2-
230.0578	1	C13H10O4-
231.1026	13	C14H15O3-
231.1388	10	C15H19O2-
233.1183	4	C14H17O3-
243.0664	2	C14H11O4-
245.1184	4	C15H17O3-
246.1259	9	C15H18O3-
247.0982	3	C14H15O4-
247.134	20	C15H19O3-
255.103	2	C16H15O3-
255.1385	7	C17H19O2-
257.082	4	C15H13O4-
257.1178	5	C16H17O3-
261.1133	19	C15H17O4-
271.134	10	C17H19O3-
273.1496	125	C17H21O3-
275.0928	3	C15H15O5-
275.1289	2	C16H19O4-
289.1444	36	C17H21O4-
299.1288	53	C18H19O4-
317.1392	273	C18H21O5-
