Mass spectrum: Caffeine; LC-ESI-QFT; MS2; CE: 75; R=17500; [M+H]+
Name: Caffeine
Name: 1,3,7-trimethylpurine-2,6-dione
Formula: C8H10N4O2
Exact mass: 194.0804
SMILES: CN1C=NC2=C1C(=O)N(C)C(=O)N2C
InChI: InChI=1S/C8H10N4O2/c1-10-4-9-6-5(10)7(13)12(3)8(14)11(6)2/h4H,1-3H3
Instrument: Q Exactive Orbitrap (Thermo Scientific)
Instrument type: LC-ESI-QFT
Ms type: MS2
Ion mode: POSITIVE
Ionization: ESI
Fragmentation mode: HCD
Collision energy: 75
Resolution: 17500
Column name: Acquity BEH C18 1.7um, 2.1x150mm (Waters)
Retention time: 11.252 min
Base peak: 79.0212
Precursor m/z: 195.0877
Precursor type: [M+H]+
Precursor intensity: 2802562.53125
m/z	relative intensity	assigned
54.0339	7	C3H4N+
56.0495	88	C3H6N+
57.0448	9	C2H5N2+
67.029	9	C3H3N2+
68.0369	7	C3H4N2+
69.0446	320	C3H5N2+
70.0286	4	C3H4NO+
80.0129	2	C4H2NO+
81.0447	38	C4H5N2+
82.0525	16	C4H6N2+
83.0603	316	C4H7N2+
93.0447	7	C5H5N2+
97.0075	27	C8H+
97.0397	21	C4H5N2O+
108.0557	14	C5H6N3+
109.0396	90	C5H5N2O+
110.0712	590	C5H8N3+
111.0552	39	C5H7N2O+
113.0346	4	C4H5N2O2+
122.0711	3	C6H8N3+
123.0427	144	C5H5N3O+
135.0663	5	C6H7N4+
136.0744	3	C6H8N4+
138.0662	999	C6H8N3O+
154.0607	4	C6H8N3O2+
156.0762	2	C6H10N3O2+
195.0876	58	C8H11N4O2+
