Mass spectrum: Piperine; LC-ESI-QFT; MS2; CE: 45; R=17500; [M+H]+
Name: Piperine
Name: (2E,4E)-5-(1,3-benzodioxol-5-yl)-1-piperidin-1-ylpenta-2,4-dien-1-one
Formula: C17H19NO3
Exact mass: 285.1365
SMILES: O=C(\C=C\C=C\C1=CC=C2OCOC2=C1)N1CCCCC1
InChI: InChI=1S/C17H19NO3/c19-17(18-10-4-1-5-11-18)7-3-2-6-14-8-9-15-16(12-14)21-13-20-15/h2-3,6-9,12H,1,4-5,10-11,13H2/b6-2+,7-3+
Instrument: Q Exactive Orbitrap (Thermo Scientific)
Instrument type: LC-ESI-QFT
Ms type: MS2
Ion mode: POSITIVE
Ionization: ESI
Fragmentation mode: HCD
Collision energy: 45
Resolution: 17500
Column name: Acquity BEH C18 1.7um, 2.1x150mm (Waters)
Retention time: 17.758 min
Base peak: 79.0211
Precursor m/z: 286.1438
Precursor type: [M+H]+
Precursor intensity: 26663708.25
m/z	relative intensity	assigned
53.0022	1	C3HO+
55.0178	2	C3H3O+
67.0541	1	C5H7+
69.0698	84	C5H9+
70.065	3	C4H8N+
79.0542	1	C6H7+
84.0808	36	C5H10N+
86.0964	36	C5H12N+
103.0542	1	C8H7+
109.0522	1	C6H7NO+
112.0757	84	C6H10NO+
114.0914	2	C6H12NO+
115.0542	103	C9H7+
117.0698	8	C9H9+
122.0962	1	C8H12N+
131.0491	2	C9H7O+
134.0964	5	C9H12N+
135.044	325	C8H7O2+
143.0491	149	C10H7O+
145.0648	5	C10H9O+
150.0913	8	C9H12NO+
151.0992	33	C9H13NO+
157.1015	1	C12H13+
159.0441	37	C10H7O2+
161.0596	7	C10H9O2+
171.044	149	C11H7O2+
173.0597	80	C11H9O2+
175.0755	2	C11H11O2+
185.0961	8	C13H13O+
189.0545	4	C11H9O3+
201.0545	999	C12H9O3+
203.0703	2	C12H11O3+
215.1068	3	C14H15O2+
218.1177	2	C13H16NO2+
258.1485	2	C16H20NO2+
286.1436	36	C17H20NO3+
