Mass spectrum: SR58611; LC-ESI-QFT; MS2; CE: 60; R=17500; [M+H]+
Name: SR58611
Name: ethyl 2-[[7-[[2-(3-chlorophenyl)-2-hydroxyethyl]amino]-5,6,7,8-tetrahydronaphthalen-2-yl]oxy]acetate
Formula: C22H26ClNO4
Exact mass: 403.1550
SMILES: CCOC(=O)COC1=CC2=C(CCC(C2)NCC(O)C2=CC(Cl)=CC=C2)C=C1
InChI: InChI=1S/C22H26ClNO4/c1-2-27-22(26)14-28-20-9-7-15-6-8-19(11-17(15)12-20)24-13-21(25)16-4-3-5-18(23)10-16/h3-5,7,9-10,12,19,21,24-25H,2,6,8,11,13-14H2,1H3
Instrument: Q Exactive Orbitrap (Thermo Scientific)
Instrument type: LC-ESI-QFT
Ms type: MS2
Ion mode: POSITIVE
Ionization: ESI
Fragmentation mode: HCD
Collision energy: 60
Resolution: 17500
Column name: Acquity BEH C18 1.7um, 2.1x150mm (Waters)
Retention time: 15.271 min
Base peak: 79.0211
Precursor m/z: 404.1623
Precursor type: [M+H]+
Precursor intensity: 20246853.75
m/z	relative intensity	assigned
51.0229	1	C4H3+
53.0386	3	C4H5+
55.0178	1	C3H3O+
63.0228	1	C5H3+
65.0385	1	C5H5+
77.0383	1	C6H5+
79.0541	10	C6H7+
91.0542	319	C7H7+
95.049	1	C6H7O+
102.0464	1	C8H6+
103.0542	34	C8H7+
105.0698	26	C8H9+
107.0492	1	C7H7O+
115.0541	26	C9H7+
116.062	69	C9H8+
117.0571	2	C8H7N+
117.0698	51	C9H9+
118.065	81	C8H8N+
119.0729	151	C8H9N+
121.0647	2	C8H9O+
125.0149	1	C7H6Cl+
127.0309	1	C7H8Cl+
127.0539	5	C10H7+
128.062	154	C10H8+
129.0698	238	C10H9+
130.0777	3	C10H10+
131.0854	999	C10H11+
132.0571	1	C9H8O+
133.0646	6	C9H9O+
137.0154	3	C8H6Cl+
139.0309	13	C8H8Cl+
141.0698	34	C11H9+
142.0776	5	C11H10+
143.0603	2	C8H12Cl+
144.0569	40	C10H8O+
145.0647	104	C10H9O+
146.0725	119	C10H10O+
147.0803	257	C10H11O+
154.0417	141	C8H9ClN+
155.0603	28	C9H12Cl+
157.0759	384	C9H14Cl+
158.0728	5	C11H10O+
159.0803	595	C11H11O+
169.076	3	C10H14Cl+
172.088	4	C12H12O+
174.091	1	C11H12NO+
174.1038	2	C12H14O+
175.1116	1	C12H15O+
177.0908	2	C11H13O2+
179.07	1	C10H11O3+
187.0752	1	C12H11O2+
187.1117	2	C13H15O+
191.1062	4	C12H15O2+
204.0781	5	C12H12O3+
205.0858	53	C12H13O3+
207.1012	1	C12H15O3+
233.117	20	C14H17O3+
