Mass spectrum: Acifluorfen; LC-ESI-QFT; MS2; CE: 75; R=17500; [M-H]-
Name: Acifluorfen
Name: 5-[2-chloro-4-(trifluoromethyl)phenoxy]-2-nitrobenzoic acid
Formula: C14H7ClF3NO5
Exact mass: 360.9965
SMILES: OC(=O)C1=C(C=CC(OC2=CC=C(C=C2Cl)C(F)(F)F)=C1)[N+]([O-])=O
InChI: InChI=1S/C14H7ClF3NO5/c15-10-5-7(14(16,17)18)1-4-12(10)24-8-2-3-11(19(22)23)9(6-8)13(20)21/h1-6H,(H,20,21)
Instrument: Q Exactive Orbitrap (Thermo Scientific)
Instrument type: LC-ESI-QFT
Ms type: MS2
Ion mode: NEGATIVE
Ionization: ESI
Fragmentation mode: HCD
Collision energy: 75
Resolution: 17500
Column name: Acquity BEH C18 1.7um, 2.1x150mm (Waters)
Retention time: 18.726 min
Base peak: 357.026
Precursor m/z: 359.9892
Precursor type: [M-H]-
Precursor intensity: 11663277.96289
m/z	relative intensity	assigned
68.9958	13	CF3-
84.9907	999	CF3O-
85.9941	71	CH4ClFO-
88.0193	11	C6H2N-
110.0411	27	C6H5FN-
116.0141	33	C7H2NO-
128.0318	9	C6H4F2N-
136.0204	162	C7H3FNO-
163.0308	8	C5H6FNO4-
174.9765	13	C7H2ClF2O-
183.0362	54	C8H6FNO3-
190.0412	14	C14H6O-
194.983	58	C7H3ClF3O-
