Mass spectrum: Vincamine; LC-ESI-QFT; MS2; CE: 60; R=17500; [M+H]+
Name: Vincamine
Name: methyl (15S,17S,19S)-15-ethyl-17-hydroxy-1,11-diazapentacyclo[9.6.2.02,7.08,18.015,19]nonadeca-2,4,6,8(18)-tetraene-17-carboxylate
Formula: C21H26N2O3
Exact mass: 354.1943
SMILES: CC[C@@]12CCCN3CCC4=C([C@H]13)N(C1=C4C=CC=C1)[C@](O)(C2)C(=O)OC
InChI: InChI=1S/C21H26N2O3/c1-3-20-10-6-11-22-12-9-15-14-7-4-5-8-16(14)23(17(15)18(20)22)21(25,13-20)19(24)26-2/h4-5,7-8,18,25H,3,6,9-13H2,1-2H3/t18-,20+,21+/m1/s1
Instrument: Q Exactive Orbitrap (Thermo Scientific)
Instrument type: LC-ESI-QFT
Ms type: MS2
Ion mode: POSITIVE
Ionization: ESI
Fragmentation mode: HCD
Collision energy: 60
Resolution: 17500
Column name: Acquity BEH C18 1.7um, 2.1x150mm (Waters)
Retention time: 12.617 min
Base peak: 79.0211
Precursor m/z: 355.2016
Precursor type: [M+H]+
Precursor intensity: 29955664
m/z	relative intensity	assigned
53.0386	3	C4H5+
55.018	3	C3H3O+
55.0542	16	C4H7+
56.0495	43	C3H6N+
58.0651	15	C3H8N+
59.0491	3	C3H7O+
65.0385	1	C5H5+
67.0542	37	C5H7+
68.0494	20	C4H6N+
69.0334	2	C4H5O+
69.0572	1	C4H7N+
69.0698	6	C5H9+
70.0651	136	C4H8N+
72.0444	1	C3H6NO+
72.0806	2	C4H10N+
79.0542	24	C6H7+
80.0495	10	C5H6N+
81.0336	3	C5H5O+
81.0699	15	C6H9+
82.0652	10	C5H8N+
83.0491	78	C5H7O+
83.073	4	C5H9N+
84.0808	23	C5H10N+
85.0648	3	C5H9O+
91.0543	41	C7H7+
92.0494	2	C6H6N+
93.0574	3	C6H7N+
93.0699	47	C7H9+
94.0652	11	C6H8N+
95.0492	15	C6H7O+
95.0729	4	C6H9N+
95.0855	71	C7H11+
96.0444	1	C5H6NO+
96.0808	17	C6H10N+
98.0965	21	C6H12N+
100.0757	3	C5H10NO+
103.0544	7	C8H7+
105.0699	40	C8H9+
106.065	9	C7H8N+
107.0492	3	C7H7O+
107.0855	46	C8H11+
108.0808	21	C7H10N+
109.0649	13	C7H9O+
109.0885	2	C7H11N+
109.1013	6	C8H13+
110.0964	112	C7H12N+
111.1042	22	C7H13N+
112.1121	32	C7H14N+
115.0542	10	C9H7+
117.0572	4	C8H7N+
117.0699	65	C9H9+
118.0652	11	C8H8N+
119.0493	2	C8H7O+
119.0732	4	C8H9N+
119.0854	11	C9H11+
120.0808	13	C8H10N+
121.0648	23	C8H9O+
121.0885	2	C8H11N+
122.0601	24	C7H8NO+
122.0964	24	C8H12N+
123.0805	46	C8H11O+
123.1042	10	C8H13N+
124.0756	16	C7H10NO+
124.1121	107	C8H14N+
128.0496	2	C9H6N+
128.0621	2	C10H8+
129.0699	13	C10H9+
130.0651	54	C9H8N+
131.073	12	C9H9N+
131.0853	1	C10H11+
132.0572	2	C9H8O+
132.0808	25	C9H10N+
133.0648	16	C9H9O+
133.0886	2	C9H11N+
134.0964	101	C9H12N+
135.0804	34	C9H11O+
135.1042	5	C9H13N+
136.0757	13	C8H10NO+
136.1123	11	C9H14N+
137.0962	3	C9H13O+
138.0912	2	C8H12NO+
138.1278	10	C9H16N+
142.0653	4	C10H8N+
143.0732	31	C10H9N+
144.0808	999	C10H10N+
145.065	7	C10H9O+
145.0886	5	C10H11N+
146.0601	2	C9H8NO+
146.0964	15	C10H12N+
147.0802	2	C10H11O+
148.0756	5	C9H10NO+
148.1121	2	C10H14N+
150.0913	10	C9H12NO+
150.128	3	C10H16N+
151.0755	12	C9H11O2+
152.107	301	C9H14NO+
153.0701	2	C12H9+
153.115	2	C9H15NO+
154.0647	7	C11H8N+
154.0861	10	C8H12NO2+
155.0603	5	C10H7N2+
155.0728	4	C11H9N+
156.0808	49	C11H10N+
157.0888	11	C11H11N+
158.0601	4	C10H8NO+
158.0964	56	C11H12N+
160.0757	6	C10H10NO+
160.1118	9	C11H14N+
162.0913	56	C10H12NO+
163.0754	4	C10H11O2+
164.107	9	C10H14NO+
165.0698	5	C13H9+
165.0911	5	C10H13O2+
166.0783	2	C13H10+
166.1227	5	C10H16NO+
167.073	12	C12H9N+
168.0808	34	C12H10N+
169.0761	2	C11H9N2+
169.0877	8	C12H11N+
170.06	31	C11H8NO+
170.0964	43	C12H12N+
171.0917	12	C11H11N2+
172.0756	3	C11H10NO+
172.0994	5	C11H12N2+
172.1119	16	C12H14N+
174.0915	7	C11H12NO+
177.0911	2	C11H13O2+
178.0779	6	C14H10+
179.0854	12	C14H11+
180.0807	47	C13H10N+
180.1017	3	C10H14NO2+
181.0756	4	C12H9N2+
181.0886	34	C13H11N+
181.1012	5	C14H13+
182.0825	2	C12H10N2+
182.0964	38	C13H12N+
183.092	2	C12H11N2+
183.1038	7	C13H13N+
184.0758	11	C12H10NO+
184.0999	3	C12H12N2+
184.1121	11	C13H14N+
185.1074	4	C12H13N2+
186.0911	10	C12H12NO+
186.1279	3	C13H16N+
188.0702	2	C11H10NO2+
190.0647	2	C14H8N+
191.073	10	C14H9N+
191.0846	2	C15H11+
192.0807	14	C14H10N+
192.0924	8	C15H12+
192.1018	3	C11H14NO2+
193.0887	21	C14H11N+
193.1012	11	C15H13+
194.0599	3	C13H8NO+
194.0965	44	C14H12N+
194.1177	27	C11H16NO2+
195.1042	20	C14H13N+
196.0759	6	C13H10NO+
196.0969	5	C13H12N2+
196.1121	23	C14H14N+
197.0842	1	C13H11NO+
197.1075	8	C13H13N2+
197.1193	2	C14H15N+
198.0918	7	C13H12NO+
198.1279	14	C14H16N+
199.0869	1	C12H11N2O+
202.0861	5	C12H12NO2+
204.0807	27	C15H10N+
204.1021	2	C12H14NO2+
205.0887	55	C15H11N+
206.0965	85	C15H12N+
207.1043	33	C15H13N+
207.1169	15	C16H15+
208.0755	9	C14H10NO+
208.112	96	C15H14N+
209.1078	4	C14H13N2+
209.1198	47	C15H15N+
210.0917	3	C14H12NO+
210.1276	28	C15H16N+
211.1232	4	C14H15N2+
212.1074	5	C14H14NO+
212.1281	79	C11H18NO3+
214.0865	3	C13H12NO2+
216.1025	2	C13H14NO2+
217.0883	14	C16H11N+
218.0964	34	C16H12N+
219.1043	80	C16H13N+
220.1121	112	C16H14N+
221.0834	3	C15H11NO+
221.1075	6	C15H13N2+
221.1198	55	C16H15N+
222.0915	6	C15H12NO+
222.1276	103	C16H16N+
223.0992	4	C15H13NO+
223.1229	9	C15H15N2+
223.1357	14	C16H17N+
224.1076	7	C15H14NO+
224.1307	23	C15H16N2+
224.1434	41	C16H18N+
225.0777	2	C14H11NO2+
225.1385	6	C15H17N2+
226.0862	4	C14H12NO2+
226.1226	22	C15H16NO+
228.1024	3	C14H14NO2+
230.097	2	C17H12N+
231.104	11	C17H13N+
232.0758	1	C16H10NO+
232.1119	23	C17H14N+
233.0834	11	C16H11NO+
233.1073	4	C16H13N2+
233.12	19	C17H15N+
234.1277	178	C17H16N+
235.123	5	C16H15N2+
235.1354	39	C17H17N+
236.1069	16	C16H14NO+
236.1433	47	C17H18N+
237.0786	18	C15H11NO2+
237.1161	3	C16H15NO+
237.1385	22	C16H17N2+
237.1515	7	C17H19N+
238.0862	20	C15H12NO2+
238.1226	23	C16H16NO+
238.159	5	C17H20N+
239.094	53	C15H13NO2+
239.1544	9	C16H19N2+
240.1016	9	C15H14NO2+
242.1174	2	C15H16NO2+
244.1115	1	C18H14N+
245.12	5	C18H15N+
246.0922	2	C17H12NO+
246.1277	22	C18H16N+
247.0993	6	C17H13NO+
247.1229	10	C17H15N2+
247.1358	3	C18H17N+
248.107	5	C17H14NO+
248.1304	17	C17H16N2+
248.1435	58	C18H18N+
249.1021	1	C16H13N2O+
249.1149	5	C17H15NO+
249.1384	29	C17H17N2+
249.1514	25	C18H19N+
250.0865	27	C16H12NO2+
250.1228	8	C17H16NO+
250.1589	44	C18H20N+
251.0939	24	C16H13NO2+
251.1543	5	C17H19N2+
252.102	57	C16H14NO2+
252.138	11	C17H18NO+
253.1096	51	C16H15NO2+
253.1701	12	C17H21N2+
254.1176	13	C16H16NO2+
260.1434	10	C19H18N+
261.1385	1	C18H17N2+
262.0864	3	C17H12NO2+
262.1228	24	C18H16NO+
262.1463	6	C18H18N2+
263.1543	5	C18H19N2+
264.1019	116	C17H14NO2+
265.1097	237	C17H15NO2+
266.1176	144	C17H16NO2+
266.153	13	C18H20NO+
267.1253	148	C17H17NO2+
268.1332	143	C17H18NO2+
274.1229	3	C19H16NO+
275.118	10	C18H15N2O+
276.1021	12	C18H14NO2+
276.1237	9	C18H16N2O+
276.1389	4	C19H18NO+
277.1095	3	C18H15NO2+
277.1345	7	C18H17N2O+
277.1699	40	C19H21N2+
278.1175	101	C18H16NO2+
278.1781	11	C19H22N2+
279.1255	208	C18H17NO2+
280.1332	709	C18H18NO2+
281.1421	8	C18H19NO2+
282.1487	13	C18H20NO2+
290.1176	35	C19H16NO2+
291.1252	32	C19H17NO2+
292.1334	102	C19H18NO2+
293.1422	41	C19H19NO2+
294.1489	533	C19H20NO2+
295.1803	49	C19H23N2O+
304.1339	2	C20H18NO2+
305.1645	5	C20H21N2O+
306.1487	10	C20H20NO2+
307.144	98	C19H19N2O2+
308.1666	126	C20H22NO2+
309.1597	10	C19H21N2O2+
310.1794	2	C20H24NO2+
320.1643	12	C21H22NO2+
322.169	1	C20H22N2O2+
337.1911	80	C21H25N2O2+
355.2019	4	C21H27N2O3+
