Mass spectrum: 2-Methyl-4`-(methylthio)-2-morpholinopropiophenone; LC-ESI-QFT; MS2; CE: 30; R=17500; [M+H]+
Name: 2-Methyl-4'-(methylthio)-2-morpholinopropiophenone
Name: 2-methyl-1-(4-methylsulfanylphenyl)-2-morpholin-4-ylpropan-1-one
Formula: C15H21NO2S
Exact mass: 279.1293
SMILES: CSC1=CC=C(C=C1)C(=O)C(C)(C)N1CCOCC1
InChI: InChI=1S/C15H21NO2S/c1-15(2,16-8-10-18-11-9-16)14(17)12-4-6-13(19-3)7-5-12/h4-7H,8-11H2,1-3H3
Instrument: Q Exactive Orbitrap (Thermo Scientific)
Instrument type: LC-ESI-QFT
Ms type: MS2
Ion mode: POSITIVE
Ionization: ESI
Fragmentation mode: HCD
Collision energy: 30
Resolution: 17500
Column name: Acquity BEH C18 1.7um, 2.1x150mm (Waters)
Retention time: 14.172 min
Base peak: 79.0211
Precursor m/z: 280.1366
Precursor type: [M+H]+
Precursor intensity: 11461297.75
m/z	relative intensity	assigned
59.0491	2	C3H7O+
70.0651	11	C4H8N+
86.06	4	C4H8NO+
88.0757	421	C4H10NO+
114.0913	11	C6H12NO+
117.0698	6	C9H9+
128.1069	265	C7H14NO+
135.0262	1	C8H7S+
137.0418	2	C8H9S+
145.0648	5	C10H9O+
146.0725	45	C10H10O+
150.0497	2	C9H10S+
153.0366	3	C8H9OS+
156.102	1	C8H14NO2+
165.0732	999	C10H13S+
193.0681	84	C11H13OS+
265.1136	2	C14H19NO2S+
280.1365	935	C15H22NO2S+
