Mass spectrum: Danazol; LC-ESI-QFT; MS2; CE: 60; R=17500; [M+H]+
Name: Danazol
Name: (1S,2R,13R,14S,17R,18S)-17-ethynyl-2,18-dimethyl-7-oxa-6-azapentacyclo[11.7.0.02,10.04,8.014,18]icosa-4(8),5,9-trien-17-ol
Formula: C22H27NO2
Exact mass: 337.2042
SMILES: C[C@]12CC[C@H]3[C@@H](CCC4=CC5=C(C[C@]34C)C=NO5)[C@@H]1CC[C@@]2(O)C#C
InChI: InChI=1S/C22H27NO2/c1-4-22(24)10-8-18-16-6-5-15-11-19-14(13-23-25-19)12-20(15,2)17(16)7-9-21(18,22)3/h1,11,13,16-18,24H,5-10,12H2,2-3H3/t16-,17+,18+,20+,21+,22+/m1/s1
Instrument: Q Exactive Orbitrap (Thermo Scientific)
Instrument type: LC-ESI-QFT
Ms type: MS2
Ion mode: POSITIVE
Ionization: ESI
Fragmentation mode: HCD
Collision energy: 60
Resolution: 17500
Column name: Acquity BEH C18 1.7um, 2.1x150mm (Waters)
Retention time: 18.811 min
Base peak: 79.0211
Precursor m/z: 338.2115
Precursor type: [M+H]+
Precursor intensity: 5674011.4375
m/z	relative intensity	assigned
50.0152	11	C4H2+
51.023	15	C4H3+
53.0022	22	C3HO+
53.0386	86	C4H5+
54.0338	23	C3H4N+
55.0179	59	C3H3O+
55.0542	92	C4H7+
56.0495	164	C3H6N+
65.0385	58	C5H5+
67.0415	14	C4H5N+
67.0542	272	C5H7+
68.0495	26	C4H6N+
69.0335	36	C4H5O+
69.0698	42	C5H9+
70.0287	387	C3H4NO+
70.0651	437	C4H8N+
72.0443	19	C3H6NO+
77.0385	23	C6H5+
79.0542	609	C6H7+
80.0495	114	C5H6N+
81.0335	69	C5H5O+
81.0699	278	C6H9+
82.0287	13	C4H4NO+
82.0651	75	C5H8N+
83.0491	17	C5H7O+
84.0444	257	C4H6NO+
84.0807	14	C5H10N+
91.0542	999	C7H7+
92.0494	53	C6H6N+
93.0699	627	C7H9+
94.0652	241	C6H8N+
95.0492	195	C6H7O+
95.073	22	C6H9N+
95.0855	177	C7H11+
96.0444	121	C5H6NO+
96.0807	38	C6H10N+
97.0648	30	C6H9O+
98.06	12	C5H8NO+
103.0543	158	C8H7+
104.0621	14	C8H8+
105.0699	835	C8H9+
106.0652	366	C7H8N+
107.0491	63	C7H7O+
107.0728	45	C7H9N+
107.0855	226	C8H11+
108.0445	30	C6H6NO+
108.0808	147	C7H10N+
109.0522	13	C6H7NO+
109.0648	81	C7H9O+
109.1013	92	C8H13+
110.0602	57	C6H8NO+
111.0801	12	C7H11O+
115.0542	255	C9H7+
116.0621	98	C9H8+
117.0699	470	C9H9+
118.0651	43	C8H8N+
119.0493	39	C8H7O+
119.0856	439	C9H11+
120.0444	255	C7H6NO+
120.0808	890	C8H10N+
121.0648	613	C8H9O+
121.0886	54	C8H11N+
121.1013	83	C9H13+
122.0601	152	C7H8NO+
122.0964	143	C8H12N+
123.068	67	C7H9NO+
123.0804	35	C8H11O+
124.0756	48	C7H10NO+
128.0621	323	C10H8+
129.0699	389	C10H9+
130.0651	59	C9H8N+
130.0776	73	C10H10+
131.0493	35	C9H7O+
131.0732	38	C9H9N+
131.0856	504	C10H11+
132.0572	12	C9H8O+
132.0809	71	C9H10N+
132.0934	10	C10H12+
133.0521	17	C8H7NO+
133.0649	91	C9H9O+
133.0888	17	C9H11N+
133.1012	135	C10H13+
134.06	64	C8H8NO+
134.0964	165	C9H12N+
135.0679	29	C8H9NO+
135.0803	80	C9H11O+
135.1045	12	C9H13N+
135.1171	12	C10H15+
136.0757	56	C8H10NO+
141.0699	225	C11H9+
142.0778	237	C11H10+
143.0856	401	C11H11+
144.0807	64	C10H10N+
144.0934	40	C11H12+
145.0649	83	C10H9O+
145.0887	34	C10H11N+
145.1012	268	C11H13+
146.0725	18	C10H10O+
146.0965	73	C10H12N+
147.0679	13	C9H9NO+
147.0805	225	C10H11O+
147.1043	17	C10H13N+
147.117	38	C11H15+
148.0757	814	C9H10NO+
149.0836	63	C9H11NO+
149.0957	11	C10H13O+
150.0915	64	C9H12NO+
152.0621	25	C12H8+
153.0699	127	C12H9+
154.0654	12	C11H8N+
154.0777	116	C12H10+
155.0856	313	C12H11+
156.0811	25	C11H10N+
156.0936	101	C12H12+
157.0649	35	C11H9O+
157.0891	22	C11H11N+
157.1012	293	C12H13+
158.0727	26	C11H10O+
158.0963	59	C11H12N+
159.0806	82	C11H11O+
159.105	19	C11H13N+
159.117	83	C12H15+
160.0754	22	C10H10NO+
160.0882	12	C11H12O+
160.1119	77	C11H14N+
161.0961	55	C11H13O+
161.1323	21	C12H17+
162.0913	68	C10H12NO+
165.0698	159	C13H9+
166.0779	83	C13H10+
167.0856	184	C13H11+
168.0806	20	C12H10N+
168.0935	69	C13H12+
169.065	12	C12H9O+
169.0887	14	C12H11N+
169.1012	233	C13H13+
170.0963	33	C12H12N+
170.1093	21	C13H14+
171.0807	58	C12H11O+
171.1044	21	C12H13N+
171.1168	105	C13H15+
172.0755	20	C11H10NO+
172.1122	58	C12H14N+
173.0831	10	C11H11NO+
173.0961	51	C12H13O+
173.1323	17	C13H17+
174.0915	43	C11H12NO+
174.1279	36	C12H16N+
176.1068	11	C11H14NO+
178.0779	81	C14H10+
179.0855	149	C14H11+
180.0933	71	C14H12+
181.0655	10	C13H9O+
181.0876	10	C13H11N+
181.1013	158	C14H13+
182.0726	11	C13H10O+
182.0962	26	C13H12N+
182.1091	55	C14H14+
183.0808	24	C13H11O+
183.1037	15	C13H13N+
183.1171	119	C14H15+
184.0884	14	C13H12O+
184.1118	33	C13H14N+
185.0959	56	C13H13O+
185.1328	42	C14H17+
186.0917	10	C12H12NO+
186.128	17	C13H16N+
187.1112	21	C13H15O+
188.1073	19	C12H14NO+
189.0699	20	C15H9+
190.0779	26	C15H10+
191.0857	78	C15H11+
192.0936	76	C15H12+
193.1013	121	C15H13+
194.0963	16	C14H12N+
194.1091	54	C15H14+
195.0806	27	C14H11O+
195.1166	105	C15H15+
196.0881	13	C14H12O+
196.1123	14	C14H14N+
196.1249	22	C15H16+
197.0962	26	C14H13O+
197.1328	50	C15H17+
198.1276	24	C14H16N+
199.1117	22	C14H15O+
200.1072	18	C13H14NO+
202.078	20	C16H10+
202.1231	18	C13H16NO+
203.0856	81	C16H11+
204.0932	46	C16H12+
205.1012	113	C16H13+
206.1087	47	C16H14+
207.1066	15	C15H13N+
207.1167	72	C16H15+
208.1115	19	C15H14N+
208.1248	29	C16H16+
209.0959	26	C15H13O+
209.1321	42	C16H17+
210.1036	11	C15H14O+
210.1279	26	C15H16N+
210.1393	10	C16H18+
211.1118	26	C15H15O+
211.1481	25	C16H19+
215.0856	26	C17H11+
216.0936	27	C17H12+
217.1008	87	C17H13+
218.1091	43	C17H14+
219.1175	69	C17H15+
220.1122	12	C16H14N+
220.1245	34	C17H16+
221.0958	16	C16H13O+
221.1328	32	C17H17+
222.1279	15	C16H16N+
223.1117	20	C16H15O+
223.1484	19	C17H19+
224.1433	16	C16H18N+
225.1637	26	C17H21+
226.1592	17	C16H20N+
228.138	22	C15H18NO+
229.1013	13	C18H13+
230.1093	19	C18H14+
231.1168	58	C18H15+
232.1247	32	C18H16+
233.1327	22	C18H17+
235.1475	16	C18H19+
237.1272	18	C17H17O+
238.1209	12	C16H16NO+
242.1903	12	C17H24N+
245.1325	39	C19H17+
246.1408	11	C19H18+
247.1116	11	C18H15O+
247.1482	16	C19H19+
248.1436	17	C18H18N+
262.1595	14	C19H20N+
273.1284	12	C20H17O+
282.1862	10	C19H24NO+
294.1858	18	C20H24NO+
295.1929	75	C20H25NO+
296.1643	16	C19H22NO2+
310.2159	43	C21H28NO+
