Mass spectrum: Nonivamide; LC-ESI-QFT; MS2; CE: 90; R=17500; [M+H]+
Name: Nonivamide
Name: N-[(4-hydroxy-3-methoxyphenyl)methyl]nonanamide
Formula: C17H27NO3
Exact mass: 293.1991
SMILES: CCCCCCCCC(=O)NCC1=CC(OC)=C(O)C=C1
InChI: InChI=1S/C17H27NO3/c1-3-4-5-6-7-8-9-17(20)18-13-14-10-11-15(19)16(12-14)21-2/h10-12,19H,3-9,13H2,1-2H3,(H,18,20)
Instrument: Q Exactive Orbitrap (Thermo Scientific)
Instrument type: LC-ESI-QFT
Ms type: MS2
Ion mode: POSITIVE
Ionization: ESI
Fragmentation mode: HCD
Collision energy: 90
Resolution: 17500
Column name: Acquity BEH C18 1.7um, 2.1x150mm (Waters)
Retention time: 17.928 min
Base peak: 79.0211
Precursor m/z: 294.2064
Precursor type: [M+H]+
Precursor intensity: 7333384.8125
m/z	relative intensity	assigned
51.023	9	C4H3+
53.0387	36	C4H5+
55.0179	13	C3H3O+
55.0543	7	C4H7+
57.0699	27	C4H9+
65.0386	53	C5H5+
66.0464	246	C5H6+
67.0541	13	C5H7+
71.0855	5	C5H11+
77.0386	24	C6H5+
79.0542	106	C6H7+
81.0699	52	C6H9+
88.0758	5	C4H10NO+
91.0542	80	C7H7+
94.0414	999	C6H6O+
95.0492	61	C6H7O+
105.0335	13	C7H5O+
107.0492	34	C7H7O+
109.0648	30	C7H9O+
122.0363	812	C7H6O2+
135.0439	9	C8H7O2+
137.0598	556	C8H9O2+
