Mass spectrum: Fluridone; LC-ESI-QFT; MS2; CE: 45; R=17500; [M+H]+
Name: Fluridone
Name: 1-methyl-3-phenyl-5-[3-(trifluoromethyl)phenyl]pyridin-4-one
Formula: C19H14F3NO
Exact mass: 329.1027
SMILES: CN1C=C(C(=O)C(=C1)C1=CC(=CC=C1)C(F)(F)F)C1=CC=CC=C1
InChI: InChI=1S/C19H14F3NO/c1-23-11-16(13-6-3-2-4-7-13)18(24)17(12-23)14-8-5-9-15(10-14)19(20,21)22/h2-12H,1H3
Instrument: Q Exactive Orbitrap (Thermo Scientific)
Instrument type: LC-ESI-QFT
Ms type: MS2
Ion mode: POSITIVE
Ionization: ESI
Fragmentation mode: HCD
Collision energy: 45
Resolution: 17500
Column name: Acquity BEH C18 1.7um, 2.1x150mm (Waters)
Retention time: 16.806 min
Base peak: 79.0211
Precursor m/z: 330.11
Precursor type: [M+H]+
Precursor intensity: 54258690.75
m/z	relative intensity	assigned
242.0961	5	C18H12N+
249.0705	1	C17H10FO+
260.1071	1	C18H14NO+
262.1025	3	C18H13FN+
270.0915	1	C19H12NO+
275.0727	1	C18H10FNO+
287.0912	2	C17H12F3N+
289.0912	1	C19H12FNO+
290.0975	55	C19H13FNO+
302.1148	6	C18H15F3N+
309.096	57	C19H13F2NO+
310.1037	364	C19H14F2NO+
315.0863	1	C18H12F3NO+
329.1027	1	C19H14F3NO+
330.1099	999	C19H15F3NO+
