Mass spectrum: Formononetin; LC-ESI-QFT; MS2; CE: 90; R=17500; [M+H]+
Name: Formononetin
Name: 7-hydroxy-3-(4-methoxyphenyl)chromen-4-one
Formula: C16H12O4
Exact mass: 268.0736
SMILES: COC1=CC=C(C=C1)C1=COC2=C(C=CC(O)=C2)C1=O
InChI: InChI=1S/C16H12O4/c1-19-12-5-2-10(3-6-12)14-9-20-15-8-11(17)4-7-13(15)16(14)18/h2-9,17H,1H3
Instrument: Q Exactive Orbitrap (Thermo Scientific)
Instrument type: LC-ESI-QFT
Ms type: MS2
Ion mode: POSITIVE
Ionization: ESI
Fragmentation mode: HCD
Collision energy: 90
Resolution: 17500
Column name: Acquity BEH C18 1.7um, 2.1x150mm (Waters)
Retention time: 16.857 min
Base peak: 79.0211
Precursor m/z: 269.0808
Precursor type: [M+H]+
Precursor intensity: 18355547.4375
m/z	relative intensity	assigned
51.0229	2	C4H3+
52.0307	6	C4H4+
53.0022	2	C3HO+
53.0386	25	C4H5+
55.0178	25	C3H3O+
65.0385	21	C5H5+
66.0464	43	C5H6+
67.0542	1	C5H7+
68.0256	3	C4H4O+
68.9971	74	C3HO2+
71.0126	1	C3H3O2+
77.0385	9	C6H5+
78.0464	2	C6H6+
79.0542	61	C6H7+
80.0256	6	C5H4O+
81.0335	75	C5H5O+
89.0386	106	C7H5+
90.0464	236	C7H6+
91.0542	31	C7H7+
92.0257	15	C6H4O+
92.0621	3	C7H8+
93.0336	1	C6H5O+
94.0413	8	C6H6O+
95.0491	57	C6H7O+
102.0465	9	C8H6+
103.0542	53	C8H7+
105.0336	18	C7H5O+
105.0699	14	C8H9+
107.0492	44	C7H7O+
108.0206	103	C6H4O2+
109.0285	5	C6H5O2+
110.0361	6	C6H6O2+
111.0442	3	C6H7O2+
115.0542	41	C9H7+
116.0621	7	C9H8+
117.0334	4	C8H5O+
118.0413	314	C8H6O+
119.049	8	C8H7O+
120.0571	4	C8H8O+
121.0284	11	C7H5O2+
123.0439	1	C7H7O2+
127.0389	5	C6H7O3+
127.0543	4	C10H7+
128.062	111	C10H8+
129.0698	65	C10H9+
130.0778	5	C10H10+
131.0491	9	C9H7O+
132.0215	1	C8H4O2+
132.057	5	C9H8O+
133.0285	7	C8H5O2+
133.0649	35	C9H9O+
134.0362	3	C8H6O2+
135.044	1	C8H7O2+
136.0156	4	C7H4O3+
137.0233	155	C7H5O3+
139.0541	7	C11H7+
140.062	5	C11H8+
141.0699	203	C11H9+
142.0413	5	C10H6O+
142.0778	25	C11H10+
143.0491	3	C10H7O+
144.057	31	C10H8O+
145.0283	6	C9H5O2+
145.0648	10	C10H9O+
147.0441	4	C9H7O2+
148.0519	4	C9H8O2+
151.0545	4	C12H7+
152.0621	224	C12H8+
153.0699	115	C12H9+
154.0261	27	C7H6O4+
154.0777	8	C12H10+
155.0491	35	C11H7O+
155.0854	2	C12H11+
156.0569	75	C11H8O+
157.0648	46	C11H9O+
158.0726	25	C11H10O+
159.0445	2	C10H7O2+
163.0544	2	C13H7+
165.0699	28	C13H9+
166.0777	1	C13H10+
168.057	40	C12H8O+
169.0648	400	C12H9O+
170.0726	133	C12H10O+
171.044	11	C11H7O2+
171.0803	3	C12H11O+
172.0519	12	C11H8O2+
179.0491	12	C13H7O+
180.0569	21	C13H8O+
181.0648	272	C13H9O+
182.0727	26	C13H10O+
183.0442	13	C12H7O2+
183.0811	1	C13H11O+
184.0518	19	C12H8O2+
185.0596	6	C12H9O2+
185.0962	1	C13H13O+
186.0313	2	C11H6O3+
187.0392	6	C11H7O3+
188.083	1	C12H12O2+
195.0441	6	C13H7O2+
195.0803	5	C14H11O+
196.0522	17	C13H8O2+
197.0598	999	C13H9O2+
198.0676	65	C13H10O2+
199.0389	3	C12H7O3+
200.0468	70	C12H8O3+
208.0517	10	C14H8O2+
209.0598	37	C14H9O2+
210.068	3	C14H10O2+
211.0391	16	C13H7O3+
211.0751	2	C14H11O2+
212.0467	4	C13H8O3+
212.0832	3	C14H12O2+
213.0912	18	C14H13O2+
224.0465	8	C14H8O3+
225.0546	366	C14H9O3+
226.0624	55	C14H10O3+
228.042	13	C13H8O4+
236.0469	1	C15H8O3+
237.0546	121	C15H9O3+
253.0495	207	C15H9O4+
254.0579	3	C15H10O4+
