Mass spectrum: Prednisone; LC-ESI-QFT; MS2; CE: 30; R=17500; [M-H]-
Name: Prednisone
Name: (8S,9S,10R,13S,14S,17R)-17-hydroxy-17-(2-hydroxyacetyl)-10,13-dimethyl-6,7,8,9,12,14,15,16-octahydrocyclopenta[a]phenanthrene-3,11-dione
Formula: C21H26O5
Exact mass: 358.1780
SMILES: C[C@]12CC(=O)[C@H]3[C@@H](CCC4=CC(=O)C=C[C@]34C)[C@@H]1CC[C@]2(O)C(=O)CO
InChI: InChI=1S/C21H26O5/c1-19-7-5-13(23)9-12(19)3-4-14-15-6-8-21(26,17(25)11-22)20(15,2)10-16(24)18(14)19/h5,7,9,14-15,18,22,26H,3-4,6,8,10-11H2,1-2H3/t14-,15-,18+,19-,20-,21-/m0/s1
Instrument: Q Exactive Orbitrap (Thermo Scientific)
Instrument type: LC-ESI-QFT
Ms type: MS2
Ion mode: NEGATIVE
Ionization: ESI
Fragmentation mode: HCD
Collision energy: 30
Resolution: 17500
Column name: Acquity BEH C18 1.7um, 2.1x150mm (Waters)
Retention time: 15.404 min
Base peak: 297.1132
Precursor m/z: 357.1707
Precursor type: [M-H]-
Precursor intensity: 1483241.175781
m/z	relative intensity	assigned
57.0346	13	C3H5O-
107.0502	7	C7H7O-
121.0659	10	C8H9O-
122.0373	6	C7H6O2-
123.0452	264	C7H7O2-
125.0608	75	C7H9O2-
133.066	4	C9H9O-
135.0451	7	C8H7O2-
136.0528	7	C8H8O2-
137.0607	45	C8H9O2-
145.0658	22	C10H9O-
149.0607	48	C9H9O2-
151.0765	14	C9H11O2-
162.0687	8	C10H10O2-
163.0764	41	C10H11O2-
176.0844	4	C11H12O2-
177.0922	46	C11H13O2-
186.0684	8	C12H10O2-
187.0763	6	C12H11O2-
191.1079	20	C12H15O2-
201.0923	59	C13H13O2-
203.1078	46	C13H15O2-
269.1185	33	C17H17O3-
270.1263	67	C17H18O3-
282.1262	16	C18H18O3-
284.1421	47	C18H20O3-
285.1497	187	C18H21O3-
299.1652	97	C19H23O3-
309.1501	30	C20H21O3-
312.1368	12	C19H20O4-
324.1363	65	C20H20O4-
327.1602	999	C20H23O4-
339.159	5	C21H23O4-
342.1477	42	C20H22O5-
