Mass spectrum: 2,2`-(Oxydimethanediyl)bis(2-ethylpropane-1,3-diol); LC-ESI-QFT; MS2; CE: 45; R=17500; [M+H]+
Name: 2,2'-(Oxydimethanediyl)bis(2-ethylpropane-1,3-diol)
Name: Ditrimethylolpropane
Name: 2-[2,2-bis(hydroxymethyl)butoxymethyl]-2-ethylpropane-1,3-diol
Formula: C12H26O5
Exact mass: 250.1780
SMILES: CCC(CO)(CO)COCC(CC)(CO)CO
InChI: InChI=1S/C12H26O5/c1-3-11(5-13,6-14)9-17-10-12(4-2,7-15)8-16/h13-16H,3-10H2,1-2H3
Instrument: Q Exactive Orbitrap (Thermo Scientific)
Instrument type: LC-ESI-QFT
Ms type: MS2
Ion mode: POSITIVE
Ionization: ESI
Fragmentation mode: HCD
Collision energy: 45
Resolution: 17500
Column name: Acquity BEH C18 1.7um, 2.1x150mm (Waters)
Retention time: 13.467 min
Base peak: 79.0211
Precursor m/z: 251.1853
Precursor type: [M+H]+
Precursor intensity: 5553058.8125
m/z	relative intensity	assigned
53.0023	9	C3HO+
55.0543	91	C4H7+
57.0335	220	C3H5O+
59.0491	10	C3H7O+
61.0284	8	C2H5O2+
69.0699	501	C5H9+
71.0491	39	C4H7O+
71.0855	95	C5H11+
79.0542	89	C6H7+
81.0699	999	C6H9+
83.0855	40	C6H11+
85.0649	104	C5H9O+
87.0805	16	C5H11O+
95.0492	5	C6H7O+
97.065	7	C6H9O+
99.0805	644	C6H11O+
101.0962	13	C6H13O+
115.0752	5	C6H11O2+
117.0911	227	C6H13O2+
129.0909	8	C7H13O2+
131.1067	5	C7H15O2+
135.1016	67	C6H15O3+
147.1017	8	C7H15O3+
