Mass spectrum: MK-578; LC-ESI-QFT; MS2; CE: 75; R=17500; [M+H]+
Name: MK-578
Name: (2R)-2-[[(1R,3S,4S)-3-[[4-(5-benzyl-2-ethylpyrazol-3-yl)piperidin-1-yl]methyl]-4-(3-fluorophenyl)cyclopentyl]-methylamino]-3-methylbutanoic acid
Formula: C35H47FN4O2
Exact mass: 574.3683
SMILES: CCN1N=C(CC2=CC=CC=C2)C=C1C1CCN(C[C@H]2C[C@@H](C[C@@H]2C2=CC=CC(F)=C2)N(C)[C@H](C(C)C)C(O)=O)CC1
InChI: InChI=1S/C35H47FN4O2/c1-5-40-33(21-30(37-40)18-25-10-7-6-8-11-25)26-14-16-39(17-15-26)23-28-20-31(38(4)34(24(2)3)35(41)42)22-32(28)27-12-9-13-29(36)19-27/h6-13,19,21,24,26,28,31-32,34H,5,14-18,20,22-23H2,1-4H3,(H,41,42)/t28-,31+,32-,34-/m1/s1
Instrument: Q Exactive Orbitrap (Thermo Scientific)
Instrument type: LC-ESI-QFT
Ms type: MS2
Ion mode: POSITIVE
Ionization: ESI
Fragmentation mode: HCD
Collision energy: 75
Resolution: 17500
Column name: Acquity BEH C18 1.7um, 2.1x150mm (Waters)
Retention time: 14.569 min
Base peak: 79.0211
Precursor m/z: 575.3756
Precursor type: [M+H]+
Precursor intensity: 5118113
m/z	relative intensity	assigned
53.0022	1	C3HO+
53.0386	15	C4H5+
55.0542	68	C4H7+
56.0495	46	C3H6N+
57.0135	3	C3H2F+
58.0651	154	C3H8N+
59.0292	2	C3H4F+
65.0385	23	C5H5+
67.0416	2	C4H5N+
67.0541	7	C5H7+
68.0495	15	C4H6N+
69.0699	4	C5H9+
70.0651	149	C4H8N+
71.0729	8	C4H9N+
72.0806	4	C4H10N+
77.0386	4	C6H5+
79.0542	84	C6H7+
80.0495	8	C5H6N+
81.0448	8	C4H5N2+
81.0572	5	C5H7N+
81.0698	4	C6H9+
82.0651	16	C5H8N+
83.0291	50	C5H4F+
83.0729	3	C5H9N+
84.0808	45	C5H10N+
86.0964	97	C5H12N+
89.0386	6	C7H5+
91.0542	606	C7H7+
93.0576	1	C6H7N+
94.0652	17	C6H8N+
95.0491	34	C6H7O+
95.0604	4	C5H7N2+
95.0729	12	C6H9N+
96.0807	31	C6H10N+
97.0449	3	C6H6F+
98.0964	56	C6H12N+
99.0555	1	C4H7N2O+
103.0542	14	C8H7+
105.0448	12	C6H5N2+
105.0698	10	C8H9+
106.0652	5	C7H8N+
107.0294	1	C7H4F+
107.0604	9	C6H7N2+
107.0729	2	C7H9N+
108.0808	5	C7H10N+
109.0448	999	C7H6F+
110.0964	2	C7H12N+
115.0543	13	C9H7+
117.0697	6	C4H8FN3+
119.0604	3	C7H7N2+
120.0809	3	C8H10N+
121.0448	4	C8H6F+
121.0759	10	C7H9N2+
122.0966	4	C8H12N+
123.0551	1	C6H7N2O+
123.0605	1	C8H8F+
123.0916	4	C7H11N2+
125.0706	1	C6H9N2O+
127.0542	10	C10H7+
129.0699	18	C10H9+
132.0683	2	C8H8N2+
133.0448	148	C9H6F+
133.076	27	C8H9N2+
134.0527	16	C9H7F+
134.0837	2	C8H10N2+
135.0604	22	C9H8F+
135.0917	27	C8H11N2+
137.1073	8	C8H13N2+
141.0701	2	C11H9+
142.0777	2	C11H10+
144.0808	2	C10H10N+
145.0648	58	C10H9O+
146.0526	95	C10H7F+
147.0604	267	C10H8F+
147.0916	19	C9H11N2+
149.0761	44	C10H10F+
149.1073	17	C9H13N2+
152.0622	4	C12H8+
153.0698	9	C12H9+
155.0603	77	C10H7N2+
159.0605	45	C11H8F+
160.0683	138	C11H9F+
161.1074	26	C10H13N2+
163.055	1	C10H8FO+
163.1229	9	C10H15N2+
164.087	2	C10H11FN+
171.0919	7	C11H11N2+
173.0511	3	C10H6FN2+
173.0758	5	C12H10F+
175.0917	9	C12H12F+
176.1183	2	C10H14N3+
183.092	2	C12H11N2+
185.1074	7	C12H13N2+
187.1228	9	C12H15N2+
188.0872	1	C12H11FN+
197.1071	2	C13H13N2+
199.1228	4	C13H15N2+
204.1185	7	C13H15FN+
204.1498	1	C12H18N3+
209.1066	1	C14H13N2+
211.1231	20	C14H15N2+
213.1385	16	C14H17N2+
223.1225	2	C15H15N2+
225.1387	18	C15H17N2+
239.1543	11	C16H19N2+
241.1702	9	C16H21N2+
254.1643	1	C16H20N3+
