Mass spectrum: CI-1018; LC-ESI-QFT; MS2; CE: 30; R=17500; [M+H]+
Name: CI-1018
Name: N-[(11R)-6-methyl-12-oxo-9-phenyl-1,10-diazatricyclo[6.4.1.04,13]trideca-4(13),5,7,9-tetraen-11-yl]pyridine-4-carboxamide
Formula: C24H20N4O2
Exact mass: 396.1586
SMILES: CC1=CC2=C3N(CC2)C(=O)[C@H](NC(=O)C2=CC=NC=C2)N=C(C2=CC=CC=C2)C3=C1
InChI: InChI=1S/C24H20N4O2/c1-15-13-18-9-12-28-21(18)19(14-15)20(16-5-3-2-4-6-16)26-22(24(28)30)27-23(29)17-7-10-25-11-8-17/h2-8,10-11,13-14,22H,9,12H2,1H3,(H,27,29)/t22-/m0/s1
Instrument: Q Exactive Orbitrap (Thermo Scientific)
Instrument type: LC-ESI-QFT
Ms type: MS2
Ion mode: POSITIVE
Ionization: ESI
Fragmentation mode: HCD
Collision energy: 30
Resolution: 17500
Column name: Acquity BEH C18 1.7um, 2.1x150mm (Waters)
Retention time: 17.174 min
Base peak: 79.0212
Precursor m/z: 397.1659
Precursor type: [M+H]+
Precursor intensity: 23527534.5
m/z	relative intensity	assigned
106.0287	5	C6H4NO+
123.0553	3	C6H7N2O+
172.0756	4	C11H10NO+
247.1229	239	C17H15N2+
266.1287	2	C16H16N3O+
274.1105	1	C18H14N2O+
275.1177	999	C18H15N2O+
290.1287	5	C18H16N3O+
291.1371	1	C18H17N3O+
369.1708	22	C23H21N4O+
379.1549	5	C24H19N4O+
380.1395	3	C24H18N3O2+
397.1659	27	C24H21N4O2+
