Mass spectrum: Purpurin; LC-ESI-QFT; MS2; CE: 90; R=17500; [M-H]-
Name: Purpurin
Name: 1,2,4-trihydroxyanthracene-9,10-dione
Formula: C14H8O5
Exact mass: 256.0372
SMILES: OC1=CC(O)=C(O)C2=C1C(=O)C1=C(C=CC=C1)C2=O
InChI: InChI=1S/C14H8O5/c15-8-5-9(16)14(19)11-10(8)12(17)6-3-1-2-4-7(6)13(11)18/h1-5,15-16,19H
Instrument: Q Exactive Orbitrap (Thermo Scientific)
Instrument type: LC-ESI-QFT
Ms type: MS2
Ion mode: NEGATIVE
Ionization: ESI
Fragmentation mode: HCD
Collision energy: 90
Resolution: 17500
Column name: Acquity BEH C18 1.7um, 2.1x150mm (Waters)
Retention time: 19.032 min
Base peak: 112.9856
Precursor m/z: 255.0299
Precursor type: [M-H]-
Precursor intensity: 292150.3613281
m/z	relative intensity	assigned
101.0397	706	C8H5-
129.0348	90	C9H5O-
143.0501	136	C10H7O-
147.0452	999	C9H7O2-
158.0373	69	C10H6O2-
171.0451	230	C11H7O2-
175.0405	54	C10H7O3-
182.037	65	C12H6O2-
183.0449	74	C12H7O2-
226.0277	143	C13H6O4-
227.0355	221	C13H7O4-
