Mass spectrum: Candoxatril; LC-ESI-QFT; MS2; CE: 75; R=17500; [M+H]+
Name: Candoxatril
Formula: C29H41NO7
Exact mass: 515.2883
SMILES: COCCOC[C@H](CC1(CCCC1)C(=O)N[C@H]1CC[C@H](CC1)C(O)=O)C(=O)OC1=CC2=C(CCC2)C=C1
InChI: InChI=1S/C29H41NO7/c1-35-15-16-36-19-23(27(33)37-25-12-9-20-5-4-6-22(20)17-25)18-29(13-2-3-14-29)28(34)30-24-10-7-21(8-11-24)26(31)32/h9,12,17,21,23-24H,2-8,10-11,13-16,18-19H2,1H3,(H,30,34)(H,31,32)/t21-,23-,24+/m0/s1
Instrument: Q Exactive Orbitrap (Thermo Scientific)
Instrument type: LC-ESI-QFT
Ms type: MS2
Ion mode: POSITIVE
Ionization: ESI
Fragmentation mode: HCD
Collision energy: 75
Resolution: 17500
Column name: Acquity BEH C18 1.7um, 2.1x150mm (Waters)
Retention time: 18.625 min
Base peak: 79.0211
Precursor m/z: 516.2956
Precursor type: [M+H]+
Precursor intensity: 9414677.5
m/z	relative intensity	assigned
53.0023	6	C3HO+
53.0387	28	C4H5+
55.0179	31	C3H3O+
55.0542	17	C4H7+
56.0495	4	C3H6N+
57.0336	22	C3H5O+
58.0652	8	C3H8N+
59.0492	73	C3H7O+
65.0386	23	C5H5+
66.0464	3	C5H6+
67.0543	166	C5H7+
68.0496	3	C4H6N+
69.0335	77	C4H5O+
72.0444	4	C3H6NO+
77.0386	7	C6H5+
79.0543	999	C6H7+
81.0699	657	C6H9+
83.0856	32	C6H11+
84.081	3	C5H10N+
86.0601	22	C4H8NO+
91.0543	310	C7H7+
92.0495	14	C6H6N+
92.0622	5	C7H8+
93.07	227	C7H9+
94.0415	4	C6H6O+
94.0653	3	C6H8N+
95.0492	44	C6H7O+
95.0855	5	C7H11+
96.0445	6	C5H6NO+
96.0808	15	C6H10N+
98.0966	9	C6H12N+
99.0807	2	C6H11O+
105.07	106	C8H9+
106.0654	5	C7H8N+
107.0493	30	C7H7O+
107.0856	455	C8H11+
108.0808	15	C7H10N+
109.0649	60	C7H9O+
109.1013	43	C8H13+
110.0603	4	C6H8NO+
110.0966	3	C7H12N+
115.0543	148	C9H7+
116.0622	4	C9H8+
117.07	442	C9H9+
119.073	5	C8H9N+
119.0857	4	C9H11+
123.0805	3	C8H11O+
124.1121	11	C8H14N+
126.0914	212	C7H12NO+
131.0856	7	C10H11+
132.0809	6	C9H10N+
134.0965	69	C9H12N+
135.0805	211	C9H11O+
138.0916	3	C8H12NO+
145.0651	2	C10H9O+
147.0806	14	C10H11O+
152.1071	74	C9H14NO+
159.0812	2	C11H11O+
161.06	5	C10H9O2+
162.0915	20	C10H12NO+
180.1022	24	C10H14NO2+
187.0757	10	C12H11O2+
