Mass spectrum: 4-Amino-2,5-dimethoxy-N-phenylbenzenesulfonamide; LC-ESI-QFT; MS2; CE: 45; R=17500; [M-H]-
Name: 4-Amino-2,5-dimethoxy-N-phenylbenzenesulfonamide
Formula: C14H16N2O4S
Exact mass: 308.0831
SMILES: COC1=CC(N)=C(OC)C=C1S(=O)(=O)NC1=CC=CC=C1
InChI: InChI=1S/C14H16N2O4S/c1-19-12-9-14(13(20-2)8-11(12)15)21(17,18)16-10-6-4-3-5-7-10/h3-9,16H,15H2,1-2H3
Instrument: Q Exactive Orbitrap (Thermo Scientific)
Instrument type: LC-ESI-QFT
Ms type: MS2
Ion mode: NEGATIVE
Ionization: ESI
Fragmentation mode: HCD
Collision energy: 45
Resolution: 17500
Column name: Acquity BEH C18 1.7um, 2.1x150mm (Waters)
Retention time: 14.546 min
Base peak: 112.9856
Precursor m/z: 307.0758
Precursor type: [M-H]-
Precursor intensity: 277566.4592285
m/z	relative intensity	assigned
92.0505	32	C6H6N-
136.0403	106	C7H6NO2-
152.0353	29	C7H6NO3-
153.9968	16	C6H4NO2S-
167.1076	24	C10H15O2-
195.0565	76	C12H7N2O-
196.0407	16	C12H6NO2-
197.0479	50	C12H7NO2-
200.0022	19	C7H6NO4S-
213.067	999	C12H9N2O2-
227.0348	12	C13H7O4-
277.0284	13	C12H9N2O4S-
