Mass spectrum: 2-(N-Ethyl-m-toluidino)ethanol; LC-ESI-QFT; MS2; CE: 75; R=17500; [M+H]+
Name: 2-(N-Ethyl-m-toluidino)ethanol
Name: 2-(N-ethyl-3-methylanilino)ethanol
Formula: C11H17NO
Exact mass: 179.1310
SMILES: CCN(CCO)C1=CC(C)=CC=C1
InChI: InChI=1S/C11H17NO/c1-3-12(7-8-13)11-6-4-5-10(2)9-11/h4-6,9,13H,3,7-8H2,1-2H3
Instrument: Q Exactive Orbitrap (Thermo Scientific)
Instrument type: LC-ESI-QFT
Ms type: MS2
Ion mode: POSITIVE
Ionization: ESI
Fragmentation mode: HCD
Collision energy: 75
Resolution: 17500
Column name: Acquity BEH C18 1.7um, 2.1x150mm (Waters)
Retention time: 10.199 min
Base peak: 79.0211
Precursor m/z: 180.1383
Precursor type: [M+H]+
Precursor intensity: 28591619.75
m/z	relative intensity	assigned
65.0384	3	C5H5+
79.0542	3	C6H7+
91.0543	37	C7H7+
92.0621	7	C7H8+
93.0573	12	C6H7N+
93.0699	14	C7H9+
94.0652	1	C6H8N+
95.0491	2	C6H7O+
104.0496	1	C7H6N+
105.0698	5	C8H9+
106.0652	34	C7H8N+
107.073	55	C7H9N+
108.0808	37	C7H10N+
109.0648	4	C7H9O+
110.0601	3	C6H8NO+
115.0541	6	C9H7+
117.0573	4	C8H7N+
117.0699	8	C9H9+
118.0652	39	C8H8N+
119.0731	70	C8H9N+
120.0808	999	C8H10N+
121.0885	20	C8H11N+
131.0729	2	C9H9N+
132.0808	85	C9H10N+
133.0886	20	C9H11N+
134.0964	154	C9H12N+
135.1043	75	C9H13N+
136.1121	24	C9H14N+
145.0884	1	C10H11N+
146.0965	3	C10H12N+
147.1042	10	C10H13N+
151.0993	9	C9H13NO+
152.1069	4	C9H14NO+
160.1118	3	C11H14N+
162.1277	13	C11H16N+
180.1382	3	C11H18NO+
