Mass spectrum: 2-(3-Phenylpropyl)pyridine; LC-ESI-QFT; MS2; CE: 60; R=17500; [M+H]+
Name: 2-(3-Phenylpropyl)pyridine
Formula: C14H15N
Exact mass: 197.1204
SMILES: C(CC1=CC=CC=C1)CC1=CC=CC=N1
InChI: InChI=1S/C14H15N/c1-2-7-13(8-3-1)9-6-11-14-10-4-5-12-15-14/h1-5,7-8,10,12H,6,9,11H2
Instrument: Q Exactive Orbitrap (Thermo Scientific)
Instrument type: LC-ESI-QFT
Ms type: MS2
Ion mode: POSITIVE
Ionization: ESI
Fragmentation mode: HCD
Collision energy: 60
Resolution: 17500
Column name: Acquity BEH C18 1.7um, 2.1x150mm (Waters)
Retention time: 13.113 min
Base peak: 79.0211
Precursor m/z: 198.1277
Precursor type: [M+H]+
Precursor intensity: 33764725.1875
m/z	relative intensity	assigned
54.0339	1	C3H4N+
57.0699	1	C4H9+
65.0385	6	C5H5+
67.0541	1	C5H7+
78.0335	2	C5H4N+
79.0415	3	C5H5N+
79.0542	8	C6H7+
80.0495	10	C5H6N+
91.0542	47	C7H7+
92.0495	21	C6H6N+
93.0573	189	C6H7N+
94.0651	44	C6H8N+
103.0543	8	C8H7+
104.0494	1	C7H6N+
105.0699	109	C8H9+
106.0651	261	C7H8N+
107.0729	167	C7H9N+
118.0651	12	C8H8N+
119.073	5	C8H9N+
120.0808	999	C8H10N+
196.1123	2	C14H14N+
198.1277	577	C14H16N+
