Mass spectrum: AVE3295; LC-ESI-QFT; MS2; CE: 90; R=17500; [M-H]-
Name: AVE3295
Name: 5-Fluoro-N-[(1S)-1-phenylpropyl]-2-[(quinolin-8-ylsulfonyl)amino]benzamide
Name: 5-fluoro-N-[(1S)-1-phenylpropyl]-2-(quinolin-8-ylsulfonylamino)benzamide
Formula: C25H22FN3O3S
Exact mass: 463.1366
SMILES: CC[C@H](NC(=O)c1cc(F)ccc1NS(=O)(=O)c1cccc2cccnc12)c1ccccc1
InChI: InChI=1S/C25H22FN3O3S/c1-2-21(17-8-4-3-5-9-17)28-25(30)20-16-19(26)13-14-22(20)29-33(31,32)23-12-6-10-18-11-7-15-27-24(18)23/h3-16,21,29H,2H2,1H3,(H,28,30)/t21-/m0/s1
Instrument: Q Exactive Orbitrap (Thermo Scientific)
Instrument type: LC-ESI-QFT
Ms type: MS2
Ion mode: NEGATIVE
Ionization: ESI
Fragmentation mode: HCD
Collision energy: 90
Resolution: 17500
Column name: Acquity BEH C18 1.7um, 2.1x150mm (Waters)
Retention time: 17.482 min
Base peak: 462.1292
Precursor m/z: 462.1293
Precursor type: [M-H]-
Precursor intensity: 22656710.56836
m/z	relative intensity	assigned
50.0036	9	C3N-
61.9706	12	NOS-
63.9624	58	O2S-
64.0193	27	C4H2N-
65.9984	2	C3NO-
77.9655	4	NO2S-
79.9811	3	H2NO2S-
83.0303	2	C5H4F-
84.0254	8	C4H3FN-
88.0192	8	C6H2N-
90.0349	88	C6H4N-
95.0302	4	C6H4F-
108.0256	81	C6H3FN-
109.0334	8	C6H4FN-
110.0411	645	C6H5FN-
111.0251	5	C6H4FO-
116.0506	44	C8H6N-
128.0506	186	C9H6N-
135.0362	8	C7H4FN2-
138.9896	11	C6H2FNS-
141.0459	23	C9H5N2-
143.0616	28	C9H7N2-
144.0455	659	C9H6NO-
150.0233	2	C7H3FN2O-
163.0314	221	C8H4FN2O-
166.0662	216	C12H8N-
172.0404	15	C10H6NO2-
176.0508	2	C13H6N-
177.0471	23	C9H6FN2O-
184.0567	29	C12H7FN-
190.0663	33	C14H8N-
191.0617	11	C13H7N2-
208.0567	55	C14H7FN-
209.0521	10	C13H6FN2-
210.0724	32	C14H9FN-
215.0615	492	C15H7N2-
217.0772	17	C15H9N2-
222.0601	6	C14H7FN2-
233.0519	23	C15H6FN2-
235.0677	999	C15H8FN2-
239.0625	18	C14H8FN2O-
263.0621	8	C13H13NO3S-
