Mass spectrum: Z-Tetrachlorvinphos; LC-ESI-QFT; MS2; CE: 15; R=17500; [M+H]+
Name: Z-Tetrachlorvinphos
Name: Tetrachlorvinphos
Name: [(Z)-2-chloro-1-(2,4,5-trichlorophenyl)ethenyl] dimethyl phosphate
Formula: C10H9Cl4O4P
Exact mass: 363.8993
SMILES: COP(=O)(OC)O\C(=C/Cl)C1=C(Cl)C=C(Cl)C(Cl)=C1
InChI: InChI=1S/C10H9Cl4O4P/c1-16-19(15,17-2)18-10(5-11)6-3-8(13)9(14)4-7(6)12/h3-5H,1-2H3/b10-5-
Instrument: Q Exactive Orbitrap (Thermo Scientific)
Instrument type: LC-ESI-QFT
Ms type: MS2
Ion mode: POSITIVE
Ionization: ESI
Fragmentation mode: HCD
Collision energy: 15
Resolution: 17500
Column name: Acquity BEH C18 1.7um, 2.1x150mm (Waters)
Retention time: 18.351 min
Base peak: 79.0211
Precursor m/z: 364.9065
Precursor type: [M+H]+
Precursor intensity: 1976222.78125
m/z	relative intensity	assigned
127.0155	999	C2H8O4P+
145.0263	1	C3H10ClO4+
203.9302	1	C8H3Cl3+
238.8984	107	C8H3Cl4+
