Mass spectrum: epsilon-Decalactone; LC-ESI-QFT; MS2; CE: 45; R=17500; [M+H]+
Name: epsilon-Decalactone
Name: 7-butyloxepan-2-one
Formula: C10H18O2
Exact mass: 170.1307
SMILES: CCCCC1CCCCC(=O)O1
InChI: InChI=1S/C10H18O2/c1-2-3-6-9-7-4-5-8-10(11)12-9/h9H,2-8H2,1H3
Instrument: Q Exactive Orbitrap (Thermo Scientific)
Instrument type: LC-ESI-QFT
Ms type: MS2
Ion mode: POSITIVE
Ionization: ESI
Fragmentation mode: HCD
Collision energy: 45
Resolution: 17500
Column name: Acquity BEH C18 1.7um, 2.1x150mm (Waters)
Retention time: 17.660 min
Base peak: 79.0212
Precursor m/z: 171.138
Precursor type: [M+H]+
Precursor intensity: 1538225.40625
m/z	relative intensity	assigned
55.0542	40	C4H7+
57.0335	76	C3H5O+
57.0699	978	C4H9+
67.0542	18	C5H7+
69.0698	7	C5H9+
71.0491	11	C4H7O+
73.0284	734	C3H5O2+
83.0855	65	C6H11+
85.0647	16	C5H9O+
99.0441	9	C5H7O2+
101.0597	165	C5H9O2+
109.1011	31	C8H13+
115.0754	16	C6H11O2+
129.0909	58	C7H13O2+
171.138	999	C10H19O2+
