Mass spectrum: SSR161421; LC-ESI-QFT; MS2; CE: 90; R=17500; [M+H]+
Name: SSR161421
Name: N-[4-(benzylamino)-3-cyanoquinolin-2-yl]-4-methoxybenzamide
Formula: C25H20N4O2
Exact mass: 408.1586
SMILES: COC1=CC=C(C=C1)C(=O)NC1=C(C#N)C(NCC2=CC=CC=C2)=C2C=CC=CC2=N1
InChI: InChI=1S/C25H20N4O2/c1-31-19-13-11-18(12-14-19)25(30)29-24-21(15-26)23(20-9-5-6-10-22(20)28-24)27-16-17-7-3-2-4-8-17/h2-14H,16H2,1H3,(H2,27,28,29,30)
Instrument: Q Exactive Orbitrap (Thermo Scientific)
Instrument type: LC-ESI-QFT
Ms type: MS2
Ion mode: POSITIVE
Ionization: ESI
Fragmentation mode: HCD
Collision energy: 90
Resolution: 17500
Column name: Acquity BEH C18 1.7um, 2.1x150mm (Waters)
Retention time: 16.963 min
Base peak: 79.0211
Precursor m/z: 409.1659
Precursor type: [M+H]+
Precursor intensity: 26305953.5
m/z	relative intensity	assigned
50.0152	2	C4H2+
51.0229	4	C4H3+
53.0386	340	C4H5+
54.0464	8	C4H6+
55.0178	17	C3H3O+
55.0542	2	C4H7+
62.0151	1	C5H2+
63.0229	45	C5H3+
64.0307	32	C5H4+
65.0385	29	C5H5+
67.0542	3	C5H7+
68.0256	8	C4H4O+
68.997	3	C3HO2+
77.0385	131	C6H5+
78.0464	1	C6H6+
79.0542	152	C6H7+
81.0335	41	C5H5O+
81.0699	4	C6H9+
83.0491	2	C5H7O+
91.0543	141	C7H7+
92.0256	779	C6H4O+
94.0413	36	C6H6O+
95.0491	999	C6H7O+
96.0206	2	C5H4O2+
97.0532	1	C5H7NO+
98.0363	3	C5H6O2+
103.0543	1	C8H7+
105.0447	406	C6H5N2+
106.0417	2	C7H6O+
107.0491	35	C7H7O+
109.0648	9	C7H9O+
111.044	1	C6H7O2+
123.0436	1	C7H7O2+
124.0518	7	C7H8O2+
125.0597	313	C7H9O2+
135.0441	746	C8H7O2+
136.0524	1	C8H8O2+
139.0754	2	C8H11O2+
204.0812	1	C15H10N+
231.0918	1	C16H11N2+
256.0869	2	C17H10N3+
