Mass spectrum: Buturon; LC-ESI-QFT; MS2; CE: 60; R=17500; [M-H]-
Name: Buturon
Name: 1-but-3-yn-2-yl-3-(4-chlorophenyl)-1-methylurea
Formula: C12H13ClN2O
Exact mass: 236.0716
SMILES: CC(C#C)N(C)C(=O)NC1=CC=C(Cl)C=C1
InChI: InChI=1S/C12H13ClN2O/c1-4-9(2)15(3)12(16)14-11-7-5-10(13)6-8-11/h1,5-9H,2-3H3,(H,14,16)
Instrument: Q Exactive Orbitrap (Thermo Scientific)
Instrument type: LC-ESI-QFT
Ms type: MS2
Ion mode: NEGATIVE
Ionization: ESI
Fragmentation mode: HCD
Collision energy: 60
Resolution: 17500
Column name: Acquity BEH C18 1.7um, 2.1x150mm (Waters)
Retention time: 16.550 min
Base peak: 112.9856
Precursor m/z: 235.0644
Precursor type: [M-H]-
Precursor intensity: 759667.7709961
m/z	relative intensity	assigned
81.0219	36	C4H3NO-
96.0454	46	C5H6NO-
123.0565	32	C6H7N2O-
126.0116	999	C6H5ClN-
