Mass spectrum: N-[3-(Dimethylamino)propyl]dodecanamide; LC-ESI-QFT; MS2; CE: 90; R=17500; [M+H]+
Name: N-[3-(Dimethylamino)propyl]dodecanamide
Formula: C17H36N2O
Exact mass: 284.2828
SMILES: CCCCCCCCCCCC(=O)NCCCN(C)C
InChI: InChI=1S/C17H36N2O/c1-4-5-6-7-8-9-10-11-12-14-17(20)18-15-13-16-19(2)3/h4-16H2,1-3H3,(H,18,20)
Instrument: Q Exactive Orbitrap (Thermo Scientific)
Instrument type: LC-ESI-QFT
Ms type: MS2
Ion mode: POSITIVE
Ionization: ESI
Fragmentation mode: HCD
Collision energy: 90
Resolution: 17500
Column name: Acquity BEH C18 1.7um, 2.1x150mm (Waters)
Retention time: 17.468 min
Base peak: 79.0211
Precursor m/z: 285.29
Precursor type: [M+H]+
Precursor intensity: 69205187.46875
m/z	relative intensity	assigned
53.0022	65	C3HO+
53.0387	4	C4H5+
53.9975	11	C2NO+
55.0543	122	C4H7+
56.0495	3	C3H6N+
57.0699	999	C4H9+
58.0651	442	C3H8N+
65.0385	5	C5H5+
67.0542	180	C5H7+
69.0698	28	C5H9+
71.0855	196	C5H11+
72.0808	4	C4H10N+
79.0542	17	C6H7+
81.0699	105	C6H9+
83.0855	17	C6H11+
84.0809	4	C5H10N+
85.1012	39	C6H13+
86.0964	131	C5H12N+
93.07	14	C7H9+
95.0856	135	C7H11+
97.1012	5	C7H13+
99.0682	1	C5H9NO+
109.1012	28	C8H13+
112.0759	1	C6H10NO+
123.117	2	C9H15+
