Mass spectrum: Hydroxyprogesterone caproate; LC-ESI-QFT; MS2; CE: 75; R=17500; [M+H]+
Name: Hydroxyprogesterone caproate
Name: [(8R,9S,10R,13S,14S,17R)-17-acetyl-10,13-dimethyl-3-oxo-2,6,7,8,9,11,12,14,15,16-decahydro-1H-cyclopenta[a]phenanthren-17-yl] hexanoate
Formula: C27H40O4
Exact mass: 428.2927
SMILES: CCCCCC(=O)O[C@@]1(CC[C@H]2[C@@H]3CCC4=CC(=O)CC[C@]4(C)[C@H]3CC[C@]12C)C(C)=O
InChI: InChI=1S/C27H40O4/c1-5-6-7-8-24(30)31-27(18(2)28)16-13-23-21-10-9-19-17-20(29)11-14-25(19,3)22(21)12-15-26(23,27)4/h17,21-23H,5-16H2,1-4H3/t21-,22+,23+,25+,26+,27+/m1/s1
Instrument: Q Exactive Orbitrap (Thermo Scientific)
Instrument type: LC-ESI-QFT
Ms type: MS2
Ion mode: POSITIVE
Ionization: ESI
Fragmentation mode: HCD
Collision energy: 75
Resolution: 17500
Column name: Acquity BEH C18 1.7um, 2.1x150mm (Waters)
Retention time: 19.791 min
Base peak: 79.0211
Precursor m/z: 429.2999
Precursor type: [M+H]+
Precursor intensity: 2786699.75
m/z	relative intensity	assigned
53.0022	39	C3HO+
53.0385	35	C4H5+
55.0179	54	C3H3O+
55.0542	90	C4H7+
57.0335	10	C3H5O+
57.0698	9	C4H9+
65.0386	26	C5H5+
67.0542	190	C5H7+
69.0334	14	C4H5O+
69.0698	88	C5H9+
71.0855	63	C5H11+
79.0542	397	C6H7+
81.0699	361	C6H9+
83.0492	148	C5H7O+
83.0855	8	C6H11+
91.0543	302	C7H7+
93.0699	223	C7H9+
94.0416	8	C6H6O+
95.0492	76	C6H7O+
95.0856	176	C7H11+
97.0649	999	C6H9O+
103.0543	17	C8H7+
105.0699	426	C8H9+
107.0491	23	C7H7O+
107.0856	80	C8H11+
108.0571	6	C7H8O+
109.0648	739	C7H9O+
111.0804	32	C7H11O+
115.0541	34	C9H7+
116.0621	8	C9H8+
117.0699	127	C9H9+
119.0856	237	C9H11+
121.0649	72	C8H9O+
121.1013	27	C9H13+
123.0804	169	C8H11O+
128.0621	57	C10H8+
129.0699	106	C10H9+
130.0778	38	C10H10+
131.0856	195	C10H11+
133.0652	9	C9H9O+
133.1012	105	C10H13+
135.0807	8	C9H11O+
135.1169	12	C10H15+
137.0962	9	C9H13O+
141.07	55	C11H9+
142.0779	76	C11H10+
143.0856	139	C11H11+
144.0934	32	C11H12+
145.1012	198	C11H13+
147.0807	12	C10H11O+
147.1169	120	C11H15+
148.0884	14	C10H12O+
149.0963	23	C10H13O+
153.07	17	C12H9+
154.0779	23	C12H10+
155.0857	72	C12H11+
156.0933	52	C12H12+
157.1013	72	C12H13+
158.1089	11	C12H14+
159.081	8	C11H11O+
159.117	72	C12H15+
160.1248	6	C12H16+
161.0965	8	C11H13O+
161.1326	17	C12H17+
163.1119	24	C11H15O+
165.07	22	C13H9+
166.0781	12	C13H10+
167.0855	48	C13H11+
168.0935	17	C13H12+
169.1012	99	C13H13+
170.1093	16	C13H14+
171.117	64	C13H15+
173.1328	34	C13H17+
175.1118	9	C12H15O+
175.1482	19	C13H19+
177.1271	9	C12H17O+
179.0857	14	C14H11+
180.0936	16	C14H12+
181.1014	39	C14H13+
182.1094	24	C14H14+
183.1172	41	C14H15+
184.1252	13	C14H16+
185.1324	33	C14H17+
192.0936	6	C15H12+
193.1016	13	C15H13+
195.1171	24	C15H15+
196.1249	12	C15H16+
197.1327	27	C15H17+
199.1487	14	C15H19+
207.1167	10	C16H15+
209.133	7	C16H17+
211.1484	15	C16H19+
213.1274	6	C15H17O+
213.1639	14	C16H21+
223.1487	11	C17H19+
237.1642	26	C18H21+
