Mass spectrum: Haloperidol; LC-ESI-QFT; MS2; CE: 75; R=17500; [M+H]+
Name: Haloperidol
Name: 4-[4-(4-chlorophenyl)-4-hydroxypiperidin-1-yl]-1-(4-fluorophenyl)butan-1-one
Formula: C21H23ClFNO2
Exact mass: 375.1401
SMILES: OC1(CCN(CCCC(=O)C2=CC=C(F)C=C2)CC1)C1=CC=C(Cl)C=C1
InChI: InChI=1S/C21H23ClFNO2/c22-18-7-5-17(6-8-18)21(26)11-14-24(15-12-21)13-1-2-20(25)16-3-9-19(23)10-4-16/h3-10,26H,1-2,11-15H2
Instrument: Q Exactive Orbitrap (Thermo Scientific)
Instrument type: LC-ESI-QFT
Ms type: MS2
Ion mode: POSITIVE
Ionization: ESI
Fragmentation mode: HCD
Collision energy: 75
Resolution: 17500
Column name: Acquity BEH C18 1.7um, 2.1x150mm (Waters)
Retention time: 14.655 min
Base peak: 79.0211
Precursor m/z: 376.1474
Precursor type: [M+H]+
Precursor intensity: 21511219
m/z	relative intensity	assigned
56.0496	1	C3H6N+
71.0291	9	C4H4F+
74.015	1	C6H2+
75.0228	8	C6H3+
79.0178	3	C5H3O+
82.0651	1	C5H8N+
93.0336	1	C6H5O+
95.029	6	C6H4F+
99.024	1	C5H4FO+
109.0448	6	C7H6F+
111.0439	2	C6H7O2+
113.0397	49	C6H6FO+
115.0541	1	C9H7+
123.0243	999	C7H4FO+
123.0332	50	C6H5NO2+
125.0148	1	C7H6Cl+
135.0604	2	C9H8F+
137.0155	1	C8H6Cl+
165.0711	41	C10H10FO+
173.0513	1	C9H11ClF+
