Mass spectrum: Imazalil; LC-ESI-QFT; MS2; CE: 15; R=17500; [M+H]+
Name: Imazalil
Name: Enilconazole
Name: 1-[2-(2,4-dichlorophenyl)-2-prop-2-enoxyethyl]imidazole
Formula: C14H14Cl2N2O
Exact mass: 296.0483
SMILES: ClC1=CC(Cl)=C(C=C1)C(CN1C=CN=C1)OCC=C
InChI: InChI=1S/C14H14Cl2N2O/c1-2-7-19-14(9-18-6-5-17-10-18)12-4-3-11(15)8-13(12)16/h2-6,8,10,14H,1,7,9H2
Instrument: Q Exactive Orbitrap (Thermo Scientific)
Instrument type: LC-ESI-QFT
Ms type: MS2
Ion mode: POSITIVE
Ionization: ESI
Fragmentation mode: HCD
Collision energy: 15
Resolution: 17500
Column name: Acquity BEH C18 1.7um, 2.1x150mm (Waters)
Retention time: 15.289 min
Base peak: 79.0212
Precursor m/z: 297.0556
Precursor type: [M+H]+
Precursor intensity: 37766447.75
m/z	relative intensity	assigned
69.0447	24	C3H5N2+
109.0761	5	C6H9N2+
158.9762	12	C7H5Cl2+
176.0389	4	C11H9Cl+
184.9918	1	C9H7Cl2+
199.0074	1	C10H9Cl2+
200.9869	13	C9H7Cl2O+
211.0077	3	C11H9Cl2+
229.0181	2	C11H11Cl2O+
255.0087	14	C11H9Cl2N2O+
297.0555	999	C14H15Cl2N2O+
