Mass spectrum: AM580; LC-ESI-QFT; MS2; CE: 15; R=17500; [M+H]+
Name: AM580
Name: 4-{[(5,5,8,8-Tetramethyl-5,6,7,8-tetrahydronaphthalen-2-yl)carbonyl]amino}benzoic acid
Name: 4-[(5,5,8,8-tetramethyl-6,7-dihydronaphthalene-2-carbonyl)amino]benzoic acid
Formula: C22H25NO3
Exact mass: 351.1834
SMILES: CC1(C)CCC(C)(C)C2=C1C=CC(=C2)C(=O)NC1=CC=C(C=C1)C(O)=O
InChI: InChI=1S/C22H25NO3/c1-21(2)11-12-22(3,4)18-13-15(7-10-17(18)21)19(24)23-16-8-5-14(6-9-16)20(25)26/h5-10,13H,11-12H2,1-4H3,(H,23,24)(H,25,26)
Instrument: Q Exactive Orbitrap (Thermo Scientific)
Instrument type: LC-ESI-QFT
Ms type: MS2
Ion mode: POSITIVE
Ionization: ESI
Fragmentation mode: HCD
Collision energy: 15
Resolution: 17500
Column name: Acquity BEH C18 1.7um, 2.1x150mm (Waters)
Retention time: 19.378 min
Base peak: 79.0211
Precursor m/z: 352.1907
Precursor type: [M+H]+
Precursor intensity: 7938624.25
m/z	relative intensity	assigned
105.07	1	C8H9+
133.1011	2	C10H13+
215.1423	3	C15H19O+
352.1908	999	C22H26NO3+
