Mass spectrum: 4-Methoxyaniline; LC-ESI-QFT; MS2; CE: 45; R=17500; [M+H]+
Name: 4-Methoxyaniline
Name: p-Anisidine
Formula: C7H9NO
Exact mass: 123.0684
SMILES: COC1=CC=C(N)C=C1
InChI: InChI=1S/C7H9NO/c1-9-7-4-2-6(8)3-5-7/h2-5H,8H2,1H3
Instrument: Q Exactive Orbitrap (Thermo Scientific)
Instrument type: LC-ESI-QFT
Ms type: MS2
Ion mode: POSITIVE
Ionization: ESI
Fragmentation mode: HCD
Collision energy: 45
Resolution: 17500
Column name: Acquity BEH C18 1.7um, 2.1x150mm (Waters)
Retention time: 3.937 min
Base peak: 79.0211
Precursor m/z: 124.0757
Precursor type: [M+H]+
Precursor intensity: 5953986.4375
m/z	relative intensity	assigned
53.0386	3	C4H5+
65.0386	10	C5H5+
77.0386	2	C6H5+
79.0542	5	C6H7+
80.0494	5	C5H6N+
81.0573	30	C5H7N+
92.0495	239	C6H6N+
93.0573	367	C6H7N+
94.0651	11	C6H8N+
95.0492	12	C6H7O+
96.0443	2	C5H6NO+
96.0809	1	C6H10N+
97.0648	4	C6H9O+
107.0491	1	C7H7O+
108.0444	2	C6H6NO+
109.0522	153	C6H7NO+
110.06	16	C6H8NO+
123.0679	15	C7H9NO+
124.0757	999	C7H10NO+
