Mass spectrum: 2-Naphthalenol; LC-ESI-QFT; MS2; CE: 90; R=17500; [M+H]+
Name: 2-Naphthalenol
Name: 2-Naphthol
Name: naphthalen-2-ol
Formula: C10H8O
Exact mass: 144.0575
SMILES: OC1=CC2=C(C=CC=C2)C=C1
InChI: InChI=1S/C10H8O/c11-10-6-5-8-3-1-2-4-9(8)7-10/h1-7,11H
Instrument: Q Exactive Orbitrap (Thermo Scientific)
Instrument type: LC-ESI-QFT
Ms type: MS2
Ion mode: POSITIVE
Ionization: ESI
Fragmentation mode: HCD
Collision energy: 90
Resolution: 17500
Column name: Acquity BEH C18 1.7um, 2.1x150mm (Waters)
Retention time: 15.689 min
Base peak: 79.0211
Precursor m/z: 145.0648
Precursor type: [M+H]+
Precursor intensity: 13999023.375
m/z	relative intensity	assigned
51.023	3	C4H3+
53.0386	38	C4H5+
63.0228	2	C5H3+
65.0385	21	C5H5+
74.015	1	C6H2+
75.0228	5	C6H3+
77.0384	16	C6H5+
89.0384	4	C7H5+
91.0542	728	C7H7+
95.0491	103	C6H7O+
101.0385	4	C8H5+
102.0464	4	C8H6+
103.0542	143	C8H7+
105.0334	2	C7H5O+
115.0542	999	C9H7+
116.062	78	C9H8+
117.0698	476	C9H9+
119.0491	12	C8H7O+
126.0464	98	C10H6+
127.0541	579	C10H7+
128.0619	15	C10H8+
130.0412	1	C9H6O+
131.049	7	C9H7O+
143.0489	2	C10H7O+
144.057	55	C10H8O+
145.0647	648	C10H9O+
