Mass spectrum: Penconazole; LC-ESI-QFT; MS2; CE: 45; R=17500; [M+H]+
Name: Penconazole
Name: 1-[2-(2,4-dichlorophenyl)pentyl]-1,2,4-triazole
Formula: C13H15Cl2N3
Exact mass: 283.0643
SMILES: CCCC(CN1C=NC=N1)C1=C(Cl)C=C(Cl)C=C1
InChI: InChI=1S/C13H15Cl2N3/c1-2-3-10(7-18-9-16-8-17-18)12-5-4-11(14)6-13(12)15/h4-6,8-10H,2-3,7H2,1H3
Instrument: Q Exactive Orbitrap (Thermo Scientific)
Instrument type: LC-ESI-QFT
Ms type: MS2
Ion mode: POSITIVE
Ionization: ESI
Fragmentation mode: HCD
Collision energy: 45
Resolution: 17500
Column name: Acquity BEH C18 1.7um, 2.1x150mm (Waters)
Retention time: 18.602 min
Base peak: 79.0212
Precursor m/z: 284.0716
Precursor type: [M+H]+
Precursor intensity: 117170605.5938
m/z	relative intensity	assigned
53.0022	5	ClH4N+
55.0542	3	C4H7+
57.0699	233	C4H9+
58.0651	58	C3H8N+
60.0808	999	C3H10N+
69.0698	4	C5H9+
70.0399	504	C2H4N3+
71.0855	146	C5H11+
83.0856	1	C6H11+
85.1011	72	C6H13+
134.0966	1	C9H12N+
137.0154	4	C8H6Cl+
158.9763	273	C7H5Cl2+
172.992	42	C8H7Cl2+
