Mass spectrum: Strychnine; LC-ESI-QFT; MS2; CE: 75; R=17500; [M+H]+
Name: Strychnine
Name: (4aR,5aS,8aR,13aS,15aS,15bR)-4a,5,5a,7,8,13a,15,15a,15b,16-decahydro-2H-4,6-methanoindolo[3,2,1-ij]oxepino[2,3,4-de]pyrrolo[2,3-h]quinolin-14-one
Formula: C21H22N2O2
Exact mass: 334.1681
SMILES: O=C1C[C@@H]2OCC=C3CN4CC[C@]56c7ccccc7N1[C@H]5[C@H]2[C@H]3C[C@H]46
InChI: InChI=1S/C21H22N2O2/c24-18-10-16-19-13-9-17-21(6-7-22(17)11-12(13)5-8-25-16)14-3-1-2-4-15(14)23(18)20(19)21/h1-5,13,16-17,19-20H,6-11H2/t13-,16-,17-,19-,20-,21+/m0/s1
Instrument: Q Exactive Orbitrap (Thermo Scientific)
Instrument type: LC-ESI-QFT
Ms type: MS2
Ion mode: POSITIVE
Ionization: ESI
Fragmentation mode: HCD
Collision energy: 75
Resolution: 17500
Column name: Acquity BEH C18 1.7um, 2.1x150mm (Waters)
Retention time: 10.965 min
Base peak: 79.0211
Precursor m/z: 335.1754
Precursor type: [M+H]+
Precursor intensity: 19160698
m/z	relative intensity	assigned
53.0023	2	C3HO+
53.0386	24	C4H5+
54.0339	2	C3H4N+
55.0179	111	C3H3O+
55.0542	19	C4H7+
56.0495	57	C3H6N+
57.0335	1	C3H5O+
58.0651	2	C3H8N+
63.023	1	C5H3+
65.0386	11	C5H5+
66.0463	2	C5H6+
67.0415	2	C4H5N+
67.0542	46	C5H7+
68.0495	35	C4H6N+
69.0335	21	C4H5O+
69.0699	4	C5H9+
70.0651	13	C4H8N+
71.0491	12	C4H7O+
77.0385	3	C6H5+
79.0542	117	C6H7+
80.0495	41	C5H6N+
81.0335	9	C5H5O+
81.0572	9	C5H7N+
81.0699	86	C6H9+
82.0651	14	C5H8N+
83.0492	10	C5H7O+
84.0444	6	C4H6NO+
86.0601	2	C4H8NO+
91.0543	106	C7H7+
92.0494	4	C6H6N+
93.0573	59	C6H7N+
93.0699	74	C7H9+
94.0652	61	C6H8N+
95.0492	72	C6H7O+
95.073	8	C6H9N+
95.0855	11	C7H11+
96.0445	4	C5H6NO+
96.0808	31	C6H10N+
97.0648	5	C6H9O+
98.0601	4	C5H8NO+
103.0543	13	C8H7+
104.0495	4	C7H6N+
105.0449	12	C6H5N2+
105.0699	35	C8H9+
106.0652	92	C7H8N+
107.0491	9	C7H7O+
107.0731	10	C7H9N+
107.0855	14	C8H11+
108.0808	81	C7H10N+
109.0648	13	C7H9O+
109.0886	3	C7H11N+
110.0602	5	C6H8NO+
110.0966	4	C7H12N+
115.0543	18	C9H7+
116.0495	2	C8H6N+
116.0622	1	C9H8+
117.0574	13	C8H7N+
117.0699	24	C9H9+
118.0651	45	C8H8N+
119.049	1	C8H7O+
119.0729	2	C8H9N+
119.0857	14	C9H11+
120.0442	2	C7H6NO+
120.0809	15	C8H10N+
121.0648	36	C8H9O+
121.1011	2	C9H13+
122.06	57	C7H8NO+
122.0964	7	C8H12N+
124.0757	36	C7H10NO+
128.0495	6	C9H6N+
128.0621	20	C10H8+
129.0699	237	C10H9+
130.0652	91	C9H8N+
131.049	2	C9H7O+
131.0731	7	C9H9N+
131.0854	8	C10H11+
132.0445	15	C8H6NO+
132.0807	23	C9H10N+
133.0649	6	C9H9O+
134.0601	2	C8H8NO+
134.0963	9	C9H12N+
135.0806	3	C9H11O+
136.0758	5	C8H10NO+
136.1121	1	C9H14N+
138.0913	4	C8H12NO+
141.07	3	C11H9+
142.0651	15	C10H8N+
143.073	17	C10H9N+
143.0855	7	C11H11+
144.0808	246	C10H10N+
145.0649	7	C10H9O+
146.06	14	C9H8NO+
146.0963	5	C10H12N+
147.0805	6	C10H11O+
148.0754	8	C9H10NO+
149.0596	5	C9H9O2+
150.0911	1	C9H12NO+
153.0701	6	C12H9+
154.0651	56	C11H8N+
155.0606	5	C10H7N2+
155.0729	27	C11H9N+
156.0808	837	C11H10N+
157.0763	1	C10H9N2+
157.0886	5	C11H11N+
158.0601	17	C10H8NO+
158.0841	7	C10H10N2+
158.0965	9	C11H12N+
159.0918	5	C10H11N2+
160.0756	9	C10H10NO+
162.091	2	C10H12NO+
162.1277	2	C11H16N+
165.07	3	C13H9+
166.0653	24	C12H8N+
167.073	53	C12H9N+
167.0849	8	C13H11+
168.0808	119	C12H10N+
169.0762	31	C11H9N2+
169.0885	19	C12H11N+
170.06	28	C11H8NO+
170.0964	62	C12H12N+
171.0917	45	C11H11N2+
172.0755	13	C11H10NO+
172.0992	2	C11H12N2+
176.0703	4	C10H10NO2+
177.0702	2	C14H9+
178.0777	3	C14H10+
179.0731	4	C13H9N+
179.0849	2	C14H11+
180.0809	67	C13H10N+
181.0886	25	C13H11N+
182.0604	20	C12H8NO+
182.0844	5	C12H10N2+
182.0966	64	C13H12N+
183.0679	36	C12H9NO+
183.0922	4	C12H11N2+
184.0758	999	C12H10NO+
185.0712	15	C11H9N2O+
185.1072	2	C12H13N2+
186.0789	10	C11H10N2O+
186.0914	9	C12H12NO+
187.0867	3	C11H11N2O+
191.073	15	C14H9N+
192.0808	24	C14H10N+
193.0887	21	C14H11N+
194.0602	35	C13H8NO+
194.0965	182	C14H12N+
195.092	8	C13H11N2+
195.104	4	C14H13N+
196.0758	68	C13H10NO+
196.1121	9	C14H14N+
197.0713	4	C12H9N2O+
197.0836	12	C13H11NO+
197.1072	2	C13H13N2+
198.055	9	C12H8NO2+
198.0914	80	C13H12NO+
199.0869	7	C12H11N2O+
200.0707	13	C12H10NO2+
202.0777	1	C16H10+
203.0854	1	C16H11+
204.0809	52	C15H10N+
205.0888	36	C15H11N+
206.0965	90	C15H12N+
207.0928	2	C14H11N2+
207.1042	23	C15H13N+
208.0757	12	C14H10NO+
208.1005	2	C14H12N2+
208.112	24	C15H14N+
209.0835	6	C14H11NO+
209.1074	5	C14H13N2+
210.0914	34	C14H12NO+
210.1276	3	C15H16N+
211.0866	3	C13H11N2O+
212.0708	13	C13H10NO2+
212.107	11	C14H14NO+
213.1018	2	C13H13N2O+
214.0866	5	C13H12NO2+
216.0815	8	C16H10N+
217.0887	52	C16H11N+
218.0965	76	C16H12N+
219.0675	3	C15H9NO+
219.0918	3	C15H11N2+
219.1042	30	C16H13N+
220.0758	145	C15H10NO+
220.1121	69	C16H14N+
221.0834	30	C15H11NO+
221.1075	4	C15H13N2+
221.12	11	C16H15N+
222.0914	153	C15H12NO+
222.1273	26	C16H16N+
223.0873	2	C14H11N2O+
223.0983	3	C15H13NO+
224.1071	10	C15H14NO+
225.1016	3	C14H13N2O+
226.0865	4	C14H12NO2+
228.0809	3	C17H10N+
229.089	7	C17H11N+
230.0965	22	C17H12N+
231.1043	22	C17H13N+
232.0757	10	C16H10NO+
232.112	33	C17H14N+
233.0835	18	C16H11NO+
233.1087	1	C16H13N2+
233.1198	8	C17H15N+
234.0914	104	C16H12NO+
234.1276	28	C17H16N+
235.099	6	C16H13NO+
235.1227	5	C16H15N2+
235.136	6	C17H17N+
236.071	4	C15H10NO2+
236.107	19	C16H14NO+
236.1436	10	C17H18N+
237.1021	9	C15H13N2O+
237.1385	3	C16H17N2+
238.0862	5	C15H12NO2+
238.1229	6	C16H16NO+
239.1177	4	C15H15N2O+
241.0888	2	C18H11N+
242.0971	8	C18H12N+
243.1042	8	C18H13N+
244.1121	28	C18H14N+
245.0837	2	C17H11NO+
245.1076	2	C17H13N2+
245.1202	8	C18H15N+
246.0915	44	C17H12NO+
246.1145	2	C17H14N2+
246.1278	21	C18H16N+
247.099	11	C17H13NO+
247.1229	3	C17H15N2+
247.1359	3	C18H17N+
248.107	53	C17H14NO+
248.1437	4	C18H18N+
249.1021	2	C16H13N2O+
249.1146	7	C17H15NO+
249.138	3	C17H17N2+
250.0868	2	C16H12NO2+
250.1227	9	C17H16NO+
252.1382	2	C17H18NO+
254.0967	4	C19H12N+
255.104	3	C19H13N+
256.1115	3	C19H14N+
257.0838	18	C18H11NO+
257.1197	2	C19H15N+
258.092	7	C18H12NO+
258.1276	3	C19H16N+
259.0989	9	C18H13NO+
259.1232	3	C18H15N2+
260.1072	20	C18H14NO+
260.1437	4	C19H18N+
261.101	1	C17H13N2O+
261.1151	20	C18H15NO+
261.1386	3	C18H17N2+
262.1227	53	C18H16NO+
263.1176	6	C17H15N2O+
263.1302	2	C18H17NO+
264.1021	91	C17H14NO2+
264.1378	8	C18H18NO+
265.1338	2	C17H17N2O+
266.1047	2	C16H14N2O2+
266.1177	13	C17H16NO2+
270.092	1	C19H12NO+
271.0992	2	C19H13NO+
272.1068	33	C19H14NO+
273.1141	4	C19H15NO+
274.1229	20	C19H16NO+
275.1172	2	C18H15N2O+
276.1391	2	C19H18NO+
277.134	1	C18H17N2O+
278.1172	3	C18H16NO2+
278.1543	5	C19H20NO+
280.1341	2	C18H18NO2+
285.1157	2	C20H15NO+
288.1389	6	C20H18NO+
289.1328	7	C19H17N2O+
290.1181	14	C19H16NO2+
290.154	2	C20H20NO+
291.1487	3	C19H19N2O+
292.1332	6	C19H18NO2+
306.1492	6	C20H20NO2+
307.1444	25	C19H19N2O2+
335.1755	241	C21H23N2O2+
