Mass spectrum: 4-Nitrosodiphenylamine; LC-ESI-QFT; MS2; CE: 60; R=17500; [M+H]+
Name: 4-Nitrosodiphenylamine
Name: 4-nitroso-N-phenylaniline
Formula: C12H10N2O
Exact mass: 198.0793
SMILES: O=NC1=CC=C(NC2=CC=CC=C2)C=C1
InChI: InChI=1S/C12H10N2O/c15-14-12-8-6-11(7-9-12)13-10-4-2-1-3-5-10/h1-9,13H
Instrument: Q Exactive Orbitrap (Thermo Scientific)
Instrument type: LC-ESI-QFT
Ms type: MS2
Ion mode: POSITIVE
Ionization: ESI
Fragmentation mode: HCD
Collision energy: 60
Resolution: 17500
Column name: Acquity BEH C18 1.7um, 2.1x150mm (Waters)
Retention time: 16.721 min
Base peak: 79.0211
Precursor m/z: 199.0866
Precursor type: [M+H]+
Precursor intensity: 6180207.5625
m/z	relative intensity	assigned
55.0543	1	C4H7+
66.0464	3	C5H6+
72.0444	3	C3H6NO+
77.0387	1	C6H5+
78.0464	1	C6H6+
83.0855	2	C6H11+
100.0756	2	C5H10NO+
115.0542	1	C9H7+
128.0496	1	C9H6N+
129.0574	1	C9H7N+
130.0651	19	C9H8N+
142.0776	1	C11H10+
144.0445	3	C9H6NO+
146.0599	1	C9H8NO+
154.0651	11	C11H8N+
155.0614	2	C10H7N2+
155.0729	12	C11H9N+
156.0808	1	C11H10N+
165.0576	1	C12H7N+
167.0734	3	C12H9N+
168.0808	96	C12H10N+
169.0886	158	C12H11N+
181.076	999	C12H9N2+
182.0838	213	C12H10N2+
183.0679	1	C12H9NO+
184.0756	11	C12H10NO+
199.0866	258	C12H11N2O+
