Mass spectrum: Labetalol; LC-ESI-QFT; MS2; CE: 90; R=17500; [M-H]-
Name: Labetalol
Name: 2-hydroxy-5-[1-hydroxy-2-(4-phenylbutan-2-ylamino)ethyl]benzamide
Formula: C19H24N2O3
Exact mass: 328.1787
SMILES: CC(CCC1=CC=CC=C1)NCC(O)C1=CC=C(O)C(=C1)C(N)=O
InChI: InChI=1S/C19H24N2O3/c1-13(7-8-14-5-3-2-4-6-14)21-12-18(23)15-9-10-17(22)16(11-15)19(20)24/h2-6,9-11,13,18,21-23H,7-8,12H2,1H3,(H2,20,24)
Instrument: Q Exactive Orbitrap (Thermo Scientific)
Instrument type: LC-ESI-QFT
Ms type: MS2
Ion mode: NEGATIVE
Ionization: ESI
Fragmentation mode: HCD
Collision energy: 90
Resolution: 17500
Column name: Acquity BEH C18 1.7um, 2.1x150mm (Waters)
Retention time: 13.525 min
Base peak: 304.1303
Precursor m/z: 327.1714
Precursor type: [M-H]-
Precursor intensity: 9977565.220703
m/z	relative intensity	assigned
65.0033	13	C4HO-
65.9986	14	C3NO-
89.0397	13	C7H5-
90.0351	6	C6H4N-
91.0189	36	C6H3O-
91.0553	5	C7H7-
93.0347	21	C6H5O-
95.0503	8	C6H7O-
105.0346	9	C7H5O-
106.0424	12	C7H6O-
107.0503	17	C7H7O-
108.0217	7	C6H4O2-
117.0348	22	C8H5O-
117.0458	5	C7H5N2-
118.0299	74	C7H4NO-
119.0503	56	C8H7O-
120.0455	10	C7H6NO-
121.0295	72	C7H5O2-
123.0451	5	C7H7O2-
130.0298	20	C8H4NO-
131.0377	216	C8H5NO-
132.0455	66	C8H6NO-
133.0534	47	C8H7NO-
134.0613	7	C8H8NO-
142.0302	5	C9H4NO-
143.025	10	C8H3N2O-
144.0455	73	C9H6NO-
145.0534	11	C9H7NO-
146.0249	9	C8H4NO2-
146.0613	28	C9H8NO-
149.0481	47	C8H7NO2-
156.0331	47	C9H4N2O-
156.0457	10	C10H6NO-
157.0408	999	C9H5N2O-
158.0247	32	C9H4NO2-
158.0487	41	C9H6N2O-
158.0613	14	C10H8NO-
159.0564	10	C9H7N2O-
159.069	4	C10H9NO-
160.0403	3	C9H6NO2-
160.0768	10	C10H10NO-
162.0565	11	C9H8NO2-
163.0275	78	C8H5NO3-
164.0355	27	C8H6NO3-
169.0408	18	C10H5N2O-
170.0487	18	C10H6N2O-
171.0565	26	C10H7N2O-
174.0434	19	C9H6N2O2-
175.0513	129	C9H7N2O2-
176.059	14	C9H8N2O2-
181.0382	57	C11H5N2O-
183.0563	6	C11H7N2O-
185.0716	19	C11H9N2O-
189.0672	9	C10H9N2O2-
