Mass spectrum: FR167356; LC-ESI-QFT; MS2; CE: 60; R=17500; [M+H]+
Name: FR167356
Name: Benzamide, 2,6-dichloro-N-(3-(1-hydroxy-1-methylethyl)-2-methyl-7-benzofuranyl)-
Name: 2,6-dichloro-N-[3-(2-hydroxypropan-2-yl)-2-methyl-1-benzofuran-7-yl]benzamide
Formula: C19H17Cl2NO3
Exact mass: 377.0585
SMILES: CC1=C(C2=C(O1)C(NC(=O)C1=C(Cl)C=CC=C1Cl)=CC=C2)C(C)(C)O
InChI: InChI=1S/C19H17Cl2NO3/c1-10-16(19(2,3)24)11-6-4-9-14(17(11)25-10)22-18(23)15-12(20)7-5-8-13(15)21/h4-9,24H,1-3H3,(H,22,23)
Instrument: Q Exactive Orbitrap (Thermo Scientific)
Instrument type: LC-ESI-QFT
Ms type: MS2
Ion mode: POSITIVE
Ionization: ESI
Fragmentation mode: HCD
Collision energy: 60
Resolution: 17500
Column name: Acquity BEH C18 1.7um, 2.1x150mm (Waters)
Retention time: 16.868 min
Base peak: 79.0211
Precursor m/z: 378.0658
Precursor type: [M+H]+
Precursor intensity: 1451877.375
m/z	relative intensity	assigned
59.0492	5	C3H7O+
84.984	4	C4H2Cl+
91.0542	2	C7H7+
98.9994	1	C5H4Cl+
103.0541	1	C8H7+
107.0491	1	C7H7O+
108.984	2	C6H2Cl+
115.0542	2	C9H7+
117.0334	2	C8H5O+
117.0699	1	C9H9+
119.0855	2	C9H11+
120.9607	1	C4H3Cl2+
121.0648	1	C8H9O+
126.9947	2	C6H4ClO+
128.0022	2	C6H5ClO+
128.062	26	C10H8+
129.0698	7	C10H9+
141.0693	1	C11H9+
143.0855	18	C11H11+
144.0808	10	C10H10N+
144.9606	3	C6H3Cl2+
145.0649	3	C10H9O+
146.0602	1	C9H8NO+
146.0723	1	C10H10O+
147.0804	6	C10H11O+
155.0006	1	C9HNO2+
155.0604	2	C3H17Cl2O2+
162.9713	6	C6H5Cl2O+
171.0806	4	C12H11O+
171.9716	4	C7H4Cl2N+
172.0754	4	C11H10NO+
172.9556	999	C7H3Cl2O+
186.0915	2	C12H12NO+
189.0907	1	C12H13O2+
300.0341	1	C17H12Cl2N+
302.0137	2	C16H10Cl2NO+
316.0296	2	C17H12Cl2NO+
332.0232	1	C17H12Cl2NO2+
342.0447	3	C19H14Cl2NO+
360.0556	1	C19H16Cl2NO2+
