Mass spectrum: Hexazinone; LC-ESI-QFT; MS2; CE: 90; R=17500; [M+H]+
Name: Hexazinone
Name: 3-cyclohexyl-6-(dimethylamino)-1-methyl-1,3,5-triazine-2,4-dione
Formula: C12H20N4O2
Exact mass: 252.1586
SMILES: CN(C)C1=NC(=O)N(C2CCCCC2)C(=O)N1C
InChI: InChI=1S/C12H20N4O2/c1-14(2)10-13-11(17)16(12(18)15(10)3)9-7-5-4-6-8-9/h9H,4-8H2,1-3H3
Instrument: Q Exactive Orbitrap (Thermo Scientific)
Instrument type: LC-ESI-QFT
Ms type: MS2
Ion mode: POSITIVE
Ionization: ESI
Fragmentation mode: HCD
Collision energy: 90
Resolution: 17500
Column name: Acquity BEH C18 1.7um, 2.1x150mm (Waters)
Retention time: 15.350 min
Base peak: 79.0211
Precursor m/z: 253.1659
Precursor type: [M+H]+
Precursor intensity: 19324232.625
m/z	relative intensity	assigned
53.0022	1	C3HO+
53.0386	1	C4H5+
55.0291	12	C2H3N2+
55.0542	53	C4H7+
56.0131	2	C2H2NO+
56.0369	10	C2H4N2+
56.0494	4	C3H6N+
57.0447	1	C2H5N2+
58.0287	24	C2H4NO+
58.0651	50	C3H8N+
69.0083	16	C2HN2O+
69.0447	14	C3H5N2+
69.9923	13	C2NO2+
70.0525	14	C3H6N2+
71.0603	999	C3H7N2+
72.0443	35	C3H6NO+
83.0239	89	C3H3N2O+
83.0855	7	C6H11+
85.076	505	C4H9N2+
96.0556	8	C4H6N3+
101.0345	30	C3H5N2O2+
114.0661	21	C4H8N3O+
128.0819	2	C5H10N3O+
139.0614	1	C5H7N4O+
171.0876	17	C6H11N4O2+
