Mass spectrum: Phosalone; LC-ESI-QFT; MS2; CE: 15; R=17500; [M+H]+
Name: Phosalone
Name: 6-chloro-3-(diethoxyphosphinothioylsulfanylmethyl)-1,3-benzoxazol-2-one
Formula: C12H15ClNO4PS2
Exact mass: 366.9869
SMILES: CCOP(=S)(OCC)SCN1C(=O)OC2=CC(Cl)=CC=C12
InChI: InChI=1S/C12H15ClNO4PS2/c1-3-16-19(20,17-4-2)21-8-14-10-6-5-9(13)7-11(10)18-12(14)15/h5-7H,3-4,8H2,1-2H3
Instrument: Q Exactive Orbitrap (Thermo Scientific)
Instrument type: LC-ESI-QFT
Ms type: MS2
Ion mode: POSITIVE
Ionization: ESI
Fragmentation mode: HCD
Collision energy: 15
Resolution: 17500
Column name: Acquity BEH C18 1.7um, 2.1x150mm (Waters)
Retention time: 18.842 min
Base peak: 79.0211
Precursor m/z: 367.9941
Precursor type: [M+H]+
Precursor intensity: 3263575.734375
m/z	relative intensity	assigned
57.07	16	C4H9+
71.0855	18	C5H11+
83.0855	50	C6H11+
97.1012	99	C7H13+
111.1171	74	C8H15+
182.0004	999	C8H5ClNO2+
322.0068	384	C11H14ClNO4PS+
