Mass spectrum: Progesterone; LC-ESI-QFT; MS2; CE: 15; R=17500; [M+H]+
Name: Progesterone
Name: (8S,9S,10R,13S,14S,17S)-17-acetyl-10,13-dimethyl-1,2,6,7,8,9,11,12,14,15,16,17-dodecahydrocyclopenta[a]phenanthren-3-one
Formula: C21H30O2
Exact mass: 314.2246
SMILES: CC(=O)[C@H]1CC[C@H]2[C@@H]3CCC4=CC(=O)CC[C@]4(C)[C@H]3CC[C@]12C
InChI: InChI=1S/C21H30O2/c1-13(22)17-6-7-18-16-5-4-14-12-15(23)8-10-20(14,2)19(16)9-11-21(17,18)3/h12,16-19H,4-11H2,1-3H3/t16-,17+,18-,19-,20-,21+/m0/s1
Instrument: Q Exactive Orbitrap (Thermo Scientific)
Instrument type: LC-ESI-QFT
Ms type: MS2
Ion mode: POSITIVE
Ionization: ESI
Fragmentation mode: HCD
Collision energy: 15
Resolution: 17500
Column name: Acquity BEH C18 1.7um, 2.1x150mm (Waters)
Retention time: 18.764 min
Base peak: 79.0211
Precursor m/z: 315.2319
Precursor type: [M+H]+
Precursor intensity: 5257795.8125
m/z	relative intensity	assigned
83.0492	2	C5H7O+
85.0647	2	C5H9O+
97.0648	67	C6H9O+
109.0647	29	C7H9O+
123.0801	2	C8H11O+
215.1429	1	C15H19O+
215.1792	1	C16H23+
219.1744	1	C15H23O+
229.1587	1	C16H21O+
233.1895	2	C16H25O+
239.179	2	C18H23+
241.1589	1	C17H21O+
245.1901	1	C17H25O+
255.2113	2	C19H27+
273.221	3	C19H29O+
279.211	5	C21H27+
297.2213	29	C21H29O+
315.2318	999	C21H31O2+
