Mass spectrum: Fosamine; LC-ESI-QFT; MS2; CE: 30; R=17500; [M-H]-
Name: Fosamine
Name: carbamoyl(ethoxy)phosphinic acid
Formula: C3H8NO4P
Exact mass: 153.0191
SMILES: CCOP(O)(=O)C(N)=O
InChI: InChI=1S/C3H8NO4P/c1-2-8-9(6,7)3(4)5/h2H2,1H3,(H2,4,5)(H,6,7)
Instrument: Q Exactive Orbitrap (Thermo Scientific)
Instrument type: LC-ESI-QFT
Ms type: MS2
Ion mode: NEGATIVE
Ionization: ESI
Fragmentation mode: HCD
Collision energy: 30
Resolution: 17500
Column name: Acquity BEH C18 1.7um, 2.1x150mm (Waters)
Retention time: 2.199 min
Base peak: 63.9624
Precursor m/z: 152.0118
Precursor type: [M-H]-
Precursor intensity: 4391639.390625
m/z	relative intensity	assigned
62.9641	999	O2P-
78.959	2	O3P-
80.9747	121	H2O3P-
105.9701	3	CHNO3P-
109.006	275	C2H6O3P-
152.0118	28	C3H7NO4P-
