Mass spectrum: 2-Amino-6-nitrobenzothiazole; LC-ESI-QFT; MS2; CE: 45; R=17500; [M-H]-
Name: 2-Amino-6-nitrobenzothiazole
Name: 6-nitro-1,3-benzothiazol-2-amine
Formula: C7H5N3O2S
Exact mass: 195.0102
SMILES: NC1=NC2=CC=C(C=C2S1)[N+]([O-])=O
InChI: InChI=1S/C7H5N3O2S/c8-7-9-5-2-1-4(10(11)12)3-6(5)13-7/h1-3H,(H2,8,9)
Instrument: Q Exactive Orbitrap (Thermo Scientific)
Instrument type: LC-ESI-QFT
Ms type: MS2
Ion mode: NEGATIVE
Ionization: ESI
Fragmentation mode: HCD
Collision energy: 45
Resolution: 17500
Column name: Acquity BEH C18 1.7um, 2.1x150mm (Waters)
Retention time: 14.420 min
Base peak: 194.0029
Precursor m/z: 194.003
Precursor type: [M-H]-
Precursor intensity: 15352527.99023
m/z	relative intensity	assigned
50.0035	1	C3N-
57.9756	132	CNS-
60.9753	16	CHOS-
65.0145	2	C3HN2-
65.9986	2	C3NO-
70.9835	1	C2HNS-
72.9753	1	C2HOS-
77.0145	3	C4HN2-
78.0223	3	C4H2N2-
81.9757	4	C3NS-
83.9913	2	C3H2NS-
88.9703	26	C2HO2S-
89.0145	2	C5HN2-
91.0302	2	C5H3N2-
94.9834	1	C4HNS-
95.9913	2	C4H2NS-
107.9914	2	C5H2NS-
110.991	1	C5H3OS-
115.0301	13	C7H3N2-
119.0249	7	C6H3N2O-
120.009	1	C6H2NO2-
120.9992	11	C6H3NS-
121.9943	2	C5H2N2S-
122.0124	1	C5H2N2O2-
123.9863	2	C5H2NOS-
124.9939	1	C5H3NOS-
129.0331	1	C7H3N3-
130.0172	19	C7H2N2O-
131.0251	3	C7H3N2O-
132.0329	5	C7H4N2O-
135.0022	4	C6H3N2S-
135.9862	2	C6H2NOS-
136.0099	8	C6H4N2S-
136.994	5	C6H3NOS-
145.9942	3	C7H2N2S-
147.0022	10	C7H3N2S-
147.02	17	C7H3N2O2-
148.0101	268	C7H4N2S-
150.9971	18	C6H3N2OS-
152.9766	1	C5HN2O2S-
153.9968	2	C6H4NO2S-
162.0309	195	C7H4N3O2-
162.9971	40	C7H3N2OS-
164.005	127	C7H4N2OS-
166.992	45	C6H3N2O2S-
177.0002	83	C7H3N3OS-
192.9955	1	C7H3N3O2S-
194.0029	999	C7H4N3O2S-
