Mass spectrum: CP-728663; LC-ESI-QFT; MS2; CE: 45; R=17500; [M+H]+
Name: CP-728663
Name: (1aR,7bS)-5-[[[(2S,3S,6S)-6-ethyl-2-phenylpiperidin-3-yl]amino]methyl]-6-methoxy-3-methyl-1a,7b-dihydro-1H-cyclopropa[c]quinolin-2-one
Formula: C26H33N3O2
Exact mass: 419.2573
SMILES: CC[C@H]1CC[C@H](NCC2=CC3=C(C=C2OC)[C@H]2C[C@H]2C(=O)N3C)[C@@H](N1)C1=CC=CC=C1
InChI: InChI=1S/C26H33N3O2/c1-4-18-10-11-22(25(28-18)16-8-6-5-7-9-16)27-15-17-12-23-20(14-24(17)31-3)19-13-21(19)26(30)29(23)2/h5-9,12,14,18-19,21-22,25,27-28H,4,10-11,13,15H2,1-3H3/t18-,19+,21+,22-,25-/m0/s1
Instrument: Q Exactive Orbitrap (Thermo Scientific)
Instrument type: LC-ESI-QFT
Ms type: MS2
Ion mode: POSITIVE
Ionization: ESI
Fragmentation mode: HCD
Collision energy: 45
Resolution: 17500
Column name: Acquity BEH C18 1.7um, 2.1x150mm (Waters)
Retention time: 11.327 min
Base peak: 79.0211
Precursor m/z: 420.2646
Precursor type: [M+H]+
Precursor intensity: 27198309
m/z	relative intensity	assigned
55.0541	7	C4H7+
56.0494	5	C3H6N+
58.0651	9	C3H8N+
67.0542	1	C5H7+
68.0494	1	C4H6N+
69.0698	6	C5H9+
72.0807	1	C4H10N+
82.0651	3	C5H8N+
84.0808	4	C5H10N+
91.0541	42	C7H7+
93.0698	1	C7H9+
96.044	4	C5H6NO+
96.0806	4	C6H10N+
97.0885	9	C6H11N+
103.0543	1	C8H7+
105.0698	3	C8H9+
106.0651	3	C7H8N+
115.0537	3	C9H7+
117.0697	9	C9H9+
118.0651	3	C8H8N+
119.0728	5	C8H9N+
119.0855	1	C9H11+
120.0806	14	C8H10N+
128.062	1	C10H8+
129.0697	17	C10H9+
130.0651	5	C9H8N+
131.0729	5	C9H9N+
131.0854	8	C10H11+
132.0807	26	C9H10N+
134.0963	21	C9H12N+
141.0698	2	C11H9+
143.0728	7	C10H9N+
143.0854	6	C11H11+
144.0806	22	C10H10N+
145.0645	5	C10H9O+
145.0885	43	C10H11N+
145.1008	5	C11H13+
146.0963	59	C10H12N+
147.0802	3	C10H11O+
156.0803	1	C11H10N+
157.0646	2	C11H9O+
157.0884	3	C11H11N+
158.0963	149	C11H12N+
159.0803	2	C11H11O+
159.1041	1	C11H13N+
160.0757	19	C10H10NO+
160.1119	364	C11H14N+
162.0912	7	C10H12NO+
167.0729	7	C12H9N+
168.0807	14	C12H10N+
170.0589	1	C11H8NO+
170.0962	3	C12H12N+
171.0678	5	C11H9NO+
171.1163	1	C13H15+
172.0759	2	C11H10NO+
172.0866	2	C10H10N3+
173.0834	74	C11H11NO+
174.0912	178	C11H12NO+
176.0703	2	C10H10NO2+
186.0912	564	C12H12NO+
187.099	6	C12H13NO+
188.107	260	C12H14NO+
188.1431	469	C13H18N+
201.0784	14	C12H11NO2+
204.1017	67	C12H14NO2+
214.086	17	C13H12NO2+
214.0973	6	C12H12N3O+
216.1017	999	C13H14NO2+
