Mass spectrum: Ingliforib; LC-ESI-QFT; MS2; CE: 90; R=17500; [M+H]+
Name: Ingliforib
Name: 5-chloro-N-[(2S,3R)-4-[(3R,4S)-3,4-dihydroxypyrrolidin-1-yl]-3-hydroxy-4-oxo-1-phenylbutan-2-yl]-1H-indole-2-carboxamide
Formula: C23H24ClN3O5
Exact mass: 457.1404
SMILES: O[C@H]([C@H](CC1=CC=CC=C1)NC(=O)C1=CC2=CC(Cl)=CC=C2N1)C(=O)N1C[C@H](O)[C@H](O)C1
InChI: InChI=1S/C23H24ClN3O5/c24-15-6-7-16-14(9-15)10-18(25-16)22(31)26-17(8-13-4-2-1-3-5-13)21(30)23(32)27-11-19(28)20(29)12-27/h1-7,9-10,17,19-21,25,28-30H,8,11-12H2,(H,26,31)/t17-,19-,20+,21+/m0/s1
Instrument: Q Exactive Orbitrap (Thermo Scientific)
Instrument type: LC-ESI-QFT
Ms type: MS2
Ion mode: POSITIVE
Ionization: ESI
Fragmentation mode: HCD
Collision energy: 90
Resolution: 17500
Column name: Acquity BEH C18 1.7um, 2.1x150mm (Waters)
Retention time: 17.390 min
Base peak: 79.0211
Precursor m/z: 458.1477
Precursor type: [M+H]+
Precursor intensity: 7148292
m/z	relative intensity	assigned
53.0387	3	C4H5+
55.0179	3	C3H3O+
56.0495	2	C3H6N+
57.0335	3	C3H5O+
58.0651	36	C3H8N+
60.0445	2	C2H6NO+
65.0386	9	C5H5+
68.0494	51	C4H6N+
69.0334	3	C4H5O+
70.065	4	C4H8N+
72.0445	1	C3H6NO+
72.984	2	C3H2Cl+
79.0543	6	C6H7+
80.0494	5	C5H6N+
81.0335	7	C5H5O+
84.0444	1	C4H6NO+
86.0601	46	C4H8NO+
86.9996	2	C4H4Cl+
90.0339	42	C6H4N+
91.0542	125	C7H7+
93.0699	20	C7H9+
95.0492	13	C6H7O+
98.0602	2	C5H8NO+
98.9996	42	C5H4Cl+
102.034	2	C7H4N+
103.0542	115	C8H7+
104.0706	38	C4H10NO2+
105.0448	4	C6H5N2+
105.0699	22	C8H9+
108.0443	7	C6H6NO+
110.9997	3	C6H4Cl+
114.034	5	C8H4N+
115.0543	76	C9H7+
116.0707	2	C5H10NO2+
117.0573	51	C8H7N+
117.0699	9	C9H9+
118.0652	2	C8H8N+
119.0366	10	C7H5NO+
119.0733	1	C8H9N+
120.0808	143	C8H10N+
122.9996	999	C7H4Cl+
123.995	2	C6H3ClN+
126.0106	28	C6H5ClN+
126.055	2	C6H8NO2+
126.9946	2	C6H4ClO+
129.0103	5	C6H6ClO+
130.04	9	C7H4N3+
130.065	9	C9H8N+
131.0732	3	C9H9N+
132.0444	6	C8H6NO+
132.0808	16	C9H10N+
133.0522	28	C8H7NO+
133.0646	8	C9H9O+
137.0028	2	C7H4ClN+
139.0057	10	C6H4ClN2+
140.0262	1	C7H7ClN+
144.0656	8	C6H10NO3+
145.0053	1	C6H6ClO2+
145.0648	1	C10H9O+
150.0106	92	C8H5ClN+
151.0184	7	C8H6ClN+
152.0265	1	C8H7ClN+
155.0007	1	C6H4ClN2O+
155.0602	1	C10H7N2+
162.0552	2	C9H8NO2+
162.0759	2	C6H12NO4+
164.0012	1	C7H3ClN3+
164.0259	1	C9H7ClN+
164.9976	60	C8H4ClNO+
166.0054	18	C8H5ClNO+
168.0211	93	C8H7ClNO+
178.0054	284	C9H5ClNO+
179.9849	1	C8H3ClNO2+
182.037	2	C9H9ClNO+
183.0082	49	C8H6ClNO2+
197.0241	9	C9H8ClNO2+
218.1173	1	C13H16NO2+
