Mass spectrum: 2,5-dihydroxybenzenesulfonate; LC-ESI-QFT; MS2; CE: 75; R=17500; [M-H]-
Name: 2,5-dihydroxybenzenesulfonate
Name: 2,5-dihydroxybenzenesulfonic acid
Formula: C6H6O5S
Exact mass: 189.9936
SMILES: OC1=CC=C(O)C(=C1)S(O)(=O)=O
InChI: InChI=1S/C6H6O5S/c7-4-1-2-5(8)6(3-4)12(9,10)11/h1-3,7-8H,(H,9,10,11)
Instrument: Q Exactive Orbitrap (Thermo Scientific)
Instrument type: LC-ESI-QFT
Ms type: MS2
Ion mode: NEGATIVE
Ionization: ESI
Fragmentation mode: HCD
Collision energy: 75
Resolution: 17500
Column name: Acquity BEH C18 1.7um, 2.1x150mm (Waters)
Retention time: 3.325 min
Base peak: 198.9364
Precursor m/z: 188.9863
Precursor type: [M-H]-
Precursor intensity: 1989616.866211
m/z	relative intensity	assigned
69.0346	21	C4H5O-
79.9574	999	O3S-
80.9652	227	HO3S-
83.014	5	C4H3O2-
85.0295	6	C4H5O2-
95.0138	30	C5H3O2-
97.0295	14	C5H5O2-
108.0217	84	C6H4O2-
109.0294	86	C6H5O2-
123.0088	13	C6H3O3-
124.0165	4	C6H4O3-
125.0244	11	C6H5O3-
188.9863	67	C6H5O5S-
