Mass spectrum: Glybenclamide; LC-ESI-QFT; MS2; CE: 60; R=17500; [M-H]-
Name: Glybenclamide
Name: Glyburide
Name: 5-chloro-N-[2-[4-(cyclohexylcarbamoylsulfamoyl)phenyl]ethyl]-2-methoxybenzamide
Formula: C23H28ClN3O5S
Exact mass: 493.1438
SMILES: COC1=C(C=C(Cl)C=C1)C(=O)NCCC1=CC=C(C=C1)S(=O)(=O)NC(=O)NC1CCCCC1
InChI: InChI=1S/C23H28ClN3O5S/c1-32-21-12-9-17(24)15-20(21)22(28)25-14-13-16-7-10-19(11-8-16)33(30,31)27-23(29)26-18-5-3-2-4-6-18/h7-12,15,18H,2-6,13-14H2,1H3,(H,25,28)(H2,26,27,29)
Instrument: Q Exactive Orbitrap (Thermo Scientific)
Instrument type: LC-ESI-QFT
Ms type: MS2
Ion mode: NEGATIVE
Ionization: ESI
Fragmentation mode: HCD
Collision energy: 60
Resolution: 17500
Column name: Acquity BEH C18 1.7um, 2.1x150mm (Waters)
Retention time: 17.825 min
Base peak: 112.9856
Precursor m/z: 492.1365
Precursor type: [M-H]-
Precursor intensity: 8333256.225098
m/z	relative intensity	assigned
61.9706	10	NOS-
63.9624	73	O2S-
64.9703	16	HO2S-
74.0036	5	C5N-
77.9655	2	NO2S-
78.9734	97	HNO2S-
79.9573	4	O3S-
79.9812	10	H2NO2S-
80.9652	23	HO3S-
91.019	6	C6H3O-
92.989	3	CH3NO2S-
93.9605	54	NO3S-
103.9688	1	CN2O2S-
106.0425	10	C7H6O-
107.9761	73	CH2NO3S-
111.0006	4	C6H4Cl-
116.0142	68	C7H2NO-
118.0662	6	C8H8N-
121.0293	1	C7H5O2-
123.0928	3	C7H11N2-
126.9956	999	C6H4ClO-
130.0536	2	C8H6N2-
132.0818	12	C9H10N-
138.0324	1	C7H6O3-
151.9909	223	C7H3ClNO-
154.0094	117	C7H6O2S-
154.9905	1	C7H4ClO2-
169.0203	35	C7H7NO2S-
170.0014	627	C7H5ClNO2-
182.0014	7	C8H5ClNO2-
182.0282	3	C8H8NO2S-
184.0438	14	C8H10NO2S-
185.9992	32	C7H6O4S-
194.0155	13	C8H6N2O2S-
201.0102	11	C7H7NO4S-
207.0234	4	C9H7N2O2S-
224.0498	48	C9H10N3O2S-
225.034	20	C9H9N2O3S-
226.0053	3	C8H6N2O4S-
250.0292	1	C10H8N3O3S-
