Mass spectrum: CI-959; LC-ESI-QFT; MS2; CE: 75; R=17500; [M-H]-
Name: CI-959
Name: CI-959 free acid
Name: 5-methoxy-3-propan-2-yloxy-N-(2H-tetrazol-5-yl)-1-benzothiophene-2-carboxamide
Formula: C14H15N5O3S
Exact mass: 333.0896
SMILES: COC1=CC2=C(SC(C(=O)NC3=NN=NN3)=C2OC(C)C)C=C1
InChI: InChI=1S/C14H15N5O3S/c1-7(2)22-11-9-6-8(21-3)4-5-10(9)23-12(11)13(20)15-14-16-18-19-17-14/h4-7H,1-3H3,(H2,15,16,17,18,19,20)
Instrument: Q Exactive Orbitrap (Thermo Scientific)
Instrument type: LC-ESI-QFT
Ms type: MS2
Ion mode: NEGATIVE
Ionization: ESI
Fragmentation mode: HCD
Collision energy: 75
Resolution: 17500
Column name: Acquity BEH C18 1.7um, 2.1x150mm (Waters)
Retention time: 17.310 min
Base peak: 329.1061
Precursor m/z: 332.0823
Precursor type: [M-H]-
Precursor intensity: 34797835.7793
m/z	relative intensity	assigned
53.9985	27	C2NO-
82.9962	49	C4H3S-
93.0345	24	C6H5O-
95.0138	7	C5H3O2-
106.996	11	C6H3S-
108.0217	14	C6H4O2-
110.0108	84	C2N5O-
110.991	47	C5H3OS-
112.9977	64	C3HN2O3-
114.001	35	C2H2N4S-
121.0295	680	C7H5O2-
122.0329	391	H4N5O3-
122.991	28	C6H3OS-
134.9911	127	C7H3OS-
138.0145	22	C7H6OS-
138.9861	12	C6H3O2S-
147.9989	8	C8H4OS-
148.994	29	C7H3NOS-
150.9855	6	C7H3O2S-
154.0088	6	C7H6O2S-
154.9808	53	C6H3O3S-
156.9876	22	C8HN2S-
162.986	999	C8H3O2S-
163.9938	966	C8H4O2S-
178.0095	34	C9H6O2S-
179.0172	166	C9H7O2S-
188.0044	7	C9H4N2OS-
188.989	121	C9H3NO2S-
190.981	14	C9H3O3S-
191.0172	14	C10H7O2S-
194.0043	46	C9H6O3S-
231.9949	18	C10H4N2O3S-
246.0104	8	C11H6N2O3S-
