Mass spectrum: Pirimicarb; LC-ESI-QFT; MS2; CE: 75; R=17500; [M+H]+
Name: Pirimicarb
Name: [2-(dimethylamino)-5,6-dimethylpyrimidin-4-yl] N,N-dimethylcarbamate
Formula: C11H18N4O2
Exact mass: 238.1430
SMILES: CN(C)C(=O)OC1=C(C)C(C)=NC(=N1)N(C)C
InChI: InChI=1S/C11H18N4O2/c1-7-8(2)12-10(14(3)4)13-9(7)17-11(16)15(5)6/h1-6H3
Instrument: Q Exactive Orbitrap (Thermo Scientific)
Instrument type: LC-ESI-QFT
Ms type: MS2
Ion mode: POSITIVE
Ionization: ESI
Fragmentation mode: HCD
Collision energy: 75
Resolution: 17500
Column name: Acquity BEH C18 1.7um, 2.1x150mm (Waters)
Retention time: 12.666 min
Base peak: 79.0211
Precursor m/z: 239.1503
Precursor type: [M+H]+
Precursor intensity: 39042189.1875
m/z	relative intensity	assigned
56.0131	14	C2H2NO+
56.0495	1	C3H6N+
58.0651	3	C3H8N+
68.0494	1	C4H6N+
69.0573	2	C4H7N+
71.0604	3	C3H7N2+
72.0443	999	C3H6NO+
83.0239	34	C3H3N2O+
85.076	99	C4H9N2+
94.0524	1	C5H6N2+
96.0443	1	C5H6NO+
109.076	79	C6H9N2+
124.063	3	C6H8N2O+
137.0709	24	C7H9N2O+
138.0787	24	C7H10N2O+
139.0865	1	C7H11N2O+
150.1026	13	C8H12N3+
152.0818	16	C7H10N3O+
166.0973	1	C8H12N3O+
167.1052	7	C8H13N3O+
180.113	1	C9H14N3O+
182.1288	18	C9H16N3O+
195.1605	1	C10H19N4+
