Mass spectrum: Suxibuzone; LC-ESI-QFT; MS2; CE: 60; R=17500; [M+H]+
Name: Suxibuzone
Name: 4-[(4-butyl-3,5-dioxo-1,2-diphenylpyrazolidin-4-yl)methoxy]-4-oxobutanoic acid
Formula: C24H26N2O6
Exact mass: 438.1791
SMILES: CCCCC1(COC(=O)CCC(O)=O)C(=O)N(N(C1=O)C1=CC=CC=C1)C1=CC=CC=C1
InChI: InChI=1S/C24H26N2O6/c1-2-3-16-24(17-32-21(29)15-14-20(27)28)22(30)25(18-10-6-4-7-11-18)26(23(24)31)19-12-8-5-9-13-19/h4-13H,2-3,14-17H2,1H3,(H,27,28)
Instrument: Q Exactive Orbitrap (Thermo Scientific)
Instrument type: LC-ESI-QFT
Ms type: MS2
Ion mode: POSITIVE
Ionization: ESI
Fragmentation mode: HCD
Collision energy: 60
Resolution: 17500
Column name: Acquity BEH C18 1.7um, 2.1x150mm (Waters)
Retention time: 17.593 min
Base peak: 79.0211
Precursor m/z: 439.1864
Precursor type: [M+H]+
Precursor intensity: 14597920
m/z	relative intensity	assigned
51.0229	2	C4H3+
53.0022	4	C3HO+
53.0386	23	C4H5+
53.9974	1	C2NO+
55.0179	184	C3H3O+
55.0542	41	C4H7+
57.0699	39	C4H9+
65.0386	47	C5H5+
67.0542	22	C5H7+
69.0335	4	C4H5O+
69.0698	32	C5H9+
71.0855	7	C5H11+
73.0284	215	C3H5O2+
74.0964	1	C4H12N+
77.0382	13	C6H5+
78.0463	1	C6H6+
79.0542	43	C6H7+
81.0335	2	C5H5O+
81.0699	47	C6H9+
82.0653	1	C5H8N+
83.0126	2	C4H3O2+
83.0856	2	C6H11+
84.0808	4	C5H10N+
87.044	2	C4H7O2+
91.0389	5	C3H7O3+
91.0542	15	C7H7+
92.0495	68	C6H6N+
93.0336	7	C6H5O+
93.0573	21	C6H7N+
93.0699	2	C7H9+
94.0651	145	C6H8N+
95.0491	107	C6H7O+
97.0648	30	C6H9O+
101.0233	136	C4H5O3+
103.0543	6	C8H7+
104.0494	374	C7H6N+
105.0336	12	C7H5O+
105.0447	27	C6H5N2+
105.0547	2	C4H9O3+
105.0699	2	C8H9+
106.0651	204	C7H8N+
107.049	1	C7H7O+
109.0648	14	C7H9O+
111.044	28	C6H7O2+
115.039	17	C5H7O3+
115.0542	2	C9H7+
116.0496	1	C8H6N+
117.0571	9	C8H7N+
117.0698	5	C9H9+
118.0651	218	C8H8N+
119.034	2	C4H7O4+
119.073	18	C8H9N+
120.0444	85	C7H6NO+
120.0808	52	C8H10N+
122.06	2	C7H8NO+
123.0441	2	C7H7O2+
124.0756	2	C7H10NO+
125.0597	4	C7H9O2+
128.0495	15	C9H6N+
128.062	4	C10H8+
129.0698	1	C10H9+
130.0651	117	C9H8N+
131.0606	3	C8H7N2+
131.073	60	C9H9N+
132.0444	80	C8H6NO+
132.0807	47	C9H10N+
133.0396	6	C7H5N2O+
133.0522	23	C8H7NO+
134.06	48	C8H8NO+
139.0751	1	C8H11O2+
141.0696	1	C11H9+
142.0651	4	C10H8N+
143.0729	8	C10H9N+
143.0858	4	C11H11+
144.0445	4	C9H6NO+
144.0808	25	C10H10N+
145.0762	3	C9H9N2+
145.0886	28	C10H11N+
145.1012	6	C11H13+
146.06	175	C9H8NO+
146.0962	9	C10H12N+
147.0679	4	C9H9NO+
148.0389	1	C8H6NO2+
148.0757	8	C9H10NO+
148.112	10	C10H14N+
152.0708	1	C8H10NO2+
156.0447	1	C10H6NO+
156.0806	2	C11H10N+
157.0888	4	C11H11N+
158.0602	9	C10H8NO+
158.0963	10	C11H12N+
159.0681	9	C10H9NO+
159.104	1	C11H13N+
160.112	999	C11H14N+
162.0549	20	C9H8NO2+
162.1276	111	C11H16N+
166.0652	2	C12H8N+
167.0731	6	C12H9N+
168.0806	14	C12H10N+
169.0881	2	C12H11N+
170.0598	2	C11H8NO+
170.0963	3	C12H12N+
172.0757	6	C11H10NO+
172.1121	17	C12H14N+
173.0836	3	C11H11NO+
174.0549	65	C10H8NO2+
174.1278	6	C12H16N+
175.0624	2	C10H9NO2+
180.0808	4	C13H10N+
182.0838	6	C12H10N2+
182.096	1	C13H12N+
183.0916	3	C12H11N2+
184.0755	2	C12H10NO+
184.1118	1	C13H14N+
185.0831	1	C12H11NO+
186.0913	3	C12H12NO+
187.0988	1	C12H13NO+
188.107	13	C12H14NO+
190.1228	11	C12H16NO+
194.0598	5	C13H8NO+
195.0918	19	C13H11N2+
198.0911	2	C13H12NO+
200.1073	6	C13H14NO+
202.1226	3	C13H16NO+
204.0806	1	C15H10N+
206.0832	3	C14H10N2+
207.0916	32	C14H11N2+
208.0995	49	C14H12N2+
209.1072	20	C14H13N2+
211.0866	58	C13H11N2O+
216.1017	2	C13H14NO2+
218.1173	1	C13H16NO2+
219.0918	4	C15H11N2+
221.1073	6	C15H13N2+
223.0864	2	C14H11N2O+
224.095	1	C14H12N2O+
232.0989	1	C16H12N2+
233.1076	2	C16H13N2+
234.0786	3	C15H10N2O+
235.0863	3	C15H11N2O+
236.0949	2	C15H12N2O+
237.1023	9	C15H13N2O+
245.107	3	C17H13N2+
247.086	1	C16H11N2O+
249.1026	1	C16H13N2O+
251.1542	20	C17H19N2+
309.1596	3	C19H21N2O2+
