Mass spectrum: Biochanin A; LC-ESI-QFT; MS2; CE: 75; R=17500; [M-H]-
Name: Biochanin A
Name: 5,7-dihydroxy-3-(4-methoxyphenyl)chromen-4-one
Formula: C16H12O5
Exact mass: 284.0685
SMILES: COC1=CC=C(C=C1)C1=COC2=C(C(O)=CC(O)=C2)C1=O
InChI: InChI=1S/C16H12O5/c1-20-11-4-2-9(3-5-11)12-8-21-14-7-10(17)6-13(18)15(14)16(12)19/h2-8,17-18H,1H3
Instrument: Q Exactive Orbitrap (Thermo Scientific)
Instrument type: LC-ESI-QFT
Ms type: MS2
Ion mode: NEGATIVE
Ionization: ESI
Fragmentation mode: HCD
Collision energy: 75
Resolution: 17500
Column name: Acquity BEH C18 1.7um, 2.1x150mm (Waters)
Retention time: 17.739 min
Base peak: 283.0612
Precursor m/z: 283.0612
Precursor type: [M-H]-
Precursor intensity: 60314792.64941
m/z	relative intensity	assigned
63.024	61	C5H3-
65.0033	50	C4HO-
68.9981	1	C3HO2-
83.0139	28	C4H3O2-
89.0033	1	C6HO-
91.0189	118	C6H3O-
93.0346	3	C6H5O-
95.0138	3	C5H3O2-
104.0267	18	C7H4O-
106.0061	3	C6H2O2-
107.0139	59	C6H3O2-
108.0216	12	C6H4O2-
116.027	1	C8H4O-
117.0346	11	C8H5O-
119.0138	5	C7H3O2-
120.0217	3	C7H4O2-
121.0294	12	C7H5O2-
123.0088	4	C6H3O3-
123.045	9	C7H7O2-
126.047	1	C10H6-
130.0424	11	C9H6O-
132.0217	605	C8H4O2-
133.0295	6	C8H5O2-
134.0373	49	C8H6O2-
135.0088	62	C7H3O3-
139.0553	5	C11H7-
141.0346	12	C10H5O-
142.0426	8	C10H6O-
143.0502	18	C10H7O-
145.0294	5	C9H5O2-
145.0662	1	C10H9O-
147.0087	20	C8H3O3-
149.9962	2	C7H2O4-
151.0036	41	C7H3O4-
151.0552	4	C12H7-
153.0194	14	C7H5O4-
153.0343	3	C11H5O-
154.0424	84	C11H6O-
155.0504	16	C11H7O-
156.0214	2	C10H4O2-
156.0582	19	C11H8O-
158.0372	5	C10H6O2-
160.0168	1	C9H4O3-
165.0345	3	C12H5O-
166.0425	6	C12H6O-
167.0502	215	C12H7O-
168.0579	13	C12H8O-
169.0142	1	C7H5O5-
169.0295	16	C11H5O2-
169.0657	5	C12H9O-
170.0374	11	C11H6O2-
171.0451	20	C11H7O2-
172.0529	3	C11H8O2-
173.0603	1	C11H9O2-
178.0426	7	C13H6O-
179.0502	38	C13H7O-
180.0579	15	C13H8O-
182.0374	17	C12H6O2-
183.0451	122	C12H7O2-
184.0529	89	C12H8O2-
185.0603	2	C12H9O2-
194.0372	5	C13H6O2-
195.0451	339	C13H7O2-
196.0529	45	C13H8O2-
197.0243	11	C12H5O3-
198.0323	19	C12H6O3-
199.0399	15	C12H7O3-
200.0478	5	C12H8O3-
210.0322	21	C13H6O3-
211.04	999	C13H7O3-
212.0478	60	C13H8O3-
222.0323	8	C14H6O3-
223.0401	231	C14H7O3-
224.0479	45	C14H8O3-
225.0193	5	C13H5O4-
226.0272	50	C13H6O4-
227.0343	1	C13H7O4-
238.0279	1	C14H6O4-
239.0349	755	C14H7O4-
240.0428	87	C14H8O4-
250.0271	6	C15H6O4-
251.0346	7	C15H7O4-
266.0218	2	C15H6O5-
267.0299	686	C15H7O5-
268.0376	124	C15H8O5-
