Mass spectrum: Crotamiton; LC-ESI-QFT; MS2; CE: 45; R=17500; [M+H]+
Name: Crotamiton
Name: N-ethyl-N-(2-methylphenyl)but-2-enamide
Formula: C13H17NO
Exact mass: 203.1310
SMILES: CCN(C(=O)C=CC)C1=CC=CC=C1C
InChI: InChI=1S/C13H17NO/c1-4-8-13(15)14(5-2)12-10-7-6-9-11(12)3/h4,6-10H,5H2,1-3H3
Instrument: Q Exactive Orbitrap (Thermo Scientific)
Instrument type: LC-ESI-QFT
Ms type: MS2
Ion mode: POSITIVE
Ionization: ESI
Fragmentation mode: HCD
Collision energy: 45
Resolution: 17500
Column name: Acquity BEH C18 1.7um, 2.1x150mm (Waters)
Retention time: 17.257 min
Base peak: 79.0211
Precursor m/z: 204.1383
Precursor type: [M+H]+
Precursor intensity: 21500792.75
m/z	relative intensity	assigned
53.0022	5	C3HO+
53.9975	1	C2NO+
68.0494	117	C4H6N+
69.0334	999	C4H5O+
71.0491	1	C4H7O+
71.0855	2	C5H11+
91.0541	15	C7H7+
93.0699	1	C7H9+
96.0807	138	C6H10N+
97.0648	13	C6H9O+
105.0698	8	C8H9+
106.0651	37	C7H8N+
107.049	1	C7H7O+
107.0729	13	C7H9N+
108.0807	70	C7H10N+
109.0648	8	C7H9O+
116.0495	2	C8H6N+
117.0573	1	C8H7N+
118.065	4	C8H8N+
119.0853	1	C9H11+
120.0809	1	C8H10N+
121.0885	12	C8H11N+
130.0651	1	C9H8N+
131.0855	1	C10H11+
132.0442	1	C8H6NO+
132.0806	2	C9H10N+
133.1014	1	C10H13+
134.06	284	C8H8NO+
134.0963	55	C9H12N+
136.112	395	C9H14N+
143.0727	1	C10H9N+
144.0807	1	C10H10N+
146.0963	2	C10H12N+
148.0758	1	C9H10NO+
148.1118	3	C10H14N+
157.0886	1	C11H11N+
158.0964	46	C11H12N+
160.0758	1	C10H10NO+
160.1118	2	C11H14N+
161.0834	4	C10H11NO+
162.0913	59	C10H12NO+
162.1276	3	C11H16N+
171.1041	1	C12H13N+
174.0912	1	C11H12NO+
175.0992	3	C11H13NO+
176.1069	20	C11H14NO+
176.1433	6	C12H18N+
186.1277	8	C13H16N+
189.1146	1	C12H15NO+
204.1383	562	C13H18NO+
