Mass spectrum: Tolazamide; LC-ESI-QFT; MS2; CE: 45; R=17500; [M+H]+
Name: Tolazamide
Name: 1-(azepan-1-yl)-3-(4-methylphenyl)sulfonylurea
Formula: C14H21N3O3S
Exact mass: 311.1304
SMILES: CC1=CC=C(C=C1)S(=O)(=O)NC(=O)NN1CCCCCC1
InChI: InChI=1S/C14H21N3O3S/c1-12-6-8-13(9-7-12)21(19,20)16-14(18)15-17-10-4-2-3-5-11-17/h6-9H,2-5,10-11H2,1H3,(H2,15,16,18)
Instrument: Q Exactive Orbitrap (Thermo Scientific)
Instrument type: LC-ESI-QFT
Ms type: MS2
Ion mode: POSITIVE
Ionization: ESI
Fragmentation mode: HCD
Collision energy: 45
Resolution: 17500
Column name: Acquity BEH C18 1.7um, 2.1x150mm (Waters)
Retention time: 16.183 min
Base peak: 79.0212
Precursor m/z: 312.1376
Precursor type: [M+H]+
Precursor intensity: 11163459.125
m/z	relative intensity	assigned
53.0022	1	C3HO+
53.0386	1	C4H5+
54.0338	4	C3H4N+
55.0178	7	C3H3O+
55.0417	5	C3H5N+
55.0542	11	C4H7+
56.0495	18	C3H6N+
57.0573	56	C3H7N+
59.0604	25	C2H7N2+
61.0396	99	CH5N2O+
63.023	1	C5H3+
65.0385	51	C5H5+
67.0542	23	C5H7+
68.0494	315	C4H6N+
69.0573	50	C4H7N+
69.0698	19	C5H9+
70.0651	155	C4H8N+
71.0239	1	C2H3N2O+
71.0728	1	C4H9N+
74.0964	1	C4H12N+
79.0541	1	C6H7+
81.0698	2	C6H9+
82.0651	160	C5H8N+
83.0729	1	C5H9N+
83.0855	2	C6H11+
84.0807	18	C5H10N+
85.0646	1	C5H9O+
85.076	2	C4H9N2+
91.0542	243	C7H7+
95.0491	8	C6H7O+
96.0808	83	C6H10N+
97.0886	182	C6H11N+
98.0964	427	C6H12N+
99.1042	321	C6H13N+
108.057	6	C7H8O+
109.0648	295	C7H9O+
113.1073	151	C6H13N2+
114.0663	1	C4H8N3O+
114.0914	17	C6H12NO+
114.1151	8	C6H14N2+
115.1229	999	C6H15N2+
119.0604	434	C7H7N2+
120.0574	2	C8H8O+
123.0801	1	C8H11O+
131.0941	23	C6H13NO2+
139.0866	32	C7H11N2O+
140.1181	4	C7H14N3+
141.1022	597	C7H13N2O+
155.0161	279	C7H7O2S+
156.113	15	C7H14N3O+
157.1209	3	C7H15N3O+
172.0426	23	C7H10NO2S+
227.1178	2	C14H15N2O+
312.1369	3	C14H22N3O3S+
