Mass spectrum: Imazalil; LC-ESI-QFT; MS2; CE: 45; R=17500; [M+H]+
Name: Imazalil
Name: Enilconazole
Name: 1-[2-(2,4-dichlorophenyl)-2-prop-2-enoxyethyl]imidazole
Formula: C14H14Cl2N2O
Exact mass: 296.0483
SMILES: ClC1=CC(Cl)=C(C=C1)C(CN1C=CN=C1)OCC=C
InChI: InChI=1S/C14H14Cl2N2O/c1-2-7-19-14(9-18-6-5-17-10-18)12-4-3-11(15)8-13(12)16/h2-6,8,10,14H,1,7,9H2
Instrument: Q Exactive Orbitrap (Thermo Scientific)
Instrument type: LC-ESI-QFT
Ms type: MS2
Ion mode: POSITIVE
Ionization: ESI
Fragmentation mode: HCD
Collision energy: 45
Resolution: 17500
Column name: Acquity BEH C18 1.7um, 2.1x150mm (Waters)
Retention time: 15.289 min
Base peak: 79.0212
Precursor m/z: 297.0556
Precursor type: [M+H]+
Precursor intensity: 33630375
m/z	relative intensity	assigned
53.0022	99	C3HO+
53.9975	12	C2NO+
54.0101	1	C3H2O+
54.0338	1	C3H4N+
55.0179	1	C3H3O+
55.0542	2	C4H7+
65.0385	2	C5H5+
67.0416	5	C4H5N+
67.9893	7	ClH3NO+
68.0494	3	C4H6N+
69.0447	648	C3H5N2+
80.0495	6	C5H6N+
81.0447	181	C4H5N2+
82.0525	14	C4H6N2+
82.0651	35	C5H8N+
96.984	1	C5H2Cl+
99.0554	1	C4H7N2O+
102.0465	1	C8H6+
109.0761	231	C6H9N2+
113.0709	1	C5H9N2O+
115.0541	1	C9H7+
122.9995	1	C7H4Cl+
125.0152	1	C7H6Cl+
128.0621	2	C10H8+
129.0698	6	C10H9+
137.0154	3	C8H6Cl+
138.0232	2	C8H7Cl+
139.0538	1	C11H7+
141.0699	21	C11H9+
149.0154	12	C9H6Cl+
150.0231	22	C9H7Cl+
153.0104	1	C8H6ClO+
158.9763	999	C7H5Cl2+
163.0309	10	C10H8Cl+
164.0388	33	C10H9Cl+
165.0101	1	C9H6ClO+
165.0468	2	C10H10Cl+
171.984	1	C8H6Cl2+
172.992	257	C8H7Cl2+
175.0309	17	C11H8Cl+
176.0387	272	C11H9Cl+
179.0256	1	C10H8ClO+
182.9765	10	C9H5Cl2+
184.992	43	C9H7Cl2+
186.9712	30	C8H5Cl2O+
188.9872	2	C8H7Cl2O+
195.9843	3	C10H6Cl2+
199.0077	27	C10H9Cl2+
200.9869	200	C9H7Cl2O+
203.0369	12	C11H8ClN2+
211.0075	15	C11H9Cl2+
229.0183	3	C11H11Cl2O+
239.0136	2	C11H9Cl2N2+
255.0086	200	C11H9Cl2N2O+
297.0556	64	C14H15Cl2N2O+
