Mass spectrum: Butralin; LC-ESI-QFT; MS2; CE: 30; R=17500; [M+H]+
Name: Butralin
Formula: C14H21N3O4
Exact mass: 295.1532
SMILES: CCC(C)NC1=C(C=C(C=C1[N+]([O-])=O)C(C)(C)C)[N+]([O-])=O
InChI: InChI=1S/C14H21N3O4/c1-6-9(2)15-13-11(16(18)19)7-10(14(3,4)5)8-12(13)17(20)21/h7-9,15H,6H2,1-5H3
Instrument: Q Exactive Orbitrap (Thermo Scientific)
Instrument type: LC-ESI-QFT
Ms type: MS2
Ion mode: POSITIVE
Ionization: ESI
Fragmentation mode: HCD
Collision energy: 30
Resolution: 17500
Column name: Acquity BEH C18 1.7um, 2.1x150mm (Waters)
Retention time: 20.167 min
Base peak: 79.0211
Precursor m/z: 296.1605
Precursor type: [M+H]+
Precursor intensity: 1163838.609375
m/z	relative intensity	assigned
57.0699	90	C4H9+
58.0652	11	C3H8N+
147.1168	72	C11H15+
222.0875	231	C10H12N3O3+
223.0956	28	C10H13N3O3+
225.0731	27	C9H11N3O4+
240.098	999	C10H14N3O4+
