Mass spectrum: Tolnaftate; LC-ESI-QFT; MS2; CE: 75; R=17500; [M+H]+
Name: Tolnaftate
Name: O-naphthalen-2-yl N-methyl-N-(3-methylphenyl)carbamothioate
Formula: C19H17NOS
Exact mass: 307.1031
SMILES: CN(C(=S)OC1=CC2=CC=CC=C2C=C1)C1=CC=CC(C)=C1
InChI: InChI=1S/C19H17NOS/c1-14-6-5-9-17(12-14)20(2)19(22)21-18-11-10-15-7-3-4-8-16(15)13-18/h3-13H,1-2H3
Instrument: Q Exactive Orbitrap (Thermo Scientific)
Instrument type: LC-ESI-QFT
Ms type: MS2
Ion mode: POSITIVE
Ionization: ESI
Fragmentation mode: HCD
Collision energy: 75
Resolution: 17500
Column name: Acquity BEH C18 1.7um, 2.1x150mm (Waters)
Retention time: 19.422 min
Base peak: 79.0211
Precursor m/z: 308.1104
Precursor type: [M+H]+
Precursor intensity: 19103736
m/z	relative intensity	assigned
53.0023	1	C3HO+
53.0386	9	C4H5+
55.0179	4	C3H3O+
56.0131	1	C2H2NO+
63.0228	1	C5H3+
65.0385	124	C5H5+
67.0542	12	C5H7+
77.0386	3	C6H5+
79.0542	59	C6H7+
80.0495	4	C5H6N+
89.0385	1	C7H5+
91.0542	852	C7H7+
92.0494	5	C6H6N+
92.062	66	C7H8+
93.0699	125	C7H9+
94.0415	1	C6H6O+
94.065	3	C6H8N+
95.0491	29	C6H7O+
103.0542	14	C8H7+
104.0495	10	C7H6N+
105.0574	13	C7H7N+
105.0699	2	C8H9+
106.065	3	C7H8N+
106.0778	2	C8H10+
107.0491	44	C7H7O+
108.0572	3	C7H8O+
108.0808	15	C7H10N+
109.0648	165	C7H9O+
110.0601	2	C6H8NO+
111.0263	7	C6H7S+
115.0542	19	C9H7+
117.0573	1	C8H7N+
118.0652	26	C8H8N+
120.0808	999	C8H10N+
121.0885	2	C8H11N+
123.0263	49	C7H7S+
123.0802	3	C8H11O+
125.0418	3	C7H9S+
128.062	1	C10H8+
132.0445	2	C8H6NO+
133.0522	35	C8H7NO+
136.0216	13	C7H6NS+
137.0294	2	C7H7NS+
148.0756	52	C9H10NO+
149.0294	30	C8H7NS+
152.0529	4	C8H10NS+
159.0263	6	C10H7S+
164.0528	17	C9H10NS+
165.0242	13	C8H7NOS+
180.0477	2	C9H10NOS+
