Mass spectrum: Nilutamide; LC-ESI-QFT; MS2; CE: 60; R=17500; [M-H]-
Name: Nilutamide
Name: 5,5-dimethyl-3-[4-nitro-3-(trifluoromethyl)phenyl]imidazolidine-2,4-dione
Formula: C12H10F3N3O4
Exact mass: 317.0623
SMILES: CC1(C)NC(=O)N(C1=O)C1=CC(=C(C=C1)[N+]([O-])=O)C(F)(F)F
InChI: InChI=1S/C12H10F3N3O4/c1-11(2)9(19)17(10(20)16-11)6-3-4-8(18(21)22)7(5-6)12(13,14)15/h3-5H,1-2H3,(H,16,20)
Instrument: Q Exactive Orbitrap (Thermo Scientific)
Instrument type: LC-ESI-QFT
Ms type: MS2
Ion mode: NEGATIVE
Ionization: ESI
Fragmentation mode: HCD
Collision energy: 60
Resolution: 17500
Column name: Acquity BEH C18 1.7um, 2.1x150mm (Waters)
Retention time: 16.669 min
Base peak: 316.0549
Precursor m/z: 316.0551
Precursor type: [M-H]-
Precursor intensity: 76385845.75977
m/z	relative intensity	assigned
50.0036	5	C3N-
55.0189	173	C3H3O-
65.0146	2	C3HN2-
65.9986	44	C3NO-
68.9958	10	CF3-
70.9939	15	C3FO-
74.0037	11	C5N-
77.0146	7	C4HN2-
84.0455	27	C4H6NO-
86.9888	21	C3FO2-
89.0146	2	C5HN2-
89.9984	5	C5NO-
90.0349	2	C6H4N-
91.0063	4	C5HNO-
92.0141	6	C5H2NO-
93.0095	7	C4HN2O-
100.0193	5	C7H2N-
101.0147	9	C6HN2-
107.0176	4	C6H2FN-
108.9906	3	C3F3O-
110.0048	2	C5HFNO-
111	4	C4FN2O-
113.9989	4	C7NO-
114.035	5	C8H4N-
115.0301	2	C7H3N2-
118.0297	4	C7H4NO-
120.0094	2	C6H2NO2-
123.0125	5	C6H2FNO-
126.0162	6	C6H2F2N-
126.0348	11	C9H4N-
134.0048	6	C7HFNO-
135.0126	7	C7H2FNO-
135.025	2	C3H3F2N3O-
138.0162	3	C7H2F2N-
138.9952	1	C5FN2O2-
139.0303	2	C9H3N2-
141.0459	25	C9H5N2-
142.0298	6	C9H4NO-
143.0138	2	C7HN3O-
146.0235	6	C6H3F3N-
149.0284	2	C8H4FNO-
154.011	29	C7H2F2NO-
155.0188	19	C7H3F2NO-
155.0376	4	C10H5NO-
156.0269	3	C7H4F2NO-
156.0455	14	C10H6NO-
157.041	2	C9H5N2O-
158.0237	2	C7H3F3N-
158.0408	5	C10H5FN-
158.0614	2	C10H8NO-
160.038	57	C7H5F3N-
161.9993	10	C8HFNO2-
162.017	3	C6H3F3NO-
163.0014	2	C6H2F3O2-
165.0104	15	C7H2FN2O2-
166.0111	2	C8H2F2NO-
166.0299	6	C11H4NO-
167.0377	3	C11H5NO-
169.0409	7	C10H5N2O-
170.0248	2	C10H4NO2-
173.0094	14	C7H2F3NO-
173.0483	4	C10H7NO2-
174.0173	8	C7H3F3NO-
174.0365	3	C10H5FNO-
175.025	125	C7H4F3NO-
175.0435	8	C10H6FNO-
176.0091	24	C7H3F3O2-
179.0315	24	C10H5F2O-
180.0266	5	C9H4F2NO-
182.0059	124	C8H2F2NO2-
183.0425	22	C10H6F3-
184.038	4	C9H5F3N-
185.0093	8	C8H2F3NO-
185.022	28	C9H4F3O-
185.0359	3	C10H5N2O2-
186.0173	24	C8H3F3NO-
186.0361	37	C11H5FNO-
187.0439	15	C11H6FNO-
187.9967	5	C7HF3NO2-
188.0325	4	C8H5F3NO-
189.0168	14	C8H4F3O2-
190.0122	196	C7H3F3NO2-
192.0268	2	C10H4F2NO-
194.042	4	C10H6F2NO-
195.014	3	C9H3F2NO2-
198.0539	11	C10H7F3N-
199.0376	290	C10H6F3O-
200.0229	3	C10H4N2O3-
200.0329	17	C9H5F3NO-
200.0455	23	C10H7F3O-
200.069	12	C10H9F3N-
201.005	4	C8H2F3NO2-
202.0122	825	C8H3F3NO2-
203.0472	11	C7H8FN2O4-
204.0275	29	C8H5F3NO2-
205.023	479	C7H4F3N2O2-
206.007	162	C7H3F3NO3-
206.0423	53	C11H6F2NO-
207.0258	3	C6H4F3N3O2-
208.0216	10	C10H4F2NO2-
209.0293	9	C10H5F2NO2-
211.0251	10	C10H4F3NO-
211.0373	5	C11H6F3O-
212.0329	14	C10H5F3NO-
214.012	5	C9H3F3NO2-
214.0488	7	C10H7F3NO-
215.0326	9	C10H6F3O2-
215.0557	5	C10H8F3NO-
222.0372	78	C11H6F2NO2-
225.0408	20	C11H6F3NO-
226.0486	214	C11H7F3NO-
227.0563	115	C11H8F3NO-
228.0278	49	C10H5F3NO2-
229.0482	3	C11H8F3O2-
230.0434	21	C10H7F3NO2-
231.0026	13	C8H2F3N2O3-
232.0095	11	C11H2F2N2O2-
241.0356	3	C11H6F3NO2-
242.0435	116	C11H7F3NO2-
243.0154	2	C10H4F3NO3-
243.0383	4	C10H6F3N2O2-
243.0511	24	C11H8F3NO2-
245.054	4	C10H8F3N2O2-
254.031	11	C11H5F3N2O2-
255.0395	6	C11H6F3N2O2-
257.0312	5	C11H6F3NO3-
258.0253	12	C10H5F3N2O3-
271.0337	15	C11H6F3N2O3-
273.0494	999	C11H8F3N2O3-
301.031	3	C11H6F3N3O4-
