Mass spectrum: 2-Amino-5-azotoluene; LC-ESI-QFT; MS2; CE: 15; R=17500; [M+H]+
Name: 2-Amino-5-azotoluene
Name: o-Aminoazotoluene
Name: 2-methyl-4-[(2-methylphenyl)diazenyl]aniline
Formula: C14H15N3
Exact mass: 225.1266
SMILES: CC1=C(N)C=CC(=C1)N=NC1=C(C)C=CC=C1
InChI: InChI=1S/C14H15N3/c1-10-5-3-4-6-14(10)17-16-12-7-8-13(15)11(2)9-12/h3-9H,15H2,1-2H3
Instrument: Q Exactive Orbitrap (Thermo Scientific)
Instrument type: LC-ESI-QFT
Ms type: MS2
Ion mode: POSITIVE
Ionization: ESI
Fragmentation mode: HCD
Collision energy: 15
Resolution: 17500
Column name: Acquity BEH C18 1.7um, 2.1x150mm (Waters)
Retention time: 18.780 min
Base peak: 79.0212
Precursor m/z: 226.1339
Precursor type: [M+H]+
Precursor intensity: 33568041.28125
m/z	relative intensity	assigned
65.0385	3	C5H5+
67.0542	1	C5H7+
79.0542	1	C6H7+
82.0652	3	C5H8N+
91.0542	33	C7H7+
94.0652	3	C6H8N+
106.0414	4	C5H4N3+
106.0652	59	C7H8N+
107.0492	6	C5H5N3+
107.073	2	C7H9N+
108.0808	2	C7H10N+
109.0649	39	C5H7N3+
119.0605	27	C7H7N2+
120.0808	12	C8H10N+
121.0761	47	C7H9N2+
122.0838	1	C7H10N2+
133.0761	31	C8H9N2+
134.0713	6	C7H8N3+
182.0968	1	C13H12N+
183.1044	1	C13H13N+
197.1199	1	C14H15N+
199.1231	7	C13H15N2+
209.1075	21	C14H13N2+
210.1151	1	C14H14N2+
211.1106	5	C13H13N3+
226.1339	999	C14H16N3+
