Mass spectrum: Florasulam; LC-ESI-QFT; MS2; CE: 75; R=17500; [M-H]-
Name: Florasulam
Name: N-(2,6-difluorophenyl)-8-fluoro-5-methoxy-[1,2,4]triazolo[1,5-c]pyrimidine-2-sulfonamide
Formula: C12H8F3N5O3S
Exact mass: 359.0300
SMILES: COC1=NC=C(F)C2=NC(=NN12)S(=O)(=O)NC1=C(F)C=CC=C1F
InChI: InChI=1S/C12H8F3N5O3S/c1-23-12-16-5-8(15)10-17-11(18-20(10)12)24(21,22)19-9-6(13)3-2-4-7(9)14/h2-5,19H,1H3
Instrument: Q Exactive Orbitrap (Thermo Scientific)
Instrument type: LC-ESI-QFT
Ms type: MS2
Ion mode: NEGATIVE
Ionization: ESI
Fragmentation mode: HCD
Collision energy: 75
Resolution: 17500
Column name: Acquity BEH C18 1.7um, 2.1x150mm (Waters)
Retention time: 13.928 min
Base peak: 358.0229
Precursor m/z: 358.0227
Precursor type: [M-H]-
Precursor intensity: 9590108.398438
m/z	relative intensity	assigned
55.0301	131	C2H3N2-
58.0098	7	C2HFN-
58.9938	26	C2FO-
60.0254	6	C2H3FN-
64.0067	476	C3N2-
65.0146	9	C3HN2-
66.0098	999	C2N3-
77.0146	10	C4HN2-
80.0016	157	C3N2O-
83.0051	316	C3FN2-
85.0207	8	C3H2FN2-
87	9	C2FN2O-
90.0098	477	C4N3-
92.0255	5	C4H2N3-
95.0051	7	C4FN2-
97.0082	19	C3FN3-
97.0207	8	C4H2FN2-
99.0366	3	C4H4FN2-
104.0129	808	C4N4-
104.0253	40	C5H2N3-
107.0124	6	C4HN3O-
109.0083	4	C4FN3-
110.016	85	C4HFN3-
111	9	C4FN2O-
113.0156	9	C4H2FN2O-
119.0362	4	C5H3N4-
120.0203	7	C5H2N3O-
124.019	70	C4HFN4-
132.0077	63	C5N4O-
137.0269	3	C5H2FN4-
140.0267	24	C10H4O-
147.031	2	C6H3N4O-
148.0025	6	C5N4O2-
152.014	475	C5HFN4O-
153.0218	6	C5H2FN4O-
153.0276	4	C4H4F3N2O-
160.0318	4	C8H3FN3-
167.0374	479	C6H4FN4O-
