Mass spectrum: 3-(Trifluoromethyl)benzoic acid; LC-ESI-QFT; MS2; CE: 45; R=17500; [M-H]-
Name: 3-(Trifluoromethyl)benzoic acid
Formula: C8H5F3O2
Exact mass: 190.0242
SMILES: OC(=O)C1=CC(=CC=C1)C(F)(F)F
InChI: InChI=1S/C8H5F3O2/c9-8(10,11)6-3-1-2-5(4-6)7(12)13/h1-4H,(H,12,13)
Instrument: Q Exactive Orbitrap (Thermo Scientific)
Instrument type: LC-ESI-QFT
Ms type: MS2
Ion mode: NEGATIVE
Ionization: ESI
Fragmentation mode: HCD
Collision energy: 45
Resolution: 17500
Column name: Acquity BEH C18 1.7um, 2.1x150mm (Waters)
Retention time: 16.760 min
Base peak: 307.0395
Precursor m/z: 189.0169
Precursor type: [M-H]-
Precursor intensity: 21059926.67383
m/z	relative intensity	assigned
68.9959	2	CF3-
145.027	999	C7H4F3-
161.022	2	C7H4F3O-
189.0169	52	C8H4F3O2-
