Mass spectrum: Pyrithiobac; LC-ESI-QFT; MS2; CE: 45; R=17500; [M+H]+
Name: Pyrithiobac
Name: 2-chloro-6-(4,6-dimethoxypyrimidin-2-yl)sulfanylbenzoic acid
Formula: C13H11ClN2O4S
Exact mass: 326.0128
SMILES: COC1=CC(OC)=NC(SC2=C(C(O)=O)C(Cl)=CC=C2)=N1
InChI: InChI=1S/C13H11ClN2O4S/c1-19-9-6-10(20-2)16-13(15-9)21-8-5-3-4-7(14)11(8)12(17)18/h3-6H,1-2H3,(H,17,18)
Instrument: Q Exactive Orbitrap (Thermo Scientific)
Instrument type: LC-ESI-QFT
Ms type: MS2
Ion mode: POSITIVE
Ionization: ESI
Fragmentation mode: HCD
Collision energy: 45
Resolution: 17500
Column name: Acquity BEH C18 1.7um, 2.1x150mm (Waters)
Retention time: 17.367 min
Base peak: 79.0211
Precursor m/z: 327.0201
Precursor type: [M+H]+
Precursor intensity: 6689543.5625
m/z	relative intensity	assigned
68.9971	7	C3HO2+
69.9922	1	C2NO2+
71.0603	28	C3H7N2+
71.9901	4	C2H2NS+
72.0444	5	C3H6NO+
74.9898	8	C2H3OS+
82.0287	6	C4H4NO+
83.0127	43	C4H3O2+
83.0239	21	C3H3N2O+
85.9695	31	C2NOS+
88.0216	8	C3H6NS+
91.0543	2	C7H7+
98.9842	5	CH4ClO3+
107.024	30	C5H3N2O+
109.0398	3	C5H5N2O+
110.0236	2	C5H4NO2+
115.0541	1	C9H7+
117.0573	1	C8H7N+
122.9994	2	C7H4Cl+
128.0495	13	C9H6N+
129.0574	4	C9H7N+
132.0115	2	C4H6NO2S+
132.0808	8	C9H10N+
137.0154	2	C8H6Cl+
139.0502	511	C6H7N2O2+
141.9959	4	C5H4NO2S+
146.06	8	C9H8NO+
150.0104	1	C8H5ClN+
150.0913	2	C9H12NO+
152.9514	1	C2H2ClN2O2S+
156.056	1	C3H12N2O3S+
157.0529	4	C7H10ClN2+
157.0607	78	C6H9N2O3+
162.0106	7	C9H5ClN+
164.0261	141	C9H7ClN+
166.0056	1	C8H5ClNO+
167.9671	1	C7H3ClNS+
168.021	1	C8H7ClNO+
169.0052	3	C8H6ClO2+
169.9586	28	C7H3ClOS+
170.9665	5	C7H4ClOS+
171.0017	1	C9H3N2S+
173.0291	2	C10H7NS+
175.0056	2	C9H4ClN2+
176.9975	12	C9H4ClNO+
178.0054	66	C9H5ClNO+
179.0008	3	C8H4ClN2O+
179.9846	26	C8H3ClNO2+
180.021	12	C9H7ClNO+
181.9828	6	C8H5ClNS+
184.9823	8	C8H6ClOS+
186.9278	2	C6ClO3S+
187.9897	10	C10H3ClNO+
190.0054	4	C10H5ClNO+
190.0866	1	C11H12NO2+
191.0133	3	C10H6ClNO+
192.0211	5	C10H7ClNO+
193.0164	18	C9H6ClN2O+
193.9701	3	C8H3ClN2S+
195.9619	17	C8H3ClNOS+
195.9984	1	C9H7ClNS+
196.0165	1	C9H7ClNO2+
198.0017	2	C8H7ClN2S+
199.9931	106	C8H7ClNOS+
203.0006	3	C10H4ClN2O+
203.9847	92	C10H3ClNO2+
206.0004	58	C10H5ClNO2+
207.962	2	C9H3ClNOS+
208.0165	1	C10H7ClNO2+
208.9935	143	C9H6ClN2S+
209.9774	1	C9H5ClNOS+
210.0316	9	C10H9ClNO2+
211.0268	9	C9H8ClN2O2+
211.9568	1	C8H3ClNO2S+
215.0276	3	C11H7N2OS+
218.9777	13	C10H4ClN2S+
219.0083	2	C11H7O3S+
219.0324	1	C11H8ClN2O+
219.9619	11	C10H3ClNOS+
220.0156	3	C11H7ClNO2+
220.994	7	C10H6ClN2S+
222.0014	9	C10H7ClN2S+
223.9933	5	C10H7ClNOS+
224.0109	2	C10H7ClNO3+
224.0459	1	C11H11ClNO2+
226.9911	11	C11H3N2O2S+
236.0107	20	C11H7ClNO3+
236.9883	5	C10H6ClN2OS+
246.9727	62	C11H4ClN2OS+
248.9884	17	C11H6ClN2OS+
249.9962	17	C11H7ClN2OS+
250.0108	1	C11H7ClN2O3+
250.0136	1	C11H7ClN2O3+
250.0265	9	C12H9ClNO3+
250.968	3	C10H4ClN2O2S+
251.9879	12	C11H7ClNO2S+
252.9833	11	C10H6ClN2O2S+
259.0173	2	C12H7N2O3S+
260.9514	1	C11H2ClN2O2S+
261.9598	10	C11H3ClN2O2S+
264.9832	3	C11H6ClN2O2S+
265.991	27	C11H7ClN2O2S+
266.9997	2	C11H8ClN2O2S+
267.9829	218	C11H7ClNO3S+
276.9832	36	C12H6ClN2O2S+
277.038	4	C13H10ClN2O3+
278.9992	7	C12H8ClN2O2S+
279.9706	9	C11H5ClN2O3S+
281.0144	26	C12H10ClN2O2S+
292.9781	9	C12H6ClN2O3S+
293.9856	4	C12H7ClN2O3S+
294.9944	1	C12H8ClN2O3S+
309.0095	999	C13H10ClN2O3S+
