Mass spectrum: Sulfasalazine; LC-ESI-QFT; MS2; CE: 45; R=17500; [M-H]-
Name: Sulfasalazine
Name: 2-hydroxy-5-[[4-(pyridin-2-ylsulfamoyl)phenyl]diazenyl]benzoic acid
Formula: C18H14N4O5S
Exact mass: 398.0685
SMILES: C1=CC=NC(=C1)NS(=O)(=O)C2=CC=C(C=C2)N=NC3=CC(=C(C=C3)O)C(=O)O
InChI: InChI=1S/C18H14N4O5S/c23-16-9-6-13(11-15(16)18(24)25)21-20-12-4-7-14(8-5-12)28(26,27)22-17-3-1-2-10-19-17/h1-11,23H,(H,19,22)(H,24,25)
Instrument: Q Exactive Orbitrap (Thermo Scientific)
Instrument type: LC-ESI-QFT
Ms type: MS2
Ion mode: NEGATIVE
Ionization: ESI
Fragmentation mode: HCD
Collision energy: 45
Resolution: 17500
Column name: Acquity BEH C18 1.7um, 2.1x150mm (Waters)
Retention time: 17.061 min
Base peak: 221.1181
Precursor m/z: 397.0612
Precursor type: [M-H]-
Precursor intensity: 4969297.321289
m/z	relative intensity	assigned
65.9984	6	C3NO-
68.0141	2	C3H2NO-
69.0346	1	C4H5O-
82.0058	1	C4H2O2-
91.0187	3	C6H3O-
91.0301	8	C5H3N2-
92.0267	9	C6H4O-
92.0379	11	C5H4N2-
93.022	4	C5H3NO-
93.0344	1	C6H5O-
94.0297	6	C5H4NO-
95.0137	25	C5H3O2-
96.009	3	C4H2NO2-
97.0293	1	C5H5O2-
105.0219	24	C6H3NO-
106.0059	1	C6H2O2-
107.0373	1	C6H5NO-
108.0216	22	C6H4O2-
118.0297	6	C7H4NO-
120.0089	1	C6H2NO2-
120.0455	1	C7H6NO-
121.0167	4	C6H3NO2-
122.0246	218	C6H4NO2-
123.0086	3	C6H3O3-
131.0376	1	C8H5NO-
134.0244	1	C7H4NO2-
143.0503	1	C10H7O-
144.0452	1	C9H6NO-
148.0404	5	C8H6NO2-
149.0117	10	C7H3NO3-
151.0275	3	C7H5NO3-
158.0483	3	C9H6N2O-
167.0501	4	C12H7O-
168.0691	6	C11H8N2-
169.0658	24	C12H9O-
171.0453	1	C11H7O2-
171.0562	3	C10H7N2O-
182.0725	1	C11H8N3-
183.0562	37	C11H7N2O-
183.0797	9	C11H9N3-
196.0642	57	C12H8N2O-
197.072	999	C12H9N2O-
199.0513	16	C11H7N2O2-
200.0589	2	C11H8N2O2-
202.0381	4	C10H6N2O3-
212.0591	122	C12H8N2O2-
220.0769	2	C15H10NO-
222.067	5	C13H8N3O-
240.054	20	C13H8N2O3-
241.0621	9	C13H9N2O3-
243.0411	1	C12H7N2O4-
248.0827	8	C15H10N3O-
256.0491	2	C13H8N2O4-
262.0985	8	C16H12N3O-
289.1097	58	C17H13N4O-
