Mass spectrum: Fluoxastrobin; LC-ESI-QFT; MS2; CE: 15; R=17500; [M+H]+
Name: Fluoxastrobin
Name: (E)-1-[2-[6-(2-chlorophenoxy)-5-fluoropyrimidin-4-yl]oxyphenyl]-1-(5,6-dihydro-1,4,2-dioxazin-3-yl)-N-methoxymethanimine
Formula: C21H16ClFN4O5
Exact mass: 458.0793
SMILES: CO\N=C(\C1=NOCCO1)C1=C(OC2=C(F)C(OC3=C(Cl)C=CC=C3)=NC=N2)C=CC=C1
InChI: InChI=1S/C21H16ClFN4O5/c1-28-26-18(21-27-30-11-10-29-21)13-6-2-4-8-15(13)31-19-17(23)20(25-12-24-19)32-16-9-5-3-7-14(16)22/h2-9,12H,10-11H2,1H3/b26-18+
Instrument: Q Exactive Orbitrap (Thermo Scientific)
Instrument type: LC-ESI-QFT
Ms type: MS2
Ion mode: POSITIVE
Ionization: ESI
Fragmentation mode: HCD
Collision energy: 15
Resolution: 17500
Column name: Acquity BEH C18 1.7um, 2.1x150mm (Waters)
Retention time: 17.699 min
Base peak: 79.0212
Precursor m/z: 459.0866
Precursor type: [M+H]+
Precursor intensity: 14463995.03125
m/z	relative intensity	assigned
120.0445	1	C7H6NO+
231.0198	2	C11H4FN2O3+
315.0333	1	C16H9ClFN2O2+
367.0393	3	C18H9ClFN4O2+
383.0344	9	C18H9ClFN4O3+
397.0499	1	C19H11ClFN4O3+
427.0606	999	C20H13ClFN4O4+
459.0868	794	C21H17ClFN4O5+
