Mass spectrum: Chloramphenicol; LC-ESI-QFT; MS2; CE: 90; R=17500; [M-H]-
Name: Chloramphenicol
Name: 2,2-dichloro-N-[(1R,2R)-1,3-dihydroxy-1-(4-nitrophenyl)propan-2-yl]acetamide
Formula: C11H12Cl2N2O5
Exact mass: 322.0123
SMILES: OC[C@@H](NC(=O)C(Cl)Cl)[C@H](O)C1=CC=C(C=C1)[N+]([O-])=O
InChI: InChI=1S/C11H12Cl2N2O5/c12-10(13)11(18)14-8(5-16)9(17)6-1-3-7(4-2-6)15(19)20/h1-4,8-10,16-17H,5H2,(H,14,18)/t8-,9-/m1/s1
Instrument: Q Exactive Orbitrap (Thermo Scientific)
Instrument type: LC-ESI-QFT
Ms type: MS2
Ion mode: NEGATIVE
Ionization: ESI
Fragmentation mode: HCD
Collision energy: 90
Resolution: 17500
Column name: Acquity BEH C18 1.7um, 2.1x150mm (Waters)
Retention time: 13.753 min
Base peak: 321.005
Precursor m/z: 321.0051
Precursor type: [M-H]-
Precursor intensity: 15522869.60938
m/z	relative intensity	assigned
50.0035	3	C3N-
65.9985	6	C3NO-
78.035	26	C5H4N-
79.0191	3	C5H3O-
82.9461	85	CHCl2-
84.0091	14	C3H2NO2-
91.0189	27	C6H3O-
93.0346	33	C6H5O-
95.0139	17	C5H3O2-
105.022	6	C6H3NO-
105.0346	4	C7H5O-
106.0299	7	C6H4NO-
108.0217	46	C6H4O2-
117.0345	26	C8H5O-
121.0295	999	C7H5O2-
122.0249	23	C6H4NO2-
123.0453	4	C7H7O2-
124.0404	4	C6H6NO2-
131.0376	4	C8H5NO-
132.0215	4	C8H4O2-
145.0296	6	C9H5O2-
147.0451	13	C9H7O2-
151.0275	40	C7H5NO3-
161.0355	4	C8H5N2O2-
162.0197	4	C8H4NO3-
