Mass spectrum: Pyraflufen-ethyl; LC-ESI-QFT; MS2; CE: 15; R=17500; [M+H]+
Name: Pyraflufen-ethyl
Name: ethyl 2-[2-chloro-5-[4-chloro-5-(difluoromethoxy)-1-methylpyrazol-3-yl]-4-fluorophenoxy]acetate
Formula: C15H13Cl2F3N2O4
Exact mass: 412.0204
SMILES: CCOC(=O)COC1=C(Cl)C=C(F)C(=C1)C1=NN(C)C(OC(F)F)=C1Cl
InChI: InChI=1S/C15H13Cl2F3N2O4/c1-3-24-11(23)6-25-10-4-7(9(18)5-8(10)16)13-12(17)14(22(2)21-13)26-15(19)20/h4-5,15H,3,6H2,1-2H3
Instrument: Q Exactive Orbitrap (Thermo Scientific)
Instrument type: LC-ESI-QFT
Ms type: MS2
Ion mode: POSITIVE
Ionization: ESI
Fragmentation mode: HCD
Collision energy: 15
Resolution: 17500
Column name: Acquity BEH C18 1.7um, 2.1x150mm (Waters)
Retention time: 18.455 min
Base peak: 79.0211
Precursor m/z: 413.0277
Precursor type: [M+H]+
Precursor intensity: 6693126.125
m/z	relative intensity	assigned
304.022	1	C12H8ClF3N2O2+
338.9911	119	C12H8Cl2F3N2O2+
357.0016	52	C12H10Cl2F3N2O3+
366.9859	4	C13H8Cl2F3N2O3+
367.0217	1	C14H12Cl2F3N2O2+
371.0177	4	C13H12Cl2F3N2O3+
384.9966	40	C13H10Cl2F3N2O4+
413.0279	999	C15H14Cl2F3N2O4+
