Mass spectrum: Benodanil; LC-ESI-QFT; MS2; CE: 60; R=17500; [M+H]+
Name: Benodanil
Name: 2-iodo-N-phenylbenzamide
Formula: C13H10INO
Exact mass: 322.9807
SMILES: IC1=C(C=CC=C1)C(=O)NC1=CC=CC=C1
InChI: InChI=1S/C13H10INO/c14-12-9-5-4-8-11(12)13(16)15-10-6-2-1-3-7-10/h1-9H,(H,15,16)
Instrument: Q Exactive Orbitrap (Thermo Scientific)
Instrument type: LC-ESI-QFT
Ms type: MS2
Ion mode: POSITIVE
Ionization: ESI
Fragmentation mode: HCD
Collision energy: 60
Resolution: 17500
Column name: Acquity BEH C18 1.7um, 2.1x150mm (Waters)
Retention time: 16.272 min
Base peak: 79.0211
Precursor m/z: 323.988
Precursor type: [M+H]+
Precursor intensity: 7199948.3125
m/z	relative intensity	assigned
50.0152	1	C4H2+
51.023	1	C4H3+
52.0308	9	C4H4+
53.0386	8	C4H5+
54.0464	7	C4H6+
55.0179	5	C3H3O+
63.0229	1	C5H3+
64.0307	8	C5H4+
65.0385	2	C5H5+
66.0464	6	C5H6+
76.0307	43	C6H4+
77.0384	2	C6H5+
78.0464	2	C6H6+
79.0179	3	C5H3O+
80.0257	4	C5H4O+
81.0335	23	C5H5O+
91.0178	1	C6H3O+
92.0257	9	C6H4O+
92.0495	27	C6H6N+
94.0413	862	C6H6O+
95.0491	27	C6H7O+
96.0454	1	C5H6NO+
104.0257	7	C7H4O+
105.0336	113	C7H5O+
108.0569	9	C7H8O+
120.0444	6	C7H6NO+
178.9353	1	C4H4I+
196.0758	3	C13H10NO+
202.9351	8	C6H4I+
219.9376	1	C6H5IO+
220.9459	45	C6H6IO+
230.9301	999	C7H4IO+
231.9371	1	C7H5IO+
323.9878	1	C13H11INO+
