Mass spectrum: Bicalutamide; LC-ESI-QFT; MS2; CE: 75; R=17500; [M-H]-
Name: Bicalutamide
Name: N-[4-cyano-3-(trifluoromethyl)phenyl]-3-(4-fluorophenyl)sulfonyl-2-hydroxy-2-methylpropanamide
Formula: C18H14F4N2O4S
Exact mass: 430.0610
SMILES: CC(O)(CS(=O)(=O)C1=CC=C(F)C=C1)C(=O)NC1=CC(=C(C=C1)C#N)C(F)(F)F
InChI: InChI=1S/C18H14F4N2O4S/c1-17(26,10-29(27,28)14-6-3-12(19)4-7-14)16(25)24-13-5-2-11(9-23)15(8-13)18(20,21)22/h2-8,26H,10H2,1H3,(H,24,25)
Instrument: Q Exactive Orbitrap (Thermo Scientific)
Instrument type: LC-ESI-QFT
Ms type: MS2
Ion mode: NEGATIVE
Ionization: ESI
Fragmentation mode: HCD
Collision energy: 75
Resolution: 17500
Column name: Acquity BEH C18 1.7um, 2.1x150mm (Waters)
Retention time: 16.682 min
Base peak: 429.0536
Precursor m/z: 429.0538
Precursor type: [M-H]-
Precursor intensity: 72343730.16602
m/z	relative intensity	assigned
59.0138	5	C2H3O2-
63.9625	88	O2S-
68.9958	1	CF3-
74.0036	1	C5N-
78.9859	95	CH3O2S-
91.019	1	C6H3O-
95.0303	30	C6H4F-
98.0037	3	C7N-
111.0252	15	C6H4FO-
115.0301	8	C7H3N2-
118.0096	2	C7HFN-
125.0145	8	C8HN2-
130.0174	4	C7H2N2O-
136.0204	1	C7H3FNO-
138.016	5	C7H2F2N-
145.0208	15	C8H2FN2-
157.9843	3	C6H3FO2S-
158.0223	24	C7H3F3N-
158.9922	4	C6H4FO2S-
165.027	9	C8H3F2N2-
173.0075	3	C7H6FO2S-
183.0177	4	C8H2F3N2-
184.0256	3	C8H3F3N2-
184.0381	38	C9H5F3N-
185.0332	999	C8H4F3N2-
186.017	1	C5H8F2O3S-
227.044	1	C10H6F3N2O-
