Mass spectrum: (-)-Epigallocatechin gallate; LC-ESI-QFT; MS2; CE: 90; R=17500; [M-H]-
Name: (-)-Epigallocatechin gallate
Name: [(2R,3R)-5,7-dihydroxy-2-(3,4,5-trihydroxyphenyl)-3,4-dihydro-2H-chromen-3-yl] 3,4,5-trihydroxybenzoate
Formula: C22H18O11
Exact mass: 458.0849
SMILES: OC1=CC(O)=C2C[C@@H](OC(=O)C3=CC(O)=C(O)C(O)=C3)[C@H](OC2=C1)C1=CC(O)=C(O)C(O)=C1
InChI: InChI=1S/C22H18O11/c23-10-5-12(24)11-7-18(33-22(31)9-3-15(27)20(30)16(28)4-9)21(32-17(11)6-10)8-1-13(25)19(29)14(26)2-8/h1-6,18,21,23-30H,7H2/t18-,21-/m1/s1
Instrument: Q Exactive Orbitrap (Thermo Scientific)
Instrument type: LC-ESI-QFT
Ms type: MS2
Ion mode: NEGATIVE
Ionization: ESI
Fragmentation mode: HCD
Collision energy: 90
Resolution: 17500
Column name: Acquity BEH C18 1.7um, 2.1x150mm (Waters)
Retention time: 11.181 min
Base peak: 266.1186
Precursor m/z: 457.0776
Precursor type: [M-H]-
Precursor intensity: 854193.0844727
m/z	relative intensity	assigned
57.0346	338	C3H5O-
67.019	69	C4H3O-
69.0346	400	C4H5O-
79.0189	60	C5H3O-
81.0346	59	C5H5O-
83.014	70	C4H3O2-
93.0346	37	C6H5O-
95.0139	79	C5H3O2-
95.0503	107	C6H7O-
97.0296	235	C5H5O2-
107.0138	117	C6H3O2-
109.0295	115	C6H5O2-
123.0088	34	C6H3O3-
124.0166	158	C6H4O3-
125.0244	999	C6H5O3-
133.0295	25	C8H5O2-
137.0246	56	C7H5O3-
