Mass spectrum: Bicalutamide; LC-ESI-QFT; MS2; CE: 30; R=17500; [M-H]-
Name: Bicalutamide
Name: N-[4-cyano-3-(trifluoromethyl)phenyl]-3-(4-fluorophenyl)sulfonyl-2-hydroxy-2-methylpropanamide
Formula: C18H14F4N2O4S
Exact mass: 430.0610
SMILES: CC(O)(CS(=O)(=O)C1=CC=C(F)C=C1)C(=O)NC1=CC(=C(C=C1)C#N)C(F)(F)F
InChI: InChI=1S/C18H14F4N2O4S/c1-17(26,10-29(27,28)14-6-3-12(19)4-7-14)16(25)24-13-5-2-11(9-23)15(8-13)18(20,21)22/h2-8,26H,10H2,1H3,(H,24,25)
Instrument: Q Exactive Orbitrap (Thermo Scientific)
Instrument type: LC-ESI-QFT
Ms type: MS2
Ion mode: NEGATIVE
Ionization: ESI
Fragmentation mode: HCD
Collision energy: 30
Resolution: 17500
Column name: Acquity BEH C18 1.7um, 2.1x150mm (Waters)
Retention time: 16.682 min
Base peak: 429.0536
Precursor m/z: 429.0538
Precursor type: [M-H]-
Precursor intensity: 69047688.05469
m/z	relative intensity	assigned
59.0138	2	C2H3O2-
63.9624	8	O2S-
78.9858	3	CH3O2S-
95.0303	1	C6H4F-
111.0252	1	C6H4FO-
158.9922	35	C6H4FO2S-
173.0078	91	C7H6FO2S-
184.038	191	C9H5F3N-
185.0332	231	C8H4F3N2-
212.0329	1	C10H5F3NO-
227.0438	9	C10H6F3N2O-
243.0131	18	C10H8FO4S-
251.0442	3	C6H12F3NO4S-
255.0387	999	C11H6F3N2O2-
411.043	9	C18H11F4N2O3S-
