Mass spectrum: CI-959; LC-ESI-QFT; MS2; CE: 75; R=17500; [M+H]+
Name: CI-959
Name: CI-959 free acid
Name: 5-methoxy-3-propan-2-yloxy-N-(2H-tetrazol-5-yl)-1-benzothiophene-2-carboxamide
Formula: C14H15N5O3S
Exact mass: 333.0896
SMILES: COC1=CC2=C(SC(C(=O)NC3=NN=NN3)=C2OC(C)C)C=C1
InChI: InChI=1S/C14H15N5O3S/c1-7(2)22-11-9-6-8(21-3)4-5-10(9)23-12(11)13(20)15-14-16-18-19-17-14/h4-7H,1-3H3,(H2,15,16,17,18,19,20)
Instrument: Q Exactive Orbitrap (Thermo Scientific)
Instrument type: LC-ESI-QFT
Ms type: MS2
Ion mode: POSITIVE
Ionization: ESI
Fragmentation mode: HCD
Collision energy: 75
Resolution: 17500
Column name: Acquity BEH C18 1.7um, 2.1x150mm (Waters)
Retention time: 17.398 min
Base peak: 79.0211
Precursor m/z: 334.0968
Precursor type: [M+H]+
Precursor intensity: 7260306.0625
m/z	relative intensity	assigned
53.0387	10	C4H5+
58.04	38	CH4N3+
65.0386	4	C5H5+
67.0542	10	C5H7+
68.9794	4	C3HS+
69.0083	37	C2HN2O+
70.995	3	C3H3S+
78.0467	2	C6H6+
79.0542	23	C6H7+
86.0461	446	CH4N5+
91.0542	8	C7H7+
92.0257	4	C6H4O+
94.0415	2	C6H6O+
95.0492	84	C6H7O+
96.0029	7	C5H4S+
97.0109	3	C5H5S+
105.0447	8	C6H5N2+
107.0492	18	C7H7O+
108.0028	35	C6H4S+
109.0109	6	C6H5S+
109.0648	11	C7H9O+
111.0264	10	C6H7S+
111.9977	8	C5H4OS+
112.0254	84	C2H2N5O+
117.0216	4	C7H3NO+
119.0492	20	C8H7O+
121.0107	7	C7H5S+
123.0263	5	C7H7S+
123.9978	37	C6H4OS+
125.0596	31	C7H9O2+
135.0441	196	C8H7O2+
135.0554	10	C7H7N2O+
135.9978	176	C7H4OS+
137.0055	3	C7H5OS+
138.0133	9	C7H6OS+
139.0213	999	C7H7OS+
145.0649	7	C10H9O+
147.9983	4	C8H4OS+
150.0136	4	C8H6OS+
151.0213	641	C8H7OS+
153.0367	9	C8H9OS+
159.0806	7	C11H11O+
160.0883	4	C11H12O+
163.0211	20	C9H7OS+
163.9928	39	C8H4O2S+
166.0086	19	C8H6O2S+
177.0368	4	C10H9OS+
178.0447	25	C10H10OS+
179.0162	196	C9H7O2S+
181.0318	5	C9H9O2S+
191.9875	12	C9H4O3S+
207.0111	110	C10H7O3S+
209.9983	24	C10H2N4S+
