Mass spectrum: Clomipramine; LC-ESI-QFT; MS2; CE: 75; R=17500; [M+H]+
Name: Clomipramine
Name: 3-(2-chloro-5,6-dihydrobenzo[b][1]benzazepin-11-yl)-N,N-dimethylpropan-1-amine
Formula: C19H23ClN2
Exact mass: 314.1550
SMILES: CN(C)CCCN1C2=CC(Cl)=CC=C2CCC2=C1C=CC=C2
InChI: InChI=1S/C19H23ClN2/c1-21(2)12-5-13-22-18-7-4-3-6-15(18)8-9-16-10-11-17(20)14-19(16)22/h3-4,6-7,10-11,14H,5,8-9,12-13H2,1-2H3
Instrument: Q Exactive Orbitrap (Thermo Scientific)
Instrument type: LC-ESI-QFT
Ms type: MS2
Ion mode: POSITIVE
Ionization: ESI
Fragmentation mode: HCD
Collision energy: 75
Resolution: 17500
Column name: Acquity BEH C18 1.7um, 2.1x150mm (Waters)
Retention time: 16.241 min
Base peak: 79.0211
Precursor m/z: 315.1623
Precursor type: [M+H]+
Precursor intensity: 28638939.15625
m/z	relative intensity	assigned
56.0495	8	C3H6N+
57.0573	1	C3H7N+
58.0651	999	C3H8N+
71.0729	15	C4H9N+
84.0809	1	C5H10N+
86.0964	367	C5H12N+
91.0543	1	C7H7+
105.0699	1	C8H9+
125.0153	1	C7H6Cl+
130.0653	1	C9H8N+
158.0965	1	C11H12N+
165.0699	1	C13H9+
192.0809	11	C14H10N+
206.0965	9	C15H12N+
207.1044	16	C15H13N+
212.0389	1	C14H9Cl+
214.0421	1	C13H9ClN+
220.1121	17	C16H14N+
226.0418	2	C14H9ClN+
227.0497	108	C14H10ClN+
234.1277	5	C17H16N+
235.1358	1	C17H17N+
240.0573	1	C15H11ClN+
242.0732	25	C15H13ClN+
254.0735	2	C16H13ClN+
