Mass spectrum: 6-Nitrobenzimidazole; LC-ESI-QFT; MS2; CE: 75; R=17500; [M-H]-
Name: 6-Nitrobenzimidazole
Name: 5-Nitrobenzimidazole
Formula: C7H5N3O2
Exact mass: 163.0382
SMILES: [O-][N+](=O)C1=CC2=C(NC=N2)C=C1
InChI: InChI=1S/C7H5N3O2/c11-10(12)5-1-2-6-7(3-5)9-4-8-6/h1-4H,(H,8,9)
Instrument: Q Exactive Orbitrap (Thermo Scientific)
Instrument type: LC-ESI-QFT
Ms type: MS2
Ion mode: NEGATIVE
Ionization: ESI
Fragmentation mode: HCD
Collision energy: 75
Resolution: 17500
Column name: Acquity BEH C18 1.7um, 2.1x150mm (Waters)
Retention time: 10.075 min
Base peak: 162.0308
Precursor m/z: 162.0309
Precursor type: [M-H]-
Precursor intensity: 23934097.46045
m/z	relative intensity	assigned
64.0193	1	C4H2N-
65.0146	1	C3HN2-
65.9985	2	C3NO-
67.0302	3	C3H3N2-
68.0142	2	C3H2NO-
88.0193	1	C6H2N-
91.0302	93	C5H3N2-
92.038	45	C5H4N2-
93.022	4	C5H3NO-
95.0251	15	C4H3N2O-
104.0381	107	C6H4N2-
105.0221	4	C6H3NO-
107.0252	2	C5H3N2O-
108.033	50	C5H4N2O-
115.0302	157	C7H3N2-
116.038	81	C7H4N2-
118.0411	1	C6H4N3-
119.0251	90	C6H3N2O-
132.0329	999	C7H4N2O-
147.0201	6	C7H3N2O2-
162.031	248	C7H4N3O2-
