Mass spectrum: 2,4-Dichloro-3,5-dimethylphenol; LC-ESI-QFT; MS2; CE: 75; R=17500; [M-H]-
Name: 2,4-Dichloro-3,5-dimethylphenol
Formula: C8H8Cl2O
Exact mass: 189.9952
SMILES: CC1=CC(O)=C(Cl)C(C)=C1Cl
InChI: InChI=1S/C8H8Cl2O/c1-4-3-6(11)8(10)5(2)7(4)9/h3,11H,1-2H3
Instrument: Q Exactive Orbitrap (Thermo Scientific)
Instrument type: LC-ESI-QFT
Ms type: MS2
Ion mode: NEGATIVE
Ionization: ESI
Fragmentation mode: HCD
Collision energy: 75
Resolution: 17500
Column name: Acquity BEH C18 1.7um, 2.1x150mm (Waters)
Retention time: 18.769 min
Base peak: 112.9856
Precursor m/z: 188.9879
Precursor type: [M-H]-
Precursor intensity: 993139.7285156
m/z	relative intensity	assigned
153.0113	999	C8H6ClO-
188.9877	361	C8H7Cl2O-
