Mass spectrum: 2,4-Dinitrophenol; LC-ESI-QFT; MS2; CE: 60; R=17500; [M-H]-
Name: 2,4-Dinitrophenol
Formula: C6H4N2O5
Exact mass: 184.0120
SMILES: OC1=C(C=C(C=C1)[N+]([O-])=O)[N+]([O-])=O
InChI: InChI=1S/C6H4N2O5/c9-6-2-1-4(7(10)11)3-5(6)8(12)13/h1-3,9H
Instrument: Q Exactive Orbitrap (Thermo Scientific)
Instrument type: LC-ESI-QFT
Ms type: MS2
Ion mode: NEGATIVE
Ionization: ESI
Fragmentation mode: HCD
Collision energy: 60
Resolution: 17500
Column name: Acquity BEH C18 1.7um, 2.1x150mm (Waters)
Retention time: 14.528 min
Base peak: 183.0047
Precursor m/z: 183.0047
Precursor type: [M-H]-
Precursor intensity: 37745303.24023
m/z	relative intensity	assigned
50.0035	1	C3N-
51.0238	1	C4H3-
52.0193	1	C3H2N-
53.0032	6	C3HO-
55.0189	9	C3H3O-
63.0241	1	C5H3-
64.0193	23	C4H2N-
65.0032	16	C4HO-
65.9985	12	C3NO-
66.0111	25	C4H2O-
67.0189	135	C4H3O-
68.0142	22	C3H2NO-
68.9982	56	C3HO2-
72.9932	4	C2HO3-
78.0108	1	C5H2O-
79.0189	38	C5H3O-
80.0143	1	C4H2NO-
80.9983	1	C4HO2-
81.0222	1	C4H3NO-
82.006	2	C4H2O2-
83.0013	2	C3HNO2-
83.0138	4	C4H3O2-
91.0191	2	C6H3O-
92.0141	6	C5H2NO-
92.9982	12	C5HO2-
94.006	1	C5H2O2-
95.0138	694	C5H3O2-
96.0091	2	C4H2NO2-
106.0059	2	C6H2O2-
107.014	6	C6H3O2-
108.0091	12	C5H2NO2-
109.0169	82	C5H3NO2-
120.0091	34	C6H2NO2-
123.0088	999	C6H3O3-
124.004	3	C5H2NO3-
125.0118	185	C5H3NO3-
136.0041	2	C6H2NO3-
137.0118	70	C6H3NO3-
139.9991	2	C5H2NO4-
153.0067	450	C6H3NO4-
183.0046	422	C6H3N2O5-
