Mass spectrum: Dinotefuran; LC-ESI-QFT; MS2; CE: 60; R=17500; [M-H]-
Name: Dinotefuran
Name: Scorpion
Name: 2-methyl-1-nitro-3-(oxolan-3-ylmethyl)guanidine
Formula: C7H14N4O3
Exact mass: 202.1066
SMILES: CNC(NCC1CCOC1)=N[N+]([O-])=O
InChI: InChI=1S/C7H14N4O3/c1-8-7(10-11(12)13)9-4-6-2-3-14-5-6/h6H,2-5H2,1H3,(H2,8,9,10)
Instrument: Q Exactive Orbitrap (Thermo Scientific)
Instrument type: LC-ESI-QFT
Ms type: MS2
Ion mode: NEGATIVE
Ionization: ESI
Fragmentation mode: HCD
Collision energy: 60
Resolution: 17500
Column name: Acquity BEH C18 1.7um, 2.1x150mm (Waters)
Retention time: 9.295 min
Base peak: 201.0993
Precursor m/z: 201.0993
Precursor type: [M-H]-
Precursor intensity: 10767051.4187
m/z	relative intensity	assigned
52.0192	3	C3H2N-
55.0301	73	C2H3N2-
61.0043	999	HN2O2-
66.0349	31	C4H4N-
67.0302	6	C3H3N2-
68.0506	61	C4H6N-
69.0096	2	C2HN2O-
73.0408	15	C2H5N2O-
80.0506	10	C5H6N-
81.0459	3	C4H5N2-
82.0298	8	C4H4NO-
82.0663	2	C5H8N-
92.0507	2	C6H6N-
98.061	2	C5H8NO-
109.0771	4	C6H9N2-
117.0418	2	C2H5N4O2-
125.0721	4	C6H9N2O-
