Mass spectrum: tert-Butyl 4-hydroxybenzoate; LC-ESI-QFT; MS2; CE: 60; R=17500; [M-H]-
Name: tert-Butyl 4-hydroxybenzoate
Formula: C11H14O3
Exact mass: 194.0943
SMILES: CC(C)(C)OC(=O)C1=CC=C(O)C=C1
InChI: InChI=1S/C11H14O3/c1-11(2,3)14-10(13)8-4-6-9(12)7-5-8/h4-7,12H,1-3H3
Instrument: Q Exactive Orbitrap (Thermo Scientific)
Instrument type: LC-ESI-QFT
Ms type: MS2
Ion mode: NEGATIVE
Ionization: ESI
Fragmentation mode: HCD
Collision energy: 60
Resolution: 17500
Column name: Acquity BEH C18 1.7um, 2.1x150mm (Waters)
Retention time: 17.101 min
Base peak: 329.0853
Precursor m/z: 193.087
Precursor type: [M-H]-
Precursor intensity: 35882409.42969
m/z	relative intensity	assigned
57.0345	6	C3H5O-
65.0396	2	C5H5-
68.9982	1	C3HO2-
69.0346	1	C4H5O-
72.9931	1	C2HO3-
73.0658	3	C4H9O-
82.006	4	C4H2O2-
92.0268	14	C6H4O-
93.0346	999	C6H5O-
95.0138	59	C5H3O2-
106.006	2	C6H2O2-
108.0216	57	C6H4O2-
123.0087	7	C6H3O3-
136.0165	43	C7H4O3-
137.0244	223	C7H5O3-
177.0556	5	C10H9O3-
178.0633	1	C10H10O3-
193.0869	33	C11H13O3-
