Mass spectrum: CI-959; LC-ESI-QFT; MS2; CE: 45; R=17500; [M-H]-
Name: CI-959
Name: CI-959 free acid
Name: 5-methoxy-3-propan-2-yloxy-N-(2H-tetrazol-5-yl)-1-benzothiophene-2-carboxamide
Formula: C14H15N5O3S
Exact mass: 333.0896
SMILES: COC1=CC2=C(SC(C(=O)NC3=NN=NN3)=C2OC(C)C)C=C1
InChI: InChI=1S/C14H15N5O3S/c1-7(2)22-11-9-6-8(21-3)4-5-10(9)23-12(11)13(20)15-14-16-18-19-17-14/h4-7H,1-3H3,(H2,15,16,17,18,19,20)
Instrument: Q Exactive Orbitrap (Thermo Scientific)
Instrument type: LC-ESI-QFT
Ms type: MS2
Ion mode: NEGATIVE
Ionization: ESI
Fragmentation mode: HCD
Collision energy: 45
Resolution: 17500
Column name: Acquity BEH C18 1.7um, 2.1x150mm (Waters)
Retention time: 17.310 min
Base peak: 329.1061
Precursor m/z: 332.0823
Precursor type: [M-H]-
Precursor intensity: 36013426.33594
m/z	relative intensity	assigned
53.9985	8	C2NO-
56.9804	1	C2HS-
77.0394	2	C6H5-
82.0047	12	C2N3O-
82.9961	21	C4H3S-
84.0316	2	CH2N5-
95.014	2	C5H3O2-
110.0108	256	C2N5O-
110.9911	12	C5H3OS-
112.9976	5	C3HN2O3-
114.0011	4	C2H2N4S-
121.0295	999	C7H5O2-
122.0328	608	H4N5O3-
122.9909	12	C6H3OS-
124.0371	5	C7H8S-
134.9911	1	C7H3OS-
138.0145	8	C7H6OS-
138.9858	6	C6H3O2S-
147.9989	2	C8H4OS-
148.9939	13	C7H3NOS-
150.9863	1	C7H3O2S-
154.9808	22	C6H3O3S-
156.9876	29	C8HN2S-
157.9909	16	C3H2N4O2S-
161.0357	5	C8H5N2O2-
162.0389	5	C9H8NS-
162.9857	16	C8H3O2S-
163.9938	87	C8H4O2S-
164.0174	19	C8H6NOS-
172.9944	1	C9H3NOS-
178.0095	15	C9H6O2S-
179.0172	605	C9H7O2S-
188.0052	6	C9H4N2OS-
188.989	50	C9H3NO2S-
194.0042	19	C9H6O3S-
196.9933	4	C9HN4S-
202.9923	1	C9H3N2O2S-
203.0281	4	C10H7N2OS-
204.0124	136	C10H6NO2S-
206.0407	17	C11H10O2S-
221.0643	18	C12H13O2S-
228.9948	11	C10H3N3O2S-
230.9871	8	C10H3N2O3S-
231.9947	107	C10H4N2O3S-
244.0177	3	C11H6N3O2S-
246.0105	601	C11H6N2O3S-
247.0182	477	C11H7N2O3S-
274.0424	22	C13H10N2O3S-
275.0373	6	C12H9N3O3S-
276.0438	3	C12H10N3O3S-
289.0653	136	C14H13N2O3S-
