Mass spectrum: Forskolin; LC-ESI-QFT; MS2; CE: 45; R=17500; [M-H]-
Name: Forskolin
Name: [(3R,4aR,5S,6S,6aS,10S,10aR,10bS)-3-ethenyl-6,10,10b-trihydroxy-3,4a,7,7,10a-pentamethyl-1-oxo-5,6,6a,8,9,10-hexahydro-2H-benzo[f]chromen-5-yl] acetate
Formula: C22H34O7
Exact mass: 410.2305
SMILES: CC(=O)O[C@H]1[C@@H](O)[C@H]2C(C)(C)CC[C@H](O)[C@]2(C)[C@@]2(O)C(=O)C[C@@](C)(O[C@]12C)C=C
InChI: InChI=1S/C22H34O7/c1-8-19(5)11-14(25)22(27)20(6)13(24)9-10-18(3,4)16(20)15(26)17(28-12(2)23)21(22,7)29-19/h8,13,15-17,24,26-27H,1,9-11H2,2-7H3/t13-,15-,16-,17-,19-,20-,21+,22-/m0/s1
Instrument: Q Exactive Orbitrap (Thermo Scientific)
Instrument type: LC-ESI-QFT
Ms type: MS2
Ion mode: NEGATIVE
Ionization: ESI
Fragmentation mode: HCD
Collision energy: 45
Resolution: 17500
Column name: Acquity BEH C18 1.7um, 2.1x150mm (Waters)
Retention time: 17.494 min
Base peak: 307.0977
Precursor m/z: 409.2232
Precursor type: [M-H]-
Precursor intensity: 7337383.125
m/z	relative intensity	assigned
57.0346	15	C3H5O-
59.0138	999	C2H3O2-
71.0138	5	C3H3O2-
71.0501	2	C4H7O-
73.0295	9	C3H5O2-
80.0268	2	C5H4O-
83.0501	5	C5H7O-
85.0295	3	C4H5O2-
95.0502	13	C6H7O-
97.0659	23	C6H9O-
107.0502	5	C7H7O-
109.0295	2	C6H5O2-
109.0658	2	C7H9O-
111.045	2	C6H7O2-
111.0815	2	C7H11O-
121.066	4	C8H9O-
122.0373	6	C7H6O2-
123.0452	14	C7H7O2-
123.0814	5	C8H11O-
125.0607	2	C7H9O2-
137.097	6	C9H13O-
139.0763	8	C8H11O2-
149.0969	3	C10H13O-
151.0765	2	C9H11O2-
151.1129	10	C10H15O-
153.0919	2	C9H13O2-
163.1131	8	C11H15O-
165.0921	2	C10H13O2-
167.1075	2	C10H15O2-
173.0971	4	C12H13O-
179.1076	8	C11H15O2-
189.0922	3	C12H13O2-
189.1286	2	C13H17O-
191.0707	2	C11H11O3-
191.144	6	C13H19O-
192.0793	1	C11H12O3-
205.1234	3	C13H17O2-
207.1391	2	C13H19O2-
213.1133	2	C11H17O4-
215.1442	6	C15H19O-
217.1599	2	C15H21O-
232.1103	6	C14H16O3-
257.1544	7	C17H21O2-
313.1818	3	C20H25O3-
367.2121	11	C20H31O6-
