Mass spectrum: Cladribine; LC-ESI-QFT; MS2; CE: 75; R=17500; [M+H]+
Name: Cladribine
Formula: C10H12ClN5O3
Exact mass: 285.0629
SMILES: NC1=NC(Cl)=NC2=C1N=CN2[C@H]1C[C@H](O)[C@@H](CO)O1
InChI: InChI=1S/C10H12ClN5O3/c11-10-14-8(12)7-9(15-10)16(3-13-7)6-1-4(18)5(2-17)19-6/h3-6,17-18H,1-2H2,(H2,12,14,15)/t4-,5+,6+/m0/s1
Instrument: Q Exactive Orbitrap (Thermo Scientific)
Instrument type: LC-ESI-QFT
Ms type: MS2
Ion mode: POSITIVE
Ionization: ESI
Fragmentation mode: HCD
Collision energy: 75
Resolution: 17500
Column name: Acquity BEH C18 1.7um, 2.1x150mm (Waters)
Retention time: 10.837 min
Base peak: 79.0212
Precursor m/z: 286.0701
Precursor type: [M+H]+
Precursor intensity: 2642038.75
m/z	relative intensity	assigned
53.0022	16	C3HO+
53.0386	18	C4H5+
57.0336	23	C3H5O+
69.0335	81	C4H5O+
70.04	5	C2H4N3+
71.0492	60	C4H7O+
73.0284	112	C3H5O2+
80.0244	18	C3H2N3+
81.0335	32	C5H5O+
92.0244	17	C4H2N3+
99.0442	30	C5H7O2+
105.0336	4	C7H5O+
107.0353	122	C4H3N4+
117.0545	6	C5H9O3+
134.0462	999	C5H4N5+
135.0302	57	C5H3N4O+
152.0568	207	C5H6N5O+
160.9733	4	C2ClN5O2+
170.0229	516	C5H5ClN5+
171.0068	3	C5H4ClN4O+
