Mass spectrum: Nuarimol; LC-ESI-QFT; MS2; CE: 75; R=17500; [M-H]-
Name: Nuarimol
Name: (2-chlorophenyl)-(4-fluorophenyl)-pyrimidin-5-ylmethanol
Formula: C17H12ClFN2O
Exact mass: 314.0622
SMILES: OC(C1=CC=C(F)C=C1)(C1=CN=CN=C1)C1=CC=CC=C1Cl
InChI: InChI=1S/C17H12ClFN2O/c18-16-4-2-1-3-15(16)17(22,13-9-20-11-21-10-13)12-5-7-14(19)8-6-12/h1-11,22H
Instrument: Q Exactive Orbitrap (Thermo Scientific)
Instrument type: LC-ESI-QFT
Ms type: MS2
Ion mode: NEGATIVE
Ionization: ESI
Fragmentation mode: HCD
Collision energy: 75
Resolution: 17500
Column name: Acquity BEH C18 1.7um, 2.1x150mm (Waters)
Retention time: 17.326 min
Base peak: 112.9856
Precursor m/z: 313.0549
Precursor type: [M-H]-
Precursor intensity: 1628181.341309
m/z	relative intensity	assigned
57.0346	243	C3H5O-
59.0502	33	C3H7O-
93.0345	25	C6H5O-
101.0396	47	C8H5-
113.0396	20	C9H5-
115.0555	19	C9H7-
117.0346	34	C8H5O-
121.0295	8	C4H8ClNO-
137.0396	26	C11H5-
139.0555	83	C11H7-
141.0711	69	C11H9-
153.0346	14	C11H5O-
156.0582	62	C11H8O-
165.0346	544	C12H5O-
167.0502	19	C12H7O-
169.0659	999	C12H9O-
171.0453	71	C8H10ClNO-
183.0453	87	C9H10ClNO-
184.053	18	C9H11ClNO-
199.0405	11	C15H5N-
