Mass spectrum: Methfuroxam; LC-ESI-QFT; MS2; CE: 45; R=17500; [M+H]+
Name: Methfuroxam
Name: 2,4,5-trimethyl-N-phenylfuran-3-carboxamide
Formula: C14H15NO2
Exact mass: 229.1103
SMILES: CC1=C(C)C(C(=O)NC2=CC=CC=C2)=C(C)O1
InChI: InChI=1S/C14H15NO2/c1-9-10(2)17-11(3)13(9)14(16)15-12-7-5-4-6-8-12/h4-8H,1-3H3,(H,15,16)
Instrument: Q Exactive Orbitrap (Thermo Scientific)
Instrument type: LC-ESI-QFT
Ms type: MS2
Ion mode: POSITIVE
Ionization: ESI
Fragmentation mode: HCD
Collision energy: 45
Resolution: 17500
Column name: Acquity BEH C18 1.7um, 2.1x150mm (Waters)
Retention time: 16.865 min
Base peak: 79.0211
Precursor m/z: 230.1176
Precursor type: [M+H]+
Precursor intensity: 10750904.875
m/z	relative intensity	assigned
53.0386	2	C4H5+
55.0178	2	C3H3O+
55.0542	7	C4H7+
67.0542	10	C5H7+
69.0335	2	C4H5O+
79.0542	1	C6H7+
81.0699	4	C6H9+
83.0492	1	C5H7O+
83.0854	7	C6H11+
91.0542	3	C7H7+
92.0495	32	C6H6N+
93.0699	28	C7H9+
94.0652	1	C6H8N+
95.0491	27	C6H7O+
109.0648	15	C7H9O+
111.0804	317	C7H11O+
120.0444	68	C7H6NO+
137.0597	999	C8H9O2+
138.0547	1	C7H8NO2+
174.0541	1	C10H8NO2+
212.1068	1	C14H14NO+
230.1175	23	C14H16NO2+
