Mass spectrum: Clomipramine; LC-ESI-QFT; MS2; CE: 60; R=17500; [M+H]+
Name: Clomipramine
Name: 3-(2-chloro-5,6-dihydrobenzo[b][1]benzazepin-11-yl)-N,N-dimethylpropan-1-amine
Formula: C19H23ClN2
Exact mass: 314.1550
SMILES: CN(C)CCCN1C2=CC(Cl)=CC=C2CCC2=C1C=CC=C2
InChI: InChI=1S/C19H23ClN2/c1-21(2)12-5-13-22-18-7-4-3-6-15(18)8-9-16-10-11-17(20)14-19(16)22/h3-4,6-7,10-11,14H,5,8-9,12-13H2,1-2H3
Instrument: Q Exactive Orbitrap (Thermo Scientific)
Instrument type: LC-ESI-QFT
Ms type: MS2
Ion mode: POSITIVE
Ionization: ESI
Fragmentation mode: HCD
Collision energy: 60
Resolution: 17500
Column name: Acquity BEH C18 1.7um, 2.1x150mm (Waters)
Retention time: 16.241 min
Base peak: 79.0211
Precursor m/z: 315.1623
Precursor type: [M+H]+
Precursor intensity: 33154042.84375
m/z	relative intensity	assigned
56.0495	6	C3H6N+
58.0651	999	C3H8N+
71.0729	9	C4H9N+
84.0807	1	C5H10N+
86.0964	758	C5H12N+
91.0543	1	C7H7+
158.0964	1	C11H12N+
192.0809	1	C14H10N+
206.0964	3	C15H12N+
207.1043	12	C15H13N+
214.0416	1	C13H9ClN+
220.1121	19	C16H14N+
227.0496	73	C14H10ClN+
234.1276	4	C17H16N+
235.1355	10	C17H17N+
242.073	66	C15H13ClN+
254.073	1	C16H13ClN+
270.1042	2	C17H17ClN+
