Mass spectrum: Lauryldiethanolamine; LC-ESI-QFT; MS2; CE: 45; R=17500; [M+H]+
Name: Lauryldiethanolamine
Name: 2-[dodecyl(2-hydroxyethyl)amino]ethanol
Formula: C16H35NO2
Exact mass: 273.2668
SMILES: CCCCCCCCCCCCN(CCO)CCO
InChI: InChI=1S/C16H35NO2/c1-2-3-4-5-6-7-8-9-10-11-12-17(13-15-18)14-16-19/h18-19H,2-16H2,1H3
Instrument: Q Exactive Orbitrap (Thermo Scientific)
Instrument type: LC-ESI-QFT
Ms type: MS2
Ion mode: POSITIVE
Ionization: ESI
Fragmentation mode: HCD
Collision energy: 45
Resolution: 17500
Column name: Acquity BEH C18 1.7um, 2.1x150mm (Waters)
Retention time: 17.298 min
Base peak: 79.0211
Precursor m/z: 274.2741
Precursor type: [M+H]+
Precursor intensity: 45921883
m/z	relative intensity	assigned
53.0023	6	C3HO+
53.9975	1	C2NO+
55.0543	4	C4H7+
56.0494	1	C3H6N+
57.0699	245	C4H9+
58.0651	12	C3H8N+
60.0444	2	C2H6NO+
62.06	18	C2H8NO+
67.9892	1	C3O2+
68.0494	3	C4H6N+
69.0698	4	C5H9+
70.0651	319	C4H8N+
71.0855	133	C5H11+
72.0807	2	C4H10N+
74.0602	2	C3H8NO+
83.0855	1	C6H11+
84.0807	1	C5H10N+
85.1012	51	C6H13+
86.06	7	C4H8NO+
88.0757	647	C4H10NO+
102.0914	186	C5H12NO+
104.0706	2	C4H10NO2+
106.0863	383	C4H12NO2+
212.2374	17	C14H30N+
230.2479	39	C14H32NO+
256.2635	249	C16H34NO+
274.274	999	C16H36NO2+
