Mass spectrum: 1-Phenyl-2-thiourea; LC-ESI-QFT; MS2; CE: 75; R=17500; [M+H]+
Name: 1-Phenyl-2-thiourea
Name: N'-phenylcarbamimidothioic acid
Formula: C7H8N2S
Exact mass: 152.0408
SMILES: NC(=S)NC1=CC=CC=C1
InChI: InChI=1S/C7H8N2S/c8-7(10)9-6-4-2-1-3-5-6/h1-5H,(H3,8,9,10)
Instrument: Q Exactive Orbitrap (Thermo Scientific)
Instrument type: LC-ESI-QFT
Ms type: MS2
Ion mode: POSITIVE
Ionization: ESI
Fragmentation mode: HCD
Collision energy: 75
Resolution: 17500
Column name: Acquity BEH C18 1.7um, 2.1x150mm (Waters)
Retention time: 10.382 min
Base peak: 79.0212
Precursor m/z: 153.0481
Precursor type: [M+H]+
Precursor intensity: 2012834.5
m/z	relative intensity	assigned
50.0152	9	C4H2+
51.023	11	C4H3+
53.0386	219	C4H5+
59.9903	330	CH2NS+
61.0106	5	C2H5S+
65.0386	3	C5H5+
67.0542	9	C5H7+
77.0386	84	C6H5+
78.0464	36	C6H6+
79.0542	5	C6H7+
86.0036	258	C6N+
92.0497	3	C6H6N+
93.0574	20	C6H7N+
94.0652	999	C6H8N+
105.0448	270	C6H5N2+
107.9896	4	C5H2NS+
109.0107	293	C6H5S+
111.0267	6	C6H7S+
119.0603	28	C7H7N2+
136.0217	774	C7H6NS+
153.0481	12	C7H9N2S+
