Mass spectrum: Acifluorfen; LC-ESI-QFT; MS2; CE: 60; R=17500; [M-H]-
Name: Acifluorfen
Name: 5-[2-chloro-4-(trifluoromethyl)phenoxy]-2-nitrobenzoic acid
Formula: C14H7ClF3NO5
Exact mass: 360.9965
SMILES: OC(=O)C1=C(C=CC(OC2=CC=C(C=C2Cl)C(F)(F)F)=C1)[N+]([O-])=O
InChI: InChI=1S/C14H7ClF3NO5/c15-10-5-7(14(16,17)18)1-4-12(10)24-8-2-3-11(19(22)23)9(6-8)13(20)21/h1-6H,(H,20,21)
Instrument: Q Exactive Orbitrap (Thermo Scientific)
Instrument type: LC-ESI-QFT
Ms type: MS2
Ion mode: NEGATIVE
Ionization: ESI
Fragmentation mode: HCD
Collision energy: 60
Resolution: 17500
Column name: Acquity BEH C18 1.7um, 2.1x150mm (Waters)
Retention time: 18.726 min
Base peak: 357.026
Precursor m/z: 359.9892
Precursor type: [M-H]-
Precursor intensity: 12507989.94922
m/z	relative intensity	assigned
68.9956	21	CF3-
84.9907	999	CF3O-
85.994	59	CH4ClFO-
110.0413	39	C6H5FN-
116.0141	10	C7H2NO-
128.0316	10	C6H4F2N-
136.0204	215	C7H3FNO-
174.9767	21	C7H2ClF2O-
176.0329	44	C7H5F3NO-
177.0361	39	C10H6FO2-
183.0362	95	C8H6FNO3-
194.9831	171	C7H3ClF3O-
222.0302	18	C12H5F3O-
