Mass spectrum: Hydramethylnon; LC-ESI-QFT; MS2; CE: 15; R=17500; [M-H]-
Name: Hydramethylnon
Name: N-[[(1E,4E)-1,5-bis[4-(trifluoromethyl)phenyl]penta-1,4-dien-3-ylidene]amino]-5,5-dimethyl-4,6-dihydro-1H-pyrimidin-2-amine
Formula: C25H24F6N4
Exact mass: 494.1905
SMILES: CC1(C)CNC(NC1)=NN=C(\C=C\C1=CC=C(C=C1)C(F)(F)F)/C=C/C1=CC=C(C=C1)C(F)(F)F
InChI: InChI=1S/C25H24F6N4/c1-23(2)15-32-22(33-16-23)35-34-21(13-7-17-3-9-19(10-4-17)24(26,27)28)14-8-18-5-11-20(12-6-18)25(29,30)31/h3-14H,15-16H2,1-2H3,(H2,32,33,35)/b13-7+,14-8+
Instrument: Q Exactive Orbitrap (Thermo Scientific)
Instrument type: LC-ESI-QFT
Ms type: MS2
Ion mode: NEGATIVE
Ionization: ESI
Fragmentation mode: HCD
Collision energy: 15
Resolution: 17500
Column name: Acquity BEH C18 1.7um, 2.1x150mm (Waters)
Retention time: 17.721 min
Base peak: 317.1619
Precursor m/z: 493.1832
Precursor type: [M-H]-
Precursor intensity: 4906472.543945
m/z	relative intensity	assigned
145.0271	9	C7H4F3-
159.0427	3	C8H6F3-
237.0643	11	C12H8F3N2-
255.1109	1	C13H14F3N2-
276.1318	27	C15H16F2N3-
294.1226	18	C20H16F2-
296.138	164	C15H17F3N3-
347.149	48	C18H18F3N4-
353.0779	1	C19H11F6-
355.0926	11	C22H11F2N3-
363.0939	2	C19H12F5N2-
381.0833	7	C19H11F6N2-
383.099	57	C19H13F6N2-
437.1209	9	C21H15F6N4-
473.1774	2	C25H22F5N4-
493.1833	999	C25H23F6N4-
