Mass spectrum: 4-(Dimethylamino)phenylthiocyanate; LC-ESI-QFT; MS2; CE: 90; R=17500; [M+H]+
Name: 4-(Dimethylamino)phenylthiocyanate
Name: Thiocyanic acid, 4-(dimethylamino)phenyl ester
Name: [4-(dimethylamino)phenyl] thiocyanate
Formula: C9H10N2S
Exact mass: 178.0565
SMILES: CN(C)C1=CC=C(SC#N)C=C1
InChI: InChI=1S/C9H10N2S/c1-11(2)8-3-5-9(6-4-8)12-7-10/h3-6H,1-2H3
Instrument: Q Exactive Orbitrap (Thermo Scientific)
Instrument type: LC-ESI-QFT
Ms type: MS2
Ion mode: POSITIVE
Ionization: ESI
Fragmentation mode: HCD
Collision energy: 90
Resolution: 17500
Column name: Acquity BEH C18 1.7um, 2.1x150mm (Waters)
Retention time: 17.190 min
Base peak: 79.0212
Precursor m/z: 179.0637
Precursor type: [M+H]+
Precursor intensity: 7065590.28125
m/z	relative intensity	assigned
53.0386	5	C4H5+
55.0417	3	C3H5N+
61.0107	3	C2H5S+
74.0059	12	C2H4NS+
79.0542	47	C6H7+
91.0417	7	C6H5N+
94.0652	10	C6H8N+
96.0028	13	C5H4S+
102.0339	2	C7H4N+
103.0417	242	C7H5N+
104.0495	85	C7H6N+
105.0448	394	C6H5N2+
105.0573	36	C7H7N+
106.0652	57	C7H8N+
108.0028	5	C6H4S+
113.0294	22	C5H7NS+
118.0526	5	C7H6N2+
119.0605	250	C7H7N2+
120.0029	3	C7H4S+
120.0681	8	C7H8N2+
120.0808	26	C8H10N+
121.0886	12	C8H11N+
122.0059	43	C6H4NS+
123.0136	12	C6H5NS+
129.0448	118	C8H5N2+
130.0527	10	C8H6N2+
131.0604	620	C8H7N2+
132.0682	260	C8H8N2+
135.0138	22	C7H5NS+
136.0216	58	C7H6NS+
137.0118	25	C9HN2+
137.0295	6	C7H7NS+
138.0373	105	C7H8NS+
146.006	694	C8H4NS+
147.0138	408	C8H5NS+
149.0169	999	C7H5N2S+
161.0166	9	C8H5N2S+
163.0325	561	C8H7N2S+
164.0403	360	C8H8N2S+
