Mass spectrum: Ilepatril; LC-ESI-QFT; MS2; CE: 30; R=17500; [M-H]-
Name: Ilepatril
Name: (4S,7S,12bR)-7-[[(2S)-2-acetylsulfanyl-3-methylbutanoyl]amino]-6-oxo-2,3,4,7,8,12b-hexahydro-1H-pyrido[2,1-a][2]benzazepine-4-carboxylic acid
Formula: C22H28N2O5S
Exact mass: 432.1719
SMILES: CC(C)[C@H](SC(C)=O)C(=O)N[C@H]1CC2=C(C=CC=C2)[C@H]2CCC[C@H](N2C1=O)C(O)=O
InChI: InChI=1S/C22H28N2O5S/c1-12(2)19(30-13(3)25)20(26)23-16-11-14-7-4-5-8-15(14)17-9-6-10-18(22(28)29)24(17)21(16)27/h4-5,7-8,12,16-19H,6,9-11H2,1-3H3,(H,23,26)(H,28,29)/t16-,17+,18-,19-/m0/s1
Instrument: Q Exactive Orbitrap (Thermo Scientific)
Instrument type: LC-ESI-QFT
Ms type: MS2
Ion mode: NEGATIVE
Ionization: ESI
Fragmentation mode: HCD
Collision energy: 30
Resolution: 17500
Column name: Acquity BEH C18 1.7um, 2.1x150mm (Waters)
Retention time: 16.862 min
Base peak: 231.0097
Precursor m/z: 431.1646
Precursor type: [M-H]-
Precursor intensity: 17432895.68555
m/z	relative intensity	assigned
58.0298	1	C2H4NO-
59.0139	34	C2H3O2-
71.025	1	C2H3N2O-
72.9752	1	C2HOS-
74.991	226	C2H3OS-
87.0274	6	C4H7S-
88.9941	28	C2H3NOS-
90.002	4	C2H4NOS-
99.0202	2	C3H3N2O2-
100.0768	5	C5H10NO-
101.0607	3	C5H9O2-
102.0349	6	C7H4N-
112.0767	1	C6H10NO-
114.0383	9	C5H8NS-
115.0223	24	C5H7OS-
116.0501	1	C8H6N-
116.0543	2	C5H10NS-
117.038	13	C5H9OS-
119.0502	3	C8H7O-
126.9973	1	C4H3N2OS-
131.0376	24	C8H5NO-
131.0536	13	C6H11OS-
132.0488	618	C5H10NOS-
133.033	2	C5H9O2S-
140.0717	388	C7H10NO2-
141.0713	1	C11H9-
142.0661	9	C10H8N-
144.0455	1	C9H6NO-
146.0611	4	C9H8NO-
154.0664	4	C11H8N-
156.0489	10	C7H10NOS-
156.0818	16	C11H10N-
166.0663	4	C12H8N-
168.0819	32	C12H10N-
182.0612	9	C12H8NO-
183.0693	2	C6H15O4S-
184.0767	4	C12H10NO-
184.1133	3	C13H14N-
194.0971	2	C14H12N-
200.1077	1	C13H14NO-
209.1087	2	C14H13N2-
210.0926	6	C14H12NO-
211.1244	2	C14H15N2-
212.1081	269	C14H14NO-
214.0873	999	C13H12NO2-
225.1035	12	C14H13N2O-
227.119	36	C14H15N2O-
228.103	115	C14H14NO2-
229.1346	21	C14H17N2O-
230.1188	3	C14H16NO2-
237.1029	1	C15H13N2O-
240.1029	7	C15H14NO2-
255.1137	15	C15H15N2O2-
256.098	175	C15H14NO3-
257.1306	3	C9H23NO5S-
267.1871	3	C18H23N2-
268.1707	54	C18H22NO-
271.109	48	C15H15N2O3-
272.0931	21	C15H14NO4-
273.1246	361	C15H17N2O3-
283.1085	3	C16H15N2O3-
284.098	1	C16H16N2OS-
294.15	4	C19H20NO2-
302.1091	5	C16H18N2O2S-
311.1766	57	C19H23N2O2-
312.1606	43	C19H22NO3-
315.1352	3	C17H19N2O4-
327.1535	21	C19H23N2OS-
328.0879	2	C17H16N2O3S-
345.1642	44	C19H25N2O2S-
346.1481	15	C19H24NO3S-
355.1663	64	C20H23N2O4-
359.1795	1	C20H27N2O2S-
371.1435	26	C20H23N2O3S-
389.1542	297	C20H25N2O4S-
