Mass spectrum: Scopolamine; LC-ESI-QFT; MS2; CE: 90; R=17500; [M+H]+
Name: Scopolamine
Formula: C17H21NO4
Exact mass: 303.1471
SMILES: CN1[C@H]2C[C@H](OC(=O)[C@H](CO)c3ccccc3)C[C@@H]1[C@H]1O[C@@H]21
InChI: InChI=1S/C17H21NO4/c1-18-13-7-11(8-14(18)16-15(13)22-16)21-17(20)12(9-19)10-5-3-2-4-6-10/h2-6,11-16,19H,7-9H2,1H3/t11-,12-,13-,14+,15-,16+/m1/s1
Instrument: Q Exactive Orbitrap (Thermo Scientific)
Instrument type: LC-ESI-QFT
Ms type: MS2
Ion mode: POSITIVE
Ionization: ESI
Fragmentation mode: HCD
Collision energy: 90
Resolution: 17500
Column name: Acquity BEH C18 1.7um, 2.1x150mm (Waters)
Retention time: 9.993 min
Base peak: 79.0212
Precursor m/z: 304.1543
Precursor type: [M+H]+
Precursor intensity: 21606336.5
m/z	relative intensity	assigned
51.0229	1	C4H3+
53.0022	3	C3HO+
53.0386	69	C4H5+
54.0339	2	C3H4N+
55.0179	12	C3H3O+
55.0542	15	C4H7+
56.0495	11	C3H6N+
57.0335	9	C3H5O+
57.0573	2	C3H7N+
58.0288	7	C2H4NO+
58.0651	5	C3H8N+
59.0366	4	C2H5NO+
60.0443	1	C2H6NO+
65.0385	13	C5H5+
66.0462	1	C5H6+
67.0416	20	C4H5N+
67.0542	62	C5H7+
68.0494	51	C4H6N+
69.0335	6	C4H5O+
69.0572	2	C4H7N+
69.0699	5	C5H9+
70.0651	120	C4H8N+
72.0443	18	C3H6NO+
73.0283	2	C3H5O2+
73.0521	2	C3H7NO+
74.0599	5	C3H8NO+
77.0385	23	C6H5+
79.0542	193	C6H7+
80.0494	25	C5H6N+
81.0335	90	C5H5O+
81.0573	24	C5H7N+
81.0699	37	C6H9+
82.0651	99	C5H8N+
83.0491	31	C5H7O+
84.0444	9	C4H6NO+
84.0808	12	C5H10N+
86.0599	3	C4H8NO+
91.0542	80	C7H7+
93.0573	9	C6H7N+
93.0699	25	C7H9+
94.0652	96	C6H8N+
95.0492	200	C6H7O+
95.0729	41	C6H9N+
96.0444	42	C5H6NO+
96.0808	34	C6H10N+
97.0522	201	C5H7NO+
98.0601	72	C5H8NO+
102.0464	17	C8H6+
103.0542	999	C8H7+
106.0651	1	C7H8N+
107.0491	12	C7H7O+
107.0729	3	C7H9N+
108.0808	41	C7H10N+
109.0648	1	C7H9O+
109.0887	7	C7H11N+
110.0601	37	C6H8NO+
110.0964	105	C7H12N+
118.0412	1	C8H6O+
118.0652	1	C8H8N+
120.0807	14	C8H10N+
121.0648	24	C8H9O+
122.0599	2	C7H8NO+
123.0678	5	C7H9NO+
136.0757	1	C8H10NO+
138.0913	138	C8H12NO+
154.0862	2	C8H12NO2+
156.1019	31	C8H14NO2+
