Mass spectrum: Nootkatone; LC-ESI-QFT; MS2; CE: 60; R=17500; [M+H]+
Name: Nootkatone
Name: (4R,4aS,6R)-4,4a-dimethyl-6-prop-1-en-2-yl-3,4,5,6,7,8-hexahydronaphthalen-2-one
Formula: C15H22O
Exact mass: 218.1671
SMILES: C[C@@H]1CC(=O)C=C2CC[C@H](C[C@@]12C)C(C)=C
InChI: InChI=1S/C15H22O/c1-10(2)12-5-6-13-8-14(16)7-11(3)15(13,4)9-12/h8,11-12H,1,5-7,9H2,2-4H3/t11-,12-,15+/m1/s1
Instrument: Q Exactive Orbitrap (Thermo Scientific)
Instrument type: LC-ESI-QFT
Ms type: MS2
Ion mode: POSITIVE
Ionization: ESI
Fragmentation mode: HCD
Collision energy: 60
Resolution: 17500
Column name: Acquity BEH C18 1.7um, 2.1x150mm (Waters)
Retention time: 19.073 min
Base peak: 79.0211
Precursor m/z: 219.1743
Precursor type: [M+H]+
Precursor intensity: 8141648.53125
m/z	relative intensity	assigned
53.0022	12	C3HO+
53.0385	21	C4H5+
55.0179	42	C3H3O+
55.0542	142	C4H7+
57.0335	8	C3H5O+
57.0699	47	C4H9+
59.0491	4	C3H7O+
65.0386	11	C5H5+
67.0542	353	C5H7+
69.0334	211	C4H5O+
69.0698	237	C5H9+
71.0491	11	C4H7O+
77.0385	5	C6H5+
79.0542	238	C6H7+
81.0699	999	C6H9+
83.0492	39	C5H7O+
83.0855	65	C6H11+
85.0647	4	C5H9O+
91.0542	128	C7H7+
93.0699	480	C7H9+
94.0774	3	C7H10+
95.0492	54	C6H7O+
95.0855	319	C7H11+
97.0648	241	C6H9O+
103.0543	7	C8H7+
105.0699	192	C8H9+
106.0413	10	C7H6O+
106.0776	2	C8H10+
107.0491	50	C7H7O+
107.0855	304	C8H11+
108.057	5	C7H8O+
109.0648	82	C7H9O+
109.1012	243	C8H13+
111.0804	370	C7H11O+
115.0545	3	C9H7+
116.062	5	C9H8+
117.0698	58	C9H9+
119.0855	204	C9H11+
121.0648	130	C8H9O+
121.1011	210	C9H13+
122.0726	5	C8H10O+
123.0804	115	C8H11O+
123.1168	155	C9H15+
125.0961	39	C8H13O+
129.0699	11	C10H9+
130.0777	20	C10H10+
131.0856	96	C10H11+
132.0936	6	C10H12+
133.0648	9	C9H9O+
133.1011	99	C10H13+
134.0727	3	C9H10O+
135.0804	182	C9H11O+
135.1168	90	C10H15+
136.0886	3	C9H12O+
137.0961	125	C9H13O+
138.104	3	C9H14O+
139.1118	5	C9H15O+
142.0778	3	C11H10+
143.0854	28	C11H11+
144.0934	15	C11H12+
145.1011	179	C11H13+
146.1086	5	C11H14+
147.0805	28	C10H11O+
147.1168	17	C11H15+
148.0882	4	C10H12O+
149.0961	180	C10H13O+
149.1324	27	C11H17+
150.1042	5	C10H14O+
151.1118	23	C10H15O+
157.101	6	C12H13+
158.1091	6	C12H14+
159.1168	91	C12H15+
161.0961	87	C11H13O+
161.1324	64	C12H17+
162.1038	16	C11H14O+
163.1117	408	C11H15O+
164.1199	5	C11H16O+
171.1167	6	C13H15+
173.1326	26	C13H17+
175.1119	8	C12H15O+
175.1481	24	C13H19+
176.1196	67	C12H16O+
177.1273	32	C12H17O+
177.1637	7	C13H21+
189.1272	17	C13H17O+
190.1345	3	C13H18O+
201.1639	27	C15H21+
204.1511	10	C14H20O+
219.1745	86	C15H23O+
