Mass spectrum: Triamcinolone; LC-ESI-QFT; MS2; CE: 45; R=17500; [M+H]+
Name: Triamcinolone
Name: (8S,9R,10S,11S,13S,14S,16R,17S)-9-fluoro-11,16,17-trihydroxy-17-(2-hydroxyacetyl)-10,13-dimethyl-6,7,8,11,12,14,15,16-octahydrocyclopenta[a]phenanthren-3-one
Formula: C21H27FO6
Exact mass: 394.1792
SMILES: C[C@]12C[C@H](O)[C@@]3(F)[C@@H](CCC4=CC(=O)C=C[C@]34C)[C@@H]1C[C@@H](O)[C@]2(O)C(=O)CO
InChI: InChI=1S/C21H27FO6/c1-18-6-5-12(24)7-11(18)3-4-13-14-8-15(25)21(28,17(27)10-23)19(14,2)9-16(26)20(13,18)22/h5-7,13-16,23,25-26,28H,3-4,8-10H2,1-2H3/t13-,14-,15+,16-,18-,19-,20-,21-/m0/s1
Instrument: Q Exactive Orbitrap (Thermo Scientific)
Instrument type: LC-ESI-QFT
Ms type: MS2
Ion mode: POSITIVE
Ionization: ESI
Fragmentation mode: HCD
Collision energy: 45
Resolution: 17500
Column name: Acquity BEH C18 1.7um, 2.1x150mm (Waters)
Retention time: 14.647 min
Base peak: 79.0211
Precursor m/z: 395.1864
Precursor type: [M+H]+
Precursor intensity: 2505973.5
m/z	relative intensity	assigned
55.0179	214	C3H3O+
69.0334	127	C4H5O+
81.0699	115	C6H9+
83.0494	45	C5H7O+
87.0441	101	C4H7O2+
91.0544	91	C7H7+
93.0699	157	C7H9+
95.0492	172	C6H7O+
95.0856	105	C7H11+
97.0649	66	C6H9O+
101.0235	65	C4H5O3+
105.0699	264	C8H9+
107.0856	52	C8H11+
109.0649	149	C7H9O+
115.0393	57	C5H7O3+
119.0856	94	C9H11+
121.0648	632	C8H9O+
123.0442	105	C7H7O2+
123.0804	72	C8H11O+
125.06	133	C7H9O2+
128.0624	56	C10H8+
131.0855	155	C10H11+
133.065	143	C9H9O+
135.0804	174	C9H11O+
137.0598	111	C8H9O2+
143.0856	229	C11H11+
145.0649	166	C10H9O+
147.0805	999	C10H11O+
155.0856	101	C12H11+
157.1015	100	C12H13+
159.0807	396	C11H11O+
161.0961	146	C11H13O+
171.0806	638	C12H11O+
171.117	86	C13H15+
173.0962	287	C12H13O+
179.0854	73	C14H11+
180.0938	44	C14H12+
181.1015	104	C14H13+
183.0802	76	C13H11O+
185.0962	220	C13H13O+
187.0756	189	C12H11O2+
191.0857	42	C15H11+
192.0934	106	C15H12+
193.1012	72	C15H13+
195.0809	101	C14H11O+
195.1172	111	C15H15+
197.096	298	C14H13O+
197.1327	145	C15H17+
199.1119	145	C14H15O+
205.1017	107	C16H13+
206.1094	110	C16H14+
207.1169	251	C16H15+
208.0883	165	C15H12O+
209.0963	298	C15H13O+
210.1039	191	C15H14O+
213.1275	305	C15H17O+
219.1168	101	C17H15+
221.0961	136	C16H13O+
221.1326	95	C17H17+
222.1038	161	C16H14O+
223.1119	414	C16H15O+
224.1199	232	C16H16O+
225.1276	657	C16H17O+
233.096	63	C17H13O+
234.1034	57	C17H14O+
237.1276	445	C17H17O+
239.1433	190	C17H19O+
246.104	66	C18H14O+
247.1117	79	C18H15O+
249.1276	102	C18H17O+
251.1433	96	C18H19O+
253.1227	58	C17H17O2+
260.1195	123	C19H16O+
261.1278	149	C19H17O+
262.1352	108	C19H18O+
263.143	169	C19H19O+
265.158	55	C19H21O+
275.1428	132	C20H19O+
280.1457	111	C19H20O2+
291.1384	47	C20H19O2+
293.1539	55	C20H21O2+
