Mass spectrum: Flusilazole; LC-ESI-QFT; MS2; CE: 60; R=17500; [M+H]+
Name: Flusilazole
Name: bis(4-fluorophenyl)-methyl-(1,2,4-triazol-1-ylmethyl)silane
Formula: C16H15F2N3Si
Exact mass: 315.1003
SMILES: C[Si](CN1C=NC=N1)(C1=CC=C(F)C=C1)C1=CC=C(F)C=C1
InChI: InChI=1S/C16H15F2N3Si/c1-22(12-21-11-19-10-20-21,15-6-2-13(17)3-7-15)16-8-4-14(18)5-9-16/h2-11H,12H2,1H3
Instrument: Q Exactive Orbitrap (Thermo Scientific)
Instrument type: LC-ESI-QFT
Ms type: MS2
Ion mode: POSITIVE
Ionization: ESI
Fragmentation mode: HCD
Collision energy: 60
Resolution: 17500
Column name: Acquity BEH C18 1.7um, 2.1x150mm (Waters)
Retention time: 18.340 min
Base peak: 79.0211
Precursor m/z: 316.1076
Precursor type: [M+H]+
Precursor intensity: 35733184.10938
m/z	relative intensity	assigned
51.023	1	C4H3+
53.0386	78	C4H5+
63.0064	2	CH4FSi+
65.0386	3	C5H5+
67.0543	1	C5H7+
70.0398	1	C2H4N3+
77.0385	37	C6H5+
79.0542	63	C6H7+
81.0003	68	C4FN+
89.0386	2	C7H5+
91.0543	92	C7H7+
94.0414	8	C4H4N3+
95.016	105	C5H2FN+
95.0491	212	C4H5N3+
97.0448	5	C6H6F+
102.0465	1	C8H6+
103.0542	32	C8H7+
105.0448	83	C6H5N2+
105.0699	108	C8H9+
109.0316	20	C6H4FN+
109.0448	59	C7H6F+
111.0108	3	C8HN+
113.0265	1	C8H3N+
115.0542	27	C9H7+
119.049	1	C6H5N3+
121.0229	2	C5H5N2Si+
121.0449	1	C8H6F+
123.0605	7	C8H8F+
128.062	12	C10H8+
129.0448	2	C8H5N2+
131.0606	2	C8H7N2+
139.0542	7	C11H7+
140.0623	1	C11H8+
141.0004	4	C9FN+
141.0168	1	C9H5Si+
141.0698	32	C11H9+
145.0649	3	C8H7N3+
151.0372	6	C3H7F2N3Si+
152.0621	73	C12H8+
153.0699	80	C12H9+
155.0124	2	C7H5F2Si+
155.0603	4	C10H7N2+
155.0855	10	C12H11+
157.0323	1	C10H4FN+
159.0604	8	C11H8F+
164.0622	18	C13H8+
165.0699	999	C13H9+
166.0776	53	C13H10+
167.0322	8	C11H7Si+
167.0855	1	C13H11+
168.0569	16	C10H6N3+
169.0281	3	C8H7F2Si+
169.0479	20	C11H9Si+
169.0648	6	C10H7N3+
170.0526	11	C12H7F+
171.0435	43	C8H9F2Si+
171.0805	5	C10H9N3+
173.043	10	C8H7N3Si+
173.0763	2	C12H10F+
175.0221	33	C10H3F2N+
177.0699	1	C14H9+
178.0778	31	C14H10+
179.0606	2	C12H7N2+
179.0855	23	C14H11+
181.0759	7	C12H9N2+
183.0605	67	C13H8F+
184.0682	9	C13H9F+
185.043	16	C9H7N3Si+
185.0761	124	C13H10F+
187.0585	132	C9H9N3Si+
189.0378	2	C11H5F2N+
193.0764	1	C13H9N2+
196.0517	4	C10H10F2Si+
197.0764	2	C14H10F+
199.0384	7	C12H8FSi+
199.0576	1	C10H9N3Si+
201.0741	13	C10H11N3Si+
203.0334	1	C14H7Si+
203.0667	2	C13H9F2+
217.0481	16	C15H9Si+
219.0435	2	C12H9F2Si+
229.0475	1	C16H9Si+
231.0435	4	C13H9F2Si+
232.0513	4	C13H10F2Si+
235.0385	5	C15H8FSi+
235.0586	13	C13H9N3Si+
237.0542	22	C15H10FSi+
245.0595	2	C14H11F2Si+
245.0794	9	C12H12FN3Si+
249.0543	2	C16H10FSi+
249.0743	3	C14H11N3Si+
253.0489	7	C13H8FN3Si+
261.0743	1	C15H11N3Si+
263.0899	2	C15H13N3Si+
267.0642	4	C14H10FN3Si+
