Mass spectrum: Famotidine; LC-ESI-QFT; MS2; CE: 90; R=17500; [M-H]-
Name: Famotidine
Name: 3-[[2-(diaminomethylideneamino)-1,3-thiazol-4-yl]methylsulfanyl]-N'-sulfamoylpropanimidamide
Formula: C8H15N7O2S3
Exact mass: 337.0449
SMILES: NC(N)=NC1=NC(CSCCC(N)=NS(N)(=O)=O)=CS1
InChI: InChI=1S/C8H15N7O2S3/c9-6(15-20(12,16)17)1-2-18-3-5-4-19-8(13-5)14-7(10)11/h4H,1-3H2,(H2,9,15)(H2,12,16,17)(H4,10,11,13,14)
Instrument: Q Exactive Orbitrap (Thermo Scientific)
Instrument type: LC-ESI-QFT
Ms type: MS2
Ion mode: NEGATIVE
Ionization: ESI
Fragmentation mode: HCD
Collision energy: 90
Resolution: 17500
Column name: Acquity BEH C18 1.7um, 2.1x150mm (Waters)
Retention time: 8.018 min
Base peak: 185.0456
Precursor m/z: 336.0377
Precursor type: [M-H]-
Precursor intensity: 1021879.964355
m/z	relative intensity	assigned
57.0458	19	C2H5N2-
57.9756	100	CNS-
58.9961	177	C2H3S-
63.9625	102	O2S-
66.0098	65	C2N3-
77.9655	841	NO2S-
78.9733	188	HNO2S-
83.0362	16	C2H3N4-
86.0069	13	C3H4NS-
94.9921	999	H3N2O2S-
103.0335	35	C3H7N2S-
111.0022	83	C4H3N2S-
