Mass spectrum: N,N`-Dicyclohexylthiourea; LC-ESI-QFT; MS2; CE: 30; R=17500; [M+H]+
Name: N,N'-Dicyclohexylthiourea
Name: N,N'-dicyclohexylcarbamimidothioic acid
Formula: C13H24N2S
Exact mass: 240.1660
SMILES: S=C(NC1CCCCC1)NC1CCCCC1
InChI: InChI=1S/C13H24N2S/c16-13(14-11-7-3-1-4-8-11)15-12-9-5-2-6-10-12/h11-12H,1-10H2,(H2,14,15,16)
Instrument: Q Exactive Orbitrap (Thermo Scientific)
Instrument type: LC-ESI-QFT
Ms type: MS2
Ion mode: POSITIVE
Ionization: ESI
Fragmentation mode: HCD
Collision energy: 30
Resolution: 17500
Column name: Acquity BEH C18 1.7um, 2.1x150mm (Waters)
Retention time: 17.847 min
Base peak: 79.0211
Precursor m/z: 241.1733
Precursor type: [M+H]+
Precursor intensity: 22219504
m/z	relative intensity	assigned
55.0542	6	C4H7+
59.9902	11	CH2NS+
77.0167	10	CH5N2S+
83.0855	102	C6H11+
100.112	874	C6H14N+
142.0685	32	C7H12NS+
159.095	41	C7H15N2S+
180.9841	6	C10HN2S+
241.1731	999	C13H25N2S+
