Mass spectrum: Tolazamide; LC-ESI-QFT; MS2; CE: 30; R=17500; [M+H]+
Name: Tolazamide
Name: 1-(azepan-1-yl)-3-(4-methylphenyl)sulfonylurea
Formula: C14H21N3O3S
Exact mass: 311.1304
SMILES: CC1=CC=C(C=C1)S(=O)(=O)NC(=O)NN1CCCCCC1
InChI: InChI=1S/C14H21N3O3S/c1-12-6-8-13(9-7-12)21(19,20)16-14(18)15-17-10-4-2-3-5-11-17/h6-9H,2-5,10-11H2,1H3,(H2,15,16,18)
Instrument: Q Exactive Orbitrap (Thermo Scientific)
Instrument type: LC-ESI-QFT
Ms type: MS2
Ion mode: POSITIVE
Ionization: ESI
Fragmentation mode: HCD
Collision energy: 30
Resolution: 17500
Column name: Acquity BEH C18 1.7um, 2.1x150mm (Waters)
Retention time: 16.183 min
Base peak: 79.0212
Precursor m/z: 312.1376
Precursor type: [M+H]+
Precursor intensity: 10766953.875
m/z	relative intensity	assigned
55.0178	1	C3H3O+
55.0416	1	C3H5N+
55.0542	1	C4H7+
56.0495	2	C3H6N+
57.0573	3	C3H7N+
59.0604	2	C2H7N2+
61.0396	93	CH5N2O+
65.0384	5	C5H5+
67.0542	4	C5H7+
68.0494	135	C4H6N+
69.0573	17	C4H7N+
69.0698	10	C5H9+
70.0651	14	C4H8N+
82.0651	62	C5H8N+
84.0808	2	C5H10N+
91.0542	20	C7H7+
95.0492	1	C6H7O+
96.0808	65	C6H10N+
97.0886	323	C6H11N+
98.0964	241	C6H12N+
99.1042	38	C6H13N+
108.0572	1	C7H8O+
109.0648	44	C7H9O+
113.1073	105	C6H13N2+
114.0912	3	C6H12NO+
114.1153	1	C6H14N2+
115.123	999	C6H15N2+
119.0604	75	C7H7N2+
131.094	2	C6H13NO2+
139.0866	13	C7H11N2O+
140.1183	9	C7H14N3+
141.1022	315	C7H13N2O+
155.0161	239	C7H7O2S+
156.1131	60	C7H14N3O+
157.1209	56	C7H15N3O+
172.0426	45	C7H10NO2S+
227.1179	1	C14H15N2O+
312.1376	229	C14H22N3O3S+
