Mass spectrum: Endosulfan sulfate; LC-ESI-QFT; MS2; CE: 90; R=17500; [M-H]-
Name: Endosulfan sulfate
Name: 1,9,10,11,12,12-hexachloro-4,6-dioxa-5lambda6-thiatricyclo[7.2.1.02,8]dodec-10-ene 5,5-dioxide
Formula: C9H6Cl6O4S
Exact mass: 419.8118
SMILES: ClC1=C(Cl)C2(Cl)C3COS(=O)(=O)OCC3C1(Cl)C2(Cl)Cl
InChI: InChI=1S/C9H6Cl6O4S/c10-5-6(11)8(13)4-2-19-20(16,17)18-1-3(4)7(5,12)9(8,14)15/h3-4H,1-2H2
Instrument: Q Exactive Orbitrap (Thermo Scientific)
Instrument type: LC-ESI-QFT
Ms type: MS2
Ion mode: NEGATIVE
Ionization: ESI
Fragmentation mode: HCD
Collision energy: 90
Resolution: 17500
Column name: Acquity BEH C18 1.7um, 2.1x150mm (Waters)
Retention time: 18.741 min
Base peak: 357.026
Precursor m/z: 418.8045
Precursor type: [M-H]-
Precursor intensity: 3843268.035156
m/z	relative intensity	assigned
79.9574	224	O3S-
96.9601	999	HO4S-
