Mass spectrum: Tebufenozide; LC-ESI-QFT; MS2; CE: 90; R=17500; [M-H]-
Name: Tebufenozide
Name: N-tert-butyl-N'-(4-ethylbenzoyl)-3,5-dimethylbenzohydrazide
Formula: C22H28N2O2
Exact mass: 352.2151
SMILES: CCC1=CC=C(C=C1)C(=O)NN(C(=O)C1=CC(C)=CC(C)=C1)C(C)(C)C
InChI: InChI=1S/C22H28N2O2/c1-7-17-8-10-18(11-9-17)20(25)23-24(22(4,5)6)21(26)19-13-15(2)12-16(3)14-19/h8-14H,7H2,1-6H3,(H,23,25)
Instrument: Q Exactive Orbitrap (Thermo Scientific)
Instrument type: LC-ESI-QFT
Ms type: MS2
Ion mode: NEGATIVE
Ionization: ESI
Fragmentation mode: HCD
Collision energy: 90
Resolution: 17500
Column name: Acquity BEH C18 1.7um, 2.1x150mm (Waters)
Retention time: 18.217 min
Base peak: 246.0326
Precursor m/z: 351.2078
Precursor type: [M-H]-
Precursor intensity: 43449042.05078
m/z	relative intensity	assigned
105.071	999	C8H9-
121.0657	51	C8H9O-
122.0373	73	C7H6O2-
149.0608	556	C9H9O2-
160.0645	25	C9H8N2O-
