Mass spectrum: 2-Naphthylamine; LC-ESI-QFT; MS2; CE: 15; R=17500; [M+H]+
Name: 2-Naphthylamine
Name: naphthalen-2-amine
Formula: C10H9N
Exact mass: 143.0735
SMILES: NC1=CC2=C(C=CC=C2)C=C1
InChI: InChI=1S/C10H9N/c11-10-6-5-8-3-1-2-4-9(8)7-10/h1-7H,11H2
Instrument: Q Exactive Orbitrap (Thermo Scientific)
Instrument type: LC-ESI-QFT
Ms type: MS2
Ion mode: POSITIVE
Ionization: ESI
Fragmentation mode: HCD
Collision energy: 15
Resolution: 17500
Column name: Acquity BEH C18 1.7um, 2.1x150mm (Waters)
Retention time: 12.165 min
Base peak: 79.0211
Precursor m/z: 144.0808
Precursor type: [M+H]+
Precursor intensity: 7117643.46875
m/z	relative intensity	assigned
103.0542	2	C8H7+
116.0619	1	C9H8+
117.0698	15	C9H9+
127.0539	2	C10H7+
128.062	1	C10H8+
143.073	20	C10H9N+
144.0806	999	C10H10N+
