Mass spectrum: 2,2`-(3-Chlorophenylimino)diethanol; LC-ESI-QFT; MS2; CE: 90; R=17500; [M+H]+
Name: 2,2'-(3-Chlorophenylimino)diethanol
Name: 3-Chloro-N,N-bis(2-hydroxyethyl)aniline
Name: 2-[3-chloro-N-(2-hydroxyethyl)anilino]ethanol
Formula: C10H14ClNO2
Exact mass: 215.0713
SMILES: OCCN(CCO)C1=CC(Cl)=CC=C1
InChI: InChI=1S/C10H14ClNO2/c11-9-2-1-3-10(8-9)12(4-6-13)5-7-14/h1-3,8,13-14H,4-7H2
Instrument: Q Exactive Orbitrap (Thermo Scientific)
Instrument type: LC-ESI-QFT
Ms type: MS2
Ion mode: POSITIVE
Ionization: ESI
Fragmentation mode: HCD
Collision energy: 90
Resolution: 17500
Column name: Acquity BEH C18 1.7um, 2.1x150mm (Waters)
Retention time: 15.559 min
Base peak: 79.0212
Precursor m/z: 216.0786
Precursor type: [M+H]+
Precursor intensity: 5770028.75
m/z	relative intensity	assigned
51.0229	1	C4H3+
53.0386	12	C4H5+
75.0229	17	C6H3+
77.0386	5	C6H5+
86.9997	15	C4H4Cl+
91.0542	101	C7H7+
92.0621	54	C7H8+
93.0574	65	C6H7N+
95.0492	37	C6H7O+
98.9996	12	C5H4Cl+
102.0464	8	C8H6+
103.0542	15	C8H7+
104.0495	160	C7H6N+
105.0573	21	C7H7N+
106.0651	3	C7H8N+
109.0647	2	C7H9O+
110.9996	8	C6H4Cl+
112.0075	35	C6H5Cl+
113.0155	8	C6H6Cl+
115.0543	9	C9H7+
116.0495	3	C8H6N+
117.0573	139	C8H7N+
118.0651	999	C8H8N+
119.073	430	C8H9N+
125.0151	8	C7H6Cl+
126.0106	16	C6H5ClN+
127.0183	36	C6H6ClN+
128.0261	18	C6H7ClN+
129.0101	40	C6H6ClO+
130.0651	66	C9H8N+
131.073	3	C9H9N+
132.0808	141	C9H10N+
134.0595	2	C8H8NO+
137.0151	2	C8H6Cl+
138.0105	13	C7H5ClN+
139.0057	60	C9HNO+
140.0261	458	C7H7ClN+
143.0729	9	C10H9N+
144.0808	62	C10H10N+
145.0886	9	C10H11N+
151.0183	13	C8H6ClN+
152.0262	123	C8H7ClN+
153.034	29	C8H8ClN+
154.0418	225	C8H9ClN+
164.0261	17	C9H7ClN+
166.0418	8	C9H9ClN+
180.0576	1	C10H11ClN+
