Mass spectrum: Piragliatin; LC-ESI-QFT; MS2; CE: 60; R=17500; [M+H]+
Name: Piragliatin
Name: (2R)-2-(3-chloro-4-methylsulfonylphenyl)-3-[(1R)-3-oxocyclopentyl]-N-pyrazin-2-ylpropanamide
Formula: C19H20ClN3O4S
Exact mass: 421.0863
SMILES: CS(=O)(=O)C1=CC=C(C=C1Cl)[C@@H](C[C@H]1CCC(=O)C1)C(=O)NC1=NC=CN=C1
InChI: InChI=1S/C19H20ClN3O4S/c1-28(26,27)17-5-3-13(10-16(17)20)15(9-12-2-4-14(24)8-12)19(25)23-18-11-21-6-7-22-18/h3,5-7,10-12,15H,2,4,8-9H2,1H3,(H,22,23,25)/t12-,15+/m0/s1
Instrument: Q Exactive Orbitrap (Thermo Scientific)
Instrument type: LC-ESI-QFT
Ms type: MS2
Ion mode: POSITIVE
Ionization: ESI
Fragmentation mode: HCD
Collision energy: 60
Resolution: 17500
Column name: Acquity BEH C18 1.7um, 2.1x150mm (Waters)
Retention time: 14.557 min
Base peak: 79.0211
Precursor m/z: 422.0936
Precursor type: [M+H]+
Precursor intensity: 846880.25
m/z	relative intensity	assigned
52.0183	14	C3H2N+
55.0179	56	C3H3O+
55.0542	17	C4H7+
69.0447	33	C3H5N2+
78.9848	44	CH3O2S+
83.0492	88	C5H7O+
95.0492	23	C6H7O+
96.0556	999	C4H6N3+
97.0397	133	C4H5N2O+
115.0543	14	C9H7+
125.0154	28	C7H6Cl+
128.0624	12	C10H8+
129.0697	16	C10H9+
141.0102	439	C7H6ClO+
141.0699	43	C11H9+
142.0778	18	C11H10+
150.0232	35	C9H7Cl+
153.07	33	C12H9+
155.0605	8	C10H7N2+
160.0871	20	C9H10N3+
162.0231	183	C10H7Cl+
163.0309	81	C10H8Cl+
164.0388	23	C10H9Cl+
165.0702	33	C13H9+
166.0779	22	C13H10+
167.0857	222	C13H11+
168.0933	67	C13H12+
175.0309	53	C11H8Cl+
176.0386	51	C11H9Cl+
177.0467	95	C11H10Cl+
179.0259	30	C10H8ClO+
185.0963	33	C13H13O+
191.026	31	C11H8ClO+
193.0418	18	C11H10ClO+
194.0134	11	C10H7ClO2+
201.0468	14	C13H10Cl+
202.0546	45	C13H11Cl+
202.993	8	C8H8ClO2S+
203.0621	16	C13H12Cl+
212.039	17	C14H9Cl+
241.0085	63	C11H10ClO2S+
246.1022	14	C16H12N3+
255.0241	8	C12H12ClO2S+
291.0242	44	C15H12ClO2S+
