Mass spectrum: Pyraclostrobin; LC-ESI-QFT; MS2; CE: 15; R=17500; [M+H]+
Name: Pyraclostrobin
Name: methyl N-[2-[[1-(4-chlorophenyl)pyrazol-3-yl]oxymethyl]phenyl]-N-methoxycarbamate
Formula: C19H18ClN3O4
Exact mass: 387.0986
SMILES: CON(C(=O)OC)C1=C(COC2=NN(C=C2)C2=CC=C(Cl)C=C2)C=CC=C1
InChI: InChI=1S/C19H18ClN3O4/c1-25-19(24)23(26-2)17-6-4-3-5-14(17)13-27-18-11-12-22(21-18)16-9-7-15(20)8-10-16/h3-12H,13H2,1-2H3
Instrument: Q Exactive Orbitrap (Thermo Scientific)
Instrument type: LC-ESI-QFT
Ms type: MS2
Ion mode: POSITIVE
Ionization: ESI
Fragmentation mode: HCD
Collision energy: 15
Resolution: 17500
Column name: Acquity BEH C18 1.7um, 2.1x150mm (Waters)
Retention time: 18.708 min
Base peak: 79.0211
Precursor m/z: 388.1059
Precursor type: [M+H]+
Precursor intensity: 19630446.25
m/z	relative intensity	assigned
59.0128	1	C2H3O2+
75.0439	1	C3H7O2+
104.0493	1	C7H6N+
118.0651	6	C8H8N+
126.0103	2	C6H5ClN+
132.0442	6	C8H6NO+
134.0601	16	C8H8NO+
149.0468	6	C8H7NO2+
162.055	61	C9H8NO2+
163.0628	114	C9H9NO2+
164.0706	291	C9H10NO2+
166.0865	4	C9H12NO2+
174.0549	1	C10H8NO2+
179.0577	2	C9H9NO3+
185.0707	1	C11H9N2O+
188.0705	1	C11H10NO2+
193.0168	1	C9H6ClN2O+
194.0813	999	C10H12NO3+
196.0968	1	C10H14NO3+
207.979	3	C12O4+
253.0527	1	C15H10ClN2+
261.0899	1	C16H11N3O+
281.0475	3	C16H10ClN2O+
296.0587	203	C16H11ClN3O+
300.0653	2	C19H10NO3+
324.0535	36	C17H11ClN3O2+
