Mass spectrum: Trifloxystrobin; LC-ESI-QFT; MS2; CE: 60; R=17500; [M+H]+
Name: Trifloxystrobin
Name: methyl 2-methoxyimino-2-[2-[[1-[3-(trifluoromethyl)phenyl]ethylideneamino]oxymethyl]phenyl]acetate
Formula: C20H19F3N2O4
Exact mass: 408.1297
SMILES: CON=C(C(=O)OC)C1=CC=CC=C1CON=C(C)C1=CC(=CC=C1)C(F)(F)F
InChI: InChI=1S/C20H19F3N2O4/c1-13(14-8-6-9-16(11-14)20(21,22)23)24-29-12-15-7-4-5-10-17(15)18(25-28-3)19(26)27-2/h4-11H,12H2,1-3H3
Instrument: Q Exactive Orbitrap (Thermo Scientific)
Instrument type: LC-ESI-QFT
Ms type: MS2
Ion mode: POSITIVE
Ionization: ESI
Fragmentation mode: HCD
Collision energy: 60
Resolution: 17500
Column name: Acquity BEH C18 1.7um, 2.1x150mm (Waters)
Retention time: 18.993 min
Base peak: 79.0211
Precursor m/z: 409.137
Precursor type: [M+H]+
Precursor intensity: 27278597.5
m/z	relative intensity	assigned
53.0386	1	C4H5+
63.0229	2	C5H3+
65.0385	5	C5H5+
66.0464	6	C5H6+
71.0291	3	C4H4F+
75.0228	1	C6H3+
78.0463	1	C6H6+
79.0542	9	C6H7+
89.0386	72	C7H5+
90.0464	13	C7H6+
91.0542	115	C7H7+
92.0622	1	C7H8+
94.0413	1	C6H6O+
95.029	1	C6H4F+
95.0491	5	C6H7O+
99.0241	2	C5H4FO+
101.0197	11	C5H3F2+
103.0542	16	C8H7+
104.0495	4	C7H6N+
104.0621	6	C8H8+
105.0336	2	C7H5O+
105.0447	2	C6H5N2+
105.0574	2	C7H7N+
105.0699	25	C8H9+
107.0492	1	C7H7O+
109.0448	2	C7H6F+
109.0647	7	C7H9O+
113.0398	4	C6H6FO+
115.0418	3	C8H5N+
115.0543	7	C9H7+
116.0495	287	C8H6N+
117.0573	125	C8H7N+
118.0413	6	C8H6O+
118.0651	97	C8H8N+
119.0492	24	C8H7O+
119.0601	4	C7H7N2+
119.073	2	C8H9N+
121.0262	2	C5H4F3+
121.0647	1	C8H9O+
123.0353	5	C6H4FN2+
125.0196	4	C7H3F2+
128.0494	5	C9H6N+
130.0652	92	C9H8N+
131.073	261	C9H9N+
132.0444	71	C8H6NO+
132.0807	57	C9H10N+
133.0523	8	C8H7NO+
134.06	51	C8H8NO+
143.0303	15	C7H5F2O+
143.0367	4	C9H5NO+
144.0443	3	C9H6NO+
145.0259	999	C7H4F3+
146.06	103	C9H8NO+
147.0678	30	C9H9NO+
148.0756	16	C9H10NO+
149.0471	8	C8H7NO2+
159.042	4	C8H6F3+
161.0472	58	C9H7NO2+
163.0365	36	C7H6F3O+
166.0464	1	C9H6F2N+
173.0321	190	C7H4F3N2+
174.055	2	C10H8NO2+
175.0631	4	C10H9NO2+
178.0862	2	C10H12NO2+
186.0525	470	C9H7F3N+
191.058	1	C10H9NO3+
206.0806	4	C11H12NO3+
