Mass spectrum: Propetamphos; LC-ESI-QFT; MS2; CE: 30; R=17500; [M-H]-
Name: Propetamphos
Name: propan-2-yl (E)-3-[ethylamino(methoxy)phosphinothioyl]oxybut-2-enoate
Formula: C10H20NO4PS
Exact mass: 281.0851
SMILES: CCNP(=S)(OC)O\C(C)=C\C(=O)OC(C)C
InChI: InChI=1S/C10H20NO4PS/c1-6-11-16(17,13-5)15-9(4)7-10(12)14-8(2)3/h7-8H,6H2,1-5H3,(H,11,17)/b9-7+
Instrument: Q Exactive Orbitrap (Thermo Scientific)
Instrument type: LC-ESI-QFT
Ms type: MS2
Ion mode: NEGATIVE
Ionization: ESI
Fragmentation mode: HCD
Collision energy: 30
Resolution: 17500
Column name: Acquity BEH C18 1.7um, 2.1x150mm (Waters)
Retention time: 17.710 min
Base peak: 269.0544
Precursor m/z: 280.0778
Precursor type: [M-H]-
Precursor intensity: 179799.6621094
m/z	relative intensity	assigned
110.0611	999	C6H8NO-
154.0097	260	C3H9NO2PS-
170.1188	922	C9H16NO2-
