Mass spectrum: Acetazolamide; LC-ESI-QFT; MS2; CE: 60; R=17500; [M-H]-
Name: Acetazolamide
Name: N-(5-sulfamoyl-1,3,4-thiadiazol-2-yl)acetamide
Formula: C4H6N4O3S2
Exact mass: 221.9881
SMILES: CC(=O)NC1=NN=C(S1)S(N)(=O)=O
InChI: InChI=1S/C4H6N4O3S2/c1-2(9)6-3-7-8-4(12-3)13(5,10)11/h1H3,(H2,5,10,11)(H,6,7,9)
Instrument: Q Exactive Orbitrap (Thermo Scientific)
Instrument type: LC-ESI-QFT
Ms type: MS2
Ion mode: NEGATIVE
Ionization: ESI
Fragmentation mode: HCD
Collision energy: 60
Resolution: 17500
Column name: Acquity BEH C18 1.7um, 2.1x150mm (Waters)
Retention time: 8.459 min
Base peak: 220.9808
Precursor m/z: 220.9809
Precursor type: [M-H]-
Precursor intensity: 6080143.05542
m/z	relative intensity	assigned
57.9757	430	CNS-
61.9706	131	NOS-
63.9624	39	O2S-
66.0098	3	C2N3-
72.9866	16	CHN2S-
77.9655	12	NO2S-
79.9812	298	H2NO2S-
83.0251	999	C3H3N2O-
97.9818	1	C2N3S-
115.0085	2	C2H3N4S-
115.9925	3	C2H2N3OS-
142.0081	3	C4H4N3OS-
220.9819	1	C4H5N4O3S2-
