Mass spectrum: Flufenpyr-ethyl; LC-ESI-QFT; MS2; CE: 30; R=17500; [M-H]-
Name: Flufenpyr-ethyl
Formula: C16H13ClF4N2O4
Exact mass: 408.0500
SMILES: CCOC(=O)COC1=CC(N2N=CC(=C(C)C2=O)C(F)(F)F)=C(F)C=C1Cl
InChI: InChI=1S/C16H13ClF4N2O4/c1-3-26-14(24)7-27-13-5-12(11(18)4-10(13)17)23-15(25)8(2)9(6-22-23)16(19,20)21/h4-6H,3,7H2,1-2H3
Instrument: Q Exactive Orbitrap (Thermo Scientific)
Instrument type: LC-ESI-QFT
Ms type: MS2
Ion mode: NEGATIVE
Ionization: ESI
Fragmentation mode: HCD
Collision energy: 30
Resolution: 17500
Column name: Acquity BEH C18 1.7um, 2.1x150mm (Waters)
Retention time: 18.108 min
Base peak: 112.9856
Precursor m/z: 407.0427
Precursor type: [M-H]-
Precursor intensity: 642420.5917969
m/z	relative intensity	assigned
110.0046	36	C5HFNO-
137.0154	110	C6H2FN2O-
237.0104	22	C13H2FN2O2-
244.9922	60	C12H3ClFN2O-
256.9919	33	C16FNO2-
272.9874	311	C13H3ClFN2O2-
277.0229	48	C13H4F3N2O2-
279.9857	216	C12H3ClF2N2O2-
285.0048	333	C12H5ClF3N2O-
300.982	422	C14H3ClFN2O3-
312.9995	224	C13H5ClF3N2O2-
318.9928	68	C14H5ClFN2O4-
320.9883	248	C14H4ClF2N2O3-
330.0033	40	C10H7ClF4N2O4-
340.9945	999	C14H5ClF3N2O3-
347.0237	39	C16H9ClFN2O4-
351.0603	136	C16H10F3N2O4-
361.0026	37	C14H6ClF4N2O3-
387.0366	68	C16H11ClF3N2O4-
407.0436	72	C16H12ClF4N2O4-
