Mass spectrum: AVE3247; LC-ESI-QFT; MS2; CE: 60; R=17500; [M-H]-
Name: AVE3247
Name: 1-[[5-(5-chlorothiophen-2-yl)-1,2-oxazol-3-yl]methyl]-2-[(1-cyclopropylpiperidin-4-yl)carbamoyl]benzimidazole-5-carboxylic acid
Formula: C25H24ClN5O4S
Exact mass: 525.1238
SMILES: OC(=O)C1=CC=C2N(CC3=NOC(=C3)C3=CC=C(Cl)S3)C(=NC2=C1)C(=O)NC1CCN(CC1)C1CC1
InChI: InChI=1S/C25H24ClN5O4S/c26-22-6-5-21(36-22)20-12-16(29-35-20)13-31-19-4-1-14(25(33)34)11-18(19)28-23(31)24(32)27-15-7-9-30(10-8-15)17-2-3-17/h1,4-6,11-12,15,17H,2-3,7-10,13H2,(H,27,32)(H,33,34)
Instrument: Q Exactive Orbitrap (Thermo Scientific)
Instrument type: LC-ESI-QFT
Ms type: MS2
Ion mode: NEGATIVE
Ionization: ESI
Fragmentation mode: HCD
Collision energy: 60
Resolution: 17500
Column name: Acquity BEH C18 1.7um, 2.1x150mm (Waters)
Retention time: 15.873 min
Base peak: 201.1133
Precursor m/z: 524.1165
Precursor type: [M-H]-
Precursor intensity: 692371.8198242
m/z	relative intensity	assigned
56.9804	6	C2HS-
64.0193	6	C4H2N-
65.9985	999	C3NO-
79.9726	9	C4S-
80.9804	110	C4HS-
81.9756	6	C3NS-
115.0301	14	C7H3N2-
116.9571	71	C4H2ClS-
117.0458	89	C7H5N2-
118.9835	20	C6HNS-
120.0038	23	C7H4S-
147.9863	456	C7H2NOS-
183.9629	186	C7H3ClNOS-
255.1249	7	C14H15N4O-
