Mass spectrum: PharmaGSID_48518; LC-ESI-QFT; MS2; CE: 30; R=17500; [M+H]+
Name: PharmaGSID_48518
Name: 2-bromo-4-fluoro-N-[(E)-2-thiophen-2-ylethenyl]sulfonylbenzamide
Formula: C13H9BrFNO3S2
Exact mass: 388.9191
SMILES: FC1=CC(Br)=C(C=C1)C(=O)NS(=O)(=O)\C=C\C1=CC=CS1
InChI: InChI=1S/C13H9BrFNO3S2/c14-12-8-9(15)3-4-11(12)13(17)16-21(18,19)7-5-10-2-1-6-20-10/h1-8H,(H,16,17)/b7-5+
Instrument: Q Exactive Orbitrap (Thermo Scientific)
Instrument type: LC-ESI-QFT
Ms type: MS2
Ion mode: POSITIVE
Ionization: ESI
Fragmentation mode: HCD
Collision energy: 30
Resolution: 17500
Column name: Acquity BEH C18 1.7um, 2.1x150mm (Waters)
Retention time: 16.424 min
Base peak: 79.0212
Precursor m/z: 389.9264
Precursor type: [M+H]+
Precursor intensity: 746741.0625
m/z	relative intensity	assigned
65.0386	10	C5H5+
81.0335	13	C5H5O+
83.0126	18	C4H3O2+
85.0106	11	C4H5S+
86.9899	11	C3H3OS+
97.0107	51	C5H5S+
102.9671	58	C3H3S2+
109.0107	793	C6H5S+
116.9826	16	C4H5S2+
123.9978	6	C6H4OS+
125.0056	16	C6H5OS+
126.967	15	C5H3S2+
144.9776	75	C5H5OS2+
154.962	232	C6H3OS2+
172.9726	999	C6H5O2S2+
200.9347	479	C7H3BrFO+
