Mass spectrum: UK-373911; LC-ESI-QFT; MS2; CE: 60; R=17500; [M+H]+
Name: UK-373911
Name: (5S,8S)-5-(3,4-dichlorophenyl)-8-(methylamino)-5,6,7,8-tetrahydronaphthalene-2-sulfonamide
Formula: C17H18Cl2N2O2S
Exact mass: 384.0466
SMILES: CN[C@H]1CC[C@@H](C2=CC=C(Cl)C(Cl)=C2)C2=CC=C(C=C12)S(N)(=O)=O
InChI: InChI=1S/C17H18Cl2N2O2S/c1-21-17-7-5-12(10-2-6-15(18)16(19)8-10)13-4-3-11(9-14(13)17)24(20,22)23/h2-4,6,8-9,12,17,21H,5,7H2,1H3,(H2,20,22,23)/t12-,17-/m0/s1
Instrument: Q Exactive Orbitrap (Thermo Scientific)
Instrument type: LC-ESI-QFT
Ms type: MS2
Ion mode: POSITIVE
Ionization: ESI
Fragmentation mode: HCD
Collision energy: 60
Resolution: 17500
Column name: Acquity BEH C18 1.7um, 2.1x150mm (Waters)
Retention time: 14.686 min
Base peak: 79.0211
Precursor m/z: 385.0539
Precursor type: [M+H]+
Precursor intensity: 4061548.25
m/z	relative intensity	assigned
79.0542	1	C6H7+
89.0386	1	C7H5+
91.0544	5	C7H7+
98.9997	3	C5H4Cl+
103.0543	4	C8H7+
106.0652	3	C7H8N+
115.0543	19	C9H7+
117.0699	4	C9H9+
122.9997	23	C7H4Cl+
124.0076	4	C7H5Cl+
125.0152	1	C7H6Cl+
127.0542	2	C10H7+
128.0622	105	C10H8+
129.0698	5	C10H9+
131.0493	1	C9H7O+
132.9608	2	C5H3Cl2+
133.065	3	C9H9O+
143.0605	8	C9H7N2+
143.0732	3	C10H9N+
144.0809	28	C10H10N+
145.065	17	C10H9O+
155.0605	32	C10H7N2+
158.9764	999	C7H5Cl2+
170.0269	2	C7H8NO2S+
202.0779	5	C16H10+
203.0858	27	C16H11+
204.0936	17	C16H12+
237.0464	2	C16H10Cl+
238.0548	12	C16H11Cl+
239.0624	14	C16H12Cl+
246.0001	2	C14H8Cl2+
259.0079	13	C15H9Cl2+
273.023	2	C16H11Cl2+
274.0313	9	C16H12Cl2+
301.0295	1	C16H11Cl2N2+
