Mass spectrum: Progesterone; LC-ESI-QFT; MS2; CE: 75; R=17500; [M+H]+
Name: Progesterone
Name: (8S,9S,10R,13S,14S,17S)-17-acetyl-10,13-dimethyl-1,2,6,7,8,9,11,12,14,15,16,17-dodecahydrocyclopenta[a]phenanthren-3-one
Formula: C21H30O2
Exact mass: 314.2246
SMILES: CC(=O)[C@H]1CC[C@H]2[C@@H]3CCC4=CC(=O)CC[C@]4(C)[C@H]3CC[C@]12C
InChI: InChI=1S/C21H30O2/c1-13(22)17-6-7-18-16-5-4-14-12-15(23)8-10-20(14,2)19(16)9-11-21(17,18)3/h12,16-19H,4-11H2,1-3H3/t16-,17+,18-,19-,20-,21+/m0/s1
Instrument: Q Exactive Orbitrap (Thermo Scientific)
Instrument type: LC-ESI-QFT
Ms type: MS2
Ion mode: POSITIVE
Ionization: ESI
Fragmentation mode: HCD
Collision energy: 75
Resolution: 17500
Column name: Acquity BEH C18 1.7um, 2.1x150mm (Waters)
Retention time: 18.764 min
Base peak: 79.0211
Precursor m/z: 315.2319
Precursor type: [M+H]+
Precursor intensity: 5663065.125
m/z	relative intensity	assigned
53.0022	8	C3HO+
53.0386	21	C4H5+
55.0179	36	C3H3O+
55.0542	28	C4H7+
57.0335	5	C3H5O+
65.0386	12	C5H5+
66.0463	4	C5H6+
67.0542	97	C5H7+
69.0335	9	C4H5O+
69.0698	61	C5H9+
71.0491	15	C4H7O+
77.0385	3	C6H5+
79.0542	330	C6H7+
81.0699	287	C6H9+
83.0491	55	C5H7O+
83.0854	2	C6H11+
85.0648	8	C5H9O+
91.0542	107	C7H7+
93.0699	80	C7H9+
94.0413	10	C6H6O+
95.0492	36	C6H7O+
95.0855	83	C7H11+
97.0648	999	C6H9O+
103.0541	4	C8H7+
105.0699	89	C8H9+
107.0492	16	C7H7O+
107.0855	37	C8H11+
108.0568	4	C7H8O+
109.0648	919	C7H9O+
111.0803	3	C7H11O+
115.0542	5	C9H7+
117.0699	20	C9H9+
119.0855	51	C9H11+
121.0647	13	C8H9O+
121.1012	16	C9H13+
123.0804	105	C8H11O+
128.062	5	C10H8+
129.0698	16	C10H9+
130.0777	7	C10H10+
131.0855	43	C10H11+
133.1011	22	C10H13+
135.0805	2	C9H11O+
135.1168	5	C10H15+
137.0961	2	C9H13O+
141.0699	2	C11H9+
142.0775	7	C11H10+
143.0854	18	C11H11+
144.0933	6	C11H12+
145.1011	30	C11H13+
147.1168	13	C11H15+
148.0881	3	C10H12O+
149.0961	5	C10H13O+
149.1325	2	C11H17+
155.0856	6	C12H11+
156.0934	6	C12H12+
157.1013	14	C12H13+
158.1089	4	C12H14+
159.0807	1	C11H11O+
159.1169	14	C12H15+
161.1325	3	C12H17+
163.1118	6	C11H15O+
165.07	4	C13H9+
166.0772	2	C13H10+
167.0858	2	C13H11+
168.0932	3	C13H12+
169.1012	7	C13H13+
171.1167	9	C13H15+
173.1325	5	C13H17+
177.127	2	C12H17O+
181.1012	2	C14H13+
182.1092	1	C14H14+
183.1167	3	C14H15+
185.1322	3	C14H17+
187.148	1	C14H19+
195.1167	2	C15H15+
197.1326	3	C15H17+
199.1484	1	C15H19+
223.148	1	C17H19+
