Mass spectrum: Flutolanil; LC-ESI-QFT; MS2; CE: 45; R=17500; [M+H]+
Name: Flutolanil
Name: N-(3-propan-2-yloxyphenyl)-2-(trifluoromethyl)benzamide
Formula: C17H16F3NO2
Exact mass: 323.1133
SMILES: CC(C)OC1=CC(NC(=O)C2=C(C=CC=C2)C(F)(F)F)=CC=C1
InChI: InChI=1S/C17H16F3NO2/c1-11(2)23-13-7-5-6-12(10-13)21-16(22)14-8-3-4-9-15(14)17(18,19)20/h3-11H,1-2H3,(H,21,22)
Instrument: Q Exactive Orbitrap (Thermo Scientific)
Instrument type: LC-ESI-QFT
Ms type: MS2
Ion mode: POSITIVE
Ionization: ESI
Fragmentation mode: HCD
Collision energy: 45
Resolution: 17500
Column name: Acquity BEH C18 1.7um, 2.1x150mm (Waters)
Retention time: 17.455 min
Base peak: 79.0212
Precursor m/z: 324.1206
Precursor type: [M+H]+
Precursor intensity: 25026875
m/z	relative intensity	assigned
55.0178	4	C3H3O+
65.0385	42	C5H5+
68.997	1	C3HO2+
79.0178	1	C5H3O+
93.0333	6	C6H5O+
110.0362	1	C6H6O2+
111.044	84	C6H7O2+
130.0287	46	C8H4NO+
145.0259	1	C7H4F3+
162.055	1	C9H8NO2+
173.0208	74	C8H4F3O+
194.0602	2	C13H8NO+
195.0678	1	C13H9NO+
200.0504	2	C12H7FNO+
214.0663	7	C13H9FNO+
215.0741	1	C13H10FNO+
222.0546	5	C14H8NO2+
224.0505	1	C14H7FNO+
240.0659	4	C12H9F3NO+
242.061	999	C14H9FNO2+
262.0673	298	C14H10F2NO2+
284.1076	2	C17H15FNO2+
304.1147	3	C17H16F2NO2+
