Mass spectrum: 2,2`-(3-Chlorophenylimino)diethanol; LC-ESI-QFT; MS2; CE: 60; R=17500; [M+H]+
Name: 2,2'-(3-Chlorophenylimino)diethanol
Name: 3-Chloro-N,N-bis(2-hydroxyethyl)aniline
Name: 2-[3-chloro-N-(2-hydroxyethyl)anilino]ethanol
Formula: C10H14ClNO2
Exact mass: 215.0713
SMILES: OCCN(CCO)C1=CC(Cl)=CC=C1
InChI: InChI=1S/C10H14ClNO2/c11-9-2-1-3-10(8-9)12(4-6-13)5-7-14/h1-3,8,13-14H,4-7H2
Instrument: Q Exactive Orbitrap (Thermo Scientific)
Instrument type: LC-ESI-QFT
Ms type: MS2
Ion mode: POSITIVE
Ionization: ESI
Fragmentation mode: HCD
Collision energy: 60
Resolution: 17500
Column name: Acquity BEH C18 1.7um, 2.1x150mm (Waters)
Retention time: 15.559 min
Base peak: 79.0212
Precursor m/z: 216.0786
Precursor type: [M+H]+
Precursor intensity: 6923108.5
m/z	relative intensity	assigned
53.0386	1	C4H5+
77.0385	1	C6H5+
86.9997	1	C4H4Cl+
91.0542	16	C7H7+
92.0621	4	C7H8+
93.0574	12	C6H7N+
95.0491	4	C6H7O+
103.0542	10	C8H7+
104.0494	13	C7H6N+
110.9996	1	C6H4Cl+
112.0076	1	C6H5Cl+
113.0152	3	C6H6Cl+
117.0573	38	C8H7N+
118.0651	169	C8H8N+
119.073	376	C8H9N+
125.0151	2	C7H6Cl+
126.0105	3	C6H5ClN+
127.0183	7	C6H6ClN+
127.0307	1	C7H8Cl+
128.0262	22	C6H7ClN+
129.0099	7	C6H6ClO+
130.0652	45	C9H8N+
132.0808	130	C9H10N+
134.0599	1	C8H8NO+
137.0151	1	C8H6Cl+
138.0105	43	C7H5ClN+
139.0058	7	C9HNO+
140.0262	176	C7H7ClN+
143.0727	4	C10H9N+
144.0808	55	C10H10N+
145.0886	73	C10H11N+
151.0184	10	C8H6ClN+
152.0262	53	C8H7ClN+
153.0341	123	C8H8ClN+
154.0418	999	C8H9ClN+
155.0495	4	C8H10ClN+
162.0914	1	C10H12NO+
163.099	4	C10H13NO+
164.0261	9	C9H7ClN+
165.034	3	C9H8ClN+
171.0446	11	C8H10ClNO+
172.0523	12	C8H11ClNO+
174.0539	1	C10H8NO2+
178.0413	5	C10H9ClN+
180.0574	42	C10H11ClN+
198.068	63	C10H13ClNO+
216.0784	9	C10H15ClNO2+
