Mass spectrum: Benalaxyl; LC-ESI-QFT; MS2; CE: 30; R=17500; [M+H]+
Name: Benalaxyl
Name: methyl 2-(2,6-dimethyl-N-(2-phenylacetyl)anilino)propanoate
Formula: C20H23NO3
Exact mass: 325.1678
SMILES: COC(=O)C(C)N(C(=O)CC1=CC=CC=C1)C1=C(C)C=CC=C1C
InChI: InChI=1S/C20H23NO3/c1-14-9-8-10-15(2)19(14)21(16(3)20(23)24-4)18(22)13-17-11-6-5-7-12-17/h5-12,16H,13H2,1-4H3
Instrument: Q Exactive Orbitrap (Thermo Scientific)
Instrument type: LC-ESI-QFT
Ms type: MS2
Ion mode: POSITIVE
Ionization: ESI
Fragmentation mode: HCD
Collision energy: 30
Resolution: 17500
Column name: Acquity BEH C18 1.7um, 2.1x150mm (Waters)
Retention time: 18.580 min
Base peak: 79.0211
Precursor m/z: 326.1751
Precursor type: [M+H]+
Precursor intensity: 58947650.125
m/z	relative intensity	assigned
57.0698	1	C4H9+
77.0385	1	C6H5+
91.0542	370	C7H7+
120.081	1	C8H10N+
121.0886	101	C8H11N+
122.0963	14	C8H12N+
148.112	999	C10H14N+
208.1332	428	C12H18NO2+
266.1539	48	C18H20NO+
294.1489	18	C19H20NO2+
