Mass spectrum: Monobenzyl phthalate; LC-ESI-QFT; MS2; CE: 30; R=17500; [M-H]-
Name: Monobenzyl phthalate
Name: 2-phenylmethoxycarbonylbenzoic acid
Formula: C15H12O4
Exact mass: 256.0736
SMILES: OC(=O)C1=C(C=CC=C1)C(=O)OCC1=CC=CC=C1
InChI: InChI=1S/C15H12O4/c16-14(17)12-8-4-5-9-13(12)15(18)19-10-11-6-2-1-3-7-11/h1-9H,10H2,(H,16,17)
Instrument: Q Exactive Orbitrap (Thermo Scientific)
Instrument type: LC-ESI-QFT
Ms type: MS2
Ion mode: NEGATIVE
Ionization: ESI
Fragmentation mode: HCD
Collision energy: 30
Resolution: 17500
Column name: Acquity BEH C18 1.7um, 2.1x150mm (Waters)
Retention time: 16.658 min
Base peak: 429.0536
Precursor m/z: 255.0663
Precursor type: [M-H]-
Precursor intensity: 25198009.39258
m/z	relative intensity	assigned
59.0138	34	C2H3O2-
59.9853	4	CO3-
60.9932	5	CHO3-
65.0397	6	C5H5-
75.024	3	C6H3-
77.0395	12	C6H5-
93.0346	32	C6H5O-
103.0187	2	C7H3O-
105.0346	180	C7H5O-
107.0503	999	C7H7O-
108.0216	9	C6H4O2-
119.0139	4	C7H3O2-
121.0295	497	C7H5O2-
123.0452	82	C7H7O2-
125.0609	17	C7H9O2-
133.0294	2	C8H5O2-
147.0088	152	C8H3O3-
149.0244	40	C8H5O3-
151.04	21	C8H7O3-
165.0192	32	C8H5O4-
167.0863	5	C13H11-
180.0585	3	C13H8O-
181.066	15	C13H9O-
183.0817	209	C13H11O-
197.0601	2	C13H9O2-
211.0764	15	C14H11O2-
