Mass spectrum: Ilepatril; LC-ESI-QFT; MS2; CE: 60; R=17500; [M+H]+
Name: Ilepatril
Name: (4S,7S,12bR)-7-[[(2S)-2-acetylsulfanyl-3-methylbutanoyl]amino]-6-oxo-2,3,4,7,8,12b-hexahydro-1H-pyrido[2,1-a][2]benzazepine-4-carboxylic acid
Formula: C22H28N2O5S
Exact mass: 432.1719
SMILES: CC(C)[C@H](SC(C)=O)C(=O)N[C@H]1CC2=C(C=CC=C2)[C@H]2CCC[C@H](N2C1=O)C(O)=O
InChI: InChI=1S/C22H28N2O5S/c1-12(2)19(30-13(3)25)20(26)23-16-11-14-7-4-5-8-15(14)17-9-6-10-18(22(28)29)24(17)21(16)27/h4-5,7-8,12,16-19H,6,9-11H2,1-3H3,(H,23,26)(H,28,29)/t16-,17+,18-,19-/m0/s1
Instrument: Q Exactive Orbitrap (Thermo Scientific)
Instrument type: LC-ESI-QFT
Ms type: MS2
Ion mode: POSITIVE
Ionization: ESI
Fragmentation mode: HCD
Collision energy: 60
Resolution: 17500
Column name: Acquity BEH C18 1.7um, 2.1x150mm (Waters)
Retention time: 16.899 min
Base peak: 79.0212
Precursor m/z: 433.1792
Precursor type: [M+H]+
Precursor intensity: 8533283.625
m/z	relative intensity	assigned
53.0385	2	C4H5+
55.0542	74	C4H7+
56.0495	71	C3H6N+
57.0699	4	C4H9+
61.0108	1	C2H5S+
68.0494	8	C4H6N+
70.065	4	C4H8N+
74.0236	4	C2H4NO2+
80.0495	2	C5H6N+
82.0651	8	C5H8N+
89.0419	529	C4H9S+
91.0542	6	C7H7+
99.0262	1	C5H7S+
103.0542	1	C8H7+
105.0698	4	C8H9+
114.0549	4	C5H8NO2+
115.0541	7	C9H7+
117.0699	12	C9H9+
128.0623	4	C10H8+
128.0705	10	C6H10NO2+
129.0698	26	C10H9+
130.0651	19	C9H8N+
131.0525	118	C6H11OS+
131.0855	35	C10H11+
132.0807	9	C9H10N+
134.0635	1	C5H12NOS+
141.0698	151	C11H9+
142.0648	1	C10H8N+
143.0729	12	C10H9N+
143.0855	15	C11H11+
144.0807	8	C10H10N+
146.0964	58	C10H12N+
152.0619	2	C12H8+
153.0702	1	C12H9+
155.0852	5	C12H11+
156.0808	104	C11H10N+
157.0652	1	C11H9O+
157.0886	1	C11H11N+
157.1012	5	C12H13+
158.0964	231	C11H12N+
159.081	1	C11H11O+
160.0754	2	C10H10NO+
165.0702	3	C13H9+
167.0855	74	C13H11+
168.0807	5	C12H10N+
169.0887	6	C12H11N+
169.1011	27	C13H13+
170.0964	34	C12H12N+
172.1116	3	C12H14N+
180.081	3	C13H10N+
182.0965	244	C13H12N+
183.1037	5	C13H13N+
184.1121	999	C13H14N+
185.1199	7	C13H15N+
186.1277	56	C13H16N+
189.0783	2	C11H11NO2+
194.0966	13	C14H12N+
200.107	9	C13H14NO+
201.1387	21	C13H17N2+
202.1226	75	C13H16NO+
210.0912	2	C14H12NO+
211.1227	4	C14H15N2+
212.1069	23	C14H14NO+
216.0838	2	C13H14NS+
216.1018	28	C13H14NO2+
227.1181	2	C14H15N2O+
228.1019	189	C14H14NO2+
229.1333	15	C14H17N2O+
230.1175	333	C14H16NO2+
240.1021	1	C15H14NO2+
247.1438	7	C14H19N2O2+
301.1725	1	C18H25N2S+
317.1686	2	C18H25N2OS+
