Mass spectrum: Fenpyroximate (Z,E); LC-ESI-QFT; MS2; CE: 45; R=17500; [M+H]+
Name: Fenpyroximate (Z,E)
Name: tert-butyl 4-[[(1,3-dimethyl-5-phenoxypyrazol-4-yl)methylideneamino]oxymethyl]benzoate
Formula: C24H27N3O4
Exact mass: 421.2002
SMILES: CN1N=C(C)C(C=NOCC2=CC=C(C=C2)C(=O)OC(C)(C)C)=C1OC1=CC=CC=C1
InChI: InChI=1S/C24H27N3O4/c1-17-21(22(27(5)26-17)30-20-9-7-6-8-10-20)15-25-29-16-18-11-13-19(14-12-18)23(28)31-24(2,3)4/h6-15H,16H2,1-5H3
Instrument: Q Exactive Orbitrap (Thermo Scientific)
Instrument type: LC-ESI-QFT
Ms type: MS2
Ion mode: POSITIVE
Ionization: ESI
Fragmentation mode: HCD
Collision energy: 45
Resolution: 17500
Column name: Acquity BEH C18 1.7um, 2.1x150mm (Waters)
Retention time: 20.132 min
Base peak: 79.0211
Precursor m/z: 422.2074
Precursor type: [M+H]+
Precursor intensity: 17367596.17187
m/z	relative intensity	assigned
53.0386	1	C4H5+
54.0338	14	C3H4N+
55.0179	1	C3H3O+
55.0417	8	C3H5N+
56.0495	9	C3H6N+
57.0699	50	C4H9+
58.0287	4	C2H4NO+
59.0605	1	C2H7N2+
65.0385	7	C5H5+
66.0338	4	C4H4N+
66.0463	1	C5H6+
67.0178	1	C4H3O+
67.0289	1	C3H3N2+
67.0417	2	C4H5N+
68.0131	2	C3H2NO+
68.0369	19	C3H4N2+
68.0495	8	C4H6N+
69.0447	37	C3H5N2+
69.0572	2	C4H7N+
70.0287	3	C3H4NO+
71.0603	24	C3H7N2+
74.0963	1	C4H12N+
77.0387	6	C6H5+
79.0289	1	C4H3N2+
79.0416	1	C5H5N+
79.0542	5	C6H7+
80.0131	1	C4H2NO+
80.0494	3	C5H6N+
81.0447	100	C4H5N2+
82.0287	122	C4H4NO+
82.0525	10	C4H6N2+
83.0603	16	C4H7N2+
84.0444	7	C4H6NO+
90.0464	1	C7H6+
91.0416	20	C6H5N+
91.0542	23	C7H7+
92.0495	22	C6H6N+
92.0621	1	C7H8+
93.0447	4	C5H5N2+
93.0573	63	C6H7N+
94.0288	7	C5H4NO+
94.0413	26	C6H6O+
95.0491	8	C6H7O+
95.0603	50	C5H7N2+
96.0682	204	C5H8N2+
97.0396	33	C4H5N2O+
99.0553	14	C4H7N2O+
103.0541	3	C8H7+
104.0495	47	C7H6N+
105.0335	4	C7H5O+
105.0447	4	C6H5N2+
105.0574	4	C7H7N+
105.0697	1	C8H9+
106.0651	37	C7H8N+
107.024	10	C5H3N2O+
107.0491	66	C7H7O+
107.0731	7	C7H9N+
108.0442	3	C6H6NO+
108.0556	6	C5H6N3+
109.0396	28	C5H5N2O+
109.0522	4	C6H7NO+
110.0236	3	C5H4NO2+
110.0476	10	C5H6N2O+
110.0712	48	C5H8N3+
111.044	4	C6H7O2+
111.0553	40	C5H7N2O+
112.0631	9	C5H8N2O+
113.0709	39	C5H9N2O+
115.0544	5	C9H7+
116.0495	8	C8H6N+
117.0573	67	C8H7N+
118.0413	4	C8H6O+
118.0651	33	C8H8N+
119.0602	2	C7H7N2+
119.0728	2	C8H9N+
120.0444	6	C7H6NO+
120.0557	4	C6H6N3+
120.0808	3	C8H10N+
121.0395	3	C6H5N2O+
121.0634	6	C6H7N3+
121.076	32	C7H9N2+
122.0712	175	C6H8N3+
123.0552	95	C6H7N2O+
124.0505	22	C5H6N3O+
125.0598	1	C7H9O2+
125.0708	3	C6H9N2O+
127.0501	11	C5H7N2O2+
127.0546	1	C10H7+
128.0495	3	C9H6N+
128.0578	1	C5H8N2O2+
129.0572	13	C9H7N+
130.0651	73	C9H8N+
131.0494	1	C9H7O+
131.0604	8	C8H7N2+
131.073	18	C9H9N+
132.0445	28	C8H6NO+
132.0682	26	C8H8N2+
132.0808	3	C9H10N+
133.0284	12	C8H5O2+
133.0518	5	C8H7NO+
133.076	3	C8H9N2+
134.0598	6	C8H8NO+
135.044	432	C8H7O2+
136.0506	8	C6H6N3O+
137.0583	18	C6H7N3O+
138.0662	999	C6H8N3O+
139.0502	18	C6H7N2O2+
139.074	3	C6H9N3O+
141.0572	11	C10H7N+
141.0653	2	C6H9N2O2+
142.0525	7	C9H6N2+
142.0652	18	C10H8N+
143.0365	7	C9H5NO+
143.0604	21	C9H7N2+
143.0729	17	C10H9N+
144.0444	107	C9H6NO+
144.0684	7	C9H8N2+
144.0807	29	C10H10N+
145.052	8	C9H7NO+
145.0649	10	C10H9O+
145.076	102	C9H9N2+
146.0601	27	C9H8NO+
146.0838	40	C9H10N2+
147.0915	1	C9H11N2+
148.0756	2	C9H10NO+
149.0708	2	C8H9N2O+
154.0605	2	C6H8N3O2+
155.0491	56	C11H7O+
155.0603	37	C10H7N2+
155.0686	6	C6H9N3O2+
156.0448	1	C10H6NO+
156.0683	10	C10H8N2+
156.0806	2	C11H10N+
157.0526	11	C10H7NO+
157.0607	92	C6H9N2O3+
157.076	55	C10H9N2+
158.0599	11	C10H8NO+
158.0839	129	C10H10N2+
159.0678	173	C10H9NO+
159.0917	22	C10H11N2+
160.0396	6	C9H6NO2+
160.0756	7	C10H10NO+
160.0867	1	C9H10N3+
161.0472	1	C9H7NO2+
161.0709	3	C9H9N2O+
161.1078	1	C10H13N2+
162.0551	2	C9H8NO2+
163.0864	5	C9H11N2O+
165.0658	4	C8H9N2O2+
169.076	24	C11H9N2+
170.0601	61	C11H8NO+
170.0837	8	C11H10N2+
171.0554	14	C10H7N2O+
171.0684	8	C11H9NO+
171.0781	3	C10H9N3+
171.0917	23	C11H11N2+
172.0633	9	C10H8N2O+
172.0756	7	C11H10NO+
172.0867	12	C10H10N3+
173.0709	90	C10H9N2O+
174.0547	3	C10H8NO2+
174.0788	30	C10H10N2O+
174.1024	13	C10H12N3+
175.0624	1	C10H9NO2+
175.0865	3	C10H11N2O+
177.042	8	C9H7NO3+
183.0555	5	C11H7N2O+
184.0633	6	C11H8N2O+
184.0745	1	C12H10NO+
184.0868	2	C11H10N3+
185.071	27	C11H9N2O+
186.0549	19	C11H8NO2+
186.0786	5	C11H10N2O+
186.1026	108	C11H12N3+
187.05	2	C10H7N2O2+
187.0625	6	C11H9NO2+
187.0865	21	C11H11N2O+
187.1104	32	C11H13N3+
188.0706	4	C11H10NO2+
188.0818	9	C10H10N3O+
188.0939	6	C11H12N2O+
189.092	1	C12H13O2+
189.1023	29	C11H13N2O+
191.0815	7	C10H11N2O2+
196.0861	1	C12H10N3+
197.071	16	C12H9N2O+
198.0787	38	C12H10N2O+
198.1024	6	C12H12N3+
199.0741	19	C11H9N3O+
199.0865	64	C12H11N2O+
200.0818	65	C11H10N3O+
200.0936	5	C12H12N2O+
201.0659	2	C11H9N2O2+
201.1021	21	C12H13N2O+
202.0974	109	C11H12N3O+
203.0813	3	C11H11N2O2+
203.1054	6	C11H13N3O+
204.0661	1	C11H10NO3+
212.0822	6	C12H10N3O+
213.0895	5	C12H11N3O+
214.0974	551	C12H12N3O+
215.1053	333	C12H13N3O+
216.0772	5	C11H10N3O2+
216.1128	8	C12H14N3O+
230.0923	32	C12H12N3O2+
231.1002	183	C12H13N3O2+
232.1079	2	C12H14N3O2+
242.1047	3	C14H14N2O2+
256.1077	5	C14H14N3O2+
273.1103	1	C14H15N3O3+
335.1383	5	C20H19N2O3+
348.1335	1	C20H18N3O3+
366.1449	93	C20H20N3O4+
