Mass spectrum: 2-Naphthylamine; LC-ESI-QFT; MS2; CE: 90; R=17500; [M+H]+
Name: 2-Naphthylamine
Name: naphthalen-2-amine
Formula: C10H9N
Exact mass: 143.0735
SMILES: NC1=CC2=C(C=CC=C2)C=C1
InChI: InChI=1S/C10H9N/c11-10-6-5-8-3-1-2-4-9(8)7-10/h1-7H,11H2
Instrument: Q Exactive Orbitrap (Thermo Scientific)
Instrument type: LC-ESI-QFT
Ms type: MS2
Ion mode: POSITIVE
Ionization: ESI
Fragmentation mode: HCD
Collision energy: 90
Resolution: 17500
Column name: Acquity BEH C18 1.7um, 2.1x150mm (Waters)
Retention time: 12.165 min
Base peak: 79.0211
Precursor m/z: 144.0808
Precursor type: [M+H]+
Precursor intensity: 5440202.125
m/z	relative intensity	assigned
53.0386	38	C4H5+
63.0229	3	C5H3+
77.0384	18	C6H5+
91.0542	82	C7H7+
103.0542	272	C8H7+
104.0493	2	C7H6N+
115.0542	360	C9H7+
116.0496	6	C8H6N+
116.062	94	C9H8+
117.0699	403	C9H9+
126.0464	110	C10H6+
127.0542	844	C10H7+
128.062	104	C10H8+
143.073	999	C10H9N+
144.0808	491	C10H10N+
