Mass spectrum: 4-Nitrosodiphenylamine; LC-ESI-QFT; MS2; CE: 75; R=17500; [M-H]-
Name: 4-Nitrosodiphenylamine
Name: 4-nitroso-N-phenylaniline
Formula: C12H10N2O
Exact mass: 198.0793
SMILES: O=NC1=CC=C(NC2=CC=CC=C2)C=C1
InChI: InChI=1S/C12H10N2O/c15-14-12-8-6-11(7-9-12)13-10-4-2-1-3-5-10/h1-9,13H
Instrument: Q Exactive Orbitrap (Thermo Scientific)
Instrument type: LC-ESI-QFT
Ms type: MS2
Ion mode: NEGATIVE
Ionization: ESI
Fragmentation mode: HCD
Collision energy: 75
Resolution: 17500
Column name: Acquity BEH C18 1.7um, 2.1x150mm (Waters)
Retention time: 16.701 min
Base peak: 216.994
Precursor m/z: 197.072
Precursor type: [M-H]-
Precursor intensity: 3195414.761719
m/z	relative intensity	assigned
64.0193	21	C4H2N-
90.035	180	C6H4N-
94.0298	16	C5H4NO-
121.0407	22	C6H5N2O-
154.0663	18	C11H8N-
166.0663	999	C12H8N-
167.0746	29	C12H9N-
170.0612	305	C11H8NO-
183.069	47	C12H9NO-
197.0722	48	C12H9N2O-
