Mass spectrum: Forskolin; LC-ESI-QFT; MS2; CE: 15; R=17500; [M-H]-
Name: Forskolin
Name: [(3R,4aR,5S,6S,6aS,10S,10aR,10bS)-3-ethenyl-6,10,10b-trihydroxy-3,4a,7,7,10a-pentamethyl-1-oxo-5,6,6a,8,9,10-hexahydro-2H-benzo[f]chromen-5-yl] acetate
Formula: C22H34O7
Exact mass: 410.2305
SMILES: CC(=O)O[C@H]1[C@@H](O)[C@H]2C(C)(C)CC[C@H](O)[C@]2(C)[C@@]2(O)C(=O)C[C@@](C)(O[C@]12C)C=C
InChI: InChI=1S/C22H34O7/c1-8-19(5)11-14(25)22(27)20(6)13(24)9-10-18(3,4)16(20)15(26)17(28-12(2)23)21(22,7)29-19/h8,13,15-17,24,26-27H,1,9-11H2,2-7H3/t13-,15-,16-,17-,19-,20-,21+,22-/m0/s1
Instrument: Q Exactive Orbitrap (Thermo Scientific)
Instrument type: LC-ESI-QFT
Ms type: MS2
Ion mode: NEGATIVE
Ionization: ESI
Fragmentation mode: HCD
Collision energy: 15
Resolution: 17500
Column name: Acquity BEH C18 1.7um, 2.1x150mm (Waters)
Retention time: 17.494 min
Base peak: 307.0977
Precursor m/z: 409.2232
Precursor type: [M-H]-
Precursor intensity: 4810172.265625
m/z	relative intensity	assigned
57.0346	2	C3H5O-
59.0138	999	C2H3O2-
97.0658	3	C6H9O-
123.0451	8	C7H7O2-
125.0608	5	C7H9O2-
139.0402	7	C7H7O3-
139.0762	3	C8H11O2-
153.0919	8	C9H13O2-
179.1079	3	C11H15O2-
180.0791	8	C10H12O3-
191.0715	3	C11H11O3-
191.1441	3	C13H19O-
213.1131	3	C11H17O4-
232.1105	4	C14H16O3-
235.1336	5	C14H19O3-
257.1549	3	C17H21O2-
271.1704	15	C18H23O2-
273.1492	8	C17H21O3-
275.1657	41	C17H23O3-
281.1387	2	C15H21O5-
295.1702	3	C20H23O2-
313.1812	36	C20H25O3-
331.1916	67	C20H27O4-
349.2021	104	C20H29O5-
367.2126	106	C20H31O6-
409.2234	265	C22H33O7-
