Mass spectrum: N,N`-Dibutylthiourea; LC-ESI-QFT; MS2; CE: 45; R=17500; [M+H]+
Name: N,N'-Dibutylthiourea
Name: N,N'-dibutylcarbamimidothioic acid
Formula: C9H20N2S
Exact mass: 188.1347
SMILES: CCCCNC(=S)NCCCC
InChI: InChI=1S/C9H20N2S/c1-3-5-7-10-9(12)11-8-6-4-2/h3-8H2,1-2H3,(H2,10,11,12)
Instrument: Q Exactive Orbitrap (Thermo Scientific)
Instrument type: LC-ESI-QFT
Ms type: MS2
Ion mode: POSITIVE
Ionization: ESI
Fragmentation mode: HCD
Collision energy: 45
Resolution: 17500
Column name: Acquity BEH C18 1.7um, 2.1x150mm (Waters)
Retention time: 16.407 min
Base peak: 79.0211
Precursor m/z: 189.142
Precursor type: [M+H]+
Precursor intensity: 8593217.8125
m/z	relative intensity	assigned
55.0543	1	C4H7+
56.0495	7	C3H6N+
57.0699	641	C4H9+
58.0651	6	C3H8N+
59.9903	133	CH2NS+
74.0964	999	C4H12N+
96.0682	2	C5H8N2+
104.0494	3	C7H6N+
106.0651	2	C7H8N+
116.0529	105	C5H10NS+
117.0574	1	C8H7N+
118.0653	1	C8H8N+
120.0809	1	C8H10N+
130.0652	3	C9H8N+
131.0731	5	C9H9N+
132.0809	2	C9H10N+
146.084	5	C9H10N2+
147.0917	6	C9H11N2+
189.142	41	C9H21N2S+
