Mass spectrum: Flufenpyr-ethyl; LC-ESI-QFT; MS2; CE: 90; R=17500; [M+H]+
Name: Flufenpyr-ethyl
Formula: C16H13ClF4N2O4
Exact mass: 408.0500
SMILES: CCOC(=O)COC1=CC(N2N=CC(=C(C)C2=O)C(F)(F)F)=C(F)C=C1Cl
InChI: InChI=1S/C16H13ClF4N2O4/c1-3-26-14(24)7-27-13-5-12(11(18)4-10(13)17)23-15(25)8(2)9(6-22-23)16(19,20)21/h4-6H,3,7H2,1-2H3
Instrument: Q Exactive Orbitrap (Thermo Scientific)
Instrument type: LC-ESI-QFT
Ms type: MS2
Ion mode: POSITIVE
Ionization: ESI
Fragmentation mode: HCD
Collision energy: 90
Resolution: 17500
Column name: Acquity BEH C18 1.7um, 2.1x150mm (Waters)
Retention time: 18.118 min
Base peak: 79.0212
Precursor m/z: 409.0573
Precursor type: [M+H]+
Precursor intensity: 7501146.375
m/z	relative intensity	assigned
53.0023	35	C3HO+
54.0339	19	C3H4N+
55.0179	11	C3H3O+
57.0135	245	C3H2F+
62.0151	15	C5H2+
62.9631	36	CClO+
63.0229	109	C5H3+
64.0182	300	C4H2N+
66.0338	25	C4H4N+
66.9745	78	CHClF+
67.0416	17	C4H5N+
68.9947	89	CF3+
69.0135	13	C4H2F+
70.0087	14	C3HFN+
70.0213	34	C4H3F+
71.0291	59	C4H4F+
72.0245	13	C3H3FN+
72.9839	263	C3H2Cl+
74.0151	240	C6H2+
75.0041	234	C3HF2+
75.0229	52	C6H3+
76.0181	45	C5H2N+
77.0022	19	C5HO+
77.0198	47	C3H3F2+
78.0338	27	C5H4N+
79.0179	21	C5H3O+
81.0135	132	C5H2F+
81.0335	23	C5H5O+
82.0288	32	C4H4NO+
83.0292	586	C5H4F+
84.0244	16	C4H3FN+
84.9839	84	C4H2Cl+
85.0323	34	C4H4FN+
86.9633	131	C3ClO+
88.0119	10	C4H2F2+
88.0183	20	C6H2N+
89.0198	250	C4H3F2+
90.0339	37	C6H4N+
90.9745	144	C3HClF+
91.0178	12	C6H3O+
93.0135	101	C6H2F+
94.0214	86	C6H3F+
95.0102	31	C3H2F3+
96.0245	58	C5H3FN+
96.0369	33	C6H5F+
96.0445	28	C5H6NO+
96.984	112	C5H2Cl+
97.0084	11	C5H2FO+
98.04	21	C5H5FN+
98.9996	286	C5H4Cl+
99.0242	31	C5H4FO+
100.0182	54	C7H2N+
101.0198	491	C5H3F2+
102.0464	14	C8H6+
103.9825	11	C4H2ClF+
104.0131	22	C6H2NO+
104.0306	42	C4H4F2N+
104.0495	27	C7H6N+
104.9901	35	C4H3ClF+
106.0287	36	C6H4NO+
106.9695	12	C3HClFO+
107.0102	41	C4H2F3+
107.0292	54	C7H4F+
108.0244	259	C6H3FN+
108.984	907	C6H2Cl+
109.0323	271	C6H4FN+
110.04	37	C6H5FN+
111.0241	104	C6H4FO+
111.0478	11	C6H6FN+
111.995	9	C5H3ClN+
112.0318	41	C6H5FO+
112.9789	27	C5H2ClO+
113.0396	45	C6H6FO+
114.0106	14	C5H5ClN+
114.0151	223	C5H2F2N+
114.0349	87	C5H5FNO+
114.9744	11	C5HClF+
116.0307	257	C5H4F2N+
116.9902	999	C5H3ClF+
117.9979	19	C5H4ClF+
118.0289	33	C7H4NO+
119.0303	28	C5H5F2O+
120.0246	24	C7H3FN+
120.037	33	C8H5F+
120.0445	12	C7H6NO+
121.026	98	C5H4F3+
121.0322	33	C7H4FN+
121.0446	11	C8H6F+
122.0401	194	C7H5FN+
122.9994	13	C7H4Cl+
123.0242	18	C7H4FO+
123.0353	78	C6H4FN2+
123.0477	45	C7H6FN+
123.9949	223	C6H3ClN+
124.0193	33	C6H3FNO+
126.0104	16	C6H5ClN+
126.0152	20	C6H2F2N+
126.035	216	C6H5FNO+
126.9946	24	C6H4ClO+
127.0418	51	C9H5N+
128.0306	26	C6H4F2N+
128.0496	96	C9H6N+
128.9902	568	C6H3ClF+
129.998	73	C6H4ClF+
130.0527	17	C8H6N2+
130.9696	13	C5HClFO+
130.9934	12	C5H3ClFN+
132.0011	17	C5H4ClFN+
132.0253	203	C5H4F2NO+
132.9851	26	C5H3ClFO+
134.0212	63	C5H3F3N+
134.04	43	C8H5FN+
135.0291	22	C5H4F3N+
135.0479	72	C8H6FN+
135.9951	15	C7H3ClN+
136.0193	15	C7H3FNO+
136.0318	9	C8H5FO+
136.0435	42	C7H5FN2+
136.056	9	C8H7FN+
137.0271	44	C7H4FNO+
138.035	109	C7H5FNO+
139.0059	10	C6H4ClN2+
139.0184	7	C7H6ClN+
139.0299	7	C6H4FN2O+
140.0308	16	C7H4F2N+
140.0505	21	C7H7FNO+
141.026	72	C6H3F2N2+
141.9856	42	C6H2ClFN+
142.0054	39	C6H5ClNO+
142.0291	10	C6H7ClN2+
143.0058	40	C7H5ClF+
143.05	7	C7H8FO2+
144.0011	167	C6H4ClFN+
144.0255	76	C6H4F2NO+
144.9849	33	C6H3ClFO+
145.0092	126	C6H5ClFN+
145.0323	26	C9H4FN+
145.9931	19	C6H4ClFO+
146.0214	23	C2H9ClNO4+
146.0403	89	C9H5FN+
146.0527	79	C10H7F+
147.0007	75	C6H5ClFO+
147.0294	12	C2H10ClNO4+
147.0351	33	C8H4FN2+
147.048	72	C9H6FN+
147.0604	17	C10H8F+
148.0306	57	C12H4+
148.0369	50	C6H5F3N+
148.0557	216	C9H7FN+
149.0261	9	C11H3N+
149.0328	14	C2H5F4N2O+
149.0398	24	C9H6FO+
149.0512	8	C8H6FN2+
150.0103	9	C8H5ClN+
150.0349	43	C8H5FNO+
151.0296	8	C10H3N2+
151.0355	47	C9H5F2+
151.0428	75	C8H6FNO+
151.9901	19	C7H3ClNO+
152.0138	9	C7H5ClN2+
152.0307	83	C8H4F2N+
152.0506	33	C8H7FNO+
153.0383	26	C8H5F2N+
153.0449	79	C10H5N2+
154.0055	25	C7H5ClNO+
154.0291	20	C7H7ClN2+
154.0526	49	C10H6N2+
155.0604	541	C10H7N2+
156.0011	67	C7H4ClFN+
156.018	34	C5H4F4O+
156.0248	48	C4H6F2O4+
156.068	31	C10H8N2+
156.9856	76	C2F3N2O3+
156.9964	500	C6H3ClFN2+
158.0169	9	C7H6ClFN+
158.0402	89	C10H5FN+
159.0354	17	C9H4FN2+
159.0479	33	C10H6FN+
159.996	8	C6H4ClFNO+
160.0433	52	C9H5FN2+
161.0511	13	C9H6FN2+
162.0106	22	C9H5ClN+
162.0349	91	C9H5FNO+
163.0301	16	C8H4FN2O+
164.0012	37	C4H5ClF4+
164.025	11	C3H10ClFO4+
164.0314	99	C6H5F3NO+
164.0376	13	C8H5FN2O+
164.0503	36	C9H7FNO+
166.0292	7	C8H7ClN2+
166.0463	21	C9H6F2N+
167.0058	47	C9H5ClF+
168.0013	65	C8H4ClFN+
169.0089	35	C8H5ClFN+
169.026	91	C9H4F3+
170.0165	127	C8H6ClFN+
170.9883	48	C7H3ClFNO+
171.0122	12	C7H5ClFN2+
171.0553	29	C10H7N2O+
171.9957	61	C10HFO2+
172.0375	26	C4H11ClNO4+
173.0038	70	C7H5ClFNO+
173.051	485	C10H6FN2+
174.0351	65	C10H5FNO+
174.0589	254	C10H7FN2+
175.0173	8	C4H9ClFO4+
175.0353	47	C11H5F2+
175.0429	66	C10H6FNO+
175.0667	116	C10H8FN2+
176.0307	474	C4H7F3O4+
177.0385	165	C10H5F2N+
177.0465	8	C11H10Cl+
177.0585	12	C10H8FNO+
178.0054	10	C9H5ClNO+
178.0335	14	C9H4F2N2+
178.0464	19	C10H6F2N+
179.0429	95	C6H6F3N2O+
180.0255	25	C9H4F2NO+
181.04	29	C5H10ClF4+
182.0167	23	C6H5F3O3+
182.021	34	C3H8ClF3NO2+
182.0481	7	C5H11ClF4+
183.037	101	C10H9ClF+
183.0549	32	C11H7N2O+
183.9962	28	C8H4ClFNO+
184.0436	171	C11H5FN2+
185.004	27	C8H5ClFNO+
185.0275	13	C8H7ClFN2+
185.0515	34	C11H6FN2+
186.0117	38	C8H6ClFNO+
186.0423	21	C10H6N2O2+
186.0585	17	C11H7FN2+
187.0304	11	C10H4FN2O+
188.0392	11	C7H6F2N2O2+
188.0502	12	C11H7FNO+
189.0463	11	C12H10Cl+
190.006	14	C10H3FO3+
190.0207	17	C5H9ClF2O3+
190.0293	24	C10H7ClN2+
190.9872	13	C8H3ClF3+
191.0416	65	C10H5F2N2+
192.0011	124	C10H4ClFN+
192.0253	41	C10H4F2NO+
193.0088	25	C10H5ClFN+
194.0414	36	C10H6F2NO+
195.0121	21	C9H5ClFN2+
195.042	31	C7H12ClO4+
195.9961	95	C9H4ClFNO+
196.0369	193	C10H5F3N+
196.9913	33	C8H3ClFN2O+
197.0444	71	C10H6F3N+
197.9993	445	C8H4ClFN2O+
199.007	50	C8H5ClFN2O+
199.0481	36	C5H12ClN2O4+
201.0462	61	C11H6FN2O+
202.0538	258	C11H7FN2O+
203.0422	202	C8H6F3N2O+
203.0616	205	C11H8FN2O+
204.0494	461	C11H6F2N2+
205.033	42	C11H5F2NO+
205.0572	69	C11H7F2N2+
206.0415	18	C8H9ClF2N2+
207.0122	28	C10H5ClFN2+
207.0279	39	C2H10ClF4NO3+
208.019	16	C13H3FNO+
209.0036	16	C13H2FO2+
210.0129	31	C7H7ClF2NO2+
212.0066	41	C13H2F2O+
213.0459	13	C12H6FN2O+
214.0477	19	C7H10ClF3N2+
215.0017	24	C8H5ClFN2O2+
215.0423	15	C11H7N2O3+
216.0431	90	C10H6F4N+
217.016	22	C14H3NO2+
217.0397	8	C14H5N2O+
218.024	16	C11H7ClN2O+
220.038	24	C9H6F4NO+
221.0519	44	C11H7F2N2O+
222.0118	13	C11H6ClFNO+
222.0401	142	C7H11ClN2O4+
223.007	73	C10H5ClFN2O+
223.0478	559	C11H6F3N2+
224.0323	58	C8H8ClF3N2+
224.0555	139	C11H7F3N2+
225.0397	36	C11H6F3NO+
225.0633	21	C11H8F3N2+
225.9866	45	C10H3ClF2NO+
226.0272	49	C11H4F4N+
227.0333	29	C5H10ClF4NO2+
229.017	10	C12H4FNO3+
229.0387	57	C6H11ClFN2O4+
231.0369	70	C14H9ClF+
232.0133	25	C10H6ClF3N+
232.0441	21	C12H6F2N2O+
233.0517	15	C12H7F2N2O+
235.0479	27	C8H12ClN2O4+
236.015	49	C11H6ClFN2O+
237.0225	255	C11H7ClFN2O+
238.0104	44	C11H5ClF2N2+
239.0182	45	C11H6ClF2N2+
240.0022	56	C11H5ClF2NO+
241.058	8	C11H8F3N2O+
241.9979	25	C11H4ClF3N+
242.0459	23	C11H6F4N2+
243.0541	98	C11H7F4N2+
244.0378	11	C11H6F4NO+
244.985	7	C10H3ClF3NO+
245.9926	24	C10H4ClF3NO+
247.0069	27	C12H5ClFN2O+
251.0426	372	C12H6F3N2O+
253.0589	32	C14H12ClF2+
254.0464	18	C8H12ClFN2O4+
255.0538	21	C12H7F4N2+
257.0096	14	C11H3F4NO2+
257.0332	80	C11H5F4N2O+
259.0241	10	C14H4F3NO+
259.049	10	C11H7F4N2O+
264.9914	45	C10H4ClF4NO+
267.0131	49	C12H6ClF2N2O+
271.0487	256	C12H7F4N2O+
271.996	28	C11H4ClF3N2O+
273.0036	17	C11H5ClF3N2O+
275	8	C11H4ClF4N2+
283.0682	18	C16H9F2N2O+
284.0406	14	C12H7F3N2O3+
285.0038	24	C12H5ClF3N2O+
289.9993	9	C12H5ClF4NO+
292.0023	20	C11H5ClF4N2O+
299.044	12	C13H7F4N2O2+
303.0141	8	C12H7ClF3N2O2+
305.0098	21	C12H6ClF4N2O+
306.0177	7	C12H7ClF4N2O+
317.0099	24	C13H6ClF4N2O+
