Mass spectrum: SR125047; LC-ESI-QFT; MS2; CE: 60; R=17500; [M+H]+
Name: SR125047
Name: 1-[(2Z)-3-(2-Chloro-3'-methoxybiphenyl-4-yl)prop-2-en-1-yl]azepane
Name: 1-[(Z)-3-[3-chloro-4-(3-methoxyphenyl)phenyl]prop-2-enyl]azepane
Formula: C22H26ClNO
Exact mass: 355.1703
SMILES: COc1cccc(-c2ccc(/C=C\CN3CCCCCC3)cc2Cl)c1
InChI: InChI=1S/C22H26ClNO/c1-25-20-10-6-9-19(17-20)21-12-11-18(16-22(21)23)8-7-15-24-13-4-2-3-5-14-24/h6-12,16-17H,2-5,13-15H2,1H3/b8-7-
Instrument: Q Exactive Orbitrap (Thermo Scientific)
Instrument type: LC-ESI-QFT
Ms type: MS2
Ion mode: POSITIVE
Ionization: ESI
Fragmentation mode: HCD
Collision energy: 60
Resolution: 17500
Column name: Acquity BEH C18 1.7um, 2.1x150mm (Waters)
Retention time: 15.993 min
Base peak: 79.0212
Precursor m/z: 356.1776
Precursor type: [M+H]+
Precursor intensity: 24098839
m/z	relative intensity	assigned
55.0178	2	C3H3O+
56.0495	1	C3H6N+
98.0964	27	C6H12N+
100.1122	4	C6H14N+
104.062	1	C8H8+
107.0491	9	C7H7O+
115.0542	2	C9H7+
128.062	2	C10H8+
129.0696	2	C10H9+
130.0412	1	C9H6O+
131.049	1	C9H7O+
145.0645	1	C10H9O+
149.0153	4	C9H6Cl+
151.0545	1	C12H7+
152.0618	4	C12H8+
153.0699	2	C12H9+
154.0777	2	C12H10+
165.0698	34	C13H9+
166.0776	15	C13H10+
167.0852	1	C13H11+
176.0622	2	C14H8+
177.0696	2	C14H9+
178.0776	81	C14H10+
179.0854	322	C14H11+
181.0648	7	C13H9O+
182.0727	1	C13H10O+
186.023	14	C12H7Cl+
187.0309	1	C12H8Cl+
189.0467	2	C12H10Cl+
189.0698	24	C15H9+
190.0777	57	C15H10+
191.0855	119	C15H11+
192.0932	47	C15H12+
193.1011	48	C15H13+
194.0726	49	C14H10O+
194.1089	59	C15H14+
195.0804	8	C14H11O+
199.0308	61	C13H8Cl+
200.0386	1	C13H9Cl+
201.0466	26	C13H10Cl+
202.0774	6	C16H10+
203.0854	14	C16H11+
204.0933	7	C16H12+
205.0647	13	C15H9O+
205.1008	8	C16H13+
206.0727	63	C15H10O+
207.0804	854	C15H11O+
208.0889	1	C12H15ClN+
212.0386	6	C14H9Cl+
213.0466	2	C14H10Cl+
214.018	24	C13H7ClO+
214.0544	10	C14H11Cl+
215.0256	7	C13H8ClO+
216.0335	1	C13H9ClO+
217.0414	9	C13H10ClO+
219.0803	2	C16H11O+
220.0883	2	C16H12O+
221.0961	252	C16H13O+
222.1038	999	C16H14O+
225.0464	19	C15H10Cl+
226.0543	12	C15H11Cl+
227.0257	38	C14H8ClO+
227.0368	4	C16H5NO+
227.0613	3	C15H12Cl+
228.0333	2	C14H9ClO+
229.0413	146	C14H10ClO+
229.0772	8	C15H14Cl+
241.0412	7	C15H10ClO+
242.0491	132	C15H11ClO+
255.0573	2	C16H12ClO+
257.0725	7	C16H14ClO+
