Mass spectrum: (-)-Epigallocatechin gallate; LC-ESI-QFT; MS2; CE: 60; R=17500; [M-H]-
Name: (-)-Epigallocatechin gallate
Name: [(2R,3R)-5,7-dihydroxy-2-(3,4,5-trihydroxyphenyl)-3,4-dihydro-2H-chromen-3-yl] 3,4,5-trihydroxybenzoate
Formula: C22H18O11
Exact mass: 458.0849
SMILES: OC1=CC(O)=C2C[C@@H](OC(=O)C3=CC(O)=C(O)C(O)=C3)[C@H](OC2=C1)C1=CC(O)=C(O)C(O)=C1
InChI: InChI=1S/C22H18O11/c23-10-5-12(24)11-7-18(33-22(31)9-3-15(27)20(30)16(28)4-9)21(32-17(11)6-10)8-1-13(25)19(29)14(26)2-8/h1-6,18,21,23-30H,7H2/t18-,21-/m1/s1
Instrument: Q Exactive Orbitrap (Thermo Scientific)
Instrument type: LC-ESI-QFT
Ms type: MS2
Ion mode: NEGATIVE
Ionization: ESI
Fragmentation mode: HCD
Collision energy: 60
Resolution: 17500
Column name: Acquity BEH C18 1.7um, 2.1x150mm (Waters)
Retention time: 11.181 min
Base peak: 266.1186
Precursor m/z: 457.0776
Precursor type: [M-H]-
Precursor intensity: 1139341.89502
m/z	relative intensity	assigned
57.0345	54	C3H5O-
67.0189	7	C4H3O-
69.0346	38	C4H5O-
79.0189	3	C5H3O-
81.0347	21	C5H5O-
83.014	16	C4H3O2-
95.0139	13	C5H3O2-
95.0503	4	C6H7O-
97.0296	43	C5H5O2-
105.0347	19	C7H5O-
107.0138	20	C6H3O2-
109.0294	18	C6H5O2-
121.0296	6	C7H5O2-
123.0087	10	C6H3O3-
124.0166	10	C6H4O3-
125.0244	999	C6H5O3-
133.0294	5	C8H5O2-
137.0242	27	C7H5O3-
139.0401	16	C7H7O3-
149.0248	5	C8H5O3-
149.0609	3	C9H9O2-
151.0397	5	C8H7O3-
161.0244	28	C9H5O3-
164.0115	8	C8H4O4-
165.0194	15	C8H5O4-
167.035	12	C8H7O4-
169.0142	127	C7H5O5-
177.0558	9	C10H9O3-
179.0346	3	C9H7O4-
193.0145	14	C9H5O5-
