Mass spectrum: Fadrozole; LC-ESI-QFT; MS2; CE: 45; R=17500; [M+H]+
Name: Fadrozole
Name: 4-(5,6,7,8-tetrahydroimidazo[1,5-a]pyridin-5-yl)benzonitrile
Formula: C14H13N3
Exact mass: 223.1109
SMILES: N#CC1=CC=C(C=C1)C1CCCC2=CN=CN12
InChI: InChI=1S/C14H13N3/c15-8-11-4-6-12(7-5-11)14-3-1-2-13-9-16-10-17(13)14/h4-7,9-10,14H,1-3H2
Instrument: Q Exactive Orbitrap (Thermo Scientific)
Instrument type: LC-ESI-QFT
Ms type: MS2
Ion mode: POSITIVE
Ionization: ESI
Fragmentation mode: HCD
Collision energy: 45
Resolution: 17500
Column name: Acquity BEH C18 1.7um, 2.1x150mm (Waters)
Retention time: 10.622 min
Base peak: 79.0211
Precursor m/z: 224.1182
Precursor type: [M+H]+
Precursor intensity: 16987203.0625
m/z	relative intensity	assigned
54.0338	5	C3H4N+
68.0495	1	C4H6N+
69.0446	13	C3H5N2+
81.0447	561	C4H5N2+
82.0525	426	C4H6N2+
83.0603	4	C4H7N2+
93.0698	1	C7H9+
95.0603	38	C5H7N2+
107.0602	3	C6H7N2+
108.0681	49	C6H8N2+
116.0494	27	C8H6N+
121.076	7	C7H9N2+
129.0698	8	C10H9+
130.065	8	C9H8N+
142.0651	9	C10H8N+
156.0807	21	C11H10N+
182.0719	2	C11H8N3+
196.0868	1	C12H10N3+
197.1075	2	C13H13N2+
224.1181	999	C14H14N3+
