Mass spectrum: Haloxyfop; LC-ESI-QFT; MS2; CE: 45; R=17500; [M-H]-
Name: Haloxyfop
Name: 2-[4-[3-chloro-5-(trifluoromethyl)pyridin-2-yl]oxyphenoxy]propanoic acid
Formula: C15H11ClF3NO4
Exact mass: 361.0329
SMILES: CC(OC1=CC=C(OC2=NC=C(C=C2Cl)C(F)(F)F)C=C1)C(O)=O
InChI: InChI=1S/C15H11ClF3NO4/c1-8(14(21)22)23-10-2-4-11(5-3-10)24-13-12(16)6-9(7-20-13)15(17,18)19/h2-8H,1H3,(H,21,22)
Instrument: Q Exactive Orbitrap (Thermo Scientific)
Instrument type: LC-ESI-QFT
Ms type: MS2
Ion mode: NEGATIVE
Ionization: ESI
Fragmentation mode: HCD
Collision energy: 45
Resolution: 17500
Column name: Acquity BEH C18 1.7um, 2.1x150mm (Waters)
Retention time: 18.614 min
Base peak: 360.0257
Precursor m/z: 360.0256
Precursor type: [M-H]-
Precursor intensity: 17015408.99219
m/z	relative intensity	assigned
69.0346	14	C4H5O-
71.0139	762	C3H3O2-
97.0296	5	C5H5O2-
108.0217	304	C6H4O2-
162.0172	96	C6H3F3NO-
170.0223	21	C8H3F3N-
179.9834	516	C6H2ClF3N-
184.0205	21	C11H3FNO-
195.9782	515	C6H2ClF3NO-
196.0381	58	C10H5F3N-
197.0218	25	C10H4F3O-
197.9939	87	C6H4ClF3NO-
204.0264	35	C11H4F2NO-
208.0378	41	C11H5F3N-
212.0155	4	C12H3FNO2-
213.072	11	C14H10FO-
214.0488	16	C10H7F3NO-
223.9734	17	C7H2ClF3NO2-
224.0329	150	C11H5F3NO-
232.0214	58	C12H4F2NO2-
242.0438	27	C11H7F3NO2-
252.0278	999	C12H5F3NO2-
253.0356	39	C12H6F3NO2-
288.0045	396	C12H6ClF3NO2-
