Mass spectrum: 1-Dodecyl-2-pyrrolidinone; LC-ESI-QFT; MS2; CE: 15; R=17500; [M+H]+
Name: 1-Dodecyl-2-pyrrolidinone
Name: 1-dodecylpyrrolidin-2-one
Formula: C16H31NO
Exact mass: 253.2406
SMILES: CCCCCCCCCCCCN1CCCC1=O
InChI: InChI=1S/C16H31NO/c1-2-3-4-5-6-7-8-9-10-11-14-17-15-12-13-16(17)18/h2-15H2,1H3
Instrument: Q Exactive Orbitrap (Thermo Scientific)
Instrument type: LC-ESI-QFT
Ms type: MS2
Ion mode: POSITIVE
Ionization: ESI
Fragmentation mode: HCD
Collision energy: 15
Resolution: 17500
Column name: Acquity BEH C18 1.7um, 2.1x150mm (Waters)
Retention time: 20.681 min
Base peak: 79.0211
Precursor m/z: 254.2478
Precursor type: [M+H]+
Precursor intensity: 39407399.98438
m/z	relative intensity	assigned
86.0598	1	C4H8NO+
254.2475	999	C16H32NO+
