Mass spectrum: Prochloraz; LC-ESI-QFT; MS2; CE: 75; R=17500; [M+H]+
Name: Prochloraz
Name: N-propyl-N-[2-(2,4,6-trichlorophenoxy)ethyl]imidazole-1-carboxamide
Formula: C15H16Cl3N3O2
Exact mass: 375.0308
SMILES: CCCN(CCOC1=C(Cl)C=C(Cl)C=C1Cl)C(=O)N1C=CN=C1
InChI: InChI=1S/C15H16Cl3N3O2/c1-2-4-20(15(22)21-5-3-19-10-21)6-7-23-14-12(17)8-11(16)9-13(14)18/h3,5,8-10H,2,4,6-7H2,1H3
Instrument: Q Exactive Orbitrap (Thermo Scientific)
Instrument type: LC-ESI-QFT
Ms type: MS2
Ion mode: POSITIVE
Ionization: ESI
Fragmentation mode: HCD
Collision energy: 75
Resolution: 17500
Column name: Acquity BEH C18 1.7um, 2.1x150mm (Waters)
Retention time: 18.455 min
Base peak: 79.0211
Precursor m/z: 376.0381
Precursor type: [M+H]+
Precursor intensity: 11298815.5
m/z	relative intensity	assigned
53.0023	70	C3HO+
56.0495	428	C3H6N+
57.0574	40	C3H7N+
60.0445	31	C2H6NO+
70.0287	999	C3H4NO+
70.0651	814	C4H8N+
123.0242	93	C10H3+
132.9607	210	C5H3Cl2+
142.9451	73	C6HCl2+
158.9765	116	C7H5Cl2+
160.9556	101	C6H3Cl2O+
161.9633	243	C6H4Cl2O+
166.9217	370	C5H2Cl3+
178.9218	109	C6H2Cl3+
179.9298	78	C6H3Cl3+
194.917	124	C6H2Cl3O+
196.9326	50	C6H4Cl3O+
206.928	496	C6H2Cl3N2+
222.9488	38	C8H6Cl3O+
