Mass spectrum: Chloridazon; LC-ESI-QFT; MS2; CE: 45; R=17500; [M+H]+
Name: Chloridazon
Name: 5-amino-4-chloro-2-phenylpyridazin-3-one
Formula: C10H8ClN3O
Exact mass: 221.0356
SMILES: NC1=C(Cl)C(=O)N(N=C1)C1=CC=CC=C1
InChI: InChI=1S/C10H8ClN3O/c11-9-8(12)6-13-14(10(9)15)7-4-2-1-3-5-7/h1-6H,12H2
Instrument: Q Exactive Orbitrap (Thermo Scientific)
Instrument type: LC-ESI-QFT
Ms type: MS2
Ion mode: POSITIVE
Ionization: ESI
Fragmentation mode: HCD
Collision energy: 45
Resolution: 17500
Column name: Acquity BEH C18 1.7um, 2.1x150mm (Waters)
Retention time: 13.186 min
Base peak: 79.0211
Precursor m/z: 222.0429
Precursor type: [M+H]+
Precursor intensity: 13333442.8125
m/z	relative intensity	assigned
53.0386	6	C4H5+
55.0291	3	C2H3N2+
63.9948	3	CH3ClN+
65.0386	9	C5H5+
67.029	1	C3H3N2+
73.0396	1	C2H5N2O+
75.9948	2	C2H3ClN+
77.0387	5	C6H5+
83.024	5	C3H3N2O+
87.9948	3	C3H3ClN+
91.0058	1	C2H4ClN2+
92.0495	117	C6H6N+
93.0574	3	C6H7N+
94.0651	48	C6H8N+
95.0491	20	C6H7O+
100.9901	4	C3H2ClN2+
101.9742	1	C3HClNO+
104.0495	244	C7H6N+
105.0447	10	C6H5N2+
119.0009	1	C3H4ClN2O+
119.0604	4	C7H7N2+
120.0444	1	C7H6NO+
128.985	36	C4H2ClN2O+
130.065	3	C9H8N+
131.0604	1	C8H7N2+
132.0444	2	C8H6NO+
140.0497	1	C10H6N+
141.0572	2	C10H7N+
142.0526	1	C9H6N2+
143.0605	1	C9H7N2+
146.0116	23	C4H5ClN3O+
149.0152	6	C9H6Cl+
150.011	2	C8H5ClN+
158.0714	1	C9H8N3+
159.0553	6	C9H7N2O+
159.0792	1	C9H9N3+
166.0053	1	C8H5ClNO+
176.0264	4	C10H7ClN+
177.0211	3	C9H6ClN2+
178.0056	1	C9H5ClNO+
186.0662	15	C10H8N3O+
187.0738	1	C10H9N3O+
193.029	17	C10H8ClNO+
194.0368	8	C10H9ClNO+
195.032	3	C9H8ClN2O+
205.0163	9	C10H6ClN2O+
222.0429	999	C10H9ClN3O+
