Mass spectrum: Phenethyl anthranilate; LC-ESI-QFT; MS2; CE: 45; R=17500; [M+H]+
Name: Phenethyl anthranilate
Name: 2-phenylethyl 2-aminobenzoate
Formula: C15H15NO2
Exact mass: 241.1103
SMILES: NC1=CC=CC=C1C(=O)OCCC1=CC=CC=C1
InChI: InChI=1S/C15H15NO2/c16-14-9-5-4-8-13(14)15(17)18-11-10-12-6-2-1-3-7-12/h1-9H,10-11,16H2
Instrument: Q Exactive Orbitrap (Thermo Scientific)
Instrument type: LC-ESI-QFT
Ms type: MS2
Ion mode: POSITIVE
Ionization: ESI
Fragmentation mode: HCD
Collision energy: 45
Resolution: 17500
Column name: Acquity BEH C18 1.7um, 2.1x150mm (Waters)
Retention time: 18.603 min
Base peak: 79.0211
Precursor m/z: 242.1176
Precursor type: [M+H]+
Precursor intensity: 10700221.10938
m/z	relative intensity	assigned
57.0699	9	C4H9+
79.0542	32	C6H7+
91.0542	50	C7H7+
92.0494	4	C6H6N+
95.0491	4	C6H7O+
100.112	19	C6H14N+
103.0542	18	C8H7+
105.0699	999	C8H9+
106.0651	4	C7H8N+
107.0491	21	C7H7O+
118.0651	45	C8H8N+
120.0444	88	C7H6NO+
133.0523	4	C8H7NO+
146.0599	15	C9H8NO+
178.0775	5	C14H10+
179.0856	6	C14H11+
194.0966	7	C14H12N+
196.112	22	C14H14N+
206.0964	150	C15H12N+
224.107	58	C15H14NO+
