Mass spectrum: {4-[({2-[3-Fluoro-4-(trifluoromethyl)phenyl]-4-methyl-1,3-thiazol-5-yl}methyl)sulfanyl]-2-methylphenoxy}acetic acid; LC-ESI-QFT; MS2; CE: 60; R=17500; [M+H]+
Name: {4-[({2-[3-Fluoro-4-(trifluoromethyl)phenyl]-4-methyl-1,3-thiazol-5-yl}methyl)sulfanyl]-2-methylphenoxy}acetic acid
Name: GW0742
Name: 2-[4-[[2-[3-fluoro-4-(trifluoromethyl)phenyl]-4-methyl-1,3-thiazol-5-yl]methylsulfanyl]-2-methylphenoxy]acetic acid
Formula: C21H17F4NO3S2
Exact mass: 471.0586
SMILES: CC1=C(CSC2=CC(C)=C(OCC(O)=O)C=C2)SC(=N1)C1=CC=C(C(F)=C1)C(F)(F)F
InChI: InChI=1S/C21H17F4NO3S2/c1-11-7-14(4-6-17(11)29-9-19(27)28)30-10-18-12(2)26-20(31-18)13-3-5-15(16(22)8-13)21(23,24)25/h3-8H,9-10H2,1-2H3,(H,27,28)
Instrument: Q Exactive Orbitrap (Thermo Scientific)
Instrument type: LC-ESI-QFT
Ms type: MS2
Ion mode: POSITIVE
Ionization: ESI
Fragmentation mode: HCD
Collision energy: 60
Resolution: 17500
Column name: Acquity BEH C18 1.7um, 2.1x150mm (Waters)
Retention time: 20.126 min
Base peak: 79.0211
Precursor m/z: 472.0659
Precursor type: [M+H]+
Precursor intensity: 5603714.5
m/z	relative intensity	assigned
53.0022	1	C3HO+
53.0386	3	C4H5+
57.9872	1	C2H2S+
58.9949	5	C2H3S+
68.0496	1	C4H6N+
69.9872	7	C3H2S+
70.995	282	C3H3S+
74.0965	1	C4H12N+
85.0106	164	C4H5S+
86.0185	108	C4H6S+
98.006	1	C4H4NS+
112.0216	4	C5H6NS+
116.9828	2	C4H5S2+
122.0401	1	C7H5FN+
139.0212	15	C7H7OS+
165.0169	72	C3H5F4O3+
172.0556	2	C11H7FN+
173.0637	3	C11H8FN+
190.0275	32	C8H4F4N+
190.04	18	C9H6F4+
195.0417	1	C11H6F3+
201.0322	55	C10H5F4+
206.0434	557	C11H9FNS+
206.9885	24	C8H3F4S+
208.0379	7	C8H6F4NO+
216.043	15	C10H6F4N+
217.0512	10	C10H7F4N+
222.0535	9	C9H8F4NO+
233.0042	31	C10H5F4S+
234.0115	4	C12H7FO2S+
242.0587	53	C12H8F4N+
254.0244	3	C12H7F3NS+
255.0324	2	C12H8F3NS+
256.0406	10	C14H7FNO3+
260.0152	10	C11H6F4NS+
274.0308	629	C12H8F4NS+
275.0385	999	C12H9F4NS+
