Mass spectrum: 5,6-Benzoflavone; LC-ESI-QFT; MS2; CE: 45; R=17500; [M+H]+
Name: 5,6-Benzoflavone
Name: beta-Naphthoflavone
Name: 3-phenylbenzo[f]chromen-1-one
Formula: C19H12O2
Exact mass: 272.0837
SMILES: O=C1C=C(OC2=C1C1=C(C=CC=C1)C=C2)C1=CC=CC=C1
InChI: InChI=1S/C19H12O2/c20-16-12-18(14-7-2-1-3-8-14)21-17-11-10-13-6-4-5-9-15(13)19(16)17/h1-12H
Instrument: Q Exactive Orbitrap (Thermo Scientific)
Instrument type: LC-ESI-QFT
Ms type: MS2
Ion mode: POSITIVE
Ionization: ESI
Fragmentation mode: HCD
Collision energy: 45
Resolution: 17500
Column name: Acquity BEH C18 1.7um, 2.1x150mm (Waters)
Retention time: 19.542 min
Base peak: 79.0211
Precursor m/z: 273.091
Precursor type: [M+H]+
Precursor intensity: 22228819.4375
m/z	relative intensity	assigned
103.0542	12	C8H7+
105.0335	3	C7H5O+
115.0542	15	C9H7+
127.0548	2	C10H7+
129.0334	39	C9H5O+
143.0491	13	C10H7O+
145.0647	4	C10H9O+
161.0593	1	C10H9O2+
171.044	45	C11H7O2+
202.0777	10	C16H10+
215.0851	2	C17H11+
216.0927	1	C17H12+
217.1011	23	C17H13+
227.0854	3	C18H11+
228.0935	3	C18H12+
229.1009	1	C18H13+
245.0957	3	C18H13O+
272.0839	1	C19H12O2+
273.0908	999	C19H13O2+
