Mass spectrum: Chrysin; LC-ESI-QFT; MS2; CE: 45; R=17500; [M-H]-
Name: Chrysin
Name: 5,7-dihydroxy-2-phenylchromen-4-one
Formula: C15H10O4
Exact mass: 254.0579
SMILES: OC1=CC2=C(C(O)=C1)C(=O)C=C(O2)C1=CC=CC=C1
InChI: InChI=1S/C15H10O4/c16-10-6-11(17)15-12(18)8-13(19-14(15)7-10)9-4-2-1-3-5-9/h1-8,16-17H
Instrument: Q Exactive Orbitrap (Thermo Scientific)
Instrument type: LC-ESI-QFT
Ms type: MS2
Ion mode: NEGATIVE
Ionization: ESI
Fragmentation mode: HCD
Collision energy: 45
Resolution: 17500
Column name: Acquity BEH C18 1.7um, 2.1x150mm (Waters)
Retention time: 17.836 min
Base peak: 253.0506
Precursor m/z: 253.0506
Precursor type: [M-H]-
Precursor intensity: 56421351.60352
m/z	relative intensity	assigned
63.024	95	C5H3-
65.0033	39	C4HO-
79.019	2	C5H3O-
83.0138	2	C4H3O2-
89.0033	9	C6HO-
101.0397	5	C8H5-
107.0138	68	C6H3O2-
115.0552	3	C9H7-
117.0345	1	C8H5O-
119.0502	13	C8H7O-
121.0295	4	C7H5O2-
131.0139	1	C8H3O2-
139.0554	5	C11H7-
141.071	2	C11H9-
143.0502	83	C10H7O-
145.0295	33	C9H5O2-
148.0166	5	C8H4O3-
151.0037	23	C7H3O4-
152.0631	1	C12H8-
153.071	5	C12H9-
155.0503	3	C11H7O-
157.0659	3	C11H9O-
165.0709	23	C13H9-
167.0502	16	C12H7O-
169.0659	1	C12H9O-
180.0581	21	C13H8O-
181.066	34	C13H9O-
183.0451	8	C12H7O2-
185.0608	27	C12H9O2-
187.04	7	C11H7O3-
197.0607	5	C13H9O2-
208.0531	6	C14H8O2-
209.0608	103	C14H9O2-
211.0401	25	C13H7O3-
224.048	1	C14H8O3-
225.0558	11	C14H9O3-
253.0506	999	C15H9O4-
