Mass spectrum: CI-1044; LC-ESI-QFT; MS2; CE: 75; R=17500; [M+H]+
Name: CI-1044
Name: N-[(11R)-6-amino-12-oxo-9-phenyl-1,10-diazatricyclo[6.4.1.04,13]trideca-4(13),5,7,9-tetraen-11-yl]pyridine-3-carboxamide
Formula: C23H19N5O2
Exact mass: 397.1539
SMILES: NC1=CC2=C3N(CCC3=C1)C(=O)[C@H](NC(=O)C1=CC=CN=C1)N=C2C1=CC=CC=C1
InChI: InChI=1S/C23H19N5O2/c24-17-11-15-8-10-28-20(15)18(12-17)19(14-5-2-1-3-6-14)26-21(23(28)30)27-22(29)16-7-4-9-25-13-16/h1-7,9,11-13,21H,8,10,24H2,(H,27,29)/t21-/m0/s1
Instrument: Q Exactive Orbitrap (Thermo Scientific)
Instrument type: LC-ESI-QFT
Ms type: MS2
Ion mode: POSITIVE
Ionization: ESI
Fragmentation mode: HCD
Collision energy: 75
Resolution: 17500
Column name: Acquity BEH C18 1.7um, 2.1x150mm (Waters)
Retention time: 12.998 min
Base peak: 79.0211
Precursor m/z: 398.1612
Precursor type: [M+H]+
Precursor intensity: 5575434.25
m/z	relative intensity	assigned
78.0339	13	C5H4N+
80.0495	1	C5H6N+
91.0543	28	C7H7+
96.0444	5	C5H6NO+
104.0494	9	C7H6N+
106.0288	6	C6H4NO+
110.0602	1	C6H8NO+
116.0495	8	C8H6N+
117.0573	11	C8H7N+
118.0651	33	C8H8N+
123.0553	1	C6H7N2O+
128.0495	36	C9H6N+
129.0445	1	C8H5N2+
131.0604	6	C8H7N2+
132.0682	18	C8H8N2+
133.0764	1	C8H9N2+
134.0602	3	C8H8NO+
136.0757	3	C8H10NO+
143.0604	17	C9H7N2+
144.0684	6	C9H8N2+
145.0761	217	C9H9N2+
146.0602	5	C9H8NO+
153.0448	8	C10H5N2+
155.0603	3	C10H7N2+
156.0556	1	C9H6N3+
161.071	1	C9H9N2O+
167.0856	1	C13H11+
170.0713	38	C10H8N3+
171.0552	1	C10H7N2O+
171.0792	1	C10H9N3+
173.0709	3	C10H9N2O+
177.0698	2	C14H9+
180.0807	5	C13H10N+
193.0886	1	C14H11N+
194.0966	4	C14H12N+
203.0728	3	C15H9N+
204.0809	23	C15H10N+
205.0763	3	C14H9N2+
205.0886	2	C15H11N+
206.0839	6	C14H10N2+
207.0914	4	C14H11N2+
214.0649	1	C16H8N+
216.0683	2	C15H8N2+
219.0918	7	C15H11N2+
220.0872	1	C14H10N3+
220.0998	4	C15H12N2+
221.0952	1	C14H11N3+
221.1072	13	C15H13N2+
229.0757	2	C16H9N2+
230.0838	7	C16H10N2+
231.0917	36	C16H11N2+
232.0872	1	C15H10N3+
232.0994	9	C16H12N2+
233.0949	10	C15H11N3+
246.1026	17	C16H12N3+
247.1107	12	C16H13N3+
248.1182	999	C16H14N3+
257.095	1	C17H11N3+
258.1029	1	C17H12N3+
259.087	1	C17H11N2O+
274.0974	2	C17H12N3O+
276.1135	1	C17H14N3O+
