Mass spectrum: Ifosfamide; LC-ESI-QFT; MS2; CE: 15; R=17500; [M+H]+
Name: Ifosfamide
Name: N,3-bis(2-chloroethyl)-2-oxo-1,3,2lambda5-oxazaphosphinan-2-amine
Formula: C7H15Cl2N2O2P
Exact mass: 260.0248
SMILES: ClCCNP1(=O)OCCCN1CCCl
InChI: InChI=1S/C7H15Cl2N2O2P/c8-2-4-10-14(12)11(6-3-9)5-1-7-13-14/h1-7H2,(H,10,12)
Instrument: Q Exactive Orbitrap (Thermo Scientific)
Instrument type: LC-ESI-QFT
Ms type: MS2
Ion mode: POSITIVE
Ionization: ESI
Fragmentation mode: HCD
Collision energy: 15
Resolution: 17500
Column name: Acquity BEH C18 1.7um, 2.1x150mm (Waters)
Retention time: 13.918 min
Base peak: 79.0211
Precursor m/z: 261.0321
Precursor type: [M+H]+
Precursor intensity: 8150907.84375
m/z	relative intensity	assigned
78.0105	7	C2H5ClN+
120.0575	5	C5H11ClN+
153.9819	8	C3H6ClNO2P+
182.0131	16	C5H10ClNO2P+
182.9422	1	C4H4Cl2NOP+
200.0238	21	C6H12Cl2NO2+
200.9523	2	C4H6Cl2NO2P+
233.0008	57	C5H12Cl2N2O2P+
261.032	999	C7H16Cl2N2O2P+
