Mass spectrum: CI-959; LC-ESI-QFT; MS2; CE: 90; R=17500; [M-H]-
Name: CI-959
Name: CI-959 free acid
Name: 5-methoxy-3-propan-2-yloxy-N-(2H-tetrazol-5-yl)-1-benzothiophene-2-carboxamide
Formula: C14H15N5O3S
Exact mass: 333.0896
SMILES: COC1=CC2=C(SC(C(=O)NC3=NN=NN3)=C2OC(C)C)C=C1
InChI: InChI=1S/C14H15N5O3S/c1-7(2)22-11-9-6-8(21-3)4-5-10(9)23-12(11)13(20)15-14-16-18-19-17-14/h4-7H,1-3H3,(H2,15,16,17,18,19,20)
Instrument: Q Exactive Orbitrap (Thermo Scientific)
Instrument type: LC-ESI-QFT
Ms type: MS2
Ion mode: NEGATIVE
Ionization: ESI
Fragmentation mode: HCD
Collision energy: 90
Resolution: 17500
Column name: Acquity BEH C18 1.7um, 2.1x150mm (Waters)
Retention time: 17.310 min
Base peak: 329.1061
Precursor m/z: 332.0823
Precursor type: [M-H]-
Precursor intensity: 35534401.86719
m/z	relative intensity	assigned
53.9985	26	C2NO-
56.9804	6	C2HS-
82.996	9	C4H3S-
93.0344	2	C6H5O-
95.0139	4	C5H3O2-
106.9961	63	C6H3S-
108.0218	20	C6H4O2-
110.0108	35	C2N5O-
110.991	31	C5H3OS-
112.9977	6	C3HN2O3-
114.001	4	C2H2N4S-
121.0295	34	C7H5O2-
122.0328	17	H4N5O3-
122.991	9	C6H3OS-
134.9911	516	C7H3OS-
138.0145	4	C7H6OS-
138.9856	3	C6H3O2S-
147.9988	7	C8H4OS-
148.9941	29	C7H3NOS-
150.9859	22	C7H3O2S-
154.9808	11	C6H3O3S-
160.9943	4	C8H3NOS-
162.986	999	C8H3O2S-
163.9938	869	C8H4O2S-
172.9942	1	C9H3NOS-
178.0095	9	C9H6O2S-
179.0175	23	C9H7O2S-
188.0051	2	C9H4N2OS-
188.9891	47	C9H3NO2S-
190.9808	5	C9H3O3S-
191.0173	6	C10H7O2S-
194.0041	10	C9H6O3S-
202.9916	3	C9H3N2O2S-
