Mass spectrum: Procyazine; LC-ESI-QFT; MS2; CE: 15; R=17500; [M+H]+
Name: Procyazine
Name: 2-[[4-chloro-6-(cyclopropylamino)-1,3,5-triazin-2-yl]amino]-2-methylpropanenitrile
Formula: C10H13ClN6
Exact mass: 252.0890
SMILES: CC(C)(NC1=NC(Cl)=NC(NC2CC2)=N1)C#N
InChI: InChI=1S/C10H13ClN6/c1-10(2,5-12)17-9-15-7(11)14-8(16-9)13-6-3-4-6/h6H,3-4H2,1-2H3,(H2,13,14,15,16,17)
Instrument: Q Exactive Orbitrap (Thermo Scientific)
Instrument type: LC-ESI-QFT
Ms type: MS2
Ion mode: POSITIVE
Ionization: ESI
Fragmentation mode: HCD
Collision energy: 15
Resolution: 17500
Column name: Acquity BEH C18 1.7um, 2.1x150mm (Waters)
Retention time: 15.117 min
Base peak: 79.0212
Precursor m/z: 253.0963
Precursor type: [M+H]+
Precursor intensity: 3202477
m/z	relative intensity	assigned
102.0105	1	C4H5ClN+
110.0713	1	C5H8N3+
144.0326	2	C5H7ClN3+
186.0542	252	C6H9ClN5+
217.1197	29	C10H13N6+
226.0855	475	C9H13ClN5+
236.0698	3	C10H11ClN5+
253.0964	999	C10H14ClN6+
