Mass spectrum: N-(3,4-Dichlorophenyl)-N`-methylurea; LC-ESI-QFT; MS2; CE: 45; R=17500; [M+H]+
Name: N-(3,4-Dichlorophenyl)-N'-methylurea
Name: 1-(3,4-dichlorophenyl)-3-methylurea
Formula: C8H8Cl2N2O
Exact mass: 218.0014
SMILES: CNC(=O)NC1=CC(Cl)=C(Cl)C=C1
InChI: InChI=1S/C8H8Cl2N2O/c1-11-8(13)12-5-2-3-6(9)7(10)4-5/h2-4H,1H3,(H2,11,12,13)
Instrument: Q Exactive Orbitrap (Thermo Scientific)
Instrument type: LC-ESI-QFT
Ms type: MS2
Ion mode: POSITIVE
Ionization: ESI
Fragmentation mode: HCD
Collision energy: 45
Resolution: 17500
Column name: Acquity BEH C18 1.7um, 2.1x150mm (Waters)
Retention time: 16.777 min
Base peak: 79.0212
Precursor m/z: 219.0086
Precursor type: [M+H]+
Precursor intensity: 2310073.65625
m/z	relative intensity	assigned
53.0386	2	C4H5+
58.0288	125	C2H4NO+
94.0652	33	C6H8N+
95.049	2	C6H7O+
127.0184	962	C6H6ClN+
131.9533	7	C5H2Cl2+
137.071	22	C7H9N2O+
145.9691	5	C6H4Cl2+
159.007	13	C3H9Cl2N2O+
159.9715	27	C6H4Cl2N+
161.9873	999	C6H6Cl2N+
175.0081	7	C8H9Cl2+
187.9667	10	C7H4Cl2NO+
219.0088	50	C8H9Cl2N2O+
