Mass spectrum: SSR126768; LC-ESI-QFT; MS2; CE: 45; R=17500; [M+H]+
Name: SSR126768
Name: 3-chloro-2-[(3R)-5-chloro-1-[(2,4-dimethoxyphenyl)methyl]-3-methyl-2-oxoindol-3-yl]-N-ethyl-N-(pyridin-3-ylmethyl)benzamide
Formula: C33H31Cl2N3O4
Exact mass: 603.1692
SMILES: CCN(Cc1cccnc1)C(=O)c1cccc(Cl)c1[C@]1(C)C(=O)N(Cc2ccc(OC)cc2OC)c2ccc(Cl)cc21
InChI: InChI=1S/C33H31Cl2N3O4/c1-5-37(19-21-8-7-15-36-18-21)31(39)25-9-6-10-27(35)30(25)33(2)26-16-23(34)12-14-28(26)38(32(33)40)20-22-11-13-24(41-3)17-29(22)42-4/h6-18H,5,19-20H2,1-4H3/t33-/m1/s1
Instrument: Q Exactive Orbitrap (Thermo Scientific)
Instrument type: LC-ESI-QFT
Ms type: MS2
Ion mode: POSITIVE
Ionization: ESI
Fragmentation mode: HCD
Collision energy: 45
Resolution: 17500
Column name: Acquity BEH C18 1.7um, 2.1x150mm (Waters)
Retention time: 18.525 min
Base peak: 79.0211
Precursor m/z: 604.1764
Precursor type: [M+H]+
Precursor intensity: 8150385.5
m/z	relative intensity	assigned
53.0386	2	C4H5+
65.0385	5	C5H5+
67.0542	2	C5H7+
77.0386	1	C6H5+
78.0463	3	C6H6+
91.0542	38	C7H7+
92.0494	39	C6H6N+
93.0572	4	C6H7N+
93.0699	2	C7H9+
94.0651	119	C6H8N+
95.0491	7	C6H7O+
105.0446	3	C6H5N2+
106.0411	3	C7H6O+
107.0605	1	C6H7N2+
108.057	1	C7H8O+
110.0602	1	C6H8NO+
119.0491	4	C8H7O+
121.0647	202	C8H9O+
123.0803	4	C8H11O+
130.0652	1	C9H8N+
135.0916	7	C8H11N2+
136.0519	3	C8H8O2+
136.0996	1	C8H12N2+
137.0598	2	C8H9O2+
138.0675	1	C8H10O2+
138.9945	8	C7H4ClO+
139.0753	83	C8H11O2+
149.071	19	C8H9N2O+
151.0752	999	C9H11O2+
164.026	25	C9H7ClN+
230.0596	2	C16H8NO+
232.0752	1	C16H10NO+
235.0627	1	C15H9NO2+
238.0416	12	C15H9ClN+
239.0496	1	C15H10ClN+
240.0575	1	C15H11ClN+
242.0367	9	C14H9ClNO+
265.0522	2	C19H7NO+
266.0365	94	C16H9ClNO+
268.0519	3	C19H8O2+
269.06	1	C16H12ClNO+
270.0315	12	C15H9ClNO2+
271.0389	1	C18H7O3+
274.0183	4	C15H10Cl2N+
275.1178	2	C18H15N2O+
289.0049	1	C18H6ClO2+
295.0638	1	C14H15Cl2N3+
299.9974	5	C19H5ClO2+
302.0132	22	C16H10Cl2NO+
309.0786	4	C21H11NO2+
310.0861	2	C21H12NO2+
311.0944	6	C18H16ClN2O+
320.0239	7	C16H12Cl2NO2+
329.061	5	C18H15Cl2N2+
332.0239	24	C17H12Cl2NO2+
345.0554	24	C18H15Cl2N2O+
350.0342	4	C20H11ClO4+
357.0785	1	C25H11NO2+
364.0501	5	C18H16Cl2NO3+
366.1599	3	C24H20N3O+
402.1367	30	C24H21ClN3O+
420.1027	4	C24H20Cl2N3+
436.0979	12	C24H20Cl2N3O+
438.1135	26	C24H22Cl2N3O+
