Mass spectrum: Butoxycarboxim; LC-ESI-QFT; MS2; CE: 75; R=17500; [M+H]+
Name: Butoxycarboxim
Name: [(E)-3-methylsulfonylbutan-2-ylideneamino] N-methylcarbamate
Formula: C7H14N2O4S
Exact mass: 222.0674
SMILES: CNC(=O)O\N=C(/C)C(C)S(C)(=O)=O
InChI: InChI=1S/C7H14N2O4S/c1-5(6(2)14(4,11)12)9-13-7(10)8-3/h6H,1-4H3,(H,8,10)/b9-5+
Instrument: Q Exactive Orbitrap (Thermo Scientific)
Instrument type: LC-ESI-QFT
Ms type: MS2
Ion mode: POSITIVE
Ionization: ESI
Fragmentation mode: HCD
Collision energy: 75
Resolution: 17500
Column name: Acquity BEH C18 1.7um, 2.1x150mm (Waters)
Retention time: 9.653 min
Base peak: 79.0211
Precursor m/z: 223.0747
Precursor type: [M+H]+
Precursor intensity: 1580064.09375
m/z	relative intensity	assigned
56.0496	399	C3H6N+
61.0106	999	C2H5S+
79.0212	268	C2H7OS+
91.0575	402	C4H11S+
130.982	871	C7HNS+
152.0623	282	C4H12N2O2S+
165.0702	530	C5H13N2O2S+
