Mass spectrum: Tolazamide; LC-ESI-QFT; MS2; CE: 15; R=17500; [M+H]+
Name: Tolazamide
Name: 1-(azepan-1-yl)-3-(4-methylphenyl)sulfonylurea
Formula: C14H21N3O3S
Exact mass: 311.1304
SMILES: CC1=CC=C(C=C1)S(=O)(=O)NC(=O)NN1CCCCCC1
InChI: InChI=1S/C14H21N3O3S/c1-12-6-8-13(9-7-12)21(19,20)16-14(18)15-17-10-4-2-3-5-11-17/h6-9H,2-5,10-11H2,1H3,(H2,15,16,18)
Instrument: Q Exactive Orbitrap (Thermo Scientific)
Instrument type: LC-ESI-QFT
Ms type: MS2
Ion mode: POSITIVE
Ionization: ESI
Fragmentation mode: HCD
Collision energy: 15
Resolution: 17500
Column name: Acquity BEH C18 1.7um, 2.1x150mm (Waters)
Retention time: 16.183 min
Base peak: 79.0212
Precursor m/z: 312.1376
Precursor type: [M+H]+
Precursor intensity: 12505345
m/z	relative intensity	assigned
61.0396	12	CH5N2O+
68.0494	7	C4H6N+
82.0651	2	C5H8N+
91.055	1	C7H7+
96.0808	5	C6H10N+
97.0886	46	C6H11N+
98.0964	20	C6H12N+
113.1073	14	C6H13N2+
115.123	190	C6H15N2+
140.1183	1	C7H14N3+
141.1022	27	C7H13N2O+
155.016	9	C7H7O2S+
156.1132	20	C7H14N3O+
157.121	37	C7H15N3O+
172.0427	2	C7H10NO2S+
312.1375	999	C14H22N3O3S+
