Mass spectrum: 4-(2,5-Diethoxy-4-nitrophenyl)morpholine; LC-ESI-QFT; MS2; CE: 90; R=17500; [M+H]+
Name: 4-(2,5-Diethoxy-4-nitrophenyl)morpholine
Formula: C14H20N2O5
Exact mass: 296.1372
SMILES: CCOC1=CC(=C(OCC)C=C1N1CCOCC1)[N+]([O-])=O
InChI: InChI=1S/C14H20N2O5/c1-3-20-13-10-12(16(17)18)14(21-4-2)9-11(13)15-5-7-19-8-6-15/h9-10H,3-8H2,1-2H3
Instrument: Q Exactive Orbitrap (Thermo Scientific)
Instrument type: LC-ESI-QFT
Ms type: MS2
Ion mode: POSITIVE
Ionization: ESI
Fragmentation mode: HCD
Collision energy: 90
Resolution: 17500
Column name: Acquity BEH C18 1.7um, 2.1x150mm (Waters)
Retention time: 17.266 min
Base peak: 79.0212
Precursor m/z: 297.1445
Precursor type: [M+H]+
Precursor intensity: 7338459.0625
m/z	relative intensity	assigned
52.0182	76	C3H2N+
52.0309	18	C4H4+
53.0022	75	C3HO+
53.0386	209	C4H5+
54.0338	172	C3H4N+
55.0178	731	C3H3O+
55.0417	37	C3H5N+
56.0495	125	C3H6N+
57.0573	17	C3H7N+
58.0652	22	C3H8N+
64.0181	10	C4H2N+
65.026	30	C4H3N+
65.0385	339	C5H5+
66.0338	59	C4H4N+
66.0464	100	C5H6+
67.0178	39	C4H3O+
67.0416	331	C4H5N+
67.0542	241	C5H7+
68.013	229	C3H2NO+
68.0256	72	C4H4O+
68.0494	333	C4H6N+
68.9971	97	C3HO2+
69.0335	70	C4H5O+
69.0574	18	C4H7N+
70.0287	106	C3H4NO+
70.0651	103	C4H8N+
71.0127	15	C3H3O2+
72.0444	40	C3H6NO+
72.0808	9	C4H10N+
74.0964	13	C4H12N+
77.0384	51	C6H5+
78.0338	198	C5H4N+
78.0464	51	C6H6+
79.0179	119	C5H3O+
79.0416	132	C5H5N+
79.0542	414	C6H7+
80.0495	927	C5H6N+
81.0335	302	C5H5O+
81.0448	21	C4H5N2+
81.0573	115	C5H7N+
81.0699	37	C6H9+
82.0287	112	C4H4NO+
82.0414	36	C5H6O+
82.0651	133	C5H8N+
83.0128	27	C4H3O2+
83.0366	41	C4H5NO+
83.0493	22	C5H7O+
84.0444	42	C4H6NO+
85.0523	17	C4H7NO+
86.06	105	C4H8NO+
88.0757	20	C4H10NO+
90.0337	12	C6H4N+
91.0416	77	C6H5N+
91.0543	408	C7H7+
92.0495	643	C6H6N+
93.0336	39	C6H5O+
93.0448	43	C5H5N2+
93.0573	322	C6H7N+
93.0698	49	C7H9+
94.0288	479	C5H4NO+
94.0414	81	C6H6O+
94.0651	765	C6H8N+
95.0129	30	C5H3O2+
95.0366	107	C5H5NO+
95.0492	393	C6H7O+
95.0603	62	C5H7N2+
95.073	67	C6H9N+
96.0444	412	C5H6NO+
96.0808	24	C6H10N+
97.0285	31	C5H5O2+
97.0523	26	C5H7NO+
98.0236	14	C4H4NO2+
98.0602	26	C5H8NO+
103.0542	86	C8H7+
104.0495	522	C7H6N+
105.0335	59	C7H5O+
105.0447	161	C6H5N2+
105.0573	105	C7H7N+
105.0701	23	C8H9+
106.0287	103	C6H4NO+
106.0651	591	C7H8N+
107.0127	69	C6H3O2+
107.0365	208	C6H5NO+
107.0491	135	C7H7O+
107.0603	80	C6H7N2+
107.0729	52	C7H9N+
108.0205	107	C6H4O2+
108.0444	527	C6H6NO+
108.0807	146	C7H10N+
109.0284	139	C6H5O2+
109.0522	177	C6H7NO+
109.065	45	C7H9O+
109.0758	60	C6H9N2+
110.0238	30	C5H4NO2+
110.0363	25	C6H6O2+
110.0475	25	C5H6N2O+
110.06	226	C6H8NO+
111.0316	47	C5H5NO2+
111.044	140	C6H7O2+
111.0553	63	C5H7N2O+
111.0677	16	C6H9NO+
112.0393	60	C5H6NO2+
112.0756	15	C6H10NO+
114.0551	21	C5H8NO2+
117.0448	24	C7H5N2+
117.0573	80	C8H7N+
117.0698	10	C9H9+
118.0651	195	C8H8N+
119.0367	45	C7H5NO+
119.0492	46	C8H7O+
119.0603	65	C7H7N2+
119.0731	38	C8H9N+
120.0444	641	C7H6NO+
120.0808	136	C8H10N+
121.0284	18	C7H5O2+
121.0395	73	C6H5N2O+
121.0523	149	C7H7NO+
121.0648	13	C8H9O+
121.0761	72	C7H9N2+
122.0235	52	C6H4NO2+
122.06	802	C7H8NO+
123.0314	62	C6H5NO2+
123.044	65	C7H7O2+
123.0552	122	C6H7N2O+
123.0677	75	C7H9NO+
123.0919	13	C7H11N2+
124.0393	228	C6H6NO2+
124.0635	12	C6H8N2O+
124.0758	57	C7H10NO+
125.0347	12	C5H5N2O2+
125.0472	35	C6H7NO2+
126.055	40	C6H8NO2+
130.065	54	C9H8N+
131.0491	29	C9H7O+
131.0604	17	C8H7N2+
132.0444	284	C8H6NO+
132.0809	34	C9H10N+
133.0286	28	C8H5O2+
133.0398	15	C7H5N2O+
133.0522	138	C8H7NO+
133.0759	41	C8H9N2+
134.0237	82	C7H4NO2+
134.06	484	C8H8NO+
135.0314	378	C7H5NO2+
135.0443	32	C8H7O2+
135.0553	123	C7H7N2O+
135.0679	119	C8H9NO+
136.0393	703	C7H6NO2+
136.0758	347	C8H10NO+
137.0347	17	C6H5N2O2+
137.0472	112	C7H7NO2+
137.0709	165	C7H9N2O+
137.0836	19	C8H11NO+
138.0187	21	C6H4NO3+
138.0549	187	C7H8NO2+
138.0914	32	C8H12NO+
139.0506	18	C6H7N2O2+
140.0343	29	C6H6NO3+
144.0558	29	C10H8O+
146.0601	90	C9H8NO+
147.0556	28	C8H7N2O+
147.068	71	C9H9NO+
148.0393	718	C8H6NO2+
148.0756	290	C9H10NO+
149.035	17	C7H5N2O2+
149.0472	187	C8H7NO2+
149.0709	107	C8H9N2O+
149.0837	22	C9H11NO+
150.0186	647	C7H4NO3+
150.055	755	C8H8NO2+
151.0265	102	C7H5NO3+
151.0503	111	C7H7N2O2+
151.0627	83	C8H9NO2+
151.0867	37	C8H11N2O+
152.0342	278	C7H6NO3+
152.058	20	C7H8N2O2+
152.0706	41	C8H10NO2+
153.1023	48	C8H13N2O+
154.0137	9	C6H4NO4+
158.0597	11	C10H8NO+
160.0399	12	C9H6NO2+
160.0758	31	C10H10NO+
161.0345	9	C8H5N2O2+
161.0475	23	C9H7NO2+
161.0712	24	C9H9N2O+
162.055	244	C9H8NO2+
163.0266	12	C8H5NO3+
163.0504	34	C8H7N2O2+
163.0628	128	C9H9NO2+
163.0865	36	C9H11N2O+
164.0341	97	C8H6NO3+
164.0706	439	C9H10NO2+
165.0293	19	C7H5N2O3+
165.0427	11	C8H7NO3+
165.0661	21	C8H9N2O2+
165.079	17	C9H11NO2+
166.0499	185	C8H8NO3+
166.0862	73	C9H12NO2+
167.0579	47	C8H9NO3+
168.0289	10	C7H6NO4+
169.0247	22	C6H5N2O4+
174.0551	11	C10H8NO2+
175.0507	14	C9H7N2O2+
175.0634	10	C10H9NO2+
176.0706	199	C10H10NO2+
176.1073	11	C11H14NO+
177.0787	11	C10H11NO2+
178.0498	112	C9H8NO3+
178.0738	12	C9H10N2O2+
178.0863	59	C10H12NO2+
179.0577	62	C9H9NO3+
180.0657	31	C9H10NO3+
181.0244	999	C7H5N2O4+
181.0969	69	C9H13N2O2+
182.0322	93	C7H6N2O4+
183.0401	47	C7H7N2O4+
190.0873	12	C11H12NO2+
192.0653	48	C10H10NO3+
192.1023	28	C11H14NO2+
193.0614	16	C9H9N2O3+
193.0737	20	C10H11NO3+
193.0979	11	C10H13N2O2+
194.0811	85	C10H12NO3+
195.0404	32	C8H7N2O4+
195.0528	30	C9H9NO4+
195.0889	10	C10H13NO3+
197.0559	21	C8H9N2O4+
208.0974	11	C11H14NO3+
209.0557	78	C9H9N2O4+
211.0839	10	C10H13NO4+
239.0665	12	C10H11N2O5+
