Mass spectrum: N-Octyl-2-pyrrolidone; LC-ESI-QFT; MS2; CE: 90; R=17500; [M+H]+
Name: N-Octyl-2-pyrrolidone
Name: 1-octylpyrrolidin-2-one
Formula: C12H23NO
Exact mass: 197.1780
SMILES: CCCCCCCCN1CCCC1=O
InChI: InChI=1S/C12H23NO/c1-2-3-4-5-6-7-10-13-11-8-9-12(13)14/h2-11H2,1H3
Instrument: Q Exactive Orbitrap (Thermo Scientific)
Instrument type: LC-ESI-QFT
Ms type: MS2
Ion mode: POSITIVE
Ionization: ESI
Fragmentation mode: HCD
Collision energy: 90
Resolution: 17500
Column name: Acquity BEH C18 1.7um, 2.1x150mm (Waters)
Retention time: 18.547 min
Base peak: 79.0211
Precursor m/z: 198.1852
Precursor type: [M+H]+
Precursor intensity: 57015572.5
m/z	relative intensity	assigned
53.0022	44	C3HO+
53.9975	6	C2NO+
54.01	1	C3H2O+
55.0179	1	C3H3O+
55.0542	12	C4H7+
57.0699	151	C4H9+
58.0651	4	C3H8N+
68.0495	26	C4H6N+
69.0335	210	C4H5O+
70.0651	7	C4H8N+
71.0491	2	C4H7O+
71.0855	20	C5H11+
84.0444	2	C4H6NO+
86.06	999	C4H8NO+
98.0602	6	C5H8NO+
114.0913	5	C6H12NO+
128.1069	2	C7H14NO+
198.1853	5	C12H24NO+
