Mass spectrum: Dapsone; LC-ESI-QFT; MS2; CE: 15; R=17500; [M+H]+
Name: Dapsone
Name: 4-(4-aminophenyl)sulfonylaniline
Formula: C12H12N2O2S
Exact mass: 248.0619
SMILES: NC1=CC=C(C=C1)S(=O)(=O)C1=CC=C(N)C=C1
InChI: InChI=1S/C12H12N2O2S/c13-9-1-5-11(6-2-9)17(15,16)12-7-3-10(14)4-8-12/h1-8H,13-14H2
Instrument: Q Exactive Orbitrap (Thermo Scientific)
Instrument type: LC-ESI-QFT
Ms type: MS2
Ion mode: POSITIVE
Ionization: ESI
Fragmentation mode: HCD
Collision energy: 15
Resolution: 17500
Column name: Acquity BEH C18 1.7um, 2.1x150mm (Waters)
Retention time: 10.889 min
Base peak: 79.0212
Precursor m/z: 249.0692
Precursor type: [M+H]+
Precursor intensity: 5495059.0625
m/z	relative intensity	assigned
65.0387	1	C5H5+
68.0495	6	C4H6N+
79.0178	1	C5H3O+
92.0493	18	C6H6N+
93.0572	12	C6H7N+
96.0443	1	C5H6NO+
108.0444	65	C6H6NO+
110.0601	2	C6H8NO+
120.0559	1	C8H8O+
140.0168	1	C6H6NOS+
156.0113	911	C6H6NO2S+
188.99	1	C9H3NO2S+
249.0692	999	C12H13N2O2S+
