Mass spectrum: Bromoxynil; LC-ESI-QFT; MS2; CE: 30; R=17500; [M-H]-
Name: Bromoxynil
Name: 3,5-dibromo-4-hydroxybenzonitrile
Formula: C7H3Br2NO
Exact mass: 274.8581
SMILES: OC1=C(Br)C=C(C=C1Br)C#N
InChI: InChI=1S/C7H3Br2NO/c8-5-1-4(3-10)2-6(9)7(5)11/h1-2,11H
Instrument: Q Exactive Orbitrap (Thermo Scientific)
Instrument type: LC-ESI-QFT
Ms type: MS2
Ion mode: NEGATIVE
Ionization: ESI
Fragmentation mode: HCD
Collision energy: 30
Resolution: 17500
Column name: Acquity BEH C18 1.7um, 2.1x150mm (Waters)
Retention time: 16.482 min
Base peak: 275.8488
Precursor m/z: 273.8509
Precursor type: [M-H]-
Precursor intensity: 10363434.35449
m/z	relative intensity	assigned
78.9189	470	Br-
193.9247	3	C7HBrNO-
273.8509	999	C7H2Br2NO-
