Mass spectrum: Flufenpyr-ethyl; LC-ESI-QFT; MS2; CE: 60; R=17500; [M-H]-
Name: Flufenpyr-ethyl
Formula: C16H13ClF4N2O4
Exact mass: 408.0500
SMILES: CCOC(=O)COC1=CC(N2N=CC(=C(C)C2=O)C(F)(F)F)=C(F)C=C1Cl
InChI: InChI=1S/C16H13ClF4N2O4/c1-3-26-14(24)7-27-13-5-12(11(18)4-10(13)17)23-15(25)8(2)9(6-22-23)16(19,20)21/h4-6H,3,7H2,1-2H3
Instrument: Q Exactive Orbitrap (Thermo Scientific)
Instrument type: LC-ESI-QFT
Ms type: MS2
Ion mode: NEGATIVE
Ionization: ESI
Fragmentation mode: HCD
Collision energy: 60
Resolution: 17500
Column name: Acquity BEH C18 1.7um, 2.1x150mm (Waters)
Retention time: 18.108 min
Base peak: 112.9856
Precursor m/z: 407.0427
Precursor type: [M-H]-
Precursor intensity: 719884.7167969
m/z	relative intensity	assigned
64.0194	153	C4H2N-
65.9986	258	C3NO-
89.0145	953	C5HN2-
89.9987	444	C5NO-
110.0048	429	C5HFNO-
122.9644	488	C6ClO-
137.0157	999	C6H2FN2O-
159.0172	235	C6H2F3N2-
161.0148	122	C11HN2-
166.9777	91	C7H2ClNO2-
176.0204	895	C6H3F3N2O-
181.0208	267	C11H2FN2-
207.0181	221	C6H8ClN2O4-
209.0157	413	C12H2FN2O-
209.9765	239	C9H2ClFNO2-
216.9969	112	C14FNO-
229.0219	113	C12H3F2N2O-
231.9847	341	C11H2ClFN2O-
237.0107	389	C13H2FN2O2-
244.9925	333	C12H3ClFN2O-
249.0281	129	C12H4F3N2O-
