Mass spectrum: Fluconazole; LC-ESI-QFT; MS2; CE: 60; R=17500; [M+H]+
Name: Fluconazole
Name: 2-(2,4-difluorophenyl)-1,3-bis(1,2,4-triazol-1-yl)propan-2-ol
Formula: C13H12F2N6O
Exact mass: 306.1041
SMILES: OC(CN1C=NC=N1)(CN1C=NC=N1)C1=C(F)C=C(F)C=C1
InChI: InChI=1S/C13H12F2N6O/c14-10-1-2-11(12(15)3-10)13(22,4-20-8-16-6-18-20)5-21-9-17-7-19-21/h1-3,6-9,22H,4-5H2
Instrument: Q Exactive Orbitrap (Thermo Scientific)
Instrument type: LC-ESI-QFT
Ms type: MS2
Ion mode: POSITIVE
Ionization: ESI
Fragmentation mode: HCD
Collision energy: 60
Resolution: 17500
Column name: Acquity BEH C18 1.7um, 2.1x150mm (Waters)
Retention time: 13.017 min
Base peak: 79.0211
Precursor m/z: 307.1113
Precursor type: [M+H]+
Precursor intensity: 8220527.59375
m/z	relative intensity	assigned
53.0386	1	C4H5+
55.0179	51	C3H3O+
55.0291	7	C2H3N2+
70.0399	999	C2H4N3+
75.0229	7	C6H3+
77.0385	7	C6H5+
82.04	22	C3H4N3+
83.0478	32	C3H5N3+
84.0556	8	C3H6N3+
91.0542	27	C7H7+
100.0507	10	C3H6N3O+
101.0386	6	C8H5+
107.0291	1	C7H4F+
109.0448	5	C7H6F+
115.0543	2	C9H7+
119.0492	19	C8H7O+
121.0448	580	C8H6F+
127.0354	794	C7H5F2+
129.0447	89	C8H5N2+
139.0354	804	C8H5F2+
140.0305	3	C7H4F2N+
141.0147	106	C7H3F2O+
141.051	451	C8H7F2+
146.0401	18	C9H5FN+
147.0353	18	C8H4FN2+
149.0397	15	C9H6FO+
151.0354	602	C9H5F2+
152.0431	2	C9H6F2+
153.0384	6	C8H5F2N+
153.0446	3	C10H5N2+
156.0619	3	C8H8F2N+
163.0554	12	C10H8FO+
164.0432	14	C10H6F2+
164.0506	3	C9H7FNO+
165.0513	7	C10H7F2+
166.0463	86	C9H6F2N+
167.0301	1	C9H5F2O+
167.0502	11	C12H7O+
168.0622	3	C9H8F2N+
169.046	696	C9H7F2O+
171.056	2	C10H7N2O+
172.0556	10	C6H6F2N4+
173.051	170	C10H6FN2+
176.0308	6	C10H4F2N+
177.0458	31	C9H6FN2O+
178.0345	1	C9H4F2N2+
178.0462	9	C10H6F2N+
187.0565	7	C12H8FO+
193.0573	50	C10H7F2N2+
200.0619	169	C11H7FN3+
208.068	4	C10H8F2N3+
219.0605	10	C11H7F2N3+
220.0681	318	C11H8F2N3+
238.0787	72	C11H10F2N3O+
