Mass spectrum: Ethyl 3-(N-butylacetamido)propionate; LC-ESI-QFT; MS2; CE: 15; R=17500; [M+H]+
Name: Ethyl 3-(N-butylacetamido)propionate
Name: Ethyl butylacetylaminopropionate
Name: ethyl 3-[acetyl(butyl)amino]propanoate
Formula: C11H21NO3
Exact mass: 215.1521
SMILES: CCCCN(CCC(=O)OCC)C(C)=O
InChI: InChI=1S/C11H21NO3/c1-4-6-8-12(10(3)13)9-7-11(14)15-5-2/h4-9H2,1-3H3
Instrument: Q Exactive Orbitrap (Thermo Scientific)
Instrument type: LC-ESI-QFT
Ms type: MS2
Ion mode: POSITIVE
Ionization: ESI
Fragmentation mode: HCD
Collision energy: 15
Resolution: 17500
Column name: Acquity BEH C18 1.7um, 2.1x150mm (Waters)
Retention time: 15.648 min
Base peak: 79.0212
Precursor m/z: 216.1594
Precursor type: [M+H]+
Precursor intensity: 13284187.40625
m/z	relative intensity	assigned
86.0964	122	C5H12N+
116.1071	2	C6H14NO+
128.107	333	C7H14NO+
142.1229	1	C8H16NO+
170.1176	999	C9H16NO2+
174.1489	75	C9H20NO2+
216.1596	66	C11H22NO3+
