Mass spectrum: Atorvastatin; LC-ESI-QFT; MS2; CE: 75; R=17500; [M+H]+
Name: Atorvastatin
Name: (3R,5R)-7-[2-(4-fluorophenyl)-3-phenyl-4-(phenylcarbamoyl)-5-propan-2-ylpyrrol-1-yl]-3,5-dihydroxyheptanoic acid
Formula: C33H35FN2O5
Exact mass: 558.2530
SMILES: CC(C)c1c(C(=O)Nc2ccccc2)c(-c2ccccc2)c(-c2ccc(F)cc2)n1CC[C@@H](O)C[C@@H](O)CC(O)=O
InChI: InChI=1S/C33H35FN2O5/c1-21(2)31-30(33(41)35-25-11-7-4-8-12-25)29(22-9-5-3-6-10-22)32(23-13-15-24(34)16-14-23)36(31)18-17-26(37)19-27(38)20-28(39)40/h3-16,21,26-27,37-38H,17-20H2,1-2H3,(H,35,41)(H,39,40)/t26-,27-/m1/s1
Instrument: Q Exactive Orbitrap (Thermo Scientific)
Instrument type: LC-ESI-QFT
Ms type: MS2
Ion mode: POSITIVE
Ionization: ESI
Fragmentation mode: HCD
Collision energy: 75
Resolution: 17500
Column name: Acquity BEH C18 1.7um, 2.1x150mm (Waters)
Retention time: 17.830 min
Base peak: 79.0211
Precursor m/z: 559.2603
Precursor type: [M+H]+
Precursor intensity: 7119604.03125
m/z	relative intensity	assigned
50.0152	3	C4H2+
51.0231	3	C4H3+
53.0023	7	C3HO+
53.0386	52	C4H5+
55.0178	15	C3H3O+
55.0543	59	C4H7+
57.0335	36	C3H5O+
59.0492	10	C3H7O+
61.0285	3	C2H5O2+
65.0386	37	C5H5+
67.0542	15	C5H7+
68.9972	3	C3HO2+
69.0335	36	C4H5O+
69.07	9	C5H9+
71.0127	41	C3H3O2+
71.0491	40	C4H7O+
73.0285	7	C3H5O2+
77.0386	21	C6H5+
79.0542	104	C6H7+
80.0495	9	C5H6N+
81.0336	8	C5H5O+
81.07	4	C6H9+
83.0491	82	C5H7O+
89.0235	4	C3H5O3+
91.0543	57	C7H7+
92.0495	169	C6H6N+
94.0416	6	C6H6O+
94.0652	7	C6H8N+
95.0492	137	C6H7O+
97.0285	20	C5H5O2+
97.065	6	C6H9O+
101.0598	17	C5H9O2+
103.0543	42	C8H7+
104.0495	109	C7H6N+
105.0448	60	C6H5N2+
105.07	3	C8H9+
106.0653	8	C7H8N+
109.0448	75	C7H6F+
109.0489	4	C3H9O4+
115.0543	179	C9H7+
116.0494	11	C8H6N+
116.0622	8	C9H8+
117.0574	70	C8H7N+
117.0701	11	C9H9+
120.0444	30	C7H6NO+
121.0448	35	C8H6F+
122.0401	121	C7H5FN+
123.06	3	C8H8F+
124.0759	6	C7H10NO+
127.0541	16	C10H7+
128.0497	14	C9H6N+
128.0621	69	C10H8+
129.045	6	C8H5N2+
129.0699	73	C10H9+
130.0652	33	C9H8N+
132.0445	9	C8H6NO+
133.0448	134	C9H6F+
134.0401	7	C8H5FN+
134.053	3	C9H7F+
134.0599	6	C8H8NO+
135.0479	41	C8H6FN+
135.0606	6	C9H8F+
136.0554	3	C8H7FN+
140.0499	5	C10H6N+
141.0699	19	C11H9+
142.0652	11	C10H8N+
142.0777	3	C11H10+
143.0729	15	C4H12FO4+
143.0857	3	C11H11+
145.0452	4	C10H6F+
145.0648	62	C10H9O+
146.0401	5	C9H5FN+
146.0528	34	C10H7F+
146.0601	26	C9H8NO+
147.0604	33	C10H8F+
148.0557	25	C9H7FN+
152.0622	15	C12H8+
153.0575	6	C11H7N+
153.07	38	C12H9+
154.0652	167	C11H8N+
155.0604	90	C10H7N2+
155.0727	7	C11H9N+
155.0851	13	C12H11+
156.0808	9	C11H10N+
159.0605	10	C11H8F+
160.0559	10	C10H7FN+
160.076	7	C10H10NO+
161.0636	15	C10H8FN+
163.0555	8	C10H8FO+
164.0508	9	C9H7FNO+
165.0699	20	C13H9+
166.0652	11	C12H8N+
167.073	29	C12H9N+
168.0809	7	C12H10N+
169.0647	3	C12H9O+
170.0527	4	C12H7F+
170.0601	14	C11H8NO+
171.0479	6	C11H6FN+
171.0603	15	C12H8F+
172.0557	100	C11H7FN+
172.0757	26	C11H10NO+
173.0511	34	C10H6FN2+
173.0635	7	C11H8FN+
174.072	11	C11H9FN+
177.0701	7	C14H9+
178.0659	10	C10H9FNO+
178.0775	4	C14H10+
179.0851	3	C14H11+
180.0445	5	C12H6NO+
180.0559	4	C13H8O+
180.0809	40	C13H10N+
181.0885	7	C13H11N+
182.0968	11	C13H12N+
183.0607	21	C13H8F+
184.0557	6	C12H7FN+
185.0636	16	C12H8FN+
185.0766	4	C13H10F+
186.0717	5	C12H9FN+
189.0699	10	C15H9+
190.0662	17	C11H9FNO+
191.0854	8	C15H11+
192.0809	4	C14H10N+
193.0888	3	C14H11N+
194.0968	6	C14H12N+
196.068	23	C14H9F+
197.076	8	C14H10F+
198.0716	27	C13H9FN+
199.0792	5	C13H10FN+
200.0872	13	C13H11FN+
201.0698	3	C16H9+
202.0777	106	C16H10+
203.0856	126	C16H11+
204.0811	12	C15H10N+
206.0965	4	C15H12N+
207.0605	9	C15H8F+
208.0681	17	C15H9F+
209.0762	170	C15H10F+
210.083	4	C15H11F+
211.0792	10	C14H10FN+
211.091	5	C15H12F+
212.0875	5	C14H11FN+
215.0858	9	C17H11+
216.0808	10	C16H10N+
217.0888	36	C16H11N+
217.1004	2	C17H13+
218.0965	26	C16H12N+
219.0805	4	C16H11O+
220.0682	49	C16H9F+
221.0762	80	C16H10F+
222.0713	55	C15H9FN+
222.084	52	C16H11F+
223.0793	9	C15H10FN+
223.0914	47	C16H12F+
224.0871	9	C15H11FN+
226.0777	4	C18H10+
227.0729	5	C17H9N+
228.0812	22	C17H10N+
229.0885	10	C17H11N+
230.0965	139	C17H12N+
233.0763	336	C17H10F+
234.071	11	C16H9FN+
234.084	31	C17H11F+
235.0793	417	C16H10FN+
236.0871	62	C16H11FN+
237.073	11	C16H10FO+
237.0949	87	C16H12FN+
238.1027	79	C16H13FN+
239.0856	9	C19H11+
241.0885	12	C18H11N+
242.0961	10	C18H12N+
243.1036	3	C18H13N+
245.0635	3	C17H8FN+
246.071	15	C17H9FN+
246.0841	18	C18H11F+
247.0808	11	C17H10FN+
247.0913	12	C18H12F+
248.0871	596	C17H11FN+
249.0949	294	C17H12FN+
250.1027	999	C17H13FN+
251.1103	3	C17H14FN+
252.1187	13	C17H15FN+
256.112	9	C19H14N+
257.076	8	C19H10F+
258.0842	9	C19H11F+
259.0787	11	C18H10FN+
259.0918	28	C19H12F+
260.0869	47	C18H11FN+
260.1008	3	C19H13F+
261.0949	186	C18H12FN+
262.1026	187	C18H13FN+
263.0742	8	C17H10FNO+
263.1101	36	C18H14FN+
264.0821	63	C17H11FNO+
264.1182	67	C18H15FN+
270.0835	7	C20H11F+
271.0916	5	C20H12F+
272.0866	17	C19H11FN+
273.095	10	C19H12FN+
274.1026	140	C19H13FN+
275.0739	6	C18H10FNO+
275.1104	46	C19H14FN+
276.0825	64	C18H11FNO+
276.1183	453	C19H15FN+
277.1261	11	C19H16FN+
278.0977	6	C18H13FNO+
278.1336	11	C19H17FN+
283.0924	6	C21H12F+
285.0944	7	C20H12FN+
286.103	17	C20H13FN+
287.1107	22	C20H14FN+
288.1184	64	C20H15FN+
289.1265	13	C20H16FN+
290.0974	16	C19H13FNO+
290.134	43	C20H17FN+
291.1055	4	C19H14FNO+
292.1491	5	C20H19FN+
298.1032	7	C21H13FN+
300.1185	30	C21H15FN+
301.1258	10	C21H16FN+
302.0979	17	C20H13FNO+
302.134	62	C21H17FN+
303.1413	8	C21H18FN+
304.1132	9	C20H15FNO+
304.1498	7	C21H19FN+
306.1288	5	C20H17FNO+
314.1336	5	C22H17FN+
316.1491	8	C22H19FN+
320.1079	3	C20H15FNO2+
362.1548	5	C23H21FNO2+
