Mass spectrum: Farglitazar; LC-ESI-QFT; MS2; CE: 75; R=17500; [M-H]-
Name: Farglitazar
Name: (2S)-2-(2-benzoylanilino)-3-[4-[2-(5-methyl-2-phenyl-1,3-oxazol-4-yl)ethoxy]phenyl]propanoic acid
Formula: C34H30N2O5
Exact mass: 546.2155
SMILES: CC1=C(CCOC2=CC=C(C[C@H](NC3=C(C=CC=C3)C(=O)C3=CC=CC=C3)C(O)=O)C=C2)N=C(O1)C1=CC=CC=C1
InChI: InChI=1S/C34H30N2O5/c1-23-29(36-33(41-23)26-12-6-3-7-13-26)20-21-40-27-18-16-24(17-19-27)22-31(34(38)39)35-30-15-9-8-14-28(30)32(37)25-10-4-2-5-11-25/h2-19,31,35H,20-22H2,1H3,(H,38,39)/t31-/m0/s1
Instrument: Q Exactive Orbitrap (Thermo Scientific)
Instrument type: LC-ESI-QFT
Ms type: MS2
Ion mode: NEGATIVE
Ionization: ESI
Fragmentation mode: HCD
Collision energy: 75
Resolution: 17500
Column name: Acquity BEH C18 1.7um, 2.1x150mm (Waters)
Retention time: 20.138 min
Base peak: 112.9856
Precursor m/z: 545.2082
Precursor type: [M-H]-
Precursor intensity: 4897639.866211
m/z	relative intensity	assigned
92.0506	330	C6H6N-
93.0346	720	C6H5O-
95.0502	24	C6H7O-
102.035	58	C7H4N-
106.0425	154	C7H6O-
107.0502	999	C7H7O-
108.0217	57	C6H4O2-
117.0346	55	C8H5O-
118.0295	23	C7H4NO-
119.0502	727	C8H7O-
123.0453	28	C7H7O2-
131.0377	262	C8H5NO-
133.0657	29	C9H9O-
134.0374	56	C8H6O2-
138.0322	32	C7H6O3-
144.0455	392	C9H6NO-
160.0764	28	C10H10NO-
166.0663	31	C12H8N-
168.0817	37	C12H10N-
190.066	52	C14H8N-
192.082	154	C14H10N-
193.0655	14	C14H9O-
194.0611	235	C13H8NO-
195.0814	82	C14H11O-
196.0766	32	C13H10NO-
207.0689	33	C14H9NO-
208.0765	59	C14H10NO-
210.0558	47	C13H8NO2-
210.093	13	C14H12NO-
220.0764	46	C15H10NO-
221.0611	28	C15H9O2-
223.0767	38	C15H11O2-
236.0717	49	C15H10NO2-
296.1084	79	C21H14NO-
