Mass spectrum: Fenpyroximate (Z,E); LC-ESI-QFT; MS2; CE: 90; R=17500; [M+H]+
Name: Fenpyroximate (Z,E)
Name: tert-butyl 4-[[(1,3-dimethyl-5-phenoxypyrazol-4-yl)methylideneamino]oxymethyl]benzoate
Formula: C24H27N3O4
Exact mass: 421.2002
SMILES: CN1N=C(C)C(C=NOCC2=CC=C(C=C2)C(=O)OC(C)(C)C)=C1OC1=CC=CC=C1
InChI: InChI=1S/C24H27N3O4/c1-17-21(22(27(5)26-17)30-20-9-7-6-8-10-20)15-25-29-16-18-11-13-19(14-12-18)23(28)31-24(2,3)4/h6-15H,16H2,1-5H3
Instrument: Q Exactive Orbitrap (Thermo Scientific)
Instrument type: LC-ESI-QFT
Ms type: MS2
Ion mode: POSITIVE
Ionization: ESI
Fragmentation mode: HCD
Collision energy: 90
Resolution: 17500
Column name: Acquity BEH C18 1.7um, 2.1x150mm (Waters)
Retention time: 20.132 min
Base peak: 79.0211
Precursor m/z: 422.2074
Precursor type: [M+H]+
Precursor intensity: 21651517
m/z	relative intensity	assigned
51.0229	5	C4H3+
52.0182	26	C3H2N+
53.0022	30	C3HO+
53.0386	245	C4H5+
54.0338	299	C3H4N+
55.0178	64	C3H3O+
55.0417	68	C3H5N+
55.0542	6	C4H7+
56.0495	102	C3H6N+
57.0447	50	C2H5N2+
57.0699	33	C4H9+
58.0287	40	C2H4NO+
59.0606	3	C2H7N2+
63.0229	34	C5H3+
64.0307	24	C5H4+
65.0385	219	C5H5+
66.0338	257	C4H4N+
66.0464	85	C5H6+
67.0178	63	C4H3O+
67.029	18	C3H3N2+
67.0416	164	C4H5N+
67.0543	13	C5H7+
68.0131	97	C3H2NO+
68.0369	16	C3H4N2+
68.0494	279	C4H6N+
69.0447	192	C3H5N2+
70.0287	45	C3H4NO+
71.0603	313	C3H7N2+
74.0963	4	C4H12N+
77.0385	112	C6H5+
78.0338	11	C5H4N+
78.0464	46	C6H6+
79.0291	69	C4H3N2+
79.0417	18	C5H5N+
79.0542	220	C6H7+
80.0131	50	C4H2NO+
80.037	13	C4H4N2+
80.0494	74	C5H6N+
81.0447	959	C4H5N2+
82.0287	487	C4H4NO+
82.0526	36	C4H6N2+
83.0604	105	C4H7N2+
84.0444	95	C4H6NO+
89.0385	81	C7H5+
90.0464	79	C7H6+
91.0417	133	C6H5N+
91.0542	284	C7H7+
92.0495	167	C6H6N+
93.0448	129	C5H5N2+
93.0573	183	C6H7N+
94.0288	51	C5H4NO+
94.0413	127	C6H6O+
94.0525	25	C5H6N2+
94.0651	14	C6H8N+
95.0492	718	C6H7O+
95.0603	596	C5H7N2+
96.0444	22	C5H6NO+
96.0681	57	C5H8N2+
97.0396	89	C4H5N2O+
99.0553	17	C4H7N2O+
102.0464	54	C8H6+
103.0416	72	C7H5N+
103.0542	104	C8H7+
104.0495	236	C7H6N+
105.0337	28	C7H5O+
105.0447	285	C6H5N2+
106.0651	196	C7H8N+
107.024	63	C5H3N2O+
107.0491	999	C7H7O+
108.0444	16	C6H6NO+
108.0555	29	C5H6N3+
109.0396	62	C5H5N2O+
109.0525	5	C6H7NO+
109.0648	8	C7H9O+
110.0236	8	C5H4NO2+
110.0474	13	C5H6N2O+
110.0713	40	C5H8N3+
111.044	21	C6H7O2+
111.0553	156	C5H7N2O+
112.0632	7	C5H8N2O+
113.0709	22	C5H9N2O+
115.0542	317	C9H7+
116.0494	202	C8H6N+
116.0619	20	C9H8+
117.0573	264	C8H7N+
117.0699	33	C9H9+
118.0414	15	C8H6O+
118.0651	159	C8H8N+
119.0492	9	C8H7O+
119.0604	18	C7H7N2+
120.0445	22	C7H6NO+
120.0556	108	C6H6N3+
120.0809	6	C8H10N+
121.0398	9	C6H5N2O+
121.0635	75	C6H7N3+
121.076	17	C7H9N2+
122.0713	69	C6H8N3+
123.0553	181	C6H7N2O+
124.0508	5	C5H6N3O+
125.0597	4	C7H9O2+
127.0497	20	C5H7N2O2+
127.0548	18	C10H7+
128.0494	156	C9H6N+
128.0615	15	C10H8+
129.0449	12	C8H5N2+
129.0573	53	C9H7N+
129.0698	91	C10H9+
130.0651	492	C9H8N+
131.0492	35	C9H7O+
131.0603	96	C8H7N2+
131.0727	22	C9H9N+
132.0443	46	C8H6NO+
132.0571	10	C9H8O+
132.0681	47	C8H8N2+
132.0807	22	C9H10N+
133.0524	12	C8H7NO+
133.076	22	C8H9N2+
134.0601	25	C8H8NO+
135.044	101	C8H7O2+
136.0505	28	C6H6N3O+
137.0586	2	C6H7N3O+
138.0662	365	C6H8N3O+
140.0495	61	C10H6N+
141.0573	21	C10H7N+
142.0526	39	C9H6N2+
142.0651	155	C10H8N+
143.0365	17	C9H5NO+
143.0604	317	C9H7N2+
143.0729	113	C10H9N+
144.0444	363	C9H6NO+
144.0807	67	C10H10N+
145.0655	37	C10H9O+
145.0759	173	C9H9N2+
146.06	190	C9H8NO+
147.0917	4	C9H11N2+
148.0757	5	C9H10NO+
154.0658	31	C11H8N+
155.0499	15	C11H7O+
155.0603	146	C10H7N2+
156.0444	18	C10H6NO+
156.0682	29	C10H8N2+
156.0807	5	C11H10N+
157.0611	16	C6H9N2O3+
157.076	130	C10H9N2+
158.0475	12	C9H6N2O+
158.06	37	C10H8NO+
158.0841	20	C10H10N2+
159.0676	37	C10H9NO+
159.0917	33	C10H11N2+
160.0391	5	C9H6NO2+
160.0757	35	C10H10NO+
161.047	8	C9H7NO2+
161.0706	4	C9H9N2O+
162.0549	12	C9H8NO2+
168.0683	13	C11H8N2+
169.076	87	C11H9N2+
170.0601	107	C11H8NO+
170.0712	15	C10H8N3+
171.0554	22	C10H7N2O+
171.0792	14	C10H9N3+
171.0917	4	C11H11N2+
172.0635	4	C10H8N2O+
172.0754	13	C11H10NO+
172.0869	5	C10H10N3+
173.0709	56	C10H9N2O+
174.055	5	C10H8NO2+
174.1029	3	C10H12N3+
177.0421	3	C9H7NO3+
183.0556	12	C11H7N2O+
184.0631	5	C11H8N2O+
184.0764	6	C12H10NO+
184.0862	4	C11H10N3+
185.071	86	C11H9N2O+
186.102	15	C11H12N3+
187.0865	22	C11H11N2O+
197.0708	13	C12H9N2O+
198.066	12	C11H8N3O+
198.0778	3	C12H10N2O+
199.0741	42	C11H9N3O+
199.0867	15	C12H11N2O+
200.082	11	C11H10N3O+
212.0819	2	C12H10N3O+
214.0974	76	C12H12N3O+
