Mass spectrum: Nalidixic acid; LC-ESI-QFT; MS2; CE: 15; R=17500; [M-H]-
Name: Nalidixic acid
Name: 1-ethyl-7-methyl-4-oxo-1,8-naphthyridine-3-carboxylic acid
Formula: C12H12N2O3
Exact mass: 232.0848
SMILES: CCN1C=C(C(O)=O)C(=O)C2=C1N=C(C)C=C2
InChI: InChI=1S/C12H12N2O3/c1-3-14-6-9(12(16)17)10(15)8-5-4-7(2)13-11(8)14/h4-6H,3H2,1-2H3,(H,16,17)
Instrument: Q Exactive Orbitrap (Thermo Scientific)
Instrument type: LC-ESI-QFT
Ms type: MS2
Ion mode: NEGATIVE
Ionization: ESI
Fragmentation mode: HCD
Collision energy: 15
Resolution: 17500
Column name: Acquity BEH C18 1.7um, 2.1x150mm (Waters)
Retention time: 14.140 min
Base peak: 151.04
Precursor m/z: 231.0775
Precursor type: [M-H]-
Precursor intensity: 3352971.119629
m/z	relative intensity	assigned
85.0043	157	C2HN2O2-
144.0819	7	C10H10N-
188.0718	214	C11H10NO2-
231.0775	999	C12H11N2O3-
