Mass spectrum: 6-Phenyl-1,3,5-triazine-2,4-diamine; LC-ESI-QFT; MS2; CE: 90; R=17500; [M+H]+
Name: 6-Phenyl-1,3,5-triazine-2,4-diamine
Formula: C9H9N5
Exact mass: 187.0858
SMILES: NC1=NC(=NC(N)=N1)C1=CC=CC=C1
InChI: InChI=1S/C9H9N5/c10-8-12-7(13-9(11)14-8)6-4-2-1-3-5-6/h1-5H,(H4,10,11,12,13,14)
Instrument: Q Exactive Orbitrap (Thermo Scientific)
Instrument type: LC-ESI-QFT
Ms type: MS2
Ion mode: POSITIVE
Ionization: ESI
Fragmentation mode: HCD
Collision energy: 90
Resolution: 17500
Column name: Acquity BEH C18 1.7um, 2.1x150mm (Waters)
Retention time: 10.584 min
Base peak: 79.0212
Precursor m/z: 188.0931
Precursor type: [M+H]+
Precursor intensity: 26674487.34375
m/z	relative intensity	assigned
53.0386	11	C4H5+
68.0243	219	C2H2N3+
77.0385	5	C6H5+
85.0509	125	C2H5N4+
95.0491	44	C4H5N3+
104.0494	999	C7H6N+
105.0447	16	C6H5N2+
118.0653	1	C8H8N+
121.0761	11	C7H9N2+
122.06	6	C5H6N4+
129.0447	6	C8H5N2+
136.0758	2	C6H8N4+
146.0712	23	C8H8N3+
188.0931	9	C9H10N5+
