Mass spectrum: Undecanedioic acid; LC-ESI-QFT; MS2; CE: 60; R=17500; [M-H]-
Name: Undecanedioic acid
Formula: C11H20O4
Exact mass: 216.1362
SMILES: OC(=O)CCCCCCCCCC(O)=O
InChI: InChI=1S/C11H20O4/c12-10(13)8-6-4-2-1-3-5-7-9-11(14)15/h1-9H2,(H,12,13)(H,14,15)
Instrument: Q Exactive Orbitrap (Thermo Scientific)
Instrument type: LC-ESI-QFT
Ms type: MS2
Ion mode: NEGATIVE
Ionization: ESI
Fragmentation mode: HCD
Collision energy: 60
Resolution: 17500
Column name: Acquity BEH C18 1.7um, 2.1x150mm (Waters)
Retention time: 16.712 min
Base peak: 429.0536
Precursor m/z: 215.1289
Precursor type: [M-H]-
Precursor intensity: 21652317.81641
m/z	relative intensity	assigned
55.019	2	C3H3O-
57.0345	85	C3H5O-
69.0346	12	C4H5O-
71.0503	21	C4H7O-
80.0267	17	C5H4O-
81.0346	5	C5H5O-
83.0503	23	C5H7O-
97.0659	10	C6H9O-
99.0816	9	C6H11O-
125.0971	73	C8H13O-
137.0972	4	C9H13O-
151.1128	88	C10H15O-
153.1284	999	C10H17O-
171.1391	15	C10H19O2-
197.1183	445	C11H17O3-
215.1288	218	C11H19O4-
