Mass spectrum: AVE2865; LC-ESI-QFT; MS2; CE: 60; R=17500; [M-H]-
Name: AVE2865
Name: 1-{2-[3-(2-Chloro-4,5-Difluoro-Benzoyl)-Ureido]-4-Fluoro-Phenyl}-Piperidine-4-Carboxylic Acid
Name: 1-[2-[(2-chloro-4,5-difluorobenzoyl)carbamoylamino]-4-fluorophenyl]piperidine-4-carboxylic acid
Formula: C20H17ClF3N3O4
Exact mass: 455.0860
SMILES: OC(=O)C1CCN(CC1)C1=C(NC(=O)NC(=O)C2=CC(F)=C(F)C=C2Cl)C=C(F)C=C1
InChI: InChI=1S/C20H17ClF3N3O4/c21-13-9-15(24)14(23)8-12(13)18(28)26-20(31)25-16-7-11(22)1-2-17(16)27-5-3-10(4-6-27)19(29)30/h1-2,7-10H,3-6H2,(H,29,30)(H2,25,26,28,31)
Instrument: Q Exactive Orbitrap (Thermo Scientific)
Instrument type: LC-ESI-QFT
Ms type: MS2
Ion mode: NEGATIVE
Ionization: ESI
Fragmentation mode: HCD
Collision energy: 60
Resolution: 17500
Column name: Acquity BEH C18 1.7um, 2.1x150mm (Waters)
Retention time: 18.369 min
Base peak: 292.098
Precursor m/z: 454.0787
Precursor type: [M-H]-
Precursor intensity: 6662119.130859
m/z	relative intensity	assigned
69.0346	3	C4H5O-
92.0507	2	C6H6N-
103.0301	3	C6H3N2-
110.0413	5	C6H5FN-
112.9856	3	C2F3O2-
124.044	14	C6H5FN2-
125.052	10	C6H6FN2-
131.025	22	C7H3N2O-
134.0412	5	C8H5FN-
135.0364	296	C7H4FN2-
148.0443	6	C8H5FN2-
149.0517	12	C8H6FN2-
150.0235	107	C7H3FN2O-
151.0313	745	C7H4FN2O-
161.0523	14	C9H6FN2-
163.0314	22	C8H4FN2O-
165.0469	21	C8H6FN2O-
175.0675	3	C10H8FN2-
176.0392	25	C9H5FN2O-
177.0834	5	C10H10FN2-
180.0343	12	C8H5FN2O2-
189.0832	16	C11H10FN2-
191.0991	7	C11H12FN2-
199.0877	9	C12H11N2O-
201.0834	13	C12H10FN2-
219.0939	999	C12H12FN2O-
