Mass spectrum: Flucarbazone; LC-ESI-QFT; MS2; CE: 45; R=17500; [M+H]+
Name: Flucarbazone
Name: 3-methoxy-4-methyl-5-oxo-N-[2-(trifluoromethoxy)phenyl]sulfonyl-1,2,4-triazole-1-carboxamide
Formula: C12H11F3N4O6S
Exact mass: 396.0351
SMILES: COC1=NN(C(=O)NS(=O)(=O)C2=C(OC(F)(F)F)C=CC=C2)C(=O)N1C
InChI: InChI=1S/C12H11F3N4O6S/c1-18-10(24-2)16-19(11(18)21)9(20)17-26(22,23)8-6-4-3-5-7(8)25-12(13,14)15/h3-6H,1-2H3,(H,17,20)
Instrument: Q Exactive Orbitrap (Thermo Scientific)
Instrument type: LC-ESI-QFT
Ms type: MS2
Ion mode: POSITIVE
Ionization: ESI
Fragmentation mode: HCD
Collision energy: 45
Resolution: 17500
Column name: Acquity BEH C18 1.7um, 2.1x150mm (Waters)
Retention time: 14.780 min
Base peak: 79.0211
Precursor m/z: 397.0424
Precursor type: [M+H]+
Precursor intensity: 4710698.875
m/z	relative intensity	assigned
58.0289	2	C2H4NO+
72.0445	12	C3H6NO+
73.0396	29	C2H5N2O+
109.0283	2	C6H5O2+
113.0396	2	C6H6FO+
115.0377	115	C3H5N3O2+
123.0355	5	C6H4FN2+
129.0533	12	C4H7N3O2+
130.0612	999	C4H8N3O2+
