Mass spectrum: Diclosulam; LC-ESI-QFT; MS2; CE: 45; R=17500; [M+H]+
Name: Diclosulam
Name: N-(2,6-dichlorophenyl)-5-ethoxy-7-fluoro-[1,2,4]triazolo[1,5-c]pyrimidine-2-sulfonamide
Formula: C13H10Cl2FN5O3S
Exact mass: 404.9865
SMILES: CCOC1=NC(F)=CC2=NC(=NN12)S(=O)(=O)NC1=C(Cl)C=CC=C1Cl
InChI: InChI=1S/C13H10Cl2FN5O3S/c1-2-24-13-17-9(16)6-10-18-12(19-21(10)13)25(22,23)20-11-7(14)4-3-5-8(11)15/h3-6,20H,2H2,1H3
Instrument: Q Exactive Orbitrap (Thermo Scientific)
Instrument type: LC-ESI-QFT
Ms type: MS2
Ion mode: POSITIVE
Ionization: ESI
Fragmentation mode: HCD
Collision energy: 45
Resolution: 17500
Column name: Acquity BEH C18 1.7um, 2.1x150mm (Waters)
Retention time: 15.765 min
Base peak: 79.0211
Precursor m/z: 405.9938
Precursor type: [M+H]+
Precursor intensity: 4461107.6875
m/z	relative intensity	assigned
99.9947	1	C4H3ClN+
101.0026	1	C4H4ClN+
108.9607	1	C3H3Cl2+
135.9715	1	C4H4Cl2N+
146.94	2	C5HCl2O+
155.0363	1	C5H4FN4O+
159.9716	8	C6H4Cl2N+
160.9793	999	C6H5Cl2N+
171.9718	1	C7H4Cl2N+
175.9664	24	C6H4Cl2NO+
176.9743	6	C6H5Cl2NO+
223.9334	3	C6H4Cl2NO2S+
231.0307	1	C7H7ClFN5O+
265.9998	2	C13HFN3O3+
279.0314	2	C11H7ClFN5O+
314.0009	1	C11H7Cl2FN5O+
