Mass spectrum: Fluorescein; LC-ESI-QFT; MS2; CE: 90; R=17500; [M+H]+
Name: Fluorescein
Name: 3',6'-dihydroxyspiro[2-benzofuran-3,9'-xanthene]-1-one
Formula: C20H12O5
Exact mass: 332.0685
SMILES: OC1=CC2=C(C=C1)C1(OC(=O)C3=C1C=CC=C3)C1=C(O2)C=C(O)C=C1
InChI: InChI=1S/C20H12O5/c21-11-5-7-15-17(9-11)24-18-10-12(22)6-8-16(18)20(15)14-4-2-1-3-13(14)19(23)25-20/h1-10,21-22H
Instrument: Q Exactive Orbitrap (Thermo Scientific)
Instrument type: LC-ESI-QFT
Ms type: MS2
Ion mode: POSITIVE
Ionization: ESI
Fragmentation mode: HCD
Collision energy: 90
Resolution: 17500
Column name: Acquity BEH C18 1.7um, 2.1x150mm (Waters)
Retention time: 15.821 min
Base peak: 79.0211
Precursor m/z: 333.0757
Precursor type: [M+H]+
Precursor intensity: 16279425.5
m/z	relative intensity	assigned
53.0023	3	C3HO+
53.0386	11	C4H5+
55.0178	14	C3H3O+
65.0386	53	C5H5+
67.0177	1	C4H3O+
68.9971	62	C3HO2+
71.0128	2	C3H3O2+
77.0384	5	C6H5+
81.0334	10	C5H5O+
91.0542	7	C7H7+
93.0335	2	C6H5O+
94.0414	3	C6H6O+
95.0128	2	C5H3O2+
95.0491	28	C6H7O+
103.0542	12	C8H7+
105.0336	25	C7H5O+
107.0492	3	C7H7O+
109.0284	1	C6H5O2+
111.044	4	C6H7O2+
115.0542	60	C9H7+
117.0698	10	C9H9+
119.0128	4	C7H3O2+
121.0285	4	C7H5O2+
127.0542	12	C10H7+
128.0621	27	C10H8+
131.0491	30	C9H7O+
133.0284	3	C8H5O2+
134.0357	1	C8H6O2+
137.0234	6	C7H5O3+
139.0542	71	C11H7+
140.062	19	C11H8+
141.0698	9	C11H9+
143.0492	8	C10H7O+
145.0648	20	C10H9O+
147.0443	1	C9H7O2+
152.062	19	C12H8+
153.0699	8	C12H9+
155.0492	49	C11H7O+
156.057	4	C11H8O+
157.0648	3	C11H9O+
159.0438	2	C10H7O2+
165.0699	58	C13H9+
167.0491	8	C12H7O+
167.0853	2	C13H11+
168.057	45	C12H8O+
169.065	8	C12H9O+
171.044	13	C11H7O2+
173.0598	10	C11H9O2+
176.062	22	C14H8+
177.0698	16	C14H9+
178.0777	69	C14H10+
179.0856	11	C14H11+
181.0647	14	C13H9O+
183.044	7	C12H7O2+
184.0519	42	C12H8O2+
187.0392	4	C11H7O3+
187.0544	3	C15H7+
189.0699	254	C15H9+
190.0777	85	C15H10+
191.0855	45	C15H11+
192.0569	4	C14H8O+
193.0648	4	C14H9O+
194.0726	4	C14H10O+
195.0438	2	C13H7O2+
195.0805	2	C14H11O+
196.0521	10	C13H8O2+
197.0598	5	C13H9O2+
199.039	8	C12H7O3+
200.062	18	C16H8+
201.0547	27	C12H9O3+
201.07	18	C16H9+
202.0777	999	C16H10+
203.0855	235	C16H11+
204.0934	19	C16H12+
205.0648	69	C15H9O+
205.1011	4	C16H13+
206.0727	6	C15H10O+
207.0804	11	C15H11O+
209.0593	1	C14H9O2+
211.0391	4	C13H7O3+
213.0699	145	C17H9+
214.0777	37	C17H10+
215.0855	286	C17H11+
216.057	3	C16H8O+
216.0935	6	C17H12+
217.0648	11	C16H9O+
218.0726	86	C16H10O+
219.0804	32	C16H11O+
220.0519	1	C15H8O2+
221.0595	13	C15H9O2+
224.0622	5	C18H8+
225.0701	1	C18H9+
226.0774	9	C18H10+
228.0426	5	C13H8O4+
229.0496	52	C13H9O4+
229.0647	50	C17H9O+
230.0726	37	C17H10O+
231.0805	361	C17H11O+
232.0885	11	C17H12O+
233.0598	18	C16H9O2+
233.096	48	C17H13O+
234.0674	33	C16H10O2+
235.0746	6	C16H11O2+
237.0553	1	C15H9O3+
241.0645	14	C18H9O+
242.0726	108	C18H10O+
243.0804	70	C18H11O+
244.0883	13	C18H12O+
245.0596	29	C17H9O2+
246.0676	14	C17H10O2+
247.0753	24	C17H11O2+
248.0829	1	C17H12O2+
249.0543	4	C16H9O3+
250.0621	3	C16H10O3+
253.0648	3	C19H9O+
255.0814	1	C19H11O+
257.0598	9	C18H9O2+
258.0676	230	C18H10O2+
259.0754	233	C18H11O2+
260.0832	47	C18H12O2+
261.0908	17	C18H13O2+
262.0622	6	C17H10O3+
263.0704	4	C17H11O3+
269.0593	19	C19H9O2+
270.0673	11	C19H10O2+
271.0753	145	C19H11O2+
273.0541	1	C18H9O3+
274.0623	9	C18H10O3+
275.0705	4	C18H11O3+
285.0548	11	C19H9O3+
286.0624	35	C19H10O3+
287.0703	351	C19H11O3+
288.0789	2	C19H12O3+
289.0858	53	C19H13O3+
297.0548	2	C20H9O3+
298.0625	1	C20H10O3+
299.0702	1	C20H11O3+
302.0576	4	C19H10O4+
305.0807	1	C19H13O4+
313.0481	1	C20H9O4+
315.0653	20	C20H11O4+
333.0758	6	C20H13O5+
