Mass spectrum: N-methyl-alpha-phenylbenzeneacetamide; LC-ESI-QFT; MS2; CE: 90; R=17500; [M+H]+
Name: N-methyl-alpha-phenylbenzeneacetamide
Name: N-methyl-2,2-diphenylacetamide
Formula: C15H15NO
Exact mass: 225.1154
SMILES: CNC(=O)C(C1=CC=CC=C1)C1=CC=CC=C1
InChI: InChI=1S/C15H15NO/c1-16-15(17)14(12-8-4-2-5-9-12)13-10-6-3-7-11-13/h2-11,14H,1H3,(H,16,17)
Instrument: Q Exactive Orbitrap (Thermo Scientific)
Instrument type: LC-ESI-QFT
Ms type: MS2
Ion mode: POSITIVE
Ionization: ESI
Fragmentation mode: HCD
Collision energy: 90
Resolution: 17500
Column name: Acquity BEH C18 1.7um, 2.1x150mm (Waters)
Retention time: 16.084 min
Base peak: 79.0212
Precursor m/z: 226.1226
Precursor type: [M+H]+
Precursor intensity: 36351971.09375
m/z	relative intensity	assigned
58.0287	108	C2H4NO+
65.0386	16	C5H5+
79.0542	10	C6H7+
90.0465	3	C7H6+
91.0542	211	C7H7+
95.049	5	C6H7O+
96.0555	1	C6H8O+
103.0542	3	C8H7+
104.0494	2	C7H6N+
107.0491	7	C7H7O+
115.0542	13	C9H7+
118.0652	1	C8H8N+
120.0808	999	C8H10N+
128.062	32	C10H8+
133.0521	4	C8H7NO+
141.0699	46	C11H9+
146.06	1	C9H8NO+
151.0542	3	C12H7+
152.0621	503	C12H8+
153.0699	4	C12H9+
154.0777	4	C12H10+
165.0699	515	C13H9+
166.0777	134	C13H10+
167.0855	142	C13H11+
169.0647	26	C12H9O+
193.0888	11	C14H11N+
