Mass spectrum: Mecarbam; LC-ESI-QFT; MS2; CE: 60; R=17500; [M+H]+
Name: Mecarbam
Name: ethyl N-(2-diethoxyphosphinothioylsulfanylacetyl)-N-methylcarbamate
Formula: C10H20NO5PS2
Exact mass: 329.0521
SMILES: CCOC(=O)N(C)C(=O)CSP(=S)(OCC)OCC
InChI: InChI=1S/C10H20NO5PS2/c1-5-14-10(13)11(4)9(12)8-19-17(18,15-6-2)16-7-3/h5-8H2,1-4H3
Instrument: Q Exactive Orbitrap (Thermo Scientific)
Instrument type: LC-ESI-QFT
Ms type: MS2
Ion mode: POSITIVE
Ionization: ESI
Fragmentation mode: HCD
Collision energy: 60
Resolution: 17500
Column name: Acquity BEH C18 1.7um, 2.1x150mm (Waters)
Retention time: 17.986 min
Base peak: 79.0211
Precursor m/z: 330.0593
Precursor type: [M+H]+
Precursor intensity: 5336862.28125
m/z	relative intensity	assigned
58.0287	166	C2H4NO+
114.9614	999	H4O3PS+
116.0342	219	C4H6NO3+
128.9228	163	H2O2PS2+
142.9387	428	CH4O2PS2+
