Mass spectrum: 2-Methoxy-5-methylaniline; LC-ESI-QFT; MS2; CE: 60; R=17500; [M+H]+
Name: 2-Methoxy-5-methylaniline
Formula: C8H11NO
Exact mass: 137.0841
SMILES: COC1=CC=C(C)C=C1N
InChI: InChI=1S/C8H11NO/c1-6-3-4-8(10-2)7(9)5-6/h3-5H,9H2,1-2H3
Instrument: Q Exactive Orbitrap (Thermo Scientific)
Instrument type: LC-ESI-QFT
Ms type: MS2
Ion mode: POSITIVE
Ionization: ESI
Fragmentation mode: HCD
Collision energy: 60
Resolution: 17500
Column name: Acquity BEH C18 1.7um, 2.1x150mm (Waters)
Retention time: 9.930 min
Base peak: 79.0211
Precursor m/z: 138.0913
Precursor type: [M+H]+
Precursor intensity: 20158362.78125
m/z	relative intensity	assigned
53.0386	1	C4H5+
77.0382	1	C6H5+
78.0463	19	C6H6+
79.0542	43	C6H7+
80.0494	2	C5H6N+
91.0542	1	C7H7+
94.0651	14	C6H8N+
95.0491	7	C6H7O+
95.0729	6	C6H9N+
96.0444	1	C5H6NO+
105.0573	1	C7H7N+
106.0413	13	C7H6O+
106.0651	98	C7H8N+
107.0491	4	C7H7O+
107.0729	16	C7H9N+
108.0444	8	C6H6NO+
121.0647	2	C8H9O+
122.0601	44	C7H8NO+
123.0678	999	C7H9NO+
138.0913	92	C8H12NO+
