Mass spectrum: 2-Methoxy-5-methylaniline; LC-ESI-QFT; MS2; CE: 90; R=17500; [M+H]+
Name: 2-Methoxy-5-methylaniline
Formula: C8H11NO
Exact mass: 137.0841
SMILES: COC1=CC=C(C)C=C1N
InChI: InChI=1S/C8H11NO/c1-6-3-4-8(10-2)7(9)5-6/h3-5H,9H2,1-2H3
Instrument: Q Exactive Orbitrap (Thermo Scientific)
Instrument type: LC-ESI-QFT
Ms type: MS2
Ion mode: POSITIVE
Ionization: ESI
Fragmentation mode: HCD
Collision energy: 90
Resolution: 17500
Column name: Acquity BEH C18 1.7um, 2.1x150mm (Waters)
Retention time: 9.930 min
Base peak: 79.0211
Precursor m/z: 138.0913
Precursor type: [M+H]+
Precursor intensity: 12841599.3125
m/z	relative intensity	assigned
51.023	1	C4H3+
52.0308	1	C4H4+
53.0386	37	C4H5+
54.0339	1	C3H4N+
55.0179	1	C3H3O+
65.0385	5	C5H5+
66.0464	5	C5H6+
67.0416	7	C4H5N+
67.0542	4	C5H7+
77.0385	14	C6H5+
78.0464	388	C6H6+
79.0542	187	C6H7+
80.0494	58	C5H6N+
80.0622	3	C6H8+
81.0334	4	C5H5O+
86.0036	2	C6N+
89.0386	7	C7H5+
91.0416	6	C6H5N+
91.0543	5	C7H7+
93.0573	8	C6H7N+
94.0652	132	C6H8N+
95.0492	115	C6H7O+
95.0729	22	C6H9N+
96.0444	9	C5H6NO+
104.0495	16	C7H6N+
105.0336	5	C7H5O+
105.0574	9	C7H7N+
106.0414	86	C7H6O+
106.0651	282	C7H8N+
107.0491	37	C7H7O+
107.0729	25	C7H9N+
108.0444	54	C6H6NO+
122.0601	470	C7H8NO+
123.0678	999	C7H9NO+
138.0914	6	C8H12NO+
