Mass spectrum: AVE6324; LC-ESI-QFT; MS2; CE: 90; R=17500; [M-H]-
Name: AVE6324
Name: [(1R)-1-ethoxycarbonyloxyethyl] 1-[[5-(5-chlorothiophen-2-yl)-1,2-oxazol-3-yl]methyl]-2-[(1-propan-2-ylpiperidin-4-yl)carbamoyl]indole-5-carboxylate
Formula: C31H35ClN4O7S
Exact mass: 642.1915
SMILES: CCOC(=O)O[C@H](C)OC(=O)c1ccc2c(c1)cc(C(=O)NC1CCN(C(C)C)CC1)n2Cc1cc(-c2ccc(Cl)s2)on1
InChI: InChI=1S/C31H35ClN4O7S/c1-5-40-31(39)42-19(4)41-30(38)20-6-7-24-21(14-20)15-25(29(37)33-22-10-12-35(13-11-22)18(2)3)36(24)17-23-16-26(43-34-23)27-8-9-28(32)44-27/h6-9,14-16,18-19,22H,5,10-13,17H2,1-4H3,(H,33,37)/t19-/m1/s1
Instrument: Q Exactive Orbitrap (Thermo Scientific)
Instrument type: LC-ESI-QFT
Ms type: MS2
Ion mode: NEGATIVE
Ionization: ESI
Fragmentation mode: HCD
Collision energy: 90
Resolution: 17500
Column name: Acquity BEH C18 1.7um, 2.1x150mm (Waters)
Retention time: 17.265 min
Base peak: 112.9857
Precursor m/z: 641.1842
Precursor type: [M-H]-
Precursor intensity: 783145.640625
m/z	relative intensity	assigned
50.0035	15	C3N-
56.9804	6	C2HS-
65.9986	12	C3NO-
66.0349	8	C4H4N-
74.0037	3	C5N-
79.9726	14	C4S-
80.9805	84	C4HS-
89.0244	2	C3H5O3-
90.0349	78	C6H4N-
94.0299	12	C5H4NO-
96.0454	3	C5H6NO-
104.9805	49	C6HS-
105.9757	2	C5NS-
107.0377	7	C6H5NO-
108.9754	18	C5HOS-
114.035	71	C8H4N-
115.0427	5	C8H5N-
116.0506	999	C8H6N-
116.957	2	C4H2ClS-
118.0299	71	C7H4NO-
131.0377	46	C8H5NO-
131.9909	2	C7H2NS-
132.9755	7	C7HOS-
140.0507	5	C10H6N-
141.0459	5	C9H5N2-
144.0455	7	C9H6NO-
146.0248	16	C8H4NO2-
158.0612	5	C10H8NO-
160.0403	35	C9H6NO2-
188.0717	5	C11H10NO2-
