Mass spectrum: Dodecanedioic acid; LC-ESI-QFT; MS2; CE: 75; R=17500; [M-H]-
Name: Dodecanedioic acid
Formula: C12H22O4
Exact mass: 230.1518
SMILES: OC(=O)CCCCCCCCCCC(O)=O
InChI: InChI=1S/C12H22O4/c13-11(14)9-7-5-3-1-2-4-6-8-10-12(15)16/h1-10H2,(H,13,14)(H,15,16)
Instrument: Q Exactive Orbitrap (Thermo Scientific)
Instrument type: LC-ESI-QFT
Ms type: MS2
Ion mode: NEGATIVE
Ionization: ESI
Fragmentation mode: HCD
Collision energy: 75
Resolution: 17500
Column name: Acquity BEH C18 1.7um, 2.1x150mm (Waters)
Retention time: 17.454 min
Base peak: 307.0977
Precursor m/z: 229.1445
Precursor type: [M-H]-
Precursor intensity: 32155686.08008
m/z	relative intensity	assigned
57.0346	233	C3H5O-
69.0347	77	C4H5O-
71.0503	49	C4H7O-
80.0269	193	C5H4O-
81.0347	73	C5H5O-
83.0503	75	C5H7O-
139.1133	57	C9H15O-
165.1286	187	C11H17O-
167.1441	999	C11H19O-
211.1341	484	C12H19O3-
229.1446	178	C12H21O4-
