Mass spectrum: Isoxaben; LC-ESI-QFT; MS2; CE: 30; R=17500; [M-H]-
Name: Isoxaben
Name: 2,6-dimethoxy-N-[3-(3-methylpentan-3-yl)-1,2-oxazol-5-yl]benzamide
Formula: C18H24N2O4
Exact mass: 332.1736
SMILES: CCC(C)(CC)C1=NOC(NC(=O)C2=C(OC)C=CC=C2OC)=C1
InChI: InChI=1S/C18H24N2O4/c1-6-18(3,7-2)14-11-15(24-20-14)19-17(21)16-12(22-4)9-8-10-13(16)23-5/h8-11H,6-7H2,1-5H3,(H,19,21)
Instrument: Q Exactive Orbitrap (Thermo Scientific)
Instrument type: LC-ESI-QFT
Ms type: MS2
Ion mode: NEGATIVE
Ionization: ESI
Fragmentation mode: HCD
Collision energy: 30
Resolution: 17500
Column name: Acquity BEH C18 1.7um, 2.1x150mm (Waters)
Retention time: 17.361 min
Base peak: 341.0253
Precursor m/z: 331.1663
Precursor type: [M-H]-
Precursor intensity: 4874632.318359
m/z	relative intensity	assigned
65.0146	2	C3HN2-
65.9986	7	C3NO-
72.9932	137	C2HO3-
93.0346	41	C6H5O-
102.0351	11	C7H4N-
105.0346	5	C7H5O-
107.0502	13	C7H7O-
108.0217	3	C6H4O2-
118.0301	12	C7H4NO-
121.0295	32	C7H5O2-
123.0453	4	C7H7O2-
132.0455	66	C8H6NO-
133.0296	10	C8H5O2-
134.0373	7	C8H6O2-
135.0452	33	C8H7O2-
137.0608	311	C8H9O2-
148.0404	62	C8H6NO2-
151.0403	4	C8H7O3-
160.0404	3	C9H6NO2-
161.0244	7	C9H5O3-
162.0323	31	C9H6O3-
162.0561	65	C9H8NO2-
164.0357	2	C8H6NO3-
164.0717	15	C9H10NO2-
166.1115	4	C9H14N2O-
176.035	4	C9H6NO3-
181.0509	11	C9H9O4-
188.0353	8	C10H6NO3-
190.0149	9	C9H4NO4-
205.038	24	C10H7NO4-
206.0458	8	C10H8NO4-
220.0616	328	C11H10NO4-
331.1664	999	C18H23N2O4-
