Mass spectrum: 2`-Acetonaphthone; LC-ESI-QFT; MS2; CE: 75; R=17500; [M-H]-
Name: 2'-Acetonaphthone
Name: 2-Acetylnaphthalene
Name: 1-naphthalen-2-ylethanone
Formula: C12H10O
Exact mass: 170.0732
SMILES: CC(=O)C1=CC2=CC=CC=C2C=C1
InChI: InChI=1S/C12H10O/c1-9(13)11-7-6-10-4-2-3-5-12(10)8-11/h2-8H,1H3
Instrument: Q Exactive Orbitrap (Thermo Scientific)
Instrument type: LC-ESI-QFT
Ms type: MS2
Ion mode: NEGATIVE
Ionization: ESI
Fragmentation mode: HCD
Collision energy: 75
Resolution: 17500
Column name: Acquity BEH C18 1.7um, 2.1x150mm (Waters)
Retention time: 17.822 min
Base peak: 253.0506
Precursor m/z: 169.0659
Precursor type: [M-H]-
Precursor intensity: 394157.3886719
m/z	relative intensity	assigned
65.0397	30	C5H5-
93.0346	999	C6H5O-
115.0553	74	C9H7-
141.071	101	C11H9-
169.0659	243	C12H9O-
