Mass spectrum: Isoproturon; LC-ESI-QFT; MS2; CE: 75; R=17500; [M+H]+
Name: Isoproturon
Name: 1,1-dimethyl-3-(4-propan-2-ylphenyl)urea
Formula: C12H18N2O
Exact mass: 206.1419
SMILES: CC(C)C1=CC=C(NC(=O)N(C)C)C=C1
InChI: InChI=1S/C12H18N2O/c1-9(2)10-5-7-11(8-6-10)13-12(15)14(3)4/h5-9H,1-4H3,(H,13,15)
Instrument: Q Exactive Orbitrap (Thermo Scientific)
Instrument type: LC-ESI-QFT
Ms type: MS2
Ion mode: POSITIVE
Ionization: ESI
Fragmentation mode: HCD
Collision energy: 75
Resolution: 17500
Column name: Acquity BEH C18 1.7um, 2.1x150mm (Waters)
Retention time: 16.558 min
Base peak: 79.0211
Precursor m/z: 207.1492
Precursor type: [M+H]+
Precursor intensity: 26263938.75
m/z	relative intensity	assigned
53.0022	1	C3HO+
56.0131	9	C2H2NO+
72.0444	999	C3H6NO+
79.0542	2	C6H7+
91.0543	25	C7H7+
92.0495	7	C6H6N+
93.0698	3	C7H9+
94.0652	1	C6H8N+
95.0491	3	C6H7O+
103.0541	1	C8H7+
105.0449	1	C6H5N2+
105.07	2	C8H9+
106.0652	2	C7H8N+
107.0855	15	C8H11+
109.0649	1	C7H9O+
115.0542	2	C9H7+
117.0699	6	C9H9+
118.0652	1	C8H8N+
119.073	13	C8H9N+
120.0444	5	C7H6NO+
132.0809	1	C9H10N+
134.0965	41	C9H12N+
137.0962	1	C9H13O+
147.0918	2	C9H11N2+
162.0914	1	C10H12NO+
165.1026	1	C9H13N2O+
