Mass spectrum: Tolcapone; LC-ESI-QFT; MS2; CE: 90; R=17500; [M-H]-
Name: Tolcapone
Name: (3,4-dihydroxy-5-nitrophenyl)-(4-methylphenyl)methanone
Formula: C14H11NO5
Exact mass: 273.0637
SMILES: CC1=CC=C(C=C1)C(=O)C1=CC(O)=C(O)C(=C1)[N+]([O-])=O
InChI: InChI=1S/C14H11NO5/c1-8-2-4-9(5-3-8)13(17)10-6-11(15(19)20)14(18)12(16)7-10/h2-7,16,18H,1H3
Instrument: Q Exactive Orbitrap (Thermo Scientific)
Instrument type: LC-ESI-QFT
Ms type: MS2
Ion mode: NEGATIVE
Ionization: ESI
Fragmentation mode: HCD
Collision energy: 90
Resolution: 17500
Column name: Acquity BEH C18 1.7um, 2.1x150mm (Waters)
Retention time: 17.494 min
Base peak: 307.0977
Precursor m/z: 272.0564
Precursor type: [M-H]-
Precursor intensity: 453711.703125
m/z	relative intensity	assigned
115.0554	999	C9H7-
141.0711	447	C11H9-
143.0501	125	C10H7O-
159.0454	239	C10H7O2-
169.0658	337	C12H9O-
181.0659	375	C13H9O-
182.0613	396	C12H8NO-
185.0598	114	C12H9O2-
224.0482	179	C14H8O3-
