Mass spectrum: Myclobutanil; LC-ESI-QFT; MS2; CE: 15; R=17500; [M+H]+
Name: Myclobutanil
Name: 2-(4-chlorophenyl)-2-(1,2,4-triazol-1-ylmethyl)hexanenitrile
Formula: C15H17ClN4
Exact mass: 288.1142
SMILES: CCCCC(CN1C=NC=N1)(C#N)C1=CC=C(Cl)C=C1
InChI: InChI=1S/C15H17ClN4/c1-2-3-8-15(9-17,10-20-12-18-11-19-20)13-4-6-14(16)7-5-13/h4-7,11-12H,2-3,8,10H2,1H3
Instrument: Q Exactive Orbitrap (Thermo Scientific)
Instrument type: LC-ESI-QFT
Ms type: MS2
Ion mode: POSITIVE
Ionization: ESI
Fragmentation mode: HCD
Collision energy: 15
Resolution: 17500
Column name: Acquity BEH C18 1.7um, 2.1x150mm (Waters)
Retention time: 17.761 min
Base peak: 79.0211
Precursor m/z: 289.1215
Precursor type: [M+H]+
Precursor intensity: 7563978.1875
m/z	relative intensity	assigned
70.0399	362	C2H4N3+
125.015	10	C7H6Cl+
151.0312	1	C9H8Cl+
163.0196	1	C9H6ClN+
193.0776	2	C12H14Cl+
203.0624	1	C13H12Cl+
220.0886	13	C13H15ClN+
289.1214	999	C15H18ClN4+
