Mass spectrum: AVE5638; LC-ESI-QFT; MS2; CE: 60; R=17500; [M+H]+
Name: AVE5638
Name: 1-{3-[1-({5-[(2-Fluorophenyl)ethynyl]furan-2-yl}carbonyl)piperidin-4-yl]phenyl}methanamine
Name: [4-[3-(aminomethyl)phenyl]piperidin-1-yl]-[5-[2-(2-fluorophenyl)ethynyl]furan-2-yl]methanone
Formula: C25H23FN2O2
Exact mass: 402.1744
SMILES: NCC1=CC=CC(=C1)C1CCN(CC1)C(=O)C1=CC=C(O1)C#CC1=CC=CC=C1F
InChI: InChI=1S/C25H23FN2O2/c26-23-7-2-1-5-20(23)8-9-22-10-11-24(30-22)25(29)28-14-12-19(13-15-28)21-6-3-4-18(16-21)17-27/h1-7,10-11,16,19H,12-15,17,27H2
Instrument: Q Exactive Orbitrap (Thermo Scientific)
Instrument type: LC-ESI-QFT
Ms type: MS2
Ion mode: POSITIVE
Ionization: ESI
Fragmentation mode: HCD
Collision energy: 60
Resolution: 17500
Column name: Acquity BEH C18 1.7um, 2.1x150mm (Waters)
Retention time: 16.173 min
Base peak: 79.0211
Precursor m/z: 403.1816
Precursor type: [M+H]+
Precursor intensity: 14518521.25
m/z	relative intensity	assigned
53.0386	3	C4H5+
55.0179	12	C3H3O+
55.0542	30	C4H7+
56.0495	235	C3H6N+
58.0651	1	C3H8N+
65.0385	2	C5H5+
67.0416	2	C4H5N+
67.0542	8	C5H7+
68.0495	1	C4H6N+
79.0178	1	C5H3O+
79.0542	3	C6H7+
80.0494	3	C5H6N+
81.0334	7	C5H5O+
82.0287	3	C4H4NO+
82.0651	22	C5H8N+
83.0293	1	C5H4F+
84.0807	14	C5H10N+
91.0542	90	C7H7+
95.0127	15	C5H3O2+
103.0542	6	C8H7+
105.0334	2	C7H5O+
105.0699	3	C8H9+
109.0448	35	C7H6F+
110.06	2	C6H8NO+
115.0542	12	C9H7+
116.062	17	C9H8+
117.0571	1	C8H7N+
117.0698	17	C9H9+
118.0651	5	C8H8N+
119.0856	2	C9H11+
121.0447	5	C8H6F+
123.0241	7	C7H4FO+
123.0602	1	C8H8F+
128.0619	12	C10H8+
129.0698	43	C10H9+
130.0649	5	C9H8N+
130.0774	1	C10H10+
131.0855	73	C10H11+
133.0448	18	C9H6F+
135.0604	3	C9H8F+
141.0699	12	C11H9+
142.0777	22	C11H10+
143.0729	7	C10H9N+
143.0856	11	C11H11+
144.0807	13	C10H10N+
144.0937	1	C11H12+
145.0448	1	C10H6F+
145.0648	2	C10H9O+
145.1014	1	C11H13+
147.0241	10	C9H4FO+
147.0604	3	C10H8F+
151.0544	3	C12H7+
152.0619	3	C12H8+
153.0697	8	C12H9+
154.0779	1	C12H10+
155.0493	3	C11H7O+
155.0604	3	C10H7N2+
155.0856	13	C12H11+
156.0809	2	C11H10N+
157.0448	999	C11H6F+
158.0964	2	C11H12N+
159.0604	8	C11H8F+
165.0699	13	C13H9+
166.0778	2	C13H10+
167.0732	1	C12H9N+
167.0855	2	C13H11+
169.0648	29	C12H9O+
170.0526	157	C12H7F+
171.0604	111	C12H8F+
172.0756	6	C11H10NO+
172.112	32	C12H14N+
173.051	1	C10H6FN2+
174.0714	1	C11H9FN+
174.1281	2	C12H16N+
177.0702	1	C14H9+
178.0774	4	C14H10+
179.0603	10	C12H7N2+
179.0856	7	C14H11+
181.0649	2	C13H9O+
181.1012	1	C14H13+
183.0604	3	C13H8F+
183.08	1	C13H11O+
185.0632	1	C12H8FN+
186.0712	1	C12H9FN+
187.0555	6	C12H8FO+
189.0704	1	C15H9+
190.077	1	C15H10+
191.0853	4	C15H11+
193.065	1	C14H9O+
193.1012	1	C15H13+
194.0722	1	C14H10O+
196.0674	1	C14H9F+
197.0514	1	C12H6FN2+
199.0553	115	C13H8FO+
200.107	2	C13H14NO+
201.0709	1	C13H10FO+
202.078	2	C16H10+
203.0857	2	C16H11+
207.0802	1	C15H11O+
209.0764	4	C15H10F+
213.0346	349	C13H6FO2+
215.0855	3	C17H11+
219.0803	1	C16H11O+
220.0681	14	C16H9F+
221.0757	5	C16H10F+
222.084	1	C16H11F+
225.0714	1	C15H10FO+
226.0777	114	C18H10+
227.0507	11	C14H8FO2+
227.0854	104	C18H11+
228.0933	3	C18H12+
233.076	40	C17H10F+
234.0839	5	C17H11F+
235.0915	15	C17H12F+
239.0856	6	C19H11+
240.0938	4	C19H12+
241.1012	4	C19H13+
242.0611	2	C14H9FNO2+
244.0689	3	C18H9F+
245.0612	2	C17H9O2+
245.0761	11	C18H10F+
246.0839	226	C18H11F+
247.0917	291	C18H12F+
248.0994	3	C18H13F+
249.1076	1	C18H14F+
252.0933	8	C20H12+
253.1009	5	C20H13+
255.0804	14	C19H11O+
255.1164	1	C20H15+
257.076	30	C19H10F+
258.0838	18	C19H11F+
259.0916	36	C19H12F+
260.0995	13	C19H13F+
261.1074	13	C19H14F+
262.1023	1	C18H13FN+
265.1016	4	C21H13+
266.1086	2	C21H14+
270.0837	27	C20H11F+
271.0917	29	C20H12F+
272.0993	12	C20H13F+
273.0707	6	C19H10FO+
273.1075	8	C20H14F+
274.0788	14	C19H11FO+
274.1151	3	C20H15F+
275.0867	26	C19H12FO+
275.123	2	C20H16F+
276.0936	2	C22H12+
277.1006	1	C22H13+
283.0919	11	C21H12F+
283.1119	3	C21H15O+
284.0997	7	C21H13F+
285.1075	20	C21H14F+
286.0776	1	C23H10+
286.1156	2	C21H15F+
287.1235	1	C21H16F+
288.0944	2	C20H13FO+
289.1021	5	C20H14FO+
294.0835	1	C22H11F+
295.0923	3	C22H12F+
296.0995	4	C22H13F+
297.1081	4	C22H14F+
299.0872	1	C21H12FO+
299.1233	2	C22H16F+
300.0957	1	C21H13FO+
301.1027	3	C21H14FO+
303.0815	10	C20H12FO2+
313.102	2	C22H14FO+
331.1134	1	C22H16FO2+
338.1537	1	C24H20NO+
344.1446	1	C23H19FNO+
358.1595	2	C24H21FNO+
