Mass spectrum: Octylparaben; LC-ESI-QFT; MS2; CE: 45; R=17500; [M-H]-
Name: Octylparaben
Name: octyl 4-hydroxybenzoate
Formula: C15H22O3
Exact mass: 250.1569
SMILES: CCCCCCCCOC(=O)C1=CC=C(O)C=C1
InChI: InChI=1S/C15H22O3/c1-2-3-4-5-6-7-12-18-15(17)13-8-10-14(16)11-9-13/h8-11,16H,2-7,12H2,1H3
Instrument: Q Exactive Orbitrap (Thermo Scientific)
Instrument type: LC-ESI-QFT
Ms type: MS2
Ion mode: NEGATIVE
Ionization: ESI
Fragmentation mode: HCD
Collision energy: 45
Resolution: 17500
Column name: Acquity BEH C18 1.7um, 2.1x150mm (Waters)
Retention time: 19.955 min
Base peak: 249.1496
Precursor m/z: 249.1496
Precursor type: [M-H]-
Precursor intensity: 85338863.94043
m/z	relative intensity	assigned
67.0189	1	C4H3O-
68.9982	6	C3HO2-
69.0346	6	C4H5O-
70.006	5	C3H2O2-
71.0139	3	C3H3O2-
72.9932	3	C2HO3-
78.0111	1	C5H2O-
79.0189	6	C5H3O-
79.9905	3	C4O2-
80.9982	2	C4HO2-
82.006	21	C4H2O2-
91.019	33	C6H3O-
92.0267	141	C6H4O-
93.0346	955	C6H5O-
95.0138	280	C5H3O2-
97.0296	3	C5H5O2-
98.0013	1	C4H2O3-
106.006	12	C6H2O2-
106.0424	4	C7H6O-
107.0139	3	C6H3O2-
108.0217	260	C6H4O2-
119.0138	35	C7H3O2-
121.0295	36	C7H5O2-
123.0087	40	C6H3O3-
127.1128	20	C8H15O-
136.0166	999	C7H4O3-
137.0243	758	C7H5O3-
149.0243	2	C8H5O3-
205.1597	7	C14H21O-
249.1495	754	C15H21O3-
