Mass spectrum: 3-((Ethylphenylamino)methyl)benzenesulfonic acid; LC-ESI-QFT; MS2; CE: 60; R=17500; [M-H]-
Name: 3-((Ethylphenylamino)methyl)benzenesulfonic acid
Name: 3-[(N-ethylanilino)methyl]benzenesulfonic acid
Formula: C15H17NO3S
Exact mass: 291.0929
SMILES: CCN(CC1=CC(=CC=C1)S(O)(=O)=O)C1=CC=CC=C1
InChI: InChI=1S/C15H17NO3S/c1-2-16(14-8-4-3-5-9-14)12-13-7-6-10-15(11-13)20(17,18)19/h3-11H,2,12H2,1H3,(H,17,18,19)
Instrument: Q Exactive Orbitrap (Thermo Scientific)
Instrument type: LC-ESI-QFT
Ms type: MS2
Ion mode: NEGATIVE
Ionization: ESI
Fragmentation mode: HCD
Collision energy: 60
Resolution: 17500
Column name: Acquity BEH C18 1.7um, 2.1x150mm (Waters)
Retention time: 11.234 min
Base peak: 290.0858
Precursor m/z: 290.0856
Precursor type: [M-H]-
Precursor intensity: 4168530.327637
m/z	relative intensity	assigned
63.9624	1	O2S-
79.9573	133	O3S-
80.965	1	HO3S-
95.0139	1	C5H3O2-
106.0424	3	C7H6O-
107.0502	1	C7H7O-
108.0217	5	C6H4O2-
121.0295	40	C7H5O2-
136.0168	1	C7H4O3-
137.0242	2	C7H5O3-
170.0043	999	C7H6O3S-
171.0118	2	C7H7O3S-
201.9941	417	C13NO2-
260.0386	11	C13H10NO3S-
290.0849	1	C15H16NO3S-
