Mass spectrum: Indinavir; LC-ESI-QFT; MS2; CE: 45; R=17500; [M-H]-
Name: Indinavir
Formula: C36H47N5O4
Exact mass: 613.3628
SMILES: CC(C)(C)NC(=O)[C@@H]1CN(Cc2cccnc2)CCN1C[C@@H](O)C[C@@H](Cc1ccccc1)C(=O)N[C@H]1c2ccccc2C[C@H]1O
InChI: InChI=1S/C36H47N5O4/c1-36(2,3)39-35(45)31-24-40(22-26-12-9-15-37-21-26)16-17-41(31)23-29(42)19-28(18-25-10-5-4-6-11-25)34(44)38-33-30-14-8-7-13-27(30)20-32(33)43/h4-15,21,28-29,31-33,42-43H,16-20,22-24H2,1-3H3,(H,38,44)(H,39,45)/t28-,29+,31+,32-,33+/m1/s1
Instrument: Q Exactive Orbitrap (Thermo Scientific)
Instrument type: LC-ESI-QFT
Ms type: MS2
Ion mode: NEGATIVE
Ionization: ESI
Fragmentation mode: HCD
Collision energy: 45
Resolution: 17500
Column name: Acquity BEH C18 1.7um, 2.1x150mm (Waters)
Retention time: 15.252 min
Base peak: 112.9857
Precursor m/z: 612.3555
Precursor type: [M-H]-
Precursor intensity: 443295.328125
m/z	relative intensity	assigned
56.0505	17	C3H6N-
57.0345	7	C3H5O-
58.0298	23	C2H4NO-
66.0349	7	C4H4N-
68.0506	48	C4H6N-
70.0298	14	C3H4NO-
72.0455	12	C3H6NO-
81.0458	24	C4H5N2-
83.0615	11	C4H7N2-
84.0455	13	C4H6NO-
91.0553	24	C7H7-
92.0506	515	C6H6N-
94.0298	32	C5H4NO-
98.0974	9	C6H12N-
100.0768	13	C5H10NO-
109.0407	39	C5H5N2O-
114.0924	46	C6H12NO-
117.0457	46	C7H5N2-
117.071	24	C9H9-
118.0665	29	C8H8N-
119.0615	339	C7H7N2-
126.0924	59	C7H12NO-
128.0505	15	C9H6N-
130.0662	379	C9H8N-
131.0503	12	C9H7O-
131.0615	10	C8H7N2-
133.0772	41	C8H9N2-
140.1079	8	C8H14NO-
141.1032	9	C7H13N2O-
142.0871	30	C7H12NO2-
143.0865	23	C11H11-
143.119	92	C7H15N2O-
144.0455	30	C9H6NO-
145.0656	16	C10H9O-
145.0771	11	C9H9N2-
146.061	25	C9H8NO-
147.0564	7	C8H7N2O-
147.0926	17	C9H11N2-
148.0768	184	C9H10NO-
149.0609	9	C9H9O2-
155.119	213	C8H15N2O-
156.0454	5	C10H6NO-
157.1345	18	C8H17N2O-
162.0925	115	C10H12NO-
167.119	139	C9H15N2O-
174.0559	9	C10H8NO2-
180.1143	21	C9H14N3O-
202.0874	6	C12H12NO2-
202.0985	12	C11H12N3O-
214.1237	9	C14H16NO-
219.1249	58	C11H15N4O-
234.1603	7	C13H20N3O-
250.124	11	C17H16NO-
252.14	11	C17H18NO-
266.155	9	C18H20NO-
275.1879	999	C15H23N4O-
276.1389	6	C19H18NO-
