Mass spectrum: 4,4`-Thiodianiline; LC-ESI-QFT; MS2; CE: 30; R=17500; [M+H]+
Name: 4,4'-Thiodianiline
Name: 4-(4-aminophenyl)sulfanylaniline
Formula: C12H12N2S
Exact mass: 216.0721
SMILES: NC1=CC=C(SC2=CC=C(N)C=C2)C=C1
InChI: InChI=1S/C12H12N2S/c13-9-1-5-11(6-2-9)15-12-7-3-10(14)4-8-12/h1-8H,13-14H2
Instrument: Q Exactive Orbitrap (Thermo Scientific)
Instrument type: LC-ESI-QFT
Ms type: MS2
Ion mode: POSITIVE
Ionization: ESI
Fragmentation mode: HCD
Collision energy: 30
Resolution: 17500
Column name: Acquity BEH C18 1.7um, 2.1x150mm (Waters)
Retention time: 12.268 min
Base peak: 79.0211
Precursor m/z: 217.0794
Precursor type: [M+H]+
Precursor intensity: 12702786
m/z	relative intensity	assigned
61.0107	1	C2H5S+
97.0107	535	C5H5S+
119.0604	106	C7H7N2+
120.0682	11	C7H8N2+
121.076	5	C7H9N2+
133.0761	1	C8H9N2+
157.011	21	C10H5S+
171.0266	1	C11H7S+
217.0793	999	C12H13N2S+
