Mass spectrum: Tetraconazole; LC-ESI-QFT; MS2; CE: 90; R=17500; [M+H]+
Name: Tetraconazole
Name: 1-[2-(2,4-dichlorophenyl)-3-(1,1,2,2-tetrafluoroethoxy)propyl]-1,2,4-triazole
Formula: C13H11Cl2F4N3O
Exact mass: 371.0215
SMILES: FC(F)C(F)(F)OCC(CN1C=NC=N1)C1=C(Cl)C=C(Cl)C=C1
InChI: InChI=1S/C13H11Cl2F4N3O/c14-9-1-2-10(11(15)3-9)8(4-22-7-20-6-21-22)5-23-13(18,19)12(16)17/h1-3,6-8,12H,4-5H2
Instrument: Q Exactive Orbitrap (Thermo Scientific)
Instrument type: LC-ESI-QFT
Ms type: MS2
Ion mode: POSITIVE
Ionization: ESI
Fragmentation mode: HCD
Collision energy: 90
Resolution: 17500
Column name: Acquity BEH C18 1.7um, 2.1x150mm (Waters)
Retention time: 17.947 min
Base peak: 79.0212
Precursor m/z: 372.0288
Precursor type: [M+H]+
Precursor intensity: 17462530.5
m/z	relative intensity	assigned
51.0041	1	CHF2+
59.0291	1	C3H4F+
62.015	1	C5H2+
65.0385	3	C5H5+
70.0399	514	C2H4N3+
72.9839	15	C3H2Cl+
74.9996	1	C3H4Cl+
89.0386	87	C7H5+
93.0335	1	C6H5O+
95.0491	1	C6H7O+
96.984	6	C5H2Cl+
98.9996	80	C5H4Cl+
103.0543	1	C8H7+
114.0464	1	C9H6+
115.0542	147	C9H7+
122.9996	334	C7H4Cl+
124.0074	105	C7H5Cl+
125.0152	3	C7H6Cl+
132.0571	2	C9H8O+
132.9606	45	C5H3Cl2+
133.0447	3	C9H6F+
134.0525	1	C4H6F2N3+
135.0603	1	C4H7F2N3+
149.0153	35	C9H6Cl+
150.0231	15	C9H7Cl+
155.9974	2	C4H8Cl2NO+
158.9763	999	C7H5Cl2+
176.9668	19	C7H4Cl2F+
