Mass spectrum: Thiophanate; LC-ESI-QFT; MS2; CE: 15; R=17500; [M+H]+
Name: Thiophanate
Name: N'-ethoxycarbonyl-N-[2-[(N-ethoxycarbonyl-C-sulfanylcarbonimidoyl)amino]phenyl]carbamimidothioic acid
Formula: C14H18N4O4S2
Exact mass: 370.0769
SMILES: CCOC(=O)NC(=S)NC1=C(NC(=S)NC(=O)OCC)C=CC=C1
InChI: InChI=1S/C14H18N4O4S2/c1-3-21-13(19)17-11(23)15-9-7-5-6-8-10(9)16-12(24)18-14(20)22-4-2/h5-8H,3-4H2,1-2H3,(H2,15,17,19,23)(H2,16,18,20,24)
Instrument: Q Exactive Orbitrap (Thermo Scientific)
Instrument type: LC-ESI-QFT
Ms type: MS2
Ion mode: POSITIVE
Ionization: ESI
Fragmentation mode: HCD
Collision energy: 15
Resolution: 17500
Column name: Acquity BEH C18 1.7um, 2.1x150mm (Waters)
Retention time: 16.519 min
Base peak: 79.0212
Precursor m/z: 371.0842
Precursor type: [M+H]+
Precursor intensity: 12496900
m/z	relative intensity	assigned
59.9901	3	CH2NS+
62.0238	1	CH4NO2+
85.97	2	C2NOS+
90.055	8	C3H8NO2+
103.9802	1	C2H2NO2S+
109.0762	2	C6H9N2+
132.0113	5	C4H6NO2S+
134.0714	2	C7H8N3+
151.0325	999	C7H7N2S+
160.0507	8	C8H6N3O+
192.9898	1	C8H5N2S2+
194.0383	34	C8H8N3OS+
206.0925	65	C10H12N3O2+
219.0336	8	C9H7N4OS+
223.0537	11	C10H11N2O2S+
235.9948	68	C9H6N3OS2+
240.0801	245	C10H14N3O2S+
265.0753	48	C11H13N4O2S+
279.0005	22	C10H7N4O2S2+
282.0366	310	C11H12N3O2S2+
291.0546	15	C12H11N4O3S+
325.0424	511	C12H13N4O3S2+
