Mass spectrum: Prednisone; LC-ESI-QFT; MS2; CE: 75; R=17500; [M+H]+
Name: Prednisone
Name: (8S,9S,10R,13S,14S,17R)-17-hydroxy-17-(2-hydroxyacetyl)-10,13-dimethyl-6,7,8,9,12,14,15,16-octahydrocyclopenta[a]phenanthrene-3,11-dione
Formula: C21H26O5
Exact mass: 358.1780
SMILES: C[C@]12CC(=O)[C@H]3[C@@H](CCC4=CC(=O)C=C[C@]34C)[C@@H]1CC[C@]2(O)C(=O)CO
InChI: InChI=1S/C21H26O5/c1-19-7-5-13(23)9-12(19)3-4-14-15-6-8-21(26,17(25)11-22)20(15,2)10-16(24)18(14)19/h5,7,9,14-15,18,22,26H,3-4,6,8,10-11H2,1-2H3/t14-,15-,18+,19-,20-,21-/m0/s1
Instrument: Q Exactive Orbitrap (Thermo Scientific)
Instrument type: LC-ESI-QFT
Ms type: MS2
Ion mode: POSITIVE
Ionization: ESI
Fragmentation mode: HCD
Collision energy: 75
Resolution: 17500
Column name: Acquity BEH C18 1.7um, 2.1x150mm (Waters)
Retention time: 15.437 min
Base peak: 79.0211
Precursor m/z: 359.1853
Precursor type: [M+H]+
Precursor intensity: 5315915.84375
m/z	relative intensity	assigned
53.0023	15	C3HO+
53.0386	107	C4H5+
55.0179	101	C3H3O+
55.0542	138	C4H7+
57.0335	36	C3H5O+
65.0385	93	C5H5+
67.0542	303	C5H7+
69.0335	126	C4H5O+
69.0699	43	C5H9+
71.0491	40	C4H7O+
77.0386	17	C6H5+
79.0542	463	C6H7+
81.0336	32	C5H5O+
81.0699	258	C6H9+
83.0492	47	C5H7O+
91.0543	999	C7H7+
93.0699	360	C7H9+
95.0491	371	C6H7O+
95.0855	260	C7H11+
97.0648	42	C6H9O+
99.0442	18	C5H7O2+
103.0542	74	C8H7+
104.0618	13	C8H8+
105.0699	402	C8H9+
107.0492	120	C7H7O+
107.0856	159	C8H11+
109.0648	154	C7H9O+
111.0443	17	C6H7O2+
111.0806	33	C7H11O+
115.0543	218	C9H7+
116.062	62	C9H8+
117.0699	207	C9H9+
119.0856	442	C9H11+
121.0648	585	C8H9O+
123.0806	35	C8H11O+
128.062	212	C10H8+
129.0699	185	C10H9+
130.0778	50	C10H10+
131.0492	83	C9H7O+
131.0856	226	C10H11+
132.057	208	C9H8O+
133.0651	35	C9H9O+
133.1013	44	C10H13+
135.0804	128	C9H11O+
141.0699	275	C11H9+
142.0776	70	C11H10+
143.0855	109	C11H11+
144.0571	210	C10H8O+
145.0648	431	C10H9O+
145.1011	63	C11H13+
146.0726	225	C10H10O+
147.0805	859	C10H11O+
152.0619	56	C12H8+
153.0699	127	C12H9+
154.0777	48	C12H10+
155.0855	112	C12H11+
157.0649	105	C11H9O+
157.1016	24	C12H13+
158.0727	402	C11H10O+
159.0805	426	C11H11O+
160.0885	34	C11H12O+
161.0962	71	C11H13O+
163.0752	26	C10H11O2+
165.07	166	C13H9+
166.0779	74	C13H10+
167.0856	100	C13H11+
168.0571	51	C12H8O+
168.0936	20	C13H12+
169.0648	182	C12H9O+
169.1012	41	C13H13+
170.0727	69	C12H10O+
171.0804	849	C12H11O+
172.0881	56	C12H12O+
173.0962	210	C12H13O+
177.07	18	C14H9+
178.0778	158	C14H10+
179.0856	323	C14H11+
180.0936	34	C14H12+
181.0647	218	C13H9O+
181.101	54	C14H13+
182.0726	165	C13H10O+
183.0806	141	C13H11O+
184.0881	65	C13H12O+
185.0962	69	C13H13O+
187.0754	30	C12H11O2+
187.1119	25	C13H15O+
189.0697	50	C15H9+
190.0781	60	C15H10+
191.0856	94	C15H11+
192.0937	65	C15H12+
193.1012	98	C15H13+
194.0728	135	C14H10O+
194.1095	34	C15H14+
195.0805	282	C14H11O+
195.1169	15	C15H15+
196.0883	151	C14H12O+
197.0962	164	C14H13O+
198.1035	15	C14H14O+
199.1116	23	C14H15O+
202.078	44	C16H10+
203.0859	78	C16H11+
204.0934	51	C16H12+
205.0652	35	C15H9O+
205.1013	92	C16H13+
206.0726	49	C15H10O+
206.1092	19	C16H14+
207.0806	240	C15H11O+
207.117	34	C16H15+
208.0884	234	C15H12O+
209.0962	191	C15H13O+
210.1042	89	C15H14O+
211.1114	82	C15H15O+
212.1199	30	C15H16O+
215.0853	87	C17H11+
215.1072	15	C14H15O2+
216.0937	36	C17H12+
217.1012	53	C17H13+
218.0727	28	C16H10O+
219.0805	127	C16H11O+
219.1172	35	C17H15+
220.0886	80	C16H12O+
221.0961	228	C16H13O+
221.133	11	C17H17+
222.104	306	C16H14O+
223.1119	100	C16H15O+
224.0828	18	C15H12O2+
224.1204	17	C16H16O+
225.0914	22	C15H13O2+
225.128	19	C16H17O+
227.086	19	C18H11+
228.0938	22	C18H12+
229.1013	48	C18H13+
230.1093	27	C18H14+
231.0807	76	C17H11O+
231.1169	25	C18H15+
232.0882	80	C17H12O+
233.0959	123	C17H13O+
234.104	116	C17H14O+
235.1118	77	C17H15O+
236.1203	22	C17H16O+
237.1275	58	C17H17O+
238.0989	28	C16H14O2+
238.1353	19	C17H18O+
243.1174	15	C19H15+
244.0881	15	C18H12O+
245.0961	87	C18H13O+
246.1044	30	C18H14O+
247.1114	109	C18H15O+
248.1199	47	C18H16O+
249.1274	83	C18H17O+
250.1352	19	C18H18O+
257.0963	18	C19H13O+
259.1123	31	C19H15O+
261.1281	15	C19H17O+
263.1437	14	C19H19O+
