Mass spectrum: GSK232420A; LC-ESI-QFT; MS2; CE: 60; R=17500; [M-H]-
Name: GSK232420A
Name: 2-[4-cyano-N-(2,2,2-trifluoroethyl)-3-(trifluoromethyl)anilino]acetamide
Formula: C12H9F6N3O
Exact mass: 325.0650
SMILES: NC(=O)CN(CC(F)(F)F)C1=CC(=C(C=C1)C#N)C(F)(F)F
InChI: InChI=1S/C12H9F6N3O/c13-11(14,15)6-21(5-10(20)22)8-2-1-7(4-19)9(3-8)12(16,17)18/h1-3H,5-6H2,(H2,20,22)
Instrument: Q Exactive Orbitrap (Thermo Scientific)
Instrument type: LC-ESI-QFT
Ms type: MS2
Ion mode: NEGATIVE
Ionization: ESI
Fragmentation mode: HCD
Collision energy: 60
Resolution: 17500
Column name: Acquity BEH C18 1.7um, 2.1x150mm (Waters)
Retention time: 15.748 min
Base peak: 284.0451
Precursor m/z: 324.0577
Precursor type: [M-H]-
Precursor intensity: 3903402.941406
m/z	relative intensity	assigned
65.0145	143	C3HN2-
65.9985	100	C3NO-
68.9957	29	CF3-
87.0001	28	C2FN2O-
93.0095	157	C4HN2O-
113.0157	999	C4H2FN2O-
149.0144	32	C2H2F5N2-
150.0159	56	C8H2F2N-
168.0266	24	C8H4F2NO-
169.0207	280	C10H2FN2-
170.0223	348	C8H3F3N-
175.0113	95	C9HF2N2-
176.0189	26	C9H2F2N2-
185.0332	303	C8H4F3N2-
189.0269	181	C10H3F2N2-
194.0221	70	C10H3F3N-
195.0176	460	C9H2F3N2-
196.025	94	C9H3F3N2-
199.0315	27	C11H4FN2O-
209.0332	804	C10H4F3N2-
210.0172	392	C10H3F3NO-
211.013	30	C9H2F3N2O-
217.0217	140	C11H3F2N2O-
224.0201	37	C10H3F3N2O-
236.0442	119	C11H5F3N3-
237.0281	465	C11H4F3N2O-
264.0393	334	C12H5F3N3O-
282.0303	36	C12H4F4N3O-
