Mass spectrum: C.I. Basic Red 9; LC-ESI-QFT; MS2; CE: 60; R=17500; [M+H]+
Name: C.I. Basic Red 9
Name: 4-[(4-aminophenyl)-(4-iminocyclohexa-2,5-dien-1-ylidene)methyl]aniline
Formula: C19H17N3
Exact mass: 287.1422
SMILES: NC1=CC=C(C=C1)C(C1=CC=C(N)C=C1)=C1C=CC(=N)C=C1
InChI: InChI=1S/C19H17N3/c20-16-7-1-13(2-8-16)19(14-3-9-17(21)10-4-14)15-5-11-18(22)12-6-15/h1-12,20H,21-22H2
Instrument: Q Exactive Orbitrap (Thermo Scientific)
Instrument type: LC-ESI-QFT
Ms type: MS2
Ion mode: POSITIVE
Ionization: ESI
Fragmentation mode: HCD
Collision energy: 60
Resolution: 17500
Column name: Acquity BEH C18 1.7um, 2.1x150mm (Waters)
Retention time: 13.053 min
Base peak: 79.0211
Precursor m/z: 288.1495
Precursor type: [M+H]+
Precursor intensity: 33176425.90625
m/z	relative intensity	assigned
80.0495	1	C5H6N+
94.065	1	C6H8N+
106.0652	5	C7H8N+
118.065	1	C8H8N+
119.0603	1	C7H7N2+
130.0651	4	C9H8N+
141.0697	2	C11H9+
143.073	2	C10H9N+
144.0808	1	C10H10N+
145.0759	1	C9H9N2+
153.0697	1	C12H9+
154.0651	3	C11H8N+
155.0604	1	C10H7N2+
167.0729	5	C12H9N+
168.0807	75	C12H10N+
169.0648	5	C10H7N3+
169.0759	2	C11H9N2+
171.0916	4	C11H11N2+
178.0652	24	C13H8N+
179.0605	2	C12H7N2+
179.0723	2	C13H9N+
180.0806	3	C13H10N+
193.0766	1	C13H9N2+
194.084	6	C13H10N2+
195.0916	999	C13H11N2+
196.0992	4	C13H12N2+
217.0888	1	C16H11N+
218.0964	4	C16H12N+
221.1074	5	C15H13N2+
226.0775	1	C18H10+
227.0855	1	C18H11+
230.0964	8	C17H12N+
231.104	2	C17H13N+
232.0995	1	C16H12N2+
234.115	1	C16H14N2+
241.0885	1	C18H11N+
242.0964	3	C18H12N+
243.104	3	C18H13N+
244.1119	4	C18H14N+
245.1073	17	C17H13N2+
246.115	5	C17H14N2+
247.123	3	C17H15N2+
254.0963	17	C19H12N+
255.0914	1	C18H11N2+
255.1044	6	C19H13N+
256.0989	5	C18H12N2+
256.1121	4	C19H14N+
257.1071	2	C18H13N2+
258.1154	1	C18H14N2+
259.123	3	C18H15N2+
269.1072	7	C19H13N2+
270.1148	7	C19H14N2+
271.1229	62	C19H15N2+
272.1175	9	C18H14N3+
272.1308	10	C19H16N2+
273.1259	61	C18H15N3+
286.1338	11	C19H16N3+
287.1418	4	C19H17N3+
288.1494	356	C19H18N3+
