Mass spectrum: Cinchophen; LC-ESI-QFT; MS2; CE: 30; R=17500; [M+H]+
Name: Cinchophen
Name: 2-phenylquinoline-4-carboxylic acid
Formula: C16H11NO2
Exact mass: 249.0790
SMILES: OC(=O)C1=C2C=CC=CC2=NC(=C1)C1=CC=CC=C1
InChI: InChI=1S/C16H11NO2/c18-16(19)13-10-15(11-6-2-1-3-7-11)17-14-9-5-4-8-12(13)14/h1-10H,(H,18,19)
Instrument: Q Exactive Orbitrap (Thermo Scientific)
Instrument type: LC-ESI-QFT
Ms type: MS2
Ion mode: POSITIVE
Ionization: ESI
Fragmentation mode: HCD
Collision energy: 30
Resolution: 17500
Column name: Acquity BEH C18 1.7um, 2.1x150mm (Waters)
Retention time: 17.037 min
Base peak: 79.0211
Precursor m/z: 250.0863
Precursor type: [M+H]+
Precursor intensity: 10868815.5
m/z	relative intensity	assigned
205.0882	1	C15H11N+
249.0783	1	C16H11NO2+
250.0861	999	C16H12NO2+
