Mass spectrum: Warfarin; LC-ESI-QFT; MS2; CE: 90; R=17500; [M+H]+
Name: Warfarin
Name: 4-hydroxy-3-(3-oxo-1-phenylbutyl)chromen-2-one
Formula: C19H16O4
Exact mass: 308.1049
SMILES: CC(=O)CC(C1=CC=CC=C1)C1=C(O)C2=CC=CC=C2OC1=O
InChI: InChI=1S/C19H16O4/c1-12(20)11-15(13-7-3-2-4-8-13)17-18(21)14-9-5-6-10-16(14)23-19(17)22/h2-10,15,21H,11H2,1H3
Instrument: Q Exactive Orbitrap (Thermo Scientific)
Instrument type: LC-ESI-QFT
Ms type: MS2
Ion mode: POSITIVE
Ionization: ESI
Fragmentation mode: HCD
Collision energy: 90
Resolution: 17500
Column name: Acquity BEH C18 1.7um, 2.1x150mm (Waters)
Retention time: 17.456 min
Base peak: 79.0211
Precursor m/z: 309.1121
Precursor type: [M+H]+
Precursor intensity: 15735028.625
m/z	relative intensity	assigned
50.0152	4	C4H2+
51.0229	2	C4H3+
53.0022	11	C3HO+
53.0386	80	C4H5+
55.0179	9	C3H3O+
63.023	3	C5H3+
65.0385	366	C5H5+
68.9971	94	C3HO2+
77.0385	39	C6H5+
79.0542	20	C6H7+
81.0334	9	C5H5O+
89.0386	29	C7H5+
90.0465	1	C7H6+
91.0542	151	C7H7+
93.0335	113	C6H5O+
94.0413	14	C6H6O+
95.0492	377	C6H7O+
98.0363	6	C5H6O2+
102.0464	22	C8H6+
103.0542	222	C8H7+
105.0337	15	C7H5O+
107.0491	7	C7H7O+
109.0648	3	C7H9O+
111.0441	117	C6H7O2+
115.0542	22	C9H7+
117.0333	2	C8H5O+
117.07	3	C9H9+
118.0414	1	C8H6O+
119.0492	14	C8H7O+
121.0284	999	C7H5O2+
123.9952	1	C9O+
125.0596	8	C7H9O2+
128.062	57	C10H8+
129.0334	34	C9H5O+
129.0698	50	C10H9+
130.0413	6	C9H6O+
131.0492	37	C9H7O+
139.039	20	C7H7O3+
141.0697	8	C11H9+
145.0284	20	C9H5O2+
145.0647	6	C10H9O+
147.0803	1	C10H11O+
147.9948	26	C11O+
149.0232	1	C8H5O3+
152.0621	72	C12H8+
153.0699	67	C12H9+
154.0777	23	C12H10+
155.0855	157	C12H11+
156.0566	1	C11H8O+
157.0285	8	C10H5O2+
163.039	136	C9H7O3+
163.9902	1	C11O2+
165.0699	94	C13H9+
166.0776	20	C13H10+
167.0855	60	C13H11+
169.0648	10	C12H9O+
175.039	11	C10H7O3+
175.99	5	C12O2+
176.0621	26	C14H8+
177.0699	19	C14H9+
178.0777	102	C14H10+
179.0854	4	C14H11+
179.9846	1	C11O3+
181.0646	7	C13H9O+
183.0805	14	C13H11O+
187.9897	2	C13O2+
191.0339	76	C10H7O4+
194.0725	4	C14H10O+
195.0807	5	C14H11O+
203.9848	16	C13O3+
205.0649	42	C15H9O+
206.0001	1	C13H2O3+
206.0728	1	C15H10O+
221.0598	2	C15H9O2+
223.0755	20	C15H11O2+
233.0596	8	C16H9O2+
234.0676	2	C16H10O2+
249.0547	5	C16H9O3+
251.0704	1	C16H11O3+
