Mass spectrum: Resmethrin; LC-ESI-QFT; MS2; CE: 15; R=17500; [M+H]+
Name: Resmethrin
Formula: C22H26O3
Exact mass: 338.1882
SMILES: CC(C)=CC1C(C(=O)OCC2=COC(CC3=CC=CC=C3)=C2)C1(C)C
InChI: InChI=1S/C22H26O3/c1-15(2)10-19-20(22(19,3)4)21(23)25-14-17-12-18(24-13-17)11-16-8-6-5-7-9-16/h5-10,12-13,19-20H,11,14H2,1-4H3
Instrument: Q Exactive Orbitrap (Thermo Scientific)
Instrument type: LC-ESI-QFT
Ms type: MS2
Ion mode: POSITIVE
Ionization: ESI
Fragmentation mode: HCD
Collision energy: 15
Resolution: 17500
Column name: Acquity BEH C18 1.7um, 2.1x150mm (Waters)
Retention time: 20.591 min
Base peak: 79.0211
Precursor m/z: 339.1955
Precursor type: [M+H]+
Precursor intensity: 960940.484375
m/z	relative intensity	assigned
91.0543	32	C7H7+
95.0855	6	C7H11+
117.0702	6	C9H9+
119.0858	7	C9H11+
121.1013	38	C9H13+
123.117	5	C9H15+
135.117	13	C10H15+
139.112	13	C9H15O+
141.0914	7	C8H13O2+
143.0855	9	C11H11+
149.0964	14	C10H13O+
159.0805	8	C11H11O+
159.117	8	C12H15+
167.1066	66	C10H15O2+
171.0805	393	C12H11O+
173.096	7	C12H13O+
175.1487	26	C13H19+
185.0961	11	C13H13O+
187.111	5	C13H15O+
199.1119	21	C14H15O+
203.1432	29	C14H19O+
205.1223	11	C13H17O2+
225.1273	44	C16H17O+
226.135	10	C16H18O+
237.1274	8	C17H17O+
239.1434	28	C17H19O+
251.1433	26	C18H19O+
275.1793	9	C21H23+
283.1318	10	C18H19O3+
293.1901	128	C21H25O+
321.1849	107	C22H25O2+
339.1957	999	C22H27O3+
