Mass spectrum: Hydroxyflutamide; LC-ESI-QFT; MS2; CE: 45; R=17500; [M-H]-
Name: Hydroxyflutamide
Name: 2-hydroxy-2-methyl-N-[4-nitro-3-(trifluoromethyl)phenyl]propanamide
Formula: C11H11F3N2O4
Exact mass: 292.0671
SMILES: CC(C)(O)C(=O)NC1=CC(=C(C=C1)[N+]([O-])=O)C(F)(F)F
InChI: InChI=1S/C11H11F3N2O4/c1-10(2,18)9(17)15-6-3-4-8(16(19)20)7(5-6)11(12,13)14/h3-5,18H,1-2H3,(H,15,17)
Instrument: Q Exactive Orbitrap (Thermo Scientific)
Instrument type: LC-ESI-QFT
Ms type: MS2
Ion mode: NEGATIVE
Ionization: ESI
Fragmentation mode: HCD
Collision energy: 45
Resolution: 17500
Column name: Acquity BEH C18 1.7um, 2.1x150mm (Waters)
Retention time: 16.807 min
Base peak: 291.0599
Precursor m/z: 291.0598
Precursor type: [M-H]-
Precursor intensity: 112623782.4551
m/z	relative intensity	assigned
65.9985	10	C3NO-
70.9939	3	C3FO-
74.0036	4	C5N-
77.0145	4	C4HN2-
86.9888	12	C3FO2-
89.0144	1	C5HN2-
93.0095	3	C4HN2O-
101.0145	3	C6HN2-
111.0001	1	C4FN2O-
119.025	2	C6H3N2O-
135.0125	2	C7H2FNO-
151.0078	1	C7H2FNO2-
154.0106	1	C7H2F2NO-
155.0188	5	C7H3F2NO-
159.0295	1	C7H4F3N-
165.0105	9	C7H2FN2O2-
175.025	47	C7H4F3NO-
205.0229	999	C7H4F3N2O2-
206.0068	16	C7H3F3NO3-
291.0597	5	C11H10F3N2O4-
