Mass spectrum: Theobromine; LC-ESI-QFT; MS2; CE: 75; R=17500; [M+H]+
Name: Theobromine
Name: 3,7-dimethylpurine-2,6-dione
Formula: C7H8N4O2
Exact mass: 180.0647
SMILES: CN1C=NC2=C1C(=O)NC(=O)N2C
InChI: InChI=1S/C7H8N4O2/c1-10-3-8-5-4(10)6(12)9-7(13)11(5)2/h3H,1-2H3,(H,9,12,13)
Instrument: Q Exactive Orbitrap (Thermo Scientific)
Instrument type: LC-ESI-QFT
Ms type: MS2
Ion mode: POSITIVE
Ionization: ESI
Fragmentation mode: HCD
Collision energy: 75
Resolution: 17500
Column name: Acquity BEH C18 1.7um, 2.1x150mm (Waters)
Retention time: 8.350 min
Base peak: 79.0211
Precursor m/z: 181.072
Precursor type: [M+H]+
Precursor intensity: 431345.9375
m/z	relative intensity	assigned
56.0495	88	C3H6N+
65.0386	123	C5H5+
67.029	999	C3H3N2+
69.0447	525	C3H5N2+
79.0291	30	C4H3N2+
79.0542	43	C6H7+
81.0447	48	C4H5N2+
83.0603	231	C4H7N2+
93.07	32	C7H9+
94.04	82	C4H4N3+
95.049	69	C6H7O+
96.0557	171	C4H6N3+
108.0556	625	C5H6N3+
109.0397	48	C5H5N2O+
110.0713	516	C5H8N3+
113.0346	58	C4H5N2O2+
121.0285	122	C7H5O2+
121.0398	51	C6H5N2O+
122.0587	439	C5H6N4+
123.0428	80	C5H5N3O+
133.0285	43	C6H3N3O+
135.0441	35	C6H5N3O+
135.0666	312	C6H7N4+
137.0823	196	C6H9N4+
138.0662	459	C6H8N3O+
148.0379	22	C6H4N4O+
149.0234	131	C6H3N3O2+
163.0394	37	C7H5N3O2+
163.0615	277	C7H7N4O+
167.0555	66	C6H7N4O2+
181.0719	428	C7H9N4O2+
