Mass spectrum: 1,2,3-Benzotriazole; LC-ESI-QFT; MS2; CE: 15; R=17500; [M+H]+
Name: 1,2,3-Benzotriazole
Name: 1H-Benzotriazole
Name: 2H-benzotriazole
Formula: C6H5N3
Exact mass: 119.0483
SMILES: N1N=NC2=C1C=CC=C2
InChI: InChI=1S/C6H5N3/c1-2-4-6-5(3-1)7-9-8-6/h1-4H,(H,7,8,9)
Instrument: Q Exactive Orbitrap (Thermo Scientific)
Instrument type: LC-ESI-QFT
Ms type: MS2
Ion mode: POSITIVE
Ionization: ESI
Fragmentation mode: HCD
Collision energy: 15
Resolution: 17500
Column name: Acquity BEH C18 1.7um, 2.1x150mm (Waters)
Retention time: 12.003 min
Base peak: 79.0211
Precursor m/z: 120.0556
Precursor type: [M+H]+
Precursor intensity: 8368305.28125
m/z	relative intensity	assigned
65.0385	43	C5H5+
92.0494	39	C6H6N+
120.0556	999	C6H6N3+
