Mass spectrum: Zamifenacin; LC-ESI-QFT; MS2; CE: 15; R=17500; [M+H]+
Name: Zamifenacin
Name: (3R)-3-benzhydryloxy-1-[2-(1,3-benzodioxol-5-yl)ethyl]piperidine
Formula: C27H29NO3
Exact mass: 415.2147
SMILES: C(CC1=CC2=C(OCO2)C=C1)N1CCC[C@H](C1)OC(C1=CC=CC=C1)C1=CC=CC=C1
InChI: InChI=1S/C27H29NO3/c1-3-8-22(9-4-1)27(23-10-5-2-6-11-23)31-24-12-7-16-28(19-24)17-15-21-13-14-25-26(18-21)30-20-29-25/h1-6,8-11,13-14,18,24,27H,7,12,15-17,19-20H2/t24-/m1/s1
Instrument: Q Exactive Orbitrap (Thermo Scientific)
Instrument type: LC-ESI-QFT
Ms type: MS2
Ion mode: POSITIVE
Ionization: ESI
Fragmentation mode: HCD
Collision energy: 15
Resolution: 17500
Column name: Acquity BEH C18 1.7um, 2.1x150mm (Waters)
Retention time: 16.040 min
Base peak: 79.0211
Precursor m/z: 416.222
Precursor type: [M+H]+
Precursor intensity: 46944484
m/z	relative intensity	assigned
149.0596	4	C9H9O2+
165.0689	2	C13H9+
166.0779	1	C13H10+
167.0854	999	C13H11+
248.128	19	C14H18NO3+
280.1699	2	C19H22NO+
416.2219	853	C27H30NO3+
