Mass spectrum: Atraton; LC-ESI-QFT; MS2; CE: 60; R=17500; [M+H]+
Name: Atraton
Name: 4-N-ethyl-6-methoxy-2-N-propan-2-yl-1,3,5-triazine-2,4-diamine
Formula: C9H17N5O
Exact mass: 211.1433
SMILES: CCNC1=NC(NC(C)C)=NC(OC)=N1
InChI: InChI=1S/C9H17N5O/c1-5-10-7-12-8(11-6(2)3)14-9(13-7)15-4/h6H,5H2,1-4H3,(H2,10,11,12,13,14)
Instrument: Q Exactive Orbitrap (Thermo Scientific)
Instrument type: LC-ESI-QFT
Ms type: MS2
Ion mode: POSITIVE
Ionization: ESI
Fragmentation mode: HCD
Collision energy: 60
Resolution: 17500
Column name: Acquity BEH C18 1.7um, 2.1x150mm (Waters)
Retention time: 13.594 min
Base peak: 79.0211
Precursor m/z: 212.1506
Precursor type: [M+H]+
Precursor intensity: 40943089.84375
m/z	relative intensity	assigned
53.0021	2	C3HO+
53.9976	1	C2NO+
57.0447	112	C2H5N2+
58.0287	12	C2H4NO+
68.0243	92	C2H2N3+
69.0083	106	C2HN2O+
71.0604	125	C3H7N2+
75.0553	198	C2H7N2O+
82.04	12	C3H4N3+
83.024	20	C3H3N2O+
85.076	149	C4H9N2+
86.0349	168	C2H4N3O+
94.0652	2	C6H8N+
96.0556	284	C4H6N3+
97.0397	157	C4H5N2O+
99.0665	14	C3H7N4+
100.0505	431	C3H6N3O+
103.0866	2	C4H11N2O+
110.0461	3	C3H4N5+
110.0713	9	C5H8N3+
112.0505	1	C4H6N3O+
113.0822	9	C4H9N4+
114.0662	274	C4H8N3O+
119.0605	2	C7H7N2+
125.0458	1	C4H5N4O+
127.098	8	C5H11N4+
128.0819	143	C5H10N3O+
138.0775	32	C5H8N5+
138.1026	23	C7H12N3+
139.0615	1	C5H7N4O+
142.0724	252	C4H8N5O+
153.077	6	C6H9N4O+
155.0804	1	C5H9N5O+
168.088	10	C6H10N5O+
170.1036	999	C6H12N5O+
180.1243	2	C8H14N5+
184.1193	4	C7H14N5O+
210.1353	1	C9H16N5O+
212.1506	92	C9H18N5O+
