Mass spectrum: Sulfaquinoxaline; LC-ESI-QFT; MS2; CE: 75; R=17500; [M+H]+
Name: Sulfaquinoxaline
Name: 4-amino-N-quinoxalin-2-ylbenzenesulfonamide
Formula: C14H12N4O2S
Exact mass: 300.0681
SMILES: NC1=CC=C(C=C1)S(=O)(=O)NC1=CN=C2C=CC=CC2=N1
InChI: InChI=1S/C14H12N4O2S/c15-10-5-7-11(8-6-10)21(19,20)18-14-9-16-12-3-1-2-4-13(12)17-14/h1-9H,15H2,(H,17,18)
Instrument: Q Exactive Orbitrap (Thermo Scientific)
Instrument type: LC-ESI-QFT
Ms type: MS2
Ion mode: POSITIVE
Ionization: ESI
Fragmentation mode: HCD
Collision energy: 75
Resolution: 17500
Column name: Acquity BEH C18 1.7um, 2.1x150mm (Waters)
Retention time: 13.985 min
Base peak: 79.0211
Precursor m/z: 301.0754
Precursor type: [M+H]+
Precursor intensity: 6432135.09375
m/z	relative intensity	assigned
53.0023	7	C3HO+
53.0386	8	C4H5+
54.0339	5	C3H4N+
55.0179	6	C3H3O+
55.0543	1	C4H7+
56.0495	2	C3H6N+
63.0229	1	C5H3+
65.0386	854	C5H5+
66.0339	1	C4H4N+
67.0178	1	C4H3O+
67.0542	1	C5H7+
68.0495	104	C4H6N+
69.0335	8	C4H5O+
74.0964	1	C4H12N+
78.0338	11	C5H4N+
79.0179	18	C5H3O+
80.0495	206	C5H6N+
81.0336	1	C5H5O+
82.0288	3	C4H4NO+
83.0492	3	C5H7O+
90.0339	7	C6H4N+
91.0417	2	C6H5N+
92.0495	974	C6H6N+
93.0574	8	C6H7N+
94.0654	5	C6H8N+
95.0366	4	C5H5NO+
95.0492	1	C6H7O+
96.0445	16	C5H6NO+
102.0341	1	C7H4N+
107.0605	3	C6H7N2+
108.0444	999	C6H6NO+
109.0523	9	C6H7NO+
110.0601	297	C6H8NO+
117.0448	10	C7H5N2+
118.0526	89	C7H6N2+
119.0605	5	C7H7N2+
120.0445	2	C7H6NO+
120.0557	17	C6H6N3+
124.0758	11	C7H10NO+
129.0448	38	C8H5N2+
130.0403	6	C7H4N3+
131.0605	1	C8H7N2+
135.0551	1	C7H7N2O+
144.0557	13	C8H6N3+
145.0634	11	C8H7N3+
146.0714	167	C8H8N3+
147.0553	75	C8H7N2O+
156.0114	12	C6H6NO2S+
161.0711	3	C9H9N2O+
162.066	1	C8H8N3O+
218.072	1	C14H8N3+
234.0896	1	C14H10N4+
235.0977	4	C14H11N4+
