Mass spectrum: Ranitidine; LC-ESI-QFT; MS2; CE: 90; R=17500; [M+H]+
Name: Ranitidine
Name: Ranitidine Base
Name: 1-N'-[2-[[5-[(dimethylamino)methyl]furan-2-yl]methylsulfanyl]ethyl]-1-N-methyl-2-nitroethene-1,1-diamine
Formula: C13H22N4O3S
Exact mass: 314.1413
SMILES: CNC(NCCSCC1=CC=C(CN(C)C)O1)=C[N+]([O-])=O
InChI: InChI=1S/C13H22N4O3S/c1-14-13(9-17(18)19)15-6-7-21-10-12-5-4-11(20-12)8-16(2)3/h4-5,9,14-15H,6-8,10H2,1-3H3
Instrument: Q Exactive Orbitrap (Thermo Scientific)
Instrument type: LC-ESI-QFT
Ms type: MS2
Ion mode: POSITIVE
Ionization: ESI
Fragmentation mode: HCD
Collision energy: 90
Resolution: 17500
Column name: Acquity BEH C18 1.7um, 2.1x150mm (Waters)
Retention time: 7.821 min
Base peak: 79.0211
Precursor m/z: 315.1485
Precursor type: [M+H]+
Precursor intensity: 3085211.5625
m/z	relative intensity	assigned
53.0386	77	C4H5+
54.0338	15	C3H4N+
55.0417	80	C3H5N+
56.0495	146	C3H6N+
57.0448	43	C2H5N2+
57.0574	17	C3H7N+
58.0651	39	C3H8N+
58.995	13	C2H3S+
60.0028	41	C2H4S+
60.9981	21	CH3NS+
61.0107	172	C2H5S+
65.0385	9	C5H5+
67.0541	16	C5H7+
68.0495	52	C4H6N+
69.0446	5	C3H5N2+
69.0573	14	C4H7N+
71.0604	40	C3H7N2+
78.0463	9	C6H6+
79.0543	44	C6H7+
80.0495	33	C5H6N+
81.0335	999	C5H5O+
82.0652	31	C5H8N+
83.0492	14	C5H7O+
83.0604	89	C4H7N2+
84.0683	34	C4H8N2+
85.0395	7	C3H5N2O+
86.0058	9	C3H4NS+
88.0216	36	C3H6NS+
91.0543	41	C7H7+
94.0413	21	C6H6O+
94.0652	87	C6H8N+
95.0492	73	C6H7O+
95.0603	11	C5H7N2+
95.0731	17	C6H9N+
96.0446	5	C5H6NO+
96.0683	13	C5H8N2+
97.0761	489	C5H9N2+
98.0839	92	C5H10N2+
101.017	8	C3H5N2S+
101.0294	14	C4H7NS+
102.0373	976	C4H8NS+
104.0496	39	C7H6N+
106.0653	32	C7H8N+
107.0492	218	C7H7O+
108.0569	12	C7H8O+
108.0807	30	C7H10N+
109.0647	6	C7H9O+
109.0761	14	C6H9N2+
110.06	21	C6H8NO+
110.0965	21	C7H12N+
115.0324	18	C4H7N2S+
117.0483	19	C4H9N2S+
117.0574	14	C8H7N+
118.0322	7	C4H8NOS+
118.0651	44	C8H8N+
120.0685	19	C7H8N2+
120.0809	16	C8H10N+
121.0761	89	C7H9N2+
122.0601	19	C7H8NO+
123.0263	14	C7H7S+
124.0758	10	C7H10NO+
125.0057	214	C6H5OS+
129.0482	50	C5H9N2S+
130.0561	49	C5H10N2S+
132.0445	88	C8H6NO+
133.0524	83	C8H7NO+
133.076	17	C8H9N2+
134.06	21	C8H8NO+
134.084	10	C8H10N2+
135.0265	8	C8H7S+
135.0918	82	C8H11N2+
137.1075	9	C8H13N2+
139.0326	13	C6H7N2S+
145.0758	5	C9H9N2+
146.0602	16	C9H8NO+
147.0679	5	C9H9NO+
147.0916	15	C9H11N2+
148.0757	79	C9H10NO+
149.0709	16	C8H9N2O+
150.0375	21	C8H8NS+
151.0212	13	C8H7OS+
159.0459	5	C5H9N3OS+
163.0865	23	C9H11N2O+
167.0636	10	C8H11N2S+
177.1025	13	C10H13N2O+
178.0323	11	C9H8NOS+
192.0477	13	C10H10NOS+
