Mass spectrum: Tacrine; LC-ESI-QFT; MS2; CE: 45; R=17500; [M+H]+
Name: Tacrine
Name: 1,2,3,4-tetrahydroacridin-9-amine
Formula: C13H14N2
Exact mass: 198.1157
SMILES: NC1=C2CCCCC2=NC2=C1C=CC=C2
InChI: InChI=1S/C13H14N2/c14-13-9-5-1-3-7-11(9)15-12-8-4-2-6-10(12)13/h1,3,5,7H,2,4,6,8H2,(H2,14,15)
Instrument: Q Exactive Orbitrap (Thermo Scientific)
Instrument type: LC-ESI-QFT
Ms type: MS2
Ion mode: POSITIVE
Ionization: ESI
Fragmentation mode: HCD
Collision energy: 45
Resolution: 17500
Column name: Acquity BEH C18 1.7um, 2.1x150mm (Waters)
Retention time: 12.075 min
Base peak: 79.0211
Precursor m/z: 199.123
Precursor type: [M+H]+
Precursor intensity: 40624665
m/z	relative intensity	assigned
74.0963	3	C4H12N+
171.0916	2	C11H11N2+
199.1227	999	C13H15N2+
