Mass spectrum: Chloramphenicol; LC-ESI-QFT; MS2; CE: 30; R=17500; [M-H]-
Name: Chloramphenicol
Name: 2,2-dichloro-N-[(1R,2R)-1,3-dihydroxy-1-(4-nitrophenyl)propan-2-yl]acetamide
Formula: C11H12Cl2N2O5
Exact mass: 322.0123
SMILES: OC[C@@H](NC(=O)C(Cl)Cl)[C@H](O)C1=CC=C(C=C1)[N+]([O-])=O
InChI: InChI=1S/C11H12Cl2N2O5/c12-10(13)11(18)14-8(5-16)9(17)6-1-3-7(4-2-6)15(19)20/h1-4,8-10,16-17H,5H2,(H,14,18)/t8-,9-/m1/s1
Instrument: Q Exactive Orbitrap (Thermo Scientific)
Instrument type: LC-ESI-QFT
Ms type: MS2
Ion mode: NEGATIVE
Ionization: ESI
Fragmentation mode: HCD
Collision energy: 30
Resolution: 17500
Column name: Acquity BEH C18 1.7um, 2.1x150mm (Waters)
Retention time: 13.753 min
Base peak: 321.005
Precursor m/z: 321.0051
Precursor type: [M-H]-
Precursor intensity: 11003442.99072
m/z	relative intensity	assigned
61.9884	13	NO3-
70.9461	7	Cl2H-
78.035	19	C5H4N-
82.9461	32	CHCl2-
84.0091	23	C3H2NO2-
86.0248	2	C3H4NO2-
91.0192	2	C6H3O-
93.0346	7	C6H5O-
98.0247	8	C4H4NO2-
105.0222	2	C6H3NO-
108.0216	7	C6H4O2-
109.0297	2	C6H5O2-
118.0296	3	C7H4NO-
119.0139	5	C7H3O2-
121.0295	221	C7H5O2-
122.0248	51	C6H4NO2-
125.952	22	C2H2Cl2NO-
126.9359	61	C2HCl2O2-
131.0375	2	C8H5NO-
133.0296	1	C8H5O2-
136.0405	6	C7H6NO2-
137.0243	4	C7H5O3-
138.0198	2	C6H4NO3-
146.0373	10	C9H6O2-
148.0405	82	C8H6NO2-
150.0197	40	C7H4NO3-
151.0276	507	C7H5NO3-
152.0353	999	C7H6NO3-
159.0326	19	C9H5NO2-
160.0404	8	C9H6NO2-
161.0356	4	C8H5N2O2-
166.0146	26	C7H4NO4-
166.0507	15	C8H8NO3-
175.0516	6	C9H7N2O2-
176.0353	232	C9H6NO3-
179.0463	14	C8H7N2O3-
192.0303	2	C9H6NO4-
194.0459	61	C9H8NO4-
207.0411	5	C9H7N2O4-
219.041	21	C10H7N2O4-
249.0517	17	C11H9N2O5-
257.0336	45	C10H10ClN2O4-
321.0051	11	C11H11Cl2N2O5-
