Mass spectrum: Acetazolamide; LC-ESI-QFT; MS2; CE: 45; R=17500; [M-H]-
Name: Acetazolamide
Name: N-(5-sulfamoyl-1,3,4-thiadiazol-2-yl)acetamide
Formula: C4H6N4O3S2
Exact mass: 221.9881
SMILES: CC(=O)NC1=NN=C(S1)S(N)(=O)=O
InChI: InChI=1S/C4H6N4O3S2/c1-2(9)6-3-7-8-4(12-3)13(5,10)11/h1H3,(H2,5,10,11)(H,6,7,9)
Instrument: Q Exactive Orbitrap (Thermo Scientific)
Instrument type: LC-ESI-QFT
Ms type: MS2
Ion mode: NEGATIVE
Ionization: ESI
Fragmentation mode: HCD
Collision energy: 45
Resolution: 17500
Column name: Acquity BEH C18 1.7um, 2.1x150mm (Waters)
Retention time: 8.459 min
Base peak: 220.9808
Precursor m/z: 220.9809
Precursor type: [M-H]-
Precursor intensity: 5917203.259521
m/z	relative intensity	assigned
57.9757	421	CNS-
61.9706	44	NOS-
63.9624	13	O2S-
66.0098	2	C2N3-
72.9866	21	CHN2S-
77.9655	12	NO2S-
79.9812	257	H2NO2S-
83.0251	999	C3H3N2O-
97.9821	1	C2N3S-
115.0085	5	C2H3N4S-
115.9923	7	C2H2N3OS-
119.9873	1	CH2N3O2S-
126.031	1	C4H4N3O2-
142.0082	8	C4H4N3OS-
220.9808	18	C4H5N4O3S2-
