Mass spectrum: 4-Ethoxy-4-oxobut-2-enoic acid; LC-ESI-QFT; MS2; CE: 15; R=17500; [M-H]-
Name: 4-Ethoxy-4-oxobut-2-enoic acid
Formula: C6H8O4
Exact mass: 144.0423
SMILES: CCOC(=O)C=CC(O)=O
InChI: InChI=1S/C6H8O4/c1-2-10-6(9)4-3-5(7)8/h3-4H,2H2,1H3,(H,7,8)
Instrument: Q Exactive Orbitrap (Thermo Scientific)
Instrument type: LC-ESI-QFT
Ms type: MS2
Ion mode: NEGATIVE
Ionization: ESI
Fragmentation mode: HCD
Collision energy: 15
Resolution: 17500
Column name: Acquity BEH C18 1.7um, 2.1x150mm (Waters)
Retention time: 12.845 min
Base peak: 143.035
Precursor m/z: 143.035
Precursor type: [M-H]-
Precursor intensity: 3556969.529053
m/z	relative intensity	assigned
55.0189	26	C3H3O-
57.0346	10	C3H5O-
68.9982	8	C3HO2-
69.0347	44	C4H5O-
71.0139	999	C3H3O2-
71.0502	137	C4H7O-
75.0088	20	C2H3O3-
81.0347	28	C5H5O-
84.0217	119	C4H4O2-
99.0452	49	C5H7O2-
143.035	50	C6H7O4-
