Mass spectrum: GSK163929B; LC-ESI-QFT; MS2; CE: 45; R=17500; [M+H]+
Name: GSK163929B
Name: 4-chloro-2-fluoro-5-[4-(3-fluorophenyl)-4-[2-[3-(2-methylbenzimidazol-1-yl)-8-azabicyclo[3.2.1]octan-8-yl]ethyl]piperidine-1-carbonyl]-N-methylbenzenesulfonamide
Formula: C36H40ClF2N5O3S
Exact mass: 695.2508
SMILES: CNS(=O)(=O)C1=C(F)C=C(Cl)C(=C1)C(=O)N1CCC(CCN2C3CCC2CC(C3)N2C(C)=NC3=C2C=CC=C3)(CC1)C1=CC(F)=CC=C1
InChI: InChI=1S/C36H40ClF2N5O3S/c1-23-41-32-8-3-4-9-33(32)44(23)28-19-26-10-11-27(20-28)43(26)17-14-36(24-6-5-7-25(38)18-24)12-15-42(16-13-36)35(45)29-21-34(48(46,47)40-2)31(39)22-30(29)37/h3-9,18,21-22,26-28,40H,10-17,19-20H2,1-2H3
Instrument: Q Exactive Orbitrap (Thermo Scientific)
Instrument type: LC-ESI-QFT
Ms type: MS2
Ion mode: POSITIVE
Ionization: ESI
Fragmentation mode: HCD
Collision energy: 45
Resolution: 17500
Column name: Acquity BEH C18 1.7um, 2.1x150mm (Waters)
Retention time: 13.147 min
Base peak: 79.0211
Precursor m/z: 696.2581
Precursor type: [M+H]+
Precursor intensity: 6263613.25
m/z	relative intensity	assigned
53.0386	2	C4H5+
55.0542	1	C4H7+
56.0495	8	C3H6N+
58.0651	18	C3H8N+
65.0385	1	C5H5+
67.0542	19	C5H7+
68.0494	7	C4H6N+
69.0572	1	C4H7N+
69.0698	6	C5H9+
70.0651	103	C4H8N+
79.0542	2	C6H7+
81.0699	2	C6H9+
82.0651	17	C5H8N+
83.0729	7	C5H9N+
84.0808	3	C5H10N+
91.0542	21	C7H7+
93.0699	38	C7H9+
93.9959	1	CH4NO2S+
94.0651	4	C6H8N+
95.0491	5	C6H7O+
95.0855	30	C7H11+
96.0807	32	C6H10N+
97.0886	3	C6H11N+
105.0447	1	C6H5N2+
105.0699	1	C8H9+
108.0807	9	C7H10N+
109.0448	12	CH14ClOS+
109.0886	10	C7H11N+
110.0964	46	C7H12N+
111.1042	9	C7H13N+
122.0964	13	C8H12N+
124.1121	15	C8H14N+
127.9826	1	C6H2ClF+
133.076	15	C8H9N2+
135.0602	2	C4H7F2N3+
136.1121	3	C9H14N+
137.1198	6	C9H15N+
138.1277	159	C9H16N+
141.0698	1	C11H9+
147.0604	3	C10H8F+
149.0761	22	C10H10F+
150.1277	47	C10H16N+
155.978	5	C8N2S+
159.0604	3	C11H8F+
159.0918	1	C10H11N2+
161.076	112	C11H10F+
186.0116	7	C8H6ClFNO+
187.0917	12	C13H12F+
206.1339	4	C13H17FN+
220.947	14	C7H3ClFO3S+
229.9674	18	C8H5ClNO3S+
249.9734	999	C3H5ClF2N4O3S+
279	57	C15HF2N2O2+
427.0691	61	C19H18ClF2N2O3S+
536.158	9	C26H29ClF2N3O3S+
564.1897	29	C33H34ClFO3S+
