Mass spectrum: UK-373911; LC-ESI-QFT; MS2; CE: 75; R=17500; [M-H]-
Name: UK-373911
Name: (5S,8S)-5-(3,4-dichlorophenyl)-8-(methylamino)-5,6,7,8-tetrahydronaphthalene-2-sulfonamide
Formula: C17H18Cl2N2O2S
Exact mass: 384.0466
SMILES: CN[C@H]1CC[C@@H](C2=CC=C(Cl)C(Cl)=C2)C2=CC=C(C=C12)S(N)(=O)=O
InChI: InChI=1S/C17H18Cl2N2O2S/c1-21-17-7-5-12(10-2-6-15(18)16(19)8-10)13-4-3-11(9-14(13)17)24(20,22)23/h2-4,6,8-9,12,17,21H,5,7H2,1H3,(H2,20,22,23)/t12-,17-/m0/s1
Instrument: Q Exactive Orbitrap (Thermo Scientific)
Instrument type: LC-ESI-QFT
Ms type: MS2
Ion mode: NEGATIVE
Ionization: ESI
Fragmentation mode: HCD
Collision energy: 75
Resolution: 17500
Column name: Acquity BEH C18 1.7um, 2.1x150mm (Waters)
Retention time: 14.654 min
Base peak: 112.9857
Precursor m/z: 383.0393
Precursor type: [M-H]-
Precursor intensity: 2966580.577637
m/z	relative intensity	assigned
61.9706	999	NOS-
63.9625	387	O2S-
77.9656	379	NO2S-
78.9734	398	HNO2S-
79.9812	935	H2NO2S-
115.0553	131	C9H7-
129.0585	80	C9H7N-
130.0539	59	C8H6N2-
130.0663	140	C9H8N-
142.0662	942	C10H8N-
143.0504	63	C10H7O-
143.0613	64	C9H7N2-
144.0817	90	C10H10N-
144.9616	51	C6H3Cl2-
173.1081	32	C11H13N2-
194.0281	115	C9H8NO2S-
206.028	101	C10H8NO2S-
208.0439	67	C10H10NO2S-
216.082	33	C16H10N-
249.9954	22	C13H8Cl2O-
260.0037	131	C14H8Cl2N-
260.9875	38	C14H7Cl2O-
288.0349	52	C16H12Cl2N-
323.9656	24	C14H8Cl2NO2S-
337.9814	22	C15H10Cl2NO2S-
351.997	199	C16H12Cl2NO2S-
