Mass spectrum: Azathioprine; LC-ESI-QFT; MS2; CE: 15; R=17500; [M+H]+
Name: Azathioprine
Name: 6-(3-methyl-5-nitroimidazol-4-yl)sulfanyl-7H-purine
Formula: C9H7N7O2S
Exact mass: 277.0382
SMILES: CN1C=NC(=C1SC1=NC=NC2=C1NC=N2)[N+]([O-])=O
InChI: InChI=1S/C9H7N7O2S/c1-15-4-14-7(16(17)18)9(15)19-8-5-6(11-2-10-5)12-3-13-8/h2-4H,1H3,(H,10,11,12,13)
Instrument: Q Exactive Orbitrap (Thermo Scientific)
Instrument type: LC-ESI-QFT
Ms type: MS2
Ion mode: POSITIVE
Ionization: ESI
Fragmentation mode: HCD
Collision energy: 15
Resolution: 17500
Column name: Acquity BEH C18 1.7um, 2.1x150mm (Waters)
Retention time: 10.727 min
Base peak: 79.0212
Precursor m/z: 278.0455
Precursor type: [M+H]+
Precursor intensity: 3307430.75
m/z	relative intensity	assigned
57.9746	1	CNS+
67.0291	6	C3H3N2+
69.0084	1	C2HN2O+
69.0447	1	C3H5N2+
74.0059	2	C2H4NS+
84.9855	30	C2HN2S+
85.9696	1	C2NOS+
90.0011	1	C2H4NOS+
100.9804	2	C2HN2OS+
113.0167	1	C4H5N2S+
121.051	1	C5H5N4+
136.0381	7	C5H4N4O+
142.007	999	C4H4N3OS+
152.0153	2	C5H4N4S+
164.015	5	C6H4N4S+
165.0232	2	C6H5N4S+
177.0219	1	C7H5N4S+
199.0726	10	C9H7N6+
205.0417	9	C8H7N5S+
231.0449	21	C9H7N6S+
232.0527	394	C9H8N6S+
248.0474	8	C9H8N6OS+
278.0455	153	C9H8N7O2S+
