Mass spectrum: Bispyribac; LC-ESI-QFT; MS2; CE: 90; R=17500; [M+H]+
Name: Bispyribac
Formula: C19H18N4O8
Exact mass: 430.1125
SMILES: COC1=CC(OC)=NC(OC2=CC=CC(OC3=NC(OC)=CC(OC)=N3)=C2C(O)=O)=N1
InChI: InChI=1S/C19H18N4O8/c1-26-12-8-13(27-2)21-18(20-12)30-10-6-5-7-11(16(10)17(24)25)31-19-22-14(28-3)9-15(23-19)29-4/h5-9H,1-4H3,(H,24,25)
Instrument: Q Exactive Orbitrap (Thermo Scientific)
Instrument type: LC-ESI-QFT
Ms type: MS2
Ion mode: POSITIVE
Ionization: ESI
Fragmentation mode: HCD
Collision energy: 90
Resolution: 17500
Column name: Acquity BEH C18 1.7um, 2.1x150mm (Waters)
Retention time: 17.331 min
Base peak: 79.0211
Precursor m/z: 431.1197
Precursor type: [M+H]+
Precursor intensity: 11956926.78125
m/z	relative intensity	assigned
53.0022	26	C3HO+
53.0386	14	C4H5+
53.9975	5	C2NO+
54.0339	16	C3H4N+
55.0179	18	C3H3O+
55.0291	4	C2H3N2+
55.0416	4	C3H5N+
56.0131	20	C2H2NO+
56.0495	2	C3H6N+
57.0447	13	C2H5N2+
58.0287	14	C2H4NO+
62.015	11	C5H2+
63.0229	167	C5H3+
65.0385	50	C5H5+
66.0337	2	C4H4N+
66.0463	3	C5H6+
67.0052	20	C3HNO+
67.0416	4	C4H5N+
68.013	50	C3H2NO+
68.0494	2	C4H6N+
68.997	177	C3HO2+
69.9923	101	C2NO2+
71.0603	174	C3H7N2+
72.0443	43	C3H6NO+
75.0228	37	C6H3+
77.0384	9	C6H5+
78.0463	5	C6H6+
79.0178	5	C5H3O+
79.0291	14	C4H3N2+
79.0542	10	C6H7+
80.0129	4	C4H2NO+
80.0368	6	C4H4N2+
80.0493	7	C5H6N+
81.0334	18	C5H5O+
81.0446	30	C4H5N2+
82.0287	71	C4H4NO+
83.0239	400	C3H3N2O+
84.0444	5	C4H6NO+
89.0386	47	C7H5+
90.0338	28	C6H4N+
90.0465	7	C7H6+
91.0178	999	C6H3O+
92.0256	21	C6H4O+
92.0494	6	C6H6N+
93.0083	130	C4HN2O+
93.0334	6	C6H5O+
93.9924	1	C4NO2+
95.0491	49	C6H7O+
95.0603	7	C5H7N2+
96.0081	2	C4H2NO2+
96.0443	4	C5H6NO+
100.0393	25	C4H6NO2+
102.0338	10	C7H4N+
102.0465	8	C8H6+
103.0417	11	C7H5N+
103.0541	16	C8H7+
104.0494	29	C7H6N+
105.0335	8	C7H5O+
105.0448	17	C6H5N2+
105.0572	7	C7H7N+
106.0287	8	C6H4NO+
106.065	3	C7H8N+
107.0127	65	C6H3O2+
107.024	52	C5H3N2O+
108.0205	16	C6H4O2+
108.0443	15	C6H6NO+
109.028	2	C6H5O2+
109.0396	24	C5H5N2O+
110.0235	5	C5H4NO2+
110.0601	1	C6H8NO+
111.044	9	C6H7O2+
112.0392	2	C5H6NO2+
114.0338	78	C8H4N+
114.055	8	C5H8NO2+
115.0416	22	C8H5N+
115.0541	5	C9H7+
116.0495	52	C8H6N+
117.0207	8	C7H3NO+
117.0573	39	C8H7N+
118.0287	8	C7H4NO+
118.0412	6	C8H6O+
118.0524	6	C7H6N2+
118.0651	12	C8H8N+
119.0127	576	C7H3O2+
120.0205	1	C7H4O2+
120.0444	18	C7H6NO+
121.0282	5	C7H5O2+
121.0393	2	C6H5N2O+
122.0362	26	C7H6O2+
124.0391	4	C6H6NO2+
125.0345	52	C5H5N2O2+
126.0185	25	C5H4NO3+
127.0418	9	C9H5N+
127.05	6	C5H7N2O2+
128.037	15	C8H4N2+
128.0494	38	C9H6N+
129.0447	29	C8H5N2+
129.0571	15	C9H7N+
130.0288	15	C8H4NO+
130.04	12	C7H4N3+
130.0526	9	C8H6N2+
130.0651	20	C9H8N+
131.0367	3	C8H5NO+
131.0603	8	C8H7N2+
132.0443	36	C8H6NO+
133.0159	8	C7H3NO2+
133.052	9	C8H7NO+
134.0599	20	C8H8NO+
135.0312	7	C7H5NO2+
135.0442	2	C8H7O2+
135.0551	3	C7H7N2O+
136.0152	2	C7H4O3+
137.0234	23	C7H5O3+
139.0502	111	C6H7N2O2+
140.0494	11	C10H6N+
141.0446	25	C9H5N2+
142.0287	8	C9H4NO+
142.0374	2	C5H6N2O3+
142.0525	27	C9H6N2+
143.0365	12	C9H5NO+
143.0603	13	C9H7N2+
144.0319	10	C8H4N2O+
144.0443	41	C9H6NO+
145.0396	12	C8H5N2O+
145.052	14	C9H7NO+
145.0757	1	C9H9N2+
146.0235	6	C8H4NO2+
146.0473	5	C8H6N2O+
146.0599	24	C9H8NO+
147.055	6	C8H7N2O+
148.039	6	C8H6NO2+
148.0629	2	C8H8N2O+
149.0471	3	C8H7NO2+
150.0309	2	C8H6O3+
153.0446	37	C10H5N2+
154.0266	5	C7H6O4+
154.0399	21	C9H4N3+
154.0521	7	C10H6N2+
155.0241	12	C9H3N2O+
155.0602	22	C10H7N2+
156.0318	5	C9H4N2O+
156.0442	8	C10H6NO+
156.0682	4	C10H8N2+
157.0397	18	C9H5N2O+
157.0522	5	C10H7NO+
157.0606	44	C6H9N2O3+
158.0235	2	C9H4NO2+
158.0478	14	C9H6N2O+
158.0601	12	C10H8NO+
159.0312	4	C9H5NO2+
159.0553	25	C9H7N2O+
160.0266	7	C8H4N2O2+
160.0393	10	C9H6NO2+
160.0755	2	C10H10NO+
161.0469	9	C9H7NO2+
161.0707	3	C9H9N2O+
162.0184	9	C8H4NO3+
162.0546	9	C9H8NO2+
165.0448	8	C11H5N2+
166.0524	2	C11H6N2+
167.0476	5	C10H5N3+
167.06	6	C11H7N2+
168.0314	4	C10H4N2O+
168.0416	5	C8H8O4+
168.0553	5	C10H6N3+
168.0682	3	C11H8N2+
169.0397	13	C10H5N2O+
169.0629	3	C10H7N3+
169.0759	5	C11H9N2+
170.0239	7	C10H4NO2+
170.0344	3	C9H4N3O+
170.0474	15	C10H6N2O+
171.0552	37	C10H7N2O+
171.0762	44	C7H11N2O3+
172.0393	12	C10H6NO2+
172.0467	1	C6H8N2O4+
172.0503	2	C6H8N2O4+
172.0627	2	C10H8N2O+
173.0342	8	C9H5N2O2+
173.0708	5	C10H9N2O+
174.0422	6	C9H6N2O2+
174.0551	8	C10H8NO2+
175.05	3	C9H7N2O2+
176.034	4	C9H6NO3+
176.0704	2	C10H10NO2+
177.042	5	C9H7NO3+
178.0402	7	C11H4N3+
179.0211	5	C8H5NO4+
179.0471	2	C11H5N3+
179.06	3	C12H7N2+
180.0556	15	C11H6N3+
181.0392	4	C11H5N2O+
181.0629	3	C11H7N3+
182.035	3	C10H4N3O+
182.0471	3	C11H6N2O+
182.0713	3	C11H8N3+
183.0554	8	C11H7N2O+
184.0267	9	C10H4N2O2+
184.0502	8	C10H6N3O+
184.0622	1	C11H8N2O+
185.0344	6	C10H5N2O2+
185.0581	3	C10H7N3O+
185.0712	10	C11H9N2O+
186.0424	10	C10H6N2O2+
186.0546	5	C11H8NO2+
186.0661	4	C10H8N3O+
187.0502	15	C10H7N2O2+
188.0581	1	C10H8N2O2+
189.0417	7	C10H7NO3+
189.0658	3	C10H9N2O2+
190.0396	4	C12H4N3+
193.0508	2	C11H5N4+
194.0349	2	C11H4N3O+
195.0423	3	C11H5N3O+
195.0552	6	C12H7N2O+
196.0507	12	C11H6N3O+
197.0342	5	C11H5N2O2+
197.0711	4	C12H9N2O+
198.0302	1	C12H6O3+
198.0422	3	C11H6N2O2+
198.0667	4	C11H8N3O+
199.0498	15	C11H7N2O2+
200.0238	2	C13H2N3+
200.034	12	C11H6NO3+
200.0817	4	C11H10N3O+
201.0655	11	C11H9N2O2+
202.037	3	C10H6N2O3+
202.0493	2	C11H8NO3+
202.06	1	C10H8N3O2+
203.0445	2	C10H7N2O3+
205.0511	2	C12H5N4+
206.0345	4	C12H4N3O+
208.0504	4	C12H6N3O+
209.0579	5	C12H7N3O+
210.0421	2	C12H6N2O2+
210.0658	3	C12H8N3O+
211.0134	2	C11H3N2O3+
211.0374	4	C11H5N3O2+
211.0497	10	C12H7N2O2+
212.0453	7	C11H6N3O2+
212.0563	1	C9H10NO5+
213.0291	2	C11H5N2O3+
213.0527	2	C11H7N3O2+
213.0654	3	C12H9N2O2+
214.0373	3	C11H6N2O3+
214.0609	3	C11H8N3O2+
215.0447	5	C11H7N2O3+
216.0528	2	C11H8N2O3+
217.0602	8	C11H9N2O3+
222.0658	3	C13H8N3O+
224.0454	4	C12H6N3O2+
225.0527	3	C12H7N3O2+
225.0653	3	C13H9N2O2+
226.0602	4	C12H8N3O2+
227.0448	4	C12H7N2O3+
228.0764	1	C12H10N3O2+
229.0603	7	C12H9N2O3+
231.0388	2	C11H7N2O4+
235.0374	2	C13H5N3O2+
236.0449	8	C13H6N3O2+
237.0289	6	C13H5N2O3+
237.0527	3	C13H7N3O2+
238.0604	3	C13H8N3O2+
239.0451	13	C13H7N2O3+
240.0402	4	C12H6N3O3+
251.0323	4	C13H5N3O3+
252.04	3	C13H6N3O3+
252.0761	2	C14H10N3O2+
253.0607	5	C14H9N2O3+
254.0561	2	C13H8N3O3+
264.0392	2	C14H6N3O3+
267.0395	6	C14H7N2O4+
285.0503	7	C14H9N2O5+
