Mass spectrum: 3,3`-Dimethoxybenzidine; LC-ESI-QFT; MS2; CE: 90; R=17500; [M+H]+
Name: 3,3'-Dimethoxybenzidine
Name: 4-(4-amino-3-methoxyphenyl)-2-methoxyaniline
Formula: C14H16N2O2
Exact mass: 244.1212
SMILES: COC1=CC(=CC=C1N)C1=CC(OC)=C(N)C=C1
InChI: InChI=1S/C14H16N2O2/c1-17-13-7-9(3-5-11(13)15)10-4-6-12(16)14(8-10)18-2/h3-8H,15-16H2,1-2H3
Instrument: Q Exactive Orbitrap (Thermo Scientific)
Instrument type: LC-ESI-QFT
Ms type: MS2
Ion mode: POSITIVE
Ionization: ESI
Fragmentation mode: HCD
Collision energy: 90
Resolution: 17500
Column name: Acquity BEH C18 1.7um, 2.1x150mm (Waters)
Retention time: 8.573 min
Base peak: 79.0211
Precursor m/z: 245.1285
Precursor type: [M+H]+
Precursor intensity: 13846640.4375
m/z	relative intensity	assigned
52.0183	2	C3H2N+
80.0495	16	C5H6N+
97.0076	3	C8H+
108.0445	6	C6H6NO+
115.0543	55	C9H7+
117.0573	10	C8H7N+
123.0677	1	C7H9NO+
130.0652	24	C9H8N+
131.073	6	C9H9N+
132.0809	16	C9H10N+
139.0542	5	C11H7+
143.073	226	C10H9N+
144.081	2	C10H10N+
146.06	15	C9H8NO+
147.0678	3	C9H9NO+
153.0574	33	C11H7N+
154.0652	79	C11H8N+
155.0604	18	C10H7N2+
155.0727	7	C11H9N+
156.0807	1	C11H10N+
158.084	65	C10H10N2+
166.0653	2	C12H8N+
167.0731	4	C12H9N+
169.0761	143	C11H9N2+
170.0839	206	C11H10N2+
171.068	10	C11H9NO+
171.0917	34	C11H11N2+
181.0523	2	C12H7NO+
181.0761	31	C12H9N2+
182.0603	3	C12H8NO+
182.084	34	C12H10N2+
183.0688	1	C12H9NO+
184.076	1	C12H10NO+
185.071	7	C11H9N2O+
186.079	22	C11H10N2O+
186.0913	2	C12H12NO+
187.0863	999	C11H11N2O+
197.071	16	C12H9N2O+
198.0788	28	C12H10N2O+
199.0865	2	C12H11N2O+
201.1024	7	C12H13N2O+
215.0817	9	C12H11N2O2+
