Mass spectrum: Prochloraz; LC-ESI-QFT; MS2; CE: 30; R=17500; [M+H]+
Name: Prochloraz
Name: N-propyl-N-[2-(2,4,6-trichlorophenoxy)ethyl]imidazole-1-carboxamide
Formula: C15H16Cl3N3O2
Exact mass: 375.0308
SMILES: CCCN(CCOC1=C(Cl)C=C(Cl)C=C1Cl)C(=O)N1C=CN=C1
InChI: InChI=1S/C15H16Cl3N3O2/c1-2-4-20(15(22)21-5-3-19-10-21)6-7-23-14-12(17)8-11(16)9-13(14)18/h3,5,8-10H,2,4,6-7H2,1H3
Instrument: Q Exactive Orbitrap (Thermo Scientific)
Instrument type: LC-ESI-QFT
Ms type: MS2
Ion mode: POSITIVE
Ionization: ESI
Fragmentation mode: HCD
Collision energy: 30
Resolution: 17500
Column name: Acquity BEH C18 1.7um, 2.1x150mm (Waters)
Retention time: 18.455 min
Base peak: 79.0211
Precursor m/z: 376.0381
Precursor type: [M+H]+
Precursor intensity: 10343549.625
m/z	relative intensity	assigned
53.0022	11	C3HO+
56.0495	19	C3H6N+
60.0444	44	C2H6NO+
70.0287	839	C3H4NO+
70.0651	379	C4H8N+
74.06	31	C3H8NO+
85.0886	238	C5H11N+
165.0712	11	C13H9+
174.9714	34	C7H5Cl2O+
194.9169	43	C6H2Cl3O+
201.9821	83	C8H6Cl2NO+
222.9478	102	C8H6Cl3O+
237.9588	37	C8H7Cl3NO+
239.9743	58	C8H9Cl3NO+
245.0372	36	C8H16Cl3N2+
265.9537	263	C9H7Cl3NO2+
280.0063	111	C11H13Cl3NO+
283.9638	13	C15H4Cl2NO+
297.9803	24	C13H9Cl3N2+
308.0007	999	C12H13Cl3NO2+
