Mass spectrum: Piperine; LC-ESI-QFT; MS2; CE: 90; R=17500; [M+H]+
Name: Piperine
Name: (2E,4E)-5-(1,3-benzodioxol-5-yl)-1-piperidin-1-ylpenta-2,4-dien-1-one
Formula: C17H19NO3
Exact mass: 285.1365
SMILES: O=C(\C=C\C=C\C1=CC=C2OCOC2=C1)N1CCCCC1
InChI: InChI=1S/C17H19NO3/c19-17(18-10-4-1-5-11-18)7-3-2-6-14-8-9-15-16(12-14)21-13-20-15/h2-3,6-9,12H,1,4-5,10-11,13H2/b6-2+,7-3+
Instrument: Q Exactive Orbitrap (Thermo Scientific)
Instrument type: LC-ESI-QFT
Ms type: MS2
Ion mode: POSITIVE
Ionization: ESI
Fragmentation mode: HCD
Collision energy: 90
Resolution: 17500
Column name: Acquity BEH C18 1.7um, 2.1x150mm (Waters)
Retention time: 17.758 min
Base peak: 79.0211
Precursor m/z: 286.1438
Precursor type: [M+H]+
Precursor intensity: 35609723.5
m/z	relative intensity	assigned
53.0022	7	C3HO+
53.0386	9	C4H5+
55.0179	5	C3H3O+
55.0543	1	C4H7+
56.0495	2	C3H6N+
63.0227	1	C5H3+
65.0385	7	C5H5+
67.0542	5	C5H7+
69.0698	35	C5H9+
70.0287	1	C3H4NO+
70.0651	2	C4H8N+
77.0385	17	C6H5+
79.0542	32	C6H7+
80.0494	6	C5H6N+
81.0573	8	C5H7N+
84.0808	10	C5H10N+
86.0964	6	C5H12N+
89.0385	17	C7H5+
91.0542	10	C7H7+
94.0413	1	C6H6O+
94.0652	2	C6H8N+
95.0491	35	C6H7O+
103.0542	37	C8H7+
105.0335	21	C7H5O+
107.0491	1	C7H7O+
112.0758	1	C6H10NO+
114.0462	1	C9H6+
115.0542	999	C9H7+
116.062	1	C9H8+
117.0332	3	C8H5O+
117.0698	11	C9H9+
122.0964	6	C8H12N+
127.054	4	C10H7+
129.0698	1	C10H9+
131.0492	3	C9H7O+
133.0649	1	C9H9O+
134.0963	3	C9H12N+
135.044	115	C8H7O2+
136.0756	1	C8H10NO+
143.0491	138	C10H7O+
145.0648	6	C10H9O+
150.0915	3	C9H12NO+
151.0993	3	C9H13NO+
159.044	19	C10H7O2+
161.0593	1	C10H9O2+
171.044	27	C11H7O2+
172.0516	1	C11H8O2+
173.0597	5	C11H9O2+
201.0545	6	C12H9O3+
