Mass spectrum: MK-547; LC-ESI-QFT; MS2; CE: 90; R=17500; [M+H]+
Name: MK-547
Name: J-104132
Name: (5S,6R,7R)-5-(1,3-benzodioxol-5-yl)-2-butyl-7-[2-[(2S)-2-carboxypropyl]-4-methoxyphenyl]-6,7-dihydro-5H-cyclopenta[b]pyridine-6-carboxylic acid
Formula: C31H33NO7
Exact mass: 531.2257
SMILES: CCCCc1ccc2c(n1)[C@@H](c1ccc(OC)cc1C[C@H](C)C(O)=O)[C@H](C(O)=O)[C@H]2c1ccc2c(c1)OCO2
InChI: InChI=1S/C31H33NO7/c1-4-5-6-20-8-10-23-26(18-7-12-24-25(15-18)39-16-38-24)28(31(35)36)27(29(23)32-20)22-11-9-21(37-3)14-19(22)13-17(2)30(33)34/h7-12,14-15,17,26-28H,4-6,13,16H2,1-3H3,(H,33,34)(H,35,36)/t17-,26-,27-,28+/m0/s1
Instrument: Q Exactive Orbitrap (Thermo Scientific)
Instrument type: LC-ESI-QFT
Ms type: MS2
Ion mode: POSITIVE
Ionization: ESI
Fragmentation mode: HCD
Collision energy: 90
Resolution: 17500
Column name: Acquity BEH C18 1.7um, 2.1x150mm (Waters)
Retention time: 18.582 min
Base peak: 79.0212
Precursor m/z: 532.233
Precursor type: [M+H]+
Precursor intensity: 23733905.5
m/z	relative intensity	assigned
51.0229	3	C4H3+
53.0022	11	C3HO+
53.0385	20	C4H5+
55.0543	4	C4H7+
57.0699	4	C4H9+
63.023	6	C5H3+
65.0385	140	C5H5+
67.0541	5	C5H7+
68.9971	14	C3HO2+
69.0335	4	C4H5O+
77.0385	12	C6H5+
78.0463	23	C6H6+
79.0542	28	C6H7+
80.0495	10	C5H6N+
81.0334	3	C5H5O+
89.0384	11	C7H5+
91.0542	182	C7H7+
93.0335	3	C6H5O+
93.0573	6	C6H7N+
93.0699	5	C7H9+
94.0413	3	C6H6O+
94.065	1	C6H8N+
95.0128	10	C5H3O2+
95.0491	54	C6H7O+
102.0464	44	C8H6+
103.0542	189	C8H7+
104.0494	39	C7H6N+
104.062	7	C8H8+
105.0336	14	C7H5O+
105.0573	9	C7H7N+
105.0699	9	C8H9+
106.065	9	C7H8N+
107.049	12	C7H7O+
109.0283	5	C6H5O2+
109.0648	9	C7H9O+
111.0442	9	C6H7O2+
115.0542	64	C9H7+
116.0494	22	C8H6N+
116.062	32	C9H8+
117.0573	60	C8H7N+
117.0699	18	C9H9+
118.0651	59	C8H8N+
119.0491	12	C8H7O+
119.0727	2	C8H9N+
119.0856	8	C9H11+
121.0284	82	C7H5O2+
121.0647	71	C8H9O+
122.0362	54	C7H6O2+
125.0232	3	C6H5O3+
127.054	13	C10H7+
128.0495	35	C9H6N+
128.062	52	C10H8+
129.0573	327	C9H7N+
130.0651	405	C9H8N+
131.049	15	C9H7O+
131.0729	32	C9H9N+
131.0854	1	C10H11+
132.0444	5	C8H6NO+
132.0569	8	C9H8O+
132.0806	4	C9H10N+
133.0522	10	C8H7NO+
133.0646	5	C9H9O+
134.06	20	C8H8NO+
134.0723	7	C9H10O+
135.044	71	C8H7O2+
136.0754	2	C8H10NO+
139.039	16	C7H7O3+
139.0541	16	C11H7+
140.0494	9	C10H6N+
141.0572	6	C10H7N+
141.0698	22	C11H9+
142.0651	33	C10H8N+
143.0729	77	C10H9N+
144.057	94	C10H8O+
144.0807	22	C10H10N+
145.052	12	C9H7NO+
145.0648	22	C10H9O+
145.0887	2	C10H11N+
146.06	156	C9H8NO+
147.044	34	C9H7O2+
147.0678	7	C9H9NO+
147.0805	10	C10H11O+
148.0755	4	C9H10NO+
149.0234	99	C8H5O3+
149.0961	13	C10H13O+
151.0542	9	C12H7+
152.062	266	C12H8+
153.0582	11	C11H7N+
153.0698	76	C12H9+
154.0651	92	C11H8N+
154.0775	6	C12H10+
155.0729	70	C11H9N+
156.0807	233	C11H10N+
157.0523	10	C10H7NO+
157.0885	30	C11H11N+
159.0681	3	C10H9NO+
159.0805	32	C11H11O+
160.0757	4	C10H10NO+
161.0471	8	C9H7NO2+
161.0595	2	C10H9O2+
161.0835	25	C10H11NO+
162.0674	20	C10H10O2+
162.0912	3	C10H12NO+
163.0539	5	C13H7+
165.0699	378	C13H9+
166.0652	49	C12H8N+
166.0776	34	C13H10+
167.0729	187	C12H9N+
167.085	49	C13H11+
168.057	26	C12H8O+
168.0807	80	C12H10N+
169.0647	100	C12H9O+
169.0882	12	C12H11N+
170.0599	20	C11H8NO+
170.0964	17	C12H12N+
171.0675	5	C11H9NO+
171.104	6	C12H13N+
172.112	12	C12H14N+
173.1198	6	C12H15N+
174.055	33	C10H8NO2+
176.0619	24	C14H8+
177.0572	73	C13H7N+
177.0697	26	C14H9+
177.0905	8	C11H13O2+
178.0651	221	C13H8N+
178.0775	24	C14H10+
179.0729	139	C13H9N+
180.0807	356	C13H10N+
181.0647	28	C13H9O+
181.0885	122	C13H11N+
182.0599	16	C12H8NO+
182.0965	27	C13H12N+
183.0681	11	C12H9NO+
183.0798	3	C13H11O+
184.0755	6	C12H10NO+
185.0469	5	C11H7NO2+
185.059	2	C12H9O2+
187.0628	9	C11H9NO2+
188.107	2	C12H14NO+
190.0652	109	C14H8N+
191.073	392	C14H9N+
192.0807	631	C14H10N+
193.0886	999	C14H11N+
194.0964	529	C14H12N+
195.0677	54	C13H9NO+
195.0801	11	C14H11O+
195.1041	23	C14H13N+
196.0756	69	C13H10NO+
197.0836	16	C13H11NO+
198.0551	2	C12H8NO2+
198.0916	3	C13H12NO+
199.0624	10	C12H9NO2+
202.0775	6	C16H10+
203.0728	11	C15H9N+
203.0843	2	C16H11+
204.0807	126	C15H10N+
205.0519	7	C14H7NO+
205.0644	4	C15H9O+
205.0886	69	C15H11N+
206.0601	58	C14H8NO+
206.0964	247	C15H12N+
207.0678	56	C14H9NO+
207.1042	38	C15H13N+
208.0756	105	C14H10NO+
208.1119	13	C15H14N+
209.0596	8	C14H9O2+
209.0835	74	C14H11NO+
209.0947	4	C15H13O+
210.0547	6	C13H8NO2+
210.0911	37	C14H12NO+
211.0624	8	C13H9NO2+
211.074	3	C14H11O2+
212.0704	3	C13H10NO2+
217.0885	25	C16H11N+
218.0601	15	C15H8NO+
218.0963	63	C16H12N+
219.0678	90	C15H9NO+
219.1041	23	C16H13N+
220.0756	375	C15H10NO+
220.1117	63	C16H14N+
221.0834	143	C15H11NO+
221.1193	10	C16H15N+
222.0912	249	C15H12NO+
223.0625	14	C14H9NO2+
223.0748	4	C15H11O2+
223.0991	50	C15H13NO+
223.1352	10	C16H17N+
224.0705	38	C14H10NO2+
224.1065	6	C15H14NO+
224.1425	5	C16H18N+
225.0783	13	C14H11NO2+
230.0963	11	C17H12N+
231.1045	7	C17H13N+
232.0755	21	C16H10NO+
232.1118	12	C17H14N+
233.0834	36	C16H11NO+
233.1192	6	C17H15N+
234.0548	9	C15H8NO2+
234.0914	68	C16H12NO+
234.1276	32	C17H16N+
235.0624	13	C15H9NO2+
235.075	3	C16H11O2+
235.0989	23	C16H13NO+
235.1355	3	C17H17N+
236.0705	41	C15H10NO2+
236.107	17	C16H14NO+
236.1433	50	C17H18N+
237.0783	59	C15H11NO2+
238.0861	27	C15H12NO2+
238.1222	1	C16H16NO+
239.0941	2	C15H13NO2+
244.1116	6	C18H14N+
245.1197	4	C18H15N+
246.0912	21	C17H12NO+
246.1278	2	C18H16N+
247.0621	8	C16H9NO2+
247.0988	19	C17H13NO+
247.1355	5	C18H17N+
248.0706	66	C16H10NO2+
248.1068	36	C17H14NO+
248.1426	4	C18H18N+
249.0783	50	C16H11NO2+
249.1146	5	C17H15NO+
250.0861	532	C16H12NO2+
251.0939	149	C16H13NO2+
252.0653	13	C15H10NO3+
252.1018	6	C16H14NO2+
252.1385	3	C17H18NO+
253.0734	38	C15H11NO3+
255.1045	4	C19H13N+
256.1123	4	C19H14N+
259.0991	3	C18H13NO+
260.1068	12	C18H14NO+
260.143	5	C19H18N+
261.0779	4	C17H11NO2+
261.1149	4	C18H15NO+
261.1509	3	C19H19N+
262.0863	18	C17H12NO2+
262.1223	11	C18H16NO+
263.058	8	C16H9NO3+
263.094	44	C17H13NO2+
264.0658	4	C16H10NO3+
264.1019	41	C17H14NO2+
264.1377	12	C18H18NO+
265.0734	2	C16H11NO3+
266.0812	25	C16H12NO3+
266.0963	4	C20H12N+
267.0891	3	C16H13NO3+
267.1039	8	C20H13N+
267.1243	1	C17H17NO2+
268.112	20	C20H14N+
269.1199	7	C20H15N+
270.0906	2	C19H12NO+
270.1273	8	C20H16N+
274.0866	4	C18H12NO2+
275.0947	3	C18H13NO2+
275.1302	2	C19H17NO+
276.0655	90	C17H10NO3+
276.1016	33	C18H14NO2+
276.1384	11	C19H18NO+
277.073	16	C17H11NO3+
277.1093	7	C18H15NO2+
278.081	2	C17H12NO3+
278.0964	3	C21H12N+
278.1173	3	C18H16NO2+
280.0961	4	C17H14NO3+
280.1121	7	C21H14N+
280.1326	3	C18H18NO2+
281.0673	2	C16H11NO4+
283.0987	8	C20H13NO+
284.1073	8	C20H14NO+
290.0808	4	C18H12NO3+
290.1178	2	C19H16NO2+
290.1539	4	C20H20NO+
294.1486	6	C19H20NO2+
295.0988	7	C21H13NO+
296.107	18	C21H14NO+
297.1148	16	C21H15NO+
298.1225	23	C21H16NO+
299.1306	32	C21H17NO+
308.1062	6	C22H14NO+
310.1227	12	C22H16NO+
311.0941	9	C21H13NO2+
311.13	4	C22H17NO+
312.1023	10	C21H14NO2+
312.1376	2	C22H18NO+
313.1097	5	C21H15NO2+
314.1184	2	C21H16NO2+
324.1016	16	C22H14NO2+
325.1097	38	C22H15NO2+
326.1173	25	C22H16NO2+
327.1252	18	C22H17NO2+
337.1096	4	C23H15NO2+
338.1184	14	C23H16NO2+
339.1248	6	C23H17NO2+
340.0967	3	C22H14NO3+
340.1321	7	C23H18NO2+
341.1037	1	C22H15NO3+
350.1172	4	C24H16NO2+
352.1325	2	C24H18NO2+
353.1041	5	C23H15NO3+
354.1129	10	C23H16NO3+
364.132	2	C25H18NO2+
368.128	15	C24H18NO3+
368.1648	3	C25H22NO2+
369.1356	1	C24H19NO3+
370.1433	2	C24H20NO3+
