Mass spectrum: Tebufenpyrad; LC-ESI-QFT; MS2; CE: 90; R=17500; [M+H]+
Name: Tebufenpyrad
Name: N-[(4-tert-butylphenyl)methyl]-4-chloro-5-ethyl-2-methylpyrazole-3-carboxamide
Formula: C18H24ClN3O
Exact mass: 333.1608
SMILES: CCC1=NN(C)C(C(=O)NCC2=CC=C(C=C2)C(C)(C)C)=C1Cl
InChI: InChI=1S/C18H24ClN3O/c1-6-14-15(19)16(22(5)21-14)17(23)20-11-12-7-9-13(10-8-12)18(2,3)4/h7-10H,6,11H2,1-5H3,(H,20,23)
Instrument: Q Exactive Orbitrap (Thermo Scientific)
Instrument type: LC-ESI-QFT
Ms type: MS2
Ion mode: POSITIVE
Ionization: ESI
Fragmentation mode: HCD
Collision energy: 90
Resolution: 17500
Column name: Acquity BEH C18 1.7um, 2.1x150mm (Waters)
Retention time: 19.491 min
Base peak: 79.0211
Precursor m/z: 334.1681
Precursor type: [M+H]+
Precursor intensity: 18912991.5
m/z	relative intensity	assigned
53.0022	5	C3HO+
53.0386	11	C4H5+
54.0338	81	C3H4N+
55.0417	7	C3H5N+
55.0542	31	C4H7+
56.0131	8	C2H2NO+
56.0495	32	C3H6N+
57.0699	1	C4H9+
61.9792	14	CHClN+
62.9996	42	C2H4Cl+
63.9949	4	CH3ClN+
65.0386	16	C5H5+
66.0339	1	C4H4N+
67.029	1	C3H3N2+
67.0416	5	C4H5N+
67.0542	4	C5H7+
68.0494	15	C4H6N+
69.0573	2	C4H7N+
69.0698	4	C5H9+
70.0652	5	C4H8N+
74.9871	9	C2H2ClN+
75.9948	604	C2H3ClN+
77.0154	2	C3H6Cl+
77.0386	1	C6H5+
78.0104	10	C2H5ClN+
78.0463	6	C6H6+
79.0542	64	C6H7+
80.0495	5	C5H6N+
81.0447	91	C4H5N2+
82.0525	35	C4H6N2+
82.0651	9	C5H8N+
87.995	4	C3H3ClN+
90.0105	183	C3H5ClN+
91.0542	248	C7H7+
93.07	18	C7H9+
95.0491	21	C6H7O+
95.0604	31	C5H7N2+
99.9951	2	C4H3ClN+
101.9979	4	C3H3ClN2+
102.0105	6	C4H5ClN+
103.0543	40	C8H7+
104.0261	5	C4H7ClN+
104.062	78	C8H8+
105.0699	270	C8H9+
107.0855	37	C8H11+
109.0648	8	C7H9O+
109.076	8	C6H9N2+
115.0058	30	C4H4ClN2+
115.0543	62	C9H7+
116.0621	12	C9H8+
117.0215	870	C4H6ClN2+
117.0698	999	C9H9+
118.0776	2	C9H10+
119.0855	300	C9H11+
129.0214	15	C5H6ClN2+
129.0697	6	C10H9+
130.0292	42	C5H7ClN2+
130.0777	3	C10H10+
131.0855	66	C10H11+
132.0934	431	C10H12+
133.0169	1	C4H6ClN2O+
143.0371	5	C6H8ClN2+
145.0527	76	C6H10ClN2+
145.1012	7	C11H13+
147.1167	42	C11H15+
157.0528	1	C7H10ClN2+
158.0599	1	C10H8NO+
162.1281	1	C11H16N+
171.0319	17	C7H8ClN2O+
188.0589	1	C7H11ClN3O+
189.0421	2	C13H5N2+
