Mass spectrum: AVE3247; LC-ESI-QFT; MS2; CE: 30; R=17500; [M+H]+
Name: AVE3247
Name: 1-[[5-(5-chlorothiophen-2-yl)-1,2-oxazol-3-yl]methyl]-2-[(1-cyclopropylpiperidin-4-yl)carbamoyl]benzimidazole-5-carboxylic acid
Formula: C25H24ClN5O4S
Exact mass: 525.1238
SMILES: OC(=O)C1=CC=C2N(CC3=NOC(=C3)C3=CC=C(Cl)S3)C(=NC2=C1)C(=O)NC1CCN(CC1)C1CC1
InChI: InChI=1S/C25H24ClN5O4S/c26-22-6-5-21(36-22)20-12-16(29-35-20)13-31-19-4-1-14(25(33)34)11-18(19)28-23(31)24(32)27-15-7-9-30(10-8-15)17-2-3-17/h1,4-6,11-12,15,17H,2-3,7-10,13H2,(H,27,32)(H,33,34)
Instrument: Q Exactive Orbitrap (Thermo Scientific)
Instrument type: LC-ESI-QFT
Ms type: MS2
Ion mode: POSITIVE
Ionization: ESI
Fragmentation mode: HCD
Collision energy: 30
Resolution: 17500
Column name: Acquity BEH C18 1.7um, 2.1x150mm (Waters)
Retention time: 15.907 min
Base peak: 79.0211
Precursor m/z: 526.131
Precursor type: [M+H]+
Precursor intensity: 947274.75
m/z	relative intensity	assigned
55.0542	5	C4H7+
56.0494	1	C3H6N+
67.0542	1	C5H7+
68.0494	3	C4H6N+
69.0698	1	C5H9+
70.0651	9	C4H8N+
72.0807	17	C4H10N+
81.07	2	C6H9+
82.0651	4	C5H8N+
84.0807	5	C5H10N+
95.0855	3	C7H11+
96.0808	11	C6H10N+
109.0886	1	C7H11N+
122.0965	10	C8H12N+
124.1121	294	C8H14N+
125.0708	1	C6H9N2O+
167.1179	999	C9H15N2O+
197.9775	3	C8H5ClNOS+
360.0206	296	C16H11ClN3O3S+
455.0581	15	C21H16ClN4O4S+
526.1315	49	C25H25ClN5O4S+
