Mass spectrum: Ethyl 3-(N-butylacetamido)propionate; LC-ESI-QFT; MS2; CE: 60; R=17500; [M+H]+
Name: Ethyl 3-(N-butylacetamido)propionate
Name: Ethyl butylacetylaminopropionate
Name: ethyl 3-[acetyl(butyl)amino]propanoate
Formula: C11H21NO3
Exact mass: 215.1521
SMILES: CCCCN(CCC(=O)OCC)C(C)=O
InChI: InChI=1S/C11H21NO3/c1-4-6-8-12(10(3)13)9-7-11(14)15-5-2/h4-9H2,1-3H3
Instrument: Q Exactive Orbitrap (Thermo Scientific)
Instrument type: LC-ESI-QFT
Ms type: MS2
Ion mode: POSITIVE
Ionization: ESI
Fragmentation mode: HCD
Collision energy: 60
Resolution: 17500
Column name: Acquity BEH C18 1.7um, 2.1x150mm (Waters)
Retention time: 15.648 min
Base peak: 79.0212
Precursor m/z: 216.1594
Precursor type: [M+H]+
Precursor intensity: 14442974.625
m/z	relative intensity	assigned
55.0179	8	C3H3O+
57.0698	17	C4H9+
60.0443	2	C2H6NO+
61.0284	4	C2H5O2+
72.0443	3	C3H6NO+
73.0283	11	C3H5O2+
86.0964	999	C5H12N+
89.0596	2	C4H9O2+
101.0599	1	C5H9O2+
116.1069	10	C6H14NO+
128.107	83	C7H14NO+
142.1228	3	C8H16NO+
170.1173	5	C9H16NO2+
174.1489	5	C9H20NO2+
