Mass spectrum: Venlafaxine; LC-ESI-QFT; MS2; CE: 15; R=17500; [M+H]+
Name: Venlafaxine
Name: 1-[2-(dimethylamino)-1-(4-methoxyphenyl)ethyl]cyclohexan-1-ol
Formula: C17H27NO2
Exact mass: 277.2042
SMILES: COC1=CC=C(C=C1)C(CN(C)C)C1(O)CCCCC1
InChI: InChI=1S/C17H27NO2/c1-18(2)13-16(17(19)11-5-4-6-12-17)14-7-9-15(20-3)10-8-14/h7-10,16,19H,4-6,11-13H2,1-3H3
Instrument: Q Exactive Orbitrap (Thermo Scientific)
Instrument type: LC-ESI-QFT
Ms type: MS2
Ion mode: POSITIVE
Ionization: ESI
Fragmentation mode: HCD
Collision energy: 15
Resolution: 17500
Column name: Acquity BEH C18 1.7um, 2.1x150mm (Waters)
Retention time: 13.882 min
Base peak: 79.0211
Precursor m/z: 278.2115
Precursor type: [M+H]+
Precursor intensity: 36307218
m/z	relative intensity	assigned
58.0651	916	C3H8N+
121.0647	34	C8H9O+
147.0803	5	C10H11O+
152.1436	1	C10H18N+
159.0806	1	C11H11O+
173.0959	1	C12H13O+
215.1431	53	C15H19O+
260.2009	676	C17H26NO+
278.2115	999	C17H28NO2+
