Mass spectrum: 4,4`-Methylenebis(2-methylaniline); LC-ESI-QFT; MS2; CE: 90; R=17500; [M+H]+
Name: 4,4'-Methylenebis(2-methylaniline)
Name: 4-[(4-amino-3-methylphenyl)methyl]-2-methylaniline
Formula: C15H18N2
Exact mass: 226.1470
SMILES: CC1=C(N)C=CC(CC2=CC(C)=C(N)C=C2)=C1
InChI: InChI=1S/C15H18N2/c1-10-7-12(3-5-14(10)16)9-13-4-6-15(17)11(2)8-13/h3-8H,9,16-17H2,1-2H3
Instrument: Q Exactive Orbitrap (Thermo Scientific)
Instrument type: LC-ESI-QFT
Ms type: MS2
Ion mode: POSITIVE
Ionization: ESI
Fragmentation mode: HCD
Collision energy: 90
Resolution: 17500
Column name: Acquity BEH C18 1.7um, 2.1x150mm (Waters)
Retention time: 10.156 min
Base peak: 79.0211
Precursor m/z: 227.1543
Precursor type: [M+H]+
Precursor intensity: 20009173.75
m/z	relative intensity	assigned
53.0386	13	C4H5+
54.0339	3	C3H4N+
65.0386	4	C5H5+
67.0541	1	C5H7+
68.0494	1	C4H6N+
77.0384	6	C6H5+
78.0463	1	C6H6+
79.0542	11	C6H7+
80.0494	13	C5H6N+
81.0573	5	C5H7N+
91.0542	44	C7H7+
92.0494	4	C6H6N+
93.0573	6	C6H7N+
93.0699	20	C7H9+
94.0652	6	C6H8N+
102.0465	3	C8H6+
103.0542	51	C8H7+
104.0495	1	C7H6N+
105.0447	15	C6H5N2+
105.0573	5	C7H7N+
105.0698	1	C8H9+
106.0651	3	C7H8N+
107.0728	4	C7H9N+
115.0543	2	C9H7+
117.057	2	C8H7N+
118.0652	8	C8H8N+
119.0731	12	C8H9N+
120.0808	999	C8H10N+
128.062	15	C10H8+
129.0698	7	C10H9+
130.065	4	C9H8N+
141.0699	4	C11H9+
142.0777	3	C11H10+
143.0729	1	C10H9N+
143.0854	1	C11H11+
144.0806	2	C10H10N+
152.062	12	C12H8+
153.0698	13	C12H9+
154.0652	1	C11H8N+
154.0776	3	C12H10+
155.0604	2	C10H7N2+
155.0855	5	C12H11+
156.0809	1	C11H10N+
157.0885	1	C11H11N+
165.0699	8	C13H9+
166.0779	1	C13H10+
167.0731	4	C12H9N+
167.0855	5	C13H11+
168.0811	2	C12H10N+
168.0932	1	C13H12+
170.0964	1	C12H12N+
176.0619	3	C14H8+
177.0699	9	C14H9+
178.0777	79	C14H10+
179.0856	6	C14H11+
180.0807	121	C13H10N+
181.0881	1	C13H11N+
182.0961	1	C13H12N+
191.0856	3	C15H11+
192.0935	4	C15H12+
193.0886	12	C14H11N+
193.101	2	C15H13+
194.0965	64	C14H12N+
195.1042	10	C14H13N+
208.112	2	C15H14N+
211.1229	2	C14H15N2+
225.1386	1	C15H17N2+
