Mass spectrum: MEHP; LC-ESI-QFT; MS2; CE: 60; R=17500; [M-H]-
Name: MEHP
Name: 2-(((2-Ethylhexyl)oxy)carbonyl)benzoic acid
Name: 2-(2-ethylhexoxycarbonyl)benzoic acid
Formula: C16H22O4
Exact mass: 278.1518
SMILES: CCCCC(CC)COC(=O)C1=CC=CC=C1C(O)=O
InChI: InChI=1S/C16H22O4/c1-3-5-8-12(4-2)11-20-16(19)14-10-7-6-9-13(14)15(17)18/h6-7,9-10,12H,3-5,8,11H2,1-2H3,(H,17,18)
Instrument: Q Exactive Orbitrap (Thermo Scientific)
Instrument type: LC-ESI-QFT
Ms type: MS2
Ion mode: NEGATIVE
Ionization: ESI
Fragmentation mode: HCD
Collision energy: 60
Resolution: 17500
Column name: Acquity BEH C18 1.7um, 2.1x150mm (Waters)
Retention time: 19.082 min
Base peak: 277.1444
Precursor m/z: 277.1445
Precursor type: [M-H]-
Precursor intensity: 1842285.100586
m/z	relative intensity	assigned
75.024	492	C6H3-
93.0345	180	C6H5O-
103.019	134	C7H3O-
119.0138	73	C7H3O2-
121.0295	850	C7H5O2-
125.0972	105	C8H13O-
127.1128	999	C8H15O-
134.0373	389	C8H6O2-
147.0086	237	C8H3O3-
165.0189	66	C8H5O4-
