Mass spectrum: Glybenclamide; LC-ESI-QFT; MS2; CE: 45; R=17500; [M-H]-
Name: Glybenclamide
Name: Glyburide
Name: 5-chloro-N-[2-[4-(cyclohexylcarbamoylsulfamoyl)phenyl]ethyl]-2-methoxybenzamide
Formula: C23H28ClN3O5S
Exact mass: 493.1438
SMILES: COC1=C(C=C(Cl)C=C1)C(=O)NCCC1=CC=C(C=C1)S(=O)(=O)NC(=O)NC1CCCCC1
InChI: InChI=1S/C23H28ClN3O5S/c1-32-21-12-9-17(24)15-20(21)22(28)25-14-13-16-7-10-19(11-8-16)33(30,31)27-23(29)26-18-5-3-2-4-6-18/h7-12,15,18H,2-6,13-14H2,1H3,(H,25,28)(H2,26,27,29)
Instrument: Q Exactive Orbitrap (Thermo Scientific)
Instrument type: LC-ESI-QFT
Ms type: MS2
Ion mode: NEGATIVE
Ionization: ESI
Fragmentation mode: HCD
Collision energy: 45
Resolution: 17500
Column name: Acquity BEH C18 1.7um, 2.1x150mm (Waters)
Retention time: 17.825 min
Base peak: 112.9856
Precursor m/z: 492.1365
Precursor type: [M-H]-
Precursor intensity: 12209641.22559
m/z	relative intensity	assigned
63.9624	8	O2S-
64.9703	6	HO2S-
78.9734	18	HNO2S-
79.9574	1	O3S-
80.9652	6	HO3S-
93.9605	9	NO3S-
107.9761	26	CH2NO3S-
111.0007	2	C6H4Cl-
116.0142	9	C7H2NO-
126.9956	301	C6H4ClO-
130.0537	1	C8H6N2-
132.0819	6	C9H10N-
151.9909	80	C7H3ClNO-
154.0094	18	C7H6O2S-
169.0204	3	C7H7NO2S-
170.0014	999	C7H5ClNO2-
182.0014	9	C8H5ClNO2-
182.0281	1	C8H8NO2S-
184.0437	27	C8H10NO2S-
185.9992	6	C7H6O4S-
196.0077	1	C5H9ClN2O2S-
196.0438	6	C9H10NO2S-
201.0102	1	C7H7NO4S-
207.0235	3	C9H7N2O2S-
224.0499	42	C9H10N3O2S-
225.034	13	C9H9N2O3S-
