Mass spectrum: Prometryn; LC-ESI-QFT; MS2; CE: 90; R=17500; [M+H]+
Name: Prometryn
Name: 6-methylsulfanyl-2-N,4-N-di(propan-2-yl)-1,3,5-triazine-2,4-diamine
Formula: C10H19N5S
Exact mass: 241.1361
SMILES: CSC1=NC(NC(C)C)=NC(NC(C)C)=N1
InChI: InChI=1S/C10H19N5S/c1-6(2)11-8-13-9(12-7(3)4)15-10(14-8)16-5/h6-7H,1-5H3,(H2,11,12,13,14,15)
Instrument: Q Exactive Orbitrap (Thermo Scientific)
Instrument type: LC-ESI-QFT
Ms type: MS2
Ion mode: POSITIVE
Ionization: ESI
Fragmentation mode: HCD
Collision energy: 90
Resolution: 17500
Column name: Acquity BEH C18 1.7um, 2.1x150mm (Waters)
Retention time: 16.449 min
Base peak: 79.0211
Precursor m/z: 242.1434
Precursor type: [M+H]+
Precursor intensity: 65292474.59375
m/z	relative intensity	assigned
57.0447	3	C2H5N2+
58.0651	2	C3H8N+
61.0106	2	C2H5S+
68.0243	999	C2H2N3+
70.04	2	C2H4N3+
74.0058	263	C2H4NS+
85.0508	346	C2H5N4+
91.0324	84	C2H7N2S+
99.0011	3	C3H3N2S+
99.0665	1	C3H7N4+
102.0121	2	C2H4N3S+
110.0461	148	C3H4N5+
112.0617	5	C3H6N5+
116.0276	247	C3H6N3S+
125.0696	3	C4H7N5+
131.0386	1	C3H7N4S+
143.0259	6	C3H5N5S+
152.0929	1	C6H10N5+
158.0494	281	C4H8N5S+
200.0968	2	C7H14N5S+
