Mass spectrum: Mefenamic acid; LC-ESI-QFT; MS2; CE: 90; R=17500; [M-H]-
Name: Mefenamic acid
Name: 2-(2,3-dimethylanilino)benzoic acid
Formula: C15H15NO2
Exact mass: 241.1103
SMILES: CC1=C(C)C(NC2=C(C=CC=C2)C(O)=O)=CC=C1
InChI: InChI=1S/C15H15NO2/c1-10-6-5-9-13(11(10)2)16-14-8-4-3-7-12(14)15(17)18/h3-9,16H,1-2H3,(H,17,18)
Instrument: Q Exactive Orbitrap (Thermo Scientific)
Instrument type: LC-ESI-QFT
Ms type: MS2
Ion mode: NEGATIVE
Ionization: ESI
Fragmentation mode: HCD
Collision energy: 90
Resolution: 17500
Column name: Acquity BEH C18 1.7um, 2.1x150mm (Waters)
Retention time: 19.431 min
Base peak: 240.1031
Precursor m/z: 240.103
Precursor type: [M-H]-
Precursor intensity: 25864321.08496
m/z	relative intensity	assigned
65.0396	42	C5H5-
66.0349	15	C4H4N-
91.0429	12	C6H5N-
92.0506	999	C6H6N-
93.071	12	C7H9-
116.0506	19	C8H6N-
118.0662	27	C8H8N-
120.0454	11	C7H6NO-
120.0818	164	C8H10N-
129.0708	8	C10H9-
130.0664	21	C9H8N-
143.0741	8	C10H9N-
144.0819	77	C10H10N-
154.0665	14	C11H8N-
166.0664	11	C12H8N-
175.0635	14	C10H9NO2-
179.0742	206	C13H9N-
179.0868	195	C14H11-
180.0819	745	C13H10N-
192.0819	517	C14H10N-
193.0898	58	C14H11N-
194.0975	430	C14H12N-
196.1132	175	C14H14N-
211.0637	81	C13H9NO2-
225.0796	25	C14H11NO2-
