Mass spectrum: Metribuzin; LC-ESI-QFT; MS2; CE: 75; R=17500; [M+H]+
Name: Metribuzin
Name: 4-amino-6-tert-butyl-3-methylsulfanyl-1,2,4-triazin-5-one
Formula: C8H14N4OS
Exact mass: 214.0888
SMILES: CSC1=NN=C(C(=O)N1N)C(C)(C)C
InChI: InChI=1S/C8H14N4OS/c1-8(2,3)5-6(13)12(9)7(14-4)11-10-5/h9H2,1-4H3
Instrument: Q Exactive Orbitrap (Thermo Scientific)
Instrument type: LC-ESI-QFT
Ms type: MS2
Ion mode: POSITIVE
Ionization: ESI
Fragmentation mode: HCD
Collision energy: 75
Resolution: 17500
Column name: Acquity BEH C18 1.7um, 2.1x150mm (Waters)
Retention time: 15.295 min
Base peak: 79.0211
Precursor m/z: 215.0961
Precursor type: [M+H]+
Precursor intensity: 9850076.59375
m/z	relative intensity	assigned
53.0023	30	C3HO+
53.0386	11	C4H5+
53.9974	4	C2NO+
55.0291	9	C2H3N2+
55.0543	32	C4H7+
56.0495	14	C3H6N+
57.0699	759	C4H9+
58.04	999	CH4N3+
58.9825	4	CHNS+
58.995	16	C2H3S+
59.024	7	CH3N2O+
59.9903	508	CH2NS+
60.9981	76	CH3NS+
61.0107	45	C2H5S+
62.0059	608	CH4NS+
63.0137	4	CH5NS+
63.9978	8	CH4OS+
65.0386	42	C5H5+
67.0417	90	C4H5N+
67.0542	54	C5H7+
68.0243	9	C2H2N3+
68.0495	107	C4H6N+
69.0084	61	C2HN2O+
69.0574	12	C4H7N+
69.0699	199	C5H9+
70.0399	14	C2H4N3+
70.0651	38	C4H8N+
73.076	6	C3H9N2+
74.0059	951	C2H4NS+
74.9899	14	C2H3OS+
75.0011	8	CH3N2S+
75.0137	8	C2H5NS+
76.0215	52	C2H6NS+
77.0168	5	CH5N2S+
79.0212	99	C2H7OS+
79.0543	10	C6H7+
80.0495	33	C5H6N+
81.0574	22	C5H7N+
82.0414	7	C5H6O+
82.0652	140	C5H8N+
83.0241	12	C3H3N2O+
83.0492	23	C5H7O+
83.0604	12	C4H7N2+
83.0731	7	C5H9N+
84.0808	754	C5H10N+
85.0886	11	C5H11N+
86.0964	5	C5H12N+
86.9899	7	C3H3OS+
87.0012	85	C2H3N2S+
88.009	42	C2H4N2S+
89.0168	200	C2H5N2S+
89.042	13	C4H9S+
92.0494	13	C6H6N+
94.0651	12	C6H8N+
95.0491	9	C6H7O+
95.0605	28	C5H7N2+
95.0729	3	C6H9N+
96.0445	23	C5H6NO+
96.0682	7	C5H8N2+
97.0648	67	C6H9O+
97.0763	4	C5H9N2+
98.0592	4	C3H6N4+
99.0665	6	C3H7N4+
99.0917	36	C5H11N2+
101.017	4	C3H5N2S+
104.0277	38	C2H6N3S+
104.0495	8	C7H6N+
107.0605	7	C6H7N2+
108.0682	46	C6H8N2+
109.0635	7	C5H7N3+
109.0761	28	C6H9N2+
110.0602	23	C6H8NO+
110.0838	5	C6H10N2+
111.0553	5	C5H7N2O+
111.0678	4	C6H9NO+
111.0917	6	C6H11N2+
112.0759	6	C6H10NO+
114.0372	19	C5H8NS+
114.9961	69	C3H3N2OS+
115.0201	7	C3H5N3S+
115.0451	3	C5H9NS+
116.0042	5	C3H4N2OS+
116.0152	14	C2H4N4S+
122.0711	6	C6H8N3+
123.0554	14	C6H7N2O+
123.0791	11	C6H9N3+
124.0633	7	C6H8N2O+
124.0869	12	C6H10N3+
125.0711	14	C6H9N2O+
125.0821	27	C5H9N4+
126.1024	6	C6H12N3+
127.0866	10	C6H11N2O+
130.0309	42	C3H6N4S+
131.0387	317	C3H7N4S+
136.0506	7	C6H6N3O+
137.0583	8	C6H7N3O+
138.0661	5	C6H8N3O+
139.0324	11	C6H7N2S+
139.0979	11	C6H11N4+
140.0404	38	C6H8N2S+
143.0641	22	C6H11N2S+
144.0353	5	C5H8N2OS+
145.0543	93	C4H9N4S+
150.0659	8	C7H8N3O+
153.0772	24	C6H9N4O+
154.0435	11	C6H8N3S+
154.0848	5	C6H10N4O+
155.0513	11	C6H9N3S+
155.0634	19	C7H11N2S+
156.059	91	C6H10N3S+
157.0432	16	C6H9N2OS+
159.0338	4	C4H7N4OS+
170.075	8	C7H12N3S+
171.0588	145	C7H11N2OS+
171.0823	8	C7H13N3S+
172.0779	25	C6H12N4S+
183.0467	9	C7H9N3OS+
184.054	93	C7H10N3OS+
186.0825	8	C8H14N2OS+
187.1013	272	C7H15N4S+
215.0962	16	C8H15N4OS+
