Mass spectrum: 4-(Dimethylamino)phenylthiocyanate; LC-ESI-QFT; MS2; CE: 75; R=17500; [M+H]+
Name: 4-(Dimethylamino)phenylthiocyanate
Name: Thiocyanic acid, 4-(dimethylamino)phenyl ester
Name: [4-(dimethylamino)phenyl] thiocyanate
Formula: C9H10N2S
Exact mass: 178.0565
SMILES: CN(C)C1=CC=C(SC#N)C=C1
InChI: InChI=1S/C9H10N2S/c1-11(2)8-3-5-9(6-4-8)12-7-10/h3-6H,1-2H3
Instrument: Q Exactive Orbitrap (Thermo Scientific)
Instrument type: LC-ESI-QFT
Ms type: MS2
Ion mode: POSITIVE
Ionization: ESI
Fragmentation mode: HCD
Collision energy: 75
Resolution: 17500
Column name: Acquity BEH C18 1.7um, 2.1x150mm (Waters)
Retention time: 17.205 min
Base peak: 79.0211
Precursor m/z: 179.0637
Precursor type: [M+H]+
Precursor intensity: 8355392.1875
m/z	relative intensity	assigned
53.0386	1	C4H5+
55.0417	1	C3H5N+
61.0107	1	C2H5S+
65.0385	1	C5H5+
74.0059	6	C2H4NS+
79.0542	7	C6H7+
91.0417	2	C6H5N+
94.0652	1	C6H8N+
96.0028	5	C5H4S+
103.0417	119	C7H5N+
104.0494	18	C7H6N+
104.0618	2	C8H8+
105.0447	73	C6H5N2+
105.0574	5	C7H7N+
106.0651	31	C7H8N+
113.0294	16	C5H7NS+
118.0527	4	C7H6N2+
119.0604	85	C7H7N2+
120.0028	1	C7H4S+
120.0681	7	C7H8N2+
120.0809	15	C8H10N+
121.0886	17	C8H11N+
122.0058	8	C6H4NS+
123.0139	7	C6H5NS+
129.0447	53	C8H5N2+
130.0526	12	C8H6N2+
131.0604	407	C8H7N2+
132.0682	182	C8H8N2+
135.0138	13	C7H5NS+
136.0216	24	C7H6NS+
137.0118	41	C9HN2+
137.0295	5	C7H7NS+
138.0372	22	C7H8NS+
146.0059	377	C8H4NS+
147.0137	619	C8H5NS+
149.0168	719	C7H5N2S+
161.0168	2	C8H5N2S+
163.0325	378	C8H7N2S+
164.0402	999	C8H8N2S+
179.0635	16	C9H11N2S+
