Mass spectrum: 4-tert-Butylcatechol; LC-ESI-QFT; MS2; CE: 30; R=17500; [M-H]-
Name: 4-tert-Butylcatechol
Name: 4-tert-butylbenzene-1,2-diol
Formula: C10H14O2
Exact mass: 166.0994
SMILES: CC(C)(C)C1=CC(O)=C(O)C=C1
InChI: InChI=1S/C10H14O2/c1-10(2,3)7-4-5-8(11)9(12)6-7/h4-6,11-12H,1-3H3
Instrument: Q Exactive Orbitrap (Thermo Scientific)
Instrument type: LC-ESI-QFT
Ms type: MS2
Ion mode: NEGATIVE
Ionization: ESI
Fragmentation mode: HCD
Collision energy: 30
Resolution: 17500
Column name: Acquity BEH C18 1.7um, 2.1x150mm (Waters)
Retention time: 16.444 min
Base peak: 165.092
Precursor m/z: 165.0921
Precursor type: [M-H]-
Precursor intensity: 38173255.6084
m/z	relative intensity	assigned
148.053	17	C9H8O2-
149.0608	11	C9H9O2-
165.092	999	C10H13O2-
