Mass spectrum: 5-Chlorosalicylanilide; LC-ESI-QFT; MS2; CE: 60; R=17500; [M-H]-
Name: 5-Chlorosalicylanilide
Name: 5-chloro-2-hydroxy-N-phenylbenzamide
Formula: C13H10ClNO2
Exact mass: 247.0400
SMILES: OC1=C(C=C(Cl)C=C1)C(=O)NC1=CC=CC=C1
InChI: InChI=1S/C13H10ClNO2/c14-9-6-7-12(16)11(8-9)13(17)15-10-4-2-1-3-5-10/h1-8,16H,(H,15,17)
Instrument: Q Exactive Orbitrap (Thermo Scientific)
Instrument type: LC-ESI-QFT
Ms type: MS2
Ion mode: NEGATIVE
Ionization: ESI
Fragmentation mode: HCD
Collision energy: 60
Resolution: 17500
Column name: Acquity BEH C18 1.7um, 2.1x150mm (Waters)
Retention time: 18.244 min
Base peak: 246.0327
Precursor m/z: 246.0327
Precursor type: [M-H]-
Precursor intensity: 79729827.47266
m/z	relative intensity	assigned
91.0189	62	C6H3O-
92.0506	98	C6H6N-
93.0346	4	C6H5O-
124.98	13	C6H2ClO-
126.9955	999	C6H4ClO-
151.9909	2	C7H3ClNO-
166.0663	1	C12H8N-
203.0267	2	C12H8ClO-
210.0561	1	C13H8NO2-
228.0223	4	C13H7ClNO-
246.0326	45	C13H9ClNO2-
