Mass spectrum: Clomazone; LC-ESI-QFT; MS2; CE: 75; R=17500; [M+H]+
Name: Clomazone
Name: 2-[(2-chlorophenyl)methyl]-4,4-dimethyl-1,2-oxazolidin-3-one
Formula: C12H14ClNO2
Exact mass: 239.0713
SMILES: CC1(C)CON(CC2=C(Cl)C=CC=C2)C1=O
InChI: InChI=1S/C12H14ClNO2/c1-12(2)8-16-14(11(12)15)7-9-5-3-4-6-10(9)13/h3-6H,7-8H2,1-2H3
Instrument: Q Exactive Orbitrap (Thermo Scientific)
Instrument type: LC-ESI-QFT
Ms type: MS2
Ion mode: POSITIVE
Ionization: ESI
Fragmentation mode: HCD
Collision energy: 75
Resolution: 17500
Column name: Acquity BEH C18 1.7um, 2.1x150mm (Waters)
Retention time: 16.986 min
Base peak: 79.0211
Precursor m/z: 240.0786
Precursor type: [M+H]+
Precursor intensity: 6223531.125
m/z	relative intensity	assigned
55.0543	1	C4H7+
63.0228	2	C5H3+
65.0386	1	C5H5+
66.0464	1	C5H6+
72.0444	5	C3H6NO+
79.0543	1	C6H7+
89.0386	76	C7H5+
90.0464	13	C7H6+
91.0543	10	C7H7+
98.9996	30	C5H4Cl+
118.065	2	C8H8N+
119.073	1	C8H9N+
125.0153	999	C7H6Cl+
134.0965	86	C9H12N+
152.0621	9	C12H8+
165.07	9	C7H14ClO2+
166.078	3	C7H15ClO2+
