Mass spectrum: Isazofos; LC-ESI-QFT; MS2; CE: 45; R=17500; [M+H]+
Name: Isazofos
Name: (5-chloro-1-propan-2-yl-1,2,4-triazol-3-yl)oxy-diethoxy-sulfanylidene-lambda5-phosphane
Formula: C9H17ClN3O3PS
Exact mass: 313.0417
SMILES: CCOP(=S)(OCC)OC1=NN(C(C)C)C(Cl)=N1
InChI: InChI=1S/C9H17ClN3O3PS/c1-5-14-17(18,15-6-2)16-9-11-8(10)13(12-9)7(3)4/h7H,5-6H2,1-4H3
Instrument: Q Exactive Orbitrap (Thermo Scientific)
Instrument type: LC-ESI-QFT
Ms type: MS2
Ion mode: POSITIVE
Ionization: ESI
Fragmentation mode: HCD
Collision energy: 45
Resolution: 17500
Column name: Acquity BEH C18 1.7um, 2.1x150mm (Waters)
Retention time: 17.724 min
Base peak: 79.0211
Precursor m/z: 314.049
Precursor type: [M+H]+
Precursor intensity: 20877986.5
m/z	relative intensity	assigned
53.0022	1	C3HO+
64.9787	1	H2O2P+
84.0192	1	C2H2N3O+
96.9507	23	H2O2PS+
102.9694	1	C2ClN2O+
109.0049	1	C2H6O3P+
110.9664	1	CH4O2PS+
112.9998	1	C2H6ClO3+
114.9613	635	H4O3PS+
116.9655	1	C4H3ClP+
119.9958	999	C2H3ClN3O+
124.9819	15	C2H6O2PS+
128.9769	19	CH6O3PS+
132.9718	5	C3H3ClN2P+
135.973	85	C2H3ClN3S+
142.9928	5	C3H8ClO2S+
146.9874	3	C4H5ClN2P+
148.0271	30	C3H7N3O2P+
153.0131	4	C4H10O2PS+
162.0428	184	C5H9ClN3O+
171.0238	22	C4H12O3PS+
178.0199	2	C5H9ClN3S+
215.9393	33	C2H4ClN3O3PS+
