Mass spectrum: 6-Acetyl-1,1,2,4,4,7-hexamethyltetralin; LC-ESI-QFT; MS2; CE: 45; R=17500; [M+H]+
Name: 6-Acetyl-1,1,2,4,4,7-hexamethyltetralin
Name: Tonalid
Name: 1-(3,5,5,6,8,8-hexamethyl-6,7-dihydronaphthalen-2-yl)ethanone
Formula: C18H26O
Exact mass: 258.1984
SMILES: CC1CC(C)(C)C2=C(C=C(C)C(=C2)C(C)=O)C1(C)C
InChI: InChI=1S/C18H26O/c1-11-8-16-15(9-14(11)13(3)19)17(4,5)10-12(2)18(16,6)7/h8-9,12H,10H2,1-7H3
Instrument: Q Exactive Orbitrap (Thermo Scientific)
Instrument type: LC-ESI-QFT
Ms type: MS2
Ion mode: POSITIVE
Ionization: ESI
Fragmentation mode: HCD
Collision energy: 45
Resolution: 17500
Column name: Acquity BEH C18 1.7um, 2.1x150mm (Waters)
Retention time: 20.652 min
Base peak: 79.0211
Precursor m/z: 259.2056
Precursor type: [M+H]+
Precursor intensity: 6852044.976562
m/z	relative intensity	assigned
57.0698	8	C4H9+
69.0698	4	C5H9+
71.0855	4	C5H11+
83.0855	5	C6H11+
119.0857	12	C9H11+
133.1011	45	C10H13+
145.1011	2	C11H13+
147.0804	73	C10H11O+
157.1011	4	C12H13+
159.1166	3	C12H15+
161.096	108	C11H13O+
175.1117	999	C12H15O+
189.1274	20	C13H17O+
203.1429	5	C14H19O+
