Mass spectrum: Praziquantel; LC-ESI-QFT; MS2; CE: 75; R=17500; [M+H]+
Name: Praziquantel
Name: 2-(cyclohexanecarbonyl)-3,6,7,11b-tetrahydro-1H-pyrazino[2,1-a]isoquinolin-4-one
Formula: C19H24N2O2
Exact mass: 312.1838
SMILES: O=C(C1CCCCC1)N1CC2N(CCC3=C2C=CC=C3)C(=O)C1
InChI: InChI=1S/C19H24N2O2/c22-18-13-20(19(23)15-7-2-1-3-8-15)12-17-16-9-5-4-6-14(16)10-11-21(17)18/h4-6,9,15,17H,1-3,7-8,10-13H2
Instrument: Q Exactive Orbitrap (Thermo Scientific)
Instrument type: LC-ESI-QFT
Ms type: MS2
Ion mode: POSITIVE
Ionization: ESI
Fragmentation mode: HCD
Collision energy: 75
Resolution: 17500
Column name: Acquity BEH C18 1.7um, 2.1x150mm (Waters)
Retention time: 17.238 min
Base peak: 79.0211
Precursor m/z: 313.1911
Precursor type: [M+H]+
Precursor intensity: 11569614.625
m/z	relative intensity	assigned
53.0022	8	C3HO+
53.0386	23	C4H5+
53.9975	1	C2NO+
54.0338	7	C3H4N+
55.0543	999	C4H7+
56.0496	1	C3H6N+
67.0541	1	C5H7+
72.0443	73	C3H6NO+
79.0541	1	C6H7+
81.0699	1	C6H9+
83.0855	806	C6H11+
91.0542	6	C7H7+
103.0542	6	C8H7+
105.0698	23	C8H9+
115.0542	14	C9H7+
116.062	1	C9H8+
117.0573	10	C8H7N+
117.0698	63	C9H9+
118.065	2	C8H8N+
119.0856	4	C9H11+
128.062	34	C10H8+
129.0698	197	C10H9+
130.0651	41	C9H8N+
131.073	37	C9H9N+
131.0854	3	C10H11+
132.0807	523	C9H10N+
143.0725	4	C10H9N+
144.0807	49	C10H10N+
145.065	5	C10H9O+
145.0886	42	C10H11N+
146.0963	213	C10H12N+
155.0605	5	C10H7N2+
156.0807	2	C11H10N+
158.0963	32	C11H12N+
160.0757	1	C10H10NO+
171.091	1	C11H11N2+
173.1074	3	C11H13N2+
174.0913	365	C11H12NO+
175.1228	3	C11H15N2+
185.1073	6	C12H13N2+
186.0915	1	C12H12NO+
203.1179	17	C12H15N2O+
256.1689	2	C17H22NO+
