Mass spectrum: Theobromine; LC-ESI-QFT; MS2; CE: 90; R=17500; [M+H]+
Name: Theobromine
Name: 3,7-dimethylpurine-2,6-dione
Formula: C7H8N4O2
Exact mass: 180.0647
SMILES: CN1C=NC2=C1C(=O)NC(=O)N2C
InChI: InChI=1S/C7H8N4O2/c1-10-3-8-5-4(10)6(12)9-7(13)11(5)2/h3H,1-2H3,(H,9,12,13)
Instrument: Q Exactive Orbitrap (Thermo Scientific)
Instrument type: LC-ESI-QFT
Ms type: MS2
Ion mode: POSITIVE
Ionization: ESI
Fragmentation mode: HCD
Collision energy: 90
Resolution: 17500
Column name: Acquity BEH C18 1.7um, 2.1x150mm (Waters)
Retention time: 8.350 min
Base peak: 79.0211
Precursor m/z: 181.072
Precursor type: [M+H]+
Precursor intensity: 702358.75
m/z	relative intensity	assigned
56.0495	72	C3H6N+
65.0386	223	C5H5+
67.0291	999	C3H3N2+
69.0447	383	C3H5N2+
79.0292	32	C4H3N2+
79.0543	37	C6H7+
81.0447	48	C4H5N2+
83.0604	181	C4H7N2+
94.04	52	C4H4N3+
95.0493	97	C6H7O+
96.0556	53	C4H6N3+
108.0556	263	C5H6N3+
109.0397	26	C5H5N2O+
110.0714	174	C5H8N3+
113.0345	20	C4H5N2O2+
121.0285	40	C7H5O2+
121.0398	22	C6H5N2O+
122.0587	305	C5H6N4+
123.0428	75	C5H5N3O+
135.0665	49	C6H7N4+
137.0823	37	C6H9N4+
138.0663	104	C6H8N3O+
148.0381	37	C6H4N4O+
149.0233	24	C6H3N3O2+
163.0613	76	C7H7N4O+
167.0556	29	C6H7N4O2+
181.0721	60	C7H9N4O2+
