Mass spectrum: Zearalenone; LC-ESI-QFT; MS2; CE: 15; R=17500; [M-H]-
Name: Zearalenone
Name: (4S,12E)-16,18-dihydroxy-4-methyl-3-oxabicyclo[12.4.0]octadeca-1(14),12,15,17-tetraene-2,8-dione
Formula: C18H22O5
Exact mass: 318.1467
SMILES: C[C@H]1CCCC(=O)CCC\C=C\C2=C(C(O)=CC(O)=C2)C(=O)O1
InChI: InChI=1S/C18H22O5/c1-12-6-5-9-14(19)8-4-2-3-7-13-10-15(20)11-16(21)17(13)18(22)23-12/h3,7,10-12,20-21H,2,4-6,8-9H2,1H3/b7-3+/t12-/m0/s1
Instrument: Q Exactive Orbitrap (Thermo Scientific)
Instrument type: LC-ESI-QFT
Ms type: MS2
Ion mode: NEGATIVE
Ionization: ESI
Fragmentation mode: HCD
Collision energy: 15
Resolution: 17500
Column name: Acquity BEH C18 1.7um, 2.1x150mm (Waters)
Retention time: 17.846 min
Base peak: 317.1395
Precursor m/z: 317.1394
Precursor type: [M-H]-
Precursor intensity: 43900904.87891
m/z	relative intensity	assigned
149.0609	1	C9H9O2-
175.04	2	C10H7O3-
193.0869	5	C11H13O3-
273.1499	15	C17H21O3-
299.1292	4	C18H19O4-
317.1393	999	C18H21O5-
