Mass spectrum: Carfentrazone-ethyl; LC-ESI-QFT; MS2; CE: 30; R=17500; [M+H]+
Name: Carfentrazone-ethyl
Name: ethyl 2-chloro-3-[2-chloro-5-[4-(difluoromethyl)-3-methyl-5-oxo-1,2,4-triazol-1-yl]-4-fluorophenyl]propanoate
Formula: C15H14Cl2F3N3O3
Exact mass: 411.0364
SMILES: CCOC(=O)C(Cl)CC1=C(Cl)C=C(F)C(=C1)N1N=C(C)N(C(F)F)C1=O
InChI: InChI=1S/C15H14Cl2F3N3O3/c1-3-26-13(24)10(17)4-8-5-12(11(18)6-9(8)16)23-15(25)22(14(19)20)7(2)21-23/h5-6,10,14H,3-4H2,1-2H3
Instrument: Q Exactive Orbitrap (Thermo Scientific)
Instrument type: LC-ESI-QFT
Ms type: MS2
Ion mode: POSITIVE
Ionization: ESI
Fragmentation mode: HCD
Collision energy: 30
Resolution: 17500
Column name: Acquity BEH C18 1.7um, 2.1x150mm (Waters)
Retention time: 18.363 min
Base peak: 79.0212
Precursor m/z: 412.0437
Precursor type: [M+H]+
Precursor intensity: 2826943
m/z	relative intensity	assigned
74.0036	1	C2HFNO+
87.0353	1	C3H4FN2+
203.9779	1	C8H5Cl2FN+
204.9614	2	C3H3Cl2F2N3O+
228.9974	3	C9H4ClF2N2O+
229.9571	1	C9H3Cl2FNO+
231.9727	1	C9H5Cl2FNO+
240.9973	8	C10H4ClF2N2O+
242.0055	2	C10H5ClF2N2O+
256.968	1	C10H4Cl2FN2O+
257.9521	4	C10H3Cl2FNO2+
270.9838	1	C11H6Cl2FN2O+
276.9741	87	C10H5Cl2F2N2O+
284.9627	2	C11H4Cl2FN2O2+
290.0304	2	C11H8ClF3N3O+
298.9786	1	C12H6Cl2FN2O2+
302.0302	90	C12H8ClF3N3O+
304.9688	1	C14H2ClF2NO3+
316.0051	121	C12H9Cl2FN3O2+
320.0407	20	C12H10ClF3N3O2+
330.0256	4	C15H12Cl2F2NO+
334.0557	2	C13H12ClF3N3O2+
338.0069	48	C12H9Cl2F3N3O+
345.9956	999	C13H8Cl2F2N3O2+
366.0019	447	C13H9Cl2F3N3O2+
374.0278	3	C12H13Cl2F3N3O3+
384.0124	40	C13H11Cl2F3N3O3+
412.043	6	C15H15Cl2F3N3O3+
