Mass spectrum: N-Octyl-2-pyrrolidone; LC-ESI-QFT; MS2; CE: 60; R=17500; [M+H]+
Name: N-Octyl-2-pyrrolidone
Name: 1-octylpyrrolidin-2-one
Formula: C12H23NO
Exact mass: 197.1780
SMILES: CCCCCCCCN1CCCC1=O
InChI: InChI=1S/C12H23NO/c1-2-3-4-5-6-7-10-13-11-8-9-12(13)14/h2-11H2,1H3
Instrument: Q Exactive Orbitrap (Thermo Scientific)
Instrument type: LC-ESI-QFT
Ms type: MS2
Ion mode: POSITIVE
Ionization: ESI
Fragmentation mode: HCD
Collision energy: 60
Resolution: 17500
Column name: Acquity BEH C18 1.7um, 2.1x150mm (Waters)
Retention time: 18.547 min
Base peak: 79.0211
Precursor m/z: 198.1852
Precursor type: [M+H]+
Precursor intensity: 53085625.71875
m/z	relative intensity	assigned
53.0022	10	C3HO+
53.9975	1	C2NO+
55.0542	2	C4H7+
57.0699	135	C4H9+
58.0651	1	C3H8N+
68.0494	5	C4H6N+
69.0334	59	C4H5O+
70.0651	3	C4H8N+
71.0855	64	C5H11+
86.06	999	C4H8NO+
98.06	11	C5H8NO+
100.0757	2	C5H10NO+
114.0914	9	C6H12NO+
128.107	10	C7H14NO+
142.1226	4	C8H16NO+
156.1385	1	C9H18NO+
198.1853	262	C12H24NO+
