Mass spectrum: Fadrozole; LC-ESI-QFT; MS2; CE: 60; R=17500; [M+H]+
Name: Fadrozole
Name: 4-(5,6,7,8-tetrahydroimidazo[1,5-a]pyridin-5-yl)benzonitrile
Formula: C14H13N3
Exact mass: 223.1109
SMILES: N#CC1=CC=C(C=C1)C1CCCC2=CN=CN12
InChI: InChI=1S/C14H13N3/c15-8-11-4-6-12(7-5-11)14-3-1-2-13-9-16-10-17(13)14/h4-7,9-10,14H,1-3H2
Instrument: Q Exactive Orbitrap (Thermo Scientific)
Instrument type: LC-ESI-QFT
Ms type: MS2
Ion mode: POSITIVE
Ionization: ESI
Fragmentation mode: HCD
Collision energy: 60
Resolution: 17500
Column name: Acquity BEH C18 1.7um, 2.1x150mm (Waters)
Retention time: 10.622 min
Base peak: 79.0211
Precursor m/z: 224.1182
Precursor type: [M+H]+
Precursor intensity: 15827103.75
m/z	relative intensity	assigned
52.0182	1	C3H2N+
54.0338	27	C3H4N+
55.0417	5	C3H5N+
68.0494	6	C4H6N+
69.0447	13	C3H5N2+
80.0495	3	C5H6N+
81.0447	919	C4H5N2+
82.0525	999	C4H6N2+
83.0603	3	C4H7N2+
93.0699	1	C7H9+
94.0651	2	C6H8N+
95.0603	59	C5H7N2+
103.0543	5	C8H7+
104.0494	2	C7H6N+
107.0603	11	C6H7N2+
108.0681	69	C6H8N2+
115.0541	4	C9H7+
116.0494	74	C8H6N+
121.0759	7	C7H9N2+
128.0619	2	C10H8+
129.0698	24	C10H9+
130.0651	14	C9H8N+
140.0492	1	C10H6N+
142.0651	19	C10H8N+
146.0964	1	C10H12N+
154.0655	1	C11H8N+
155.0604	1	C10H7N2+
156.0807	19	C11H10N+
169.076	2	C11H9N2+
180.081	1	C13H10N+
182.0715	1	C11H8N3+
196.0866	2	C12H10N3+
197.1072	1	C13H13N2+
224.1182	231	C14H14N3+
