Mass spectrum: Pirinixic acid; LC-ESI-QFT; MS2; CE: 30; R=17500; [M+H]+
Name: Pirinixic acid
Name: 2-[4-chloro-6-(2,3-dimethylanilino)pyrimidin-2-yl]sulfanylacetic acid
Formula: C14H14ClN3O2S
Exact mass: 323.0495
SMILES: CC1=C(C)C(NC2=NC(SCC(O)=O)=NC(Cl)=C2)=CC=C1
InChI: InChI=1S/C14H14ClN3O2S/c1-8-4-3-5-10(9(8)2)16-12-6-11(15)17-14(18-12)21-7-13(19)20/h3-6H,7H2,1-2H3,(H,19,20)(H,16,17,18)
Instrument: Q Exactive Orbitrap (Thermo Scientific)
Instrument type: LC-ESI-QFT
Ms type: MS2
Ion mode: POSITIVE
Ionization: ESI
Fragmentation mode: HCD
Collision energy: 30
Resolution: 17500
Column name: Acquity BEH C18 1.7um, 2.1x150mm (Waters)
Retention time: 17.863 min
Base peak: 79.0211
Precursor m/z: 324.0568
Precursor type: [M+H]+
Precursor intensity: 6030201.1875
m/z	relative intensity	assigned
134.0964	1	C9H12N+
183.0914	1	C12H11N2+
196.0872	2	C12H10N3+
215.0638	9	C12H11N2S+
219.0683	56	C12H12ClN2+
231.0592	1	C9H14ClN3S+
242.0746	55	C13H12N3S+
262.0676	14	C12H12N3O2S+
263.0283	4	C12H10ClN3S+
266.0508	1	C12H13ClN3S+
278.0513	999	C13H13ClN3S+
280.0664	2	C13H15ClN3S+
306.0463	614	C14H13ClN3OS+
324.0569	219	C14H15ClN3O2S+
