Mass spectrum: Fluroxypyr-meptyl; LC-ESI-QFT; MS2; CE: 90; R=17500; [M-H]-
Name: Fluroxypyr-meptyl
Name: octan-2-yl 2-(4-amino-3,5-dichloro-6-fluoropyridin-2-yl)oxyacetate
Formula: C15H21Cl2FN2O3
Exact mass: 366.0913
SMILES: CCCCCCC(C)OC(=O)COC1=NC(F)=C(Cl)C(N)=C1Cl
InChI: InChI=1S/C15H21Cl2FN2O3/c1-3-4-5-6-7-9(2)23-10(21)8-22-15-12(17)13(19)11(16)14(18)20-15/h9H,3-8H2,1-2H3,(H2,19,20)
Instrument: Q Exactive Orbitrap (Thermo Scientific)
Instrument type: LC-ESI-QFT
Ms type: MS2
Ion mode: NEGATIVE
Ionization: ESI
Fragmentation mode: HCD
Collision energy: 90
Resolution: 17500
Column name: Acquity BEH C18 1.7um, 2.1x150mm (Waters)
Retention time: 19.914 min
Base peak: 112.9856
Precursor m/z: 365.084
Precursor type: [M-H]-
Precursor intensity: 323718.6879883
m/z	relative intensity	assigned
95.0052	999	C4FN2-
123.0002	271	C5FN2O-
157.9688	358	C5ClFN2O-
183.012	110	C11H2FNO-
