Mass spectrum: FR140423; LC-ESI-QFT; MS2; CE: 75; R=17500; [M+H]+
Name: FR140423
Name: 3-(Difluoromethyl)-1-(4-methoxyphenyl)-5-(4-(methylsulfinyl)phenyl)pyrazole
Name: 3-(difluoromethyl)-1-(4-methoxyphenyl)-5-(4-methylsulfinylphenyl)pyrazole
Formula: C18H16F2N2O2S
Exact mass: 362.0901
SMILES: COC1=CC=C(C=C1)N1N=C(C=C1C1=CC=C(C=C1)S(C)=O)C(F)F
InChI: InChI=1S/C18H16F2N2O2S/c1-24-14-7-5-13(6-8-14)22-17(11-16(21-22)18(19)20)12-3-9-15(10-4-12)25(2)23/h3-11,18H,1-2H3
Instrument: Q Exactive Orbitrap (Thermo Scientific)
Instrument type: LC-ESI-QFT
Ms type: MS2
Ion mode: POSITIVE
Ionization: ESI
Fragmentation mode: HCD
Collision energy: 75
Resolution: 17500
Column name: Acquity BEH C18 1.7um, 2.1x150mm (Waters)
Retention time: 16.264 min
Base peak: 79.0211
Precursor m/z: 363.0973
Precursor type: [M+H]+
Precursor intensity: 4183957.96875
m/z	relative intensity	assigned
51.023	13	C4H3+
53.0387	42	C4H5+
65.0386	25	C5H5+
76.0308	25	C6H4+
78.0464	91	C6H6+
79.0543	43	C6H7+
81.0334	16	C5H5O+
89.0386	46	C7H5+
91.0543	62	C7H7+
92.0257	19	C6H4O+
94.0413	12	C6H6O+
95.0492	129	C6H7O+
96.003	17	C5H4S+
96.0445	25	C5H6NO+
97.0106	17	C5H5S+
102.0464	999	C8H6+
103.0418	41	C7H5N+
103.0543	38	C8H7+
104.0494	163	C7H6N+
105.0336	26	C7H5O+
105.0449	40	C6H5N2+
108.0567	49	C7H8O+
116.0494	67	C8H6N+
117.0574	37	C8H7N+
118.0652	12	C8H8N+
119.0493	109	C8H7O+
121.0107	88	C7H5S+
122.0185	32	C7H6S+
122.06	89	C7H8NO+
125.0599	34	C7H9O2+
127.0355	79	C7H5F2+
127.0407	15	C9H5N+
128.0497	29	C9H6N+
130.0653	29	C9H8N+
131.0367	21	C8H5NO+
132.0444	716	C8H6NO+
133.0107	67	C8H5S+
133.0448	17	C9H6F+
133.052	14	C8H7NO+
134.0357	296	C8H6O2+
134.0406	62	C8H5FN+
134.06	55	C8H8NO+
135.0262	14	C8H7S+
135.0479	142	C8H6FN+
135.0541	17	C7H7N2O+
135.0552	16	C7H7N2O+
136.0432	10	C7H5FN2+
146.06	612	C9H8NO+
147.0139	46	C8H5NS+
147.0479	111	C9H6FN+
147.0679	405	C9H9NO+
148.0559	55	C9H7FN+
148.063	26	C8H8N2O+
149.0052	12	C8H5OS+
149.0292	50	C8H7NS+
149.0713	30	C8H9N2O+
150.0134	352	C8H6OS+
151.0088	44	C7H5NOS+
151.0555	24	C9H8FO+
152.0507	23	C8H7FNO+
152.0619	24	C12H8+
153.0386	14	C8H5F2N+
153.0696	53	C12H9+
154.0463	145	C8H6F2N+
154.0662	41	C8H9FNO+
155.0303	68	C8H5F2O+
155.0538	21	C5H12FO2S+
157.0462	39	C8H7F2O+
158.0603	33	C10H8NO+
159.0554	19	C9H7N2O+
162.0372	180	C9H8NS+
163.0428	126	C9H6FNO+
164.0164	46	C8H6NOS+
164.0378	17	C8H5FN2O+
164.0507	24	C9H7FNO+
165.0701	44	C13H9+
166.0464	70	C9H6F2N+
166.0653	16	C12H8N+
167.0547	34	C9H7F2N+
167.0731	12	C12H9N+
170.0537	32	C9H8F2O+
176.0707	18	C10H10NO2+
177.0587	43	C10H8FNO+
178.0464	116	C10H6F2N+
178.0663	137	C10H9FNO+
179.0617	351	C9H8FN2O+
179.0729	70	C13H9N+
180.0808	736	C13H10N+
181.0649	135	C13H9O+
182.0412	157	C9H6F2NO+
183.0366	32	C8H5F2N2O+
184.0441	105	C8H6F2N2O+
184.0756	18	C12H10NO+
189.07	18	C15H9+
190.0649	91	C14H8N+
191.0729	88	C14H9N+
192.0807	185	C14H10N+
193.0889	41	C14H11N+
194.0966	30	C14H12N+
195.0683	17	C13H9NO+
196.057	29	C10H8F2NO+
197.0648	35	C10H9F2NO+
198.0599	18	C9H8F2N2O+
199.0678	460	C9H9F2N2O+
204.081	46	C15H10N+
205.076	190	C14H9N2+
206.0839	346	C14H10N2+
207.0682	152	C14H9NO+
208.0645	27	C10H9FN2O2+
208.0758	512	C14H10NO+
210.0183	10	C10H6F2NS+
210.0712	76	C14H9FN+
210.0918	13	C14H12NO+
212.0709	37	C13H10NO2+
215.0608	13	C15H7N2+
216.0683	118	C15H8N2+
217.0762	221	C15H9N2+
218.0601	16	C15H8NO+
218.0843	45	C15H10N2+
221.084	38	C15H11NO+
222.0377	11	C14H8NS+
222.0553	10	C11H12NO2S+
222.0587	13	C11H12NO2S+
222.0712	114	C15H9FN+
222.0907	74	C15H12NO+
223.0666	28	C14H8FN2+
223.099	160	C15H13NO+
224.034	88	C11H8F2NS+
224.0716	67	C11H14NO2S+
227.0401	76	C13H9NOS+
228.0481	118	C13H10NOS+
229.0764	125	C16H9N2+
230.0842	34	C16H10N2+
231.0918	160	C16H11N2+
233.0711	154	C15H9N2O+
234.0789	321	C15H10N2O+
235.0671	93	C15H8FN2+
236.0746	487	C15H9FN2+
237.0481	96	C14H9N2S+
237.0823	376	C15H10FN2+
238.0861	13	C15H12NO2+
239.04	46	C14H9NOS+
239.0619	11	C14H8FN2O+
240.0482	51	C14H10NOS+
240.0651	111	C12H12F2NS+
241.0727	13	C12H13F2NS+
242.0648	30	C14H8F2N2+
243.0729	29	C14H9F2N2+
244.0809	41	C14H10F2N2+
245.0711	155	C16H9N2O+
246.0791	13	C16H10N2O+
247.0662	57	C13H13NO2S+
247.0869	52	C16H11N2O+
248.0401	85	C15H8N2S+
248.0745	60	C16H9FN2+
248.0944	136	C16H12N2O+
249.0491	48	C12H10FN2OS+
249.0827	205	C16H10FN2+
249.1026	230	C16H13N2O+
250.0903	56	C16H11FN2+
251.0632	23	C12H9F2N2O2+
251.0981	51	C16H12FN2+
252.0705	44	C12H10F2N2O2+
253.0772	35	C15H10FN2O+
254.051	46	C14H10N2OS+
254.0638	48	C15H12NOS+
255.0369	69	C14H5F2N2O+
255.0731	221	C15H9F2N2+
255.0896	313	C13H15F2NS+
256.0432	92	C17H5FN2+
256.0806	314	C15H10F2N2+
257.0884	246	C15H11F2N2+
259.0866	145	C17H11N2O+
263.062	116	C16H8FN2O+
264.0693	242	C16H9FN2O+
265.0433	104	C15H9N2OS+
265.0599	16	C13H11F2N2S+
265.0771	228	C16H10FN2O+
266.052	21	C12H11FN2O2S+
266.0682	29	C13H12F2N2S+
266.0852	38	C16H11FN2O+
267.0731	47	C16H9F2N2+
268.0466	199	C15H9FN2S+
268.0804	118	C13H15FNO2S+
269.0881	94	C13H16FNO2S+
270.0591	50	C18H7FN2+
270.0966	28	C16H12F2N2+
271.0678	23	C15H9F2N2O+
271.1041	13	C16H13F2N2+
272.0752	26	C15H10F2N2O+
273.0838	13	C15H11F2N2O+
275.0452	32	C14H9F2N2S+
278.0852	47	C17H11FN2O+
279.0585	101	C16H11N2OS+
279.0929	727	C17H12FN2O+
280.0667	249	C16H12N2OS+
280.0847	49	C14H14F2N2S+
280.0997	89	C17H13FN2O+
281.0379	12	C15H9N2O2S+
281.0727	67	C16H10FN2O2+
282.0457	54	C15H10N2O2S+
282.0623	101	C16H11FN2S+
282.08	54	C16H11FN2O2+
283.0695	274	C16H12FN2S+
284.0419	45	C15H9FN2OS+
284.0754	174	C16H10F2N2O+
285.0494	32	C15H10FN2OS+
285.0831	238	C16H11F2N2O+
286.0913	25	C16H12F2N2O+
287.0451	95	C15H9F2N2S+
288.0527	425	C15H10F2N2S+
291.0589	19	C17H11N2OS+
292.0839	95	C15H14F2N2S+
293.0382	16	C16H9N2O2S+
294.0825	39	C17H14N2OS+
295.0338	55	C16H8FN2OS+
295.0897	138	C17H15N2OS+
296.0418	90	C16H9FN2OS+
296.061	45	C16H12N2O2S+
297.0495	182	C16H10FN2OS+
297.0686	48	C16H13N2O2S+
298.0913	57	C17H12F2N2O+
299.0451	63	C16H9F2N2S+
299.099	339	C17H13F2N2O+
300.0532	65	C16H10F2N2S+
300.1067	87	C17H14F2N2O+
301.0619	24	C16H11F2N2S+
302.07	54	C16H12F2N2S+
302.0866	52	C16H12F2N2O2+
303.0762	150	C16H13F2N2S+
305.0556	54	C15H11F2N2OS+
308.0639	11	C17H12N2O2S+
309.0482	14	C17H10FN2OS+
310.0572	343	C17H11FN2OS+
311.0649	61	C17H12FN2OS+
311.1193	22	C18H16FN2O2+
312.0356	54	C16H9FN2O2S+
312.0906	165	C17H16N2O2S+
313.0445	20	C16H10FN2O2S+
314.0681	11	C17H12F2N2S+
315.0398	60	C16H9F2N2OS+
316.0476	67	C16H10F2N2OS+
317.0741	33	C16H14FN2O2S+
325.0806	247	C18H14FN2OS+
327.0597	94	C17H12FN2O2S+
328.0685	19	C17H13FN2O2S+
329.0555	30	C17H11F2N2OS+
330.0635	100	C17H12F2N2OS+
331.0715	178	C17H13F2N2OS+
332.0431	144	C16H10F2N2O2S+
332.0967	195	C17H17FN2O2S+
333.0511	27	C16H11F2N2O2S+
345.0874	25	C18H15F2N2OS+
