Mass spectrum: N-Dodecanoyl-N-methylglycine; LC-ESI-QFT; MS2; CE: 45; R=17500; [M+H]+
Name: N-Dodecanoyl-N-methylglycine
Name: N-Lauroylsarcosine
Name: 2-[dodecanoyl(methyl)amino]acetic acid
Formula: C15H29NO3
Exact mass: 271.2147
SMILES: CCCCCCCCCCCC(=O)N(C)CC(O)=O
InChI: InChI=1S/C15H29NO3/c1-3-4-5-6-7-8-9-10-11-12-14(17)16(2)13-15(18)19/h3-13H2,1-2H3,(H,18,19)
Instrument: Q Exactive Orbitrap (Thermo Scientific)
Instrument type: LC-ESI-QFT
Ms type: MS2
Ion mode: POSITIVE
Ionization: ESI
Fragmentation mode: HCD
Collision energy: 45
Resolution: 17500
Column name: Acquity BEH C18 1.7um, 2.1x150mm (Waters)
Retention time: 19.710 min
Base peak: 79.0211
Precursor m/z: 272.222
Precursor type: [M+H]+
Precursor intensity: 8410086.078125
m/z	relative intensity	assigned
53.0023	5	C3HO+
55.0542	21	C4H7+
57.0699	259	C4H9+
58.0652	4	C3H8N+
67.0542	40	C5H7+
69.0699	9	C5H9+
71.0855	125	C5H11+
72.0808	2	C4H10N+
74.0963	4	C4H12N+
81.0699	39	C6H9+
83.0855	22	C6H11+
85.1012	64	C6H13+
90.055	999	C3H8NO2+
93.07	1	C7H9+
95.0855	97	C7H11+
97.1012	9	C7H13+
109.1012	38	C8H13+
114.0915	2	C6H12NO+
117.0575	1	C8H7N+
123.1167	4	C9H15+
128.1073	1	C7H14NO+
129.1151	2	C7H15NO+
130.0652	2	C9H8N+
143.0857	1	C11H11+
158.0963	1	C11H12N+
159.1043	2	C11H13N+
171.0804	13	C12H11O+
174.0528	3	C10H8NO2+
186.0526	30	C11H8NO2+
198.0526	5	C12H8NO2+
199.0604	2	C12H9NO2+
200.0321	3	C11H6NO3+
200.068	9	C12H10NO2+
212.0679	1	C13H10NO2+
213.0761	2	C13H11NO2+
226.0478	2	C13H8NO3+
226.0832	2	C14H12NO2+
228.0994	15	C14H14NO2+
254.0792	3	C15H12NO3+
