Mass spectrum: Quizalofop-ethyl; LC-ESI-QFT; MS2; CE: 75; R=17500; [M+H]+
Name: Quizalofop-ethyl
Name: ethyl 2-[4-(6-chloroquinoxalin-2-yl)oxyphenoxy]propanoate
Formula: C19H17ClN2O4
Exact mass: 372.0877
SMILES: CCOC(=O)C(C)OC1=CC=C(OC2=CN=C3C=C(Cl)C=CC3=N2)C=C1
InChI: InChI=1S/C19H17ClN2O4/c1-3-24-19(23)12(2)25-14-5-7-15(8-6-14)26-18-11-21-17-10-13(20)4-9-16(17)22-18/h4-12H,3H2,1-2H3
Instrument: Q Exactive Orbitrap (Thermo Scientific)
Instrument type: LC-ESI-QFT
Ms type: MS2
Ion mode: POSITIVE
Ionization: ESI
Fragmentation mode: HCD
Collision energy: 75
Resolution: 17500
Column name: Acquity BEH C18 1.7um, 2.1x150mm (Waters)
Retention time: 19.435 min
Base peak: 79.0211
Precursor m/z: 373.095
Precursor type: [M+H]+
Precursor intensity: 8742602.625
m/z	relative intensity	assigned
53.0022	12	C3HO+
53.0386	31	C4H5+
55.0178	45	C3H3O+
63.0228	20	C5H3+
64.0307	6	C5H4+
65.0385	632	C5H5+
66.0464	5	C5H6+
67.0542	8	C5H7+
69.0334	7	C4H5O+
72.0808	4	C4H10N+
72.9839	5	C3H2Cl+
73.0284	33	C3H5O2+
74.0361	10	C3H6O2+
75.0229	24	C6H3+
76.0181	10	C5H2N+
76.0307	2	C6H4+
77.0386	9	C6H5+
78.0338	67	C5H4N+
78.0464	6	C6H6+
79.0177	8	C5H3O+
79.0542	25	C6H7+
81.0335	39	C5H5O+
81.0699	35	C6H9+
82.0413	11	C5H6O+
84.9838	3	C4H2Cl+
86.9999	2	C4H4Cl+
89.0386	3	C7H5+
90.0339	31	C6H4N+
90.0466	3	C7H6+
91.0542	999	C7H7+
92.0256	15	C6H4O+
92.0621	20	C7H8+
93.0335	9	C6H5O+
93.0699	41	C7H9+
94.0413	34	C6H6O+
95.0491	83	C6H7O+
96.0444	7	C5H6NO+
97.9918	5	C5H3Cl+
98.0365	3	C5H6O2+
98.9996	38	C5H4Cl+
100.0074	5	C5H5Cl+
100.0181	43	C7H2N+
102.034	5	C7H4N+
103.0542	57	C8H7+
105.0335	8	C7H5O+
105.0447	43	C6H5N2+
107.0491	11	C7H7O+
108.0443	7	C6H6NO+
109.0284	5	C6H5O2+
109.0647	25	C7H9O+
110.0362	19	C6H6O2+
111.044	27	C6H7O2+
111.9948	5	C5H3ClN+
113.0026	41	C5H4ClN+
116.0494	3	C8H6N+
118.0286	16	C7H4NO+
119.0367	8	C7H5NO+
119.0491	50	C8H7O+
120.0569	35	C8H8O+
121.0284	67	C7H5O2+
121.0397	4	C6H5N2O+
121.0648	67	C8H9O+
123.9949	41	C6H3ClN+
125.0027	19	C6H4ClN+
125.0596	5	C7H9O2+
125.9867	8	C6H3ClO+
126.0105	56	C6H5ClN+
128.0023	2	C6H5ClO+
128.9977	5	C5H4ClNO+
130.0053	6	C5H5ClNO+
131.0135	4	C5H6ClNO+
131.049	4	C9H7O+
135.0442	5	C8H7O2+
135.9948	34	C7H3ClN+
137.0027	44	C7H4ClN+
137.0598	7	C8H9O2+
138.0106	8	C7H5ClN+
139.0063	5	C6H4ClN2+
140.0135	3	C6H5ClN2+
140.0494	4	C10H6N+
141.057	3	C10H7N+
142.0527	7	C9H6N2+
144.9927	5	C5H4ClNO2+
147.0442	4	C9H7O2+
149.0152	3	C9H6Cl+
150.0104	8	C8H5ClN+
151.0058	15	C7H4ClN2+
151.0182	3	C8H6ClN+
152.0136	58	C7H5ClN2+
153.0213	8	C7H6ClN2+
154.0055	50	C7H5ClNO+
154.0653	48	C11H8N+
155.0354	7	C4H10ClNO3+
155.0603	8	C10H7N2+
161.0343	4	C8H5N2O2+
163.0057	539	C8H4ClN2+
164.001	312	C10N2O+
164.0129	78	C11H2NO+
164.0494	49	C12H6N+
165.0214	52	C8H6ClN2+
165.045	5	C11H5N2+
165.0573	59	C12H7N+
166.0529	5	C11H6N2+
166.0651	15	C12H8N+
167.0606	2	C11H7N2+
167.073	6	C12H9N+
168.0085	8	C7H5ClN2O+
168.0683	25	C11H8N2+
168.9927	8	C7H4ClNO2+
169.052	15	C11H7NO+
173.0152	12	C11H6Cl+
174.0105	15	C10H5ClN+
177.0215	43	C9H6ClN2+
178.0296	16	C9H7ClN2+
179.0007	95	C8H4ClN2O+
179.0451	12	C8H7N2O3+
179.0603	18	C12H7N2+
180.0087	12	C8H5ClN2O+
180.0678	20	C12H8N2+
180.0808	11	C13H10N+
181.0163	315	C8H6ClN2O+
181.076	227	C12H9N2+
182.0601	34	C12H8NO+
182.084	18	C12H10N2+
183.0679	31	C12H9NO+
188.0259	5	C14H4O+
189.0215	27	C10H6ClN2+
190.0293	33	C10H7ClN2+
190.0521	2	C13H6N2+
190.0648	4	C14H8N+
191.0374	2	C10H8ClN2+
191.0603	40	C13H7N2+
192.0682	970	C13H8N2+
193.076	101	C13H9N2+
194.0839	11	C13H10N2+
195.0319	140	C9H8ClN2O+
196.0034	59	C8H5ClN2O2+
197.0475	9	C9H10ClN2O+
200.0261	49	C12H7ClN+
201.0223	12	C11H6ClN2+
201.0335	13	C15H5O+
202.0294	51	C11H7ClN2+
203.0371	57	C11H8ClN2+
205.0162	4	C10H6ClN2O+
205.0762	6	C14H9N2+
206.084	7	C14H10N2+
207.0917	143	C14H11N2+
208.0633	34	C13H8N2O+
208.0995	45	C14H12N2+
209.0709	82	C13H9N2O+
210.079	21	C13H10N2O+
215.037	374	C12H8ClN2+
216.0207	10	C15H4O2+
216.0449	165	C12H9ClN2+
217.0526	20	C12H10ClN2+
217.0762	11	C15H9N2+
218.0837	48	C15H10N2+
219.032	7	C11H8ClN2O+
219.0667	2	C9H14ClNO3+
219.0918	7	C15H11N2+
220.0631	17	C14H8N2O+
221.0709	52	C14H9N2O+
223.0866	3	C14H11N2O+
226.0292	69	C13H7ClN2+
227.037	120	C13H8ClN2+
228.0448	97	C13H9ClN2+
229.0162	3	C12H6ClN2O+
229.0524	24	C16H7NO+
235.0864	24	C15H11N2O+
236.0582	4	C14H8N2O2+
237.0657	6	C14H9N2O2+
239.0368	9	C17H5NO+
240.0448	3	C14H9ClN2+
241.0527	21	C14H10ClN2+
242.0239	5	C13H7ClN2O+
242.0604	11	C14H11ClN2+
243.0317	38	C13H8ClN2O+
243.0683	38	C14H12ClN2+
244.0397	119	C13H9ClN2O+
245.0476	28	C13H10ClN2O+
253.0527	30	C15H10ClN2+
255.0319	441	C14H8ClN2O+
256.0399	24	C14H9ClN2O+
257.0476	7	C14H10ClN2O+
269.048	6	C15H10ClN2O+
270.0201	2	C14H7ClN2O2+
271.0268	34	C14H8ClN2O2+
271.0633	11	C15H12ClN2O+
273.0419	11	C17H7NO3+
