Mass spectrum: Norethindrone; LC-ESI-QFT; MS2; CE: 75; R=17500; [M-H]-
Name: Norethindrone
Name: (8R,9S,10R,13S,14S,17R)-17-ethynyl-17-hydroxy-13-methyl-1,2,6,7,8,9,10,11,12,14,15,16-dodecahydrocyclopenta[a]phenanthren-3-one
Formula: C20H26O2
Exact mass: 298.1933
SMILES: C[C@]12CC[C@H]3[C@@H](CCC4=CC(=O)CC[C@H]34)[C@@H]1CC[C@@]2(O)C#C
InChI: InChI=1S/C20H26O2/c1-3-20(22)11-9-18-17-6-4-13-12-14(21)5-7-15(13)16(17)8-10-19(18,20)2/h1,12,15-18,22H,4-11H2,2H3/t15-,16+,17+,18-,19-,20-/m0/s1
Instrument: Q Exactive Orbitrap (Thermo Scientific)
Instrument type: LC-ESI-QFT
Ms type: MS2
Ion mode: NEGATIVE
Ionization: ESI
Fragmentation mode: HCD
Collision energy: 75
Resolution: 17500
Column name: Acquity BEH C18 1.7um, 2.1x150mm (Waters)
Retention time: 17.613 min
Base peak: 335.0513
Precursor m/z: 297.186
Precursor type: [M-H]-
Precursor intensity: 1273604.84375
m/z	relative intensity	assigned
149.0974	6	C10H13O-
209.0605	14	C14H9O2-
225.0917	11	C15H13O2-
239.1079	20	C16H15O2-
249.1285	12	C18H17O-
263.1438	55	C19H19O-
265.1234	203	C18H17O2-
267.1396	15	C18H19O2-
281.1547	999	C19H21O2-
297.1855	24	C20H25O2-
