Mass spectrum: (-)-Epigallocatechin gallate; LC-ESI-QFT; MS2; CE: 45; R=17500; [M-H]-
Name: (-)-Epigallocatechin gallate
Name: [(2R,3R)-5,7-dihydroxy-2-(3,4,5-trihydroxyphenyl)-3,4-dihydro-2H-chromen-3-yl] 3,4,5-trihydroxybenzoate
Formula: C22H18O11
Exact mass: 458.0849
SMILES: OC1=CC(O)=C2C[C@@H](OC(=O)C3=CC(O)=C(O)C(O)=C3)[C@H](OC2=C1)C1=CC(O)=C(O)C(O)=C1
InChI: InChI=1S/C22H18O11/c23-10-5-12(24)11-7-18(33-22(31)9-3-15(27)20(30)16(28)4-9)21(32-17(11)6-10)8-1-13(25)19(29)14(26)2-8/h1-6,18,21,23-30H,7H2/t18-,21-/m1/s1
Instrument: Q Exactive Orbitrap (Thermo Scientific)
Instrument type: LC-ESI-QFT
Ms type: MS2
Ion mode: NEGATIVE
Ionization: ESI
Fragmentation mode: HCD
Collision energy: 45
Resolution: 17500
Column name: Acquity BEH C18 1.7um, 2.1x150mm (Waters)
Retention time: 11.181 min
Base peak: 266.1186
Precursor m/z: 457.0776
Precursor type: [M-H]-
Precursor intensity: 1196050.418945
m/z	relative intensity	assigned
57.0346	21	C3H5O-
69.0346	11	C4H5O-
81.0345	10	C5H5O-
83.0139	7	C4H3O2-
95.014	4	C5H3O2-
97.0294	12	C5H5O2-
105.0344	7	C7H5O-
109.0295	11	C6H5O2-
123.0088	13	C6H3O3-
124.0166	8	C6H4O3-
125.0244	999	C6H5O3-
137.0244	32	C7H5O3-
139.0401	13	C7H7O3-
149.0246	6	C8H5O3-
151.0404	5	C8H7O3-
161.0244	70	C9H5O3-
164.0116	5	C8H4O4-
165.0195	21	C8H5O4-
167.0352	28	C8H7O4-
169.0142	665	C7H5O5-
177.0556	12	C10H9O3-
179.0348	15	C9H7O4-
193.0141	35	C9H5O5-
201.0553	6	C12H9O3-
219.0661	13	C12H11O4-
221.0454	7	C11H9O5-
