Mass spectrum: FR167356; LC-ESI-QFT; MS2; CE: 75; R=17500; [M+H]+
Name: FR167356
Name: Benzamide, 2,6-dichloro-N-(3-(1-hydroxy-1-methylethyl)-2-methyl-7-benzofuranyl)-
Name: 2,6-dichloro-N-[3-(2-hydroxypropan-2-yl)-2-methyl-1-benzofuran-7-yl]benzamide
Formula: C19H17Cl2NO3
Exact mass: 377.0585
SMILES: CC1=C(C2=C(O1)C(NC(=O)C1=C(Cl)C=CC=C1Cl)=CC=C2)C(C)(C)O
InChI: InChI=1S/C19H17Cl2NO3/c1-10-16(19(2,3)24)11-6-4-9-14(17(11)25-10)22-18(23)15-12(20)7-5-8-13(15)21/h4-9,24H,1-3H3,(H,22,23)
Instrument: Q Exactive Orbitrap (Thermo Scientific)
Instrument type: LC-ESI-QFT
Ms type: MS2
Ion mode: POSITIVE
Ionization: ESI
Fragmentation mode: HCD
Collision energy: 75
Resolution: 17500
Column name: Acquity BEH C18 1.7um, 2.1x150mm (Waters)
Retention time: 16.868 min
Base peak: 79.0211
Precursor m/z: 378.0658
Precursor type: [M+H]+
Precursor intensity: 1744603.375
m/z	relative intensity	assigned
59.0492	11	C3H7O+
74.0151	3	C6H2+
84.984	30	C4H2Cl+
86.9633	17	C3ClO+
89.0387	3	C7H5+
91.0542	5	C7H7+
98.9997	4	C5H4Cl+
103.0542	4	C8H7+
107.0493	2	C7H7O+
108.984	39	C6H2Cl+
110.0362	1	C6H6O2+
112.9789	7	C5H2ClO+
115.0543	5	C9H7+
117.07	3	C9H9+
120.9608	12	C4H3Cl2+
126.9946	15	C6H4ClO+
127.054	2	C10H7+
128.0024	18	C6H5ClO+
128.0621	53	C10H8+
129.0699	4	C10H9+
131.0493	2	C9H7O+
141.0701	3	C11H9+
143.0731	1	C10H9N+
143.0855	7	C11H11+
144.0808	4	C10H10N+
144.9607	24	C6H3Cl2+
145.0052	7	C6H6ClO2+
145.0652	4	C7H12ClN+
146.0728	1	C10H10O+
147.0804	2	C10H11O+
152.0625	1	C12H8+
155.0006	10	C9HNO2+
155.0606	4	C3H17Cl2O2+
159.0211	1	C4H11Cl2NO+
159.0444	3	C7H10ClNO+
161.9632	1	C6H4Cl2O+
162.9713	40	C6H5Cl2O+
171.9719	3	C7H4Cl2N+
172.956	999	C7H3Cl2O+
172.9664	299	C9ClNO+
173.9642	2	C7H4Cl2O+
287.9978	3	C15H8Cl2NO+
290.0139	1	C15H10Cl2NO+
302.0133	3	C16H10Cl2NO+
