Mass spectrum: Tembotrione; LC-ESI-QFT; MS2; CE: 45; R=17500; [M-H]-
Name: Tembotrione
Name: 2-[2-chloro-4-methylsulfonyl-3-(2,2,2-trifluoroethoxymethyl)benzoyl]cyclohexane-1,3-dione
Formula: C17H16ClF3O6S
Exact mass: 440.0308
SMILES: CS(=O)(=O)C1=C(COCC(F)(F)F)C(Cl)=C(C=C1)C(=O)C1C(=O)CCCC1=O
InChI: InChI=1S/C17H16ClF3O6S/c1-28(25,26)13-6-5-9(15(18)10(13)7-27-8-17(19,20)21)16(24)14-11(22)3-2-4-12(14)23/h5-6,14H,2-4,7-8H2,1H3
Instrument: Q Exactive Orbitrap (Thermo Scientific)
Instrument type: LC-ESI-QFT
Ms type: MS2
Ion mode: NEGATIVE
Ionization: ESI
Fragmentation mode: HCD
Collision energy: 45
Resolution: 17500
Column name: Acquity BEH C18 1.7um, 2.1x150mm (Waters)
Retention time: 16.872 min
Base peak: 291.0599
Precursor m/z: 439.0235
Precursor type: [M-H]-
Precursor intensity: 2675669.143555
m/z	relative intensity	assigned
63.9625	17	O2S-
68.9959	31	CF3-
78.986	40	CH3O2S-
80.965	10	HO3S-
93.0346	56	C6H5O-
141.0706	12	C11H9-
161.0244	21	C9H5O3-
169.0663	46	C12H9O-
183.0814	13	C13H11O-
185.0608	27	C12H9O2-
195.0815	97	C14H11O-
197.0607	353	C13H9O2-
211.0767	92	C14H11O2-
213.0559	146	C13H9O3-
224.0479	77	C14H8O3-
225.0558	32	C14H9O3-
226.0635	999	C14H10O3-
230.0589	11	C8H13F3O2S-
238.0636	135	C15H10O3-
239.0714	554	C15H11O3-
240.0791	88	C15H12O3-
241.0873	95	C15H13O3-
258.0533	915	C14H10O5-
271.0072	39	C14H7O4S-
303.0327	17	C15H11O5S-
304.041	20	C15H12O5S-
305.0492	80	C15H13O5S-
361.0369	26	C15H12F3O5S-
403.0468	473	C17H14F3O6S-
