Mass spectrum: Sulfaquinoxaline; LC-ESI-QFT; MS2; CE: 60; R=17500; [M-H]-
Name: Sulfaquinoxaline
Name: 4-amino-N-quinoxalin-2-ylbenzenesulfonamide
Formula: C14H12N4O2S
Exact mass: 300.0681
SMILES: NC1=CC=C(C=C1)S(=O)(=O)NC1=CN=C2C=CC=CC2=N1
InChI: InChI=1S/C14H12N4O2S/c15-10-5-7-11(8-6-10)21(19,20)18-14-9-16-12-3-1-2-4-13(12)17-14/h1-9H,15H2,(H,17,18)
Instrument: Q Exactive Orbitrap (Thermo Scientific)
Instrument type: LC-ESI-QFT
Ms type: MS2
Ion mode: NEGATIVE
Ionization: ESI
Fragmentation mode: HCD
Collision energy: 60
Resolution: 17500
Column name: Acquity BEH C18 1.7um, 2.1x150mm (Waters)
Retention time: 13.928 min
Base peak: 358.0229
Precursor m/z: 299.0608
Precursor type: [M-H]-
Precursor intensity: 4614476.891113
m/z	relative intensity	assigned
61.9707	6	NOS-
63.9624	33	O2S-
77.9656	39	NO2S-
78.9734	4	HNO2S-
79.9812	9	H2NO2S-
92.0506	34	C6H6N-
93.0346	60	C6H5O-
95.0502	9	C6H7O-
106.041	16	C5H4N3-
107.0376	35	C6H5NO-
108.0456	28	C6H6NO-
115.0302	6	C7H3N2-
117.0458	220	C7H5N2-
118.0299	95	C7H4NO-
120.0455	33	C7H6NO-
121.0295	100	C7H5O2-
123.0451	24	C7H7O2-
131.0376	57	C8H5NO-
132.0217	14	C8H4O2-
132.033	15	C7H4N2O-
132.0565	4	C7H6N3-
142.041	373	C8H4N3-
143.0489	72	C8H5N3-
144.0567	999	C8H6N3-
145.0406	10	C8H5N2O-
148.0398	4	C8H6NO2-
149.0467	13	C6H5N4O-
155.0043	3	C6H5NO2S-
156.0124	31	C6H6NO2S-
158.0487	12	C9H6N2O-
171.0564	15	C10H7N2O-
181.0078	6	C7H5N2O2S-
184.0518	6	C10H6N3O-
185.0592	8	C10H7N3O-
191.0156	8	C8H5N3OS-
197.0593	9	C11H7N3O-
198.0674	47	C11H8N3O-
199.0751	96	C11H9N3O-
200.0829	11	C11H10N3O-
206.0727	3	C13H8N3-
207.0802	5	C13H9N3-
208.0879	87	C13H10N3-
224.0831	5	C13H10N3O-
232.0755	9	C14H8N4-
233.0832	131	C14H9N4-
235.099	37	C14H11N4-
297.0444	4	C14H9N4O2S-
299.0605	60	C14H11N4O2S-
