Mass spectrum: 5HPP-33; LC-ESI-QFT; MS2; CE: 15; R=17500; [M+H]+
Name: 5HPP-33
Name: 2-(2,6-Diisopropylphenyl)-5-hydroxyisoindoline-1,3-dione
Name: 2-[2,6-di(propan-2-yl)phenyl]-5-hydroxyisoindole-1,3-dione
Formula: C20H21NO3
Exact mass: 323.1521
SMILES: CC(C)C1=CC=CC(C(C)C)=C1N1C(=O)C2=C(C=C(O)C=C2)C1=O
InChI: InChI=1S/C20H21NO3/c1-11(2)14-6-5-7-15(12(3)4)18(14)21-19(23)16-9-8-13(22)10-17(16)20(21)24/h5-12,22H,1-4H3
Instrument: Q Exactive Orbitrap (Thermo Scientific)
Instrument type: LC-ESI-QFT
Ms type: MS2
Ion mode: POSITIVE
Ionization: ESI
Fragmentation mode: HCD
Collision energy: 15
Resolution: 17500
Column name: Acquity BEH C18 1.7um, 2.1x150mm (Waters)
Retention time: 18.685 min
Base peak: 79.0211
Precursor m/z: 324.1594
Precursor type: [M+H]+
Precursor intensity: 4106797.28125
m/z	relative intensity	assigned
77.0386	2	C6H5+
240.0656	545	C14H10NO3+
262.0677	4	C20H8N+
282.1126	999	C17H16NO3+
