Mass spectrum: Pioglitazone hydrochloride; LC-ESI-QFT; MS2; CE: 90; R=17500; [M+H]+
Name: Pioglitazone
Name: 5-[[4-[2-(5-ethylpyridin-2-yl)ethoxy]phenyl]methyl]-1,3-thiazolidine-2,4-dione
Formula: C19H20N2O3S
Exact mass: 356.1195
SMILES: CCC1=CN=C(CCOC2=CC=C(CC3SC(=O)NC3=O)C=C2)C=C1
InChI: InChI=1S/C19H20N2O3S/c1-2-13-3-6-15(20-12-13)9-10-24-16-7-4-14(5-8-16)11-17-18(22)21-19(23)25-17/h3-8,12,17H,2,9-11H2,1H3,(H,21,22,23)
Instrument: Q Exactive Orbitrap (Thermo Scientific)
Instrument type: LC-ESI-QFT
Ms type: MS2
Ion mode: POSITIVE
Ionization: ESI
Fragmentation mode: HCD
Collision energy: 90
Resolution: 17500
Column name: Acquity BEH C18 1.7um, 2.1x150mm (Waters)
Retention time: 13.642 min
Base peak: 79.0211
Precursor m/z: 357.1267
Precursor type: [M+H]+
Precursor intensity: 23247205.5
m/z	relative intensity	assigned
53.0386	6	C4H5+
54.0338	1	C3H4N+
56.0495	1	C3H6N+
65.0385	6	C5H5+
66.0464	10	C5H6+
67.0416	1	C4H5N+
67.0542	1	C5H7+
68.0495	3	C4H6N+
69.0573	2	C4H7N+
77.0384	3	C6H5+
78.0339	2	C5H4N+
78.0465	1	C6H6+
79.0542	73	C6H7+
80.0494	8	C5H6N+
80.062	1	C6H8+
81.0335	3	C5H5O+
82.0651	1	C5H8N+
91.0417	3	C6H5N+
91.0542	50	C7H7+
92.0495	16	C6H6N+
92.062	3	C7H8+
93.0573	28	C6H7N+
93.0699	2	C7H9+
94.0652	1	C6H8N+
95.0491	34	C6H7O+
96.0444	32	C5H6NO+
98.06	4	C5H8NO+
103.0542	1	C8H7+
104.0494	16	C7H6N+
105.0448	9	C6H5N2+
105.0572	2	C7H7N+
105.0699	1	C8H9+
106.0651	81	C7H8N+
107.0492	1	C7H7O+
107.073	8	C7H9N+
108.0444	2	C6H6NO+
108.0807	4	C7H10N+
109.0523	11	C6H7NO+
110.0601	4	C6H8NO+
117.0574	6	C8H7N+
118.0652	146	C8H8N+
119.0729	999	C8H9N+
120.0807	67	C8H10N+
121.0885	7	C8H11N+
122.06	6	C7H8NO+
123.0678	3	C7H9NO+
124.0757	15	C7H10NO+
125.0472	2	C6H7NO2+
126.0548	2	C6H8NO2+
132.0809	4	C9H10N+
134.0964	637	C9H12N+
135.1042	7	C9H13N+
139.0628	6	C7H9NO2+
