Mass spectrum: SSR 241586 HCl; LC-ESI-QFT; MS2; CE: 75; R=17500; [M+H]+
Name: SSR 241586 HCl
Name: 1-[2-[(2R)-4-benzoyl-2-(3,4-dichlorophenyl)morpholin-2-yl]ethyl]-N,N-dimethyl-4-piperidin-1-ylpiperidine-4-carboxamide
Formula: C32H42Cl2N4O3
Exact mass: 600.2634
SMILES: CN(C)C(=O)C1(N2CCCCC2)CCN(CC[C@@]2(c3ccc(Cl)c(Cl)c3)CN(C(=O)c3ccccc3)CCO2)CC1
InChI: InChI=1S/C32H42Cl2N4O3/c1-35(2)30(40)31(38-16-7-4-8-17-38)13-18-36(19-14-31)20-15-32(26-11-12-27(33)28(34)23-26)24-37(21-22-41-32)29(39)25-9-5-3-6-10-25/h3,5-6,9-12,23H,4,7-8,13-22,24H2,1-2H3/t32-/m0/s1
Instrument: Q Exactive Orbitrap (Thermo Scientific)
Instrument type: LC-ESI-QFT
Ms type: MS2
Ion mode: POSITIVE
Ionization: ESI
Fragmentation mode: HCD
Collision energy: 75
Resolution: 17500
Column name: Acquity BEH C18 1.7um, 2.1x150mm (Waters)
Retention time: 16.670 min
Base peak: 79.0211
Precursor m/z: 601.2707
Precursor type: [M+H]+
Precursor intensity: 7485180.625
m/z	relative intensity	assigned
50.0151	1	C4H2+
51.023	1	C4H3+
53.0022	5	C3HO+
53.0386	83	C4H5+
54.0338	2	C3H4N+
55.0179	4	C3H3O+
55.0542	47	C4H7+
56.0132	1	C2H2NO+
56.0495	35	C3H6N+
58.0651	172	C3H8N+
65.0386	1	C5H5+
67.0542	10	C5H7+
68.0495	6	C4H6N+
69.0699	56	C5H9+
70.0651	28	C4H8N+
72.0444	358	C3H6NO+
72.0808	42	C4H10N+
74.06	2	C3H8NO+
77.0385	24	C6H5+
79.0542	4	C6H7+
80.0494	2	C5H6N+
81.0335	13	C5H5O+
81.0573	2	C5H7N+
81.0699	8	C6H9+
82.0651	24	C5H8N+
83.0492	13	C5H7O+
83.0729	1	C5H9N+
84.0808	141	C5H10N+
86.06	7	C4H8NO+
86.0964	19	C5H12N+
91.0543	2	C7H7+
93.0699	2	C7H9+
94.0413	5	C6H6O+
94.0652	2	C6H8N+
95.0492	201	C6H7O+
96.0808	15	C6H10N+
97.0887	2	C6H11N+
98.0965	95	C6H12N+
104.0495	205	C7H6N+
105.0336	999	C5H3N3+
105.0444	80	C6H5N2+
108.0808	7	C7H10N+
109.0647	1	C7H9O+
110.0964	44	C7H12N+
112.1119	2	C7H14N+
115.0543	3	C9H7+
123.1042	1	C8H13N+
124.1123	1	C8H14N+
126.0914	417	C7H12NO+
128.0625	1	C10H8+
129.0698	3	C10H9+
136.0757	1	C8H10NO+
136.1122	5	C9H14N+
138.1278	336	C9H16N+
148.0757	40	C9H10NO+
149.0152	9	C9H6Cl+
149.0598	28	C9H9O2+
150.0231	18	C9H7Cl+
156.0807	1	C11H10N+
158.9764	17	C7H5Cl2+
162.0231	7	C10H7Cl+
163.031	2	C10H8Cl+
164.0265	1	C9H7ClN+
164.0387	6	C10H9Cl+
170.9763	2	C8H5Cl2+
172.9921	1	C8H7Cl2+
177.0341	3	C10H8ClN+
178.0416	1	C10H9ClN+
179.0494	2	C10H10ClN+
182.9763	2	C9H5Cl2+
184.9921	5	C9H7Cl2+
190.042	2	C11H9ClN+
191.0497	11	C11H10ClN+
193.0654	13	C11H12ClN+
196.9918	2	C10H7Cl2+
197.9867	1	C12H3ClO+
199.0078	1	C10H9Cl2+
203.0496	1	C12H10ClN+
208.9913	1	C11H7Cl2+
212.0029	3	C10H8Cl2N+
213.0107	3	C10H9Cl2N+
214.0186	5	C10H10Cl2N+
224.0032	2	C11H8Cl2N+
226.0185	17	C11H10Cl2N+
227.0259	1	C14H8ClO+
228.0342	38	C11H12Cl2N+
240.0344	2	C12H12Cl2N+
