Mass spectrum: Dodecylamine; LC-ESI-QFT; MS2; CE: 75; R=17500; [M+H]+
Name: Dodecylamine
Name: dodecan-1-amine
Formula: C12H27N
Exact mass: 185.2143
SMILES: CCCCCCCCCCCCN
InChI: InChI=1S/C12H27N/c1-2-3-4-5-6-7-8-9-10-11-12-13/h2-13H2,1H3
Instrument: Q Exactive Orbitrap (Thermo Scientific)
Instrument type: LC-ESI-QFT
Ms type: MS2
Ion mode: POSITIVE
Ionization: ESI
Fragmentation mode: HCD
Collision energy: 75
Resolution: 17500
Column name: Acquity BEH C18 1.7um, 2.1x150mm (Waters)
Retention time: 9.462 min
Base peak: 79.0211
Precursor m/z: 186.2216
Precursor type: [M+H]+
Precursor intensity: 59483433.5
m/z	relative intensity	assigned
58.0651	40	C3H8N+
60.0808	32	C3H10N+
72.0807	57	C4H10N+
86.0964	179	C5H12N+
100.1121	46	C6H14N+
102.1277	82	C6H16N+
114.1277	999	C7H16N+
142.1591	70	C9H20N+
144.1747	88	C9H22N+
186.2217	34	C12H28N+
