Mass spectrum: Fensulfothion; LC-ESI-QFT; MS2; CE: 30; R=17500; [M+H]+
Name: Fensulfothion
Name: diethoxy-(4-methylsulfinylphenoxy)-sulfanylidene-lambda5-phosphane
Formula: C11H17O4PS2
Exact mass: 308.0306
SMILES: CCOP(=S)(OCC)OC1=CC=C(C=C1)S(C)=O
InChI: InChI=1S/C11H17O4PS2/c1-4-13-16(17,14-5-2)15-10-6-8-11(9-7-10)18(3)12/h6-9H,4-5H2,1-3H3
Instrument: Q Exactive Orbitrap (Thermo Scientific)
Instrument type: LC-ESI-QFT
Ms type: MS2
Ion mode: POSITIVE
Ionization: ESI
Fragmentation mode: HCD
Collision energy: 30
Resolution: 17500
Column name: Acquity BEH C18 1.7um, 2.1x150mm (Waters)
Retention time: 16.417 min
Base peak: 79.0212
Precursor m/z: 309.0379
Precursor type: [M+H]+
Precursor intensity: 18501741.125
m/z	relative intensity	assigned
78.9671	1	CH3S2+
94.041	4	C6H6O+
98.9841	1	H4O4P+
104.062	1	C8H8+
105.0699	2	C8H9+
109.0048	4	C2H6O3P+
110.0183	3	C6H6S+
114.9614	5	H4O3PS+
122.0724	1	C8H10O+
125.0058	1	C6H5OS+
138.0494	1	C8H10S+
139.021	3	C7H7OS+
140.0288	14	C7H8OS+
141.0006	1	C6H5O2S+
142.0083	2	C6H6O2S+
154.9984	3	C7H7S2+
156.0062	22	C7H8S2+
157.0318	569	C7H9O2S+
157.9856	2	C6H6OS2+
168.0603	1	C9H12OS+
172.0011	1	C7H8OS2+
173.0089	515	C7H9OS2+
175.0155	3	C6H8O4P+
184.0376	1	C9H12S2+
185.0631	31	C9H13O2S+
189.9848	2	C6H7O3PS+
190.9924	6	C6H8O3PS+
201.0402	70	C9H13OS2+
202.9925	1	C7H8O3PS+
217.9611	1	C7H7O2PS2+
218.0161	3	C8H11O3PS+
218.9873	2	C7H8O4PS+
219.0242	4	C8H12O3PS+
234.9647	529	C7H8O3PS2+
235.9724	29	C7H9O3PS2+
236.998	127	C11H10PS2+
237.9516	26	C6H7O4PS2+
252.9751	999	C7H10O4PS2+
262.9959	46	C9H12O3PS2+
264.0037	48	C9H13O3PS2+
265.9829	25	C8H11O4PS2+
266.9908	45	C8H12O4PS2+
281.0064	784	C9H14O4PS2+
292.0352	6	C11H17O3PS2+
294.0142	19	C10H15O4PS2+
295.0223	3	C10H16O4PS2+
309.0378	151	C11H18O4PS2+
