Mass spectrum: Carminic acid; LC-ESI-QFT; MS2; CE: 15; R=17500; [M-H]-
Name: Carminic acid
Name: 3,5,6,8-tetrahydroxy-1-methyl-9,10-dioxo-7-[(2S,3R,4R,5S,6R)-3,4,5-trihydroxy-6-(hydroxymethyl)oxan-2-yl]anthracene-2-carboxylic acid
Formula: C22H20O13
Exact mass: 492.0904
SMILES: CC1=C2C(=O)C3=C(C(O)=C(O)C([C@@H]4O[C@H](CO)[C@@H](O)[C@H](O)[C@H]4O)=C3O)C(=O)C2=CC(O)=C1C(O)=O
InChI: InChI=1S/C22H20O13/c1-4-8-5(2-6(24)9(4)22(33)34)13(25)10-11(15(8)27)16(28)12(18(30)17(10)29)21-20(32)19(31)14(26)7(3-23)35-21/h2,7,14,19-21,23-24,26,28-32H,3H2,1H3,(H,33,34)/t7-,14-,19+,20-,21+/m1/s1
Instrument: Q Exactive Orbitrap (Thermo Scientific)
Instrument type: LC-ESI-QFT
Ms type: MS2
Ion mode: NEGATIVE
Ionization: ESI
Fragmentation mode: HCD
Collision energy: 15
Resolution: 17500
Column name: Acquity BEH C18 1.7um, 2.1x150mm (Waters)
Retention time: 13.263 min
Base peak: 112.9857
Precursor m/z: 491.0831
Precursor type: [M-H]-
Precursor intensity: 266413.1601563
m/z	relative intensity	assigned
327.0508	14	C17H11O7-
357.0612	15	C18H13O8-
447.0934	293	C21H19O11-
491.0831	999	C22H19O13-
