Mass spectrum: Methyl trans-styryl ketone; LC-ESI-QFT; MS2; CE: 75; R=17500; [M+H]+
Name: Methyl trans-styryl ketone
Name: Benzylideneacetone
Name: (E)-4-phenylbut-3-en-2-one
Formula: C10H10O
Exact mass: 146.0732
SMILES: CC(=O)\C=C\C1=CC=CC=C1
InChI: InChI=1S/C10H10O/c1-9(11)7-8-10-5-3-2-4-6-10/h2-8H,1H3/b8-7+
Instrument: Q Exactive Orbitrap (Thermo Scientific)
Instrument type: LC-ESI-QFT
Ms type: MS2
Ion mode: POSITIVE
Ionization: ESI
Fragmentation mode: HCD
Collision energy: 75
Resolution: 17500
Column name: Acquity BEH C18 1.7um, 2.1x150mm (Waters)
Retention time: 19.670 min
Base peak: 79.0211
Precursor m/z: 147.0804
Precursor type: [M+H]+
Precursor intensity: 1688821.953125
m/z	relative intensity	assigned
53.0023	8	C3HO+
53.0386	32	C4H5+
55.0178	20	C3H3O+
65.0385	53	C5H5+
77.0385	13	C6H5+
78.0463	19	C6H6+
79.0542	94	C6H7+
91.0543	999	C7H7+
93.0699	46	C7H9+
95.0491	72	C6H7O+
102.0466	6	C8H6+
103.0543	127	C8H7+
104.0621	123	C8H8+
105.0698	15	C8H9+
107.0492	153	C7H7O+
115.0543	95	C9H7+
117.0699	349	C9H9+
119.0856	449	C9H11+
121.0648	10	C8H9O+
128.0621	68	C10H8+
129.0698	70	C10H9+
131.0493	35	C9H7O+
132.057	119	C9H8O+
145.0649	14	C10H9O+
147.0805	74	C10H11O+
