Mass spectrum: Fenamiphos; LC-ESI-QFT; MS2; CE: 30; R=17500; [M+H]+
Name: Fenamiphos
Name: N-[ethoxy-(3-methyl-4-methylsulfanylphenoxy)phosphoryl]propan-2-amine
Formula: C13H22NO3PS
Exact mass: 303.1058
SMILES: CCOP(=O)(NC(C)C)OC1=CC=C(SC)C(C)=C1
InChI: InChI=1S/C13H22NO3PS/c1-6-16-18(15,14-10(2)3)17-12-7-8-13(19-5)11(4)9-12/h7-10H,6H2,1-5H3,(H,14,15)
Instrument: Q Exactive Orbitrap (Thermo Scientific)
Instrument type: LC-ESI-QFT
Ms type: MS2
Ion mode: POSITIVE
Ionization: ESI
Fragmentation mode: HCD
Collision energy: 30
Resolution: 17500
Column name: Acquity BEH C18 1.7um, 2.1x150mm (Waters)
Retention time: 18.218 min
Base peak: 79.0212
Precursor m/z: 304.1131
Precursor type: [M+H]+
Precursor intensity: 34402352.46875
m/z	relative intensity	assigned
60.0808	168	C3H10N+
97.0648	1	C6H9O+
98.0001	3	H5NO3P+
107.0493	1	C7H7O+
140.0472	3	C3H11NO3P+
153.0367	4	C8H9OS+
154.0453	1	C4H13NOPS+
155.0525	26	C8H11OS+
168.9872	1	C7H6OPS+
201.9845	9	C7H7O3PS+
216.0243	1	C8H11NO2PS+
216.1537	1	C11H23NOP+
217.0082	999	C8H10O3PS+
219.0115	1	C7H10NO3PS+
230.0166	1	C9H11O3PS+
234.0347	662	C8H13NO3PS+
235.0191	1	C11H10NOPS+
245.0395	52	C10H14O3PS+
249.0342	2	C12H12NOPS+
258.0715	1	C11H17NO2PS+
259.0546	2	C11H16O3PS+
262.066	98	C10H17NO3PS+
276.0817	234	C11H19NO3PS+
304.1131	70	C13H23NO3PS+
