Mass spectrum: 7-Diethylamino-4-methylcoumarin; LC-ESI-QFT; MS2; CE: 45; R=17500; [M+H]+
Name: 7-Diethylamino-4-methylcoumarin
Name: 7-(diethylamino)-4-methylchromen-2-one
Formula: C14H17NO2
Exact mass: 231.1259
SMILES: CCN(CC)C1=CC=C2C(C)=CC(=O)OC2=C1
InChI: InChI=1S/C14H17NO2/c1-4-15(5-2)11-6-7-12-10(3)8-14(16)17-13(12)9-11/h6-9H,4-5H2,1-3H3
Instrument: Q Exactive Orbitrap (Thermo Scientific)
Instrument type: LC-ESI-QFT
Ms type: MS2
Ion mode: POSITIVE
Ionization: ESI
Fragmentation mode: HCD
Collision energy: 45
Resolution: 17500
Column name: Acquity BEH C18 1.7um, 2.1x150mm (Waters)
Retention time: 17.638 min
Base peak: 79.0211
Precursor m/z: 232.1332
Precursor type: [M+H]+
Precursor intensity: 42649413.46875
m/z	relative intensity	assigned
67.0178	1	C4H3O+
68.013	8	C3H2NO+
72.0806	3	C4H10N+
91.0542	1	C7H7+
96.0443	10	C5H6NO+
103.0542	1	C8H7+
105.0699	3	C8H9+
115.0543	1	C9H7+
116.062	1	C9H8+
117.0571	1	C8H7N+
117.07	3	C9H9+
118.065	3	C8H8N+
130.0653	3	C9H8N+
131.0491	1	C9H7O+
131.0728	5	C9H9N+
131.0857	1	C10H11+
132.0807	13	C9H10N+
133.0648	2	C9H9O+
134.06	1	C8H8NO+
134.0964	1	C9H12N+
138.0913	2	C8H12NO+
144.0808	19	C10H10N+
145.0885	2	C10H11N+
146.0963	2	C10H12N+
147.0679	1	C9H9NO+
148.0755	2	C9H10NO+
148.112	4	C10H14N+
158.0964	6	C11H12N+
159.0441	1	C10H7O2+
159.1043	8	C11H13N+
160.0756	19	C10H10NO+
160.1121	13	C11H14N+
161.0593	1	C10H9O2+
161.1198	1	C11H15N+
162.091	3	C10H12NO+
172.1119	4	C12H14N+
173.1198	4	C12H15N+
174.0914	7	C11H12NO+
175.0628	15	C10H9NO2+
175.0992	88	C11H13NO+
176.0705	22	C10H10NO2+
176.107	30	C11H14NO+
176.1433	35	C12H18N+
186.1273	4	C13H16N+
188.0706	396	C11H10NO2+
188.1433	36	C13H18N+
189.0781	1	C11H11NO2+
189.1151	5	C12H15NO+
190.1228	2	C12H16NO+
202.0863	30	C12H12NO2+
203.0941	913	C12H13NO2+
204.1018	318	C12H14NO2+
204.1379	25	C13H18NO+
216.1019	5	C13H14NO2+
217.1098	10	C13H15NO2+
230.1177	2	C14H16NO2+
232.1331	999	C14H18NO2+
