Mass spectrum: CP-401387; LC-ESI-QFT; MS2; CE: 75; R=17500; [M-H]-
Name: CP-401387
Name: 4-cyano-4-(1-cyclohexyl-3-ethylindazol-6-yl)cyclohexane-1-carboxylic acid
Formula: C23H29N3O2
Exact mass: 379.2260
SMILES: CCC1=NN(C2CCCCC2)C2=C1C=CC(=C2)[C@]1(CC[C@@H](CC1)C(O)=O)C#N
InChI: InChI=1S/C23H29N3O2/c1-2-20-19-9-8-17(23(15-24)12-10-16(11-13-23)22(27)28)14-21(19)26(25-20)18-6-4-3-5-7-18/h8-9,14,16,18H,2-7,10-13H2,1H3,(H,27,28)/t16-,23-
Instrument: Q Exactive Orbitrap (Thermo Scientific)
Instrument type: LC-ESI-QFT
Ms type: MS2
Ion mode: NEGATIVE
Ionization: ESI
Fragmentation mode: HCD
Collision energy: 75
Resolution: 17500
Column name: Acquity BEH C18 1.7um, 2.1x150mm (Waters)
Retention time: 19.021 min
Base peak: 271.9888
Precursor m/z: 378.2187
Precursor type: [M-H]-
Precursor intensity: 3717987.085938
m/z	relative intensity	assigned
52.0192	14	C3H2N-
80.0506	11	C5H6N-
140.0505	10	C10H6N-
158.0847	13	C10H10N2-
168.0567	23	C10H6N3-
169.0771	153	C11H9N2-
171.0928	214	C11H11N2-
173.1088	8	C11H13N2-
181.0649	32	C11H7N3-
182.085	17	C12H10N2-
183.0803	52	C11H9N3-
183.0927	58	C12H11N2-
184.1006	14	C12H12N2-
185.1081	22	C12H13N2-
190.0745	34	C10H10N2O2-
195.0932	21	C13H11N2-
196.088	999	C12H10N3-
197.1084	341	C13H13N2-
199.1241	236	C13H15N2-
208.0881	22	C13H10N3-
209.0958	12	C13H11N3-
210.1037	10	C13H12N3-
211.124	11	C14H15N2-
213.0542	67	C11H7N3O2-
216.0905	11	C12H12N2O2-
222.1038	141	C14H12N3-
223.1241	30	C15H15N2-
225.1398	209	C15H17N2-
236.1191	8	C15H14N3-
239.0695	13	C13H9N3O2-
248.1197	12	C16H14N3-
250.135	201	C16H16N3-
252.1508	206	C16H18N3-
267.1019	21	C15H13N3O2-
269.1168	19	C15H15N3O2-
