Mass spectrum: Carbonyl cyanide chlorophenylhydrazone; LC-ESI-QFT; MS2; CE: 75; R=17500; [M-H]-
Name: Carbonyl cyanide chlorophenylhydrazone
Name: (3-Chlorophenyl)hydrazonomalononitrile
Name: 2-[(3-chlorophenyl)hydrazinylidene]propanedinitrile
Formula: C9H5ClN4
Exact mass: 204.0203
SMILES: ClC1=CC=CC(NN=C(C#N)C#N)=C1
InChI: InChI=1S/C9H5ClN4/c10-7-2-1-3-8(4-7)13-14-9(5-11)6-12/h1-4,13H
Instrument: Q Exactive Orbitrap (Thermo Scientific)
Instrument type: LC-ESI-QFT
Ms type: MS2
Ion mode: NEGATIVE
Ionization: ESI
Fragmentation mode: HCD
Collision energy: 75
Resolution: 17500
Column name: Acquity BEH C18 1.7um, 2.1x150mm (Waters)
Retention time: 18.007 min
Base peak: 203.0131
Precursor m/z: 203.013
Precursor type: [M-H]-
Precursor intensity: 141545796.2734
m/z	relative intensity	assigned
64.0067	999	C3N2-
65.0145	91	C3HN2-
66.0098	4	C2N3-
74.0035	2	C5N-
80.0016	19	ClH3N3-
88.0193	45	C6H2N-
89.0145	30	C5HN2-
93.0207	7	C3HN4-
112.0194	4	C8H2N-
115.0301	868	C7H3N2-
139.0301	15	C9H3N2-
140.0254	36	C8H2N3-
151.0068	653	C7H4ClN2-
176.0021	33	C8H3ClN3-
