Mass spectrum: 2-Amino-6-methoxybenzothiazole; LC-ESI-QFT; MS2; CE: 45; R=17500; [M+H]+
Name: 2-Amino-6-methoxybenzothiazole
Name: 6-methoxy-1,3-benzothiazol-2-amine
Formula: C8H8N2OS
Exact mass: 180.0357
SMILES: COC1=CC2=C(C=C1)N=C(N)S2
InChI: InChI=1S/C8H8N2OS/c1-11-5-2-3-6-7(4-5)12-8(9)10-6/h2-4H,1H3,(H2,9,10)
Instrument: Q Exactive Orbitrap (Thermo Scientific)
Instrument type: LC-ESI-QFT
Ms type: MS2
Ion mode: POSITIVE
Ionization: ESI
Fragmentation mode: HCD
Collision energy: 45
Resolution: 17500
Column name: Acquity BEH C18 1.7um, 2.1x150mm (Waters)
Retention time: 11.161 min
Base peak: 79.0212
Precursor m/z: 181.043
Precursor type: [M+H]+
Precursor intensity: 22238006.75
m/z	relative intensity	assigned
69.0447	1	C3H5N2+
108.0555	2	C7H8O+
122.06	5	C7H8NO+
138.0245	9	C6H6N2S+
139.0212	10	C7H7OS+
148.0631	2	C8H8N2O+
149.0167	2	C7H5N2S+
150.0246	15	C7H6N2S+
153.0482	1	C7H9N2S+
154.032	9	C7H8NOS+
166.0195	338	C7H6N2OS+
181.0428	999	C8H9N2OS+
