Mass spectrum: Thiophanate-methyl; LC-ESI-QFT; MS2; CE: 15; R=17500; [M+H]+
Name: Thiophanate-methyl
Name: N'-methoxycarbonyl-N-[2-[(N-methoxycarbonyl-C-sulfanylcarbonimidoyl)amino]phenyl]carbamimidothioic acid
Formula: C12H14N4O4S2
Exact mass: 342.0456
SMILES: COC(=O)NC(=S)NC1=C(NC(=S)NC(=O)OC)C=CC=C1
InChI: InChI=1S/C12H14N4O4S2/c1-19-11(17)15-9(21)13-7-5-3-4-6-8(7)14-10(22)16-12(18)20-2/h3-6H,1-2H3,(H2,13,15,17,21)(H2,14,16,18,22)
Instrument: Q Exactive Orbitrap (Thermo Scientific)
Instrument type: LC-ESI-QFT
Ms type: MS2
Ion mode: POSITIVE
Ionization: ESI
Fragmentation mode: HCD
Collision energy: 15
Resolution: 17500
Column name: Acquity BEH C18 1.7um, 2.1x150mm (Waters)
Retention time: 15.164 min
Base peak: 79.0211
Precursor m/z: 343.0529
Precursor type: [M+H]+
Precursor intensity: 7302683.0625
m/z	relative intensity	assigned
74.0059	1	C2H4NS+
76.0393	4	C2H6NO2+
85.97	3	C2NOS+
109.0762	1	C6H9N2+
117.9959	4	C3H4NO2S+
134.0714	3	C7H8N3+
151.0325	999	C7H7N2S+
160.0506	9	C8H6N3O+
192.0768	61	C9H10N3O2+
194.0383	29	C8H8N3OS+
209.038	16	C9H9N2O2S+
219.0334	9	C9H7N4OS+
226.0645	233	C9H12N3O2S+
235.9948	57	C9H6N3OS2+
251.0599	53	C10H11N4O2S+
268.021	233	C10H10N3O2S2+
277.039	20	C11H9N4O3S+
279.0007	20	C10H7N4O2S2+
311.0269	479	C11H11N4O3S2+
