Mass spectrum: Meloxicam; LC-ESI-QFT; MS2; CE: 75; R=17500; [M+H]+
Name: Meloxicam
Name: 4-hydroxy-2-methyl-N-(5-methyl-1,3-thiazol-2-yl)-1,1-dioxo-1lambda6,2-benzothiazine-3-carboxamide
Formula: C14H13N3O4S2
Exact mass: 351.0347
SMILES: CN1C(C(=O)NC2=NC=C(C)S2)=C(O)C2=C(C=CC=C2)S1(=O)=O
InChI: InChI=1S/C14H13N3O4S2/c1-8-7-15-14(22-8)16-13(19)11-12(18)9-5-3-4-6-10(9)23(20,21)17(11)2/h3-7,18H,1-2H3,(H,15,16,19)
Instrument: Q Exactive Orbitrap (Thermo Scientific)
Instrument type: LC-ESI-QFT
Ms type: MS2
Ion mode: POSITIVE
Ionization: ESI
Fragmentation mode: HCD
Collision energy: 75
Resolution: 17500
Column name: Acquity BEH C18 1.7um, 2.1x150mm (Waters)
Retention time: 16.851 min
Base peak: 79.0211
Precursor m/z: 352.042
Precursor type: [M+H]+
Precursor intensity: 8473413.5
m/z	relative intensity	assigned
53.0387	2	C4H5+
54.0338	1	C3H4N+
56.0495	10	C3H6N+
57.0574	1	C3H7N+
57.9872	1	C2H2S+
58.0288	4	C2H4NO+
58.995	1	C2H3S+
59.9665	2	COS+
59.9902	4	CH2NS+
65.0386	2	C5H5+
69.0447	5	C3H5N2+
70.0287	10	C3H4NO+
70.9949	1	C3H3S+
71.0604	2	C3H7N2+
73.0106	527	C3H5S+
77.0385	1	C6H5+
81.0335	1	C5H5O+
82.0526	1	C4H6N2+
85.0107	1	C4H5S+
85.9696	1	C2NOS+
86.0059	3	C3H4NS+
88.0216	115	C3H6NS+
91.0543	5	C7H7+
92.0258	1	C6H4O+
95.0493	3	C6H7O+
97.0107	13	C5H5S+
100.0215	1	C4H6NS+
105.0336	5	C7H5O+
105.0447	2	C6H5N2+
109.0107	21	C6H5S+
113.0056	1	C5H5OS+
113.0169	15	C4H5N2S+
114.001	21	C4H4NOS+
115.0325	999	C4H7N2S+
117.0575	1	C8H7N+
118.065	1	C8H8N+
121.0286	1	C7H5O2+
125.0056	5	C6H5OS+
125.0169	1	C5H5N2S+
127.0325	3	C5H7N2S+
135.9978	2	C7H4OS+
137.0056	7	C7H5OS+
141.0117	323	C5H5N2OS+
146.06	4	C9H8NO+
153.0005	23	C7H5O2S+
164.0165	4	C8H6NOS+
168.9954	6	C7H5O3S+
182.0269	1	C8H8NO2S+
183.9964	1	C9H2N3S+
210.0213	1	C9H8NO3S+
