Mass spectrum: Carminic acid; LC-ESI-QFT; MS2; CE: 45; R=17500; [M-H]-
Name: Carminic acid
Name: 3,5,6,8-tetrahydroxy-1-methyl-9,10-dioxo-7-[(2S,3R,4R,5S,6R)-3,4,5-trihydroxy-6-(hydroxymethyl)oxan-2-yl]anthracene-2-carboxylic acid
Formula: C22H20O13
Exact mass: 492.0904
SMILES: CC1=C2C(=O)C3=C(C(O)=C(O)C([C@@H]4O[C@H](CO)[C@@H](O)[C@H](O)[C@H]4O)=C3O)C(=O)C2=CC(O)=C1C(O)=O
InChI: InChI=1S/C22H20O13/c1-4-8-5(2-6(24)9(4)22(33)34)13(25)10-11(15(8)27)16(28)12(18(30)17(10)29)21-20(32)19(31)14(26)7(3-23)35-21/h2,7,14,19-21,23-24,26,28-32H,3H2,1H3,(H,33,34)/t7-,14-,19+,20-,21+/m1/s1
Instrument: Q Exactive Orbitrap (Thermo Scientific)
Instrument type: LC-ESI-QFT
Ms type: MS2
Ion mode: NEGATIVE
Ionization: ESI
Fragmentation mode: HCD
Collision energy: 45
Resolution: 17500
Column name: Acquity BEH C18 1.7um, 2.1x150mm (Waters)
Retention time: 13.263 min
Base peak: 112.9857
Precursor m/z: 491.0831
Precursor type: [M-H]-
Precursor intensity: 307029.1347656
m/z	relative intensity	assigned
227.0722	34	C14H11O3-
255.0665	44	C15H11O4-
270.0536	195	C15H10O5-
271.0617	84	C15H11O5-
281.0458	53	C16H9O5-
282.0546	35	C16H10O5-
283.0616	104	C16H11O5-
284.033	108	C15H8O6-
285.0407	179	C15H9O6-
297.0406	96	C16H9O6-
298.0484	845	C16H10O6-
299.0561	999	C16H11O6-
309.0406	69	C17H9O6-
311.0565	81	C17H11O6-
327.0511	573	C17H11O7-
339.0508	163	C18H11O7-
357.0616	308	C18H13O8-
