Mass spectrum: Finasteride; LC-ESI-QFT; MS2; CE: 45; R=17500; [M+H]+
Name: Finasteride
Name: (1S,3aS,3bS,5aR,9aR,9bS,11aS)-N-tert-butyl-9a,11a-dimethyl-7-oxo-1,2,3,3a,3b,4,5,5a,6,9b,10,11-dodecahydroindeno[5,4-f]quinoline-1-carboxamide
Formula: C23H36N2O2
Exact mass: 372.2777
SMILES: CC(C)(C)NC(=O)[C@H]1CC[C@H]2[C@@H]3CC[C@H]4NC(=O)C=C[C@]4(C)[C@H]3CC[C@]12C
InChI: InChI=1S/C23H36N2O2/c1-21(2,3)25-20(27)17-8-7-15-14-6-9-18-23(5,13-11-19(26)24-18)16(14)10-12-22(15,17)4/h11,13-18H,6-10,12H2,1-5H3,(H,24,26)(H,25,27)/t14-,15-,16-,17+,18+,22-,23+/m0/s1
Instrument: Q Exactive Orbitrap (Thermo Scientific)
Instrument type: LC-ESI-QFT
Ms type: MS2
Ion mode: POSITIVE
Ionization: ESI
Fragmentation mode: HCD
Collision energy: 45
Resolution: 17500
Column name: Acquity BEH C18 1.7um, 2.1x150mm (Waters)
Retention time: 17.671 min
Base peak: 79.0212
Precursor m/z: 373.285
Precursor type: [M+H]+
Precursor intensity: 15169825.09375
m/z	relative intensity	assigned
53.0022	2	C3HO+
55.0179	1	C3H3O+
55.0542	1	C4H7+
56.0494	1	C3H6N+
57.0698	140	C4H9+
67.0542	7	C5H7+
69.0334	105	C4H5O+
71.049	1	C4H7O+
72.0443	19	C3H6NO+
72.0807	3	C4H10N+
74.0963	5	C4H12N+
79.0541	4	C6H7+
81.0698	34	C6H9+
83.049	1	C5H7O+
83.0854	2	C6H11+
86.06	9	C4H8NO+
91.054	2	C7H7+
93.0699	17	C7H9+
95.0855	68	C7H11+
96.0443	9	C5H6NO+
97.0647	1	C6H9O+
97.1011	2	C7H13+
98.06	20	C5H8NO+
100.0756	1	C5H10NO+
105.0698	7	C8H9+
107.0854	23	C8H11+
109.0648	1	C7H9O+
109.1012	10	C8H13+
110.06	6	C6H8NO+
111.1168	1	C8H15+
112.0757	1	C6H10NO+
117.0698	1	C9H9+
119.0854	10	C9H11+
121.0648	2	C8H9O+
121.1011	34	C9H13+
122.0599	3	C7H8NO+
123.0803	1	C8H11O+
123.1168	1	C9H15+
124.0756	5	C7H10NO+
126.0912	5	C7H12NO+
129.0698	1	C10H9+
131.0855	7	C10H11+
133.1011	18	C10H13+
135.0804	1	C9H11O+
135.1167	15	C10H15+
136.0756	3	C8H10NO+
138.0913	4	C8H12NO+
140.1067	2	C8H14NO+
143.0853	4	C11H11+
145.101	14	C11H13+
147.0804	2	C10H11O+
147.1167	20	C11H15+
149.096	2	C10H13O+
149.1324	5	C11H17+
150.0914	3	C9H12NO+
152.1068	2	C9H14NO+
155.0856	2	C12H11+
157.101	4	C12H13+
159.0804	1	C11H11O+
159.1167	7	C12H15+
161.0959	6	C11H13O+
161.1323	8	C12H17+
163.1117	3	C11H15O+
163.1479	2	C12H19+
164.1069	3	C10H14NO+
166.1225	2	C10H16NO+
169.101	2	C13H13+
171.1168	4	C13H15+
173.0958	2	C12H13O+
173.1324	15	C13H17+
175.1116	4	C12H15O+
175.148	49	C13H19+
176.1069	2	C11H14NO+
177.1636	15	C13H21+
178.1226	4	C11H16NO+
180.1379	2	C11H18NO+
181.1007	2	C14H13+
183.1169	4	C14H15+
185.1324	15	C14H17+
187.112	1	C13H15O+
187.148	18	C14H19+
189.1637	37	C14H21+
190.1229	1	C12H16NO+
192.1379	2	C12H18NO+
195.1164	3	C15H15+
197.1325	6	C15H17+
199.1118	2	C14H15O+
199.1478	3	C15H19+
201.127	3	C14H17O+
201.1636	3	C15H21+
203.143	8	C14H19O+
203.1793	4	C15H23+
206.1898	1	C14H24N+
211.1478	4	C16H19+
213.1272	2	C15H17O+
213.1635	8	C16H21+
215.1428	10	C15H19O+
215.1794	7	C16H23+
216.1382	1	C14H18NO+
218.1538	1	C14H20NO+
220.1694	21	C14H22NO+
222.1851	1	C14H24NO+
223.1484	1	C17H19+
227.1433	1	C16H19O+
227.179	12	C17H23+
229.1583	1	C16H21O+
229.1951	6	C17H25+
232.1695	10	C15H22NO+
237.1634	14	C18H21+
239.143	1	C17H19O+
239.1793	8	C18H23+
241.1578	1	C17H21O+
246.185	3	C16H24NO+
247.148	1	C19H19+
249.1959	13	C15H25N2O+
254.1901	5	C18H24N+
255.1742	25	C18H23O+
256.2059	4	C18H26N+
257.1898	6	C18H25O+
258.1845	2	C17H24NO+
265.1583	4	C19H21O+
272.2009	13	C18H26NO+
274.2163	13	C18H28NO+
276.2319	1	C18H30NO+
282.1853	4	C19H24NO+
283.1691	6	C19H23O2+
288.2315	2	C19H30NO+
299.2105	2	C19H27N2O+
300.1959	5	C19H26NO2+
305.2585	591	C19H33N2O+
317.2222	24	C19H29N2O2+
331.2737	4	C21H35N2O+
355.2742	14	C23H35N2O+
357.2534	4	C22H33N2O2+
373.2847	999	C23H37N2O2+
