Mass spectrum: Diofenolan; LC-ESI-QFT; MS2; CE: 60; R=17500; [M-H]-
Name: Diofenolan
Name: 2-ethyl-4-[(4-phenoxyphenoxy)methyl]-1,3-dioxolane
Formula: C18H20O4
Exact mass: 300.1362
SMILES: CCC1OCC(COC2=CC=C(OC3=CC=CC=C3)C=C2)O1
InChI: InChI=1S/C18H20O4/c1-2-18-20-13-17(22-18)12-19-14-8-10-16(11-9-14)21-15-6-4-3-5-7-15/h3-11,17-18H,2,12-13H2,1H3
Instrument: Q Exactive Orbitrap (Thermo Scientific)
Instrument type: LC-ESI-QFT
Ms type: MS2
Ion mode: NEGATIVE
Ionization: ESI
Fragmentation mode: HCD
Collision energy: 60
Resolution: 17500
Column name: Acquity BEH C18 1.7um, 2.1x150mm (Waters)
Retention time: 17.121 min
Base peak: 141.0113
Precursor m/z: 299.1289
Precursor type: [M-H]-
Precursor intensity: 843802.6474609
m/z	relative intensity	assigned
81.0347	9	C5H5O-
91.019	6	C6H3O-
93.0347	17	C6H5O-
95.0502	23	C6H7O-
108.0216	58	C6H4O2-
109.0295	999	C6H5O2-
121.0296	30	C7H5O2-
122.0373	43	C7H6O2-
123.0452	260	C7H7O2-
137.0245	11	C7H5O3-
148.0532	7	C9H8O2-
149.0608	102	C9H9O2-
154.0274	12	C7H6O4-
162.0688	17	C10H10O2-
173.0609	34	C11H9O2-
174.0685	9	C11H10O2-
175.0763	9	C11H11O2-
177.0924	27	C11H13O2-
189.0922	8	C12H13O2-
