Mass spectrum: Indinavir; LC-ESI-QFT; MS2; CE: 60; R=17500; [M-H]-
Name: Indinavir
Formula: C36H47N5O4
Exact mass: 613.3628
SMILES: CC(C)(C)NC(=O)[C@@H]1CN(Cc2cccnc2)CCN1C[C@@H](O)C[C@@H](Cc1ccccc1)C(=O)N[C@H]1c2ccccc2C[C@H]1O
InChI: InChI=1S/C36H47N5O4/c1-36(2,3)39-35(45)31-24-40(22-26-12-9-15-37-21-26)16-17-41(31)23-29(42)19-28(18-25-10-5-4-6-11-25)34(44)38-33-30-14-8-7-13-27(30)20-32(33)43/h4-15,21,28-29,31-33,42-43H,16-20,22-24H2,1-3H3,(H,38,44)(H,39,45)/t28-,29+,31+,32-,33+/m1/s1
Instrument: Q Exactive Orbitrap (Thermo Scientific)
Instrument type: LC-ESI-QFT
Ms type: MS2
Ion mode: NEGATIVE
Ionization: ESI
Fragmentation mode: HCD
Collision energy: 60
Resolution: 17500
Column name: Acquity BEH C18 1.7um, 2.1x150mm (Waters)
Retention time: 15.252 min
Base peak: 112.9857
Precursor m/z: 612.3555
Precursor type: [M-H]-
Precursor intensity: 752456.53125
m/z	relative intensity	assigned
56.0505	68	C3H6N-
57.0346	18	C3H5O-
58.0298	69	C2H4NO-
66.0351	18	C4H4N-
68.0506	119	C4H6N-
70.0299	55	C3H4NO-
72.0455	22	C3H6NO-
81.022	18	C4H3NO-
81.0459	53	C4H5N2-
84.0456	35	C4H6NO-
87.0565	46	C3H7N2O-
91.0554	49	C7H7-
92.0506	999	C6H6N-
94.03	56	C5H4NO-
98.0974	15	C6H12N-
109.0407	69	C5H5N2O-
114.0925	42	C6H12NO-
115.0555	20	C9H7-
117.0459	292	C7H5N2-
117.0712	34	C9H9-
118.0663	28	C8H8N-
119.0615	635	C7H7N2-
126.0924	134	C7H12NO-
128.0506	69	C9H6N-
130.0662	433	C9H8N-
131.0501	25	C9H7O-
131.0616	46	C8H7N2-
133.0773	38	C8H9N2-
140.1084	14	C8H14NO-
141.1033	24	C7H13N2O-
142.0874	15	C7H12NO2-
143.1189	145	C7H15N2O-
144.0456	27	C9H6NO-
145.066	54	C10H9O-
145.0772	46	C9H9N2-
146.0613	42	C9H8NO-
147.0563	19	C8H7N2O-
147.093	15	C9H11N2-
148.0769	123	C9H10NO-
155.119	167	C8H15N2O-
156.0457	21	C10H6NO-
157.1345	15	C8H17N2O-
162.0925	130	C10H12NO-
167.119	79	C9H15N2O-
180.1142	31	C9H14N3O-
219.125	68	C11H15N4O-
275.1877	191	C15H23N4O-
