Mass spectrum: Ethionamide; LC-ESI-QFT; MS2; CE: 90; R=17500; [M+H]+
Name: Ethionamide
Name: 2-ethylpyridine-4-carboximidothioic acid
Formula: C8H10N2S
Exact mass: 166.0565
SMILES: CCC1=NC=CC(=C1)C(N)=S
InChI: InChI=1S/C8H10N2S/c1-2-7-5-6(8(9)11)3-4-10-7/h3-5H,2H2,1H3,(H2,9,11)
Instrument: Q Exactive Orbitrap (Thermo Scientific)
Instrument type: LC-ESI-QFT
Ms type: MS2
Ion mode: POSITIVE
Ionization: ESI
Fragmentation mode: HCD
Collision energy: 90
Resolution: 17500
Column name: Acquity BEH C18 1.7um, 2.1x150mm (Waters)
Retention time: 6.589 min
Base peak: 79.0212
Precursor m/z: 167.0637
Precursor type: [M+H]+
Precursor intensity: 12675987.6875
m/z	relative intensity	assigned
56.0495	2	C3H6N+
61.0106	11	C2H5S+
62.0185	1	C2H6S+
63.0262	1	C2H7S+
65.0384	6	C5H5+
78.0337	13	C5H4N+
79.0542	16	C6H7+
80.0494	37	C5H6N+
92.0494	12	C6H6N+
93.0573	115	C6H7N+
96.0808	7	C6H10N+
97.0076	31	C8H+
106.0651	236	C7H8N+
107.0729	562	C7H9N+
108.0681	10	C6H8N2+
108.0807	27	C7H10N+
112.0215	16	C5H6NS+
117.0573	13	C8H7N+
118.0525	167	C7H6N2+
119.0604	55	C7H7N2+
123.0916	10	C7H11N2+
125.0293	650	C6H7NS+
133.076	527	C8H9N2+
134.0838	136	C8H10N2+
140.0527	999	C7H10NS+
149.0295	2	C8H7NS+
150.0372	3	C8H8NS+
151.0447	2	C8H9NS+
152.0403	32	C7H8N2S+
167.0637	45	C8H11N2S+
