Mass spectrum: Pyrithiobac; LC-ESI-QFT; MS2; CE: 30; R=17500; [M+H]+
Name: Pyrithiobac
Name: 2-chloro-6-(4,6-dimethoxypyrimidin-2-yl)sulfanylbenzoic acid
Formula: C13H11ClN2O4S
Exact mass: 326.0128
SMILES: COC1=CC(OC)=NC(SC2=C(C(O)=O)C(Cl)=CC=C2)=N1
InChI: InChI=1S/C13H11ClN2O4S/c1-19-9-6-10(20-2)16-13(15-9)21-8-5-3-4-7(14)11(8)12(17)18/h3-6H,1-2H3,(H,17,18)
Instrument: Q Exactive Orbitrap (Thermo Scientific)
Instrument type: LC-ESI-QFT
Ms type: MS2
Ion mode: POSITIVE
Ionization: ESI
Fragmentation mode: HCD
Collision energy: 30
Resolution: 17500
Column name: Acquity BEH C18 1.7um, 2.1x150mm (Waters)
Retention time: 17.367 min
Base peak: 79.0211
Precursor m/z: 327.0201
Precursor type: [M+H]+
Precursor intensity: 8002391.1875
m/z	relative intensity	assigned
83.0127	1	C4H3O2+
85.9694	1	C2NOS+
91.0542	1	C7H7+
98.9841	1	CH4ClO3+
107.0238	1	C5H3N2O+
132.0808	7	C9H10N+
139.0502	21	C6H7N2O2+
150.0915	2	C9H12NO+
157.0607	1	C6H9N2O3+
164.0261	4	C9H7ClN+
169.9599	2	C7H3ClOS+
178.0054	30	C9H5ClNO+
208.9933	5	C9H6ClN2S+
248.9883	1	C11H6ClN2OS+
249.9962	1	C11H7ClN2OS+
267.9829	26	C11H7ClNO3S+
276.9833	1	C12H6ClN2O2S+
281.0145	1	C12H10ClN2O2S+
293.9866	1	C12H7ClN2O3S+
309.0095	999	C13H10ClN2O3S+
327.0203	8	C13H12ClN2O4S+
