Mass spectrum: 3,3`-Dimethoxybenzidine; LC-ESI-QFT; MS2; CE: 15; R=17500; [M+H]+
Name: 3,3'-Dimethoxybenzidine
Name: 4-(4-amino-3-methoxyphenyl)-2-methoxyaniline
Formula: C14H16N2O2
Exact mass: 244.1212
SMILES: COC1=CC(=CC=C1N)C1=CC(OC)=C(N)C=C1
InChI: InChI=1S/C14H16N2O2/c1-17-13-7-9(3-5-11(13)15)10-4-6-12(16)14(8-10)18-2/h3-8H,15-16H2,1-2H3
Instrument: Q Exactive Orbitrap (Thermo Scientific)
Instrument type: LC-ESI-QFT
Ms type: MS2
Ion mode: POSITIVE
Ionization: ESI
Fragmentation mode: HCD
Collision energy: 15
Resolution: 17500
Column name: Acquity BEH C18 1.7um, 2.1x150mm (Waters)
Retention time: 8.573 min
Base peak: 79.0211
Precursor m/z: 245.1285
Precursor type: [M+H]+
Precursor intensity: 13545952.34375
m/z	relative intensity	assigned
213.1021	11	C13H13N2O+
214.1103	2	C13H14N2O+
228.0894	6	C13H12N2O2+
230.105	67	C13H14N2O2+
245.1278	999	C14H17N2O2+
