Mass spectrum: PharmaGSID_48507; LC-ESI-QFT; MS2; CE: 90; R=17500; [M+H]+
Name: PharmaGSID_48507
Name: 5-(2,4-Difluorophenoxy)-2-[(2-hydroxy-2-methylpropyl)amino]-8-methylpyrido[2,3-d]pyrimidin-7(8H)-one
Formula: C18H18F2N4O3
Exact mass: 376.1347
SMILES: CN1C(=O)C=C(OC2=C(F)C=C(F)C=C2)C2=C1N=C(NCC(C)(C)O)N=C2
InChI: InChI=1S/C18H18F2N4O3/c1-18(2,26)9-22-17-21-8-11-14(7-15(25)24(3)16(11)23-17)27-13-5-4-10(19)6-12(13)20/h4-8,26H,9H2,1-3H3,(H,21,22,23)
Instrument: Q Exactive Orbitrap (Thermo Scientific)
Instrument type: LC-ESI-QFT
Ms type: MS2
Ion mode: POSITIVE
Ionization: ESI
Fragmentation mode: HCD
Collision energy: 90
Resolution: 17500
Column name: Acquity BEH C18 1.7um, 2.1x150mm (Waters)
Retention time: 16.626 min
Base peak: 79.0211
Precursor m/z: 377.142
Precursor type: [M+H]+
Precursor intensity: 23665948.96875
m/z	relative intensity	assigned
53.0022	11	C3HO+
53.0386	22	C4H5+
54.0338	6	C3H4N+
55.0542	193	C4H7+
56.0495	11	C3H6N+
57.0447	11	C2H5N2+
59.0492	2	C3H7O+
66.0337	24	C4H4N+
67.029	3	C3H3N2+
68.0495	7	C4H6N+
70.0651	4	C4H8N+
71.0728	1	C4H9N+
79.029	36	C4H3N2+
80.013	4	C4H2NO+
80.0369	31	C4H4N2+
81.0447	17	C4H5N2+
91.0291	6	C5H3N2+
92.0369	17	C5H4N2+
93.021	2	C5H3NO+
93.0447	19	C5H5N2+
94.0525	6	C5H6N2+
95.0477	17	C4H5N3+
95.0603	9	C5H7N2+
96.037	6	C6H5F+
96.0444	9	C5H6NO+
97.0449	3	C6H6F+
101.0197	10	C5H3F2+
104.0368	7	C6H4N2+
105.0447	40	C6H5N2+
106.04	24	C5H4N3+
106.0526	8	C6H6N2+
107.0239	15	C5H3N2O+
107.0478	16	C5H5N3+
107.0603	7	C6H7N2+
108.0556	39	C5H6N3+
109.0397	10	C5H5N2O+
109.0635	2	C5H7N3+
110.0275	4	C5H3FN2+
111.0353	6	C5H4FN2+
114.0275	8	C6H4F2+
119.0239	5	C6H3N2O+
119.0478	37	C6H5N3+
119.0604	7	C7H7N2+
120.0556	58	C6H6N3+
121.0396	16	C6H5N2O+
121.0506	7	C5H5N4+
121.0635	5	C6H7N3+
122.0348	26	C5H4N3O+
122.0585	9	C5H6N4+
123.0354	11	C6H4FN2+
123.0425	3	C5H5N3O+
123.0665	2	C5H7N4+
124.0432	15	C6H5FN2+
124.0507	2	C5H6N3O+
124.0743	6	C5H8N4+
127.0352	74	C7H5F2+
127.054	5	C5H6FN3+
129.0143	7	C6H3F2O+
130.0399	11	C7H4N3+
131.0302	12	C6H5F2O+
131.0478	25	C7H5N3+
131.0602	6	C8H7N2+
132.043	10	C6H4N4+
132.0556	41	C7H6N3+
133.0511	6	C6H5N4+
133.0636	9	C7H7N3+
133.076	4	C8H9N2+
134.0351	6	C6H4N3O+
134.0474	3	C7H6N2O+
134.0587	25	C6H6N4+
134.0713	7	C7H8N3+
135.0665	127	C6H7N4+
136.0506	299	C6H6N3O+
137.051	66	C7H6FN2+
139.0355	5	C8H5F2+
140.0308	5	C7H4F2N+
141.0147	181	C7H3F2O+
141.0254	53	C6H3F2N2+
145.0507	9	C7H5N4+
145.0634	7	C8H7N3+
145.076	2	C9H9N2+
146.0348	3	C7H4N3O+
146.0587	36	C7H6N4+
146.0712	30	C8H8N3+
147.0665	463	C7H7N4+
148.0505	28	C7H6N3O+
148.0743	26	C7H8N4+
148.0869	4	C8H10N3+
149.0458	42	C6H5N4O+
149.0584	5	C7H7N3O+
150.0536	7	C6H6N4O+
150.0652	2	C7H8N3O+
151.054	28	C7H6FN3+
152.0492	77	C6H5FN4+
153.0331	12	C6H4FN3O+
155.0489	4	C6H6FN3O+
157.0633	5	C9H7N3+
158.0588	4	C8H6N4+
158.0713	9	C9H8N3+
159.0666	72	C8H7N4+
160.0505	4	C8H6N3O+
160.0748	3	C8H8N4+
160.087	35	C9H10N3+
161.0821	7	C8H9N4+
162.0662	9	C8H8N3O+
162.1019	1	C9H12N3+
163.0614	999	C7H7N4O+
164.0692	57	C7H8N4O+
165.0569	6	C7H6FN4+
166.0407	11	C7H5FN3O+
166.0652	13	C12H8N+
167.0298	6	C9H5F2O+
167.0369	1	C11H5NO+
169.0631	6	C10H7N3+
170.0711	9	C10H8N3+
171.0665	101	C9H7N4+
172.043	1	C7H6F2N2O+
172.0742	31	C9H8N4+
172.0865	6	C10H10N3+
173.0822	30	C9H9N4+
174.0898	2	C9H10N4+
175.0613	10	C8H7N4O+
175.0979	5	C9H11N4+
176.0304	9	C10H4F2N+
176.069	15	C8H8N4O+
176.0816	2	C9H10N3O+
177.0571	14	C8H6FN4+
178.0485	42	C7H6N4O2+
178.065	33	C8H7FN4+
180.0441	26	C7H5FN4O+
181.0519	20	C7H6FN4O+
182.0599	4	C7H7FN4O+
184.087	7	C11H10N3+
185.0822	29	C10H9N4+
186.0894	7	C10H10N4+
187.0613	2	C9H7N4O+
187.0978	23	C10H11N4+
188.0692	48	C9H8N4O+
189.0771	4	C9H9N4O+
189.1134	11	C10H13N4+
191.0415	13	C10H5F2N2+
191.0564	5	C8H7N4O2+
192.0256	18	C10H4F2NO+
192.0638	3	C8H8N4O2+
195.0317	1	C12H5NO2+
198.0898	14	C11H10N4+
200.0694	16	C10H8N4O+
200.081	2	C11H10N3O+
201.0773	5	C10H9N4O+
201.0884	1	C11H11N3O+
201.1136	16	C11H13N4+
202.0854	13	C10H10N4O+
203.0929	8	C10H11N4O+
205.0337	1	C11H5F2NO+
205.0574	4	C11H7F2N2+
213.1137	4	C12H13N4+
214.0849	4	C11H10N4O+
215.0926	29	C11H11N4O+
217.0445	5	C11H5F2N3+
219.0364	22	C11H5F2N2O+
229.1084	2	C12H13N4O+
231.0365	7	C12H5F2N2O+
231.0875	2	C11H11N4O2+
232.021	4	C12H4F2NO2+
233.0637	2	C16H8FN+
234.0362	5	C12H6F2NO2+
236.0517	5	C12H8F2NO2+
245.0394	23	C12H5F2N3O+
245.0637	2	C17H8FN+
246.0475	5	C17H7FO+
247.0314	20	C12H5F2N2O2+
248.0635	4	C17H9FO+
252.0462	3	C12H8F2NO3+
255.0676	8	C13H8FN4O+
257.0832	3	C13H10FN4O+
259.079	2	C13H9F2N4+
261.0472	6	C13H7F2N2O2+
270.0546	72	C13H7FN4O2+
271.0626	9	C13H8FN4O2+
272.0501	13	C13H6F2N4O+
273.0346	4	C18H6FO2+
273.0578	19	C13H7F2N4O+
275.0738	69	C13H9F2N4O+
276.0579	4	C13H8F2N3O2+
277.0894	2	C13H11F2N4O+
283.0623	4	C14H8FN4O2+
285.0782	149	C14H10FN4O2+
286.0421	29	C14H6F2N3O2+
287.0738	35	C14H9F2N4O+
288.0451	144	C13H6F2N4O2+
301.0898	12	C15H11F2N4O+
303.0688	169	C14H9F2N4O2+
305.085	2	C14H11F2N4O2+
316.0882	1	C16H12F2N3O2+
329.0841	13	C16H11F2N4O2+
343.1	2	C17H13F2N4O2+
