Mass spectrum: Glipizide; LC-ESI-QFT; MS2; CE: 15; R=17500; [M-H]-
Name: Glipizide
Name: N-[2-[4-(cyclohexylcarbamoylsulfamoyl)phenyl]ethyl]-5-methylpyrazine-2-carboxamide
Formula: C21H27N5O4S
Exact mass: 445.1784
SMILES: CC1=NC=C(N=C1)C(=O)NCCC1=CC=C(C=C1)S(=O)(=O)NC(=O)NC1CCCCC1
InChI: InChI=1S/C21H27N5O4S/c1-15-13-24-19(14-23-15)20(27)22-12-11-16-7-9-18(10-8-16)31(29,30)26-21(28)25-17-5-3-2-4-6-17/h7-10,13-14,17H,2-6,11-12H2,1H3,(H,22,27)(H2,25,26,28)
Instrument: Q Exactive Orbitrap (Thermo Scientific)
Instrument type: LC-ESI-QFT
Ms type: MS2
Ion mode: NEGATIVE
Ionization: ESI
Fragmentation mode: HCD
Collision energy: 15
Resolution: 17500
Column name: Acquity BEH C18 1.7um, 2.1x150mm (Waters)
Retention time: 16.333 min
Base peak: 202.9785
Precursor m/z: 444.1711
Precursor type: [M-H]-
Precursor intensity: 7423435.413086
m/z	relative intensity	assigned
170.0282	4	C7H8NO2S-
196.0076	3	C8H6NO3S-
319.087	330	C14H15N4O3S-
345.0661	5	C15H13N4O4S-
444.171	999	C21H26N5O4S-
