Mass spectrum: PharmaGSID_47263; LC-ESI-QFT; MS2; CE: 90; R=17500; [M-H]-
Name: PharmaGSID_47263
Name: 1-Ethyl-5-(4-hydroxyphenyl)-3-methyl-6,7-dihydropyrazolo(4,3-E)(1,4)diazepin-8(1H)-one
Name: 1-ethyl-5-(4-hydroxyphenyl)-3-methyl-6,7-dihydropyrazolo[4,3-e][1,4]diazepin-8-one
Formula: C15H16N4O2
Exact mass: 284.1273
SMILES: CCN1N=C(C)C2=C1C(=O)NCC(=N2)C1=CC=C(O)C=C1
InChI: InChI=1S/C15H16N4O2/c1-3-19-14-13(9(2)18-19)17-12(8-16-15(14)21)10-4-6-11(20)7-5-10/h4-7,20H,3,8H2,1-2H3,(H,16,21)
Instrument: Q Exactive Orbitrap (Thermo Scientific)
Instrument type: LC-ESI-QFT
Ms type: MS2
Ion mode: NEGATIVE
Ionization: ESI
Fragmentation mode: HCD
Collision energy: 90
Resolution: 17500
Column name: Acquity BEH C18 1.7um, 2.1x150mm (Waters)
Retention time: 15.142 min
Base peak: 253.0505
Precursor m/z: 283.12
Precursor type: [M-H]-
Precursor intensity: 2015744.592285
m/z	relative intensity	assigned
64.0067	61	C3N2-
65.0146	110	C3HN2-
90.0099	46	C4N3-
93.0346	452	C6H5O-
106.0411	183	C5H4N3-
117.0346	85	C8H5O-
118.0299	881	C7H4NO-
120.0204	146	C5H2N3O-
130.0296	26	C8H4NO-
131.0377	510	C8H5NO-
132.0455	353	C8H6NO-
143.0251	714	C8H3N2O-
144.0455	145	C9H6NO-
145.0409	199	C8H5N2O-
147.0564	43	C8H7N2O-
149.0469	23	C6H5N4O-
155.0376	91	C10H5NO-
156.033	272	C9H4N2O-
157.0407	202	C9H5N2O-
157.0524	24	C8H5N4-
159.0323	27	C9H5NO2-
169.041	79	C10H5N2O-
170.0612	110	C11H8NO-
171.0565	55	C10H7N2O-
173.0356	35	C9H5N2O2-
182.0485	158	C11H6N2O-
183.0562	80	C11H7N2O-
184.0511	38	C10H6N3O-
185.0357	24	C10H5N2O2-
186.0427	24	C10H6N2O2-
195.0562	119	C12H7N2O-
196.0642	66	C12H8N2O-
197.072	300	C12H9N2O-
198.0563	36	C12H8NO2-
198.0675	46	C11H8N3O-
198.0796	35	C12H10N2O-
199.0509	36	C11H7N2O2-
199.0755	28	C11H9N3O-
210.044	39	C12H6N2O2-
211.039	34	C11H5N3O2-
212.046	24	C11H6N3O2-
222.0677	36	C13H8N3O-
223.0513	26	C13H7N2O2-
224.0593	423	C13H8N2O2-
225.0671	999	C13H9N2O2-
238.0491	149	C12H6N4O2-
253.0736	194	C13H9N4O2-
