Mass spectrum: Fenuron; LC-ESI-QFT; MS2; CE: 60; R=17500; [M+H]+
Name: Fenuron
Name: 1,1-dimethyl-3-phenylurea
Formula: C9H12N2O
Exact mass: 164.0950
SMILES: CN(C)C(=O)NC1=CC=CC=C1
InChI: InChI=1S/C9H12N2O/c1-11(2)9(12)10-8-6-4-3-5-7-8/h3-7H,1-2H3,(H,10,12)
Instrument: Q Exactive Orbitrap (Thermo Scientific)
Instrument type: LC-ESI-QFT
Ms type: MS2
Ion mode: POSITIVE
Ionization: ESI
Fragmentation mode: HCD
Collision energy: 60
Resolution: 17500
Column name: Acquity BEH C18 1.7um, 2.1x150mm (Waters)
Retention time: 12.646 min
Base peak: 79.0212
Precursor m/z: 165.1022
Precursor type: [M+H]+
Precursor intensity: 16128585.625
m/z	relative intensity	assigned
53.0386	3	C4H5+
56.0131	4	C2H2NO+
72.0443	999	C3H6NO+
77.0385	1	C6H5+
91.0542	1	C7H7+
92.0494	39	C6H6N+
94.0652	3	C6H8N+
95.0491	12	C6H7O+
105.0447	5	C6H5N2+
109.052	2	C6H7NO+
120.0443	37	C7H6NO+
122.06	4	C7H8NO+
165.1023	8	C9H13N2O+
