Mass spectrum: Coumatetralyl; LC-ESI-QFT; MS2; CE: 90; R=17500; [M+H]+
Name: Coumatetralyl
Name: 4-hydroxy-3-(1,2,3,4-tetrahydronaphthalen-1-yl)chromen-2-one
Formula: C19H16O3
Exact mass: 292.1099
SMILES: OC1=C(C2CCCC3=C2C=CC=C3)C(=O)OC2=C1C=CC=C2
InChI: InChI=1S/C19H16O3/c20-18-15-9-3-4-11-16(15)22-19(21)17(18)14-10-5-7-12-6-1-2-8-13(12)14/h1-4,6,8-9,11,14,20H,5,7,10H2
Instrument: Q Exactive Orbitrap (Thermo Scientific)
Instrument type: LC-ESI-QFT
Ms type: MS2
Ion mode: POSITIVE
Ionization: ESI
Fragmentation mode: HCD
Collision energy: 90
Resolution: 17500
Column name: Acquity BEH C18 1.7um, 2.1x150mm (Waters)
Retention time: 18.147 min
Base peak: 79.0211
Precursor m/z: 293.1172
Precursor type: [M+H]+
Precursor intensity: 19469385.4375
m/z	relative intensity	assigned
51.0229	1	C4H3+
53.0022	8	C3HO+
53.0386	83	C4H5+
55.0179	12	C3H3O+
63.0228	3	C5H3+
65.0385	182	C5H5+
67.0542	7	C5H7+
68.9972	3	C3HO2+
69.0335	9	C4H5O+
77.0385	33	C6H5+
79.0542	481	C6H7+
81.0335	9	C5H5O+
81.07	1	C6H9+
89.0387	2	C7H5+
91.0542	999	C7H7+
92.0257	1	C6H4O+
93.0335	28	C6H5O+
93.07	1	C7H9+
94.0414	10	C6H6O+
95.0491	347	C6H7O+
102.0465	3	C8H6+
103.0542	60	C8H7+
105.0699	37	C8H9+
107.0491	304	C7H7O+
109.0649	4	C7H9O+
111.0441	23	C6H7O2+
115.0542	23	C9H7+
116.0621	19	C9H8+
117.0698	4	C9H9+
119.0492	3	C8H7O+
121.0284	288	C7H5O2+
125.0598	2	C7H9O2+
127.0543	2	C10H7+
128.062	30	C10H8+
129.0699	13	C10H9+
131.0491	6	C9H7O+
131.0854	11	C10H11+
138.0311	1	C7H6O3+
139.0389	8	C7H7O3+
141.0701	2	C11H9+
144.0571	1	C10H8O+
145.0649	4	C10H9O+
147.0441	8	C9H7O2+
152.0619	5	C12H8+
159.0441	1	C10H7O2+
163.039	3	C9H7O3+
175.039	61	C10H7O3+
187.0395	2	C11H7O3+
189.0544	2	C11H9O3+
