Mass spectrum: Flutamide; LC-ESI-QFT; MS2; CE: 90; R=17500; [M-H]-
Name: Flutamide
Name: 2-methyl-N-[4-nitro-3-(trifluoromethyl)phenyl]propanamide
Formula: C11H11F3N2O3
Exact mass: 276.0722
SMILES: CC(C)C(=O)NC1=CC(=C(C=C1)[N+]([O-])=O)C(F)(F)F
InChI: InChI=1S/C11H11F3N2O3/c1-6(2)10(17)15-7-3-4-9(16(18)19)8(5-7)11(12,13)14/h3-6H,1-2H3,(H,15,17)
Instrument: Q Exactive Orbitrap (Thermo Scientific)
Instrument type: LC-ESI-QFT
Ms type: MS2
Ion mode: NEGATIVE
Ionization: ESI
Fragmentation mode: HCD
Collision energy: 90
Resolution: 17500
Column name: Acquity BEH C18 1.7um, 2.1x150mm (Waters)
Retention time: 17.509 min
Base peak: 275.0649
Precursor m/z: 275.0649
Precursor type: [M-H]-
Precursor intensity: 162247847.1953
m/z	relative intensity	assigned
50.0036	37	C3N-
62.9888	18	CFO2-
63.0115	7	C4HN-
65.0145	11	C3HN2-
65.9986	291	C3NO-
68.0144	5	C3H2NO-
68.9958	22	CF3-
70.9939	58	C3FO-
74.0036	64	C5N-
76.0193	67	C5H2N-
86.0037	64	C6N-
86.9888	24	C3FO2-
87.0115	109	C6HN-
89.0149	6	C5HN2-
89.9986	43	C5NO-
91.0191	5	C6H3O-
92.0143	6	C5H2NO-
92.9958	80	C3F3-
93.0095	15	C4HN2O-
94.0098	48	C5HFN-
98.0037	94	C7N-
103.0063	7	C6HNO-
106.0099	298	C6HFN-
107.0178	30	C6H2FN-
110.0051	7	C5HFNO-
110.9888	15	C5FO2-
111.0005	9	C4FN2O-
111.0052	11	C6HF2-
113.9985	259	C7NO-
114.0161	42	C5H2F2N-
115.0062	11	C7HNO-
116.0142	40	C7H2NO-
116.996	5	C5F3-
118.0099	187	C7HFN-
123.0126	27	C6H2FNO-
126.0161	385	C6H2F2N-
134.0048	499	C7HFNO-
135.0129	8	C7H2FNO-
136.0205	15	C7H3FNO-
137.9996	6	C6HFNO2-
138.016	59	C7H2F2N-
139	21	C7HF2O-
139.0239	10	C7H3F2N-
140.0317	15	C7H4F2N-
143.0114	211	C7H2F3-
146.0048	17	C8HFNO-
146.0224	23	C6H3F3N-
154.011	369	C7H2F2NO-
155.0188	31	C7H3F2NO-
159.0302	55	C7H4F3N-
160.038	999	C7H5F3N-
161.9997	299	C8HFNO2-
162.0169	15	C6H3F3NO-
165.0105	6	C7H2FN2O2-
166.0111	60	C8H2F2NO-
174.0176	12	C7H3F3NO-
175.0251	121	C7H4F3NO-
176.0093	36	C7H3F3O2-
182.006	810	C8H2F2NO2-
185.0588	6	C10H8F3-
186.0172	333	C8H3F3NO-
202.0122	305	C8H3F3NO2-
205.0233	42	C7H4F3N2O2-
214.012	14	C9H3F3NO2-
229.0357	6	C10H6F3NO2-
230.0064	5	C9H3F3NO3-
244.0102	11	C9H3F3N2O3-
259.0333	11	C10H6F3N2O3-
