Mass spectrum: PharmaGSID_47333; LC-ESI-QFT; MS2; CE: 60; R=17500; [M+H]+
Name: (3S)-3-(2-methylpyrimidin-5-yl)-9-(5,6,7,8-tetrahydro-1,8-naphthyridin-2-yl)nonanoic acid
Name: PharmaGSID_47333
Formula: C22H30N4O2
Exact mass: 382.2369
SMILES: CC1=NC=C(C=N1)[C@@H](CCCCCCC1=NC2=C(CCCN2)C=C1)CC(O)=O
InChI: InChI=1S/C22H30N4O2/c1-16-24-14-19(15-25-16)18(13-21(27)28)7-4-2-3-5-9-20-11-10-17-8-6-12-23-22(17)26-20/h10-11,14-15,18H,2-9,12-13H2,1H3,(H,23,26)(H,27,28)/t18-/m0/s1
Instrument: Q Exactive Orbitrap (Thermo Scientific)
Instrument type: LC-ESI-QFT
Ms type: MS2
Ion mode: POSITIVE
Ionization: ESI
Fragmentation mode: HCD
Collision energy: 60
Resolution: 17500
Column name: Acquity BEH C18 1.7um, 2.1x150mm (Waters)
Retention time: 13.643 min
Base peak: 79.0212
Precursor m/z: 383.2442
Precursor type: [M+H]+
Precursor intensity: 21796707.9375
m/z	relative intensity	assigned
67.0541	1	C5H7+
68.0494	1	C4H6N+
70.0651	1	C4H8N+
79.0542	3	C6H7+
80.0493	5	C5H6N+
81.0699	2	C6H9+
82.0651	3	C5H8N+
91.0541	2	C7H7+
93.0571	1	C6H7N+
93.0699	7	C7H9+
94.065	4	C6H8N+
95.0491	1	C6H7O+
95.0603	1	C5H7N2+
95.0854	2	C7H11+
96.0807	1	C6H10N+
105.0698	3	C8H9+
106.0651	2	C7H8N+
107.0603	7	C6H7N2+
107.073	1	C7H9N+
107.0855	1	C8H11+
108.0442	1	C6H6NO+
108.0682	3	C6H8N2+
108.0806	1	C7H10N+
109.0759	2	C6H9N2+
110.0602	3	C6H8NO+
117.0697	1	C9H9+
119.0605	2	C7H7N2+
119.0854	2	C9H11+
120.0681	4	C7H8N2+
120.0809	3	C8H10N+
121.076	25	C7H9N2+
121.1011	4	C9H13+
122.0838	10	C7H10N2+
123.0551	3	C6H7N2O+
123.0917	3	C7H11N2+
130.065	1	C9H8N+
131.0604	1	C8H7N2+
132.0681	4	C8H8N2+
132.0808	1	C9H10N+
133.076	12	C8H9N2+
133.101	1	C10H13+
134.0838	7	C8H10N2+
134.0962	4	C9H12N+
135.0916	20	C8H11N2+
135.1041	1	C9H13N+
136.0995	1	C8H12N2+
139.0865	1	C7H11N2O+
144.0683	4	C9H8N2+
145.0761	14	C9H9N2+
145.1012	1	C11H13+
146.0839	10	C9H10N2+
146.0963	1	C10H12N+
147.0917	120	C9H11N2+
148.0994	661	C9H12N2+
149.1072	16	C9H13N2+
157.076	8	C10H9N2+
158.084	1	C10H10N2+
158.0964	1	C11H12N+
159.0917	11	C10H11N2+
160.0995	3	C10H12N2+
160.1119	1	C11H14N+
161.1073	999	C10H13N2+
162.115	81	C10H14N2+
163.1227	1	C10H15N2+
165.1019	4	C9H13N2O+
169.0756	1	C11H9N2+
171.0915	6	C11H11N2+
172.0997	6	C11H12N2+
173.1074	28	C11H13N2+
174.1151	12	C11H14N2+
175.1229	183	C11H15N2+
176.1305	1	C11H16N2+
177.1384	2	C11H17N2+
179.118	2	C10H15N2O+
183.0917	1	C12H11N2+
185.1072	6	C12H13N2+
186.1152	2	C12H14N2+
187.123	17	C12H15N2+
188.1307	7	C12H16N2+
189.1387	20	C12H17N2+
194.1051	1	C10H14N2O2+
197.1077	3	C13H13N2+
199.123	7	C13H15N2+
201.1385	7	C13H17N2+
203.1543	20	C13H19N2+
204.162	1	C13H20N2+
209.1073	1	C14H13N2+
211.1231	1	C14H15N2+
213.1389	4	C14H17N2+
215.1542	7	C14H19N2+
217.1698	18	C14H21N2+
223.123	1	C15H15N2+
225.1385	6	C15H17N2+
227.1541	2	C15H19N2+
235.1227	1	C16H15N2+
237.1385	5	C16H17N2+
239.1544	2	C16H19N2+
241.1695	1	C16H21N2+
249.1391	1	C17H17N2+
251.1541	2	C17H19N2+
253.1695	3	C17H21N2+
255.1852	3	C17H23N2+
263.1542	1	C18H19N2+
265.1699	28	C18H21N2+
271.2167	1	C18H27N2+
279.1855	4	C19H23N2+
280.1805	1	C18H22N3+
281.2012	14	C19H25N2+
282.1967	4	C18H24N3+
289.1693	2	C20H21N2+
294.1957	1	C19H24N3+
295.1921	10	C18H23N4+
296.2124	1	C19H26N3+
297.1953	1	C19H25N2O+
306.1965	3	C20H24N3+
307.1807	4	C20H23N2O+
321.2071	1	C20H25N4+
323.223	169	C20H27N4+
324.207	6	C20H26N3O+
325.1912	2	C20H25N2O2+
337.2037	2	C22H27NO2+
337.2387	13	C21H29N4+
339.2546	1	C21H31N4+
342.2167	1	C20H28N3O2+
347.2232	3	C22H27N4+
355.2129	4	C20H27N4O2+
365.2336	62	C22H29N4O+
383.2443	84	C22H31N4O2+
