Mass spectrum: Quinmerac; LC-ESI-QFT; MS2; CE: 75; R=17500; [M+H]+
Name: Quinmerac
Name: 7-chloro-3-methylquinoline-8-carboxylic acid
Formula: C11H8ClNO2
Exact mass: 221.0244
SMILES: CC1=CC2=C(N=C1)C(C(O)=O)=C(Cl)C=C2
InChI: InChI=1S/C11H8ClNO2/c1-6-4-7-2-3-8(12)9(11(14)15)10(7)13-5-6/h2-5H,1H3,(H,14,15)
Instrument: Q Exactive Orbitrap (Thermo Scientific)
Instrument type: LC-ESI-QFT
Ms type: MS2
Ion mode: POSITIVE
Ionization: ESI
Fragmentation mode: HCD
Collision energy: 75
Resolution: 17500
Column name: Acquity BEH C18 1.7um, 2.1x150mm (Waters)
Retention time: 13.186 min
Base peak: 79.0211
Precursor m/z: 222.0316
Precursor type: [M+H]+
Precursor intensity: 8352734.25
m/z	relative intensity	assigned
50.0151	2	C4H2+
51.0229	3	C4H3+
52.0182	3	C3H2N+
53.0386	158	C4H5+
54.0339	4	C3H4N+
55.0179	10	C3H3O+
56.0131	3	C2H2NO+
62.9631	2	CClO+
63.9948	50	CH3ClN+
65.0385	723	C5H5+
66.0464	3	C5H6+
67.0541	6	C5H7+
68.0132	2	C3H2NO+
68.997	1	C3HO2+
73.9791	15	C2HClN+
74.0235	3	C2H4NO2+
74.9871	4	C2H2ClN+
75.9948	35	C2H3ClN+
77.0385	71	C6H5+
79.0542	2	C6H7+
80.0493	2	C5H6N+
81.0335	16	C5H5O+
87.9948	126	C3H3ClN+
89.0386	4	C7H5+
90.0464	7	C7H6+
91.0058	2	C5HNO+
91.0541	1	C7H7+
92.0495	999	C6H6N+
93.0573	106	C6H7N+
94.0414	13	C6H6O+
94.0651	199	C6H8N+
95.0491	507	C6H7O+
101.9741	23	C3HClNO+
102.0465	7	C8H6+
103.0059	4	C6HNO+
103.0543	11	C8H7+
104.0495	667	C7H6N+
106.0649	2	C7H8N+
109.065	4	C7H9O+
110.0601	3	C6H8NO+
111.044	4	C6H7O2+
113.0385	3	C9H5+
114.0339	6	C8H4N+
114.0465	3	C9H6+
115.0542	8	C9H7+
116.0496	5	C8H6N+
116.9975	21	C4H4ClNO+
117.0573	5	C8H7N+
119.0008	6	C6HNO2+
120.0444	8	C7H6NO+
122.9996	6	C7H4Cl+
125.0154	6	C7H6Cl+
130.0651	65	C9H8N+
132.0444	33	C8H6NO+
132.0569	6	C9H8O+
133.0522	4	C8H7NO+
134.0601	2	C8H8NO+
140.0495	309	C10H6N+
141.0573	682	C10H7N+
144.0557	2	C10H8O+
146.0116	219	C6H7ClO2+
149.0153	422	C9H6Cl+
150.0104	41	C8H5ClN+
158.0601	22	C10H8NO+
159.0678	3	C10H9NO+
166.0055	2	C8H5ClNO+
168.0217	2	C8H7ClNO+
175.0185	5	C10H6ClN+
176.0262	224	C10H7ClN+
178.0052	5	C9H5ClNO+
193.0289	58	C10H8ClNO+
194.0367	213	C10H9ClNO+
204.0211	346	C11H7ClNO+
222.0316	132	C11H9ClNO2+
