Mass spectrum: Carminic acid; LC-ESI-QFT; MS2; CE: 60; R=17500; [M-H]-
Name: Carminic acid
Name: 3,5,6,8-tetrahydroxy-1-methyl-9,10-dioxo-7-[(2S,3R,4R,5S,6R)-3,4,5-trihydroxy-6-(hydroxymethyl)oxan-2-yl]anthracene-2-carboxylic acid
Formula: C22H20O13
Exact mass: 492.0904
SMILES: CC1=C2C(=O)C3=C(C(O)=C(O)C([C@@H]4O[C@H](CO)[C@@H](O)[C@H](O)[C@H]4O)=C3O)C(=O)C2=CC(O)=C1C(O)=O
InChI: InChI=1S/C22H20O13/c1-4-8-5(2-6(24)9(4)22(33)34)13(25)10-11(15(8)27)16(28)12(18(30)17(10)29)21-20(32)19(31)14(26)7(3-23)35-21/h2,7,14,19-21,23-24,26,28-32H,3H2,1H3,(H,33,34)/t7-,14-,19+,20-,21+/m1/s1
Instrument: Q Exactive Orbitrap (Thermo Scientific)
Instrument type: LC-ESI-QFT
Ms type: MS2
Ion mode: NEGATIVE
Ionization: ESI
Fragmentation mode: HCD
Collision energy: 60
Resolution: 17500
Column name: Acquity BEH C18 1.7um, 2.1x150mm (Waters)
Retention time: 13.263 min
Base peak: 112.9857
Precursor m/z: 491.0831
Precursor type: [M-H]-
Precursor intensity: 259851.6113281
m/z	relative intensity	assigned
107.05	54	C7H7O-
183.0813	178	C13H11O-
212.0486	68	C13H8O3-
225.056	137	C14H9O3-
226.0633	79	C14H10O3-
227.0711	217	C14H11O3-
241.0508	126	C14H9O4-
242.0585	219	C14H10O4-
253.0509	140	C15H9O4-
254.0584	65	C15H10O4-
255.0305	70	C14H7O5-
255.0666	121	C15H11O4-
269.0452	420	C15H9O5-
270.0534	999	C15H10O5-
271.0614	492	C15H11O5-
281.0461	178	C16H9O5-
282.0533	65	C16H10O5-
283.0608	125	C16H11O5-
284.0317	133	C15H8O6-
285.0403	228	C15H9O6-
297.0405	130	C16H9O6-
298.0485	813	C16H10O6-
299.0564	674	C16H11O6-
309.0393	89	C17H9O6-
311.0565	98	C17H11O6-
