Mass spectrum: Probenecid; LC-ESI-QFT; MS2; CE: 45; R=17500; [M-H]-
Name: Probenecid
Name: 4-(dipropylsulfamoyl)benzoic acid
Formula: C13H19NO4S
Exact mass: 285.1035
SMILES: CCCN(CCC)S(=O)(=O)C1=CC=C(C=C1)C(O)=O
InChI: InChI=1S/C13H19NO4S/c1-3-9-14(10-4-2)19(17,18)12-7-5-11(6-8-12)13(15)16/h5-8H,3-4,9-10H2,1-2H3,(H,15,16)
Instrument: Q Exactive Orbitrap (Thermo Scientific)
Instrument type: LC-ESI-QFT
Ms type: MS2
Ion mode: NEGATIVE
Ionization: ESI
Fragmentation mode: HCD
Collision energy: 45
Resolution: 17500
Column name: Acquity BEH C18 1.7um, 2.1x150mm (Waters)
Retention time: 17.130 min
Base peak: 284.0962
Precursor m/z: 284.0962
Precursor type: [M-H]-
Precursor intensity: 31123720.90039
m/z	relative intensity	assigned
63.0239	1	C5H3-
63.9624	999	O2S-
64.9702	385	HO2S-
66.011	3	C4H2O-
67.0189	2	C4H3O-
79.0189	7	C5H3O-
79.9574	31	O3S-
91.0189	19	C6H3O-
93.0345	5	C6H5O-
95.0139	18	C5H3O2-
107.0139	2	C6H3O2-
108.0216	11	C6H4O2-
110.991	3	C5H3OS-
123.0086	3	C6H3O3-
126.9859	1	C5H3O2S-
139.9937	242	C6H4O2S-
141.0016	76	C6H5O2S-
154.9811	2	C6H3O3S-
155.9887	40	C6H4O3S-
164.075	470	C6H14NO2S-
198.0594	73	C9H12NO2S-
240.1063	47	C12H18NO2S-
284.0966	6	C13H18NO4S-
