Mass spectrum: 2,5-dihydroxybenzenesulfonate; LC-ESI-QFT; MS2; CE: 60; R=17500; [M-H]-
Name: 2,5-dihydroxybenzenesulfonate
Name: 2,5-dihydroxybenzenesulfonic acid
Formula: C6H6O5S
Exact mass: 189.9936
SMILES: OC1=CC=C(O)C(=C1)S(O)(=O)=O
InChI: InChI=1S/C6H6O5S/c7-4-1-2-5(8)6(3-4)12(9,10)11/h1-3,7-8H,(H,9,10,11)
Instrument: Q Exactive Orbitrap (Thermo Scientific)
Instrument type: LC-ESI-QFT
Ms type: MS2
Ion mode: NEGATIVE
Ionization: ESI
Fragmentation mode: HCD
Collision energy: 60
Resolution: 17500
Column name: Acquity BEH C18 1.7um, 2.1x150mm (Waters)
Retention time: 3.325 min
Base peak: 198.9364
Precursor m/z: 188.9863
Precursor type: [M-H]-
Precursor intensity: 2454917.566406
m/z	relative intensity	assigned
69.0346	18	C4H5O-
79.9574	999	O3S-
80.9652	418	HO3S-
83.0139	6	C4H3O2-
85.0295	9	C4H5O2-
95.0139	47	C5H3O2-
97.0295	18	C5H5O2-
108.0217	49	C6H4O2-
109.0295	151	C6H5O2-
123.0088	42	C6H3O3-
125.0245	24	C6H5O3-
188.9863	409	C6H5O5S-
