Mass spectrum: 4-(Dimethylamino)phenylthiocyanate; LC-ESI-QFT; MS2; CE: 45; R=17500; [M+H]+
Name: 4-(Dimethylamino)phenylthiocyanate
Name: Thiocyanic acid, 4-(dimethylamino)phenyl ester
Name: [4-(dimethylamino)phenyl] thiocyanate
Formula: C9H10N2S
Exact mass: 178.0565
SMILES: CN(C)C1=CC=C(SC#N)C=C1
InChI: InChI=1S/C9H10N2S/c1-11(2)8-3-5-9(6-4-8)12-7-10/h3-6H,1-2H3
Instrument: Q Exactive Orbitrap (Thermo Scientific)
Instrument type: LC-ESI-QFT
Ms type: MS2
Ion mode: POSITIVE
Ionization: ESI
Fragmentation mode: HCD
Collision energy: 45
Resolution: 17500
Column name: Acquity BEH C18 1.7um, 2.1x150mm (Waters)
Retention time: 17.205 min
Base peak: 79.0211
Precursor m/z: 179.0637
Precursor type: [M+H]+
Precursor intensity: 7359693.9375
m/z	relative intensity	assigned
103.0415	1	C7H5N+
106.0652	3	C7H8N+
120.0809	1	C8H10N+
121.0887	28	C8H11N+
131.0604	24	C8H7N2+
132.0682	4	C8H8N2+
137.0118	14	C9HN2+
138.0374	1	C7H8NS+
146.006	6	C8H4NS+
147.0137	62	C8H5NS+
149.0168	20	C7H5N2S+
163.0326	15	C8H7N2S+
164.0402	999	C8H8N2S+
179.0638	282	C9H11N2S+
