Mass spectrum: PharmaGSID_47263; LC-ESI-QFT; MS2; CE: 60; R=17500; [M-H]-
Name: PharmaGSID_47263
Name: 1-Ethyl-5-(4-hydroxyphenyl)-3-methyl-6,7-dihydropyrazolo(4,3-E)(1,4)diazepin-8(1H)-one
Name: 1-ethyl-5-(4-hydroxyphenyl)-3-methyl-6,7-dihydropyrazolo[4,3-e][1,4]diazepin-8-one
Formula: C15H16N4O2
Exact mass: 284.1273
SMILES: CCN1N=C(C)C2=C1C(=O)NCC(=N2)C1=CC=C(O)C=C1
InChI: InChI=1S/C15H16N4O2/c1-3-19-14-13(9(2)18-19)17-12(8-16-15(14)21)10-4-6-11(20)7-5-10/h4-7,20H,3,8H2,1-2H3,(H,16,21)
Instrument: Q Exactive Orbitrap (Thermo Scientific)
Instrument type: LC-ESI-QFT
Ms type: MS2
Ion mode: NEGATIVE
Ionization: ESI
Fragmentation mode: HCD
Collision energy: 60
Resolution: 17500
Column name: Acquity BEH C18 1.7um, 2.1x150mm (Waters)
Retention time: 15.142 min
Base peak: 253.0505
Precursor m/z: 283.12
Precursor type: [M-H]-
Precursor intensity: 2863404.864746
m/z	relative intensity	assigned
64.0066	3	C3N2-
93.0346	112	C6H5O-
93.0457	6	C5H5N2-
106.0411	55	C5H4N3-
117.0345	7	C8H5O-
118.0298	54	C7H4NO-
120.0203	79	C5H2N3O-
120.0447	5	C5H4N4-
123.0452	8	C7H7O2-
130.0299	13	C8H4NO-
131.0376	333	C8H5NO-
132.0454	14	C8H6NO-
143.025	11	C8H3N2O-
144.0454	20	C9H6NO-
146.0243	4	C8H4NO2-
149.0467	11	C6H5N4O-
156.0329	9	C9H4N2O-
157.0406	5	C9H5N2O-
157.053	7	C10H7NO-
158.0484	15	C9H6N2O-
159.0325	32	C9H5NO2-
159.0562	7	C9H7N2O-
160.0405	6	C9H6NO2-
162.055	11	C7H6N4O-
169.0408	4	C10H5N2O-
171.0563	9	C10H7N2O-
175.0627	15	C8H7N4O-
177.0778	5	C8H9N4O-
182.048	4	C11H6N2O-
183.0555	5	C11H7N2O-
185.0356	9	C10H5N2O2-
185.0714	4	C11H9N2O-
186.0433	11	C10H6N2O2-
190.0858	7	C9H10N4O-
196.0519	4	C11H6N3O-
197.072	17	C12H9N2O-
198.0572	5	C12H8NO2-
198.0673	13	C11H8N3O-
198.0799	21	C12H10N2O-
199.0749	41	C11H9N3O-
199.086	6	C12H11N2O-
212.0465	7	C11H6N3O2-
212.083	10	C12H10N3O-
223.0754	7	C13H9N3O-
224.059	12	C13H8N2O2-
225.067	361	C13H9N2O2-
228.1138	19	C13H14N3O-
237.078	6	C13H9N4O-
238.0499	12	C12H6N4O2-
253.0731	999	C13H9N4O2-
254.0812	42	C13H10N4O2-
255.0888	65	C13H11N4O2-
267.089	14	C14H11N4O2-
283.1199	37	C15H15N4O2-
