Mass spectrum: alpha-Lipoic acid; LC-ESI-QFT; MS2; CE: 30; R=17500; [M-H]-
Name: alpha-Lipoic acid
Name: Thioctic acid
Name: 5-(dithiolan-3-yl)pentanoic acid
Formula: C8H14O2S2
Exact mass: 206.0435
SMILES: OC(=O)CCCCC1CCSS1
InChI: InChI=1S/C8H14O2S2/c9-8(10)4-2-1-3-7-5-6-11-12-7/h7H,1-6H2,(H,9,10)
Instrument: Q Exactive Orbitrap (Thermo Scientific)
Instrument type: LC-ESI-QFT
Ms type: MS2
Ion mode: NEGATIVE
Ionization: ESI
Fragmentation mode: HCD
Collision energy: 30
Resolution: 17500
Column name: Acquity BEH C18 1.7um, 2.1x150mm (Waters)
Retention time: 16.665 min
Base peak: 179.0714
Precursor m/z: 205.0362
Precursor type: [M-H]-
Precursor intensity: 559302.7275391
m/z	relative intensity	assigned
63.9447	284	S2-
64.9525	999	HS2-
93.071	444	C7H9-
127.0589	542	C7H11S-
171.0485	765	C8H11O2S-
