Mass spectrum: SSR126768; LC-ESI-QFT; MS2; CE: 30; R=17500; [M+H]+
Name: SSR126768
Name: 3-chloro-2-[(3R)-5-chloro-1-[(2,4-dimethoxyphenyl)methyl]-3-methyl-2-oxoindol-3-yl]-N-ethyl-N-(pyridin-3-ylmethyl)benzamide
Formula: C33H31Cl2N3O4
Exact mass: 603.1692
SMILES: CCN(Cc1cccnc1)C(=O)c1cccc(Cl)c1[C@]1(C)C(=O)N(Cc2ccc(OC)cc2OC)c2ccc(Cl)cc21
InChI: InChI=1S/C33H31Cl2N3O4/c1-5-37(19-21-8-7-15-36-18-21)31(39)25-9-6-10-27(35)30(25)33(2)26-16-23(34)12-14-28(26)38(32(33)40)20-22-11-13-24(41-3)17-29(22)42-4/h6-18H,5,19-20H2,1-4H3/t33-/m1/s1
Instrument: Q Exactive Orbitrap (Thermo Scientific)
Instrument type: LC-ESI-QFT
Ms type: MS2
Ion mode: POSITIVE
Ionization: ESI
Fragmentation mode: HCD
Collision energy: 30
Resolution: 17500
Column name: Acquity BEH C18 1.7um, 2.1x150mm (Waters)
Retention time: 18.525 min
Base peak: 79.0211
Precursor m/z: 604.1764
Precursor type: [M+H]+
Precursor intensity: 8165893.75
m/z	relative intensity	assigned
91.0541	3	C7H7+
92.0494	1	C6H6N+
94.0651	17	C6H8N+
121.0647	20	C8H9O+
136.0518	1	C8H8O2+
139.0753	10	C8H11O2+
149.0708	1	C8H9N2O+
151.0752	999	C9H11O2+
266.0366	11	C16H9ClNO+
302.0132	2	C16H10Cl2NO+
320.024	1	C16H12Cl2NO2+
329.0614	1	C18H15Cl2N2+
332.0238	35	C17H12Cl2NO2+
350.0341	6	C20H11ClO4+
364.0502	9	C18H16Cl2NO3+
402.1368	17	C24H21ClN3O+
438.1134	97	C24H22Cl2N3O+
466.1084	207	C25H22Cl2N3O2+
