Mass spectrum: Isoxadifen-ethyl; LC-ESI-QFT; MS2; CE: 90; R=17500; [M+H]+
Name: Isoxadifen-ethyl
Name: ethyl 5,5-diphenyl-4H-1,2-oxazole-3-carboxylate
Formula: C18H17NO3
Exact mass: 295.1208
SMILES: CCOC(=O)C1=NOC(C1)(C1=CC=CC=C1)C1=CC=CC=C1
InChI: InChI=1S/C18H17NO3/c1-2-21-17(20)16-13-18(22-19-16,14-9-5-3-6-10-14)15-11-7-4-8-12-15/h3-12H,2,13H2,1H3
Instrument: Q Exactive Orbitrap (Thermo Scientific)
Instrument type: LC-ESI-QFT
Ms type: MS2
Ion mode: POSITIVE
Ionization: ESI
Fragmentation mode: HCD
Collision energy: 90
Resolution: 17500
Column name: Acquity BEH C18 1.7um, 2.1x150mm (Waters)
Retention time: 18.392 min
Base peak: 79.0212
Precursor m/z: 296.1281
Precursor type: [M+H]+
Precursor intensity: 11219604.3125
m/z	relative intensity	assigned
50.0152	7	C4H2+
53.0386	108	C4H5+
55.0179	7	C3H3O+
65.0386	9	C5H5+
75.0229	42	C6H3+
77.0385	56	C6H5+
79.0544	2	C6H7+
81.0335	11	C5H5O+
89.0386	12	C7H5+
91.0543	24	C7H7+
94.0414	11	C6H6O+
95.0492	339	C6H7O+
101.0385	14	C8H5+
103.0543	13	C8H7+
104.0495	29	C7H6N+
105.0336	188	C7H5O+
109.065	2	C7H9O+
116.0496	8	C8H6N+
117.0573	8	C8H7N+
119.0492	18	C8H7O+
120.0446	2	C7H6NO+
128.0495	47	C9H6N+
130.0287	2	C8H4NO+
130.0401	9	C9H6O+
145.0648	7	C10H9O+
146.0602	18	C9H8NO+
150.0464	12	C12H6+
151.0543	30	C12H7+
152.0622	94	C12H8+
153.07	11	C12H9+
165.07	122	C13H9+
166.0776	6	C13H10+
167.0732	8	C12H9N+
168.0571	9	C12H8O+
169.0649	366	C12H9O+
175.0543	10	C14H7+
176.0622	999	C14H8+
177.0699	160	C14H9+
178.0778	519	C14H10+
179.0604	85	C9H9NO3+
179.0731	6	C13H9N+
179.0855	29	C14H11+
180.0805	3	C13H10N+
181.0651	13	C13H9O+
183.0806	9	C13H11O+
189.07	46	C15H9+
190.0653	14	C14H8N+
190.0777	30	C15H10+
191.0856	63	C15H11+
192.0811	25	C14H10N+
193.0651	33	C14H9O+
193.0888	25	C14H11N+
194.0601	6	C13H8NO+
195.0807	8	C14H11O+
196.0762	3	C13H10NO+
201.0575	49	C15H7N+
202.0653	89	C15H8N+
203.073	975	C15H9N+
204.0809	378	C15H10N+
205.0657	4	C15H9O+
205.0761	9	C11H11NO3+
205.0875	4	C15H11N+
206.0962	4	C15H12N+
207.0804	51	C15H11O+
220.0757	101	C15H10NO+
232.0756	11	C16H10NO+
235.0623	4	C15H9NO2+
