Mass spectrum: Ingliforib; LC-ESI-QFT; MS2; CE: 30; R=17500; [M-H]-
Name: Ingliforib
Name: 5-chloro-N-[(2S,3R)-4-[(3R,4S)-3,4-dihydroxypyrrolidin-1-yl]-3-hydroxy-4-oxo-1-phenylbutan-2-yl]-1H-indole-2-carboxamide
Formula: C23H24ClN3O5
Exact mass: 457.1404
SMILES: O[C@H]([C@H](CC1=CC=CC=C1)NC(=O)C1=CC2=CC(Cl)=CC=C2N1)C(=O)N1C[C@H](O)[C@H](O)C1
InChI: InChI=1S/C23H24ClN3O5/c24-15-6-7-16-14(9-15)10-18(25-16)22(31)26-17(8-13-4-2-1-3-5-13)21(30)23(32)27-11-19(28)20(29)12-27/h1-7,9-10,17,19-21,25,28-30H,8,11-12H2,(H,26,31)/t17-,19-,20+,21+/m0/s1
Instrument: Q Exactive Orbitrap (Thermo Scientific)
Instrument type: LC-ESI-QFT
Ms type: MS2
Ion mode: NEGATIVE
Ionization: ESI
Fragmentation mode: HCD
Collision energy: 30
Resolution: 17500
Column name: Acquity BEH C18 1.7um, 2.1x150mm (Waters)
Retention time: 17.367 min
Base peak: 329.1063
Precursor m/z: 456.1332
Precursor type: [M-H]-
Precursor intensity: 17362829.16992
m/z	relative intensity	assigned
66.0349	9	C4H4N-
71.0138	2	C3H3O2-
73.0295	3	C3H5O2-
100.0404	1	C4H6NO2-
102.0561	6	C4H8NO2-
124.0403	1	C6H6NO2-
130.0509	1	C5H8NO3-
131.0503	3	C9H7O-
133.0657	1	C9H9O-
149.0043	2	C8H4ClN-
150.0116	60	C8H5ClN-
174.0561	3	C10H8NO2-
175.0069	4	C9H4ClN2-
178.0069	1	C9H5ClNO-
190.0875	6	C11H12NO2-
193.0173	999	C9H6ClN2O-
194.0012	12	C9H5ClNO2-
198.0919	3	C13H12NO-
205.0174	7	C10H6ClN2O-
206.001	1	C13H2O3-
208.0169	6	C10H7ClNO2-
218.0818	3	C12H12NO3-
232.0044	1	C11H5ClN2O2-
233.0121	9	C11H6ClN2O2-
234.0201	116	C11H7ClN2O2-
238.0148	1	C13H4NO4-
244.0979	1	C14H14NO3-
262.1084	5	C14H16NO4-
268.0533	6	C16H11ClNO-
281.0849	1	C17H14ClN2-
292.0539	1	C18H11ClNO-
295.0642	48	C17H12ClN2O-
297.08	15	C17H14ClN2O-
307.0643	10	C18H12ClN2O-
325.0749	612	C18H14ClN2O2-
335.0596	7	C19H12ClN2O2-
353.0697	9	C19H14ClN2O3-
438.1214	2	C23H21ClN3O4-
456.1331	58	C23H23ClN3O5-
