Mass spectrum: Colchicine; LC-ESI-QFT; MS2; CE: 90; R=17500; [M+H]+
Name: Colchicine
Name: N-[(7S)-1,2,3,10-tetramethoxy-9-oxo-6,7-dihydro-5H-benzo[a]heptalen-7-yl]acetamide
Formula: C22H25NO6
Exact mass: 399.1682
SMILES: COC1=CC2=C(C(OC)=C1OC)C1=CC=C(OC)C(=O)C=C1[C@H](CC2)NC(C)=O
InChI: InChI=1S/C22H25NO6/c1-12(24)23-16-8-6-13-10-19(27-3)21(28-4)22(29-5)20(13)14-7-9-18(26-2)17(25)11-15(14)16/h7,9-11,16H,6,8H2,1-5H3,(H,23,24)/t16-/m0/s1
Instrument: Q Exactive Orbitrap (Thermo Scientific)
Instrument type: LC-ESI-QFT
Ms type: MS2
Ion mode: POSITIVE
Ionization: ESI
Fragmentation mode: HCD
Collision energy: 90
Resolution: 17500
Column name: Acquity BEH C18 1.7um, 2.1x150mm (Waters)
Retention time: 14.647 min
Base peak: 79.0211
Precursor m/z: 400.1755
Precursor type: [M+H]+
Precursor intensity: 9690852.25
m/z	relative intensity	assigned
53.0386	31	C4H5+
55.0179	71	C3H3O+
56.0494	39	C3H6N+
60.0444	34	C2H6NO+
65.0386	57	C5H5+
67.0542	17	C5H7+
68.0494	8	C4H6N+
68.9971	41	C3HO2+
70.0287	29	C3H4NO+
71.0491	7	C4H7O+
75.0441	12	C3H7O2+
78.0464	48	C6H6+
79.0542	58	C6H7+
80.0494	33	C5H6N+
81.0335	22	C5H5O+
81.0698	12	C6H9+
84.0445	13	C4H6NO+
85.0284	14	C4H5O2+
91.0543	241	C7H7+
93.0335	10	C6H5O+
94.0413	75	C6H6O+
94.0651	23	C6H8N+
95.0492	88	C6H7O+
102.0464	36	C8H6+
103.0542	110	C8H7+
104.0495	58	C7H6N+
104.0621	33	C8H8+
105.0699	51	C8H9+
106.0651	19	C7H8N+
107.0492	53	C7H7O+
108.0443	9	C6H6NO+
109.0522	29	C6H7NO+
109.065	16	C7H9O+
110.0363	28	C6H6O2+
111.0442	22	C6H7O2+
115.0542	173	C9H7+
116.062	32	C9H8+
117.0575	28	C8H7N+
117.07	48	C9H9+
118.0414	31	C8H6O+
118.0649	39	C8H8N+
119.0491	82	C8H7O+
119.0727	7	C8H9N+
120.0443	15	C7H6NO+
120.0809	13	C8H10N+
121.0647	29	C8H9O+
122.0362	88	C7H6O2+
122.0598	15	C7H8NO+
123.0442	58	C7H7O2+
125.0595	13	C7H9O2+
128.0621	129	C10H8+
129.0699	71	C10H9+
130.0415	30	C9H6O+
130.0653	65	C9H8N+
131.0492	116	C9H7O+
131.073	13	C9H9N+
132.0448	19	C8H6NO+
132.0571	32	C9H8O+
132.0807	16	C9H10N+
133.0523	332	C8H7NO+
133.0646	75	C9H9O+
134.0601	26	C8H8NO+
135.0315	61	C7H5NO2+
135.044	30	C8H7O2+
136.0517	16	C8H8O2+
137.0474	32	C7H7NO2+
137.0597	199	C8H9O2+
138.0675	13	C8H10O2+
139.0542	96	C11H7+
140.0622	40	C11H8+
141.0699	257	C11H9+
142.0777	34	C11H10+
143.049	27	C10H7O+
143.0857	19	C11H11+
144.0569	53	C10H8O+
144.0808	18	C10H10N+
145.0523	46	C9H7NO+
145.0648	114	C10H9O+
146.0363	15	C9H6O2+
146.0601	68	C9H8NO+
146.0725	13	C10H10O+
147.0441	69	C9H7O2+
147.0681	18	C9H9NO+
148.052	96	C9H8O2+
148.0757	25	C9H10NO+
149.0474	10	C8H7NO2+
149.0596	48	C9H9O2+
150.0551	123	C8H8NO2+
150.0675	22	C9H10O2+
151.0391	31	C8H7O3+
151.0756	14	C9H11O2+
152.0621	558	C12H8+
153.0699	507	C12H9+
154.0777	70	C12H10+
155.0493	107	C11H7O+
155.0856	86	C12H11+
156.0569	110	C11H8O+
156.0809	12	C11H10N+
157.0648	70	C11H9O+
158.0602	36	C10H8NO+
158.0729	22	C11H10O+
159.0443	31	C10H7O2+
159.068	20	C10H9NO+
159.0804	23	C11H11O+
160.0518	34	C10H8O2+
160.0759	61	C10H10NO+
161.0477	39	C9H7NO2+
161.0597	118	C10H9O2+
162.0317	11	C9H6O3+
162.055	27	C9H8NO2+
162.0674	7	C10H10O2+
163.0541	41	C13H7+
163.0623	7	C9H9NO2+
163.0758	14	C10H11O2+
164.0622	36	C13H8+
164.0709	30	C9H10NO2+
165.07	999	C13H9+
166.0778	310	C13H10+
167.0491	111	C12H7O+
167.0856	295	C13H11+
168.0571	238	C12H8O+
168.0806	68	C12H10N+
168.0933	12	C13H12+
169.0649	456	C12H9O+
170.0598	21	C11H8NO+
170.0727	72	C12H10O+
171.0441	45	C11H7O2+
171.0676	16	C11H9NO+
171.0806	113	C12H11O+
172.0521	36	C11H8O2+
172.0756	22	C11H10NO+
173.0597	49	C11H9O2+
174.0552	17	C10H8NO2+
174.0679	13	C11H10O2+
175.0389	15	C10H7O3+
175.0627	22	C10H9NO2+
175.0757	21	C11H11O2+
176.0621	190	C14H8+
176.0708	53	C10H10NO2+
176.0833	30	C11H12O2+
177.07	305	C14H9+
178.0778	533	C14H10+
179.0715	33	C10H11O3+
179.0856	332	C14H11+
180.057	201	C13H8O+
180.0808	128	C13H10N+
180.0936	17	C14H12+
181.0649	908	C13H9O+
181.0884	50	C10H13O3+
182.0598	31	C12H8NO+
182.0728	252	C13H10O+
182.0968	28	C13H12N+
183.0442	102	C12H7O2+
183.068	48	C12H9NO+
183.0805	198	C13H11O+
184.0521	197	C12H8O2+
184.0758	49	C12H10NO+
184.0883	77	C13H12O+
185.0599	118	C12H9O2+
185.0959	20	C13H13O+
186.0552	20	C11H8NO2+
186.0676	30	C12H10O2+
187.0395	10	C11H7O3+
187.0756	35	C12H11O2+
188.0466	12	C11H8O3+
188.0709	53	C11H10NO2+
189.0554	15	C11H9O3+
189.07	263	C15H9+
189.0795	16	C11H11NO2+
190.0499	23	C10H8NO3+
190.0778	115	C15H10+
191.0494	32	C14H7O+
191.0856	158	C15H11+
192.0571	173	C14H8O+
192.0655	16	C10H10NO3+
192.0806	90	C14H10N+
192.0911	14	C15H12+
193.065	297	C14H9O+
193.0888	64	C14H11N+
193.1014	16	C15H13+
194.0728	405	C14H10O+
194.0961	86	C14H12N+
195.0448	42	C13H7O2+
195.0806	607	C14H11O+
196.0521	107	C13H8O2+
196.0759	186	C13H10NO+
196.0884	262	C14H12O+
197.0599	551	C13H9O2+
197.0836	155	C13H11NO+
197.096	62	C14H13O+
198.0676	231	C13H10O2+
198.0907	38	C13H12NO+
199.0392	43	C12H7O3+
199.0641	20	C12H9NO2+
199.0754	223	C13H11O2+
200.0471	37	C12H8O3+
200.0708	49	C12H10NO2+
200.0817	11	C13H12O2+
201.0547	64	C12H9O3+
201.0909	11	C13H13O2+
202.0779	30	C16H10+
203.0857	20	C16H11+
204.0566	53	C15H8O+
204.0663	19	C11H10NO3+
204.0809	86	C15H10N+
205.065	417	C15H9O+
205.088	50	C12H13O3+
206.0726	214	C15H10O+
206.0966	39	C15H12N+
207.0683	95	C14H9NO+
207.0806	382	C15H11O+
208.052	199	C14H8O2+
208.0759	123	C14H10NO+
208.0884	192	C15H12O+
208.112	13	C15H14N+
209.0598	483	C14H9O2+
209.0838	95	C14H11NO+
209.0963	122	C15H13O+
210.0675	165	C14H10O2+
210.0915	123	C14H12NO+
211.0634	47	C13H9NO2+
211.0753	325	C14H11O2+
211.0992	43	C14H13NO+
212.0469	155	C13H8O3+
212.0709	102	C13H10NO2+
212.0833	184	C14H12O2+
212.1077	22	C14H14NO+
213.0547	130	C13H9O3+
213.0785	41	C13H11NO2+
213.0911	70	C14H13O2+
214.0508	13	C12H8NO3+
214.0626	27	C13H10O3+
214.0864	51	C13H12NO2+
215.0703	62	C13H11O3+
217.0649	25	C16H9O+
218.0723	52	C16H10O+
218.0962	37	C13H14O3+
219.0442	11	C15H7O2+
219.0678	38	C15H9NO+
219.0807	122	C16H11O+
220.052	165	C15H8O2+
220.0759	142	C15H10NO+
220.0884	38	C16H12O+
221.0599	390	C15H9O2+
221.0837	123	C15H11NO+
221.0964	53	C16H13O+
222.0553	21	C14H8NO2+
222.0676	242	C15H10O2+
222.0916	148	C15H12NO+
223.0755	459	C15H11O2+
224.0708	114	C14H10NO2+
224.0834	468	C15H12O2+
224.1057	35	C15H14NO+
225.0547	329	C14H9O3+
225.0785	150	C14H11NO2+
225.0911	99	C15H13O2+
226.0623	132	C14H10O3+
226.0866	88	C14H12NO2+
226.0986	16	C15H14O2+
227.0701	213	C14H11O3+
227.1068	18	C15H15O2+
228.0417	22	C13H8O4+
228.0655	66	C13H10NO3+
228.0785	32	C14H12O3+
228.1022	43	C14H14NO2+
229.0496	48	C13H9O4+
229.0741	21	C13H11NO3+
229.0861	12	C14H13O3+
231.0796	9	C17H11O+
232.0527	16	C16H8O2+
232.076	26	C16H10NO+
233.0601	62	C16H9O2+
233.0842	40	C16H11NO+
233.0958	15	C17H13O+
234.0675	102	C16H10O2+
234.0909	100	C16H12NO+
235.0627	40	C15H9NO2+
235.0753	272	C16H11O2+
235.0989	26	C16H13NO+
236.0472	131	C15H8O3+
236.0707	129	C15H10NO2+
236.0835	93	C16H12O2+
236.1066	56	C16H14NO+
237.0548	314	C15H9O3+
237.0783	92	C15H11NO2+
237.0913	137	C16H13O2+
238.0624	72	C15H10O3+
238.086	145	C15H12NO2+
238.0987	15	C16H14O2+
239.0574	21	C14H9NO3+
239.0702	194	C15H11O3+
239.0939	54	C15H13NO2+
239.1069	95	C16H15O2+
240.0421	27	C14H8O4+
240.0656	60	C14H10NO3+
240.0784	174	C15H12O3+
241.0499	52	C14H9O4+
241.073	29	C14H11NO3+
241.0863	86	C15H13O3+
242.0575	26	C14H10O4+
242.0812	116	C14H12NO3+
243.0654	42	C14H11O4+
243.089	12	C14H13NO3+
244.0739	17	C14H12O4+
246.0916	25	C17H12NO+
247.0631	10	C16H9NO2+
247.076	28	C17H11O2+
247.0989	14	C17H13NO+
248.0471	19	C16H8O3+
248.0705	60	C16H10NO2+
248.0837	19	C17H12O2+
248.1071	22	C17H14NO+
249.055	92	C16H9O3+
249.0786	90	C16H11NO2+
249.0915	35	C17H13O2+
250.063	89	C16H10O3+
250.0861	150	C16H12NO2+
250.1006	12	C17H14O2+
251.0704	297	C16H11O3+
251.1073	21	C17H15O2+
252.0652	69	C15H10NO3+
252.0784	219	C16H12O3+
252.1012	58	C16H14NO2+
253.0497	150	C15H9O4+
253.073	63	C15H11NO3+
253.0864	46	C16H13O3+
253.11	12	C16H15NO2+
254.058	36	C15H10O4+
254.0814	50	C15H12NO3+
254.0944	16	C16H14O3+
254.1191	8	C16H16NO2+
255.0652	64	C15H11O4+
255.0884	16	C15H13NO3+
255.1017	39	C16H15O3+
256.0602	47	C14H10NO4+
256.0735	27	C15H12O4+
256.0969	33	C15H14NO3+
257.0449	16	C14H9O5+
257.0819	9	C15H13O4+
257.1039	14	C15H15NO3+
261.0551	8	C17H9O3+
261.0783	16	C17H11NO2+
262.0869	51	C17H12NO2+
263.0572	8	C16H9NO3+
263.0708	46	C17H11O3+
263.0946	27	C17H13NO2+
264.0421	18	C16H8O4+
264.0643	35	C16H10NO3+
264.0787	32	C17H12O3+
264.1022	61	C17H14NO2+
265.0499	62	C16H9O4+
265.073	34	C16H11NO3+
265.0865	72	C17H13O3+
266.0582	17	C16H10O4+
266.081	120	C16H12NO3+
267.0656	92	C16H11O4+
267.0889	26	C16H13NO3+
267.1025	98	C17H15O3+
268.0734	76	C16H12O4+
268.0962	48	C16H14NO3+
269.0673	18	C15H11NO4+
269.0821	35	C16H13O4+
270.0761	52	C15H12NO4+
271.0606	21	C15H11O5+
271.0842	18	C15H13NO4+
275.0941	9	C18H13NO2+
276.0661	21	C17H10NO3+
276.1031	15	C18H14NO2+
277.0486	10	C17H9O4+
277.0737	23	C17H11NO3+
278.0576	14	C17H10O4+
278.0808	74	C17H12NO3+
279.0654	31	C17H11O4+
279.089	26	C17H13NO3+
280.0598	20	C16H10NO4+
280.097	72	C17H14NO3+
281.0447	14	C16H9O5+
281.0673	19	C16H11NO4+
281.0813	27	C17H13O4+
281.1041	10	C17H15NO3+
282.0761	23	C16H12NO4+
282.0912	10	C20H12NO+
282.1126	14	C17H16NO3+
284.0917	27	C16H14NO4+
290.0823	12	C18H12NO3+
291.0892	11	C18H13NO3+
292.0971	56	C18H14NO3+
293.1053	12	C18H15NO3+
294.0753	41	C17H12NO4+
294.1136	11	C18H16NO3+
295.0612	20	C17H11O5+
296.0936	17	C17H14NO4+
298.0715	10	C16H12NO5+
306.0769	12	C18H12NO4+
308.0922	42	C18H14NO4+
