Mass spectrum: Methylprednisolone; LC-ESI-QFT; MS2; CE: 75; R=17500; [M+H]+
Name: Methylprednisolone
Formula: C22H30O5
Exact mass: 374.2093
SMILES: C[C@H]1C[C@H]2[C@@H]3CC[C@](O)(C(=O)CO)[C@@]3(C)C[C@H](O)[C@@H]2[C@@]2(C)C=CC(=O)C=C12
InChI: InChI=1S/C22H30O5/c1-12-8-14-15-5-7-22(27,18(26)11-23)21(15,3)10-17(25)19(14)20(2)6-4-13(24)9-16(12)20/h4,6,9,12,14-15,17,19,23,25,27H,5,7-8,10-11H2,1-3H3/t12-,14-,15-,17-,19+,20-,21-,22-/m0/s1
Instrument: Q Exactive Orbitrap (Thermo Scientific)
Instrument type: LC-ESI-QFT
Ms type: MS2
Ion mode: POSITIVE
Ionization: ESI
Fragmentation mode: HCD
Collision energy: 75
Resolution: 17500
Column name: Acquity BEH C18 1.7um, 2.1x150mm (Waters)
Retention time: 16.827 min
Base peak: 79.0211
Precursor m/z: 375.2166
Precursor type: [M+H]+
Precursor intensity: 4683353.875
m/z	relative intensity	assigned
53.0387	108	C4H5+
55.0179	122	C3H3O+
55.0543	131	C4H7+
65.0383	53	C5H5+
67.0542	180	C5H7+
79.0543	340	C6H7+
81.0699	157	C6H9+
83.0491	50	C5H7O+
91.0543	947	C7H7+
93.0699	361	C7H9+
95.0493	209	C6H7O+
95.0855	56	C7H11+
103.0543	78	C8H7+
105.0699	999	C8H9+
107.0493	116	C7H7O+
107.0855	342	C8H11+
109.0649	95	C7H9O+
115.0542	466	C9H7+
116.0623	63	C9H8+
117.0698	324	C9H9+
119.0856	244	C9H11+
121.0649	785	C8H9O+
128.0621	172	C10H8+
129.0699	299	C10H9+
130.0779	82	C10H10+
131.0491	71	C9H7O+
131.0858	239	C10H11+
132.0571	56	C9H8O+
133.0648	66	C9H9O+
133.1012	174	C10H13+
135.0806	383	C9H11O+
141.0701	149	C11H9+
142.0777	287	C11H10+
143.0856	103	C11H11+
144.0574	118	C10H8O+
145.0649	358	C10H9O+
145.1012	145	C11H13+
146.0726	300	C10H10O+
147.0805	155	C10H11O+
152.0622	85	C12H8+
153.0702	67	C12H9+
155.0854	108	C12H11+
157.1015	143	C12H13+
158.0728	373	C11H10O+
159.0805	359	C11H11O+
160.0884	59	C11H12O+
161.0962	458	C11H13O+
165.07	171	C13H9+
166.0779	107	C13H10+
167.0858	84	C13H11+
169.0651	61	C12H9O+
170.0724	80	C12H10O+
171.0807	311	C12H11O+
172.0883	197	C12H12O+
173.0961	77	C12H13O+
178.0777	183	C14H10+
179.0857	180	C14H11+
181.0648	179	C13H9O+
181.1013	56	C14H13+
183.0807	102	C13H11O+
185.0962	377	C13H13O+
187.1116	80	C13H15O+
190.0778	54	C15H10+
191.0853	68	C15H11+
192.0932	66	C15H12+
193.1013	217	C15H13+
195.0803	313	C14H11O+
196.0887	244	C14H12O+
197.0961	108	C14H13O+
203.0857	88	C16H11+
205.1009	97	C16H13+
207.0807	98	C15H11O+
208.0885	183	C15H12O+
209.0962	431	C15H13O+
210.1044	146	C15H14O+
211.1121	138	C15H15O+
215.0864	57	C17H11+
217.1014	51	C17H13+
220.088	64	C16H12O+
221.0962	154	C16H13O+
222.1046	107	C16H14O+
223.1117	237	C16H15O+
235.1115	106	C17H15O+
236.1203	92	C17H16O+
