Mass spectrum: Imipramine; LC-ESI-QFT; MS2; CE: 75; R=17500; [M+H]+
Name: Imipramine
Name: 3-(5,6-dihydrobenzo[b][1]benzazepin-11-yl)-N,N-dimethylpropan-1-amine
Formula: C19H24N2
Exact mass: 280.1939
SMILES: CN(C)CCCN1C2=CC=CC=C2CCC2=CC=CC=C12
InChI: InChI=1S/C19H24N2/c1-20(2)14-7-15-21-18-10-5-3-8-16(18)12-13-17-9-4-6-11-19(17)21/h3-6,8-11H,7,12-15H2,1-2H3
Instrument: Q Exactive Orbitrap (Thermo Scientific)
Instrument type: LC-ESI-QFT
Ms type: MS2
Ion mode: POSITIVE
Ionization: ESI
Fragmentation mode: HCD
Collision energy: 75
Resolution: 17500
Column name: Acquity BEH C18 1.7um, 2.1x150mm (Waters)
Retention time: 15.455 min
Base peak: 79.0211
Precursor m/z: 281.2012
Precursor type: [M+H]+
Precursor intensity: 29504552.5
m/z	relative intensity	assigned
56.0495	8	C3H6N+
58.0651	999	C3H8N+
71.0729	11	C4H9N+
79.0541	2	C6H7+
84.0808	1	C5H10N+
86.0964	465	C5H12N+
91.0543	5	C7H7+
103.0544	2	C8H7+
105.0699	15	C8H9+
106.0652	1	C7H8N+
115.0542	1	C9H7+
130.0652	2	C9H8N+
165.0697	1	C13H9+
167.0728	1	C12H9N+
178.0773	1	C14H10+
180.0806	3	C13H10N+
192.0809	3	C14H10N+
193.0886	120	C14H11N+
194.0964	2	C14H12N+
206.0966	3	C15H12N+
207.1043	2	C15H13N+
208.1121	46	C15H14N+
220.1119	5	C16H14N+
