Mass spectrum: Carbutamide; LC-ESI-QFT; MS2; CE: 90; R=17500; [M-H]-
Name: Carbutamide
Name: 1-(4-aminophenyl)sulfonyl-3-butylurea
Formula: C11H17N3O3S
Exact mass: 271.0991
SMILES: CCCCNC(=O)NS(=O)(=O)C1=CC=C(N)C=C1
InChI: InChI=1S/C11H17N3O3S/c1-2-3-8-13-11(15)14-18(16,17)10-6-4-9(12)5-7-10/h4-7H,2-3,8,12H2,1H3,(H2,13,14,15)
Instrument: Q Exactive Orbitrap (Thermo Scientific)
Instrument type: LC-ESI-QFT
Ms type: MS2
Ion mode: NEGATIVE
Ionization: ESI
Fragmentation mode: HCD
Collision energy: 90
Resolution: 17500
Column name: Acquity BEH C18 1.7um, 2.1x150mm (Waters)
Retention time: 13.452 min
Base peak: 207.0121
Precursor m/z: 270.0918
Precursor type: [M-H]-
Precursor intensity: 222336.6513672
m/z	relative intensity	assigned
61.9706	670	NOS-
63.9624	382	O2S-
77.9655	192	NO2S-
78.9733	665	HNO2S-
79.9812	999	H2NO2S-
80.9652	54	HO3S-
93.9604	400	NO3S-
108.0455	33	C6H6NO-
171.0234	192	C6H7N2O2S-
