Mass spectrum: Flumetsulam; LC-ESI-QFT; MS2; CE: 30; R=17500; [M-H]-
Name: Flumetsulam
Name: N-(2,6-difluorophenyl)-5-methyl-[1,2,4]triazolo[1,5-a]pyrimidine-2-sulfonamide
Formula: C12H9F2N5O2S
Exact mass: 325.0445
SMILES: CC1=NC2=NC(=NN2C=C1)S(=O)(=O)NC1=C(F)C=CC=C1F
InChI: InChI=1S/C12H9F2N5O2S/c1-7-5-6-19-11(15-7)16-12(17-19)22(20,21)18-10-8(13)3-2-4-9(10)14/h2-6,18H,1H3
Instrument: Q Exactive Orbitrap (Thermo Scientific)
Instrument type: LC-ESI-QFT
Ms type: MS2
Ion mode: NEGATIVE
Ionization: ESI
Fragmentation mode: HCD
Collision energy: 30
Resolution: 17500
Column name: Acquity BEH C18 1.7um, 2.1x150mm (Waters)
Retention time: 12.564 min
Base peak: 324.0373
Precursor m/z: 324.0372
Precursor type: [M-H]-
Precursor intensity: 6652306.669922
m/z	relative intensity	assigned
65.0145	1	C3HN2-
66.0096	10	C2N3-
91.0302	6	C5H3N2-
92.0255	1	C4H2N3-
133.052	999	C6H5N4-
149.0469	1	C6H5N4O-
153.0269	4	C7H3F2N2-
175.0425	7	C8H4FN4-
220.0627	1	C12H6N5-
240.0691	21	C12H7FN5-
260.0754	40	C12H8F2N5-
324.0372	60	C12H8F2N5O2S-
