Mass spectrum: Dinotefuran; LC-ESI-QFT; MS2; CE: 75; R=17500; [M-H]-
Name: Dinotefuran
Name: Scorpion
Name: 2-methyl-1-nitro-3-(oxolan-3-ylmethyl)guanidine
Formula: C7H14N4O3
Exact mass: 202.1066
SMILES: CNC(NCC1CCOC1)=N[N+]([O-])=O
InChI: InChI=1S/C7H14N4O3/c1-8-7(10-11(12)13)9-4-6-2-3-14-5-6/h6H,2-5H2,1H3,(H2,8,9,10)
Instrument: Q Exactive Orbitrap (Thermo Scientific)
Instrument type: LC-ESI-QFT
Ms type: MS2
Ion mode: NEGATIVE
Ionization: ESI
Fragmentation mode: HCD
Collision energy: 75
Resolution: 17500
Column name: Acquity BEH C18 1.7um, 2.1x150mm (Waters)
Retention time: 9.295 min
Base peak: 201.0993
Precursor m/z: 201.0993
Precursor type: [M-H]-
Precursor intensity: 12451059.42651
m/z	relative intensity	assigned
52.0192	4	C3H2N-
55.0301	95	C2H3N2-
61.0043	999	HN2O2-
66.0349	46	C4H4N-
67.0301	8	C3H3N2-
68.0506	37	C4H6N-
69.0094	4	C2HN2O-
73.0408	4	C2H5N2O-
80.0505	6	C5H6N-
81.0458	4	C4H5N2-
82.03	3	C4H4NO-
92.0505	2	C6H6N-
109.077	3	C6H9N2-
125.0719	6	C6H9N2O-
