Mass spectrum: Metolachlor; LC-ESI-QFT; MS2; CE: 90; R=17500; [M+H]+
Name: Metolachlor
Name: 2-chloro-N-(2-ethyl-6-methylphenyl)-N-(1-methoxypropan-2-yl)acetamide
Formula: C15H22ClNO2
Exact mass: 283.1339
SMILES: CCC1=C(N(C(C)COC)C(=O)CCl)C(C)=CC=C1
InChI: InChI=1S/C15H22ClNO2/c1-5-13-8-6-7-11(2)15(13)17(14(18)9-16)12(3)10-19-4/h6-8,12H,5,9-10H2,1-4H3
Instrument: Q Exactive Orbitrap (Thermo Scientific)
Instrument type: LC-ESI-QFT
Ms type: MS2
Ion mode: POSITIVE
Ionization: ESI
Fragmentation mode: HCD
Collision energy: 90
Resolution: 17500
Column name: Acquity BEH C18 1.7um, 2.1x150mm (Waters)
Retention time: 18.192 min
Base peak: 79.0211
Precursor m/z: 284.1412
Precursor type: [M+H]+
Precursor intensity: 23524028.67188
m/z	relative intensity	assigned
53.0023	48	C3HO+
53.0386	28	C4H5+
53.9975	6	C2NO+
56.0495	18	C3H6N+
58.0651	6	C3H8N+
65.0385	56	C5H5+
67.0541	9	C5H7+
70.0651	5	C4H8N+
73.0647	97	C4H9O+
75.9948	4	C2H3ClN+
76.9788	133	C2H2ClO+
78.0463	24	C6H6+
79.0542	93	C6H7+
81.0699	15	C6H9+
91.0543	999	C7H7+
92.0621	14	C7H8+
93.0574	139	C6H7N+
93.0699	120	C7H9+
95.0492	76	C6H7O+
103.0542	121	C8H7+
104.062	86	C8H8+
105.0699	110	C8H9+
106.0652	84	C7H8N+
106.0779	8	C8H10+
107.0492	24	C7H7O+
107.073	76	C7H9N+
107.0855	41	C8H11+
108.0808	328	C7H10N+
109.0648	117	C7H9O+
115.0543	239	C9H7+
116.0622	40	C9H8+
117.0573	86	C8H7N+
117.0699	341	C9H9+
118.0651	252	C8H8N+
119.073	561	C8H9N+
119.0856	120	C9H11+
120.0808	286	C8H10N+
121.0648	11	C8H9O+
128.0621	12	C10H8+
129.0699	33	C10H9+
130.0652	225	C9H8N+
130.0775	11	C10H10+
131.073	369	C9H9N+
131.085	29	C10H11+
132.0808	586	C9H10N+
133.0886	713	C9H11N+
134.0964	545	C9H12N+
135.0804	5	C9H11O+
135.1045	5	C9H13N+
136.1121	14	C9H14N+
139.031	8	C8H8Cl+
141.07	13	C11H9+
142.0651	7	C10H8N+
142.0775	4	C11H10+
143.073	206	C10H9N+
144.0808	392	C10H10N+
145.0886	264	C10H11N+
146.0599	39	C9H8NO+
146.0965	422	C10H12N+
147.068	33	C9H9NO+
147.1042	35	C10H13N+
148.0757	14	C9H10NO+
148.1122	66	C10H14N+
156.081	13	C11H10N+
157.0888	28	C11H11N+
158.0965	163	C11H12N+
159.1043	93	C11H13N+
160.1121	233	C11H14N+
161.1199	16	C11H15N+
162.0915	32	C10H12NO+
166.0419	18	C9H9ClN+
174.128	11	C12H16N+
176.1434	127	C12H18N+
178.0418	13	C10H9ClN+
184.0524	47	C9H11ClNO+
188.1071	7	C12H14NO+
202.1225	5	C13H16NO+
