Mass spectrum: Biotin; LC-ESI-QFT; MS2; CE: 15; R=17500; [M+H]+
Name: Biotin
Name: 5-[(3aS,4S,6aR)-2-oxo-1,3,3a,4,6,6a-hexahydrothieno[3,4-d]imidazol-4-yl]pentanoic acid
Formula: C10H16N2O3S
Exact mass: 244.0882
SMILES: OC(=O)CCCC[C@@H]1SC[C@@H]2NC(=O)N[C@H]12
InChI: InChI=1S/C10H16N2O3S/c13-8(14)4-2-1-3-7-9-6(5-16-7)11-10(15)12-9/h6-7,9H,1-5H2,(H,13,14)(H2,11,12,15)/t6-,7-,9-/m0/s1
Instrument: Q Exactive Orbitrap (Thermo Scientific)
Instrument type: LC-ESI-QFT
Ms type: MS2
Ion mode: POSITIVE
Ionization: ESI
Fragmentation mode: HCD
Collision energy: 15
Resolution: 17500
Column name: Acquity BEH C18 1.7um, 2.1x150mm (Waters)
Retention time: 11.913 min
Base peak: 79.0212
Precursor m/z: 245.0954
Precursor type: [M+H]+
Precursor intensity: 4640394.40625
m/z	relative intensity	assigned
97.011	1	C5H5S+
97.0401	1	C4H5N2O+
167.053	1	C9H11OS+
199.09	1	C9H15N2OS+
209.0747	2	C10H13N2OS+
227.0849	999	C10H15N2O2S+
245.0956	466	C10H17N2O3S+
