Mass spectrum: Ethyl 3-(N-butylacetamido)propionate; LC-ESI-QFT; MS2; CE: 75; R=17500; [M+H]+
Name: Ethyl 3-(N-butylacetamido)propionate
Name: Ethyl butylacetylaminopropionate
Name: ethyl 3-[acetyl(butyl)amino]propanoate
Formula: C11H21NO3
Exact mass: 215.1521
SMILES: CCCCN(CCC(=O)OCC)C(C)=O
InChI: InChI=1S/C11H21NO3/c1-4-6-8-12(10(3)13)9-7-11(14)15-5-2/h4-9H2,1-3H3
Instrument: Q Exactive Orbitrap (Thermo Scientific)
Instrument type: LC-ESI-QFT
Ms type: MS2
Ion mode: POSITIVE
Ionization: ESI
Fragmentation mode: HCD
Collision energy: 75
Resolution: 17500
Column name: Acquity BEH C18 1.7um, 2.1x150mm (Waters)
Retention time: 15.648 min
Base peak: 79.0212
Precursor m/z: 216.1594
Precursor type: [M+H]+
Precursor intensity: 12935734.8125
m/z	relative intensity	assigned
53.0024	1	C3HO+
55.0179	28	C3H3O+
57.0699	98	C4H9+
60.0444	11	C2H6NO+
61.0284	8	C2H5O2+
72.0444	12	C3H6NO+
73.0284	26	C3H5O2+
74.0963	3	C4H12N+
86.0964	999	C5H12N+
116.1071	12	C6H14NO+
128.107	28	C7H14NO+
142.1229	2	C8H16NO+
