Mass spectrum: Aplaviroc; LC-ESI-QFT; MS2; CE: 30; R=17500; [M+H]+
Name: Aplaviroc
Name: 4-[4-[[(3R)-1-butyl-3-[(R)-cyclohexyl(hydroxy)methyl]-2,5-dioxo-1,4,9-triazaspiro[5.5]undecan-9-yl]methyl]phenoxy]benzoic acid
Formula: C33H43N3O6
Exact mass: 577.3152
SMILES: CCCCN1C(=O)[C@@H]([C@H](O)C2CCCCC2)NC(=O)C12CCN(Cc1ccc(Oc3ccc(C(=O)O)cc3)cc1)CC2
InChI: InChI=1S/C33H43N3O6/c1-2-3-19-36-30(38)28(29(37)24-7-5-4-6-8-24)34-32(41)33(36)17-20-35(21-18-33)22-23-9-13-26(14-10-23)42-27-15-11-25(12-16-27)31(39)40/h9-16,24,28-29,37H,2-8,17-22H2,1H3,(H,34,41)(H,39,40)/t28-,29-/m1/s1
Instrument: Q Exactive Orbitrap (Thermo Scientific)
Instrument type: LC-ESI-QFT
Ms type: MS2
Ion mode: POSITIVE
Ionization: ESI
Fragmentation mode: HCD
Collision energy: 30
Resolution: 17500
Column name: Acquity BEH C18 1.7um, 2.1x150mm (Waters)
Retention time: 16.012 min
Base peak: 79.0212
Precursor m/z: 578.3225
Precursor type: [M+H]+
Precursor intensity: 7021371.5
m/z	relative intensity	assigned
56.0495	1	C3H6N+
65.039	1	C5H5+
110.0602	1	C6H8NO+
155.0855	1	C12H11+
181.0978	1	C9H13N2O2+
183.1132	2	C9H15N2O2+
227.0703	999	C14H11O3+
239.1633	1	C12H21N3O2+
268.0972	1	C16H14NO3+
277.1911	6	C16H25N2O2+
295.2017	15	C16H27N2O3+
466.2341	22	C26H32N3O5+
578.3227	14	C33H44N3O6+
