Mass spectrum: SB236057A; LC-ESI-QFT; MS2; CE: 30; R=17500; [M+H]+
Name: SB236057A
Name: (1'-ethylspiro[6,7-dihydro-2H-furo[2,3-f]indole-3,4'-piperidine]-5-yl)-[4-[2-methyl-4-(5-methyl-1,3,4-oxadiazol-2-yl)phenyl]phenyl]methanone
Formula: C33H34N4O3
Exact mass: 534.2631
SMILES: CCN1CCC2(COC3=C2C=C2N(CCC2=C3)C(=O)C2=CC=C(C=C2)C2=CC=C(C=C2C)C2=NN=C(C)O2)CC1
InChI: InChI=1S/C33H34N4O3/c1-4-36-15-12-33(13-16-36)20-39-30-18-25-11-14-37(29(25)19-28(30)33)32(38)24-7-5-23(6-8-24)27-10-9-26(17-21(27)2)31-35-34-22(3)40-31/h5-10,17-19H,4,11-16,20H2,1-3H3
Instrument: Q Exactive Orbitrap (Thermo Scientific)
Instrument type: LC-ESI-QFT
Ms type: MS2
Ion mode: POSITIVE
Ionization: ESI
Fragmentation mode: HCD
Collision energy: 30
Resolution: 17500
Column name: Acquity BEH C18 1.7um, 2.1x150mm (Waters)
Retention time: 15.538 min
Base peak: 79.0211
Precursor m/z: 535.2704
Precursor type: [M+H]+
Precursor intensity: 15789432.75
m/z	relative intensity	assigned
58.0651	3	C3H8N+
84.0808	38	C5H10N+
86.0964	2	C5H12N+
96.0808	3	C6H10N+
110.0964	6	C7H12N+
122.0963	1	C8H12N+
123.1043	1	C8H13N+
124.112	6	C8H14N+
257.1652	1	C16H21N2O+
258.1722	1	C16H22N2O+
277.0971	30	C17H13N2O2+
412.1646	1	C25H22N3O3+
450.1814	8	C28H24N3O3+
478.2129	2	C30H28N3O3+
478.2497	1	C33H34O3+
494.2428	2	C31H32N3O3+
507.241	1	C31H31N4O3+
533.2556	8	C33H33N4O3+
535.2707	999	C33H35N4O3+
