Mass spectrum: Oxadixyl; LC-ESI-QFT; MS2; CE: 75; R=17500; [M+H]+
Name: Oxadixyl
Name: N-(2,6-dimethylphenyl)-2-methoxy-N-(2-oxo-1,3-oxazolidin-3-yl)acetamide
Formula: C14H18N2O4
Exact mass: 278.1267
SMILES: COCC(=O)N(N1CCOC1=O)C1=C(C)C=CC=C1C
InChI: InChI=1S/C14H18N2O4/c1-10-5-4-6-11(2)13(10)16(12(17)9-19-3)15-7-8-20-14(15)18/h4-6H,7-9H2,1-3H3
Instrument: Q Exactive Orbitrap (Thermo Scientific)
Instrument type: LC-ESI-QFT
Ms type: MS2
Ion mode: POSITIVE
Ionization: ESI
Fragmentation mode: HCD
Collision energy: 75
Resolution: 17500
Column name: Acquity BEH C18 1.7um, 2.1x150mm (Waters)
Retention time: 14.470 min
Base peak: 79.0211
Precursor m/z: 279.1339
Precursor type: [M+H]+
Precursor intensity: 5074357.3125
m/z	relative intensity	assigned
58.0652	73	C3H8N+
79.0542	34	C6H7+
86.0964	23	C5H12N+
91.0544	84	C7H7+
95.049	35	C6H7O+
102.055	26	C4H8NO2+
105.0698	83	C8H9+
117.0573	208	C8H7N+
118.065	148	C8H8N+
119.0856	83	C9H11+
120.0809	96	C8H10N+
132.0809	999	C9H10N+
133.0887	116	C9H11N+
134.0963	21	C9H12N+
149.0238	20	C8H5O3+
