Mass spectrum: Econazole; LC-ESI-QFT; MS2; CE: 90; R=17500; [M+H]+
Name: Econazole
Name: 1-[2-[(4-chlorophenyl)methoxy]-2-(2,4-dichlorophenyl)ethyl]imidazole
Formula: C18H15Cl3N2O
Exact mass: 380.0250
SMILES: ClC1=CC=C(COC(CN2C=CN=C2)C2=C(Cl)C=C(Cl)C=C2)C=C1
InChI: InChI=1S/C18H15Cl3N2O/c19-14-3-1-13(2-4-14)11-24-18(10-23-8-7-22-12-23)16-6-5-15(20)9-17(16)21/h1-9,12,18H,10-11H2
Instrument: Q Exactive Orbitrap (Thermo Scientific)
Instrument type: LC-ESI-QFT
Ms type: MS2
Ion mode: POSITIVE
Ionization: ESI
Fragmentation mode: HCD
Collision energy: 90
Resolution: 17500
Column name: Acquity BEH C18 1.7um, 2.1x150mm (Waters)
Retention time: 16.818 min
Base peak: 79.0211
Precursor m/z: 381.0323
Precursor type: [M+H]+
Precursor intensity: 14797981.625
m/z	relative intensity	assigned
62.0149	2	C5H2+
63.0229	24	C5H3+
65.0385	9	C5H5+
66.0463	11	C5H6+
69.0447	39	C3H5N2+
72.9839	10	C3H2Cl+
74.9995	5	C3H4Cl+
79.0542	2	C6H7+
81.0447	9	C4H5N2+
82.0525	5	C4H6N2+
89.0385	295	C7H5+
90.0464	67	C7H6+
91.0543	1	C7H7+
94.0412	1	C6H6O+
98.9996	139	C5H4Cl+
102.0463	1	C8H6+
125.0152	999	C7H6Cl+
136.007	1	C8H5Cl+
137.015	2	C8H6Cl+
158.9766	1	C7H5Cl2+
178.0776	4	C14H10+
212.0386	1	C14H9Cl+
