Mass spectrum: SR271425; LC-ESI-QFT; MS2; CE: 75; R=17500; [M+H]+
Name: SR271425
Name: Formamide, N-((1-((2-(diethylamino)ethyl)amino)-7-methoxy-9-oxo-9H-thioxanthen-4-yl)methyl)-
Name: N-[[1-[2-(diethylamino)ethylamino]-7-methoxy-9-oxothioxanthen-4-yl]methyl]formamide
Formula: C22H27N3O3S
Exact mass: 413.1773
SMILES: CCN(CC)CCNC1=C2C(=O)C3=C(SC2=C(CNC=O)C=C1)C=CC(OC)=C3
InChI: InChI=1S/C22H27N3O3S/c1-4-25(5-2)11-10-24-18-8-6-15(13-23-14-26)22-20(18)21(27)17-12-16(28-3)7-9-19(17)29-22/h6-9,12,14,24H,4-5,10-11,13H2,1-3H3,(H,23,26)
Instrument: Q Exactive Orbitrap (Thermo Scientific)
Instrument type: LC-ESI-QFT
Ms type: MS2
Ion mode: POSITIVE
Ionization: ESI
Fragmentation mode: HCD
Collision energy: 75
Resolution: 17500
Column name: Acquity BEH C18 1.7um, 2.1x150mm (Waters)
Retention time: 14.230 min
Base peak: 79.0211
Precursor m/z: 414.1846
Precursor type: [M+H]+
Precursor intensity: 16591180.75
m/z	relative intensity	assigned
56.0494	3	C3H6N+
58.0652	1	C3H8N+
70.0651	23	C4H8N+
72.0808	824	C4H10N+
74.0964	2	C4H12N+
85.0886	3	C5H11N+
86.0965	8	C5H12N+
98.0965	5	C6H12N+
100.1121	999	C6H14N+
117.0574	1	C8H7N+
165.0699	1	C13H9+
180.0805	3	C13H10N+
184.0342	6	C12H8S+
191.0728	7	C14H9N+
192.0809	5	C14H10N+
193.0888	1	C14H11N+
197.0419	2	C13H9S+
198.0497	2	C13H10S+
204.0808	1	C15H10N+
207.0677	1	C14H9NO+
208.0345	1	C14H8S+
208.0757	6	C14H10NO+
209.0835	13	C14H11NO+
210.0371	3	C13H8NS+
211.0451	2	C13H9NS+
212.029	2	C13H8OS+
212.0529	3	C13H10NS+
213.061	1	C13H11NS+
219.0683	6	C15H9NO+
220.0759	7	C15H10NO+
223.0451	8	C14H9NS+
224.0529	35	C14H10NS+
225.0607	34	C14H11NS+
226.045	1	C14H10OS+
227.0398	2	C13H9NOS+
227.0525	2	C14H11OS+
235.045	8	C15H9NS+
236.0289	2	C15H8OS+
236.0529	17	C15H10NS+
237.0605	1	C15H11NS+
237.0784	2	C15H11NO2+
238.0323	3	C14H8NOS+
239.0396	2	C14H9NOS+
239.052	1	C15H11OS+
240.0244	1	C14H8O2S+
240.0477	8	C14H10NOS+
241.0554	13	C14H11NOS+
247.1002	1	C17H13NO+
248.0528	3	C16H10NS+
249.0791	1	C16H11NO2+
251.0395	1	C15H9NOS+
251.0641	1	C15H11N2S+
252.0478	55	C15H10NOS+
253.0557	245	C15H11NOS+
254.0634	6	C15H12NOS+
255.0471	1	C15H11O2S+
263.04	2	C16H9NOS+
264.0481	8	C16H10NOS+
264.102	6	C17H14NO2+
266.0637	2	C16H12NOS+
267.0343	1	C15H9NO2S+
268.0425	5	C15H10NO2S+
268.0787	1	C16H14NOS+
269.0499	4	C15H11NO2S+
278.0634	8	C17H12NOS+
279.0717	5	C17H13NOS+
280.0426	9	C16H10NO2S+
280.0665	16	C16H12N2OS+
281.0506	31	C16H11NO2S+
282.058	6	C16H12NO2S+
284.0739	3	C16H14NO2S+
294.0586	2	C17H12NO2S+
296.0741	31	C17H14NO2S+
323.0855	1	C18H15N2O2S+
