Mass spectrum: PharmaGSID_47261; LC-ESI-QFT; MS2; CE: 75; R=17500; [M-H]-
Name: PharmaGSID_47261
Name: (2S,3S)-3-methyl-2-(3-oxo-1,2-benzothiazol-2-yl)pentanoic acid
Formula: C13H15NO3S
Exact mass: 265.0773
SMILES: CC[C@H](C)[C@H](N1SC2=CC=CC=C2C1=O)C(O)=O
InChI: InChI=1S/C13H15NO3S/c1-3-8(2)11(13(16)17)14-12(15)9-6-4-5-7-10(9)18-14/h4-8,11H,3H2,1-2H3,(H,16,17)/t8-,11-/m0/s1
Instrument: Q Exactive Orbitrap (Thermo Scientific)
Instrument type: LC-ESI-QFT
Ms type: MS2
Ion mode: NEGATIVE
Ionization: ESI
Fragmentation mode: HCD
Collision energy: 75
Resolution: 17500
Column name: Acquity BEH C18 1.7um, 2.1x150mm (Waters)
Retention time: 16.614 min
Base peak: 179.0713
Precursor m/z: 264.07
Precursor type: [M-H]-
Precursor intensity: 16011371.74219
m/z	relative intensity	assigned
56.9802	1	C2HS-
57.9757	2	CNS-
63.9624	27	O2S-
80.0506	1	C5H6N-
106.9961	8	C6H3S-
108.004	9	C6H4S-
108.0217	10	C6H4O2-
109.0117	999	C6H5S-
110.991	13	C5H3OS-
123.999	2	C6H4OS-
134.007	12	C7H4NS-
137.0066	18	C7H5OS-
138.9861	3	C6H3O2S-
150.0019	61	C7H4NOS-
152.0175	6	C7H6NOS-
220.0799	11	C12H14NOS-
