Mass spectrum: 5HPP-33; LC-ESI-QFT; MS2; CE: 75; R=17500; [M-H]-
Name: 5HPP-33
Name: 2-(2,6-Diisopropylphenyl)-5-hydroxyisoindoline-1,3-dione
Name: 2-[2,6-di(propan-2-yl)phenyl]-5-hydroxyisoindole-1,3-dione
Formula: C20H21NO3
Exact mass: 323.1521
SMILES: CC(C)C1=CC=CC(C(C)C)=C1N1C(=O)C2=C(C=C(O)C=C2)C1=O
InChI: InChI=1S/C20H21NO3/c1-11(2)14-6-5-7-15(12(3)4)18(14)21-19(23)16-9-8-13(22)10-17(16)20(21)24/h5-12,22H,1-4H3
Instrument: Q Exactive Orbitrap (Thermo Scientific)
Instrument type: LC-ESI-QFT
Ms type: MS2
Ion mode: NEGATIVE
Ionization: ESI
Fragmentation mode: HCD
Collision energy: 75
Resolution: 17500
Column name: Acquity BEH C18 1.7um, 2.1x150mm (Waters)
Retention time: 18.689 min
Base peak: 322.1447
Precursor m/z: 322.1449
Precursor type: [M-H]-
Precursor intensity: 97690398.98633
m/z	relative intensity	assigned
91.019	27	C6H3O-
92.0266	1	C6H4O-
93.0346	14	C6H5O-
95.0138	6	C5H3O2-
105.022	1	C6H3NO-
108.0217	13	C6H4O2-
117.022	1	C7H3NO-
118.0299	11	C7H4NO-
119.0139	1	C7H3O2-
119.0501	2	C8H7O-
121.0294	1	C7H5O2-
122.0009	1	C6H2O3-
123.0087	3	C6H3O3-
132.0218	1	C8H4O2-
133.0169	7	C7H3NO2-
135.0088	1	C7H3O3-
142.0663	2	C10H8N-
144.0819	3	C10H10N-
145.0294	2	C9H5O2-
156.0818	2	C11H10N-
157.0532	1	C10H7NO-
158.061	4	C10H8NO-
158.0975	18	C11H12N-
160.0166	9	C9H4O3-
160.0406	1	C9H6NO2-
161.0118	55	C8H3NO3-
162.0197	2	C8H4NO3-
172.0766	2	C11H10NO-
173.0244	6	C10H5O3-
173.0846	3	C11H11NO-
174.056	2	C10H8NO2-
180.0818	7	C13H10N-
186.0925	3	C12H12NO-
187.1004	1	C12H13NO-
188.1083	2	C12H14NO-
192.082	1	C14H10N-
194.0975	2	C14H12N-
195.0685	2	C13H9NO-
205.0897	11	C15H11N-
206.0608	1	C14H8NO-
206.0973	2	C15H12N-
207.0691	1	C14H9NO-
208.0768	4	C14H10NO-
218.0606	2	C15H8NO-
219.0693	3	C15H9NO-
219.1051	2	C16H13N-
220.0769	11	C15H10NO-
220.0886	1	C16H12O-
220.1132	6	C16H14N-
221.0845	5	C15H11NO-
222.0563	1	C14H8NO2-
222.0924	3	C15H12NO-
223.0638	11	C14H9NO2-
224.0717	2	C14H10NO2-
232.0767	4	C16H10NO-
233.0846	51	C16H11NO-
234.056	5	C15H8NO2-
234.0923	18	C16H12NO-
234.1291	6	C17H16N-
235.064	8	C15H9NO2-
235.0768	1	C16H11O2-
235.1005	9	C16H13NO-
235.1127	1	C17H15O-
235.1358	1	C17H17N-
236.0717	49	C15H10NO2-
236.1082	6	C16H14NO-
239.0951	16	C15H13NO2-
245.0851	1	C17H11NO-
246.0924	38	C17H12NO-
247.0789	3	C17H11O2-
247.1002	34	C17H13NO-
248.1081	152	C17H14NO-
249.0438	3	C15H7NO3-
249.0793	4	C16H11NO2-
249.0924	1	C17H13O2-
250.0875	10	C16H12NO2-
250.1012	1	C17H14O2-
250.1237	4	C17H16NO-
251.095	11	C16H13NO2-
252.103	2	C16H14NO2-
260.1081	22	C18H14NO-
261.1157	7	C18H15NO-
262.1237	171	C18H16NO-
263.095	5	C17H13NO2-
263.1083	1	C18H15O2-
263.1308	2	C18H17NO-
264.0668	6	C16H10NO3-
264.103	26	C17H14NO2-
267.0899	3	C16H13NO3-
272.0726	1	C18H10NO2-
273.0794	1	C18H11NO2-
274.0879	3	C18H12NO2-
276.0671	6	C17H10NO3-
276.1028	1	C18H14NO2-
278.081	1	C17H12NO3-
278.1185	13	C18H16NO2-
279.0892	2	C17H13NO3-
280.0981	3	C17H14NO3-
288.1025	4	C19H14NO2-
290.0824	200	C18H12NO3-
291.09	62	C18H13NO3-
292.0985	2	C18H14NO3-
305.1057	1	C19H15NO3-
306.1136	999	C19H16NO3-
307.1212	2	C19H17NO3-
322.1448	8	C20H20NO3-
