Mass spectrum: 3-Hydroxy-4-butyrophenetidide; LC-ESI-QFT; MS2; CE: 15; R=17500; [M-H]-
Name: 3-Hydroxy-4-butyrophenetidide
Name: Bucetin
Name: N-(4-ethoxyphenyl)-3-hydroxybutanamide
Formula: C12H17NO3
Exact mass: 223.1208
SMILES: CCOC1=CC=C(NC(=O)CC(C)O)C=C1
InChI: InChI=1S/C12H17NO3/c1-3-16-11-6-4-10(5-7-11)13-12(15)8-9(2)14/h4-7,9,14H,3,8H2,1-2H3,(H,13,15)
Instrument: Q Exactive Orbitrap (Thermo Scientific)
Instrument type: LC-ESI-QFT
Ms type: MS2
Ion mode: NEGATIVE
Ionization: ESI
Fragmentation mode: HCD
Collision energy: 15
Resolution: 17500
Column name: Acquity BEH C18 1.7um, 2.1x150mm (Waters)
Retention time: 14.385 min
Base peak: 166.0145
Precursor m/z: 222.1136
Precursor type: [M-H]-
Precursor intensity: 6228967.049316
m/z	relative intensity	assigned
83.0138	39	C4H3O2-
85.0181	28	C3H3NO2-
107.0376	339	C6H5NO-
136.0767	999	C8H10NO-
178.0873	456	C10H12NO2-
180.0666	20	C9H10NO3-
