Mass spectrum: Isoxaben; LC-ESI-QFT; MS2; CE: 75; R=17500; [M-H]-
Name: Isoxaben
Name: 2,6-dimethoxy-N-[3-(3-methylpentan-3-yl)-1,2-oxazol-5-yl]benzamide
Formula: C18H24N2O4
Exact mass: 332.1736
SMILES: CCC(C)(CC)C1=NOC(NC(=O)C2=C(OC)C=CC=C2OC)=C1
InChI: InChI=1S/C18H24N2O4/c1-6-18(3,7-2)14-11-15(24-20-14)19-17(21)16-12(22-4)9-8-10-13(16)23-5/h8-11H,6-7H2,1-5H3,(H,19,21)
Instrument: Q Exactive Orbitrap (Thermo Scientific)
Instrument type: LC-ESI-QFT
Ms type: MS2
Ion mode: NEGATIVE
Ionization: ESI
Fragmentation mode: HCD
Collision energy: 75
Resolution: 17500
Column name: Acquity BEH C18 1.7um, 2.1x150mm (Waters)
Retention time: 17.361 min
Base peak: 341.0253
Precursor m/z: 331.1663
Precursor type: [M-H]-
Precursor intensity: 4926056.006836
m/z	relative intensity	assigned
65.0145	82	C3HN2-
65.9986	999	C3NO-
66.0349	92	C4H4N-
72.9931	102	C2HO3-
91.0189	85	C6H3O-
93.0346	188	C6H5O-
95.0138	126	C5H3O2-
105.0218	66	C6H3NO-
108.0217	350	C6H4O2-
108.0818	71	C7H10N-
117.0222	68	C7H3NO-
117.0348	51	C8H5O-
118.0298	102	C7H4NO-
120.0092	146	C6H2NO2-
121.0295	946	C7H5O2-
123.045	39	C7H7O2-
132.0219	36	C8H4O2-
132.0454	119	C8H6NO-
133.017	499	C7H3NO2-
133.0294	501	C8H5O2-
134.0248	179	C7H4NO2-
134.0378	45	C8H6O2-
135.0087	73	C7H3O3-
146.0248	65	C8H4NO2-
148.0405	241	C8H6NO2-
161.0245	304	C9H5O3-
162.0199	63	C8H4NO3-
166.1108	37	C9H14N2O-
