Mass spectrum: Thiophanate; LC-ESI-QFT; MS2; CE: 90; R=17500; [M+H]+
Name: Thiophanate
Name: N'-ethoxycarbonyl-N-[2-[(N-ethoxycarbonyl-C-sulfanylcarbonimidoyl)amino]phenyl]carbamimidothioic acid
Formula: C14H18N4O4S2
Exact mass: 370.0769
SMILES: CCOC(=O)NC(=S)NC1=C(NC(=S)NC(=O)OCC)C=CC=C1
InChI: InChI=1S/C14H18N4O4S2/c1-3-21-13(19)17-11(23)15-9-7-5-6-8-10(9)16-12(24)18-14(20)22-4-2/h5-8H,3-4H2,1-2H3,(H2,15,17,19,23)(H2,16,18,20,24)
Instrument: Q Exactive Orbitrap (Thermo Scientific)
Instrument type: LC-ESI-QFT
Ms type: MS2
Ion mode: POSITIVE
Ionization: ESI
Fragmentation mode: HCD
Collision energy: 90
Resolution: 17500
Column name: Acquity BEH C18 1.7um, 2.1x150mm (Waters)
Retention time: 16.519 min
Base peak: 79.0212
Precursor m/z: 371.0842
Precursor type: [M+H]+
Precursor intensity: 11784377.8125
m/z	relative intensity	assigned
57.9746	11	CNS+
59.9902	614	CH2NS+
62.0237	171	CH4NO2+
65.0386	183	C5H5+
66.0464	16	C5H6+
74.0964	1	C4H12N+
80.0495	38	C5H6N+
82.0651	4	C5H8N+
85.9695	348	C2NOS+
90.0338	17	C6H4N+
91.0416	17	C6H5N+
92.0495	390	C6H6N+
93.0573	999	C6H7N+
103.9801	56	C2H2NO2S+
105.0448	27	C6H5N2+
106.065	2	C7H8N+
107.0604	57	C6H7N2+
108.068	7	C6H8N2+
109.076	62	C6H9N2+
110.0602	8	C6H8NO+
117.0449	4	C7H5N2+
118.0525	536	C7H6N2+
119.0604	149	C7H7N2+
122.0059	83	C6H4NS+
124.0215	18	C6H6NS+
124.0756	7	C7H10NO+
132.0556	33	C7H6N3+
133.0633	12	C7H7N3+
134.0712	98	C7H8N3+
135.0136	13	C7H5NS+
135.0552	14	C7H7N2O+
149.0169	122	C7H5N2S+
150.0247	25	C7H6N2S+
151.0324	722	C7H7N2S+
160.0505	62	C8H6N3O+
176.0277	3	C8H6N3S+
192.9889	2	C8H5N2S2+
