Mass spectrum: Reserpine; LC-ESI-QFT; MS2; CE: 75; R=17500; [M-H]-
Name: Reserpine
Name: methyl (1R,15S,17R,18R,19S,20S)-6,18-dimethoxy-17-(3,4,5-trimethoxybenzoyl)oxy-1,3,11,12,14,15,16,17,18,19,20,21-dodecahydroyohimban-19-carboxylate
Formula: C33H40N2O9
Exact mass: 608.2734
SMILES: CO[C@H]1[C@@H](C[C@@H]2CN3CCC4=C(NC5=C4C=CC(OC)=C5)[C@H]3C[C@@H]2[C@@H]1C(=O)OC)OC(=O)C1=CC(OC)=C(OC)C(OC)=C1
InChI: InChI=1S/C33H40N2O9/c1-38-19-7-8-20-21-9-10-35-16-18-13-27(44-32(36)17-11-25(39-2)30(41-4)26(12-17)40-3)31(42-5)28(33(37)43-6)22(18)15-24(35)29(21)34-23(20)14-19/h7-8,11-12,14,18,22,24,27-28,31,34H,9-10,13,15-16H2,1-6H3/t18-,22+,24-,27-,28+,31+/m1/s1
Instrument: Q Exactive Orbitrap (Thermo Scientific)
Instrument type: LC-ESI-QFT
Ms type: MS2
Ion mode: NEGATIVE
Ionization: ESI
Fragmentation mode: HCD
Collision energy: 75
Resolution: 17500
Column name: Acquity BEH C18 1.7um, 2.1x150mm (Waters)
Retention time: 15.298 min
Base peak: 112.9857
Precursor m/z: 607.2661
Precursor type: [M-H]-
Precursor intensity: 202576.456543
m/z	relative intensity	assigned
65.0032	170	C4HO-
81.0346	151	C5H5O-
93.0347	64	C6H5O-
95.0138	57	C5H3O2-
97.0297	65	C5H5O2-
109.0294	132	C6H5O2-
110.001	79	C5H2O3-
111.0089	24	C5H3O3-
120.9931	108	C6HO3-
122.0009	90	C6H2O3-
123.0087	143	C6H3O3-
125.0243	153	C6H5O3-
125.9957	207	C5H2O4-
137.0244	999	C7H5O3-
137.9959	185	C6H2O4-
139.0038	29	C6H3O4-
141.0194	141	C6H5O4-
153.0193	167	C7H5O4-
153.0557	179	C8H9O3-
153.9906	137	C6H2O5-
155.0349	304	C7H7O4-
168.043	79	C8H8O4-
169.0142	39	C7H5O5-
198.08	34	C12H10N2O-
235.088	59	C15H11N2O-
236.0957	22	C15H12N2O-
