Mass spectrum: Labetalol; LC-ESI-QFT; MS2; CE: 90; R=17500; [M+H]+
Name: Labetalol
Name: 2-hydroxy-5-[1-hydroxy-2-(4-phenylbutan-2-ylamino)ethyl]benzamide
Formula: C19H24N2O3
Exact mass: 328.1787
SMILES: CC(CCC1=CC=CC=C1)NCC(O)C1=CC=C(O)C(=C1)C(N)=O
InChI: InChI=1S/C19H24N2O3/c1-13(7-8-14-5-3-2-4-6-14)21-12-18(23)15-9-10-17(22)16(11-15)19(20)24/h2-6,9-11,13,18,21-23H,7-8,12H2,1H3,(H2,20,24)
Instrument: Q Exactive Orbitrap (Thermo Scientific)
Instrument type: LC-ESI-QFT
Ms type: MS2
Ion mode: POSITIVE
Ionization: ESI
Fragmentation mode: HCD
Collision energy: 90
Resolution: 17500
Column name: Acquity BEH C18 1.7um, 2.1x150mm (Waters)
Retention time: 13.584 min
Base peak: 79.0211
Precursor m/z: 329.186
Precursor type: [M+H]+
Precursor intensity: 18802117.75
m/z	relative intensity	assigned
53.0022	1	C3HO+
53.0386	6	C4H5+
55.0178	3	C3H3O+
63.0229	4	C5H3+
65.0386	98	C5H5+
67.0542	1	C5H7+
68.9972	1	C3HO2+
77.0385	3	C6H5+
79.0542	145	C6H7+
80.0495	10	C5H6N+
81.0334	2	C5H5O+
89.0386	26	C7H5+
91.0542	999	C7H7+
92.0494	13	C6H6N+
93.0336	2	C6H5O+
94.0652	6	C6H8N+
95.0491	24	C6H7O+
96.0444	4	C5H6NO+
103.0544	1	C8H7+
104.0493	1	C7H6N+
105.0335	2	C7H5O+
105.0448	10	C6H5N2+
105.0699	2	C8H9+
106.0652	133	C7H8N+
107.0491	53	C7H7O+
110.0602	1	C6H8NO+
116.0495	40	C8H6N+
117.0334	4	C8H5O+
117.0573	14	C8H7N+
118.0651	1	C8H8N+
119.0492	10	C8H7O+
120.0444	10	C7H6NO+
132.0445	1	C8H6NO+
133.0523	22	C8H7NO+
134.06	113	C8H8NO+
135.044	22	C8H7O2+
144.0444	14	C9H6NO+
144.0557	1	C10H8O+
145.0286	1	C9H5O2+
147.044	1	C9H7O2+
148.0757	1	C9H10NO+
151.0389	1	C8H7O3+
162.0549	37	C9H8NO2+
163.0392	1	C9H7O3+
165.0547	17	C9H9O3+
180.0657	1	C9H10NO3+
