Mass spectrum: PharmaGSID_48519; LC-ESI-QFT; MS2; CE: 90; R=17500; [M+H]+
Name: PharmaGSID_48519
Name: 3-(2-bromophenyl)-7-[[2-(hydroxymethyl)-2,3-dihydro-1,4-benzodioxin-6-yl]amino]-1-methyl-4H-pyrimido[4,5-d]pyrimidin-2-one
Formula: C22H20BrN5O4
Exact mass: 497.0699
SMILES: CN1C(=O)N(CC2=CN=C(NC3=CC4=C(OC(CO)CO4)C=C3)N=C12)C1=CC=CC=C1Br
InChI: InChI=1S/C22H20BrN5O4/c1-27-20-13(10-28(22(27)30)17-5-3-2-4-16(17)23)9-24-21(26-20)25-14-6-7-18-19(8-14)31-12-15(11-29)32-18/h2-9,15,29H,10-12H2,1H3,(H,24,25,26)
Instrument: Q Exactive Orbitrap (Thermo Scientific)
Instrument type: LC-ESI-QFT
Ms type: MS2
Ion mode: POSITIVE
Ionization: ESI
Fragmentation mode: HCD
Collision energy: 90
Resolution: 17500
Column name: Acquity BEH C18 1.7um, 2.1x150mm (Waters)
Retention time: 16.353 min
Base peak: 79.0211
Precursor m/z: 498.0771
Precursor type: [M+H]+
Precursor intensity: 3272587.75
m/z	relative intensity	assigned
52.0182	16	C3H2N+
53.0022	16	C3HO+
53.0261	5	C3H3N+
53.0386	10	C4H5+
54.0339	281	C3H4N+
55.0178	6	C3H3O+
57.0335	46	C3H5O+
65.0386	24	C5H5+
66.0338	999	C4H4N+
67.0416	26	C4H5N+
68.0495	860	C4H6N+
78.0338	20	C5H4N+
79.0178	26	C5H3O+
79.0541	15	C6H7+
80.0495	39	C5H6N+
81.0335	27	C5H5O+
81.0448	55	C4H5N2+
81.0574	9	C5H7N+
91.0543	36	C7H7+
93.0448	70	C5H5N2+
94.0412	3	C6H6O+
95.0604	521	C5H7N2+
96.0444	56	C5H6NO+
96.0684	4	C5H8N2+
104.0494	21	C7H6N+
105.0447	28	C6H5N2+
106.0651	16	C7H8N+
107.0128	57	C6H3O2+
107.0491	10	C7H7O+
107.0605	15	C6H7N2+
108.0444	12	C6H6NO+
108.0556	46	C5H6N3+
109.0284	5	C6H5O2+
110.0362	41	C6H6O2+
110.0714	5	C5H8N3+
116.0494	15	C8H6N+
117.0571	4	C8H7N+
118.0412	5	C8H6O+
118.0651	8	C8H8N+
119.0606	24	C7H7N2+
120.0556	85	C6H6N3+
121.0285	7	C7H5O2+
121.0396	14	C6H5N2O+
122.06	3	C7H8NO+
124.0393	36	C6H6NO2+
125.0472	8	C6H7NO2+
126.0661	11	C5H8N3O+
131.0605	37	C8H7N2+
132.0444	6	C8H6NO+
132.0558	6	C7H6N3+
132.0681	5	C8H8N2+
133.0397	5	C7H5N2O+
133.0632	4	C7H7N3+
133.0759	12	C8H9N2+
134.0599	13	C8H8NO+
134.071	3	C7H8N3+
135.0314	6	C7H5NO2+
135.044	46	C8H7O2+
135.0555	6	C7H7N2O+
136.0394	9	C7H6NO2+
137.0821	8	C6H9N4+
138.0663	38	C6H8N3O+
142.0526	10	C9H6N2+
143.0602	30	C9H7N2+
144.0443	3	C9H6NO+
144.0555	7	C8H6N3+
145.0761	14	C9H9N2+
146.06	5	C9H8NO+
146.0711	13	C8H8N3+
146.0838	4	C9H10N2+
147.044	4	C9H7O2+
147.0551	9	C8H7N2O+
147.0792	4	C8H9N3+
149.0348	3	C7H5N2O2+
149.082	6	C7H9N4+
150.0423	6	C7H6N2O2+
150.0549	4	C8H8NO2+
151.0502	4	C7H7N2O2+
153.0535	6	C6H7N3O2+
155.0604	22	C10H7N2+
157.0637	20	C9H7N3+
157.0758	4	C10H9N2+
158.0714	87	C9H8N3+
159.0551	7	C9H7N2O+
159.0789	15	C9H9N3+
160.0398	3	C9H6NO2+
160.0869	44	C9H10N3+
161.0343	4	C8H5N2O2+
161.0706	3	C9H9N2O+
161.0821	7	C8H9N4+
162.055	5	C9H8NO2+
166.0622	7	C9H10O3+
169.0636	39	C10H7N3+
169.0761	11	C11H9N2+
170.0713	108	C10H8N3+
171.0557	14	C10H7N2O+
171.0663	18	C9H7N4+
171.0791	18	C10H9N3+
172.0744	29	C9H8N4+
172.0869	11	C10H10N3+
173.0711	8	C10H9N2O+
173.0822	12	C9H9N4+
174.0662	10	C9H8N3O+
175.0503	4	C9H7N2O2+
181.0632	7	C11H7N3+
182.0712	15	C11H8N3+
183.0657	5	C9H11O4+
183.0792	6	C11H9N3+
184.0869	13	C11H10N3+
185.0584	8	C10H7N3O+
185.0821	47	C10H9N4+
185.0955	3	C13H13O+
186.0662	79	C10H8N3O+
186.0898	16	C10H10N4+
187.0979	265	C10H11N4+
188.0817	10	C10H10N3O+
193.0608	11	C9H9N2O3+
195.079	10	C12H9N3+
196.0869	33	C12H10N3+
197.082	5	C11H9N4+
197.0947	3	C12H11N3+
198.0663	28	C11H8N3O+
198.0897	7	C11H10N4+
198.1025	3	C12H12N3+
199.074	6	C11H9N3O+
199.098	17	C11H11N4+
200.0818	8	C11H10N3O+
201.0531	11	C10H7N3O2+
201.0767	3	C10H9N4O+
207.0763	10	C10H11N2O3+
208.086	3	C13H10N3+
211.098	11	C12H11N4+
214.0609	12	C11H8N3O2+
215.0687	6	C11H9N3O2+
215.0928	39	C11H11N4O+
216.0771	17	C11H10N3O2+
219.0765	5	C11H11N2O3+
224.0815	5	C13H10N3O+
226.061	7	C12H8N3O2+
227.0927	10	C12H11N4O+
243.0875	8	C12H11N4O2+
