Mass spectrum: Bisphenol AF; LC-ESI-QFT; MS2; CE: 90; R=17500; [M-H]-
Name: Bisphenol AF
Name: 4-[1,1,1,3,3,3-hexafluoro-2-(4-hydroxyphenyl)propan-2-yl]phenol
Formula: C15H10F6O2
Exact mass: 336.0585
SMILES: OC1=CC=C(C=C1)C(C1=CC=C(O)C=C1)(C(F)(F)F)C(F)(F)F
InChI: InChI=1S/C15H10F6O2/c16-14(17,18)13(15(19,20)21,9-1-5-11(22)6-2-9)10-3-7-12(23)8-4-10/h1-8,22-23H
Instrument: Q Exactive Orbitrap (Thermo Scientific)
Instrument type: LC-ESI-QFT
Ms type: MS2
Ion mode: NEGATIVE
Ionization: ESI
Fragmentation mode: HCD
Collision energy: 90
Resolution: 17500
Column name: Acquity BEH C18 1.7um, 2.1x150mm (Waters)
Retention time: 17.625 min
Base peak: 335.0513
Precursor m/z: 335.0512
Precursor type: [M-H]-
Precursor intensity: 65199471.47266
m/z	relative intensity	assigned
68.9958	999	CF3-
91.0189	14	C6H3O-
108.0216	3	C6H4O2-
108.9907	1	C3F3O-
111.0251	196	C6H4FO-
141.0347	16	C10H5O-
149.0396	334	C12H5-
161.0219	5	C7H4F3O-
167.0502	133	C12H7O-
169.0459	43	C12H6F-
171.0452	2	C11H7O2-
177.0346	364	C13H5O-
178.0425	13	C13H6O-
185.0407	6	C4H7F6O-
187.0565	37	C12H8FO-
195.0451	144	C5H8F5O2-
196.0533	2	C13H8O2-
197.0408	58	C13H6FO-
198.0482	4	C5H8F6O-
201.0358	1	C12H6FO2-
205.0295	23	C14H5O2-
207.0251	14	C14H4FO-
216.0392	99	C13H6F2O-
217.0468	4	C13H7F2O-
221.024	1	C9H5F4O2-
223.0593	6	C12H9F2O2-
224.0279	53	C14H5FO2-
225.0357	36	C14H6FO2-
227.0312	6	C14H5F2O-
244.034	85	C14H6F2O2-
245.0418	20	C14H7F2O2-
265.0478	24	C14H8F3O2-
