Mass spectrum: Pimozide; LC-ESI-QFT; MS2; CE: 45; R=17500; [M-H]-
Name: Pimozide
Name: 3-[1-[4,4-bis(4-fluorophenyl)butyl]piperidin-4-yl]-1H-benzimidazol-2-one
Formula: C28H29F2N3O
Exact mass: 461.2279
SMILES: FC1=CC=C(C=C1)C(CCCN1CCC(CC1)N1C(=O)NC2=C1C=CC=C2)C1=CC=C(F)C=C1
InChI: InChI=1S/C28H29F2N3O/c29-22-11-7-20(8-12-22)25(21-9-13-23(30)14-10-21)4-3-17-32-18-15-24(16-19-32)33-27-6-2-1-5-26(27)31-28(33)34/h1-2,5-14,24-25H,3-4,15-19H2,(H,31,34)
Instrument: Q Exactive Orbitrap (Thermo Scientific)
Instrument type: LC-ESI-QFT
Ms type: MS2
Ion mode: NEGATIVE
Ionization: ESI
Fragmentation mode: HCD
Collision energy: 45
Resolution: 17500
Column name: Acquity BEH C18 1.7um, 2.1x150mm (Waters)
Retention time: 15.869 min
Base peak: 331.0612
Precursor m/z: 460.2206
Precursor type: [M-H]-
Precursor intensity: 253963.8134766
m/z	relative intensity	assigned
132.0328	112	C7H4N2O-
133.0408	999	C7H5N2O-
143.0614	21	C9H7N2-
159.0568	21	C9H7N2O-
285.0563	11	C22H7N-
