Mass spectrum: Biochanin A; LC-ESI-QFT; MS2; CE: 60; R=17500; [M+H]+
Name: Biochanin A
Name: 5,7-dihydroxy-3-(4-methoxyphenyl)chromen-4-one
Formula: C16H12O5
Exact mass: 284.0685
SMILES: COC1=CC=C(C=C1)C1=COC2=C(C(O)=CC(O)=C2)C1=O
InChI: InChI=1S/C16H12O5/c1-20-11-4-2-9(3-5-11)12-8-21-14-7-10(17)6-13(18)15(14)16(12)19/h2-8,17-18H,1H3
Instrument: Q Exactive Orbitrap (Thermo Scientific)
Instrument type: LC-ESI-QFT
Ms type: MS2
Ion mode: POSITIVE
Ionization: ESI
Fragmentation mode: HCD
Collision energy: 60
Resolution: 17500
Column name: Acquity BEH C18 1.7um, 2.1x150mm (Waters)
Retention time: 17.742 min
Base peak: 79.0211
Precursor m/z: 285.0757
Precursor type: [M+H]+
Precursor intensity: 7476472.96875
m/z	relative intensity	assigned
55.0178	8	C3H3O+
65.0385	10	C5H5+
66.0463	5	C5H6+
67.0178	35	C4H3O+
67.0542	3	C5H7+
68.0255	4	C4H4O+
68.997	93	C3HO2+
78.0099	6	C5H2O+
79.0541	45	C6H7+
81.0335	5	C5H5O+
84.0205	6	C4H4O2+
89.0383	3	C7H5+
90.0464	37	C7H6+
91.0541	18	C7H7+
95.0127	30	C5H3O2+
95.0492	26	C6H7O+
96.0205	5	C5H4O2+
97.0284	4	C5H5O2+
103.0542	54	C8H7+
105.0335	6	C7H5O+
105.0699	79	C8H9+
107.0491	56	C7H7O+
108.0573	4	C7H8O+
109.0645	4	C7H9O+
111.0076	51	C5H3O3+
111.044	8	C6H7O2+
115.0542	11	C9H7+
117.0336	8	C8H5O+
117.07	3	C9H9+
118.0413	382	C8H6O+
119.0491	29	C8H7O+
121.0283	71	C7H5O2+
121.0647	28	C8H9O+
123.044	353	C7H7O2+
124.0155	379	C6H4O3+
126.0307	6	C6H6O3+
128.062	5	C10H8+
129.0696	10	C10H9+
130.0414	9	C9H6O+
131.0492	30	C9H7O+
132.0206	17	C8H4O2+
132.057	20	C9H8O+
133.0647	207	C9H9O+
135.0441	24	C8H7O2+
137.0233	6	C7H5O3+
139.039	32	C7H7O3+
140.0619	3	C11H8+
141.0699	39	C11H9+
144.0572	21	C10H8O+
145.0285	13	C9H5O2+
145.0648	50	C10H9O+
146.0726	12	C10H10O+
147.0439	8	C9H7O2+
148.0518	3	C9H8O2+
149.0233	436	C8H5O3+
151.0391	8	C8H7O3+
152.0104	282	C7H4O4+
153.0182	425	C7H5O4+
155.0489	10	C11H7O+
156.0567	4	C11H8O+
157.0646	9	C11H9O+
158.0362	333	C10H6O2+
158.0725	26	C11H10O+
159.0435	13	C10H7O2+
159.0804	17	C11H11O+
160.0519	7	C10H8O2+
161.0595	27	C10H9O2+
161.0958	28	C11H13O+
163.0388	27	C9H7O3+
165.0701	5	C13H9+
167.0339	17	C8H7O4+
168.0569	36	C12H8O+
169.0648	48	C12H9O+
170.0209	881	C7H6O5+
171.0437	10	C11H7O2+
171.0802	6	C12H11O+
172.0518	25	C11H8O2+
173.0597	36	C11H9O2+
173.0958	6	C12H13O+
175.0387	5	C10H7O3+
176.0466	14	C10H8O3+
179.0339	107	C9H7O4+
181.0646	13	C13H9O+
183.0443	27	C12H7O2+
183.0804	31	C13H11O+
184.0366	61	C8H8O5+
184.0507	16	C12H8O2+
185.0597	37	C12H9O2+
186.0308	5	C11H6O3+
186.0675	81	C12H10O2+
187.0752	24	C12H11O2+
192.041	6	C10H8O4+
196.0519	30	C13H8O2+
197.0597	199	C13H9O2+
198.0674	25	C13H10O2+
199.0754	11	C13H11O2+
200.0467	23	C12H8O3+
201.0547	35	C12H9O3+
201.0909	19	C13H13O2+
210.0313	5	C13H6O3+
211.0387	16	C13H7O3+
211.0754	22	C14H11O2+
212.0473	15	C13H8O3+
213.0546	714	C13H9O3+
214.0624	135	C13H10O3+
215.0699	7	C13H11O3+
216.0415	31	C12H8O4+
224.0466	22	C14H8O3+
225.0545	86	C14H9O3+
226.0625	24	C14H10O3+
227.0336	8	C13H7O4+
228.0422	6	C13H8O4+
229.0859	482	C14H13O3+
239.0698	12	C15H11O3+
241.0495	243	C14H9O4+
242.0572	999	C14H10O4+
243.0648	5	C14H11O4+
252.0417	92	C15H8O4+
253.0495	539	C15H9O4+
254.0571	4	C15H10O4+
255.0648	8	C15H11O4+
257.081	14	C15H13O4+
261.0759	4	C14H13O5+
267.0646	8	C16H11O4+
269.0444	711	C15H9O5+
270.0521	675	C15H10O5+
285.0756	596	C16H13O5+
