Mass spectrum: UK-343664; LC-ESI-QFT; MS2; CE: 75; R=17500; [M-H]-
Name: UK-343664
Name: 3-ethyl-5-[5-(4-ethylpiperazin-1-yl)sulfonyl-2-propoxyphenyl]-2-(pyridin-2-ylmethyl)-4H-pyrazolo[4,3-d]pyrimidin-7-one
Formula: C28H35N7O4S
Exact mass: 565.2471
SMILES: CCCOC1=C(C=C(C=C1)S(=O)(=O)N1CCN(CC)CC1)C1=NC2=C(CC)N(CC3=CC=CC=N3)N=C2C(=O)N1
InChI: InChI=1S/C28H35N7O4S/c1-4-17-39-24-11-10-21(40(37,38)34-15-13-33(6-3)14-16-34)18-22(24)27-30-25-23(5-2)35(32-26(25)28(36)31-27)19-20-9-7-8-12-29-20/h7-12,18H,4-6,13-17,19H2,1-3H3,(H,30,31,36)
Instrument: Q Exactive Orbitrap (Thermo Scientific)
Instrument type: LC-ESI-QFT
Ms type: MS2
Ion mode: NEGATIVE
Ionization: ESI
Fragmentation mode: HCD
Collision energy: 75
Resolution: 17500
Column name: Acquity BEH C18 1.7um, 2.1x150mm (Waters)
Retention time: 14.172 min
Base peak: 112.9857
Precursor m/z: 564.2398
Precursor type: [M-H]-
Precursor intensity: 402028.140625
m/z	relative intensity	assigned
63.9624	196	O2S-
65.9986	341	C3NO-
118.0299	655	C7H4NO-
120.0091	236	C6H2NO2-
120.0567	478	C6H6N3-
143.0251	306	C8H3N2O-
197.0719	428	C12H9N2O-
210.0668	392	C4H12N5O3S-
225.0784	859	C12H9N4O-
226.0621	315	C12H8N3O2-
251.0571	244	C13H7N4O2-
253.0728	999	C13H9N4O2-
257.068	350	C12H9N4O3-
