Mass spectrum: SB413217A; LC-ESI-QFT; MS2; CE: 60; R=17500; [M+H]+
Name: SB413217A
Name: (E)-3-(4-fluorophenyl)-N-[4-[2-[7-(5-methyl-1,2,4-oxadiazol-3-yl)-1,2,4,5-tetrahydro-3-benzazepin-3-yl]ethyl]cyclohexyl]prop-2-enamide
Formula: C30H35FN4O2
Exact mass: 502.2744
SMILES: Cc1nc(-c2ccc3c(c2)CCN(CCC2CCC(NC(=O)/C=C/c4ccc(F)cc4)CC2)CC3)no1
InChI: InChI=1S/C30H35FN4O2/c1-21-32-30(34-37-21)26-8-7-24-15-18-35(19-16-25(24)20-26)17-14-23-4-11-28(12-5-23)33-29(36)13-6-22-2-9-27(31)10-3-22/h2-3,6-10,13,20,23,28H,4-5,11-12,14-19H2,1H3,(H,33,36)/b13-6+
Instrument: Q Exactive Orbitrap (Thermo Scientific)
Instrument type: LC-ESI-QFT
Ms type: MS2
Ion mode: POSITIVE
Ionization: ESI
Fragmentation mode: HCD
Collision energy: 60
Resolution: 17500
Column name: Acquity BEH C18 1.7um, 2.1x150mm (Waters)
Retention time: 15.241 min
Base peak: 79.0211
Precursor m/z: 503.2817
Precursor type: [M+H]+
Precursor intensity: 8286214.25
m/z	relative intensity	assigned
53.0023	1	C3HO+
53.0387	2	C4H5+
55.0543	6	C4H7+
56.0495	2	C3H6N+
58.0652	5	C3H8N+
65.0386	9	C5H5+
67.0542	270	C5H7+
79.0542	19	C6H7+
81.0699	82	C6H9+
91.0542	16	C7H7+
95.0492	3	C6H7O+
98.0964	3	C6H12N+
101.0385	5	C8H5+
103.0543	8	C8H7+
105.0448	1	C6H5N2+
105.07	1	C8H9+
107.0855	6	C8H11+
109.1012	46	C8H13+
117.0701	2	C9H9+
118.0649	1	C3H7FN4+
119.0491	12	C8H7O+
121.0448	594	C8H6F+
123.0604	18	C8H8F+
124.0559	4	C7H7FN+
124.1122	5	C8H14N+
126.1276	2	C8H16N+
128.0494	1	C9H6N+
128.062	2	C10H8+
129.0447	49	C8H5N2+
129.0696	3	C5H8FN3+
130.0651	6	C9H8N+
130.0774	4	C5H9FN3+
131.0729	1	C9H9N+
132.0808	4	C9H10N+
138.1279	3	C9H16N+
142.0652	23	C10H8N+
144.0807	19	C10H10N+
145.0648	1	C10H9O+
145.0762	6	C9H9N2+
145.0887	1	C10H11N+
146.0603	2	C9H8NO+
146.0841	1	C9H10N2+
146.0963	2	C5H11FN4+
148.0558	3	C9H7FN+
149.0397	999	C9H6FO+
154.0651	16	C11H8N+
155.0602	2	C10H7N2+
156.0685	5	C10H8N2+
157.076	13	C10H9N2+
158.0842	1	C10H10N2+
158.0965	1	C11H12N+
159.0917	102	C10H11N2+
159.1041	9	C6H12FN4+
160.0757	23	C10H10NO+
161.1071	1	C10H13N2+
166.0663	36	C9H9FNO+
169.0757	4	C11H9N2+
170.0838	1	C11H10N2+
171.0916	95	C11H11N2+
172.0756	18	C11H10NO+
173.1071	2	C11H13N2+
174.0912	1	C6H11FN4O+
183.0917	4	C12H11N2+
184.0861	1	C11H10N3+
185.095	5	C11H11N3+
185.1072	10	C12H13N2+
186.1028	3	C11H12N3+
187.0864	1	C11H11N2O+
188.1182	25	C11H14N3+
189.102	1	C11H13N2O+
198.1028	4	C12H12N3+
200.1182	89	C12H14N3+
201.1022	32	C12H13N2O+
213.1022	7	C13H13N2O+
214.1337	7	C13H16N3+
227.1056	3	C13H13N3O+
228.1125	1	C13H14N3O+
230.1288	26	C13H16N3O+
242.1287	153	C14H16N3O+
256.1443	2	C15H18N3O+
296.2123	8	C19H26N3+
338.2225	9	C21H28N3O+
