Mass spectrum: Imazamox; LC-ESI-QFT; MS2; CE: 90; R=17500; [M-H]-
Name: Imazamox
Name: 5-(methoxymethyl)-2-(4-methyl-5-oxo-4-propan-2-yl-1H-imidazol-2-yl)pyridine-3-carboxylic acid
Formula: C15H19N3O4
Exact mass: 305.1376
SMILES: COCC1=CN=C(C2=NC(C)(C(C)C)C(=O)N2)C(=C1)C(O)=O
InChI: InChI=1S/C15H19N3O4/c1-8(2)15(3)14(21)17-12(18-15)11-10(13(19)20)5-9(6-16-11)7-22-4/h5-6,8H,7H2,1-4H3,(H,19,20)(H,17,18,21)
Instrument: Q Exactive Orbitrap (Thermo Scientific)
Instrument type: LC-ESI-QFT
Ms type: MS2
Ion mode: NEGATIVE
Ionization: ESI
Fragmentation mode: HCD
Collision energy: 90
Resolution: 17500
Column name: Acquity BEH C18 1.7um, 2.1x150mm (Waters)
Retention time: 13.643 min
Base peak: 355.1122
Precursor m/z: 304.1303
Precursor type: [M-H]-
Precursor intensity: 3077430.857422
m/z	relative intensity	assigned
115.0304	13	C7H3N2-
117.0459	999	C7H5N2-
142.041	14	C8H4N3-
156.0569	8	C9H6N3-
184.0521	4	C10H6N3O-
186.0673	550	C10H8N3O-
198.0671	3	C11H8N3O-
199.0754	9	C11H9N3O-
214.0985	6	C12H12N3O-
216.078	5	C11H10N3O2-
