Mass spectrum: Prednisone; LC-ESI-QFT; MS2; CE: 45; R=17500; [M-H]-
Name: Prednisone
Name: (8S,9S,10R,13S,14S,17R)-17-hydroxy-17-(2-hydroxyacetyl)-10,13-dimethyl-6,7,8,9,12,14,15,16-octahydrocyclopenta[a]phenanthrene-3,11-dione
Formula: C21H26O5
Exact mass: 358.1780
SMILES: C[C@]12CC(=O)[C@H]3[C@@H](CCC4=CC(=O)C=C[C@]34C)[C@@H]1CC[C@]2(O)C(=O)CO
InChI: InChI=1S/C21H26O5/c1-19-7-5-13(23)9-12(19)3-4-14-15-6-8-21(26,17(25)11-22)20(15,2)10-16(24)18(14)19/h5,7,9,14-15,18,22,26H,3-4,6,8,10-11H2,1-2H3/t14-,15-,18+,19-,20-,21-/m0/s1
Instrument: Q Exactive Orbitrap (Thermo Scientific)
Instrument type: LC-ESI-QFT
Ms type: MS2
Ion mode: NEGATIVE
Ionization: ESI
Fragmentation mode: HCD
Collision energy: 45
Resolution: 17500
Column name: Acquity BEH C18 1.7um, 2.1x150mm (Waters)
Retention time: 15.404 min
Base peak: 297.1132
Precursor m/z: 357.1707
Precursor type: [M-H]-
Precursor intensity: 1615684.495117
m/z	relative intensity	assigned
57.0346	65	C3H5O-
97.0659	34	C6H9O-
107.0503	90	C7H7O-
109.0657	18	C7H9O-
120.0586	24	C8H8O-
121.066	106	C8H9O-
122.0374	178	C7H6O2-
123.0452	999	C7H7O2-
125.0609	209	C7H9O2-
133.0659	57	C9H9O-
135.0453	63	C8H7O2-
135.0816	144	C9H11O-
136.053	197	C8H8O2-
137.0608	523	C8H9O2-
138.0322	28	C7H6O3-
145.066	149	C10H9O-
149.0608	764	C9H9O2-
151.0401	105	C8H7O3-
151.0765	264	C9H11O2-
159.0814	49	C11H11O-
162.0687	175	C10H10O2-
163.0765	237	C10H11O2-
168.0432	90	C8H8O4-
176.0843	23	C11H12O2-
177.0923	174	C11H13O2-
185.0608	25	C12H9O2-
186.0689	74	C12H10O2-
187.0765	74	C12H11O2-
191.1079	66	C12H15O2-
201.092	73	C13H13O2-
203.1082	39	C13H15O2-
243.1392	36	C16H19O2-
269.1182	97	C17H17O3-
270.1264	183	C17H18O3-
282.1259	67	C18H18O3-
284.1417	173	C18H20O3-
285.1497	621	C18H21O3-
297.1492	15	C19H21O3-
299.1645	27	C19H23O3-
309.1129	39	C19H17O4-
309.1495	98	C20H21O3-
312.1363	29	C19H20O4-
324.1371	202	C20H20O4-
327.16	489	C20H23O4-
342.1459	26	C20H22O5-
