Mass spectrum: Diphenamid; LC-ESI-QFT; MS2; CE: 60; R=17500; [M+H]+
Name: Diphenamid
Name: N,N-dimethyl-2,2-diphenylacetamide
Formula: C16H17NO
Exact mass: 239.1310
SMILES: CN(C)C(=O)C(C1=CC=CC=C1)C1=CC=CC=C1
InChI: InChI=1S/C16H17NO/c1-17(2)16(18)15(13-9-5-3-6-10-13)14-11-7-4-8-12-14/h3-12,15H,1-2H3
Instrument: Q Exactive Orbitrap (Thermo Scientific)
Instrument type: LC-ESI-QFT
Ms type: MS2
Ion mode: POSITIVE
Ionization: ESI
Fragmentation mode: HCD
Collision energy: 60
Resolution: 17500
Column name: Acquity BEH C18 1.7um, 2.1x150mm (Waters)
Retention time: 16.705 min
Base peak: 79.0211
Precursor m/z: 240.1383
Precursor type: [M+H]+
Precursor intensity: 46971492.3125
m/z	relative intensity	assigned
72.0443	40	C3H6NO+
91.0542	18	C7H7+
93.0699	1	C7H9+
118.0648	4	C8H8N+
119.073	3	C8H9N+
132.0811	1	C9H10N+
134.0963	999	C9H12N+
147.0678	1	C9H9NO+
152.062	27	C12H8+
160.0757	2	C10H10NO+
162.0913	3	C10H12NO+
165.0699	31	C13H9+
166.0777	10	C13H10+
167.0854	204	C13H11+
169.0645	1	C12H9O+
240.1379	1	C16H18NO+
