Mass spectrum: Oxypurinol; LC-ESI-QFT; MS2; CE: 15; R=17500; [M-H]-
Name: Oxypurinol
Name: 1,2-dihydropyrazolo[3,4-d]pyrimidine-4,6-dione
Formula: C5H4N4O2
Exact mass: 152.0334
SMILES: O=C1NC2=NNC=C2C(=O)N1
InChI: InChI=1S/C5H4N4O2/c10-4-2-1-6-9-3(2)7-5(11)8-4/h1H,(H3,6,7,8,9,10,11)
Instrument: Q Exactive Orbitrap (Thermo Scientific)
Instrument type: LC-ESI-QFT
Ms type: MS2
Ion mode: NEGATIVE
Ionization: ESI
Fragmentation mode: HCD
Collision energy: 15
Resolution: 17500
Column name: Acquity BEH C18 1.7um, 2.1x150mm (Waters)
Retention time: 3.167 min
Base peak: 151.0261
Precursor m/z: 151.0261
Precursor type: [M-H]-
Precursor intensity: 4972695.039551
m/z	relative intensity	assigned
95.0251	1	C4H3N2O-
107.0366	1	C4H3N4-
108.0204	27	C4H2N3O-
123.0201	1	C5H3N2O2-
151.0261	999	C5H3N4O2-
