Mass spectrum: Flusilazole; LC-ESI-QFT; MS2; CE: 15; R=17500; [M+H]+
Name: Flusilazole
Name: bis(4-fluorophenyl)-methyl-(1,2,4-triazol-1-ylmethyl)silane
Formula: C16H15F2N3Si
Exact mass: 315.1003
SMILES: C[Si](CN1C=NC=N1)(C1=CC=C(F)C=C1)C1=CC=C(F)C=C1
InChI: InChI=1S/C16H15F2N3Si/c1-22(12-21-11-19-10-20-21,15-6-2-13(17)3-7-15)16-8-4-14(18)5-9-16/h2-11H,12H2,1H3
Instrument: Q Exactive Orbitrap (Thermo Scientific)
Instrument type: LC-ESI-QFT
Ms type: MS2
Ion mode: POSITIVE
Ionization: ESI
Fragmentation mode: HCD
Collision energy: 15
Resolution: 17500
Column name: Acquity BEH C18 1.7um, 2.1x150mm (Waters)
Retention time: 18.340 min
Base peak: 79.0211
Precursor m/z: 316.1076
Precursor type: [M+H]+
Precursor intensity: 852460.96875
m/z	relative intensity	assigned
158.0271	10	C9H3FN2+
187.0587	60	C9H9N3Si+
201.0743	10	C10H11N3Si+
316.1076	999	C16H16F2N3Si+
