Mass spectrum: AM580; LC-ESI-QFT; MS2; CE: 30; R=17500; [M-H]-
Name: AM580
Name: 4-{[(5,5,8,8-Tetramethyl-5,6,7,8-tetrahydronaphthalen-2-yl)carbonyl]amino}benzoic acid
Name: 4-[(5,5,8,8-tetramethyl-6,7-dihydronaphthalene-2-carbonyl)amino]benzoic acid
Formula: C22H25NO3
Exact mass: 351.1834
SMILES: CC1(C)CCC(C)(C)C2=C1C=CC(=C2)C(=O)NC1=CC=C(C=C1)C(O)=O
InChI: InChI=1S/C22H25NO3/c1-21(2)11-12-22(3,4)18-13-15(7-10-17(18)21)19(24)23-16-8-5-14(6-9-16)20(25)26/h5-10,13H,11-12H2,1-4H3,(H,23,24)(H,25,26)
Instrument: Q Exactive Orbitrap (Thermo Scientific)
Instrument type: LC-ESI-QFT
Ms type: MS2
Ion mode: NEGATIVE
Ionization: ESI
Fragmentation mode: HCD
Collision energy: 30
Resolution: 17500
Column name: Acquity BEH C18 1.7um, 2.1x150mm (Waters)
Retention time: 19.353 min
Base peak: 350.1762
Precursor m/z: 350.1762
Precursor type: [M-H]-
Precursor intensity: 19699645.81543
m/z	relative intensity	assigned
92.0506	2	C6H6N-
118.0299	1	C7H4NO-
162.0196	1	C8H4NO3-
231.1392	7	C15H19O2-
238.1238	1	C16H16NO-
278.1915	1	C20H24N-
290.1552	3	C20H20NO-
306.1864	379	C21H24NO-
334.1447	1	C21H20NO3-
335.1533	1	C21H21NO3-
350.1762	999	C22H24NO3-
