Mass spectrum: Exifone; LC-ESI-QFT; MS2; CE: 15; R=17500; [M-H]-
Name: Exifone
Name: (2,3,4-trihydroxyphenyl)-(3,4,5-trihydroxyphenyl)methanone
Formula: C13H10O7
Exact mass: 278.0427
SMILES: OC1=CC=C(C(=O)C2=CC(O)=C(O)C(O)=C2)C(O)=C1O
InChI: InChI=1S/C13H10O7/c14-7-2-1-6(11(18)13(7)20)10(17)5-3-8(15)12(19)9(16)4-5/h1-4,14-16,18-20H
Instrument: Q Exactive Orbitrap (Thermo Scientific)
Instrument type: LC-ESI-QFT
Ms type: MS2
Ion mode: NEGATIVE
Ionization: ESI
Fragmentation mode: HCD
Collision energy: 15
Resolution: 17500
Column name: Acquity BEH C18 1.7um, 2.1x150mm (Waters)
Retention time: 11.414 min
Base peak: 169.0441
Precursor m/z: 277.0354
Precursor type: [M-H]-
Precursor intensity: 1225268.581543
m/z	relative intensity	assigned
125.0244	711	C6H5O3-
151.0037	999	C7H3O4-
169.0143	681	C7H5O5-
277.0354	781	C13H9O7-
