Mass spectrum: CP-671305; LC-ESI-QFT; MS2; CE: 15; R=17500; [M+H]+
Name: CP-671305
Name: (2R)-2-[4-[[[2-(1,3-benzodioxol-5-yloxy)pyridine-3-carbonyl]amino]methyl]-3-fluorophenoxy]propanoic acid
Formula: C23H19FN2O7
Exact mass: 454.1176
SMILES: C[C@@H](OC1=CC=C(CNC(=O)C2=CC=CN=C2OC2=CC=C3OCOC3=C2)C(F)=C1)C(O)=O
InChI: InChI=1S/C23H19FN2O7/c1-13(23(28)29)32-15-5-4-14(18(24)9-15)11-26-21(27)17-3-2-8-25-22(17)33-16-6-7-19-20(10-16)31-12-30-19/h2-10,13H,11-12H2,1H3,(H,26,27)(H,28,29)/t13-/m1/s1
Instrument: Q Exactive Orbitrap (Thermo Scientific)
Instrument type: LC-ESI-QFT
Ms type: MS2
Ion mode: POSITIVE
Ionization: ESI
Fragmentation mode: HCD
Collision energy: 15
Resolution: 17500
Column name: Acquity BEH C18 1.7um, 2.1x150mm (Waters)
Retention time: 16.757 min
Base peak: 79.0211
Precursor m/z: 455.1249
Precursor type: [M+H]+
Precursor intensity: 9755818.8125
m/z	relative intensity	assigned
125.0397	30	C7H6FO+
197.0609	945	C10H10FO3+
242.0448	999	C13H8NO4+
259.0714	59	C13H11N2O4+
260.0554	2	C13H10NO5+
271.0713	499	C14H11N2O4+
409.1215	1	C22H18FN2O5+
455.1252	851	C23H20FN2O7+
