Mass spectrum: Parinol; LC-ESI-QFT; MS2; CE: 90; R=17500; [M+H]+
Name: Parinol
Name: bis(4-chlorophenyl)-pyridin-3-ylmethanol
Formula: C18H13Cl2NO
Exact mass: 329.0374
SMILES: OC(C1=CC=C(Cl)C=C1)(C1=CC=C(Cl)C=C1)C1=CC=CN=C1
InChI: InChI=1S/C18H13Cl2NO/c19-16-7-3-13(4-8-16)18(22,15-2-1-11-21-12-15)14-5-9-17(20)10-6-14/h1-12,22H
Instrument: Q Exactive Orbitrap (Thermo Scientific)
Instrument type: LC-ESI-QFT
Ms type: MS2
Ion mode: POSITIVE
Ionization: ESI
Fragmentation mode: HCD
Collision energy: 90
Resolution: 17500
Column name: Acquity BEH C18 1.7um, 2.1x150mm (Waters)
Retention time: 18.413 min
Base peak: 79.0211
Precursor m/z: 330.0447
Precursor type: [M+H]+
Precursor intensity: 19268115.75
m/z	relative intensity	assigned
53.0386	205	C4H5+
55.0178	1	C3H3O+
56.0495	3	C3H6N+
75.0228	10	C6H3+
78.0338	15	C5H4N+
79.0179	1	C5H3O+
79.0416	6	C5H5N+
80.0494	999	C5H6N+
86.9996	18	C4H4Cl+
89.0386	3	C7H5+
90.0464	1	C7H6+
93.0333	2	C6H5O+
94.0412	1	C6H6O+
96.0443	92	C5H6NO+
98.9994	2	C5H4Cl+
110.06	2	C6H8NO+
110.9995	7	C6H4Cl+
111.044	5	C3H10ClNO+
114.9943	1	C5H4ClO+
115.0543	3	C9H7+
116.0619	1	C9H8+
125.0152	14	C7H6Cl+
128.0024	1	C6H5ClO+
128.062	4	C10H8+
129.01	47	C6H6ClO+
138.0105	11	C7H5ClN+
138.9946	170	C7H4ClO+
139.0054	103	C9HNO+
140.0618	2	C11H8+
145.0645	1	C10H9O+
149.0152	18	C9H6Cl+
154.065	12	C11H8N+
155.0608	2	C9H12Cl+
155.0728	3	C11H9N+
156.0805	1	C11H10N+
165.0698	14	C13H9+
166.065	19	C12H8N+
167.0728	8	C12H9N+
173.0152	2	C11H6Cl+
175.0306	1	C11H8Cl+
182.06	9	C12H8NO+
183.0678	7	C12H9NO+
189.0697	71	C15H9+
190.0417	2	C11H9ClN+
191.0854	3	C15H11+
199.0309	4	C13H8Cl+
200.0262	3	C12H7ClN+
201.0338	6	C12H8ClN+
202.0417	1	C12H9ClN+
202.0775	15	C16H10+
203.0855	3	C16H11+
204.0927	1	C16H12+
212.038	2	C14H9Cl+
213.0697	7	C17H9+
214.0774	2	C17H10+
215.0854	49	C17H11+
216.0808	1	C16H10N+
216.0931	4	C17H12+
217.0288	1	C12H8ClNO+
217.0646	8	C16H9O+
217.0886	1	C16H11N+
217.1011	1	C17H13+
218.0365	57	C12H9ClNO+
223.0306	8	C15H8Cl+
230.0963	2	C17H12N+
232.9918	5	C13H7Cl2+
240.0805	17	C18H10N+
241.0884	81	C18H11N+
242.0963	26	C18H12N+
243.104	5	C18H13N+
246.0674	1	C14H13ClNO+
249.0464	7	C17H10Cl+
251.0494	1	C16H10ClN+
252.0331	1	C16H9ClO+
259.0076	2	C15H9Cl2+
264.0573	1	C17H11ClN+
275.0492	5	C18H10ClN+
276.0574	21	C18H11ClN+
277.0651	40	C18H12ClN+
278.0729	1	C18H13ClN+
312.0338	2	C18H12Cl2N+
