Mass spectrum: CP-457920; LC-ESI-QFT; MS2; CE: 45; R=17500; [M+H]+
Name: CP-457920
Name: 1,5-Naphthyridine-3-carboxamide, 6-ethoxy-1,4-dihydro-4-oxo-N-(phenylmethyl)-
Name: N-benzyl-6-ethoxy-4-oxo-1H-1,5-naphthyridine-3-carboxamide
Formula: C18H17N3O3
Exact mass: 323.1270
SMILES: CCOC1=NC2=C(NC=C(C(=O)NCC3=CC=CC=C3)C2=O)C=C1
InChI: InChI=1S/C18H17N3O3/c1-2-24-15-9-8-14-16(21-15)17(22)13(11-19-14)18(23)20-10-12-6-4-3-5-7-12/h3-9,11H,2,10H2,1H3,(H,19,22)(H,20,23)
Instrument: Q Exactive Orbitrap (Thermo Scientific)
Instrument type: LC-ESI-QFT
Ms type: MS2
Ion mode: POSITIVE
Ionization: ESI
Fragmentation mode: HCD
Collision energy: 45
Resolution: 17500
Column name: Acquity BEH C18 1.7um, 2.1x150mm (Waters)
Retention time: 16.966 min
Base peak: 79.0212
Precursor m/z: 324.1343
Precursor type: [M+H]+
Precursor intensity: 9728419.625
m/z	relative intensity	assigned
65.0385	13	C5H5+
91.0542	999	C7H7+
108.0808	9	C7H10N+
143.0236	1	C8H3N2O+
145.0396	5	C8H5N2O+
161.0345	15	C8H5N2O2+
163.0504	1	C8H7N2O2+
173.0708	1	C10H9N2O+
175.0502	8	C9H7N2O2+
179.045	1	C8H7N2O3+
189.0293	56	C9H5N2O3+
207.04	571	C12H5N3O+
217.0607	44	C11H9N2O3+
221.0557	16	C13H7N3O+
233.056	2	C14H7N3O+
235.0712	751	C14H9N3O+
237.075	1	C15H11NO2+
249.0869	23	C15H11N3O+
253.0971	16	C15H13N2O2+
281.1287	5	C17H17N2O2+
