Mass spectrum: Carbutamide; LC-ESI-QFT; MS2; CE: 15; R=17500; [M+H]+
Name: Carbutamide
Name: 1-(4-aminophenyl)sulfonyl-3-butylurea
Formula: C11H17N3O3S
Exact mass: 271.0991
SMILES: CCCCNC(=O)NS(=O)(=O)C1=CC=C(N)C=C1
InChI: InChI=1S/C11H17N3O3S/c1-2-3-8-13-11(15)14-18(16,17)10-6-4-9(12)5-7-10/h4-7H,2-3,8,12H2,1H3,(H2,13,14,15)
Instrument: Q Exactive Orbitrap (Thermo Scientific)
Instrument type: LC-ESI-QFT
Ms type: MS2
Ion mode: POSITIVE
Ionization: ESI
Fragmentation mode: HCD
Collision energy: 15
Resolution: 17500
Column name: Acquity BEH C18 1.7um, 2.1x150mm (Waters)
Retention time: 13.516 min
Base peak: 79.0211
Precursor m/z: 272.1063
Precursor type: [M+H]+
Precursor intensity: 5882742.65625
m/z	relative intensity	assigned
57.0699	26	C4H9+
72.0808	4	C4H10N+
74.0963	999	C4H12N+
92.0495	3	C6H6N+
108.0442	6	C6H6NO+
155.0273	14	C6H7N2OS+
156.0113	463	C6H6NO2S+
173.0379	48	C6H9N2O2S+
272.1062	200	C11H18N3O3S+
