Mass spectrum: Gemfibrozil; LC-ESI-QFT; MS2; CE: 45; R=17500; [M-H]-
Name: Gemfibrozil
Formula: C15H22O3
Exact mass: 250.1569
SMILES: CC1=CC(OCCCC(C)(C)C(O)=O)=C(C)C=C1
InChI: InChI=1S/C15H22O3/c1-11-6-7-12(2)13(10-11)18-9-5-8-15(3,4)14(16)17/h6-7,10H,5,8-9H2,1-4H3,(H,16,17)
Instrument: Q Exactive Orbitrap (Thermo Scientific)
Instrument type: LC-ESI-QFT
Ms type: MS2
Ion mode: NEGATIVE
Ionization: ESI
Fragmentation mode: HCD
Collision energy: 45
Resolution: 17500
Column name: Acquity BEH C18 1.7um, 2.1x150mm (Waters)
Retention time: 19.739 min
Base peak: 249.1496
Precursor m/z: 249.1496
Precursor type: [M-H]-
Precursor intensity: 91904902.13672
m/z	relative intensity	assigned
53.0031	1	C3HO-
65.0032	1	C4HO-
67.0189	3	C4H3O-
68.9982	5	C3HO2-
69.0346	5	C4H5O-
70.006	5	C3H2O2-
71.0139	3	C3H3O2-
72.9933	2	C2HO3-
79.0189	4	C5H3O-
79.9903	3	C4O2-
80.9983	1	C4HO2-
82.006	21	C4H2O2-
91.019	30	C6H3O-
92.0268	144	C6H4O-
93.0346	427	C6H5O-
95.0139	265	C5H3O2-
97.0296	3	C5H5O2-
106.006	13	C6H2O2-
106.0424	5	C7H6O-
107.0141	1	C6H3O2-
108.0217	235	C6H4O2-
119.0139	32	C7H3O2-
121.0295	38	C7H5O2-
123.0088	34	C6H3O3-
127.1129	41	C8H15O-
136.0166	999	C7H4O3-
137.0244	339	C7H5O3-
149.024	2	C8H5O3-
205.1598	3	C14H21O-
249.1496	745	C15H21O3-
