Mass spectrum: CP-457920; LC-ESI-QFT; MS2; CE: 90; R=17500; [M-H]-
Name: CP-457920
Name: 1,5-Naphthyridine-3-carboxamide, 6-ethoxy-1,4-dihydro-4-oxo-N-(phenylmethyl)-
Name: N-benzyl-6-ethoxy-4-oxo-1H-1,5-naphthyridine-3-carboxamide
Formula: C18H17N3O3
Exact mass: 323.1270
SMILES: CCOC1=NC2=C(NC=C(C(=O)NCC3=CC=CC=C3)C2=O)C=C1
InChI: InChI=1S/C18H17N3O3/c1-2-24-15-9-8-14-16(21-15)17(22)13(11-19-14)18(23)20-10-12-6-4-3-5-7-12/h3-9,11H,2,10H2,1H3,(H,19,22)(H,20,23)
Instrument: Q Exactive Orbitrap (Thermo Scientific)
Instrument type: LC-ESI-QFT
Ms type: MS2
Ion mode: NEGATIVE
Ionization: ESI
Fragmentation mode: HCD
Collision energy: 90
Resolution: 17500
Column name: Acquity BEH C18 1.7um, 2.1x150mm (Waters)
Retention time: 16.923 min
Base peak: 360.1269
Precursor m/z: 322.1197
Precursor type: [M-H]-
Precursor intensity: 24517679.11914
m/z	relative intensity	assigned
64.0193	10	C4H2N-
65.0146	3	C3HN2-
65.9985	27	C3NO-
68.0142	1	C3H2NO-
78.0349	6	C5H4N-
81.022	9	C4H3NO-
90.0348	5	C6H4N-
91.0302	38	C5H3N2-
92.0142	9	C5H2NO-
94.0298	2	C5H4NO-
96.009	1	C4H2NO2-
96.0456	5	C5H6NO-
103.0302	3	C6H3N2-
104.038	112	C6H4N2-
105.022	5	C6H3NO-
105.0458	6	C6H5N2-
106.0173	138	C5H2N2O-
106.0298	9	C6H4NO-
107.0251	6	C5H3N2O-
108.0329	14	C5H4N2O-
109.017	3	C5H3NO2-
115.03	3	C7H3N2-
118.0298	5	C7H4NO-
119.0251	151	C6H3N2O-
122.0248	4	C6H4NO2-
123.0201	1	C5H3N2O2-
124.0404	4	C6H6NO2-
131.0251	6	C7H3N2O-
132.0329	999	C7H4N2O-
133.0407	98	C7H5N2O-
134.0247	71	C7H4NO2-
135.02	39	C6H3N2O2-
136.0277	2	C6H4N2O2-
143.0251	6	C8H3N2O-
145.0408	3	C8H5N2O-
147.02	389	C7H3N2O2-
148.0278	20	C7H4N2O2-
159.02	19	C8H3N2O2-
160.0279	202	C8H4N2O2-
161.0356	535	C8H5N2O2-
163.0148	1	C7H3N2O3-
175.0391	1	C8H5N3O2-
176.0226	9	C8H4N2O3-
177.0305	3	C8H5N2O3-
186.0309	23	C9H4N3O2-
189.0306	2	C9H5N2O3-
