Mass spectrum: Flamprop-isopropyl; LC-ESI-QFT; MS2; CE: 45; R=17500; [M+H]+
Name: Flamprop-isopropyl
Name: propan-2-yl 2-(N-benzoyl-3-chloro-4-fluoroanilino)propanoate
Formula: C19H19ClFNO3
Exact mass: 363.1037
SMILES: CC(C)OC(=O)C(C)N(C(=O)C1=CC=CC=C1)C1=CC(Cl)=C(F)C=C1
InChI: InChI=1S/C19H19ClFNO3/c1-12(2)25-19(24)13(3)22(15-9-10-17(21)16(20)11-15)18(23)14-7-5-4-6-8-14/h4-13H,1-3H3
Instrument: Q Exactive Orbitrap (Thermo Scientific)
Instrument type: LC-ESI-QFT
Ms type: MS2
Ion mode: POSITIVE
Ionization: ESI
Fragmentation mode: HCD
Collision energy: 45
Resolution: 17500
Column name: Acquity BEH C18 1.7um, 2.1x150mm (Waters)
Retention time: 18.490 min
Base peak: 79.0211
Precursor m/z: 364.111
Precursor type: [M+H]+
Precursor intensity: 13386603.875
m/z	relative intensity	assigned
50.0151	1	C4H2+
51.0229	1	C4H3+
53.0386	25	C4H5+
77.0385	10	C6H5+
81.0335	2	C5H5O+
94.0414	3	C6H6O+
95.0492	73	C6H7O+
105.0335	999	C7H5O+
172.0323	10	C8H8ClFN+
