Mass spectrum: Butachlor; LC-ESI-QFT; MS2; CE: 45; R=17500; [M+H]+
Name: Butachlor
Name: N-(butoxymethyl)-2-chloro-N-(2,6-diethylphenyl)acetamide
Formula: C17H26ClNO2
Exact mass: 311.1652
SMILES: CCCCOCN(C(=O)CCl)C1=C(CC)C=CC=C1CC
InChI: InChI=1S/C17H26ClNO2/c1-4-7-11-21-13-19(16(20)12-18)17-14(5-2)9-8-10-15(17)6-3/h8-10H,4-7,11-13H2,1-3H3
Instrument: Q Exactive Orbitrap (Thermo Scientific)
Instrument type: LC-ESI-QFT
Ms type: MS2
Ion mode: POSITIVE
Ionization: ESI
Fragmentation mode: HCD
Collision energy: 45
Resolution: 17500
Column name: Acquity BEH C18 1.7um, 2.1x150mm (Waters)
Retention time: 19.583 min
Base peak: 79.0211
Precursor m/z: 312.1725
Precursor type: [M+H]+
Precursor intensity: 816628.5625
m/z	relative intensity	assigned
53.0023	18	C3HO+
55.0543	30	C4H7+
57.0699	999	C4H9+
87.0805	30	C5H11O+
90.0105	110	C3H5ClN+
134.0963	13	C9H12N+
146.0965	21	C10H12N+
147.1044	46	C10H13N+
161.1196	18	C11H15N+
162.1277	456	C11H16N+
163.1117	70	C11H15O+
238.0995	47	C13H17ClNO+
