Mass spectrum: CP-457920; LC-ESI-QFT; MS2; CE: 60; R=17500; [M-H]-
Name: CP-457920
Name: 1,5-Naphthyridine-3-carboxamide, 6-ethoxy-1,4-dihydro-4-oxo-N-(phenylmethyl)-
Name: N-benzyl-6-ethoxy-4-oxo-1H-1,5-naphthyridine-3-carboxamide
Formula: C18H17N3O3
Exact mass: 323.1270
SMILES: CCOC1=NC2=C(NC=C(C(=O)NCC3=CC=CC=C3)C2=O)C=C1
InChI: InChI=1S/C18H17N3O3/c1-2-24-15-9-8-14-16(21-15)17(22)13(11-19-14)18(23)20-10-12-6-4-3-5-7-12/h3-9,11H,2,10H2,1H3,(H,19,22)(H,20,23)
Instrument: Q Exactive Orbitrap (Thermo Scientific)
Instrument type: LC-ESI-QFT
Ms type: MS2
Ion mode: NEGATIVE
Ionization: ESI
Fragmentation mode: HCD
Collision energy: 60
Resolution: 17500
Column name: Acquity BEH C18 1.7um, 2.1x150mm (Waters)
Retention time: 16.923 min
Base peak: 360.1269
Precursor m/z: 322.1197
Precursor type: [M-H]-
Precursor intensity: 29894986.9668
m/z	relative intensity	assigned
65.9985	1	C3NO-
81.022	1	C4H3NO-
91.0301	6	C5H3N2-
93.022	1	C5H3NO-
96.0092	2	C4H2NO2-
104.0381	2	C6H4N2-
106.0172	4	C5H2N2O-
107.025	2	C5H3N2O-
108.0329	40	C5H4N2O-
109.0168	8	C5H3NO2-
118.0172	1	C6H2N2O-
119.0251	45	C6H3N2O-
121.017	4	C6H3NO2-
122.0249	1	C6H4NO2-
123.0199	2	C5H3N2O2-
132.0329	171	C7H4N2O-
133.0407	21	C7H5N2O-
134.0248	24	C7H4NO2-
135.02	33	C6H3N2O2-
136.0278	7	C6H4N2O2-
137.012	2	C6H3NO3-
143.0252	1	C8H3N2O-
145.0407	3	C8H5N2O-
147.02	96	C7H3N2O2-
148.0279	10	C7H4N2O2-
159.0197	1	C8H3N2O2-
160.0279	197	C8H4N2O2-
161.0356	999	C8H5N2O2-
163.015	3	C7H3N2O3-
173.0356	1	C9H5N2O2-
175.0149	5	C8H3N2O3-
175.0386	1	C8H5N3O2-
176.0227	47	C8H4N2O3-
177.0305	4	C8H5N2O3-
186.031	6	C9H4N3O2-
187.0149	7	C9H3N2O3-
188.0223	1	C9H4N2O3-
189.0307	11	C9H5N2O3-
189.0668	2	C10H9N2O2-
249.0667	1	C15H9N2O2-
250.0749	3	C15H10N2O2-
275.0693	2	C16H9N3O2-
276.0776	12	C16H10N3O2-
292.0726	1	C16H10N3O3-
293.0803	1	C16H11N3O3-
294.0886	134	C16H12N3O3-
