Mass spectrum: Purpurin; LC-ESI-QFT; MS2; CE: 45; R=17500; [M-H]-
Name: Purpurin
Name: 1,2,4-trihydroxyanthracene-9,10-dione
Formula: C14H8O5
Exact mass: 256.0372
SMILES: OC1=CC(O)=C(O)C2=C1C(=O)C1=C(C=CC=C1)C2=O
InChI: InChI=1S/C14H8O5/c15-8-5-9(16)14(19)11-10(8)12(17)6-3-1-2-4-7(6)13(11)18/h1-5,15-16,19H
Instrument: Q Exactive Orbitrap (Thermo Scientific)
Instrument type: LC-ESI-QFT
Ms type: MS2
Ion mode: NEGATIVE
Ionization: ESI
Fragmentation mode: HCD
Collision energy: 45
Resolution: 17500
Column name: Acquity BEH C18 1.7um, 2.1x150mm (Waters)
Retention time: 19.032 min
Base peak: 112.9856
Precursor m/z: 255.0299
Precursor type: [M-H]-
Precursor intensity: 319594.4541016
m/z	relative intensity	assigned
159.0454	21	C10H7O2-
171.0451	27	C11H7O2-
175.0403	12	C10H7O3-
183.0449	64	C12H7O2-
226.0274	14	C13H6O4-
227.0351	620	C13H7O4-
255.03	999	C14H7O5-
