Mass spectrum: Flutolanil; LC-ESI-QFT; MS2; CE: 15; R=17500; [M+H]+
Name: Flutolanil
Name: N-(3-propan-2-yloxyphenyl)-2-(trifluoromethyl)benzamide
Formula: C17H16F3NO2
Exact mass: 323.1133
SMILES: CC(C)OC1=CC(NC(=O)C2=C(C=CC=C2)C(F)(F)F)=CC=C1
InChI: InChI=1S/C17H16F3NO2/c1-11(2)23-13-7-5-6-12(10-13)21-16(22)14-8-3-4-9-15(14)17(18,19)20/h3-11H,1-2H3,(H,21,22)
Instrument: Q Exactive Orbitrap (Thermo Scientific)
Instrument type: LC-ESI-QFT
Ms type: MS2
Ion mode: POSITIVE
Ionization: ESI
Fragmentation mode: HCD
Collision energy: 15
Resolution: 17500
Column name: Acquity BEH C18 1.7um, 2.1x150mm (Waters)
Retention time: 17.457 min
Base peak: 79.0211
Precursor m/z: 324.1206
Precursor type: [M+H]+
Precursor intensity: 25560178.15625
m/z	relative intensity	assigned
145.0271	1	C7H4F3+
173.0217	9	C8H4F3O+
262.0673	215	C14H10F2NO2+
282.0735	606	C14H11F3NO2+
292.1174	1	C16H16F2NO2+
304.1143	156	C17H16F2NO2+
324.1206	999	C17H17F3NO2+
