Mass spectrum: 2-(Phenylsulfonyl)aniline; LC-ESI-QFT; MS2; CE: 75; R=17500; [M+H]+
Name: 2-(Phenylsulfonyl)aniline
Name: 2-(benzenesulfonyl)aniline
Formula: C12H11NO2S
Exact mass: 233.0510
SMILES: NC1=CC=CC=C1S(=O)(=O)C1=CC=CC=C1
InChI: InChI=1S/C12H11NO2S/c13-11-8-4-5-9-12(11)16(14,15)10-6-2-1-3-7-10/h1-9H,13H2
Instrument: Q Exactive Orbitrap (Thermo Scientific)
Instrument type: LC-ESI-QFT
Ms type: MS2
Ion mode: POSITIVE
Ionization: ESI
Fragmentation mode: HCD
Collision energy: 75
Resolution: 17500
Column name: Acquity BEH C18 1.7um, 2.1x150mm (Waters)
Retention time: 15.284 min
Base peak: 79.0211
Precursor m/z: 234.0583
Precursor type: [M+H]+
Precursor intensity: 4428574.5625
m/z	relative intensity	assigned
53.0023	4	C3HO+
53.0386	17	C4H5+
65.0386	519	C5H5+
66.0464	43	C5H6+
77.0385	7	C6H5+
80.0495	267	C5H6N+
91.0543	77	C7H7+
92.0495	999	C6H6N+
93.0574	636	C6H7N+
95.0492	30	C6H7O+
104.0495	20	C7H6N+
108.0444	228	C6H6NO+
109.0523	4	C6H7NO+
110.0602	30	C6H8NO+
160.0524	8	C10H8O2+
188.0539	76	C11H10NS+
206.0646	206	C11H12NOS+
