Mass spectrum: Octrizole; LC-ESI-QFT; MS2; CE: 75; R=17500; [M+H]+
Name: Octrizole
Name: 2-(benzotriazol-2-yl)-4-(2,4,4-trimethylpentan-2-yl)phenol
Formula: C20H25N3O
Exact mass: 323.1998
SMILES: CC(C)(C)CC(C)(C)C1=CC(N2N=C3C=CC=CC3=N2)=C(O)C=C1
InChI: InChI=1S/C20H25N3O/c1-19(2,3)13-20(4,5)14-10-11-18(24)17(12-14)23-21-15-8-6-7-9-16(15)22-23/h6-12,24H,13H2,1-5H3
Instrument: Q Exactive Orbitrap (Thermo Scientific)
Instrument type: LC-ESI-QFT
Ms type: MS2
Ion mode: POSITIVE
Ionization: ESI
Fragmentation mode: HCD
Collision energy: 75
Resolution: 17500
Column name: Acquity BEH C18 1.7um, 2.1x150mm (Waters)
Retention time: 22.623 min
Base peak: 79.0211
Precursor m/z: 324.207
Precursor type: [M+H]+
Precursor intensity: 605859.5078125
m/z	relative intensity	assigned
53.0022	35	C3HO+
55.0543	39	C4H7+
57.0699	900	C4H9+
58.0652	14	C3H8N+
65.0386	285	C5H5+
69.07	14	C5H9+
79.0542	56	C6H7+
80.0495	29	C5H6N+
91.0419	22	C6H5N+
91.0542	65	C7H7+
92.0495	999	C6H6N+
93.0336	15	C6H5O+
95.0493	24	C6H7O+
103.0542	17	C8H7+
105.07	105	C8H9+
106.0779	17	C8H10+
107.0491	27	C7H7O+
110.0602	17	C6H8NO+
111.0442	50	C4H5N3O+
119.0492	53	C8H7O+
119.0605	25	C7H7N2+
120.0557	159	C6H6N3+
121.0648	110	C8H9O+
128.0619	21	C10H8+
129.0699	37	C10H9+
133.065	137	C9H9O+
134.0726	45	C9H10O+
135.0804	38	C9H11O+
139.0542	33	C11H7+
139.0753	46	C6H9N3O+
156.0812	15	C11H10N+
165.0699	24	C13H9+
166.0647	22	C12H8N+
167.073	45	C12H9N+
180.0809	30	C13H10N+
182.0964	32	C13H12N+
183.0681	63	C12H9NO+
184.0757	29	C12H10NO+
196.0761	21	C13H10NO+
209.0833	24	C14H11NO+
209.0956	18	C15H13O+
210.0915	113	C14H12NO+
212.082	64	C12H10N3O+
224.107	54	C15H14NO+
238.0977	65	C14H12N3O+
252.1129	107	C15H14N3O+
