Mass spectrum: 4-Chlorophenylurea; LC-ESI-QFT; MS2; CE: 75; R=17500; [M+H]+
Name: 4-Chlorophenylurea
Name: (4-chlorophenyl)urea
Formula: C7H7ClN2O
Exact mass: 170.0247
SMILES: NC(=O)NC1=CC=C(Cl)C=C1
InChI: InChI=1S/C7H7ClN2O/c8-5-1-3-6(4-2-5)10-7(9)11/h1-4H,(H3,9,10,11)
Instrument: Q Exactive Orbitrap (Thermo Scientific)
Instrument type: LC-ESI-QFT
Ms type: MS2
Ion mode: POSITIVE
Ionization: ESI
Fragmentation mode: HCD
Collision energy: 75
Resolution: 17500
Column name: Acquity BEH C18 1.7um, 2.1x150mm (Waters)
Retention time: 1.016 min
Base peak: 79.0212
Precursor m/z: 171.032
Precursor type: [M+H]+
Precursor intensity: 3098648.84375
m/z	relative intensity	assigned
55.0542	250	C4H7+
72.0443	572	C3H6NO+
73.0283	2	ClH8NO+
92.0496	11	C6H6N+
93.0573	999	C6H7N+
114.9707	15	C3ClN2O+
126.0105	154	C6H5ClN+
128.0261	125	C6H7ClN+
128.9864	7	C4H2ClN2O+
139.0056	11	C6H4ClN2+
154.0054	5	C7H5ClNO+
