Mass spectrum: Ethirimol; LC-ESI-QFT; MS2; CE: 45; R=17500; [M+H]+
Name: Ethirimol
Name: 5-butyl-2-(ethylamino)-6-methyl-1H-pyrimidin-4-one
Formula: C11H19N3O
Exact mass: 209.1528
SMILES: CCCCC1=C(O)N=C(NCC)N=C1C
InChI: InChI=1S/C11H19N3O/c1-4-6-7-9-8(3)13-11(12-5-2)14-10(9)15/h4-7H2,1-3H3,(H2,12,13,14,15)
Instrument: Q Exactive Orbitrap (Thermo Scientific)
Instrument type: LC-ESI-QFT
Ms type: MS2
Ion mode: POSITIVE
Ionization: ESI
Fragmentation mode: HCD
Collision energy: 45
Resolution: 17500
Column name: Acquity BEH C18 1.7um, 2.1x150mm (Waters)
Retention time: 13.266 min
Base peak: 79.0211
Precursor m/z: 210.1601
Precursor type: [M+H]+
Precursor intensity: 32203277.8125
m/z	relative intensity	assigned
55.0542	1	C4H7+
69.0082	3	C2HN2O+
70.065	5	C4H8N+
71.0603	17	C3H7N2+
81.0699	1	C6H9+
95.0856	2	C7H11+
97.0397	13	C4H5N2O+
98.06	44	C5H8NO+
107.0729	3	C7H9N+
112.112	1	C7H14N+
114.0661	2	C4H8N3O+
122.0713	2	C6H8N3+
122.0964	4	C8H12N+
123.0553	1	C6H7N2O+
138.0662	5	C6H8N3O+
139.074	3	C6H9N3O+
140.107	296	C8H14NO+
150.1026	20	C8H12N3+
151.1229	1	C9H15N2+
152.0823	1	C7H10N3O+
154.0976	1	C7H12N3O+
165.1023	30	C9H13N2O+
166.0974	6	C8H12N3O+
167.1053	17	C8H13N3O+
168.113	2	C8H14N3O+
182.1289	103	C9H16N3O+
193.1336	86	C11H17N2O+
208.1448	3	C11H18N3O+
210.16	999	C11H20N3O+
