Mass spectrum: Carbimazole; LC-ESI-QFT; MS2; CE: 60; R=17500; [M+H]+
Name: Carbimazole
Name: ethyl 3-methyl-2-sulfanylideneimidazole-1-carboxylate
Formula: C7H10N2O2S
Exact mass: 186.0463
SMILES: CCOC(=O)N1C=CN(C)C1=S
InChI: InChI=1S/C7H10N2O2S/c1-3-11-7(10)9-5-4-8(2)6(9)12/h4-5H,3H2,1-2H3
Instrument: Q Exactive Orbitrap (Thermo Scientific)
Instrument type: LC-ESI-QFT
Ms type: MS2
Ion mode: POSITIVE
Ionization: ESI
Fragmentation mode: HCD
Collision energy: 60
Resolution: 17500
Column name: Acquity BEH C18 1.7um, 2.1x150mm (Waters)
Retention time: 11.592 min
Base peak: 79.0211
Precursor m/z: 187.0536
Precursor type: [M+H]+
Precursor intensity: 8197517.96875
m/z	relative intensity	assigned
54.0339	1	C3H4N+
56.0495	42	C3H6N+
57.0573	231	C3H7N+
58.995	9	C2H3S+
61.0107	3	C2H5S+
69.0448	2	C3H5N2+
70.0651	5	C4H8N+
71.0604	13	C3H7N2+
73.0107	2	C3H5S+
74.0059	84	C2H4NS+
79.0212	2	C2H7OS+
81.0447	1	C4H5N2+
82.0525	5	C4H6N2+
83.0604	25	C4H7N2+
84.0807	2	C5H10N+
85.0885	2	C5H11N+
86.0059	1	C3H4NS+
88.0216	157	C3H6NS+
100.009	8	C3H4N2S+
102.0373	1	C4H8NS+
109.0762	1	C6H9N2+
111.0917	1	C6H11N2+
113.0167	4	C4H5N2S+
114.0247	29	C4H6N2S+
115.0325	999	C4H7N2S+
128.0403	1	C5H8N2S+
130.9819	1	C7HNS+
141.0478	1	C6H9N2S+
143.0638	35	C6H11N2S+
