Mass spectrum: 4-Aminobenzamide; LC-ESI-QFT; MS2; CE: 15; R=17500; [M+H]+
Name: 4-Aminobenzamide
Formula: C7H8N2O
Exact mass: 136.0637
SMILES: NC(=O)C1=CC=C(N)C=C1
InChI: InChI=1S/C7H8N2O/c8-6-3-1-5(2-4-6)7(9)10/h1-4H,8H2,(H2,9,10)
Instrument: Q Exactive Orbitrap (Thermo Scientific)
Instrument type: LC-ESI-QFT
Ms type: MS2
Ion mode: POSITIVE
Ionization: ESI
Fragmentation mode: HCD
Collision energy: 15
Resolution: 17500
Column name: Acquity BEH C18 1.7um, 2.1x150mm (Waters)
Retention time: 2.658 min
Base peak: 79.0211
Precursor m/z: 137.0709
Precursor type: [M+H]+
Precursor intensity: 5330841.90625
m/z	relative intensity	assigned
65.0386	3	C5H5+
68.0495	1	C4H6N+
86.0037	4	C6N+
92.0495	8	C6H6N+
94.0651	204	C6H8N+
95.049	1	C6H7O+
110.06	3	C6H8NO+
120.0444	999	C7H6NO+
137.0709	311	C7H9N2O+
