Mass spectrum: PharmaGSID_48521; LC-ESI-QFT; MS2; CE: 15; R=17500; [M+H]+
Name: PharmaGSID_48521
Name: (5S)-5-butyl-9-[1-(4,6-dimethylpyrimidine-5-carbonyl)-4-methylpiperidin-4-yl]-3-(oxan-4-ylmethyl)-1-oxa-3,9-diazaspiro[5.5]undecan-2-one
Formula: C31H49N5O4
Exact mass: 555.3785
SMILES: CCCC[C@H]1CN(CC2CCOCC2)C(=O)OC11CCN(CC1)C1(C)CCN(CC1)C(=O)C1=C(C)N=CN=C1C
InChI: InChI=1S/C31H49N5O4/c1-5-6-7-26-21-35(20-25-8-18-39-19-9-25)29(38)40-31(26)12-16-36(17-13-31)30(4)10-14-34(15-11-30)28(37)27-23(2)32-22-33-24(27)3/h22,25-26H,5-21H2,1-4H3/t26-/m0/s1
Instrument: Q Exactive Orbitrap (Thermo Scientific)
Instrument type: LC-ESI-QFT
Ms type: MS2
Ion mode: POSITIVE
Ionization: ESI
Fragmentation mode: HCD
Collision energy: 15
Resolution: 17500
Column name: Acquity BEH C18 1.7um, 2.1x150mm (Waters)
Retention time: 13.096 min
Base peak: 79.0211
Precursor m/z: 556.3857
Precursor type: [M+H]+
Precursor intensity: 12479388.28125
m/z	relative intensity	assigned
84.0806	1	C5H10N+
128.1069	13	C7H14NO+
154.159	38	C10H20N+
166.159	11	C11H20N+
232.1445	9	C13H18N3O+
238.216	1	C15H28NO+
252.232	1	C16H30NO+
261.1709	7	C14H21N4O+
281.2587	39	C17H33N2O+
296.2222	1	C17H30NO3+
325.2485	191	C18H33N2O3+
337.2482	10	C17H31N5O2+
379.2957	3	C22H39N2O3+
385.2962	16	C23H37N4O+
512.3969	9	C30H50N5O2+
556.386	999	C31H50N5O4+
