Mass spectrum: Azoxystrobin; LC-ESI-QFT; MS2; CE: 45; R=17500; [M+H]+
Name: Azoxystrobin
Formula: C22H17N3O5
Exact mass: 403.1168
SMILES: CO\C=C(\C(=O)OC)C1=CC=CC=C1OC1=CC(OC2=CC=CC=C2C#N)=NC=N1
InChI: InChI=1S/C22H17N3O5/c1-27-13-17(22(26)28-2)16-8-4-6-10-19(16)30-21-11-20(24-14-25-21)29-18-9-5-3-7-15(18)12-23/h3-11,13-14H,1-2H3/b17-13+
Instrument: Q Exactive Orbitrap (Thermo Scientific)
Instrument type: LC-ESI-QFT
Ms type: MS2
Ion mode: POSITIVE
Ionization: ESI
Fragmentation mode: HCD
Collision energy: 45
Resolution: 17500
Column name: Acquity BEH C18 1.7um, 2.1x150mm (Waters)
Retention time: 16.922 min
Base peak: 79.0212
Precursor m/z: 404.1241
Precursor type: [M+H]+
Precursor intensity: 22578271
m/z	relative intensity	assigned
55.0178	1	C3H3O+
68.0256	1	C4H4O+
68.9971	3	C3HO2+
75.0441	2	C3H7O2+
79.0541	1	C6H7+
82.0287	6	C4H4NO+
83.0128	5	C4H3O2+
89.0385	4	C7H5+
91.0543	2	C7H7+
102.034	1	C7H4N+
103.0542	2	C8H7+
104.0496	1	C7H6N+
105.0335	1	C7H5O+
106.0652	4	C7H8N+
107.0491	12	C7H7O+
114.0339	3	C8H4N+
115.0543	1	C9H7+
116.0496	2	C8H6N+
117.0335	1	C8H5O+
117.0576	1	C8H7N+
119.0365	1	C7H5NO+
119.0493	1	C8H7O+
120.0445	10	C7H6NO+
121.0286	1	C7H5O2+
121.0648	4	C8H9O+
129.0334	1	C9H5O+
129.0447	21	C8H5N2+
130.0401	6	C7H4N3+
130.0526	1	C8H6N2+
130.0651	1	C9H8N+
131.0493	3	C9H7O+
131.0605	1	C8H7N2+
132.0443	4	C8H6NO+
133.0285	1	C8H5O2+
133.0523	9	C8H7NO+
134.06	103	C8H8NO+
141.0445	4	C9H5N2+
143.0604	50	C9H7N2+
144.0447	3	C9H6NO+
145.0284	35	C9H5O2+
145.0521	8	C9H7NO+
146.0601	4	C9H8NO+
147.044	3	C9H7O2+
148.0518	1	C9H8O2+
155.0601	4	C10H7N2+
156.0443	26	C10H6NO+
157.0285	3	C10H5O2+
157.0524	1	C10H7NO+
158.0359	1	C10H6O2+
158.0602	2	C10H8NO+
159.0553	5	C9H7N2O+
160.0393	7	C9H6NO2+
160.087	1	C9H10N3+
161.0708	7	C9H9N2O+
162.055	16	C9H8NO2+
168.0444	1	C11H6NO+
169.0396	33	C10H5N2O+
170.0237	2	C10H4NO2+
170.0477	3	C10H6N2O+
170.0599	4	C11H8NO+
171.0317	7	C10H5NO2+
171.0553	33	C10H7N2O+
172.0392	62	C10H6NO2+
173.0472	9	C10H7NO2+
174.0551	3	C10H8NO2+
175.0388	1	C10H7O3+
176.0705	1	C10H10NO2+
177.0545	23	C10H9O3+
182.0475	6	C11H6N2O+
182.0714	19	C11H8N3+
183.0553	104	C11H7N2O+
184.0389	5	C11H6NO2+
184.0633	1	C11H8N2O+
185.0235	4	C11H5O3+
185.0338	1	C10H5N2O2+
185.0468	1	C11H7NO2+
185.0709	3	C11H9N2O+
186.055	6	C11H8NO2+
186.0652	1	C10H8N3O+
187.0502	10	C10H7N2O2+
188.0709	3	C11H10NO2+
190.0499	3	C10H8NO3+
196.051	3	C11H6N3O+
197.071	6	C12H9N2O+
198.056	1	C12H8NO2+
198.0668	1	C11H8N3O+
198.0786	3	C12H10N2O+
199.0501	13	C11H7N2O2+
200.0342	17	C11H6NO3+
201.0421	73	C11H7NO3+
201.0657	43	C11H9N2O2+
202.0496	4	C11H8NO3+
207.0555	3	C13H7N2O+
210.0424	30	C12H6N2O2+
210.0662	29	C12H8N3O+
211.0502	9	C12H7N2O2+
211.074	1	C12H9N3O+
212.0344	5	C12H6NO3+
216.0655	100	C12H10NO3+
218.0841	1	C15H10N2+
221.0718	1	C14H9N2O+
223.074	2	C13H9N3O+
225.066	3	C13H9N2O2+
227.0445	2	C12H7N2O3+
231.0917	4	C16H11N2+
232.076	2	C16H10NO+
233.0711	2	C15H9N2O+
234.0792	1	C15H10N2O+
234.0915	2	C16H12NO+
239.0454	2	C13H7N2O3+
242.0322	38	C12H6N2O4+
244.0752	1	C17H10NO+
244.0874	1	C16H10N3+
245.071	5	C16H9N2O+
245.0951	2	C16H11N3+
246.0789	4	C16H10N2O+
246.0912	1	C17H12NO+
247.0862	1	C16H11N2O+
248.0711	1	C16H10NO2+
253.0616	1	C14H9N2O3+
256.0872	1	C17H10N3+
257.0708	2	C17H9N2O+
257.095	1	C17H11N3+
258.0792	3	C17H10N2O+
259.0868	4	C17H11N2O+
260.0704	2	C17H10NO2+
261.0787	2	C17H11NO2+
261.1021	3	C17H13N2O+
262.0864	5	C17H12NO2+
271.0877	4	C18H11N2O+
272.0819	27	C17H10N3O+
273.0659	19	C17H9N2O2+
273.0898	38	C17H11N3O+
274.0733	3	C17H10N2O2+
274.0866	2	C18H12NO2+
275.0813	9	C17H11N2O2+
276.0647	1	C17H10NO3+
284.0821	4	C18H10N3O+
285.0662	2	C18H9N2O2+
285.09	2	C18H11N3O+
286.0739	2	C18H10N2O2+
286.0976	2	C18H12N3O+
287.0816	28	C18H11N2O2+
288.0649	8	C18H10NO3+
288.0892	4	C18H12N2O2+
288.1132	9	C18H14N3O+
289.0971	11	C18H13N2O2+
299.0814	4	C19H11N2O2+
300.0766	35	C18H10N3O2+
301.0842	123	C18H11N3O2+
302.0681	1	C18H10N2O3+
303.0766	15	C18H11N2O3+
312.0767	13	C19H10N3O2+
313.0615	2	C19H9N2O3+
314.0918	4	C19H12N3O2+
315.0768	4	C19H11N2O3+
315.1005	16	C19H13N3O2+
316.1078	43	C19H14N3O2+
317.092	10	C19H13N2O3+
326.0919	1	C20H12N3O2+
328.0718	97	C19H10N3O3+
329.0794	999	C19H11N3O3+
343.0949	1	C20H13N3O3+
344.1029	396	C20H14N3O3+
345.0871	1	C20H13N2O4+
372.0979	47	C21H14N3O4+
