Mass spectrum: Procyazine; LC-ESI-QFT; MS2; CE: 75; R=17500; [M+H]+
Name: Procyazine
Name: 2-[[4-chloro-6-(cyclopropylamino)-1,3,5-triazin-2-yl]amino]-2-methylpropanenitrile
Formula: C10H13ClN6
Exact mass: 252.0890
SMILES: CC(C)(NC1=NC(Cl)=NC(NC2CC2)=N1)C#N
InChI: InChI=1S/C10H13ClN6/c1-10(2,5-12)17-9-15-7(11)14-8(16-9)13-6-3-4-6/h6H,3-4H2,1-2H3,(H2,13,14,15,16,17)
Instrument: Q Exactive Orbitrap (Thermo Scientific)
Instrument type: LC-ESI-QFT
Ms type: MS2
Ion mode: POSITIVE
Ionization: ESI
Fragmentation mode: HCD
Collision energy: 75
Resolution: 17500
Column name: Acquity BEH C18 1.7um, 2.1x150mm (Waters)
Retention time: 15.117 min
Base peak: 79.0212
Precursor m/z: 253.0963
Precursor type: [M+H]+
Precursor intensity: 4524070
m/z	relative intensity	assigned
53.0022	29	ClH4N+
54.0339	12	C3H4N+
55.0291	40	C2H3N2+
56.0495	330	C3H6N+
58.0651	189	C3H8N+
61.9792	98	CHClN+
63.9948	8	CH3ClN+
66.0338	10	C4H4N+
67.0291	26	C3H3N2+
67.0416	10	C4H5N+
68.0243	379	C2H2N3+
68.0495	34	C4H6N+
69.0447	10	C3H5N2+
70.0401	3	C2H4N3+
70.0652	13	C4H8N+
74.0962	2	C4H12N+
74.9996	48	C3H4Cl+
78.0106	13	C2H5ClN+
79.0058	115	CH4ClN2+
79.0291	18	C4H3N2+
80.0496	12	C5H6N+
81.0447	185	C4H5N2+
82.0651	27	C5H8N+
83.0604	999	C4H7N2+
85.076	6	C4H9N2+
91.0058	28	C2H4ClN2+
92.0263	3	C3H7ClN+
93.0449	4	C5H5N2+
94.0654	3	C6H8N+
95.0604	6	C5H7N2+
97.0399	2	CH8ClN3+
102.0106	112	C4H5ClN+
103.0058	26	C3H4ClN2+
104.001	485	C2H3ClN3+
106.0652	7	C7H8N+
107.0604	34	C6H7N2+
108.0556	889	C5H6N3+
109.0509	8	C4H5N4+
110.046	8	C3H4N5+
110.0713	67	C5H8N3+
111.0553	5	C2H10ClN3+
117.0215	15	C4H6ClN2+
119.0371	253	C4H8ClN2+
120.0557	20	C6H6N3+
121.051	9	C5H5N4+
121.076	8	C7H9N2+
122.0712	5	C6H8N3+
123.0666	3	C5H7N4+
123.0917	14	C7H11N2+
124.0868	3	C6H10N3+
125.0824	4	C5H9N4+
125.1071	3	C7H13N2+
128.9967	3	C3H2ClN4+
133.0509	4	C6H5N4+
134.0459	2	C5H4N5+
135.0665	12	C6H7N4+
136.0744	10	C6H8N4+
144.0323	212	C5H7ClN3+
145.0274	12	C4H6ClN4+
146.0228	17	C3H5ClN5+
148.0869	166	C8H10N3+
149.0823	23	C7H9N4+
150.0775	18	C6H8N5+
150.1025	5	C8H12N3+
157.0272	6	C5H6ClN4+
158.0226	5	C4H5ClN5+
160.0619	2	C7H6N5+
161.0695	4	C7H7N5+
169.0276	6	C6H6ClN4+
170.0228	19	C5H5ClN5+
185.0588	23	C7H10ClN4+
186.0542	50	C6H9ClN5+
190.1085	18	C9H12N5+
198.0543	3	C7H9ClN5+
226.0853	37	C9H13ClN5+
