Mass spectrum: Quinclorac; LC-ESI-QFT; MS2; CE: 30; R=17500; [M+H]+
Name: Quinclorac
Name: 3,7-dichloroquinoline-8-carboxylic acid
Formula: C10H5Cl2NO2
Exact mass: 240.9697
SMILES: OC(=O)C1=C(Cl)C=CC2=CC(Cl)=CN=C12
InChI: InChI=1S/C10H5Cl2NO2/c11-6-3-5-1-2-7(12)8(10(14)15)9(5)13-4-6/h1-4H,(H,14,15)
Instrument: Q Exactive Orbitrap (Thermo Scientific)
Instrument type: LC-ESI-QFT
Ms type: MS2
Ion mode: POSITIVE
Ionization: ESI
Fragmentation mode: HCD
Collision energy: 30
Resolution: 17500
Column name: Acquity BEH C18 1.7um, 2.1x150mm (Waters)
Retention time: 15.027 min
Base peak: 79.0211
Precursor m/z: 241.977
Precursor type: [M+H]+
Precursor intensity: 2628627.9375
m/z	relative intensity	assigned
84.9595	3	CH3Cl2+
141.9378	4	C6Cl2+
153.9382	17	C7Cl2+
161.0027	4	C9H4ClN+
165.9382	83	C8Cl2+
167.9539	6	C8H2Cl2+
168.9617	38	C8H3Cl2+
178.9462	14	C9HCl2+
179.954	17	C9H2Cl2+
180.9617	106	C9H3Cl2+
181.9696	33	C9H4Cl2+
182.9775	7	C9H5Cl2+
183.9488	58	C8H2Cl2O+
185.9638	6	C8H4Cl2O+
194.9773	18	C10H5Cl2+
195.985	8	C10H6Cl2+
196.9565	15	C9H3Cl2O+
197.9644	13	C9H4Cl2O+
209.9646	26	C10H4Cl2O+
223.9666	999	C10H4Cl2NO+
227.9749	12	C10H6Cl2O2+
241.9772	589	C10H6Cl2NO2+
