Mass spectrum: CP-401387; LC-ESI-QFT; MS2; CE: 90; R=17500; [M-H]-
Name: CP-401387
Name: 4-cyano-4-(1-cyclohexyl-3-ethylindazol-6-yl)cyclohexane-1-carboxylic acid
Formula: C23H29N3O2
Exact mass: 379.2260
SMILES: CCC1=NN(C2CCCCC2)C2=C1C=CC(=C2)[C@]1(CC[C@@H](CC1)C(O)=O)C#N
InChI: InChI=1S/C23H29N3O2/c1-2-20-19-9-8-17(23(15-24)12-10-16(11-13-23)22(27)28)14-21(19)26(25-20)18-6-4-3-5-7-18/h8-9,14,16,18H,2-7,10-13H2,1H3,(H,27,28)/t16-,23-
Instrument: Q Exactive Orbitrap (Thermo Scientific)
Instrument type: LC-ESI-QFT
Ms type: MS2
Ion mode: NEGATIVE
Ionization: ESI
Fragmentation mode: HCD
Collision energy: 90
Resolution: 17500
Column name: Acquity BEH C18 1.7um, 2.1x150mm (Waters)
Retention time: 19.021 min
Base peak: 271.9888
Precursor m/z: 378.2187
Precursor type: [M-H]-
Precursor intensity: 3641253.300781
m/z	relative intensity	assigned
52.0193	16	C3H2N-
140.0509	23	C10H6N-
158.0848	20	C10H10N2-
168.0569	76	C10H6N3-
169.0771	756	C11H9N2-
171.0928	424	C11H11N2-
181.0646	148	C11H7N3-
182.085	104	C12H10N2-
183.0803	49	C11H9N3-
183.0927	132	C12H11N2-
184.101	21	C12H12N2-
185.1083	41	C12H13N2-
190.075	51	C10H10N2O2-
195.0926	43	C13H11N2-
196.088	999	C12H10N3-
197.1084	692	C13H13N2-
199.1242	173	C13H15N2-
208.0882	37	C13H10N3-
210.1037	20	C13H12N3-
213.0544	242	C11H7N3O2-
216.091	22	C12H12N2O2-
222.1036	216	C14H12N3-
223.124	33	C15H15N2-
225.1396	124	C15H17N2-
239.0703	51	C13H9N3O2-
248.1198	19	C16H14N3-
250.135	135	C16H16N3-
252.1508	71	C16H18N3-
267.1012	41	C15H13N3O2-
