Mass spectrum: Chloranocryl; LC-ESI-QFT; MS2; CE: 45; R=17500; [M-H]-
Name: Chloranocryl
Name: N-(3,4-dichlorophenyl)-2-methylprop-2-enamide
Formula: C10H9Cl2NO
Exact mass: 229.0061
SMILES: CC(=C)C(=O)NC1=CC=C(Cl)C(Cl)=C1
InChI: InChI=1S/C10H9Cl2NO/c1-6(2)10(14)13-7-3-4-8(11)9(12)5-7/h3-5H,1H2,2H3,(H,13,14)
Instrument: Q Exactive Orbitrap (Thermo Scientific)
Instrument type: LC-ESI-QFT
Ms type: MS2
Ion mode: NEGATIVE
Ionization: ESI
Fragmentation mode: HCD
Collision energy: 45
Resolution: 17500
Column name: Acquity BEH C18 1.7um, 2.1x150mm (Waters)
Retention time: 17.863 min
Base peak: 227.999
Precursor m/z: 227.9988
Precursor type: [M-H]-
Precursor intensity: 37137360.13672
m/z	relative intensity	assigned
55.0189	487	C3H3O-
70.9461	8	Cl2H-
121.9805	1	C6HClN-
124.9799	4	C6H2ClO-
128.0504	2	C9H6N-
149.9752	67	C7HClNO-
155.0374	3	C10H5NO-
156.0455	206	C10H6NO-
159.9726	45	C6H4Cl2N-
160.9566	82	C6H3Cl2O-
176.9984	7	C9H4ClNO-
183.9732	7	C8H4Cl2N-
185.9519	220	C7H2Cl2NO-
187.9684	1	C7H4Cl2NO-
190.0065	43	C10H5ClNO-
192.0222	24	C10H7ClNO-
197.988	15	C9H6Cl2N-
200.0038	9	C9H8Cl2N-
209.9881	5	C10H6Cl2N-
210.9722	2	C10H5Cl2O-
211.9675	4	C9H4Cl2NO-
211.9795	2	C10H6Cl2O-
212.9753	15	C9H5Cl2NO-
225.9833	156	C10H6Cl2NO-
227.9989	999	C10H8Cl2NO-
