Mass spectrum: UK-373911; LC-ESI-QFT; MS2; CE: 90; R=17500; [M+H]+
Name: UK-373911
Name: (5S,8S)-5-(3,4-dichlorophenyl)-8-(methylamino)-5,6,7,8-tetrahydronaphthalene-2-sulfonamide
Formula: C17H18Cl2N2O2S
Exact mass: 384.0466
SMILES: CN[C@H]1CC[C@@H](C2=CC=C(Cl)C(Cl)=C2)C2=CC=C(C=C12)S(N)(=O)=O
InChI: InChI=1S/C17H18Cl2N2O2S/c1-21-17-7-5-12(10-2-6-15(18)16(19)8-10)13-4-3-11(9-14(13)17)24(20,22)23/h2-4,6,8-9,12,17,21H,5,7H2,1H3,(H2,20,22,23)/t12-,17-/m0/s1
Instrument: Q Exactive Orbitrap (Thermo Scientific)
Instrument type: LC-ESI-QFT
Ms type: MS2
Ion mode: POSITIVE
Ionization: ESI
Fragmentation mode: HCD
Collision energy: 90
Resolution: 17500
Column name: Acquity BEH C18 1.7um, 2.1x150mm (Waters)
Retention time: 14.686 min
Base peak: 79.0211
Precursor m/z: 385.0539
Precursor type: [M+H]+
Precursor intensity: 4254539.375
m/z	relative intensity	assigned
63.0229	9	C5H3+
72.9839	18	C3H2Cl+
79.0543	2	C6H7+
89.0386	105	C7H5+
91.0542	8	C7H7+
96.984	10	C5H2Cl+
98.9996	85	C5H4Cl+
103.0543	9	C8H7+
115.0543	58	C9H7+
117.07	6	C9H9+
122.9996	448	C7H4Cl+
124.0075	120	C7H5Cl+
125.0152	5	C7H6Cl+
127.0542	26	C10H7+
128.0621	253	C10H8+
129.0699	9	C10H9+
132.9607	58	C5H3Cl2+
143.0732	10	C10H9N+
144.081	6	C10H10N+
145.0649	35	C10H9O+
155.0605	51	C10H7N2+
158.9764	999	C7H5Cl2+
189.07	19	C15H9+
202.0779	60	C16H10+
203.0857	66	C16H11+
204.0935	36	C16H12+
238.0544	15	C16H11Cl+
246.0001	3	C14H8Cl2+
