Mass spectrum: Loratadine; LC-ESI-QFT; MS2; CE: 45; R=17500; [M+H]+
Name: Loratadine
Name: ethyl 4-(13-chloro-4-azatricyclo[9.4.0.03,8]pentadeca-1(11),3(8),4,6,12,14-hexaen-2-ylidene)piperidine-1-carboxylate
Formula: C22H23ClN2O2
Exact mass: 382.1448
SMILES: CCOC(=O)N1CCC(CC1)=C1C2=C(CCC3=C1N=CC=C3)C=C(Cl)C=C2
InChI: InChI=1S/C22H23ClN2O2/c1-2-27-22(26)25-12-9-15(10-13-25)20-19-8-7-18(23)14-17(19)6-5-16-4-3-11-24-21(16)20/h3-4,7-8,11,14H,2,5-6,9-10,12-13H2,1H3
Instrument: Q Exactive Orbitrap (Thermo Scientific)
Instrument type: LC-ESI-QFT
Ms type: MS2
Ion mode: POSITIVE
Ionization: ESI
Fragmentation mode: HCD
Collision energy: 45
Resolution: 17500
Column name: Acquity BEH C18 1.7um, 2.1x150mm (Waters)
Retention time: 17.754 min
Base peak: 79.0212
Precursor m/z: 383.1521
Precursor type: [M+H]+
Precursor intensity: 28297262.5
m/z	relative intensity	assigned
58.065	4	C3H8N+
67.0542	2	C5H7+
80.0493	2	C5H6N+
82.0651	15	C5H8N+
88.0393	9	C3H6NO2+
102.0549	14	C4H8NO2+
106.0651	1	C7H8N+
110.0964	1	C7H12N+
116.0701	1	C5H10NO2+
118.065	1	C8H8N+
126.0549	12	C6H8NO2+
130.065	2	C9H8N+
144.0807	1	C10H10N+
154.0796	1	C12H10+
154.0861	14	C8H12NO2+
193.0887	3	C14H11N+
217.0885	1	C16H11N+
218.0965	1	C16H12N+
219.1043	1	C16H13N+
226.0418	4	C14H9ClN+
227.0495	2	C14H10ClN+
228.0572	55	C17H8O+
229.0651	50	C14H12ClN+
230.0957	4	C17H12N+
231.1039	9	C17H13N+
232.1121	9	C17H14N+
233.1199	9	C17H15N+
240.0573	3	C15H11ClN+
242.0728	2	C18H10O+
242.0952	1	C12H17ClNO2+
243.1041	14	C18H13N+
244.1119	13	C18H14N+
245.1198	16	C18H15N+
246.1276	34	C18H16N+
247.0862	4	C16H11N2O+
247.1355	16	C18H17N+
248.0942	28	C16H12N2O+
251.0493	1	C19H7O+
252.0572	12	C16H11ClN+
253.0652	58	C16H12ClN+
254.0722	5	C19H10O+
256.1125	3	C19H14N+
257.1198	17	C19H15N+
258.1276	135	C19H16N+
259.1354	604	C19H17N+
260.143	2	C19H18N+
264.058	1	C17H11ClN+
265.0655	3	C17H12ClN+
266.073	150	C17H13ClN+
267.0807	923	C17H14ClN+
268.0884	28	C20H12O+
270.0553	35	C15H11ClN2O+
277.0657	3	C18H12ClN+
278.073	11	C18H13ClN+
279.0808	151	C18H14ClN+
280.0886	165	C18H15ClN+
281.0964	413	C18H16ClN+
282.1041	200	C21H14O+
283.0629	37	C19H9NO2+
286.1103	1	C19H14N2O+
287.1181	1	C19H15N2O+
292.0885	76	C22H12O+
293.0604	1	C18H12ClNO+
294.1041	418	C22H14O+
301.133	8	C20H17N2O+
302.1412	71	C20H18N2O+
310.1364	1	C20H21ClN+
311.1307	22	C22H17NO+
320.0833	8	C20H15ClNO+
322.0865	77	C22H12NO2+
335.0946	10	C20H16ClN2O+
337.1099	999	C20H18ClN2O+
339.162	63	C21H24ClN2+
348.183	6	C22H24N2O2+
354.1126	1	C20H19ClN2O2+
355.1206	14	C20H20ClN2O2+
381.1363	1	C22H22ClN2O2+
383.1519	73	C22H24ClN2O2+
