Mass spectrum: Tebufenozide; LC-ESI-QFT; MS2; CE: 30; R=17500; [M+H]+
Name: Tebufenozide
Name: N-tert-butyl-N'-(4-ethylbenzoyl)-3,5-dimethylbenzohydrazide
Formula: C22H28N2O2
Exact mass: 352.2151
SMILES: CCC1=CC=C(C=C1)C(=O)NN(C(=O)C1=CC(C)=CC(C)=C1)C(C)(C)C
InChI: InChI=1S/C22H28N2O2/c1-7-17-8-10-18(11-9-17)20(25)23-24(22(4,5)6)21(26)19-13-15(2)12-16(3)14-19/h8-14H,7H2,1-6H3,(H,23,25)
Instrument: Q Exactive Orbitrap (Thermo Scientific)
Instrument type: LC-ESI-QFT
Ms type: MS2
Ion mode: POSITIVE
Ionization: ESI
Fragmentation mode: HCD
Collision energy: 30
Resolution: 17500
Column name: Acquity BEH C18 1.7um, 2.1x150mm (Waters)
Retention time: 18.246 min
Base peak: 79.0212
Precursor m/z: 353.2224
Precursor type: [M+H]+
Precursor intensity: 5511718.625
m/z	relative intensity	assigned
72.0808	110	C4H10N+
91.0543	189	C7H7+
92.0576	136	C2H8N2O2+
119.0493	33	C8H7O+
123.0806	19	C8H11O+
133.0649	999	C9H9O+
162.1279	32	C11H16N+
241.0101	18	C20H+
242.0154	21	C20H2+
269.0384	903	C22H5+
