Mass spectrum: MEHP; LC-ESI-QFT; MS2; CE: 15; R=17500; [M-H]-
Name: MEHP
Name: 2-(((2-Ethylhexyl)oxy)carbonyl)benzoic acid
Name: 2-(2-ethylhexoxycarbonyl)benzoic acid
Formula: C16H22O4
Exact mass: 278.1518
SMILES: CCCCC(CC)COC(=O)C1=CC=CC=C1C(O)=O
InChI: InChI=1S/C16H22O4/c1-3-5-8-12(4-2)11-20-16(19)14-10-7-6-9-13(14)15(17)18/h6-7,9-10,12H,3-5,8,11H2,1-2H3,(H,17,18)
Instrument: Q Exactive Orbitrap (Thermo Scientific)
Instrument type: LC-ESI-QFT
Ms type: MS2
Ion mode: NEGATIVE
Ionization: ESI
Fragmentation mode: HCD
Collision energy: 15
Resolution: 17500
Column name: Acquity BEH C18 1.7um, 2.1x150mm (Waters)
Retention time: 19.082 min
Base peak: 277.1444
Precursor m/z: 277.1445
Precursor type: [M-H]-
Precursor intensity: 37099660.29395
m/z	relative intensity	assigned
77.0399	4	C6H5-
93.0347	3	C6H5O-
105.0346	2	C7H5O-
107.0502	75	C7H7O-
121.0295	283	C7H5O2-
125.0611	1	C7H9O2-
127.1128	389	C8H15O-
129.1285	38	C8H17O-
134.0373	999	C8H6O2-
135.0452	24	C8H7O2-
147.0088	89	C8H3O3-
149.0246	3	C8H5O3-
151.0402	1	C8H7O3-
155.108	2	C9H15O2-
165.0193	13	C8H5O4-
173.1182	2	C9H17O3-
203.1438	3	C14H19O-
205.1597	87	C14H21O-
231.1386	5	C15H19O2-
233.1547	158	C15H21O2-
277.1445	774	C16H21O4-
