Mass spectrum: Flubendiamide; LC-ESI-QFT; MS2; CE: 90; R=17500; [M-H]-
Name: Flubendiamide
Name: 1-N-[4-(1,1,1,2,3,3,3-heptafluoropropan-2-yl)-2-methylphenyl]-3-iodo-2-N-(2-methyl-1-methylsulfonylpropan-2-yl)benzene-1,2-dicarboxamide
Formula: C23H22F7IN2O4S
Exact mass: 682.0233
SMILES: CC1=CC(=CC=C1NC(=O)C1=CC=CC(I)=C1C(=O)NC(C)(C)CS(C)(=O)=O)C(F)(C(F)(F)F)C(F)(F)F
InChI: InChI=1S/C23H22F7IN2O4S/c1-12-10-13(21(24,22(25,26)27)23(28,29)30)8-9-16(12)32-18(34)14-6-5-7-15(31)17(14)19(35)33-20(2,3)11-38(4,36)37/h5-10H,11H2,1-4H3,(H,32,34)(H,33,35)
Instrument: Q Exactive Orbitrap (Thermo Scientific)
Instrument type: LC-ESI-QFT
Ms type: MS2
Ion mode: NEGATIVE
Ionization: ESI
Fragmentation mode: HCD
Collision energy: 90
Resolution: 17500
Column name: Acquity BEH C18 1.7um, 2.1x150mm (Waters)
Retention time: 18.117 min
Base peak: 243.1601
Precursor m/z: 681.016
Precursor type: [M-H]-
Precursor intensity: 30743256.42969
m/z	relative intensity	assigned
50.0036	8	C3N-
63.9625	165	O2S-
68.9958	47	CF3-
73.0084	36	C6H-
74.0036	23	C5N-
76.0193	225	C5H2N-
78.986	13	CH3O2S-
79.9574	27	O3S-
92.9958	94	C3F3-
93.0011	15	C2H5O2S-
97.0084	32	C8H-
98.0036	13	C7N-
100.0006	2	C4F2N-
100.0194	11	C7H2N-
116.9958	228	C5F3-
123.0053	30	C7HF2-
124.0004	8	C6F2N-
124.0193	78	C9H2N-
126.905	999	I-
134.0037	210	C10N-
142.0099	1	C9HFN-
143.0114	132	C7H2F3-
144.0254	19	CH4F6N-
147.0051	18	C9HF2-
154.0099	368	C10HFN-
167.0114	37	C9H2F3-
174.0161	643	C10H2F2N-
187.0176	3	C9H3F4-
194.0223	178	C10H3F3N-
214.0289	2	C10H4F4N-
