Mass spectrum: Fosthiazate; LC-ESI-QFT; MS2; CE: 60; R=17500; [M+H]+
Name: Fosthiazate
Name: 3-[butan-2-ylsulfanyl(ethoxy)phosphoryl]-1,3-thiazolidin-2-one
Formula: C9H18NO3PS2
Exact mass: 283.0466
SMILES: CCOP(=O)(SC(C)CC)N1CCSC1=O
InChI: InChI=1S/C9H18NO3PS2/c1-4-8(3)16-14(12,13-5-2)10-6-7-15-9(10)11/h8H,4-7H2,1-3H3
Instrument: Q Exactive Orbitrap (Thermo Scientific)
Instrument type: LC-ESI-QFT
Ms type: MS2
Ion mode: POSITIVE
Ionization: ESI
Fragmentation mode: HCD
Collision energy: 60
Resolution: 17500
Column name: Acquity BEH C18 1.7um, 2.1x150mm (Waters)
Retention time: 15.929 min
Base peak: 79.0211
Precursor m/z: 284.0538
Precursor type: [M+H]+
Precursor intensity: 8034086.875
m/z	relative intensity	assigned
55.0542	3	C4H7+
57.0699	16	C4H9+
61.0107	26	C2H5S+
76.0216	16	C2H6NS+
104.0165	999	C3H6NOS+
114.9614	59	H4O3PS+
119.9937	15	C3H6NS2+
121.9823	6	C2H5NOPS+
124.0159	4	C2H7NO3P+
137.9596	46	C2H5NPS2+
139.9568	14	CH3NO3PS+
139.993	6	C2H7NO2PS+
154.0653	3	C5H14O3S+
155.0685	7	C8H11O3+
183.0873	6	C7H19OS2+
199.9601	12	C3H7NO3PS2+
