Mass spectrum: 4-Ethoxy-4-oxobut-2-enoic acid; LC-ESI-QFT; MS2; CE: 30; R=17500; [M-H]-
Name: 4-Ethoxy-4-oxobut-2-enoic acid
Formula: C6H8O4
Exact mass: 144.0423
SMILES: CCOC(=O)C=CC(O)=O
InChI: InChI=1S/C6H8O4/c1-2-10-6(9)4-3-5(7)8/h3-4H,2H2,1H3,(H,7,8)
Instrument: Q Exactive Orbitrap (Thermo Scientific)
Instrument type: LC-ESI-QFT
Ms type: MS2
Ion mode: NEGATIVE
Ionization: ESI
Fragmentation mode: HCD
Collision energy: 30
Resolution: 17500
Column name: Acquity BEH C18 1.7um, 2.1x150mm (Waters)
Retention time: 12.845 min
Base peak: 143.035
Precursor m/z: 143.035
Precursor type: [M-H]-
Precursor intensity: 3597756.532227
m/z	relative intensity	assigned
55.0189	19	C3H3O-
57.0345	11	C3H5O-
69.0347	56	C4H5O-
71.0139	999	C3H3O2-
71.0503	111	C4H7O-
75.0087	11	C2H3O3-
81.0346	25	C5H5O-
84.0217	139	C4H4O2-
99.0453	40	C5H7O2-
143.0351	55	C6H7O4-
