Mass spectrum: CP-457677; LC-ESI-QFT; MS2; CE: 45; R=17500; [M+H]+
Name: CP-457677
Name: 3-Pyridinecarboxamide, 2-(4-fluorophenoxy)-N-((4-(1-hydroxy-1-methylethyl)phenyl)methyl)-
Name: 2-(4-fluorophenoxy)-N-[[4-(2-hydroxypropan-2-yl)phenyl]methyl]pyridine-3-carboxamide
Formula: C22H21FN2O3
Exact mass: 380.1536
SMILES: CC(C)(O)C1=CC=C(CNC(=O)C2=CC=CN=C2OC2=CC=C(F)C=C2)C=C1
InChI: InChI=1S/C22H21FN2O3/c1-22(2,27)16-7-5-15(6-8-16)14-25-20(26)19-4-3-13-24-21(19)28-18-11-9-17(23)10-12-18/h3-13,27H,14H2,1-2H3,(H,25,26)
Instrument: Q Exactive Orbitrap (Thermo Scientific)
Instrument type: LC-ESI-QFT
Ms type: MS2
Ion mode: POSITIVE
Ionization: ESI
Fragmentation mode: HCD
Collision energy: 45
Resolution: 17500
Column name: Acquity BEH C18 1.7um, 2.1x150mm (Waters)
Retention time: 16.689 min
Base peak: 79.0211
Precursor m/z: 381.1609
Precursor type: [M+H]+
Precursor intensity: 8701590.5
m/z	relative intensity	assigned
57.0335	73	C3H5O+
59.0492	6	C3H7O+
65.0385	1	C5H5+
91.0543	94	C7H7+
93.0699	2	C7H9+
103.0544	2	C8H7+
105.07	16	C8H9+
107.0856	63	C8H11+
109.065	1	C7H9O+
115.0542	6	C9H7+
116.0621	22	C9H8+
119.0857	12	C9H11+
121.1012	9	C9H13+
128.0621	1	C10H8+
129.07	22	C10H9+
131.0856	999	C10H11+
132.0807	1	C9H10N+
133.0649	1	C9H9O+
134.0727	21	C9H10O+
147.1047	3	C10H13N+
149.0962	150	C10H13O+
188.0509	6	C11H7FNO+
216.0457	382	C12H7FNO2+
251.1181	1	C16H15N2O+
363.1493	1	C22H20FN2O2+
