Mass spectrum: Flutolanil; LC-ESI-QFT; MS2; CE: 75; R=17500; [M+H]+
Name: Flutolanil
Name: N-(3-propan-2-yloxyphenyl)-2-(trifluoromethyl)benzamide
Formula: C17H16F3NO2
Exact mass: 323.1133
SMILES: CC(C)OC1=CC(NC(=O)C2=C(C=CC=C2)C(F)(F)F)=CC=C1
InChI: InChI=1S/C17H16F3NO2/c1-11(2)23-13-7-5-6-12(10-13)21-16(22)14-8-3-4-9-15(14)17(18,19)20/h3-11H,1-2H3,(H,21,22)
Instrument: Q Exactive Orbitrap (Thermo Scientific)
Instrument type: LC-ESI-QFT
Ms type: MS2
Ion mode: POSITIVE
Ionization: ESI
Fragmentation mode: HCD
Collision energy: 75
Resolution: 17500
Column name: Acquity BEH C18 1.7um, 2.1x150mm (Waters)
Retention time: 17.457 min
Base peak: 79.0211
Precursor m/z: 324.1206
Precursor type: [M+H]+
Precursor intensity: 24353351.21875
m/z	relative intensity	assigned
53.0022	14	C3HO+
53.0386	1	C4H5+
53.9975	2	C2NO+
55.0178	16	C3H3O+
65.0386	999	C5H5+
68.9971	6	C3HO2+
69.0335	2	C4H5O+
71.0128	1	C3H3O2+
78.0338	1	C5H4N+
79.0179	3	C5H3O+
83.0127	2	C4H3O2+
83.0291	2	C5H4F+
83.0492	2	C5H7O+
92.0495	1	C6H6N+
93.0335	18	C6H5O+
95.0492	1	C6H7O+
97.0285	1	C5H5O2+
102.0339	2	C7H4N+
104.0495	1	C7H6N+
110.0363	6	C6H6O2+
111.0441	252	C6H7O2+
113.0399	1	C6H6FO+
115.0543	1	C9H7+
120.0445	6	C7H6NO+
123.0243	2	C7H4FO+
125.0598	1	C7H9O2+
130.0288	121	C8H4NO+
130.0399	25	C9H6O+
139.0191	1	C7H4FO2+
139.0543	8	C11H7+
140.0496	3	C10H6N+
145.026	209	C7H4F3+
150.0352	2	C8H5FNO+
159.0603	2	C11H8F+
162.0549	3	C9H8NO2+
166.0651	13	C12H8N+
167.0491	2	C12H7O+
173.0209	142	C8H4F3O+
180.0448	2	C12H6NO+
185.0637	1	C12H8FN+
186.0712	2	C12H9FN+
187.0557	1	C12H8FO+
194.0601	7	C13H8NO+
195.0681	1	C13H9NO+
196.0559	2	C13H7FN+
201.0349	1	C12H6FO2+
212.0705	1	C13H10NO2+
214.0662	12	C13H9FNO+
222.0549	2	C14H8NO2+
224.0509	1	C14H7FNO+
240.0659	1	C12H9F3NO+
242.0612	70	C14H9FNO2+
