Mass spectrum: Diflubenzuron; LC-ESI-QFT; MS2; CE: 90; R=17500; [M-H]-
Name: Diflubenzuron
Name: N-[(4-chlorophenyl)carbamoyl]-2,6-difluorobenzamide
Formula: C14H9ClF2N2O2
Exact mass: 310.0321
SMILES: FC1=CC=CC(F)=C1C(=O)NC(=O)NC1=CC=C(Cl)C=C1
InChI: InChI=1S/C14H9ClF2N2O2/c15-8-4-6-9(7-5-8)18-14(21)19-13(20)12-10(16)2-1-3-11(12)17/h1-7H,(H2,18,19,20,21)
Instrument: Q Exactive Orbitrap (Thermo Scientific)
Instrument type: LC-ESI-QFT
Ms type: MS2
Ion mode: NEGATIVE
Ionization: ESI
Fragmentation mode: HCD
Collision energy: 90
Resolution: 17500
Column name: Acquity BEH C18 1.7um, 2.1x150mm (Waters)
Retention time: 18.369 min
Base peak: 292.098
Precursor m/z: 309.0248
Precursor type: [M-H]-
Precursor intensity: 22283324.45117
m/z	relative intensity	assigned
73.0084	142	C6H-
93.0146	999	C6H2F-
113.0209	149	C6H3F2-
115.0301	22	C7H3N2-
126.0116	38	C6H5ClN-
151.0068	35	C7H4ClN2-
