Mass spectrum: Tebupirimfos; LC-ESI-QFT; MS2; CE: 45; R=17500; [M+H]+
Name: Tebupirimfos
Name: (2-tert-butylpyrimidin-5-yl)oxy-ethoxy-propan-2-yloxy-sulfanylidene-lambda5-phosphane
Formula: C13H23N2O3PS
Exact mass: 318.1167
SMILES: CCOP(=S)(OC(C)C)OC1=CN=C(N=C1)C(C)(C)C
InChI: InChI=1S/C13H23N2O3PS/c1-7-16-19(20,17-10(2)3)18-11-8-14-12(15-9-11)13(4,5)6/h8-10H,7H2,1-6H3
Instrument: Q Exactive Orbitrap (Thermo Scientific)
Instrument type: LC-ESI-QFT
Ms type: MS2
Ion mode: POSITIVE
Ionization: ESI
Fragmentation mode: HCD
Collision energy: 45
Resolution: 17500
Column name: Acquity BEH C18 1.7um, 2.1x150mm (Waters)
Retention time: 19.637 min
Base peak: 79.0211
Precursor m/z: 319.124
Precursor type: [M+H]+
Precursor intensity: 27415860.25
m/z	relative intensity	assigned
57.07	6	C4H9+
97.0397	2	C4H5N2O+
137.0711	1	C7H9N2O+
138.0788	4	C7H10N2O+
153.1022	999	C8H13N2O+
169.0793	32	C8H13N2S+
199.0631	1	C8H12N2O2P+
231.0351	250	C8H12N2O2PS+
249.0457	254	C8H14N2O3PS+
263.0613	46	C9H16N2O3PS+
277.077	70	C10H18N2O3PS+
