Mass spectrum: Buturon; LC-ESI-QFT; MS2; CE: 45; R=17500; [M-H]-
Name: Buturon
Name: 1-but-3-yn-2-yl-3-(4-chlorophenyl)-1-methylurea
Formula: C12H13ClN2O
Exact mass: 236.0716
SMILES: CC(C#C)N(C)C(=O)NC1=CC=C(Cl)C=C1
InChI: InChI=1S/C12H13ClN2O/c1-4-9(2)15(3)12(16)14-11-7-5-10(13)6-8-11/h1,5-9H,2-3H3,(H,14,16)
Instrument: Q Exactive Orbitrap (Thermo Scientific)
Instrument type: LC-ESI-QFT
Ms type: MS2
Ion mode: NEGATIVE
Ionization: ESI
Fragmentation mode: HCD
Collision energy: 45
Resolution: 17500
Column name: Acquity BEH C18 1.7um, 2.1x150mm (Waters)
Retention time: 16.550 min
Base peak: 112.9856
Precursor m/z: 235.0644
Precursor type: [M-H]-
Precursor intensity: 809700.9550781
m/z	relative intensity	assigned
81.0219	15	C4H3NO-
82.0662	54	C5H8N-
96.0454	59	C5H6NO-
123.0564	19	C6H7N2O-
126.0116	999	C6H5ClN-
137.0162	22	C8H6Cl-
151.9907	18	C7H3ClNO-
153.0225	37	C7H6ClN2-
166.0428	43	C9H9ClN-
