Mass spectrum: Methylprednisolone; LC-ESI-QFT; MS2; CE: 90; R=17500; [M+H]+
Name: Methylprednisolone
Formula: C22H30O5
Exact mass: 374.2093
SMILES: C[C@H]1C[C@H]2[C@@H]3CC[C@](O)(C(=O)CO)[C@@]3(C)C[C@H](O)[C@@H]2[C@@]2(C)C=CC(=O)C=C12
InChI: InChI=1S/C22H30O5/c1-12-8-14-15-5-7-22(27,18(26)11-23)21(15,3)10-17(25)19(14)20(2)6-4-13(24)9-16(12)20/h4,6,9,12,14-15,17,19,23,25,27H,5,7-8,10-11H2,1-3H3/t12-,14-,15-,17-,19+,20-,21-,22-/m0/s1
Instrument: Q Exactive Orbitrap (Thermo Scientific)
Instrument type: LC-ESI-QFT
Ms type: MS2
Ion mode: POSITIVE
Ionization: ESI
Fragmentation mode: HCD
Collision energy: 90
Resolution: 17500
Column name: Acquity BEH C18 1.7um, 2.1x150mm (Waters)
Retention time: 16.827 min
Base peak: 79.0211
Precursor m/z: 375.2166
Precursor type: [M+H]+
Precursor intensity: 4895518.8125
m/z	relative intensity	assigned
53.0386	104	C4H5+
55.0179	68	C3H3O+
55.0543	94	C4H7+
65.0385	69	C5H5+
67.0543	167	C5H7+
79.0542	249	C6H7+
81.0698	129	C6H9+
91.0542	999	C7H7+
93.0699	185	C7H9+
95.0492	226	C6H7O+
95.0854	34	C7H11+
103.0542	101	C8H7+
105.0699	583	C8H9+
107.0491	68	C7H7O+
107.0855	87	C8H11+
109.0648	68	C7H9O+
115.0542	414	C9H7+
116.062	101	C9H8+
117.07	170	C9H9+
119.0854	111	C9H11+
121.0648	452	C8H9O+
128.062	255	C10H8+
129.0699	205	C10H9+
130.0776	65	C10H10+
131.0492	109	C9H7O+
131.0855	86	C10H11+
132.0571	65	C9H8O+
133.1013	61	C10H13+
135.0805	102	C9H11O+
141.0701	217	C11H9+
142.0778	223	C11H10+
143.0856	50	C11H11+
144.0569	77	C10H8O+
145.0647	215	C10H9O+
145.1008	35	C11H13+
146.0727	156	C10H10O+
147.0804	34	C10H11O+
152.0617	87	C12H8+
153.0699	90	C12H9+
155.0853	90	C12H11+
158.0723	144	C11H10O+
159.0805	79	C11H11O+
161.096	67	C11H13O+
165.0697	281	C13H9+
166.0776	89	C13H10+
167.0855	76	C13H11+
169.0644	95	C12H9O+
170.0725	72	C12H10O+
171.0805	129	C12H11O+
172.0882	102	C12H12O+
178.0777	206	C14H10+
179.086	153	C14H11+
181.0649	160	C13H9O+
183.0807	82	C13H11O+
185.096	112	C13H13O+
190.078	50	C15H10+
191.0858	88	C15H11+
192.0935	33	C15H12+
193.1012	84	C15H13+
195.0806	263	C14H11O+
196.0883	62	C14H12O+
197.0961	63	C14H13O+
203.0853	94	C16H11+
205.1009	54	C16H13+
207.0806	100	C15H11O+
208.0884	98	C15H12O+
209.0961	202	C15H13O+
210.1039	46	C15H14O+
215.0856	41	C17H11+
217.1019	34	C17H13+
220.0888	39	C16H12O+
221.096	93	C16H13O+
223.1114	71	C16H15O+
