Mass spectrum: 3-Methyl-1-phenyl-1H-pyrazol-5-amine; LC-ESI-QFT; MS2; CE: 90; R=17500; [M+H]+
Name: 3-Methyl-1-phenyl-1H-pyrazol-5-amine
Name: 5-methyl-2-phenylpyrazol-3-amine
Formula: C10H11N3
Exact mass: 173.0953
SMILES: CC1=NN(C(N)=C1)C1=CC=CC=C1
InChI: InChI=1S/C10H11N3/c1-8-7-10(11)13(12-8)9-5-3-2-4-6-9/h2-7H,11H2,1H3
Instrument: Q Exactive Orbitrap (Thermo Scientific)
Instrument type: LC-ESI-QFT
Ms type: MS2
Ion mode: POSITIVE
Ionization: ESI
Fragmentation mode: HCD
Collision energy: 90
Resolution: 17500
Column name: Acquity BEH C18 1.7um, 2.1x150mm (Waters)
Retention time: 9.555 min
Base peak: 79.0211
Precursor m/z: 174.1026
Precursor type: [M+H]+
Precursor intensity: 4211525.53125
m/z	relative intensity	assigned
51.023	2	C4H3+
53.0387	21	C4H5+
54.034	3	C3H4N+
56.0495	2	C3H6N+
65.0386	180	C5H5+
68.0243	8	C2H2N3+
68.0494	6	C4H6N+
71.0602	4	C3H7N2+
77.0385	7	C6H5+
79.0542	286	C6H7+
80.0493	5	C5H6N+
81.0447	4	C4H5N2+
82.0527	6	C4H6N2+
83.0603	12	C4H7N2+
89.0386	57	C7H5+
91.0543	27	C7H7+
92.0495	232	C6H6N+
93.0574	127	C6H7N+
95.0492	79	C4H5N3+
96.0559	3	C4H6N3+
97.0635	4	C4H7N3+
103.0543	41	C8H7+
104.0495	51	C7H6N+
105.0448	24	C6H5N2+
105.07	8	C8H9+
106.0652	999	C7H8N+
107.0605	8	C6H7N2+
115.0544	16	C9H7+
116.0496	80	C8H6N+
117.0573	128	C8H7N+
118.0525	6	C7H6N2+
118.0651	29	C8H8N+
119.0604	7	C7H7N2+
120.0809	5	C8H10N+
128.0496	11	C9H6N+
130.0652	156	C9H8N+
131.0606	21	C8H7N2+
131.0731	9	C9H9N+
132.0683	118	C8H8N2+
132.0807	10	C9H10N+
133.0761	149	C8H9N2+
134.0714	68	C7H8N3+
140.0496	8	C10H6N+
142.0526	22	C9H6N2+
144.0809	30	C10H10N+
145.0762	6	C9H9N2+
145.0888	4	C10H11N+
146.0841	3	C9H10N2+
147.0916	6	C9H11N2+
156.0683	19	C10H8N2+
157.0761	14	C10H9N2+
159.0791	2	C9H9N3+
174.1026	29	C10H12N3+
