Mass spectrum: AM580; LC-ESI-QFT; MS2; CE: 90; R=17500; [M-H]-
Name: AM580
Name: 4-{[(5,5,8,8-Tetramethyl-5,6,7,8-tetrahydronaphthalen-2-yl)carbonyl]amino}benzoic acid
Name: 4-[(5,5,8,8-tetramethyl-6,7-dihydronaphthalene-2-carbonyl)amino]benzoic acid
Formula: C22H25NO3
Exact mass: 351.1834
SMILES: CC1(C)CCC(C)(C)C2=C1C=CC(=C2)C(=O)NC1=CC=C(C=C1)C(O)=O
InChI: InChI=1S/C22H25NO3/c1-21(2)11-12-22(3,4)18-13-15(7-10-17(18)21)19(24)23-16-8-5-14(6-9-16)20(25)26/h5-10,13H,11-12H2,1-4H3,(H,23,24)(H,25,26)
Instrument: Q Exactive Orbitrap (Thermo Scientific)
Instrument type: LC-ESI-QFT
Ms type: MS2
Ion mode: NEGATIVE
Ionization: ESI
Fragmentation mode: HCD
Collision energy: 90
Resolution: 17500
Column name: Acquity BEH C18 1.7um, 2.1x150mm (Waters)
Retention time: 19.353 min
Base peak: 350.1762
Precursor m/z: 350.1762
Precursor type: [M-H]-
Precursor intensity: 16620993.66211
m/z	relative intensity	assigned
75.0241	438	C6H3-
90.035	21	C6H4N-
92.0506	999	C6H6N-
93.0346	305	C6H5O-
115.0554	44	C9H7-
118.0299	511	C7H4NO-
119.0139	148	C7H3O2-
122.025	23	C6H4NO2-
129.0709	185	C10H9-
136.0406	24	C7H6NO2-
137.0247	14	C7H5O3-
141.0711	59	C11H9-
143.0867	44	C11H11-
155.0867	152	C12H11-
157.1022	65	C12H13-
159.0818	28	C11H11O-
162.0197	184	C8H4NO3-
171.118	105	C13H15-
173.0972	12	C12H13O-
185.0975	22	C13H13O-
222.0919	18	C15H12NO-
234.0925	20	C16H12NO-
236.1082	32	C16H14NO-
238.1237	15	C16H16NO-
246.0925	68	C17H12NO-
247.1005	20	C17H13NO-
248.1083	196	C17H14NO-
260.1082	236	C18H14NO-
261.1162	58	C18H15NO-
262.124	95	C18H16NO-
262.1602	27	C19H20N-
266.0828	11	C16H12NO3-
274.1239	709	C19H16NO-
275.1325	10	C19H17NO-
276.1394	368	C19H18NO-
288.1399	26	C20H18NO-
290.1552	940	C20H20NO-
291.0903	22	C18H13NO3-
292.0985	78	C18H14NO3-
304.0978	209	C19H14NO3-
305.1062	31	C19H15NO3-
306.1143	27	C19H16NO3-
318.1136	566	C20H16NO3-
320.1292	101	C20H18NO3-
334.1449	214	C21H20NO3-
