Mass spectrum: Raloxifene; LC-ESI-QFT; MS2; CE: 60; R=17500; [M-H]-
Name: Raloxifene
Name: [6-hydroxy-2-(4-hydroxyphenyl)-1-benzothiophen-3-yl]-[4-(2-piperidin-1-ylethoxy)phenyl]methanone
Formula: C28H27NO4S
Exact mass: 473.1661
SMILES: OC1=CC=C(C=C1)C1=C(C(=O)C2=CC=C(OCCN3CCCCC3)C=C2)C2=CC=C(O)C=C2S1
InChI: InChI=1S/C28H27NO4S/c30-21-8-4-20(5-9-21)28-26(24-13-10-22(31)18-25(24)34-28)27(32)19-6-11-23(12-7-19)33-17-16-29-14-2-1-3-15-29/h4-13,18,30-31H,1-3,14-17H2
Instrument: Q Exactive Orbitrap (Thermo Scientific)
Instrument type: LC-ESI-QFT
Ms type: MS2
Ion mode: NEGATIVE
Ionization: ESI
Fragmentation mode: HCD
Collision energy: 60
Resolution: 17500
Column name: Acquity BEH C18 1.7um, 2.1x150mm (Waters)
Retention time: 14.256 min
Base peak: 472.1585
Precursor m/z: 472.1588
Precursor type: [M-H]-
Precursor intensity: 9476415.706055
m/z	relative intensity	assigned
56.9804	4	C2HS-
91.019	3	C6H3O-
93.0346	125	C6H5O-
123.9987	3	C6H4OS-
147.9991	7	C8H4OS-
180.0578	7	C13H8O-
181.0658	30	C13H9O-
183.0274	56	C12H7S-
184.0299	3	C15H4-
195.0447	3	C13H7O2-
199.0221	7	C12H7OS-
201.0379	5	C12H9OS-
208.0531	10	C14H8O2-
210.0137	4	C13H6OS-
211.0224	280	C13H7OS-
212.0302	480	C13H8OS-
213.0376	5	C13H9OS-
215.0173	4	C12H7O2S-
223.0229	2	C14H7OS-
225.0371	2	C14H9OS-
227.0173	8	C13H7O2S-
229.0327	14	C13H9O2S-
238.0097	35	C14H6O2S-
239.0173	999	C14H7O2S-
240.025	897	C14H8O2S-
241.0329	443	C14H9O2S-
243.0127	3	C13H7O3S-
253.0329	8	C15H9O2S-
254.0407	7	C15H10O2S-
266.0043	48	C15H6O3S-
266.0404	4	C16H10O2S-
267.0122	180	C15H7O3S-
271.0759	5	C19H11O2-
275.0531	2	C18H11OS-
278.0396	2	C17H10O2S-
284.0151	13	C15H8O4S-
287.0539	23	C19H11OS-
289.033	11	C18H9O2S-
290.04	3	C18H10O2S-
298.063	10	C20H10O3-
299.0709	13	C20H11O3-
302.0405	8	C19H10O2S-
303.0486	40	C19H11O2S-
304.0554	11	C19H12O2S-
305.0277	7	C18H9O3S-
313.0325	3	C20H9O2S-
314.0402	3	C20H10O2S-
315.0484	27	C20H11O2S-
316.056	43	C20H12O2S-
319.0427	2	C25H5N-
327.0649	4	C21H11O4-
330.0353	21	C20H10O3S-
331.0435	129	C20H11O3S-
332.0512	152	C20H12O3S-
333.0586	3	C26H7N-
341.0267	3	C27H3N-
343.0432	119	C21H11O3S-
359.0385	97	C21H11O4S-
360.0463	324	C21H12O4S-
361.0541	20	C21H13O4S-
