Mass spectrum: Hexylparaben; LC-ESI-QFT; MS2; CE: 30; R=17500; [M-H]-
Name: Hexylparaben
Name: hexyl 4-hydroxybenzoate
Formula: C13H18O3
Exact mass: 222.1256
SMILES: CCCCCCOC(=O)C1=CC=C(O)C=C1
InChI: InChI=1S/C13H18O3/c1-2-3-4-5-10-16-13(15)11-6-8-12(14)9-7-11/h6-9,14H,2-5,10H2,1H3
Instrument: Q Exactive Orbitrap (Thermo Scientific)
Instrument type: LC-ESI-QFT
Ms type: MS2
Ion mode: NEGATIVE
Ionization: ESI
Fragmentation mode: HCD
Collision energy: 30
Resolution: 17500
Column name: Acquity BEH C18 1.7um, 2.1x150mm (Waters)
Retention time: 18.967 min
Base peak: 221.1183
Precursor m/z: 221.1183
Precursor type: [M-H]-
Precursor intensity: 46102995.30273
m/z	relative intensity	assigned
82.006	1	C4H2O2-
91.0189	1	C6H3O-
92.0263	14	C6H4O-
93.0346	81	C6H5O-
95.0139	16	C5H3O2-
99.0817	1	C6H11O-
108.0217	14	C6H4O2-
119.0137	3	C7H3O2-
121.0295	2	C7H5O2-
123.0088	1	C6H3O3-
136.0166	214	C7H4O3-
137.0244	213	C7H5O3-
177.1285	2	C12H17O-
221.1183	999	C13H17O3-
