Mass spectrum: Indoxacarb; LC-ESI-QFT; MS2; CE: 60; R=17500; [M+H]+
Name: Indoxacarb
Name: methyl (4aS)-7-chloro-2-[methoxycarbonyl-[4-(trifluoromethoxy)phenyl]carbamoyl]-3,5-dihydroindeno[1,2-e][1,3,4]oxadiazine-4a-carboxylate
Formula: C22H17ClF3N3O7
Exact mass: 527.0707
SMILES: COC(=O)N(C(=O)N1CO[C@]2(CC3=C(C=CC(Cl)=C3)C2=N1)C(=O)OC)C1=CC=C(OC(F)(F)F)C=C1
InChI: InChI=1S/C22H17ClF3N3O7/c1-33-18(30)21-10-12-9-13(23)3-8-16(12)17(21)27-28(11-35-21)19(31)29(20(32)34-2)14-4-6-15(7-5-14)36-22(24,25)26/h3-9H,10-11H2,1-2H3/t21-/m0/s1
Instrument: Q Exactive Orbitrap (Thermo Scientific)
Instrument type: LC-ESI-QFT
Ms type: MS2
Ion mode: POSITIVE
Ionization: ESI
Fragmentation mode: HCD
Collision energy: 60
Resolution: 17500
Column name: Acquity BEH C18 1.7um, 2.1x150mm (Waters)
Retention time: 18.917 min
Base peak: 79.0211
Precursor m/z: 528.078
Precursor type: [M+H]+
Precursor intensity: 5874852.75
m/z	relative intensity	assigned
53.002	2	C3HO+
53.0386	8	C4H5+
56.0131	401	C2H2NO+
58.0288	7	C2H4NO+
63.0229	3	C5H3+
68.9947	8	CF3+
69.9924	10	C2NO2+
74.0602	2	C3H8NO+
75.023	4	C6H3+
75.044	20	C3H7O2+
77.0386	2	C6H5+
78.0338	3	C5H4N+
81.0146	6	C2H3F2O+
81.0336	4	C5H5O+
83.0292	5	C5H4F+
86.0237	4	C3H4NO2+
89.0387	6	C7H5+
90.0338	17	C6H4N+
95.0492	22	C6H7O+
96.0445	7	C5H6NO+
102.0463	9	C8H6+
103.0542	2	C8H7+
104.0495	114	C7H6N+
105.0448	9	C6H5N2+
106.0288	14	C6H4NO+
109.0449	5	C7H6F+
111.0242	2	C6H4FO+
113.0389	6	C9H5+
114.0339	7	C8H4N+
115.0543	39	C9H7+
116.0497	2	C8H6N+
116.0621	29	C9H8+
121.0522	2	C7H7NO+
122.9997	24	C7H4Cl+
123.0351	3	C6H4FN2+
124.0075	4	C7H5Cl+
125.0153	4	C7H6Cl+
126.0339	6	C9H4N+
126.0464	17	C10H6+
127.0417	87	C9H5N+
128.0496	6	C9H6N+
128.062	51	C10H8+
129.045	2	C8H5N2+
129.0571	4	C9H7N+
130.0655	2	C9H8N+
132.0444	54	C8H6NO+
133.0394	2	C7H5N2O+
134.0237	212	C7H4NO2+
137.0153	26	C8H6Cl+
139.0311	5	C8H8Cl+
140.0497	7	C10H6N+
141.0571	12	C10H7N+
142.0409	2	C5H5FN3O+
142.0652	32	C10H8N+
143.073	6	C10H9N+
144.0445	5	C9H6NO+
145.0649	4	C10H9O+
146.0602	3	C9H8NO+
146.9997	5	C9H4Cl+
148.0076	2	C9H5Cl+
149.0153	93	C9H6Cl+
150.0106	140	C8H5ClN+
151.0185	6	C8H6ClN+
151.0311	4	C9H8Cl+
152.0024	33	C8H5ClO+
153.0102	2	C8H6ClO+
153.0449	3	C10H5N2+
153.0574	3	C11H7N+
154.0399	19	C9H4N3+
155.0604	57	C10H7N2+
156.0684	6	C10H8N2+
157.0289	3	C7H8ClNO+
160.0505	8	C8H6N3O+
161.0154	7	C10H6Cl+
162.0105	458	C9H5ClN+
162.9946	4	CH4ClF2N3O2+
163.0059	14	C8H4ClN2+
163.0185	7	C9H6ClN+
163.0305	10	C5H7ClFN3+
164.0024	19	C9H5ClO+
164.0261	32	C9H7ClN+
165.0099	2	C4H5ClFN3O+
165.034	20	C9H8ClN+
166.0056	15	C8H5ClNO+
166.0181	4	C9H7ClO+
167.0259	88	C9H8ClO+
168.0211	386	C8H7ClNO+
175.0056	12	C9H4ClN2+
175.0241	24	C7H4F3NO+
176.0029	9	C5H2F2N2O3+
176.0135	9	C9H5ClN2+
177.0103	12	C10H6ClO+
177.0204	2	C3H7F2O6+
177.0339	34	C10H8ClN+
178.0056	5	C9H5ClNO+
179.0258	59	C10H8ClO+
179.9972	7	C9H5ClO2+
180.0211	93	C9H7ClNO+
182.0369	16	C9H9ClNO+
182.0463	3	C2H12ClFN2O4+
189.0214	93	C10H6ClN2+
190.0054	81	C10H5ClNO+
190.0474	60	C8H7F3NO+
194.0369	20	C10H9ClNO+
195.0208	35	C10H8ClO2+
199.0501	4	C11H7N2O2+
203.0189	999	C8H4F3NO2+
204.0085	37	C10H5ClN2O+
207.0213	9	C6H5F2N2O4+
208.0159	17	C10H7ClNO2+
217.0165	18	C11H6ClN2O+
218.0424	4	C9H7F3NO2+
219.032	10	C11H8ClN2O+
230.0058	2	C9H3F3NO3+
