Mass spectrum: Metolachlor; LC-ESI-QFT; MS2; CE: 45; R=17500; [M+H]+
Name: Metolachlor
Name: 2-chloro-N-(2-ethyl-6-methylphenyl)-N-(1-methoxypropan-2-yl)acetamide
Formula: C15H22ClNO2
Exact mass: 283.1339
SMILES: CCC1=C(N(C(C)COC)C(=O)CCl)C(C)=CC=C1
InChI: InChI=1S/C15H22ClNO2/c1-5-13-8-6-7-11(2)15(13)17(14(18)9-16)12(3)10-19-4/h6-8,12H,5,9-10H2,1-4H3
Instrument: Q Exactive Orbitrap (Thermo Scientific)
Instrument type: LC-ESI-QFT
Ms type: MS2
Ion mode: POSITIVE
Ionization: ESI
Fragmentation mode: HCD
Collision energy: 45
Resolution: 17500
Column name: Acquity BEH C18 1.7um, 2.1x150mm (Waters)
Retention time: 18.192 min
Base peak: 79.0211
Precursor m/z: 284.1412
Precursor type: [M+H]+
Precursor intensity: 23746308.5
m/z	relative intensity	assigned
53.0022	2	C3HO+
70.065	1	C4H8N+
73.0647	105	C4H9O+
76.9788	23	C2H2ClO+
91.054	4	C7H7+
93.0698	1	C7H9+
102.0911	1	C5H12NO+
107.0856	1	C8H11+
108.0806	4	C7H10N+
109.0648	2	C7H9O+
115.054	1	C9H7+
117.0696	4	C9H9+
118.0652	2	C8H8N+
119.0729	1	C8H9N+
119.0854	12	C9H11+
120.0807	6	C8H10N+
130.0651	1	C9H8N+
131.0728	3	C9H9N+
131.0855	2	C10H11+
132.0806	7	C9H10N+
133.0884	14	C9H11N+
134.0963	66	C9H12N+
135.0802	4	C9H11O+
136.1119	2	C9H14N+
137.0961	2	C9H13O+
143.073	5	C10H9N+
144.0807	5	C10H10N+
145.0885	13	C10H11N+
146.0963	44	C10H12N+
147.0676	1	C9H9NO+
147.1042	5	C10H13N+
148.0756	3	C9H10NO+
148.112	12	C10H14N+
158.0964	31	C11H12N+
159.1042	12	C11H13N+
159.1162	1	C12H15+
160.112	40	C11H14N+
161.1198	1	C11H15N+
162.0912	8	C10H12NO+
174.0915	1	C11H12NO+
174.1275	10	C12H16N+
175.1355	5	C12H17N+
176.1432	870	C12H18N+
182.0365	1	C12H6O2+
182.0729	1	C10H13ClN+
184.0523	39	C9H11ClNO+
188.1069	3	C12H14NO+
192.0573	2	C11H11ClN+
194.073	26	C11H13ClN+
202.1222	3	C13H16NO+
210.0679	2	C11H13ClNO+
212.0835	46	C11H15ClNO+
224.0832	3	C15H12O2+
224.1197	7	C13H19ClN+
252.1148	999	C14H19ClNO+
