Mass spectrum: Ethyl 2-cyano-3,3-diphenylacrylate; LC-ESI-QFT; MS2; CE: 90; R=17500; [M+H]+
Name: Ethyl 2-cyano-3,3-diphenylacrylate
Name: ethyl 2-cyano-3,3-diphenylprop-2-enoate
Formula: C18H15NO2
Exact mass: 277.1103
SMILES: CCOC(=O)C(C#N)=C(C1=CC=CC=C1)C1=CC=CC=C1
InChI: InChI=1S/C18H15NO2/c1-2-21-18(20)16(13-19)17(14-9-5-3-6-10-14)15-11-7-4-8-12-15/h3-12H,2H2,1H3
Instrument: Q Exactive Orbitrap (Thermo Scientific)
Instrument type: LC-ESI-QFT
Ms type: MS2
Ion mode: POSITIVE
Ionization: ESI
Fragmentation mode: HCD
Collision energy: 90
Resolution: 17500
Column name: Acquity BEH C18 1.7um, 2.1x150mm (Waters)
Retention time: 17.863 min
Base peak: 79.0212
Precursor m/z: 278.1176
Precursor type: [M+H]+
Precursor intensity: 5468944.5
m/z	relative intensity	assigned
51.023	16	C4H3+
53.0386	130	C4H5+
55.0179	5	C3H3O+
68.9971	19	C3HO2+
75.0228	20	C6H3+
77.0385	59	C6H5+
81.0335	14	C5H5O+
91.0542	12	C7H7+
94.0414	12	C6H6O+
95.0492	374	C6H7O+
101.0386	11	C8H5+
103.0542	11	C8H7+
104.0495	140	C7H6N+
105.0335	317	C7H5O+
119.0492	12	C8H7O+
128.0494	33	C9H6N+
129.0335	61	C9H5O+
146.06	5	C9H8NO+
151.0541	22	C12H7+
152.0621	32	C12H8+
153.0699	16	C12H9+
154.0286	7	C10H4NO+
154.0401	14	C11H6O+
165.07	27	C13H9+
168.0568	6	C12H8O+
169.0648	301	C12H9O+
175.0547	9	C14H7+
176.0621	999	C14H8+
177.0699	279	C14H9+
178.0652	16	C13H8N+
178.0778	219	C14H10+
181.0651	15	C13H9O+
183.0804	4	C13H11O+
186.1276	3	C13H16N+
189.07	12	C15H9+
193.065	20	C14H9O+
195.0807	14	C14H11O+
196.0758	5	C13H10NO+
201.0573	37	C15H7N+
202.0653	46	C15H8N+
202.0764	5	C16H10+
203.073	987	C15H9N+
204.0809	168	C15H10N+
206.0962	3	C15H12N+
215.0855	4	C17H11+
220.0757	48	C15H10NO+
232.0758	12	C16H10NO+
234.1278	3	C17H16N+
