Mass spectrum: SSR 241586 HCl; LC-ESI-QFT; MS2; CE: 90; R=17500; [M+H]+
Name: SSR 241586 HCl
Name: 1-[2-[(2R)-4-benzoyl-2-(3,4-dichlorophenyl)morpholin-2-yl]ethyl]-N,N-dimethyl-4-piperidin-1-ylpiperidine-4-carboxamide
Formula: C32H42Cl2N4O3
Exact mass: 600.2634
SMILES: CN(C)C(=O)C1(N2CCCCC2)CCN(CC[C@@]2(c3ccc(Cl)c(Cl)c3)CN(C(=O)c3ccccc3)CCO2)CC1
InChI: InChI=1S/C32H42Cl2N4O3/c1-35(2)30(40)31(38-16-7-4-8-17-38)13-18-36(19-14-31)20-15-32(26-11-12-27(33)28(34)23-26)24-37(21-22-41-32)29(39)25-9-5-3-6-10-25/h3,5-6,9-12,23H,4,7-8,13-22,24H2,1-2H3/t32-/m0/s1
Instrument: Q Exactive Orbitrap (Thermo Scientific)
Instrument type: LC-ESI-QFT
Ms type: MS2
Ion mode: POSITIVE
Ionization: ESI
Fragmentation mode: HCD
Collision energy: 90
Resolution: 17500
Column name: Acquity BEH C18 1.7um, 2.1x150mm (Waters)
Retention time: 16.670 min
Base peak: 79.0211
Precursor m/z: 601.2707
Precursor type: [M+H]+
Precursor intensity: 7316026.5
m/z	relative intensity	assigned
50.0151	2	C4H2+
51.023	2	C4H3+
53.0386	221	C4H5+
54.0338	7	C3H4N+
55.0178	7	C3H3O+
55.0543	92	C4H7+
56.0132	6	C2H2NO+
56.0495	77	C3H6N+
58.0651	207	C3H8N+
65.0386	3	C5H5+
67.0417	3	C4H5N+
67.0542	17	C5H7+
68.0495	12	C4H6N+
69.0698	66	C5H9+
70.0651	42	C4H8N+
72.0444	718	C3H6NO+
72.0807	71	C4H10N+
74.0602	1	C3H8NO+
77.0385	61	C6H5+
79.0542	9	C6H7+
80.0495	4	C5H6N+
81.0335	27	C5H5O+
81.0572	3	C5H7N+
81.0699	15	C6H9+
82.0651	37	C5H8N+
83.0492	16	C5H7O+
83.073	3	C5H9N+
84.0808	227	C5H10N+
86.06	5	C4H8NO+
86.0965	35	C5H12N+
91.0543	4	C7H7+
93.07	2	C7H9+
94.0413	16	C6H6O+
94.0652	5	C6H8N+
95.0492	535	C6H7O+
96.0808	20	C6H10N+
97.0886	2	C6H11N+
98.0964	134	C6H12N+
104.0495	249	C7H6N+
105.0336	999	C5H3N3+
105.0445	218	C6H5N2+
108.0808	12	C7H10N+
109.065	3	C7H9O+
110.0965	48	C7H12N+
115.0543	19	C9H7+
123.1043	1	C8H13N+
124.1123	1	C8H14N+
126.0914	259	C7H12NO+
128.062	4	C10H8+
129.07	11	C10H9+
136.0757	2	C8H10NO+
136.1124	6	C9H14N+
138.1278	192	C9H16N+
148.0756	14	C9H10NO+
149.0154	17	C9H6Cl+
149.0599	14	C9H9O2+
150.0231	28	C9H7Cl+
156.0807	2	C11H10N+
157.0886	2	C11H11N+
158.9763	27	C7H5Cl2+
162.0231	16	C10H7Cl+
163.031	2	C10H8Cl+
164.0263	2	C9H7ClN+
164.0387	2	C10H9Cl+
170.9764	3	C8H5Cl2+
177.0339	4	C10H8ClN+
178.0416	4	C10H9ClN+
179.0496	2	C10H10ClN+
182.9762	1	C9H5Cl2+
184.9918	3	C9H7Cl2+
190.0418	4	C11H9ClN+
191.0496	15	C11H10ClN+
192.0574	15	C11H11ClN+
193.0652	7	C11H12ClN+
205.0663	1	C12H12ClN+
212.003	3	C10H8Cl2N+
213.0109	3	C10H9Cl2N+
214.0186	1	C10H10Cl2N+
224.0031	3	C11H8Cl2N+
226.0187	9	C11H10Cl2N+
227.0256	1	C14H8ClO+
