Mass spectrum: AVE9423; LC-ESI-QFT; MS2; CE: 15; R=17500; [M-H]-
Name: AVE9423
Name: 1-(2-carboxyphenyl)-7-chloro-6-(2-chloro-4,6-difluoroanilino)-4-oxoquinoline-3-carboxylic acid
Formula: C23H12Cl2F2N2O5
Exact mass: 504.0091
SMILES: OC(=O)C1=CC=CC=C1N1C=C(C(O)=O)C(=O)C2=C1C=C(Cl)C(NC1=C(F)C=C(F)C=C1Cl)=C2
InChI: InChI=1S/C23H12Cl2F2N2O5/c24-14-8-19-12(7-17(14)28-20-15(25)5-10(26)6-16(20)27)21(30)13(23(33)34)9-29(19)18-4-2-1-3-11(18)22(31)32/h1-9,28H,(H,31,32)(H,33,34)
Instrument: Q Exactive Orbitrap (Thermo Scientific)
Instrument type: LC-ESI-QFT
Ms type: MS2
Ion mode: NEGATIVE
Ionization: ESI
Fragmentation mode: HCD
Collision energy: 15
Resolution: 17500
Column name: Acquity BEH C18 1.7um, 2.1x150mm (Waters)
Retention time: 17.443 min
Base peak: 112.9857
Precursor m/z: 503.0019
Precursor type: [M-H]-
Precursor intensity: 1385233.080078
m/z	relative intensity	assigned
331.0445	246	C20H9ClFN2-
343.069	397	C21H9F2N2O-
351.0503	22	C23H7F2NO-
359.0394	546	C21H9ClFN2O-
367.0208	52	C23H7ClFNO-
379.0456	999	C21H10ClF2N2O-
395.0157	183	C21H10Cl2FN2O-
