Mass spectrum: PharmaGSID_47263; LC-ESI-QFT; MS2; CE: 45; R=17500; [M-H]-
Name: PharmaGSID_47263
Name: 1-Ethyl-5-(4-hydroxyphenyl)-3-methyl-6,7-dihydropyrazolo(4,3-E)(1,4)diazepin-8(1H)-one
Name: 1-ethyl-5-(4-hydroxyphenyl)-3-methyl-6,7-dihydropyrazolo[4,3-e][1,4]diazepin-8-one
Formula: C15H16N4O2
Exact mass: 284.1273
SMILES: CCN1N=C(C)C2=C1C(=O)NCC(=N2)C1=CC=C(O)C=C1
InChI: InChI=1S/C15H16N4O2/c1-3-19-14-13(9(2)18-19)17-12(8-16-15(14)21)10-4-6-11(20)7-5-10/h4-7,20H,3,8H2,1-2H3,(H,16,21)
Instrument: Q Exactive Orbitrap (Thermo Scientific)
Instrument type: LC-ESI-QFT
Ms type: MS2
Ion mode: NEGATIVE
Ionization: ESI
Fragmentation mode: HCD
Collision energy: 45
Resolution: 17500
Column name: Acquity BEH C18 1.7um, 2.1x150mm (Waters)
Retention time: 15.141 min
Base peak: 112.9857
Precursor m/z: 283.12
Precursor type: [M-H]-
Precursor intensity: 2223709.018555
m/z	relative intensity	assigned
93.0346	114	C6H5O-
106.041	29	C5H4N3-
117.0344	4	C8H5O-
118.0299	17	C7H4NO-
120.0203	51	C5H2N3O-
130.0297	16	C8H4NO-
131.0376	409	C8H5NO-
132.0455	8	C8H6NO-
134.0724	7	C7H8N3-
144.0455	14	C9H6NO-
157.0534	4	C10H7NO-
158.0484	6	C9H6N2O-
159.0325	51	C9H5NO2-
160.0402	5	C9H6NO2-
162.0549	10	C7H6N4O-
173.0358	8	C9H5N2O2-
175.0626	16	C8H7N4O-
183.0684	4	C12H9NO-
185.0362	7	C10H5N2O2-
186.0441	4	C10H6N2O2-
187.051	3	C10H7N2O2-
190.0859	22	C9H10N4O-
198.0803	7	C12H10N2O-
199.0753	19	C11H9N3O-
199.0876	10	C12H11N2O-
211.0751	6	C12H9N3O-
212.0834	28	C12H10N3O-
225.0669	43	C13H9N2O2-
228.114	58	C13H14N3O-
237.0783	14	C13H9N4O-
239.0574	5	C12H7N4O2-
253.0731	999	C13H9N4O2-
254.081	238	C13H10N4O2-
255.0887	235	C13H11N4O2-
255.125	14	C14H15N4O-
267.0887	11	C14H11N4O2-
283.12	831	C15H15N4O2-
