Mass spectrum: Ro 23-7637; LC-ESI-QFT; MS2; CE: 60; R=17500; [M+H]+
Name: Ro 23-7637
Name: 1-[4-(2,2-diphenylethenyl)piperidin-1-yl]-9-pyridin-3-ylnonan-1-one
Formula: C33H40N2O
Exact mass: 480.3141
SMILES: O=C(CCCCCCCCC1=CN=CC=C1)N1CCC(CC1)C=C(C1=CC=CC=C1)C1=CC=CC=C1
InChI: InChI=1S/C33H40N2O/c36-33(20-12-4-2-1-3-7-14-29-15-13-23-34-27-29)35-24-21-28(22-25-35)26-32(30-16-8-5-9-17-30)31-18-10-6-11-19-31/h5-6,8-11,13,15-19,23,26-28H,1-4,7,12,14,20-22,24-25H2
Instrument: Q Exactive Orbitrap (Thermo Scientific)
Instrument type: LC-ESI-QFT
Ms type: MS2
Ion mode: POSITIVE
Ionization: ESI
Fragmentation mode: HCD
Collision energy: 60
Resolution: 17500
Column name: Acquity BEH C18 1.7um, 2.1x150mm (Waters)
Retention time: 19.459 min
Base peak: 79.0211
Precursor m/z: 481.3213
Precursor type: [M+H]+
Precursor intensity: 52443336
m/z	relative intensity	assigned
53.0022	3	C3HO+
53.0386	3	C4H5+
55.0542	80	C4H7+
56.0495	639	C3H6N+
57.0699	22	C4H9+
58.0651	12	C3H8N+
65.0385	42	C5H5+
67.0415	4	C4H5N+
67.0542	22	C5H7+
68.0494	8	C4H6N+
69.0573	30	C4H7N+
69.0699	9	C5H9+
70.065	3	C4H8N+
71.0855	2	C5H11+
79.0541	5	C6H7+
80.0495	11	C5H6N+
81.0699	4	C6H9+
82.0651	231	C5H8N+
84.0808	590	C5H10N+
85.101	1	C6H13+
91.0542	153	C7H7+
92.0494	777	C6H6N+
93.0573	124	C6H7N+
94.0651	55	C6H8N+
95.0729	2	C6H9N+
95.0855	2	C7H11+
96.0444	3	C5H6NO+
96.0807	11	C6H10N+
97.0886	2	C6H11N+
103.0542	5	C8H7+
105.0698	16	C8H9+
106.0651	275	C7H8N+
107.0729	19	C7H9N+
108.0809	1	C7H10N+
110.06	18	C6H8NO+
115.0541	9	C9H7+
117.0698	46	C9H9+
118.0651	22	C8H8N+
119.0729	28	C8H9N+
119.0855	1	C9H11+
120.0807	75	C8H10N+
121.0884	1	C8H11N+
128.062	7	C10H8+
129.0697	18	C10H9+
130.0651	2	C9H8N+
131.0855	23	C10H11+
132.0807	33	C9H10N+
133.0885	30	C9H11N+
134.0963	72	C9H12N+
141.0698	7	C11H9+
143.0855	33	C11H11+
144.0812	1	C10H10N+
145.088	1	C10H11N+
145.1015	1	C11H13+
146.0966	4	C10H12N+
147.1039	1	C10H13N+
148.112	42	C10H14N+
152.062	25	C12H8+
153.0696	1	C12H9+
154.0776	1	C12H10+
155.0855	3	C12H11+
157.1012	2	C12H13+
158.0966	2	C11H12N+
160.112	10	C11H14N+
162.1276	7	C11H16N+
165.0698	45	C13H9+
166.0777	20	C13H10+
167.0854	999	C13H11+
169.0646	1	C12H9O+
169.1009	6	C13H13+
172.112	4	C12H14N+
176.1431	2	C12H18N+
178.0776	2	C14H10+
179.0851	4	C14H11+
181.1011	17	C14H13+
186.1275	2	C13H16N+
190.159	351	C13H20N+
191.0854	6	C15H11+
193.1007	6	C15H13+
200.1432	1	C14H18N+
203.0856	1	C16H11+
204.0933	2	C16H12+
205.1011	8	C16H13+
207.1168	1	C16H15+
218.1538	352	C14H20NO+
219.1165	2	C17H15+
220.1687	1	C14H22NO+
264.1745	179	C19H22N+
