Mass spectrum: Fluroxypyr; LC-ESI-QFT; MS2; CE: 60; R=17500; [M-H]-
Name: Fluroxypyr
Name: 2-(4-amino-3,5-dichloro-6-fluoropyridin-2-yl)oxyacetic acid
Formula: C7H5Cl2FN2O3
Exact mass: 253.9661
SMILES: NC1=C(Cl)C(F)=NC(OCC(O)=O)=C1Cl
InChI: InChI=1S/C7H5Cl2FN2O3/c8-3-5(11)4(9)7(12-6(3)10)15-1-2(13)14/h1H2,(H2,11,12)(H,13,14)
Instrument: Q Exactive Orbitrap (Thermo Scientific)
Instrument type: LC-ESI-QFT
Ms type: MS2
Ion mode: NEGATIVE
Ionization: ESI
Fragmentation mode: HCD
Collision energy: 60
Resolution: 17500
Column name: Acquity BEH C18 1.7um, 2.1x150mm (Waters)
Retention time: 15.115 min
Base peak: 194.9534
Precursor m/z: 252.9588
Precursor type: [M-H]-
Precursor intensity: 2417193.820801
m/z	relative intensity	assigned
50.0035	17	C3N-
65.9986	361	C3NO-
89.0145	45	C5HN2-
89.9986	76	C5NO-
95.0051	273	C4FN2-
98.9645	22	C4ClO-
98.9756	27	C3ClN2-
107.9411	19	C2Cl2N-
110.9756	94	C4ClN2-
115.9711	56	C4ClFN-
123.0002	46	C5FN2O-
130.9817	41	C4HClFN2-
131.9413	999	C4Cl2N-
138.9705	18	C5ClN2O-
152.9862	29	C6H2ClN2O-
157.9686	62	C5ClFN2O-
158.9768	236	C5HClFN2O-
172.9924	16	C6H3ClFN2O-
174.9472	455	C5HCl2N2O-
174.9715	48	C5HClFN2O2-
176.9874	75	C5H3ClFN2O2-
188.9626	32	C6H3Cl2N2O-
193.9455	67	C5HCl2FN2O-
194.9534	812	C5H2Cl2FN2O-
