Mass spectrum: Carabersat; LC-ESI-QFT; MS2; CE: 30; R=17500; [M+H]+
Name: Carabersat
Name: N-[(3R,4S)-6-acetyl-3-hydroxy-2,2-dimethyl-3,4-dihydrochromen-4-yl]-4-fluorobenzamide
Formula: C20H20FNO4
Exact mass: 357.1376
SMILES: CC(=O)C1=CC2=C(OC(C)(C)[C@H](O)[C@H]2NC(=O)C2=CC=C(F)C=C2)C=C1
InChI: InChI=1S/C20H20FNO4/c1-11(23)13-6-9-16-15(10-13)17(18(24)20(2,3)26-16)22-19(25)12-4-7-14(21)8-5-12/h4-10,17-18,24H,1-3H3,(H,22,25)/t17-,18+/m0/s1
Instrument: Q Exactive Orbitrap (Thermo Scientific)
Instrument type: LC-ESI-QFT
Ms type: MS2
Ion mode: POSITIVE
Ionization: ESI
Fragmentation mode: HCD
Collision energy: 30
Resolution: 17500
Column name: Acquity BEH C18 1.7um, 2.1x150mm (Waters)
Retention time: 15.705 min
Base peak: 79.0211
Precursor m/z: 358.1449
Precursor type: [M+H]+
Precursor intensity: 13303639
m/z	relative intensity	assigned
59.0491	97	C3H7O+
107.0492	3	C7H7O+
119.0491	6	C8H7O+
123.0241	49	C7H4FO+
133.0647	3	C9H9O+
135.0805	4	C9H11O+
140.0506	77	C7H7FNO+
147.0807	1	C10H11O+
149.0597	12	C9H9O2+
149.096	2	C10H13O+
159.0804	18	C11H11O+
161.0597	234	C10H9O2+
163.0388	1	C9H7O3+
163.0751	1	C10H11O2+
165.0549	1	C9H9O3+
175.0752	1	C11H11O2+
177.091	999	C11H13O2+
189.0909	3	C12H13O2+
191.1069	2	C12H15O2+
201.0911	42	C13H13O2+
219.1016	269	C13H15O3+
286.087	2	C16H13FNO3+
358.145	1	C20H21FNO4+
