Mass spectrum: {4-[({2-[3-Fluoro-4-(trifluoromethyl)phenyl]-4-methyl-1,3-thiazol-5-yl}methyl)sulfanyl]-2-methylphenoxy}acetic acid; LC-ESI-QFT; MS2; CE: 15; R=17500; [M-H]-
Name: {4-[({2-[3-Fluoro-4-(trifluoromethyl)phenyl]-4-methyl-1,3-thiazol-5-yl}methyl)sulfanyl]-2-methylphenoxy}acetic acid
Name: GW0742
Name: 2-[4-[[2-[3-fluoro-4-(trifluoromethyl)phenyl]-4-methyl-1,3-thiazol-5-yl]methylsulfanyl]-2-methylphenoxy]acetic acid
Formula: C21H17F4NO3S2
Exact mass: 471.0586
SMILES: CC1=C(CSC2=CC(C)=C(OCC(O)=O)C=C2)SC(=N1)C1=CC=C(C(F)=C1)C(F)(F)F
InChI: InChI=1S/C21H17F4NO3S2/c1-11-7-14(4-6-17(11)29-9-19(27)28)30-10-18-12(2)26-20(31-18)13-3-5-15(16(22)8-13)21(23,24)25/h3-8H,9-10H2,1-2H3,(H,27,28)
Instrument: Q Exactive Orbitrap (Thermo Scientific)
Instrument type: LC-ESI-QFT
Ms type: MS2
Ion mode: NEGATIVE
Ionization: ESI
Fragmentation mode: HCD
Collision energy: 15
Resolution: 17500
Column name: Acquity BEH C18 1.7um, 2.1x150mm (Waters)
Retention time: 20.116 min
Base peak: 112.9856
Precursor m/z: 470.0513
Precursor type: [M-H]-
Precursor intensity: 5000067.737793
m/z	relative intensity	assigned
123.0273	16	C7H7S-
129.9755	1	C7NS-
138.0144	999	C7H6OS-
139.0224	6	C7H7OS-
151.0224	8	C8H7OS-
152.0301	14	C8H8OS-
196.0198	29	C7H10F2S2-
412.0459	956	C19H14F4NOS2-
