Mass spectrum: Benodanil; LC-ESI-QFT; MS2; CE: 75; R=17500; [M+H]+
Name: Benodanil
Name: 2-iodo-N-phenylbenzamide
Formula: C13H10INO
Exact mass: 322.9807
SMILES: IC1=C(C=CC=C1)C(=O)NC1=CC=CC=C1
InChI: InChI=1S/C13H10INO/c14-12-9-5-4-8-11(12)13(16)15-10-6-2-1-3-7-10/h1-9H,(H,15,16)
Instrument: Q Exactive Orbitrap (Thermo Scientific)
Instrument type: LC-ESI-QFT
Ms type: MS2
Ion mode: POSITIVE
Ionization: ESI
Fragmentation mode: HCD
Collision energy: 75
Resolution: 17500
Column name: Acquity BEH C18 1.7um, 2.1x150mm (Waters)
Retention time: 16.272 min
Base peak: 79.0211
Precursor m/z: 323.988
Precursor type: [M+H]+
Precursor intensity: 9177721.25
m/z	relative intensity	assigned
50.015	2	C4H2+
51.0228	2	C4H3+
52.0307	14	C4H4+
53.0022	3	C3HO+
53.0386	28	C4H5+
54.0464	13	C4H6+
55.0178	18	C3H3O+
63.0227	2	C5H3+
64.0307	18	C5H4+
65.0385	5	C5H5+
66.0463	33	C5H6+
75.023	1	C6H3+
76.0307	266	C6H4+
77.0384	4	C6H5+
78.0464	6	C6H6+
79.0178	14	C5H3O+
79.0542	2	C6H7+
80.0256	7	C5H4O+
81.0335	110	C5H5O+
91.0178	9	C6H3O+
92.0257	22	C6H4O+
92.0495	16	C6H6N+
94.0413	999	C6H6O+
95.049	43	C6H7O+
96.0455	2	C5H6NO+
104.0255	15	C7H4O+
105.0335	72	C7H5O+
108.0569	14	C7H8O+
120.0444	2	C7H6NO+
178.0651	1	C13H8N+
178.9348	1	C4H4I+
196.0754	2	C13H10NO+
202.9349	12	C6H4I+
219.9379	4	C6H5IO+
220.9457	92	C6H6IO+
230.9303	355	C7H4IO+
