Mass spectrum: Pirimiphos-ethyl; LC-ESI-QFT; MS2; CE: 75; R=17500; [M+H]+
Name: Pirimiphos-ethyl
Formula: C13H24N3O3PS
Exact mass: 333.1276
SMILES: CCOP(=S)(OCC)OC1=CC(C)=NC(=N1)N(CC)CC
InChI: InChI=1S/C13H24N3O3PS/c1-6-16(7-2)13-14-11(5)10-12(15-13)19-20(21,17-8-3)18-9-4/h10H,6-9H2,1-5H3
Instrument: Q Exactive Orbitrap (Thermo Scientific)
Instrument type: LC-ESI-QFT
Ms type: MS2
Ion mode: POSITIVE
Ionization: ESI
Fragmentation mode: HCD
Collision energy: 75
Resolution: 17500
Column name: Acquity BEH C18 1.7um, 2.1x150mm (Waters)
Retention time: 19.447 min
Base peak: 79.0211
Precursor m/z: 334.1349
Precursor type: [M+H]+
Precursor intensity: 92931425.3125
m/z	relative intensity	assigned
54.0339	2	C3H4N+
56.0495	3	C3H6N+
58.0652	2	C3H8N+
58.995	33	C2H3S+
59.9903	15	CH2NS+
64.9787	33	H2O2P+
66.0213	1	C3H2N2+
66.0338	14	C4H4N+
67.029	431	C3H3N2+
68.0131	4	C3H2NO+
68.0495	9	C4H6N+
69.0083	29	C2HN2O+
70.0651	33	C4H8N+
71.0603	288	C3H7N2+
72.0445	3	C3H6NO+
72.0807	8	C4H10N+
74.0964	48	C4H12N+
78.9402	5	OPS+
82.0652	4	C5H8N+
82.9949	8	C4H3S+
83.0604	57	C4H7N2+
84.0444	380	C4H6NO+
84.9855	42	C2HN2S+
85.0107	5	C4H5S+
88.0215	42	C3H6NS+
93.0446	2	C5H5N2+
94.0652	29	C6H8N+
95.0604	170	C5H7N2+
96.9508	86	H2O2PS+
97.0397	24	C4H5N2O+
98.0965	26	C6H12N+
99.0917	979	C5H11N2+
100.0215	659	C4H6NS+
101.0167	2	C3H5N2S+
107.0604	1	C6H7N2+
108.0556	631	C5H6N3+
109.0049	59	C2H6O3P+
109.0396	154	C5H5N2O+
109.076	43	C6H9N2+
110.0473	2	C5H6N2O+
110.9664	7	CH4O2PS+
111.0263	9	C6H7S+
111.0917	6	C6H11N2+
112.0216	32	C5H6NS+
112.0757	12	C6H10NO+
112.9998	3	C3HN2O3+
113.0168	43	C4H5N2S+
114.9613	680	H4O3PS+
115.0324	122	C4H7N2S+
116.0528	36	C5H10NS+
119.0602	7	C7H7N2+
120.0682	9	C7H8N2+
122.9956	3	CH4N2O3P+
123.0917	11	C7H11N2+
125.0168	185	C5H5N2S+
126.0246	5	C5H6N2S+
126.0372	17	C6H8NS+
126.0662	98	C5H8N3O+
127.0324	21	C5H7N2S+
128.0527	14	C6H10NS+
128.9769	24	CH6O3PS+
132.972	2	C6NOP+
134.0716	2	C7H8N3+
136.0215	11	C7H6NS+
136.0869	116	C7H10N3+
137.071	150	C7H9N2O+
138.0245	2	C6H6N2S+
138.066	8	C6H8N3O+
139.123	75	C8H15N2+
141.0354	31	C5H7N3S+
141.1023	10	C7H13N2O+
142.0434	460	C5H8N3S+
142.9928	1	C2H8O3PS+
143.0637	6	C6H11N2S+
152.0818	8	C7H10N3O+
153.0481	235	C7H9N2S+
154.0433	37	C6H8N3S+
154.0975	346	C7H12N3O+
157.0794	50	C7H13N2S+
164.1183	112	C9H14N3+
166.0977	1	C8H12N3O+
168.059	55	C7H10N3S+
169.0666	5	C7H11N3S+
170.0746	999	C7H12N3S+
180.1134	8	C9H14N3O+
182.1288	175	C9H16N3O+
196.0902	24	C9H14N3S+
198.106	332	C9H16N3S+
232.03	2	C11H8N2O2S+
