Mass spectrum: Triphenyl phosphate; LC-ESI-QFT; MS2; CE: 60; R=17500; [M+H]+
Name: Triphenyl phosphate
Formula: C18H15O4P
Exact mass: 326.0708
SMILES: O=P(OC1=CC=CC=C1)(OC1=CC=CC=C1)OC1=CC=CC=C1
InChI: InChI=1S/C18H15O4P/c19-23(20-16-10-4-1-5-11-16,21-17-12-6-2-7-13-17)22-18-14-8-3-9-15-18/h1-15H
Instrument: Q Exactive Orbitrap (Thermo Scientific)
Instrument type: LC-ESI-QFT
Ms type: MS2
Ion mode: POSITIVE
Ionization: ESI
Fragmentation mode: HCD
Collision energy: 60
Resolution: 17500
Column name: Acquity BEH C18 1.7um, 2.1x150mm (Waters)
Retention time: 18.547 min
Base peak: 79.0211
Precursor m/z: 327.0781
Precursor type: [M+H]+
Precursor intensity: 63355420.85938
m/z	relative intensity	assigned
50.0151	3	C4H2+
51.0229	7	C4H3+
53.0386	229	C4H5+
55.0178	11	C3H3O+
55.0542	2	C4H7+
57.0699	31	C4H9+
65.0385	24	C5H5+
67.0542	2	C5H7+
68.9973	1	C3HO2+
71.0855	6	C5H11+
77.0385	139	C6H5+
78.0464	1	C6H6+
79.0543	1	C6H7+
81.0335	22	C5H5O+
81.0698	3	C6H9+
85.1009	4	C6H13+
91.0542	132	C7H7+
93.0335	8	C6H5O+
94.0413	29	C6H6O+
95.0491	691	C6H7O+
98.9841	4	H4O4P+
101.0152	1	C4H6OP+
103.054	1	C8H7+
109.0648	8	C7H9O+
111.044	13	C6H7O2+
115.0542	2	C9H7+
119.0854	1	C9H11+
121.0284	7	C7H5O2+
122.0867	2	C5H15OP+
122.0919	41	C5H14O3+
123.0998	2	C5H15O3+
125.0596	1	C7H9O2+
127.0542	2	C10H7+
128.062	2	C10H8+
129.01	2	C5H6O2P+
131.0856	1	C10H11+
133.0206	1	C8H6P+
134.0921	2	C6H14O3+
138.9943	20	C6H4O2P+
139.0541	1	C11H7+
140.002	5	C6H5O2P+
141.0699	16	C11H9+
142.0777	2	C11H10+
143.0857	1	C11H11+
145.065	6	C10H9O+
150.0456	1	C12H6+
151.0542	12	C12H7+
152.0621	999	C12H8+
153.0698	399	C12H9+
154.0778	2	C12H10+
155.0492	2	C11H7O+
155.0603	8	C8H12OP+
157.0048	11	C6H6O3P+
159.0359	1	C10H8P+
168.057	328	C12H8O+
169.0648	104	C12H9O+
170.0726	12	C12H10O+
171.0804	15	C12H11O+
175.0154	50	C6H8O4P+
179.0604	30	C10H12OP+
181.0757	1	C10H14OP+
183.08	2	C13H11O+
187.0307	49	C11H8OP+
189.0464	1	C11H10OP+
202.0776	23	C16H10+
203.0854	3	C16H11+
205.0411	1	C11H10O2P+
214.0767	1	C17H10+
215.0256	124	C12H8O2P+
216.0332	5	C12H9O2P+
226.0776	10	C18H10+
227.0856	43	C18H11+
228.0933	151	C18H12+
229.101	8	C18H13+
233.0362	354	C12H10O3P+
244.0883	8	C18H12O+
247.0518	25	C13H12O3P+
251.0467	197	C12H12O4P+
273.0459	1	C18H10OP+
291.0566	4	C18H12O2P+
309.0677	1	C18H14O3P+
327.078	5	C18H16O4P+
