Mass spectrum: Carabersat; LC-ESI-QFT; MS2; CE: 60; R=17500; [M+H]+
Name: Carabersat
Name: N-[(3R,4S)-6-acetyl-3-hydroxy-2,2-dimethyl-3,4-dihydrochromen-4-yl]-4-fluorobenzamide
Formula: C20H20FNO4
Exact mass: 357.1376
SMILES: CC(=O)C1=CC2=C(OC(C)(C)[C@H](O)[C@H]2NC(=O)C2=CC=C(F)C=C2)C=C1
InChI: InChI=1S/C20H20FNO4/c1-11(23)13-6-9-16-15(10-13)17(18(24)20(2,3)26-16)22-19(25)12-4-7-14(21)8-5-12/h4-10,17-18,24H,1-3H3,(H,22,25)/t17-,18+/m0/s1
Instrument: Q Exactive Orbitrap (Thermo Scientific)
Instrument type: LC-ESI-QFT
Ms type: MS2
Ion mode: POSITIVE
Ionization: ESI
Fragmentation mode: HCD
Collision energy: 60
Resolution: 17500
Column name: Acquity BEH C18 1.7um, 2.1x150mm (Waters)
Retention time: 15.705 min
Base peak: 79.0211
Precursor m/z: 358.1449
Precursor type: [M+H]+
Precursor intensity: 11005418.4375
m/z	relative intensity	assigned
51.023	2	C4H3+
53.0387	3	C4H5+
55.0542	4	C4H7+
59.0491	999	C3H7O+
71.0291	3	C4H4F+
79.0542	7	C6H7+
91.0542	30	C7H7+
93.0699	9	C7H9+
95.0291	2	C6H4F+
95.0492	7	C6H7O+
97.0449	34	C6H6F+
105.0699	8	C8H9+
107.0492	229	C7H7O+
113.0398	18	C6H6FO+
119.0491	20	C8H7O+
119.0856	4	C9H11+
121.0286	9	C7H5O2+
121.0648	45	C8H9O+
123.0241	684	C7H4FO+
131.049	7	C9H7O+
131.0856	41	C10H11+
133.0649	25	C9H9O+
135.0437	7	C8H7O2+
135.0804	71	C9H11O+
140.0506	162	C7H7FNO+
141.0698	7	C11H9+
144.057	13	C10H8O+
147.0804	17	C10H11O+
149.0597	289	C9H9O2+
158.0724	4	C11H10O+
159.0805	116	C11H11O+
161.0597	57	C10H9O2+
163.039	26	C9H7O3+
163.0752	8	C10H11O2+
165.0547	101	C9H9O3+
169.0758	5	C5H12FNO4+
173.0597	23	C11H9O2+
175.0753	5	C11H11O2+
177.091	652	C11H13O2+
181.0495	12	C9H9O4+
201.0911	85	C13H13O2+
219.1017	20	C13H15O3+
