Mass spectrum: Surinabant; LC-ESI-QFT; MS2; CE: 45; R=17500; [M+H]+
Name: Surinabant
Name: 5-(4-bromophenyl)-1-(2,4-dichlorophenyl)-4-ethyl-N-piperidin-1-ylpyrazole-3-carboxamide
Formula: C23H23BrCl2N4O
Exact mass: 520.0432
SMILES: CCC1=C(N(N=C1C(=O)NN1CCCCC1)C1=CC=C(Cl)C=C1Cl)C1=CC=C(Br)C=C1
InChI: InChI=1S/C23H23BrCl2N4O/c1-2-18-21(23(31)28-29-12-4-3-5-13-29)27-30(20-11-10-17(25)14-19(20)26)22(18)15-6-8-16(24)9-7-15/h6-11,14H,2-5,12-13H2,1H3,(H,28,31)
Instrument: Q Exactive Orbitrap (Thermo Scientific)
Instrument type: LC-ESI-QFT
Ms type: MS2
Ion mode: POSITIVE
Ionization: ESI
Fragmentation mode: HCD
Collision energy: 45
Resolution: 17500
Column name: Acquity BEH C18 1.7um, 2.1x150mm (Waters)
Retention time: 20.203 min
Base peak: 79.0211
Precursor m/z: 521.0505
Precursor type: [M+H]+
Precursor intensity: 13385341
m/z	relative intensity	assigned
53.0387	2	C4H5+
54.0339	1	C3H4N+
55.0542	21	C4H7+
56.0495	26	C3H6N+
67.0542	3	C5H7+
82.0651	12	C5H8N+
84.0808	261	C5H10N+
85.0884	2	C5H11N+
99.0917	49	C5H11N2+
100.0995	2	C5H12N2+
115.0541	1	C9H7+
116.0621	3	C9H8+
127.0864	1	C6H11N2O+
128.0623	3	C10H8+
130.0653	1	C9H8N+
143.073	21	C10H9N+
144.9612	1	C6H3Cl2+
149.0152	1	C9H6Cl+
153.0574	7	C11H7N+
154.0651	50	C11H8N+
158.0603	3	C10H8NO+
159.9715	36	C6H4Cl2N+
160.9793	28	C6H5Cl2N+
168.0688	1	C11H8N2+
168.9648	2	C7H6Br+
169.0648	2	C12H9O+
169.0762	9	C11H9N2+
171.0679	2	C11H9NO+
171.9714	7	C7H4Cl2N+
172.9669	3	C6H3Cl2N2+
175.0184	1	C10H6ClN+
177.0341	5	C10H8ClN+
180.9646	1	C8H6Br+
181.0522	10	C12H7NO+
181.9601	2	C7H5BrN+
182.0601	6	C12H8NO+
182.9551	2	C6H4BrN2+
185.9876	1	C8H6Cl2N+
186.9828	2	C7H5Cl2N2+
188.0033	4	C8H8Cl2N+
197.9872	6	C9H6Cl2N+
202.0294	1	C11H7ClN2+
205.9603	1	C9H5BrN+
206.9806	1	C10H8Br+
207.9754	2	C9H7BrN+
217.0883	7	C16H11N+
221.991	4	C10H9BrN+
227.9982	4	C10H8Cl2NO+
231.976	6	C11H7BrN+
236.998	12	C11H7Cl2N2+
243.0922	2	C17H11N2+
244.0992	5	C17H12N2+
252.0575	49	C16H11ClN+
259.9705	10	C12H7BrNO+
261.0107	3	C14H9Cl2N+
263.0376	1	C16H8ClN2+
264.0445	1	C19H6NO+
264.0581	11	C8H17BrN4O+
264.9939	2	C12H7Cl2N2O+
265.0654	23	C17H12ClN+
272.0027	2	C15H8Cl2N+
274.0184	1	C15H10Cl2N+
277.0527	10	C17H10ClN2+
278.0606	36	C17H11ClN2+
279.0684	286	C17H12ClN2+
286.0199	5	C7H16BrClN4O+
287.0264	84	C16H11Cl2N+
289.0527	3	C18H10ClN2+
291.9532	1	C13H8BrClN+
292.0396	6	C17H9ClN2O+
298.0205	2	C7H21BrCl2N2O+
299.0137	119	C16H9Cl2N2+
304.9602	2	C14H9BrClN+
306.0555	1	C18H11ClN2O+
307.0633	38	C18H12ClN2O+
312.0216	7	C17H10Cl2N2+
313.0294	401	C17H11Cl2N2+
314.0371	33	C17H12Cl2N2+
322.0095	2	C17H11BrN2+
324.0226	1	C18H10Cl2N2+
325.9134	248	C13H7BrCl2N+
327.0086	35	C17H9Cl2N2O+
329.9534	1	C16H3BrN4+
330.9761	3	C16H11BrClN+
341.0245	31	C18H11Cl2N2O+
342.0321	44	C18H12Cl2N2O+
342.9634	47	C16H9BrClN2+
346.0274	1	C23H7ClN2+
351.9296	5	C15H9BrCl2N+
356.9789	29	C17H11BrClN2+
357.9865	5	C17H12BrClN2+
365.9448	17	C16H11BrCl2N+
370.9591	1	C14H12BrCl2N3+
375.9294	5	C17H9BrCl2N+
376.9243	45	C16H8BrCl2N2+
377.9325	14	C16H9BrCl2N2+
384.9747	1	C15H14BrCl2N3+
390.9411	6	C17H10BrCl2N2+
392.9558	94	C17H12BrCl2N2+
394.9715	23	C17H14BrCl2N2+
420.9506	222	C18H12BrCl2N2O+
438.9613	999	C23H14BrCl2+
440.9651	1	C23H9BrClN3+
