Mass spectrum: Methadone; LC-ESI-QFT; MS2; CE: 75; R=17500; [M+H]+
Name: Methadone
Name: 6-(dimethylamino)-4,4-diphenylheptan-3-one
Formula: C21H27NO
Exact mass: 309.2093
SMILES: CCC(=O)C(CC(C)N(C)C)(C1=CC=CC=C1)C1=CC=CC=C1
InChI: InChI=1S/C21H27NO/c1-5-20(23)21(16-17(2)22(3)4,18-12-8-6-9-13-18)19-14-10-7-11-15-19/h6-15,17H,5,16H2,1-4H3
Instrument: Q Exactive Orbitrap (Thermo Scientific)
Instrument type: LC-ESI-QFT
Ms type: MS2
Ion mode: POSITIVE
Ionization: ESI
Fragmentation mode: HCD
Collision energy: 75
Resolution: 17500
Column name: Acquity BEH C18 1.7um, 2.1x150mm (Waters)
Retention time: 15.477 min
Base peak: 79.0211
Precursor m/z: 310.2165
Precursor type: [M+H]+
Precursor intensity: 62143874
m/z	relative intensity	assigned
50.015	1	C4H2+
53.0386	89	C4H5+
55.0179	4	C3H3O+
55.0543	2	C4H7+
57.0335	133	C3H5O+
65.0385	8	C5H5+
67.0542	1	C5H7+
69.0335	8	C4H5O+
69.0699	1	C5H9+
72.0807	2	C4H10N+
77.0385	40	C6H5+
79.0542	18	C6H7+
81.0335	8	C5H5O+
81.0699	2	C6H9+
91.0542	439	C7H7+
94.0413	8	C6H6O+
95.0491	253	C6H7O+
103.0543	17	C8H7+
105.0336	999	C7H5O+
105.0698	120	C8H9+
107.0491	8	C7H7O+
109.0649	2	C7H9O+
115.0542	59	C9H7+
116.0621	2	C9H8+
117.0699	178	C9H9+
119.0855	1	C9H11+
128.0621	29	C10H8+
129.0698	60	C10H9+
130.0779	4	C10H10+
131.0491	4	C9H7O+
131.0856	16	C10H11+
135.0799	1	C9H11O+
141.0698	17	C11H9+
142.0775	1	C11H10+
143.0493	1	C10H7O+
143.0854	5	C11H11+
144.057	2	C10H8O+
145.0648	20	C10H9O+
145.1008	1	C11H13+
147.0806	4	C10H11O+
152.062	11	C12H8+
153.0699	3	C12H9+
154.0776	8	C12H10+
155.0851	1	C12H11+
157.0651	1	C11H9O+
158.0724	5	C11H10O+
159.0804	4	C11H11O+
159.1168	2	C12H15+
165.0699	19	C13H9+
166.0777	10	C13H10+
167.0856	60	C13H11+
169.1011	2	C13H13+
178.0777	20	C14H10+
179.0857	10	C14H11+
180.0932	1	C14H12+
181.1011	3	C14H13+
189.0697	3	C15H9+
190.0776	10	C15H10+
191.0854	19	C15H11+
192.0932	3	C15H12+
193.1013	2	C15H13+
194.0727	34	C14H10O+
195.0804	2	C14H11O+
195.1166	4	C15H15+
202.0778	13	C16H10+
203.0855	62	C16H11+
204.0934	134	C16H12+
205.1013	11	C16H13+
206.1088	2	C16H14+
207.1171	1	C16H15+
208.0878	1	C15H12O+
209.0962	1	C15H13O+
215.0847	1	C17H11+
216.093	1	C17H12+
217.1011	47	C17H13+
218.109	29	C17H14+
219.1169	13	C17H15+
221.0961	5	C16H13O+
223.1121	1	C16H15O+
231.116	1	C18H15+
232.1243	3	C18H16+
235.1116	1	C17H15O+
236.1194	1	C17H16O+
