Mass spectrum: Iprovalicarb; LC-ESI-QFT; MS2; CE: 90; R=17500; [M+H]+
Name: Iprovalicarb
Name: propan-2-yl N-[(2S)-3-methyl-1-[1-(4-methylphenyl)ethylamino]-1-oxobutan-2-yl]carbamate
Formula: C18H28N2O3
Exact mass: 320.2100
SMILES: CC(C)OC(=O)N[C@@H](C(C)C)C(=O)NC(C)C1=CC=C(C)C=C1
InChI: InChI=1S/C18H28N2O3/c1-11(2)16(20-18(22)23-12(3)4)17(21)19-14(6)15-9-7-13(5)8-10-15/h7-12,14,16H,1-6H3,(H,19,21)(H,20,22)/t14?,16-/m0/s1
Instrument: Q Exactive Orbitrap (Thermo Scientific)
Instrument type: LC-ESI-QFT
Ms type: MS2
Ion mode: POSITIVE
Ionization: ESI
Fragmentation mode: HCD
Collision energy: 90
Resolution: 17500
Column name: Acquity BEH C18 1.7um, 2.1x150mm (Waters)
Retention time: 17.761 min
Base peak: 79.0211
Precursor m/z: 321.2173
Precursor type: [M+H]+
Precursor intensity: 10041543.375
m/z	relative intensity	assigned
55.0543	147	C4H7+
57.07	12	C4H9+
65.0385	63	C5H5+
72.0808	178	C4H10N+
79.0542	67	C6H7+
91.0543	999	C7H7+
93.0699	64	C7H9+
95.0492	76	C6H7O+
98.0599	45	C5H8NO+
103.0543	201	C8H7+
104.062	149	C8H8+
109.0646	28	C7H9O+
115.0543	113	C9H7+
116.0708	24	C5H10NO2+
117.0699	469	C9H9+
119.0856	611	C9H11+
125.0153	28	C8HN2+
126.0187	14	C5H4NO3+
