Mass spectrum: 3-Dimethylaminophenol; LC-ESI-QFT; MS2; CE: 75; R=17500; [M+H]+
Name: 3-Dimethylaminophenol
Name: 3-(dimethylamino)phenol
Formula: C8H11NO
Exact mass: 137.0841
SMILES: CN(C)C1=CC=CC(O)=C1
InChI: InChI=1S/C8H11NO/c1-9(2)7-4-3-5-8(10)6-7/h3-6,10H,1-2H3
Instrument: Q Exactive Orbitrap (Thermo Scientific)
Instrument type: LC-ESI-QFT
Ms type: MS2
Ion mode: POSITIVE
Ionization: ESI
Fragmentation mode: HCD
Collision energy: 75
Resolution: 17500
Column name: Acquity BEH C18 1.7um, 2.1x150mm (Waters)
Retention time: 3.789 min
Base peak: 79.0211
Precursor m/z: 138.0913
Precursor type: [M+H]+
Precursor intensity: 3852464.9375
m/z	relative intensity	assigned
65.0386	2	C5H5+
78.0464	1	C6H6+
79.0543	1	C6H7+
80.0494	1	C5H6N+
86.0036	6	C6N+
94.0414	16	C6H6O+
94.0652	2	C6H8N+
95.0491	4	C6H7O+
95.0728	2	C6H9N+
106.0652	10	C7H8N+
107.0492	4	C7H7O+
108.0447	1	C6H6NO+
110.0964	1	C7H12N+
120.0807	1	C8H10N+
122.0601	434	C7H8NO+
123.0678	999	C7H9NO+
136.0757	3	C8H10NO+
138.0914	42	C8H12NO+
