Mass spectrum: 1,1,3-Trimethyl-2-thiourea; LC-ESI-QFT; MS2; CE: 45; R=17500; [M+H]+
Name: 1,1,3-Trimethyl-2-thiourea
Name: N,N,N'-trimethylcarbamimidothioic acid
Formula: C4H10N2S
Exact mass: 118.0565
SMILES: CNC(=S)N(C)C
InChI: InChI=1S/C4H10N2S/c1-5-4(7)6(2)3/h1-3H3,(H,5,7)
Instrument: Q Exactive Orbitrap (Thermo Scientific)
Instrument type: LC-ESI-QFT
Ms type: MS2
Ion mode: POSITIVE
Ionization: ESI
Fragmentation mode: HCD
Collision energy: 45
Resolution: 17500
Column name: Acquity BEH C18 1.7um, 2.1x150mm (Waters)
Retention time: 6.918 min
Base peak: 79.0211
Precursor m/z: 119.0637
Precursor type: [M+H]+
Precursor intensity: 2487013.125
m/z	relative intensity	assigned
74.0059	148	C2H4NS+
88.0216	999	C3H6NS+
119.0646	28	C4H11N2S+
