Mass spectrum: Labetalol; LC-ESI-QFT; MS2; CE: 30; R=17500; [M-H]-
Name: Labetalol
Name: 2-hydroxy-5-[1-hydroxy-2-(4-phenylbutan-2-ylamino)ethyl]benzamide
Formula: C19H24N2O3
Exact mass: 328.1787
SMILES: CC(CCC1=CC=CC=C1)NCC(O)C1=CC=C(O)C(=C1)C(N)=O
InChI: InChI=1S/C19H24N2O3/c1-13(7-8-14-5-3-2-4-6-14)21-12-18(23)15-9-10-17(22)16(11-15)19(20)24/h2-6,9-11,13,18,21-23H,7-8,12H2,1H3,(H2,20,24)
Instrument: Q Exactive Orbitrap (Thermo Scientific)
Instrument type: LC-ESI-QFT
Ms type: MS2
Ion mode: NEGATIVE
Ionization: ESI
Fragmentation mode: HCD
Collision energy: 30
Resolution: 17500
Column name: Acquity BEH C18 1.7um, 2.1x150mm (Waters)
Retention time: 13.525 min
Base peak: 304.1303
Precursor m/z: 327.1714
Precursor type: [M-H]-
Precursor intensity: 9021342.21582
m/z	relative intensity	assigned
65.9985	1	C3NO-
118.0298	10	C7H4NO-
131.0377	15	C8H5NO-
132.0455	47	C8H6NO-
133.0171	1	C7H3NO2-
133.0533	1	C8H7NO-
134.0247	2	C7H4NO2-
136.0404	3	C7H6NO2-
144.0452	2	C9H6NO-
146.0247	13	C8H4NO2-
148.0403	3	C8H6NO2-
149.048	14	C8H7NO2-
150.056	2	C8H8NO2-
157.0411	1	C9H5N2O-
158.0482	1	C9H6N2O-
159.0564	6	C9H7N2O-
162.056	7	C9H8NO2-
163.0275	4	C8H5NO3-
164.0351	4	C8H6NO3-
171.0561	1	C10H7N2O-
175.0513	15	C9H7N2O2-
176.0591	171	C9H8N2O2-
177.0669	9	C9H9N2O2-
181.0381	13	C11H5N2O-
187.0876	10	C11H11N2O-
199.088	4	C12H11N2O-
205.0981	4	C11H13N2O2-
248.1081	3	C17H14NO-
266.1551	54	C18H20NO-
291.1504	149	C19H19N2O-
309.1609	999	C19H21N2O2-
327.1714	265	C19H23N2O3-
