Mass spectrum: Imazethapyr; LC-ESI-QFT; MS2; CE: 45; R=17500; [M+H]+
Name: Imazethapyr
Name: 5-ethyl-2-(4-methyl-5-oxo-4-propan-2-yl-1H-imidazol-2-yl)pyridine-3-carboxylic acid
Formula: C15H19N3O3
Exact mass: 289.1426
SMILES: CCC1=CN=C(C2=NC(C)(C(C)C)C(=O)N2)C(=C1)C(O)=O
InChI: InChI=1S/C15H19N3O3/c1-5-9-6-10(13(19)20)11(16-7-9)12-17-14(21)15(4,18-12)8(2)3/h6-8H,5H2,1-4H3,(H,19,20)(H,17,18,21)
Instrument: Q Exactive Orbitrap (Thermo Scientific)
Instrument type: LC-ESI-QFT
Ms type: MS2
Ion mode: POSITIVE
Ionization: ESI
Fragmentation mode: HCD
Collision energy: 45
Resolution: 17500
Column name: Acquity BEH C18 1.7um, 2.1x150mm (Waters)
Retention time: 14.647 min
Base peak: 79.0211
Precursor m/z: 290.1499
Precursor type: [M+H]+
Precursor intensity: 21450122.75
m/z	relative intensity	assigned
53.0022	10	C3HO+
53.9974	1	C2NO+
58.0651	31	C3H8N+
67.0542	6	C5H7+
69.0698	615	C5H9+
70.0651	6	C4H8N+
71.073	5	C4H9N+
71.0855	16	C5H11+
72.0443	1	C3H6NO+
72.0809	1	C4H10N+
84.0809	4	C5H10N+
86.0964	828	C5H12N+
94.0654	1	C6H8N+
97.0648	47	C6H9O+
106.0654	2	C7H8N+
114.0913	11	C6H12NO+
132.0685	2	C8H8N2+
133.076	104	C8H9N2+
135.0916	1	C8H11N2+
138.0914	6	C8H12NO+
149.071	2	C8H9N2O+
152.0706	1	C8H10NO2+
159.0552	46	C9H7N2O+
160.1119	6	C11H14N+
161.071	7	C9H9N2O+
161.1072	8	C10H13N2+
162.0552	2	C9H8NO2+
164.0705	5	C9H10NO2+
175.0867	102	C10H11N2O+
176.0819	263	C9H10N3O+
177.0658	999	C9H9N2O2+
179.0813	2	C9H11N2O2+
184.1115	2	C13H14N+
186.1153	2	C12H14N2+
189.0661	4	C10H9N2O2+
191.0815	3	C10H11N2O2+
194.0926	12	C9H12N3O2+
199.1228	3	C13H15N2+
201.0898	9	C11H11N3O+
201.1387	152	C13H17N2+
202.0975	221	C11H12N3O+
203.1179	63	C12H15N2O+
204.1017	11	C12H14NO2+
204.1131	26	C11H14N3O+
205.0972	12	C11H13N2O2+
212.0952	1	C13H12N2O+
218.1654	4	C13H20N3+
219.1003	25	C11H13N3O2+
220.108	4	C11H14N3O2+
227.1179	168	C14H15N2O+
229.0845	23	C12H11N3O2+
230.0924	789	C12H12N3O2+
244.1445	169	C14H18N3O+
245.1285	914	C14H17N2O2+
246.1595	1	C14H20N3O+
247.095	34	C12H13N3O3+
248.103	374	C12H14N3O3+
260.1023	1	C13H14N3O3+
262.155	107	C14H20N3O2+
272.1392	13	C15H18N3O2+
290.1499	229	C15H20N3O3+
