Mass spectrum: AVE6324; LC-ESI-QFT; MS2; CE: 30; R=17500; [M+H]+
Name: AVE6324
Name: [(1R)-1-ethoxycarbonyloxyethyl] 1-[[5-(5-chlorothiophen-2-yl)-1,2-oxazol-3-yl]methyl]-2-[(1-propan-2-ylpiperidin-4-yl)carbamoyl]indole-5-carboxylate
Formula: C31H35ClN4O7S
Exact mass: 642.1915
SMILES: CCOC(=O)O[C@H](C)OC(=O)c1ccc2c(c1)cc(C(=O)NC1CCN(C(C)C)CC1)n2Cc1cc(-c2ccc(Cl)s2)on1
InChI: InChI=1S/C31H35ClN4O7S/c1-5-40-31(39)42-19(4)41-30(38)20-6-7-24-21(14-20)15-25(29(37)33-22-10-12-35(13-11-22)18(2)3)36(24)17-23-16-26(43-34-23)27-8-9-28(32)44-27/h6-9,14-16,18-19,22H,5,10-13,17H2,1-4H3,(H,33,37)/t19-/m1/s1
Instrument: Q Exactive Orbitrap (Thermo Scientific)
Instrument type: LC-ESI-QFT
Ms type: MS2
Ion mode: POSITIVE
Ionization: ESI
Fragmentation mode: HCD
Collision energy: 30
Resolution: 17500
Column name: Acquity BEH C18 1.7um, 2.1x150mm (Waters)
Retention time: 17.315 min
Base peak: 79.0212
Precursor m/z: 643.1988
Precursor type: [M+H]+
Precursor intensity: 9171004.75
m/z	relative intensity	assigned
55.0542	1	C4H7+
56.0495	3	C3H6N+
72.0808	2	C4H10N+
82.0652	1	C5H8N+
84.0808	21	C5H10N+
98.0965	1	C6H12N+
124.1121	31	C8H14N+
126.1277	170	C8H16N+
127.0866	3	C6H11N2O+
144.9509	28	C5H2ClOS+
169.1335	16	C9H17N2O+
188.0344	1	C10H6NO3+
197.9774	4	C8H5ClNOS+
223.0502	12	C7H12ClN2O4+
243.0399	2	C12H7N2O4+
312.1708	3	C18H22N3O2+
329.1731	1	C18H23N3O3+
341.0145	21	C17H10ClN2O2S+
357.0095	5	C17H10ClN2O3S+
366.0094	1	C21H6N2O3S+
366.9944	3	C26H4ClO+
385.0044	21	C18H10ClN2O4S+
413.036	3	C20H14ClN2O4S+
466.1223	1	C24H23ClN4O2S+
467.0937	2	C23H20ClN4O3S+
509.1411	999	C26H26ClN4O3S+
553.1681	10	C30H32ClNO5S+
599.1721	4	C29H32ClN4O6S+
643.199	10	C31H36ClN4O7S+
