Mass spectrum: 5,6-Benzoflavone; LC-ESI-QFT; MS2; CE: 30; R=17500; [M+H]+
Name: 5,6-Benzoflavone
Name: beta-Naphthoflavone
Name: 3-phenylbenzo[f]chromen-1-one
Formula: C19H12O2
Exact mass: 272.0837
SMILES: O=C1C=C(OC2=C1C1=C(C=CC=C1)C=C2)C1=CC=CC=C1
InChI: InChI=1S/C19H12O2/c20-16-12-18(14-7-2-1-3-8-14)21-17-11-10-13-6-4-5-9-15(13)19(16)17/h1-12H
Instrument: Q Exactive Orbitrap (Thermo Scientific)
Instrument type: LC-ESI-QFT
Ms type: MS2
Ion mode: POSITIVE
Ionization: ESI
Fragmentation mode: HCD
Collision energy: 30
Resolution: 17500
Column name: Acquity BEH C18 1.7um, 2.1x150mm (Waters)
Retention time: 19.580 min
Base peak: 79.0211
Precursor m/z: 273.091
Precursor type: [M+H]+
Precursor intensity: 22590880.51562
m/z	relative intensity	assigned
127.0551	2	C10H7+
171.0439	1	C11H7O2+
272.0844	1	C19H12O2+
273.0908	999	C19H13O2+
