Mass spectrum: Tolnaftate; LC-ESI-QFT; MS2; CE: 15; R=17500; [M+H]+
Name: Tolnaftate
Name: O-naphthalen-2-yl N-methyl-N-(3-methylphenyl)carbamothioate
Formula: C19H17NOS
Exact mass: 307.1031
SMILES: CN(C(=S)OC1=CC2=CC=CC=C2C=C1)C1=CC=CC(C)=C1
InChI: InChI=1S/C19H17NOS/c1-14-6-5-9-17(12-14)20(2)19(22)21-18-11-10-15-7-3-4-8-16(15)13-18/h3-13H,1-2H3
Instrument: Q Exactive Orbitrap (Thermo Scientific)
Instrument type: LC-ESI-QFT
Ms type: MS2
Ion mode: POSITIVE
Ionization: ESI
Fragmentation mode: HCD
Collision energy: 15
Resolution: 17500
Column name: Acquity BEH C18 1.7um, 2.1x150mm (Waters)
Retention time: 19.422 min
Base peak: 79.0211
Precursor m/z: 308.1104
Precursor type: [M+H]+
Precursor intensity: 21224014.90625
m/z	relative intensity	assigned
91.0545	3	C7H7+
120.0808	12	C8H10N+
121.0886	7	C8H11N+
129.0699	1	C10H9+
148.0756	709	C9H10NO+
159.0261	7	C10H7S+
164.0528	86	C9H10NS+
180.0477	255	C9H10NOS+
280.1155	4	C18H18NS+
308.1104	999	C19H18NOS+
