Mass spectrum: 2-phenylphenate tetrahydrate; LC-ESI-QFT; MS2; CE: 45; R=17500; [M+H]+
Name: 2-phenylphenate tetrahydrate
Name: 2-phenylphenol
Formula: C12H10O
Exact mass: 170.0732
SMILES: OC1=C(C=CC=C1)C1=CC=CC=C1
InChI: InChI=1S/C12H10O/c13-12-9-5-4-8-11(12)10-6-2-1-3-7-10/h1-9,13H
Instrument: Q Exactive Orbitrap (Thermo Scientific)
Instrument type: LC-ESI-QFT
Ms type: MS2
Ion mode: POSITIVE
Ionization: ESI
Fragmentation mode: HCD
Collision energy: 45
Resolution: 17500
Column name: Acquity BEH C18 1.7um, 2.1x150mm (Waters)
Retention time: 18.023 min
Base peak: 79.0211
Precursor m/z: 171.0804
Precursor type: [M+H]+
Precursor intensity: 1656483
m/z	relative intensity	assigned
55.0178	25	C3H3O+
55.0542	12	C4H7+
57.0699	28	C4H9+
83.0855	25	C6H11+
103.0541	8	C8H7+
115.0542	45	C9H7+
127.0541	6	C10H7+
128.062	445	C10H8+
129.0698	76	C10H9+
141.07	23	C11H9+
142.0776	5	C11H10+
143.0855	505	C11H11+
145.0648	45	C10H9O+
152.062	57	C12H8+
153.0699	267	C12H9+
154.0782	4	C12H10+
169.0648	10	C12H9O+
170.0724	12	C12H10O+
171.0804	999	C12H11O+
