Mass spectrum: Flumetsulam; LC-ESI-QFT; MS2; CE: 30; R=17500; [M+H]+
Name: Flumetsulam
Name: N-(2,6-difluorophenyl)-5-methyl-[1,2,4]triazolo[1,5-a]pyrimidine-2-sulfonamide
Formula: C12H9F2N5O2S
Exact mass: 325.0445
SMILES: CC1=NC2=NC(=NN2C=C1)S(=O)(=O)NC1=C(F)C=CC=C1F
InChI: InChI=1S/C12H9F2N5O2S/c1-7-5-6-19-11(15-7)16-12(17-19)22(20,21)18-10-8(13)3-2-4-9(10)14/h2-6,18H,1H3
Instrument: Q Exactive Orbitrap (Thermo Scientific)
Instrument type: LC-ESI-QFT
Ms type: MS2
Ion mode: POSITIVE
Ionization: ESI
Fragmentation mode: HCD
Collision energy: 30
Resolution: 17500
Column name: Acquity BEH C18 1.7um, 2.1x150mm (Waters)
Retention time: 12.583 min
Base peak: 79.0211
Precursor m/z: 326.0518
Precursor type: [M+H]+
Precursor intensity: 10331218.375
m/z	relative intensity	assigned
57.0134	1	C3H2F+
77.0197	1	C3H3F2+
82.0287	1	C4H4NO+
84.0244	15	C4H3FN+
93.0449	1	C5H5N2+
104.0306	3	C4H4F2N+
106.0397	2	C5H4N3+
112.0193	1	C5H3FNO+
114.999	1	C5HF2O+
124.0507	1	C5H6N3O+
128.0307	22	C6H4F2N+
129.0384	999	C6H5F2N+
132.0256	1	C5H4F2NO+
134.0587	14	C6H6N4+
135.0427	2	C6H5N3O+
135.0665	11	C6H7N4+
136.0505	2	C6H6N3O+
143.0421	1	C6H5F2N2+
144.0255	39	C6H4F2NO+
145.0333	8	C6H5F2NO+
146.0414	3	C6H6F2NO+
151.0615	1	C6H7N4O+
153.023	3	C5H5N4S+
182.0257	27	C6H6N4OS+
183.0335	5	C6H7N4OS+
191.9925	71	C6H4F2NO2S+
197.013	5	C6H5N4O2S+
201.0701	1	C11H8FN3+
215.0233	27	C9H2FN5O+
222.0779	1	C12H8N5+
242.0836	20	C12H9FN5+
262.0899	120	C12H10F2N5+
306.0461	1	C12H9FN5O2S+
326.0518	340	C12H10F2N5O2S+
