Mass spectrum: 8-Methoxypsoralen; LC-ESI-QFT; MS2; CE: 15; R=17500; [M+H]+
Name: 8-Methoxypsoralen
Name: Methoxsalen
Name: 9-methoxyfuro[3,2-g]chromen-7-one
Formula: C12H8O4
Exact mass: 216.0423
SMILES: COC1=C2OC(=O)C=CC2=CC2=C1OC=C2
InChI: InChI=1S/C12H8O4/c1-14-12-10-8(4-5-15-10)6-7-2-3-9(13)16-11(7)12/h2-6H,1H3
Instrument: Q Exactive Orbitrap (Thermo Scientific)
Instrument type: LC-ESI-QFT
Ms type: MS2
Ion mode: POSITIVE
Ionization: ESI
Fragmentation mode: HCD
Collision energy: 15
Resolution: 17500
Column name: Acquity BEH C18 1.7um, 2.1x150mm (Waters)
Retention time: 15.198 min
Base peak: 79.0211
Precursor m/z: 217.0495
Precursor type: [M+H]+
Precursor intensity: 11115704.5625
m/z	relative intensity	assigned
161.0594	2	C10H9O2+
173.0596	3	C11H9O2+
185.0234	5	C11H5O3+
189.0547	5	C11H9O3+
202.026	22	C11H6O4+
217.0494	999	C12H9O4+
