Mass spectrum: 2-Naphthylamine; LC-ESI-QFT; MS2; CE: 75; R=17500; [M+H]+
Name: 2-Naphthylamine
Name: naphthalen-2-amine
Formula: C10H9N
Exact mass: 143.0735
SMILES: NC1=CC2=C(C=CC=C2)C=C1
InChI: InChI=1S/C10H9N/c11-10-6-5-8-3-1-2-4-9(8)7-10/h1-7H,11H2
Instrument: Q Exactive Orbitrap (Thermo Scientific)
Instrument type: LC-ESI-QFT
Ms type: MS2
Ion mode: POSITIVE
Ionization: ESI
Fragmentation mode: HCD
Collision energy: 75
Resolution: 17500
Column name: Acquity BEH C18 1.7um, 2.1x150mm (Waters)
Retention time: 12.165 min
Base peak: 79.0211
Precursor m/z: 144.0808
Precursor type: [M+H]+
Precursor intensity: 4686987.6875
m/z	relative intensity	assigned
53.0386	6	C4H5+
63.023	1	C5H3+
77.0384	4	C6H5+
91.0542	22	C7H7+
103.0542	169	C8H7+
104.0494	2	C7H6N+
115.0543	141	C9H7+
116.0497	4	C8H6N+
116.062	47	C9H8+
117.0699	380	C9H9+
126.0465	20	C10H6+
127.0543	293	C10H7+
128.0621	66	C10H8+
143.0731	677	C10H9N+
144.0808	999	C10H10N+
