Mass spectrum: Tamoxifen; LC-ESI-QFT; MS2; CE: 60; R=17500; [M+H]+
Name: Tamoxifen
Name: 2-[4-[(Z)-1,2-diphenylbut-1-enyl]phenoxy]-N,N-dimethylethanamine
Formula: C26H29NO
Exact mass: 371.2249
SMILES: CC\C(=C(/C1=CC=CC=C1)C1=CC=C(OCCN(C)C)C=C1)C1=CC=CC=C1
InChI: InChI=1S/C26H29NO/c1-4-25(21-11-7-5-8-12-21)26(22-13-9-6-10-14-22)23-15-17-24(18-16-23)28-20-19-27(2)3/h5-18H,4,19-20H2,1-3H3/b26-25-
Instrument: Q Exactive Orbitrap (Thermo Scientific)
Instrument type: LC-ESI-QFT
Ms type: MS2
Ion mode: POSITIVE
Ionization: ESI
Fragmentation mode: HCD
Collision energy: 60
Resolution: 17500
Column name: Acquity BEH C18 1.7um, 2.1x150mm (Waters)
Retention time: 17.455 min
Base peak: 79.0212
Precursor m/z: 372.2322
Precursor type: [M+H]+
Precursor intensity: 34226554
m/z	relative intensity	assigned
56.0495	26	C3H6N+
57.0573	29	C3H7N+
58.0651	20	C3H8N+
70.0651	115	C4H8N+
71.073	2	C4H9N+
72.0807	999	C4H10N+
91.0542	32	C7H7+
103.0542	1	C8H7+
105.0699	7	C8H9+
107.0491	3	C7H7O+
115.0541	2	C9H7+
117.0698	1	C9H9+
128.062	9	C10H8+
129.0698	39	C10H9+
145.0646	1	C10H9O+
165.0699	3	C13H9+
166.0777	1	C13H10+
167.0855	2	C13H11+
178.0776	15	C14H10+
179.0854	3	C14H11+
183.0806	1	C13H11O+
191.0855	6	C15H11+
192.0933	2	C15H12+
193.1013	3	C15H13+
194.0727	2	C14H10O+
203.085	1	C16H11+
204.0933	1	C16H12+
205.1011	1	C16H13+
206.1088	1	C16H14+
207.0805	7	C15H11O+
208.0882	1	C15H12O+
209.0958	1	C15H13O+
215.0851	1	C17H11+
221.0963	2	C16H13O+
228.0933	2	C18H12+
229.1007	1	C18H13+
239.0855	1	C19H11+
240.0929	1	C19H12+
241.1012	1	C19H13+
242.1086	1	C19H14+
243.1163	1	C19H15+
252.0929	1	C20H12+
253.101	5	C20H13+
254.1089	3	C20H14+
255.1161	1	C20H15+
265.1013	1	C21H13+
270.104	1	C20H14O+
279.1166	1	C22H15+
283.1116	2	C21H15O+
