Mass spectrum: N-(3,4-Dichlorophenyl)-N`-methylurea; LC-ESI-QFT; MS2; CE: 75; R=17500; [M+H]+
Name: N-(3,4-Dichlorophenyl)-N'-methylurea
Name: 1-(3,4-dichlorophenyl)-3-methylurea
Formula: C8H8Cl2N2O
Exact mass: 218.0014
SMILES: CNC(=O)NC1=CC(Cl)=C(Cl)C=C1
InChI: InChI=1S/C8H8Cl2N2O/c1-11-8(13)12-5-2-3-6(9)7(10)4-5/h2-4H,1H3,(H2,11,12,13)
Instrument: Q Exactive Orbitrap (Thermo Scientific)
Instrument type: LC-ESI-QFT
Ms type: MS2
Ion mode: POSITIVE
Ionization: ESI
Fragmentation mode: HCD
Collision energy: 75
Resolution: 17500
Column name: Acquity BEH C18 1.7um, 2.1x150mm (Waters)
Retention time: 16.777 min
Base peak: 79.0212
Precursor m/z: 219.0086
Precursor type: [M+H]+
Precursor intensity: 1194401.75
m/z	relative intensity	assigned
53.0386	1	C4H5+
58.0288	92	C2H4NO+
94.0651	14	C6H8N+
95.0492	3	C6H7O+
127.0184	999	C6H6ClN+
131.9534	17	C5H2Cl2+
145.9692	2	C6H4Cl2+
159.9717	22	C6H4Cl2N+
161.9872	50	C6H6Cl2N+
