Mass spectrum: Diflufenzopyr; LC-ESI-QFT; MS2; CE: 45; R=17500; [M+H]+
Name: Diflufenzopyr
Name: 2-[(E)-N-[(3,5-difluorophenyl)carbamoylamino]-C-methylcarbonimidoyl]pyridine-3-carboxylic acid
Formula: C15H12F2N4O3
Exact mass: 334.0877
SMILES: C\C(=N/NC(=O)NC1=CC(F)=CC(F)=C1)C1=NC=CC=C1C(O)=O
InChI: InChI=1S/C15H12F2N4O3/c1-8(13-12(14(22)23)3-2-4-18-13)20-21-15(24)19-11-6-9(16)5-10(17)7-11/h2-7H,1H3,(H,22,23)(H2,19,21,24)/b20-8+
Instrument: Q Exactive Orbitrap (Thermo Scientific)
Instrument type: LC-ESI-QFT
Ms type: MS2
Ion mode: POSITIVE
Ionization: ESI
Fragmentation mode: HCD
Collision energy: 45
Resolution: 17500
Column name: Acquity BEH C18 1.7um, 2.1x150mm (Waters)
Retention time: 16.398 min
Base peak: 79.0211
Precursor m/z: 335.095
Precursor type: [M+H]+
Precursor intensity: 2806478.25
m/z	relative intensity	assigned
78.0339	14	C5H4N+
80.0496	11	C5H6N+
96.0445	183	C5H6NO+
104.0497	28	C7H6N+
106.029	11	C6H4NO+
107.0604	17	C6H7N2+
107.073	14	C7H9N+
108.0444	66	C6H6NO+
110.0601	13	C6H8NO+
117.0449	28	C7H5N2+
119.0604	23	C7H7N2+
121.0397	67	C6H5N2O+
122.0603	17	C7H8NO+
124.0394	76	C6H6NO2+
130.0467	10	C6H6F2N+
132.0445	45	C8H6NO+
133.0398	21	C7H5N2O+
135.0554	63	C7H7N2O+
140.0347	17	C6H6NO3+
144.0559	34	C8H6N3+
145.0395	54	C8H5N2O+
146.0477	34	C8H6N2O+
148.0395	119	C8H6NO2+
150.0553	72	C8H8NO2+
151.0628	78	C8H9NO2+
161.0711	22	C9H9N2O+
162.0663	999	C8H8N3O+
163.0503	844	C8H7N2O2+
206.0562	182	C9H8N3O3+
221.1076	31	C15H13N2+
