Mass spectrum: Dinotefuran; LC-ESI-QFT; MS2; CE: 90; R=17500; [M-H]-
Name: Dinotefuran
Name: Scorpion
Name: 2-methyl-1-nitro-3-(oxolan-3-ylmethyl)guanidine
Formula: C7H14N4O3
Exact mass: 202.1066
SMILES: CNC(NCC1CCOC1)=N[N+]([O-])=O
InChI: InChI=1S/C7H14N4O3/c1-8-7(10-11(12)13)9-4-6-2-3-14-5-6/h6H,2-5H2,1H3,(H2,8,9,10)
Instrument: Q Exactive Orbitrap (Thermo Scientific)
Instrument type: LC-ESI-QFT
Ms type: MS2
Ion mode: NEGATIVE
Ionization: ESI
Fragmentation mode: HCD
Collision energy: 90
Resolution: 17500
Column name: Acquity BEH C18 1.7um, 2.1x150mm (Waters)
Retention time: 9.295 min
Base peak: 201.0993
Precursor m/z: 201.0993
Precursor type: [M-H]-
Precursor intensity: 10103142.15918
m/z	relative intensity	assigned
52.0192	5	C3H2N-
55.0301	139	C2H3N2-
61.0043	999	HN2O2-
66.0349	36	C4H4N-
67.0301	8	C3H3N2-
68.0506	23	C4H6N-
81.0458	4	C4H5N2-
125.0721	6	C6H9N2O-
