Mass spectrum: Ronidazole; LC-ESI-QFT; MS2; CE: 45; R=17500; [M+H]+
Name: Ronidazole
Name: (1-methyl-5-nitroimidazol-2-yl)methyl carbamate
Formula: C6H8N4O4
Exact mass: 200.0546
SMILES: CN1C(COC(N)=O)=NC=C1[N+]([O-])=O
InChI: InChI=1S/C6H8N4O4/c1-9-4(3-14-6(7)11)8-2-5(9)10(12)13/h2H,3H2,1H3,(H2,7,11)
Instrument: Q Exactive Orbitrap (Thermo Scientific)
Instrument type: LC-ESI-QFT
Ms type: MS2
Ion mode: POSITIVE
Ionization: ESI
Fragmentation mode: HCD
Collision energy: 45
Resolution: 17500
Column name: Acquity BEH C18 1.7um, 2.1x150mm (Waters)
Retention time: 8.100 min
Base peak: 79.0211
Precursor m/z: 201.0618
Precursor type: [M+H]+
Precursor intensity: 1413590.59375
m/z	relative intensity	assigned
54.0338	61	C3H4N+
55.0417	657	C3H5N+
110.0476	102	C5H6N2O+
140.0455	999	C5H6N3O2+
