Mass spectrum: Bentazone; LC-ESI-QFT; MS2; CE: 90; R=17500; [M-H]-
Name: Bentazone
Name: 2,2-dioxo-3-propan-2-yl-1H-2lambda6,1,3-benzothiadiazin-4-one
Formula: C10H12N2O3S
Exact mass: 240.0569
SMILES: CC(C)N1C(=O)C2=C(NS1(=O)=O)C=CC=C2
InChI: InChI=1S/C10H12N2O3S/c1-7(2)12-10(13)8-5-3-4-6-9(8)11-16(12,14)15/h3-7,11H,1-2H3
Instrument: Q Exactive Orbitrap (Thermo Scientific)
Instrument type: LC-ESI-QFT
Ms type: MS2
Ion mode: NEGATIVE
Ionization: ESI
Fragmentation mode: HCD
Collision energy: 90
Resolution: 17500
Column name: Acquity BEH C18 1.7um, 2.1x150mm (Waters)
Retention time: 15.674 min
Base peak: 239.0496
Precursor m/z: 239.0496
Precursor type: [M-H]-
Precursor intensity: 64941257.54395
m/z	relative intensity	assigned
63.9625	3	O2S-
65.0398	1	C5H5-
65.9986	3	C3NO-
69.0347	2	C4H5O-
77.0397	1	C6H5-
77.9656	17	NO2S-
78.0349	4	C5H4N-
79.9574	172	O3S-
80.9651	11	HO3S-
81.022	3	C4H3NO-
83.0616	4	C4H7N2-
90.035	11	C6H4N-
91.0189	4	C6H3O-
91.0427	2	C6H5N-
92.0506	3	C6H6N-
93.0345	3	C6H5O-
104.038	10	C6H4N2-
105.022	9	C6H3NO-
105.0346	67	C7H5O-
106.0298	2	C6H4NO-
114.0223	3	C7H2N2-
115.0301	24	C7H3N2-
116.038	59	C7H4N2-
117.0458	328	C7H5N2-
118.0297	2	C7H4NO-
121.0295	74	C7H5O2-
123.0451	20	C7H7O2-
130.0426	1	C9H6O-
131.0252	3	C7H3N2O-
131.0617	1	C8H7N2-
132.0329	999	C7H4N2O-
133.0407	313	C7H5N2O-
145.0407	29	C8H5N2O-
147.0817	1	C10H11O-
148.077	1	C9H10NO-
149.0246	5	C8H5O3-
153.9969	4	C6H4NO2S-
159.0563	9	C9H7N2O-
167.9998	13	C6H4N2O2S-
175.0874	3	C10H11N2O-
194.9868	7	C7H3N2O3S-
195.9946	13	C7H4N2O3S-
197.0026	31	C7H5N2O3S-
