Mass spectrum: 4-(3-Phenylpropyl)pyridine; LC-ESI-QFT; MS2; CE: 45; R=17500; [M+H]+
Name: 4-(3-Phenylpropyl)pyridine
Formula: C14H15N
Exact mass: 197.1204
SMILES: C(CC1=CC=CC=C1)CC1=CC=NC=C1
InChI: InChI=1S/C14H15N/c1-2-5-13(6-3-1)7-4-8-14-9-11-15-12-10-14/h1-3,5-6,9-12H,4,7-8H2
Instrument: Q Exactive Orbitrap (Thermo Scientific)
Instrument type: LC-ESI-QFT
Ms type: MS2
Ion mode: POSITIVE
Ionization: ESI
Fragmentation mode: HCD
Collision energy: 45
Resolution: 17500
Column name: Acquity BEH C18 1.7um, 2.1x150mm (Waters)
Retention time: 13.607 min
Base peak: 79.0211
Precursor m/z: 198.1277
Precursor type: [M+H]+
Precursor intensity: 36950613
m/z	relative intensity	assigned
79.0413	1	C5H5N+
80.0494	12	C5H6N+
91.0539	1	C7H7+
92.0494	3	C6H6N+
93.0572	68	C6H7N+
94.0651	10	C6H8N+
105.0699	26	C8H9+
106.0651	188	C7H8N+
107.0729	57	C7H9N+
120.0807	7	C8H10N+
155.0854	1	C12H11+
198.1275	999	C14H16N+
