Mass spectrum: 2,2-Dimethyl-2,3-dihydro-1-benzofuran-7-amine; LC-ESI-QFT; MS2; CE: 90; R=17500; [M+H]+
Name: 2,2-Dimethyl-2,3-dihydro-1-benzofuran-7-amine
Name: 2,2-dimethyl-3H-1-benzofuran-7-amine
Formula: C10H13NO
Exact mass: 163.0997
SMILES: CC1(C)CC2=C(O1)C(N)=CC=C2
InChI: InChI=1S/C10H13NO/c1-10(2)6-7-4-3-5-8(11)9(7)12-10/h3-5H,6,11H2,1-2H3
Instrument: Q Exactive Orbitrap (Thermo Scientific)
Instrument type: LC-ESI-QFT
Ms type: MS2
Ion mode: POSITIVE
Ionization: ESI
Fragmentation mode: HCD
Collision energy: 90
Resolution: 17500
Column name: Acquity BEH C18 1.7um, 2.1x150mm (Waters)
Retention time: 12.296 min
Base peak: 79.0212
Precursor m/z: 164.107
Precursor type: [M+H]+
Precursor intensity: 24425819.6875
m/z	relative intensity	assigned
51.023	1	C4H3+
53.0021	4	C3HO+
53.0386	73	C4H5+
54.0338	9	C3H4N+
55.0179	19	C3H3O+
55.0542	43	C4H7+
56.0496	1	C3H6N+
63.0228	1	C5H3+
65.0385	63	C5H5+
67.0542	65	C5H7+
69.0337	1	C4H5O+
74.0965	1	C4H12N+
77.0385	33	C6H5+
78.0463	5	C6H6+
79.0542	32	C6H7+
80.0494	131	C5H6N+
81.0335	8	C5H5O+
81.0573	29	C5H7N+
91.0542	422	C7H7+
92.0494	15	C6H6N+
93.0335	5	C6H5O+
93.0573	80	C6H7N+
93.0699	8	C7H9+
94.0651	999	C6H8N+
95.0491	209	C6H7O+
96.0445	6	C5H6NO+
103.0542	34	C8H7+
104.062	32	C8H8+
105.0336	9	C7H5O+
105.0698	3	C8H9+
106.0415	1	C7H6O+
106.0651	16	C7H8N+
107.0491	32	C7H7O+
107.0728	1	C7H9N+
108.0444	26	C6H6NO+
108.0808	2	C7H10N+
109.0522	691	C6H7NO+
110.06	13	C6H8NO+
115.0542	12	C9H7+
117.0573	8	C8H7N+
117.0698	33	C9H9+
118.0651	4	C8H8N+
119.0492	23	C8H7O+
119.0855	33	C9H11+
120.0442	5	C7H6NO+
120.0808	2	C8H10N+
121.0887	1	C8H11N+
122.06	344	C7H8NO+
128.0619	10	C10H8+
129.0698	3	C10H9+
130.0651	33	C9H8N+
131.0491	20	C9H7O+
131.073	8	C9H9N+
132.0569	14	C9H8O+
132.0807	10	C9H10N+
134.06	15	C8H8NO+
135.0679	4	C8H9NO+
136.0757	12	C8H10NO+
145.0646	2	C10H9O+
147.0803	13	C10H11O+
148.0756	7	C9H10NO+
149.0836	13	C9H11NO+
164.107	1	C10H14NO+
