Mass spectrum: Karbutilate; LC-ESI-QFT; MS2; CE: 75; R=17500; [M+H]+
Name: Karbutilate
Name: [3-(dimethylcarbamoylamino)phenyl] N-tert-butylcarbamate
Formula: C14H21N3O3
Exact mass: 279.1583
SMILES: CN(C)C(=O)NC1=CC=CC(OC(=O)NC(C)(C)C)=C1
InChI: InChI=1S/C14H21N3O3/c1-14(2,3)16-13(19)20-11-8-6-7-10(9-11)15-12(18)17(4)5/h6-9H,1-5H3,(H,15,18)(H,16,19)
Instrument: Q Exactive Orbitrap (Thermo Scientific)
Instrument type: LC-ESI-QFT
Ms type: MS2
Ion mode: POSITIVE
Ionization: ESI
Fragmentation mode: HCD
Collision energy: 75
Resolution: 17500
Column name: Acquity BEH C18 1.7um, 2.1x150mm (Waters)
Retention time: 15.141 min
Base peak: 79.0211
Precursor m/z: 280.1656
Precursor type: [M+H]+
Precursor intensity: 6578383.75
m/z	relative intensity	assigned
56.0132	7	C2H2NO+
57.0699	2	C4H9+
65.0386	20	C5H5+
70.0651	6	C4H8N+
72.0444	999	C3H6NO+
80.0496	5	C5H6N+
88.0757	8	C4H10NO+
108.0445	31	C6H6NO+
111.044	23	C6H7O2+
115.0543	3	C9H7+
117.0699	19	C9H9+
118.0776	5	C9H10+
121.0398	6	C6H5N2O+
128.1068	3	C7H14NO+
136.0394	46	C7H6NO2+
160.1127	2	C11H14N+
