Mass spectrum: 3-Hydroxy-4-butyrophenetidide; LC-ESI-QFT; MS2; CE: 75; R=17500; [M+H]+
Name: 3-Hydroxy-4-butyrophenetidide
Name: Bucetin
Name: N-(4-ethoxyphenyl)-3-hydroxybutanamide
Formula: C12H17NO3
Exact mass: 223.1208
SMILES: CCOC1=CC=C(NC(=O)CC(C)O)C=C1
InChI: InChI=1S/C12H17NO3/c1-3-16-11-6-4-10(5-7-11)13-12(15)8-9(2)14/h4-7,9,14H,3,8H2,1-2H3,(H,13,15)
Instrument: Q Exactive Orbitrap (Thermo Scientific)
Instrument type: LC-ESI-QFT
Ms type: MS2
Ion mode: POSITIVE
Ionization: ESI
Fragmentation mode: HCD
Collision energy: 75
Resolution: 17500
Column name: Acquity BEH C18 1.7um, 2.1x150mm (Waters)
Retention time: 14.383 min
Base peak: 79.0211
Precursor m/z: 224.1281
Precursor type: [M+H]+
Precursor intensity: 10435421.1875
m/z	relative intensity	assigned
53.0023	1	C3HO+
53.0387	2	C4H5+
65.0386	6	C5H5+
68.0131	3	C3H2NO+
69.0334	10	C4H5O+
80.0495	9	C5H6N+
81.0335	60	C5H5O+
82.0651	2	C5H8N+
91.0542	2	C7H7+
92.0495	6	C6H6N+
93.0336	3	C6H5O+
93.0574	2	C6H7N+
107.0493	3	C7H7O+
108.0444	999	C6H6NO+
109.0522	8	C6H7NO+
110.0601	48	C6H8NO+
111.0441	11	C6H7O2+
136.0758	96	C8H10NO+
138.0914	23	C8H12NO+
164.1071	1	C10H14NO+
