Mass spectrum: Pyraclostrobin; LC-ESI-QFT; MS2; CE: 45; R=17500; [M+H]+
Name: Pyraclostrobin
Name: methyl N-[2-[[1-(4-chlorophenyl)pyrazol-3-yl]oxymethyl]phenyl]-N-methoxycarbamate
Formula: C19H18ClN3O4
Exact mass: 387.0986
SMILES: CON(C(=O)OC)C1=C(COC2=NN(C=C2)C2=CC=C(Cl)C=C2)C=CC=C1
InChI: InChI=1S/C19H18ClN3O4/c1-25-19(24)23(26-2)17-6-4-3-5-14(17)13-27-18-11-12-22(21-18)16-9-7-15(20)8-10-16/h3-12H,13H2,1-2H3
Instrument: Q Exactive Orbitrap (Thermo Scientific)
Instrument type: LC-ESI-QFT
Ms type: MS2
Ion mode: POSITIVE
Ionization: ESI
Fragmentation mode: HCD
Collision energy: 45
Resolution: 17500
Column name: Acquity BEH C18 1.7um, 2.1x150mm (Waters)
Retention time: 18.708 min
Base peak: 79.0211
Precursor m/z: 388.1059
Precursor type: [M+H]+
Precursor intensity: 16562395.875
m/z	relative intensity	assigned
59.0129	1	C2H3O2+
65.0384	2	C5H5+
75.0441	7	C3H7O2+
77.0387	1	C6H5+
79.0541	5	C6H7+
89.0387	1	C7H5+
91.0542	23	C7H7+
92.0256	1	C6H4O+
94.0414	4	C6H6O+
95.0492	5	C6H7O+
103.0415	1	C7H5N+
104.0494	38	C7H6N+
105.0573	72	C7H7N+
106.0652	29	C7H8N+
107.0492	2	C7H7O+
107.0729	12	C7H9N+
108.0443	1	C6H6NO+
109.0648	12	C7H9O+
116.0495	10	C8H6N+
117.0573	14	C8H7N+
118.0651	34	C8H8N+
119.0366	73	C7H5NO+
120.0444	43	C7H6NO+
121.0519	1	C7H7NO+
121.0648	16	C8H9O+
123.0679	25	C7H9NO+
126.0104	2	C6H5ClN+
128.0495	2	C9H6N+
130.0288	13	C8H4NO+
130.0652	2	C9H8N+
131.0603	1	C8H7N2+
132.0444	150	C8H6NO+
133.0522	346	C8H7NO+
134.06	87	C8H8NO+
135.0439	1	C8H7O2+
135.0679	5	C8H9NO+
137.0595	2	C8H9O2+
138.0105	5	C7H5ClN+
139.0056	3	C6H4ClN2+
139.0184	1	C7H6ClN+
143.0605	2	C9H7N2+
144.0445	3	C9H6NO+
144.0805	2	C10H10N+
146.06	34	C9H8NO+
148.0394	5	C8H6NO2+
149.0472	447	C8H7NO2+
151.0181	1	C8H6ClN+
151.0628	7	C8H9NO2+
156.0444	3	C10H6NO+
159.0553	3	C9H7N2O+
161.0469	2	C9H7NO2+
162.055	133	C9H8NO2+
163.0628	999	C9H9NO2+
164.0705	120	C9H10NO2+
166.0864	5	C9H12NO2+
174.055	1	C10H8NO2+
178.0495	2	C9H8NO3+
179.0577	12	C9H9NO3+
180.0214	2	C9H7ClNO+
188.0708	2	C11H10NO2+
193.0167	3	C9H6ClN2O+
194.0813	7	C10H12NO3+
204.0814	1	C15H10N+
207.979	3	C12O4+
218.084	11	C15H10N2+
219.0916	3	C15H11N2+
232.0758	6	C16H10NO+
232.0873	1	C15H10N3+
233.0948	4	C15H11N3+
234.0778	1	C15H10N2O+
241.0524	3	C17H7NO+
253.0527	18	C15H10ClN2+
261.0897	22	C16H11N3O+
267.0563	2	C15H10ClN3+
268.0635	4	C15H11ClN3+
281.0475	3	C16H10ClN2O+
296.0586	35	C16H11ClN3O+
324.0529	2	C17H11ClN3O2+
