Mass spectrum: Pirinixic acid; LC-ESI-QFT; MS2; CE: 15; R=17500; [M-H]-
Name: Pirinixic acid
Name: 2-[4-chloro-6-(2,3-dimethylanilino)pyrimidin-2-yl]sulfanylacetic acid
Formula: C14H14ClN3O2S
Exact mass: 323.0495
SMILES: CC1=C(C)C(NC2=NC(SCC(O)=O)=NC(Cl)=C2)=CC=C1
InChI: InChI=1S/C14H14ClN3O2S/c1-8-4-3-5-10(9(8)2)16-12-6-11(15)17-14(18-12)21-7-13(19)20/h3-6H,7H2,1-2H3,(H,19,20)(H,16,17,18)
Instrument: Q Exactive Orbitrap (Thermo Scientific)
Instrument type: LC-ESI-QFT
Ms type: MS2
Ion mode: NEGATIVE
Ionization: ESI
Fragmentation mode: HCD
Collision energy: 15
Resolution: 17500
Column name: Acquity BEH C18 1.7um, 2.1x150mm (Waters)
Retention time: 17.832 min
Base peak: 317.1395
Precursor m/z: 322.0422
Precursor type: [M-H]-
Precursor intensity: 12300554.36914
m/z	relative intensity	assigned
138.9972	22	C5H3N2OS-
169.0771	8	C11H9N2-
243.0598	6	C13H11N2OS-
248.0598	88	C12H11ClN3O-
264.0372	1	C12H11ClN3S-
278.0525	999	C13H13ClN3S-
