Mass spectrum: Ilepatril; LC-ESI-QFT; MS2; CE: 45; R=17500; [M+H]+
Name: Ilepatril
Name: (4S,7S,12bR)-7-[[(2S)-2-acetylsulfanyl-3-methylbutanoyl]amino]-6-oxo-2,3,4,7,8,12b-hexahydro-1H-pyrido[2,1-a][2]benzazepine-4-carboxylic acid
Formula: C22H28N2O5S
Exact mass: 432.1719
SMILES: CC(C)[C@H](SC(C)=O)C(=O)N[C@H]1CC2=C(C=CC=C2)[C@H]2CCC[C@H](N2C1=O)C(O)=O
InChI: InChI=1S/C22H28N2O5S/c1-12(2)19(30-13(3)25)20(26)23-16-11-14-7-4-5-8-15(14)17-9-6-10-18(22(28)29)24(17)21(16)27/h4-5,7-8,12,16-19H,6,9-11H2,1-3H3,(H,23,26)(H,28,29)/t16-,17+,18-,19-/m0/s1
Instrument: Q Exactive Orbitrap (Thermo Scientific)
Instrument type: LC-ESI-QFT
Ms type: MS2
Ion mode: POSITIVE
Ionization: ESI
Fragmentation mode: HCD
Collision energy: 45
Resolution: 17500
Column name: Acquity BEH C18 1.7um, 2.1x150mm (Waters)
Retention time: 16.899 min
Base peak: 79.0212
Precursor m/z: 433.1792
Precursor type: [M+H]+
Precursor intensity: 11834008
m/z	relative intensity	assigned
55.0542	15	C4H7+
56.0495	25	C3H6N+
57.0698	1	C4H9+
68.0494	1	C4H6N+
70.0651	2	C4H8N+
74.0236	1	C2H4NO2+
82.0651	1	C5H8N+
89.0419	297	C4H9S+
91.0541	1	C7H7+
99.0261	1	C5H7S+
105.0698	1	C8H9+
114.055	4	C5H8NO2+
115.0542	1	C9H7+
117.0697	4	C9H9+
128.0704	9	C6H10NO2+
129.0699	4	C10H9+
131.0525	259	C6H11OS+
132.0808	2	C9H10N+
134.0633	3	C5H12NOS+
141.0699	34	C11H9+
143.0853	6	C11H11+
144.0808	2	C10H10N+
146.0965	26	C10H12N+
156.0808	12	C11H10N+
157.1013	1	C12H13+
158.0964	65	C11H12N+
159.0474	13	C7H11O2S+
167.0855	25	C13H11+
169.1013	27	C13H13+
170.0963	15	C12H12N+
182.0966	43	C13H12N+
184.1121	999	C13H14N+
185.1193	1	C13H15N+
186.1278	38	C13H16N+
194.0966	5	C14H12N+
197.0959	1	C14H13O+
200.1072	4	C13H14NO+
201.1387	60	C13H17N2+
202.1226	31	C13H16NO+
210.0914	2	C14H12NO+
211.1229	2	C14H15N2+
212.1069	13	C14H14NO+
216.1018	28	C13H14NO2+
227.1182	7	C14H15N2O+
228.1019	59	C14H14NO2+
229.1336	98	C14H17N2O+
230.1176	471	C14H16NO2+
232.1329	2	C14H18NO2+
240.1017	4	C15H14NO2+
247.1444	20	C14H19N2O2+
255.1118	1	C15H15N2O2+
257.1281	1	C15H17N2O2+
271.1441	1	C16H19N2O2+
275.1392	7	C15H19N2O3+
301.173	3	C18H25N2S+
311.1752	6	C19H23N2O2+
317.1682	46	C18H25N2OS+
327.1541	1	C19H23N2OS+
345.1631	49	C19H25N2O2S+
359.1794	4	C20H27N2O2S+
363.173	1	C19H27N2O3S+
373.1586	1	C20H25N2O3S+
