Mass spectrum: PharmaGSID_47333; LC-ESI-QFT; MS2; CE: 45; R=17500; [M+H]+
Name: (3S)-3-(2-methylpyrimidin-5-yl)-9-(5,6,7,8-tetrahydro-1,8-naphthyridin-2-yl)nonanoic acid
Name: PharmaGSID_47333
Formula: C22H30N4O2
Exact mass: 382.2369
SMILES: CC1=NC=C(C=N1)[C@@H](CCCCCCC1=NC2=C(CCCN2)C=C1)CC(O)=O
InChI: InChI=1S/C22H30N4O2/c1-16-24-14-19(15-25-16)18(13-21(27)28)7-4-2-3-5-9-20-11-10-17-8-6-12-23-22(17)26-20/h10-11,14-15,18H,2-9,12-13H2,1H3,(H,23,26)(H,27,28)/t18-/m0/s1
Instrument: Q Exactive Orbitrap (Thermo Scientific)
Instrument type: LC-ESI-QFT
Ms type: MS2
Ion mode: POSITIVE
Ionization: ESI
Fragmentation mode: HCD
Collision energy: 45
Resolution: 17500
Column name: Acquity BEH C18 1.7um, 2.1x150mm (Waters)
Retention time: 13.643 min
Base peak: 79.0212
Precursor m/z: 383.2442
Precursor type: [M+H]+
Precursor intensity: 20981362.6875
m/z	relative intensity	assigned
59.0603	1	C2H7N2+
93.0699	1	C7H9+
94.0651	1	C6H8N+
95.0491	1	C6H7O+
121.0761	2	C7H9N2+
121.101	1	C9H13+
122.0839	1	C7H10N2+
133.0759	1	C8H9N2+
133.1011	1	C10H13+
135.0916	8	C8H11N2+
145.076	4	C9H9N2+
145.1013	2	C11H13+
146.0839	1	C9H10N2+
147.0917	17	C9H11N2+
148.0994	153	C9H12N2+
149.1073	7	C9H13N2+
157.076	3	C10H9N2+
159.0918	2	C10H11N2+
161.1073	189	C10H13N2+
162.1151	17	C10H14N2+
165.1021	1	C9H13N2O+
171.0916	1	C11H11N2+
173.1073	8	C11H13N2+
174.1151	3	C11H14N2+
175.123	47	C11H15N2+
176.1307	1	C11H16N2+
185.1076	2	C12H13N2+
187.1232	5	C12H15N2+
188.1307	2	C12H16N2+
189.1386	5	C12H17N2+
197.1074	2	C13H13N2+
199.1231	5	C13H15N2+
201.1385	4	C13H17N2+
203.1542	6	C13H19N2+
204.1621	4	C13H20N2+
211.1231	1	C14H15N2+
213.1383	2	C14H17N2+
215.1542	6	C14H19N2+
217.1699	10	C14H21N2+
225.1389	3	C15H17N2+
237.1387	1	C16H17N2+
239.1542	1	C16H19N2+
241.1696	1	C16H21N2+
253.1701	1	C17H21N2+
255.1854	1	C17H23N2+
265.1699	14	C18H21N2+
267.1488	1	C17H19N2O+
269.2012	1	C18H25N2+
271.2167	1	C18H27N2+
279.1855	3	C19H23N2+
281.2011	46	C19H25N2+
282.1961	3	C18H24N3+
289.1702	4	C20H21N2+
295.1913	1	C18H23N4+
296.2127	2	C19H26N3+
298.2279	2	C19H28N3+
306.1964	5	C20H24N3+
307.1805	7	C20H23N2O+
323.223	191	C20H27N4+
324.207	18	C20H26N3O+
325.1911	10	C20H25N2O2+
337.2054	2	C22H27NO2+
337.2386	17	C21H29N4+
339.2542	9	C21H31N4+
342.2185	3	C20H28N3O2+
347.2229	11	C22H27N4+
355.2125	6	C20H27N4O2+
365.2337	309	C22H29N4O+
383.2442	999	C22H31N4O2+
