Mass spectrum: Flufenpyr-ethyl; LC-ESI-QFT; MS2; CE: 75; R=17500; [M+H]+
Name: Flufenpyr-ethyl
Formula: C16H13ClF4N2O4
Exact mass: 408.0500
SMILES: CCOC(=O)COC1=CC(N2N=CC(=C(C)C2=O)C(F)(F)F)=C(F)C=C1Cl
InChI: InChI=1S/C16H13ClF4N2O4/c1-3-26-14(24)7-27-13-5-12(11(18)4-10(13)17)23-15(25)8(2)9(6-22-23)16(19,20)21/h4-6H,3,7H2,1-2H3
Instrument: Q Exactive Orbitrap (Thermo Scientific)
Instrument type: LC-ESI-QFT
Ms type: MS2
Ion mode: POSITIVE
Ionization: ESI
Fragmentation mode: HCD
Collision energy: 75
Resolution: 17500
Column name: Acquity BEH C18 1.7um, 2.1x150mm (Waters)
Retention time: 18.118 min
Base peak: 79.0212
Precursor m/z: 409.0573
Precursor type: [M+H]+
Precursor intensity: 8106499.625
m/z	relative intensity	assigned
53.0021	18	C3HO+
54.0338	17	C3H4N+
55.0179	12	C3H3O+
57.0135	75	C3H2F+
59.0492	11	C3H7O+
62.0151	5	C5H2+
62.9632	39	CClO+
63.0228	32	C5H3+
64.0182	110	C4H2N+
66.0151	5	CH2F2N+
66.0336	7	C4H4N+
66.9745	17	CHClF+
67.0416	9	C4H5N+
68.9946	43	CF3+
69.0133	8	C4H2F+
70.0087	5	C3HFN+
70.0213	11	C4H3F+
70.0288	6	C3H4NO+
71.0291	62	C4H4F+
72.0244	6	C3H3FN+
72.9839	98	C3H2Cl+
74.0151	43	C6H2+
75.0041	100	C3HF2+
75.023	16	C6H3+
76.0181	15	C5H2N+
77.0022	13	C5HO+
77.0196	43	C3H3F2+
78.0338	6	C5H4N+
79.0178	18	C5H3O+
81.0135	65	C5H2F+
81.0335	10	C5H5O+
82.0287	15	C4H4NO+
83.0292	308	C5H4F+
84.0244	11	C4H3FN+
84.9839	86	C4H2Cl+
85.0323	13	C4H4FN+
86.9633	61	C3ClO+
88.0119	5	C4H2F2+
88.0182	9	C6H2N+
89.0198	232	C4H3F2+
90.0338	15	C6H4N+
90.9745	41	C3HClF+
91.0177	11	C6H3O+
93.0135	33	C6H2F+
94.0213	17	C6H3F+
95.0102	13	C3H2F3+
96.0244	24	C5H3FN+
96.0368	9	C6H5F+
96.0445	7	C5H6NO+
96.984	59	C5H2Cl+
97.0085	12	C5H2FO+
98.0402	18	C5H5FN+
98.9996	280	C5H4Cl+
99.0241	22	C5H4FO+
100.0187	19	C7H2N+
101.0198	371	C5H3F2+
102.0464	9	C8H6+
103.9822	6	C4H2ClF+
104.0131	8	C6H2NO+
104.0307	76	C4H4F2N+
104.0496	9	C7H6N+
104.9903	34	C4H3ClF+
106.0287	23	C6H4NO+
106.9695	8	C3HClFO+
107.0103	25	C4H2F3+
107.0291	16	C7H4F+
108.0244	188	C6H3FN+
108.984	362	C6H2Cl+
109.0322	159	C6H4FN+
110.0402	19	C6H5FN+
111.0241	130	C6H4FO+
111.0479	12	C6H6FN+
111.9947	9	C5H3ClN+
112.0318	31	C6H5FO+
112.9787	34	C5H2ClO+
113.0397	15	C6H6FO+
114.0105	9	C5H5ClN+
114.015	158	C5H2F2N+
114.035	40	C5H5FNO+
114.9743	6	C5HClF+
116.0307	228	C5H4F2N+
116.9902	735	C5H3ClF+
117.998	10	C5H4ClF+
118.0289	17	C7H4NO+
119.0305	30	C5H5F2O+
120.0242	14	C7H3FN+
120.037	7	C8H5F+
120.0442	6	C7H6NO+
121.026	169	C5H4F3+
121.0321	16	C7H4FN+
121.0449	13	C8H6F+
122.0213	26	C4H3F3N+
122.0401	104	C7H5FN+
122.9994	7	C7H4Cl+
123.024	11	C7H4FO+
123.0353	33	C6H4FN2+
123.0479	25	C7H6FN+
123.9949	183	C6H3ClN+
124.0194	21	C6H3FNO+
124.0365	13	C4H5F3N+
126.0105	11	C6H5ClN+
126.0152	11	C6H2F2N+
126.035	178	C6H5FNO+
126.9945	60	C6H4ClO+
127.0419	14	C9H5N+
128.0306	21	C6H4F2N+
128.0497	21	C9H6N+
128.9902	524	C6H3ClF+
129.0344	31	C6H6FO2+
129.9981	45	C6H4ClF+
130.0527	11	C8H6N2+
130.9697	7	C5HClFO+
130.9933	11	C5H3ClFN+
132.0011	23	C5H4ClFN+
132.0254	128	C5H4F2NO+
132.9852	20	C5H3ClFO+
133.0455	26	C6H7F2O+
134.0212	92	C5H3F3N+
134.0401	23	C8H5FN+
135.029	37	C5H4F3N+
135.0479	52	C8H6FN+
135.9949	8	C7H3ClN+
136.0194	19	C7H3FNO+
136.0316	7	C8H5FO+
136.037	19	C5H5F3N+
136.0432	28	C7H5FN2+
136.0556	11	C8H7FN+
137.0273	51	C7H4FNO+
138.035	81	C7H5FNO+
139.0059	9	C6H4ClN2+
139.0181	10	C7H6ClN+
139.03	6	C6H4FN2O+
140.0309	6	C7H4F2N+
140.0507	24	C7H7FNO+
141.026	53	C6H3F2N2+
141.9856	20	C6H2ClFN+
142.0052	42	C6H5ClNO+
142.029	7	C6H7ClN2+
143.0059	37	C7H5ClF+
143.0504	16	C7H8FO2+
144.0011	386	C6H4ClFN+
144.0255	88	C6H4F2NO+
144.9852	56	C6H3ClFO+
145.0093	86	C6H3F2O2+
145.0326	7	C9H4FN+
145.9929	21	C6H4ClFO+
146.016	10	C9H3FO+
146.0216	15	C2H9ClNO4+
146.0406	31	C9H5FN+
146.0527	63	C10H7F+
147.0008	82	C6H5ClFO+
147.0294	10	C2H10ClNO4+
147.0353	54	C8H4FN2+
147.048	25	C9H6FN+
147.0607	20	C10H8F+
148.0193	10	C8H3FNO+
148.0305	36	C12H4+
148.0369	43	C6H5F3N+
148.0557	106	C9H7FN+
149.0265	8	C11H3N+
149.0329	8	C2H5F4N2O+
149.0397	17	C9H6FO+
149.0512	7	C8H6FN2+
150.0105	9	C8H5ClN+
150.0349	56	C8H5FNO+
151.0295	6	C10H3N2+
151.0358	12	C9H5F2+
151.0426	85	C8H6FNO+
151.99	33	C7H3ClNO+
152.0138	11	C7H5ClN2+
152.0312	38	C8H4F2N+
152.0506	17	C8H7FNO+
153.0387	11	C8H5F2N+
153.0449	25	C10H5N2+
154.0055	35	C7H5ClNO+
154.0295	16	C7H7ClN2+
154.0527	34	C10H6N2+
155.0604	377	C10H7N2+
156.0012	94	C7H4ClFN+
156.0182	8	C5H4F4O+
156.0249	9	C4H6F2O4+
156.0681	10	C10H8N2+
156.9854	202	C2F3N2O3+
156.9964	621	C6H3ClFN2+
158.0166	12	C7H6ClFN+
158.0399	27	C10H5FN+
159.0358	13	C9H4FN2+
159.0478	25	C10H6FN+
160.0431	18	C9H5FN2+
161.0511	13	C9H6FN2+
162.0104	45	C9H5ClN+
162.035	98	C9H5FNO+
163.0236	30	C6H4F3NO+
163.0298	10	C8H4FN2O+
164.0012	36	C4H5ClF4+
164.0251	9	C3H10ClFO4+
164.0317	81	C6H5F3NO+
164.0383	18	C8H5FN2O+
164.0507	19	C9H7FNO+
166.0465	10	C9H6F2N+
167.0057	36	C9H5ClF+
168.0013	44	C8H4ClFN+
169.0089	34	C8H5ClFN+
169.0259	47	C9H4F3+
170.0167	229	C8H6ClFN+
170.9882	29	C7H3ClFNO+
171.0119	10	C7H5ClFN2+
171.0549	8	C10H7N2O+
171.996	87	C7H4ClFNO+
172.037	12	C4H11ClNO4+
173.0039	150	C7H5ClFNO+
173.0511	249	C10H6FN2+
174.0114	18	C7H6ClFNO+
174.0352	32	C10H5FNO+
174.0588	259	C10H7FN2+
175.0167	8	C4H9ClFO4+
175.0352	22	C11H5F2+
175.0429	30	C10H6FNO+
175.0666	140	C10H8FN2+
176.0308	236	C4H7F3O4+
176.0502	36	C10H7FNO+
177.0385	115	C10H5F2N+
177.0463	8	C11H10Cl+
177.0583	22	C10H8FNO+
178.0055	18	C9H5ClNO+
178.0338	7	C9H4F2N2+
178.0465	11	C10H6F2N+
179.0427	126	C6H6F3N2O+
180.0257	7	C9H4F2NO+
181.0404	21	C5H10ClF4+
182.0171	27	C6H5F3O3+
182.0211	35	C3H8ClF3NO2+
182.0478	11	C5H11ClF4+
183.0372	57	C10H9ClF+
183.0554	47	C11H7N2O+
183.996	59	C8H4ClFNO+
184.0434	138	C11H5FN2+
185.004	95	C8H5ClFNO+
185.0275	7	C8H7ClFN2+
185.0514	17	C11H6FN2+
186.0117	37	C8H6ClFNO+
186.0422	17	C10H6N2O2+
186.0587	11	C11H7FN2+
187.0303	12	C10H4FN2O+
188.0392	6	C7H6F2N2O2+
188.0505	23	C11H7FNO+
189.0212	65	C10H6ClN2+
189.0466	11	C12H10Cl+
190.0061	9	C10H3FO3+
190.0203	9	C5H9ClF2O3+
190.0293	83	C10H7ClN2+
190.9869	16	C8H3ClF3+
191.0414	23	C10H5F2N2+
192.0011	80	C10H4ClFN+
192.0256	29	C10H4F2NO+
193.009	18	C10H5ClFN+
194.0414	27	C10H6F2NO+
195.0123	26	C9H5ClFN2+
195.042	64	C7H12ClO4+
195.9962	90	C9H4ClFNO+
196.9914	58	C8H3ClFN2O+
197.0444	86	C10H6F3N+
197.9993	560	C8H4ClFN2O+
199.0071	109	C8H5ClFN2O+
199.048	52	C5H12ClN2O4+
199.9908	31	C8H4ClFNO2+
202.0538	246	C11H7FN2O+
203.0425	237	C8H6F3N2O+
203.0616	485	C11H8FN2O+
204.0495	583	C11H6F2N2+
205.0333	51	C11H5F2NO+
205.0569	53	C11H7F2N2+
206.0414	14	C8H9ClF2N2+
207.0118	18	C10H5ClFN2+
207.0281	13	C2H10ClF4NO3+
208.0202	25	C10H4F2NO2+
211.0192	60	C10H7ClFNO+
212.007	76	C13H2F2O+
212.0382	24	C12H5FN2O+
213.0461	12	C12H6FN2O+
214.0067	13	C9H6ClFNO2+
215.0018	42	C8H5ClFN2O2+
215.0421	7	C11H7N2O3+
216.0431	129	C10H6F4N+
217.0395	6	C14H5N2O+
217.9979	83	C9H4ClF3N+
218.0241	42	C11H7ClN2O+
219.9962	26	C11H4ClFNO+
220.0196	14	C11H6ClFN2+
221.0038	9	C11H5ClFNO+
221.0519	54	C11H7F2N2O+
222.0118	23	C11H6ClFNO+
223.0071	105	C10H5ClFN2O+
223.0478	675	C11H6F3N2+
223.9908	20	C10H4ClFNO2+
224.0556	350	C11H7F3N2+
225.0395	84	C11H6F3NO+
225.0633	36	C11H8F3N2+
225.9866	54	C10H3ClF2NO+
226.0272	93	C11H4F4N+
227.0334	45	C5H10ClF4NO2+
229.0169	11	C12H4FNO3+
229.0386	65	C6H11ClFN2O4+
230.0219	13	C9H9ClNO4+
231.0372	90	C14H9ClF+
231.0556	14	C9H12ClF4+
232.0438	58	C12H6F2N2O+
233.052	33	C12H7F2N2O+
235.0481	23	C8H12ClN2O4+
236.0154	60	C11H4F2NO3+
237.0226	476	C11H7ClFN2O+
238.0104	52	C11H5ClF2N2+
238.0306	53	C11H8ClFN2O+
239.0046	13	C4H7ClF3N2O4+
239.0182	161	C11H6ClF2N2+
240.0022	135	C11H5ClF2NO+
241.0383	22	C11H5F4N2+
241.0581	6	C11H8F3N2O+
241.9978	42	C11H4ClF3N+
242.0462	29	C11H6F4N2+
243.0541	191	C11H7F4N2+
244.0377	22	C11H6F4NO+
244.0617	44	C11H8F4N2+
244.9851	15	C10H3ClF3NO+
245.0095	17	C10H3F4NO2+
245.0453	32	C10H12ClNO4+
245.9928	54	C10H4ClF3NO+
246.0174	12	C10H4F4NO2+
247.0071	104	C12H5ClFN2O+
251.0428	699	C12H6F3N2O+
252.0505	215	C12H7F3N2O+
253.0584	69	C12H8F3N2O+
254.0465	15	C8H12ClFN2O4+
255.0537	28	C12H7F4N2+
257.0092	11	C11H3F4NO2+
257.0332	147	C11H5F4N2O+
259.024	78	C14H4F3NO+
259.0485	13	C11H7F4N2O+
260.0084	58	C11H6ClF3NO+
264.9913	111	C10H4ClF4NO+
265.0172	22	C15H4FNO3+
266.0005	25	C15H5ClNO2+
267.0132	190	C12H6ClF2N2O+
269.0534	17	C12H8F3N2O2+
269.9928	20	C12H4ClF3NO+
270.0166	13	C12H6ClF3N2+
270.0413	21	C12H6F4N2O+
271.0489	999	C12H7F4N2O+
271.9959	62	C11H4ClF3N2O+
272.0566	104	C12H8F4N2O+
273.0039	32	C11H5ClF3N2O+
274.9995	7	C11H4ClF4N2+
279.0305	30	C11H8ClF4N2+
283.05	7	C15H11ClF3+
283.0678	29	C16H9F2N2O+
284.0401	49	C12H7F3N2O3+
285.0039	64	C12H5ClF3N2O+
286.0115	24	C12H6ClF3N2O+
287.0194	237	C12H7ClF3N2O+
289.9993	83	C12H5ClF4NO+
292.0021	235	C11H5ClF4N2O+
299.0437	83	C13H7F4N2O2+
305.0102	47	C12H6ClF4N2O+
306.0181	22	C12H7ClF4N2O+
307.0256	145	C12H8ClF4N2O+
317.0101	48	C13H6ClF4N2O+
