Mass spectrum: Phenazone; LC-ESI-QFT; MS2; CE: 60; R=17500; [M+H]+
Name: Phenazone
Name: Antipyrine
Name: 1,5-dimethyl-2-phenylpyrazol-3-one
Formula: C11H12N2O
Exact mass: 188.0950
SMILES: CN1N(C(=O)C=C1C)C1=CC=CC=C1
InChI: InChI=1S/C11H12N2O/c1-9-8-11(14)13(12(9)2)10-6-4-3-5-7-10/h3-8H,1-2H3
Instrument: Q Exactive Orbitrap (Thermo Scientific)
Instrument type: LC-ESI-QFT
Ms type: MS2
Ion mode: POSITIVE
Ionization: ESI
Fragmentation mode: HCD
Collision energy: 60
Resolution: 17500
Column name: Acquity BEH C18 1.7um, 2.1x150mm (Waters)
Retention time: 12.178 min
Base peak: 79.0211
Precursor m/z: 189.1022
Precursor type: [M+H]+
Precursor intensity: 43457538.40625
m/z	relative intensity	assigned
51.0231	1	C4H3+
53.0386	15	C4H5+
54.0339	2	C3H4N+
55.0179	20	C3H3O+
55.0417	2	C3H5N+
55.0542	11	C4H7+
56.0495	497	C3H6N+
57.0447	1	C2H5N2+
58.0651	436	C3H8N+
65.0385	51	C5H5+
67.0178	2	C4H3O+
68.0494	16	C4H6N+
69.0335	1	C4H5O+
69.0573	16	C4H7N+
70.065	14	C4H8N+
77.0382	10	C6H5+
78.0464	1	C6H6+
79.0542	13	C6H7+
80.0494	1	C5H6N+
81.0336	2	C5H5O+
81.0447	27	C4H5N2+
83.0491	3	C5H7O+
83.0602	2	C4H7N2+
84.0442	3	C4H6NO+
86.06	5	C4H8NO+
91.0542	75	C7H7+
92.0495	20	C6H6N+
93.0334	9	C6H5O+
93.0574	6	C6H7N+
93.0699	5	C7H9+
94.0411	2	C6H6O+
94.0651	13	C6H8N+
95.0491	46	C6H7O+
95.0604	32	C5H7N2+
96.0444	20	C5H6NO+
96.0682	148	C5H8N2+
98.06	55	C5H8NO+
103.0542	30	C8H7+
104.0494	348	C7H6N+
105.0335	14	C7H5O+
105.0447	17	C6H5N2+
105.0572	9	C7H7N+
105.0699	21	C8H9+
106.0651	195	C7H8N+
107.0603	2	C6H7N2+
111.0553	12	C5H7N2O+
115.0542	20	C9H7+
117.0573	43	C8H7N+
117.0698	93	C9H9+
118.0651	151	C8H8N+
119.0604	4	C7H7N2+
119.0727	1	C8H9N+
120.0808	119	C8H10N+
121.076	2	C7H9N2+
128.0496	2	C9H6N+
128.0619	3	C10H8+
129.0575	8	C9H7N+
129.0699	4	C10H9+
130.0651	174	C9H8N+
131.0607	30	C8H7N2+
131.0729	231	C9H9N+
132.0685	19	C8H8N2+
132.0807	99	C9H10N+
133.0521	28	C8H7NO+
133.0759	26	C8H9N2+
134.0476	2	C7H6N2O+
134.0601	2	C8H8NO+
134.0963	28	C9H12N+
135.0554	7	C7H7N2O+
143.0729	11	C10H9N+
144.0808	198	C10H10N+
145.0649	77	C10H9O+
145.0756	38	C9H9N2+
145.0885	8	C10H11N+
146.0838	196	C9H10N2+
146.0962	38	C10H12N+
147.0916	283	C9H11N2+
148.0757	15	C9H10NO+
149.0709	21	C8H9N2O+
155.0605	4	C10H7N2+
157.0522	26	C10H7NO+
158.0601	9	C10H8NO+
159.0553	5	C9H7N2O+
159.0918	9	C10H11N2+
160.0994	10	C10H12N2+
161.1073	117	C10H13N2+
162.0914	3	C10H12NO+
171.0917	3	C11H11N2+
172.0756	37	C11H10NO+
173.0708	8	C10H9N2O+
174.0788	138	C10H10N2O+
189.1022	999	C11H13N2O+
