Mass spectrum: 3-Amino-4-methylbenzamide; LC-ESI-QFT; MS2; CE: 15; R=17500; [M+H]+
Name: 3-Amino-4-methylbenzamide
Formula: C8H10N2O
Exact mass: 150.0793
SMILES: CC1=C(N)C=C(C=C1)C(N)=O
InChI: InChI=1S/C8H10N2O/c1-5-2-3-6(8(10)11)4-7(5)9/h2-4H,9H2,1H3,(H2,10,11)
Instrument: Q Exactive Orbitrap (Thermo Scientific)
Instrument type: LC-ESI-QFT
Ms type: MS2
Ion mode: POSITIVE
Ionization: ESI
Fragmentation mode: HCD
Collision energy: 15
Resolution: 17500
Column name: Acquity BEH C18 1.7um, 2.1x150mm (Waters)
Retention time: 3.845 min
Base peak: 79.0211
Precursor m/z: 151.0866
Precursor type: [M+H]+
Precursor intensity: 4051396.109375
m/z	relative intensity	assigned
91.0543	1	C7H7+
93.0573	18	C6H7N+
95.0855	1	C7H11+
106.0651	1	C7H8N+
108.0807	999	C7H10N+
109.0645	1	C7H9O+
124.0757	1	C7H10NO+
134.06	41	C8H8NO+
151.0866	217	C8H11N2O+
