Mass spectrum: Triamterene; LC-ESI-QFT; MS2; CE: 45; R=17500; [M+H]+
Name: Triamterene
Name: 6-phenylpteridine-2,4,7-triamine
Formula: C12H11N7
Exact mass: 253.1076
SMILES: NC1=NC(N)=C2N=C(C(N)=NC2=N1)C1=CC=CC=C1
InChI: InChI=1S/C12H11N7/c13-9-7(6-4-2-1-3-5-6)16-8-10(14)18-12(15)19-11(8)17-9/h1-5H,(H6,13,14,15,17,18,19)
Instrument: Q Exactive Orbitrap (Thermo Scientific)
Instrument type: LC-ESI-QFT
Ms type: MS2
Ion mode: POSITIVE
Ionization: ESI
Fragmentation mode: HCD
Collision energy: 45
Resolution: 17500
Column name: Acquity BEH C18 1.7um, 2.1x150mm (Waters)
Retention time: 11.875 min
Base peak: 79.0211
Precursor m/z: 254.1149
Precursor type: [M+H]+
Precursor intensity: 28587074.5625
m/z	relative intensity	assigned
104.0492	2	C7H6N+
168.0556	1	C10H6N3+
195.0663	4	C11H7N4+
210.0771	2	C11H8N5+
212.093	15	C11H10N5+
213.0774	1	C9H7N7+
227.104	7	C11H11N6+
237.0883	202	C12H9N6+
252.0987	1	C12H10N7+
254.1147	999	C12H12N7+
