Mass spectrum: Imazamox; LC-ESI-QFT; MS2; CE: 45; R=17500; [M+H]+
Name: Imazamox
Name: 5-(methoxymethyl)-2-(4-methyl-5-oxo-4-propan-2-yl-1H-imidazol-2-yl)pyridine-3-carboxylic acid
Formula: C15H19N3O4
Exact mass: 305.1376
SMILES: COCC1=CN=C(C2=NC(C)(C(C)C)C(=O)N2)C(=C1)C(O)=O
InChI: InChI=1S/C15H19N3O4/c1-8(2)15(3)14(21)17-12(18-15)11-10(13(19)20)5-9(6-16-11)7-22-4/h5-6,8H,7H2,1-4H3,(H,19,20)(H,17,18,21)
Instrument: Q Exactive Orbitrap (Thermo Scientific)
Instrument type: LC-ESI-QFT
Ms type: MS2
Ion mode: POSITIVE
Ionization: ESI
Fragmentation mode: HCD
Collision energy: 45
Resolution: 17500
Column name: Acquity BEH C18 1.7um, 2.1x150mm (Waters)
Retention time: 13.539 min
Base peak: 79.0211
Precursor m/z: 306.1448
Precursor type: [M+H]+
Precursor intensity: 14311089.6875
m/z	relative intensity	assigned
53.0022	15	C3HO+
53.9975	2	C2NO+
56.0494	1	C3H6N+
57.0699	2	C4H9+
58.0651	33	C3H8N+
67.0543	7	C5H7+
69.0698	852	C5H9+
70.065	7	C4H8N+
71.0728	9	C4H9N+
71.0855	19	C5H11+
72.0443	2	C3H6NO+
72.0807	2	C4H10N+
84.0808	6	C5H10N+
86.0964	895	C5H12N+
94.0653	1	C6H8N+
97.0648	51	C6H9O+
109.0647	3	C7H9O+
114.0913	10	C6H12NO+
119.0603	2	C7H7N2+
121.0397	1	C6H5N2O+
145.0394	1	C8H5N2O+
147.0554	1	C8H7N2O+
148.0633	2	C8H8N2O+
149.0709	127	C8H9N2O+
151.0869	2	C8H11N2O+
154.0861	4	C8H12NO2+
159.0549	4	C9H7N2O+
161.0586	2	C8H7N3O+
161.0711	6	C9H9N2O+
162.0421	1	C8H6N2O2+
162.066	2	C8H8N3O+
163.0502	140	C8H7N2O2+
168.0656	1	C8H10NO3+
175.0502	41	C9H7N2O2+
176.0579	2	C9H8N2O2+
176.1071	5	C11H14NO+
177.0659	10	C9H9N2O2+
177.1024	8	C10H13N2O+
178.05	1	C9H8NO3+
180.0656	4	C9H10NO3+
185.108	1	C12H13N2+
186.1151	3	C12H14N2+
187.0867	9	C11H11N2O+
187.123	2	C12H15N2+
189.1024	2	C11H13N2O+
191.0816	121	C10H11N2O2+
192.0767	314	C9H10N3O2+
193.0608	999	C9H9N2O3+
195.0762	3	C9H11N2O3+
200.1073	3	C13H14NO+
201.102	1	C12H13N2O+
205.0606	5	C10H9N2O3+
207.0761	3	C10H11N2O3+
210.0876	6	C9H12N3O3+
211.0863	1	C13H11N2O+
212.0944	1	C13H12N2O+
213.1022	5	C13H13N2O+
215.0693	3	C11H9N3O2+
215.1178	3	C13H15N2O+
216.0767	4	C11H10N3O2+
217.0845	11	C11H11N3O2+
217.1335	153	C13H17N2O+
218.0924	319	C11H12N3O2+
219.1127	61	C12H15N2O2+
220.0966	14	C12H14NO3+
220.1081	29	C11H14N3O2+
221.0921	12	C11H13N2O3+
228.089	1	C13H12N2O2+
234.16	4	C13H20N3O+
235.0951	37	C11H13N3O3+
236.1026	8	C11H14N3O3+
243.1128	203	C14H15N2O2+
245.0794	26	C12H11N3O3+
246.0873	811	C12H12N3O3+
260.1393	162	C14H18N3O2+
261.1233	767	C14H17N2O3+
263.09	32	C12H13N3O4+
264.0978	305	C12H14N3O4+
278.1498	76	C14H20N3O3+
288.1344	10	C15H18N3O3+
306.1448	156	C15H20N3O4+
