Mass spectrum: Fluorometholone; LC-ESI-QFT; MS2; CE: 15; R=17500; [M+H]+
Name: Fluorometholone
Name: (6S,8S,9R,10S,11S,13S,14S,17R)-17-acetyl-9-fluoro-11,17-dihydroxy-6,10,13-trimethyl-6,7,8,11,12,14,15,16-octahydrocyclopenta[a]phenanthren-3-one
Formula: C22H29FO4
Exact mass: 376.2050
SMILES: C[C@H]1C[C@H]2[C@@H]3CC[C@](O)(C(C)=O)[C@@]3(C)C[C@H](O)[C@]2(F)[C@@]2(C)C=CC(=O)C=C12
InChI: InChI=1S/C22H29FO4/c1-12-9-17-15-6-8-21(27,13(2)24)20(15,4)11-18(26)22(17,23)19(3)7-5-14(25)10-16(12)19/h5,7,10,12,15,17-18,26-27H,6,8-9,11H2,1-4H3/t12-,15-,17-,18-,19-,20-,21-,22-/m0/s1
Instrument: Q Exactive Orbitrap (Thermo Scientific)
Instrument type: LC-ESI-QFT
Ms type: MS2
Ion mode: POSITIVE
Ionization: ESI
Fragmentation mode: HCD
Collision energy: 15
Resolution: 17500
Column name: Acquity BEH C18 1.7um, 2.1x150mm (Waters)
Retention time: 16.967 min
Base peak: 79.0212
Precursor m/z: 377.2123
Precursor type: [M+H]+
Precursor intensity: 7246455.5
m/z	relative intensity	assigned
85.0649	38	C5H9O+
95.0855	31	C7H11+
99.0805	15	C6H11O+
101.0598	23	C5H9O2+
107.0857	9	C8H11+
109.0649	41	C7H9O+
111.0804	8	C7H11O+
119.0858	7	C9H11+
121.0649	18	C8H9O+
123.0804	33	C8H11O+
125.0599	37	C7H9O2+
135.0804	112	C9H11O+
137.0965	19	C9H13O+
139.0754	32	C8H11O2+
145.1012	31	C11H13+
147.0807	12	C10H11O+
149.0961	34	C10H13O+
151.0757	8	C9H11O2+
161.0962	112	C11H13O+
163.0753	7	C10H11O2+
163.1117	8	C11H15O+
165.0911	152	C10H13O2+
171.117	11	C13H15+
173.0961	34	C12H13O+
175.1118	34	C12H15O+
177.0912	32	C11H13O2+
179.0872	8	C11H12FO+
185.0963	56	C13H13O+
187.1118	34	C13H15O+
189.1073	9	C13H14F+
189.1276	16	C13H17O+
191.123	7	C13H16F+
193.1027	13	C12H14FO+
197.0961	7	C14H13O+
199.1119	18	C14H15O+
201.0911	20	C13H13O2+
211.1117	11	C15H15O+
213.1275	25	C15H17O+
217.1221	30	C14H17O2+
223.1115	12	C16H15O+
225.1274	13	C16H17O+
227.1065	9	C15H15O2+
229.1224	41	C15H17O2+
231.138	18	C15H19O2+
233.1338	20	C15H18FO+
237.1276	96	C17H17O+
239.1434	23	C17H19O+
249.1272	38	C18H17O+
251.1432	226	C18H19O+
253.1589	22	C18H21O+
263.1433	15	C19H19O+
267.1382	40	C18H19O2+
269.1539	53	C18H21O2+
277.1592	44	C20H21O+
278.1669	17	C20H22O+
279.1746	995	C20H23O+
281.1536	14	C19H21O2+
293.1897	60	C21H25O+
295.1693	57	C20H23O2+
297.1851	176	C20H25O2+
303.1746	220	C22H23O+
321.1853	885	C22H25O2+
339.1959	999	C22H27O3+
