Mass spectrum: MK-578; LC-ESI-QFT; MS2; CE: 45; R=17500; [M-H]-
Name: MK-578
Name: (2R)-2-[[(1R,3S,4S)-3-[[4-(5-benzyl-2-ethylpyrazol-3-yl)piperidin-1-yl]methyl]-4-(3-fluorophenyl)cyclopentyl]-methylamino]-3-methylbutanoic acid
Formula: C35H47FN4O2
Exact mass: 574.3683
SMILES: CCN1N=C(CC2=CC=CC=C2)C=C1C1CCN(C[C@H]2C[C@@H](C[C@@H]2C2=CC=CC(F)=C2)N(C)[C@H](C(C)C)C(O)=O)CC1
InChI: InChI=1S/C35H47FN4O2/c1-5-40-33(21-30(37-40)18-25-10-7-6-8-11-25)26-14-16-39(17-15-26)23-28-20-31(38(4)34(24(2)3)35(41)42)22-32(28)27-12-9-13-29(36)19-27/h6-13,19,21,24,26,28,31-32,34H,5,14-18,20,22-23H2,1-4H3,(H,41,42)/t28-,31+,32-,34-/m1/s1
Instrument: Q Exactive Orbitrap (Thermo Scientific)
Instrument type: LC-ESI-QFT
Ms type: MS2
Ion mode: NEGATIVE
Ionization: ESI
Fragmentation mode: HCD
Collision energy: 45
Resolution: 17500
Column name: Acquity BEH C18 1.7um, 2.1x150mm (Waters)
Retention time: 14.675 min
Base peak: 112.9857
Precursor m/z: 573.361
Precursor type: [M-H]-
Precursor intensity: 1377379.5979
m/z	relative intensity	assigned
95.0303	47	C6H4F-
109.0459	100	C7H6F-
130.0874	40	C6H12NO2-
157.0771	502	C10H9N2-
159.0617	123	C11H8F-
173.0773	374	C12H10F-
185.1084	142	C12H13N2-
211.1243	133	C14H15N2-
240.1508	999	C15H18N3-
260.1826	58	C17H23FN-
266.1663	75	C17H20N3-
