Mass spectrum: Bispyribac; LC-ESI-QFT; MS2; CE: 60; R=17500; [M+H]+
Name: Bispyribac
Formula: C19H18N4O8
Exact mass: 430.1125
SMILES: COC1=CC(OC)=NC(OC2=CC=CC(OC3=NC(OC)=CC(OC)=N3)=C2C(O)=O)=N1
InChI: InChI=1S/C19H18N4O8/c1-26-12-8-13(27-2)21-18(20-12)30-10-6-5-7-11(16(10)17(24)25)31-19-22-14(28-3)9-15(23-19)29-4/h5-9H,1-4H3,(H,24,25)
Instrument: Q Exactive Orbitrap (Thermo Scientific)
Instrument type: LC-ESI-QFT
Ms type: MS2
Ion mode: POSITIVE
Ionization: ESI
Fragmentation mode: HCD
Collision energy: 60
Resolution: 17500
Column name: Acquity BEH C18 1.7um, 2.1x150mm (Waters)
Retention time: 17.331 min
Base peak: 79.0211
Precursor m/z: 431.1197
Precursor type: [M+H]+
Precursor intensity: 11603677.71875
m/z	relative intensity	assigned
53.0022	1	C3HO+
54.0339	1	C3H4N+
55.0179	4	C3H3O+
55.0416	1	C3H5N+
56.0131	2	C2H2NO+
58.0288	2	C2H4NO+
63.0229	11	C5H3+
65.0386	4	C5H5+
67.0053	4	C3HNO+
68.0131	8	C3H2NO+
68.9971	27	C3HO2+
69.9923	34	C2NO2+
71.0603	82	C3H7N2+
72.0444	44	C3H6NO+
75.0229	2	C6H3+
79.0291	3	C4H3N2+
79.0543	3	C6H7+
80.0367	1	C4H4N2+
80.0495	2	C5H6N+
81.0336	2	C5H5O+
81.0447	5	C4H5N2+
82.0288	27	C4H4NO+
83.0128	14	C4H3O2+
83.024	78	C3H3N2O+
84.0443	1	C4H6NO+
89.0386	4	C7H5+
90.0338	4	C6H4N+
91.0179	147	C6H3O+
92.0497	1	C6H6N+
93.0083	6	C4HN2O+
93.0335	1	C6H5O+
95.0493	10	C6H7O+
95.0604	1	C5H7N2+
96.0445	1	C5H6NO+
100.0393	17	C4H6NO2+
103.0419	1	C7H5N+
103.0543	3	C8H7+
104.0495	4	C7H6N+
105.0573	1	C7H7N+
106.0289	1	C6H4NO+
107.024	73	C5H3N2O+
108.0445	12	C6H6NO+
109.0397	11	C5H5N2O+
110.0239	2	C5H4NO2+
112.0392	5	C5H6NO2+
114.034	5	C8H4N+
114.055	6	C5H8NO2+
115.0544	2	C9H7+
116.0342	15	C4H6NO3+
116.0495	11	C8H6N+
117.0574	3	C8H7N+
118.029	1	C7H4NO+
118.0653	4	C8H8N+
119.0128	999	C7H3O2+
120.0443	4	C7H6NO+
121.0285	2	C7H5O2+
122.0362	3	C7H6O2+
124.0397	1	C6H6NO2+
125.0346	34	C5H5N2O2+
126.0186	32	C5H4NO3+
126.055	3	C6H8NO2+
127.0502	1	C5H7N2O2+
128.0375	1	C8H4N2+
128.0496	10	C9H6N+
129.0447	3	C8H5N2+
129.0573	4	C9H7N+
130.0289	3	C8H4NO+
130.0525	1	C8H6N2+
130.0653	7	C9H8N+
131.0606	3	C8H7N2+
132.0444	15	C8H6NO+
133.0522	3	C8H7NO+
134.0599	8	C8H8NO+
135.0316	1	C7H5NO2+
135.0553	1	C7H7N2O+
136.0394	3	C7H6NO2+
137.0234	41	C7H5O3+
139.0503	321	C6H7N2O2+
140.0342	31	C6H6NO3+
140.0493	2	C10H6N+
141.0446	5	C9H5N2+
142.029	1	C9H4NO+
142.0379	1	C5H6N2O3+
142.0527	5	C9H6N2+
142.0648	1	C10H8N+
143.0369	2	C9H5NO+
143.0604	10	C9H7N2+
144.0445	12	C9H6NO+
145.0396	1	C8H5N2O+
145.0524	7	C9H7NO+
145.0766	1	C9H9N2+
146.0237	1	C8H4NO2+
146.0476	1	C8H6N2O+
146.0601	14	C9H8NO+
147.0553	5	C8H7N2O+
148.0394	2	C8H6NO2+
148.0633	4	C8H8N2O+
149.0473	1	C8H7NO2+
150.0314	2	C8H6O3+
150.0552	3	C8H8NO2+
151.039	2	C8H7O3+
153.0447	12	C10H5N2+
153.0657	1	C7H9N2O2+
154.026	2	C7H6O4+
154.0525	1	C10H6N2+
155.0606	12	C10H7N2+
156.0319	2	C9H4N2O+
156.0443	3	C10H6NO+
156.0683	1	C10H8N2+
157.0608	109	C6H9N2O3+
158.0237	1	C9H4NO2+
158.0476	4	C9H6N2O+
158.0602	7	C10H8NO+
159.0316	2	C9H5NO2+
159.0553	12	C9H7N2O+
160.0269	4	C8H4N2O2+
160.0394	3	C9H6NO2+
160.0633	1	C9H8N2O+
160.0756	1	C10H10NO+
161.0472	3	C9H7NO2+
161.0711	3	C9H9N2O+
162.0183	6	C8H4NO3+
162.0551	5	C9H8NO2+
165.0445	1	C11H5N2+
165.0548	1	C9H9O3+
167.0603	1	C11H7N2+
168.0324	1	C10H4N2O+
168.0422	3	C8H8O4+
168.0559	1	C10H6N3+
168.0685	2	C11H8N2+
169.0395	10	C10H5N2O+
169.0767	2	C11H9N2+
170.024	1	C10H4NO2+
170.0475	4	C10H6N2O+
171.0553	32	C10H7N2O+
171.0764	76	C7H11N2O3+
172.0398	6	C10H6NO2+
172.0477	1	C6H8N2O4+
172.0628	2	C10H8N2O+
173.0348	3	C9H5N2O2+
173.0473	5	C10H7NO2+
173.0709	4	C10H9N2O+
174.0424	6	C9H6N2O2+
174.0549	9	C10H8NO2+
175.0503	9	C9H7N2O2+
176.0342	10	C9H6NO3+
176.0707	4	C10H10NO2+
177.042	1	C9H7NO3+
179.0217	3	C8H5NO4+
179.0602	1	C12H7N2+
180.0556	4	C11H6N3+
181.04	2	C11H5N2O+
181.0507	1	C10H5N4+
181.064	2	C11H7N3+
182.0712	1	C11H8N3+
183.0552	4	C11H7N2O+
184.027	7	C10H4N2O2+
184.0509	2	C10H6N3O+
184.0632	2	C11H8N2O+
185.0347	2	C10H5N2O2+
185.0583	2	C10H7N3O+
185.0711	17	C11H9N2O+
185.092	3	C8H13N2O3+
186.0187	2	C10H4NO3+
186.0429	5	C10H6N2O2+
186.0551	7	C11H8NO2+
186.065	1	C10H8N3O+
187.0503	11	C10H7N2O2+
188.0582	8	C10H8N2O2+
189.0419	2	C10H7NO3+
189.0658	2	C10H9N2O2+
190.0499	5	C10H8NO3+
192.0551	1	C12H6N3+
193.063	1	C12H7N3+
194.0345	1	C11H4N3O+
194.0458	1	C9H8NO4+
194.071	1	C12H8N3+
195.0552	2	C12H7N2O+
196.0507	4	C11H6N3O+
196.0622	2	C12H8N2O+
197.0347	4	C11H5N2O2+
197.0713	3	C12H9N2O+
198.0331	1	C12H6O3+
198.0426	8	C11H6N2O2+
198.0663	2	C11H8N3O+
199.0502	58	C11H7N2O2+
200.0241	1	C13H2N3+
200.0342	7	C11H6NO3+
200.0581	3	C11H8N2O2+
200.0818	2	C11H10N3O+
201.0293	1	C7H7NO6+
201.066	12	C11H9N2O2+
202.0376	2	C10H6N2O3+
202.0608	1	C10H8N3O2+
203.0451	2	C10H7N2O3+
203.0816	1	C11H11N2O2+
204.066	1	C11H10NO3+
207.0763	2	C10H11N2O3+
209.0584	4	C12H7N3O+
210.0429	2	C12H6N2O2+
210.0665	4	C12H8N3O+
211.014	3	C11H3N2O3+
211.0503	5	C12H7N2O2+
212.0456	3	C11H6N3O2+
212.0818	2	C12H10N3O+
213.0299	1	C11H5N2O3+
213.0535	2	C11H7N3O2+
213.0662	4	C12H9N2O2+
214.0378	2	C11H6N2O3+
214.0613	2	C11H8N3O2+
215.0451	54	C11H7N2O3+
216.0528	6	C11H8N2O3+
217.061	12	C11H9N2O3+
218.0447	3	C11H8NO4+
219.0403	10	C10H7N2O4+
220.0506	2	C13H6N3O+
222.0664	2	C13H8N3O+
223.0503	1	C13H7N2O2+
224.0456	3	C12H6N3O2+
224.0578	2	C13H8N2O2+
224.0694	2	C12H8N4O+
224.0818	3	C13H10N3O+
225.0537	2	C12H7N3O2+
225.0663	3	C13H9N2O2+
226.0611	8	C12H8N3O2+
227.0453	7	C12H7N2O3+
228.0768	4	C12H10N3O2+
229.0609	12	C12H9N2O3+
230.0454	2	C12H8NO4+
230.0689	1	C12H10N2O3+
231.0406	1	C11H7N2O4+
231.0764	5	C12H11N2O3+
232.0477	6	C11H8N2O4+
232.0602	2	C12H10NO4+
234.0537	1	C13H6N4O+
235.0382	2	C13H5N3O2+
236.0455	4	C13H6N3O2+
237.0301	2	C13H5N2O3+
237.0529	5	C13H7N3O2+
238.0376	1	C13H6N2O3+
238.061	5	C13H8N3O2+
239.0455	3	C13H7N2O3+
239.069	3	C13H9N3O2+
240.0403	3	C12H6N3O3+
240.053	5	C13H8N2O3+
240.0769	3	C13H10N3O2+
241.0483	9	C12H7N3O3+
241.0604	1	C13H9N2O3+
242.0325	2	C12H6N2O4+
242.0561	4	C12H8N3O3+
243.0401	135	C12H7N2O4+
244.1074	1	C13H14N3O2+
245.0558	1	C12H9N2O4+
245.0926	2	C13H13N2O3+
250.0484	2	C13H6N4O2+
250.0616	5	C14H8N3O2+
251.0326	3	C13H5N3O3+
251.0567	2	C13H7N4O2+
251.0694	1	C14H9N3O2+
252.0404	3	C13H6N3O3+
252.0533	1	C14H8N2O3+
252.0768	6	C14H10N3O2+
253.048	2	C13H7N3O3+
253.0609	12	C14H9N2O3+
254.0559	6	C13H8N3O3+
255.0771	2	C14H11N2O3+
256.048	1	C13H8N2O4+
256.0715	6	C13H10N3O3+
257.056	12	C13H9N2O4+
259.0716	3	C13H11N2O4+
261.0507	104	C12H9N2O5+
263.0562	3	C14H7N4O2+
263.1022	1	C13H15N2O4+
264.0404	4	C14H6N3O3+
264.0643	4	C14H8N4O2+
265.0485	10	C14H7N3O3+
265.0721	2	C14H9N4O2+
266.0562	6	C14H8N3O3+
267.0394	14	C14H7N2O4+
268.0359	2	C13H6N3O4+
268.0718	6	C14H10N3O3+
269.0799	2	C14H11N3O3+
272.067	2	C13H10N3O4+
275.0665	60	C13H11N2O5+
278.0573	1	C17H10O4+
280.072	25	C15H10N3O3+
281.0555	6	C15H9N2O4+
282.0509	2	C14H8N3O4+
284.0422	1	C14H8N2O5+
284.0664	2	C14H10N3O4+
285.0505	15	C14H9N2O5+
288.0976	3	C14H14N3O4+
289.0824	5	C14H13N2O5+
293.0669	2	C15H9N4O3+
294.0513	5	C15H8N3O4+
296.0671	6	C15H10N3O4+
298.083	2	C17H14O5+
299.0666	3	C15H11N2O5+
300.0616	2	C14H10N3O5+
300.0965	1	C12H16N2O7+
307.0941	1	C17H13N3O3+
309.0381	3	C15H7N3O5+
312.0979	15	C16H14N3O4+
321.0618	1	C16H9N4O4+
322.0698	1	C16H10N4O4+
323.0781	2	C16H11N4O4+
324.0617	38	C16H10N3O5+
342.1085	3	C17H16N3O5+
370.1034	2	C18H16N3O6+
