Mass spectrum: Gibberellic acid; LC-ESI-QFT; MS2; CE: 90; R=17500; [M-H]-
Name: Gibberellic acid
Name: (1R,2R,5S,8S,9S,10R,11S,12S)-5,12-dihydroxy-11-methyl-6-methylidene-16-oxo-15-oxapentacyclo[9.3.2.15,8.01,10.02,8]heptadec-13-ene-9-carboxylic acid
Formula: C19H22O6
Exact mass: 346.1416
SMILES: C[C@@]12[C@H]3[C@H](C(O)=O)[C@@]45CC(=C)[C@@](O)(C4)CC[C@H]5[C@]3(OC1=O)C=C[C@@H]2O
InChI: InChI=1S/C19H22O6/c1-9-7-17-8-18(9,24)5-3-10(17)19-6-4-11(20)16(2,15(23)25-19)13(19)12(17)14(21)22/h4,6,10-13,20,24H,1,3,5,7-8H2,2H3,(H,21,22)/t10-,11+,12-,13-,16-,17+,18+,19-/m1/s1
Instrument: Q Exactive Orbitrap (Thermo Scientific)
Instrument type: LC-ESI-QFT
Ms type: MS2
Ion mode: NEGATIVE
Ionization: ESI
Fragmentation mode: HCD
Collision energy: 90
Resolution: 17500
Column name: Acquity BEH C18 1.7um, 2.1x150mm (Waters)
Retention time: 13.063 min
Base peak: 305.0968
Precursor m/z: 345.1344
Precursor type: [M-H]-
Precursor intensity: 8045184.109375
m/z	relative intensity	assigned
55.0189	24	C3H3O-
57.0346	3	C3H5O-
65.0397	2	C5H5-
69.0346	7	C4H5O-
71.0503	43	C4H7O-
73.0295	12	C3H5O2-
79.0554	3	C6H7-
83.0502	45	C5H7O-
93.0346	2	C6H5O-
105.071	21	C8H9-
107.0503	5	C7H7O-
119.0865	2	C9H11-
121.0659	8	C8H9O-
128.0631	10	C10H8-
129.0708	4	C10H9-
130.0426	4	C9H6O-
131.0861	2	C10H11-
133.0659	2	C9H9O-
141.0711	5	C11H9-
142.0789	6	C11H10-
143.0866	999	C11H11-
144.058	5	C10H8O-
145.0658	3	C10H9O-
155.0868	22	C12H11-
156.058	4	C11H8O-
157.066	8	C11H9O-
160.0532	3	C10H8O2-
167.0862	2	C13H11-
169.0659	6	C12H9O-
169.1021	4	C13H13-
170.074	3	C12H10O-
171.0814	7	C12H11O-
174.0686	7	C11H10O2-
179.0866	12	C14H11-
181.1026	8	C14H13-
183.0815	17	C13H11O-
184.0528	3	C12H8O2-
185.0971	4	C13H13O-
192.0947	2	C15H12-
193.1023	21	C15H13-
197.0614	3	C13H9O2-
197.097	4	C14H13O-
203.0868	6	C16H11-
205.1022	92	C16H13-
209.0972	30	C15H13O-
211.0763	13	C14H11O2-
217.1027	3	C17H13-
219.1178	40	C17H15-
221.1333	10	C17H17-
227.1086	2	C15H15O2-
