Mass spectrum: 3-((Ethylphenylamino)methyl)benzenesulfonic acid; LC-ESI-QFT; MS2; CE: 90; R=17500; [M-H]-
Name: 3-((Ethylphenylamino)methyl)benzenesulfonic acid
Name: 3-[(N-ethylanilino)methyl]benzenesulfonic acid
Formula: C15H17NO3S
Exact mass: 291.0929
SMILES: CCN(CC1=CC(=CC=C1)S(O)(=O)=O)C1=CC=CC=C1
InChI: InChI=1S/C15H17NO3S/c1-2-16(14-8-4-3-5-9-14)12-13-7-6-10-15(11-13)20(17,18)19/h3-11H,2,12H2,1H3,(H,17,18,19)
Instrument: Q Exactive Orbitrap (Thermo Scientific)
Instrument type: LC-ESI-QFT
Ms type: MS2
Ion mode: NEGATIVE
Ionization: ESI
Fragmentation mode: HCD
Collision energy: 90
Resolution: 17500
Column name: Acquity BEH C18 1.7um, 2.1x150mm (Waters)
Retention time: 11.234 min
Base peak: 290.0858
Precursor m/z: 290.0856
Precursor type: [M-H]-
Precursor intensity: 4717307.362061
m/z	relative intensity	assigned
63.9624	2	O2S-
79.9574	999	O3S-
80.9651	7	HO3S-
95.0137	4	C5H3O2-
106.0423	5	C7H6O-
107.0502	1	C7H7O-
108.0217	10	C6H4O2-
121.0295	98	C7H5O2-
136.0164	2	C7H4O3-
137.0243	6	C7H5O3-
170.0043	299	C7H6O3S-
196.0766	3	C13H10NO-
201.9942	115	C13NO2-
260.039	5	C13H10NO3S-
