Mass spectrum: Indinavir; LC-ESI-QFT; MS2; CE: 60; R=17500; [M+H]+
Name: Indinavir
Formula: C36H47N5O4
Exact mass: 613.3628
SMILES: CC(C)(C)NC(=O)[C@@H]1CN(Cc2cccnc2)CCN1C[C@@H](O)C[C@@H](Cc1ccccc1)C(=O)N[C@H]1c2ccccc2C[C@H]1O
InChI: InChI=1S/C36H47N5O4/c1-36(2,3)39-35(45)31-24-40(22-26-12-9-15-37-21-26)16-17-41(31)23-29(42)19-28(18-25-10-5-4-6-11-25)34(44)38-33-30-14-8-7-13-27(30)20-32(33)43/h4-15,21,28-29,31-33,42-43H,16-20,22-24H2,1-3H3,(H,38,44)(H,39,45)/t28-,29+,31+,32-,33+/m1/s1
Instrument: Q Exactive Orbitrap (Thermo Scientific)
Instrument type: LC-ESI-QFT
Ms type: MS2
Ion mode: POSITIVE
Ionization: ESI
Fragmentation mode: HCD
Collision energy: 60
Resolution: 17500
Column name: Acquity BEH C18 1.7um, 2.1x150mm (Waters)
Retention time: 15.300 min
Base peak: 79.0212
Precursor m/z: 614.3701
Precursor type: [M+H]+
Precursor intensity: 9572456.03125
m/z	relative intensity	assigned
54.0339	1	C3H4N+
55.0178	1	C3H3O+
56.0495	24	C3H6N+
57.0699	1	C4H9+
65.0385	4	C5H5+
67.0541	1	C5H7+
68.0494	45	C4H6N+
69.0447	16	C3H5N2+
69.0573	1	C4H7N+
70.0651	7	C4H8N+
79.0543	3	C6H7+
80.0495	5	C5H6N+
81.0447	6	C4H5N2+
82.0525	6	C4H6N2+
82.065	2	C5H8N+
83.0604	27	C4H7N2+
84.0682	7	C4H8N2+
85.0761	1	C4H9N2+
91.0542	29	C7H7+
92.0495	89	C6H6N+
93.0573	16	C6H7N+
94.0652	53	C6H8N+
95.0604	2	C5H7N2+
96.0445	1	C5H6NO+
96.081	1	C6H10N+
97.076	999	C5H9N2+
98.0838	36	C5H10N2+
103.0543	2	C8H7+
105.0699	14	C8H9+
106.0651	23	C7H8N+
108.081	2	C7H10N+
109.0761	3	C6H9N2+
110.0602	1	C6H8NO+
110.084	1	C6H10N2+
111.0917	1	C6H11N2+
112.1118	1	C7H14N+
115.0542	12	C9H7+
117.0699	25	C9H9+
121.076	43	C7H9N2+
122.0837	3	C7H10N2+
123.0916	42	C7H11N2+
124.0995	7	C7H12N2+
128.0617	3	C10H8+
129.0699	40	C10H9+
131.0856	12	C10H11+
132.0808	14	C9H10N+
133.0648	110	C9H9O+
135.0916	5	C8H11N2+
143.0856	10	C11H11+
145.0648	19	C10H9O+
145.0759	1	C9H9N2+
145.1012	3	C11H13+
146.0966	1	C10H12N+
147.0807	1	C10H11O+
147.0917	6	C9H11N2+
153.0696	1	C12H9+
157.0648	39	C11H9O+
159.0917	1	C10H11N2+
161.0962	1	C11H13O+
163.0869	1	C9H11N2O+
167.1053	1	C8H13N3O+
170.0966	1	C12H12N+
171.0804	9	C12H11O+
171.0917	1	C11H11N2+
174.0915	24	C11H12NO+
174.1027	27	C10H12N3+
175.0754	45	C11H11O2+
175.1103	16	C10H13N3+
176.1182	21	C10H14N3+
188.1071	3	C12H14NO+
188.1184	3	C11H14N3+
189.0911	1	C12H13O2+
190.1227	2	C12H16NO+
192.1019	8	C11H14NO2+
201.1261	1	C12H15N3+
206.1176	9	C12H16NO2+
214.134	3	C13H16N3+
215.1421	1	C13H17N3+
227.1543	1	C15H19N2+
244.1333	1	C15H18NO2+
271.1444	2	C16H19N2O2+
272.1518	8	C16H20N2O2+
294.16	1	C18H20N3O+
306.1488	3	C20H20NO2+
