Mass spectrum: 2,4,6-Tris(allyloxy)-1,3,5-triazine; LC-ESI-QFT; MS2; CE: 15; R=17500; [M+H]+
Name: 2,4,6-Tris(allyloxy)-1,3,5-triazine
Name: Triallyl cyanurate
Name: 2,4,6-tris(prop-2-enoxy)-1,3,5-triazine
Formula: C12H15N3O3
Exact mass: 249.1113
SMILES: C=CCOC1=NC(OCC=C)=NC(OCC=C)=N1
InChI: InChI=1S/C12H15N3O3/c1-4-7-16-10-13-11(17-8-5-2)15-12(14-10)18-9-6-3/h4-6H,1-3,7-9H2
Instrument: Q Exactive Orbitrap (Thermo Scientific)
Instrument type: LC-ESI-QFT
Ms type: MS2
Ion mode: POSITIVE
Ionization: ESI
Fragmentation mode: HCD
Collision energy: 15
Resolution: 17500
Column name: Acquity BEH C18 1.7um, 2.1x150mm (Waters)
Retention time: 17.729 min
Base peak: 79.0211
Precursor m/z: 250.1186
Precursor type: [M+H]+
Precursor intensity: 20300629.04688
m/z	relative intensity	assigned
53.0022	12	C3HO+
53.0386	4	C4H5+
55.0542	4	C4H7+
56.0132	2	C2H2NO+
58.0651	24	C3H8N+
69.9925	3	C2NO2+
79.0542	109	C6H7+
81.0699	999	C6H9+
82.0287	28	C4H4NO+
84.0444	52	C4H6NO+
87.0189	85	C2H3N2O2+
96.0443	2	C5H6NO+
96.0808	6	C6H10N+
99.019	18	C3H3N2O2+
124.0759	10	C7H10NO+
125.0346	10	C5H5N2O2+
127.0502	75	C5H7N2O2+
130.0247	70	C3H4N3O3+
139.0502	7	C6H7N2O2+
142.0248	4	C4H4N3O3+
165.0656	2	C8H9N2O2+
170.056	434	C6H8N3O3+
196.0717	3	C8H10N3O3+
208.0717	61	C9H10N3O3+
250.1186	156	C12H16N3O3+
