Mass spectrum: Methyldopa; LC-ESI-QFT; MS2; CE: 90; R=17500; [M+H]+
Name: Methyldopa
Name: (2S)-2-amino-3-(3,4-dihydroxyphenyl)-2-methylpropanoic acid
Formula: C10H13NO4
Exact mass: 211.0845
SMILES: C[C@](N)(Cc1ccc(O)c(O)c1)C(=O)O
InChI: InChI=1S/C10H13NO4/c1-10(11,9(14)15)5-6-2-3-7(12)8(13)4-6/h2-4,12-13H,5,11H2,1H3,(H,14,15)/t10-/m0/s1
Instrument: Q Exactive Orbitrap (Thermo Scientific)
Instrument type: LC-ESI-QFT
Ms type: MS2
Ion mode: POSITIVE
Ionization: ESI
Fragmentation mode: HCD
Collision energy: 90
Resolution: 17500
Column name: Acquity BEH C18 1.7um, 2.1x150mm (Waters)
Retention time: 3.672 min
Base peak: 79.0211
Precursor m/z: 212.0917
Precursor type: [M+H]+
Precursor intensity: 1886524
m/z	relative intensity	assigned
53.0387	47	C4H5+
55.018	16	C3H3O+
56.0495	80	C3H6N+
57.0574	27	C3H7N+
58.0652	7	C3H8N+
65.0386	856	C5H5+
67.0543	25	C5H7+
77.0385	27	C6H5+
79.0542	74	C6H7+
80.0246	4	C5H4O+
81.0171	24	CH5O4+
81.0336	18	C5H5O+
88.0395	5	C3H6NO2+
91.0544	50	C7H7+
93.0336	258	C6H5O+
93.07	43	C7H9+
94.0653	7	C6H8N+
95.0492	140	C6H7O+
103.0543	999	C8H7+
105.0335	18	C7H5O+
105.07	63	C8H9+
107.0493	17	C7H7O+
109.0284	17	C6H5O2+
110.0365	14	C6H6O2+
111.0441	937	C6H7O2+
120.0808	37	C8H10N+
121.0649	98	C8H9O+
123.0441	220	C7H7O2+
131.0492	182	C9H7O+
133.0521	11	C8H7NO+
139.0392	45	C7H7O3+
140.0495	7	C10H6N+
148.0758	13	C9H10NO+
149.06	26	C9H9O2+
150.0547	6	C8H8NO2+
151.063	49	C8H9NO2+
166.0865	40	C9H12NO2+
