Mass spectrum: Propranolol; LC-ESI-QFT; MS2; CE: 75; R=17500; [M+H]+
Name: Propranolol
Name: 1-naphthalen-1-yloxy-3-(propan-2-ylamino)propan-2-ol
Formula: C16H21NO2
Exact mass: 259.1572
SMILES: CC(C)NCC(O)COC1=C2C=CC=CC2=CC=C1
InChI: InChI=1S/C16H21NO2/c1-12(2)17-10-14(18)11-19-16-9-5-7-13-6-3-4-8-15(13)16/h3-9,12,14,17-18H,10-11H2,1-2H3
Instrument: Q Exactive Orbitrap (Thermo Scientific)
Instrument type: LC-ESI-QFT
Ms type: MS2
Ion mode: POSITIVE
Ionization: ESI
Fragmentation mode: HCD
Collision energy: 75
Resolution: 17500
Column name: Acquity BEH C18 1.7um, 2.1x150mm (Waters)
Retention time: 14.293 min
Base peak: 79.0212
Precursor m/z: 260.1645
Precursor type: [M+H]+
Precursor intensity: 22315852.71875
m/z	relative intensity	assigned
53.0022	18	C3HO+
53.0386	4	C4H5+
53.9974	3	C2NO+
55.0179	13	C3H3O+
56.0495	999	C3H6N+
57.0335	7	C3H5O+
57.0573	2	C3H7N+
57.07	1	C4H9+
58.0651	574	C3H8N+
60.0445	2	C2H6NO+
60.0808	12	C3H10N+
70.0651	4	C4H8N+
71.0728	2	C4H9N+
72.0808	345	C4H10N+
74.06	486	C3H8NO+
77.0384	2	C6H5+
84.0808	44	C5H10N+
91.0543	11	C7H7+
95.0492	13	C6H7O+
98.0965	58	C6H12N+
100.1121	116	C6H14N+
103.0543	18	C8H7+
115.0543	131	C9H7+
116.107	102	C6H14NO+
117.0699	40	C9H9+
127.0542	17	C10H7+
128.0621	146	C10H8+
129.0699	397	C10H9+
141.0699	62	C11H9+
143.0492	10	C10H7O+
143.0854	5	C11H11+
144.0572	13	C10H8O+
145.0648	146	C10H9O+
152.0621	12	C12H8+
153.0699	218	C12H9+
154.0778	76	C12H10+
155.0855	347	C12H11+
156.0571	1	C11H8O+
157.0649	135	C11H9O+
165.07	174	C13H9+
168.057	52	C12H8O+
169.0647	2	C12H9O+
171.0802	6	C12H11O+
181.0648	9	C13H9O+
182.0725	8	C13H10O+
183.0806	22	C13H11O+
