Mass spectrum: Carboxin; LC-ESI-QFT; MS2; CE: 60; R=17500; [M+H]+
Name: Carboxin
Name: 6-methyl-N-phenyl-2,3-dihydro-1,4-oxathiine-5-carboxamide
Formula: C12H13NO2S
Exact mass: 235.0667
SMILES: CC1=C(SCCO1)C(=O)NC1=CC=CC=C1
InChI: InChI=1S/C12H13NO2S/c1-9-11(16-8-7-15-9)12(14)13-10-5-3-2-4-6-10/h2-6H,7-8H2,1H3,(H,13,14)
Instrument: Q Exactive Orbitrap (Thermo Scientific)
Instrument type: LC-ESI-QFT
Ms type: MS2
Ion mode: POSITIVE
Ionization: ESI
Fragmentation mode: HCD
Collision energy: 60
Resolution: 17500
Column name: Acquity BEH C18 1.7um, 2.1x150mm (Waters)
Retention time: 15.686 min
Base peak: 79.0211
Precursor m/z: 236.074
Precursor type: [M+H]+
Precursor intensity: 8127594.875
m/z	relative intensity	assigned
53.0386	2	C4H5+
55.0543	3	C4H7+
57.0335	1	C3H5O+
58.995	57	C2H3S+
61.0106	6	C2H5S+
61.0284	24	C2H5O2+
65.0386	2	C5H5+
66.0464	3	C5H6+
73.0106	32	C3H5S+
75.044	17	C3H7O2+
77.0056	1	C2H5OS+
80.0495	12	C5H6N+
83.0493	1	C5H7O+
86.9899	31	C3H3OS+
89.0055	16	C3H5OS+
92.0496	16	C6H6N+
93.0573	507	C6H7N+
94.0652	8	C6H8N+
95.0491	6	C6H7O+
97.0107	1	C5H5S+
99.0263	16	C5H7S+
101.0056	2	C4H5OS+
104.0495	19	C7H6N+
109.011	1	C6H5S+
115.0213	9	C5H7OS+
117.0369	12	C5H9OS+
118.0651	2	C8H8N+
120.0444	15	C7H6NO+
124.0216	202	C6H6NS+
128.0496	2	C9H6N+
130.0653	1	C9H8N+
132.0444	74	C8H6NO+
138.0374	6	C7H8NS+
143.0162	999	C6H7O2S+
146.06	27	C9H8NO+
147.0677	2	C9H9NO+
148.0214	7	C8H6NS+
162.0372	14	C9H8NS+
164.0169	1	C8H6NOS+
165.0243	25	C8H7NOS+
166.0321	29	C8H8NOS+
174.0551	1	C10H8NO2+
190.032	5	C10H8NOS+
208.0426	4	C10H10NO2S+
