Mass spectrum: Propiconazole; LC-ESI-QFT; MS2; CE: 30; R=17500; [M+H]+
Name: Propiconazole
Name: 1-[[2-(2,4-dichlorophenyl)-4-propyl-1,3-dioxolan-2-yl]methyl]-1,2,4-triazole
Formula: C15H17Cl2N3O2
Exact mass: 341.0698
SMILES: CCCC1COC(CN2C=NC=N2)(O1)C1=C(Cl)C=C(Cl)C=C1
InChI: InChI=1S/C15H17Cl2N3O2/c1-2-3-12-7-21-15(22-12,8-20-10-18-9-19-20)13-5-4-11(16)6-14(13)17/h4-6,9-10,12H,2-3,7-8H2,1H3
Instrument: Q Exactive Orbitrap (Thermo Scientific)
Instrument type: LC-ESI-QFT
Ms type: MS2
Ion mode: POSITIVE
Ionization: ESI
Fragmentation mode: HCD
Collision energy: 30
Resolution: 17500
Column name: Acquity BEH C18 1.7um, 2.1x150mm (Waters)
Retention time: 18.657 min
Base peak: 79.0212
Precursor m/z: 342.0771
Precursor type: [M+H]+
Precursor intensity: 9842371.671875
m/z	relative intensity	assigned
53.0022	18	C3HO+
53.9975	2	C2NO+
55.0544	1	C4H7+
67.0542	13	C5H7+
69.0699	999	C5H9+
70.04	85	C2H4N3+
84.0555	1	C3H6N3+
87.0805	19	C5H11O+
158.9763	877	C7H5Cl2+
169.0052	1	C8H6ClO2+
172.9554	6	C7H3Cl2O+
172.992	11	C8H7Cl2+
186.9712	91	C8H5Cl2O+
190.9661	7	C7H5Cl2O2+
204.9818	137	C8H7Cl2O2+
220.0271	2	C10H7ClN3O+
256.0039	6	C10H8Cl2N3O+
259.0286	30	C12H13Cl2O2+
273.0442	17	C13H15Cl2O2+
342.0771	485	C15H18Cl2N3O2+
