Mass spectrum: SSR 241586 HCl; LC-ESI-QFT; MS2; CE: 30; R=17500; [M+H]+
Name: SSR 241586 HCl
Name: 1-[2-[(2R)-4-benzoyl-2-(3,4-dichlorophenyl)morpholin-2-yl]ethyl]-N,N-dimethyl-4-piperidin-1-ylpiperidine-4-carboxamide
Formula: C32H42Cl2N4O3
Exact mass: 600.2634
SMILES: CN(C)C(=O)C1(N2CCCCC2)CCN(CC[C@@]2(c3ccc(Cl)c(Cl)c3)CN(C(=O)c3ccccc3)CCO2)CC1
InChI: InChI=1S/C32H42Cl2N4O3/c1-35(2)30(40)31(38-16-7-4-8-17-38)13-18-36(19-14-31)20-15-32(26-11-12-27(33)28(34)23-26)24-37(21-22-41-32)29(39)25-9-5-3-6-10-25/h3,5-6,9-12,23H,4,7-8,13-22,24H2,1-2H3/t32-/m0/s1
Instrument: Q Exactive Orbitrap (Thermo Scientific)
Instrument type: LC-ESI-QFT
Ms type: MS2
Ion mode: POSITIVE
Ionization: ESI
Fragmentation mode: HCD
Collision energy: 30
Resolution: 17500
Column name: Acquity BEH C18 1.7um, 2.1x150mm (Waters)
Retention time: 16.670 min
Base peak: 79.0211
Precursor m/z: 601.2707
Precursor type: [M+H]+
Precursor intensity: 8953620.21875
m/z	relative intensity	assigned
53.0386	1	C4H5+
56.0494	1	C3H6N+
58.0651	387	C3H8N+
69.0698	1	C5H9+
70.065	1	C4H8N+
72.0443	4	C3H6NO+
84.0806	2	C5H10N+
86.06	11	C4H8NO+
98.0961	1	C6H12N+
104.0495	1	C7H6N+
105.0334	30	C5H3N3+
110.0966	3	C7H12N+
124.1121	4	C8H14N+
126.0913	434	C7H12NO+
138.1276	999	C9H16N+
148.0755	95	C9H10NO+
149.0595	5	C9H9O2+
152.143	1	C10H18N+
166.0861	1	C9H12NO2+
178.0861	6	C10H12NO2+
226.0184	16	C11H10Cl2N+
228.034	44	C11H12Cl2N+
244.0288	2	C11H12Cl2NO+
252.0332	3	C16H9ClO+
270.0445	2	C13H14Cl2NO+
318.0443	2	C20H11ClO2+
332.0603	1	C18H16Cl2NO+
334.0394	40	C17H14Cl2NO2+
362.0709	10	C19H18Cl2NO2+
373.0874	3	C20H19Cl2N2O+
391.0973	748	C20H21Cl2N2O2+
516.1817	6	C27H32Cl2N3O3+
601.2684	1	C32H43Cl2N4O3+
