Mass spectrum: Diethylene glycol dibenzoate; LC-ESI-QFT; MS2; CE: 60; R=17500; [M+H]+
Name: Diethylene glycol dibenzoate
Name: 2-(2-benzoyloxyethoxy)ethyl benzoate
Formula: C18H18O5
Exact mass: 314.1154
SMILES: O=C(OCCOCCOC(=O)C1=CC=CC=C1)C1=CC=CC=C1
InChI: InChI=1S/C18H18O5/c19-17(15-7-3-1-4-8-15)22-13-11-21-12-14-23-18(20)16-9-5-2-6-10-16/h1-10H,11-14H2
Instrument: Q Exactive Orbitrap (Thermo Scientific)
Instrument type: LC-ESI-QFT
Ms type: MS2
Ion mode: POSITIVE
Ionization: ESI
Fragmentation mode: HCD
Collision energy: 60
Resolution: 17500
Column name: Acquity BEH C18 1.7um, 2.1x150mm (Waters)
Retention time: 18.007 min
Base peak: 79.0211
Precursor m/z: 315.1227
Precursor type: [M+H]+
Precursor intensity: 3299119.8125
m/z	relative intensity	assigned
83.0491	307	C5H7O+
91.0544	389	C7H7+
105.0336	999	C7H5O+
109.0649	550	C7H9O+
149.0599	425	C9H9O2+
162.0664	333	C10H10O2+
