Mass spectrum: Theophylline; LC-ESI-QFT; MS2; CE: 75; R=17500; [M+H]+
Name: Theophylline
Name: 1,3-dimethyl-7H-purine-2,6-dione
Formula: C7H8N4O2
Exact mass: 180.0647
SMILES: CN1C2=C(NC=N2)C(=O)N(C)C1=O
InChI: InChI=1S/C7H8N4O2/c1-10-5-4(8-3-9-5)6(12)11(2)7(10)13/h3H,1-2H3,(H,8,9)
Instrument: Q Exactive Orbitrap (Thermo Scientific)
Instrument type: LC-ESI-QFT
Ms type: MS2
Ion mode: POSITIVE
Ionization: ESI
Fragmentation mode: HCD
Collision energy: 75
Resolution: 17500
Column name: Acquity BEH C18 1.7um, 2.1x150mm (Waters)
Retention time: 10.150 min
Base peak: 79.0211
Precursor m/z: 181.072
Precursor type: [M+H]+
Precursor intensity: 3013121.03125
m/z	relative intensity	assigned
54.0338	2	C3H4N+
65.0386	24	C5H5+
67.0291	5	C3H3N2+
68.0369	6	C3H4N2+
69.0447	478	C3H5N2+
81.0448	14	C4H5N2+
83.024	43	C3H3N2O+
83.0603	3	C4H7N2+
91.0543	2	C7H7+
93.0336	2	C6H5O+
93.0448	12	C5H5N2+
93.0701	3	C7H9+
94.04	30	C4H4N3+
95.024	4	C4H3N2O+
95.0491	12	C6H7O+
96.0557	566	C4H6N3+
97.0397	25	C4H5N2O+
105.0449	6	C6H5N2+
108.0556	13	C5H6N3+
109.0271	33	C4H3N3O+
110.0713	13	C5H8N3+
111.0443	5	C6H7O2+
112.0506	4	C4H6N3O+
113.0346	2	C4H5N2O2+
120.0558	6	C6H6N3+
121.0286	16	C7H5O2+
121.0398	6	C6H5N2O+
121.0509	5	C5H5N4+
122.0588	8	C5H6N4+
124.0506	999	C5H6N3O+
126.0662	4	C5H8N3O+
133.0285	5	C6H3N3O+
135.0443	7	C6H5N3O+
137.0822	8	C6H9N4+
139.0626	3	C7H9NO2+
140.0456	8	C5H6N3O2+
142.0612	137	C5H8N3O2+
149.0234	26	C6H3N3O2+
149.0454	2	C6H5N4O+
163.0388	7	C7H5N3O2+
163.0615	5	C7H7N4O+
167.0558	15	C6H7N4O2+
181.0721	78	C7H9N4O2+
