Mass spectrum: Methyl trans-styryl ketone; LC-ESI-QFT; MS2; CE: 45; R=17500; [M+H]+
Name: Methyl trans-styryl ketone
Name: Benzylideneacetone
Name: (E)-4-phenylbut-3-en-2-one
Formula: C10H10O
Exact mass: 146.0732
SMILES: CC(=O)\C=C\C1=CC=CC=C1
InChI: InChI=1S/C10H10O/c1-9(11)7-8-10-5-3-2-4-6-10/h2-8H,1H3/b8-7+
Instrument: Q Exactive Orbitrap (Thermo Scientific)
Instrument type: LC-ESI-QFT
Ms type: MS2
Ion mode: POSITIVE
Ionization: ESI
Fragmentation mode: HCD
Collision energy: 45
Resolution: 17500
Column name: Acquity BEH C18 1.7um, 2.1x150mm (Waters)
Retention time: 19.670 min
Base peak: 79.0211
Precursor m/z: 147.0804
Precursor type: [M+H]+
Precursor intensity: 1762955.28125
m/z	relative intensity	assigned
55.0179	11	C3H3O+
69.0333	10	C4H5O+
79.0543	30	C6H7+
91.0543	414	C7H7+
93.07	22	C7H9+
95.0489	5	C6H7O+
103.0543	27	C8H7+
104.0621	17	C8H8+
105.07	12	C8H9+
107.0492	54	C7H7O+
115.0543	11	C9H7+
117.07	171	C9H9+
119.0857	999	C9H11+
121.0647	7	C8H9O+
128.062	11	C10H8+
129.07	128	C10H9+
131.049	4	C9H7O+
132.0571	48	C9H8O+
145.0651	6	C10H9O+
147.0806	608	C10H11O+
