Mass spectrum: 4-Androstene-3,17-dione; LC-ESI-QFT; MS2; CE: 60; R=17500; [M+H]+
Name: 4-Androstene-3,17-dione
Name: Androstenedione
Name: (8R,9S,10R,13S,14S)-10,13-dimethyl-2,6,7,8,9,11,12,14,15,16-decahydro-1H-cyclopenta[a]phenanthrene-3,17-dione
Formula: C19H26O2
Exact mass: 286.1933
SMILES: [H][C@@]12CCC(=O)[C@@]1(C)CC[C@@]1([H])[C@@]2([H])CCC2=CC(=O)CC[C@]12C
InChI: InChI=1S/C19H26O2/c1-18-9-7-13(20)11-12(18)3-4-14-15-5-6-17(21)19(15,2)10-8-16(14)18/h11,14-16H,3-10H2,1-2H3/t14-,15-,16-,18-,19-/m0/s1
Instrument: Q Exactive Orbitrap (Thermo Scientific)
Instrument type: LC-ESI-QFT
Ms type: MS2
Ion mode: POSITIVE
Ionization: ESI
Fragmentation mode: HCD
Collision energy: 60
Resolution: 17500
Column name: Acquity BEH C18 1.7um, 2.1x150mm (Waters)
Retention time: 17.321 min
Base peak: 79.0211
Precursor m/z: 287.2006
Precursor type: [M+H]+
Precursor intensity: 2122788.59375
m/z	relative intensity	assigned
53.0386	5	C4H5+
55.0179	16	C3H3O+
55.0543	5	C4H7+
65.0386	2	C5H5+
67.0542	24	C5H7+
69.0699	26	C5H9+
79.0542	83	C6H7+
81.0699	77	C6H9+
83.0492	40	C5H7O+
91.0543	19	C7H7+
93.0699	23	C7H9+
95.0492	7	C6H7O+
95.0855	24	C7H11+
97.0648	999	C6H9O+
105.0699	27	C8H9+
107.0491	2	C7H7O+
107.0856	18	C8H11+
109.0649	747	C7H9O+
111.0805	3	C7H11O+
117.0699	10	C9H9+
119.0856	22	C9H11+
121.0647	5	C8H9O+
121.1013	11	C9H13+
123.0805	78	C8H11O+
131.0856	22	C10H11+
133.1012	24	C10H13+
143.0855	9	C11H11+
145.1012	27	C11H13+
147.1168	10	C11H15+
155.0855	4	C12H11+
157.1015	10	C12H13+
159.1169	17	C12H15+
161.1323	3	C12H17+
169.101	9	C13H13+
171.1168	7	C13H15+
173.1326	15	C13H17+
183.1168	8	C14H15+
185.1327	11	C14H17+
187.1476	5	C14H19+
195.1166	2	C15H15+
209.1316	3	C16H17+
211.1478	9	C16H19+
229.1577	3	C16H21O+
