Mass spectrum: Penoxsulam; LC-ESI-QFT; MS2; CE: 75; R=17500; [M-H]-
Name: Penoxsulam
Name: 2-(2,2-difluoroethoxy)-N-(5,8-dimethoxy-[1,2,4]triazolo[1,5-c]pyrimidin-2-yl)-6-(trifluoromethyl)benzenesulfonamide
Formula: C16H14F5N5O5S
Exact mass: 483.0636
SMILES: COC1=CN=C(OC)N2N=C(NS(=O)(=O)C3=C(C=CC=C3OCC(F)F)C(F)(F)F)N=C12
InChI: InChI=1S/C16H14F5N5O5S/c1-29-10-6-22-15(30-2)26-13(10)23-14(24-26)25-32(27,28)12-8(16(19,20)21)4-3-5-9(12)31-7-11(17)18/h3-6,11H,7H2,1-2H3,(H,24,25)
Instrument: Q Exactive Orbitrap (Thermo Scientific)
Instrument type: LC-ESI-QFT
Ms type: MS2
Ion mode: NEGATIVE
Ionization: ESI
Fragmentation mode: HCD
Collision energy: 75
Resolution: 17500
Column name: Acquity BEH C18 1.7um, 2.1x150mm (Waters)
Retention time: 15.561 min
Base peak: 99.9976
Precursor m/z: 482.0563
Precursor type: [M-H]-
Precursor intensity: 14905546.99121
m/z	relative intensity	assigned
53.9985	64	C2NO-
58.9938	59	C2FO-
61.0095	999	C2H2FO-
63.9625	8	O2S-
64.0067	33	C3N2-
65.0034	8	C4HO-
65.0145	71	C3HN2-
65.9987	52	C3NO-
66.0098	649	C2N3-
68.0143	24	C3H2NO-
70.9939	37	C3FO-
73.0084	10	C6H-
74.0035	5	C5N-
77.9656	7	NO2S-
78.0098	20	C3N3-
80.0016	30	C3N2O-
81.0158	31	C2H3F2O-
81.9935	948	C3NO2-
82.9609	22	FO2S-
85.0085	6	C7H-
88.0068	18	C5N2-
90.0098	101	C4N3-
92.0251	5	C4H2N3-
92.9958	130	C3F3-
93.0094	13	C4HN2O-
94.0048	30	F4H2O-
95.0252	18	C4H3N2O-
97.0084	130	C8H-
98.0037	7	C7N-
98.0361	16	F4H6O-
103.9685	5	CN2O2S-
104.0131	9	CH2F4N-
107.0127	25	CH3F4O-
109.0043	652	C4HN2O2-
112.0067	30	C7N2-
113.0033	21	C8HO-
113.0147	12	C7HN2-
115.0302	8	C7H3N2-
116.0253	13	C6H2N3-
117.0146	157	C8H2F-
121.0098	26	C7H2FO-
121.0156	231	C4HN4O-
122.0235	11	CH4F4NO-
123.0073	9	C4HN3O2-
124.0152	30	C4H2N3O2-
126.0309	7	C4H4N3O2-
131.0052	6	C7FN2-
133.9997	12	C2H2F4O2-
134.0048	12	C7HFNO-
135.0075	249	C2H3F4O2-
135.0253	14	C8H4FO-
137.0208	292	C8H3F2-
138.0306	10	C5H4N3O2-
140.0129	13	C4H2F4N-
141.0159	15	C7H3F2O-
143.0053	32	C8FN2-
143.0361	6	C3H8FO5-
145.0096	487	C9H2FO-
145.0269	56	C2H3F4N3-
146.0045	7	C3F2N4O-
148.0143	98	C6H3F3O-
149.0105	792	C5HN4O2-
150.0181	25	C5H2N4O2-
151.0116	9	C7HF2N2-
152.0191	10	C7H2F2N2-
153.016	5	C8H3F2O-
154.0109	15	C7H2F2NO-
155.0315	32	C8H5F2O-
157.0206	13	C4HF2N5-
160.032	6	C13H4-
161.022	727	C7H4F3O-
163.0202	17	C9H4FO2-
164.034	361	C3H6F4NO2-
169.002	7	C7F3N2-
171.0311	55	F5H4N4O-
176.0092	58	C7H3F3O2-
177.0142	32	C8HF2N3-
177.027	19	C9H3F2N2-
179.0575	13	C4H9F4NO2-
183.0263	17	C9H5F2O2-
185.022	377	C9H4F3O-
185.0467	39	CH6F5N4O-
186.0176	101	C2H9F3O4S-
195.0381	7	C3H11F2NO4S-
197.0206	137	C8H2F3N3-
200.0203	53	C8H3F3N2O-
203.018	33	C11H4FO3-
205.0323	21	C11H6FO3-
208.013	23	C14H2F2-
209.0052	5	C11H3N3S-
210.0286	85	C14H4F2-
220.0199	10	C11H8O3S-
223.0238	85	C3H5F4N3O4-
223.0358	8	C7H9F2N2O2S-
224.0316	941	C9H3F3N4-
225.0395	24	C11H7F2O3-
226.0232	38	C9H3F3N3O-
235.0232	35	C7H7F2N3O2S-
240.0147	7	C7H8F2NO4S-
267.0264	11	C16H5F2O2-
277.0212	7	C8H7F2N4O3S-
287.9936	11	C14H4F2NO2S-
289.0029	7	C11H3F4NO4-
292.0092	22	C16H2F2N2O2-
293.0167	14	C16H3F2N2O2-
