Mass spectrum: (4-Aminophenyl)arsonic acid; LC-ESI-QFT; MS2; CE: 45; R=17500; [M+H]+
Name: (4-Aminophenyl)arsonic acid
Name: Arsanilic acid
Formula: C6H8AsNO3
Exact mass: 216.9720
SMILES: NC1=CC=C(C=C1)[As](O)(O)=O
InChI: InChI=1S/C6H8AsNO3/c8-6-3-1-5(2-4-6)7(9,10)11/h1-4H,8H2,(H2,9,10,11)
Instrument: Q Exactive Orbitrap (Thermo Scientific)
Instrument type: LC-ESI-QFT
Ms type: MS2
Ion mode: POSITIVE
Ionization: ESI
Fragmentation mode: HCD
Collision energy: 45
Resolution: 17500
Column name: Acquity BEH C18 1.7um, 2.1x150mm (Waters)
Retention time: 2.487 min
Base peak: 79.0211
Precursor m/z: 217.9793
Precursor type: [M+H]+
Precursor intensity: 6624481.75
m/z	relative intensity	assigned
65.0386	90	C5H5+
68.0495	10	C4H6N+
80.0494	10	C5H6N+
81.0574	1	C5H7N+
82.065	1	C5H8N+
90.9158	4	AsO+
92.0495	156	C6H6N+
93.0336	2	C6H5O+
93.0574	3	C6H7N+
108.0444	422	C6H6NO+
109.0522	999	C6H7NO+
110.06	83	C6H8NO+
111.044	7	C6H7O2+
129.9857	31	AsH9NO2+
141.9858	1	CH9AsNO2+
143.9647	1	AsH7NO3+
144.9729	1	AsH8NO3+
153.9631	4	C5H5AsN+
153.9857	1	C2H9AsNO2+
171.9732	1	C5H7AsNO+
181.9582	17	C6H5AsNO+
199.9686	3	C6H7AsNO2+
217.9793	41	C6H9AsNO3+
