Mass spectrum: SB243213A; LC-ESI-QFT; MS2; CE: 60; R=17500; [M+H]+
Name: SB243213A
Name: SB 243213
Name: 5-methyl-N-[6-(2-methylpyridin-3-yl)oxypyridin-3-yl]-6-(trifluoromethyl)-2,3-dihydroindole-1-carboxamide
Formula: C22H19F3N4O2
Exact mass: 428.1460
SMILES: CC1=CC2=C(C=C1C(F)(F)F)N(CC2)C(=O)NC1=CC=C(OC2=CC=CN=C2C)N=C1
InChI: InChI=1S/C22H19F3N4O2/c1-13-10-15-7-9-29(18(15)11-17(13)22(23,24)25)21(30)28-16-5-6-20(27-12-16)31-19-4-3-8-26-14(19)2/h3-6,8,10-12H,7,9H2,1-2H3,(H,28,30)
Instrument: Q Exactive Orbitrap (Thermo Scientific)
Instrument type: LC-ESI-QFT
Ms type: MS2
Ion mode: POSITIVE
Ionization: ESI
Fragmentation mode: HCD
Collision energy: 60
Resolution: 17500
Column name: Acquity BEH C18 1.7um, 2.1x150mm (Waters)
Retention time: 18.000 min
Base peak: 79.0211
Precursor m/z: 429.1533
Precursor type: [M+H]+
Precursor intensity: 32586942.90625
m/z	relative intensity	assigned
53.0385	2	C4H5+
65.0385	60	C5H5+
66.0464	3	C5H6+
67.0415	1	C4H5N+
68.0494	1	C4H6N+
78.0338	15	C5H4N+
80.0494	30	C5H6N+
82.0286	3	C4H4NO+
90.0338	1	C6H4N+
92.0494	140	C6H6N+
93.0573	311	C6H7N+
94.0286	5	FH3N4O+
96.0443	2	C5H6NO+
105.0447	12	C6H5N2+
106.0525	2	C6H6N2+
108.0444	28	C6H6NO+
109.0521	6	C6H7NO+
110.06	522	C6H8NO+
112.0641	1	C2H9FN2O2+
119.0239	1	C6H3N2O+
119.0603	7	C7H7N2+
121.0396	46	C6H5N2O+
124.0757	12	C7H10NO+
126.0549	44	C6H8NO2+
130.0652	3	C9H8N+
131.0605	2	C8H7N2+
132.0682	1	C8H8N2+
133.0396	97	C7H5N2O+
134.0474	52	C7H6N2O+
135.0553	4	C7H7N2O+
137.0345	14	C6H5N2O2+
140.0495	1	C10H6N+
140.0704	3	C2H9FN4O2+
143.0602	2	C9H7N2+
145.0396	2	C8H5N2O+
145.0759	4	C9H9N2+
147.0552	60	C8H7N2O+
151.0501	450	C7H7N2O2+
155.0603	15	C10H7N2+
156.0681	13	C10H8N2+
157.076	25	C10H9N2+
158.0475	5	C9H6N2O+
158.0837	1	C10H10N2+
159.0553	11	C9H7N2O+
160.0507	5	C8H6N3O+
161.0346	6	C8H5N2O2+
163.0499	1	C8H7N2O2+
165.0658	29	C8H9N2O2+
167.0607	2	C11H7N2+
168.0681	14	C11H8N2+
169.0524	1	C11H7NO+
169.076	1	C11H9N2+
171.0551	7	C10H7N2O+
171.0787	2	C10H9N3+
172.0504	2	C9H6N3O+
172.0868	37	C10H10N3+
173.0586	5	C9H7N3O+
173.0708	11	C10H9N2O+
181.0631	1	C11H7N3+
182.0709	7	C11H8N3+
183.0553	37	C11H7N2O+
184.0631	4	C11H8N2O+
184.0863	1	C11H10N3+
185.0584	6	C10H7N3O+
185.0708	22	C11H9N2O+
186.0659	6	C10H8N3O+
186.0785	2	C11H10N2O+
187.0499	2	C10H7N2O2+
187.06	1	C9H8F3N+
199.074	8	C11H9N3O+
200.0818	91	C11H10N3O+
201.0659	7	C11H9N2O2+
202.0838	1	C10H11F3N+
209.0584	2	C12H7N3O+
210.0661	92	C12H8N3O+
211.0501	31	C12H7N2O2+
211.0737	7	C12H9N3O+
227.0685	3	C12H9N3O2+
228.0766	999	C12H10N3O2+
