Mass spectrum: Propranolol; LC-ESI-QFT; MS2; CE: 30; R=17500; [M+H]+
Name: Propranolol
Name: 1-naphthalen-1-yloxy-3-(propan-2-ylamino)propan-2-ol
Formula: C16H21NO2
Exact mass: 259.1572
SMILES: CC(C)NCC(O)COC1=C2C=CC=CC2=CC=C1
InChI: InChI=1S/C16H21NO2/c1-12(2)17-10-14(18)11-19-16-9-5-7-13-6-3-4-8-15(13)16/h3-9,12,14,17-18H,10-11H2,1-2H3
Instrument: Q Exactive Orbitrap (Thermo Scientific)
Instrument type: LC-ESI-QFT
Ms type: MS2
Ion mode: POSITIVE
Ionization: ESI
Fragmentation mode: HCD
Collision energy: 30
Resolution: 17500
Column name: Acquity BEH C18 1.7um, 2.1x150mm (Waters)
Retention time: 14.293 min
Base peak: 79.0212
Precursor m/z: 260.1645
Precursor type: [M+H]+
Precursor intensity: 23272579.3125
m/z	relative intensity	assigned
56.0495	60	C3H6N+
58.0651	109	C3H8N+
60.0808	12	C3H10N+
72.0807	152	C4H10N+
74.06	139	C3H8NO+
84.0807	1	C5H10N+
86.0964	65	C5H12N+
90.0549	4	C3H8NO2+
98.0964	170	C6H12N+
100.112	5	C6H14N+
102.0913	1	C5H12NO+
116.107	401	C6H14NO+
129.0698	9	C10H9+
132.1019	12	C6H14NO2+
141.0698	15	C11H9+
143.0489	2	C10H7O+
145.0647	7	C10H9O+
153.0697	2	C12H9+
155.0855	26	C12H11+
157.0648	103	C11H9O+
165.0699	8	C13H9+
168.0569	2	C12H8O+
171.0806	3	C12H11O+
183.0804	269	C13H11O+
185.0959	1	C13H13O+
199.1116	1	C14H15O+
200.1067	2	C13H14NO+
201.091	1	C13H13O2+
218.1175	56	C13H16NO2+
242.1538	8	C16H20NO+
260.1644	999	C16H22NO2+
