Mass spectrum: Coumaphos; LC-ESI-QFT; MS2; CE: 30; R=17500; [M+H]+
Name: Coumaphos
Formula: C14H16ClO5PS
Exact mass: 362.0145
SMILES: CCOP(=S)(OCC)OC1=CC2=C(C=C1)C(C)=C(Cl)C(=O)O2
InChI: InChI=1S/C14H16ClO5PS/c1-4-17-21(22,18-5-2)20-10-6-7-11-9(3)13(15)14(16)19-12(11)8-10/h6-8H,4-5H2,1-3H3
Instrument: Q Exactive Orbitrap (Thermo Scientific)
Instrument type: LC-ESI-QFT
Ms type: MS2
Ion mode: POSITIVE
Ionization: ESI
Fragmentation mode: HCD
Collision energy: 30
Resolution: 17500
Column name: Acquity BEH C18 1.7um, 2.1x150mm (Waters)
Retention time: 18.628 min
Base peak: 79.0212
Precursor m/z: 363.0217
Precursor type: [M+H]+
Precursor intensity: 5667015.125
m/z	relative intensity	assigned
91.0542	13	C7H7+
98.9842	323	H4O4P+
100.9882	8	C3HO4+
109.005	5	C2H6O3P+
114.9612	9	H4O3PS+
116.9947	3	H6O5P+
119.0491	3	C8H7O+
121.0286	4	C7H5O2+
122.0318	4	C4H11PS+
127.0155	371	C2H8O4P+
129.0197	8	C5H5O4+
131.0104	5	CH8O5P+
131.0851	2	C10H11+
155.0468	208	C4H12O4P+
157.051	4	C7H9O4+
191.0164	5	C10H7O2S+
207.9378	4	C8HO3PS+
208.9315	276	C5H2ClO5S+
211.0157	100	C10H8ClO3+
224.9774	5	C10H6ClO2S+
225.9858	4	C10H7ClO2S+
226.9929	999	C10H8ClO2S+
242.9882	1	C10H8ClO3S+
255.0235	7	C11H12O3PS+
270.9375	1	C10H5ClO3PS+
288.9486	160	C10H7ClO4PS+
289.043	18	C12H15ClO4P+
290.0151	12	C14H11O3PS+
290.982	15	C14H9ClOPS+
306.9592	562	C10H9ClO5PS+
317.0381	129	C13H15ClO5P+
320.975	23	C11H11ClO5PS+
334.9905	283	C12H13ClO5PS+
363.0217	138	C14H17ClO5PS+
