Mass spectrum: Kinetin; LC-ESI-QFT; MS2; CE: 75; R=17500; [M+H]+
Name: Kinetin
Name: N-(furan-2-ylmethyl)-7H-purin-6-amine
Formula: C10H9N5O
Exact mass: 215.0807
SMILES: C(NC1=C2N=CN=C2N=CN1)C1=CC=CO1
InChI: InChI=1S/C10H9N5O/c1-2-7(16-3-1)4-11-9-8-10(13-5-12-8)15-6-14-9/h1-3,5-6H,4H2,(H2,11,12,13,14,15)
Instrument: Q Exactive Orbitrap (Thermo Scientific)
Instrument type: LC-ESI-QFT
Ms type: MS2
Ion mode: POSITIVE
Ionization: ESI
Fragmentation mode: HCD
Collision energy: 75
Resolution: 17500
Column name: Acquity BEH C18 1.7um, 2.1x150mm (Waters)
Retention time: 11.252 min
Base peak: 79.0211
Precursor m/z: 216.088
Precursor type: [M+H]+
Precursor intensity: 13755748.8125
m/z	relative intensity	assigned
53.0386	141	C4H5+
70.0651	2	C4H8N+
80.0495	1	C5H6N+
81.0335	999	C5H5O+
94.0399	2	C4H4N3+
107.0604	1	C6H7N2+
119.0352	14	C5H3N4+
121.051	7	C5H5N4+
135.0665	5	C6H7N4+
136.0618	20	C5H6N5+
137.0457	5	C5H5N4O+
144.0557	1	C8H6N3+
146.0587	2	C7H6N4+
148.0617	34	C6H6N5+
161.0821	3	C8H9N4+
171.0665	5	C9H7N4+
172.0616	4	C8H6N5+
173.0696	11	C8H7N5+
188.093	6	C9H10N5+
