Mass spectrum: 5-Chlorobenzotriazole; LC-ESI-QFT; MS2; CE: 45; R=17500; [M-H]-
Name: 5-Chlorobenzotriazole
Name: 5-chloro-2H-benzotriazole
Formula: C6H4ClN3
Exact mass: 153.0094
SMILES: ClC1=CC2=C(NN=N2)C=C1
InChI: InChI=1S/C6H4ClN3/c7-4-1-2-5-6(3-4)9-10-8-5/h1-3H,(H,8,9,10)
Instrument: Q Exactive Orbitrap (Thermo Scientific)
Instrument type: LC-ESI-QFT
Ms type: MS2
Ion mode: NEGATIVE
Ionization: ESI
Fragmentation mode: HCD
Collision energy: 45
Resolution: 17500
Column name: Acquity BEH C18 1.7um, 2.1x150mm (Waters)
Retention time: 14.776 min
Base peak: 152.0021
Precursor m/z: 152.0021
Precursor type: [M-H]-
Precursor intensity: 28970344.68066
m/z	relative intensity	assigned
88.0193	136	C6H2N-
116.0255	19	C6H2N3-
123.9959	1	C6H3ClN-
152.002	999	C6H3ClN3-
