Mass spectrum: 4`-Sulfamylacetanilide; LC-ESI-QFT; MS2; CE: 90; R=17500; [M+H]+
Name: 4'-Sulfamylacetanilide
Name: 4-Acetamidobenzenesulfonamide
Name: N-(4-sulfamoylphenyl)acetamide
Formula: C8H10N2O3S
Exact mass: 214.0412
SMILES: CC(=O)NC1=CC=C(C=C1)S(N)(=O)=O
InChI: InChI=1S/C8H10N2O3S/c1-6(11)10-7-2-4-8(5-3-7)14(9,12)13/h2-5H,1H3,(H,10,11)(H2,9,12,13)
Instrument: Q Exactive Orbitrap (Thermo Scientific)
Instrument type: LC-ESI-QFT
Ms type: MS2
Ion mode: POSITIVE
Ionization: ESI
Fragmentation mode: HCD
Collision energy: 90
Resolution: 17500
Column name: Acquity BEH C18 1.7um, 2.1x150mm (Waters)
Retention time: 8.299 min
Base peak: 79.0212
Precursor m/z: 215.0485
Precursor type: [M+H]+
Precursor intensity: 1057611.09375
m/z	relative intensity	assigned
53.0386	9	C4H5+
55.0542	3	C4H7+
61.0107	9	C2H5S+
63.9977	5	CH4OS+
65.0385	164	C5H5+
66.0464	43	C5H6+
79.0212	35	C2H7OS+
79.0542	5	C6H7+
79.9802	3	H2NO2S+
80.0493	12	C5H6N+
92.0495	37	C6H6N+
93.0573	999	C6H7N+
94.0651	144	C6H8N+
95.0491	18	C6H7O+
105.0446	5	C6H5N2+
106.0652	4	C7H8N+
108.0442	34	C6H6NO+
110.0601	6	C6H8NO+
134.0599	4	C8H8NO+
