Mass spectrum: Hydrochlorothiazide; LC-ESI-QFT; MS2; CE: 60; R=17500; [M-H]-
Name: Hydrochlorothiazide
Name: 6-chloro-1,1-dioxo-3,4-dihydro-2H-1lambda6,2,4-benzothiadiazine-7-sulfonamide
Formula: C7H8ClN3O4S2
Exact mass: 296.9645
SMILES: NS(=O)(=O)C1=CC2=C(NCNS2(=O)=O)C=C1Cl
InChI: InChI=1S/C7H8ClN3O4S2/c8-4-1-5-7(2-6(4)16(9,12)13)17(14,15)11-3-10-5/h1-2,10-11H,3H2,(H2,9,12,13)
Instrument: Q Exactive Orbitrap (Thermo Scientific)
Instrument type: LC-ESI-QFT
Ms type: MS2
Ion mode: NEGATIVE
Ionization: ESI
Fragmentation mode: HCD
Collision energy: 60
Resolution: 17500
Column name: Acquity BEH C18 1.7um, 2.1x150mm (Waters)
Retention time: 8.152 min
Base peak: 218.1034
Precursor m/z: 295.9572
Precursor type: [M-H]-
Precursor intensity: 3580210.312988
m/z	relative intensity	assigned
61.9706	4	NOS-
63.9624	17	O2S-
65.9984	1	C3NO-
76.0192	11	C5H2N-
77.9655	999	NO2S-
78.9733	34	HNO2S-
79.9812	14	H2NO2S-
80.965	3	HO3S-
87.0115	1	C6HN-
90.0349	15	C6H4N-
92.0142	4	C5H2NO-
93.9604	21	NO3S-
94.0298	12	C5H4NO-
104.038	23	C6H4N2-
105.0458	18	C6H5N2-
114.9517	2	H3O3S2-
115.0302	3	C7H3N2-
117.0458	9	C7H5N2-
119.025	3	C6H3N2O-
121.0407	83	C6H5N2O-
123.9959	11	C6H3ClN-
126.0116	293	C6H5ClN-
131.0489	2	C7H5N3-
132.0329	4	C7H4N2O-
132.0568	2	C7H6N3-
140.9985	3	C6H4ClNO-
141.0226	2	C6H6ClN2-
148.0512	1	C7H6N3O-
153.0222	1	C7H6ClN2-
167.9992	1	C6H4N2O2S-
169.0076	23	C6H5N2O2S-
178.9918	5	C7H3N2O2S-
181.0072	2	C7H5N2O2S-
188.9656	3	C6H4ClNO2S-
189.9735	29	C6H5ClNO2S-
194.0029	3	C7H4N3O2S-
202.9687	25	C6H4ClN2O2S-
203.9764	11	C6H5ClN2O2S-
204.9843	199	C6H6ClN2O2S-
215.9579	2	C7H5ClN2S2-
216.9658	3	C7H6ClN2S2-
219.972	2	C6H5ClN2O3S-
268.9462	20	C6H6ClN2O4S2-
