Mass spectrum: Diniconazole; LC-ESI-QFT; MS2; CE: 60; R=17500; [M+H]+
Name: Diniconazole
Name: (E)-1-(2,4-dichlorophenyl)-4,4-dimethyl-2-(1,2,4-triazol-1-yl)pent-1-en-3-ol
Formula: C15H17Cl2N3O
Exact mass: 325.0749
SMILES: CC(C)(C)C(O)C(=C/C1=C(Cl)C=C(Cl)C=C1)\N1C=NC=N1
InChI: InChI=1S/C15H17Cl2N3O/c1-15(2,3)14(21)13(20-9-18-8-19-20)6-10-4-5-11(16)7-12(10)17/h4-9,14,21H,1-3H3/b13-6+
Instrument: Q Exactive Orbitrap (Thermo Scientific)
Instrument type: LC-ESI-QFT
Ms type: MS2
Ion mode: POSITIVE
Ionization: ESI
Fragmentation mode: HCD
Collision energy: 60
Resolution: 17500
Column name: Acquity BEH C18 1.7um, 2.1x150mm (Waters)
Retention time: 19.160 min
Base peak: 79.0211
Precursor m/z: 326.0821
Precursor type: [M+H]+
Precursor intensity: 21054401.75
m/z	relative intensity	assigned
57.0699	13	C4H9+
59.0491	1	C3H7O+
69.0698	10	C5H9+
70.0399	999	C2H4N3+
87.0804	5	C5H11O+
93.0699	1	C7H9+
110.0712	1	C5H8N3+
136.0076	2	C8H5Cl+
137.0153	2	C8H6Cl+
141.0698	1	C11H9+
145.0647	1	C10H9O+
148.0868	1	C8H10N3+
154.0776	1	C12H10+
158.9762	71	C7H5Cl2+
162.023	3	C10H7Cl+
165.0103	1	C9H6ClO+
166.0182	1	C9H7ClO+
169.1011	5	C13H13+
170.9762	5	C8H5Cl2+
172.9555	16	C7H3Cl2O+
172.9919	3	C8H7Cl2+
175.031	1	C11H8Cl+
176.0387	6	C11H9Cl+
179.026	1	C10H8ClO+
180.0332	1	C10H9ClO+
182.9764	1	C9H5Cl2+
189.0466	6	C12H10Cl+
190.029	1	C10H7ClN2+
191.0248	1	C9H6ClN3+
193.0415	3	C11H10ClO+
196.9917	2	C10H7Cl2+
204.07	4	C13H13Cl+
207.0569	1	C12H12ClO+
216.0323	2	C11H7ClN3+
217.0399	3	C11H8ClN3+
240.0087	1	C13H5ClN2O+
278.0243	1	C13H10Cl2N3+
