Mass spectrum: Bezafibrate; LC-ESI-QFT; MS2; CE: 45; R=17500; [M+H]+
Name: Bezafibrate
Name: 2-[4-[2-[(4-chlorobenzoyl)amino]ethyl]phenoxy]-2-methylpropanoic acid
Formula: C19H20ClNO4
Exact mass: 361.1081
SMILES: CC(C)(OC1=CC=C(CCNC(=O)C2=CC=C(Cl)C=C2)C=C1)C(O)=O
InChI: InChI=1S/C19H20ClNO4/c1-19(2,18(23)24)25-16-9-3-13(4-10-16)11-12-21-17(22)14-5-7-15(20)8-6-14/h3-10H,11-12H2,1-2H3,(H,21,22)(H,23,24)
Instrument: Q Exactive Orbitrap (Thermo Scientific)
Instrument type: LC-ESI-QFT
Ms type: MS2
Ion mode: POSITIVE
Ionization: ESI
Fragmentation mode: HCD
Collision energy: 45
Resolution: 17500
Column name: Acquity BEH C18 1.7um, 2.1x150mm (Waters)
Retention time: 17.333 min
Base peak: 79.0211
Precursor m/z: 362.1154
Precursor type: [M+H]+
Precursor intensity: 10976976.71875
m/z	relative intensity	assigned
53.0022	1	C3HO+
59.0491	32	C3H7O+
69.0334	16	C4H5O+
75.0229	1	C6H3+
77.0383	1	C6H5+
86.9995	2	C4H4Cl+
87.0441	32	C4H7O2+
91.0542	10	C7H7+
93.0699	25	C7H9+
95.0492	2	C6H7O+
103.0542	9	C8H7+
105.0699	2	C8H9+
107.0492	2	C7H7O+
110.9996	1	C6H4Cl+
119.0489	2	C8H7O+
119.0855	13	C9H11+
120.0569	10	C8H8O+
121.0647	595	C8H9O+
129.0101	6	C6H6ClO+
133.0648	7	C9H9O+
133.1012	4	C10H13+
138.9945	999	C7H4ClO+
143.0857	2	C11H11+
146.0727	2	C10H10O+
156.0207	2	C10H4O2+
161.096	90	C11H13O+
171.0805	3	C12H11O+
182.0368	3	C9H9ClNO+
189.091	8	C12H13O2+
207.1017	1	C12H15O3+
276.0785	4	C15H15ClNO2+
316.1101	3	C18H19ClNO2+
