Mass spectrum: Methoxyfenozide; LC-ESI-QFT; MS2; CE: 60; R=17500; [M-H]-
Name: Methoxyfenozide
Name: N'-tert-butyl-N'-(3,5-dimethylbenzoyl)-3-methoxy-2-methylbenzohydrazide
Formula: C22H28N2O3
Exact mass: 368.2100
SMILES: COC1=CC=CC(C(=O)NN(C(=O)C2=CC(C)=CC(C)=C2)C(C)(C)C)=C1C
InChI: InChI=1S/C22H28N2O3/c1-14-11-15(2)13-17(12-14)21(26)24(22(4,5)6)23-20(25)18-9-8-10-19(27-7)16(18)3/h8-13H,1-7H3,(H,23,25)
Instrument: Q Exactive Orbitrap (Thermo Scientific)
Instrument type: LC-ESI-QFT
Ms type: MS2
Ion mode: NEGATIVE
Ionization: ESI
Fragmentation mode: HCD
Collision energy: 60
Resolution: 17500
Column name: Acquity BEH C18 1.7um, 2.1x150mm (Waters)
Retention time: 17.518 min
Base peak: 307.0977
Precursor m/z: 367.2027
Precursor type: [M-H]-
Precursor intensity: 54106574.67773
m/z	relative intensity	assigned
73.0296	1	C3H5O2-
91.019	6	C6H3O-
93.0347	13	C6H5O-
94.0425	2	C6H6O-
97.0661	1	C6H9O-
105.071	662	C8H9-
106.0424	5	C7H6O-
107.0504	3	C7H7O-
108.0217	4	C6H4O2-
118.0301	4	C7H4NO-
119.0502	1	C8H7O-
121.0296	25	C7H5O2-
121.0659	24	C8H9O-
122.0374	38	C7H6O2-
132.0457	2	C8H6NO-
136.0406	3	C7H6NO2-
136.0527	2	C8H8O2-
145.0775	2	C9H9N2-
146.0249	76	C8H4NO2-
147.0329	2	C8H5NO2-
147.0817	2	C10H11O-
148.0405	5	C8H6NO2-
148.0769	18	C9H10NO-
149.0608	999	C9H9O2-
162.0564	2	C9H8NO2-
163.0512	2	C8H7N2O2-
165.0558	6	C9H9O3-
189.0673	5	C10H9N2O2-
204.1394	19	C13H18NO-
309.1244	3	C18H17N2O3-
