Mass spectrum: MK-547; LC-ESI-QFT; MS2; CE: 15; R=17500; [M-H]-
Name: MK-547
Name: J-104132
Name: (5S,6R,7R)-5-(1,3-benzodioxol-5-yl)-2-butyl-7-[2-[(2S)-2-carboxypropyl]-4-methoxyphenyl]-6,7-dihydro-5H-cyclopenta[b]pyridine-6-carboxylic acid
Formula: C31H33NO7
Exact mass: 531.2257
SMILES: CCCCc1ccc2c(n1)[C@@H](c1ccc(OC)cc1C[C@H](C)C(O)=O)[C@H](C(O)=O)[C@H]2c1ccc2c(c1)OCO2
InChI: InChI=1S/C31H33NO7/c1-4-5-6-20-8-10-23-26(18-7-12-24-25(15-18)39-16-38-24)28(31(35)36)27(29(23)32-20)22-11-9-21(37-3)14-19(22)13-17(2)30(33)34/h7-12,14-15,17,26-28H,4-6,13,16H2,1-3H3,(H,33,34)(H,35,36)/t17-,26-,27-,28+/m0/s1
Instrument: Q Exactive Orbitrap (Thermo Scientific)
Instrument type: LC-ESI-QFT
Ms type: MS2
Ion mode: NEGATIVE
Ionization: ESI
Fragmentation mode: HCD
Collision energy: 15
Resolution: 17500
Column name: Acquity BEH C18 1.7um, 2.1x150mm (Waters)
Retention time: 18.559 min
Base peak: 112.9856
Precursor m/z: 530.2184
Precursor type: [M-H]-
Precursor intensity: 8791663.098145
m/z	relative intensity	assigned
450.2084	1	C30H28NO3-
468.2177	11	C30H30NO4-
486.2288	26	C30H32NO5-
512.2077	10	C31H30NO6-
530.2184	999	C31H32NO7-
