Mass spectrum: AVE3295; LC-ESI-QFT; MS2; CE: 90; R=17500; [M+H]+
Name: AVE3295
Name: 5-Fluoro-N-[(1S)-1-phenylpropyl]-2-[(quinolin-8-ylsulfonyl)amino]benzamide
Name: 5-fluoro-N-[(1S)-1-phenylpropyl]-2-(quinolin-8-ylsulfonylamino)benzamide
Formula: C25H22FN3O3S
Exact mass: 463.1366
SMILES: CC[C@H](NC(=O)c1cc(F)ccc1NS(=O)(=O)c1cccc2cccnc12)c1ccccc1
InChI: InChI=1S/C25H22FN3O3S/c1-2-21(17-8-4-3-5-9-17)28-25(30)20-16-19(26)13-14-22(20)29-33(31,32)23-12-6-10-18-11-7-15-27-24(18)23/h3-16,21,29H,2H2,1H3,(H,28,30)/t21-/m0/s1
Instrument: Q Exactive Orbitrap (Thermo Scientific)
Instrument type: LC-ESI-QFT
Ms type: MS2
Ion mode: POSITIVE
Ionization: ESI
Fragmentation mode: HCD
Collision energy: 90
Resolution: 17500
Column name: Acquity BEH C18 1.7um, 2.1x150mm (Waters)
Retention time: 17.503 min
Base peak: 79.0211
Precursor m/z: 464.1439
Precursor type: [M+H]+
Precursor intensity: 18559241.5
m/z	relative intensity	assigned
53.0022	1	C3HO+
53.0386	4	C4H5+
56.0495	8	C3H6N+
57.0135	1	C3H2F+
63.0229	5	C5H3+
65.0385	66	C5H5+
75.0229	6	C6H3+
77.0385	4	CH4FN3+
80.0494	1	C5H6N+
83.0291	14	C5H4F+
89.0385	4	C2H4FN3+
91.0542	999	C7H7+
101.0385	4	C8H5+
102.0464	6	C8H6+
104.0495	2	C7H6N+
105.0447	6	C6H5N2+
105.0572	7	C7H7N+
106.065	5	C7H8N+
108.0444	4	C6H6NO+
109.0322	27	C6H4FN+
110.0161	8	C6H3FO+
110.04	54	C6H5FN+
116.0494	2	C8H6N+
117.0572	7	C8H7N+
117.0698	11	C9H9+
119.0491	11	C8H7O+
127.0425	2	C3H11O3S+
128.0494	113	C9H6N+
129.0447	29	C8H5N2+
129.057	17	C9H7N+
132.0443	3	C8H6NO+
134.0599	9	C8H8NO+
134.0963	17	C9H12N+
137.027	3	C7H4FNO+
138.0349	45	C7H5FNO+
142.0525	2	C9H6N2+
144.0443	10	C9H6NO+
145.0522	1	C9H7NO+
146.0599	46	C9H8NO+
148.0213	3	C8H6NS+
155.0376	34	C7H6FNO2+
156.0554	1	C9H6N3+
160.0214	6	C9H6NS+
160.0755	6	C10H10NO+
161.0294	4	C9H7NS+
161.047	3	C9H7NO2+
163.054	1	C8H6FN3+
166.0649	1	C12H8N+
169.0532	1	C8H8FNO2+
170.0607	1	C8H9FNO2+
174.0551	1	C10H8NO2+
183.0604	8	C13H8F+
190.065	20	C14H8N+
191.0604	1	C13H7N2+
191.0728	3	C14H9N+
194.0599	2	C13H8NO+
197.0635	2	C13H8FN+
208.0556	6	C14H7FN+
208.0756	1	C14H10NO+
209.0633	34	C14H8FN+
215.06	2	C15H7N2+
216.0681	59	C15H8N2+
217.0759	20	C15H9N2+
218.0597	1	C7H12N3O3S+
218.0836	4	C15H10N2+
222.0713	1	C15H9FN+
226.0663	1	C14H9FNO+
227.0602	2	C16H7N2+
234.0589	3	C15H7FN2+
235.0665	22	C15H8FN2+
236.0743	234	C15H9FN2+
237.0821	10	C15H10FN2+
238.0662	3	C15H9FNO+
244.063	1	C16H8N2O+
245.0709	3	C16H9N2O+
247.0664	11	C13H13NO2S+
263.0615	3	C16H8FN2O+
264.0692	77	C16H9FN2O+
265.077	26	C16H10FN2O+
