Mass spectrum: 2-(3-Phenylpropyl)pyridine; LC-ESI-QFT; MS2; CE: 90; R=17500; [M+H]+
Name: 2-(3-Phenylpropyl)pyridine
Formula: C14H15N
Exact mass: 197.1204
SMILES: C(CC1=CC=CC=C1)CC1=CC=CC=N1
InChI: InChI=1S/C14H15N/c1-2-7-13(8-3-1)9-6-11-14-10-4-5-12-15-14/h1-5,7-8,10,12H,6,9,11H2
Instrument: Q Exactive Orbitrap (Thermo Scientific)
Instrument type: LC-ESI-QFT
Ms type: MS2
Ion mode: POSITIVE
Ionization: ESI
Fragmentation mode: HCD
Collision energy: 90
Resolution: 17500
Column name: Acquity BEH C18 1.7um, 2.1x150mm (Waters)
Retention time: 13.113 min
Base peak: 79.0211
Precursor m/z: 198.1277
Precursor type: [M+H]+
Precursor intensity: 44956783.375
m/z	relative intensity	assigned
53.0386	9	C4H5+
54.0339	1	C3H4N+
65.0385	13	C5H5+
66.0463	21	C5H6+
67.0416	26	C4H5N+
67.0541	2	C5H7+
77.0385	4	C6H5+
78.0337	3	C5H4N+
79.0416	76	C5H5N+
79.0542	78	C6H7+
80.0494	102	C5H6N+
91.0542	12	C7H7+
92.0495	47	C6H6N+
93.0573	999	C6H7N+
94.065	35	C6H8N+
103.0542	48	C8H7+
105.0699	158	C8H9+
106.0651	998	C7H8N+
107.0728	89	C7H9N+
118.0649	5	C8H8N+
119.0731	1	C8H9N+
120.0807	16	C8H10N+
198.1276	16	C14H16N+
