Mass spectrum: Meloxicam; LC-ESI-QFT; MS2; CE: 15; R=17500; [M+H]+
Name: Meloxicam
Name: 4-hydroxy-2-methyl-N-(5-methyl-1,3-thiazol-2-yl)-1,1-dioxo-1lambda6,2-benzothiazine-3-carboxamide
Formula: C14H13N3O4S2
Exact mass: 351.0347
SMILES: CN1C(C(=O)NC2=NC=C(C)S2)=C(O)C2=C(C=CC=C2)S1(=O)=O
InChI: InChI=1S/C14H13N3O4S2/c1-8-7-15-14(22-8)16-13(19)11-12(18)9-5-3-4-6-10(9)23(20,21)17(11)2/h3-7,18H,1-2H3,(H,15,16,19)
Instrument: Q Exactive Orbitrap (Thermo Scientific)
Instrument type: LC-ESI-QFT
Ms type: MS2
Ion mode: POSITIVE
Ionization: ESI
Fragmentation mode: HCD
Collision energy: 15
Resolution: 17500
Column name: Acquity BEH C18 1.7um, 2.1x150mm (Waters)
Retention time: 16.851 min
Base peak: 79.0211
Precursor m/z: 352.042
Precursor type: [M+H]+
Precursor intensity: 9650909.25
m/z	relative intensity	assigned
115.0324	861	C4H7N2S+
141.0116	237	C5H5N2OS+
184.0539	43	C7H10N3OS+
194.0274	3	C9H8NO2S+
210.0225	1	C9H8NO3S+
334.0316	3	C14H12N3O3S2+
352.0423	999	C14H14N3O4S2+
