Mass spectrum: PharmaGSID_47263; LC-ESI-QFT; MS2; CE: 45; R=17500; [M+H]+
Name: PharmaGSID_47263
Name: 1-Ethyl-5-(4-hydroxyphenyl)-3-methyl-6,7-dihydropyrazolo(4,3-E)(1,4)diazepin-8(1H)-one
Name: 1-ethyl-5-(4-hydroxyphenyl)-3-methyl-6,7-dihydropyrazolo[4,3-e][1,4]diazepin-8-one
Formula: C15H16N4O2
Exact mass: 284.1273
SMILES: CCN1N=C(C)C2=C1C(=O)NCC(=N2)C1=CC=C(O)C=C1
InChI: InChI=1S/C15H16N4O2/c1-3-19-14-13(9(2)18-19)17-12(8-16-15(14)21)10-4-6-11(20)7-5-10/h4-7,20H,3,8H2,1-2H3,(H,16,21)
Instrument: Q Exactive Orbitrap (Thermo Scientific)
Instrument type: LC-ESI-QFT
Ms type: MS2
Ion mode: POSITIVE
Ionization: ESI
Fragmentation mode: HCD
Collision energy: 45
Resolution: 17500
Column name: Acquity BEH C18 1.7um, 2.1x150mm (Waters)
Retention time: 15.033 min
Base peak: 79.0212
Precursor m/z: 285.1346
Precursor type: [M+H]+
Precursor intensity: 6610379.5
m/z	relative intensity	assigned
53.0021	2	C3HO+
56.0495	27	C3H6N+
68.0494	10	C4H6N+
69.0448	2	C3H5N2+
70.0651	2	C4H8N+
79.0178	6	C5H3O+
79.0544	3	C6H7+
80.0495	6	C5H6N+
81.0448	10	C4H5N2+
82.0289	3	C4H4NO+
82.0651	3	C5H8N+
83.0604	14	C4H7N2+
85.076	2	C4H9N2+
91.0541	3	C7H7+
94.0651	3	C6H8N+
95.0491	3	C6H7O+
95.0604	9	C5H7N2+
96.0555	2	C4H6N3+
96.0808	5	C6H10N+
97.076	2	C5H9N2+
105.0448	11	C6H5N2+
106.0652	9	C7H8N+
107.0492	303	C7H7O+
107.0603	32	C6H7N2+
108.0555	4	C5H6N3+
109.0397	40	C5H5N2O+
109.076	9	C6H9N2+
111.0917	138	C6H11N2+
118.0401	4	C6H4N3+
119.0244	2	C6H3N2O+
119.0491	27	C8H7O+
119.0606	4	C7H7N2+
120.0445	46	C7H6NO+
120.0556	49	C6H6N3+
121.0284	106	C7H5O2+
121.0761	12	C7H9N2+
122.0602	37	C7H8NO+
122.0713	90	C6H8N3+
123.0556	1	C6H7N2O+
123.079	5	C6H9N3+
123.0916	11	C7H11N2+
124.087	242	C6H10N3+
125.0713	2	C6H9N2O+
125.0949	4	C6H11N3+
126.1026	80	C6H12N3+
131.0492	4	C9H7O+
131.0606	7	C8H7N2+
132.0445	90	C8H6NO+
133.0399	3	C7H5N2O+
133.0522	50	C8H7NO+
133.0641	3	C7H7N3+
134.0352	2	C6H4N3O+
134.0601	42	C8H8NO+
136.0507	5	C6H6N3O+
136.0757	4	C8H10NO+
136.087	27	C7H10N3+
136.112	5	C9H14N+
137.071	324	C7H9N2O+
146.0603	4	C9H8NO+
146.0715	21	C8H8N3+
147.0557	51	C8H7N2O+
147.0665	113	C7H7N4+
148.0394	72	C8H6NO2+
148.0501	26	C7H6N3O+
148.0869	85	C8H10N3+
149.0584	53	C7H7N3O+
149.0822	40	C7H9N4+
150.0556	12	C8H8NO2+
150.0662	61	C7H8N3O+
151.0503	5	C7H7N2O2+
151.0614	38	C6H7N4O+
152.0454	33	C6H6N3O2+
152.0819	15	C7H10N3O+
156.081	2	C11H10N+
158.06	7	C10H8NO+
159.0676	11	C10H9NO+
160.0393	6	C9H6NO2+
160.0758	39	C10H10NO+
161.0711	6	C9H9N2O+
161.0823	3	C8H9N4+
162.0663	12	C8H8N3O+
163.0614	110	C7H7N4O+
163.0979	13	C8H11N4+
164.082	34	C8H10N3O+
165.0771	3	C7H9N4O+
166.0612	59	C7H8N3O2+
172.0757	25	C11H10NO+
173.0711	28	C10H9N2O+
173.0824	14	C9H9N4+
174.0663	216	C9H8N3O+
174.0782	10	C10H10N2O+
175.0503	188	C9H7N2O2+
176.0693	143	C8H8N4O+
179.0925	9	C8H11N4O+
180.0767	15	C8H10N3O2+
181.072	20	C7H9N4O2+
182.0604	3	C12H8NO+
183.0678	5	C12H9NO+
184.0758	12	C12H10NO+
185.071	7	C11H9N2O+
185.0836	7	C12H11NO+
186.079	3	C11H10N2O+
187.0868	21	C11H11N2O+
188.0822	3	C10H10N3O+
191.0928	999	C9H11N4O+
192.0772	9	C9H10N3O2+
195.0875	6	C8H11N4O2+
197.0711	18	C12H9N2O+
197.1078	7	C13H13N2+
198.0802	4	C12H10N2O+
198.0915	19	C13H12NO+
199.0867	159	C12H11N2O+
200.082	21	C11H10N3O+
200.0944	14	C12H12N2O+
201.1023	78	C12H13N2O+
202.0977	17	C11H12N3O+
203.0812	6	C11H11N2O2+
209.1032	3	C9H13N4O2+
210.0787	3	C13H10N2O+
211.0862	3	C13H11N2O+
212.0814	10	C12H10N3O+
213.0663	2	C12H9N2O2+
213.09	16	C12H11N3O+
213.1022	6	C13H13N2O+
214.0977	29	C12H12N3O+
215.1057	8	C12H13N3O+
215.1176	47	C13H15N2O+
216.1131	20	C12H14N3O+
223.1192	14	C10H15N4O2+
224.0948	2	C14H12N2O+
225.1023	206	C14H13N2O+
228.077	2	C12H10N3O2+
228.1132	12	C13H14N3O+
229.1083	11	C12H13N4O+
230.0924	6	C12H12N3O2+
230.1291	2	C13H16N3O+
239.0925	5	C13H11N4O+
240.0765	24	C13H10N3O2+
240.1134	20	C14H14N3O+
242.1289	316	C14H16N3O+
244.1087	5	C13H14N3O2+
255.0879	2	C13H11N4O2+
256.0956	14	C13H12N4O2+
256.1313	2	C14H16N4O+
257.1034	233	C13H13N4O2+
257.1395	103	C14H17N4O+
267.1241	6	C15H15N4O+
268.109	9	C15H14N3O2+
285.1348	412	C15H17N4O2+
