Mass spectrum: SSR 240612; LC-ESI-QFT; MS2; CE: 45; R=17500; [M-H]-
Name: SSR 240612
Name: Ssr-240612 free base
Name: (2R)-2-[[(3R)-3-(1,3-benzodioxol-5-yl)-3-[(6-methoxynaphthalen-2-yl)sulfonylamino]propanoyl]amino]-3-[4-[[(2S,6R)-2,6-dimethylpiperidin-1-yl]methyl]phenyl]-N-methyl-N-propan-2-ylpropanamide
Formula: C42H52N4O7S
Exact mass: 756.3557
SMILES: COc1ccc2cc(S(=O)(=O)N[C@H](CC(=O)N[C@H](Cc3ccc(CN4[C@@H](C)CCC[C@H]4C)cc3)C(=O)N(C)C(C)C)c3ccc4c(c3)OCO4)ccc2c1
InChI: InChI=1S/C42H52N4O7S/c1-27(2)45(5)42(48)38(20-30-10-12-31(13-11-30)25-46-28(3)8-7-9-29(46)4)43-41(47)24-37(34-16-19-39-40(23-34)53-26-52-39)44-54(49,50)36-18-15-32-21-35(51-6)17-14-33(32)22-36/h10-19,21-23,27-29,37-38,44H,7-9,20,24-26H2,1-6H3,(H,43,47)/t28-,29+,37-,38-/m1/s1
Instrument: Q Exactive Orbitrap (Thermo Scientific)
Instrument type: LC-ESI-QFT
Ms type: MS2
Ion mode: NEGATIVE
Ionization: ESI
Fragmentation mode: HCD
Collision energy: 45
Resolution: 17500
Column name: Acquity BEH C18 1.7um, 2.1x150mm (Waters)
Retention time: 15.691 min
Base peak: 356.1304
Precursor m/z: 755.3484
Precursor type: [M-H]-
Precursor intensity: 2389366.3125
m/z	relative intensity	assigned
58.0298	227	C2H4NO-
63.9624	29	O2S-
96.0091	238	C4H2NO2-
97.0169	137	C4H3NO2-
108.0818	53	C7H10N-
110.0246	10	C5H4NO2-
110.0974	7	C7H12N-
121.0657	15	C8H9O-
127.0551	16	C10H7-
129.0063	5	C4H3NO4-
133.0532	6	C8H7NO-
143.0502	143	C10H7O-
145.0294	7	C9H5O2-
157.0658	232	C11H9O-
158.0373	45	C10H6O2-
173.0606	38	C11H9O2-
201.0563	22	C12H9O3-
201.0794	129	C12H11NO2-
221.0155	23	C10H7NO3S-
221.0276	287	C11H9O3S-
233.0692	54	C12H11NO4-
236.0387	73	C11H10NO3S-
243.1865	8	C16H23N2-
270.1866	54	C18H24NO-
283.1816	4	C18H23N2O-
285.1974	14	C18H25N2O-
313.1922	999	C19H25N2O2-
327.1714	9	C19H23N2O3-
354.0818	5	C19H16NO4S-
