Mass spectrum: Kinetin; LC-ESI-QFT; MS2; CE: 60; R=17500; [M-H]-
Name: Kinetin
Name: N-(furan-2-ylmethyl)-7H-purin-6-amine
Formula: C10H9N5O
Exact mass: 215.0807
SMILES: C(NC1=C2N=CN=C2N=CN1)C1=CC=CO1
InChI: InChI=1S/C10H9N5O/c1-2-7(16-3-1)4-11-9-8-10(13-5-12-8)15-6-14-9/h1-3,5-6H,4H2,(H2,11,12,13,14,15)
Instrument: Q Exactive Orbitrap (Thermo Scientific)
Instrument type: LC-ESI-QFT
Ms type: MS2
Ion mode: NEGATIVE
Ionization: ESI
Fragmentation mode: HCD
Collision energy: 60
Resolution: 17500
Column name: Acquity BEH C18 1.7um, 2.1x150mm (Waters)
Retention time: 11.237 min
Base peak: 214.0735
Precursor m/z: 214.0734
Precursor type: [M-H]-
Precursor intensity: 6124698.457275
m/z	relative intensity	assigned
64.0065	1	C3N2-
65.0145	5	C3HN2-
66.0097	6	C2N3-
69.0346	8	C4H5O-
79.0177	8	C3HN3-
90.0097	6	C4N3-
92.0254	43	C4H2N3-
93.0458	1	C5H5N2-
106.0285	65	C4H2N4-
107.0128	6	C4HN3O-
107.0363	92	C4H3N4-
117.0207	57	C5HN4-
119.0362	5	C5H3N4-
121.0406	5	C6H5N2O-
132.0316	192	C5H2N5-
133.0394	999	C5H3N5-
134.0472	519	C5H4N5-
142.041	22	C8H4N3-
143.0363	4	C7H3N4-
144.0316	15	C6H2N5-
146.0472	12	C6H4N5-
157.0391	1	C7H3N5-
158.0473	8	C7H4N5-
159.0679	2	C8H7N4-
160.0265	6	C6H2N5O-
160.0628	9	C7H6N5-
169.0519	15	C9H5N4-
170.0472	33	C8H4N5-
171.0555	1	C8H5N5-
172.063	4	C8H6N5-
173.0341	2	C7H3N5O-
184.0628	4	C9H6N5-
186.0785	15	C9H8N5-
187.0624	6	C9H7N4O-
195.0555	2	C10H5N5-
196.0629	31	C10H6N5-
198.0553	1	C10H6N4O-
199.0494	1	C9H5N5O-
214.0737	8	C10H8N5O-
