Mass spectrum: Dodecanedioic acid; LC-ESI-QFT; MS2; CE: 45; R=17500; [M-H]-
Name: Dodecanedioic acid
Formula: C12H22O4
Exact mass: 230.1518
SMILES: OC(=O)CCCCCCCCCCC(O)=O
InChI: InChI=1S/C12H22O4/c13-11(14)9-7-5-3-1-2-4-6-8-10-12(15)16/h1-10H2,(H,13,14)(H,15,16)
Instrument: Q Exactive Orbitrap (Thermo Scientific)
Instrument type: LC-ESI-QFT
Ms type: MS2
Ion mode: NEGATIVE
Ionization: ESI
Fragmentation mode: HCD
Collision energy: 45
Resolution: 17500
Column name: Acquity BEH C18 1.7um, 2.1x150mm (Waters)
Retention time: 17.454 min
Base peak: 307.0977
Precursor m/z: 229.1445
Precursor type: [M-H]-
Precursor intensity: 33745037.71289
m/z	relative intensity	assigned
57.0345	16	C3H5O-
69.0346	2	C4H5O-
71.0502	2	C4H7O-
80.0266	1	C5H4O-
83.0503	4	C5H7O-
99.0816	1	C6H11O-
139.1128	15	C9H15O-
165.1285	28	C11H17O-
167.1441	964	C11H19O-
183.1391	1	C11H19O2-
185.1547	23	C11H21O2-
211.1339	999	C12H19O3-
229.1444	326	C12H21O4-
