Mass spectrum: PharmaGSID_48506; LC-ESI-QFT; MS2; CE: 90; R=17500; [M+H]+
Name: PharmaGSID_48506
Name: (2R)-2-(3-chloro-4-methylsulfonylphenyl)-3-cyclopentyl-N-pyrazin-2-ylpropanamide
Formula: C19H22ClN3O3S
Exact mass: 407.1070
SMILES: CS(=O)(=O)C1=CC=C(C=C1Cl)[C@@H](CC1CCCC1)C(=O)NC1=NC=CN=C1
InChI: InChI=1S/C19H22ClN3O3S/c1-27(25,26)17-7-6-14(11-16(17)20)15(10-13-4-2-3-5-13)19(24)23-18-12-21-8-9-22-18/h6-9,11-13,15H,2-5,10H2,1H3,(H,22,23,24)/t15-/m1/s1
Instrument: Q Exactive Orbitrap (Thermo Scientific)
Instrument type: LC-ESI-QFT
Ms type: MS2
Ion mode: POSITIVE
Ionization: ESI
Fragmentation mode: HCD
Collision energy: 90
Resolution: 17500
Column name: Acquity BEH C18 1.7um, 2.1x150mm (Waters)
Retention time: 17.918 min
Base peak: 79.0211
Precursor m/z: 408.1143
Precursor type: [M+H]+
Precursor intensity: 8505405.109375
m/z	relative intensity	assigned
51.0104	2	C3HN+
51.0231	1	C4H3+
52.0182	81	C3H2N+
53.0023	12	C3HO+
53.0386	21	C4H5+
55.0543	19	C4H7+
62.9899	13	CH3OS+
63.0229	1	C5H3+
65.0386	17	C5H5+
67.0542	29	C5H7+
69.0447	104	C3H5N2+
69.0698	42	C5H9+
74.0963	3	C4H12N+
77.0385	37	C6H5+
78.0463	4	C6H6+
78.9848	55	CH3O2S+
79.029	11	C4H3N2+
79.0542	30	C6H7+
80.062	2	C6H8+
81.0699	43	C6H9+
89.0385	23	C7H5+
91.0543	84	C7H7+
93.0699	2	C7H9+
95.0492	49	C6H7O+
95.0855	4	C7H11+
96.0556	999	C4H6N3+
97.0396	601	C4H5N2O+
100.0074	5	C5H5Cl+
102.0463	14	C8H6+
103.0542	105	C8H7+
105.0335	47	C7H5O+
105.0447	19	C6H5N2+
105.0699	10	C8H9+
107.0491	1	C7H7O+
109.0649	4	C7H9O+
111.0552	14	C5H7N2O+
112.0075	10	C6H5Cl+
113.0152	4	C6H6Cl+
115.0542	198	C9H7+
116.0621	10	C9H8+
117.0699	47	C9H9+
119.0492	8	C8H7O+
120.0569	15	C8H8O+
124.0074	10	C7H5Cl+
125.0153	25	C7H6Cl+
127.0308	4	C7H8Cl+
127.0542	14	C10H7+
128.062	374	C10H8+
129.0698	422	C10H9+
131.049	2	C9H7O+
137.0155	6	C8H6Cl+
138.0231	89	C8H7Cl+
139.031	10	C8H8Cl+
141.0102	318	C7H6ClO+
141.0698	91	C11H9+
142.0777	334	C11H10+
143.0856	76	C11H11+
145.0648	64	C10H9O+
149.0153	40	C9H6Cl+
150.023	21	C9H7Cl+
151.031	5	C9H8Cl+
154.0776	2	CH17ClN3OS+
155.0257	14	C8H8ClO+
155.0604	81	C10H7N2+
156.0934	11	C12H12+
159.0805	12	C11H11O+
162.0231	41	C10H7Cl+
163.0309	270	C10H8Cl+
164.0388	38	C10H9Cl+
165.0469	1	C10H10Cl+
169.0759	21	C11H9N2+
169.1012	1	C13H13+
171.1169	19	C13H15+
177.0466	180	C11H10Cl+
178.0543	1	C11H11Cl+
191.0624	2	C12H12Cl+
202.9927	7	C8H8ClO2S+
