Mass spectrum: Octylphosphonic acid; LC-ESI-QFT; MS2; CE: 90; R=17500; [M-H]-
Name: Octylphosphonic acid
Formula: C8H19O3P
Exact mass: 194.1072
SMILES: CCCCCCCCP(O)(O)=O
InChI: InChI=1S/C8H19O3P/c1-2-3-4-5-6-7-8-12(9,10)11/h2-8H2,1H3,(H2,9,10,11)
Instrument: Q Exactive Orbitrap (Thermo Scientific)
Instrument type: LC-ESI-QFT
Ms type: MS2
Ion mode: NEGATIVE
Ionization: ESI
Fragmentation mode: HCD
Collision energy: 90
Resolution: 17500
Column name: Acquity BEH C18 1.7um, 2.1x150mm (Waters)
Retention time: 17.709 min
Base peak: 317.1618
Precursor m/z: 193.0999
Precursor type: [M-H]-
Precursor intensity: 18679071.73145
m/z	relative intensity	assigned
57.0346	19	C3H5O-
59.0139	22	C2H3O2-
62.9641	32	O2P-
65.0033	37	C4HO-
65.0397	37	C5H5-
67.0189	96	C4H3O-
69.0346	4	C4H5O-
77.0396	13	C6H5-
78.9591	999	O3P-
81.0346	160	C5H5O-
83.0503	461	C5H7O-
91.0188	16	C6H3O-
91.0554	50	C7H7-
93.0346	107	C6H5O-
94.0423	5	C6H6O-
95.014	6	C5H3O2-
95.0503	19	C6H7O-
102.0475	2	C8H6-
103.0554	11	C8H7-
104.0268	239	C7H4O-
105.0346	437	C7H5O-
105.071	36	C8H9-
106.0427	2	C7H6O-
107.0503	31	C7H7O-
107.0866	174	C8H11-
108.0217	25	C6H4O2-
109.0295	48	C6H5O2-
109.0659	15	C7H9O-
117.0347	16	C8H5O-
119.0502	33	C8H7O-
120.058	36	C8H8O-
121.0295	464	C7H5O2-
122.0373	120	C7H6O2-
123.0452	7	C7H7O2-
135.0452	577	C8H7O2-
136.0529	436	C8H8O2-
149.0244	200	C8H5O3-
150.032	3	C8H6O3-
175.0895	3	C8H16O2P-
