Mass spectrum: Chloroxuron; LC-ESI-QFT; MS2; CE: 60; R=17500; [M+H]+
Name: Chloroxuron
Name: 3-[4-(4-chlorophenoxy)phenyl]-1,1-dimethylurea
Formula: C15H15ClN2O2
Exact mass: 290.0822
SMILES: CN(C)C(=O)NC1=CC=C(OC2=CC=C(Cl)C=C2)C=C1
InChI: InChI=1S/C15H15ClN2O2/c1-18(2)15(19)17-12-5-9-14(10-6-12)20-13-7-3-11(16)4-8-13/h3-10H,1-2H3,(H,17,19)
Instrument: Q Exactive Orbitrap (Thermo Scientific)
Instrument type: LC-ESI-QFT
Ms type: MS2
Ion mode: POSITIVE
Ionization: ESI
Fragmentation mode: HCD
Collision energy: 60
Resolution: 17500
Column name: Acquity BEH C18 1.7um, 2.1x150mm (Waters)
Retention time: 17.967 min
Base peak: 79.0211
Precursor m/z: 291.0895
Precursor type: [M+H]+
Precursor intensity: 23328990.84375
m/z	relative intensity	assigned
56.0131	8	C2H2NO+
72.0443	999	C3H6NO+
73.0396	1	C2H5N2O+
94.0414	1	C6H6O+
98.9996	1	C5H4Cl+
106.0651	7	C7H8N+
118.0651	18	C8H8N+
119.0731	3	C8H9N+
120.0809	2	C8H10N+
126.9945	3	C6H4ClO+
128.062	5	C10H8+
129.0102	1	C6H6ClO+
139.0058	2	C6H4ClN2+
145.065	1	C10H9O+
147.068	1	C9H9NO+
154.0653	1	C11H8N+
155.0604	2	C10H7N2+
155.0729	1	C11H9N+
163.0308	24	C10H8Cl+
163.0864	3	C9H11N2O+
183.068	2	C12H9NO+
190.0418	5	C11H9ClN+
218.0367	38	C12H9ClNO+
