Mass spectrum: PHA-00568487; LC-ESI-QFT; MS2; CE: 90; R=17500; [M+H]+
Name: PHA-00568487
Name: N-(3R)-1-Azabicyclo(2.2.2)oct-3-yl-2,3-dihydro-1,4-benzodioxin-6-carboxamide
Name: N-[(3R)-1-azabicyclo[2.2.2]octan-3-yl]-2,3-dihydro-1,4-benzodioxine-6-carboxamide
Formula: C16H20N2O3
Exact mass: 288.1474
SMILES: O=C(N[C@H]1CN2CCC1CC2)C1=CC2=C(OCCO2)C=C1
InChI: InChI=1S/C16H20N2O3/c19-16(17-13-10-18-5-3-11(13)4-6-18)12-1-2-14-15(9-12)21-8-7-20-14/h1-2,9,11,13H,3-8,10H2,(H,17,19)/t13-/m0/s1
Instrument: Q Exactive Orbitrap (Thermo Scientific)
Instrument type: LC-ESI-QFT
Ms type: MS2
Ion mode: POSITIVE
Ionization: ESI
Fragmentation mode: HCD
Collision energy: 90
Resolution: 17500
Column name: Acquity BEH C18 1.7um, 2.1x150mm (Waters)
Retention time: 10.712 min
Base peak: 79.0211
Precursor m/z: 289.1547
Precursor type: [M+H]+
Precursor intensity: 19000981.71875
m/z	relative intensity	assigned
51.0231	3	C4H3+
53.0022	20	C3HO+
53.0386	75	C4H5+
53.9974	3	C2NO+
54.0338	53	C3H4N+
55.0542	246	C4H7+
56.0495	160	C3H6N+
63.0229	3	C5H3+
65.0385	59	C5H5+
66.0463	8	C5H6+
67.0416	45	C4H5N+
67.0542	53	C5H7+
68.0494	209	C4H6N+
68.9971	12	C3HO2+
69.0334	10	C4H5O+
69.0573	56	C4H7N+
69.0698	12	C5H9+
70.065	4	C4H8N+
77.0385	17	C6H5+
79.0178	37	C5H3O+
79.0542	535	C6H7+
80.0494	102	C5H6N+
81.0574	44	C5H7N+
81.0699	347	C6H9+
82.0651	601	C5H8N+
83.0491	2	C5H7O+
83.0855	4	C6H11+
84.0808	10	C5H10N+
91.0542	75	C7H7+
93.0573	15	C6H7N+
93.0699	49	C7H9+
94.0651	69	C6H8N+
95.0127	7	C5H3O2+
95.0491	94	C6H7O+
95.0729	100	C6H9N+
96.0807	17	C6H10N+
105.0447	33	C6H5N2+
106.0287	10	C6H4NO+
107.0127	766	C6H3O2+
108.0807	59	C7H10N+
109.0649	2	C7H9O+
110.0964	199	C7H12N+
111.044	12	C6H7O2+
113.023	7	C5H5O3+
118.0286	5	C7H4NO+
125.0233	35	C6H5O3+
128.1069	11	C7H14NO+
135.0438	23	C8H7O2+
136.0392	17	C7H6NO2+
137.0597	64	C8H9O2+
139.0389	9	C7H7O3+
149.0598	13	C9H9O2+
153.0546	174	C8H9O3+
162.0549	90	C9H8NO2+
163.0391	999	C9H7O3+
163.0496	526	C8H7N2O2+
164.0471	4	C9H8O3+
180.065	2	C9H10NO3+
233.1285	2	C13H17N2O2+
