Mass spectrum: Crotamiton; LC-ESI-QFT; MS2; CE: 30; R=17500; [M+H]+
Name: Crotamiton
Name: N-ethyl-N-(2-methylphenyl)but-2-enamide
Formula: C13H17NO
Exact mass: 203.1310
SMILES: CCN(C(=O)C=CC)C1=CC=CC=C1C
InChI: InChI=1S/C13H17NO/c1-4-8-13(15)14(5-2)12-10-7-6-9-11(12)3/h4,6-10H,5H2,1-3H3
Instrument: Q Exactive Orbitrap (Thermo Scientific)
Instrument type: LC-ESI-QFT
Ms type: MS2
Ion mode: POSITIVE
Ionization: ESI
Fragmentation mode: HCD
Collision energy: 30
Resolution: 17500
Column name: Acquity BEH C18 1.7um, 2.1x150mm (Waters)
Retention time: 17.257 min
Base peak: 79.0211
Precursor m/z: 204.1383
Precursor type: [M+H]+
Precursor intensity: 31651199.84375
m/z	relative intensity	assigned
68.0494	9	C4H6N+
69.0334	150	C4H5O+
71.0855	2	C5H11+
91.0539	1	C7H7+
96.0807	39	C6H10N+
97.0648	3	C6H9O+
105.0699	1	C8H9+
106.065	2	C7H8N+
108.0807	5	C7H10N+
134.06	57	C8H8NO+
134.0963	9	C9H12N+
136.1121	83	C9H14N+
158.0963	5	C11H12N+
162.0913	28	C10H12NO+
176.107	5	C11H14NO+
176.1436	1	C12H18N+
186.128	2	C13H16N+
204.1382	999	C13H18NO+
