Mass spectrum: Piperine; LC-ESI-QFT; MS2; CE: 60; R=17500; [M+H]+
Name: Piperine
Name: (2E,4E)-5-(1,3-benzodioxol-5-yl)-1-piperidin-1-ylpenta-2,4-dien-1-one
Formula: C17H19NO3
Exact mass: 285.1365
SMILES: O=C(\C=C\C=C\C1=CC=C2OCOC2=C1)N1CCCCC1
InChI: InChI=1S/C17H19NO3/c19-17(18-10-4-1-5-11-18)7-3-2-6-14-8-9-15-16(12-14)21-13-20-15/h2-3,6-9,12H,1,4-5,10-11,13H2/b6-2+,7-3+
Instrument: Q Exactive Orbitrap (Thermo Scientific)
Instrument type: LC-ESI-QFT
Ms type: MS2
Ion mode: POSITIVE
Ionization: ESI
Fragmentation mode: HCD
Collision energy: 60
Resolution: 17500
Column name: Acquity BEH C18 1.7um, 2.1x150mm (Waters)
Retention time: 17.758 min
Base peak: 79.0211
Precursor m/z: 286.1438
Precursor type: [M+H]+
Precursor intensity: 37952551
m/z	relative intensity	assigned
51.0229	1	C4H3+
53.0022	7	C3HO+
53.0386	1	C4H5+
53.9974	1	C2NO+
55.0178	8	C3H3O+
55.0542	1	C4H7+
56.0495	2	C3H6N+
63.0229	1	C5H3+
65.0384	1	C5H5+
67.0542	7	C5H7+
69.0698	235	C5H9+
70.0287	3	C3H4NO+
70.0651	8	C4H8N+
75.0229	1	C6H3+
77.0385	3	C6H5+
79.0178	1	C5H3O+
79.0542	22	C6H7+
81.0573	9	C5H7N+
82.0651	1	C5H8N+
83.0489	1	C5H7O+
84.0808	60	C5H10N+
86.0964	47	C5H12N+
89.0385	1	C7H5+
91.0543	4	C7H7+
93.07	1	C7H9+
94.0651	1	C6H8N+
95.0491	10	C6H7O+
98.0965	1	C6H12N+
103.0542	26	C8H7+
105.0334	7	C7H5O+
107.049	1	C7H7O+
109.052	3	C6H7NO+
112.0757	66	C6H10NO+
114.0462	1	C9H6+
114.0914	1	C6H12NO+
115.0542	999	C9H7+
117.0698	47	C9H9+
122.0602	1	C7H8NO+
122.0963	9	C8H12N+
127.054	3	C10H7+
129.0697	3	C10H9+
131.0491	11	C9H7O+
133.0649	2	C9H9O+
134.0964	10	C9H12N+
135.044	683	C8H7O2+
136.0755	2	C8H10NO+
143.0491	737	C10H7O+
145.0647	24	C10H9O+
149.0594	1	C9H9O2+
150.0914	12	C9H12NO+
151.0991	54	C9H13NO+
155.049	1	C11H7O+
157.0647	2	C11H9O+
157.101	4	C12H13+
159.044	147	C10H7O2+
161.0595	18	C10H9O2+
171.044	454	C11H7O2+
172.0513	1	C11H8O2+
173.0596	142	C11H9O2+
175.0753	6	C11H11O2+
185.0593	1	C12H9O2+
185.0963	6	C13H13O+
189.0546	7	C11H9O3+
201.0545	755	C12H9O3+
203.0704	1	C12H11O3+
218.1174	3	C13H16NO2+
258.1486	1	C16H20NO2+
286.144	1	C17H20NO3+
