Mass spectrum: (-)-Epigallocatechin gallate; LC-ESI-QFT; MS2; CE: 15; R=17500; [M-H]-
Name: (-)-Epigallocatechin gallate
Name: [(2R,3R)-5,7-dihydroxy-2-(3,4,5-trihydroxyphenyl)-3,4-dihydro-2H-chromen-3-yl] 3,4,5-trihydroxybenzoate
Formula: C22H18O11
Exact mass: 458.0849
SMILES: OC1=CC(O)=C2C[C@@H](OC(=O)C3=CC(O)=C(O)C(O)=C3)[C@H](OC2=C1)C1=CC(O)=C(O)C(O)=C1
InChI: InChI=1S/C22H18O11/c23-10-5-12(24)11-7-18(33-22(31)9-3-15(27)20(30)16(28)4-9)21(32-17(11)6-10)8-1-13(25)19(29)14(26)2-8/h1-6,18,21,23-30H,7H2/t18-,21-/m1/s1
Instrument: Q Exactive Orbitrap (Thermo Scientific)
Instrument type: LC-ESI-QFT
Ms type: MS2
Ion mode: NEGATIVE
Ionization: ESI
Fragmentation mode: HCD
Collision energy: 15
Resolution: 17500
Column name: Acquity BEH C18 1.7um, 2.1x150mm (Waters)
Retention time: 11.181 min
Base peak: 266.1186
Precursor m/z: 457.0776
Precursor type: [M-H]-
Precursor intensity: 1306713.654785
m/z	relative intensity	assigned
125.0244	38	C6H5O3-
137.0243	6	C7H5O3-
161.0243	13	C9H5O3-
169.0143	999	C7H5O5-
193.0142	6	C9H5O5-
205.0142	2	C10H5O5-
269.0463	12	C15H9O5-
287.0565	23	C15H11O6-
305.0668	87	C15H13O7-
331.0461	30	C16H11O8-
