Mass spectrum: Novaluron; LC-ESI-QFT; MS2; CE: 60; R=17500; [M-H]-
Name: Novaluron
Name: N-[[3-chloro-4-[1,1,2-trifluoro-2-(trifluoromethoxy)ethoxy]phenyl]carbamoyl]-2,6-difluorobenzamide
Formula: C17H9ClF8N2O4
Exact mass: 492.0123
SMILES: FC(OC(F)(F)F)C(F)(F)OC1=C(Cl)C=C(NC(=O)NC(=O)C2=C(F)C=CC=C2F)C=C1
InChI: InChI=1S/C17H9ClF8N2O4/c18-8-6-7(4-5-11(8)31-16(22,23)14(21)32-17(24,25)26)27-15(30)28-13(29)12-9(19)2-1-3-10(12)20/h1-6,14H,(H2,27,28,29,30)
Instrument: Q Exactive Orbitrap (Thermo Scientific)
Instrument type: LC-ESI-QFT
Ms type: MS2
Ion mode: NEGATIVE
Ionization: ESI
Fragmentation mode: HCD
Collision energy: 60
Resolution: 17500
Column name: Acquity BEH C18 1.7um, 2.1x150mm (Waters)
Retention time: 18.982 min
Base peak: 183.0582
Precursor m/z: 491.005
Precursor type: [M-H]-
Precursor intensity: 16078976.38281
m/z	relative intensity	assigned
68.9958	30	CF3-
73.0084	4	C6H-
82.9694	3	C4Cl-
84.9907	999	CF3O-
93.0146	130	C6H2F-
113.0209	189	C6H3F2-
132.0091	3	C7H2NO2-
134.0287	2	C7H3FN2-
135.996	1	C7H3ClN-
140.9987	92	C6H4ClNO-
146.9876	1	C3F5O-
150.0234	2	C7H3FN2O-
156.0022	2	C7H4ClFN-
162.9825	17	C3F5O2-
165.9939	63	C7H3ClN2O-
167.9858	17	C7H3ClNO2-
179.0262	3	C8H4FN2O2-
216.0463	3	C4H8F6NO2-
269.0363	1	C6H7F6N2O3-
