Mass spectrum: Carbimazole; LC-ESI-QFT; MS2; CE: 45; R=17500; [M+H]+
Name: Carbimazole
Name: ethyl 3-methyl-2-sulfanylideneimidazole-1-carboxylate
Formula: C7H10N2O2S
Exact mass: 186.0463
SMILES: CCOC(=O)N1C=CN(C)C1=S
InChI: InChI=1S/C7H10N2O2S/c1-3-11-7(10)9-5-4-8(2)6(9)12/h4-5H,3H2,1-2H3
Instrument: Q Exactive Orbitrap (Thermo Scientific)
Instrument type: LC-ESI-QFT
Ms type: MS2
Ion mode: POSITIVE
Ionization: ESI
Fragmentation mode: HCD
Collision energy: 45
Resolution: 17500
Column name: Acquity BEH C18 1.7um, 2.1x150mm (Waters)
Retention time: 11.592 min
Base peak: 79.0211
Precursor m/z: 187.0536
Precursor type: [M+H]+
Precursor intensity: 6447312.375
m/z	relative intensity	assigned
56.0495	8	C3H6N+
57.0573	57	C3H7N+
58.995	1	C2H3S+
61.0106	2	C2H5S+
70.065	1	C4H8N+
71.0603	3	C3H7N2+
74.0059	34	C2H4NS+
79.0213	1	C2H7OS+
82.0526	1	C4H6N2+
83.0604	8	C4H7N2+
84.0807	2	C5H10N+
85.0886	2	C5H11N+
88.0216	73	C3H6NS+
100.0091	2	C3H4N2S+
102.0372	2	C4H8NS+
111.0918	2	C6H11N2+
113.0169	1	C4H5N2S+
114.0246	15	C4H6N2S+
115.0325	999	C4H7N2S+
128.0404	1	C5H8N2S+
141.0482	2	C6H9N2S+
143.0638	101	C6H11N2S+
159.0224	6	C5H7N2O2S+
187.0536	9	C7H11N2O2S+
