Mass spectrum: Nimesulide; LC-ESI-QFT; MS2; CE: 60; R=17500; [M-H]-
Name: Nimesulide
Name: N-(4-nitro-2-phenoxyphenyl)methanesulfonamide
Formula: C13H12N2O5S
Exact mass: 308.0467
SMILES: CS(=O)(=O)NC1=CC=C(C=C1OC1=CC=CC=C1)[N+]([O-])=O
InChI: InChI=1S/C13H12N2O5S/c1-21(18,19)14-12-8-7-10(15(16)17)9-13(12)20-11-5-3-2-4-6-11/h2-9,14H,1H3
Instrument: Q Exactive Orbitrap (Thermo Scientific)
Instrument type: LC-ESI-QFT
Ms type: MS2
Ion mode: NEGATIVE
Ionization: ESI
Fragmentation mode: HCD
Collision energy: 60
Resolution: 17500
Column name: Acquity BEH C18 1.7um, 2.1x150mm (Waters)
Retention time: 16.701 min
Base peak: 429.0536
Precursor m/z: 307.0394
Precursor type: [M-H]-
Precursor intensity: 23943770.48633
m/z	relative intensity	assigned
63.9624	712	O2S-
65.9986	3	C3NO-
66.0349	2	C4H4N-
69.0346	52	C4H5O-
76.0192	26	C5H2N-
78.9859	829	CH3O2S-
80.0142	2	C4H2NO-
91.0189	6	C6H3O-
92.0505	7	C6H6N-
93.0344	13	C6H5O-
94.0298	13	C5H4NO-
95.0138	28	C5H3O2-
96.0216	4	C5H4O2-
97.0295	33	C5H5O2-
111.009	12	C5H3O3-
116.0504	9	C8H6N-
118.0298	10	C7H4NO-
120.0089	8	C6H2NO2-
121.0169	18	C6H3NO2-
122.0247	999	C6H4NO2-
128.0116	7	C5H4O4-
128.0507	7	C9H6N-
130.0659	3	C9H8N-
136.0041	2	C6H2NO3-
136.0404	6	C7H6NO2-
140.0506	5	C10H6N-
142.0661	406	C10H8N-
144.0455	5	C9H6NO-
146.0611	1	C9H8NO-
152.0227	40	C6H4N2O3-
153.0304	5	C6H5N2O3-
153.0585	8	C11H7N-
154.0663	16	C11H8N-
156.0455	6	C10H6NO-
156.058	6	C11H8O-
168.0455	10	C11H6NO-
169.0533	7	C11H7NO-
170.0611	329	C11H8NO-
172.0767	6	C11H10NO-
180.0454	3	C12H6NO-
181.0532	7	C12H7NO-
182.061	18	C12H8NO-
183.0451	2	C12H7O2-
183.0568	1	C11H7N2O-
186.056	21	C11H8NO2-
196.041	2	C12H6NO2-
197.0482	54	C12H7NO2-
198.056	569	C12H8NO2-
199.0638	129	C12H9NO2-
211.0512	13	C12H7N2O2-
227.0462	235	C12H7N2O3-
228.054	76	C12H8N2O3-
229.0617	666	C12H9N2O3-
