Mass spectrum: 4-Hexyloxyaniline; LC-ESI-QFT; MS2; CE: 90; R=17500; [M+H]+
Name: 4-Hexyloxyaniline
Name: 4-hexoxyaniline
Formula: C12H19NO
Exact mass: 193.1467
SMILES: CCCCCCOC1=CC=C(N)C=C1
InChI: InChI=1S/C12H19NO/c1-2-3-4-5-10-14-12-8-6-11(13)7-9-12/h6-9H,2-5,10,13H2,1H3
Instrument: Q Exactive Orbitrap (Thermo Scientific)
Instrument type: LC-ESI-QFT
Ms type: MS2
Ion mode: POSITIVE
Ionization: ESI
Fragmentation mode: HCD
Collision energy: 90
Resolution: 17500
Column name: Acquity BEH C18 1.7um, 2.1x150mm (Waters)
Retention time: 15.896 min
Base peak: 79.0211
Precursor m/z: 194.1539
Precursor type: [M+H]+
Precursor intensity: 19991754.6875
m/z	relative intensity	assigned
53.0022	11	C3HO+
53.0386	1	C4H5+
53.9975	2	C2NO+
55.0179	3	C3H3O+
55.0543	11	C4H7+
57.0699	5	C4H9+
65.0386	999	C5H5+
67.0416	38	C4H5N+
67.0542	17	C5H7+
68.0495	2	C4H6N+
69.0335	1	C4H5O+
79.0179	1	C5H3O+
80.0495	38	C5H6N+
81.0573	32	C5H7N+
82.0651	92	C5H8N+
83.0492	6	C5H7O+
92.0495	219	C6H6N+
93.0336	128	C6H5O+
93.0573	53	C6H7N+
94.0413	3	C6H6O+
95.0492	1	C6H7O+
107.0493	1	C7H7O+
108.0444	11	C6H6NO+
109.0523	112	C6H7NO+
110.0601	351	C6H8NO+
124.0759	3	C7H10NO+
