Mass spectrum: Diphenamid; LC-ESI-QFT; MS2; CE: 75; R=17500; [M+H]+
Name: Diphenamid
Name: N,N-dimethyl-2,2-diphenylacetamide
Formula: C16H17NO
Exact mass: 239.1310
SMILES: CN(C)C(=O)C(C1=CC=CC=C1)C1=CC=CC=C1
InChI: InChI=1S/C16H17NO/c1-17(2)16(18)15(13-9-5-3-6-10-13)14-11-7-4-8-12-14/h3-12,15H,1-2H3
Instrument: Q Exactive Orbitrap (Thermo Scientific)
Instrument type: LC-ESI-QFT
Ms type: MS2
Ion mode: POSITIVE
Ionization: ESI
Fragmentation mode: HCD
Collision energy: 75
Resolution: 17500
Column name: Acquity BEH C18 1.7um, 2.1x150mm (Waters)
Retention time: 16.705 min
Base peak: 79.0211
Precursor m/z: 240.1383
Precursor type: [M+H]+
Precursor intensity: 48783541.71875
m/z	relative intensity	assigned
56.0495	3	C3H6N+
65.0385	1	C5H5+
67.0541	1	C5H7+
72.0444	67	C3H6NO+
79.0542	1	C6H7+
91.0542	97	C7H7+
93.0699	4	C7H9+
94.0651	2	C6H8N+
103.0542	2	C8H7+
104.0495	1	C7H6N+
105.0699	5	C8H9+
115.0543	1	C9H7+
117.0574	1	C8H7N+
118.0651	28	C8H8N+
119.073	17	C8H9N+
128.0623	2	C10H8+
132.081	5	C9H10N+
133.0888	1	C9H11N+
134.0964	999	C9H12N+
141.0698	3	C11H9+
147.0679	1	C9H9NO+
152.062	116	C12H8+
160.0758	2	C10H10NO+
162.0917	1	C10H12NO+
165.0699	105	C13H9+
166.0777	36	C13H10+
167.0855	153	C13H11+
169.0648	5	C12H9O+
