Mass spectrum: Gemfibrozil; LC-ESI-QFT; MS2; CE: 90; R=17500; [M-H]-
Name: Gemfibrozil
Formula: C15H22O3
Exact mass: 250.1569
SMILES: CC1=CC(OCCCC(C)(C)C(O)=O)=C(C)C=C1
InChI: InChI=1S/C15H22O3/c1-11-6-7-12(2)13(10-11)18-9-5-8-15(3,4)14(16)17/h6-7,10H,5,8-9H2,1-4H3,(H,16,17)
Instrument: Q Exactive Orbitrap (Thermo Scientific)
Instrument type: LC-ESI-QFT
Ms type: MS2
Ion mode: NEGATIVE
Ionization: ESI
Fragmentation mode: HCD
Collision energy: 90
Resolution: 17500
Column name: Acquity BEH C18 1.7um, 2.1x150mm (Waters)
Retention time: 19.739 min
Base peak: 249.1496
Precursor m/z: 249.1496
Precursor type: [M-H]-
Precursor intensity: 94120691.71484
m/z	relative intensity	assigned
53.0032	6	C3HO-
65.0033	7	C4HO-
65.0397	26	C5H5-
66.0111	2	C4H2O-
67.0189	7	C4H3O-
68.9982	26	C3HO2-
69.0346	26	C4H5O-
70.006	13	C3H2O2-
71.0139	17	C3H3O2-
72.9931	12	C2HO3-
78.0111	3	C5H2O-
79.019	22	C5H3O-
79.9905	11	C4O2-
80.9982	8	C4HO2-
82.006	61	C4H2O2-
83.0138	3	C4H3O2-
83.0502	3	C5H7O-
86.001	4	C3H2O3-
91.019	199	C6H3O-
92.0268	281	C6H4O-
93.0346	999	C6H5O-
95.0138	912	C5H3O2-
97.0295	13	C5H5O2-
98.0009	3	C4H2O3-
106.006	54	C6H2O2-
107.014	6	C6H3O2-
108.0217	868	C6H4O2-
109.0293	3	C6H5O2-
111.0814	4	C7H11O-
119.0138	4	C7H3O2-
121.0295	80	C7H5O2-
123.0088	111	C6H3O3-
125.0973	10	C8H13O-
127.1129	66	C8H15O-
136.0165	20	C7H4O3-
137.0242	7	C7H5O3-
149.0245	3	C8H5O3-
