Mass spectrum: Cyanazine; LC-ESI-QFT; MS2; CE: 30; R=17500; [M+H]+
Name: Cyanazine
Name: 2-[[4-chloro-6-(ethylamino)-1,3,5-triazin-2-yl]amino]-2-methylpropanenitrile
Formula: C9H13ClN6
Exact mass: 240.0890
SMILES: CCNC1=NC(NC(C)(C)C#N)=NC(Cl)=N1
InChI: InChI=1S/C9H13ClN6/c1-4-12-7-13-6(10)14-8(15-7)16-9(2,3)5-11/h4H2,1-3H3,(H2,12,13,14,15,16)
Instrument: Q Exactive Orbitrap (Thermo Scientific)
Instrument type: LC-ESI-QFT
Ms type: MS2
Ion mode: POSITIVE
Ionization: ESI
Fragmentation mode: HCD
Collision energy: 30
Resolution: 17500
Column name: Acquity BEH C18 1.7um, 2.1x150mm (Waters)
Retention time: 14.799 min
Base peak: 79.0211
Precursor m/z: 241.0963
Precursor type: [M+H]+
Precursor intensity: 5604539.1875
m/z	relative intensity	assigned
68.0244	2	C2H2N3+
71.0605	3	C3H7N2+
79.0057	2	CH4ClN2+
83.0605	1	C4H7N2+
90.0106	2	C3H5ClN+
96.0556	26	C4H6N3+
104.0009	12	C2H3ClN3+
110.0713	4	C5H8N3+
119.0371	2	C4H8ClN2+
132.0323	6	C4H7ClN3+
136.0869	2	C7H10N3+
138.0776	1	C5H8N5+
146.0228	2	C3H5ClN5+
163.0977	30	C8H11N4+
171.0431	6	C6H8ClN4+
173.059	2	C6H10ClN4+
174.0541	43	C5H9ClN5+
177.0884	3	C7H9N6+
178.1084	4	C8H12N5+
180.1243	1	C8H14N5+
186.054	3	C6H9ClN5+
205.1196	86	C9H13N6+
213.0649	2	C7H10ClN6+
214.0853	972	C8H13ClN5+
241.0961	999	C9H14ClN6+
