Mass spectrum: Norflurazon; LC-ESI-QFT; MS2; CE: 75; R=17500; [M-H]-
Name: Norflurazon
Name: 4-chloro-5-(methylamino)-2-[3-(trifluoromethyl)phenyl]pyridazin-3-one
Formula: C12H9ClF3N3O
Exact mass: 303.0386
SMILES: CNC1=C(Cl)C(=O)N(N=C1)C1=CC=CC(=C1)C(F)(F)F
InChI: InChI=1S/C12H9ClF3N3O/c1-17-9-6-18-19(11(20)10(9)13)8-4-2-3-7(5-8)12(14,15)16/h2-6,17H,1H3
Instrument: Q Exactive Orbitrap (Thermo Scientific)
Instrument type: LC-ESI-QFT
Ms type: MS2
Ion mode: NEGATIVE
Ionization: ESI
Fragmentation mode: HCD
Collision energy: 75
Resolution: 17500
Column name: Acquity BEH C18 1.7um, 2.1x150mm (Waters)
Retention time: 16.609 min
Base peak: 179.0714
Precursor m/z: 302.0313
Precursor type: [M-H]-
Precursor intensity: 8013124.961914
m/z	relative intensity	assigned
50.0036	55	C3N-
52.0192	107	C3H2N-
60.9725	36	CClN-
64.0067	242	C3N2-
65.0145	328	C3HN2-
65.9985	96	C3NO-
70.9695	23	C3Cl-
72.9726	33	C2ClN-
73.9803	372	C2HClN-
74.9643	292	C2ClO-
79.0303	34	C4H3N2-
80.0016	11	C3N2O-
87.996	417	C3H3ClN-
100.9911	20	C3H2ClN2-
101.9753	13	C3HClNO-
120.0255	49	C7H3FN-
122.0038	33	C9N-
138.0164	14	C7H2F2N-
142.01	28	C9HFN-
145.0209	211	C8H2FN2-
145.0273	91	C7H4F3-
149.0147	55	C10HN2-
157.9804	133	C9HClN-
158.0224	29	C7H3F3N-
160.038	881	C7H5F3N-
161.0209	14	C10H3F2-
162.0161	29	C9H2F2N-
165.0272	26	C8H3F2N2-
169.0209	77	C10H2FN2-
177.9866	999	C9H2ClFN-
182.0222	17	C9H3F3N-
185.0332	398	C8H4F3N2-
195.9972	171	C9H4ClFNO-
197.9929	129	C9H3ClF2N-
204.0141	60	C10H2F2N2O-
209.0334	33	C10H4F3N2-
216.0037	36	C9H5ClF2NO-
217.9989	192	C9H4ClF3N-
224.0203	120	C10H3F3N2O-
230.9948	26	C9H3ClF3N2-
252.0392	11	C11H5F3N3O-
