Mass spectrum: Diphenylacetonitrile; LC-ESI-QFT; MS2; CE: 75; R=17500; [M+H]+
Name: Diphenylacetonitrile
Name: 2,2-diphenylacetonitrile
Formula: C14H11N
Exact mass: 193.0891
SMILES: N#CC(C1=CC=CC=C1)C1=CC=CC=C1
InChI: InChI=1S/C14H11N/c15-11-14(12-7-3-1-4-8-12)13-9-5-2-6-10-13/h1-10,14H
Instrument: Q Exactive Orbitrap (Thermo Scientific)
Instrument type: LC-ESI-QFT
Ms type: MS2
Ion mode: POSITIVE
Ionization: ESI
Fragmentation mode: HCD
Collision energy: 75
Resolution: 17500
Column name: Acquity BEH C18 1.7um, 2.1x150mm (Waters)
Retention time: 15.768 min
Base peak: 79.0211
Precursor m/z: 194.0964
Precursor type: [M+H]+
Precursor intensity: 1659389.625
m/z	relative intensity	assigned
65.0386	2	C5H5+
89.0385	3	C7H5+
90.0465	1	C7H6+
91.0542	11	C7H7+
116.0496	11	C8H6N+
117.0574	11	C8H7N+
128.0494	2	C9H6N+
128.062	2	C10H8+
152.0621	16	C12H8+
165.07	21	C13H9+
166.0657	2	C12H8N+
166.0785	7	C13H10+
167.0732	25	C12H9N+
167.0855	33	C13H11+
168.0807	3	C12H10N+
176.0623	8	C14H8+
177.0579	1	C13H7N+
177.07	21	C14H9+
178.0653	11	C13H8N+
178.0779	10	C14H10+
179.073	211	C13H9N+
191.0731	4	C14H9N+
192.0809	38	C14H10N+
193.0888	398	C14H11N+
194.0965	999	C14H12N+
