Mass spectrum: Hexylparaben; LC-ESI-QFT; MS2; CE: 15; R=17500; [M-H]-
Name: Hexylparaben
Name: hexyl 4-hydroxybenzoate
Formula: C13H18O3
Exact mass: 222.1256
SMILES: CCCCCCOC(=O)C1=CC=C(O)C=C1
InChI: InChI=1S/C13H18O3/c1-2-3-4-5-10-16-13(15)11-6-8-12(14)9-7-11/h6-9,14H,2-5,10H2,1H3
Instrument: Q Exactive Orbitrap (Thermo Scientific)
Instrument type: LC-ESI-QFT
Ms type: MS2
Ion mode: NEGATIVE
Ionization: ESI
Fragmentation mode: HCD
Collision energy: 15
Resolution: 17500
Column name: Acquity BEH C18 1.7um, 2.1x150mm (Waters)
Retention time: 18.967 min
Base peak: 221.1183
Precursor m/z: 221.1183
Precursor type: [M-H]-
Precursor intensity: 75691711.20801
m/z	relative intensity	assigned
92.0269	7	C6H4O-
93.0346	18	C6H5O-
95.0139	2	C5H3O2-
108.0217	2	C6H4O2-
120.022	1	C7H4O2-
136.0166	64	C7H4O3-
137.0244	80	C7H5O3-
177.1286	1	C12H17O-
221.1183	999	C13H17O3-
