Mass spectrum: Trifloxystrobin; LC-ESI-QFT; MS2; CE: 75; R=17500; [M+H]+
Name: Trifloxystrobin
Name: methyl 2-methoxyimino-2-[2-[[1-[3-(trifluoromethyl)phenyl]ethylideneamino]oxymethyl]phenyl]acetate
Formula: C20H19F3N2O4
Exact mass: 408.1297
SMILES: CON=C(C(=O)OC)C1=CC=CC=C1CON=C(C)C1=CC(=CC=C1)C(F)(F)F
InChI: InChI=1S/C20H19F3N2O4/c1-13(14-8-6-9-16(11-14)20(21,22)23)24-29-12-15-7-4-5-10-17(15)18(25-28-3)19(26)27-2/h4-11H,12H2,1-3H3
Instrument: Q Exactive Orbitrap (Thermo Scientific)
Instrument type: LC-ESI-QFT
Ms type: MS2
Ion mode: POSITIVE
Ionization: ESI
Fragmentation mode: HCD
Collision energy: 75
Resolution: 17500
Column name: Acquity BEH C18 1.7um, 2.1x150mm (Waters)
Retention time: 18.993 min
Base peak: 79.0211
Precursor m/z: 409.137
Precursor type: [M+H]+
Precursor intensity: 21400921.75
m/z	relative intensity	assigned
53.0387	2	C4H5+
55.0178	1	C3H3O+
63.0228	6	C5H3+
65.0385	12	C5H5+
66.0464	12	C5H6+
68.0256	1	C4H4O+
71.0291	3	C4H4F+
75.004	2	C3HF2+
75.0229	6	C6H3+
77.0385	1	C6H5+
78.0464	4	C6H6+
79.0542	10	C6H7+
81.0335	1	C5H5O+
89.0386	124	C7H5+
90.0339	3	C6H4N+
90.0464	28	C7H6+
91.0418	7	C6H5N+
91.0542	113	C7H7+
92.0257	1	C6H4O+
92.0621	1	C7H8+
94.0412	2	C6H6O+
95.0103	1	C3H2F3+
95.0291	3	C6H4F+
95.0492	10	C6H7O+
99.024	1	C5H4FO+
101.0196	3	C5H3F2+
103.0542	13	C8H7+
104.0494	8	C7H6N+
104.062	9	C8H8+
105.0335	2	C7H5O+
105.0447	3	C6H5N2+
105.0573	2	C7H7N+
105.0699	11	C8H9+
109.0449	3	C7H6F+
109.0648	5	C7H9O+
113.0397	24	C6H6FO+
114.0339	1	C8H4N+
115.0351	1	C6H5F2+
115.0417	11	C8H5N+
115.0542	4	C9H7+
116.0495	166	C8H6N+
117.0573	99	C8H7N+
118.0413	4	C8H6O+
118.0651	73	C8H8N+
119.0104	2	C5H2F3+
119.0491	13	C8H7O+
119.0605	2	C7H7N2+
123.0353	29	C6H4FN2+
125.0197	20	C7H3F2+
128.0494	3	C9H6N+
130.0652	105	C9H8N+
131.073	118	C9H9N+
132.0444	50	C8H6NO+
132.0807	16	C9H10N+
133.0522	7	C8H7NO+
134.06	26	C8H8NO+
143.0303	6	C7H5F2O+
143.0366	2	C9H5NO+
144.0442	2	C9H6NO+
145.0259	999	C7H4F3+
146.0599	34	C9H8NO+
147.0679	7	C9H9NO+
148.0757	10	C9H10NO+
159.0416	2	C8H6F3+
161.0472	22	C9H7NO2+
163.0365	10	C7H6F3O+
166.046	1	C9H6F2N+
171.0365	1	C7H5F2N2O+
173.0321	57	C7H4F3N2+
186.0526	66	C9H7F3N+
