Mass spectrum: Gemfibrozil; LC-ESI-QFT; MS2; CE: 75; R=17500; [M-H]-
Name: Gemfibrozil
Formula: C15H22O3
Exact mass: 250.1569
SMILES: CC1=CC(OCCCC(C)(C)C(O)=O)=C(C)C=C1
InChI: InChI=1S/C15H22O3/c1-11-6-7-12(2)13(10-11)18-9-5-8-15(3,4)14(16)17/h6-7,10H,5,8-9H2,1-4H3,(H,16,17)
Instrument: Q Exactive Orbitrap (Thermo Scientific)
Instrument type: LC-ESI-QFT
Ms type: MS2
Ion mode: NEGATIVE
Ionization: ESI
Fragmentation mode: HCD
Collision energy: 75
Resolution: 17500
Column name: Acquity BEH C18 1.7um, 2.1x150mm (Waters)
Retention time: 19.739 min
Base peak: 249.1496
Precursor m/z: 249.1496
Precursor type: [M-H]-
Precursor intensity: 83405587.04297
m/z	relative intensity	assigned
53.0033	4	C3HO-
65.0033	6	C4HO-
65.0397	9	C5H5-
66.0113	2	C4H2O-
67.019	8	C4H3O-
68.9982	29	C3HO2-
69.0346	22	C4H5O-
70.006	10	C3H2O2-
71.0139	16	C3H3O2-
72.9932	10	C2HO3-
78.0111	2	C5H2O-
79.019	16	C5H3O-
79.9904	6	C4O2-
80.9982	7	C4HO2-
82.006	63	C4H2O2-
83.0503	3	C5H7O-
86.0009	4	C3H2O3-
91.019	208	C6H3O-
92.0268	296	C6H4O-
93.0346	999	C6H5O-
95.0139	955	C5H3O2-
97.0295	11	C5H5O2-
98.001	4	C4H2O3-
106.006	50	C6H2O2-
107.0138	7	C6H3O2-
108.0217	892	C6H4O2-
109.0291	3	C6H5O2-
111.0813	2	C7H11O-
119.0139	13	C7H3O2-
120.0214	2	C7H4O2-
121.0295	102	C7H5O2-
123.0088	121	C6H3O3-
125.0972	8	C8H13O-
127.1128	141	C8H15O-
136.0166	90	C7H4O3-
137.0245	38	C7H5O3-
149.0243	7	C8H5O3-
