Mass spectrum: Chlorbromuron; LC-ESI-QFT; MS2; CE: 60; R=17500; [M+H]+
Name: Chlorbromuron
Name: 3-(4-bromo-3-chlorophenyl)-1-methoxy-1-methylurea
Formula: C9H10BrClN2O2
Exact mass: 291.9614
SMILES: CON(C)C(=O)NC1=CC(Cl)=C(Br)C=C1
InChI: InChI=1S/C9H10BrClN2O2/c1-13(15-2)9(14)12-6-3-4-7(10)8(11)5-6/h3-5H,1-2H3,(H,12,14)
Instrument: Q Exactive Orbitrap (Thermo Scientific)
Instrument type: LC-ESI-QFT
Ms type: MS2
Ion mode: POSITIVE
Ionization: ESI
Fragmentation mode: HCD
Collision energy: 60
Resolution: 17500
Column name: Acquity BEH C18 1.7um, 2.1x150mm (Waters)
Retention time: 17.663 min
Base peak: 79.0211
Precursor m/z: 292.9687
Precursor type: [M+H]+
Precursor intensity: 946082.78125
m/z	relative intensity	assigned
60.0444	184	C2H6NO+
62.0599	81	C2H8NO+
125.0027	999	C6H4ClN+
126.0103	34	C6H5ClN+
142.0054	22	C6H5ClNO+
144.021	28	C6H7ClNO+
153.0215	466	C7H6ClN2+
157.0288	23	C7H8ClNO+
165.0215	58	C8H6ClN2+
168.9522	324	C6H4BrN+
176.9102	289	C5H3BrCl+
181.0164	299	C8H6ClN2O+
182.0241	318	C8H7ClN2O+
196.9707	25	C7H6BrN2+
203.9211	865	C6H4BrClN+
204.9289	572	C6H5BrClN+
260.9425	84	C8H7BrClN2O+
