Mass spectrum: Metconazole; LC-ESI-QFT; MS2; CE: 30; R=17500; [M+H]+
Name: Metconazole
Name: 5-[(4-chlorophenyl)methyl]-2,2-dimethyl-1-(1,2,4-triazol-1-ylmethyl)cyclopentan-1-ol
Formula: C17H22ClN3O
Exact mass: 319.1451
SMILES: CC1(C)CCC(CC2=CC=C(Cl)C=C2)C1(O)CN1C=NC=N1
InChI: InChI=1S/C17H22ClN3O/c1-16(2)8-7-14(9-13-3-5-15(18)6-4-13)17(16,22)10-21-12-19-11-20-21/h3-6,11-12,14,22H,7-10H2,1-2H3
Instrument: Q Exactive Orbitrap (Thermo Scientific)
Instrument type: LC-ESI-QFT
Ms type: MS2
Ion mode: POSITIVE
Ionization: ESI
Fragmentation mode: HCD
Collision energy: 30
Resolution: 17500
Column name: Acquity BEH C18 1.7um, 2.1x150mm (Waters)
Retention time: 18.878 min
Base peak: 79.0211
Precursor m/z: 320.1524
Precursor type: [M+H]+
Precursor intensity: 23432931.4375
m/z	relative intensity	assigned
59.0491	1	C3H7O+
69.0698	1	C5H9+
70.0399	999	C2H4N3+
81.0698	1	C6H9+
95.0854	8	C7H11+
107.0854	2	C8H11+
109.1012	1	C8H13+
125.0152	18	C7H6Cl+
139.0308	3	C8H8Cl+
151.0308	1	C9H8Cl+
163.0307	3	C10H8Cl+
177.0464	12	C11H10Cl+
191.0618	2	C12H12Cl+
233.109	11	C15H18Cl+
320.1523	306	C17H23ClN3O+
