Mass spectrum: Clothianidin; LC-ESI-QFT; MS2; CE: 60; R=17500; [M+H]+
Name: Clothianidin
Name: 1-[(2-chloro-1,3-thiazol-5-yl)methyl]-2-methyl-3-nitroguanidine
Formula: C6H8ClN5O2S
Exact mass: 249.0087
SMILES: CN\C(NCC1=CN=C(Cl)S1)=N/[N+]([O-])=O
InChI: InChI=1S/C6H8ClN5O2S/c1-8-6(11-12(13)14)10-3-4-2-9-5(7)15-4/h2H,3H2,1H3,(H2,8,10,11)
Instrument: Q Exactive Orbitrap (Thermo Scientific)
Instrument type: LC-ESI-QFT
Ms type: MS2
Ion mode: POSITIVE
Ionization: ESI
Fragmentation mode: HCD
Collision energy: 60
Resolution: 17500
Column name: Acquity BEH C18 1.7um, 2.1x150mm (Waters)
Retention time: 12.566 min
Base peak: 79.0211
Precursor m/z: 250.016
Precursor type: [M+H]+
Precursor intensity: 1607410.375
m/z	relative intensity	assigned
57.0447	52	C2H5N2+
61.0106	39	C2H5S+
70.995	89	C3H3S+
78.9404	29	CClS+
86.0058	51	C3H4NS+
110.0714	482	C5H8N3+
111.0791	230	C5H9N3+
113.0168	618	C4H5N2S+
131.967	999	C4H3ClNS+
132.9746	20	C4H4ClNS+
142.0433	52	C5H8N3S+
146.9779	56	C4H4ClN2S+
147.9859	32	C4H5ClN2S+
153.0229	25	C5H5N4S+
168.0465	27	C6H8N4S+
169.0545	329	C6H9N4S+
174.9727	36	C5H4ClN2OS+
