Mass spectrum: Pargyline; LC-ESI-QFT; MS2; CE: 15; R=17500; [M+H]+
Name: Pargyline
Name: N-benzyl-N-methylprop-2-yn-1-amine
Formula: C11H13N
Exact mass: 159.1048
SMILES: CN(CC#C)CC1=CC=CC=C1
InChI: InChI=1S/C11H13N/c1-3-9-12(2)10-11-7-5-4-6-8-11/h1,4-8H,9-10H2,2H3
Instrument: Q Exactive Orbitrap (Thermo Scientific)
Instrument type: LC-ESI-QFT
Ms type: MS2
Ion mode: POSITIVE
Ionization: ESI
Fragmentation mode: HCD
Collision energy: 15
Resolution: 17500
Column name: Acquity BEH C18 1.7um, 2.1x150mm (Waters)
Retention time: 8.888 min
Base peak: 79.0211
Precursor m/z: 160.1121
Precursor type: [M+H]+
Precursor intensity: 3457370.03125
m/z	relative intensity	assigned
56.0495	27	C3H6N+
68.0494	24	C4H6N+
82.0652	3	C5H8N+
91.0543	999	C7H7+
117.0697	3	C9H9+
128.0621	3	C10H8+
129.0699	79	C10H9+
131.0857	21	C10H11+
143.0853	3	C11H11+
145.0885	10	C10H11N+
160.1121	360	C11H14N+
