Mass spectrum: CP-728663; LC-ESI-QFT; MS2; CE: 90; R=17500; [M+H]+
Name: CP-728663
Name: (1aR,7bS)-5-[[[(2S,3S,6S)-6-ethyl-2-phenylpiperidin-3-yl]amino]methyl]-6-methoxy-3-methyl-1a,7b-dihydro-1H-cyclopropa[c]quinolin-2-one
Formula: C26H33N3O2
Exact mass: 419.2573
SMILES: CC[C@H]1CC[C@H](NCC2=CC3=C(C=C2OC)[C@H]2C[C@H]2C(=O)N3C)[C@@H](N1)C1=CC=CC=C1
InChI: InChI=1S/C26H33N3O2/c1-4-18-10-11-22(25(28-18)16-8-6-5-7-9-16)27-15-17-12-23-20(14-24(17)31-3)19-13-21(19)26(30)29(23)2/h5-9,12,14,18-19,21-22,25,27-28H,4,10-11,13,15H2,1-3H3/t18-,19+,21+,22-,25-/m0/s1
Instrument: Q Exactive Orbitrap (Thermo Scientific)
Instrument type: LC-ESI-QFT
Ms type: MS2
Ion mode: POSITIVE
Ionization: ESI
Fragmentation mode: HCD
Collision energy: 90
Resolution: 17500
Column name: Acquity BEH C18 1.7um, 2.1x150mm (Waters)
Retention time: 11.327 min
Base peak: 79.0211
Precursor m/z: 420.2646
Precursor type: [M+H]+
Precursor intensity: 25174143
m/z	relative intensity	assigned
51.0228	1	C4H3+
53.0022	6	C3HO+
53.0385	16	C4H5+
54.0338	4	C3H4N+
55.0542	90	C4H7+
56.0495	17	C3H6N+
58.0287	5	C2H4NO+
58.0651	16	C3H8N+
63.0229	4	C5H3+
65.0385	42	C5H5+
67.0416	4	C4H5N+
67.0541	6	C5H7+
68.0494	14	C4H6N+
69.0698	16	C5H9+
77.0384	9	C6H5+
79.0542	22	C6H7+
80.0494	15	C5H6N+
81.0573	2	C5H7N+
82.0651	90	C5H8N+
84.0807	4	C5H10N+
89.0385	5	C7H5+
91.0542	724	C7H7+
92.0493	7	C6H6N+
92.062	17	C7H8+
93.0573	11	C6H7N+
93.07	8	C7H9+
94.0653	3	C6H8N+
95.0491	33	C6H7O+
95.073	1	C6H9N+
96.0444	2	C5H6NO+
96.0806	14	C6H10N+
97.0886	11	C6H11N+
102.0464	13	C8H6+
103.0542	113	C8H7+
104.0494	23	C7H6N+
105.0446	16	C6H5N2+
105.0698	40	C8H9+
106.0651	13	C7H8N+
107.0491	6	C7H7O+
110.0601	3	C6H8NO+
115.0542	537	C9H7+
116.0494	16	C8H6N+
116.062	131	C9H8+
117.0573	142	C8H7N+
117.0698	221	C9H9+
118.065	61	C8H8N+
119.0729	49	C8H9N+
119.0854	11	C9H11+
120.0807	33	C8H10N+
127.0541	22	C10H7+
128.0499	19	C9H6N+
128.062	188	C10H8+
129.0698	129	C10H9+
130.0651	224	C9H8N+
131.0491	16	C9H7O+
131.0729	242	C9H9N+
131.0851	28	C10H11+
132.0445	7	C8H6NO+
132.0807	67	C9H10N+
133.0647	3	C9H9O+
134.0963	27	C9H12N+
140.0494	22	C10H6N+
141.0698	72	C11H9+
142.0651	233	C10H8N+
143.0729	923	C10H9N+
144.0807	768	C10H10N+
145.0647	71	C10H9O+
145.0885	268	C10H11N+
146.0599	18	C9H8NO+
146.0963	49	C10H12N+
147.0679	2	C9H9NO+
147.0805	1	C10H11O+
148.0756	4	C9H10NO+
153.0573	62	C11H7N+
154.065	16	C11H8N+
155.049	3	C11H7O+
155.0604	40	C10H7N2+
155.0724	8	C11H9N+
156.0808	117	C11H10N+
157.0886	487	C11H11N+
158.0963	999	C11H12N+
159.068	9	C10H9NO+
159.0806	4	C11H11O+
159.104	5	C11H13N+
160.0755	37	C10H10NO+
160.112	43	C11H14N+
162.0915	8	C10H12NO+
166.065	22	C12H8N+
167.0729	137	C12H9N+
168.0807	31	C12H10N+
169.0647	6	C12H9O+
169.0767	1	C11H9N2+
170.0599	82	C11H8NO+
171.0677	48	C11H9NO+
172.0756	38	C11H10NO+
172.0864	5	C10H10N3+
173.0835	79	C11H11NO+
174.0912	26	C11H12NO+
183.068	2	C12H9NO+
184.0754	11	C12H10NO+
185.0833	17	C12H11NO+
186.0912	164	C12H12NO+
187.099	2	C12H13NO+
188.1069	4	C12H14NO+
188.1432	8	C13H18N+
200.0702	2	C12H10NO2+
201.0782	2	C12H11NO2+
214.0861	3	C13H12NO2+
