Mass spectrum: Farglitazar; LC-ESI-QFT; MS2; CE: 30; R=17500; [M-H]-
Name: Farglitazar
Name: (2S)-2-(2-benzoylanilino)-3-[4-[2-(5-methyl-2-phenyl-1,3-oxazol-4-yl)ethoxy]phenyl]propanoic acid
Formula: C34H30N2O5
Exact mass: 546.2155
SMILES: CC1=C(CCOC2=CC=C(C[C@H](NC3=C(C=CC=C3)C(=O)C3=CC=CC=C3)C(O)=O)C=C2)N=C(O1)C1=CC=CC=C1
InChI: InChI=1S/C34H30N2O5/c1-23-29(36-33(41-23)26-12-6-3-7-13-26)20-21-40-27-18-16-24(17-19-27)22-31(34(38)39)35-30-15-9-8-14-28(30)32(37)25-10-4-2-5-11-25/h2-19,31,35H,20-22H2,1H3,(H,38,39)/t31-/m0/s1
Instrument: Q Exactive Orbitrap (Thermo Scientific)
Instrument type: LC-ESI-QFT
Ms type: MS2
Ion mode: NEGATIVE
Ionization: ESI
Fragmentation mode: HCD
Collision energy: 30
Resolution: 17500
Column name: Acquity BEH C18 1.7um, 2.1x150mm (Waters)
Retention time: 20.138 min
Base peak: 112.9856
Precursor m/z: 545.2082
Precursor type: [M-H]-
Precursor intensity: 5699883.472168
m/z	relative intensity	assigned
92.0506	309	C6H6N-
93.0346	211	C6H5O-
102.035	93	C7H4N-
106.0424	954	C7H6O-
107.0503	966	C7H7O-
108.0217	311	C6H4O2-
117.0344	6	C8H5O-
119.0502	168	C8H7O-
120.0455	26	C7H6NO-
131.0377	450	C8H5NO-
133.0659	15	C9H9O-
134.0374	125	C8H6O2-
138.0323	158	C7H6O3-
144.0455	154	C9H6NO-
157.0534	5	C10H7NO-
160.0768	99	C10H10NO-
168.082	10	C12H10N-
171.0817	13	C12H11O-
172.0767	27	C11H10NO-
184.0767	13	C12H10NO-
186.0925	54	C12H12NO-
192.0821	71	C14H10N-
194.0609	45	C13H8NO-
195.0816	47	C14H11O-
196.0768	358	C13H10NO-
204.0819	18	C15H10N-
207.0689	41	C14H9NO-
208.0768	978	C14H10NO-
209.0845	199	C14H11NO-
210.069	12	C14H10O2-
210.0926	100	C14H12NO-
220.0764	13	C15H10NO-
222.0686	13	C15H10O2-
223.0765	54	C15H11O2-
225.0796	10	C14H11NO2-
237.0799	42	C15H11NO2-
238.0875	64	C15H12NO2-
240.0669	16	C14H10NO3-
292.1345	999	C19H18NO2-
296.1079	38	C21H14NO-
297.1159	128	C21H15NO-
298.1237	142	C21H16NO-
313.1113	16	C21H15NO2-
315.1267	479	C21H17NO2-
316.1343	361	C21H18NO2-
320.1289	13	C20H18NO3-
423.1714	46	C27H23N2O3-
483.2078	579	C33H27N2O2-
501.2191	89	C33H29N2O3-
