Mass spectrum: Acetohexamide; LC-ESI-QFT; MS2; CE: 75; R=17500; [M-H]-
Name: Acetohexamide
Name: 1-(4-acetylphenyl)sulfonyl-3-cyclohexylurea
Formula: C15H20N2O4S
Exact mass: 324.1144
SMILES: CC(=O)C1=CC=C(C=C1)S(=O)(=O)NC(=O)NC1CCCCC1
InChI: InChI=1S/C15H20N2O4S/c1-11(18)12-7-9-14(10-8-12)22(20,21)17-15(19)16-13-5-3-2-4-6-13/h7-10,13H,2-6H2,1H3,(H2,16,17,19)
Instrument: Q Exactive Orbitrap (Thermo Scientific)
Instrument type: LC-ESI-QFT
Ms type: MS2
Ion mode: NEGATIVE
Ionization: ESI
Fragmentation mode: HCD
Collision energy: 75
Resolution: 17500
Column name: Acquity BEH C18 1.7um, 2.1x150mm (Waters)
Retention time: 16.005 min
Base peak: 323.107
Precursor m/z: 323.1071
Precursor type: [M-H]-
Precursor intensity: 32927456.29687
m/z	relative intensity	assigned
61.9706	4	NOS-
63.9624	1	O2S-
77.9655	7	NO2S-
78.9733	6	HNO2S-
79.9812	6	H2NO2S-
91.0426	7	C6H5N-
92.0506	685	C6H6N-
93.0346	8	C6H5O-
93.9604	1	NO3S-
107.0377	5	C6H5NO-
108.0217	3	C6H4O2-
116.0506	10	C8H6N-
119.0377	2	C7H5NO-
119.0502	1	C8H7O-
134.0611	999	C8H8NO-
135.0451	20	C8H7O2-
198.0231	9	C8H8NO3S-
