Mass spectrum: Roxithromycin; LC-ESI-QFT; MS2; CE: 90; R=17500; [M+H]+
Name: Roxithromycin
Name: (3R,4S,5S,6R,7R,9R,11S,12R,13S,14R)-6-[(2S,3R,4S,6R)-4-(dimethylamino)-3-hydroxy-6-methyloxan-2-yl]oxy-14-ethyl-7,12,13-trihydroxy-4-[(2R,4R,5S,6S)-5-hydroxy-4-methoxy-4,6-dimethyloxan-2-yl]oxy-10-(2-methoxyethoxymethoxyimino)-3,5,7,9,11,13-hexamethyl-oxacyclotetradecan-2-one
Formula: C41H76N2O15
Exact mass: 836.5246
SMILES: CC[C@H]1OC(=O)[C@H](C)[C@@H](O[C@H]2C[C@@](C)(OC)[C@@H](O)[C@H](C)O2)[C@H](C)[C@@H](O[C@@H]2O[C@H](C)C[C@@H]([C@H]2O)N(C)C)[C@](C)(O)C[C@@H](C)C(=NOCOCCOC)[C@H](C)[C@@H](O)[C@]1(C)O
InChI: InChI=1S/C41H76N2O15/c1-15-29-41(10,49)34(45)24(4)31(42-53-21-52-17-16-50-13)22(2)19-39(8,48)36(58-38-32(44)28(43(11)12)18-23(3)54-38)25(5)33(26(6)37(47)56-29)57-30-20-40(9,51-14)35(46)27(7)55-30/h22-30,32-36,38,44-46,48-49H,15-21H2,1-14H3/t22-,23-,24+,25+,26-,27+,28+,29-,30+,32-,33+,34-,35+,36-,38+,39-,40-,41-/m1/s1
Instrument: Q Exactive Orbitrap (Thermo Scientific)
Instrument type: LC-ESI-QFT
Ms type: MS2
Ion mode: POSITIVE
Ionization: ESI
Fragmentation mode: HCD
Collision energy: 90
Resolution: 17500
Column name: Acquity BEH C18 1.7um, 2.1x150mm (Waters)
Retention time: 16.237 min
Base peak: 79.0211
Precursor m/z: 837.5318
Precursor type: [M+H]+
Precursor intensity: 8772440
m/z	relative intensity	assigned
58.0652	47	C3H8N+
59.0492	93	C3H7O+
61.0284	3	C2H5O2+
65.0386	12	C5H5+
67.0542	29	C5H7+
68.0495	25	C4H6N+
69.0335	10	C4H5O+
69.0699	10	C5H9+
70.0651	94	C4H8N+
71.0125	1	C3H3O2+
71.0491	8	C4H7O+
71.0729	16	C4H9N+
71.0856	1	C5H11+
72.0808	999	C4H10N+
73.0522	61	C3H7NO+
73.0647	10	C4H9O+
79.0542	37	C6H7+
81.0699	42	C6H9+
82.0652	7	C5H8N+
83.0492	856	C5H7O+
84.0808	169	C5H10N+
85.0285	13	C4H5O2+
85.0648	4	C5H9O+
86.0601	10	C4H8NO+
86.0965	1	C5H12N+
87.0441	37	C4H7O2+
87.0679	28	C4H9NO+
88.0757	84	C4H10NO+
91.0542	8	C7H7+
93.0699	2	C7H9+
94.0653	3	C6H8N+
95.0493	8	C6H7O+
95.0856	3	C7H11+
96.0809	4	C6H10N+
97.065	2	C6H9O+
98.0965	286	C6H12N+
99.0806	2	C6H11O+
99.1043	2	C6H13N+
100.0757	5	C5H10NO+
101.0471	1	C4H7NO2+
105.0701	5	C8H9+
107.0859	1	C8H11+
108.0809	2	C7H10N+
109.0649	15	C7H9O+
109.1013	3	C8H13+
113.06	1	C6H9O2+
114.0913	3	C6H12NO+
116.0707	20	C5H10NO2+
116.1071	17	C6H14NO+
119.0856	5	C9H11+
122.0963	1	C8H12N+
123.0806	3	C8H11O+
134.0967	1	C9H12N+
