Mass spectrum: Triflumuron; LC-ESI-QFT; MS2; CE: 45; R=17500; [M-H]-
Name: Triflumuron
Name: 2-chloro-N-[[4-(trifluoromethoxy)phenyl]carbamoyl]benzamide
Formula: C15H10ClF3N2O3
Exact mass: 358.0332
SMILES: FC(F)(F)OC1=CC=C(NC(=O)NC(=O)C2=CC=CC=C2Cl)C=C1
InChI: InChI=1S/C15H10ClF3N2O3/c16-12-4-2-1-3-11(12)13(22)21-14(23)20-9-5-7-10(8-6-9)24-15(17,18)19/h1-8H,(H2,20,21,22,23)
Instrument: Q Exactive Orbitrap (Thermo Scientific)
Instrument type: LC-ESI-QFT
Ms type: MS2
Ion mode: NEGATIVE
Ionization: ESI
Fragmentation mode: HCD
Collision energy: 45
Resolution: 17500
Column name: Acquity BEH C18 1.7um, 2.1x150mm (Waters)
Retention time: 18.726 min
Base peak: 357.026
Precursor m/z: 357.0259
Precursor type: [M-H]-
Precursor intensity: 36975721.5918
m/z	relative intensity	assigned
68.9958	19	CF3-
78.0351	2	C5H4N-
84.9907	999	CF3O-
106.0298	10	C6H4NO-
107.0378	20	C6H5NO-
110.0412	104	C6H5FN-
154.0066	113	C7H5ClNO-
176.0329	609	C7H5F3NO-
201.0283	10	C8H4F3N2O-
