Mass spectrum: N,N-Dimethyldecylamine oxide; LC-ESI-QFT; MS2; CE: 15; R=17500; [M+H]+
Name: N,N-Dimethyldecylamine oxide
Name: 1-Decanamine, N,N-dimethyl-, N-oxide
Name: N,N-dimethyldecan-1-amine oxide
Formula: C12H27NO
Exact mass: 201.2093
SMILES: CCCCCCCCCC[N+](C)(C)[O-]
InChI: InChI=1S/C12H27NO/c1-4-5-6-7-8-9-10-11-12-13(2,3)14/h4-12H2,1-3H3
Instrument: Q Exactive Orbitrap (Thermo Scientific)
Instrument type: LC-ESI-QFT
Ms type: MS2
Ion mode: POSITIVE
Ionization: ESI
Fragmentation mode: HCD
Collision energy: 15
Resolution: 17500
Column name: Acquity BEH C18 1.7um, 2.1x150mm (Waters)
Retention time: 16.398 min
Base peak: 79.0211
Precursor m/z: 202.2165
Precursor type: [M+H]+
Precursor intensity: 59614771.875
m/z	relative intensity	assigned
57.0698	4	C4H9+
58.0651	134	C3H8N+
62.06	23	C2H8NO+
71.0854	3	C5H11+
85.1012	4	C6H13+
184.206	19	C12H26N+
185.2139	5	C12H27N+
202.2164	999	C12H28NO+
