Mass spectrum: Aplaviroc; LC-ESI-QFT; MS2; CE: 90; R=17500; [M+H]+
Name: Aplaviroc
Name: 4-[4-[[(3R)-1-butyl-3-[(R)-cyclohexyl(hydroxy)methyl]-2,5-dioxo-1,4,9-triazaspiro[5.5]undecan-9-yl]methyl]phenoxy]benzoic acid
Formula: C33H43N3O6
Exact mass: 577.3152
SMILES: CCCCN1C(=O)[C@@H]([C@H](O)C2CCCCC2)NC(=O)C12CCN(Cc1ccc(Oc3ccc(C(=O)O)cc3)cc1)CC2
InChI: InChI=1S/C33H43N3O6/c1-2-3-19-36-30(38)28(29(37)24-7-5-4-6-8-24)34-32(41)33(36)17-20-35(21-18-33)22-23-9-13-26(14-10-23)42-27-15-11-25(12-16-27)31(39)40/h9-16,24,28-29,37H,2-8,17-22H2,1H3,(H,34,41)(H,39,40)/t28-,29-/m1/s1
Instrument: Q Exactive Orbitrap (Thermo Scientific)
Instrument type: LC-ESI-QFT
Ms type: MS2
Ion mode: POSITIVE
Ionization: ESI
Fragmentation mode: HCD
Collision energy: 90
Resolution: 17500
Column name: Acquity BEH C18 1.7um, 2.1x150mm (Waters)
Retention time: 16.012 min
Base peak: 79.0212
Precursor m/z: 578.3225
Precursor type: [M+H]+
Precursor intensity: 5936570.375
m/z	relative intensity	assigned
51.0229	1	C4H3+
53.0022	10	C3HO+
53.0386	17	C4H5+
55.0179	12	C3H3O+
55.0542	2	C4H7+
56.0494	2	C3H6N+
57.0698	2	C4H9+
63.0228	2	C5H3+
65.0386	999	C5H5+
67.0542	2	C5H7+
68.997	3	C3HO2+
71.0128	1	C3H3O2+
75.0229	31	C6H3+
77.0385	8	C6H5+
79.0179	4	C5H3O+
79.0542	16	C6H7+
81.0334	2	C5H5O+
89.0386	3	C7H5+
90.0465	1	C7H6+
91.0543	17	C7H7+
93.0335	16	C6H5O+
95.0128	13	C5H3O2+
95.0491	49	C6H7O+
97.0397	3	C4H5N2O+
99.0553	2	C4H7N2O+
103.0178	10	C7H3O+
103.0542	30	C8H7+
105.0447	19	C6H5N2+
105.0698	5	C8H9+
107.0491	508	C7H7O+
111.044	27	C6H7O2+
111.0551	1	C5H7N2O+
115.0542	181	C9H7+
116.0622	4	C9H8+
117.0698	7	C9H9+
118.0413	2	C8H6O+
121.0284	34	C7H5O2+
121.0396	26	C6H5N2O+
123.0076	1	C6H3O3+
127.0542	21	C10H7+
128.062	256	C10H8+
129.0699	132	C10H9+
131.0492	60	C9H7O+
133.0647	7	C9H9O+
139.0389	5	C7H7O3+
139.0542	6	C11H7+
140.0621	6	C11H8+
141.0699	46	C11H9+
142.0777	4	C11H10+
143.0855	14	C11H11+
145.0648	46	C10H9O+
149.0347	19	C7H5N2O2+
152.0621	176	C12H8+
153.0699	325	C12H9+
154.0777	134	C12H10+
155.0603	59	C10H7N2+
155.0855	148	C12H11+
157.065	7	C11H9O+
159.044	3	C10H7O2+
165.07	22	C13H9+
168.0569	25	C12H8O+
169.0648	23	C12H9O+
170.0725	2	C12H10O+
171.0804	10	C12H11O+
179.0604	8	C12H7N2+
181.0648	150	C13H9O+
182.0727	48	C13H10O+
183.0806	5	C13H11O+
185.0598	2	C12H9O2+
199.0757	3	C13H11O2+
209.06	7	C14H9O2+
212.0466	1	C13H8O3+
227.0703	39	C14H11O3+
