Mass spectrum: Fluazifop-P-butyl; LC-ESI-QFT; MS2; CE: 30; R=17500; [M+H]+
Name: Fluazifop-P-butyl
Name: butyl (2R)-2-[4-[5-(trifluoromethyl)pyridin-2-yl]oxyphenoxy]propanoate
Formula: C19H20F3NO4
Exact mass: 383.1344
SMILES: CCCCOC(=O)[C@@H](C)OC1=CC=C(OC2=CC=C(C=N2)C(F)(F)F)C=C1
InChI: InChI=1S/C19H20F3NO4/c1-3-4-11-25-18(24)13(2)26-15-6-8-16(9-7-15)27-17-10-5-14(12-23-17)19(20,21)22/h5-10,12-13H,3-4,11H2,1-2H3/t13-/m1/s1
Instrument: Q Exactive Orbitrap (Thermo Scientific)
Instrument type: LC-ESI-QFT
Ms type: MS2
Ion mode: POSITIVE
Ionization: ESI
Fragmentation mode: HCD
Collision energy: 30
Resolution: 17500
Column name: Acquity BEH C18 1.7um, 2.1x150mm (Waters)
Retention time: 19.276 min
Base peak: 79.0211
Precursor m/z: 384.1417
Precursor type: [M+H]+
Precursor intensity: 21410741.25
m/z	relative intensity	assigned
57.0699	27	C4H9+
73.0283	1	C3H5O2+
91.0543	71	C7H7+
119.0492	23	C8H7O+
121.0285	4	C7H5O2+
146.0222	1	C6H3F3N+
164.0316	3	C6H5F3NO+
226.084	1	C12H11F3N+
238.0473	9	C12H7F3NO+
254.044	5	C14H8NO4+
254.0788	95	C13H11F3NO+
255.0502	50	C12H8F3NO2+
256.058	32	C12H9F3NO2+
264.0639	1	C14H9F3NO+
282.0736	999	C14H11F3NO2+
310.069	5	C15H11F3NO3+
328.0792	355	C15H13F3NO4+
338.137	2	C18H19F3NO2+
384.1419	20	C19H21F3NO4+
