Mass spectrum: Propyzamide; LC-ESI-QFT; MS2; CE: 75; R=17500; [M-H]-
Name: Propyzamide
Name: 3,5-dichloro-N-(2-methylbut-3-yn-2-yl)benzamide
Formula: C12H11Cl2NO
Exact mass: 255.0218
SMILES: CC(C)(NC(=O)C1=CC(Cl)=CC(Cl)=C1)C#C
InChI: InChI=1S/C12H11Cl2NO/c1-4-12(2,3)15-11(16)8-5-9(13)7-10(14)6-8/h1,5-7H,2-3H3,(H,15,16)
Instrument: Q Exactive Orbitrap (Thermo Scientific)
Instrument type: LC-ESI-QFT
Ms type: MS2
Ion mode: NEGATIVE
Ionization: ESI
Fragmentation mode: HCD
Collision energy: 75
Resolution: 17500
Column name: Acquity BEH C18 1.7um, 2.1x150mm (Waters)
Retention time: 17.756 min
Base peak: 112.9856
Precursor m/z: 254.0145
Precursor type: [M-H]-
Precursor intensity: 16940652.66992
m/z	relative intensity	assigned
63.024	999	C5H3-
65.0033	512	C4HO-
83.0138	30	CH6ClNO-
89.0033	60	C6HO-
101.0397	72	C8H5-
107.0138	120	C3H6ClNO-
115.0553	36	C9H7-
119.0502	160	C8H7O-
143.0502	176	C10H7O-
144.9617	109	C6H3Cl2-
145.0295	125	C6H8ClNO-
186.9726	10	C8H5Cl2O-
