Mass spectrum: Quercetin; LC-ESI-QFT; MS2; CE: 30; R=17500; [M-H]-
Name: Quercetin
Name: 2-(3,4-dihydroxyphenyl)-3,5,7-trihydroxychromen-4-one
Formula: C15H10O7
Exact mass: 302.0427
SMILES: OC1=CC2=C(C(O)=C1)C(=O)C(O)=C(O2)C1=CC(O)=C(O)C=C1
InChI: InChI=1S/C15H10O7/c16-7-4-10(19)12-11(5-7)22-15(14(21)13(12)20)6-1-2-8(17)9(18)3-6/h1-5,16-19,21H
Instrument: Q Exactive Orbitrap (Thermo Scientific)
Instrument type: LC-ESI-QFT
Ms type: MS2
Ion mode: NEGATIVE
Ionization: ESI
Fragmentation mode: HCD
Collision energy: 30
Resolution: 17500
Column name: Acquity BEH C18 1.7um, 2.1x150mm (Waters)
Retention time: 15.510 min
Base peak: 112.9856
Precursor m/z: 301.0354
Precursor type: [M-H]-
Precursor intensity: 1512504.737305
m/z	relative intensity	assigned
65.0033	10	C4HO-
83.0139	14	C4H3O2-
107.0139	64	C6H3O2-
121.0295	167	C7H5O2-
125.0243	8	C6H5O3-
149.0243	16	C8H5O3-
151.0036	999	C7H3O4-
163.0039	8	C8H3O4-
163.0399	4	C9H7O3-
169.0143	37	C7H5O5-
178.9986	553	C8H3O5-
192.0068	8	C9H4O5-
193.0143	23	C9H5O5-
201.0561	4	C12H9O3-
211.0401	5	C13H7O3-
229.0508	26	C13H9O4-
245.0458	11	C13H9O5-
255.0295	5	C14H7O5-
257.046	25	C14H9O5-
273.0406	95	C14H9O6-
299.0204	9	C15H7O7-
301.0353	721	C15H9O7-
