Mass spectrum: Fluorometholone; LC-ESI-QFT; MS2; CE: 75; R=17500; [M+H]+
Name: Fluorometholone
Name: (6S,8S,9R,10S,11S,13S,14S,17R)-17-acetyl-9-fluoro-11,17-dihydroxy-6,10,13-trimethyl-6,7,8,11,12,14,15,16-octahydrocyclopenta[a]phenanthren-3-one
Formula: C22H29FO4
Exact mass: 376.2050
SMILES: C[C@H]1C[C@H]2[C@@H]3CC[C@](O)(C(C)=O)[C@@]3(C)C[C@H](O)[C@]2(F)[C@@]2(C)C=CC(=O)C=C12
InChI: InChI=1S/C22H29FO4/c1-12-9-17-15-6-8-21(27,13(2)24)20(15,4)11-18(26)22(17,23)19(3)7-5-14(25)10-16(12)19/h5,7,10,12,15,17-18,26-27H,6,8-9,11H2,1-4H3/t12-,15-,17-,18-,19-,20-,21-,22-/m0/s1
Instrument: Q Exactive Orbitrap (Thermo Scientific)
Instrument type: LC-ESI-QFT
Ms type: MS2
Ion mode: POSITIVE
Ionization: ESI
Fragmentation mode: HCD
Collision energy: 75
Resolution: 17500
Column name: Acquity BEH C18 1.7um, 2.1x150mm (Waters)
Retention time: 16.960 min
Base peak: 79.0211
Precursor m/z: 377.2123
Precursor type: [M+H]+
Precursor intensity: 7769934
m/z	relative intensity	assigned
53.0387	60	C4H5+
55.0179	38	C3H3O+
55.0543	173	C4H7+
57.0337	16	C3H5O+
59.0492	47	C3H7O+
65.0386	32	C5H5+
67.0542	205	C5H7+
69.0335	47	C4H5O+
69.0699	43	C5H9+
77.0385	21	C6H5+
79.0543	357	C6H7+
81.0699	196	C6H9+
83.0492	20	C5H7O+
87.0443	21	C4H7O2+
91.0543	999	C7H7+
93.07	273	C7H9+
95.0492	179	C6H7O+
95.0856	176	C7H11+
97.0651	35	C6H9O+
103.0544	55	C8H7+
105.07	754	C8H9+
107.0491	122	C7H7O+
107.0856	371	C8H11+
109.0448	21	C7H6F+
109.0649	138	C7H9O+
109.1011	24	C8H13+
111.0805	18	C7H11O+
115.0543	442	C9H7+
116.0623	42	C9H8+
117.07	313	C9H9+
119.0856	291	C9H11+
121.0648	655	C8H9O+
123.0605	21	C8H8F+
123.0806	50	C8H11O+
125.0598	18	C7H9O2+
128.0621	178	C10H8+
129.0699	171	C10H9+
130.078	54	C10H10+
131.0492	43	C9H7O+
131.0857	128	C10H11+
132.0573	35	C9H8O+
133.0651	69	C9H9O+
133.1012	163	C10H13+
135.0805	590	C9H11O+
141.07	126	C11H9+
142.0777	235	C11H10+
143.0856	111	C11H11+
144.0571	68	C10H8O+
144.0936	28	C11H12+
145.0649	212	C10H9O+
145.1012	108	C11H13+
146.0727	242	C10H10O+
147.0805	93	C10H11O+
152.0626	29	C12H8+
153.07	58	C12H9+
154.0778	23	C12H10+
155.0859	87	C12H11+
156.0934	28	C12H12+
157.065	45	C11H9O+
157.1011	72	C12H13+
158.0726	159	C11H10O+
159.0806	170	C11H11O+
160.0885	32	C11H12O+
161.0962	288	C11H13O+
165.07	128	C13H9+
166.078	53	C13H10+
167.0859	55	C13H11+
169.065	32	C12H9O+
170.0728	46	C12H10O+
171.0807	92	C12H11O+
172.0882	74	C12H12O+
173.0965	68	C12H13O+
178.0777	75	C14H10+
179.0858	163	C14H11+
180.0935	38	C14H12+
181.0649	65	C13H9O+
181.1014	50	C14H13+
182.0729	42	C13H10O+
183.0809	60	C13H11O+
184.0887	21	C13H12O+
185.0966	140	C13H13O+
189.0702	40	C15H9+
190.0782	31	C15H10+
191.0856	56	C15H11+
192.0938	70	C15H12+
193.1014	124	C15H13+
194.1094	44	C15H14+
195.0808	145	C14H11O+
195.1169	35	C15H15+
196.0886	84	C14H12O+
197.0964	46	C14H13O+
199.1121	26	C14H15O+
203.0857	119	C16H11+
204.0937	34	C16H12+
205.1017	53	C16H13+
206.0732	17	C15H10O+
206.1091	42	C16H14+
207.0804	105	C15H11O+
207.1173	26	C16H15+
208.0882	175	C15H12O+
208.1251	22	C16H16+
209.0963	236	C15H13O+
210.104	79	C15H14O+
211.1118	24	C15H15O+
215.086	44	C17H11+
216.0939	43	C17H12+
217.1016	39	C17H13+
219.1173	32	C17H15+
221.0961	212	C16H13O+
222.1038	194	C16H14O+
223.1117	112	C16H15O+
229.1012	20	C18H13+
233.0965	64	C17H13O+
233.1328	20	C18H17+
234.1041	67	C17H14O+
236.1195	88	C17H16O+
247.1122	46	C18H15O+
247.1496	26	C16H20FO+
248.1198	50	C18H16O+
249.1272	105	C18H17O+
251.143	19	C18H19O+
259.1117	71	C19H15O+
263.1433	63	C19H19O+
273.1282	49	C17H18FO2+
