Mass spectrum: Demeton-S-methylsulphon; LC-ESI-QFT; MS2; CE: 60; R=17500; [M+H]+
Name: Demeton-S-methylsulphon
Name: 1-dimethoxyphosphorylsulfanyl-2-ethylsulfonylethane
Formula: C6H15O5PS2
Exact mass: 262.0099
SMILES: CCS(=O)(=O)CCSP(=O)(OC)OC
InChI: InChI=1S/C6H15O5PS2/c1-4-14(8,9)6-5-13-12(7,10-2)11-3/h4-6H2,1-3H3
Instrument: Q Exactive Orbitrap (Thermo Scientific)
Instrument type: LC-ESI-QFT
Ms type: MS2
Ion mode: POSITIVE
Ionization: ESI
Fragmentation mode: HCD
Collision energy: 60
Resolution: 17500
Column name: Acquity BEH C18 1.7um, 2.1x150mm (Waters)
Retention time: 11.013 min
Base peak: 79.0212
Precursor m/z: 263.0171
Precursor type: [M+H]+
Precursor intensity: 4551761.5
m/z	relative intensity	assigned
53.0022	1	C3HO+
58.995	15	C2H3S+
59.0492	1	C3H7O+
61.0107	20	C2H5S+
62.0185	4	C2H6S+
74.9899	14	C2H3OS+
75.0264	5	C3H7S+
77.0055	9	C2H5OS+
78.9943	86	CH4O2P+
80.9463	6	HOS2+
90.967	6	C2H3S2+
93.0005	52	C2H5O2S+
97.005	3	CH6O3P+
104.9558	1	C2H2OPS+
108.9777	17	C2H5OS2+
110.9665	1	CH4O2PS+
112.9998	6	CH6O4P+
114.9709	10	H3O5S+
121.0318	28	C4H9O2S+
124.9822	29	C2H6O2PS+
127.0155	999	C2H8O4P+
128.977	77	CH6O3PS+
136.9821	4	C3H6O2PS+
137.0089	2	C4H9OS2+
138.9611	2	C2H4O3PS+
140.9771	2	C2H6O3PS+
141.0312	3	C3H10O4P+
142.9927	427	C2H8O3PS+
145.0262	1	C2H10O5P+
152.9772	5	C3H6O3PS+
154.9928	2	C3H8O3PS+
156.9541	1	C2H6O2PS2+
157.0083	9	C3H10O3PS+
169.0083	73	C4H10O3PS+
170.9872	1	C3H8O4PS+
174.9744	5	C2H7O5S2+
184.9491	2	C3H6O3PS2+
