Mass spectrum: AVE3247; LC-ESI-QFT; MS2; CE: 90; R=17500; [M+H]+
Name: AVE3247
Name: 1-[[5-(5-chlorothiophen-2-yl)-1,2-oxazol-3-yl]methyl]-2-[(1-cyclopropylpiperidin-4-yl)carbamoyl]benzimidazole-5-carboxylic acid
Formula: C25H24ClN5O4S
Exact mass: 525.1238
SMILES: OC(=O)C1=CC=C2N(CC3=NOC(=C3)C3=CC=C(Cl)S3)C(=NC2=C1)C(=O)NC1CCN(CC1)C1CC1
InChI: InChI=1S/C25H24ClN5O4S/c26-22-6-5-21(36-22)20-12-16(29-35-20)13-31-19-4-1-14(25(33)34)11-18(19)28-23(31)24(32)27-15-7-9-30(10-8-15)17-2-3-17/h1,4-6,11-12,15,17H,2-3,7-10,13H2,(H,27,32)(H,33,34)
Instrument: Q Exactive Orbitrap (Thermo Scientific)
Instrument type: LC-ESI-QFT
Ms type: MS2
Ion mode: POSITIVE
Ionization: ESI
Fragmentation mode: HCD
Collision energy: 90
Resolution: 17500
Column name: Acquity BEH C18 1.7um, 2.1x150mm (Waters)
Retention time: 15.907 min
Base peak: 79.0211
Precursor m/z: 526.131
Precursor type: [M+H]+
Precursor intensity: 1003533.1875
m/z	relative intensity	assigned
53.0022	100	C3HO+
53.0386	89	C4H5+
53.9975	24	C2NO+
54.0339	17	C3H4N+
55.0543	999	C4H7+
56.0495	448	C3H6N+
65.0386	53	C5H5+
67.0417	18	C4H5N+
67.0543	141	C5H7+
68.0495	174	C4H6N+
69.07	38	C5H9+
70.0651	380	C4H8N+
72.0808	99	C4H10N+
72.9839	72	C3H2Cl+
79.0542	76	C6H7+
80.0131	20	C4H2NO+
80.0495	173	C5H6N+
81.0574	57	C5H7N+
81.07	70	C6H9+
82.0651	368	C5H8N+
83.073	28	C5H9N+
84.0808	176	C5H10N+
90.0339	30	C6H4N+
91.0544	18	C7H7+
92.0495	24	C6H6N+
94.0652	82	C6H8N+
95.0855	50	C7H11+
96.0446	29	C5H6NO+
96.0808	208	C6H10N+
98.9997	29	C5H4Cl+
104.0494	23	C7H6N+
108.0028	192	C6H4S+
108.0808	21	C7H10N+
109.0887	17	C7H11N+
110.0966	30	C7H12N+
117.0446	16	C7H5N2+
119.0605	48	C7H7N2+
122.0964	85	C8H12N+
124.1121	207	C8H14N+
125.0709	141	C6H9N2O+
129.0448	52	C8H5N2+
131.0604	34	C8H7N2+
134.0059	36	C7H4NS+
135.0138	187	C7H5NS+
142.9716	162	C6H4ClS+
144.951	246	C5H2ClOS+
145.0397	22	C8H5N2O+
167.1179	139	C9H15N2O+
169.9827	26	C7H5ClNS+
175.0503	173	C9H7N2O2+
