Mass spectrum: 4-Hexylaniline; LC-ESI-QFT; MS2; CE: 60; R=17500; [M+H]+
Name: 4-Hexylaniline
Formula: C12H19N
Exact mass: 177.1517
SMILES: CCCCCCC1=CC=C(N)C=C1
InChI: InChI=1S/C12H19N/c1-2-3-4-5-6-11-7-9-12(13)10-8-11/h7-10H,2-6,13H2,1H3
Instrument: Q Exactive Orbitrap (Thermo Scientific)
Instrument type: LC-ESI-QFT
Ms type: MS2
Ion mode: POSITIVE
Ionization: ESI
Fragmentation mode: HCD
Collision energy: 60
Resolution: 17500
Column name: Acquity BEH C18 1.7um, 2.1x150mm (Waters)
Retention time: 16.558 min
Base peak: 79.0211
Precursor m/z: 178.159
Precursor type: [M+H]+
Precursor intensity: 9431351.84375
m/z	relative intensity	assigned
51.0229	1	C4H3+
53.0386	7	C4H5+
55.0543	22	C4H7+
57.0699	68	C4H9+
65.0386	9	C5H5+
66.0464	6	C5H6+
67.0542	3	C5H7+
69.0698	2	C5H9+
77.0384	3	C6H5+
79.0543	7	C6H7+
85.1012	2	C6H13+
89.0384	1	C7H5+
90.0464	6	C7H6+
91.0543	481	C7H7+
93.0573	25	C6H7N+
94.0652	788	C6H8N+
103.0541	3	C8H7+
104.062	2	C8H8+
105.0699	30	C8H9+
106.0652	64	C7H8N+
107.073	157	C7H9N+
108.0808	2	C7H10N+
117.0699	1	C9H9+
120.0808	11	C8H10N+
121.0886	2	C8H11N+
177.1513	1	C12H19N+
178.1591	999	C12H20N+
