Mass spectrum: Pioglitazone hydrochloride; LC-ESI-QFT; MS2; CE: 30; R=17500; [M+H]+
Name: Pioglitazone
Name: 5-[[4-[2-(5-ethylpyridin-2-yl)ethoxy]phenyl]methyl]-1,3-thiazolidine-2,4-dione
Formula: C19H20N2O3S
Exact mass: 356.1195
SMILES: CCC1=CN=C(CCOC2=CC=C(CC3SC(=O)NC3=O)C=C2)C=C1
InChI: InChI=1S/C19H20N2O3S/c1-2-13-3-6-15(20-12-13)9-10-24-16-7-4-14(5-8-16)11-17-18(22)21-19(23)25-17/h3-8,12,17H,2,9-11H2,1H3,(H,21,22,23)
Instrument: Q Exactive Orbitrap (Thermo Scientific)
Instrument type: LC-ESI-QFT
Ms type: MS2
Ion mode: POSITIVE
Ionization: ESI
Fragmentation mode: HCD
Collision energy: 30
Resolution: 17500
Column name: Acquity BEH C18 1.7um, 2.1x150mm (Waters)
Retention time: 13.642 min
Base peak: 79.0211
Precursor m/z: 357.1267
Precursor type: [M+H]+
Precursor intensity: 28288922.5
m/z	relative intensity	assigned
119.0729	5	C8H9N+
120.0809	4	C8H10N+
121.0886	2	C8H11N+
134.0964	689	C9H12N+
135.1041	88	C9H13N+
167.094	7	C9H13NO2+
240.1385	4	C16H18NO+
241.146	11	C16H19NO+
286.1255	2	C17H20NOS+
314.1208	1	C18H20NO2S+
357.1268	999	C19H21N2O3S+
