Mass spectrum: SSR180711; LC-ESI-QFT; MS2; CE: 15; R=17500; [M+H]+
Name: SSR180711
Name: 4-Bromophenyl 1,4-diazabicyclo(3.2.2)nonane-4-carboxylate
Name: (4-bromophenyl) 1,4-diazabicyclo[3.2.2]nonane-4-carboxylate
Formula: C14H17BrN2O2
Exact mass: 324.0473
SMILES: BrC1=CC=C(OC(=O)N2CCN3CCC2CC3)C=C1
InChI: InChI=1S/C14H17BrN2O2/c15-11-1-3-13(4-2-11)19-14(18)17-10-9-16-7-5-12(17)6-8-16/h1-4,12H,5-10H2
Instrument: Q Exactive Orbitrap (Thermo Scientific)
Instrument type: LC-ESI-QFT
Ms type: MS2
Ion mode: POSITIVE
Ionization: ESI
Fragmentation mode: HCD
Collision energy: 15
Resolution: 17500
Column name: Acquity BEH C18 1.7um, 2.1x150mm (Waters)
Retention time: 13.135 min
Base peak: 79.0211
Precursor m/z: 325.0546
Precursor type: [M+H]+
Precursor intensity: 7237350.03125
m/z	relative intensity	assigned
82.0649	1	C5H8N+
84.0808	2	C5H10N+
154.9503	1	C6H4Br+
325.0544	999	C14H18BrN2O2+
