Mass spectrum: Flutamide; LC-ESI-QFT; MS2; CE: 45; R=17500; [M-H]-
Name: Flutamide
Name: 2-methyl-N-[4-nitro-3-(trifluoromethyl)phenyl]propanamide
Formula: C11H11F3N2O3
Exact mass: 276.0722
SMILES: CC(C)C(=O)NC1=CC(=C(C=C1)[N+]([O-])=O)C(F)(F)F
InChI: InChI=1S/C11H11F3N2O3/c1-6(2)10(17)15-7-3-4-9(16(18)19)8(5-7)11(12,13)14/h3-6H,1-2H3,(H,15,17)
Instrument: Q Exactive Orbitrap (Thermo Scientific)
Instrument type: LC-ESI-QFT
Ms type: MS2
Ion mode: NEGATIVE
Ionization: ESI
Fragmentation mode: HCD
Collision energy: 45
Resolution: 17500
Column name: Acquity BEH C18 1.7um, 2.1x150mm (Waters)
Retention time: 17.509 min
Base peak: 275.0649
Precursor m/z: 275.0649
Precursor type: [M-H]-
Precursor intensity: 164352753.5156
m/z	relative intensity	assigned
65.9985	5	C3NO-
70.9939	1	C3FO-
74.0037	2	C5N-
77.0145	2	C4HN2-
86.9888	5	C3FO2-
91.0188	1	C6H3O-
92.0142	2	C5H2NO-
93.0094	1	C4HN2O-
101.0144	2	C6HN2-
119.0249	1	C6H3N2O-
126.0161	2	C6H2F2N-
135.0126	1	C7H2FNO-
136.0206	1	C7H3FNO-
146.0222	2	C6H3F3N-
151.0074	1	C7H2FNO2-
154.0109	10	C7H2F2NO-
155.0189	2	C7H3F2NO-
159.0302	1	C7H4F3N-
160.038	97	C7H5F3N-
161.9997	3	C8HFNO2-
165.0107	3	C7H2FN2O2-
171.0138	10	C7H3F2NO2-
173.0094	5	C7H2F3NO-
174.0171	9	C7H3F3NO-
175.0251	24	C7H4F3NO-
176.0091	2	C7H3F3O2-
182.006	66	C8H2F2NO2-
186.0172	26	C8H3F3NO-
190.0122	21	C7H3F3NO2-
191.0202	12	C7H4F3NO2-
198.0012	3	C8H2F2NO3-
201.0539	1	C10H8F3O-
202.0122	999	C8H3F3NO2-
204.0151	1	C7H3F3N2O2-
205.023	475	C7H4F3N2O2-
206.007	34	C7H3F3NO3-
229.0719	42	C11H10F3NO-
232.0101	38	C8H3F3N2O3-
232.0586	1	C10H9F3NO2-
235.0452	1	C9H8F3NO3-
245.0666	2	C11H10F3NO2-
259.0339	4	C10H6F3N2O3-
275.065	516	C11H10F3N2O3-
