Mass spectrum: Volinanserin; LC-ESI-QFT; MS2; CE: 45; R=17500; [M+H]+
Name: Volinanserin
Formula: C22H28FNO3
Exact mass: 373.2053
SMILES: COC1=C(OC)C(=CC=C1)[C@H](O)C1CCN(CCC2=CC=C(F)C=C2)CC1
InChI: InChI=1S/C22H28FNO3/c1-26-20-5-3-4-19(22(20)27-2)21(25)17-11-14-24(15-12-17)13-10-16-6-8-18(23)9-7-16/h3-9,17,21,25H,10-15H2,1-2H3/t21-/m1/s1
Instrument: Q Exactive Orbitrap (Thermo Scientific)
Instrument type: LC-ESI-QFT
Ms type: MS2
Ion mode: POSITIVE
Ionization: ESI
Fragmentation mode: HCD
Collision energy: 45
Resolution: 17500
Column name: Acquity BEH C18 1.7um, 2.1x150mm (Waters)
Retention time: 13.636 min
Base peak: 79.0211
Precursor m/z: 374.2126
Precursor type: [M+H]+
Precursor intensity: 37682990.5
m/z	relative intensity	assigned
56.0494	3	C3H6N+
58.0651	1	C3H8N+
67.0542	5	C5H7+
70.065	2	C4H8N+
77.0385	1	C6H5+
79.0542	1	C6H7+
81.07	1	C6H9+
82.0651	31	C5H8N+
84.0807	16	C5H10N+
85.0886	26	C5H11N+
94.0651	3	C6H8N+
95.0491	3	C6H7O+
95.0729	2	C6H9N+
96.0807	14	C6H10N+
98.0964	64	C6H12N+
103.0542	122	C8H7+
108.0807	1	C7H10N+
109.0448	4	C7H6F+
109.0885	1	C7H11N+
121.0649	5	C8H9O+
122.0527	2	C8H7F+
123.0604	999	C8H8F+
124.0518	2	C7H8O2+
129.07	1	C10H9+
132.0808	6	C9H10N+
135.0438	1	C8H7O2+
135.0605	6	C9H8F+
135.0804	1	C9H11O+
136.0518	51	C8H8O2+
137.0595	7	C8H9O2+
138.0714	1	C8H9FN+
139.0753	5	C8H11O2+
144.0569	1	C10H8O+
145.0647	1	C10H9O+
146.0726	1	C10H10O+
147.0803	1	C10H11O+
149.0596	3	C9H9O2+
149.0758	4	C10H10F+
150.0718	7	C9H9FN+
151.0753	52	C9H11O2+
152.0869	273	C9H11FN+
158.0726	5	C11H10O+
159.0805	6	C11H11O+
160.0883	5	C11H12O+
161.0595	2	C10H9O2+
161.0759	1	C11H10F+
163.0752	1	C10H11O2+
164.0876	3	C10H11FN+
165.0912	1	C10H13O2+
166.1027	18	C10H13FN+
167.0699	2	C9H11O3+
171.0803	2	C12H11O+
173.096	5	C12H13O+
174.0675	4	C11H10O2+
174.1038	11	C12H14O+
175.0751	3	C11H11O2+
175.1114	1	C12H15O+
176.0857	3	C11H11FN+
177.0909	6	C11H13O2+
178.1026	63	C11H13FN+
185.0961	3	C13H13O+
186.104	2	C13H14O+
188.0832	1	C12H12O2+
188.1194	1	C13H16O+
189.0905	8	C12H13O2+
190.0985	7	C9H15FO3+
191.1065	11	C12H15O2+
202.103	7	C13H13FN+
202.1222	1	C13H16NO+
204.1182	540	C13H15FN+
205.1223	13	C13H17O2+
206.1338	9	C13H17FN+
207.1413	1	C13H18FN+
214.1222	4	C14H16NO+
217.1222	7	C14H17O2+
218.1339	22	C14H17FN+
219.1378	1	C14H19O2+
232.1331	87	C14H18NO2+
234.149	4	C14H20NO2+
246.1482	3	C15H20NO2+
250.1432	4	C14H20NO3+
310.1605	3	C20H21FNO+
312.1751	1	C20H23FNO+
324.1758	11	C21H23FNO+
326.155	5	C20H21FNO2+
340.1711	8	C21H23FNO2+
341.1786	18	C21H24FNO2+
342.1865	3	C21H25FNO2+
344.1659	4	C20H23FNO3+
356.2021	247	C22H27FNO2+
374.2128	73	C22H29FNO3+
