Mass spectrum: Coumaphos; LC-ESI-QFT; MS2; CE: 75; R=17500; [M+H]+
Name: Coumaphos
Formula: C14H16ClO5PS
Exact mass: 362.0145
SMILES: CCOP(=S)(OCC)OC1=CC2=C(C=C1)C(C)=C(Cl)C(=O)O2
InChI: InChI=1S/C14H16ClO5PS/c1-4-17-21(22,18-5-2)20-10-6-7-11-9(3)13(15)14(16)19-12(11)8-10/h6-8H,4-5H2,1-3H3
Instrument: Q Exactive Orbitrap (Thermo Scientific)
Instrument type: LC-ESI-QFT
Ms type: MS2
Ion mode: POSITIVE
Ionization: ESI
Fragmentation mode: HCD
Collision energy: 75
Resolution: 17500
Column name: Acquity BEH C18 1.7um, 2.1x150mm (Waters)
Retention time: 18.628 min
Base peak: 79.0212
Precursor m/z: 363.0217
Precursor type: [M+H]+
Precursor intensity: 6715304.0625
m/z	relative intensity	assigned
53.0385	3	C4H5+
55.0179	2	C3H3O+
63.0229	4	C5H3+
64.9786	13	H2O2P+
65.0385	37	C5H5+
68.9793	17	C3HS+
68.997	8	C3HO2+
75.0227	6	C6H3+
77.0385	3	C6H5+
89.0385	4	C7H5+
91.0542	159	C7H7+
94.0412	2	C6H6O+
95.0492	9	C6H7O+
98.015	5	C8H2+
98.9842	999	H4O4P+
100.9884	22	C3HO4+
102.0463	37	C8H6+
103.0542	108	C8H7+
104.0621	12	C8H8+
109.005	17	C2H6O3P+
112.9602	11	C4H2PS+
114.0462	3	C9H6+
114.9614	288	H4O3PS+
115.0543	337	C9H7+
116.9948	22	H6O5P+
118.0413	6	C8H6O+
119.0492	40	C8H7O+
121.0107	11	C7H5S+
121.0283	2	C7H5O2+
122.9998	4	C7H4Cl+
123.0263	9	C7H7S+
124.9969	4	ClH11OPS+
128.9769	13	CH6O3PS+
129.0448	3	ClH15O3P+
131.0104	20	CH8O5P+
131.0492	290	C9H7O+
132.057	116	C9H8O+
132.9719	3	H6O4PS+
133.0107	2	C8H5S+
134.0185	20	C8H6S+
134.9808	8	CH9ClOPS+
135.0263	126	C8H7S+
136.0077	3	C8H5Cl+
136.0343	12	C8H8S+
137.0153	32	C8H6Cl+
138.0232	8	C8H7Cl+
139.0309	4	C8H8Cl+
147.0263	253	C9H7S+
147.0441	54	C9H7O2+
148.0341	43	C9H8S+
148.0519	73	C9H8O2+
149.0056	4	C8H5OS+
149.0153	47	C9H6Cl+
150.0231	95	C9H7Cl+
153.0102	8	C8H6ClO+
159.0441	68	C4H12ClO4+
159.0553	5	CH17ClO4P+
162.0134	27	C9H6OS+
163.0212	142	C9H7OS+
164.0291	171	C9H8OS+
165.0027	5	C8H5O2S+
165.0102	50	C9H6ClO+
166.0181	124	C9H7ClO+
167.0259	2	C9H8ClO+
167.979	6	C7H5OPS+
168.9873	16	C8H6ClS+
169.969	13	C7H4ClOP+
171.003	40	C8H8ClS+
172.9549	9	C6H3ClO2P+
172.969	6	C9HO2S+
173.9626	236	C6H4ClO2P+
175.0389	17	C10H7O3+
180.9872	8	C8H6OPS+
181.0052	19	C9H6ClO2+
182.0128	58	C9H7ClO2+
191.0161	73	C10H7O2S+
192.0239	13	C10H8O2S+
193.0048	10	C9H6O3P+
194.013	180	C10H7ClO2+
196.9824	51	C9H6ClOS+
197.9905	17	C9H7ClOS+
198.9634	4	C8H4ClO2S+
198.9962	5	C2H13ClO4PS+
207.9745	3	C10H5ClOS+
208.9314	12	C5H2ClO5S+
208.9999	10	C10H6ClO3+
210.0079	30	C10H7ClO3+
210.048	12	C8H15ClO2S+
211.0157	153	C10H8ClO3+
217.029	4	C5H14O5PS+
224.9772	18	C10H6ClO2S+
225.985	275	C10H7ClO2S+
226.9929	428	C10H8ClO2S+
256.9766	48	C10H7ClO4P+
270.9382	6	C10H5ClO3PS+
272.0087	5	C14H9O2PS+
273.012	23	C8H15ClO4PS+
288.0033	8	C14H9O3PS+
288.9486	14	C10H7ClO4PS+
289.0066	29	C8H15ClO5PS+
290.9821	8	C14H9ClOPS+
