Mass spectrum: N-Ethyl-4-menthane-3-carboxamide; LC-ESI-QFT; MS2; CE: 75; R=17500; [M+H]+
Name: N-Ethyl-4-menthane-3-carboxamide
Name: N-Ethyl-p-menthane-3-carboxamide
Name: N-ethyl-5-methyl-2-propan-2-ylcyclohexane-1-carboxamide
Formula: C13H25NO
Exact mass: 211.1936
SMILES: CCNC(=O)C1CC(C)CCC1C(C)C
InChI: InChI=1S/C13H25NO/c1-5-14-13(15)12-8-10(4)6-7-11(12)9(2)3/h9-12H,5-8H2,1-4H3,(H,14,15)
Instrument: Q Exactive Orbitrap (Thermo Scientific)
Instrument type: LC-ESI-QFT
Ms type: MS2
Ion mode: POSITIVE
Ionization: ESI
Fragmentation mode: HCD
Collision energy: 75
Resolution: 17500
Column name: Acquity BEH C18 1.7um, 2.1x150mm (Waters)
Retention time: 17.986 min
Base peak: 79.0211
Precursor m/z: 212.2009
Precursor type: [M+H]+
Precursor intensity: 82463000.09375
m/z	relative intensity	assigned
53.0022	26	C3HO+
53.0386	25	C4H5+
53.9975	6	C2NO+
54.0339	4	C3H4N+
55.0179	65	C3H3O+
55.0542	999	C4H7+
56.0495	21	C3H6N+
57.0699	159	C4H9+
58.0651	42	C3H8N+
59.049	2	C3H7O+
65.0385	4	C5H5+
67.0542	91	C5H7+
69.0698	636	C5H9+
70.065	2	C4H8N+
71.0855	22	C5H11+
72.0443	651	C3H6NO+
74.06	210	C3H8NO+
79.0542	78	C6H7+
81.0699	288	C6H9+
82.0651	16	C5H8N+
83.0855	639	C6H11+
84.0807	33	C5H10N+
86.0963	5	C5H12N+
87.0678	11	C4H9NO+
88.0758	2	C4H10NO+
91.0543	33	C7H7+
93.0699	83	C7H9+
94.0651	7	C6H8N+
95.0491	15	C6H7O+
95.0855	132	C7H11+
96.0808	10	C6H10N+
97.1012	425	C7H13+
98.06	20	C5H8NO+
98.0965	8	C6H12N+
100.0757	139	C5H10NO+
105.07	21	C8H9+
107.0855	102	C8H11+
108.0807	4	C7H10N+
109.0647	11	C7H9O+
109.1013	20	C8H13+
110.0963	9	C7H12N+
111.0807	1	C7H11O+
112.0757	7	C6H10NO+
112.1121	2	C7H14N+
114.0914	6	C6H12NO+
121.1012	15	C9H13+
122.0964	9	C8H12N+
123.0804	5	C8H11O+
123.1043	7	C8H13N+
123.1167	40	C9H15+
124.1119	15	C8H14N+
126.0913	31	C7H12NO+
126.1279	3	C8H16N+
127.0993	5	C7H13NO+
128.1068	6	C7H14NO+
136.1119	4	C9H14N+
137.12	2	C9H15N+
137.1325	7	C10H17+
138.1277	3	C9H16N+
140.1068	10	C8H14NO+
140.1432	4	C9H18N+
142.1226	23	C8H16NO+
149.1321	3	C11H17+
150.1279	10	C10H16N+
152.1433	23	C10H18N+
154.1226	7	C9H16NO+
156.1384	2	C9H18NO+
168.1384	8	C10H18NO+
170.1539	366	C10H20NO+
194.1903	5	C13H24N+
196.1695	3	C12H22NO+
212.2008	136	C13H26NO+
