Mass spectrum: 5-Methoxypsoralen; LC-ESI-QFT; MS2; CE: 90; R=17500; [M+H]+
Name: 5-Methoxypsoralen
Name: Bergapten
Name: 4-methoxyfuro[3,2-g]chromen-7-one
Formula: C12H8O4
Exact mass: 216.0423
SMILES: COC1=C2C=COC2=CC2=C1C=CC(=O)O2
InChI: InChI=1S/C12H8O4/c1-14-12-7-2-3-11(13)16-10(7)6-9-8(12)4-5-15-9/h2-6H,1H3
Instrument: Q Exactive Orbitrap (Thermo Scientific)
Instrument type: LC-ESI-QFT
Ms type: MS2
Ion mode: POSITIVE
Ionization: ESI
Fragmentation mode: HCD
Collision energy: 90
Resolution: 17500
Column name: Acquity BEH C18 1.7um, 2.1x150mm (Waters)
Retention time: 16.127 min
Base peak: 79.0212
Precursor m/z: 217.0495
Precursor type: [M+H]+
Precursor intensity: 4473312.75
m/z	relative intensity	assigned
53.0022	1	C3HO+
53.0386	9	C4H5+
55.0178	20	C3H3O+
55.0543	7	C4H7+
62.0151	3	C5H2+
63.0227	10	C5H3+
65.0385	16	C5H5+
66.0464	110	C5H6+
68.0256	13	C4H4O+
68.9971	6	C3HO2+
76.0307	15	C6H4+
77.0385	6	C6H5+
78.0464	6	C6H6+
79.0542	19	C6H7+
81.0335	6	C5H5O+
82.0049	7	C4H2O2+
83.0492	3	C5H7O+
89.0386	275	C7H5+
90.0464	518	C7H6+
91.0543	24	C7H7+
92.0256	27	C6H4O+
93.0335	3	C6H5O+
94.0413	16	C6H6O+
95.0491	27	C6H7O+
97.0076	23	C8H+
100.0307	40	C8H4+
102.0464	69	C8H6+
103.0542	33	C8H7+
105.0337	9	C7H5O+
105.0699	20	C8H9+
106.0413	2	C7H6O+
108.0206	2	C6H4O2+
111.0233	6	C9H3+
111.044	1	C6H7O2+
115.0542	136	C9H7+
116.0621	2	C9H8+
117.0334	19	C8H5O+
117.0699	2	C9H9+
118.0413	836	C8H6O+
119.0128	8	C7H3O2+
120.0206	3	C7H4O2+
121.0285	9	C7H5O2+
122.036	11	C7H6O2+
128.0255	9	C9H4O+
129.0334	21	C9H5O+
130.0414	7	C9H6O+
131.0491	111	C9H7O+
132.0206	4	C8H4O2+
133.0285	7	C8H5O2+
133.0649	4	C9H9O+
134.0363	2	C8H6O2+
145.0284	124	C9H5O2+
146.0362	336	C9H6O2+
149.0233	12	C8H5O3+
156.0206	110	C10H4O2+
158.036	9	C10H6O2+
159.0441	1	C10H7O2+
161.0233	6	C9H5O3+
161.0598	3	C10H9O2+
162.0311	7	C9H6O3+
173.0234	28	C10H5O3+
174.0312	999	C10H6O3+
178.026	106	C9H6O4+
184.0155	2	C11H4O3+
202.0261	352	C11H6O4+
