Mass spectrum: Clofibric acid; LC-ESI-QFT; MS2; CE: 15; R=17500; [M-H]-
Name: Clofibric acid
Name: 2-(4-chlorophenoxy)-2-methylpropanoic acid
Formula: C10H11ClO3
Exact mass: 214.0397
SMILES: CC(C)(OC1=CC=C(Cl)C=C1)C(O)=O
InChI: InChI=1S/C10H11ClO3/c1-10(2,9(12)13)14-8-5-3-7(11)4-6-8/h3-6H,1-2H3,(H,12,13)
Instrument: Q Exactive Orbitrap (Thermo Scientific)
Instrument type: LC-ESI-QFT
Ms type: MS2
Ion mode: NEGATIVE
Ionization: ESI
Fragmentation mode: HCD
Collision energy: 15
Resolution: 17500
Column name: Acquity BEH C18 1.7um, 2.1x150mm (Waters)
Retention time: 17.244 min
Base peak: 126.9956
Precursor m/z: 213.0324
Precursor type: [M-H]-
Precursor intensity: 11152591.0957
m/z	relative intensity	assigned
85.0295	233	C4H5O2-
126.9956	999	C6H4ClO-
169.0425	1	C9H10ClO-
213.0324	12	C10H10ClO3-
