Mass spectrum: Lauryldiethanolamine; LC-ESI-QFT; MS2; CE: 30; R=17500; [M+H]+
Name: Lauryldiethanolamine
Name: 2-[dodecyl(2-hydroxyethyl)amino]ethanol
Formula: C16H35NO2
Exact mass: 273.2668
SMILES: CCCCCCCCCCCCN(CCO)CCO
InChI: InChI=1S/C16H35NO2/c1-2-3-4-5-6-7-8-9-10-11-12-17(13-15-18)14-16-19/h18-19H,2-16H2,1H3
Instrument: Q Exactive Orbitrap (Thermo Scientific)
Instrument type: LC-ESI-QFT
Ms type: MS2
Ion mode: POSITIVE
Ionization: ESI
Fragmentation mode: HCD
Collision energy: 30
Resolution: 17500
Column name: Acquity BEH C18 1.7um, 2.1x150mm (Waters)
Retention time: 17.298 min
Base peak: 79.0211
Precursor m/z: 274.2741
Precursor type: [M+H]+
Precursor intensity: 42193520.25
m/z	relative intensity	assigned
57.0699	5	C4H9+
70.0651	4	C4H8N+
71.0855	3	C5H11+
85.1012	2	C6H13+
88.0757	22	C4H10NO+
102.0913	6	C5H12NO+
106.0863	30	C4H12NO2+
230.2478	3	C14H32NO+
256.2635	37	C16H34NO+
274.274	999	C16H36NO2+
