Mass spectrum: Methyldopa; LC-ESI-QFT; MS2; CE: 15; R=17500; [M+H]+
Name: Methyldopa
Name: (2S)-2-amino-3-(3,4-dihydroxyphenyl)-2-methylpropanoic acid
Formula: C10H13NO4
Exact mass: 211.0845
SMILES: C[C@](N)(Cc1ccc(O)c(O)c1)C(=O)O
InChI: InChI=1S/C10H13NO4/c1-10(11,9(14)15)5-6-2-3-7(12)8(13)4-6/h2-4,12-13H,5,11H2,1H3,(H,14,15)/t10-/m0/s1
Instrument: Q Exactive Orbitrap (Thermo Scientific)
Instrument type: LC-ESI-QFT
Ms type: MS2
Ion mode: POSITIVE
Ionization: ESI
Fragmentation mode: HCD
Collision energy: 15
Resolution: 17500
Column name: Acquity BEH C18 1.7um, 2.1x150mm (Waters)
Retention time: 3.672 min
Base peak: 79.0211
Precursor m/z: 212.0917
Precursor type: [M+H]+
Precursor intensity: 2742313.53125
m/z	relative intensity	assigned
57.0335	4	C3H5O+
88.0393	6	C3H6NO2+
105.0701	3	C8H9+
123.0439	20	C7H7O2+
125.0598	4	C7H9O2+
133.0648	4	C9H9O+
139.039	609	C7H7O3+
149.0598	19	C9H9O2+
151.0755	60	C9H11O2+
166.0863	999	C9H12NO2+
177.0549	20	C10H9O3+
194.081	9	C10H12NO3+
195.0653	610	C10H11O4+
212.0918	478	C10H14NO4+
