Mass spectrum: Lufenuron; LC-ESI-QFT; MS2; CE: 90; R=17500; [M-H]-
Name: Lufenuron
Formula: C17H8Cl2F8N2O3
Exact mass: 509.9784
SMILES: FC(C(F)(F)F)C(F)(F)OC1=CC(Cl)=C(NC(=O)NC(=O)C2=C(F)C=CC=C2F)C=C1Cl
InChI: InChI=1S/C17H8Cl2F8N2O3/c18-6-5-11(32-17(26,27)14(22)16(23,24)25)7(19)4-10(6)28-15(31)29-13(30)12-8(20)2-1-3-9(12)21/h1-5,14H,(H2,28,29,30,31)
Instrument: Q Exactive Orbitrap (Thermo Scientific)
Instrument type: LC-ESI-QFT
Ms type: MS2
Ion mode: NEGATIVE
Ionization: ESI
Fragmentation mode: HCD
Collision energy: 90
Resolution: 17500
Column name: Acquity BEH C18 1.7um, 2.1x150mm (Waters)
Retention time: 19.448 min
Base peak: 112.9856
Precursor m/z: 508.9711
Precursor type: [M-H]-
Precursor intensity: 7153343.449219
m/z	relative intensity	assigned
73.0084	120	C6H-
74.0038	29	C5N-
93.0146	999	C6H2F-
103.0063	12	C6HNO-
113.0209	166	C6H3F2-
130.9927	42	C3F5-
146.9875	220	C3F5O-
165.9703	27	C7HClNO2-
174.9597	205	C6H3Cl2NO-
201.9678	21	C8ClF3N-
211.031	14	C4H5F6N2O-
