Mass spectrum: Fensulfothion; LC-ESI-QFT; MS2; CE: 90; R=17500; [M+H]+
Name: Fensulfothion
Name: diethoxy-(4-methylsulfinylphenoxy)-sulfanylidene-lambda5-phosphane
Formula: C11H17O4PS2
Exact mass: 308.0306
SMILES: CCOP(=S)(OCC)OC1=CC=C(C=C1)S(C)=O
InChI: InChI=1S/C11H17O4PS2/c1-4-13-16(17,14-5-2)15-10-6-8-11(9-7-10)18(3)12/h6-9H,4-5H2,1-3H3
Instrument: Q Exactive Orbitrap (Thermo Scientific)
Instrument type: LC-ESI-QFT
Ms type: MS2
Ion mode: POSITIVE
Ionization: ESI
Fragmentation mode: HCD
Collision energy: 90
Resolution: 17500
Column name: Acquity BEH C18 1.7um, 2.1x150mm (Waters)
Retention time: 16.417 min
Base peak: 79.0212
Precursor m/z: 309.0379
Precursor type: [M+H]+
Precursor intensity: 19284746.375
m/z	relative intensity	assigned
51.023	1	C4H3+
53.0386	16	C4H5+
55.0178	3	C3H3O+
62.9899	40	CH3OS+
63.9436	4	S2+
64.9786	42	H2O2P+
65.0385	26	C5H5+
66.0464	75	C5H6+
67.0541	10	C5H7+
68.9793	3	C3HS+
69.9872	11	C3H2S+
70.995	4	C3H3S+
77.0383	5	C6H5+
78.0464	22	C6H6+
78.9671	6	CH3S2+
79.0178	3	C5H3O+
79.0542	6	C6H7+
80.0259	1	C5H4O+
81.0335	22	C5H5O+
84.0028	24	C4H4S+
85.0106	17	C4H5S+
91.0542	21	C7H7+
92.0256	7	C6H4O+
92.0621	4	C7H8+
94.0413	999	C6H6O+
94.995	8	C5H3S+
95.0491	40	C6H7O+
96.0028	49	C5H4S+
96.9508	14	H2O2PS+
97.0107	90	C5H5S+
98.9841	185	H4O4P+
104.0621	2	C8H8+
105.0699	7	C8H9+
107.0491	23	C7H7O+
108.0028	32	C6H4S+
108.057	4	C7H8O+
109.0049	73	C2H6O3P+
109.0106	63	C6H5S+
109.0283	12	C6H5O2+
110.0185	593	C6H6S+
111.0262	56	C6H7S+
111.9977	7	C5H4OS+
113.0055	26	C5H5OS+
114.9613	377	H4O3PS+
116.9947	2	CH10PS2+
120.0571	1	C8H8O+
121.0106	4	C7H5S+
121.0643	1	C8H9O+
122.0187	2	C7H6S+
122.9899	4	C6H3OS+
123.0263	19	C7H7S+
123.9977	10	C6H4OS+
124.0341	16	C7H8S+
125.0055	525	C6H5OS+
126.0134	2	C6H6OS+
126.9669	9	C5H3S2+
127.0213	1	C6H7OS+
127.9749	8	C5H4S2+
127.9925	7	C5H4O2S+
128.9769	11	CH6O3PS+
128.9826	8	C5H5S2+
132.9717	3	H6O4PS+
134.0182	1	C8H6S+
135.0265	2	C8H7S+
136.0338	2	C8H8S+
137.0056	3	C7H5OS+
138.0498	1	C8H10S+
139.0213	348	C7H7OS+
140.029	900	C7H8OS+
140.9827	320	C6H5S2+
141.0003	214	C6H5O2S+
142.0082	388	C6H6O2S+
142.9983	2	C6H7S2+
146.9871	2	CH8O4PS+
152.9827	1	C7H5S2+
153.0369	2	C8H9OS+
154.9715	14	C6H4OPS+
154.9984	279	C7H7S2+
155.9698	112	C6H4OS2+
156.0061	433	C7H8S2+
156.9776	134	C6H5OS2+
157.0317	83	C7H9O2S+
157.9854	181	C6H6OS2+
168.06	1	C9H12OS+
169.0136	2	C8H9S2+
170.9932	3	C7H7OS2+
171.9741	40	C6H5O2PS+
172.0011	12	C7H8OS2+
173.0089	23	C7H9OS2+
174.0076	33	C6H7O4P+
185.99	19	C7H7O2PS+
186.9609	7	C6H4O3PS+
187.969	12	C6H5O3PS+
188.9773	2	C6H6O3PS+
189.9848	3	C6H7O3PS+
202.9926	20	C7H8O3PS+
203.9643	2	C6H5O4PS+
204.9713	1	C6H6O4PS+
217.9618	19	C7H7O2PS2+
219.9412	12	C6H5O3PS2+
219.9953	51	C7H9O4PS+
220.9672	1	C10H6PS2+
221.9746	36	C10H7PS2+
234.9641	8	C7H8O3PS2+
235.9724	2	C7H9O3PS2+
236.9978	12	C11H10PS2+
237.9518	4	C6H7O4PS2+
249.9875	2	C8H11O3PS2+
251.9678	2	C7H9O4PS2+
