Mass spectrum: Kinetin; LC-ESI-QFT; MS2; CE: 45; R=17500; [M+H]+
Name: Kinetin
Name: N-(furan-2-ylmethyl)-7H-purin-6-amine
Formula: C10H9N5O
Exact mass: 215.0807
SMILES: C(NC1=C2N=CN=C2N=CN1)C1=CC=CO1
InChI: InChI=1S/C10H9N5O/c1-2-7(16-3-1)4-11-9-8-10(13-5-12-8)15-6-14-9/h1-3,5-6H,4H2,(H2,11,12,13,14,15)
Instrument: Q Exactive Orbitrap (Thermo Scientific)
Instrument type: LC-ESI-QFT
Ms type: MS2
Ion mode: POSITIVE
Ionization: ESI
Fragmentation mode: HCD
Collision energy: 45
Resolution: 17500
Column name: Acquity BEH C18 1.7um, 2.1x150mm (Waters)
Retention time: 11.252 min
Base peak: 79.0211
Precursor m/z: 216.088
Precursor type: [M+H]+
Precursor intensity: 11771875.125
m/z	relative intensity	assigned
53.0386	21	C4H5+
81.0334	999	C5H5O+
119.0352	1	C5H3N4+
135.0663	2	C6H7N4+
136.0617	21	C5H6N5+
137.0457	1	C5H5N4O+
148.0617	102	C6H6N5+
161.082	1	C8H9N4+
162.0775	1	C7H8N5+
171.0663	5	C9H7N4+
173.0695	19	C8H7N5+
188.093	49	C9H10N5+
198.0772	3	C10H8N5+
216.0879	57	C10H10N5O+
