Mass spectrum: Mecarbam; LC-ESI-QFT; MS2; CE: 30; R=17500; [M+H]+
Name: Mecarbam
Name: ethyl N-(2-diethoxyphosphinothioylsulfanylacetyl)-N-methylcarbamate
Formula: C10H20NO5PS2
Exact mass: 329.0521
SMILES: CCOC(=O)N(C)C(=O)CSP(=S)(OCC)OCC
InChI: InChI=1S/C10H20NO5PS2/c1-5-14-10(13)11(4)9(12)8-19-17(18,15-6-2)16-7-3/h5-8H2,1-4H3
Instrument: Q Exactive Orbitrap (Thermo Scientific)
Instrument type: LC-ESI-QFT
Ms type: MS2
Ion mode: POSITIVE
Ionization: ESI
Fragmentation mode: HCD
Collision energy: 30
Resolution: 17500
Column name: Acquity BEH C18 1.7um, 2.1x150mm (Waters)
Retention time: 17.986 min
Base peak: 79.0211
Precursor m/z: 330.0593
Precursor type: [M+H]+
Precursor intensity: 7420735
m/z	relative intensity	assigned
114.9613	784	H4O3PS+
116.0343	999	C4H6NO3+
132.0114	468	C4H6NO2S+
142.9385	667	CH4O2PS2+
156.9548	230	C2H6O2PS2+
170.97	944	C3H8O2PS2+
171.024	452	C4H12O3PS+
198.9646	704	C4H8O3PS2+
199.0012	538	C5H12O2PS2+
226.9955	265	C6H12O3PS2+
