Mass spectrum: Azathioprine; LC-ESI-QFT; MS2; CE: 15; R=17500; [M-H]-
Name: Azathioprine
Name: 6-(3-methyl-5-nitroimidazol-4-yl)sulfanyl-7H-purine
Formula: C9H7N7O2S
Exact mass: 277.0382
SMILES: CN1C=NC(=C1SC1=NC=NC2=C1NC=N2)[N+]([O-])=O
InChI: InChI=1S/C9H7N7O2S/c1-15-4-14-7(16(17)18)9(15)19-8-5-6(11-2-10-5)12-3-13-8/h2-4H,1H3,(H,10,11,12,13)
Instrument: Q Exactive Orbitrap (Thermo Scientific)
Instrument type: LC-ESI-QFT
Ms type: MS2
Ion mode: NEGATIVE
Ionization: ESI
Fragmentation mode: HCD
Collision energy: 15
Resolution: 17500
Column name: Acquity BEH C18 1.7um, 2.1x150mm (Waters)
Retention time: 10.668 min
Base peak: 276.0308
Precursor m/z: 276.0309
Precursor type: [M-H]-
Precursor intensity: 16139312.75977
m/z	relative intensity	assigned
117.021	1	C5HN4-
134.0234	2	C5H2N4O-
138.9845	1	C4HN3OS-
150.0009	1	C5H2N4S-
215.0149	2	C8H3N6S-
229.0302	6	C9H5N6S-
230.038	4	C9H6N6S-
276.0308	999	C9H6N7O2S-
