Mass spectrum: Betamethasone; LC-ESI-QFT; MS2; CE: 75; R=17500; [M+H]+
Name: Betamethasone
Name: (8S,9R,10S,11S,13S,14S,16S,17R)-9-fluoro-11,17-dihydroxy-17-(2-hydroxyacetyl)-10,13,16-trimethyl-6,7,8,11,12,14,15,16-octahydrocyclopenta[a]phenanthren-3-one
Formula: C22H29FO5
Exact mass: 392.1999
SMILES: C[C@H]1C[C@H]2[C@@H]3CCC4=CC(=O)C=C[C@]4(C)[C@@]3(F)[C@@H](O)C[C@]2(C)[C@@]1(O)C(=O)CO
InChI: InChI=1S/C22H29FO5/c1-12-8-16-15-5-4-13-9-14(25)6-7-19(13,2)21(15,23)17(26)10-20(16,3)22(12,28)18(27)11-24/h6-7,9,12,15-17,24,26,28H,4-5,8,10-11H2,1-3H3/t12-,15-,16-,17-,19-,20-,21-,22-/m0/s1
Instrument: Q Exactive Orbitrap (Thermo Scientific)
Instrument type: LC-ESI-QFT
Ms type: MS2
Ion mode: POSITIVE
Ionization: ESI
Fragmentation mode: HCD
Collision energy: 75
Resolution: 17500
Column name: Acquity BEH C18 1.7um, 2.1x150mm (Waters)
Retention time: 16.590 min
Base peak: 79.0212
Precursor m/z: 393.2072
Precursor type: [M+H]+
Precursor intensity: 3236495.75
m/z	relative intensity	assigned
55.0543	114	C4H7+
67.0543	225	C5H7+
79.0543	226	C6H7+
91.0544	999	C7H7+
93.0704	317	C7H9+
95.0493	366	C6H7O+
95.0858	221	C7H11+
105.0338	441	C7H5O+
105.07	733	C8H9+
107.0857	300	C8H11+
109.0649	157	C7H9O+
115.0544	209	C9H7+
117.0702	180	C9H9+
119.0856	586	C9H11+
121.0649	750	C8H9O+
128.0623	486	C10H8+
129.0701	215	C10H9+
131.0857	175	C10H11+
132.0574	225	C9H8O+
135.0805	121	C9H11O+
141.0702	320	C11H9+
143.0861	348	C11H11+
145.065	290	C10H9O+
147.0808	581	C10H11O+
153.0888	118	C9H13O2+
158.0729	231	C11H10O+
159.0808	353	C11H11O+
167.0859	131	C13H11+
171.0806	326	C12H11O+
178.0778	180	C14H10+
179.0861	143	C14H11+
181.065	216	C13H9O+
185.0972	157	C10H14FO2+
195.0809	201	C14H11O+
203.0857	112	C16H11+
209.0965	206	C15H13O+
222.104	201	C16H14O+
