Mass spectrum: 5,7-Dimethoxy-2H-chromen-2-one; LC-ESI-QFT; MS2; CE: 45; R=17500; [M+H]+
Name: 5,7-Dimethoxy-2H-chromen-2-one
Name: 5,7-dimethoxychromen-2-one
Formula: C11H10O4
Exact mass: 206.0579
SMILES: COC1=CC2=C(C=CC(=O)O2)C(OC)=C1
InChI: InChI=1S/C11H10O4/c1-13-7-5-9(14-2)8-3-4-11(12)15-10(8)6-7/h3-6H,1-2H3
Instrument: Q Exactive Orbitrap (Thermo Scientific)
Instrument type: LC-ESI-QFT
Ms type: MS2
Ion mode: POSITIVE
Ionization: ESI
Fragmentation mode: HCD
Collision energy: 45
Resolution: 17500
Column name: Acquity BEH C18 1.7um, 2.1x150mm (Waters)
Retention time: 15.951 min
Base peak: 79.0211
Precursor m/z: 207.0652
Precursor type: [M+H]+
Precursor intensity: 13989878.75
m/z	relative intensity	assigned
53.0386	1	C4H5+
55.0179	1	C3H3O+
68.9972	1	C3HO2+
79.0542	7	C6H7+
81.0335	2	C5H5O+
83.0127	1	C4H3O2+
85.0284	4	C4H5O2+
91.0542	13	C7H7+
93.0699	2	C7H9+
95.0491	3	C6H7O+
103.0542	16	C8H7+
105.0335	2	C7H5O+
105.0699	9	C8H9+
107.049	1	C7H7O+
108.0568	2	C7H8O+
109.0648	1	C7H9O+
118.0413	13	C8H6O+
119.0491	9	C8H7O+
120.057	5	C8H8O+
121.0647	57	C8H9O+
123.0804	9	C8H11O+
131.0491	1	C9H7O+
132.057	2	C9H8O+
133.0284	2	C8H5O2+
133.0647	18	C9H9O+
135.0439	1	C8H7O2+
135.0803	3	C9H11O+
136.052	3	C8H8O2+
137.0599	1	C8H9O2+
139.0753	24	C8H11O2+
147.0439	3	C9H7O2+
148.0518	52	C9H8O2+
149.0231	3	C8H5O3+
149.0599	3	C9H9O2+
151.0753	158	C9H11O2+
153.0546	4	C8H9O3+
162.0311	1	C9H6O3+
163.0391	13	C9H7O3+
163.0753	176	C10H11O2+
164.0467	82	C9H8O3+
175.0388	2	C10H7O3+
179.0702	32	C10H11O3+
191.034	2	C10H7O4+
192.0416	232	C10H8O4+
207.065	999	C11H11O4+
