Mass spectrum: tert-Butyl 4-hydroxybenzoate; LC-ESI-QFT; MS2; CE: 15; R=17500; [M-H]-
Name: tert-Butyl 4-hydroxybenzoate
Formula: C11H14O3
Exact mass: 194.0943
SMILES: CC(C)(C)OC(=O)C1=CC=C(O)C=C1
InChI: InChI=1S/C11H14O3/c1-11(2,3)14-10(13)8-4-6-9(12)7-5-8/h4-7,12H,1-3H3
Instrument: Q Exactive Orbitrap (Thermo Scientific)
Instrument type: LC-ESI-QFT
Ms type: MS2
Ion mode: NEGATIVE
Ionization: ESI
Fragmentation mode: HCD
Collision energy: 15
Resolution: 17500
Column name: Acquity BEH C18 1.7um, 2.1x150mm (Waters)
Retention time: 17.101 min
Base peak: 329.0853
Precursor m/z: 193.087
Precursor type: [M-H]-
Precursor intensity: 32702063.30859
m/z	relative intensity	assigned
92.0268	7	C6H4O-
93.0346	174	C6H5O-
95.0139	5	C5H3O2-
108.0217	3	C6H4O2-
120.0219	1	C7H4O2-
136.0167	137	C7H4O3-
137.0244	999	C7H5O3-
149.0974	1	C10H13O-
193.087	967	C11H13O3-
