Mass spectrum: PharmaGSID_48511; LC-ESI-QFT; MS2; CE: 75; R=17500; [M+H]+
Name: PharmaGSID_48511
Name: 4-[(9-cyclopentyl-7,7-difluoro-5-methyl-6-oxo-8H-pyrimido[4,5-b][1,4]diazepin-2-yl)amino]-3-methoxy-N-(1-methylpiperidin-4-yl)benzamide
Formula: C27H35F2N7O3
Exact mass: 543.2769
SMILES: COC1=C(NC2=NC3=C(C=N2)N(C)C(=O)C(F)(F)CN3C2CCCC2)C=CC(=C1)C(=O)NC1CCN(C)CC1
InChI: InChI=1S/C27H35F2N7O3/c1-34-12-10-18(11-13-34)31-24(37)17-8-9-20(22(14-17)39-3)32-26-30-15-21-23(33-26)36(19-6-4-5-7-19)16-27(28,29)25(38)35(21)2/h8-9,14-15,18-19H,4-7,10-13,16H2,1-3H3,(H,31,37)(H,30,32,33)
Instrument: Q Exactive Orbitrap (Thermo Scientific)
Instrument type: LC-ESI-QFT
Ms type: MS2
Ion mode: POSITIVE
Ionization: ESI
Fragmentation mode: HCD
Collision energy: 75
Resolution: 17500
Column name: Acquity BEH C18 1.7um, 2.1x150mm (Waters)
Retention time: 14.825 min
Base peak: 79.0211
Precursor m/z: 544.2842
Precursor type: [M+H]+
Precursor intensity: 9288825.875
m/z	relative intensity	assigned
53.0023	1	C3HO+
53.0387	2	C4H5+
54.0338	1	C3H4N+
55.0543	18	C4H7+
56.0495	1	C3H6N+
65.0386	3	C5H5+
67.0543	13	C5H7+
68.0496	2	C4H6N+
69.0448	2	C3H5N2+
69.0699	11	C5H9+
70.0651	24	C4H8N+
80.0494	6	C5H6N+
82.0652	6	C5H8N+
92.0307	3	C3H4F2N+
92.0369	1	C5H4N2+
92.0495	1	C6H6N+
93.0449	3	C5H5N2+
94.0401	2	C4H4N3+
95.0366	1	C5H5NO+
96.0558	2	C4H6N3+
96.0808	11	C6H10N+
97.0885	1	C6H11N+
98.0964	17	C6H12N+
99.0352	1	C4H4FN2+
104.0308	1	C4H4F2N+
104.0495	1	C7H6N+
105.0336	2	C7H5O+
105.0449	4	C6H5N2+
107.0479	3	C5H5N3+
108.0555	1	C5H6N3+
116.0305	1	C5H4F2N+
118.0648	1	C3H7FN4+
119.048	3	C6H5N3+
119.0606	3	C7H7N2+
120.0256	2	C4H4F2NO+
120.0556	5	C6H6N3+
121.0509	3	C5H5N4+
121.0635	4	C6H7N3+
122.0588	5	C5H6N4+
131.0417	2	C5H5F2N2+
133.0576	1	C5H7F2N2+
135.0666	3	C6H7N4+
143.0604	1	C9H7N2+
144.0497	1	C6H6F2N2+
145.0511	2	C7H5N4+
145.0637	1	C8H7N3+
146.0591	2	C7H6N4+
156.0558	1	C9H6N3+
157.0446	2	C6H5F2N3+
158.0716	3	C9H8N3+
160.0614	1	C7H6N5+
161.0519	2	C6H7F2N2O+
161.0587	2	C8H7N3O+
165.0407	9	C6H5N4O2+
165.0573	3	C12H7N+
166.041	3	C2H4F2N6O+
171.0793	3	C10H9N3+
172.051	1	C9H6N3O+
173.0701	3	C8H7N5+
174.0666	3	C9H8N3O+
174.0774	5	C8H8N5+
175.0494	1	C7H5N5O+
177.0573	4	C13H7N+
182.0594	1	C2H6F2N7O+
183.0668	4	C10H7N4+
184.0747	3	C10H8N4+
185.0634	5	C12H8FN+
185.0823	4	C10H9N4+
186.0716	14	C12H9FN+
187.0537	1	C5H5F2N6+
195.0667	4	C11H7N4+
196.0751	1	C3H8F2N7O+
197.0632	3	C8H7F2N4+
198.0775	15	C10H8N5+
199.0621	1	C2H7F2N7O2+
199.0854	8	C10H9N5+
207.0593	2	C10H7F2N3+
210.0778	8	C11H8N5+
212.0568	9	C10H6N5O+
213.0574	3	C16H7N+
213.1011	2	C11H11N5+
214.0661	48	C8H8F2N4O+
216.0803	3	C6H8F2N7+
221.0634	1	C10H7F2N4+
222.0772	2	C9H10N4O3+
223.0858	8	C12H9N5+
224.0731	3	C9H8F2N5+
224.0931	6	C12H10N5+
225.0646	5	C11H7N5O+
225.0774	4	C12H9N4O+
225.1011	1	C12H11N5+
226.0725	47	C11H8N5O+
227.0808	44	C8H10FN5O2+
227.0923	2	C7H10FN7O+
229.0533	187	C13H8FNO2+
231.0689	9	C13H10FNO2+
234.0718	4	C16H9FN+
236.0572	2	C12H6N5O+
236.0932	1	C13H10N5+
238.0726	3	C12H8N5O+
238.1089	3	C13H12N5+
240.0518	4	C11H6N5O2+
240.0675	3	C12H7FN5+
240.0888	20	C9H11FN5O2+
241.0758	4	C12H8FN5+
241.0898	2	C15H12FNO+
242.0604	4	C17H8NO+
242.1041	3	C12H12N5O+
243.0682	8	C17H9NO+
243.0914	28	C12H10FN5+
246.056	88	C13H9FNO3+
247.0793	3	C17H10FN+
249.0578	2	C11H7F2N4O+
252.0684	2	C18H8N2+
252.0881	2	C13H10N5O+
253.09	14	C16H12FNO+
254.0674	14	C12H8N5O2+
254.0836	5	C13H9FN5+
254.0987	3	C13H14F2NO2+
255.0756	62	C12H9N5O2+
256.0628	18	C12H7FN5O+
256.0759	1	C18H10NO+
256.0992	2	C13H11FN5+
256.119	2	C13H14N5O+
257.0836	11	C18H11NO+
261.0581	1	C12H7F2N4O+
262.0664	7	C17H9FNO+
262.09	15	C17H11FN2+
263.0975	13	C12H11F2N5+
265.0768	2	C11H9F2N5O+
265.0898	25	C17H12FNO+
266.104	3	C14H12N5O+
267.0915	3	C14H10FN5+
268.0829	8	C13H10N5O2+
269.0912	2	C13H11N5O2+
270.0549	2	C18H8NO2+
270.0794	19	C10H10F2N5O2+
270.0986	12	C13H12N5O2+
271.0641	2	C13H7F2N5+
272.0945	4	C18H12N2O+
276.0692	11	C12H8F2N5O+
276.083	3	C15H12F2NO2+
278.0674	2	C14H8N5O2+
279.0924	13	C12H11F2N5O+
282.1289	10	C18H17FNO+
283.07	1	C13H9N5O3+
286.0864	2	C19H12NO2+
287.0801	1	C16H9N5O+
291.0709	21	C15H11F2NO3+
292.1007	3	C18H13FN2O+
294.134	2	C16H16N5O+
297.0667	1	C11H9F2N5O3+
297.116	7	C18H16FNO2+
302.085	20	C19H11FN2O+
304.1005	44	C14H12F2N5O+
306.0985	1	C19H12F2N2+
314.1188	3	C18H17FNO3+
316.1004	1	C15H12F2N5O+
318.0801	17	C19H11FN2O2+
319.0877	999	C19H12FN2O2+
320.1324	3	C20H17FN2O+
330.0795	9	C15H10F2N5O2+
334.1111	97	C20H15FN2O2+
346.1111	6	C21H15FN2O2+
347.0834	1	C20H12FN2O3+
362.106	30	C16H14F2N5O3+
403.1458	2	C24H20FN2O3+
430.169	3	C26H23FN2O3+
