Mass spectrum: GSK163929B; LC-ESI-QFT; MS2; CE: 30; R=17500; [M+H]+
Name: GSK163929B
Name: 4-chloro-2-fluoro-5-[4-(3-fluorophenyl)-4-[2-[3-(2-methylbenzimidazol-1-yl)-8-azabicyclo[3.2.1]octan-8-yl]ethyl]piperidine-1-carbonyl]-N-methylbenzenesulfonamide
Formula: C36H40ClF2N5O3S
Exact mass: 695.2508
SMILES: CNS(=O)(=O)C1=C(F)C=C(Cl)C(=C1)C(=O)N1CCC(CCN2C3CCC2CC(C3)N2C(C)=NC3=C2C=CC=C3)(CC1)C1=CC(F)=CC=C1
InChI: InChI=1S/C36H40ClF2N5O3S/c1-23-41-32-8-3-4-9-33(32)44(23)28-19-26-10-11-27(20-28)43(26)17-14-36(24-6-5-7-25(38)18-24)12-15-42(16-13-36)35(45)29-21-34(48(46,47)40-2)31(39)22-30(29)37/h3-9,18,21-22,26-28,40H,10-17,19-20H2,1-2H3
Instrument: Q Exactive Orbitrap (Thermo Scientific)
Instrument type: LC-ESI-QFT
Ms type: MS2
Ion mode: POSITIVE
Ionization: ESI
Fragmentation mode: HCD
Collision energy: 30
Resolution: 17500
Column name: Acquity BEH C18 1.7um, 2.1x150mm (Waters)
Retention time: 13.147 min
Base peak: 79.0211
Precursor m/z: 696.2581
Precursor type: [M+H]+
Precursor intensity: 6404190.375
m/z	relative intensity	assigned
58.0651	3	C3H8N+
70.065	11	C4H8N+
93.0699	11	C7H9+
95.0855	4	C7H11+
96.0807	3	C6H10N+
110.0964	5	C7H12N+
124.112	3	C8H14N+
133.0759	8	C8H9N2+
138.1276	159	C9H16N+
149.0761	3	C4H18ClOS+
150.1276	23	C10H16N+
161.076	14	ClFH17N3OS+
187.0917	3	C13H12F+
249.9734	136	C3H5ClF2N4O3S+
279	8	C15HF2N2O2+
427.0689	78	C19H18ClF2N2O3S+
536.1582	18	C26H29ClF2N3O3S+
564.1895	999	C33H34ClFO3S+
