Mass spectrum: Fosthiazate; LC-ESI-QFT; MS2; CE: 75; R=17500; [M+H]+
Name: Fosthiazate
Name: 3-[butan-2-ylsulfanyl(ethoxy)phosphoryl]-1,3-thiazolidin-2-one
Formula: C9H18NO3PS2
Exact mass: 283.0466
SMILES: CCOP(=O)(SC(C)CC)N1CCSC1=O
InChI: InChI=1S/C9H18NO3PS2/c1-4-8(3)16-14(12,13-5-2)10-6-7-15-9(10)11/h8H,4-7H2,1-3H3
Instrument: Q Exactive Orbitrap (Thermo Scientific)
Instrument type: LC-ESI-QFT
Ms type: MS2
Ion mode: POSITIVE
Ionization: ESI
Fragmentation mode: HCD
Collision energy: 75
Resolution: 17500
Column name: Acquity BEH C18 1.7um, 2.1x150mm (Waters)
Retention time: 15.929 min
Base peak: 79.0211
Precursor m/z: 284.0538
Precursor type: [M+H]+
Precursor intensity: 6034451
m/z	relative intensity	assigned
55.0543	5	C4H7+
57.0699	18	C4H9+
58.995	5	C2H3S+
61.0107	46	C2H5S+
74.0057	3	C2H4NS+
76.0216	47	C2H6NS+
94.9173	4	PS2+
96.9508	4	H2O2PS+
104.0165	999	C3H6NOS+
114.9614	80	H4O3PS+
119.9938	12	C3H6NS2+
120.9334	5	C2H2PS2+
121.9826	5	C2H5NOPS+
124.016	8	C2H7NO3P+
137.9597	58	C2H5NPS2+
139.9933	9	C2H7NO2PS+
154.0654	11	C5H14O3S+
155.0687	13	C8H11O3+
171.9652	9	C2H7NO2PS2+
183.0876	8	C7H19OS2+
199.0825	8	C7H19O2S2+
