Mass spectrum: Propyl gallate; LC-ESI-QFT; MS2; CE: 60; R=17500; [M-H]-
Name: Propyl gallate
Name: propyl 3,4,5-trihydroxybenzoate
Formula: C10H12O5
Exact mass: 212.0685
SMILES: CCCOC(=O)C1=CC(O)=C(O)C(O)=C1
InChI: InChI=1S/C10H12O5/c1-2-3-15-10(14)6-4-7(11)9(13)8(12)5-6/h4-5,11-13H,2-3H2,1H3
Instrument: Q Exactive Orbitrap (Thermo Scientific)
Instrument type: LC-ESI-QFT
Ms type: MS2
Ion mode: NEGATIVE
Ionization: ESI
Fragmentation mode: HCD
Collision energy: 60
Resolution: 17500
Column name: Acquity BEH C18 1.7um, 2.1x150mm (Waters)
Retention time: 14.149 min
Base peak: 211.0612
Precursor m/z: 211.0612
Precursor type: [M-H]-
Precursor intensity: 29762919.43652
m/z	relative intensity	assigned
53.0032	3	C3HO-
55.0189	9	C3H3O-
57.0345	6	C3H5O-
58.006	3	C2H2O2-
59.0139	6	C2H3O2-
60.9932	3	CHO3-
65.0033	37	C4HO-
66.0111	1	C4H2O-
67.019	42	C4H3O-
68.9982	29	C3HO2-
69.0346	42	C4H5O-
71.0139	38	C3H3O2-
72.9931	43	C2HO3-
78.0111	10	C5H2O-
79.019	10	C5H3O-
80.0268	2	C5H4O-
81.0346	15	C5H5O-
82.0061	22	C4H2O2-
83.0139	55	C4H3O2-
84.9931	7	C3HO3-
86.0009	9	C3H2O3-
87.0088	21	C3H3O3-
95.0138	33	C5H3O2-
96.9931	15	C4HO3-
97.0295	39	C5H5O2-
99.0088	13	C4H3O3-
100.0167	1	C4H4O3-
100.988	2	C3HO4-
106.006	27	C6H2O2-
107.0138	6	C6H3O2-
108.9929	1	C5HO3-
110.0009	62	C5H2O3-
111.0088	338	C5H3O3-
112.9881	6	C4HO4-
123.0088	88	C6H3O3-
124.0166	217	C6H4O3-
125.0244	999	C6H5O3-
127.0037	145	C5H3O4-
136.988	234	C6HO4-
138.0325	1	C7H6O3-
139.0037	348	C6H3O4-
140.0115	555	C6H4O4-
141.0201	2	C6H5O4-
141.9907	3	C5H2O5-
151.0036	13	C7H3O4-
153.0192	4	C7H5O4-
154.9986	46	C6H3O5-
168.0065	67	C7H4O5-
169.0143	209	C7H5O5-
211.0612	80	C10H11O5-
