Mass spectrum: CP-544439; LC-ESI-QFT; MS2; CE: 45; R=17500; [M-H]-
Name: CP-544439
Name: 2H-Pyran-4-carboxamide, 4-(((4-(4-fluorophenoxy)phenyl)sulfonyl)amino)tetrahydro-N-hydroxy-
Name: 4-[[4-(4-fluorophenoxy)phenyl]sulfonylamino]-N-hydroxyoxane-4-carboxamide
Formula: C18H19FN2O6S
Exact mass: 410.0948
SMILES: ONC(=O)C1(CCOCC1)NS(=O)(=O)C1=CC=C(OC2=CC=C(F)C=C2)C=C1
InChI: InChI=1S/C18H19FN2O6S/c19-13-1-3-14(4-2-13)27-15-5-7-16(8-6-15)28(24,25)21-18(17(22)20-23)9-11-26-12-10-18/h1-8,21,23H,9-12H2,(H,20,22)
Instrument: Q Exactive Orbitrap (Thermo Scientific)
Instrument type: LC-ESI-QFT
Ms type: MS2
Ion mode: NEGATIVE
Ionization: ESI
Fragmentation mode: HCD
Collision energy: 45
Resolution: 17500
Column name: Acquity BEH C18 1.7um, 2.1x150mm (Waters)
Retention time: 15.940 min
Base peak: 409.0876
Precursor m/z: 409.0875
Precursor type: [M-H]-
Precursor intensity: 4669374.004395
m/z	relative intensity	assigned
57.9934	7	CNO2-
61.9706	2	NOS-
63.9624	3	O2S-
77.9654	5	NO2S-
78.035	13	C5H4N-
78.9734	2	HNO2S-
79.9812	21	H2NO2S-
93.0345	1	C6H5O-
94.0299	4	C5H4NO-
95.0303	7	C6H4F-
106.0298	29	C6H4NO-
107.0376	114	C6H5NO-
108.0217	3	C6H4O2-
110.0248	1	C5H4NO2-
111.0248	3	C6H4FO-
112.0404	44	C5H6NO2-
121.0457	1	C8H6F-
142.051	4	C6H8NO3-
144.0664	1	C6H10NO3-
147.0619	1	C10H8F-
160.0569	4	C10H7FN-
161.0408	1	C10H6FO-
170.9996	2	C6H5NO3S-
172.0074	3	C6H6NO3S-
174.0724	2	C11H9FN-
175.0564	5	C11H8FO-
187.0564	19	C12H8FO-
200.0516	1	C12H7FNO-
201.0596	4	C12H8FNO-
201.0721	7	C13H10FO-
202.0673	57	C12H9FNO-
231.0465	1	C13H8FO3-
251.0183	12	C12H8FO3S-
266.0292	999	C12H9FNO3S-
318.0609	2	C16H13FNO3S-
