Mass spectrum: UK-343664; LC-ESI-QFT; MS2; CE: 45; R=17500; [M+H]+
Name: UK-343664
Name: 3-ethyl-5-[5-(4-ethylpiperazin-1-yl)sulfonyl-2-propoxyphenyl]-2-(pyridin-2-ylmethyl)-4H-pyrazolo[4,3-d]pyrimidin-7-one
Formula: C28H35N7O4S
Exact mass: 565.2471
SMILES: CCCOC1=C(C=C(C=C1)S(=O)(=O)N1CCN(CC)CC1)C1=NC2=C(CC)N(CC3=CC=CC=N3)N=C2C(=O)N1
InChI: InChI=1S/C28H35N7O4S/c1-4-17-39-24-11-10-21(40(37,38)34-15-13-33(6-3)14-16-34)18-22(24)27-30-25-23(5-2)35(32-26(25)28(36)31-27)19-20-9-7-8-12-29-20/h7-12,18H,4-6,13-17,19H2,1-3H3,(H,30,31,36)
Instrument: Q Exactive Orbitrap (Thermo Scientific)
Instrument type: LC-ESI-QFT
Ms type: MS2
Ion mode: POSITIVE
Ionization: ESI
Fragmentation mode: HCD
Collision energy: 45
Resolution: 17500
Column name: Acquity BEH C18 1.7um, 2.1x150mm (Waters)
Retention time: 14.203 min
Base peak: 79.0211
Precursor m/z: 566.2544
Precursor type: [M+H]+
Precursor intensity: 5121003.9375
m/z	relative intensity	assigned
56.0494	82	C3H6N+
57.0573	68	C3H7N+
58.0651	424	C3H8N+
65.0385	18	C5H5+
70.0651	91	C4H8N+
71.0729	63	C4H9N+
72.0807	999	C4H10N+
80.0494	11	C5H6N+
82.0651	5	C5H8N+
83.0603	9	C4H7N2+
84.0681	30	C4H8N2+
84.0807	121	C5H10N+
85.0761	11	C4H9N2+
92.0493	17	C6H6N+
93.0573	123	C6H7N+
94.0651	46	C6H8N+
96.0682	2	C5H8N2+
96.0805	3	C6H10N+
97.0761	6	C5H9N2+
98.0802	2	H10N4O2+
98.0838	50	C5H10N2+
99.0916	261	C5H11N2+
106.065	1	C7H8N+
110.06	202	C6H8NO+
111.0916	49	C6H11N2+
112.0994	14	C6H12N2+
113.1072	414	C6H13N2+
114.1151	40	C6H14N2+
115.1229	34	C6H15N2+
117.057	2	C8H7N+
124.0756	2	C7H10NO+
134.0602	1	C8H8NO+
145.0648	4	C10H9O+
161.0595	1	C10H9O2+
177.0692	4	C6H13N2O2S+
182.0601	3	C12H8NO+
184.0757	1	C12H10NO+
209.0707	11	C13H9N2O+
212.0818	1	C12H10N3O+
213.1135	1	C12H13N4+
225.077	4	C12H9N4O+
226.0852	9	C12H10N4O+
227.093	1	C12H11N4O+
239.0925	7	C13H11N4O+
247.1191	2	C12H15N4O2+
253.0718	34	C13H9N4O2+
254.0796	61	C13H10N4O2+
255.0875	19	C13H11N4O2+
263.0925	2	C15H11N4O+
267.0875	19	C14H11N4O2+
269.0671	3	C13H9N4O3+
269.1035	6	C14H13N4O2+
271.083	2	C13H11N4O3+
283.0823	13	C14H11N4O3+
286.0697	9	C13H10N4O4+
295.1191	12	C16H15N4O2+
296.1265	18	C16H16N4O2+
318.1351	60	C18H16N5O+
319.1184	10	C10H19N6O4S+
328.117	48	C16H16N4O4+
330.0986	2	C18H12N5O2+
346.1297	415	C19H16N5O2+
348.1448	16	C11H22N7O4S+
362.1245	273	C19H16N5O3+
379.1268	10	C25H19N2S+
389.1857	13	C24H25N2O3+
390.1926	11	C22H24N5O2+
404.1721	3	C22H22N5O3+
421.1742	31	C22H23N5O4+
538.2231	5	C26H32N7O4S+
566.2539	11	C28H36N7O4S+
