Mass spectrum: Oxfendazole; LC-ESI-QFT; MS2; CE: 15; R=17500; [M-H]-
Name: Oxfendazole
Name: methyl N-[6-(benzenesulfinyl)-1H-benzimidazol-2-yl]carbamate
Formula: C15H13N3O3S
Exact mass: 315.0678
SMILES: COC(=O)NC1=NC2=C(N1)C=CC(=C2)S(=O)C1=CC=CC=C1
InChI: InChI=1S/C15H13N3O3S/c1-21-15(19)18-14-16-12-8-7-11(9-13(12)17-14)22(20)10-5-3-2-4-6-10/h2-9H,1H3,(H2,16,17,18,19)
Instrument: Q Exactive Orbitrap (Thermo Scientific)
Instrument type: LC-ESI-QFT
Ms type: MS2
Ion mode: NEGATIVE
Ionization: ESI
Fragmentation mode: HCD
Collision energy: 15
Resolution: 17500
Column name: Acquity BEH C18 1.7um, 2.1x150mm (Waters)
Retention time: 14.468 min
Base peak: 194.0029
Precursor m/z: 314.0605
Precursor type: [M-H]-
Precursor intensity: 410411.4892578
m/z	relative intensity	assigned
204.9953	28	C8H3N3O2S-
237.0213	35	C9H7N3O3S-
282.0344	506	C14H8N3O2S-
314.0607	999	C15H12N3O3S-
