Mass spectrum: 4-Nitro-N-phenylaniline; LC-ESI-QFT; MS2; CE: 75; R=17500; [M-H]-
Name: 4-Nitro-N-phenylaniline
Name: 4-Nitrodiphenylamine
Formula: C12H10N2O2
Exact mass: 214.0742
SMILES: [O-][N+](=O)C1=CC=C(NC2=CC=CC=C2)C=C1
InChI: InChI=1S/C12H10N2O2/c15-14(16)12-8-6-11(7-9-12)13-10-4-2-1-3-5-10/h1-9,13H
Instrument: Q Exactive Orbitrap (Thermo Scientific)
Instrument type: LC-ESI-QFT
Ms type: MS2
Ion mode: NEGATIVE
Ionization: ESI
Fragmentation mode: HCD
Collision energy: 75
Resolution: 17500
Column name: Acquity BEH C18 1.7um, 2.1x150mm (Waters)
Retention time: 17.870 min
Base peak: 213.067
Precursor m/z: 213.067
Precursor type: [M-H]-
Precursor intensity: 29545630.36133
m/z	relative intensity	assigned
90.0349	85	C6H4N-
93.0346	308	C6H5O-
107.0377	162	C6H5NO-
116.0508	60	C8H6N-
119.025	16	C6H3N2O-
122.0247	104	C6H4NO2-
137.0357	794	C6H5N2O2-
140.0508	34	C10H6N-
153.0586	71	C11H7N-
154.0662	186	C11H8N-
165.0584	17	C12H7N-
166.0662	515	C12H8N-
167.062	25	C11H7N2-
167.0741	29	C12H9N-
168.0454	62	C11H6NO-
170.0613	177	C11H8NO-
181.0534	593	C12H7NO-
182.0611	720	C12H8NO-
183.069	840	C12H9NO-
195.0562	24	C12H7N2O-
198.0561	63	C12H8NO2-
211.0514	406	C12H7N2O2-
213.067	999	C12H9N2O2-
