Mass spectrum: GSK232420A; LC-ESI-QFT; MS2; CE: 30; R=17500; [M-H]-
Name: GSK232420A
Name: 2-[4-cyano-N-(2,2,2-trifluoroethyl)-3-(trifluoromethyl)anilino]acetamide
Formula: C12H9F6N3O
Exact mass: 325.0650
SMILES: NC(=O)CN(CC(F)(F)F)C1=CC(=C(C=C1)C#N)C(F)(F)F
InChI: InChI=1S/C12H9F6N3O/c13-11(14,15)6-21(5-10(20)22)8-2-1-7(4-19)9(3-8)12(16,17)18/h1-3H,5-6H2,(H2,20,22)
Instrument: Q Exactive Orbitrap (Thermo Scientific)
Instrument type: LC-ESI-QFT
Ms type: MS2
Ion mode: NEGATIVE
Ionization: ESI
Fragmentation mode: HCD
Collision energy: 30
Resolution: 17500
Column name: Acquity BEH C18 1.7um, 2.1x150mm (Waters)
Retention time: 15.748 min
Base peak: 284.0451
Precursor m/z: 324.0577
Precursor type: [M-H]-
Precursor intensity: 3834444.790039
m/z	relative intensity	assigned
86.9999	6	C2FN2O-
93.0093	6	C4HN2O-
113.0157	241	C4H2FN2O-
170.0224	26	C8H3F3N-
185.0334	14	C8H4F3N2-
195.0173	23	C9H2F3N2-
196.0255	9	C9H3F3N2-
199.0313	8	C11H4FN2O-
209.0332	78	C10H4F3N2-
210.017	7	C10H3F3NO-
221.0332	7	C11H4F3N2-
224.0201	9	C10H3F3N2O-
236.0441	38	C11H5F3N3-
237.0282	118	C11H4F3N2O-
257.0339	14	C11H5F4N2O-
264.0391	554	C12H5F3N3O-
282.0296	4	C12H4F4N3O-
284.0454	999	C12H6F4N3O-
