Mass spectrum: Crufomate; LC-ESI-QFT; MS2; CE: 90; R=17500; [M+H]+
Name: Crufomate
Name: N-[(4-tert-butyl-2-chlorophenoxy)-methoxyphosphoryl]methanamine
Formula: C12H19ClNO3P
Exact mass: 291.0791
SMILES: CNP(=O)(OC)OC1=CC=C(C=C1Cl)C(C)(C)C
InChI: InChI=1S/C12H19ClNO3P/c1-12(2,3)9-6-7-11(10(13)8-9)17-18(15,14-4)16-5/h6-8H,1-5H3,(H,14,15)
Instrument: Q Exactive Orbitrap (Thermo Scientific)
Instrument type: LC-ESI-QFT
Ms type: MS2
Ion mode: POSITIVE
Ionization: ESI
Fragmentation mode: HCD
Collision energy: 90
Resolution: 17500
Column name: Acquity BEH C18 1.7um, 2.1x150mm (Waters)
Retention time: 18.298 min
Base peak: 79.0211
Precursor m/z: 292.0864
Precursor type: [M+H]+
Precursor intensity: 21314498.78125
m/z	relative intensity	assigned
53.0022	31	C3HO+
53.0386	5	C4H5+
53.9975	5	C2NO+
55.0179	3	C3H3O+
55.0542	2	C4H7+
57.0699	279	C4H9+
59.9998	172	CH3NP+
64.9786	8	H2O2P+
65.0385	17	C5H5+
67.0542	3	C5H7+
67.9894	1	C3O2+
68.9971	1	C3HO2+
75.0229	22	C6H3+
77.0385	1	C6H5+
78.0103	45	CH5NOP+
78.0465	2	C6H6+
78.9943	63	CH4O2P+
79.0542	18	C6H7+
86.9996	10	C4H4Cl+
89.0386	18	C7H5+
91.0542	90	C7H7+
93.0101	4	C3H6ClO+
93.0334	2	C6H5O+
93.07	2	C7H9+
94.0414	3	C6H6O+
94.0651	13	C6H8N+
95.0492	20	C6H7O+
95.9764	480	CH4ClNP+
96.9605	91	CH3ClOP+
98.9996	29	C5H4Cl+
103.0542	14	C8H7+
104.0619	5	C8H8+
105.0699	13	C8H9+
107.049	14	C7H7O+
108.0208	7	C2H7NO2P+
108.0569	9	C7H8O+
109.0284	3	C6H5O2+
109.0649	2	C7H9O+
110.9998	8	C2H7ClNP+
111.044	5	C6H7O2+
112.0074	2	C6H5Cl+
112.0158	32	CH7NO3P+
112.9998	9	C2H6ClO3+
113.0151	2	C5H6OP+
115.0542	59	C9H7+
116.0621	23	C9H8+
117.0698	54	C9H9+
119.0856	11	C9H11+
121.0645	2	C8H9O+
122.0599	4	C7H8NO+
122.0726	2	C8H10O+
123.0441	3	C7H7O2+
124.0077	2	C3H8ClNP+
125.0153	18	C7H6Cl+
125.0593	1	C7H9O2+
126.0315	999	C2H9NO3P+
126.9944	5	C5H4O2P+
128.0023	6	C6H5ClO+
128.0357	1	ClH14O3P+
128.062	7	C10H8+
129.0101	29	C6H6ClO+
129.0699	5	C10H9+
129.9819	23	CH6ClNO2P+
130.0778	1	C10H10+
130.9661	2	CH5ClO3P+
133.0648	7	C9H9O+
137.096	1	C9H13O+
138.0103	14	C6H5NOP+
139.0058	51	C9HNO+
140.0472	25	C3H11NO3P+
143.026	6	C7H8ClO+
147.0803	2	C10H11O+
148.0757	4	C9H10NO+
152.0387	1	C9H9Cl+
155.0259	6	C8H8ClO+
162.0913	1	C10H12NO+
163.0994	1	C10H13NO+
169.0412	5	C8H10O2P+
172.9551	3	C6H3ClO2P+
172.9998	19	C7H6ClO3+
174.9711	1	C6H5ClO2P+
186.9713	2	C7H5ClO2P+
187.0156	1	C8H8ClO3+
188.974	2	C6H5ClNO2P+
189.9581	50	C6H4ClO3P+
190.9659	12	C6H5ClO3P+
202.966	77	C7H5ClO3P+
203.9979	5	C7H8ClNO2P+
204.9812	2	C7H7ClO3P+
208.976	1	C12H2O2P+
210.0679	3	C10H13NO2P+
211.0518	3	C10H12O3P+
215.0023	3	C9H9ClO2P+
222.0083	2	C7H10ClNO3P+
222.9929	1	C10H7ClNOP+
230.0135	1	C9H10ClNO2P+
230.9974	16	C9H9ClO3P+
