Mass spectrum: 2-(N-Ethyl-m-toluidino)ethanol; LC-ESI-QFT; MS2; CE: 30; R=17500; [M+H]+
Name: 2-(N-Ethyl-m-toluidino)ethanol
Name: 2-(N-ethyl-3-methylanilino)ethanol
Formula: C11H17NO
Exact mass: 179.1310
SMILES: CCN(CCO)C1=CC(C)=CC=C1
InChI: InChI=1S/C11H17NO/c1-3-12(7-8-13)11-6-4-5-10(2)9-11/h4-6,9,13H,3,7-8H2,1-2H3
Instrument: Q Exactive Orbitrap (Thermo Scientific)
Instrument type: LC-ESI-QFT
Ms type: MS2
Ion mode: POSITIVE
Ionization: ESI
Fragmentation mode: HCD
Collision energy: 30
Resolution: 17500
Column name: Acquity BEH C18 1.7um, 2.1x150mm (Waters)
Retention time: 10.199 min
Base peak: 79.0211
Precursor m/z: 180.1383
Precursor type: [M+H]+
Precursor intensity: 30182970.75
m/z	relative intensity	assigned
107.0729	1	C7H9N+
108.0807	6	C7H10N+
119.0728	1	C8H9N+
120.0806	30	C8H10N+
132.0808	2	C9H10N+
133.0886	8	C9H11N+
134.0963	43	C9H12N+
135.1041	75	C9H13N+
136.112	55	C9H14N+
147.1042	17	C10H13N+
151.0991	53	C9H13NO+
152.1069	66	C9H14NO+
160.112	4	C11H14N+
162.1276	140	C11H16N+
180.1381	999	C11H18NO+
