Mass spectrum: SSR180711; LC-ESI-QFT; MS2; CE: 75; R=17500; [M+H]+
Name: SSR180711
Name: 4-Bromophenyl 1,4-diazabicyclo(3.2.2)nonane-4-carboxylate
Name: (4-bromophenyl) 1,4-diazabicyclo[3.2.2]nonane-4-carboxylate
Formula: C14H17BrN2O2
Exact mass: 324.0473
SMILES: BrC1=CC=C(OC(=O)N2CCN3CCC2CC3)C=C1
InChI: InChI=1S/C14H17BrN2O2/c15-11-1-3-13(4-2-11)19-14(18)17-10-9-16-7-5-12(17)6-8-16/h1-4,12H,5-10H2
Instrument: Q Exactive Orbitrap (Thermo Scientific)
Instrument type: LC-ESI-QFT
Ms type: MS2
Ion mode: POSITIVE
Ionization: ESI
Fragmentation mode: HCD
Collision energy: 75
Resolution: 17500
Column name: Acquity BEH C18 1.7um, 2.1x150mm (Waters)
Retention time: 13.135 min
Base peak: 79.0211
Precursor m/z: 325.0546
Precursor type: [M+H]+
Precursor intensity: 7297522.625
m/z	relative intensity	assigned
50.0152	2	C4H2+
51.0229	2	C4H3+
52.0308	3	C4H4+
53.0022	5	C3HO+
53.0386	19	C4H5+
54.0339	9	C3H4N+
55.0543	542	C4H7+
56.0495	999	C3H6N+
57.0574	2	C3H7N+
57.0698	18	C4H9+
58.0652	10	C3H8N+
65.0385	14	C5H5+
66.0464	2	C5H6+
67.0416	14	C4H5N+
67.0542	97	C5H7+
68.0495	92	C4H6N+
69.0447	27	C3H5N2+
69.0573	15	C4H7N+
69.0698	2	C5H9+
70.0287	44	C3H4NO+
70.0651	101	C4H8N+
71.0602	2	C3H7N2+
71.0729	8	C4H9N+
75.0229	11	C6H3+
76.0308	12	C6H4+
78.0463	11	C6H6+
79.0178	6	C5H3O+
80.0257	8	C5H4O+
80.0495	45	C5H6N+
81.0335	2	C5H5O+
82.0651	173	C5H8N+
83.0604	16	C4H7N2+
84.0808	727	C5H10N+
85.0393	2	C3H5N2O+
90.0464	2	C7H6+
91.0542	11	C7H7+
92.0621	11	C7H8+
94.0414	217	C6H6O+
95.049	3	C6H7O+
95.0605	2	C5H7N2+
96.0443	9	C5H6NO+
97.0396	8	C4H5N2O+
97.0761	126	C5H9N2+
98.0362	4	C5H6O2+
98.0602	3	C5H8NO+
98.0839	14	C5H10N2+
99.0553	20	C4H7N2O+
103.0544	2	C8H7+
104.0621	8	C8H8+
106.0413	2	C7H6O+
113.0714	1	C5H9N2O+
117.0697	1	C9H9+
118.0412	4	C8H6O+
118.0652	16	C8H8N+
119.0493	2	C8H7O+
120.057	47	C8H8O+
125.071	199	C6H9N2O+
126.0788	10	C6H10N2O+
126.1151	2	C7H14N2+
130.0651	23	C9H8N+
130.9491	27	C4H4Br+
131.0491	2	C9H7O+
132.057	7	C9H8O+
142.9488	1	C5H4Br+
144.0809	5	C10H10N+
154.9491	18	C6H4Br+
156.9648	8	C6H6Br+
158.9445	3	C5H4BrO+
168.9647	8	C7H6Br+
170.9438	2	C6H4BrO+
170.9805	13	C7H8Br+
172.9597	236	C6H6BrO+
181.9601	13	C7H5BrN+
181.9718	2	C8H7Br+
182.9553	375	C6H4BrN2+
183.9524	2	C7H5BrO+
184.9596	29	C7H6BrO+
198.9755	13	C8H8BrO+
241.9812	105	C9H9BrNO2+
253.9807	12	C10H9BrNO2+
255.9969	6	C10H11BrNO2+
267.9969	186	C11H11BrNO2+
297.0235	16	C12H14BrN2O2+
325.0554	7	C14H18BrN2O2+
