Mass spectrum: 4,4`-Sulfonyldiphenol; LC-ESI-QFT; MS2; CE: 45; R=17500; [M+H]+
Name: 4,4'-Sulfonyldiphenol
Name: 4-(4-hydroxyphenyl)sulfonylphenol
Formula: C12H10O4S
Exact mass: 250.0300
SMILES: OC1=CC=C(C=C1)S(=O)(=O)C1=CC=C(O)C=C1
InChI: InChI=1S/C12H10O4S/c13-9-1-5-11(6-2-9)17(15,16)12-7-3-10(14)4-8-12/h1-8,13-14H
Instrument: Q Exactive Orbitrap (Thermo Scientific)
Instrument type: LC-ESI-QFT
Ms type: MS2
Ion mode: POSITIVE
Ionization: ESI
Fragmentation mode: HCD
Collision energy: 45
Resolution: 17500
Column name: Acquity BEH C18 1.7um, 2.1x150mm (Waters)
Retention time: 13.605 min
Base peak: 79.0211
Precursor m/z: 251.0373
Precursor type: [M+H]+
Precursor intensity: 1047329
m/z	relative intensity	assigned
51.023	4	C4H3+
53.0023	4	C3HO+
55.0179	17	C3H3O+
61.0106	21	C2H5S+
65.0386	209	C5H5+
68.9971	24	C3HO2+
69.0334	6	C4H5O+
71.0127	28	C3H3O2+
79.0179	10	C5H3O+
81.0335	6	C5H5O+
93.0335	33	C6H5O+
94.0414	12	C6H6O+
97.0285	8	C5H5O2+
109.0285	566	C6H5O2+
110.0364	6	C6H6O2+
111.0441	463	C6H7O2+
122.0365	6	C7H6O2+
141.0006	4	C6H5O2S+
156.9955	999	C6H5O3S+
251.0372	50	C12H11O4S+
