Mass spectrum: 1,3-Diphenylguanidine; LC-ESI-QFT; MS2; CE: 75; R=17500; [M-H]-
Name: 1,3-Diphenylguanidine
Name: 1,2-diphenylguanidine
Formula: C13H13N3
Exact mass: 211.1109
SMILES: N=C(NC1=CC=CC=C1)NC1=CC=CC=C1
InChI: InChI=1S/C13H13N3/c14-13(15-11-7-3-1-4-8-11)16-12-9-5-2-6-10-12/h1-10H,(H3,14,15,16)
Instrument: Q Exactive Orbitrap (Thermo Scientific)
Instrument type: LC-ESI-QFT
Ms type: MS2
Ion mode: NEGATIVE
Ionization: ESI
Fragmentation mode: HCD
Collision energy: 75
Resolution: 17500
Column name: Acquity BEH C18 1.7um, 2.1x150mm (Waters)
Retention time: 11.638 min
Base peak: 271.0836
Precursor m/z: 210.1037
Precursor type: [M-H]-
Precursor intensity: 332730.4282227
m/z	relative intensity	assigned
92.0506	260	C6H6N-
117.0458	999	C7H5N2-
