Mass spectrum: Flutolanil; LC-ESI-QFT; MS2; CE: 90; R=17500; [M+H]+
Name: Flutolanil
Name: N-(3-propan-2-yloxyphenyl)-2-(trifluoromethyl)benzamide
Formula: C17H16F3NO2
Exact mass: 323.1133
SMILES: CC(C)OC1=CC(NC(=O)C2=C(C=CC=C2)C(F)(F)F)=CC=C1
InChI: InChI=1S/C17H16F3NO2/c1-11(2)23-13-7-5-6-12(10-13)21-16(22)14-8-3-4-9-15(14)17(18,19)20/h3-11H,1-2H3,(H,21,22)
Instrument: Q Exactive Orbitrap (Thermo Scientific)
Instrument type: LC-ESI-QFT
Ms type: MS2
Ion mode: POSITIVE
Ionization: ESI
Fragmentation mode: HCD
Collision energy: 90
Resolution: 17500
Column name: Acquity BEH C18 1.7um, 2.1x150mm (Waters)
Retention time: 17.455 min
Base peak: 79.0212
Precursor m/z: 324.1206
Precursor type: [M+H]+
Precursor intensity: 23768148.375
m/z	relative intensity	assigned
53.0022	25	C3HO+
53.9974	3	C2NO+
55.0178	5	C3H3O+
63.0229	1	C5H3+
65.0385	999	C5H5+
67.0541	1	C5H7+
68.9971	2	C3HO2+
75.0229	5	C6H3+
78.0338	3	C5H4N+
79.0178	2	C5H3O+
83.0292	2	C5H4F+
83.0491	1	C5H7O+
92.0496	2	C6H6N+
93.0335	6	C6H5O+
95.0492	1	C6H7O+
102.0339	5	C7H4N+
110.0362	2	C6H6O2+
111.044	86	C6H7O2+
113.0398	5	C6H6FO+
115.0542	1	C9H7+
120.0444	11	C7H6NO+
123.024	1	C7H4FO+
130.0288	48	C8H4NO+
130.04	38	C9H6O+
139.0542	13	C11H7+
140.0494	9	C10H6N+
145.0259	376	C7H4F3+
150.0349	1	C8H5FNO+
159.0608	2	C11H8F+
162.0547	1	C9H8NO2+
166.0651	11	C12H8N+
167.0484	1	C12H7O+
169.0648	1	C12H9O+
170.0525	1	C12H7F+
173.0209	57	C8H4F3O+
185.0637	3	C12H8FN+
186.071	1	C12H9FN+
187.0552	1	C12H8FO+
194.0597	3	C13H8NO+
196.0554	1	C13H7FN+
198.0713	1	C13H9FN+
214.0662	6	C13H9FNO+
242.0612	4	C14H9FNO2+
