Mass spectrum: UK-343664; LC-ESI-QFT; MS2; CE: 30; R=17500; [M+H]+
Name: UK-343664
Name: 3-ethyl-5-[5-(4-ethylpiperazin-1-yl)sulfonyl-2-propoxyphenyl]-2-(pyridin-2-ylmethyl)-4H-pyrazolo[4,3-d]pyrimidin-7-one
Formula: C28H35N7O4S
Exact mass: 565.2471
SMILES: CCCOC1=C(C=C(C=C1)S(=O)(=O)N1CCN(CC)CC1)C1=NC2=C(CC)N(CC3=CC=CC=N3)N=C2C(=O)N1
InChI: InChI=1S/C28H35N7O4S/c1-4-17-39-24-11-10-21(40(37,38)34-15-13-33(6-3)14-16-34)18-22(24)27-30-25-23(5-2)35(32-26(25)28(36)31-27)19-20-9-7-8-12-29-20/h7-12,18H,4-6,13-17,19H2,1-3H3,(H,30,31,36)
Instrument: Q Exactive Orbitrap (Thermo Scientific)
Instrument type: LC-ESI-QFT
Ms type: MS2
Ion mode: POSITIVE
Ionization: ESI
Fragmentation mode: HCD
Collision energy: 30
Resolution: 17500
Column name: Acquity BEH C18 1.7um, 2.1x150mm (Waters)
Retention time: 14.203 min
Base peak: 79.0211
Precursor m/z: 566.2544
Precursor type: [M+H]+
Precursor intensity: 4932518.125
m/z	relative intensity	assigned
56.0495	13	C3H6N+
57.0573	18	C3H7N+
58.0651	154	C3H8N+
70.0651	11	C4H8N+
71.0729	8	C4H9N+
72.0807	146	C4H10N+
84.0683	4	C4H8N2+
84.0808	19	C5H10N+
85.076	1	C4H9N2+
93.0573	6	C6H7N+
94.0652	10	C6H8N+
98.0839	8	C5H10N2+
99.0917	72	C5H11N2+
110.0601	10	C6H8NO+
111.0917	22	C6H11N2+
112.0995	13	C6H12N2+
113.1073	305	C6H13N2+
114.1152	79	C6H14N2+
115.123	15	C6H15N2+
177.0693	15	C6H13N2O2S+
253.0726	1	C13H9N4O2+
254.0797	2	C13H10N4O2+
267.088	1	C14H11N4O2+
295.119	4	C16H15N4O2+
296.127	2	C16H16N4O2+
328.1166	3	C16H16N4O4+
346.1298	130	C19H16N5O2+
347.1378	6	C19H17N5O2+
348.1446	4	C11H22N7O4S+
360.1456	2	C20H18N5O2+
362.1247	90	C19H16N5O3+
390.1924	17	C22H24N5O2+
404.172	2	C22H22N5O3+
421.1744	7	C22H23N5O4+
538.2233	47	C26H32N7O4S+
566.2545	999	C28H36N7O4S+
