Mass spectrum: Chloridazon; LC-ESI-QFT; MS2; CE: 90; R=17500; [M+H]+
Name: Chloridazon
Name: 5-amino-4-chloro-2-phenylpyridazin-3-one
Formula: C10H8ClN3O
Exact mass: 221.0356
SMILES: NC1=C(Cl)C(=O)N(N=C1)C1=CC=CC=C1
InChI: InChI=1S/C10H8ClN3O/c11-9-8(12)6-13-14(10(9)15)7-4-2-1-3-5-7/h1-6H,12H2
Instrument: Q Exactive Orbitrap (Thermo Scientific)
Instrument type: LC-ESI-QFT
Ms type: MS2
Ion mode: POSITIVE
Ionization: ESI
Fragmentation mode: HCD
Collision energy: 90
Resolution: 17500
Column name: Acquity BEH C18 1.7um, 2.1x150mm (Waters)
Retention time: 13.186 min
Base peak: 79.0211
Precursor m/z: 222.0429
Precursor type: [M+H]+
Precursor intensity: 13738577.5625
m/z	relative intensity	assigned
50.0151	2	C4H2+
51.023	5	C4H3+
52.0181	6	C3H2N+
53.0386	192	C4H5+
54.0338	5	C3H4N+
55.0179	10	C3H3O+
55.0291	100	C2H3N2+
56.0131	1	C2H2NO+
61.9792	3	CHClN+
62.9632	5	CClO+
63.0229	2	C5H3+
63.9949	48	CH3ClN+
65.0386	999	C5H5+
66.0212	69	C3H2N2+
66.0463	11	C5H6+
67.0291	12	C3H3N2+
67.0542	5	C5H7+
68.0131	4	C3H2NO+
73.0396	1	C2H5N2O+
73.9791	31	C2HClN+
74.9871	6	C2H2ClN+
75.9948	38	C2H3ClN+
77.0385	114	C6H5+
78.0463	3	C6H6+
79.0542	2	C6H7+
80.0494	1	C5H6N+
81.0335	19	C5H5O+
83.0239	7	C3H3N2O+
87.9949	163	C3H3ClN+
89.0385	13	C7H5+
90.0465	27	C7H6+
91.0543	1	C7H7+
92.0495	588	C6H6N+
93.0573	126	C6H7N+
94.0651	110	C6H8N+
95.0492	585	C6H7O+
100.9901	186	C3H2ClN2+
101.9742	21	C3HClNO+
102.0464	12	C8H6+
103.0059	1	C3H4ClN2+
103.0542	16	C8H7+
104.0495	264	C7H6N+
105.0447	229	C6H5N2+
106.0651	1	C7H8N+
109.0648	2	C7H9O+
110.0601	2	C6H8NO+
111.0441	2	C4H5N3O+
113.0385	21	C9H5+
114.0338	8	C8H4N+
114.0464	12	C9H6+
115.0542	9	C9H7+
116.0494	7	C8H6N+
116.9975	29	C4H4ClNO+
117.0572	6	C8H7N+
118.0414	9	C8H6O+
119.0006	3	C3H4ClN2O+
119.0604	14	C7H7N2+
120.0443	6	C7H6NO+
122.9996	15	C7H4Cl+
125.0153	6	C7H6Cl+
128.985	98	C4H2ClN2O+
130.0651	62	C9H8N+
131.0494	3	C9H7O+
131.0604	22	C8H7N2+
132.0445	23	C8H6NO+
132.057	28	C9H8O+
132.0682	5	C8H8N2+
133.0522	3	C8H7NO+
140.0495	350	C10H6N+
141.0573	644	C10H7N+
142.0525	11	C9H6N2+
145.0391	1	C8H5N2O+
146.0116	167	C4H5ClN3O+
149.0153	422	C9H6Cl+
150.0105	39	C8H5ClN+
158.0601	9	C10H8NO+
158.0714	2	C9H8N3+
159.0552	9	C9H7N2O+
159.0793	1	C9H9N3+
160.0629	2	C9H8N2O+
168.0209	2	C8H7ClNO+
174.0104	2	C10H5ClN+
175.0184	5	C10H6ClN+
176.0262	71	C10H7ClN+
177.0208	2	C9H6ClN2+
186.066	5	C10H8N3O+
193.0289	12	C10H8ClNO+
194.0368	47	C10H9ClNO+
205.0159	1	C10H6ClN2O+
222.0429	11	C10H9ClN3O+
