Mass spectrum: Coumatetralyl; LC-ESI-QFT; MS2; CE: 45; R=17500; [M-H]-
Name: Coumatetralyl
Name: 4-hydroxy-3-(1,2,3,4-tetrahydronaphthalen-1-yl)chromen-2-one
Formula: C19H16O3
Exact mass: 292.1099
SMILES: OC1=C(C2CCCC3=C2C=CC=C3)C(=O)OC2=C1C=CC=C2
InChI: InChI=1S/C19H16O3/c20-18-15-9-3-4-11-16(15)22-19(21)17(18)14-10-5-7-12-6-1-2-8-13(12)14/h1-4,6,8-9,11,14,20H,5,7,10H2
Instrument: Q Exactive Orbitrap (Thermo Scientific)
Instrument type: LC-ESI-QFT
Ms type: MS2
Ion mode: NEGATIVE
Ionization: ESI
Fragmentation mode: HCD
Collision energy: 45
Resolution: 17500
Column name: Acquity BEH C18 1.7um, 2.1x150mm (Waters)
Retention time: 18.177 min
Base peak: 434.9314
Precursor m/z: 291.1027
Precursor type: [M-H]-
Precursor intensity: 72789559.84375
m/z	relative intensity	assigned
59.0138	2	C2H3O2-
93.0346	64	C6H5O-
106.0424	329	C7H6O-
108.0216	5	C6H4O2-
115.0553	2	C9H7-
117.0345	7	C8H5O-
119.0502	94	C8H7O-
121.0295	4	C7H5O2-
129.0712	4	C10H9-
133.0295	2	C8H5O2-
135.0452	229	C8H7O2-
138.0322	67	C7H6O3-
141.071	999	C11H9-
143.0501	61	C10H7O-
153.071	2	C12H9-
161.0243	3	C9H5O3-
167.0865	11	C13H11-
169.0659	1	C12H9O-
171.0817	1	C12H11O-
185.0605	2	C12H9O2-
187.04	138	C11H7O3-
191.0866	1	C15H11-
217.0663	1	C16H9O-
219.0815	138	C16H11O-
229.1023	2	C18H13-
232.0889	4	C17H12O-
243.0813	3	C18H11O-
245.0972	77	C18H13O-
246.1053	1	C18H14O-
247.1128	414	C18H15O-
263.0716	2	C17H11O3-
263.1077	31	C18H15O2-
291.1027	728	C19H15O3-
