Mass spectrum: Oleyl sarcosine; LC-ESI-QFT; MS2; CE: 90; R=17500; [M+H]+
Name: Oleyl sarcosine
Name: Oleoyl sarcosine
Name: 2-[methyl-[(Z)-octadec-9-enoyl]amino]acetic acid
Formula: C21H39NO3
Exact mass: 353.2930
SMILES: CCCCCCCC\C=C/CCCCCCCC(=O)N(C)CC(O)=O
InChI: InChI=1S/C21H39NO3/c1-3-4-5-6-7-8-9-10-11-12-13-14-15-16-17-18-20(23)22(2)19-21(24)25/h10-11H,3-9,12-19H2,1-2H3,(H,24,25)/b11-10-
Instrument: Q Exactive Orbitrap (Thermo Scientific)
Instrument type: LC-ESI-QFT
Ms type: MS2
Ion mode: POSITIVE
Ionization: ESI
Fragmentation mode: HCD
Collision energy: 90
Resolution: 17500
Column name: Acquity BEH C18 1.7um, 2.1x150mm (Waters)
Retention time: 21.843 min
Base peak: 79.0211
Precursor m/z: 354.3003
Precursor type: [M+H]+
Precursor intensity: 2916944.734375
m/z	relative intensity	assigned
53.0023	75	C3HO+
53.0387	59	C4H5+
55.0543	999	C4H7+
57.0699	86	C4H9+
65.0386	35	C5H5+
67.0542	504	C5H7+
69.0699	299	C5H9+
79.0542	272	C6H7+
81.0699	250	C6H9+
83.0855	69	C6H11+
90.055	239	C3H8NO2+
91.0543	98	C7H7+
93.0699	135	C7H9+
95.049	56	C6H7O+
95.0856	87	C7H11+
97.065	30	C6H9O+
107.0857	29	C8H11+
