Mass spectrum: Testosterone propionate; LC-ESI-QFT; MS2; CE: 45; R=17500; [M+H]+
Name: Testosterone propionate
Name: [(8R,9S,10R,13S,14S,17S)-10,13-dimethyl-3-oxo-1,2,6,7,8,9,11,12,14,15,16,17-dodecahydrocyclopenta[a]phenanthren-17-yl] propanoate
Formula: C22H32O3
Exact mass: 344.2351
SMILES: CCC(=O)O[C@H]1CC[C@H]2[C@@H]3CCC4=CC(=O)CC[C@]4(C)[C@H]3CC[C@]12C
InChI: InChI=1S/C22H32O3/c1-4-20(24)25-19-8-7-17-16-6-5-14-13-15(23)9-11-21(14,2)18(16)10-12-22(17,19)3/h13,16-19H,4-12H2,1-3H3/t16-,17-,18-,19-,21-,22-/m0/s1
Instrument: Q Exactive Orbitrap (Thermo Scientific)
Instrument type: LC-ESI-QFT
Ms type: MS2
Ion mode: POSITIVE
Ionization: ESI
Fragmentation mode: HCD
Collision energy: 45
Resolution: 17500
Column name: Acquity BEH C18 1.7um, 2.1x150mm (Waters)
Retention time: 19.836 min
Base peak: 79.0211
Precursor m/z: 345.2424
Precursor type: [M+H]+
Precursor intensity: 6512910.515625
m/z	relative intensity	assigned
53.0022	1	C3HO+
53.0386	2	C4H5+
55.0179	4	C3H3O+
55.0542	5	C4H7+
57.0335	155	C3H5O+
65.0387	1	C5H5+
67.0541	18	C5H7+
69.0334	1	C4H5O+
69.0698	14	C5H9+
79.0542	46	C6H7+
81.0698	83	C6H9+
83.0491	47	C5H7O+
83.0855	4	C6H11+
91.0541	17	C7H7+
93.0699	58	C7H9+
95.0491	3	C6H7O+
95.0855	63	C7H11+
97.0648	999	C6H9O+
105.0699	47	C8H9+
107.049	3	C7H7O+
107.0855	47	C8H11+
109.0648	833	C7H9O+
111.0804	3	C7H11O+
117.0697	6	C9H9+
119.0855	47	C9H11+
121.0647	16	C8H9O+
121.1011	32	C9H13+
123.0804	81	C8H11O+
129.0699	6	C10H9+
131.0854	22	C10H11+
133.1011	40	C10H13+
135.0802	5	C9H11O+
135.1168	18	C10H15+
137.0958	3	C9H13O+
141.0698	3	C11H9+
143.0855	18	C11H11+
145.1011	43	C11H13+
147.0802	4	C10H11O+
147.1168	47	C11H15+
149.0962	11	C10H13O+
149.1325	11	C11H17+
151.1113	1	C10H15O+
155.0853	10	C12H11+
157.1011	23	C12H13+
159.1168	36	C12H15+
161.0962	5	C11H13O+
161.1325	24	C12H17+
163.1117	14	C11H15O+
163.1481	14	C12H19+
169.1012	10	C13H13+
171.1168	30	C13H15+
173.0962	1	C12H13O+
173.1325	23	C13H17+
175.1116	8	C12H15O+
175.1481	64	C13H19+
177.1274	17	C12H17O+
183.1169	14	C14H15+
185.1323	15	C14H17+
187.1115	1	C13H15O+
187.1481	20	C14H19+
189.1272	4	C13H17O+
189.1636	9	C14H21+
191.1435	1	C13H19O+
197.1326	28	C15H17+
199.1481	8	C15H19+
201.1267	2	C14H17O+
201.1638	10	C15H21+
203.1426	1	C14H19O+
211.148	17	C16H19+
213.1636	20	C16H21+
215.1428	4	C15H19O+
225.1639	5	C17H21+
227.1795	5	C17H23+
229.1589	1	C16H21O+
229.195	3	C17H25+
238.1714	1	C18H22+
253.1949	45	C19H25+
255.1734	3	C18H23O+
271.2053	17	C19H27O+
289.2161	15	C19H29O2+
345.241	1	C22H33O3+
