Mass spectrum: Atorvastatin; LC-ESI-QFT; MS2; CE: 60; R=17500; [M+H]+
Name: Atorvastatin
Name: (3R,5R)-7-[2-(4-fluorophenyl)-3-phenyl-4-(phenylcarbamoyl)-5-propan-2-ylpyrrol-1-yl]-3,5-dihydroxyheptanoic acid
Formula: C33H35FN2O5
Exact mass: 558.2530
SMILES: CC(C)c1c(C(=O)Nc2ccccc2)c(-c2ccccc2)c(-c2ccc(F)cc2)n1CC[C@@H](O)C[C@@H](O)CC(O)=O
InChI: InChI=1S/C33H35FN2O5/c1-21(2)31-30(33(41)35-25-11-7-4-8-12-25)29(22-9-5-3-6-10-22)32(23-13-15-24(34)16-14-23)36(31)18-17-26(37)19-27(38)20-28(39)40/h3-16,21,26-27,37-38H,17-20H2,1-2H3,(H,35,41)(H,39,40)/t26-,27-/m1/s1
Instrument: Q Exactive Orbitrap (Thermo Scientific)
Instrument type: LC-ESI-QFT
Ms type: MS2
Ion mode: POSITIVE
Ionization: ESI
Fragmentation mode: HCD
Collision energy: 60
Resolution: 17500
Column name: Acquity BEH C18 1.7um, 2.1x150mm (Waters)
Retention time: 17.830 min
Base peak: 79.0211
Precursor m/z: 559.2603
Precursor type: [M+H]+
Precursor intensity: 9859638.75
m/z	relative intensity	assigned
53.0023	2	C3HO+
53.0386	10	C4H5+
55.018	2	C3H3O+
55.0542	19	C4H7+
57.0334	13	C3H5O+
59.0491	5	C3H7O+
61.0284	2	C2H5O2+
65.0386	6	C5H5+
67.0541	5	C5H7+
68.9972	1	C3HO2+
69.0698	5	C5H9+
71.0127	17	C3H3O2+
71.0491	14	C4H7O+
73.0285	3	C3H5O2+
77.0387	3	C6H5+
79.0542	52	C6H7+
80.0496	2	C5H6N+
81.0335	2	C5H5O+
81.0699	5	C6H9+
83.0491	44	C5H7O+
85.065	1	C5H9O+
89.0233	8	C3H5O3+
91.0542	13	C7H7+
92.0494	66	C6H6N+
94.0653	3	C6H8N+
95.0491	32	C6H7O+
97.0284	11	C5H5O2+
97.0648	6	C6H9O+
99.0806	1	C6H11O+
101.0597	21	C5H9O2+
103.0541	5	C8H7+
104.0494	22	C7H6N+
105.0447	13	C6H5N2+
106.0651	4	C7H8N+
107.0492	3	C7H7O+
109.0448	16	C7H6F+
109.0488	1	C3H9O4+
113.0597	2	C6H9O2+
115.0542	42	C9H7+
116.0496	2	C8H6N+
117.0572	19	C8H7N+
117.0701	2	C9H9+
120.0444	30	C7H6NO+
121.0446	5	C8H6F+
122.04	26	C7H5FN+
123.0605	1	C8H8F+
124.0758	2	C7H10NO+
125.0598	3	C7H9O2+
127.0542	2	C10H7+
128.0619	6	C10H8+
129.0698	23	C10H9+
130.0649	6	C9H8N+
132.0445	4	C8H6NO+
133.0447	33	C9H6F+
134.0402	1	C8H5FN+
134.0603	1	C8H8NO+
135.0479	9	C8H6FN+
136.0558	1	C8H7FN+
141.0702	3	C11H9+
142.0652	1	C10H8N+
142.0778	1	C11H10+
143.0733	3	C4H12FO4+
143.0854	2	C11H11+
145.065	3	C10H9O+
146.0528	2	C10H7F+
146.0599	2	C9H8NO+
147.0605	12	C10H8F+
148.0557	4	C9H7FN+
152.062	1	C12H8+
153.0697	4	C12H9+
154.065	25	C11H8N+
155.0604	4	C10H7N2+
155.0733	1	C11H9N+
155.0857	4	C12H11+
156.0809	2	C11H10N+
159.0607	1	C11H8F+
160.0559	2	C10H7FN+
160.0757	1	C10H10NO+
161.0638	1	C10H8FN+
165.0701	2	C13H9+
166.0654	1	C12H8N+
167.073	4	C12H9N+
168.0807	1	C12H10N+
171.0606	1	C12H8F+
172.0557	17	C11H7FN+
172.0753	5	C11H10NO+
173.0512	2	C10H6FN2+
174.0715	2	C11H9FN+
178.0659	2	C10H9FNO+
179.0855	2	C14H11+
180.0808	8	C13H10N+
181.0888	1	C13H11N+
182.0966	3	C13H12N+
183.0607	1	C13H8F+
185.0638	2	C12H8FN+
185.0764	3	C13H10F+
190.066	2	C11H9FNO+
191.0854	1	C15H11+
192.0813	1	C14H10N+
196.0685	2	C14H9F+
197.0763	3	C14H10F+
198.0714	7	C13H9FN+
200.0871	4	C13H11FN+
202.0773	8	C16H10+
203.0854	33	C16H11+
204.0807	1	C15H10N+
206.0963	1	C15H12N+
208.0683	1	C15H9F+
209.076	43	C15H10F+
211.0801	1	C14H10FN+
211.0915	1	C15H12F+
217.0886	4	C16H11N+
217.1004	1	C17H13+
218.0961	7	C16H12N+
220.0685	3	C16H9F+
221.0761	11	C16H10F+
222.0714	8	C15H9FN+
222.084	7	C16H11F+
223.0796	2	C15H10FN+
223.0914	22	C16H12F+
224.0867	2	C15H11FN+
228.0805	1	C17H10N+
229.0887	1	C17H11N+
230.0964	43	C17H12N+
233.0761	103	C17H10F+
234.0723	1	C16H9FN+
234.0838	11	C17H11F+
235.0791	79	C16H10FN+
236.0869	15	C16H11FN+
236.0995	1	C17H13F+
237.0947	37	C16H12FN+
238.1025	96	C16H13FN+
239.0853	1	C19H11+
241.0883	1	C18H11N+
242.0966	2	C18H12N+
246.0843	3	C18H11F+
247.0914	3	C18H12F+
248.087	143	C17H11FN+
249.0948	169	C17H12FN+
250.1025	999	C17H13FN+
251.1101	5	C17H14FN+
252.1181	25	C17H15FN+
256.1116	2	C19H14N+
258.085	1	C19H11F+
259.079	1	C18H10FN+
259.0924	10	C19H12F+
260.0869	4	C18H11FN+
260.1005	1	C19H13F+
261.0946	40	C18H12FN+
261.1067	2	C19H14F+
262.1025	92	C18H13FN+
263.1102	11	C18H14FN+
264.0818	49	C17H11FNO+
264.118	40	C18H15FN+
271.0924	1	C20H12F+
272.0862	1	C19H11FN+
273.0938	1	C19H12FN+
274.1025	39	C19H13FN+
275.1105	21	C19H14FN+
276.0825	48	C18H11FNO+
276.1181	424	C19H15FN+
277.126	21	C19H16FN+
278.0981	6	C18H13FNO+
278.134	11	C19H17FN+
280.1497	1	C19H19FN+
283.092	1	C21H12F+
286.1024	3	C20H13FN+
287.1102	7	C20H14FN+
288.1183	33	C20H15FN+
289.1261	11	C20H16FN+
290.134	31	C20H17FN+
291.1054	3	C19H14FNO+
291.1416	2	C20H18FN+
292.1497	28	C20H19FN+
294.1644	1	C20H21FN+
298.1043	1	C21H13FN+
300.1183	12	C21H15FN+
301.1259	6	C21H16FN+
302.0979	13	C20H13FNO+
302.1338	61	C21H17FN+
303.1052	3	C20H14FNO+
303.1416	12	C21H18FN+
304.113	4	C20H15FNO+
304.1494	3	C21H19FN+
306.1284	18	C20H17FNO+
314.1341	2	C22H17FN+
316.1151	1	C21H15FNO+
316.1496	14	C22H19FN+
318.1292	7	C21H17FNO+
318.1648	11	C22H21FN+
320.108	10	C20H15FNO2+
320.1443	6	C21H19FNO+
328.1134	1	C22H15FNO+
336.1759	1	C22H23FNO+
344.144	3	C23H19FNO+
346.1237	1	C22H17FNO2+
362.1548	36	C23H21FNO2+
406.1816	1	C25H25FNO3+
