Mass spectrum: N2-(4-Nitrophenyl)-L-glutamine; LC-ESI-QFT; MS2; CE: 60; R=17500; [M+H]+
Name: N2-(4-Nitrophenyl)-L-glutamine
Name: (2S)-5-amino-2-(4-nitroanilino)-5-oxopentanoic acid
Formula: C11H13N3O5
Exact mass: 267.0855
SMILES: NC(=O)CC[C@H](NC1=CC=C(C=C1)[N+]([O-])=O)C(O)=O
InChI: InChI=1S/C11H13N3O5/c12-10(15)6-5-9(11(16)17)13-7-1-3-8(4-2-7)14(18)19/h1-4,9,13H,5-6H2,(H2,12,15)(H,16,17)/t9-/m0/s1
Instrument: Q Exactive Orbitrap (Thermo Scientific)
Instrument type: LC-ESI-QFT
Ms type: MS2
Ion mode: POSITIVE
Ionization: ESI
Fragmentation mode: HCD
Collision energy: 60
Resolution: 17500
Column name: Acquity BEH C18 1.7um, 2.1x150mm (Waters)
Retention time: 11.272 min
Base peak: 79.0211
Precursor m/z: 268.0928
Precursor type: [M+H]+
Precursor intensity: 4408306.375
m/z	relative intensity	assigned
53.0022	3	C3HO+
56.0495	69	C3H6N+
57.0335	4	C3H5O+
69.0335	2	C4H5O+
84.0444	999	C4H6NO+
85.0284	32	C4H5O2+
92.0495	3	C6H6N+
93.0574	7	C6H7N+
95.0128	2	C5H3O2+
102.055	12	C4H8NO2+
117.0575	1	C8H7N+
119.0369	1	C7H5NO+
122.0475	104	C6H6N2O+
125.047	4	C6H7NO2+
130.0499	22	C5H8NO3+
130.0652	3	C9H8N+
131.073	1	C9H9N+
137.0349	2	C6H5N2O2+
139.0503	32	C6H7N2O2+
149.035	1	C7H5N2O2+
158.084	3	C10H10N2+
159.0681	4	C10H9NO+
165.0296	15	C7H5N2O3+
190.0738	4	C10H10N2O2+
191.0578	2	C10H9NO3+
204.0769	4	C10H10N3O2+
205.061	6	C10H9N2O3+
205.0734	5	C11H11NO3+
237.0633	4	C11H11NO5+
251.0666	3	C11H11N2O5+
