Mass spectrum: Chloridazon; LC-ESI-QFT; MS2; CE: 30; R=17500; [M+H]+
Name: Chloridazon
Name: 5-amino-4-chloro-2-phenylpyridazin-3-one
Formula: C10H8ClN3O
Exact mass: 221.0356
SMILES: NC1=C(Cl)C(=O)N(N=C1)C1=CC=CC=C1
InChI: InChI=1S/C10H8ClN3O/c11-9-8(12)6-13-14(10(9)15)7-4-2-1-3-5-7/h1-6H,12H2
Instrument: Q Exactive Orbitrap (Thermo Scientific)
Instrument type: LC-ESI-QFT
Ms type: MS2
Ion mode: POSITIVE
Ionization: ESI
Fragmentation mode: HCD
Collision energy: 30
Resolution: 17500
Column name: Acquity BEH C18 1.7um, 2.1x150mm (Waters)
Retention time: 13.186 min
Base peak: 79.0211
Precursor m/z: 222.0429
Precursor type: [M+H]+
Precursor intensity: 11663552.6875
m/z	relative intensity	assigned
77.039	1	C6H5+
92.0494	5	C6H6N+
94.0651	3	C6H8N+
104.0495	19	C7H6N+
128.9849	2	C4H2ClN2O+
146.0113	1	C4H5ClN3O+
186.066	2	C10H8N3O+
193.0294	1	C10H8ClNO+
222.0423	999	C10H9ClN3O+
