Mass spectrum: Tebuthiuron; LC-ESI-QFT; MS2; CE: 45; R=17500; [M+H]+
Name: Tebuthiuron
Name: 1-(5-tert-butyl-1,3,4-thiadiazol-2-yl)-1,3-dimethylurea
Formula: C9H16N4OS
Exact mass: 228.1045
SMILES: CNC(=O)N(C)C1=NN=C(S1)C(C)(C)C
InChI: InChI=1S/C9H16N4OS/c1-9(2,3)6-11-12-8(15-6)13(5)7(14)10-4/h1-5H3,(H,10,14)
Instrument: Q Exactive Orbitrap (Thermo Scientific)
Instrument type: LC-ESI-QFT
Ms type: MS2
Ion mode: POSITIVE
Ionization: ESI
Fragmentation mode: HCD
Collision energy: 45
Resolution: 17500
Column name: Acquity BEH C18 1.7um, 2.1x150mm (Waters)
Retention time: 15.522 min
Base peak: 79.0211
Precursor m/z: 229.1118
Precursor type: [M+H]+
Precursor intensity: 17575748.5
m/z	relative intensity	assigned
57.0446	5	C2H5N2+
57.0698	7	C4H9+
62.0058	10	CH4NS+
69.0698	2	C5H9+
74.0058	5	C2H4NS+
89.0167	41	C2H5N2S+
99.0916	1	C5H11N2+
101.0419	1	C5H9S+
116.0276	120	C3H6N3S+
141.0479	4	C6H9N2S+
157.0668	27	C6H11N3S+
172.0901	999	C7H14N3S+
229.1117	41	C9H17N4OS+
