Mass spectrum: Ranitidine; LC-ESI-QFT; MS2; CE: 75; R=17500; [M-H]-
Name: Ranitidine
Name: Ranitidine Base
Name: 1-N'-[2-[[5-[(dimethylamino)methyl]furan-2-yl]methylsulfanyl]ethyl]-1-N-methyl-2-nitroethene-1,1-diamine
Formula: C13H22N4O3S
Exact mass: 314.1413
SMILES: CNC(NCCSCC1=CC=C(CN(C)C)O1)=C[N+]([O-])=O
InChI: InChI=1S/C13H22N4O3S/c1-14-13(9-17(18)19)15-6-7-21-10-12-5-4-11(20-12)8-16(2)3/h4-5,9,14-15H,6-8,10H2,1-3H3
Instrument: Q Exactive Orbitrap (Thermo Scientific)
Instrument type: LC-ESI-QFT
Ms type: MS2
Ion mode: NEGATIVE
Ionization: ESI
Fragmentation mode: HCD
Collision energy: 75
Resolution: 17500
Column name: Acquity BEH C18 1.7um, 2.1x150mm (Waters)
Retention time: 7.766 min
Base peak: 75.0088
Precursor m/z: 313.134
Precursor type: [M-H]-
Precursor intensity: 242376.6340332
m/z	relative intensity	assigned
55.0302	180	C2H3N2-
60.0091	999	CH2NO2-
110.9913	132	C5H3OS-
111.9989	855	C5H4OS-
116.0466	223	C3H6N3O2-
