Mass spectrum: 3-Methyl-N-phenylaniline; LC-ESI-QFT; MS2; CE: 90; R=17500; [M+H]+
Name: 3-Methyl-N-phenylaniline
Name: 3-Methyldiphenylamine
Formula: C13H13N
Exact mass: 183.1048
SMILES: CC1=CC(NC2=CC=CC=C2)=CC=C1
InChI: InChI=1S/C13H13N/c1-11-6-5-9-13(10-11)14-12-7-3-2-4-8-12/h2-10,14H,1H3
Instrument: Q Exactive Orbitrap (Thermo Scientific)
Instrument type: LC-ESI-QFT
Ms type: MS2
Ion mode: POSITIVE
Ionization: ESI
Fragmentation mode: HCD
Collision energy: 90
Resolution: 17500
Column name: Acquity BEH C18 1.7um, 2.1x150mm (Waters)
Retention time: 18.660 min
Base peak: 79.0212
Precursor m/z: 184.1121
Precursor type: [M+H]+
Precursor intensity: 6635024.46875
m/z	relative intensity	assigned
51.023	1	C4H3+
53.0386	16	C4H5+
65.0385	291	C5H5+
66.0464	72	C5H6+
67.0541	2	C5H7+
77.0386	7	C6H5+
79.0542	157	C6H7+
80.0494	2	C5H6N+
80.062	2	C6H8+
90.0463	5	C7H6+
91.0542	95	C7H7+
92.0495	224	C6H6N+
93.0573	892	C6H7N+
94.0652	1	C6H8N+
104.0494	1	C7H6N+
106.0651	596	C7H8N+
107.0729	999	C7H9N+
115.0542	2	C9H7+
128.062	4	C10H8+
129.0697	2	C10H9+
141.0699	10	C11H9+
142.0777	11	C11H10+
143.0732	7	C10H9N+
152.062	32	C12H8+
154.0651	15	C11H8N+
165.0699	25	C13H9+
166.0777	4	C13H10+
167.073	30	C12H9N+
167.0854	2	C13H11+
168.0808	252	C12H10N+
169.0886	237	C12H11N+
182.0964	7	C13H12N+
183.1044	7	C13H13N+
184.1119	9	C13H14N+
