Mass spectrum: Glipizide; LC-ESI-QFT; MS2; CE: 45; R=17500; [M+H]+
Name: Glipizide
Name: N-[2-[4-(cyclohexylcarbamoylsulfamoyl)phenyl]ethyl]-5-methylpyrazine-2-carboxamide
Formula: C21H27N5O4S
Exact mass: 445.1784
SMILES: CC1=NC=C(N=C1)C(=O)NCCC1=CC=C(C=C1)S(=O)(=O)NC(=O)NC1CCCCC1
InChI: InChI=1S/C21H27N5O4S/c1-15-13-24-19(14-23-15)20(27)22-12-11-16-7-9-18(10-8-16)31(29,30)26-21(28)25-17-5-3-2-4-6-17/h7-10,13-14,17H,2-6,11-12H2,1H3,(H,22,27)(H2,25,26,28)
Instrument: Q Exactive Orbitrap (Thermo Scientific)
Instrument type: LC-ESI-QFT
Ms type: MS2
Ion mode: POSITIVE
Ionization: ESI
Fragmentation mode: HCD
Collision energy: 45
Resolution: 17500
Column name: Acquity BEH C18 1.7um, 2.1x150mm (Waters)
Retention time: 16.353 min
Base peak: 79.0211
Precursor m/z: 446.1857
Precursor type: [M+H]+
Precursor intensity: 3283892.71875
m/z	relative intensity	assigned
53.0386	24	C4H5+
55.0542	35	C4H7+
77.0384	17	C6H5+
79.0542	13	C6H7+
83.0856	96	C6H11+
93.0699	11	C7H9+
95.0493	54	C6H7O+
95.0604	7	C5H7N2+
100.1121	209	C6H14N+
103.0542	263	C8H7+
104.0621	12	C8H8+
105.0448	21	C6H5N2+
107.0491	84	C7H7O+
111.0553	405	C5H7N2O+
118.0412	13	C8H6O+
119.0491	73	C8H7O+
119.0731	27	C8H9N+
120.0557	131	C6H6N3+
120.0808	16	C8H10N+
121.0648	315	C8H9O+
131.0604	744	C8H7N2+
139.0212	52	C7H7OS+
139.0503	393	C6H7N2O2+
148.0215	115	C8H6NS+
149.0056	69	C8H5OS+
150.0663	292	C7H8N3O+
166.0322	87	C8H8NOS+
167.0162	999	C8H7O2S+
183.092	17	C6H17NO3S+
184.043	57	C8H10NO2S+
195.0915	8	C13H11N2+
201.0464	8	C8H11NO3S+
210.0217	25	C9H8NO3S+
211.0864	67	C13H11N2O+
223.0874	9	C8H17NO4S+
226.0973	34	C13H12N3O+
238.0974	56	C14H12N3O+
240.1131	82	C14H14N3O+
255.1	9	C14H13N3O2+
256.1082	54	C14H14N3O2+
258.0696	55	C13H12N3OS+
286.0646	250	C14H12N3O2S+
304.075	15	C14H14N3O3S+
