Mass spectrum: Benalaxyl; LC-ESI-QFT; MS2; CE: 15; R=17500; [M+H]+
Name: Benalaxyl
Name: methyl 2-(2,6-dimethyl-N-(2-phenylacetyl)anilino)propanoate
Formula: C20H23NO3
Exact mass: 325.1678
SMILES: COC(=O)C(C)N(C(=O)CC1=CC=CC=C1)C1=C(C)C=CC=C1C
InChI: InChI=1S/C20H23NO3/c1-14-9-8-10-15(2)19(14)21(16(3)20(23)24-4)18(22)13-17-11-6-5-7-12-17/h5-12,16H,13H2,1-4H3
Instrument: Q Exactive Orbitrap (Thermo Scientific)
Instrument type: LC-ESI-QFT
Ms type: MS2
Ion mode: POSITIVE
Ionization: ESI
Fragmentation mode: HCD
Collision energy: 15
Resolution: 17500
Column name: Acquity BEH C18 1.7um, 2.1x150mm (Waters)
Retention time: 18.580 min
Base peak: 79.0211
Precursor m/z: 326.1751
Precursor type: [M+H]+
Precursor intensity: 59694463.46875
m/z	relative intensity	assigned
91.0541	88	C7H7+
121.0882	7	C8H11N+
148.112	385	C10H14N+
208.1332	739	C12H18NO2+
266.1539	429	C18H20NO+
294.1488	999	C19H20NO2+
