Mass spectrum: Atraton; LC-ESI-QFT; MS2; CE: 30; R=17500; [M+H]+
Name: Atraton
Name: 4-N-ethyl-6-methoxy-2-N-propan-2-yl-1,3,5-triazine-2,4-diamine
Formula: C9H17N5O
Exact mass: 211.1433
SMILES: CCNC1=NC(NC(C)C)=NC(OC)=N1
InChI: InChI=1S/C9H17N5O/c1-5-10-7-12-8(11-6(2)3)14-9(13-7)15-4/h6H,5H2,1-4H3,(H2,10,11,12,13,14)
Instrument: Q Exactive Orbitrap (Thermo Scientific)
Instrument type: LC-ESI-QFT
Ms type: MS2
Ion mode: POSITIVE
Ionization: ESI
Fragmentation mode: HCD
Collision energy: 30
Resolution: 17500
Column name: Acquity BEH C18 1.7um, 2.1x150mm (Waters)
Retention time: 13.594 min
Base peak: 79.0211
Precursor m/z: 212.1506
Precursor type: [M+H]+
Precursor intensity: 42193147.21875
m/z	relative intensity	assigned
71.0603	1	C3H7N2+
75.0553	1	C2H7N2O+
85.076	1	C4H9N2+
86.0348	1	C2H4N3O+
96.0555	4	C4H6N3+
100.0504	6	C3H6N3O+
114.0662	5	C4H8N3O+
128.0818	2	C5H10N3O+
138.1025	8	C7H12N3+
142.0723	4	C4H8N5O+
142.0975	1	C6H12N3O+
170.1036	302	C6H12N5O+
184.1197	1	C7H14N5O+
212.1504	999	C9H18N5O+
