Mass spectrum: Carabersat; LC-ESI-QFT; MS2; CE: 15; R=17500; [M+H]+
Name: Carabersat
Name: N-[(3R,4S)-6-acetyl-3-hydroxy-2,2-dimethyl-3,4-dihydrochromen-4-yl]-4-fluorobenzamide
Formula: C20H20FNO4
Exact mass: 357.1376
SMILES: CC(=O)C1=CC2=C(OC(C)(C)[C@H](O)[C@H]2NC(=O)C2=CC=C(F)C=C2)C=C1
InChI: InChI=1S/C20H20FNO4/c1-11(23)13-6-9-16-15(10-13)17(18(24)20(2,3)26-16)22-19(25)12-4-7-14(21)8-5-12/h4-10,17-18,24H,1-3H3,(H,22,25)/t17-,18+/m0/s1
Instrument: Q Exactive Orbitrap (Thermo Scientific)
Instrument type: LC-ESI-QFT
Ms type: MS2
Ion mode: POSITIVE
Ionization: ESI
Fragmentation mode: HCD
Collision energy: 15
Resolution: 17500
Column name: Acquity BEH C18 1.7um, 2.1x150mm (Waters)
Retention time: 15.705 min
Base peak: 79.0211
Precursor m/z: 358.1449
Precursor type: [M+H]+
Precursor intensity: 11722736.5
m/z	relative intensity	assigned
59.0492	35	C3H7O+
119.0491	2	C8H7O+
123.0239	10	C7H4FO+
140.0507	68	C7H7FNO+
159.0805	3	C11H11O+
161.0598	323	C10H9O2+
177.0911	999	C11H13O2+
189.0912	5	C12H13O2+
201.0911	54	C13H13O2+
219.1016	816	C13H15O3+
286.0875	30	C16H13FNO3+
340.1346	26	C20H19FNO3+
358.145	867	C20H21FNO4+
