Mass spectrum: Albendazole; LC-ESI-QFT; MS2; CE: 60; R=17500; [M+H]+
Name: Albendazole
Name: methyl N-(6-propylsulfanyl-1H-benzimidazol-2-yl)carbamate
Formula: C12H15N3O2S
Exact mass: 265.0885
SMILES: CCCSC1=CC=C2NC(NC(=O)OC)=NC2=C1
InChI: InChI=1S/C12H15N3O2S/c1-3-6-18-8-4-5-9-10(7-8)14-11(13-9)15-12(16)17-2/h4-5,7H,3,6H2,1-2H3,(H2,13,14,15,16)
Instrument: Q Exactive Orbitrap (Thermo Scientific)
Instrument type: LC-ESI-QFT
Ms type: MS2
Ion mode: POSITIVE
Ionization: ESI
Fragmentation mode: HCD
Collision energy: 60
Resolution: 17500
Column name: Acquity BEH C18 1.7um, 2.1x150mm (Waters)
Retention time: 16.061 min
Base peak: 79.0211
Precursor m/z: 266.0958
Precursor type: [M+H]+
Precursor intensity: 23764960.25
m/z	relative intensity	assigned
53.0021	1	C3HO+
69.0085	1	C2HN2O+
74.0963	1	C4H12N+
122.006	1	C6H4NS+
131.0478	1	C7H5N3+
133.0639	1	C7H7N3+
136.0094	1	C6H4N2S+
146.0716	1	C8H8N3+
147.0425	1	C7H5N3O+
147.0788	1	C8H9N3+
150.0248	1	C7H6N2S+
158.035	1	C8H4N3O+
159.0427	275	C8H5N3O+
160.0505	14	C8H6N3O+
163.0199	10	C7H5N3S+
164.0277	17	C7H6N3S+
165.0356	3	C7H7N3S+
177.0358	1	C8H7N3S+
179.0511	7	C8H9N3S+
190.0072	9	C8H4N3OS+
191.0149	999	C8H5N3OS+
192.0225	700	C8H6N3OS+
205.0303	7	C9H7N3OS+
206.0738	3	C10H12N3S+
223.041	6	C9H9N3O2S+
234.0695	969	C11H12N3OS+
