Mass spectrum: Tomelukast; LC-ESI-QFT; MS2; CE: 60; R=17500; [M+H]+
Name: Tomelukast
Name: 1-[2-hydroxy-3-propyl-4-[4-(2H-tetrazol-5-yl)butoxy]phenyl]ethanone
Formula: C16H22N4O3
Exact mass: 318.1692
SMILES: CCCC1=C(OCCCCC2=NN=NN2)C=CC(C(C)=O)=C1O
InChI: InChI=1S/C16H22N4O3/c1-3-6-13-14(9-8-12(11(2)21)16(13)22)23-10-5-4-7-15-17-19-20-18-15/h8-9,22H,3-7,10H2,1-2H3,(H,17,18,19,20)
Instrument: Q Exactive Orbitrap (Thermo Scientific)
Instrument type: LC-ESI-QFT
Ms type: MS2
Ion mode: POSITIVE
Ionization: ESI
Fragmentation mode: HCD
Collision energy: 60
Resolution: 17500
Column name: Acquity BEH C18 1.7um, 2.1x150mm (Waters)
Retention time: 17.696 min
Base peak: 79.0211
Precursor m/z: 319.1765
Precursor type: [M+H]+
Precursor intensity: 8055986
m/z	relative intensity	assigned
53.0022	17	C3HO+
53.0386	74	C4H5+
54.0339	52	C3H4N+
55.0291	538	C2H3N2+
55.0543	215	C4H7+
56.0496	33	C3H6N+
57.0574	5	C3H7N+
57.0698	18	C4H9+
65.0386	15	C5H5+
67.0542	129	C5H7+
68.0495	72	C4H6N+
69.0447	159	C3H5N2+
70.065	25	C4H8N+
79.0543	22	C6H7+
80.0495	101	C5H6N+
81.0573	16	C5H7N+
81.0698	4	C6H9+
82.0526	24	C4H6N2+
82.0652	136	C5H8N+
91.0543	51	C7H7+
93.0336	6	C6H5O+
93.0699	8	C7H9+
95.0492	13	C6H7O+
97.0761	109	C5H9N2+
99.0917	18	C5H11N2+
103.0543	20	C8H7+
104.0495	8	C7H6N+
105.07	19	C8H9+
107.0492	59	C7H7O+
109.0649	14	C7H9O+
111.0442	141	C6H7O2+
115.0543	5	C9H7+
116.0495	19	C8H6N+
117.0698	9	C9H9+
119.0493	13	C8H7O+
119.0854	9	C9H11+
121.0649	17	C8H9O+
123.0441	119	C7H7O2+
125.0823	999	C5H9N4+
128.0621	7	C10H8+
129.07	12	C10H9+
130.0652	15	C9H8N+
131.0493	46	C9H7O+
131.0855	7	C10H11+
132.0444	19	C8H6NO+
132.0801	4	C9H10N+
133.0648	24	C9H9O+
135.0441	30	C8H7O2+
137.0599	132	C8H9O2+
141.07	4	C11H9+
144.0444	7	C9H6NO+
145.0647	10	C10H9O+
146.0603	7	C9H8NO+
147.0442	158	C9H7O2+
148.0389	7	C8H6NO2+
149.0598	82	C9H9O2+
150.0675	8	C9H10O2+
151.0754	10	C9H11O2+
153.0545	28	C8H9O3+
153.091	25	C9H13O2+
156.0443	22	C10H6NO+
158.0603	7	C10H8NO+
159.0441	10	C10H7O2+
159.0551	6	C9H7N2O+
160.0518	9	C10H8O2+
161.0598	73	C10H9O2+
161.0965	5	C11H13O+
162.055	20	C9H8NO2+
163.0757	22	C10H11O2+
165.0548	88	C9H9O3+
165.0911	26	C10H13O2+
172.0394	124	C10H6NO2+
174.055	17	C10H8NO2+
174.0678	7	C11H10O2+
175.0757	24	C11H11O2+
177.0548	36	C10H9O3+
177.0911	89	C11H13O2+
179.0704	40	C10H11O3+
184.0397	5	C11H6NO2+
186.0551	69	C11H8NO2+
188.0706	9	C11H10NO2+
189.0783	10	C11H11NO2+
189.0911	64	C12H13O2+
190.0503	34	C10H8NO3+
190.0864	11	C11H12NO2+
191.0704	11	C11H11O3+
191.1068	12	C12H15O2+
192.0777	4	C11H12O3+
195.1017	53	C11H15O3+
200.0703	6	C12H10NO2+
202.0862	22	C12H12NO2+
204.0659	28	C11H10NO3+
204.1018	7	C12H14NO2+
214.0863	8	C13H12NO2+
220.0969	17	C12H14NO3+
230.0818	4	C13H12NO3+
231.1019	5	C14H15O3+
