Mass spectrum: Thiacloprid; LC-ESI-QFT; MS2; CE: 60; R=17500; [M+H]+
Name: Thiacloprid
Name: [3-[(6-chloropyridin-3-yl)methyl]-1,3-thiazolidin-2-ylidene]cyanamide
Formula: C10H9ClN4S
Exact mass: 252.0236
SMILES: C1CSC(=NC#N)N1CC2=CN=C(C=C2)Cl
InChI: InChI=1S/C10H9ClN4S/c11-9-2-1-8(5-13-9)6-15-3-4-16-10(15)14-7-12/h1-2,5H,3-4,6H2
Instrument: Q Exactive Orbitrap (Thermo Scientific)
Instrument type: LC-ESI-QFT
Ms type: MS2
Ion mode: POSITIVE
Ionization: ESI
Fragmentation mode: HCD
Collision energy: 60
Resolution: 17500
Column name: Acquity BEH C18 1.7um, 2.1x150mm (Waters)
Retention time: 13.720 min
Base peak: 79.0212
Precursor m/z: 253.0309
Precursor type: [M+H]+
Precursor intensity: 8730085.1875
m/z	relative intensity	assigned
61.0106	1	C2H5S+
63.0229	4	C5H3+
65.0385	1	C5H5+
72.9838	4	C3H2Cl+
80.0494	2	C5H6N+
81.0335	15	C2H8ClN+
90.0338	72	C6H4N+
91.0416	11	C6H5N+
98.9996	38	C5H4Cl+
108.0444	7	C3H9ClN2+
126.0104	999	C6H5ClN+
144.021	24	C4H5ClN4+
151.0058	3	C7H4ClN2+
211.0092	1	C9H8ClN2S+
