Mass spectrum: Carboxin; LC-ESI-QFT; MS2; CE: 75; R=17500; [M+H]+
Name: Carboxin
Name: 6-methyl-N-phenyl-2,3-dihydro-1,4-oxathiine-5-carboxamide
Formula: C12H13NO2S
Exact mass: 235.0667
SMILES: CC1=C(SCCO1)C(=O)NC1=CC=CC=C1
InChI: InChI=1S/C12H13NO2S/c1-9-11(16-8-7-15-9)12(14)13-10-5-3-2-4-6-10/h2-6H,7-8H2,1H3,(H,13,14)
Instrument: Q Exactive Orbitrap (Thermo Scientific)
Instrument type: LC-ESI-QFT
Ms type: MS2
Ion mode: POSITIVE
Ionization: ESI
Fragmentation mode: HCD
Collision energy: 75
Resolution: 17500
Column name: Acquity BEH C18 1.7um, 2.1x150mm (Waters)
Retention time: 15.686 min
Base peak: 79.0211
Precursor m/z: 236.074
Precursor type: [M+H]+
Precursor intensity: 10712237
m/z	relative intensity	assigned
53.0386	5	C4H5+
55.0179	3	C3H3O+
55.0542	3	C4H7+
57.0336	2	C3H5O+
58.995	82	C2H3S+
61.0107	10	C2H5S+
61.0284	22	C2H5O2+
65.0385	11	C5H5+
66.0464	16	C5H6+
70.9949	4	C3H3S+
73.0106	33	C3H5S+
75.044	15	C3H7O2+
77.0055	2	C2H5OS+
77.0386	2	C6H5+
80.0494	55	C5H6N+
83.0492	1	C5H7O+
86.9899	35	C3H3OS+
89.0056	19	C3H5OS+
91.0543	2	C7H7+
92.0495	44	C6H6N+
93.0573	999	C6H7N+
94.0651	19	C6H8N+
95.0491	22	C6H7O+
97.0105	4	C5H5S+
99.0263	15	C5H7S+
101.0055	3	C4H5OS+
104.0495	44	C7H6N+
106.0649	2	C7H8N+
109.0106	9	C6H5S+
115.0214	8	C5H7OS+
117.0369	4	C5H9OS+
118.0651	5	C8H8N+
120.0444	13	C7H6NO+
121.0101	1	C7H5S+
124.0216	216	C6H6NS+
128.0495	15	C9H6N+
130.0653	1	C9H8N+
132.0444	103	C8H6NO+
136.0218	2	C7H6NS+
138.0372	6	C7H8NS+
143.0162	418	C6H7O2S+
146.0601	27	C9H8NO+
147.0677	2	C9H9NO+
148.0214	11	C8H6NS+
162.0371	19	C9H8NS+
164.0167	1	C8H6NOS+
165.0243	17	C8H7NOS+
166.0319	11	C8H8NOS+
190.0326	1	C10H8NOS+
