Mass spectrum: 2-Amino-N-cyclohexyl-N-methylbenzenesulfonamide; LC-ESI-QFT; MS2; CE: 45; R=17500; [M+H]+
Name: 2-Amino-N-cyclohexyl-N-methylbenzenesulfonamide
Formula: C13H20N2O2S
Exact mass: 268.1245
SMILES: CN(C1CCCCC1)S(=O)(=O)C1=CC=CC=C1N
InChI: InChI=1S/C13H20N2O2S/c1-15(11-7-3-2-4-8-11)18(16,17)13-10-6-5-9-12(13)14/h5-6,9-11H,2-4,7-8,14H2,1H3
Instrument: Q Exactive Orbitrap (Thermo Scientific)
Instrument type: LC-ESI-QFT
Ms type: MS2
Ion mode: POSITIVE
Ionization: ESI
Fragmentation mode: HCD
Collision energy: 45
Resolution: 17500
Column name: Acquity BEH C18 1.7um, 2.1x150mm (Waters)
Retention time: 17.468 min
Base peak: 79.0211
Precursor m/z: 269.1318
Precursor type: [M+H]+
Precursor intensity: 6249782.53125
m/z	relative intensity	assigned
55.0543	133	C4H7+
57.0699	50	C4H9+
65.0385	23	C5H5+
83.0855	177	C6H11+
92.0496	999	C6H6N+
95.0855	24	C7H11+
107.0855	29	C8H11+
108.0446	283	C6H6NO+
109.1013	70	C8H13+
135.0803	40	C9H11O+
137.0963	25	C9H13O+
139.0753	47	C8H11O2+
140.0165	26	C6H6NOS+
151.1483	28	C11H19+
156.0115	67	C6H6NO2S+
167.1429	30	C11H19O+
174.0222	905	C12H2N2+
187.0541	50	C7H11N2O2S+
188.0374	49	C13H4N2+
195.1381	52	C12H19O2+
