Mass spectrum: Metronidazole; LC-ESI-QFT; MS2; CE: 90; R=17500; [M+H]+
Name: Metronidazole
Name: 2-(2-methyl-5-nitroimidazol-1-yl)ethanol
Formula: C6H9N3O3
Exact mass: 171.0644
SMILES: CC1=NC=C(N1CCO)[N+]([O-])=O
InChI: InChI=1S/C6H9N3O3/c1-5-7-4-6(9(11)12)8(5)2-3-10/h4,10H,2-3H2,1H3
Instrument: Q Exactive Orbitrap (Thermo Scientific)
Instrument type: LC-ESI-QFT
Ms type: MS2
Ion mode: POSITIVE
Ionization: ESI
Fragmentation mode: HCD
Collision energy: 90
Resolution: 17500
Column name: Acquity BEH C18 1.7um, 2.1x150mm (Waters)
Retention time: 6.904 min
Base peak: 79.0211
Precursor m/z: 172.0717
Precursor type: [M+H]+
Precursor intensity: 6317024
m/z	relative intensity	assigned
54.0339	35	C3H4N+
55.0542	28	C4H7+
56.0369	860	C2H4N2+
57.021	81	C2H3NO+
60.0444	65	C2H6NO+
69.0447	70	C3H5N2+
72.0444	48	C3H6NO+
81.0448	294	C4H5N2+
82.0526	800	C4H6N2+
83.0604	140	C4H7N2+
95.0605	21	C5H7N2+
97.0397	127	C4H5N2O+
98.0475	904	C4H6N2O+
111.0427	717	C4H5N3O+
128.0455	999	C4H6N3O2+
