Mass spectrum: Acetohexamide; LC-ESI-QFT; MS2; CE: 15; R=17500; [M+H]+
Name: Acetohexamide
Name: 1-(4-acetylphenyl)sulfonyl-3-cyclohexylurea
Formula: C15H20N2O4S
Exact mass: 324.1144
SMILES: CC(=O)C1=CC=C(C=C1)S(=O)(=O)NC(=O)NC1CCCCC1
InChI: InChI=1S/C15H20N2O4S/c1-11(18)12-7-9-14(10-8-12)22(20,21)17-15(19)16-13-5-3-2-4-6-13/h7-10,13H,2-6H2,1H3,(H2,16,17,19)
Instrument: Q Exactive Orbitrap (Thermo Scientific)
Instrument type: LC-ESI-QFT
Ms type: MS2
Ion mode: POSITIVE
Ionization: ESI
Fragmentation mode: HCD
Collision energy: 15
Resolution: 17500
Column name: Acquity BEH C18 1.7um, 2.1x150mm (Waters)
Retention time: 16.086 min
Base peak: 79.0212
Precursor m/z: 325.1217
Precursor type: [M+H]+
Precursor intensity: 1680692.96875
m/z	relative intensity	assigned
83.0855	62	C6H11+
100.1121	8	C6H14N+
119.0497	7	C8H7O+
125.0598	7	C7H9O2+
147.0804	52	C10H11O+
163.0753	6	C10H11O2+
165.0908	7	C10H13O2+
171.0805	21	C12H11O+
183.0112	23	C8H7O3S+
185.0963	10	C13H13O+
197.0966	6	C14H13O+
200.0378	142	C8H10NO3S+
221.096	6	C8H17N2O3S+
223.1117	19	C8H19N2O3S+
237.1281	14	C9H21N2O3S+
243.0436	999	C9H11N2O4S+
249.1276	14	C10H21N2O3S+
