Mass spectrum: PharmaGSID_47333; LC-ESI-QFT; MS2; CE: 30; R=17500; [M+H]+
Name: (3S)-3-(2-methylpyrimidin-5-yl)-9-(5,6,7,8-tetrahydro-1,8-naphthyridin-2-yl)nonanoic acid
Name: PharmaGSID_47333
Formula: C22H30N4O2
Exact mass: 382.2369
SMILES: CC1=NC=C(C=N1)[C@@H](CCCCCCC1=NC2=C(CCCN2)C=C1)CC(O)=O
InChI: InChI=1S/C22H30N4O2/c1-16-24-14-19(15-25-16)18(13-21(27)28)7-4-2-3-5-9-20-11-10-17-8-6-12-23-22(17)26-20/h10-11,14-15,18H,2-9,12-13H2,1H3,(H,23,26)(H,27,28)/t18-/m0/s1
Instrument: Q Exactive Orbitrap (Thermo Scientific)
Instrument type: LC-ESI-QFT
Ms type: MS2
Ion mode: POSITIVE
Ionization: ESI
Fragmentation mode: HCD
Collision energy: 30
Resolution: 17500
Column name: Acquity BEH C18 1.7um, 2.1x150mm (Waters)
Retention time: 13.643 min
Base peak: 79.0212
Precursor m/z: 383.2442
Precursor type: [M+H]+
Precursor intensity: 22114678.25
m/z	relative intensity	assigned
148.1002	1	C9H12N2+
161.1085	1	C10H13N2+
281.2009	3	C19H25N2+
323.2228	1	C20H27N4+
339.2544	2	C21H31N4+
365.2337	24	C22H29N4O+
383.2442	999	C22H31N4O2+
