Mass spectrum: Sulfasalazine; LC-ESI-QFT; MS2; CE: 90; R=17500; [M+H]+
Name: Sulfasalazine
Name: 2-hydroxy-5-[[4-(pyridin-2-ylsulfamoyl)phenyl]diazenyl]benzoic acid
Formula: C18H14N4O5S
Exact mass: 398.0685
SMILES: C1=CC=NC(=C1)NS(=O)(=O)C2=CC=C(C=C2)N=NC3=CC(=C(C=C3)O)C(=O)O
InChI: InChI=1S/C18H14N4O5S/c23-16-9-6-13(11-15(16)18(24)25)21-20-12-4-7-14(8-5-12)28(26,27)22-17-3-1-2-10-19-17/h1-11,23H,(H,19,22)(H,24,25)
Instrument: Q Exactive Orbitrap (Thermo Scientific)
Instrument type: LC-ESI-QFT
Ms type: MS2
Ion mode: POSITIVE
Ionization: ESI
Fragmentation mode: HCD
Collision energy: 90
Resolution: 17500
Column name: Acquity BEH C18 1.7um, 2.1x150mm (Waters)
Retention time: 16.988 min
Base peak: 79.0211
Precursor m/z: 399.0758
Precursor type: [M+H]+
Precursor intensity: 1083246.125
m/z	relative intensity	assigned
51.023	8	C4H3+
53.0022	30	C3HO+
53.0386	34	C4H5+
55.0179	17	C3H3O+
62.0151	15	C5H2+
63.0229	178	C5H3+
65.0385	10	C5H5+
66.034	4	C4H4N+
67.0416	993	C4H5N+
68.9972	9	C3HO2+
76.0308	51	C6H4+
79.018	9	C5H3O+
80.0131	39	C4H2NO+
81.0335	198	C5H5O+
89.0386	11	C7H5+
91.0179	999	C6H3O+
92.0255	10	C6H4O+
93.0449	26	C5H5N2+
94.0526	482	C5H6N2+
95.0492	28	C6H7O+
95.0604	15	C5H7N2+
96.0445	36	C5H6NO+
105.0447	16	C6H5N2+
106.0286	6	C6H4NO+
107.0127	15	C6H3O2+
109.0284	24	C6H5O2+
113.0385	14	C9H5+
115.0541	9	C9H7+
119.0128	496	C7H3O2+
119.0234	32	C6H3N2O+
121.0399	6	C6H5N2O+
127.0542	8	C10H7+
128.0496	15	C9H6N+
129.0448	18	C8H5N2+
136.0268	6	C6H4N2O2+
137.0234	105	C7H5O3+
139.0543	70	C11H7+
140.0496	32	C10H6N+
155.0602	37	C10H7N2+
156.0683	20	C10H8N2+
157.076	22	C10H9N2+
165.0294	12	C7H5N2O3+
166.0527	11	C11H6N2+
167.0603	8	C11H7N2+
168.0681	47	C11H8N2+
169.0763	27	C11H9N2+
180.0556	5	C11H6N3+
181.0633	6	C11H7N3+
185.0348	22	C10H5N2O2+
200.058	7	C11H8N2O2+
