Mass spectrum: Tetraconazole; LC-ESI-QFT; MS2; CE: 60; R=17500; [M+H]+
Name: Tetraconazole
Name: 1-[2-(2,4-dichlorophenyl)-3-(1,1,2,2-tetrafluoroethoxy)propyl]-1,2,4-triazole
Formula: C13H11Cl2F4N3O
Exact mass: 371.0215
SMILES: FC(F)C(F)(F)OCC(CN1C=NC=N1)C1=C(Cl)C=C(Cl)C=C1
InChI: InChI=1S/C13H11Cl2F4N3O/c14-9-1-2-10(11(15)3-9)8(4-22-7-20-6-21-22)5-23-13(18,19)12(16)17/h1-3,6-8,12H,4-5H2
Instrument: Q Exactive Orbitrap (Thermo Scientific)
Instrument type: LC-ESI-QFT
Ms type: MS2
Ion mode: POSITIVE
Ionization: ESI
Fragmentation mode: HCD
Collision energy: 60
Resolution: 17500
Column name: Acquity BEH C18 1.7um, 2.1x150mm (Waters)
Retention time: 17.947 min
Base peak: 79.0212
Precursor m/z: 372.0288
Precursor type: [M+H]+
Precursor intensity: 15966979.0625
m/z	relative intensity	assigned
59.0291	1	C3H4F+
70.0399	435	C2H4N3+
98.9994	2	ClFH3N3+
115.0542	25	C9H7+
122.9995	15	C7H4Cl+
124.0074	3	C7H5Cl+
125.0152	1	C7H6Cl+
132.9606	1	C5H3Cl2+
149.0153	31	C9H6Cl+
150.023	68	C9H7Cl+
158.9762	999	C2H4Cl2FN3+
171.0022	2	C2H9Cl2F2NO+
172.0053	2	C12N2+
176.9668	15	C7H4Cl2F+
177.021	1	C12H3NO+
184.9917	6	C4H6Cl2FN3+
