Mass spectrum: PharmaGSID_47333; LC-ESI-QFT; MS2; CE: 45; R=17500; [M-H]-
Name: (3S)-3-(2-methylpyrimidin-5-yl)-9-(5,6,7,8-tetrahydro-1,8-naphthyridin-2-yl)nonanoic acid
Name: PharmaGSID_47333
Formula: C22H30N4O2
Exact mass: 382.2369
SMILES: CC1=NC=C(C=N1)[C@@H](CCCCCCC1=NC2=C(CCCN2)C=C1)CC(O)=O
InChI: InChI=1S/C22H30N4O2/c1-16-24-14-19(15-25-16)18(13-21(27)28)7-4-2-3-5-9-20-11-10-17-8-6-12-23-22(17)26-20/h10-11,14-15,18H,2-9,12-13H2,1H3,(H,23,26)(H,27,28)/t18-/m0/s1
Instrument: Q Exactive Orbitrap (Thermo Scientific)
Instrument type: LC-ESI-QFT
Ms type: MS2
Ion mode: NEGATIVE
Ionization: ESI
Fragmentation mode: HCD
Collision energy: 45
Resolution: 17500
Column name: Acquity BEH C18 1.7um, 2.1x150mm (Waters)
Retention time: 13.608 min
Base peak: 112.9857
Precursor m/z: 381.2296
Precursor type: [M-H]-
Precursor intensity: 2302722.308594
m/z	relative intensity	assigned
68.0142	12	C3H2NO-
81.0457	7	C4H5N2-
93.0458	999	C5H5N2-
107.0615	41	C6H7N2-
109.0407	108	C5H5N2O-
117.0458	17	C7H5N2-
119.0614	30	C7H7N2-
121.0774	16	C7H9N2-
133.0772	14	C8H9N2-
135.0453	18	C8H7O2-
135.0564	18	C7H7N2O-
137.0357	55	C6H5N2O2-
137.0721	21	C7H9N2O-
143.0614	9	C9H7N2-
145.0771	11	C9H9N2-
146.0491	6	C8H6N2O-
147.0929	121	C9H11N2-
159.0928	22	C10H11N2-
175.1244	10	C11H15N2-
243.1868	11	C16H23N2-
296.2139	6	C19H26N3-
321.2085	13	C20H25N4-
333.2087	92	C21H25N4-
335.2241	211	C21H27N4-
337.2397	376	C21H29N4-
381.2306	22	C22H29N4O2-
