Mass spectrum: Oxadixyl; LC-ESI-QFT; MS2; CE: 90; R=17500; [M+H]+
Name: Oxadixyl
Name: N-(2,6-dimethylphenyl)-2-methoxy-N-(2-oxo-1,3-oxazolidin-3-yl)acetamide
Formula: C14H18N2O4
Exact mass: 278.1267
SMILES: COCC(=O)N(N1CCOC1=O)C1=C(C)C=CC=C1C
InChI: InChI=1S/C14H18N2O4/c1-10-5-4-6-11(2)13(10)16(12(17)9-19-3)15-7-8-20-14(15)18/h4-6H,7-9H2,1-3H3
Instrument: Q Exactive Orbitrap (Thermo Scientific)
Instrument type: LC-ESI-QFT
Ms type: MS2
Ion mode: POSITIVE
Ionization: ESI
Fragmentation mode: HCD
Collision energy: 90
Resolution: 17500
Column name: Acquity BEH C18 1.7um, 2.1x150mm (Waters)
Retention time: 14.470 min
Base peak: 79.0211
Precursor m/z: 279.1339
Precursor type: [M+H]+
Precursor intensity: 1059118.21875
m/z	relative intensity	assigned
79.0541	65	C6H7+
91.0542	176	C7H7+
95.0491	173	C6H7O+
105.0699	158	C8H9+
117.0574	429	C8H7N+
118.0651	206	C8H8N+
120.0807	68	C8H10N+
132.0809	999	C9H10N+
