Mass spectrum: PharmaGSID_47261; LC-ESI-QFT; MS2; CE: 15; R=17500; [M+H]+
Name: PharmaGSID_47261
Name: (2S,3S)-3-methyl-2-(3-oxo-1,2-benzothiazol-2-yl)pentanoic acid
Formula: C13H15NO3S
Exact mass: 265.0773
SMILES: CC[C@H](C)[C@H](N1SC2=CC=CC=C2C1=O)C(O)=O
InChI: InChI=1S/C13H15NO3S/c1-3-8(2)11(13(16)17)14-12(15)9-6-4-5-7-10(9)18-14/h4-8,11H,3H2,1-2H3,(H,16,17)/t8-,11-/m0/s1
Instrument: Q Exactive Orbitrap (Thermo Scientific)
Instrument type: LC-ESI-QFT
Ms type: MS2
Ion mode: POSITIVE
Ionization: ESI
Fragmentation mode: HCD
Collision energy: 15
Resolution: 17500
Column name: Acquity BEH C18 1.7um, 2.1x150mm (Waters)
Retention time: 16.615 min
Base peak: 79.0211
Precursor m/z: 266.0845
Precursor type: [M+H]+
Precursor intensity: 10786386.5
m/z	relative intensity	assigned
69.0698	19	C5H9+
135.9983	3	C7H4OS+
152.0164	136	C7H6NOS+
164.0159	2	C8H6NOS+
220.0789	999	C12H14NOS+
248.0739	65	C13H14NO2S+
266.0844	364	C13H16NO3S+
