Mass spectrum: Diuron; LC-ESI-QFT; MS2; CE: 60; R=17500; [M-H]-
Name: Diuron
Name: 3-(3,4-dichlorophenyl)-1,1-dimethylurea
Formula: C9H10Cl2N2O
Exact mass: 232.0170
SMILES: CN(C)C(=O)NC1=CC(Cl)=C(Cl)C=C1
InChI: InChI=1S/C9H10Cl2N2O/c1-13(2)9(14)12-6-3-4-7(10)8(11)5-6/h3-5H,1-2H3,(H,12,14)
Instrument: Q Exactive Orbitrap (Thermo Scientific)
Instrument type: LC-ESI-QFT
Ms type: MS2
Ion mode: NEGATIVE
Ionization: ESI
Fragmentation mode: HCD
Collision energy: 60
Resolution: 17500
Column name: Acquity BEH C18 1.7um, 2.1x150mm (Waters)
Retention time: 16.791 min
Base peak: 231.0097
Precursor m/z: 231.0097
Precursor type: [M-H]-
Precursor intensity: 16160053.4541
m/z	relative intensity	assigned
65.9985	4	C3NO-
86.0036	8	C6N-
98.9643	25	C4ClO-
113.9985	33	C7NO-
121.9803	92	C6HClN-
123.996	8	C6H3ClN-
149.9752	999	C7HClNO-
159.0566	2	C9H7N2O-
159.9726	137	C6H4Cl2N-
185.9519	928	C7H2Cl2NO-
187.9675	11	C7H4Cl2NO-
214.9786	9	C8H5Cl2N2O-
231.0097	56	C9H9Cl2N2O-
