Mass spectrum: Diflufenican; LC-ESI-QFT; MS2; CE: 30; R=17500; [M-H]-
Name: Diflufenican
Name: N-(2,4-difluorophenyl)-2-[3-(trifluoromethyl)phenoxy]pyridine-3-carboxamide
Formula: C19H11F5N2O2
Exact mass: 394.0741
SMILES: FC1=CC=C(NC(=O)C2=C(OC3=CC(=CC=C3)C(F)(F)F)N=CC=C2)C(F)=C1
InChI: InChI=1S/C19H11F5N2O2/c20-12-6-7-16(15(21)10-12)26-17(27)14-5-2-8-25-18(14)28-13-4-1-3-11(9-13)19(22,23)24/h1-10H,(H,26,27)
Instrument: Q Exactive Orbitrap (Thermo Scientific)
Instrument type: LC-ESI-QFT
Ms type: MS2
Ion mode: NEGATIVE
Ionization: ESI
Fragmentation mode: HCD
Collision energy: 30
Resolution: 17500
Column name: Acquity BEH C18 1.7um, 2.1x150mm (Waters)
Retention time: 19.046 min
Base peak: 271.9888
Precursor m/z: 393.0668
Precursor type: [M-H]-
Precursor intensity: 7247793.130859
m/z	relative intensity	assigned
65.0033	43	C4HO-
66.035	4	C4H4N-
68.9958	18	CF3-
76.0193	2	C5H2N-
85.0095	11	C4H2FO-
96.0256	21	C5H3FN-
140.0157	1	C6H3FNO2-
143.0115	9	C7H2F3-
152.0158	2	C7H3FNO2-
160.0383	1	C7H5F3N-
161.022	35	C7H4F3O-
176.015	2	C9H3FNO2-
185.052	186	C11H6FN2-
186.0362	8	C11H5FNO-
211.0315	3	C12H4FN2O-
228.0337	2	C12H5FN2O2-
229.0418	20	C12H6FN2O2-
238.0486	3	C12H7F3NO-
252.0442	96	C13H6F4N-
259.0663	1	C17H8FN2-
263.0438	2	C13H6F3N2O-
269.0519	2	C18H6FN2-
272.0505	999	C13H7F5N-
276.028	8	C14H5F3NO2-
289.0583	45	C18H7F2N2-
293.0528	9	C17H7F2N2O-
296.0339	6	C14H6F4NO2-
297.0645	6	C17H8F3N2-
302.0601	16	C17H8F4N-
305.0533	3	C18H7F2N2O-
309.0646	179	C18H8F3N2-
321.0475	2	C18H7F2N2O2-
324.051	3	C18H7F3N2O-
325.0594	70	C18H8F3N2O-
326.0432	2	C18H7F3NO2-
327.0545	4	C18H7F4N2-
327.0752	1	C18H10F3N2O-
328.0629	17	C18H8F4N2-
329.0708	462	C18H9F4N2-
333.0478	11	C19H7F2N2O2-
335.0441	6	C19H6F3N2O-
336.0356	2	C16H5F5N2O-
345.0655	44	C18H9F4N2O-
346.0499	5	C18H8F4NO2-
349.0766	5	C18H10F5N2-
352.0453	1	C19H7F3N2O2-
353.0543	242	C19H8F3N2O2-
355.0496	7	C19H7F4N2O-
373.0605	105	C19H9F4N2O2-
393.0681	3	C19H10F5N2O2-
