Mass spectrum: Amiloride; LC-ESI-QFT; MS2; CE: 45; R=17500; [M+H]+
Name: Amiloride
Name: 3,5-diamino-6-chloro-N-(diaminomethylidene)pyrazine-2-carboxamide
Formula: C6H8ClN7O
Exact mass: 229.0479
SMILES: NC(=N)NC(=O)C1=NC(Cl)=C(N)N=C1N
InChI: InChI=1S/C6H8ClN7O/c7-2-4(9)13-3(8)1(12-2)5(15)14-6(10)11/h(H4,8,9,13)(H4,10,11,14,15)
Instrument: Q Exactive Orbitrap (Thermo Scientific)
Instrument type: LC-ESI-QFT
Ms type: MS2
Ion mode: POSITIVE
Ionization: ESI
Fragmentation mode: HCD
Collision energy: 45
Resolution: 17500
Column name: Acquity BEH C18 1.7um, 2.1x150mm (Waters)
Retention time: 9.322 min
Base peak: 79.0211
Precursor m/z: 230.0552
Precursor type: [M+H]+
Precursor intensity: 15791129.03125
m/z	relative intensity	assigned
60.0556	860	CH6N3+
61.0397	5	CH5N2O+
63.9949	1	CH3ClN+
69.0083	1	C2HN2O+
86.0349	26	C2H4N3O+
88.99	1	C2H2ClN2+
100.9897	2	C3H2ClN2+
108.0432	3	C4H4N4+
116.001	50	C3H3ClN3+
125.046	2	C4H5N4O+
143.0119	7	C4H4ClN4+
145.0275	3	C4H6ClN4+
161.0224	215	C4H6ClN4O+
170.0232	2	C5H5ClN5+
171.0068	299	C5H4ClN4O+
188.0334	5	C5H7ClN5O+
189.0173	999	C3H4ClN7O+
196.0019	3	C6H3ClN5O+
203.0329	10	C4H6ClN7O+
213.0285	6	C6H6ClN6O+
230.0551	53	C6H9ClN7O+
