Mass spectrum: Fluoxastrobin; LC-ESI-QFT; MS2; CE: 30; R=17500; [M+H]+
Name: Fluoxastrobin
Name: (E)-1-[2-[6-(2-chlorophenoxy)-5-fluoropyrimidin-4-yl]oxyphenyl]-1-(5,6-dihydro-1,4,2-dioxazin-3-yl)-N-methoxymethanimine
Formula: C21H16ClFN4O5
Exact mass: 458.0793
SMILES: CO\N=C(\C1=NOCCO1)C1=C(OC2=C(F)C(OC3=C(Cl)C=CC=C3)=NC=N2)C=CC=C1
InChI: InChI=1S/C21H16ClFN4O5/c1-28-26-18(21-27-30-11-10-29-21)13-6-2-4-8-15(13)31-19-17(23)20(25-12-24-19)32-16-9-5-3-7-14(16)22/h2-9,12H,10-11H2,1H3/b26-18+
Instrument: Q Exactive Orbitrap (Thermo Scientific)
Instrument type: LC-ESI-QFT
Ms type: MS2
Ion mode: POSITIVE
Ionization: ESI
Fragmentation mode: HCD
Collision energy: 30
Resolution: 17500
Column name: Acquity BEH C18 1.7um, 2.1x150mm (Waters)
Retention time: 17.699 min
Base peak: 79.0212
Precursor m/z: 459.0866
Precursor type: [M+H]+
Precursor intensity: 12849198.5
m/z	relative intensity	assigned
53.0386	3	C4H5+
65.0385	12	C5H5+
69.9924	4	C2NO2+
73.0284	9	C3H5O2+
77.0385	1	C6H5+
78.0338	3	C5H4N+
79.0542	4	C6H7+
80.0495	3	C5H6N+
81.0335	5	C5H5O+
86.0236	5	C3H4NO2+
86.9876	1	C3FO2+
90.0339	26	C6H4N+
91.019	6	C3H4FO2+
91.0543	19	C7H7+
92.0496	2	C6H6N+
93.0336	8	C6H5O+
95.0492	13	C6H7O+
96.0444	2	C5H6NO+
97.0033	1	C3HN2O2+
98.9993	2	ClFH3N3+
102.0339	1	C7H4N+
103.054	1	C3H6FN3+
104.0495	32	C7H6N+
105.0335	2	C7H5O+
105.0448	5	C6H5N2+
106.0288	22	C6H4NO+
107.0491	3	C7H7O+
108.0442	4	CH5FN4O+
110.9998	1	C6H4Cl+
111.0441	22	C6H7O2+
113.0235	1	C2H6FO4+
113.0347	1	C4H5N2O2+
117.0573	9	C8H7N+
118.0288	3	C7H4NO+
119.0366	16	C7H5NO+
119.0603	1	C7H7N2+
120.0444	138	C7H6NO+
124.0392	1	CH5FN4O2+
125.0152	2	C7H6Cl+
125.0598	2	C7H9O2+
126.9945	3	C6H4ClO+
127.0302	1	C5H4FN2O+
128.002	1	CH4ClFN3O+
129.0098	9	CH5ClFN3O+
129.0448	2	C8H5N2+
130.0398	7	C7H4N3+
130.0526	1	C8H6N2+
131.0605	3	C8H7N2+
132.0291	3	C4H6NO4+
132.0444	36	C8H6NO+
132.0556	2	C7H6N3+
133.0395	3	C7H5N2O+
134.0237	5	C7H4NO2+
134.0477	1	C7H6N2O+
134.06	25	C8H8NO+
136.0392	15	C2H5FN4O2+
138.0105	152	C7H5ClN+
138.9947	2	C7H4ClO+
139.0059	7	C6H4ClN2+
141.0099	3	C2H5ClFN3O+
143.0059	2	C7H5ClF+
143.0253	1	C5H4FN2O2+
144.032	12	C8H4N2O+
144.0447	1	C6H9ClN2+
144.0555	6	C8H6N3+
145.0396	126	C8H5N2O+
146.0471	1	C8H6N2O+
147.0554	5	C8H7N2O+
150.035	13	C8H5FNO+
154.0052	1	C2H4ClFN4O+
154.04	1	C9H4N3+
154.9893	2	C7H4ClO2+
156.0012	2	C7H4ClFN+
158.0234	1	C3H8ClFN2O2+
159.0354	1	C9H4FN2+
160.0268	2	C8H4N2O2+
160.0506	9	C8H6N3O+
161.0345	20	C8H5N2O2+
161.0706	1	C9H9N2O+
162.035	8	C9H5FNO+
162.0426	4	C8H6N2O2+
163.006	8	C8H4ClN2+
163.0501	12	C8H7N2O2+
164.0342	87	C8H6NO3+
165.0461	1	C8H6FN2O+
166.0054	5	C8H5ClNO+
168.001	5	C8H4ClFN+
168.0456	1	C8H7FNO2+
170.035	21	C9H4N3O+
171.055	1	C10H7N2O+
173.0341	5	C3H9ClFN3O2+
174.0458	2	C9H5FN3+
175.0302	15	C9H4FN2O+
176.038	48	C9H5FN2O+
178.0299	37	C9H5FNO2+
179.0007	68	C8H4ClN2O+
180.0455	4	C9H7FNO2+
183.0121	16	C8H5ClFN2+
183.996	29	C8H4ClFNO+
185.0346	2	C9H10ClO2+
186.0459	1	C10H5FN3+
187.0297	1	C10H4FN2O+
188.038	357	C10H5FN2O+
189.0459	6	C10H6FN2O+
190.041	6	C9H5FN3O+
190.0499	30	C10H8NO3+
193.061	3	C9H9N2O3+
195.012	2	C9H5ClFN2+
195.0566	2	C9H8FN2O2+
196.0503	1	C11H6N3O+
198.0298	3	C10H4N3O2+
200.0467	1	C7H7FN3O3+
202.0615	2	C7H11ClN4O+
203.0249	5	C10H4FN2O2+
204.0331	3	C10H5FN2O2+
204.0768	19	C10H10N3O2+
205.0409	42	C10H6FN2O2+
205.0607	31	C10H9N2O3+
207.0675	1	C9H8FN4O+
211.0067	11	C9H5ClFN2O+
211.9909	19	C9H4ClFNO2+
213.0564	1	C7H13ClFNO3+
214.0065	20	C9H6ClFNO2+
214.0609	22	C5H12ClFN4O2+
220.0514	6	C10H7FN3O2+
221.0358	6	C10H6FN2O3+
223.0069	16	C10H5ClFN2O+
223.9911	8	C10H4ClFNO2+
228.0446	8	C16H6NO+
228.0567	1	C12H7FN3O+
229.028	4	C11H4FN3O2+
230.036	58	C11H5FN3O2+
231.02	62	C11H4FN2O3+
232.0517	16	C11H7FN3O2+
241.0519	12	C12H6FN4O+
243.0669	1	C8H15ClFNO4+
244.0514	8	C12H7FN3O2+
246.0309	114	C11H5FN3O3+
248.002	1	C11H4ClFN3O+
252.0336	2	C16H9ClO+
252.0693	1	C15H9FN2O+
257.0468	23	C12H6FN4O2+
260.0273	2	C14H8ClFNO+
262.0533	2	C16H7FN2O+
263.9974	2	C16H5ClO2+
266.0126	40	C11H6ClFN3O2+
271.0624	3	C13H8FN4O2+
272.0338	8	C12H5FN4O3+
274.0622	28	C13H9FN3O3+
277.0645	4	C16H8FN3O+
280.0643	4	C16H9FN2O2+
287.038	1	C15H9ClFN2O+
301.0724	2	C17H9N4O2+
304.0518	7	C17H7FN3O2+
304.075	3	C13H16ClFNO4+
306.0674	94	C17H9FN3O2+
315.033	87	C16H9ClFN2O2+
318.0683	4	C20H13ClNO+
320.0227	5	C17H5FN2O4+
326.0497	2	C17H10ClFN3O+
331.0623	6	C18H8FN4O2+
340.0285	58	C17H8ClFN3O2+
341.0359	5	C17H9ClFN3O2+
342.0441	53	C17H10ClFN3O2+
349.0484	5	C21H7N3O3+
355.0389	15	C20H6FN3O3+
367.0393	157	C18H9ClFN4O2+
383.0342	160	C18H9ClFN4O3+
391.0836	7	C20H12FN4O4+
397.0499	12	C19H11ClFN4O3+
427.0605	999	C20H13ClFN4O4+
459.0867	2	C21H17ClFN4O5+
