Mass spectrum: FR140423; LC-ESI-QFT; MS2; CE: 45; R=17500; [M+H]+
Name: FR140423
Name: 3-(Difluoromethyl)-1-(4-methoxyphenyl)-5-(4-(methylsulfinyl)phenyl)pyrazole
Name: 3-(difluoromethyl)-1-(4-methoxyphenyl)-5-(4-methylsulfinylphenyl)pyrazole
Formula: C18H16F2N2O2S
Exact mass: 362.0901
SMILES: COC1=CC=C(C=C1)N1N=C(C=C1C1=CC=C(C=C1)S(C)=O)C(F)F
InChI: InChI=1S/C18H16F2N2O2S/c1-24-14-7-5-13(6-8-14)22-17(11-16(21-22)18(19)20)12-3-9-15(10-4-12)25(2)23/h3-11,18H,1-2H3
Instrument: Q Exactive Orbitrap (Thermo Scientific)
Instrument type: LC-ESI-QFT
Ms type: MS2
Ion mode: POSITIVE
Ionization: ESI
Fragmentation mode: HCD
Collision energy: 45
Resolution: 17500
Column name: Acquity BEH C18 1.7um, 2.1x150mm (Waters)
Retention time: 16.264 min
Base peak: 79.0211
Precursor m/z: 363.0973
Precursor type: [M+H]+
Precursor intensity: 4953556.5
m/z	relative intensity	assigned
102.0464	8	C8H6+
108.0568	2	C7H8O+
132.0444	1	C8H6NO+
134.0362	2	C8H6O2+
146.0603	1	C9H8NO+
147.0679	10	C9H9NO+
150.0134	175	C8H6OS+
167.0541	1	C9H7F2N+
170.0539	2	C9H8F2O+
173.0712	1	C10H9N2O+
177.0584	3	C10H8FNO+
178.0662	7	C10H9FNO+
179.0612	7	C9H8FN2O+
182.0409	6	C9H6F2NO+
197.0642	7	C10H9F2NO+
198.0601	5	C9H8F2N2O+
198.0724	6	C10H10F2NO+
199.0678	227	C9H9F2N2O+
208.0757	8	C14H10NO+
222.0917	1	C15H12NO+
223.0992	49	C15H13NO+
224.0347	2	C11H8F2NS+
228.047	1	C13H10NOS+
240.0477	12	C14H10NOS+
248.0944	4	C16H12N2O+
249.1027	13	C16H13N2O+
254.0633	7	C15H12NOS+
255.089	36	C13H15F2NS+
257.0888	9	C15H11F2N2+
260.0944	2	C17H12N2O+
265.0767	8	C16H10FN2O+
268.0802	4	C13H15FNO2S+
269.0876	3	C13H16FNO2S+
271.0662	107	C15H13NO2S+
279.0589	2	C16H11N2OS+
279.0931	30	C17H12FN2O+
280.0668	3	C16H12N2OS+
280.1007	18	C17H13FN2O+
282.0465	3	C15H10N2O2S+
283.0696	2	C16H12FN2S+
284.0754	20	C16H10F2N2O+
285.0835	31	C16H11F2N2O+
288.0534	1	C15H10F2N2S+
292.0835	2	C15H14F2N2S+
293.0371	2	C16H9N2O2S+
295.0325	1	C16H8FN2OS+
295.0893	12	C17H15N2OS+
296.0614	4	C16H12N2O2S+
297.0492	24	C16H10FN2OS+
297.0694	32	C16H13N2O2S+
298.0907	4	C17H12F2N2O+
299.0991	85	C17H13F2N2O+
300.1069	171	C17H14F2N2O+
302.0863	5	C16H12F2N2O2+
303.0763	20	C16H13F2N2S+
305.0554	3	C15H11F2N2OS+
308.0618	12	C17H12N2O2S+
311.0653	9	C17H12FN2OS+
312.0907	17	C17H16N2O2S+
313.0442	12	C16H10FN2O2S+
313.0618	1	C17H11F2N2S+
314.0683	1	C17H12F2N2S+
315.0403	2	C16H9F2N2OS+
316.0482	3	C16H10F2N2OS+
316.1026	2	C17H14F2N2O2+
317.0558	5	C16H11F2N2OS+
325.0805	19	C18H14FN2OS+
327.0599	3	C17H12FN2O2S+
328.0677	179	C17H13FN2O2S+
330.0641	2	C17H12F2N2OS+
331.0711	115	C17H13F2N2OS+
332.0791	14	C17H14F2N2OS+
332.0971	168	C17H17FN2O2S+
333.0503	30	C16H11F2N2O2S+
345.0871	86	C18H15F2N2OS+
346.0948	439	C18H16F2N2OS+
347.0661	29	C17H13F2N2O2S+
348.0739	999	C17H14F2N2O2S+
363.0979	17	C18H17F2N2O2S+
