Mass spectrum: Megestrol acetate; LC-ESI-QFT; MS2; CE: 60; R=17500; [M+H]+
Name: Megestrol acetate
Formula: C24H32O4
Exact mass: 384.2301
SMILES: CC(=O)O[C@@]1(CC[C@H]2[C@@H]3C=C(C)C4=CC(=O)CC[C@]4(C)[C@H]3CC[C@]12C)C(C)=O
InChI: InChI=1S/C24H32O4/c1-14-12-18-19(22(4)9-6-17(27)13-21(14)22)7-10-23(5)20(18)8-11-24(23,15(2)25)28-16(3)26/h12-13,18-20H,6-11H2,1-5H3/t18-,19+,20+,22-,23+,24+/m1/s1
Instrument: Q Exactive Orbitrap (Thermo Scientific)
Instrument type: LC-ESI-QFT
Ms type: MS2
Ion mode: POSITIVE
Ionization: ESI
Fragmentation mode: HCD
Collision energy: 60
Resolution: 17500
Column name: Acquity BEH C18 1.7um, 2.1x150mm (Waters)
Retention time: 18.444 min
Base peak: 79.0211
Precursor m/z: 385.2373
Precursor type: [M+H]+
Precursor intensity: 8455486.5
m/z	relative intensity	assigned
53.0022	3	C3HO+
53.0386	2	C4H5+
55.0179	11	C3H3O+
55.0543	29	C4H7+
57.0698	10	C4H9+
59.0491	19	C3H7O+
65.0386	5	C5H5+
67.0542	55	C5H7+
69.0334	4	C4H5O+
69.0699	23	C5H9+
71.0491	7	C4H7O+
77.0386	2	C6H5+
79.0543	51	C6H7+
81.0699	57	C6H9+
83.0491	104	C5H7O+
85.0648	16	C5H9O+
91.0543	68	C7H7+
93.07	92	C7H9+
95.0491	14	C6H7O+
95.0856	44	C7H11+
97.0649	173	C6H9O+
99.0805	5	C6H11O+
103.0543	6	C8H7+
105.07	119	C8H9+
107.0493	13	C7H7O+
107.0856	82	C8H11+
109.0647	20	C7H9O+
109.1012	37	C8H13+
111.0805	20	C7H11O+
115.0543	6	C9H7+
117.0698	26	C9H9+
119.0856	114	C9H11+
121.0649	60	C8H9O+
121.1013	45	C9H13+
123.0806	21	C8H11O+
123.117	3	C9H15+
128.062	15	C10H8+
129.07	38	C10H9+
130.0778	15	C10H10+
131.0856	101	C10H11+
132.0931	3	C10H12+
133.0651	18	C9H9O+
133.1012	161	C10H13+
135.0804	18	C9H11O+
135.1167	16	C10H15+
137.096	20	C9H13O+
141.0698	23	C11H9+
142.0778	58	C11H10+
143.0856	80	C11H11+
144.0932	15	C11H12+
145.0647	12	C10H9O+
145.1012	140	C11H13+
146.0724	5	C10H10O+
146.1089	5	C11H14+
147.0805	21	C10H11O+
147.1169	56	C11H15+
149.0962	20	C10H13O+
151.1117	5	C10H15O+
153.0701	12	C12H9+
154.0776	8	C12H10+
155.0856	72	C12H11+
156.0935	37	C12H12+
157.1013	130	C12H13+
158.0729	11	C11H10O+
158.1089	7	C12H14+
159.0806	19	C11H11O+
159.1169	69	C12H15+
160.0883	30	C11H12O+
160.1244	3	C12H16+
161.0961	76	C11H13O+
161.1325	6	C12H17+
162.1035	8	C11H14O+
163.1118	13	C11H15O+
165.07	18	C13H9+
166.0779	11	C13H10+
167.0856	57	C13H11+
168.0934	32	C13H12+
169.1012	159	C13H13+
170.0727	3	C12H10O+
170.1088	21	C13H14+
171.0807	24	C12H11O+
171.1169	97	C13H15+
172.0882	19	C12H12O+
172.1245	4	C13H16+
173.0962	75	C12H13O+
173.1326	29	C13H17+
174.1039	11	C12H14O+
175.1118	193	C12H15O+
177.1277	3	C12H17O+
179.0856	49	C14H11+
180.0933	22	C14H12+
181.1013	77	C14H13+
182.109	33	C14H14+
183.117	281	C14H15+
184.1248	10	C14H16+
185.0964	20	C13H13O+
185.1327	58	C14H17+
186.1045	4	C13H14O+
186.1404	6	C14H18+
187.1118	120	C13H15O+
188.1199	6	C13H16O+
189.1273	14	C13H17O+
191.0859	4	C15H11+
192.0934	12	C15H12+
193.1014	68	C15H13+
194.1092	87	C15H14+
195.117	118	C15H15+
196.1246	33	C15H16+
197.0962	8	C14H13O+
197.1326	154	C15H17+
198.1405	82	C15H18+
199.1118	11	C14H15O+
199.1483	59	C15H19+
200.1199	3	C14H16O+
200.1563	7	C15H20+
201.1274	5	C14H17O+
204.0928	3	C16H12+
205.1014	14	C16H13+
206.1092	11	C16H14+
207.1169	65	C16H15+
208.1248	63	C16H16+
209.1326	999	C16H17+
210.1403	76	C16H18+
211.1121	36	C15H15O+
211.1482	235	C16H19+
212.1196	7	C15H16O+
212.1561	10	C16H20+
213.1271	8	C15H17O+
213.1641	5	C16H21+
215.1435	5	C15H19O+
217.1013	3	C17H13+
219.117	38	C17H15+
220.1251	18	C17H16+
221.1324	41	C17H17+
222.1404	39	C17H18+
223.1482	220	C17H19+
224.1561	484	C17H20+
225.1277	30	C16H17O+
225.1639	96	C17H21+
226.1354	10	C16H18O+
227.1428	5	C16H19O+
228.1514	3	C16H20O+
232.1246	6	C18H16+
233.1323	15	C18H17+
234.1405	73	C18H18+
235.1484	47	C18H19+
236.1565	7	C18H20+
237.1276	11	C17H17O+
237.1637	27	C18H21+
238.1351	7	C17H18O+
238.1714	3	C18H22+
239.1429	24	C17H19O+
239.1798	15	C18H23+
240.1513	3	C17H20O+
241.159	7	C17H21O+
245.1312	4	C19H17+
248.1559	10	C19H20+
249.1639	134	C19H21+
250.1713	13	C19H22+
251.1429	35	C18H19O+
252.1505	15	C18H20O+
253.1581	19	C18H21O+
263.1794	9	C20H23+
264.1869	7	C20H24+
265.1591	23	C19H21O+
265.1952	26	C20H25+
266.1669	13	C19H22O+
267.1745	434	C19H23O+
274.172	3	C21H22+
277.1583	6	C20H21O+
281.1902	35	C20H25O+
282.1981	70	C20H26O+
283.2052	4	C20H27O+
295.1694	9	C20H23O2+
310.1936	4	C21H26O2+
325.2175	3	C22H29O2+
