Mass spectrum: Etofenprox; LC-ESI-QFT; MS2; CE: 30; R=17500; [M+H]+
Name: Etofenprox
Name: 1-ethoxy-4-[2-methyl-1-[(3-phenoxyphenyl)methoxy]propan-2-yl]benzene
Formula: C25H28O3
Exact mass: 376.2038
SMILES: CCOC1=CC=C(C=C1)C(C)(C)COCC1=CC(OC2=CC=CC=C2)=CC=C1
InChI: InChI=1S/C25H28O3/c1-4-27-22-15-13-21(14-16-22)25(2,3)19-26-18-20-9-8-12-24(17-20)28-23-10-6-5-7-11-23/h5-17H,4,18-19H2,1-3H3
Instrument: Q Exactive Orbitrap (Thermo Scientific)
Instrument type: LC-ESI-QFT
Ms type: MS2
Ion mode: POSITIVE
Ionization: ESI
Fragmentation mode: HCD
Collision energy: 30
Resolution: 17500
Column name: Acquity BEH C18 1.7um, 2.1x150mm (Waters)
Retention time: 16.967 min
Base peak: 79.0212
Precursor m/z: 377.2111
Precursor type: [M+H]+
Precursor intensity: 7457358.625
m/z	relative intensity	assigned
55.0543	8	C4H7+
81.0699	34	C6H9+
83.0492	12	C5H7O+
85.0648	26	C5H9O+
87.0442	9	C4H7O2+
93.0699	21	C7H9+
95.0491	21	C6H7O+
95.0856	91	C7H11+
97.0648	14	C6H9O+
99.044	7	C5H7O2+
99.0805	23	C6H11O+
101.0597	26	C5H9O2+
105.0699	24	C8H9+
107.0856	50	C8H11+
109.065	64	C7H9O+
109.1013	11	C8H13+
111.0805	24	C7H11O+
119.0857	35	C9H11+
121.065	97	C8H9O+
121.1012	17	C9H13+
123.0805	96	C8H11O+
125.0598	46	C7H9O2+
131.0857	8	C10H11+
133.1011	13	C10H13+
135.0805	438	C9H11O+
137.0962	52	C9H13O+
139.0754	32	C8H11O2+
143.0856	15	C11H11+
145.0649	22	C10H9O+
145.1012	60	C11H13+
147.0805	85	C10H11O+
147.1167	8	C11H15+
149.0962	63	C10H13O+
151.0754	7	C9H11O2+
157.1012	19	C12H13+
159.0805	54	C11H11O+
161.0962	382	C11H13O+
163.0759	8	C10H11O2+
163.1118	25	C11H15O+
165.0912	83	C10H13O2+
169.1014	8	C13H13+
171.0804	8	C12H11O+
171.1169	26	C13H15+
173.0963	88	C12H13O+
175.112	64	C12H15O+
177.0913	33	C11H13O2+
179.0868	7	C14H11+
183.0813	13	C13H11O+
185.0963	190	C13H13O+
187.1119	71	C13H15O+
189.1274	63	C13H17O+
193.1019	13	C15H13+
197.0964	27	C14H13O+
199.112	52	C14H15O+
201.0915	32	C13H13O2+
201.1274	24	C14H17O+
203.107	22	C13H15O2+
209.0962	41	C15H13O+
209.1333	13	C16H17+
210.1052	6	C15H14O+
211.1121	42	C15H15O+
213.1274	55	C15H17O+
217.1225	19	C14H17O2+
222.1039	6	C16H14O+
223.1119	78	C16H15O+
224.1188	8	C16H16O+
225.1276	61	C16H17O+
227.1073	30	C15H15O2+
227.1438	13	C16H19O+
229.1226	62	C15H17O2+
231.1377	17	C15H19O2+
233.1331	12	C18H17+
235.1121	21	C17H15O+
236.1196	23	C17H16O+
237.1276	324	C17H17O+
239.1431	67	C17H19O+
249.1279	53	C18H17O+
250.1358	12	C18H18O+
251.1434	313	C18H19O+
253.159	79	C18H21O+
259.1116	17	C19H15O+
261.1278	21	C19H17O+
261.164	14	C20H21+
262.1359	8	C19H18O+
263.143	47	C19H19O+
264.151	17	C19H20O+
267.1382	60	C18H19O2+
269.1534	22	C18H21O2+
273.1273	7	C20H17O+
274.136	23	C20H18O+
277.1589	69	C20H21O+
278.1666	66	C20H22O+
279.1746	999	C20H23O+
281.1532	8	C19H21O2+
288.1514	43	C21H20O+
293.19	64	C21H25O+
295.1693	58	C20H23O2+
297.1491	10	C19H21O3+
297.1851	90	C20H25O2+
303.1746	176	C22H23O+
306.1617	19	C21H22O2+
311.1992	9	C21H27O2+
321.1854	304	C22H25O2+
339.1959	125	C22H27O3+
