Mass spectrum: Fluorescein; LC-ESI-QFT; MS2; CE: 75; R=17500; [M+H]+
Name: Fluorescein
Name: 3',6'-dihydroxyspiro[2-benzofuran-3,9'-xanthene]-1-one
Formula: C20H12O5
Exact mass: 332.0685
SMILES: OC1=CC2=C(C=C1)C1(OC(=O)C3=C1C=CC=C3)C1=C(O2)C=C(O)C=C1
InChI: InChI=1S/C20H12O5/c21-11-5-7-15-17(9-11)24-18-10-12(22)6-8-16(18)20(15)14-4-2-1-3-13(14)19(23)25-20/h1-10,21-22H
Instrument: Q Exactive Orbitrap (Thermo Scientific)
Instrument type: LC-ESI-QFT
Ms type: MS2
Ion mode: POSITIVE
Ionization: ESI
Fragmentation mode: HCD
Collision energy: 75
Resolution: 17500
Column name: Acquity BEH C18 1.7um, 2.1x150mm (Waters)
Retention time: 15.821 min
Base peak: 79.0211
Precursor m/z: 333.0757
Precursor type: [M+H]+
Precursor intensity: 11381648.5
m/z	relative intensity	assigned
53.0021	2	C3HO+
53.0386	11	C4H5+
55.0178	13	C3H3O+
65.0385	51	C5H5+
67.0176	1	C4H3O+
68.9971	51	C3HO2+
71.0127	3	C3H3O2+
77.0385	3	C6H5+
81.0334	11	C5H5O+
91.0541	2	C7H7+
93.0335	3	C6H5O+
94.0413	7	C6H6O+
95.0126	5	C5H3O2+
95.0491	21	C6H7O+
103.0543	4	C8H7+
105.0335	33	C7H5O+
107.0491	3	C7H7O+
109.0281	1	C6H5O2+
111.0439	4	C6H7O2+
115.0541	24	C9H7+
117.0699	1	C9H9+
119.0127	3	C7H3O2+
121.0284	6	C7H5O2+
127.0543	1	C10H7+
128.062	12	C10H8+
131.0491	17	C9H7O+
133.0284	11	C8H5O2+
137.0234	7	C7H5O3+
139.0542	41	C11H7+
140.0619	10	C11H8+
141.0699	9	C11H9+
143.049	6	C10H7O+
145.0647	6	C10H9O+
147.0442	1	C9H7O2+
149.0239	1	C8H5O3+
152.0618	7	C12H8+
153.0698	5	C12H9+
155.0492	19	C11H7O+
156.0569	1	C11H8O+
159.044	3	C10H7O2+
165.0698	35	C13H9+
167.0491	15	C12H7O+
167.0852	3	C13H11+
168.0569	49	C12H8O+
169.0646	5	C12H9O+
171.0438	18	C11H7O2+
173.0596	4	C11H9O2+
176.0616	7	C14H8+
177.0698	10	C14H9+
178.0776	37	C14H10+
179.0852	12	C14H11+
181.0647	16	C13H9O+
183.0439	6	C12H7O2+
184.0519	39	C12H8O2+
187.0387	4	C11H7O3+
189.0698	101	C15H9+
190.0776	69	C15H10+
191.0854	62	C15H11+
192.0567	1	C14H8O+
193.0648	3	C14H9O+
193.1005	1	C15H13+
194.0724	2	C14H10O+
195.0439	6	C13H7O2+
195.0806	2	C14H11O+
196.0518	24	C13H8O2+
197.0596	7	C13H9O2+
199.0389	20	C12H7O3+
200.0621	4	C16H8+
201.0549	15	C12H9O3+
201.0695	10	C16H9+
202.0777	525	C16H10+
203.0855	293	C16H11+
204.0933	21	C16H12+
205.0647	34	C15H9O+
205.101	11	C16H13+
206.0725	5	C15H10O+
207.0803	15	C15H11O+
209.0593	3	C14H9O2+
211.0389	5	C13H7O3+
212.0469	2	C13H8O3+
213.0698	73	C17H9+
214.0777	24	C17H10+
215.0855	328	C17H11+
216.056	1	C16H8O+
216.0933	5	C17H12+
217.0646	10	C16H9O+
218.0726	83	C16H10O+
219.0803	34	C16H11O+
220.052	1	C15H8O2+
221.0596	12	C15H9O2+
224.0471	2	C14H8O3+
224.0614	2	C18H8+
225.0687	1	C18H9+
226.0776	8	C18H10+
227.0339	4	C13H7O4+
228.0421	6	C13H8O4+
229.0497	110	C13H9O4+
229.0644	17	C17H9O+
230.0727	25	C17H10O+
231.0804	584	C17H11O+
232.0881	17	C17H12O+
233.0596	21	C16H9O2+
233.0959	80	C17H13O+
234.0675	29	C16H10O2+
235.0755	10	C16H11O2+
237.054	3	C15H9O3+
241.05	3	C14H9O4+
241.0643	27	C18H9O+
242.0725	107	C18H10O+
243.0804	99	C18H11O+
244.088	23	C18H12O+
245.0596	25	C17H9O2+
246.0674	14	C17H10O2+
247.0753	54	C17H11O2+
248.0838	3	C17H12O2+
249.0543	9	C16H9O3+
249.0915	2	C17H13O2+
250.0623	3	C16H10O3+
253.0634	2	C19H9O+
255.0287	1	C14H7O5+
255.0808	2	C19H11O+
257.0596	4	C18H9O2+
258.0675	219	C18H10O2+
259.0753	388	C18H11O2+
260.083	77	C18H12O2+
261.091	100	C18H13O2+
262.0625	9	C17H10O3+
263.0701	13	C17H11O3+
269.0586	17	C19H9O2+
270.0676	17	C19H10O2+
271.0753	347	C19H11O2+
272.083	4	C19H12O2+
273.055	7	C18H9O3+
274.0621	22	C18H10O3+
275.0696	4	C18H11O3+
277.0858	3	C18H13O3+
285.0544	8	C19H9O3+
286.0625	73	C19H10O3+
287.0702	999	C19H11O3+
288.078	9	C19H12O3+
289.0858	413	C19H13O3+
297.055	5	C20H9O3+
298.0616	7	C20H10O3+
299.0707	4	C20H11O3+
302.0582	6	C19H10O4+
303.0654	3	C19H11O4+
304.073	2	C19H12O4+
305.0807	26	C19H13O4+
313.0489	4	C20H9O4+
315.0651	86	C20H11O4+
316.0735	1	C20H12O4+
333.0759	254	C20H13O5+
