Mass spectrum: Chloralose; LC-ESI-QFT; MS2; CE: 45; R=17500; [M-H]-
Name: Chloralose
Formula: C8H11Cl3O6
Exact mass: 307.9621
SMILES: OC[C@@H](O)[C@H]1O[C@@H]2O[C@@H](O[C@@H]2[C@H]1O)C(Cl)(Cl)Cl
InChI: InChI=1S/C8H11Cl3O6/c9-8(10,11)7-16-5-3(14)4(2(13)1-12)15-6(5)17-7/h2-7,12-14H,1H2/t2-,3+,4-,5-,6-,7-/m1/s1
Instrument: Q Exactive Orbitrap (Thermo Scientific)
Instrument type: LC-ESI-QFT
Ms type: MS2
Ion mode: NEGATIVE
Ionization: ESI
Fragmentation mode: HCD
Collision energy: 45
Resolution: 17500
Column name: Acquity BEH C18 1.7um, 2.1x150mm (Waters)
Retention time: 13.543 min
Base peak: 249.0227
Precursor m/z: 306.9548
Precursor type: [M-H]-
Precursor intensity: 2868858.548828
m/z	relative intensity	assigned
55.0189	107	C3H3O-
57.0346	92	C3H5O-
58.0061	14	C2H2O2-
59.0138	409	C2H3O2-
69.0347	13	C4H5O-
71.0139	999	C3H3O2-
72.9932	34	C2HO3-
73.0296	306	C3H5O2-
75.0088	17	C2H3O3-
83.0139	165	C4H3O2-
85.0295	554	C4H5O2-
87.0089	27	C3H3O3-
89.0247	9	C3H5O3-
95.0139	112	C5H3O2-
97.0296	12	C5H5O2-
99.0089	91	C4H3O3-
101.0245	316	C4H5O3-
113.0245	213	C5H5O3-
116.9071	367	CCl3-
