Mass spectrum: PharmaGSID_48507; LC-ESI-QFT; MS2; CE: 15; R=17500; [M-H]-
Name: PharmaGSID_48507
Name: 5-(2,4-Difluorophenoxy)-2-[(2-hydroxy-2-methylpropyl)amino]-8-methylpyrido[2,3-d]pyrimidin-7(8H)-one
Formula: C18H18F2N4O3
Exact mass: 376.1347
SMILES: CN1C(=O)C=C(OC2=C(F)C=C(F)C=C2)C2=C1N=C(NCC(C)(C)O)N=C2
InChI: InChI=1S/C18H18F2N4O3/c1-18(2,26)9-22-17-21-8-11-14(7-15(25)24(3)16(11)23-17)27-13-5-4-10(19)6-12(13)20/h4-8,26H,9H2,1-3H3,(H,21,22,23)
Instrument: Q Exactive Orbitrap (Thermo Scientific)
Instrument type: LC-ESI-QFT
Ms type: MS2
Ion mode: NEGATIVE
Ionization: ESI
Fragmentation mode: HCD
Collision energy: 15
Resolution: 17500
Column name: Acquity BEH C18 1.7um, 2.1x150mm (Waters)
Retention time: 16.608 min
Base peak: 206.007
Precursor m/z: 375.1274
Precursor type: [M-H]-
Precursor intensity: 5487649.570312
m/z	relative intensity	assigned
129.0155	6	C6H3F2O-
176.0466	1	C8H6N3O2-
297.0798	1	C15H10FN4O2-
303.0699	10	C14H9F2N4O2-
317.0855	233	C15H11F2N4O2-
375.1275	999	C18H17F2N4O3-
