Mass spectrum: Pioglitazone hydrochloride; LC-ESI-QFT; MS2; CE: 75; R=17500; [M-H]-
Name: Pioglitazone
Name: 5-[[4-[2-(5-ethylpyridin-2-yl)ethoxy]phenyl]methyl]-1,3-thiazolidine-2,4-dione
Formula: C19H20N2O3S
Exact mass: 356.1195
SMILES: CCC1=CN=C(CCOC2=CC=C(CC3SC(=O)NC3=O)C=C2)C=C1
InChI: InChI=1S/C19H20N2O3S/c1-2-13-3-6-15(20-12-13)9-10-24-16-7-4-14(5-8-16)11-17-18(22)21-19(23)25-17/h3-8,12,17H,2,9-11H2,1H3,(H,21,22,23)
Instrument: Q Exactive Orbitrap (Thermo Scientific)
Instrument type: LC-ESI-QFT
Ms type: MS2
Ion mode: NEGATIVE
Ionization: ESI
Fragmentation mode: HCD
Collision energy: 75
Resolution: 17500
Column name: Acquity BEH C18 1.7um, 2.1x150mm (Waters)
Retention time: 13.601 min
Base peak: 327.1714
Precursor m/z: 355.1122
Precursor type: [M-H]-
Precursor intensity: 9214231.37793
m/z	relative intensity	assigned
56.9804	24	C2HS-
71.9676	47	C2OS-
116.0268	24	C8H4O-
117.0346	934	C8H5O-
119.0502	380	C8H7O-
121.0295	69	C7H5O2-
145.0296	49	C9H5O2-
149.0067	637	C8H5OS-
150.0145	999	C8H6OS-
151.0223	28	C8H7OS-
