Mass spectrum: Mepanipyrim; LC-ESI-QFT; MS2; CE: 45; R=17500; [M+H]+
Name: Mepanipyrim
Name: 4-methyl-N-phenyl-6-prop-1-ynylpyrimidin-2-amine
Formula: C14H13N3
Exact mass: 223.1109
SMILES: CC#CC1=CC(C)=NC(NC2=CC=CC=C2)=N1
InChI: InChI=1S/C14H13N3/c1-3-7-13-10-11(2)15-14(17-13)16-12-8-5-4-6-9-12/h4-6,8-10H,1-2H3,(H,15,16,17)
Instrument: Q Exactive Orbitrap (Thermo Scientific)
Instrument type: LC-ESI-QFT
Ms type: MS2
Ion mode: POSITIVE
Ionization: ESI
Fragmentation mode: HCD
Collision energy: 45
Resolution: 17500
Column name: Acquity BEH C18 1.7um, 2.1x150mm (Waters)
Retention time: 17.957 min
Base peak: 79.0211
Precursor m/z: 224.1182
Precursor type: [M+H]+
Precursor intensity: 55920443.5
m/z	relative intensity	assigned
65.0386	5	C5H5+
66.0337	1	C4H4N+
68.0494	1	C4H6N+
77.0387	1	C6H5+
79.0542	15	C6H7+
80.0495	6	C5H6N+
82.0652	3	C5H8N+
90.0338	2	C6H4N+
92.0495	1	C6H6N+
93.0573	2	C6H7N+
94.0652	9	C6H8N+
95.0492	2	C4H5N3+
104.0495	17	C7H6N+
105.0448	1	C6H5N2+
106.0652	67	C7H8N+
107.0603	4	C6H7N2+
107.073	4	C7H9N+
115.0542	2	C9H7+
117.0574	1	C8H7N+
118.0651	3	C8H8N+
119.0603	7	C7H7N2+
121.076	23	C7H9N2+
129.07	1	C10H9+
131.0604	37	C8H7N2+
132.0682	9	C8H8N2+
140.0496	1	C10H6N+
142.0652	11	C10H8N+
143.0604	10	C9H7N2+
143.073	1	C10H9N+
146.0714	2	C8H8N3+
147.0791	5	C8H9N3+
148.1122	3	C10H14N+
156.0809	3	C11H10N+
157.076	1	C10H9N2+
159.092	2	C10H11N2+
166.0653	5	C12H8N+
167.0727	3	C12H9N+
168.0683	6	C11H8N2+
180.0808	9	C13H10N+
181.0762	1	C12H9N2+
182.0839	10	C12H10N2+
183.0918	28	C12H11N2+
184.0871	11	C11H10N3+
184.0994	2	C12H12N2+
192.0682	6	C13H8N2+
195.0919	3	C13H11N2+
196.1001	1	C13H12N2+
197.1075	6	C13H13N2+
205.0765	1	C14H9N2+
206.0839	10	C14H10N2+
207.0918	24	C14H11N2+
208.0872	9	C13H10N3+
208.0997	4	C14H12N2+
209.0949	41	C13H11N3+
222.1026	6	C14H12N3+
223.1106	8	C14H13N3+
224.1182	999	C14H14N3+
