Mass spectrum: 4-Hexyloxyaniline; LC-ESI-QFT; MS2; CE: 45; R=17500; [M+H]+
Name: 4-Hexyloxyaniline
Name: 4-hexoxyaniline
Formula: C12H19NO
Exact mass: 193.1467
SMILES: CCCCCCOC1=CC=C(N)C=C1
InChI: InChI=1S/C12H19NO/c1-2-3-4-5-10-14-12-8-6-11(13)7-9-12/h6-9H,2-5,10,13H2,1H3
Instrument: Q Exactive Orbitrap (Thermo Scientific)
Instrument type: LC-ESI-QFT
Ms type: MS2
Ion mode: POSITIVE
Ionization: ESI
Fragmentation mode: HCD
Collision energy: 45
Resolution: 17500
Column name: Acquity BEH C18 1.7um, 2.1x150mm (Waters)
Retention time: 15.896 min
Base peak: 79.0211
Precursor m/z: 194.1539
Precursor type: [M+H]+
Precursor intensity: 17972993.53125
m/z	relative intensity	assigned
53.0022	1	C3HO+
57.0699	5	C4H9+
65.0385	27	C5H5+
67.0541	5	C5H7+
80.0494	1	C5H6N+
82.0651	28	C5H8N+
85.1011	1	C6H13+
92.0494	63	C6H6N+
93.0335	45	C6H5O+
93.0572	3	C6H7N+
109.0522	10	C6H7NO+
110.06	999	C6H8NO+
124.0757	1	C7H10NO+
193.1464	1	C12H19NO+
194.1539	695	C12H20NO+
