Mass spectrum: Chlorbromuron; LC-ESI-QFT; MS2; CE: 75; R=17500; [M+H]+
Name: Chlorbromuron
Name: 3-(4-bromo-3-chlorophenyl)-1-methoxy-1-methylurea
Formula: C9H10BrClN2O2
Exact mass: 291.9614
SMILES: CON(C)C(=O)NC1=CC(Cl)=C(Br)C=C1
InChI: InChI=1S/C9H10BrClN2O2/c1-13(15-2)9(14)12-6-3-4-7(10)8(11)5-6/h3-5H,1-2H3,(H,12,14)
Instrument: Q Exactive Orbitrap (Thermo Scientific)
Instrument type: LC-ESI-QFT
Ms type: MS2
Ion mode: POSITIVE
Ionization: ESI
Fragmentation mode: HCD
Collision energy: 75
Resolution: 17500
Column name: Acquity BEH C18 1.7um, 2.1x150mm (Waters)
Retention time: 17.663 min
Base peak: 79.0211
Precursor m/z: 292.9687
Precursor type: [M+H]+
Precursor intensity: 959507.625
m/z	relative intensity	assigned
60.0444	80	C2H6NO+
62.0601	18	C2H8NO+
125.0028	999	C6H4ClN+
126.0107	104	C6H5ClN+
142.0053	20	C6H5ClNO+
144.0212	47	C6H7ClNO+
153.0215	571	C7H6ClN2+
157.0288	13	C7H8ClNO+
165.022	20	C8H6ClN2+
168.9523	358	C6H4BrN+
176.9102	379	C5H3BrCl+
181.0165	158	C8H6ClN2O+
182.0245	60	C8H7ClN2O+
196.9712	26	C7H6BrN2+
203.9212	247	C6H4BrClN+
204.929	372	C6H5BrClN+
260.9426	23	C8H7BrClN2O+
