Mass spectrum: Karbutilate; LC-ESI-QFT; MS2; CE: 60; R=17500; [M-H]-
Name: Karbutilate
Name: [3-(dimethylcarbamoylamino)phenyl] N-tert-butylcarbamate
Formula: C14H21N3O3
Exact mass: 279.1583
SMILES: CN(C)C(=O)NC1=CC=CC(OC(=O)NC(C)(C)C)=C1
InChI: InChI=1S/C14H21N3O3/c1-14(2,3)16-13(19)20-11-8-6-7-10(9-11)15-12(18)17(4)5/h6-9H,1-5H3,(H,15,18)(H,16,19)
Instrument: Q Exactive Orbitrap (Thermo Scientific)
Instrument type: LC-ESI-QFT
Ms type: MS2
Ion mode: NEGATIVE
Ionization: ESI
Fragmentation mode: HCD
Collision energy: 60
Resolution: 17500
Column name: Acquity BEH C18 1.7um, 2.1x150mm (Waters)
Retention time: 15.120 min
Base peak: 112.9857
Precursor m/z: 278.151
Precursor type: [M-H]-
Precursor intensity: 586225.8500977
m/z	relative intensity	assigned
91.019	20	C6H3O-
111.0565	17	C5H7N2O-
134.0247	999	C7H4NO2-
179.0826	32	C9H11N2O2-
