Mass spectrum: Dapsone; LC-ESI-QFT; MS2; CE: 30; R=17500; [M+H]+
Name: Dapsone
Name: 4-(4-aminophenyl)sulfonylaniline
Formula: C12H12N2O2S
Exact mass: 248.0619
SMILES: NC1=CC=C(C=C1)S(=O)(=O)C1=CC=C(N)C=C1
InChI: InChI=1S/C12H12N2O2S/c13-9-1-5-11(6-2-9)17(15,16)12-7-3-10(14)4-8-12/h1-8H,13-14H2
Instrument: Q Exactive Orbitrap (Thermo Scientific)
Instrument type: LC-ESI-QFT
Ms type: MS2
Ion mode: POSITIVE
Ionization: ESI
Fragmentation mode: HCD
Collision energy: 30
Resolution: 17500
Column name: Acquity BEH C18 1.7um, 2.1x150mm (Waters)
Retention time: 10.889 min
Base peak: 79.0212
Precursor m/z: 249.0692
Precursor type: [M+H]+
Precursor intensity: 7466634.3125
m/z	relative intensity	assigned
53.0386	2	C4H5+
54.0338	2	C3H4N+
55.0178	2	C3H3O+
65.0384	4	C5H5+
68.0494	39	C4H6N+
69.0335	3	C4H5O+
78.0338	4	C5H4N+
79.0179	5	C5H3O+
82.0287	1	C4H4NO+
92.0494	82	C6H6N+
93.0573	39	C6H7N+
95.0366	1	C5H5NO+
96.0443	6	C5H6NO+
108.0443	303	C6H6NO+
110.06	13	C6H8NO+
120.0556	5	C8H8O+
140.0165	1	C6H6NOS+
156.0113	999	C6H6NO2S+
188.9899	1	C9H3NO2S+
249.0692	191	C12H13N2O2S+
