Mass spectrum: Labetalol; LC-ESI-QFT; MS2; CE: 75; R=17500; [M-H]-
Name: Labetalol
Name: 2-hydroxy-5-[1-hydroxy-2-(4-phenylbutan-2-ylamino)ethyl]benzamide
Formula: C19H24N2O3
Exact mass: 328.1787
SMILES: CC(CCC1=CC=CC=C1)NCC(O)C1=CC=C(O)C(=C1)C(N)=O
InChI: InChI=1S/C19H24N2O3/c1-13(7-8-14-5-3-2-4-6-14)21-12-18(23)15-9-10-17(22)16(11-15)19(20)24/h2-6,9-11,13,18,21-23H,7-8,12H2,1H3,(H2,20,24)
Instrument: Q Exactive Orbitrap (Thermo Scientific)
Instrument type: LC-ESI-QFT
Ms type: MS2
Ion mode: NEGATIVE
Ionization: ESI
Fragmentation mode: HCD
Collision energy: 75
Resolution: 17500
Column name: Acquity BEH C18 1.7um, 2.1x150mm (Waters)
Retention time: 13.525 min
Base peak: 304.1303
Precursor m/z: 327.1714
Precursor type: [M-H]-
Precursor intensity: 7436222.004395
m/z	relative intensity	assigned
65.0033	3	C4HO-
65.9986	9	C3NO-
89.0399	4	C7H5-
90.0351	3	C6H4N-
91.0189	23	C6H3O-
93.0347	16	C6H5O-
95.0502	13	C6H7O-
105.0345	7	C7H5O-
106.0424	41	C7H6O-
107.0501	20	C7H7O-
108.0218	14	C6H4O2-
117.0346	14	C8H5O-
117.0459	4	C7H5N2-
118.0299	68	C7H4NO-
119.0503	28	C8H7O-
121.0296	32	C7H5O2-
123.0453	8	C7H7O2-
130.0299	5	C8H4NO-
131.0377	326	C8H5NO-
132.0455	64	C8H6NO-
133.0534	99	C8H7NO-
134.0612	15	C8H8NO-
136.0404	8	C7H6NO2-
138.0322	7	C7H6O3-
143.0253	4	C8H3N2O-
144.0456	44	C9H6NO-
145.0534	5	C9H7NO-
146.0248	11	C8H4NO2-
146.0611	35	C9H8NO-
149.0482	124	C8H7NO2-
156.033	15	C9H4N2O-
156.0457	3	C10H6NO-
157.0408	999	C9H5N2O-
158.0246	32	C9H4NO2-
158.0486	55	C9H6N2O-
158.0612	11	C10H8NO-
159.0565	27	C9H7N2O-
159.0683	3	C10H9NO-
160.0406	5	C9H6NO2-
160.0769	15	C10H10NO-
162.056	18	C9H8NO2-
163.0275	125	C8H5NO3-
164.0353	34	C8H6NO3-
169.0406	12	C10H5N2O-
170.0486	8	C10H6N2O-
171.0564	48	C10H7N2O-
174.0437	8	C9H6N2O2-
175.0513	371	C9H7N2O2-
176.0591	86	C9H8N2O2-
177.0669	3	C9H9N2O2-
181.0381	136	C11H5N2O-
183.0565	8	C11H7N2O-
184.064	3	C11H8N2O-
185.0723	30	C11H9N2O-
186.0676	6	C12H10O2-
187.0879	8	C11H11N2O-
189.0673	17	C10H9N2O2-
199.0872	5	C12H11N2O-
203.083	3	C11H11N2O2-
291.1501	7	C19H19N2O-
