Mass spectrum: Fomesafen; LC-ESI-QFT; MS2; CE: 45; R=17500; [M-H]-
Name: Fomesafen
Name: 5-[2-chloro-4-(trifluoromethyl)phenoxy]-N-methylsulfonyl-2-nitrobenzamide
Formula: C15H10ClF3N2O6S
Exact mass: 437.9900
SMILES: CS(=O)(=O)NC(=O)C1=CC(OC2=CC=C(C=C2Cl)C(F)(F)F)=CC=C1[N+]([O-])=O
InChI: InChI=1S/C15H10ClF3N2O6S/c1-28(25,26)20-14(22)10-7-9(3-4-12(10)21(23)24)27-13-5-2-8(6-11(13)16)15(17,18)19/h2-7H,1H3,(H,20,22)
Instrument: Q Exactive Orbitrap (Thermo Scientific)
Instrument type: LC-ESI-QFT
Ms type: MS2
Ion mode: NEGATIVE
Ionization: ESI
Fragmentation mode: HCD
Collision energy: 45
Resolution: 17500
Column name: Acquity BEH C18 1.7um, 2.1x150mm (Waters)
Retention time: 17.863 min
Base peak: 227.999
Precursor m/z: 436.9827
Precursor type: [M-H]-
Precursor intensity: 18986630.08008
m/z	relative intensity	assigned
59.0138	44	C2H3O2-
61.9707	1	NOS-
63.9624	35	O2S-
65.0034	1	C4HO-
65.9986	6	C3NO-
69.0346	8	C4H5O-
72.0091	253	C2H2NO2-
75.9863	9	CH2NOS-
79.0189	2	C5H3O-
80.9652	8	HO3S-
81.0345	1	C5H5O-
85.0295	9	C4H5O2-
95.0139	8	C5H3O2-
97.0296	6	C5H5O2-
101.0608	45	C5H9O2-
107.0139	11	C6H3O2-
111.0089	2	C5H3O3-
119.9761	30	C2H2NO3S-
122.001	8	CH5F3OS-
123.0088	13	C6H3O3-
125.0245	15	C6H5O3-
133.0171	1	C7H3NO2-
137.0118	149	C6H3NO3-
138.0196	1	C6H4NO3-
141.071	1	C11H9-
159.0061	1	C7H2F3O-
174.9768	10	C7H2ClF2O-
194.983	999	C7H3ClF3O-
198.0298	144	C10H5F3O-
200.0088	5	C9H3F3O2-
202.0236	1	C12H4F2O-
209.0219	17	C11H4F3O-
210.0172	4	C4H8ClF3NO3-
213.0171	1	C10H4F3O2-
218.9829	1	C9H3ClF3O-
222.0298	187	C12H5F3O-
225.0171	9	C11H4F3O2-
226.0249	9	C11H5F3O2-
235.025	3	C12H4F3NO-
238.0245	8	C12H5F3O2-
240.0404	14	C12H7F3O2-
244.9986	1	C11H5ClF3O-
253.0119	5	C12H4F3O3-
258.0062	7	C6H8ClFN2O6-
263.0199	1	C13H4F3NO2-
269.9942	2	C12H4ClF3NO-
284.9935	13	C13H5ClF3O2-
286.0014	7	C13H6ClF3O2-
315.999	12	C13H6ClF3NO3-
