Mass spectrum: Thiacloprid; LC-ESI-QFT; MS2; CE: 75; R=17500; [M+H]+
Name: Thiacloprid
Name: [3-[(6-chloropyridin-3-yl)methyl]-1,3-thiazolidin-2-ylidene]cyanamide
Formula: C10H9ClN4S
Exact mass: 252.0236
SMILES: C1CSC(=NC#N)N1CC2=CN=C(C=C2)Cl
InChI: InChI=1S/C10H9ClN4S/c11-9-2-1-8(5-13-9)6-15-3-4-16-10(15)14-7-12/h1-2,5H,3-4,6H2
Instrument: Q Exactive Orbitrap (Thermo Scientific)
Instrument type: LC-ESI-QFT
Ms type: MS2
Ion mode: POSITIVE
Ionization: ESI
Fragmentation mode: HCD
Collision energy: 75
Resolution: 17500
Column name: Acquity BEH C18 1.7um, 2.1x150mm (Waters)
Retention time: 13.720 min
Base peak: 79.0212
Precursor m/z: 253.0309
Precursor type: [M+H]+
Precursor intensity: 9724459.75
m/z	relative intensity	assigned
63.0229	24	C5H3+
64.0181	2	C4H2N+
65.0385	7	C5H5+
72.9838	26	C3H2Cl+
74.9996	1	C3H4Cl+
80.0494	8	C5H6N+
81.0334	54	C2H8ClN+
90.0338	235	C6H4N+
91.0416	50	C6H5N+
98.9995	184	C5H4Cl+
108.0443	28	C3H9ClN2+
123.9948	1	C6H3ClN+
126.0104	999	C6H5ClN+
144.021	50	C4H5ClN4+
151.0057	3	C7H4ClN2+
