Mass spectrum: 4-[3-(4-Acetyl-3-hydroxy-2-propylphenoxy)propoxy]phenoxy-acetic acid; LC-ESI-QFT; MS2; CE: 30; R=17500; [M+H]+
Name: 4-[3-(4-Acetyl-3-hydroxy-2-propylphenoxy)propoxy]phenoxy-acetic acid
Name: 2-(4-(3-(4-Acetyl-3-hydroxy-2-propylphenoxy)propoxy)phenoxy)acetic acid
Name: 2-[4-[3-(4-acetyl-3-hydroxy-2-propylphenoxy)propoxy]phenoxy]acetic acid
Formula: C22H26O7
Exact mass: 402.1679
SMILES: CCCC1=C(OCCCOC2=CC=C(OCC(O)=O)C=C2)C=CC(C(C)=O)=C1O
InChI: InChI=1S/C22H26O7/c1-3-5-19-20(11-10-18(15(2)23)22(19)26)28-13-4-12-27-16-6-8-17(9-7-16)29-14-21(24)25/h6-11,26H,3-5,12-14H2,1-2H3,(H,24,25)
Instrument: Q Exactive Orbitrap (Thermo Scientific)
Instrument type: LC-ESI-QFT
Ms type: MS2
Ion mode: POSITIVE
Ionization: ESI
Fragmentation mode: HCD
Collision energy: 30
Resolution: 17500
Column name: Acquity BEH C18 1.7um, 2.1x150mm (Waters)
Retention time: 19.209 min
Base peak: 79.0211
Precursor m/z: 403.1751
Precursor type: [M+H]+
Precursor intensity: 10695082.96875
m/z	relative intensity	assigned
55.0179	2	C3H3O+
65.0386	1	C5H5+
69.0335	1	C4H5O+
77.0386	2	C6H5+
79.0542	5	C6H7+
91.0542	1	C7H7+
93.0699	1	C7H9+
95.0491	10	C6H7O+
103.0542	1	C8H7+
105.0335	1	C7H5O+
105.07	8	C8H9+
107.0492	58	C7H7O+
107.0856	4	C8H11+
109.0284	9	C6H5O2+
109.0648	2	C7H9O+
111.0441	6	C6H7O2+
117.07	3	C9H9+
121.0647	2	C8H9O+
123.0441	40	C7H7O2+
125.0598	2	C7H9O2+
133.0648	7	C9H9O+
135.0441	18	C8H7O2+
135.0805	181	C9H11O+
137.0598	49	C8H9O2+
145.0648	2	C10H9O+
149.0598	41	C9H9O2+
150.0676	49	C9H10O2+
151.0754	126	C9H11O2+
153.0546	22	C8H9O3+
153.091	38	C9H13O2+
161.0597	2	C10H9O2+
163.0754	999	C10H11O2+
165.0548	17	C9H9O3+
165.091	201	C10H13O2+
167.0339	26	C8H7O4+
175.0756	7	C11H11O2+
177.091	21	C11H13O2+
179.0704	9	C10H11O3+
181.0496	178	C9H9O4+
189.0911	7	C12H13O2+
191.0704	8	C11H11O3+
191.1067	45	C12H15O2+
193.0862	66	C11H13O3+
193.1224	199	C12H17O2+
195.1017	306	C11H15O3+
203.1069	1	C13H15O2+
205.0866	5	C12H13O3+
205.1223	22	C13H17O2+
207.1017	135	C12H15O3+
209.0809	17	C11H13O4+
215.07	1	C13H11O3+
217.1223	1	C14H17O2+
233.1174	21	C14H17O3+
235.133	15	C14H19O3+
255.1378	2	C17H19O2+
257.1172	3	C16H17O3+
273.1114	1	C16H17O4+
285.1481	1	C18H21O3+
297.1484	2	C19H21O3+
315.1588	16	C19H23O4+
343.1547	3	C20H23O5+
357.1698	56	C21H25O5+
361.1648	10	C20H25O6+
403.1754	39	C22H27O7+
