Mass spectrum: Difenoconazole; LC-ESI-QFT; MS2; CE: 45; R=17500; [M+H]+
Name: Difenoconazole
Formula: C19H17Cl2N3O3
Exact mass: 405.0647
SMILES: CC1COC(CN2C=NC=N2)(O1)C1=C(Cl)C=C(OC2=CC=C(Cl)C=C2)C=C1
InChI: InChI=1S/C19H17Cl2N3O3/c1-13-9-25-19(27-13,10-24-12-22-11-23-24)17-7-6-16(8-18(17)21)26-15-4-2-14(20)3-5-15/h2-8,11-13H,9-10H2,1H3
Instrument: Q Exactive Orbitrap (Thermo Scientific)
Instrument type: LC-ESI-QFT
Ms type: MS2
Ion mode: POSITIVE
Ionization: ESI
Fragmentation mode: HCD
Collision energy: 45
Resolution: 17500
Column name: Acquity BEH C18 1.7um, 2.1x150mm (Waters)
Retention time: 18.993 min
Base peak: 79.0211
Precursor m/z: 406.072
Precursor type: [M+H]+
Precursor intensity: 8292038.25
m/z	relative intensity	assigned
53.0022	1	C3HO+
70.0399	4	C2H4N3+
72.0807	1	C4H10N+
111.0003	3	C6H4Cl+
126.9945	2	C6H4ClO+
129.0698	9	C10H9+
139.0057	1	C6H4ClN2+
139.0308	1	C8H8Cl+
141.0101	2	C7H6ClO+
152.062	10	C12H8+
153.0698	4	C12H9+
163.0309	2	C10H8Cl+
164.0386	15	C10H9Cl+
181.0647	5	C13H9O+
187.0308	19	C12H8Cl+
188.0387	44	C12H9Cl+
215.026	4	C13H8ClO+
216.0333	4	C13H9ClO+
223.0075	32	C12H9Cl2+
251.0023	999	C13H9Cl2O+
256.065	1	C16H13ClO+
261.9945	4	C14H8Cl2O+
263.0029	2	C14H9Cl2O+
264.9816	46	C13H7Cl2O2+
273.0321	2	C19H3N3+
291.0338	12	C16H13Cl2O+
323.0236	7	C16H13Cl2O3+
