Mass spectrum: Indoxacarb; LC-ESI-QFT; MS2; CE: 15; R=17500; [M+H]+
Name: Indoxacarb
Name: methyl (4aS)-7-chloro-2-[methoxycarbonyl-[4-(trifluoromethoxy)phenyl]carbamoyl]-3,5-dihydroindeno[1,2-e][1,3,4]oxadiazine-4a-carboxylate
Formula: C22H17ClF3N3O7
Exact mass: 527.0707
SMILES: COC(=O)N(C(=O)N1CO[C@]2(CC3=C(C=CC(Cl)=C3)C2=N1)C(=O)OC)C1=CC=C(OC(F)(F)F)C=C1
InChI: InChI=1S/C22H17ClF3N3O7/c1-33-18(30)21-10-12-9-13(23)3-8-16(12)17(21)27-28(11-35-21)19(31)29(20(32)34-2)14-4-6-15(7-5-14)36-22(24,25)26/h3-9H,10-11H2,1-2H3/t21-/m0/s1
Instrument: Q Exactive Orbitrap (Thermo Scientific)
Instrument type: LC-ESI-QFT
Ms type: MS2
Ion mode: POSITIVE
Ionization: ESI
Fragmentation mode: HCD
Collision energy: 15
Resolution: 17500
Column name: Acquity BEH C18 1.7um, 2.1x150mm (Waters)
Retention time: 18.917 min
Base peak: 79.0211
Precursor m/z: 528.078
Precursor type: [M+H]+
Precursor intensity: 5616542
m/z	relative intensity	assigned
56.0131	138	C2H2NO+
75.044	51	C3H7O2+
88.0393	7	C3H6NO2+
102.0549	12	C4H8NO2+
150.0105	85	C8H5ClN+
160.0503	1	C8H6N3O+
164.0262	1	C9H7ClN+
168.0211	273	C8H7ClNO+
178.0052	18	C9H5ClNO+
182.0368	13	C9H9ClNO+
189.0213	26	C10H6ClN2+
190.0054	159	C10H5ClNO+
194.0366	5	C10H9ClNO+
196.016	209	C9H7ClNO2+
207.0321	11	C10H8ClN2O+
208.0159	12	C10H7ClNO2+
214.0738	19	ClF2H17N2O6+
217.0164	93	C11H6ClN2O+
218.0423	388	C9H7F3NO2+
219.032	3	C11H8ClN2O+
221.0479	5	C11H10ClN2O+
222.0316	19	C11H9ClNO2+
223.0156	165	C11H8ClO3+
230.9956	6	C11H4ClN2O2+
235.027	31	C11H8ClN2O2+
249.0425	999	C12H10ClN2O2+
263.0217	54	C12H8ClN2O3+
265.0374	62	C12H10ClN2O3+
