Mass spectrum: Phenazopyridine; LC-ESI-QFT; MS2; CE: 15; R=17500; [M+H]+
Name: Phenazopyridine
Name: 3-phenyldiazenylpyridine-2,6-diamine
Formula: C11H11N5
Exact mass: 213.1014
SMILES: NC1=CC=C(N=NC2=CC=CC=C2)C(N)=N1
InChI: InChI=1S/C11H11N5/c12-10-7-6-9(11(13)14-10)16-15-8-4-2-1-3-5-8/h1-7H,(H4,12,13,14)
Instrument: Q Exactive Orbitrap (Thermo Scientific)
Instrument type: LC-ESI-QFT
Ms type: MS2
Ion mode: POSITIVE
Ionization: ESI
Fragmentation mode: HCD
Collision energy: 15
Resolution: 17500
Column name: Acquity BEH C18 1.7um, 2.1x150mm (Waters)
Retention time: 14.298 min
Base peak: 79.0211
Precursor m/z: 214.1087
Precursor type: [M+H]+
Precursor intensity: 39290661.25
m/z	relative intensity	assigned
71.0604	1	C3H7N2+
95.0491	2	C4H5N3+
96.0553	1	C4H6N3+
105.0447	1	C6H5N2+
108.0555	1	C5H6N3+
122.0587	8	C5H6N4+
124.0869	13	C6H10N3+
166.1087	2	C7H12N5+
197.0824	2	C11H9N4+
198.09	2	C11H10N4+
199.0881	1	C10H9N5+
214.1111	999	C11H12N5+
