Mass spectrum: Farglitazar; LC-ESI-QFT; MS2; CE: 90; R=17500; [M-H]-
Name: Farglitazar
Name: (2S)-2-(2-benzoylanilino)-3-[4-[2-(5-methyl-2-phenyl-1,3-oxazol-4-yl)ethoxy]phenyl]propanoic acid
Formula: C34H30N2O5
Exact mass: 546.2155
SMILES: CC1=C(CCOC2=CC=C(C[C@H](NC3=C(C=CC=C3)C(=O)C3=CC=CC=C3)C(O)=O)C=C2)N=C(O1)C1=CC=CC=C1
InChI: InChI=1S/C34H30N2O5/c1-23-29(36-33(41-23)26-12-6-3-7-13-26)20-21-40-27-18-16-24(17-19-27)22-31(34(38)39)35-30-15-9-8-14-28(30)32(37)25-10-4-2-5-11-25/h2-19,31,35H,20-22H2,1H3,(H,38,39)/t31-/m0/s1
Instrument: Q Exactive Orbitrap (Thermo Scientific)
Instrument type: LC-ESI-QFT
Ms type: MS2
Ion mode: NEGATIVE
Ionization: ESI
Fragmentation mode: HCD
Collision energy: 90
Resolution: 17500
Column name: Acquity BEH C18 1.7um, 2.1x150mm (Waters)
Retention time: 20.138 min
Base peak: 112.9856
Precursor m/z: 545.2082
Precursor type: [M-H]-
Precursor intensity: 5322340.363281
m/z	relative intensity	assigned
92.0506	338	C6H6N-
93.0346	999	C6H5O-
95.0502	22	C6H7O-
102.0348	28	C7H4N-
106.0424	69	C7H6O-
107.0503	947	C7H7O-
108.0217	33	C6H4O2-
117.0347	94	C8H5O-
118.0298	18	C7H4NO-
119.0502	733	C8H7O-
123.0453	76	C7H7O2-
131.0376	107	C8H5NO-
132.0458	19	C8H6NO-
138.0324	35	C7H6O3-
144.0455	436	C9H6NO-
166.0663	63	C12H8N-
190.0663	52	C14H8N-
192.0817	150	C14H10N-
193.0659	26	C14H9O-
194.0612	195	C13H8NO-
195.0814	26	C14H11O-
207.0693	33	C14H9NO-
208.0767	34	C14H10NO-
210.0554	19	C13H8NO2-
220.0774	39	C15H10NO-
221.0607	36	C15H9O2-
236.0711	25	C15H10NO2-
296.1095	17	C21H14NO-
