Mass spectrum: Epoxiconazole; LC-ESI-QFT; MS2; CE: 75; R=17500; [M+H]+
Name: Epoxiconazole
Name: 1-[[3-(2-chlorophenyl)-2-(4-fluorophenyl)oxiran-2-yl]methyl]-1,2,4-triazole
Formula: C17H13ClFN3O
Exact mass: 329.0731
SMILES: FC1=CC=C(C=C1)C1(CN2C=NC=N2)OC1C1=C(Cl)C=CC=C1
InChI: InChI=1S/C17H13ClFN3O/c18-15-4-2-1-3-14(15)16-17(23-16,9-22-11-20-10-21-22)12-5-7-13(19)8-6-12/h1-8,10-11,16H,9H2
Instrument: Q Exactive Orbitrap (Thermo Scientific)
Instrument type: LC-ESI-QFT
Ms type: MS2
Ion mode: POSITIVE
Ionization: ESI
Fragmentation mode: HCD
Collision energy: 75
Resolution: 17500
Column name: Acquity BEH C18 1.7um, 2.1x150mm (Waters)
Retention time: 18.034 min
Base peak: 79.0212
Precursor m/z: 330.0804
Precursor type: [M+H]+
Precursor intensity: 17884015.75
m/z	relative intensity	assigned
50.0152	1	C4H2+
51.0228	2	C4H3+
53.0021	3	C3HO+
53.0386	16	C4H5+
55.0179	3	C3H3O+
70.0399	225	C2H4N3+
71.0291	14	C4H4F+
74.0149	6	CHFN3+
74.0962	1	C4H12N+
75.0229	108	C6H3+
77.0385	58	C6H5+
79.0178	7	C5H3O+
79.0542	1	C6H7+
81.0334	2	C5H5O+
83.029	1	C5H4F+
83.0478	1	C3H5N3+
86.9995	1	C4H4Cl+
91.0542	145	C7H7+
93.0335	1	C6H5O+
95.0291	12	C6H4F+
95.0491	49	C6H7O+
99.024	3	C5H4FO+
101.0385	78	C8H5+
102.0464	2	C8H6+
105.0335	5	C7H5O+
105.0447	19	C6H5N2+
109.0448	7	C7H6F+
111.044	4	C3H10ClNO+
112.0319	1	C6H5FO+
113.0152	29	C6H6Cl+
113.0397	88	C6H6FO+
118.0414	5	C8H6O+
119.0492	175	C8H7O+
120.0367	3	C8H5F+
121.0447	999	C8H6F+
123.0241	197	C7H4FO+
123.035	154	C6H4FN2+
124.0323	1	C4H8ClFN+
125.015	1	C2H5ClFN3+
129.0446	551	C8H5N2+
137.0152	1	C8H6Cl+
138.9944	11	C2H3ClFN3O+
139.0055	9	C6H4ClN2+
141.0101	15	C7H6ClO+
177.0704	1	C14H9+
178.0775	1	C9H9FN3+
183.0604	3	C13H8F+
184.0681	1	C13H9F+
196.0683	7	C14H9F+
197.0757	3	C14H10F+
