Mass spectrum: Naphthalen-2-yl 2-aminobenzoate; LC-ESI-QFT; MS2; CE: 45; R=17500; [M+H]+
Name: Naphthalen-2-yl 2-aminobenzoate
Formula: C17H13NO2
Exact mass: 263.0946
SMILES: NC1=C(C=CC=C1)C(=O)OC1=CC2=C(C=CC=C2)C=C1
InChI: InChI=1S/C17H13NO2/c18-16-8-4-3-7-15(16)17(19)20-14-10-9-12-5-1-2-6-13(12)11-14/h1-11H,18H2
Instrument: Q Exactive Orbitrap (Thermo Scientific)
Instrument type: LC-ESI-QFT
Ms type: MS2
Ion mode: POSITIVE
Ionization: ESI
Fragmentation mode: HCD
Collision energy: 45
Resolution: 17500
Column name: Acquity BEH C18 1.7um, 2.1x150mm (Waters)
Retention time: 19.178 min
Base peak: 79.0211
Precursor m/z: 264.1019
Precursor type: [M+H]+
Precursor intensity: 1470073
m/z	relative intensity	assigned
110.0601	999	C6H8NO+
120.0443	490	C7H6NO+
180.1021	315	C10H14NO2+
