Mass spectrum: 4-Methylumbelliferone; LC-ESI-QFT; MS2; CE: 45; R=17500; [M+H]+
Name: 4-Methylumbelliferone
Name: 7-hydroxy-4-methylchromen-2-one
Formula: C10H8O3
Exact mass: 176.0473
SMILES: CC1=CC(=O)OC2=C1C=CC(O)=C2
InChI: InChI=1S/C10H8O3/c1-6-4-10(12)13-9-5-7(11)2-3-8(6)9/h2-5,11H,1H3
Instrument: Q Exactive Orbitrap (Thermo Scientific)
Instrument type: LC-ESI-QFT
Ms type: MS2
Ion mode: POSITIVE
Ionization: ESI
Fragmentation mode: HCD
Collision energy: 45
Resolution: 17500
Column name: Acquity BEH C18 1.7um, 2.1x150mm (Waters)
Retention time: 14.071 min
Base peak: 79.0211
Precursor m/z: 177.0546
Precursor type: [M+H]+
Precursor intensity: 3830317.75
m/z	relative intensity	assigned
53.0386	1	C4H5+
55.0178	11	C3H3O+
68.997	13	C3HO2+
79.0542	30	C6H7+
81.0698	11	C6H9+
91.0542	9	C7H7+
93.0698	15	C7H9+
95.0491	4	C6H7O+
103.0542	30	C8H7+
105.0699	184	C8H9+
107.049	4	C7H7O+
109.0648	1	C7H9O+
115.0542	15	C9H7+
121.0647	118	C8H9O+
131.0491	7	C9H7O+
132.057	2	C9H8O+
133.0648	35	C9H9O+
149.0598	18	C9H9O2+
177.0545	999	C10H9O3+
