Mass spectrum: 3-chloro-2-hydroxypropane-1-sulfonate; LC-ESI-QFT; MS2; CE: 30; R=17500; [M-H]-
Name: 3-chloro-2-hydroxypropane-1-sulfonate
Name: 3-chloro-2-hydroxypropane-1-sulfonic acid
Formula: C3H7ClO4S
Exact mass: 173.9754
SMILES: OC(CCl)CS(O)(=O)=O
InChI: InChI=1S/C3H7ClO4S/c4-1-3(5)2-9(6,7)8/h3,5H,1-2H2,(H,6,7,8)
Instrument: Q Exactive Orbitrap (Thermo Scientific)
Instrument type: LC-ESI-QFT
Ms type: MS2
Ion mode: NEGATIVE
Ionization: ESI
Fragmentation mode: HCD
Collision energy: 30
Resolution: 17500
Column name: Acquity BEH C18 1.7um, 2.1x150mm (Waters)
Retention time: 2.437 min
Base peak: 63.9624
Precursor m/z: 172.9681
Precursor type: [M-H]-
Precursor intensity: 1596698.341797
m/z	relative intensity	assigned
75.0089	605	C2H3O3-
172.9676	999	C3H6ClO4S-
