Mass spectrum: 3-Methyl-N-phenylaniline; LC-ESI-QFT; MS2; CE: 45; R=17500; [M+H]+
Name: 3-Methyl-N-phenylaniline
Name: 3-Methyldiphenylamine
Formula: C13H13N
Exact mass: 183.1048
SMILES: CC1=CC(NC2=CC=CC=C2)=CC=C1
InChI: InChI=1S/C13H13N/c1-11-6-5-9-13(10-11)14-12-7-3-2-4-8-12/h2-10,14H,1H3
Instrument: Q Exactive Orbitrap (Thermo Scientific)
Instrument type: LC-ESI-QFT
Ms type: MS2
Ion mode: POSITIVE
Ionization: ESI
Fragmentation mode: HCD
Collision energy: 45
Resolution: 17500
Column name: Acquity BEH C18 1.7um, 2.1x150mm (Waters)
Retention time: 18.660 min
Base peak: 79.0212
Precursor m/z: 184.1121
Precursor type: [M+H]+
Precursor intensity: 7116151.3125
m/z	relative intensity	assigned
65.0384	6	C5H5+
67.0541	1	C5H7+
79.0541	9	C6H7+
91.0541	7	C7H7+
92.0494	196	C6H6N+
93.0572	88	C6H7N+
106.0651	122	C7H8N+
107.0729	186	C7H9N+
152.0621	2	C12H8+
154.065	1	C11H8N+
157.1011	2	C12H13+
165.0701	1	C13H9+
167.0854	5	C13H11+
168.0807	3	C12H10N+
169.0885	168	C12H11N+
182.0964	1	C13H12N+
183.1043	3	C13H13N+
184.112	999	C13H14N+
