Mass spectrum: Propane-1,3-diyl bis(4-aminobenzoate); LC-ESI-QFT; MS2; CE: 90; R=17500; [M+H]+
Name: Propane-1,3-diyl bis(4-aminobenzoate)
Name: 3-(4-aminobenzoyl)oxypropyl 4-aminobenzoate
Formula: C17H18N2O4
Exact mass: 314.1267
SMILES: NC1=CC=C(C=C1)C(=O)OCCCOC(=O)C1=CC=C(N)C=C1
InChI: InChI=1S/C17H18N2O4/c18-14-6-2-12(3-7-14)16(20)22-10-1-11-23-17(21)13-4-8-15(19)9-5-13/h2-9H,1,10-11,18-19H2
Instrument: Q Exactive Orbitrap (Thermo Scientific)
Instrument type: LC-ESI-QFT
Ms type: MS2
Ion mode: POSITIVE
Ionization: ESI
Fragmentation mode: HCD
Collision energy: 90
Resolution: 17500
Column name: Acquity BEH C18 1.7um, 2.1x150mm (Waters)
Retention time: 15.029 min
Base peak: 79.0211
Precursor m/z: 315.1339
Precursor type: [M+H]+
Precursor intensity: 444732.53125
m/z	relative intensity	assigned
67.0179	999	C4H3O+
91.0544	232	C7H7+
92.0497	195	C6H6N+
115.0544	218	C9H7+
120.0447	218	C7H6NO+
128.0623	144	C10H8+
139.0546	221	C11H7+
141.0704	212	C11H9+
152.0623	384	C12H8+
153.0702	385	C12H9+
166.0657	108	C12H8N+
167.0734	254	C12H9N+
168.0812	253	C12H10N+
180.081	747	C13H10N+
181.0891	112	C13H11N+
196.0763	123	C13H10NO+
198.0913	79	C13H12NO+
208.0761	366	C14H10NO+
209.0837	105	C14H11NO+
210.092	213	C14H12NO+
226.0868	127	C14H12NO2+
