Mass spectrum: Penoxsulam; LC-ESI-QFT; MS2; CE: 30; R=17500; [M-H]-
Name: Penoxsulam
Name: 2-(2,2-difluoroethoxy)-N-(5,8-dimethoxy-[1,2,4]triazolo[1,5-c]pyrimidin-2-yl)-6-(trifluoromethyl)benzenesulfonamide
Formula: C16H14F5N5O5S
Exact mass: 483.0636
SMILES: COC1=CN=C(OC)N2N=C(NS(=O)(=O)C3=C(C=CC=C3OCC(F)F)C(F)(F)F)N=C12
InChI: InChI=1S/C16H14F5N5O5S/c1-29-10-6-22-15(30-2)26-13(10)23-14(24-26)25-32(27,28)12-8(16(19,20)21)4-3-5-9(12)31-7-11(17)18/h3-6,11H,7H2,1-2H3,(H,24,25)
Instrument: Q Exactive Orbitrap (Thermo Scientific)
Instrument type: LC-ESI-QFT
Ms type: MS2
Ion mode: NEGATIVE
Ionization: ESI
Fragmentation mode: HCD
Collision energy: 30
Resolution: 17500
Column name: Acquity BEH C18 1.7um, 2.1x150mm (Waters)
Retention time: 15.561 min
Base peak: 99.9976
Precursor m/z: 482.0563
Precursor type: [M-H]-
Precursor intensity: 19069128.77246
m/z	relative intensity	assigned
61.0095	823	C2H2FO-
65.0146	2	C3HN2-
66.0097	32	C2N3-
81.0158	527	C2H3F2O-
81.9934	5	C3NO2-
82.9608	9	FO2S-
88.0066	3	C5N2-
95.025	8	C4H3N2O-
103.9681	2	CN2O2S-
106.0047	3	C4N3O-
109.0043	99	C4HN2O2-
121.0155	4	C4HN4O-
124.0148	2	C4H2N3O2-
124.0513	2	C5H6N3O-
135.0075	19	C2H3F4O2-
148.0144	4	C6H3F3O-
149.0102	10	C5HN4O2-
149.9815	2	C2F2N4S-
150.0182	8	C5H2N4O2-
150.0309	21	C6H4N3O2-
150.042	5	C5H4N5O-
162.0421	20	C6H4N5O-
164.034	101	C6H4N4O2-
166.0258	6	C9H7FS-
170.0224	6	C8H3F3N-
175.025	11	C7H4F3NO-
176.0092	40	C7H3F3O2-
178.0221	6	C8H2F2N3-
178.0371	8	C3H6F4N2O2-
179.0575	999	C4H9F4NO2-
181.0106	5	C7H4FN3S-
185.0221	80	C9H4F3O-
186.0172	6	C8H3F3NO-
188.0466	41	C6H8F4O2-
193.0605	297	C7H7N5O2-
194.0679	3	C7H8N5O2-
195.0376	71	C9H5F2N2O-
200.0203	23	C8H3F3N2O-
201.0168	21	C9H4F3O2-
205.0283	109	C4H7F4N3S-
207.981	6	C2H2F4N3O2S-
210.0285	20	C9H3F3N3-
215.0437	26	C9H6F3N2O-
221.9843	153	C4F2N4O5-
225.0349	6	C4H8F5N3S-
226.0233	32	C9H3F3N3O-
235.0233	2	C7H7F2N3O2S-
251.0315	3	C16H5F2O-
252.0263	14	C12H9FO3S-
264.0265	6	C11H3F3N4O-
265.0411	24	C15H7NO4-
268.0642	5	C10H9F5N2O-
281.0283	54	C14H3F2N4O-
282.0498	25	C12H7F3N3O2-
296.0527	169	C12H7F3N4O2-
306.0243	102	C14H9FNO4S-
307.0323	382	C12H4F3N5O2-
311.0762	7	C13H10F3N4O2-
313.0011	7	C11H4F3N4O2S-
321.0478	289	C13H6F3N5O2-
322.0557	282	C13H7F3N5O2-
327.988	8	C11H3F3N4O3S-
334.0756	7	C14H10F2N5O3-
336.0716	119	C14H9F3N5O2-
361.0724	8	C14H10F5N4O2-
370.9941	28	C12H4F3N5O4S-
372.0016	5	C12H5F3N5O4S-
378.0884	36	C15H13F5N3O3-
386.0178	330	C13H7F3N5O4S-
398.0373	28	C14H10F2N5O5S-
400.0335	6	C14H9F3N5O4S-
418.0942	39	C16H13F5N5O3-
452.0093	360	C14H7F5N5O5S-
462.0504	57	C16H12F4N5O5S-
467.0326	79	C15H10F5N5O5S-
482.0562	706	C16H13F5N5O5S-
