Mass spectrum: Dipropyl phthalate; LC-ESI-QFT; MS2; CE: 45; R=17500; [M+H]+
Name: Dipropyl phthalate
Name: dipropyl benzene-1,2-dicarboxylate
Formula: C14H18O4
Exact mass: 250.1205
SMILES: CCCOC(=O)C1=C(C=CC=C1)C(=O)OCCC
InChI: InChI=1S/C14H18O4/c1-3-9-17-13(15)11-7-5-6-8-12(11)14(16)18-10-4-2/h5-8H,3-4,9-10H2,1-2H3
Instrument: Q Exactive Orbitrap (Thermo Scientific)
Instrument type: LC-ESI-QFT
Ms type: MS2
Ion mode: POSITIVE
Ionization: ESI
Fragmentation mode: HCD
Collision energy: 45
Resolution: 17500
Column name: Acquity BEH C18 1.7um, 2.1x150mm (Waters)
Retention time: 18.144 min
Base peak: 79.0211
Precursor m/z: 251.1278
Precursor type: [M+H]+
Precursor intensity: 4171750.625
m/z	relative intensity	assigned
57.0698	388	C4H9+
95.049	339	C6H7O+
149.0232	562	C8H5O3+
167.0857	999	C13H11+
178.078	258	C14H10+
