Mass spectrum: Cloquintocet-mexyl; LC-ESI-QFT; MS2; CE: 75; R=17500; [M+H]+
Name: Cloquintocet-mexyl
Name: heptan-2-yl 2-(5-chloroquinolin-8-yl)oxyacetate
Formula: C18H22ClNO3
Exact mass: 335.1288
SMILES: CCCCCC(C)OC(=O)COC1=CC=C(Cl)C2=CC=CN=C12
InChI: InChI=1S/C18H22ClNO3/c1-3-4-5-7-13(2)23-17(21)12-22-16-10-9-15(19)14-8-6-11-20-18(14)16/h6,8-11,13H,3-5,7,12H2,1-2H3
Instrument: Q Exactive Orbitrap (Thermo Scientific)
Instrument type: LC-ESI-QFT
Ms type: MS2
Ion mode: POSITIVE
Ionization: ESI
Fragmentation mode: HCD
Collision energy: 75
Resolution: 17500
Column name: Acquity BEH C18 1.7um, 2.1x150mm (Waters)
Retention time: 19.582 min
Base peak: 79.0211
Precursor m/z: 336.1361
Precursor type: [M+H]+
Precursor intensity: 59170142
m/z	relative intensity	assigned
53.0022	2	C3HO+
57.0699	84	C4H9+
89.0386	1	C7H5+
104.0494	1	C7H6N+
116.0494	3	C8H6N+
126.0339	2	C9H4N+
127.0416	21	C9H5N+
128.0494	18	C9H6N+
129.0447	1	C7H10Cl+
129.0573	7	C9H7N+
134.0601	5	C8H8NO+
137.0153	1	C8H6Cl+
144.0445	13	C9H6NO+
145.0522	1	C9H7NO+
146.0601	8	C9H8NO+
150.0104	1	C8H5ClN+
151.0184	332	C8H6ClN+
154.0401	3	C5H11ClO3+
156.0441	1	C10H6NO+
162.0105	125	C9H5ClN+
163.0184	18	C9H6ClN+
164.0262	39	C9H7ClN+
165.0101	3	C9H6ClO+
178.0055	15	C9H5ClNO+
179.0133	999	C9H6ClNO+
180.021	93	C9H7ClNO+
190.0055	3	C10H5ClNO+
190.0167	2	C11H7ClO+
191.0131	9	C10H6ClNO+
192.0211	742	C10H7ClNO+
194.0366	10	C10H9ClNO+
208.0158	1	C10H7ClNO2+
238.0263	1	C11H9ClNO3+
