Mass spectrum: 2-Aminoanthraquinone; LC-ESI-QFT; MS2; CE: 75; R=17500; [M+H]+
Name: 2-Aminoanthraquinone
Name: 2-aminoanthracene-9,10-dione
Formula: C14H9NO2
Exact mass: 223.0633
SMILES: NC1=CC=C2C(=O)C3=C(C=CC=C3)C(=O)C2=C1
InChI: InChI=1S/C14H9NO2/c15-8-5-6-11-12(7-8)14(17)10-4-2-1-3-9(10)13(11)16/h1-7H,15H2
Instrument: Q Exactive Orbitrap (Thermo Scientific)
Instrument type: LC-ESI-QFT
Ms type: MS2
Ion mode: POSITIVE
Ionization: ESI
Fragmentation mode: HCD
Collision energy: 75
Resolution: 17500
Column name: Acquity BEH C18 1.7um, 2.1x150mm (Waters)
Retention time: 15.327 min
Base peak: 79.0211
Precursor m/z: 224.0706
Precursor type: [M+H]+
Precursor intensity: 2775437.75
m/z	relative intensity	assigned
53.0386	4	C4H5+
55.0179	16	C3H3O+
65.0385	18	C5H5+
68.9971	61	C3HO2+
75.023	2	C6H3+
77.0388	4	C6H5+
79.0178	13	C5H3O+
91.0543	7	C7H7+
94.0413	2	C6H6O+
95.0492	13	C6H7O+
103.0543	4	C8H7+
115.0542	113	C9H7+
116.0495	8	C8H6N+
127.0543	10	C10H7+
128.0495	6	C9H6N+
128.0621	17	C10H8+
129.07	11	C10H9+
130.0288	3	C8H4NO+
130.0402	4	C9H6O+
130.0651	34	C9H8N+
139.0544	3	C11H7+
140.0495	11	C10H6N+
140.0622	5	C11H8+
141.0699	426	C11H9+
142.0653	20	C10H8N+
144.0442	16	C9H6NO+
144.057	6	C10H8O+
145.0647	13	C10H9O+
146.0599	3	C9H8NO+
150.0468	4	C12H6+
151.0542	33	C12H7+
152.0621	61	C12H8+
153.0574	48	C11H7N+
153.0693	13	C12H9+
154.0651	72	C11H8N+
155.0493	16	C11H7O+
155.0728	46	C11H9N+
156.0444	3	C10H6NO+
166.065	20	C12H8N+
167.073	999	C12H9N+
168.0575	35	C12H8O+
168.0808	588	C12H10N+
169.0648	500	C12H9O+
170.06	27	C11H8NO+
171.0681	3	C11H9NO+
177.0573	108	C13H7N+
178.0651	184	C13H8N+
179.073	17	C13H9N+
180.056	10	C13H8O+
180.081	6	C13H10N+
181.065	4	C13H9O+
183.0679	8	C12H9NO+
184.052	6	C12H8O2+
184.0752	2	C12H10NO+
188.0706	3	C11H10NO2+
194.0598	12	C13H8NO+
195.068	49	C13H9NO+
196.0758	874	C13H10NO+
197.0597	177	C13H9O2+
199.0632	5	C12H9NO2+
206.0605	10	C14H8NO+
207.0679	89	C14H9NO+
211.0628	10	C13H9NO2+
222.0551	3	C14H8NO2+
223.0628	134	C14H9NO2+
224.0706	72	C14H10NO2+
