Mass spectrum: N,N`-Dicyclohexylthiourea; LC-ESI-QFT; MS2; CE: 75; R=17500; [M+H]+
Name: N,N'-Dicyclohexylthiourea
Name: N,N'-dicyclohexylcarbamimidothioic acid
Formula: C13H24N2S
Exact mass: 240.1660
SMILES: S=C(NC1CCCCC1)NC1CCCCC1
InChI: InChI=1S/C13H24N2S/c16-13(14-11-7-3-1-4-8-11)15-12-9-5-2-6-10-12/h11-12H,1-10H2,(H2,14,15,16)
Instrument: Q Exactive Orbitrap (Thermo Scientific)
Instrument type: LC-ESI-QFT
Ms type: MS2
Ion mode: POSITIVE
Ionization: ESI
Fragmentation mode: HCD
Collision energy: 75
Resolution: 17500
Column name: Acquity BEH C18 1.7um, 2.1x150mm (Waters)
Retention time: 17.830 min
Base peak: 79.0211
Precursor m/z: 241.1733
Precursor type: [M+H]+
Precursor intensity: 21638709.21875
m/z	relative intensity	assigned
53.0386	19	C4H5+
55.0543	999	C4H7+
59.9903	233	CH2NS+
77.0168	440	CH5N2S+
81.0699	1	C6H9+
83.0855	797	C6H11+
91.0542	1	C7H7+
98.0966	1	C6H12N+
100.1121	33	C6H14N+
108.0808	2	C7H10N+
109.0886	1	C7H11N+
125.0422	1	C7H9S+
142.0686	3	C7H12NS+
159.0951	20	C7H15N2S+
