Mass spectrum: Cotinine; LC-ESI-QFT; MS2; CE: 30; R=17500; [M+H]+
Name: Cotinine
Name: (5S)-1-methyl-5-pyridin-3-ylpyrrolidin-2-one
Formula: C10H12N2O
Exact mass: 176.0950
SMILES: CN1[C@@H](CCC1=O)C1=CN=CC=C1
InChI: InChI=1S/C10H12N2O/c1-12-9(4-5-10(12)13)8-3-2-6-11-7-8/h2-3,6-7,9H,4-5H2,1H3/t9-/m0/s1
Instrument: Q Exactive Orbitrap (Thermo Scientific)
Instrument type: LC-ESI-QFT
Ms type: MS2
Ion mode: POSITIVE
Ionization: ESI
Fragmentation mode: HCD
Collision energy: 30
Resolution: 17500
Column name: Acquity BEH C18 1.7um, 2.1x150mm (Waters)
Retention time: 2.480 min
Base peak: 79.0211
Precursor m/z: 177.1022
Precursor type: [M+H]+
Precursor intensity: 9703235.9375
m/z	relative intensity	assigned
80.0493	64	C5H6N+
98.0599	32	C5H8NO+
118.065	3	C8H8N+
120.0808	1	C8H10N+
146.0599	15	C9H8NO+
149.0709	2	C8H9N2O+
177.102	999	C10H13N2O+
