Mass spectrum: Cybutryne; LC-ESI-QFT; MS2; CE: 45; R=17500; [M+H]+
Name: Cybutryne
Name: 2-N-tert-butyl-4-N-cyclopropyl-6-methylsulfanyl-1,3,5-triazine-2,4-diamine
Formula: C11H19N5S
Exact mass: 253.1361
SMILES: CSC1=NC(NC(C)(C)C)=NC(NC2CC2)=N1
InChI: InChI=1S/C11H19N5S/c1-11(2,3)16-9-13-8(12-7-5-6-7)14-10(15-9)17-4/h7H,5-6H2,1-4H3,(H2,12,13,14,15,16)
Instrument: Q Exactive Orbitrap (Thermo Scientific)
Instrument type: LC-ESI-QFT
Ms type: MS2
Ion mode: POSITIVE
Ionization: ESI
Fragmentation mode: HCD
Collision energy: 45
Resolution: 17500
Column name: Acquity BEH C18 1.7um, 2.1x150mm (Waters)
Retention time: 17.002 min
Base peak: 79.0211
Precursor m/z: 254.1434
Precursor type: [M+H]+
Precursor intensity: 62986261
m/z	relative intensity	assigned
56.0495	9	C3H6N+
57.0699	9	C4H9+
58.0651	6	C3H8N+
68.0242	2	C2H2N3+
70.0399	1	C2H4N3+
74.0057	6	C2H4NS+
81.0447	1	C4H5N2+
83.0603	76	C4H7N2+
87.0263	4	C4H7S+
89.0419	1	C4H9S+
91.0324	114	C2H7N2S+
108.0556	42	C5H6N3+
110.0461	1	C3H4N5+
114.0121	2	C3H4N3S+
114.0372	10	C5H8NS+
116.0277	22	C3H6N3S+
125.0822	44	C5H9N4+
131.0637	2	C5H11N2S+
143.0386	1	C4H7N4S+
150.0774	21	C6H8N5+
152.0933	2	C6H10N5+
156.0338	16	C4H6N5S+
156.0589	27	C6H10N3S+
158.0493	2	C4H8N5S+
170.0495	9	C5H8N5S+
171.0698	9	C6H11N4S+
183.0576	1	C6H9N5S+
198.0807	999	C7H12N5S+
254.1433	30	C11H20N5S+
