Mass spectrum: Atorvastatin; LC-ESI-QFT; MS2; CE: 15; R=17500; [M+H]+
Name: Atorvastatin
Name: (3R,5R)-7-[2-(4-fluorophenyl)-3-phenyl-4-(phenylcarbamoyl)-5-propan-2-ylpyrrol-1-yl]-3,5-dihydroxyheptanoic acid
Formula: C33H35FN2O5
Exact mass: 558.2530
SMILES: CC(C)c1c(C(=O)Nc2ccccc2)c(-c2ccccc2)c(-c2ccc(F)cc2)n1CC[C@@H](O)C[C@@H](O)CC(O)=O
InChI: InChI=1S/C33H35FN2O5/c1-21(2)31-30(33(41)35-25-11-7-4-8-12-25)29(22-9-5-3-6-10-22)32(23-13-15-24(34)16-14-23)36(31)18-17-26(37)19-27(38)20-28(39)40/h3-16,21,26-27,37-38H,17-20H2,1-2H3,(H,35,41)(H,39,40)/t26-,27-/m1/s1
Instrument: Q Exactive Orbitrap (Thermo Scientific)
Instrument type: LC-ESI-QFT
Ms type: MS2
Ion mode: POSITIVE
Ionization: ESI
Fragmentation mode: HCD
Collision energy: 15
Resolution: 17500
Column name: Acquity BEH C18 1.7um, 2.1x150mm (Waters)
Retention time: 17.830 min
Base peak: 79.0211
Precursor m/z: 559.2603
Precursor type: [M+H]+
Precursor intensity: 8473201
m/z	relative intensity	assigned
250.1045	1	C17H13FN+
292.1495	3	C20H19FN+
294.1653	2	C20H21FN+
336.139	2	C21H19FNO2+
413.2029	4	C27H26FN2O+
422.2125	47	C26H29FNO3+
430.182	4	C27H25FNO3+
440.2232	999	C26H31FNO4+
448.192	30	C27H27FNO4+
466.2025	200	C27H29FNO5+
