Mass spectrum: epsilon-Decalactone; LC-ESI-QFT; MS2; CE: 75; R=17500; [M+H]+
Name: epsilon-Decalactone
Name: 7-butyloxepan-2-one
Formula: C10H18O2
Exact mass: 170.1307
SMILES: CCCCC1CCCCC(=O)O1
InChI: InChI=1S/C10H18O2/c1-2-3-6-9-7-4-5-8-10(11)12-9/h9H,2-8H2,1H3
Instrument: Q Exactive Orbitrap (Thermo Scientific)
Instrument type: LC-ESI-QFT
Ms type: MS2
Ion mode: POSITIVE
Ionization: ESI
Fragmentation mode: HCD
Collision energy: 75
Resolution: 17500
Column name: Acquity BEH C18 1.7um, 2.1x150mm (Waters)
Retention time: 17.660 min
Base peak: 79.0212
Precursor m/z: 171.138
Precursor type: [M+H]+
Precursor intensity: 1322791.8125
m/z	relative intensity	assigned
53.0023	35	C3HO+
55.0543	156	C4H7+
57.0335	81	C3H5O+
57.0699	999	C4H9+
67.0543	6	C5H7+
71.0491	10	C4H7O+
73.0284	575	C3H5O2+
83.0856	56	C6H11+
85.0648	9	C5H9O+
97.0076	12	C8H+
99.0442	48	C5H7O2+
101.0598	83	C5H9O2+
129.0911	12	C7H13O2+
171.1382	23	C10H19O2+
