Mass spectrum: Flumetsulam; LC-ESI-QFT; MS2; CE: 45; R=17500; [M+H]+
Name: Flumetsulam
Name: N-(2,6-difluorophenyl)-5-methyl-[1,2,4]triazolo[1,5-a]pyrimidine-2-sulfonamide
Formula: C12H9F2N5O2S
Exact mass: 325.0445
SMILES: CC1=NC2=NC(=NN2C=C1)S(=O)(=O)NC1=C(F)C=CC=C1F
InChI: InChI=1S/C12H9F2N5O2S/c1-7-5-6-19-11(15-7)16-12(17-19)22(20,21)18-10-8(13)3-2-4-9(10)14/h2-6,18H,1H3
Instrument: Q Exactive Orbitrap (Thermo Scientific)
Instrument type: LC-ESI-QFT
Ms type: MS2
Ion mode: POSITIVE
Ionization: ESI
Fragmentation mode: HCD
Collision energy: 45
Resolution: 17500
Column name: Acquity BEH C18 1.7um, 2.1x150mm (Waters)
Retention time: 12.583 min
Base peak: 79.0211
Precursor m/z: 326.0518
Precursor type: [M+H]+
Precursor intensity: 11402254.75
m/z	relative intensity	assigned
57.0134	2	C3H2F+
66.0338	1	C4H4N+
68.0494	2	C4H6N+
77.0196	1	C3H3F2+
82.0287	1	C4H4NO+
84.0244	14	C4H3FN+
93.0447	2	C5H5N2+
97.0397	2	C4H5N2O+
101.0195	1	C5H3F2+
104.0305	2	C4H4F2N+
106.04	7	C5H4N3+
107.0478	2	C5H5N3+
109.0635	4	C5H7N3+
111.0553	11	C5H7N2O+
112.0194	1	C5H3FNO+
114.999	2	C5HF2O+
124.0507	2	C5H6N3O+
126.0352	2	C6H5FNO+
128.0308	39	C6H4F2N+
129.0384	999	C6H5F2N+
132.0257	1	C5H4F2NO+
134.0587	40	C6H6N4+
135.0427	10	C6H5N3O+
135.0666	6	C6H7N4+
143.0418	3	C6H5F2N2+
144.0256	44	C6H4F2NO+
145.0332	3	C6H5F2NO+
146.0412	6	C6H6F2NO+
153.0229	9	C5H5N4S+
155.0153	1	C5H5N3OS+
165.046	1	C8H6FN2O+
170.0525	2	C7H6F2N3+
182.0256	9	C6H6N4OS+
183.0332	1	C6H7N4OS+
191.9925	7	C6H4F2NO2S+
194.0528	1	C9H6F2N3+
197.0128	5	C6H5N4O2S+
200.0616	1	C11H7FN3+
201.0697	5	C11H8FN3+
215.0234	6	C9H2FN5O+
215.0727	2	C11H8FN4+
220.0678	1	C11H8F2N3+
222.0777	2	C12H8N5+
235.079	1	C11H9F2N4+
242.0836	9	C12H9FN5+
245.063	1	C12H7F2N4+
262.0899	29	C12H10F2N5+
326.0518	4	C12H10F2N5O2S+
