Mass spectrum: 4-Hydroxy-3-nitrophenylarsonic acid; LC-ESI-QFT; MS2; CE: 75; R=17500; [M-H]-
Name: 4-Hydroxy-3-nitrophenylarsonic acid
Name: Roxarsone
Name: (4-hydroxy-3-nitrophenyl)arsonic acid
Formula: C6H6AsNO6
Exact mass: 262.9411
SMILES: OC1=C(C=C(C=C1)[As](O)(O)=O)[N+]([O-])=O
InChI: InChI=1S/C6H6AsNO6/c9-6-2-1-4(7(10,11)12)3-5(6)8(13)14/h1-3,9H,(H2,10,11,12)
Instrument: Q Exactive Orbitrap (Thermo Scientific)
Instrument type: LC-ESI-QFT
Ms type: MS2
Ion mode: NEGATIVE
Ionization: ESI
Fragmentation mode: HCD
Collision energy: 75
Resolution: 17500
Column name: Acquity BEH C18 1.7um, 2.1x150mm (Waters)
Retention time: 6.923 min
Base peak: 75.0088
Precursor m/z: 261.9338
Precursor type: [M-H]-
Precursor intensity: 795342.9134521
m/z	relative intensity	assigned
68.9983	22	C3HO2-
69.0347	38	C4H5O-
95.0139	913	C5H3O2-
106.912	999	AsO2-
122.907	469	AsO3-
123.0088	751	C6H3O3-
153.0069	67	C6H3NO4-
