Mass spectrum: PHA-00568487; LC-ESI-QFT; MS2; CE: 45; R=17500; [M+H]+
Name: PHA-00568487
Name: N-(3R)-1-Azabicyclo(2.2.2)oct-3-yl-2,3-dihydro-1,4-benzodioxin-6-carboxamide
Name: N-[(3R)-1-azabicyclo[2.2.2]octan-3-yl]-2,3-dihydro-1,4-benzodioxine-6-carboxamide
Formula: C16H20N2O3
Exact mass: 288.1474
SMILES: O=C(N[C@H]1CN2CCC1CC2)C1=CC2=C(OCCO2)C=C1
InChI: InChI=1S/C16H20N2O3/c19-16(17-13-10-18-5-3-11(13)4-6-18)12-1-2-14-15(9-12)21-8-7-20-14/h1-2,9,11,13H,3-8,10H2,(H,17,19)/t13-/m0/s1
Instrument: Q Exactive Orbitrap (Thermo Scientific)
Instrument type: LC-ESI-QFT
Ms type: MS2
Ion mode: POSITIVE
Ionization: ESI
Fragmentation mode: HCD
Collision energy: 45
Resolution: 17500
Column name: Acquity BEH C18 1.7um, 2.1x150mm (Waters)
Retention time: 10.712 min
Base peak: 79.0211
Precursor m/z: 289.1547
Precursor type: [M+H]+
Precursor intensity: 20053814.90625
m/z	relative intensity	assigned
53.0386	1	C4H5+
54.0338	1	C3H4N+
55.0541	9	C4H7+
56.0494	32	C3H6N+
67.0541	7	C5H7+
68.0494	21	C4H6N+
69.0572	6	C4H7N+
69.0697	5	C5H9+
79.0541	7	C6H7+
80.0494	4	C5H6N+
81.0698	53	C6H9+
82.065	110	C5H8N+
83.0854	2	C6H11+
84.0807	1	C5H10N+
91.0542	4	C7H7+
93.0698	12	C7H9+
94.0651	2	C6H8N+
95.0729	4	C6H9N+
96.0807	24	C6H10N+
98.0963	3	C6H12N+
108.0806	17	C7H10N+
110.0963	598	C7H12N+
123.0917	1	C7H11N2+
125.1072	19	C7H13N2+
126.0911	3	C7H12NO+
128.1068	111	C7H14NO+
137.0596	11	C8H9O2+
149.0596	32	C9H9O2+
162.0549	25	C9H8NO2+
163.0388	684	C9H7O3+
164.0707	2	C9H10NO2+
180.0653	25	C9H10NO3+
242.1174	1	C15H16NO2+
244.1331	2	C15H18NO2+
246.112	1	C14H16NO3+
246.1481	1	C15H20NO2+
271.1438	4	C16H19N2O2+
272.1279	7	C16H18NO3+
287.139	3	C16H19N2O3+
289.1543	999	C16H21N2O3+
