Mass spectrum: 2-Chloro-5-nitro-N-phenylbenzamide; LC-ESI-QFT; MS2; CE: 30; R=17500; [M-H]-
Name: 2-Chloro-5-nitro-N-phenylbenzamide
Formula: C13H9ClN2O3
Exact mass: 276.0302
SMILES: [O-][N+](=O)C1=CC=C(Cl)C(=C1)C(=O)NC1=CC=CC=C1
InChI: InChI=1S/C13H9ClN2O3/c14-12-7-6-10(16(18)19)8-11(12)13(17)15-9-4-2-1-3-5-9/h1-8H,(H,15,17)
Instrument: Q Exactive Orbitrap (Thermo Scientific)
Instrument type: LC-ESI-QFT
Ms type: MS2
Ion mode: NEGATIVE
Ionization: ESI
Fragmentation mode: HCD
Collision energy: 30
Resolution: 17500
Column name: Acquity BEH C18 1.7um, 2.1x150mm (Waters)
Retention time: 16.542 min
Base peak: 165.092
Precursor m/z: 275.0229
Precursor type: [M-H]-
Precursor intensity: 14900541.10938
m/z	relative intensity	assigned
155.9858	999	C6H3ClNO2-
173.9964	5	C6H5ClNO3-
199.9757	24	C10HClN2O-
239.0463	4	C13H7N2O3-
275.0231	11	C13H8ClN2O3-
