Mass spectrum: 4-[3-(4-Acetyl-3-hydroxy-2-propylphenoxy)propoxy]phenoxy-acetic acid; LC-ESI-QFT; MS2; CE: 75; R=17500; [M+H]+
Name: 4-[3-(4-Acetyl-3-hydroxy-2-propylphenoxy)propoxy]phenoxy-acetic acid
Name: 2-(4-(3-(4-Acetyl-3-hydroxy-2-propylphenoxy)propoxy)phenoxy)acetic acid
Name: 2-[4-[3-(4-acetyl-3-hydroxy-2-propylphenoxy)propoxy]phenoxy]acetic acid
Formula: C22H26O7
Exact mass: 402.1679
SMILES: CCCC1=C(OCCCOC2=CC=C(OCC(O)=O)C=C2)C=CC(C(C)=O)=C1O
InChI: InChI=1S/C22H26O7/c1-3-5-19-20(11-10-18(15(2)23)22(19)26)28-13-4-12-27-16-6-8-17(9-7-16)29-14-21(24)25/h6-11,26H,3-5,12-14H2,1-2H3,(H,24,25)
Instrument: Q Exactive Orbitrap (Thermo Scientific)
Instrument type: LC-ESI-QFT
Ms type: MS2
Ion mode: POSITIVE
Ionization: ESI
Fragmentation mode: HCD
Collision energy: 75
Resolution: 17500
Column name: Acquity BEH C18 1.7um, 2.1x150mm (Waters)
Retention time: 19.209 min
Base peak: 79.0211
Precursor m/z: 403.1751
Precursor type: [M+H]+
Precursor intensity: 8710811.125
m/z	relative intensity	assigned
50.0152	6	C4H2+
51.023	7	C4H3+
53.0022	17	C3HO+
53.0386	177	C4H5+
55.0178	145	C3H3O+
55.0542	10	C4H7+
63.023	8	C5H3+
64.0307	4	C5H4+
65.0386	282	C5H5+
66.0464	11	C5H6+
67.0542	205	C5H7+
68.9971	26	C3HO2+
69.0335	19	C4H5O+
75.023	26	C6H3+
77.0385	181	C6H5+
78.0464	5	C6H6+
79.0542	999	C6H7+
81.0335	312	C5H5O+
81.0699	28	C6H9+
82.0049	4	C4H2O2+
83.0127	5	C4H3O2+
83.0492	6	C5H7O+
90.0464	3	C7H6+
91.0543	357	C7H7+
92.0257	135	C6H4O+
93.0335	143	C6H5O+
93.0699	69	C7H9+
94.0414	95	C6H6O+
95.0492	979	C6H7O+
103.0543	307	C8H7+
104.0621	4	C8H8+
105.0336	150	C7H5O+
105.0699	793	C8H9+
107.0492	822	C7H7O+
107.0855	50	C8H11+
109.0285	800	C6H5O2+
109.0648	86	C7H9O+
110.0363	17	C6H6O2+
111.0441	165	C6H7O2+
115.0543	89	C9H7+
116.0621	13	C9H8+
117.0699	41	C9H9+
118.0411	16	C8H6O+
119.0493	49	C8H7O+
119.0855	18	C9H11+
120.0572	16	C8H8O+
121.0285	79	C7H5O2+
121.0648	94	C8H9O+
122.0363	74	C7H6O2+
123.0441	477	C7H7O2+
124.0521	18	C7H8O2+
125.0597	50	C7H9O2+
128.062	15	C10H8+
129.0699	12	C10H9+
131.0492	58	C9H7O+
131.0856	12	C10H11+
132.0571	10	C9H8O+
133.0285	14	C8H5O2+
133.0648	104	C9H9O+
134.0362	9	C8H6O2+
134.0729	5	C9H10O+
135.0441	245	C8H7O2+
135.0804	146	C9H11O+
136.0518	4	C8H8O2+
137.0598	102	C8H9O2+
140.0469	11	C7H8O3+
141.0546	7	C7H9O3+
141.0701	3	C11H9+
144.0572	8	C10H8O+
145.0649	11	C10H9O+
146.0726	6	C10H10O+
147.044	233	C9H7O2+
147.0807	17	C10H11O+
148.0516	11	C9H8O2+
149.0598	100	C9H9O2+
149.0963	26	C10H13O+
150.0676	129	C9H10O2+
151.0393	9	C8H7O3+
151.0754	193	C9H11O2+
153.0546	23	C8H9O3+
154.0624	7	C8H10O3+
159.0805	10	C11H11O+
161.0597	58	C10H9O2+
163.0754	54	C10H11O2+
165.0547	55	C9H9O3+
165.0911	52	C10H13O2+
167.0339	5	C8H7O4+
174.0678	8	C11H10O2+
175.0756	19	C11H11O2+
177.0544	17	C10H9O3+
177.0911	91	C11H13O2+
179.0701	14	C10H11O3+
181.0494	7	C9H9O4+
189.0908	14	C12H13O2+
193.086	8	C11H13O3+
193.1225	5	C12H17O2+
195.1017	11	C11H15O3+
207.1014	6	C12H15O3+
