Mass spectrum: Sulfasalazine; LC-ESI-QFT; MS2; CE: 60; R=17500; [M+H]+
Name: Sulfasalazine
Name: 2-hydroxy-5-[[4-(pyridin-2-ylsulfamoyl)phenyl]diazenyl]benzoic acid
Formula: C18H14N4O5S
Exact mass: 398.0685
SMILES: C1=CC=NC(=C1)NS(=O)(=O)C2=CC=C(C=C2)N=NC3=CC(=C(C=C3)O)C(=O)O
InChI: InChI=1S/C18H14N4O5S/c23-16-9-6-13(11-15(16)18(24)25)21-20-12-4-7-14(8-5-12)28(26,27)22-17-3-1-2-10-19-17/h1-11,23H,(H,19,22)(H,24,25)
Instrument: Q Exactive Orbitrap (Thermo Scientific)
Instrument type: LC-ESI-QFT
Ms type: MS2
Ion mode: POSITIVE
Ionization: ESI
Fragmentation mode: HCD
Collision energy: 60
Resolution: 17500
Column name: Acquity BEH C18 1.7um, 2.1x150mm (Waters)
Retention time: 16.988 min
Base peak: 79.0211
Precursor m/z: 399.0758
Precursor type: [M+H]+
Precursor intensity: 1153133.25
m/z	relative intensity	assigned
53.0022	14	C3HO+
53.0387	16	C4H5+
63.0228	29	C5H3+
65.0385	4	C5H5+
67.0416	238	C4H5N+
68.9972	8	C3HO2+
80.013	9	C4H2NO+
81.0335	75	C5H5O+
91.0179	398	C6H3O+
93.0447	30	C5H5N2+
94.0526	795	C5H6N2+
95.0127	6	C5H3O2+
95.0491	18	C6H7O+
95.0605	19	C5H7N2+
96.0444	15	C5H6NO+
105.0448	17	C6H5N2+
106.0289	6	C6H4NO+
107.013	6	C6H3O2+
109.0284	44	C6H5O2+
111.044	13	C6H7O2+
111.0555	4	C5H7N2O+
115.0543	10	C9H7+
119.0128	999	C7H3O2+
122.0238	11	C6H4NO2+
128.0496	9	C9H6N+
134.0237	6	C7H4NO2+
137.0234	211	C7H5O3+
139.0543	187	C11H7+
140.0495	16	C10H6N+
141.0183	4	C6H5O4+
143.0604	11	C9H7N2+
147.019	20	C7H3N2O2+
151.0387	5	C8H7O3+
152.0343	24	C7H6NO3+
154.9778	7	C4HN3O2S+
155.034	30	C7H7O4+
155.0495	24	C11H7O+
155.0603	39	C10H7N2+
156.0447	4	C10H6NO+
156.0683	9	C10H8N2+
157.0068	12	C5H5N2O2S+
157.0762	76	C10H9N2+
158.0598	11	C10H8NO+
165.0296	572	C7H5N2O3+
166.0522	6	C11H6N2+
167.0605	29	C11H7N2+
168.0571	7	C12H8O+
168.0682	35	C11H8N2+
169.0761	70	C11H9N2+
171.0553	24	C10H7N2O+
172.9884	18	C4H3N3O3S+
179.0451	13	C8H7N2O3+
181.0632	7	C11H7N3+
182.0718	5	C5H14N2O3S+
183.055	30	C11H7N2O+
185.0346	16	C10H5N2O2+
185.071	58	C11H9N2O+
186.055	8	C11H8NO2+
197.0712	4	C12H9N2O+
200.0579	19	C11H8N2O2+
202.0736	14	C11H10N2O2+
213.0658	44	C12H9N2O2+
241.0608	38	C13H9N2O3+
256.0486	6	C13H8N2O4+
257.0558	111	C13H9N2O4+
259.0722	11	C13H11N2O4+
266.0355	4	C11H10N2O4S+
273.0506	36	C13H9N2O5+
