Mass spectrum: Caffeine; LC-ESI-QFT; MS2; CE: 15; R=17500; [M+H]+
Name: Caffeine
Name: 1,3,7-trimethylpurine-2,6-dione
Formula: C8H10N4O2
Exact mass: 194.0804
SMILES: CN1C=NC2=C1C(=O)N(C)C(=O)N2C
InChI: InChI=1S/C8H10N4O2/c1-10-4-9-6-5(10)7(13)12(3)8(14)11(6)2/h4H,1-3H3
Instrument: Q Exactive Orbitrap (Thermo Scientific)
Instrument type: LC-ESI-QFT
Ms type: MS2
Ion mode: POSITIVE
Ionization: ESI
Fragmentation mode: HCD
Collision energy: 15
Resolution: 17500
Column name: Acquity BEH C18 1.7um, 2.1x150mm (Waters)
Retention time: 11.252 min
Base peak: 79.0212
Precursor m/z: 195.0877
Precursor type: [M+H]+
Precursor intensity: 2525529.25
m/z	relative intensity	assigned
138.0663	57	C6H8N3O+
180.0647	1	C7H8N4O2+
195.0878	999	C8H11N4O2+
