Mass spectrum: Finasteride; LC-ESI-QFT; MS2; CE: 60; R=17500; [M+H]+
Name: Finasteride
Name: (1S,3aS,3bS,5aR,9aR,9bS,11aS)-N-tert-butyl-9a,11a-dimethyl-7-oxo-1,2,3,3a,3b,4,5,5a,6,9b,10,11-dodecahydroindeno[5,4-f]quinoline-1-carboxamide
Formula: C23H36N2O2
Exact mass: 372.2777
SMILES: CC(C)(C)NC(=O)[C@H]1CC[C@H]2[C@@H]3CC[C@H]4NC(=O)C=C[C@]4(C)[C@H]3CC[C@]12C
InChI: InChI=1S/C23H36N2O2/c1-21(2,3)25-20(27)17-8-7-15-14-6-9-18-23(5,13-11-19(26)24-18)16(14)10-12-22(15,17)4/h11,13-18H,6-10,12H2,1-5H3,(H,24,26)(H,25,27)/t14-,15-,16-,17+,18+,22-,23+/m0/s1
Instrument: Q Exactive Orbitrap (Thermo Scientific)
Instrument type: LC-ESI-QFT
Ms type: MS2
Ion mode: POSITIVE
Ionization: ESI
Fragmentation mode: HCD
Collision energy: 60
Resolution: 17500
Column name: Acquity BEH C18 1.7um, 2.1x150mm (Waters)
Retention time: 17.671 min
Base peak: 79.0212
Precursor m/z: 373.285
Precursor type: [M+H]+
Precursor intensity: 17352623
m/z	relative intensity	assigned
53.0022	20	C3HO+
53.0386	5	C4H5+
53.9974	3	C2NO+
55.0179	20	C3H3O+
55.0542	32	C4H7+
56.0495	19	C3H6N+
57.0699	999	C4H9+
58.0651	3	C3H8N+
65.0385	4	C5H5+
67.0542	96	C5H7+
68.0494	2	C4H6N+
69.0335	751	C4H5O+
70.0287	2	C3H4NO+
70.0651	19	C4H8N+
71.0491	10	C4H7O+
72.0444	112	C3H6NO+
72.0807	11	C4H10N+
74.0964	8	C4H12N+
77.0385	3	C6H5+
79.0542	85	C6H7+
80.0495	2	C5H6N+
81.0699	236	C6H9+
82.0651	10	C5H8N+
83.0491	5	C5H7O+
83.0855	31	C6H11+
84.0444	6	C4H6NO+
84.0807	4	C5H10N+
85.0648	2	C5H9O+
86.06	64	C4H8NO+
91.0542	73	C7H7+
93.0699	243	C7H9+
94.0652	6	C6H8N+
95.0855	532	C7H11+
96.0444	70	C5H6NO+
96.0808	10	C6H10N+
97.0648	7	C6H9O+
97.1013	13	C7H13+
98.0601	88	C5H8NO+
100.0758	5	C5H10NO+
105.0699	128	C8H9+
106.0652	4	C7H8N+
107.0855	221	C8H11+
108.0444	4	C6H6NO+
108.0808	17	C7H10N+
109.0521	9	C6H7NO+
109.0648	14	C7H9O+
109.1012	84	C8H13+
110.06	59	C6H8NO+
110.0965	10	C7H12N+
111.0804	3	C7H11O+
111.1167	1	C8H15+
112.0757	4	C6H10NO+
114.0913	2	C6H12NO+
117.0699	20	C9H9+
119.0856	131	C9H11+
120.0809	8	C8H10N+
121.0648	21	C8H9O+
121.1012	126	C9H13+
122.06	43	C7H8NO+
122.0966	5	C8H12N+
123.0678	3	C7H9NO+
123.0804	11	C8H11O+
123.1168	6	C9H15+
124.0758	41	C7H10NO+
126.0914	28	C7H12NO+
128.062	4	C10H8+
129.0698	16	C10H9+
131.0855	82	C10H11+
132.0811	1	C9H10N+
133.1012	168	C10H13+
134.0599	2	C8H8NO+
134.0965	4	C9H12N+
135.0804	11	C9H11O+
135.1168	65	C10H15+
136.0757	20	C8H10NO+
136.1121	3	C9H14N+
137.0958	3	C9H13O+
138.0913	37	C8H12NO+
140.1069	13	C8H14NO+
141.0698	7	C11H9+
142.0773	2	C11H10+
143.0855	53	C11H11+
145.1012	129	C11H13+
146.0962	3	C10H12N+
147.0804	18	C10H11O+
147.1168	161	C11H15+
148.0758	6	C9H10NO+
148.112	4	C10H14N+
149.0961	15	C10H13O+
149.1325	30	C11H17+
150.0914	17	C9H12NO+
152.107	15	C9H14NO+
155.0855	30	C12H11+
156.0931	1	C12H12+
157.1012	37	C12H13+
158.0967	2	C11H12N+
159.0805	15	C11H11O+
159.1168	58	C12H15+
160.112	5	C11H14N+
161.0961	36	C11H13O+
161.1325	55	C12H17+
162.0913	3	C10H12NO+
162.1281	2	C11H16N+
163.1119	12	C11H15O+
163.1481	10	C12H19+
164.1069	15	C10H14NO+
166.1226	6	C10H16NO+
167.0855	3	C13H11+
168.0936	1	C13H12+
169.1011	20	C13H13+
171.0805	4	C12H11O+
171.1167	42	C13H15+
172.1119	2	C12H14N+
173.0963	19	C12H13O+
173.1325	81	C13H17+
174.1276	1	C12H16N+
175.1118	21	C12H15O+
175.1482	150	C13H19+
176.1069	14	C11H14NO+
177.1638	11	C13H21+
178.1226	12	C11H16NO+
178.159	2	C12H20N+
180.0939	1	C14H12+
180.1386	5	C11H18NO+
181.1012	17	C14H13+
182.1093	4	C14H14+
183.117	26	C14H15+
185.0962	5	C13H13O+
185.1325	84	C14H17+
187.1482	191	C14H19+
189.1638	131	C14H21+
190.1224	4	C12H16NO+
192.1384	5	C12H18NO+
193.1012	1	C15H13+
194.154	8	C12H20NO+
195.1168	27	C15H15+
196.1243	1	C15H16+
197.1326	46	C15H17+
198.1404	1	C15H18+
199.1118	15	C14H15O+
199.148	12	C15H19+
201.1276	13	C14H17O+
201.1638	10	C15H21+
203.1431	15	C14H19O+
203.1786	2	C15H23+
204.1747	9	C14H22N+
206.1905	2	C14H24N+
209.1327	9	C16H17+
211.1479	15	C16H19+
213.1274	8	C15H17O+
213.1638	35	C16H21+
214.1592	3	C15H20N+
215.1431	82	C15H19O+
215.1796	9	C16H23+
216.1378	2	C14H18NO+
218.1541	3	C14H20NO+
220.1695	39	C14H22NO+
222.1405	4	C17H18+
222.1855	2	C14H24NO+
223.1122	1	C16H15O+
223.1481	7	C17H19+
227.1428	3	C16H19O+
227.1794	26	C17H23+
229.1586	3	C16H21O+
229.1951	6	C17H25+
232.1696	31	C15H22NO+
237.1638	32	C18H21+
239.1436	2	C17H19O+
239.1796	11	C18H23+
240.1745	1	C17H22N+
241.1586	4	C17H21O+
246.1856	4	C16H24NO+
247.1478	4	C19H19+
249.1961	48	C15H25N2O+
254.1903	21	C18H24N+
255.1742	34	C18H23O+
256.2057	7	C18H26N+
257.19	3	C18H25O+
258.1857	4	C17H24NO+
265.1588	5	C19H21O+
272.2008	18	C18H26NO+
274.2172	10	C18H28NO+
276.2325	1	C18H30NO+
281.2012	1	C19H25N2+
282.1856	10	C19H24NO+
283.1692	4	C19H23O2+
288.2322	3	C19H30NO+
299.2119	30	C19H27N2O+
300.196	3	C19H26NO2+
305.2588	804	C19H33N2O+
317.2223	23	C19H29N2O2+
329.2228	2	C20H29N2O2+
331.2746	10	C21H35N2O+
355.2743	38	C23H35N2O+
356.2578	2	C23H34NO2+
357.2535	27	C22H33N2O2+
373.2851	209	C23H37N2O2+
