Mass spectrum: Tebuconazole; LC-ESI-QFT; MS2; CE: 45; R=17500; [M+H]+
Name: Tebuconazole
Name: 1-(4-chlorophenyl)-4,4-dimethyl-3-(1,2,4-triazol-1-ylmethyl)pentan-3-ol
Formula: C16H22ClN3O
Exact mass: 307.1451
SMILES: CC(C)(C)C(O)(CCC1=CC=C(Cl)C=C1)CN1C=NC=N1
InChI: InChI=1S/C16H22ClN3O/c1-15(2,3)16(21,10-20-12-18-11-19-20)9-8-13-4-6-14(17)7-5-13/h4-7,11-12,21H,8-10H2,1-3H3
Instrument: Q Exactive Orbitrap (Thermo Scientific)
Instrument type: LC-ESI-QFT
Ms type: MS2
Ion mode: POSITIVE
Ionization: ESI
Fragmentation mode: HCD
Collision energy: 45
Resolution: 17500
Column name: Acquity BEH C18 1.7um, 2.1x150mm (Waters)
Retention time: 18.593 min
Base peak: 79.0212
Precursor m/z: 308.1524
Precursor type: [M+H]+
Precursor intensity: 25305689.07813
m/z	relative intensity	assigned
55.0543	2	C4H7+
57.0699	17	C4H9+
59.0492	15	C3H7O+
69.0698	2	C5H9+
70.0399	999	C2H4N3+
71.0855	1	C5H11+
83.0855	8	C6H11+
115.0542	2	C9H7+
116.062	2	C9H8+
125.0153	55	C7H6Cl+
130.0777	1	C10H10+
139.0309	9	C8H8Cl+
151.0309	35	C9H8Cl+
165.0466	9	C10H10Cl+
179.0621	2	C11H12Cl+
308.1528	5	C16H23ClN3O+
