Mass spectrum: Ethyl phthalyl ethyl glycolate; LC-ESI-QFT; MS2; CE: 30; R=17500; [M+H]+
Name: Ethyl phthalyl ethyl glycolate
Name: Ethoxycarbonylmethyl ethyl phthalate
Name: 2-O-(2-ethoxy-2-oxoethyl) 1-O-ethyl benzene-1,2-dicarboxylate
Formula: C14H16O6
Exact mass: 280.0947
SMILES: CCOC(=O)COC(=O)C1=CC=CC=C1C(=O)OCC
InChI: InChI=1S/C14H16O6/c1-3-18-12(15)9-20-14(17)11-8-6-5-7-10(11)13(16)19-4-2/h5-8H,3-4,9H2,1-2H3
Instrument: Q Exactive Orbitrap (Thermo Scientific)
Instrument type: LC-ESI-QFT
Ms type: MS2
Ion mode: POSITIVE
Ionization: ESI
Fragmentation mode: HCD
Collision energy: 30
Resolution: 17500
Column name: Acquity BEH C18 1.7um, 2.1x150mm (Waters)
Retention time: 16.478 min
Base peak: 79.0211
Precursor m/z: 281.102
Precursor type: [M+H]+
Precursor intensity: 22745320
m/z	relative intensity	assigned
134.0919	22	C6H14O3+
135.0997	28	C6H15O3+
147.1	36	C7H15O3+
149.0236	26	C8H5O3+
149.1154	321	C7H17O3+
161.1154	999	C8H17O3+
