Mass spectrum: Oxadiazon; LC-ESI-QFT; MS2; CE: 15; R=17500; [M+H]+
Name: Oxadiazon
Name: 5-tert-butyl-3-(2,4-dichloro-5-propan-2-yloxyphenyl)-1,3,4-oxadiazol-2-one
Formula: C15H18Cl2N2O3
Exact mass: 344.0694
SMILES: CC(C)OC1=CC(N2N=C(OC2=O)C(C)(C)C)=C(Cl)C=C1Cl
InChI: InChI=1S/C15H18Cl2N2O3/c1-8(2)21-12-7-11(9(16)6-10(12)17)19-14(20)22-13(18-19)15(3,4)5/h6-8H,1-5H3
Instrument: Q Exactive Orbitrap (Thermo Scientific)
Instrument type: LC-ESI-QFT
Ms type: MS2
Ion mode: POSITIVE
Ionization: ESI
Fragmentation mode: HCD
Collision energy: 15
Resolution: 17500
Column name: Acquity BEH C18 1.7um, 2.1x150mm (Waters)
Retention time: 19.664 min
Base peak: 79.0211
Precursor m/z: 345.0767
Precursor type: [M+H]+
Precursor intensity: 1319076.15625
m/z	relative intensity	assigned
57.0698	20	C4H9+
219.9563	100	C7H4Cl2NO3+
303.0299	999	C12H13Cl2N2O3+
345.0769	724	C15H19Cl2N2O3+
