Mass spectrum: Cinchophen; LC-ESI-QFT; MS2; CE: 90; R=17500; [M+H]+
Name: Cinchophen
Name: 2-phenylquinoline-4-carboxylic acid
Formula: C16H11NO2
Exact mass: 249.0790
SMILES: OC(=O)C1=C2C=CC=CC2=NC(=C1)C1=CC=CC=C1
InChI: InChI=1S/C16H11NO2/c18-16(19)13-10-15(11-6-2-1-3-7-11)17-14-9-5-4-8-12(13)14/h1-10H,(H,18,19)
Instrument: Q Exactive Orbitrap (Thermo Scientific)
Instrument type: LC-ESI-QFT
Ms type: MS2
Ion mode: POSITIVE
Ionization: ESI
Fragmentation mode: HCD
Collision energy: 90
Resolution: 17500
Column name: Acquity BEH C18 1.7um, 2.1x150mm (Waters)
Retention time: 17.037 min
Base peak: 79.0211
Precursor m/z: 250.0863
Precursor type: [M+H]+
Precursor intensity: 9341904.625
m/z	relative intensity	assigned
50.0151	1	C4H2+
53.0386	36	C4H5+
55.0178	2	C3H3O+
63.0229	3	C5H3+
65.0385	13	C5H5+
75.0229	30	C6H3+
77.0385	31	C6H5+
81.0335	4	C5H5O+
89.0386	236	C7H5+
91.0543	92	C7H7+
92.0495	18	C6H6N+
94.0412	4	C6H6O+
95.0492	102	C6H7O+
101.0386	28	C8H5+
102.0464	2	C8H6+
103.0543	22	C8H7+
104.0493	2	C7H6N+
105.0336	18	C7H5O+
116.0495	465	C8H6N+
117.0334	4	C8H5O+
117.0571	3	C8H7N+
118.0414	1	C8H6O+
119.0492	67	C8H7O+
120.0444	18	C7H6NO+
127.0415	6	C9H5N+
128.0495	999	C9H6N+
130.0288	46	C8H4NO+
130.0399	27	C9H6O+
131.0366	5	C8H5NO+
132.0443	9	C8H6NO+
134.06	99	C8H8NO+
144.0444	31	C9H6NO+
146.06	224	C9H8NO+
148.0757	11	C9H10NO+
152.0622	8	C12H8+
153.0698	2	C12H9+
154.0289	4	C10H4NO+
160.0757	19	C10H10NO+
162.0549	221	C9H8NO2+
165.0699	7	C13H9+
167.0729	3	C12H9N+
167.0855	13	C13H11+
169.0649	7	C12H9O+
172.0394	7	C10H6NO2+
176.0622	37	C14H8+
176.0705	3	C10H10NO2+
177.0699	26	C14H9+
178.0652	2	C13H8N+
178.0777	15	C14H10+
180.0806	9	C13H10N+
191.0725	4	C14H9N+
193.0887	13	C14H11N+
194.0965	9	C14H12N+
196.0758	1	C13H10NO+
202.0652	2	C15H8N+
203.073	60	C15H9N+
204.0809	203	C15H10N+
205.0886	8	C15H11N+
206.0964	100	C15H12N+
217.0882	1	C16H11N+
220.0756	3	C15H10NO+
222.0914	169	C15H12NO+
237.0787	5	C15H11NO2+
250.0862	36	C16H12NO2+
