Mass spectrum: Benzadox; LC-ESI-QFT; MS2; CE: 75; R=17500; [M+H]+
Name: Benzadox
Name: 2-benzamidooxyacetic acid
Formula: C9H9NO4
Exact mass: 195.0532
SMILES: OC(=O)CONC(=O)C1=CC=CC=C1
InChI: InChI=1S/C9H9NO4/c11-8(12)6-14-10-9(13)7-4-2-1-3-5-7/h1-5H,6H2,(H,10,13)(H,11,12)
Instrument: Q Exactive Orbitrap (Thermo Scientific)
Instrument type: LC-ESI-QFT
Ms type: MS2
Ion mode: POSITIVE
Ionization: ESI
Fragmentation mode: HCD
Collision energy: 75
Resolution: 17500
Column name: Acquity BEH C18 1.7um, 2.1x150mm (Waters)
Retention time: 11.439 min
Base peak: 79.0211
Precursor m/z: 196.0604
Precursor type: [M+H]+
Precursor intensity: 1511081.28125
m/z	relative intensity	assigned
91.0543	747	C7H7+
95.0492	642	C6H7O+
105.0336	999	C7H5O+
