Mass spectrum: CP-122721; LC-ESI-QFT; MS2; CE: 75; R=17500; [M+H]+
Name: CP-122721
Name: (2S,3S)-N-[[2-methoxy-5-(trifluoromethoxy)phenyl]methyl]-2-phenylpiperidin-3-amine
Formula: C20H23F3N2O2
Exact mass: 380.1712
SMILES: COC1=C(CN[C@H]2CCCN[C@H]2C2=CC=CC=C2)C=C(OC(F)(F)F)C=C1
InChI: InChI=1S/C20H23F3N2O2/c1-26-18-10-9-16(27-20(21,22)23)12-15(18)13-25-17-8-5-11-24-19(17)14-6-3-2-4-7-14/h2-4,6-7,9-10,12,17,19,24-25H,5,8,11,13H2,1H3/t17-,19-/m0/s1
Instrument: Q Exactive Orbitrap (Thermo Scientific)
Instrument type: LC-ESI-QFT
Ms type: MS2
Ion mode: POSITIVE
Ionization: ESI
Fragmentation mode: HCD
Collision energy: 75
Resolution: 17500
Column name: Acquity BEH C18 1.7um, 2.1x150mm (Waters)
Retention time: 15.712 min
Base peak: 79.0211
Precursor m/z: 381.1784
Precursor type: [M+H]+
Precursor intensity: 52495152
m/z	relative intensity	assigned
50.0152	1	C4H2+
51.0229	1	C4H3+
53.0022	1	C3HO+
53.0386	5	C4H5+
54.0338	13	C3H4N+
55.0542	59	C4H7+
56.0495	28	C3H6N+
58.0651	8	C3H8N+
59.0292	2	C3H4F+
63.0229	2	C5H3+
65.0385	30	C5H5+
67.0416	27	C4H5N+
68.0495	45	C4H6N+
68.9946	44	CF3+
69.0572	21	C4H7N+
70.0652	2	C4H8N+
77.0387	4	C6H5+
78.0464	1	C6H6+
79.0542	9	C6H7+
80.0494	24	C5H6N+
81.0572	1	C5H7N+
82.0651	252	C5H8N+
83.0291	68	C5H4F+
83.073	4	C5H9N+
89.0384	9	C7H5+
90.0464	2	C7H6+
91.0542	859	C7H7+
92.0621	1	C7H8+
95.0491	7	C6H7O+
102.0466	1	C8H6+
103.0542	195	C8H7+
104.0495	39	C7H6N+
105.0699	93	C8H9+
106.0414	4	C7H6O+
106.0651	4	C7H8N+
109.0448	370	C7H6F+
111.0605	6	C7H8F+
115.0542	426	C9H7+
116.0492	1	C8H6N+
116.0621	17	C9H8+
117.0573	382	C8H7N+
117.0698	168	C9H9+
118.0651	33	C8H8N+
119.073	90	C8H9N+
127.0354	8	C7H5F2+
127.0542	2	C10H7+
128.062	164	C10H8+
129.0698	28	C10H9+
130.0652	390	C9H8N+
131.0731	38	C9H9N+
131.0855	125	C10H11+
132.0807	999	C9H10N+
133.0646	1	C9H9O+
141.0699	9	C11H9+
142.0777	2	C11H10+
143.0729	4	C10H9N+
143.0855	24	C11H11+
144.0806	9	C10H10N+
145.0647	8	C10H9O+
145.0883	6	C10H11N+
155.0604	11	C10H7N2+
158.0964	19	C11H12N+
159.104	7	C11H13N+
160.112	846	C11H14N+
175.0365	165	C8H6F3O+
177.0521	9	C8H8F3O+
193.047	1	C8H8F3O2+
203.0426	7	C8H6F3N2O+
205.0471	10	C9H8F3O2+
