Mass spectrum: Ingliforib; LC-ESI-QFT; MS2; CE: 30; R=17500; [M+H]+
Name: Ingliforib
Name: 5-chloro-N-[(2S,3R)-4-[(3R,4S)-3,4-dihydroxypyrrolidin-1-yl]-3-hydroxy-4-oxo-1-phenylbutan-2-yl]-1H-indole-2-carboxamide
Formula: C23H24ClN3O5
Exact mass: 457.1404
SMILES: O[C@H]([C@H](CC1=CC=CC=C1)NC(=O)C1=CC2=CC(Cl)=CC=C2N1)C(=O)N1C[C@H](O)[C@H](O)C1
InChI: InChI=1S/C23H24ClN3O5/c24-15-6-7-16-14(9-15)10-18(25-16)22(31)26-17(8-13-4-2-1-3-5-13)21(30)23(32)27-11-19(28)20(29)12-27/h1-7,9-10,17,19-21,25,28-30H,8,11-12H2,(H,26,31)/t17-,19-,20+,21+/m0/s1
Instrument: Q Exactive Orbitrap (Thermo Scientific)
Instrument type: LC-ESI-QFT
Ms type: MS2
Ion mode: POSITIVE
Ionization: ESI
Fragmentation mode: HCD
Collision energy: 30
Resolution: 17500
Column name: Acquity BEH C18 1.7um, 2.1x150mm (Waters)
Retention time: 17.388 min
Base peak: 79.0212
Precursor m/z: 458.1477
Precursor type: [M+H]+
Precursor intensity: 7023593.0625
m/z	relative intensity	assigned
58.0651	5	C3H8N+
68.0494	11	C4H6N+
69.0333	1	C4H5O+
86.0237	1	C3H4NO2+
86.0601	19	C4H8NO+
91.0542	52	C7H7+
104.0706	535	C4H10NO2+
105.0698	2	C8H9+
115.0541	11	C9H7+
120.0808	173	C8H10N+
123.0001	3	C7H4Cl+
130.0499	44	C5H8NO3+
132.0808	602	C9H10N+
133.0647	20	C9H9O+
143.0491	16	C10H7O+
144.0656	8	C6H10NO3+
146.0602	2	C9H8NO+
148.0604	12	C5H10NO4+
150.0913	98	C9H12NO+
152.0261	32	C8H7ClN+
158.06	9	C10H8NO+
159.0764	3	C6H11N2O3+
160.0758	18	C10H10NO+
161.0596	13	C10H9O2+
162.076	52	C6H12NO4+
164.026	1	C9H7ClN+
178.0054	999	C9H5ClNO+
192.0453	1	C10H9ClN2+
194.1176	2	C11H16NO2+
195.0321	14	C9H8ClN2O+
206.1171	1	C12H16NO2+
209.0477	2	C10H10ClN2O+
218.1171	1	C13H16NO2+
236.0111	10	C11H7ClNO3+
242.0734	4	C15H13ClN+
246.1125	28	C14H16NO3+
263.139	14	C14H19N2O3+
264.123	28	C14H18NO4+
266.0733	10	C17H13ClN+
281.1496	122	C14H21N2O4+
309.079	65	C18H14ClN2O+
327.0895	650	C18H16ClN2O2+
339.0734	1	C15H16ClN2O5+
355.0843	14	C19H16ClN2O3+
387.9631	1	C23HClN2O3+
440.1373	173	C23H23ClN3O4+
