Mass spectrum: 4-(2,5-Diethoxy-4-nitrophenyl)morpholine; LC-ESI-QFT; MS2; CE: 15; R=17500; [M+H]+
Name: 4-(2,5-Diethoxy-4-nitrophenyl)morpholine
Formula: C14H20N2O5
Exact mass: 296.1372
SMILES: CCOC1=CC(=C(OCC)C=C1N1CCOCC1)[N+]([O-])=O
InChI: InChI=1S/C14H20N2O5/c1-3-20-13-10-12(16(17)18)14(21-4-2)9-11(13)15-5-7-19-8-6-15/h9-10H,3-8H2,1-2H3
Instrument: Q Exactive Orbitrap (Thermo Scientific)
Instrument type: LC-ESI-QFT
Ms type: MS2
Ion mode: POSITIVE
Ionization: ESI
Fragmentation mode: HCD
Collision energy: 15
Resolution: 17500
Column name: Acquity BEH C18 1.7um, 2.1x150mm (Waters)
Retention time: 17.266 min
Base peak: 79.0212
Precursor m/z: 297.1445
Precursor type: [M+H]+
Precursor intensity: 7810684.5625
m/z	relative intensity	assigned
208.1208	2	C11H16N2O2+
209.0925	1	C10H13N2O3+
223.1205	1	C12H17NO3+
237.1236	3	C12H17N2O3+
238.1312	1	C12H18N2O3+
251.1028	1	C12H15N2O4+
253.1179	1	C12H17N2O4+
268.1051	4	C12H16N2O5+
269.1144	2	C12H17N2O5+
280.1417	20	C14H20N2O4+
297.1444	999	C14H21N2O5+
