Mass spectrum: Nonivamide; LC-ESI-QFT; MS2; CE: 30; R=17500; [M+H]+
Name: Nonivamide
Name: N-[(4-hydroxy-3-methoxyphenyl)methyl]nonanamide
Formula: C17H27NO3
Exact mass: 293.1991
SMILES: CCCCCCCCC(=O)NCC1=CC(OC)=C(O)C=C1
InChI: InChI=1S/C17H27NO3/c1-3-4-5-6-7-8-9-17(20)18-13-14-10-11-15(19)16(12-14)21-2/h10-12,19H,3-9,13H2,1-2H3,(H,18,20)
Instrument: Q Exactive Orbitrap (Thermo Scientific)
Instrument type: LC-ESI-QFT
Ms type: MS2
Ion mode: POSITIVE
Ionization: ESI
Fragmentation mode: HCD
Collision energy: 30
Resolution: 17500
Column name: Acquity BEH C18 1.7um, 2.1x150mm (Waters)
Retention time: 17.928 min
Base peak: 79.0211
Precursor m/z: 294.2064
Precursor type: [M+H]+
Precursor intensity: 8181020.375
m/z	relative intensity	assigned
57.0699	8	C4H9+
67.0542	1	C5H7+
71.0855	10	C5H11+
81.0699	5	C6H9+
109.0647	2	C7H9O+
122.0364	2	C7H6O2+
123.1169	4	C9H15+
137.0597	999	C8H9O2+
141.1274	44	C9H17O+
158.154	23	C9H20NO+
170.1538	2	C10H20NO+
