Mass spectrum: Pyrazophos; LC-ESI-QFT; MS2; CE: 30; R=17500; [M+H]+
Name: Pyrazophos
Name: ethyl 2-diethoxyphosphinothioyloxy-5-methylpyrazolo[1,5-a]pyrimidine-6-carboxylate
Formula: C14H20N3O5PS
Exact mass: 373.0861
SMILES: CCOC(=O)C1=CN2N=C(OP(=S)(OCC)OCC)C=C2N=C1C
InChI: InChI=1S/C14H20N3O5PS/c1-5-19-14(18)11-9-17-12(15-10(11)4)8-13(16-17)22-23(24,20-6-2)21-7-3/h8-9H,5-7H2,1-4H3
Instrument: Q Exactive Orbitrap (Thermo Scientific)
Instrument type: LC-ESI-QFT
Ms type: MS2
Ion mode: POSITIVE
Ionization: ESI
Fragmentation mode: HCD
Collision energy: 30
Resolution: 17500
Column name: Acquity BEH C18 1.7um, 2.1x150mm (Waters)
Retention time: 18.878 min
Base peak: 79.0211
Precursor m/z: 374.0934
Precursor type: [M+H]+
Precursor intensity: 14122466.375
m/z	relative intensity	assigned
64.9786	1	H2O2P+
82.9892	2	H4O3P+
93.01	5	C2H6O2P+
98.9842	1	H4O4P+
109.0048	1	C2H6O3P+
111.0205	2	C2H8O3P+
113.9535	16	H3O3PS+
114.9613	22	H4O3PS+
125.9898	1	C2H7O2PS+
130.9561	5	H4O4PS+
139.052	1	C4H12O3P+
140.9767	2	C2H6O3PS+
141.9848	20	C2H7O3PS+
142.9927	6	C2H8O3PS+
149.0589	1	CH13N2O4S+
170.016	43	C4H11O3PS+
176.0454	9	C8H6N3O2+
177.053	6	C8H7N3O2+
183.0222	7	C7H7N2O2S+
192.0225	9	C8H6N3OS+
194.056	98	C8H8N3O3+
195.0763	2	C9H11N2O3+
204.0767	1	C10H10N3O2+
205.0846	43	C10H11N3O2+
206.0923	4	C10H12N3O2+
208.0176	3	C8H6N3O2S+
210.0332	53	C8H8N3O2S+
211.0535	50	C9H11N2O2S+
222.0872	999	C10H12N3O3+
236.0488	54	C10H10N3O2S+
238.0643	336	C10H12N3O2S+
250.1182	4	C12H16N3O3+
266.0956	8	C12H16N3O2S+
271.9893	3	C8H7N3O4PS+
289.9994	5	C8H9N3O5PS+
300.0202	20	C10H11N3O4PS+
302.0533	2	C14H13N3OPS+
318.0308	64	C10H13N3O5PS+
328.0515	15	C12H15N3O4PS+
332.0469	2	C11H15N3O5PS+
346.0621	116	C12H17N3O5PS+
374.0934	140	C14H21N3O5PS+
