Mass spectrum: Cybutryne; LC-ESI-QFT; MS2; CE: 75; R=17500; [M+H]+
Name: Cybutryne
Name: 2-N-tert-butyl-4-N-cyclopropyl-6-methylsulfanyl-1,3,5-triazine-2,4-diamine
Formula: C11H19N5S
Exact mass: 253.1361
SMILES: CSC1=NC(NC(C)(C)C)=NC(NC2CC2)=N1
InChI: InChI=1S/C11H19N5S/c1-11(2,3)16-9-13-8(12-7-5-6-7)14-10(15-9)17-4/h7H,5-6H2,1-4H3,(H2,12,13,14,15,16)
Instrument: Q Exactive Orbitrap (Thermo Scientific)
Instrument type: LC-ESI-QFT
Ms type: MS2
Ion mode: POSITIVE
Ionization: ESI
Fragmentation mode: HCD
Collision energy: 75
Resolution: 17500
Column name: Acquity BEH C18 1.7um, 2.1x150mm (Waters)
Retention time: 17.002 min
Base peak: 79.0211
Precursor m/z: 254.1434
Precursor type: [M+H]+
Precursor intensity: 60228455
m/z	relative intensity	assigned
54.0339	7	C3H4N+
55.0291	30	C2H3N2+
56.0495	501	C3H6N+
57.0699	68	C4H9+
58.0651	99	C3H8N+
58.995	3	C2H3S+
61.0106	3	C2H5S+
66.0338	5	C4H4N+
67.0289	1	C3H3N2+
67.0415	3	C4H5N+
68.0243	344	C2H2N3+
70.0399	28	C2H4N3+
71.9901	2	C2H2NS+
74.0058	419	C2H4NS+
76.0088	2	CH4N2S+
81.0447	119	C4H5N2+
82.0398	1	C3H4N3+
83.0603	999	C4H7N2+
84.9856	1	C2HN2S+
85.0105	3	C4H5S+
85.0509	23	C2H5N4+
87.0263	86	C4H7S+
89.042	9	C4H9S+
91.0324	683	C2H7N2S+
97.0508	2	C3H5N4+
98.0713	7	C4H8N3+
99.0012	6	C3H3N2S+
103.0325	3	C3H7N2S+
108.0556	631	C5H6N3+
109.0508	2	C4H5N4+
110.0461	8	C3H4N5+
111.054	1	C3H5N5+
114.012	12	C3H4N3S+
114.0372	62	C5H8NS+
116.0277	183	C3H6N3S+
123.0665	8	C5H7N4+
125.0822	111	C5H9N4+
126.0119	1	C4H4N3S+
127.0073	7	C3H3N4S+
131.0638	1	C5H11N2S+
141.0228	3	C4H5N4S+
142.043	1	C5H8N3S+
143.0384	2	C4H7N4S+
150.0774	69	C6H8N5+
152.0932	5	C6H10N5+
156.0339	16	C4H6N5S+
156.0589	119	C6H10N3S+
158.0493	10	C4H8N5S+
168.0337	13	C5H6N5S+
170.0495	29	C5H8N5S+
171.0698	10	C6H11N4S+
181.0545	1	C7H9N4S+
182.0491	4	C6H8N5S+
183.0574	3	C6H9N5S+
198.0808	165	C7H12N5S+
