Mass spectrum: Oxazepam; LC-ESI-QFT; MS2; CE: 30; R=17500; [M+H]+
Name: Oxazepam
Name: 7-chloro-3-hydroxy-5-phenyl-1,3-dihydro-1,4-benzodiazepin-2-one
Formula: C15H11ClN2O2
Exact mass: 286.0509
SMILES: OC1N=C(C2=CC=CC=C2)C2=CC(Cl)=CC=C2NC1=O
InChI: InChI=1S/C15H11ClN2O2/c16-10-6-7-12-11(8-10)13(9-4-2-1-3-5-9)18-15(20)14(19)17-12/h1-8,15,20H,(H,17,19)
Instrument: Q Exactive Orbitrap (Thermo Scientific)
Instrument type: LC-ESI-QFT
Ms type: MS2
Ion mode: POSITIVE
Ionization: ESI
Fragmentation mode: HCD
Collision energy: 30
Resolution: 17500
Column name: Acquity BEH C18 1.7um, 2.1x150mm (Waters)
Retention time: 16.615 min
Base peak: 79.0211
Precursor m/z: 287.0582
Precursor type: [M+H]+
Precursor intensity: 13483332.125
m/z	relative intensity	assigned
93.0573	1	C6H7N+
104.0494	21	C7H6N+
128.0261	16	C6H7ClN+
153.0214	4	C7H6ClN2+
156.0209	12	C7H7ClNO+
163.0058	1	C8H4ClN2+
166.0054	32	C8H5ClNO+
207.0676	1	C14H9NO+
216.0573	6	C13H11ClN+
231.0684	138	C13H12ClN2+
241.0526	976	C14H10ClN2+
242.0364	14	C14H9ClNO+
257.0481	3	C14H10ClN2O+
258.0554	4	C14H11ClN2O+
259.0633	3	C14H12ClN2O+
269.0475	999	C15H10ClN2O+
287.0582	332	C15H12ClN2O2+
