Mass spectrum: Triadimefon; LC-ESI-QFT; MS2; CE: 30; R=17500; [M-H]-
Name: Triadimefon
Name: 1-(4-chlorophenoxy)-3,3-dimethyl-1-(1,2,4-triazol-1-yl)butan-2-one
Formula: C14H16ClN3O2
Exact mass: 293.0931
SMILES: CC(C)(C)C(=O)C(OC1=CC=C(Cl)C=C1)N1C=NC=N1
InChI: InChI=1S/C14H16ClN3O2/c1-14(2,3)12(19)13(18-9-16-8-17-18)20-11-6-4-10(15)5-7-11/h4-9,13H,1-3H3
Instrument: Q Exactive Orbitrap (Thermo Scientific)
Instrument type: LC-ESI-QFT
Ms type: MS2
Ion mode: NEGATIVE
Ionization: ESI
Fragmentation mode: HCD
Collision energy: 30
Resolution: 17500
Column name: Acquity BEH C18 1.7um, 2.1x150mm (Waters)
Retention time: 17.606 min
Base peak: 247.0324
Precursor m/z: 292.0858
Precursor type: [M-H]-
Precursor intensity: 4590202.810547
m/z	relative intensity	assigned
66.0099	1	C2N3-
68.0254	999	C2H2N3-
111.0008	3	C6H4Cl-
126.9956	13	C6H4ClO-
152.0829	15	C7H10N3O-
181.0861	2	C8H11N3O2-
211.0528	1	C11H12ClO2-
