Mass spectrum: Octylphosphonic acid; LC-ESI-QFT; MS2; CE: 30; R=17500; [M-H]-
Name: Octylphosphonic acid
Formula: C8H19O3P
Exact mass: 194.1072
SMILES: CCCCCCCCP(O)(O)=O
InChI: InChI=1S/C8H19O3P/c1-2-3-4-5-6-7-8-12(9,10)11/h2-8H2,1H3,(H2,9,10,11)
Instrument: Q Exactive Orbitrap (Thermo Scientific)
Instrument type: LC-ESI-QFT
Ms type: MS2
Ion mode: NEGATIVE
Ionization: ESI
Fragmentation mode: HCD
Collision energy: 30
Resolution: 17500
Column name: Acquity BEH C18 1.7um, 2.1x150mm (Waters)
Retention time: 17.709 min
Base peak: 317.1618
Precursor m/z: 193.0999
Precursor type: [M-H]-
Precursor intensity: 12623564.58789
m/z	relative intensity	assigned
78.959	999	O3P-
83.0502	44	C5H7O-
93.0348	25	C6H5O-
105.0713	22	C8H9-
107.05	45	C7H7O-
107.0866	459	C8H11-
109.0295	38	C6H5O2-
120.0581	62	C8H8O-
121.0295	59	C7H5O2-
135.0449	35	C8H7O2-
136.053	148	C8H8O2-
137.0243	72	C7H5O3-
150.0323	37	C8H6O3-
152.0483	35	C8H8O3-
