Mass spectrum: Biotin; LC-ESI-QFT; MS2; CE: 45; R=17500; [M+H]+
Name: Biotin
Name: 5-[(3aS,4S,6aR)-2-oxo-1,3,3a,4,6,6a-hexahydrothieno[3,4-d]imidazol-4-yl]pentanoic acid
Formula: C10H16N2O3S
Exact mass: 244.0882
SMILES: OC(=O)CCCC[C@@H]1SC[C@@H]2NC(=O)N[C@H]12
InChI: InChI=1S/C10H16N2O3S/c13-8(14)4-2-1-3-7-9-6(5-16-7)11-10(15)12-9/h6-7,9H,1-5H2,(H,13,14)(H2,11,12,15)/t6-,7-,9-/m0/s1
Instrument: Q Exactive Orbitrap (Thermo Scientific)
Instrument type: LC-ESI-QFT
Ms type: MS2
Ion mode: POSITIVE
Ionization: ESI
Fragmentation mode: HCD
Collision energy: 45
Resolution: 17500
Column name: Acquity BEH C18 1.7um, 2.1x150mm (Waters)
Retention time: 11.913 min
Base peak: 79.0212
Precursor m/z: 245.0954
Precursor type: [M+H]+
Precursor intensity: 6442035.4375
m/z	relative intensity	assigned
55.0543	1	C4H7+
56.0494	1	C3H6N+
61.0106	2	C2H5S+
61.0396	13	CH5N2O+
67.0542	5	C5H7+
69.0697	1	C5H9+
76.0215	6	C2H6NS+
79.0211	1	C2H7OS+
79.054	1	C6H7+
81.0699	2	C6H9+
82.0288	2	C4H4NO+
83.0491	1	C5H7O+
85.0105	3	C4H5S+
86.0059	1	C3H4NS+
87.0264	1	C4H7S+
91.0542	1	C7H7+
95.0856	1	C7H11+
97.0107	8	C5H5S+
97.0396	63	C4H5N2O+
98.0965	4	C6H12N+
99.0264	1	C5H7S+
99.0553	2	C4H7N2O+
100.0214	4	C4H6NS+
101.0419	1	C5H9S+
102.0007	2	C3H4NOS+
105.0699	9	C8H9+
107.0855	3	C8H11+
108.0809	5	C7H10N+
109.0646	1	C7H9O+
111.0262	4	C6H7S+
112.0215	2	C5H6NS+
113.0418	6	C6H9S+
115.0579	5	C6H11S+
120.0807	2	C8H10N+
121.0648	5	C8H9O+
122.0962	3	C8H12N+
123.0263	34	C7H7S+
124.0754	1	C7H10NO+
125.042	11	C7H9S+
126.0912	1	C7H12NO+
128.0164	1	C5H6NOS+
131.0275	4	C4H7N2OS+
132.0809	2	C9H10N+
133.0651	4	C9H9O+
133.0887	1	C9H11N+
134.0599	1	C8H8NO+
136.0758	1	C8H10NO+
137.0421	1	C8H9S+
138.0374	1	C7H8NS+
139.0576	30	C8H11S+
141.0117	2	C5H5N2OS+
143.0273	8	C5H7N2OS+
149.0421	9	C9H9S+
150.0912	8	C9H12NO+
151.0753	2	C9H11O2+
151.0865	8	C8H11N2O+
153.1021	1	C8H13N2O+
153.9599	1	C5NO3S+
154.0685	2	C8H12NS+
155.0272	2	C6H7N2OS+
156.0476	1	C7H10NOS+
156.0842	4	C8H14NS+
157.011	4	C10H5S+
163.0865	2	C9H11N2O+
164.0528	1	C9H10NS+
165.1021	3	C9H13N2O+
166.0685	62	C9H12NS+
167.0525	64	C9H11OS+
175.0869	1	C10H11N2O+
181.0974	2	C9H13N2O2+
182.0636	7	C9H12NOS+
184.0791	49	C9H14NOS+
185.0742	6	C8H13N2OS+
192.0477	17	C10H10NOS+
193.0974	4	C10H13N2O2+
199.0899	54	C9H15N2OS+
209.0743	64	C10H13N2OS+
210.0585	3	C10H12NO2S+
227.0848	999	C10H15N2O2S+
245.0955	10	C10H17N2O3S+
