Mass spectrum: SAR102608; LC-ESI-QFT; MS2; CE: 75; R=17500; [M+H]+
Name: SAR102608
Name: N-(5-Fluoro-3-methyl-1H-indol-1-yl)-4-methyl-2-(pyridin-2-yl)pyrimidine-5-carboxamide
Name: N-(5-fluoro-3-methylindol-1-yl)-4-methyl-2-pyridin-2-ylpyrimidine-5-carboxamide
Formula: C20H16FN5O
Exact mass: 361.1339
SMILES: CC1=CN(NC(=O)C2=C(C)N=C(N=C2)C2=CC=CC=N2)C2=CC=C(F)C=C12
InChI: InChI=1S/C20H16FN5O/c1-12-11-26(18-7-6-14(21)9-15(12)18)25-20(27)16-10-23-19(24-13(16)2)17-5-3-4-8-22-17/h3-11H,1-2H3,(H,25,27)
Instrument: Q Exactive Orbitrap (Thermo Scientific)
Instrument type: LC-ESI-QFT
Ms type: MS2
Ion mode: POSITIVE
Ionization: ESI
Fragmentation mode: HCD
Collision energy: 75
Resolution: 17500
Column name: Acquity BEH C18 1.7um, 2.1x150mm (Waters)
Retention time: 16.955 min
Base peak: 79.0212
Precursor m/z: 362.1412
Precursor type: [M+H]+
Precursor intensity: 15965573.90625
m/z	relative intensity	assigned
52.0183	2	C3H2N+
52.0307	4	C4H4+
53.0022	51	C3HO+
54.0339	105	C3H4N+
55.0179	5	C3H3O+
55.0417	59	C3H5N+
56.0257	2	C3H4O+
56.0495	35	C3H6N+
58.0287	2	C2H4NO+
65.0385	3	C5H5+
66.0338	13	C4H4N+
67.0178	7	C4H3O+
67.0417	101	C4H5N+
68.0256	26	C4H4O+
68.0495	6	C4H6N+
70.0288	5	C3H4NO+
74.0964	1	C4H12N+
78.0338	23	C5H4N+
79.0416	89	C5H5N+
80.0495	17	C5H6N+
81.0448	45	C4H5N2+
82.0288	51	C4H4NO+
82.0526	68	C4H6N2+
83.0365	5	C4H5NO+
83.0603	1	C4H7N2+
84.0443	2	C4H6NO+
91.0289	1	FH2N5+
92.0369	2	C5H4N2+
92.0495	5	C6H6N+
93.0448	31	C5H5N2+
93.0574	2	C6H7N+
94.0288	80	C5H4NO+
95.0366	348	C5H5NO+
96.0444	122	C5H6NO+
103.0416	1	C7H5N+
104.0495	10	C7H6N+
105.0447	999	C6H5N2+
106.0526	6	C6H6N2+
107.0604	1	C6H7N2+
108.0556	2	C5H6N3+
109.0397	4	C5H5N2O+
110.06	35	C6H8NO+
111.0315	51	C3H3N4O+
112.0395	2	C3H4N4O+
117.0445	1	C2H4FN5+
117.0572	10	C8H7N+
118.0525	36	C7H6N2+
118.0648	5	C3H7FN4+
119.0604	44	C7H7N2+
121.0448	3	C8H6F+
128.0494	2	C9H6N+
129.0445	4	C3H4FN5+
130.0525	6	C8H6N2+
131.0603	19	C8H7N2+
133.0635	1	C7H7N3+
135.0551	5	C2H6FN5O+
136.0505	1	C6H6N3O+
142.0525	4	C9H6N2+
143.0604	65	C9H7N2+
144.0557	26	C8H6N3+
144.0682	33	C9H8N2+
145.0635	36	C8H7N3+
145.076	25	C9H9N2+
146.0399	2	C9H5FN+
146.0537	1	C10H7F+
146.0602	1	C9H8NO+
146.0713	1	C8H8N3+
147.0794	1	C8H9N3+
148.0557	81	C9H7FN+
149.0635	4	C9H8FN+
150.059	2	C8H7FN2+
151.0431	1	C8H6FNO+
155.0604	63	C10H7N2+
156.0556	26	C9H6N3+
157.0635	120	C9H7N3+
158.0713	73	C9H8N3+
159.0791	26	C9H9N3+
160.0505	56	C8H6N3O+
161.0709	1	C9H9N2O+
163.0666	2	C9H8FN2+
165.0825	1	C9H10FN2+
166.0659	2	C9H9FNO+
168.0558	1	C10H6N3+
169.0636	2	C10H7N3+
170.0713	571	C10H8N3+
171.079	601	C10H9N3+
172.056	1	C11H7FN+
172.087	6	C10H10N3+
173.0508	1	C10H6FN2+
174.0663	3	C9H8N3O+
183.0665	1	C10H7N4+
185.0822	182	C10H9N4+
186.0662	83	C10H8N3O+
186.09	69	C10H10N4+
188.0815	1	C10H10N3O+
196.0747	2	C11H8N4+
197.0822	349	C11H9N4+
198.0577	1	C12H7FN2+
198.0663	9	C11H8N3O+
200.0744	1	C12H9FN2+
212.0697	3	C11H8N4O+
213.0769	65	C11H9N4O+
226.0535	7	C13H7FN2O+
315.1036	1	C19H12FN4+
329.0849	1	C19H10FN4O+
330.0909	1	C19H11FN4O+
332.095	1	C18H11FN5O+
