Mass spectrum: Milrinone; LC-ESI-QFT; MS2; CE: 90; R=17500; [M+H]+
Name: Milrinone
Name: 6-methyl-2-oxo-5-pyridin-4-yl-1H-pyridine-3-carbonitrile
Formula: C12H9N3O
Exact mass: 211.0746
SMILES: CC1=C(C=C(C#N)C(=O)N1)C1=CC=NC=C1
InChI: InChI=1S/C12H9N3O/c1-8-11(9-2-4-14-5-3-9)6-10(7-13)12(16)15-8/h2-6H,1H3,(H,15,16)
Instrument: Q Exactive Orbitrap (Thermo Scientific)
Instrument type: LC-ESI-QFT
Ms type: MS2
Ion mode: POSITIVE
Ionization: ESI
Fragmentation mode: HCD
Collision energy: 90
Resolution: 17500
Column name: Acquity BEH C18 1.7um, 2.1x150mm (Waters)
Retention time: 3.084 min
Base peak: 79.0212
Precursor m/z: 212.0818
Precursor type: [M+H]+
Precursor intensity: 8489006.8125
m/z	relative intensity	assigned
52.0182	4	C3H2N+
53.0386	7	C4H5+
54.0338	13	C3H4N+
63.0229	19	C5H3+
64.0182	7	C4H2N+
65.0385	26	C5H5+
67.0416	3	C4H5N+
68.0131	3	C3H2NO+
78.0338	20	C5H4N+
79.0416	34	C5H5N+
80.0494	26	C5H6N+
89.0385	165	C7H5+
90.0338	10	C6H4N+
91.0542	27	C7H7+
92.0495	42	C6H6N+
93.0573	54	C6H7N+
94.0652	14	C6H8N+
95.0491	13	C6H7O+
95.0603	17	C5H7N2+
96.0443	30	C5H6NO+
102.0464	20	C8H6+
103.0542	36	C8H7+
104.0494	608	C7H6N+
105.0447	27	C6H5N2+
105.0572	12	C7H7N+
106.065	6	C7H8N+
107.0602	3	C6H7N2+
110.06	7	C6H8NO+
113.0386	61	C9H5+
114.0338	20	C8H4N+
115.0542	140	C9H7+
116.0495	432	C8H6N+
117.0573	225	C8H7N+
118.0286	7	C7H4NO+
118.0526	17	C7H6N2+
118.065	82	C8H8N+
119.0241	8	C6H3N2O+
119.0602	8	C7H7N2+
120.0445	12	C7H6NO+
120.0807	4	C8H10N+
127.0417	7	C9H5N+
128.0494	34	C9H6N+
129.0447	18	C8H5N2+
129.0572	32	C9H7N+
130.0651	235	C9H8N+
131.0605	18	C8H7N2+
131.0729	20	C9H9N+
132.0444	18	C8H6NO+
132.0681	6	C8H8N2+
132.0805	4	C9H10N+
133.0757	2	C8H9N2+
134.06	123	C8H8NO+
135.0552	2	C7H7N2O+
139.0414	3	C10H5N+
140.0495	999	C10H6N+
141.0446	21	C9H5N2+
141.0572	44	C10H7N+
142.0526	605	C9H6N2+
142.0649	58	C10H8N+
143.0603	475	C9H7N2+
144.0445	12	C9H6NO+
144.0556	34	C8H6N3+
144.0681	8	C9H8N2+
145.076	61	C9H9N2+
146.0599	6	C9H8NO+
146.0839	9	C9H10N2+
148.0757	3	C9H10NO+
152.0493	6	C11H6N+
153.045	9	C10H5N2+
154.0523	8	C10H6N2+
155.0604	59	C10H7N2+
156.0681	44	C10H8N2+
157.076	105	C10H9N2+
158.06	54	C10H8NO+
159.0553	39	C9H7N2O+
160.0757	2	C10H10NO+
165.0448	14	C11H5N2+
166.0526	204	C11H6N2+
167.0604	334	C11H7N2+
168.0556	76	C10H6N3+
168.0681	172	C11H8N2+
169.0634	114	C10H7N3+
169.0759	63	C11H9N2+
170.047	3	C10H6N2O+
170.0598	5	C11H8NO+
170.0716	8	C10H8N3+
171.0553	32	C10H7N2O+
177.0446	7	C12H5N2+
180.0548	2	C11H6N3+
182.0713	44	C11H8N3+
183.0551	6	C11H7N2O+
183.0791	39	C11H9N3+
184.0869	134	C11H10N3+
185.0709	36	C11H9N2O+
192.0558	16	C12H6N3+
193.0635	174	C12H7N3+
194.0713	52	C12H8N3+
195.0552	27	C12H7N2O+
196.0508	2	C11H6N3O+
197.0584	7	C11H7N3O+
210.0662	42	C12H8N3O+
211.0749	1	C12H9N3O+
212.0818	154	C12H10N3O+
