Mass spectrum: Volinanserin; LC-ESI-QFT; MS2; CE: 90; R=17500; [M+H]+
Name: Volinanserin
Formula: C22H28FNO3
Exact mass: 373.2053
SMILES: COC1=C(OC)C(=CC=C1)[C@H](O)C1CCN(CCC2=CC=C(F)C=C2)CC1
InChI: InChI=1S/C22H28FNO3/c1-26-20-5-3-4-19(22(20)27-2)21(25)17-11-14-24(15-12-17)13-10-16-6-8-18(23)9-7-16/h3-9,17,21,25H,10-15H2,1-2H3/t21-/m1/s1
Instrument: Q Exactive Orbitrap (Thermo Scientific)
Instrument type: LC-ESI-QFT
Ms type: MS2
Ion mode: POSITIVE
Ionization: ESI
Fragmentation mode: HCD
Collision energy: 90
Resolution: 17500
Column name: Acquity BEH C18 1.7um, 2.1x150mm (Waters)
Retention time: 13.634 min
Base peak: 79.0212
Precursor m/z: 374.2126
Precursor type: [M+H]+
Precursor intensity: 32768285
m/z	relative intensity	assigned
51.023	2	C4H3+
53.0386	58	C4H5+
55.0178	4	C3H3O+
55.0542	5	C4H7+
56.0494	7	C3H6N+
58.0651	1	C3H8N+
65.0385	11	C5H5+
66.0463	1	C5H6+
67.0417	3	C4H5N+
67.0542	17	C5H7+
68.0494	2	C4H6N+
69.0698	2	C5H9+
70.0651	9	C4H8N+
75.0228	3	C6H3+
77.0384	28	C6H5+
78.0464	3	C6H6+
79.0542	11	C6H7+
80.0494	8	C5H6N+
80.062	1	C6H8+
81.0335	7	C5H5O+
81.0572	1	C5H7N+
81.0698	3	C6H9+
82.0651	22	C5H8N+
84.0807	19	C5H10N+
89.0385	1	C7H5+
91.0542	61	C7H7+
93.0699	3	C7H9+
94.0413	8	C6H6O+
94.0651	12	C6H8N+
95.0491	201	C6H7O+
95.0728	14	C6H9N+
96.0807	12	C6H10N+
97.0448	17	C6H6F+
98.0964	40	C6H12N+
102.0464	26	C8H6+
103.0541	999	C8H7+
105.0697	8	C8H9+
106.0414	1	C7H6O+
107.049	16	C7H7O+
108.0568	5	C7H8O+
108.0807	1	C7H10N+
109.0283	3	C6H5O2+
109.0448	27	C7H6F+
109.0647	6	C7H9O+
115.0542	22	C9H7+
116.062	4	C9H8+
117.0573	2	C8H7N+
117.0698	7	C9H9+
119.0492	5	C8H7O+
119.0857	2	C9H11+
121.0448	14	C8H6F+
121.0647	10	C8H9O+
122.0361	2	C7H6O2+
122.0527	3	C8H7F+
123.0604	433	C8H8F+
124.0517	5	C7H8O2+
128.0619	13	C10H8+
129.0698	16	C10H9+
130.065	1	C9H8N+
130.0778	3	C10H10+
131.049	7	C9H7O+
131.0854	6	C10H11+
132.0569	1	C9H8O+
132.0806	1	C9H10N+
133.0447	3	C9H6F+
133.0647	4	C9H9O+
135.0438	63	C8H7O2+
135.0601	3	C9H8F+
136.0518	83	C8H8O2+
137.0594	8	C8H9O2+
139.0753	1	C8H11O2+
141.0697	4	C11H9+
142.0776	1	C11H10+
143.0491	4	C10H7O+
143.0854	5	C11H11+
144.0568	11	C10H8O+
145.0646	10	C10H9O+
146.0526	1	C10H7F+
146.0726	3	C10H10O+
147.0438	1	C9H7O2+
147.0601	1	C10H8F+
147.0803	4	C10H11O+
148.0557	8	C9H7FN+
149.0596	1	C9H9O2+
150.0716	7	C9H9FN+
151.0391	1	C8H7O3+
151.0752	10	C9H11O2+
152.0869	1	C9H11FN+
153.0696	1	C12H9+
157.0647	6	C11H9O+
158.0726	8	C11H10O+
159.0438	1	C10H7O2+
159.0804	21	C11H11O+
160.0518	1	C10H8O2+
160.0881	1	C11H12O+
161.0593	6	C10H9O2+
162.0713	1	C10H9FN+
170.0724	1	C12H10O+
171.0806	2	C12H11O+
173.0598	1	C11H9O2+
173.096	3	C12H13O+
174.0671	1	C11H10O2+
175.075	6	C11H11O2+
176.0871	2	C11H11FN+
189.0941	1	C9H14FO3+
202.1027	2	C13H13FN+
204.1181	5	C13H15FN+
216.1018	1	C13H14NO2+
