Mass spectrum: Budesonide; LC-ESI-QFT; MS2; CE: 15; R=17500; [M+H]+
Name: Budesonide
Name: (1S,2S,4R,8S,9S,11S,12S,13R)-11-hydroxy-8-(2-hydroxyacetyl)-9,13-dimethyl-6-propyl-5,7-dioxapentacyclo[10.8.0.02,9.04,8.013,18]icosa-14,17-dien-16-one
Formula: C25H34O6
Exact mass: 430.2355
SMILES: CCCC1O[C@@H]2C[C@H]3[C@@H]4CCC5=CC(=O)C=C[C@]5(C)[C@H]4[C@@H](O)C[C@]3(C)[C@@]2(O1)C(=O)CO
InChI: InChI=1S/C25H34O6/c1-4-5-21-30-20-11-17-16-7-6-14-10-15(27)8-9-23(14,2)22(16)18(28)12-24(17,3)25(20,31-21)19(29)13-26/h8-10,16-18,20-22,26,28H,4-7,11-13H2,1-3H3/t16-,17-,18-,20+,21?,22+,23-,24-,25+/m0/s1
Instrument: Q Exactive Orbitrap (Thermo Scientific)
Instrument type: LC-ESI-QFT
Ms type: MS2
Ion mode: POSITIVE
Ionization: ESI
Fragmentation mode: HCD
Collision energy: 15
Resolution: 17500
Column name: Acquity BEH C18 1.7um, 2.1x150mm (Waters)
Retention time: 18.150 min
Base peak: 79.0212
Precursor m/z: 431.2428
Precursor type: [M+H]+
Precursor intensity: 5001118.625
m/z	relative intensity	assigned
71.0491	26	C4H7O+
121.065	30	C8H9O+
135.0804	16	C9H11O+
147.0805	168	C10H11O+
155.0703	22	C8H11O3+
161.0962	25	C11H13O+
163.0756	14	C10H11O2+
165.0915	13	C10H13O2+
171.0806	61	C12H11O+
173.0962	141	C12H13O+
187.1119	27	C13H15O+
197.0968	12	C14H13O+
199.1118	17	C14H15O+
209.096	17	C15H13O+
211.1117	22	C15H15O+
213.1275	14	C15H17O+
223.112	33	C16H15O+
225.1274	98	C16H17O+
226.1346	20	C16H18O+
227.1435	87	C16H19O+
237.1276	27	C17H17O+
239.1431	35	C17H19O+
241.159	26	C17H21O+
249.1274	19	C18H17O+
251.1437	23	C18H19O+
253.1583	14	C18H21O+
261.1277	26	C19H17O+
263.1432	126	C19H19O+
265.1229	17	C18H17O2+
265.1588	73	C19H21O+
267.1746	51	C19H23O+
275.1428	12	C20H19O+
277.1589	139	C20H21O+
279.1388	38	C19H19O2+
279.1743	30	C20H23O+
281.154	51	C19H21O2+
283.1696	60	C19H23O2+
287.1435	42	C21H19O+
289.1591	69	C21H21O+
293.1537	53	C20H21O2+
295.1692	140	C20H23O2+
305.154	261	C21H21O2+
307.1696	128	C21H23O2+
311.1649	15	C20H23O3+
323.1645	726	C21H23O3+
341.1751	269	C21H25O4+
413.2327	999	C25H33O5+
