Mass spectrum: Roxithromycin; LC-ESI-QFT; MS2; CE: 15; R=17500; [M+H]+
Name: Roxithromycin
Name: (3R,4S,5S,6R,7R,9R,11S,12R,13S,14R)-6-[(2S,3R,4S,6R)-4-(dimethylamino)-3-hydroxy-6-methyloxan-2-yl]oxy-14-ethyl-7,12,13-trihydroxy-4-[(2R,4R,5S,6S)-5-hydroxy-4-methoxy-4,6-dimethyloxan-2-yl]oxy-10-(2-methoxyethoxymethoxyimino)-3,5,7,9,11,13-hexamethyl-oxacyclotetradecan-2-one
Formula: C41H76N2O15
Exact mass: 836.5246
SMILES: CC[C@H]1OC(=O)[C@H](C)[C@@H](O[C@H]2C[C@@](C)(OC)[C@@H](O)[C@H](C)O2)[C@H](C)[C@@H](O[C@@H]2O[C@H](C)C[C@@H]([C@H]2O)N(C)C)[C@](C)(O)C[C@@H](C)C(=NOCOCCOC)[C@H](C)[C@@H](O)[C@]1(C)O
InChI: InChI=1S/C41H76N2O15/c1-15-29-41(10,49)34(45)24(4)31(42-53-21-52-17-16-50-13)22(2)19-39(8,48)36(58-38-32(44)28(43(11)12)18-23(3)54-38)25(5)33(26(6)37(47)56-29)57-30-20-40(9,51-14)35(46)27(7)55-30/h22-30,32-36,38,44-46,48-49H,15-21H2,1-14H3/t22-,23-,24+,25+,26-,27+,28+,29-,30+,32-,33+,34-,35+,36-,38+,39-,40-,41-/m1/s1
Instrument: Q Exactive Orbitrap (Thermo Scientific)
Instrument type: LC-ESI-QFT
Ms type: MS2
Ion mode: POSITIVE
Ionization: ESI
Fragmentation mode: HCD
Collision energy: 15
Resolution: 17500
Column name: Acquity BEH C18 1.7um, 2.1x150mm (Waters)
Retention time: 16.237 min
Base peak: 79.0211
Precursor m/z: 837.5318
Precursor type: [M+H]+
Precursor intensity: 7995142.75
m/z	relative intensity	assigned
72.0807	7	C4H10N+
83.0492	65	C5H7O+
87.0438	1	C4H7O2+
98.0964	6	C6H12N+
99.0803	1	C6H11O+
100.0755	1	C5H10NO+
113.0597	4	C6H9O2+
115.0753	12	C6H11O2+
116.0707	8	C5H10NO2+
116.107	147	C6H14NO+
127.0753	29	C7H11O2+
142.1226	1	C8H16NO+
158.1176	763	C8H16NO2+
159.1015	2	C8H15O3+
176.1283	3	C8H18NO3+
246.1702	3	C12H24NO4+
284.186	2	C15H26NO4+
365.2322	1	C21H33O5+
380.2442	2	C21H34NO5+
398.2538	10	C21H36NO6+
416.2636	4	C21H38NO7+
446.2759	4	C22H40NO8+
522.329	66	C28H46N2O7+
540.3537	41	C29H50NO8+
555.3646	12	C29H51N2O8+
603.3863	23	C30H55N2O10+
661.428	23	C33H61N2O11+
679.4382	999	C33H63N2O12+
