Mass spectrum: UK-373911; LC-ESI-QFT; MS2; CE: 30; R=17500; [M+H]+
Name: UK-373911
Name: (5S,8S)-5-(3,4-dichlorophenyl)-8-(methylamino)-5,6,7,8-tetrahydronaphthalene-2-sulfonamide
Formula: C17H18Cl2N2O2S
Exact mass: 384.0466
SMILES: CN[C@H]1CC[C@@H](C2=CC=C(Cl)C(Cl)=C2)C2=CC=C(C=C12)S(N)(=O)=O
InChI: InChI=1S/C17H18Cl2N2O2S/c1-21-17-7-5-12(10-2-6-15(18)16(19)8-10)13-4-3-11(9-14(13)17)24(20,22)23/h2-4,6,8-9,12,17,21H,5,7H2,1H3,(H2,20,22,23)/t12-,17-/m0/s1
Instrument: Q Exactive Orbitrap (Thermo Scientific)
Instrument type: LC-ESI-QFT
Ms type: MS2
Ion mode: POSITIVE
Ionization: ESI
Fragmentation mode: HCD
Collision energy: 30
Resolution: 17500
Column name: Acquity BEH C18 1.7um, 2.1x150mm (Waters)
Retention time: 14.686 min
Base peak: 79.0211
Precursor m/z: 385.0539
Precursor type: [M+H]+
Precursor intensity: 3614476.90625
m/z	relative intensity	assigned
128.062	37	C10H8+
129.0698	2	C10H9+
131.049	1	C9H7O+
143.0603	1	C9H7N2+
144.0808	79	C10H10N+
145.0647	5	C10H9O+
155.0602	10	C10H7N2+
158.9763	999	C7H5Cl2+
170.0271	8	C7H8NO2S+
179.0162	37	C9H7O2S+
191.0161	35	C10H7O2S+
208.0428	38	C10H10NO2S+
239.0624	5	C16H12Cl+
273.0234	16	C16H11Cl2+
274.031	66	C16H12Cl2+
291.0337	8	C16H13Cl2O+
301.0293	36	C16H11Cl2N2+
319.0422	2	C16H14ClNO2S+
336.9853	34	C16H11Cl2O2S+
354.0119	186	C16H14Cl2NO2S+
