Mass spectrum: PharmaGSID_48505; LC-ESI-QFT; MS2; CE: 45; R=17500; [M-H]-
Name: PharmaGSID_48505
Name: 5-(2-chlorophenyl)-3-methyl-7-nitro-1,2-dihydropyrazolo[3,4-b][1,4]benzodiazepine
Formula: C17H12ClN5O2
Exact mass: 353.0680
SMILES: CC1=C2N=C(C3=CC=CC=C3Cl)C3=C(NC2=NN1)C=CC(=C3)[N+]([O-])=O
InChI: InChI=1S/C17H12ClN5O2/c1-9-15-17(22-21-9)19-14-7-6-10(23(24)25)8-12(14)16(20-15)11-4-2-3-5-13(11)18/h2-8H,1H3,(H2,19,21,22)
Instrument: Q Exactive Orbitrap (Thermo Scientific)
Instrument type: LC-ESI-QFT
Ms type: MS2
Ion mode: NEGATIVE
Ionization: ESI
Fragmentation mode: HCD
Collision energy: 45
Resolution: 17500
Column name: Acquity BEH C18 1.7um, 2.1x150mm (Waters)
Retention time: 17.775 min
Base peak: 112.9857
Precursor m/z: 352.0607
Precursor type: [M-H]-
Precursor intensity: 14957042.64844
m/z	relative intensity	assigned
65.0146	5	C3HN2-
65.9985	4	C3NO-
120.009	6	C6H2NO2-
143.0251	14	C8H3N2O-
147.02	129	C7H3N2O2-
157.0531	8	C10H7NO-
165.0457	10	C11H5N2-
189.046	5	C13H5N2-
211.0624	23	C11H7N4O-
212.0464	14	C11H6N3O2-
213.0546	8	C11H7N3O2-
215.0616	11	C15H7N2-
216.0567	32	C14H6N3-
217.0408	5	C14H5N2O-
219.056	46	C14H7N2O-
221.0356	15	C13H5N2O2-
226.0373	43	C10H4N5O2-
228.0562	13	C15H6N3-
229.0645	45	C15H7N3-
229.0767	7	C16H9N2-
232.0515	10	C14H6N3O-
240.0527	35	C11H6N5O2-
241.0605	39	C11H7N5O2-
241.0767	17	C17H9N2-
242.0718	8	C16H8N3-
243.056	41	C16H7N2O-
244.0515	222	C15H6N3O-
245.0594	102	C15H7N3O-
249.0545	58	C14H7N3O2-
252.0219	15	C15H7ClNO-
253.0176	51	C14H6ClN2O-
254.0251	39	C14H7ClN2O-
256.064	13	C17H8N2O-
257.0718	159	C17H9N2O-
257.0838	8	C16H9N4-
258.092	61	C16H10N4-
261.067	19	C16H9N2O2-
265.0413	40	C15H8ClN3-
266.0252	5	C15H7ClN2O-
269.0832	19	C17H9N4-
270.0674	23	C17H8N3O-
270.0913	32	C17H10N4-
271.0285	27	C14H8ClN2O2-
271.0625	50	C16H7N4O-
273.0541	12	C16H7N3O2-
273.0786	35	C16H9N4O-
275.0414	4	C17H8ClN2-
276.0649	28	C15H8N4O2-
279.033	313	C16H8ClN2O-
280.028	82	C15H7ClN3O-
283.015	43	C14H6ClN3O2-
284.0233	101	C14H7ClN3O2-
285.0781	708	C17H9N4O-
286.0854	45	C17H10N4O-
287.0938	114	C17H11N4O-
288.0778	14	C17H10N3O2-
293.0488	40	C17H10ClN2O-
294.0317	15	C15H7ClN4O-
296.0231	171	C15H7ClN3O2-
297.0436	121	C16H10ClN2O2-
299.0813	39	C17H9N5O-
305.0598	14	C17H10ClN4-
306.0671	8	C17H11ClN4-
309.0309	24	C16H8ClN3O2-
310.0249	46	C15H7ClN4O2-
311.0335	5	C15H8ClN4O2-
315.0764	46	C17H9N5O2-
316.0841	32	C17H10N5O2-
321.0536	6	C17H10ClN4O-
322.0386	17	C17H9ClN3O2-
322.0594	32	C17H11ClN4O-
323.0469	4	C17H10ClN3O2-
324.0541	13	C17H11ClN3O2-
337.0367	23	C16H8ClN5O2-
352.0605	999	C17H11ClN5O2-
