Mass spectrum: Diflufenzopyr; LC-ESI-QFT; MS2; CE: 15; R=17500; [M+H]+
Name: Diflufenzopyr
Name: 2-[(E)-N-[(3,5-difluorophenyl)carbamoylamino]-C-methylcarbonimidoyl]pyridine-3-carboxylic acid
Formula: C15H12F2N4O3
Exact mass: 334.0877
SMILES: C\C(=N/NC(=O)NC1=CC(F)=CC(F)=C1)C1=NC=CC=C1C(O)=O
InChI: InChI=1S/C15H12F2N4O3/c1-8(13-12(14(22)23)3-2-4-18-13)20-21-15(24)19-11-6-9(16)5-10(17)7-11/h2-7H,1H3,(H,22,23)(H2,19,21,24)/b20-8+
Instrument: Q Exactive Orbitrap (Thermo Scientific)
Instrument type: LC-ESI-QFT
Ms type: MS2
Ion mode: POSITIVE
Ionization: ESI
Fragmentation mode: HCD
Collision energy: 15
Resolution: 17500
Column name: Acquity BEH C18 1.7um, 2.1x150mm (Waters)
Retention time: 16.398 min
Base peak: 79.0211
Precursor m/z: 335.095
Precursor type: [M+H]+
Precursor intensity: 2565253.5
m/z	relative intensity	assigned
148.0393	12	C8H6NO2+
162.0661	601	C8H8N3O+
163.0505	13	C8H7N2O2+
180.0767	134	C8H10N3O2+
188.0457	8	C9H6N3O2+
206.0561	999	C9H8N3O3+
