Mass spectrum: CP-457920; LC-ESI-QFT; MS2; CE: 30; R=17500; [M-H]-
Name: CP-457920
Name: 1,5-Naphthyridine-3-carboxamide, 6-ethoxy-1,4-dihydro-4-oxo-N-(phenylmethyl)-
Name: N-benzyl-6-ethoxy-4-oxo-1H-1,5-naphthyridine-3-carboxamide
Formula: C18H17N3O3
Exact mass: 323.1270
SMILES: CCOC1=NC2=C(NC=C(C(=O)NCC3=CC=CC=C3)C2=O)C=C1
InChI: InChI=1S/C18H17N3O3/c1-2-24-15-9-8-14-16(21-15)17(22)13(11-19-14)18(23)20-10-12-6-4-3-5-7-12/h3-9,11H,2,10H2,1H3,(H,19,22)(H,20,23)
Instrument: Q Exactive Orbitrap (Thermo Scientific)
Instrument type: LC-ESI-QFT
Ms type: MS2
Ion mode: NEGATIVE
Ionization: ESI
Fragmentation mode: HCD
Collision energy: 30
Resolution: 17500
Column name: Acquity BEH C18 1.7um, 2.1x150mm (Waters)
Retention time: 16.923 min
Base peak: 360.1269
Precursor m/z: 322.1197
Precursor type: [M-H]-
Precursor intensity: 19818685.8418
m/z	relative intensity	assigned
108.0329	3	C5H4N2O-
119.0251	2	C6H3N2O-
132.0334	1	C7H4N2O-
135.02	1	C6H3N2O2-
148.0277	1	C7H4N2O2-
160.0274	14	C8H4N2O2-
161.0356	55	C8H5N2O2-
176.0228	50	C8H4N2O3-
188.0232	1	C9H4N2O3-
189.067	12	C10H9N2O2-
250.0748	1	C15H10N2O2-
275.0701	1	C16H9N3O2-
276.0775	1	C16H10N3O2-
293.081	136	C16H11N3O3-
294.0885	999	C16H12N3O3-
322.1197	610	C18H16N3O3-
