Mass spectrum: CP-544439; LC-ESI-QFT; MS2; CE: 60; R=17500; [M-H]-
Name: CP-544439
Name: 2H-Pyran-4-carboxamide, 4-(((4-(4-fluorophenoxy)phenyl)sulfonyl)amino)tetrahydro-N-hydroxy-
Name: 4-[[4-(4-fluorophenoxy)phenyl]sulfonylamino]-N-hydroxyoxane-4-carboxamide
Formula: C18H19FN2O6S
Exact mass: 410.0948
SMILES: ONC(=O)C1(CCOCC1)NS(=O)(=O)C1=CC=C(OC2=CC=C(F)C=C2)C=C1
InChI: InChI=1S/C18H19FN2O6S/c19-13-1-3-14(4-2-13)27-15-5-7-16(8-6-15)28(24,25)21-18(17(22)20-23)9-11-26-12-10-18/h1-8,21,23H,9-12H2,(H,20,22)
Instrument: Q Exactive Orbitrap (Thermo Scientific)
Instrument type: LC-ESI-QFT
Ms type: MS2
Ion mode: NEGATIVE
Ionization: ESI
Fragmentation mode: HCD
Collision energy: 60
Resolution: 17500
Column name: Acquity BEH C18 1.7um, 2.1x150mm (Waters)
Retention time: 15.940 min
Base peak: 409.0876
Precursor m/z: 409.0875
Precursor type: [M-H]-
Precursor intensity: 2968458.491699
m/z	relative intensity	assigned
57.9934	23	CNO2-
61.9706	72	NOS-
63.9624	39	O2S-
77.9655	91	NO2S-
78.035	122	C5H4N-
78.9734	30	HNO2S-
79.9812	298	H2NO2S-
93.0346	3	C6H5O-
93.9605	26	NO3S-
94.0299	15	C5H4NO-
95.0303	61	C6H4F-
106.0298	99	C6H4NO-
107.0377	999	C6H5NO-
108.0217	55	C6H4O2-
110.0248	8	C5H4NO2-
111.0251	62	C6H4FO-
112.0404	55	C5H6NO2-
121.046	9	C8H6F-
147.0615	8	C10H8F-
159.0617	4	C11H8F-
160.0566	20	C10H7FN-
161.0409	7	C10H6FO-
170.9992	17	C6H5NO3S-
172.0073	19	C6H6NO3S-
174.0728	8	C11H9FN-
175.0565	26	C11H8FO-
187.0566	39	C12H8FO-
200.0518	4	C12H7FNO-
201.0595	27	C12H8FNO-
202.0674	114	C12H9FNO-
203.0512	18	C12H8FO2-
231.0461	3	C13H8FO3-
266.0293	693	C12H9FNO3S-
