Mass spectrum: Fluridone; LC-ESI-QFT; MS2; CE: 15; R=17500; [M+H]+
Name: Fluridone
Name: 1-methyl-3-phenyl-5-[3-(trifluoromethyl)phenyl]pyridin-4-one
Formula: C19H14F3NO
Exact mass: 329.1027
SMILES: CN1C=C(C(=O)C(=C1)C1=CC(=CC=C1)C(F)(F)F)C1=CC=CC=C1
InChI: InChI=1S/C19H14F3NO/c1-23-11-16(13-6-3-2-4-7-13)18(24)17(12-23)14-8-5-9-15(10-14)19(20,21)22/h2-12H,1H3
Instrument: Q Exactive Orbitrap (Thermo Scientific)
Instrument type: LC-ESI-QFT
Ms type: MS2
Ion mode: POSITIVE
Ionization: ESI
Fragmentation mode: HCD
Collision energy: 15
Resolution: 17500
Column name: Acquity BEH C18 1.7um, 2.1x150mm (Waters)
Retention time: 16.806 min
Base peak: 79.0211
Precursor m/z: 330.11
Precursor type: [M+H]+
Precursor intensity: 58401963.1875
m/z	relative intensity	assigned
315.085	1	C18H12F3NO+
329.1029	1	C19H14F3NO+
330.1097	999	C19H15F3NO+
