Mass spectrum: N-Ethyl-4-menthane-3-carboxamide; LC-ESI-QFT; MS2; CE: 45; R=17500; [M+H]+
Name: N-Ethyl-4-menthane-3-carboxamide
Name: N-Ethyl-p-menthane-3-carboxamide
Name: N-ethyl-5-methyl-2-propan-2-ylcyclohexane-1-carboxamide
Formula: C13H25NO
Exact mass: 211.1936
SMILES: CCNC(=O)C1CC(C)CCC1C(C)C
InChI: InChI=1S/C13H25NO/c1-5-14-13(15)12-8-10(4)6-7-11(12)9(2)3/h9-12H,5-8H2,1-4H3,(H,14,15)
Instrument: Q Exactive Orbitrap (Thermo Scientific)
Instrument type: LC-ESI-QFT
Ms type: MS2
Ion mode: POSITIVE
Ionization: ESI
Fragmentation mode: HCD
Collision energy: 45
Resolution: 17500
Column name: Acquity BEH C18 1.7um, 2.1x150mm (Waters)
Retention time: 17.986 min
Base peak: 79.0211
Precursor m/z: 212.2009
Precursor type: [M+H]+
Precursor intensity: 90670775.6875
m/z	relative intensity	assigned
55.0542	23	C4H7+
56.0495	1	C3H6N+
57.0699	31	C4H9+
58.0651	4	C3H8N+
67.0542	2	C5H7+
69.0698	87	C5H9+
71.0855	4	C5H11+
72.0443	92	C3H6NO+
74.06	18	C3H8NO+
79.0541	1	C6H7+
81.0699	16	C6H9+
83.0855	151	C6H11+
85.1013	1	C6H13+
93.0699	7	C7H9+
95.0855	11	C7H11+
97.1012	60	C7H13+
100.0754	4	C5H10NO+
107.0855	7	C8H11+
109.1012	2	C8H13+
121.101	3	C9H13+
123.1168	15	C9H15+
125.1324	7	C9H17+
137.1325	1	C10H17+
139.148	1	C10H19+
142.1226	1	C8H16NO+
149.1325	5	C11H17+
150.1278	1	C10H16N+
152.1431	2	C10H18N+
154.1226	1	C9H16NO+
168.1383	6	C10H18NO+
170.1539	191	C10H20NO+
194.1904	6	C13H24N+
196.1696	6	C12H22NO+
210.185	2	C13H24NO+
212.2008	999	C13H26NO+
