Mass spectrum: Imazethapyr; LC-ESI-QFT; MS2; CE: 75; R=17500; [M+H]+
Name: Imazethapyr
Name: 5-ethyl-2-(4-methyl-5-oxo-4-propan-2-yl-1H-imidazol-2-yl)pyridine-3-carboxylic acid
Formula: C15H19N3O3
Exact mass: 289.1426
SMILES: CCC1=CN=C(C2=NC(C)(C(C)C)C(=O)N2)C(=C1)C(O)=O
InChI: InChI=1S/C15H19N3O3/c1-5-9-6-10(13(19)20)11(16-7-9)12-17-14(21)15(4,18-12)8(2)3/h6-8H,5H2,1-4H3,(H,19,20)(H,17,18,21)
Instrument: Q Exactive Orbitrap (Thermo Scientific)
Instrument type: LC-ESI-QFT
Ms type: MS2
Ion mode: POSITIVE
Ionization: ESI
Fragmentation mode: HCD
Collision energy: 75
Resolution: 17500
Column name: Acquity BEH C18 1.7um, 2.1x150mm (Waters)
Retention time: 14.647 min
Base peak: 79.0211
Precursor m/z: 290.1499
Precursor type: [M+H]+
Precursor intensity: 25418056.8125
m/z	relative intensity	assigned
52.0182	2	C3H2N+
53.0022	77	C3HO+
53.0386	5	C4H5+
53.9974	15	C2NO+
55.0179	3	C3H3O+
56.0495	20	C3H6N+
58.0651	24	C3H8N+
66.0464	6	C5H6+
67.0415	1	C4H5N+
67.0542	30	C5H7+
67.9892	2	C3O2+
69.0698	999	C5H9+
70.0651	32	C4H8N+
71.0729	89	C4H9N+
71.0855	7	C5H11+
72.0443	8	C3H6NO+
72.0807	3	C4H10N+
77.0386	4	C6H5+
78.0086	2	C3N3+
78.0338	1	C5H4N+
79.0542	12	C6H7+
80.0494	5	C5H6N+
81.0334	6	C5H5O+
81.0573	1	C5H7N+
84.0808	3	C5H10N+
86.0964	833	C5H12N+
91.0415	1	C6H5N+
91.0542	3	C7H7+
93.0574	8	C6H7N+
93.0698	12	C7H9+
94.065	8	C6H8N+
95.0492	17	C6H7O+
96.0443	11	C5H6NO+
97.0649	9	C6H9O+
104.0494	176	C7H6N+
105.0447	13	C6H5N2+
105.0574	3	C7H7N+
106.065	15	C7H8N+
107.0605	2	C6H7N2+
107.073	7	C7H9N+
108.0681	3	C6H8N2+
108.0809	3	C7H10N+
110.0601	4	C6H8NO+
118.0525	27	C7H6N2+
119.0605	1	C7H7N2+
120.0682	6	C7H8N2+
120.0808	1	C8H10N+
121.0397	70	C6H5N2O+
121.0522	4	C7H7NO+
121.0761	6	C7H9N2+
122.0601	8	C7H8NO+
123.0678	5	C7H9NO+
124.0757	316	C7H10NO+
131.0603	19	C8H7N2+
132.0682	26	C8H8N2+
132.0808	7	C9H10N+
133.076	183	C8H9N2+
134.06	2	C8H8NO+
134.0839	2	C8H10N2+
135.0553	3	C7H7N2O+
135.0915	12	C8H11N2+
136.0757	13	C8H10NO+
138.0912	15	C8H12NO+
139.0628	12	C7H9NO2+
143.0732	1	C10H9N+
145.0886	5	C10H11N+
146.0475	13	C8H6N2O+
147.0552	2	C8H7N2O+
147.0919	3	C9H11N2+
149.0346	35	C7H5N2O2+
149.071	295	C8H9N2O+
152.0706	74	C8H10NO2+
157.0763	2	C10H9N2+
158.0711	3	C9H8N3+
158.0969	8	C11H12N+
159.0553	885	C9H7N2O+
160.0631	51	C9H8N2O+
160.1119	3	C11H14N+
161.0709	171	C9H9N2O+
162.0425	29	C8H6N2O2+
162.0548	3	C9H8NO2+
163.0501	2	C8H7N2O2+
163.0864	2	C9H11N2O+
164.0706	12	C9H10NO2+
169.0761	2	C11H9N2+
170.084	4	C11H10N2+
171.0918	6	C11H11N2+
172.1121	2	C12H14N+
173.0708	4	C10H9N2O+
174.1025	6	C10H12N3+
175.0866	660	C10H11N2O+
176.0818	168	C9H10N3O+
177.0658	826	C9H9N2O2+
184.0997	11	C12H12N2+
185.0706	3	C11H9N2O+
185.1075	4	C12H13N2+
186.0915	3	C12H12NO+
186.1153	3	C12H14N2+
187.0742	8	C10H9N3O+
188.0947	8	C11H12N2O+
191.0815	71	C10H11N2O2+
197.0711	4	C12H9N2O+
198.0793	2	C12H10N2O+
199.123	12	C13H15N2+
200.0819	6	C11H10N3O+
201.0896	11	C11H11N3O+
201.1386	3	C13H17N2+
202.0975	210	C11H12N3O+
203.118	15	C12H15N2O+
204.1018	2	C12H14NO2+
205.0965	2	C11H13N2O2+
212.0945	14	C13H12N2O+
214.0973	5	C12H12N3O+
215.0685	9	C11H9N3O2+
219.1002	12	C11H13N3O2+
220.108	6	C11H14N3O2+
227.1178	17	C14H15N2O+
229.0845	5	C12H11N3O2+
230.0924	116	C12H12N3O2+
245.1289	2	C14H17N2O2+
