Mass spectrum: Isoxaben; LC-ESI-QFT; MS2; CE: 60; R=17500; [M-H]-
Name: Isoxaben
Name: 2,6-dimethoxy-N-[3-(3-methylpentan-3-yl)-1,2-oxazol-5-yl]benzamide
Formula: C18H24N2O4
Exact mass: 332.1736
SMILES: CCC(C)(CC)C1=NOC(NC(=O)C2=C(OC)C=CC=C2OC)=C1
InChI: InChI=1S/C18H24N2O4/c1-6-18(3,7-2)14-11-15(24-20-14)19-17(21)16-12(22-4)9-8-10-13(16)23-5/h8-11H,6-7H2,1-5H3,(H,19,21)
Instrument: Q Exactive Orbitrap (Thermo Scientific)
Instrument type: LC-ESI-QFT
Ms type: MS2
Ion mode: NEGATIVE
Ionization: ESI
Fragmentation mode: HCD
Collision energy: 60
Resolution: 17500
Column name: Acquity BEH C18 1.7um, 2.1x150mm (Waters)
Retention time: 17.361 min
Base peak: 341.0253
Precursor m/z: 331.1663
Precursor type: [M-H]-
Precursor intensity: 4697858.558594
m/z	relative intensity	assigned
65.0146	85	C3HN2-
65.9985	884	C3NO-
72.9931	398	C2HO3-
81.0095	40	C3HN2O-
91.019	39	C6H3O-
93.0346	423	C6H5O-
95.014	55	C5H3O2-
102.035	137	C7H4N-
107.0502	97	C7H7O-
108.0218	192	C6H4O2-
108.0819	116	C7H10N-
117.0224	37	C7H3NO-
117.0345	29	C8H5O-
118.0298	269	C7H4NO-
120.009	161	C6H2NO2-
121.0295	999	C7H5O2-
123.0452	72	C7H7O2-
132.0215	50	C8H4O2-
132.0454	493	C8H6NO-
133.017	296	C7H3NO2-
133.0295	691	C8H5O2-
134.0248	143	C7H4NO2-
134.0373	159	C8H6O2-
135.0088	104	C7H3O3-
135.0452	40	C8H7O2-
136.0402	79	C7H6NO2-
137.0609	76	C8H9O2-
146.0247	133	C8H4NO2-
148.0404	444	C8H6NO2-
161.0244	562	C9H5O3-
162.0197	96	C8H4NO3-
162.0318	49	C9H6O3-
164.0352	64	C8H6NO3-
166.1108	71	C9H14N2O-
173.012	108	C9H3NO3-
176.035	51	C9H6NO3-
190.0144	40	C9H4NO4-
