Mass spectrum: 2,4,6-Tris(allyloxy)-1,3,5-triazine; LC-ESI-QFT; MS2; CE: 90; R=17500; [M+H]+
Name: 2,4,6-Tris(allyloxy)-1,3,5-triazine
Name: Triallyl cyanurate
Name: 2,4,6-tris(prop-2-enoxy)-1,3,5-triazine
Formula: C12H15N3O3
Exact mass: 249.1113
SMILES: C=CCOC1=NC(OCC=C)=NC(OCC=C)=N1
InChI: InChI=1S/C12H15N3O3/c1-4-7-16-10-13-11(17-8-5-2)15-12(14-10)18-9-6-3/h4-6H,1-3,7-9H2
Instrument: Q Exactive Orbitrap (Thermo Scientific)
Instrument type: LC-ESI-QFT
Ms type: MS2
Ion mode: POSITIVE
Ionization: ESI
Fragmentation mode: HCD
Collision energy: 90
Resolution: 17500
Column name: Acquity BEH C18 1.7um, 2.1x150mm (Waters)
Retention time: 17.729 min
Base peak: 79.0211
Precursor m/z: 250.1186
Precursor type: [M+H]+
Precursor intensity: 20487559.125
m/z	relative intensity	assigned
51.0231	21	C4H3+
53.0023	429	C3HO+
53.0386	417	C4H5+
53.9975	82	C2NO+
54.0339	123	C3H4N+
55.0178	16	C3H3O+
55.0542	62	C4H7+
56.0131	426	C2H2NO+
58.0652	34	C3H8N+
65.0386	73	C5H5+
66.0464	95	C5H6+
67.9894	15	C3O2+
68.9972	21	C3HO2+
69.9924	537	C2NO2+
77.0386	15	C6H5+
79.0543	999	C6H7+
81.0699	340	C6H9+
82.0287	105	C4H4NO+
84.0445	59	C4H6NO+
87.019	82	C2H3N2O2+
95.0492	186	C6H7O+
105.0448	76	C6H5N2+
