Mass spectrum: Hexylparaben; LC-ESI-QFT; MS2; CE: 90; R=17500; [M-H]-
Name: Hexylparaben
Name: hexyl 4-hydroxybenzoate
Formula: C13H18O3
Exact mass: 222.1256
SMILES: CCCCCCOC(=O)C1=CC=C(O)C=C1
InChI: InChI=1S/C13H18O3/c1-2-3-4-5-10-16-13(15)11-6-8-12(14)9-7-11/h6-9,14H,2-5,10H2,1H3
Instrument: Q Exactive Orbitrap (Thermo Scientific)
Instrument type: LC-ESI-QFT
Ms type: MS2
Ion mode: NEGATIVE
Ionization: ESI
Fragmentation mode: HCD
Collision energy: 90
Resolution: 17500
Column name: Acquity BEH C18 1.7um, 2.1x150mm (Waters)
Retention time: 18.967 min
Base peak: 221.1183
Precursor m/z: 221.1183
Precursor type: [M-H]-
Precursor intensity: 80763122.64551
m/z	relative intensity	assigned
65.0033	2	C4HO-
65.0397	25	C5H5-
67.0189	3	C4H3O-
68.9982	13	C3HO2-
69.0346	12	C4H5O-
70.006	6	C3H2O2-
71.0138	9	C3H3O2-
72.9931	5	C2HO3-
79.0188	9	C5H3O-
79.9903	5	C4O2-
80.9983	3	C4HO2-
82.0061	31	C4H2O2-
86.001	1	C3H2O3-
91.019	89	C6H3O-
92.0268	138	C6H4O-
93.0346	999	C6H5O-
95.0138	457	C5H3O2-
97.0296	6	C5H5O2-
97.066	4	C6H9O-
98.0011	1	C4H2O3-
99.0816	70	C6H11O-
106.006	23	C6H2O2-
107.0138	4	C6H3O2-
108.0217	429	C6H4O2-
109.0293	1	C6H5O2-
119.0138	1	C7H3O2-
121.0296	32	C7H5O2-
123.0088	57	C6H3O3-
125.0242	1	C6H5O3-
136.0167	8	C7H4O3-
137.0243	8	C7H5O3-
149.0244	1	C8H5O3-
