Mass spectrum: UK-343664; LC-ESI-QFT; MS2; CE: 30; R=17500; [M-H]-
Name: UK-343664
Name: 3-ethyl-5-[5-(4-ethylpiperazin-1-yl)sulfonyl-2-propoxyphenyl]-2-(pyridin-2-ylmethyl)-4H-pyrazolo[4,3-d]pyrimidin-7-one
Formula: C28H35N7O4S
Exact mass: 565.2471
SMILES: CCCOC1=C(C=C(C=C1)S(=O)(=O)N1CCN(CC)CC1)C1=NC2=C(CC)N(CC3=CC=CC=N3)N=C2C(=O)N1
InChI: InChI=1S/C28H35N7O4S/c1-4-17-39-24-11-10-21(40(37,38)34-15-13-33(6-3)14-16-34)18-22(24)27-30-25-23(5-2)35(32-26(25)28(36)31-27)19-20-9-7-8-12-29-20/h7-12,18H,4-6,13-17,19H2,1-3H3,(H,30,31,36)
Instrument: Q Exactive Orbitrap (Thermo Scientific)
Instrument type: LC-ESI-QFT
Ms type: MS2
Ion mode: NEGATIVE
Ionization: ESI
Fragmentation mode: HCD
Collision energy: 30
Resolution: 17500
Column name: Acquity BEH C18 1.7um, 2.1x150mm (Waters)
Retention time: 14.172 min
Base peak: 112.9857
Precursor m/z: 564.2398
Precursor type: [M-H]-
Precursor intensity: 395918.6640625
m/z	relative intensity	assigned
207.1962	45	C14H25N-
285.0633	12	C13H9N4O4-
307.1091	10	C18H15N2O3-
348.1099	56	C18H14N5O3-
377.1129	87	C19H15N5O4-
419.1601	14	C22H21N5O4-
430.1428	68	C19H22N6O4S-
522.1929	999	C25H28N7O4S-
564.2398	263	C28H34N7O4S-
