Mass spectrum: Phenolphthalin; LC-ESI-QFT; MS2; CE: 45; R=17500; [M-H]-
Name: Phenolphthalin
Name: 2-[bis(4-hydroxyphenyl)methyl]benzoic acid
Formula: C20H16O4
Exact mass: 320.1049
SMILES: OC(=O)C1=C(C=CC=C1)C(C1=CC=C(O)C=C1)C1=CC=C(O)C=C1
InChI: InChI=1S/C20H16O4/c21-15-9-5-13(6-10-15)19(14-7-11-16(22)12-8-14)17-3-1-2-4-18(17)20(23)24/h1-12,19,21-22H,(H,23,24)
Instrument: Q Exactive Orbitrap (Thermo Scientific)
Instrument type: LC-ESI-QFT
Ms type: MS2
Ion mode: NEGATIVE
Ionization: ESI
Fragmentation mode: HCD
Collision energy: 45
Resolution: 17500
Column name: Acquity BEH C18 1.7um, 2.1x150mm (Waters)
Retention time: 15.585 min
Base peak: 215.0593
Precursor m/z: 319.0976
Precursor type: [M-H]-
Precursor intensity: 16127369.37939
m/z	relative intensity	assigned
93.0346	17	C6H5O-
153.071	2	C12H9-
169.0659	1	C12H9O-
180.0582	20	C13H8O-
181.0659	19	C13H9O-
195.0449	5	C13H7O2-
196.053	12	C13H8O2-
197.0608	6	C13H9O2-
205.066	1	C15H9O-
213.0554	1	C13H9O3-
219.0818	2	C16H11O-
223.0406	2	C14H7O3-
224.0479	1	C14H8O3-
227.0871	1	C18H11-
231.0814	3	C17H11O-
232.0897	1	C17H12O-
233.0971	2	C17H13O-
243.0813	8	C18H11O-
245.0971	12	C18H13O-
247.112	2	C18H15O-
257.0973	1	C19H13O-
260.0849	1	C18H12O2-
271.077	4	C19H11O2-
272.0845	130	C19H12O2-
273.0921	999	C19H13O2-
275.108	4	C19H15O2-
