Mass spectrum: Oxfendazole; LC-ESI-QFT; MS2; CE: 60; R=17500; [M+H]+
Name: Oxfendazole
Name: methyl N-[6-(benzenesulfinyl)-1H-benzimidazol-2-yl]carbamate
Formula: C15H13N3O3S
Exact mass: 315.0678
SMILES: COC(=O)NC1=NC2=C(N1)C=CC(=C2)S(=O)C1=CC=CC=C1
InChI: InChI=1S/C15H13N3O3S/c1-21-15(19)18-14-16-12-8-7-11(9-13(12)17-14)22(20)10-5-3-2-4-6-10/h2-9H,1H3,(H2,16,17,18,19)
Instrument: Q Exactive Orbitrap (Thermo Scientific)
Instrument type: LC-ESI-QFT
Ms type: MS2
Ion mode: POSITIVE
Ionization: ESI
Fragmentation mode: HCD
Collision energy: 60
Resolution: 17500
Column name: Acquity BEH C18 1.7um, 2.1x150mm (Waters)
Retention time: 14.495 min
Base peak: 79.0211
Precursor m/z: 316.075
Precursor type: [M+H]+
Precursor intensity: 1842623.90625
m/z	relative intensity	assigned
69.0082	2	C2HN2O+
77.026	1	C5H3N+
97.0107	10	C5H5S+
103.0417	1	C7H5N+
104.0369	4	C6H4N2+
105.0447	2	C6H5N2+
106.0527	1	C6H6N2+
118.0527	7	C7H6N2+
119.0481	2	C6H5N3+
119.0604	14	C7H7N2+
125.0057	21	C6H5OS+
131.0479	35	C7H5N3+
133.0398	2	C7H5N2O+
133.0636	10	C7H7N3+
134.0474	3	C7H6N2O+
135.0429	3	C6H5N3O+
146.035	2	C7H4N3O+
146.0712	29	C8H8N3+
147.0427	21	C7H5N3O+
158.0355	2	C8H4N3O+
159.0428	584	C8H5N3O+
160.0506	3	C8H6N3O+
174.0298	10	C8H4N3O2+
175.0377	76	C8H5N3O2+
190.0067	1	C8H4N3OS+
191.0326	999	C8H5N3O3+
191.0688	65	C9H9N3O2+
193.0369	3	C12H5N2O+
198.0378	2	C12H8NS+
199.0448	8	C12H9NS+
206.0021	4	C8H4N3O2S+
207.0098	191	C8H5N3O2S+
223.0588	107	C15H11S+
224.0405	3	C13H8N2S+
225.024	2	C13H7NOS+
225.0485	2	C13H9N2S+
234.0662	4	C14H8N3O+
235.0742	7	C14H9N3O+
236.0822	1	C14H10N3O+
238.0435	4	C13H8N3S+
239.0362	14	C9H9N3O3S+
239.0505	3	C13H9N3S+
252.0232	1	C13H6N3OS+
266.0384	125	C14H8N3OS+
267.0461	131	C14H9N3OS+
284.0491	7	C14H10N3O2S+
298.0636	3	C15H12N3O2S+
299.0718	8	C15H13N3O2S+
