Mass spectrum: Atorvastatin; LC-ESI-QFT; MS2; CE: 60; R=17500; [M+H]+
Name: Atorvastatin
Name: (3R,5R)-7-[2-(4-fluorophenyl)-3-phenyl-4-(phenylcarbamoyl)-5-propan-2-ylpyrrol-1-yl]-3,5-dihydroxyheptanoic acid
Formula: C33H35FN2O5
Exact mass: 558.2530
SMILES: CC(C)C1=C(C(=O)NC2=CC=CC=C2)C(=C(N1CC[C@@H](O)C[C@@H](O)CC(O)=O)C1=CC=C(F)C=C1)C1=CC=CC=C1
InChI: InChI=1S/C33H35FN2O5/c1-21(2)31-30(33(41)35-25-11-7-4-8-12-25)29(22-9-5-3-6-10-22)32(23-13-15-24(34)16-14-23)36(31)18-17-26(37)19-27(38)20-28(39)40/h3-16,21,26-27,37-38H,17-20H2,1-2H3,(H,35,41)(H,39,40)/t26-,27-/m1/s1
Instrument: Q Exactive Orbitrap (Thermo Scientific)
Instrument type: LC-ESI-QFT
Ms type: MS2
Ion mode: POSITIVE
Ionization: ESI
Fragmentation mode: HCD
Collision energy: 60
Resolution: 17500
Column name: Acquity BEH C18 1.7um, 2.1x150mm (Waters)
Retention time: 17.818 min
Base peak: 79.0211
Precursor m/z: 559.2603
Precursor type: [M+H]+
Precursor intensity: 7186106.75
m/z	relative intensity	assigned
51.0231	1	C4H3+
53.0023	2	C3HO+
53.0386	10	C4H5+
55.018	2	C3H3O+
55.0543	20	C4H7+
57.0335	13	C3H5O+
59.0492	3	C3H7O+
61.0286	1	C2H5O2+
65.0386	6	C5H5+
67.0542	2	C5H7+
68.9971	2	C3HO2+
69.0699	5	C5H9+
71.0127	18	C3H3O2+
71.0491	15	C4H7O+
73.0284	3	C3H5O2+
77.0387	3	C6H5+
79.0542	49	C6H7+
80.0495	2	C5H6N+
81.0336	2	C5H5O+
81.07	4	C6H9+
83.0491	46	C5H7O+
89.0232	8	C3H5O3+
91.0542	11	C7H7+
92.0495	61	C6H6N+
94.0652	2	C6H8N+
95.0492	32	C6H7O+
97.0285	9	C5H5O2+
97.0648	5	C6H9O+
99.0805	1	C6H11O+
101.0598	20	C5H9O2+
103.0543	5	C8H7+
104.0495	21	C7H6N+
105.0447	13	C6H5N2+
105.07	1	C8H9+
106.0653	4	C7H8N+
107.0492	3	C7H7O+
109.0449	17	C7H6F+
113.0599	1	C6H9O2+
115.0542	38	C9H7+
117.0573	17	C8H7N+
117.0699	1	C9H9+
120.0444	30	C7H6NO+
121.0448	7	C8H6F+
122.0401	28	C7H5FN+
124.0561	1	C7H7FN+
124.0759	2	C7H10NO+
125.0599	2	C7H9O2+
128.0622	5	C10H8+
129.0699	24	C10H9+
130.065	7	C9H8N+
132.0445	4	C8H6NO+
133.0448	37	C9H6F+
134.0398	1	C8H5FN+
135.0478	10	C8H6FN+
135.0607	1	C9H8F+
136.0559	1	C8H7FN+
141.0701	3	C11H9+
142.0654	2	C10H8N+
142.0782	1	C11H10+
143.0727	1	C10H9N+
143.0852	1	C11H11+
145.0649	3	C10H9O+
146.0532	1	C10H7F+
146.06	1	C9H8NO+
147.0605	10	C10H8F+
148.0559	4	C9H7FN+
153.0698	3	C12H9+
154.0652	26	C11H8N+
155.0605	4	C10H7N2+
155.0851	5	C12H11+
156.0809	2	C11H10N+
160.0565	1	C10H7FN+
160.0759	1	C10H10NO+
165.0702	2	C13H9+
167.0731	6	C12H9N+
171.0597	1	C12H8F+
172.0556	13	C11H7FN+
172.0756	6	C11H10NO+
173.0516	1	C10H6FN2+
174.0719	3	C11H9FN+
179.0854	2	C14H11+
180.0809	6	C13H10N+
181.089	1	C13H11N+
182.0968	3	C13H12N+
183.0611	2	C13H8F+
185.0637	3	C12H8FN+
185.076	2	C13H10F+
190.0664	3	C11H9FNO+
192.0807	1	C14H10N+
193.0889	1	C14H11N+
194.0959	1	C14H12N+
196.0683	1	C14H9F+
197.0761	1	C14H10F+
198.0716	6	C13H9FN+
199.0799	1	C13H10FN+
200.0869	4	C13H11FN+
202.0777	7	C16H10+
203.0856	34	C16H11+
206.0964	1	C15H12N+
208.0683	1	C15H9F+
209.0762	43	C15H10F+
210.0836	1	C15H11F+
211.0798	2	C14H10FN+
211.0909	1	C15H12F+
212.0872	1	C14H11FN+
217.0884	4	C16H11N+
218.0963	9	C16H12N+
220.0686	3	C16H9F+
221.0762	12	C16H10F+
222.0713	7	C15H9FN+
222.084	7	C16H11F+
223.0794	3	C15H10FN+
223.0915	19	C16H12F+
224.0875	2	C15H11FN+
226.1029	2	C15H13FN+
229.0886	1	C17H11N+
229.1009	1	C18H13+
230.0965	46	C17H12N+
233.0762	98	C17H10F+
234.0838	8	C17H11F+
235.0793	82	C16H10FN+
236.0869	12	C16H11FN+
237.0722	1	C16H10FO+
237.0949	31	C16H12FN+
238.1027	97	C16H13FN+
239.0857	1	C19H11+
241.0884	2	C18H11N+
242.0969	2	C18H12N+
246.0843	3	C18H11F+
247.0791	1	C17H10FN+
247.0917	3	C18H12F+
248.0872	138	C17H11FN+
249.0949	178	C17H12FN+
250.1027	999	C17H13FN+
251.1106	5	C17H14FN+
252.1184	24	C17H15FN+
256.1119	2	C19H14N+
259.0922	13	C19H12F+
260.0863	5	C18H11FN+
260.1004	1	C19H13F+
261.0947	43	C18H12FN+
261.1065	2	C19H14F+
262.1027	86	C18H13FN+
263.1103	11	C18H14FN+
264.0821	48	C17H11FNO+
264.1183	45	C18H15FN+
271.0927	1	C20H12F+
272.0862	1	C19H11FN+
274.1027	38	C19H13FN+
275.0738	2	C18H10FNO+
275.1106	19	C19H14FN+
276.0827	44	C18H11FNO+
276.1183	414	C19H15FN+
277.1262	25	C19H16FN+
278.0976	5	C18H13FNO+
278.1338	11	C19H17FN+
280.1494	1	C19H19FN+
281.0857	1	C17H12FNO2+
285.1083	2	C21H14F+
286.1026	2	C20H13FN+
287.1109	7	C20H14FN+
288.1185	27	C20H15FN+
289.1264	11	C20H16FN+
290.1342	31	C20H17FN+
291.105	3	C19H14FNO+
292.1497	32	C20H19FN+
298.1027	1	C21H13FN+
300.1184	14	C21H15FN+
301.1258	4	C21H16FN+
302.0986	11	C20H13FNO+
302.1341	60	C21H17FN+
303.1419	11	C21H18FN+
304.1131	4	C20H15FNO+
304.1489	3	C21H19FN+
305.1219	1	C20H16FNO+
306.1287	19	C20H17FNO+
314.1346	3	C22H17FN+
316.1134	1	C21H15FNO+
316.1495	13	C22H19FN+
318.1296	6	C21H17FNO+
318.1646	11	C22H21FN+
320.1091	9	C20H15FNO2+
320.1448	7	C21H19FNO+
326.1345	1	C23H17FN+
328.1133	1	C22H15FNO+
336.1775	1	C22H23FNO+
342.1287	1	C23H17FNO+
344.1445	3	C23H19FNO+
362.1552	34	C23H21FNO2+
