Mass spectrum: Haloxyfop; LC-ESI-QFT; MS2; CE: 45; R=17500; [M+H]+
Name: Haloxyfop
Name: 2-[4-[3-chloro-5-(trifluoromethyl)pyridin-2-yl]oxyphenoxy]propanoic acid
Formula: C15H11ClF3NO4
Exact mass: 361.0329
SMILES: CC(OC1=CC=C(OC2=NC=C(C=C2Cl)C(F)(F)F)C=C1)C(O)=O
InChI: InChI=1S/C15H11ClF3NO4/c1-8(14(21)22)23-10-2-4-11(5-3-10)24-13-12(16)6-9(7-20-13)15(17,18)19/h2-8H,1H3,(H,21,22)
Instrument: Q Exactive Orbitrap (Thermo Scientific)
Instrument type: LC-ESI-QFT
Ms type: MS2
Ion mode: POSITIVE
Ionization: ESI
Fragmentation mode: HCD
Collision energy: 45
Resolution: 17500
Column name: Acquity BEH C18 1.7um, 2.1x150mm (Waters)
Retention time: 18.650 min
Base peak: 79.0211
Precursor m/z: 362.0401
Precursor type: [M+H]+
Precursor intensity: 14289780.03125
m/z	relative intensity	assigned
55.0179	5	C3H3O+
65.0386	64	C5H5+
73.0284	4	C3H5O2+
91.0543	999	C7H7+
92.0256	5	C6H4O+
92.0621	4	C7H8+
93.0334	11	C6H5O+
98.9842	762	CH4ClO3+
99.9883	4	C2H3ClF2+
109.0049	5	C3H6ClO2+
109.0649	19	C7H9O+
111.0441	24	C6H7O2+
116.9948	13	CH6ClO4+
119.0492	134	C8H7O+
119.0603	13	CH10FNO4+
120.0571	18	C8H8O+
121.0285	111	C7H5O2+
121.065	8	C8H9O+
127.0155	121	C3H8ClO3+
128.0188	26	C4H7ClF2+
155.0468	11	C5H12ClO3+
156.0506	5	C6H11ClF2+
170.9719	60	C6H2ClNO3+
172.9689	116	C3H2ClF2NO3+
181.9978	7	C6H4ClF3N+
197.9928	21	C6H4ClF3NO+
220.0137	12	C9H6ClF3N+
226.0472	6	C11H7F3NO+
232.0141	16	C10H6ClF3N+
235.0598	3	C13H8F3N+
246.0315	7	C13H9ClNO2+
252.0631	14	C13H9F3NO+
254.0417	5	C15H6F2NO+
260.0447	35	C12H10ClF3N+
261.0163	26	C11H7ClF3NO+
270.0297	12	C13H8ClF3N+
272.0086	276	C12H6ClF3NO+
288.0035	215	C12H6ClF3NO2+
288.0399	273	C13H10ClF3NO+
289.0114	127	C12H7ClF3NO2+
290.0191	33	C12H8ClF3NO2+
298.0244	10	C14H8ClF3NO+
316.0349	210	C14H10ClF3NO2+
