Mass spectrum: 3-Hydroxy-2-naphthoic o-anisidide; LC-ESI-QFT; MS2; CE: 75; R=17500; [M-H]-
Name: 3-Hydroxy-2-naphthoic o-anisidide
Name: 3-Hydroxy-2'-methoxy-2-naphthanilide
Name: 3-hydroxy-N-(2-methoxyphenyl)naphthalene-2-carboxamide
Formula: C18H15NO3
Exact mass: 293.1052
SMILES: COC1=CC=CC=C1NC(=O)C1=CC2=C(C=CC=C2)C=C1O
InChI: InChI=1S/C18H15NO3/c1-22-17-9-5-4-8-15(17)19-18(21)14-10-12-6-2-3-7-13(12)11-16(14)20/h2-11,20H,1H3,(H,19,21)
Instrument: Q Exactive Orbitrap (Thermo Scientific)
Instrument type: LC-ESI-QFT
Ms type: MS2
Ion mode: NEGATIVE
Ionization: ESI
Fragmentation mode: HCD
Collision energy: 75
Resolution: 17500
Column name: Acquity BEH C18 1.7um, 2.1x150mm (Waters)
Retention time: 18.323 min
Base peak: 292.0981
Precursor m/z: 292.0979
Precursor type: [M-H]-
Precursor intensity: 56697185.3125
m/z	relative intensity	assigned
78.0349	2	C5H4N-
90.0351	1	C6H4N-
91.019	2	C6H3O-
93.0345	3	C6H5O-
107.0377	999	C6H5NO-
108.0217	4	C6H4O2-
114.0476	1	C9H6-
115.0553	117	C9H7-
117.0346	5	C8H5O-
118.0299	5	C7H4NO-
122.0611	1	C7H8NO-
130.0424	13	C9H6O-
134.0248	918	C7H4NO2-
141.071	3	C11H9-
142.0426	2	C10H6O-
143.0502	385	C10H7O-
145.0295	4	C9H5O2-
158.0373	1	C10H6O2-
159.0451	6	C10H7O2-
168.0454	28	C11H6NO-
184.0403	1	C11H6NO2-
205.0658	1	C15H9O-
216.0813	2	C16H10N-
231.0686	3	C16H9NO-
232.0768	12	C16H10NO-
233.0607	13	C16H9O2-
247.0637	1	C16H9NO2-
248.0718	5	C16H10NO2-
260.0714	6	C17H10NO2-
276.0666	43	C17H10NO3-
