Mass spectrum: PharmaGSID_48521; LC-ESI-QFT; MS2; CE: 90; R=17500; [M+H]+
Name: PharmaGSID_48521
Name: (5S)-5-butyl-9-[1-(4,6-dimethylpyrimidine-5-carbonyl)-4-methylpiperidin-4-yl]-3-(oxan-4-ylmethyl)-1-oxa-3,9-diazaspiro[5.5]undecan-2-one
Formula: C31H49N5O4
Exact mass: 555.3785
SMILES: CCCC[C@H]1CN(CC2CCOCC2)C(=O)OC11CCN(CC1)C1(C)CCN(CC1)C(=O)C1=C(C)N=CN=C1C
InChI: InChI=1S/C31H49N5O4/c1-5-6-7-26-21-35(20-25-8-18-39-19-9-25)29(38)40-31(26)12-16-36(17-13-31)30(4)10-14-34(15-11-30)28(37)27-23(2)32-22-33-24(27)3/h22,25-26H,5-21H2,1-4H3/t26-/m0/s1
Instrument: Q Exactive Orbitrap (Thermo Scientific)
Instrument type: LC-ESI-QFT
Ms type: MS2
Ion mode: POSITIVE
Ionization: ESI
Fragmentation mode: HCD
Collision energy: 90
Resolution: 17500
Column name: Acquity BEH C18 1.7um, 2.1x150mm (Waters)
Retention time: 13.096 min
Base peak: 79.0211
Precursor m/z: 556.3857
Precursor type: [M+H]+
Precursor intensity: 10688043
m/z	relative intensity	assigned
53.0022	34	C3HO+
53.0386	69	C4H5+
53.9974	5	C2NO+
55.0179	14	C3H3O+
55.0542	97	C4H7+
56.0495	46	C3H6N+
57.0335	14	C3H5O+
57.0699	8	C4H9+
58.0651	10	C3H8N+
65.0386	23	C5H5+
66.0338	999	C4H4N+
67.0178	80	C4H3O+
67.0542	292	C5H7+
68.0494	34	C4H6N+
69.0698	284	C5H9+
70.0651	120	C4H8N+
71.0491	11	C4H7O+
71.0855	2	C5H11+
74.0965	1	C4H12N+
77.0385	2	C6H5+
79.0542	248	C6H7+
80.0495	163	C5H6N+
81.0699	223	C6H9+
82.0651	186	C5H8N+
83.073	26	C5H9N+
83.0855	19	C6H11+
84.0808	73	C5H10N+
91.0542	8	C7H7+
93.0699	12	C7H9+
94.0651	28	C6H8N+
95.0492	24	C6H7O+
95.0729	32	C6H9N+
95.0855	27	C7H11+
96.0808	33	C6H10N+
97.0648	215	C6H9O+
98.0964	26	C6H12N+
99.0805	58	C6H11O+
100.0758	2	C5H10NO+
105.0447	10	C6H5N2+
105.0698	1	C8H9+
107.0604	28	C6H7N2+
107.0857	2	C8H11+
108.0443	15	C6H6NO+
108.0807	37	C7H10N+
109.0762	5	C6H9N2+
109.0886	20	C7H11N+
109.1014	1	C8H13+
110.06	4	C6H8NO+
110.0964	61	C7H12N+
112.1121	55	C7H14N+
122.0964	7	C8H12N+
123.1043	2	C8H13N+
124.112	12	C8H14N+
125.0709	46	C6H9N2O+
128.107	72	C7H14NO+
134.0712	1	C7H8N3+
135.0553	454	C7H7N2O+
139.087	2	C7H11N2O+
140.1432	1	C9H18N+
147.0554	1	C8H7N2O+
150.1276	2	C10H16N+
152.0822	2	C7H10N3O+
152.1433	2	C10H18N+
154.159	14	C10H20N+
164.1432	1	C11H18N+
166.159	4	C11H20N+
337.2428	1	C17H31N5O2+
