Mass spectrum: SSR 240612; LC-ESI-QFT; MS2; CE: 75; R=17500; [M-H]-
Name: SSR 240612
Name: Ssr-240612 free base
Name: (2R)-2-[[(3R)-3-(1,3-benzodioxol-5-yl)-3-[(6-methoxynaphthalen-2-yl)sulfonylamino]propanoyl]amino]-3-[4-[[(2S,6R)-2,6-dimethylpiperidin-1-yl]methyl]phenyl]-N-methyl-N-propan-2-ylpropanamide
Formula: C42H52N4O7S
Exact mass: 756.3557
SMILES: COc1ccc2cc(S(=O)(=O)N[C@H](CC(=O)N[C@H](Cc3ccc(CN4[C@@H](C)CCC[C@H]4C)cc3)C(=O)N(C)C(C)C)c3ccc4c(c3)OCO4)ccc2c1
InChI: InChI=1S/C42H52N4O7S/c1-27(2)45(5)42(48)38(20-30-10-12-31(13-11-30)25-46-28(3)8-7-9-29(46)4)43-41(47)24-37(34-16-19-39-40(23-34)53-26-52-39)44-54(49,50)36-18-15-32-21-35(51-6)17-14-33(32)22-36/h10-19,21-23,27-29,37-38,44H,7-9,20,24-26H2,1-6H3,(H,43,47)/t28-,29+,37-,38-/m1/s1
Instrument: Q Exactive Orbitrap (Thermo Scientific)
Instrument type: LC-ESI-QFT
Ms type: MS2
Ion mode: NEGATIVE
Ionization: ESI
Fragmentation mode: HCD
Collision energy: 75
Resolution: 17500
Column name: Acquity BEH C18 1.7um, 2.1x150mm (Waters)
Retention time: 15.691 min
Base peak: 356.1304
Precursor m/z: 755.3484
Precursor type: [M-H]-
Precursor intensity: 2217378.4375
m/z	relative intensity	assigned
58.0298	364	C2H4NO-
63.9625	84	O2S-
68.9982	21	C3HO2-
83.0502	7	C5H7O-
96.0092	999	C4H2NO2-
97.017	342	C4H3NO2-
100.0768	12	C5H10NO-
108.0819	99	C7H10N-
110.0248	40	C5H4NO2-
110.0978	14	C7H12N-
121.0659	16	C8H9O-
129.0066	18	C4H3NO4-
132.0454	14	C8H6NO-
143.05	40	C10H7O-
145.0295	75	C9H5O2-
157.0534	222	C10H7NO-
158.0372	113	C10H6O2-
173.0243	9	C10H5O3-
173.0845	8	C11H11NO-
201.0796	17	C12H11NO2-
233.0697	9	C12H11NO4-
313.1919	15	C19H25N2O2-
