Mass spectrum: C.I. Solvent Yellow 14; LC-ESI-QFT; MS2; CE: 60; R=17500; [M+H]+
Name: C.I. Solvent Yellow 14
Name: 1-phenyldiazenylnaphthalen-2-ol
Formula: C16H12N2O
Exact mass: 248.0950
SMILES: OC1=CC=C2C=CC=CC2=C1N=NC1=CC=CC=C1
InChI: InChI=1S/C16H12N2O/c19-15-11-10-12-6-4-5-9-14(12)16(15)18-17-13-7-2-1-3-8-13/h1-11,19H
Instrument: Q Exactive Orbitrap (Thermo Scientific)
Instrument type: LC-ESI-QFT
Ms type: MS2
Ion mode: POSITIVE
Ionization: ESI
Fragmentation mode: HCD
Collision energy: 60
Resolution: 17500
Column name: Acquity BEH C18 1.7um, 2.1x150mm (Waters)
Retention time: 20.798 min
Base peak: 79.0211
Precursor m/z: 249.1022
Precursor type: [M+H]+
Precursor intensity: 2209675.09375
m/z	relative intensity	assigned
65.0386	16	C5H5+
66.0464	14	C5H6+
80.0495	16	C5H6N+
91.0544	5	C7H7+
92.0495	39	C6H6N+
93.0573	999	C6H7N+
95.0491	7	C6H7O+
101.0387	3	C8H5+
115.0543	9	C9H7+
119.0491	7	C8H7O+
128.0495	446	C9H6N+
129.0448	18	C8H5N2+
146.0601	68	C9H8NO+
156.0443	75	C10H6NO+
160.0757	11	C10H10NO+
167.073	4	C12H9N+
168.0808	7	C12H10N+
170.06	6	C11H8NO+
180.0807	10	C13H10N+
194.0968	8	C14H12N+
203.0733	4	C15H9N+
204.0808	73	C15H10N+
205.0884	7	C15H11N+
206.0838	11	C14H10N2+
211.0868	3	C13H11N2O+
219.0913	12	C15H11N2+
220.0996	11	C15H12N2+
221.1074	23	C15H13N2+
230.0838	6	C16H10N2+
231.0917	202	C16H11N2+
232.0764	57	C16H10NO+
232.0995	209	C16H12N2+
233.0837	39	C16H11NO+
234.0787	28	C15H10N2O+
247.0869	13	C16H11N2O+
248.0943	32	C16H12N2O+
249.1026	16	C16H13N2O+
