Mass spectrum: Ethiofencarb; LC-ESI-QFT; MS2; CE: 30; R=17500; [M+H]+
Name: Ethiofencarb
Name: [2-(ethylsulfanylmethyl)phenyl] N-methylcarbamate
Formula: C11H15NO2S
Exact mass: 225.0823
SMILES: CCSCC1=C(OC(=O)NC)C=CC=C1
InChI: InChI=1S/C11H15NO2S/c1-3-15-8-9-6-4-5-7-10(9)14-11(13)12-2/h4-7H,3,8H2,1-2H3,(H,12,13)
Instrument: Q Exactive Orbitrap (Thermo Scientific)
Instrument type: LC-ESI-QFT
Ms type: MS2
Ion mode: POSITIVE
Ionization: ESI
Fragmentation mode: HCD
Collision energy: 30
Resolution: 17500
Column name: Acquity BEH C18 1.7um, 2.1x150mm (Waters)
Retention time: 15.974 min
Base peak: 79.0212
Precursor m/z: 226.0896
Precursor type: [M+H]+
Precursor intensity: 3019196.875
m/z	relative intensity	assigned
100.0506	42	C5H8O2+
107.0489	64	C7H7O+
120.0806	57	C8H10N+
138.0123	67	C7H6OS+
147.9969	61	C8H4OS+
156.023	66	C7H8O2S+
166.0075	999	C8H6O2S+
180.0231	213	C9H8O2S+
