Mass spectrum: Chlordimeform; LC-ESI-QFT; MS2; CE: 60; R=17500; [M+H]+
Name: Chlordimeform
Name: N'-(4-chloro-2-methylphenyl)-N,N-dimethylmethanimidamide
Formula: C10H13ClN2
Exact mass: 196.0767
SMILES: CN(C)C=NC1=CC=C(Cl)C=C1C
InChI: InChI=1S/C10H13ClN2/c1-8-6-9(11)4-5-10(8)12-7-13(2)3/h4-7H,1-3H3
Instrument: Q Exactive Orbitrap (Thermo Scientific)
Instrument type: LC-ESI-QFT
Ms type: MS2
Ion mode: POSITIVE
Ionization: ESI
Fragmentation mode: HCD
Collision energy: 60
Resolution: 17500
Column name: Acquity BEH C18 1.7um, 2.1x150mm (Waters)
Retention time: 11.347 min
Base peak: 79.0211
Precursor m/z: 197.084
Precursor type: [M+H]+
Precursor intensity: 41188479.9375
m/z	relative intensity	assigned
58.0652	49	C3H8N+
89.0386	4	C7H5+
92.0495	2	C6H6N+
104.0619	1	C8H8+
116.0496	3	C8H6N+
117.0573	999	C8H7N+
118.0651	4	C8H8N+
120.0447	1	C4H9ClN2+
120.0807	1	C8H10N+
125.0153	63	C7H6Cl+
134.06	22	C5H11ClN2+
134.0973	1	C9H12N+
137.0119	2	C9HN2+
141.034	2	C7H8ClN+
144.0556	20	C7H11ClN+
147.0916	5	C9H11N2+
152.0262	187	C8H7ClN+
153.0214	4	C7H6ClN2+
154.0418	1	C8H9ClN+
161.1076	2	C10H13N2+
197.0841	494	C10H14ClN2+
