Mass spectrum: Methyldopa; LC-ESI-QFT; MS2; CE: 75; R=17500; [M-H]-
Name: Methyldopa
Name: (2S)-2-amino-3-(3,4-dihydroxyphenyl)-2-methylpropanoic acid
Formula: C10H13NO4
Exact mass: 211.0845
SMILES: C[C@](N)(Cc1ccc(O)c(O)c1)C(=O)O
InChI: InChI=1S/C10H13NO4/c1-10(11,9(14)15)5-6-2-3-7(12)8(13)4-6/h2-4,12-13H,5,11H2,1H3,(H,14,15)/t10-/m0/s1
Instrument: Q Exactive Orbitrap (Thermo Scientific)
Instrument type: LC-ESI-QFT
Ms type: MS2
Ion mode: NEGATIVE
Ionization: ESI
Fragmentation mode: HCD
Collision energy: 75
Resolution: 17500
Column name: Acquity BEH C18 1.7um, 2.1x150mm (Waters)
Retention time: 3.618 min
Base peak: 198.9363
Precursor m/z: 210.0772
Precursor type: [M-H]-
Precursor intensity: 822819.4648437
m/z	relative intensity	assigned
86.0248	211	C3H4NO2-
93.0347	46	C6H5O-
95.0502	43	C6H7O-
106.0425	39	C7H6O-
108.0218	94	C6H4O2-
109.0295	491	C6H5O2-
121.0295	48	C7H5O2-
121.0661	47	C8H9O-
122.0374	236	C7H6O2-
123.0452	225	C7H7O2-
131.0502	25	C9H7O-
133.0294	42	C8H5O2-
137.0242	33	C7H5O3-
147.0453	65	C9H7O2-
148.0531	396	C9H8O2-
149.0608	999	C9H9O2-
154.0273	44	C7H6O4-
