Mass spectrum: Sulfisoxazole; LC-ESI-QFT; MS2; CE: 15; R=17500; [M-H]-
Name: Sulfisoxazole
Name: 4-amino-N-(3,4-dimethyl-1,2-oxazol-5-yl)benzenesulfonamide
Formula: C11H13N3O3S
Exact mass: 267.0678
SMILES: CC1=NOC(NS(=O)(=O)C2=CC=C(N)C=C2)=C1C
InChI: InChI=1S/C11H13N3O3S/c1-7-8(2)13-17-11(7)14-18(15,16)10-5-3-9(12)4-6-10/h3-6,14H,12H2,1-2H3
Instrument: Q Exactive Orbitrap (Thermo Scientific)
Instrument type: LC-ESI-QFT
Ms type: MS2
Ion mode: NEGATIVE
Ionization: ESI
Fragmentation mode: HCD
Collision energy: 15
Resolution: 17500
Column name: Acquity BEH C18 1.7um, 2.1x150mm (Waters)
Retention time: 12.443 min
Base peak: 266.0605
Precursor m/z: 266.0605
Precursor type: [M-H]-
Precursor intensity: 12298392.89063
m/z	relative intensity	assigned
63.9623	3	O2S-
66.0349	11	C4H4N-
77.9656	2	NO2S-
78.9733	1	HNO2S-
79.9573	1	O3S-
82.0298	1	C4H4NO-
92.0505	1	C6H6N-
105.9605	1	CNO3S-
107.0377	3	C6H5NO-
108.0456	2	C6H6NO-
109.0407	11	C5H5N2O-
110.0487	2	C5H6N2O-
133.0406	1	C7H5N2O-
144.0694	2	C9H8N2-
155.0046	11	C6H5NO2S-
156.0125	89	C6H6NO2S-
171.0234	326	C6H7N2O2S-
183.0232	3	C7H7N2O2S-
197.0028	1	C7H5N2O3S-
239.0496	217	C10H11N2O3S-
248.0496	1	C11H10N3O2S-
266.0605	999	C11H12N3O3S-
