Mass spectrum: CI-1044; LC-ESI-QFT; MS2; CE: 60; R=17500; [M+H]+
Name: CI-1044
Name: N-[(11R)-6-amino-12-oxo-9-phenyl-1,10-diazatricyclo[6.4.1.04,13]trideca-4(13),5,7,9-tetraen-11-yl]pyridine-3-carboxamide
Formula: C23H19N5O2
Exact mass: 397.1539
SMILES: NC1=CC2=C3N(CCC3=C1)C(=O)[C@H](NC(=O)C1=CC=CN=C1)N=C2C1=CC=CC=C1
InChI: InChI=1S/C23H19N5O2/c24-17-11-15-8-10-28-20(15)18(12-17)19(14-5-2-1-3-6-14)26-21(23(28)30)27-22(29)16-7-4-9-25-13-16/h1-7,9,11-13,21H,8,10,24H2,(H,27,29)/t21-/m0/s1
Instrument: Q Exactive Orbitrap (Thermo Scientific)
Instrument type: LC-ESI-QFT
Ms type: MS2
Ion mode: POSITIVE
Ionization: ESI
Fragmentation mode: HCD
Collision energy: 60
Resolution: 17500
Column name: Acquity BEH C18 1.7um, 2.1x150mm (Waters)
Retention time: 12.998 min
Base peak: 79.0211
Precursor m/z: 398.1612
Precursor type: [M+H]+
Precursor intensity: 7415593.875
m/z	relative intensity	assigned
78.0339	5	C5H4N+
91.0542	1	C7H7+
96.0445	2	C5H6NO+
104.0495	1	C7H6N+
106.0288	8	C6H4NO+
116.0496	1	C8H6N+
118.0651	2	C8H8N+
128.0495	2	C9H6N+
131.0604	2	C8H7N2+
132.0682	3	C8H8N2+
143.0603	1	C9H7N2+
145.0761	54	C9H9N2+
155.0603	1	C10H7N2+
170.0712	5	C10H8N3+
173.071	10	C10H9N2O+
204.081	2	C15H10N+
221.1072	4	C15H13N2+
231.0915	6	C16H11N2+
232.1	2	C16H12N2+
233.0945	2	C15H11N3+
246.1023	2	C16H12N3+
247.1108	5	C16H13N3+
248.1182	999	C16H14N3+
257.0946	1	C17H11N3+
258.1025	2	C17H12N3+
274.0975	1	C17H12N3O+
275.1054	1	C17H13N3O+
276.1132	14	C17H14N3O+
