Mass spectrum: Isoxathion; LC-ESI-QFT; MS2; CE: 60; R=17500; [M+H]+
Name: Isoxathion
Name: diethoxy-[(5-phenyl-1,2-oxazol-3-yl)oxy]-sulfanylidene-lambda5-phosphane
Formula: C13H16NO4PS
Exact mass: 313.0538
SMILES: CCOP(=S)(OCC)OC1=NOC(=C1)C1=CC=CC=C1
InChI: InChI=1S/C13H16NO4PS/c1-3-15-19(20,16-4-2)18-13-10-12(17-14-13)11-8-6-5-7-9-11/h5-10H,3-4H2,1-2H3
Instrument: Q Exactive Orbitrap (Thermo Scientific)
Instrument type: LC-ESI-QFT
Ms type: MS2
Ion mode: POSITIVE
Ionization: ESI
Fragmentation mode: HCD
Collision energy: 60
Resolution: 17500
Column name: Acquity BEH C18 1.7um, 2.1x150mm (Waters)
Retention time: 18.742 min
Base peak: 79.0212
Precursor m/z: 314.061
Precursor type: [M+H]+
Precursor intensity: 16452049.32813
m/z	relative intensity	assigned
51.0229	1	C4H3+
53.0386	47	C4H5+
55.0179	1	C3H3O+
58.9949	2	C2H3S+
61.0106	39	C2H5S+
64.9787	163	H2O2P+
68.0131	6	C3H2NO+
68.997	1	C3HO2+
74.0963	1	C4H12N+
77.0384	18	C6H5+
78.9944	5	CH4O2P+
79.0542	12	C6H7+
81.0335	4	C5H5O+
81.9814	3	H3O3P+
82.9893	7	H4O3P+
89.0385	5	C7H5+
91.0542	87	C7H7+
93.01	106	C2H6O2P+
94.0412	6	C6H6O+
95.0492	151	C6H7O+
96.9508	17	H2O2PS+
98.9665	12	H4O2PS+
98.9842	147	H4O4P+
104.0494	1	C7H6N+
105.0335	999	C7H5O+
105.0444	60	H11NO3S+
106.0651	20	C7H8N+
107.0492	2	C7H7O+
107.9845	7	CH3NO3P+
109.0049	27	C2H6O3P+
109.0104	7	C6H5S+
112.9453	1	H2O3PS+
112.9999	7	CH6O4P+
113.9536	371	H3O3PS+
114.9613	797	H4O3PS+
116.0495	54	C8H6N+
116.9652	2	C3HO3S+
117.0573	12	C8H7N+
118.0651	2	C8H8N+
121.0106	1	C7H5S+
121.0284	1	C7H5O2+
123.0263	20	C7H7S+
123.9794	18	CH3NO4P+
125.99	1	C2H7O2PS+
128.977	19	CH6O3PS+
130.9563	296	H4O4PS+
131.9639	3	H5O4PS+
132.0568	1	C9H8O+
132.9719	9	H6O4PS+
133.0108	6	C4H8NPS+
133.0523	3	C8H7NO+
134.0185	1	C8H6S+
134.06	10	C8H8NO+
135.0264	10	C8H7S+
137.0056	28	C7H5OS+
140.9769	3	C2H6O3PS+
141.9849	10	C2H7O3PS+
142.9927	26	C2H8O3PS+
144.0445	1	C9H6NO+
144.9717	2	CH6O4PS+
145.0523	18	C9H7NO+
145.9797	4	CH7O4PS+
146.0601	15	C9H8NO+
146.9875	6	CH8O4PS+
148.0214	3	C8H6NS+
148.9667	5	C6NO2P+
149.0053	3	C8H5OS+
150.0372	3	C8H8NS+
151.0212	31	C8H7OS+
159.0138	1	C9H5NS+
160.0216	15	C9H6NS+
161.0169	2	C6H10OPS+
162.055	80	C9H8NO2+
162.9823	3	C7H2NO2P+
176.0166	2	C9H6NOS+
178.0321	81	C9H8NOS+
190.086	3	C11H12NO2+
206.0639	1	C11H12NOS+
216.9721	1	C7H6O4PS+
234.9833	1	C13H2NO2P+
