Mass spectrum: Gemfibrozil; LC-ESI-QFT; MS2; CE: 60; R=17500; [M-H]-
Name: Gemfibrozil
Formula: C15H22O3
Exact mass: 250.1569
SMILES: CC1=CC(OCCCC(C)(C)C(O)=O)=C(C)C=C1
InChI: InChI=1S/C15H22O3/c1-11-6-7-12(2)13(10-11)18-9-5-8-15(3,4)14(16)17/h6-7,10H,5,8-9H2,1-4H3,(H,16,17)
Instrument: Q Exactive Orbitrap (Thermo Scientific)
Instrument type: LC-ESI-QFT
Ms type: MS2
Ion mode: NEGATIVE
Ionization: ESI
Fragmentation mode: HCD
Collision energy: 60
Resolution: 17500
Column name: Acquity BEH C18 1.7um, 2.1x150mm (Waters)
Retention time: 19.739 min
Base peak: 249.1496
Precursor m/z: 249.1496
Precursor type: [M-H]-
Precursor intensity: 90536977.00781
m/z	relative intensity	assigned
53.0032	4	C3HO-
65.0034	3	C4HO-
67.019	7	C4H3O-
68.9982	24	C3HO2-
69.0347	15	C4H5O-
70.0061	12	C3H2O2-
71.0138	16	C3H3O2-
72.9932	10	C2HO3-
78.0112	4	C5H2O-
79.0189	17	C5H3O-
79.9904	9	C4O2-
80.9983	6	C4HO2-
82.006	59	C4H2O2-
83.014	3	C4H3O2-
86.001	3	C3H2O3-
91.019	155	C6H3O-
92.0268	323	C6H4O-
93.0346	999	C6H5O-
95.0139	862	C5H3O2-
97.0296	10	C5H5O2-
98.0011	3	C4H2O3-
106.006	51	C6H2O2-
107.0139	6	C6H3O2-
108.0217	794	C6H4O2-
109.0295	3	C6H5O2-
119.0138	39	C7H3O2-
121.0295	111	C7H5O2-
123.0088	109	C6H3O3-
125.0973	5	C8H13O-
127.1128	181	C8H15O-
136.0165	622	C7H4O3-
137.0244	199	C7H5O3-
149.0243	6	C8H5O3-
249.1496	92	C15H21O3-
