Mass spectrum: Besonprodil; LC-ESI-QFT; MS2; CE: 45; R=17500; [M+H]+
Name: Besonprodil
Name: 6-[2-[4-[(4-fluorophenyl)methyl]piperidin-1-yl]ethylsulfinyl]-3H-1,3-benzoxazol-2-one
Formula: C21H23FN2O3S
Exact mass: 402.1413
SMILES: FC1=CC=C(CC2CCN(CCS(=O)C3=CC=C4NC(=O)OC4=C3)CC2)C=C1
InChI: InChI=1S/C21H23FN2O3S/c22-17-3-1-15(2-4-17)13-16-7-9-24(10-8-16)11-12-28(26)18-5-6-19-20(14-18)27-21(25)23-19/h1-6,14,16H,7-13H2,(H,23,25)
Instrument: Q Exactive Orbitrap (Thermo Scientific)
Instrument type: LC-ESI-QFT
Ms type: MS2
Ion mode: POSITIVE
Ionization: ESI
Fragmentation mode: HCD
Collision energy: 45
Resolution: 17500
Column name: Acquity BEH C18 1.7um, 2.1x150mm (Waters)
Retention time: 13.242 min
Base peak: 79.0211
Precursor m/z: 403.1486
Precursor type: [M+H]+
Precursor intensity: 9888760
m/z	relative intensity	assigned
55.0543	1	C4H7+
56.0495	37	C3H6N+
57.0573	2	C3H7N+
58.0651	46	C3H8N+
67.0541	3	C5H7+
68.0494	18	C4H6N+
69.0573	429	C4H7N+
70.0651	29	C4H8N+
72.0808	4	C4H10N+
81.0699	1	C6H9+
82.0651	35	C5H8N+
83.073	3	C5H9N+
84.0808	65	C5H10N+
95.073	1	C6H9N+
96.0807	14	C6H10N+
97.0886	87	C6H11N+
98.0965	1	C6H12N+
108.0807	1	C7H10N+
109.0448	72	C7H6F+
110.0965	15	C7H12N+
111.1042	8	C7H13N+
112.1121	13	C7H14N+
120.0445	1	C7H6NO+
123.0603	2	C8H8F+
124.1121	3	C8H14N+
128.0619	1	C10H8+
135.0605	22	C9H8F+
136.0394	28	C7H6NO2+
136.0682	4	C9H9F+
147.0605	5	C10H8F+
148.0682	33	C10H9F+
149.0761	10	C10H10F+
161.0759	1	C11H10F+
163.0917	9	C11H12F+
165.9957	6	C7H4NO2S+
180.0113	21	C8H6NO2S+
181.9907	1	C7H4NO3S+
192.1183	39	C12H15FN+
193.1262	66	C12H16FN+
194.1338	1	C12H17FN+
206.134	367	C13H17FN+
220.1496	999	C14H19FN+
236.1442	5	C11H24O3S+
238.1598	4	C14H21FNO+
