Mass spectrum: Fluometuron; LC-ESI-QFT; MS2; CE: 30; R=17500; [M-H]-
Name: Fluometuron
Name: 1,1-dimethyl-3-[3-(trifluoromethyl)phenyl]urea
Formula: C10H11F3N2O
Exact mass: 232.0823
SMILES: CN(C)C(=O)NC1=CC=CC(=C1)C(F)(F)F
InChI: InChI=1S/C10H11F3N2O/c1-15(2)9(16)14-8-5-3-4-7(6-8)10(11,12)13/h3-6H,1-2H3,(H,14,16)
Instrument: Q Exactive Orbitrap (Thermo Scientific)
Instrument type: LC-ESI-QFT
Ms type: MS2
Ion mode: NEGATIVE
Ionization: ESI
Fragmentation mode: HCD
Collision energy: 30
Resolution: 17500
Column name: Acquity BEH C18 1.7um, 2.1x150mm (Waters)
Retention time: 16.063 min
Base peak: 221.0818
Precursor m/z: 231.0751
Precursor type: [M-H]-
Precursor intensity: 16995571.0127
m/z	relative intensity	assigned
142.0475	3	C7H6F2N-
154.0474	4	C8H6F2N-
160.038	59	C7H5F3N-
166.011	22	C8H2F2NO-
171.0564	1	C10H7N2O-
186.0173	538	C8H3F3NO-
188.033	3	C8H5F3NO-
191.0629	3	C10H8FN2O-
211.0693	5	C10H9F2N2O-
215.044	1	C9H6F3N2O-
231.0751	999	C10H10F3N2O-
