Mass spectrum: 2-Methoxy-5-methylaniline; LC-ESI-QFT; MS2; CE: 75; R=17500; [M+H]+
Name: 2-Methoxy-5-methylaniline
Formula: C8H11NO
Exact mass: 137.0841
SMILES: COC1=CC=C(C)C=C1N
InChI: InChI=1S/C8H11NO/c1-6-3-4-8(10-2)7(9)5-6/h3-5H,9H2,1-2H3
Instrument: Q Exactive Orbitrap (Thermo Scientific)
Instrument type: LC-ESI-QFT
Ms type: MS2
Ion mode: POSITIVE
Ionization: ESI
Fragmentation mode: HCD
Collision energy: 75
Resolution: 17500
Column name: Acquity BEH C18 1.7um, 2.1x150mm (Waters)
Retention time: 9.930 min
Base peak: 79.0211
Precursor m/z: 138.0913
Precursor type: [M+H]+
Precursor intensity: 16689814.53125
m/z	relative intensity	assigned
53.0386	9	C4H5+
55.0178	1	C3H3O+
65.0385	1	C5H5+
66.0463	1	C5H6+
67.0416	2	C4H5N+
77.0384	4	C6H5+
78.0464	98	C6H6+
79.0542	96	C6H7+
80.0494	16	C5H6N+
80.062	1	C6H8+
86.0035	1	C6N+
89.0385	1	C7H5+
91.0416	1	C6H5N+
91.0543	2	C7H7+
93.0573	2	C6H7N+
93.0701	1	C7H9+
94.0651	46	C6H8N+
95.0491	29	C6H7O+
95.0729	14	C6H9N+
96.0444	2	C5H6NO+
104.0495	3	C7H6N+
105.0573	4	C7H7N+
106.0413	41	C7H6O+
106.0651	151	C7H8N+
107.0491	13	C7H7O+
107.0729	19	C7H9N+
108.0444	25	C6H6NO+
121.0646	1	C8H9O+
122.0601	152	C7H8NO+
123.0678	999	C7H9NO+
138.0914	23	C8H12NO+
