Mass spectrum: PD-0333941; LC-ESI-QFT; MS2; CE: 75; R=17500; [M+H]+
Name: PD-0333941
Name: 3-[4-[2-(5-methyl-2-phenyl-1,3-oxazol-4-yl)ethoxy]indol-1-yl]propanoic acid
Formula: C23H22N2O4
Exact mass: 390.1580
SMILES: CC1=C(CCOC2=CC=CC3=C2C=CN3CCC(O)=O)N=C(O1)C1=CC=CC=C1
InChI: InChI=1S/C23H22N2O4/c1-16-19(24-23(29-16)17-6-3-2-4-7-17)12-15-28-21-9-5-8-20-18(21)10-13-25(20)14-11-22(26)27/h2-10,13H,11-12,14-15H2,1H3,(H,26,27)
Instrument: Q Exactive Orbitrap (Thermo Scientific)
Instrument type: LC-ESI-QFT
Ms type: MS2
Ion mode: POSITIVE
Ionization: ESI
Fragmentation mode: HCD
Collision energy: 75
Resolution: 17500
Column name: Acquity BEH C18 1.7um, 2.1x150mm (Waters)
Retention time: 18.720 min
Base peak: 79.0211
Precursor m/z: 391.1652
Precursor type: [M+H]+
Precursor intensity: 22695157.4375
m/z	relative intensity	assigned
50.0151	1	C4H2+
51.023	1	C4H3+
53.0386	33	C4H5+
55.0179	8	C3H3O+
55.0543	43	C4H7+
65.0385	4	C5H5+
66.0464	1	C5H6+
69.0334	19	C4H5O+
70.0413	1	C4H6O+
73.0284	4	C3H5O2+
74.0963	2	C4H12N+
77.0384	12	C6H5+
78.0465	2	C6H6+
79.0543	1	C6H7+
80.0494	1	C5H6N+
81.0335	3	C5H5O+
83.0491	105	C5H7O+
84.0569	1	C5H8O+
91.0542	21	C7H7+
94.0413	3	C6H6O+
95.0491	99	C6H7O+
96.0525	1	CH8N2O3+
103.0543	14	C8H7+
104.0495	999	C7H6N+
105.0335	363	C7H5O+
105.0445	40	C6H5N2+
106.065	4	C7H8N+
109.0648	2	C7H9O+
115.0542	21	C9H7+
116.0494	1	C8H6N+
116.062	2	C9H8+
117.0573	12	C8H7N+
117.0699	61	C9H9+
118.0651	24	C8H8N+
119.0365	5	C7H5NO+
120.0399	2	C4H8O4+
120.0443	9	C7H6NO+
120.0809	5	C8H10N+
121.0478	7	C4H9O4+
121.0648	2	C8H9O+
122.06	5	C7H8NO+
122.068	2	C3H10N2O3+
123.0681	2	C7H9NO+
127.0542	2	C10H7+
128.0496	2	C9H6N+
128.062	24	C10H8+
129.0699	5	C10H9+
130.0651	84	C9H8N+
131.0491	2	C9H7O+
131.073	3	C9H9N+
131.0855	2	C10H11+
132.0443	7	C8H6NO+
133.0523	11	C8H7NO+
134.0237	3	C7H4NO2+
134.0603	5	C8H8NO+
136.0758	8	C8H10NO+
141.0699	6	C11H9+
142.0652	2	C10H8N+
143.073	59	C10H9N+
144.0808	166	C10H10N+
145.0524	2	C9H7NO+
145.0647	13	C10H9O+
146.06	130	C9H8NO+
148.0394	1	C8H6NO2+
148.0757	6	C9H10NO+
149.0232	1	C8H5O3+
149.0474	5	C8H7NO2+
154.0652	5	C11H8N+
155.0604	17	C10H7N2+
156.0808	2	C11H10N+
157.0521	2	C10H7NO+
158.0601	15	C10H8NO+
158.0965	14	C11H12N+
159.0678	5	C10H9NO+
160.076	1	C10H10NO+
161.0468	1	C9H7NO2+
162.055	3	C9H8NO2+
162.0915	2	C10H12NO+
167.0728	12	C12H9N+
168.0808	11	C12H10N+
170.0598	9	C11H8NO+
171.068	2	C11H9NO+
172.0757	63	C11H10NO+
176.0707	4	C10H10NO2+
182.0601	2	C12H8NO+
184.0755	6	C12H10NO+
185.0836	4	C12H11NO+
186.0913	84	C12H12NO+
190.0862	7	C11H12NO2+
195.0682	2	C13H9NO+
196.0758	7	C13H10NO+
197.0839	2	C13H11NO+
200.0706	1	C12H10NO2+
205.0735	1	C11H11NO3+
210.0915	5	C14H12NO+
218.0813	7	C12H12NO3+
255.0888	1	C15H13NO3+
