Mass spectrum: 1-(2-Hydroxyethyl)pyrrolidin-2-one; LC-ESI-QFT; MS2; CE: 30; R=17500; [M+H]+
Name: 1-(2-Hydroxyethyl)pyrrolidin-2-one
Formula: C6H11NO2
Exact mass: 129.0790
SMILES: OCCN1CCCC1=O
InChI: InChI=1S/C6H11NO2/c8-5-4-7-3-1-2-6(7)9/h8H,1-5H2
Instrument: Q Exactive Orbitrap (Thermo Scientific)
Instrument type: LC-ESI-QFT
Ms type: MS2
Ion mode: POSITIVE
Ionization: ESI
Fragmentation mode: HCD
Collision energy: 30
Resolution: 17500
Column name: Acquity BEH C18 1.7um, 2.1x150mm (Waters)
Retention time: 4.089 min
Base peak: 79.0211
Precursor m/z: 130.0863
Precursor type: [M+H]+
Precursor intensity: 3318493.875
m/z	relative intensity	assigned
56.0495	3	C3H6N+
57.0698	2	C4H9+
67.0542	4	C5H7+
68.0494	1	C4H6N+
69.0334	149	C4H5O+
69.0698	28	C5H9+
71.049	5	C4H7O+
82.0651	7	C5H8N+
84.0808	101	C5H10N+
94.0651	3	C6H8N+
112.0756	999	C6H10NO+
130.0862	459	C6H12NO2+
