Mass spectrum: Parinol; LC-ESI-QFT; MS2; CE: 30; R=17500; [M+H]+
Name: Parinol
Name: bis(4-chlorophenyl)-pyridin-3-ylmethanol
Formula: C18H13Cl2NO
Exact mass: 329.0374
SMILES: OC(C1=CC=C(Cl)C=C1)(C1=CC=C(Cl)C=C1)C1=CC=CN=C1
InChI: InChI=1S/C18H13Cl2NO/c19-16-7-3-13(4-8-16)18(22,15-2-1-11-21-12-15)14-5-9-17(20)10-6-14/h1-12,22H
Instrument: Q Exactive Orbitrap (Thermo Scientific)
Instrument type: LC-ESI-QFT
Ms type: MS2
Ion mode: POSITIVE
Ionization: ESI
Fragmentation mode: HCD
Collision energy: 30
Resolution: 17500
Column name: Acquity BEH C18 1.7um, 2.1x150mm (Waters)
Retention time: 18.413 min
Base peak: 79.0211
Precursor m/z: 330.0447
Precursor type: [M+H]+
Precursor intensity: 20860887
m/z	relative intensity	assigned
80.0494	95	C5H6N+
125.0153	5	C7H6Cl+
138.994	2	C7H4ClO+
175.0309	2	C11H8Cl+
182.0603	1	C12H8NO+
218.0365	7	C12H9ClNO+
219.0439	1	C12H10ClNO+
235.0068	1	C13H9Cl2+
250.0185	1	C13H10Cl2N+
251.0019	2	C13H9Cl2O+
252.0333	1	C16H9ClO+
252.0701	4	C17H13Cl+
259.0083	1	C15H9Cl2+
275.002	2	C15H9Cl2O+
276.057	1	C18H11ClN+
277.0654	9	C18H12ClN+
285.0231	2	C17H11Cl2+
287.0029	2	C16H9Cl2O+
287.0387	4	C17H13Cl2+
295.0741	1	C18H14ClNO+
312.0341	11	C18H12Cl2N+
313.0418	2	C18H13Cl2N+
330.0447	999	C18H14Cl2NO+
