Mass spectrum: Aziprotryne; LC-ESI-QFT; MS2; CE: 15; R=17500; [M+H]+
Name: Aziprotryne
Name: 4-azido-6-methylsulfanyl-N-propan-2-yl-1,3,5-triazin-2-amine
Formula: C7H11N7S
Exact mass: 225.0797
SMILES: CSC1=NC(NC(C)C)=NC(N=[N+]=[N-])=N1
InChI: InChI=1S/C7H11N7S/c1-4(2)9-5-10-6(13-14-8)12-7(11-5)15-3/h4H,1-3H3,(H,9,10,11,12)
Instrument: Q Exactive Orbitrap (Thermo Scientific)
Instrument type: LC-ESI-QFT
Ms type: MS2
Ion mode: POSITIVE
Ionization: ESI
Fragmentation mode: HCD
Collision energy: 15
Resolution: 17500
Column name: Acquity BEH C18 1.7um, 2.1x150mm (Waters)
Retention time: 17.808 min
Base peak: 79.0212
Precursor m/z: 226.0869
Precursor type: [M+H]+
Precursor intensity: 7367004.71875
m/z	relative intensity	assigned
55.0291	4	C2H3N2+
56.0496	12	C3H6N+
58.0652	411	C3H8N+
68.0243	106	C2H2N3+
71.0604	6	C3H7N2+
74.0059	32	C2H4NS+
83.0604	333	C4H7N2+
85.0761	24	C4H9N2+
89.0168	93	C2H5N2S+
91.0326	37	C2H7N2S+
96.0555	5	C4H6N3+
99.0012	35	C3H3N2S+
103.0325	13	C3H7N2S+
108.0306	2	C3H2N5+
108.0557	21	C5H6N3+
110.0462	20	C3H4N5+
110.0713	25	C5H8N3+
112.087	10	C5H10N3+
114.0122	100	C3H4N3S+
116.0277	57	C3H6N3S+
125.0823	972	C5H9N4+
126.0662	3	C3H6N6+
131.0639	3	C5H11N2S+
141.0103	5	C3H3N5S+
141.0231	95	C4H5N4S+
150.0776	149	C6H8N5+
152.0932	119	C6H10N5+
155.0386	7	C5H7N4S+
156.0339	999	C4H6N5S+
158.0495	6	C4H8N5S+
166.0074	44	C4H2N6S+
168.0339	16	C5H6N5S+
170.05	4	C5H8N5S+
171.0701	25	C6H11N4S+
180.0235	16	C5H4N6S+
183.0575	36	C6H9N5S+
198.081	655	C7H12N5S+
226.0871	845	C7H12N7S+
