Mass spectrum: Venlafaxine; LC-ESI-QFT; MS2; CE: 45; R=17500; [M+H]+
Name: Venlafaxine
Name: 1-[2-(dimethylamino)-1-(4-methoxyphenyl)ethyl]cyclohexan-1-ol
Formula: C17H27NO2
Exact mass: 277.2042
SMILES: COC1=CC=C(C=C1)C(CN(C)C)C1(O)CCCCC1
InChI: InChI=1S/C17H27NO2/c1-18(2)13-16(17(19)11-5-4-6-12-17)14-7-9-15(20-3)10-8-14/h7-10,16,19H,4-6,11-13H2,1-3H3
Instrument: Q Exactive Orbitrap (Thermo Scientific)
Instrument type: LC-ESI-QFT
Ms type: MS2
Ion mode: POSITIVE
Ionization: ESI
Fragmentation mode: HCD
Collision energy: 45
Resolution: 17500
Column name: Acquity BEH C18 1.7um, 2.1x150mm (Waters)
Retention time: 13.882 min
Base peak: 79.0211
Precursor m/z: 278.2115
Precursor type: [M+H]+
Precursor intensity: 43375612
m/z	relative intensity	assigned
56.0495	2	C3H6N+
58.0651	999	C3H8N+
67.0541	1	C5H7+
69.0698	4	C5H9+
79.0542	5	C6H7+
81.0699	7	C6H9+
91.0542	3	C7H7+
93.0699	3	C7H9+
107.0491	1	C7H7O+
107.0856	8	C8H11+
109.0647	1	C7H9O+
121.0648	147	C8H9O+
132.0572	2	C9H8O+
135.0804	8	C9H11O+
147.0804	74	C10H11O+
152.1434	2	C10H18N+
158.0727	1	C11H10O+
159.0805	19	C11H11O+
161.0964	1	C11H13O+
163.0989	1	C10H13NO+
173.0961	25	C12H13O+
177.1146	2	C11H15NO+
178.1224	2	C11H16NO+
183.1165	1	C14H15+
187.1116	1	C13H15O+
215.143	26	C15H19O+
260.2007	4	C17H26NO+
