Mass spectrum: Tomelukast; LC-ESI-QFT; MS2; CE: 45; R=17500; [M-H]-
Name: Tomelukast
Name: 1-[2-hydroxy-3-propyl-4-[4-(2H-tetrazol-5-yl)butoxy]phenyl]ethanone
Formula: C16H22N4O3
Exact mass: 318.1692
SMILES: CCCC1=C(OCCCCC2=NN=NN2)C=CC(C(C)=O)=C1O
InChI: InChI=1S/C16H22N4O3/c1-3-6-13-14(9-8-12(11(2)21)16(13)22)23-10-5-4-7-15-17-19-20-18-15/h8-9,22H,3-7,10H2,1-2H3,(H,17,18,19,20)
Instrument: Q Exactive Orbitrap (Thermo Scientific)
Instrument type: LC-ESI-QFT
Ms type: MS2
Ion mode: NEGATIVE
Ionization: ESI
Fragmentation mode: HCD
Collision energy: 45
Resolution: 17500
Column name: Acquity BEH C18 1.7um, 2.1x150mm (Waters)
Retention time: 17.661 min
Base peak: 317.1618
Precursor m/z: 317.1619
Precursor type: [M-H]-
Precursor intensity: 34520747.80078
m/z	relative intensity	assigned
107.0866	10	C8H11-
120.0581	1	C8H8O-
121.0294	1	C7H5O2-
133.0659	32	C9H9O-
136.0529	2	C8H8O2-
149.0971	45	C10H13O-
151.0764	124	C9H11O2-
163.04	11	C9H7O3-
164.0479	35	C9H8O3-
175.0764	14	C11H11O2-
177.0557	46	C10H9O3-
191.0717	1	C11H11O3-
193.0869	999	C11H13O3-
195.0662	18	C8H9N3O3-
196.0373	4	C10H4N4O-
