Mass spectrum: PharmaGSID_47259; LC-ESI-QFT; MS2; CE: 45; R=17500; [M+H]+
Name: PharmaGSID_47259
Name: 1,3-Dichloro-6,7,8,9,10,12-hexahydroazepino(2,1-b)quinazoline
Name: 1,3-dichloro-6,7,8,9,10,12-hexahydroazepino[2,1-b]quinazoline
Formula: C13H14Cl2N2
Exact mass: 268.0534
SMILES: ClC1=CC2=C(CN3CCCCCC3=N2)C(Cl)=C1
InChI: InChI=1S/C13H14Cl2N2/c14-9-6-11(15)10-8-17-5-3-1-2-4-13(17)16-12(10)7-9/h6-7H,1-5,8H2
Instrument: Q Exactive Orbitrap (Thermo Scientific)
Instrument type: LC-ESI-QFT
Ms type: MS2
Ion mode: POSITIVE
Ionization: ESI
Fragmentation mode: HCD
Collision energy: 45
Resolution: 17500
Column name: Acquity BEH C18 1.7um, 2.1x150mm (Waters)
Retention time: 13.543 min
Base peak: 79.0211
Precursor m/z: 269.0607
Precursor type: [M+H]+
Precursor intensity: 24089437.5
m/z	relative intensity	assigned
69.0698	2	C5H9+
79.0542	1	C6H7+
96.0807	18	C6H10N+
134.0963	1	C9H12N+
173.9871	4	C7H6Cl2N+
212.9974	1	C9H7Cl2N2+
214.0059	10	C9H8Cl2N2+
215.0137	1	C9H9Cl2N2+
227.0137	14	C10H9Cl2N2+
252.0333	1	C13H12Cl2N+
269.0605	999	C13H15Cl2N2+
