Mass spectrum: Ethirimol; LC-ESI-QFT; MS2; CE: 90; R=17500; [M+H]+
Name: Ethirimol
Name: 5-butyl-2-(ethylamino)-6-methyl-1H-pyrimidin-4-one
Formula: C11H19N3O
Exact mass: 209.1528
SMILES: CCCCC1=C(O)N=C(NCC)N=C1C
InChI: InChI=1S/C11H19N3O/c1-4-6-7-9-8(3)13-11(12-5-2)14-10(9)15/h4-7H2,1-3H3,(H2,12,13,14,15)
Instrument: Q Exactive Orbitrap (Thermo Scientific)
Instrument type: LC-ESI-QFT
Ms type: MS2
Ion mode: POSITIVE
Ionization: ESI
Fragmentation mode: HCD
Collision energy: 90
Resolution: 17500
Column name: Acquity BEH C18 1.7um, 2.1x150mm (Waters)
Retention time: 13.266 min
Base peak: 79.0211
Precursor m/z: 210.1601
Precursor type: [M+H]+
Precursor intensity: 33238059.0625
m/z	relative intensity	assigned
53.0022	5	C3HO+
53.0386	50	C4H5+
54.0338	12	C3H4N+
55.0178	18	C3H3O+
55.0543	143	C4H7+
56.0495	13	C3H6N+
57.0334	2	C3H5O+
57.0573	3	C3H7N+
57.0699	5	C4H9+
58.0652	18	C3H8N+
60.0556	3	CH6N3+
65.0385	12	C5H5+
66.0465	8	C5H6+
67.0542	128	C5H7+
68.0494	29	C4H6N+
69.0083	201	C2HN2O+
69.0573	26	C4H7N+
69.0699	14	C5H9+
70.0651	712	C4H8N+
71.0603	310	C3H7N2+
78.0339	3	C5H4N+
79.0542	25	C6H7+
80.0495	13	C5H6N+
81.0335	8	C5H5O+
81.0448	15	C4H5N2+
81.0573	10	C5H7N+
81.0699	47	C6H9+
82.0651	26	C5H8N+
83.073	66	C5H9N+
84.0444	24	C4H6NO+
84.0555	1	C3H6N3+
84.0808	15	C5H10N+
86.0349	6	C2H4N3O+
86.0599	2	C4H8NO+
88.087	2	C3H10N3+
91.0542	13	C7H7+
92.0495	6	C6H6N+
93.0699	28	C7H9+
94.0652	14	C6H8N+
95.0493	9	C6H7O+
95.0604	86	C5H7N2+
95.0855	52	C7H11+
96.0444	105	C5H6NO+
96.0556	10	C4H6N3+
96.0682	7	C5H8N2+
96.0808	10	C6H10N+
97.0397	42	C4H5N2O+
98.0601	999	C5H8NO+
103.0542	3	C8H7+
105.0448	3	C6H5N2+
105.07	12	C8H9+
106.0652	5	C7H8N+
107.073	106	C7H9N+
108.0681	9	C6H8N2+
108.0808	2	C7H10N+
109.076	14	C6H9N2+
110.0601	18	C6H8NO+
110.0713	27	C5H8N3+
110.0964	6	C7H12N+
111.0791	28	C5H9N3+
112.0758	2	C6H10NO+
112.1121	6	C7H14N+
114.0662	9	C4H8N3O+
120.0808	14	C8H10N+
121.0762	8	C7H9N2+
122.0712	27	C6H8N3+
122.0839	11	C7H10N2+
122.0964	17	C8H12N+
123.0552	18	C6H7N2O+
123.0805	2	C8H11O+
123.0917	4	C7H11N2+
124.0631	8	C6H8N2O+
124.0869	5	C6H10N3+
125.0583	1	C5H7N3O+
126.0661	3	C5H8N3O+
135.0919	2	C8H11N2+
136.0994	1	C8H12N2+
137.0711	1	C7H9N2O+
137.107	1	C8H13N2+
138.0662	133	C6H8N3O+
139.0741	60	C6H9N3O+
140.107	211	C8H14NO+
150.1025	20	C8H12N3+
152.0819	21	C7H10N3O+
153.0895	1	C7H11N3O+
165.1023	35	C9H13N2O+
166.0974	10	C8H12N3O+
167.1055	12	C8H13N3O+
182.1289	19	C9H16N3O+
193.1339	7	C11H17N2O+
208.1449	1	C11H18N3O+
210.1599	6	C11H20N3O+
