Mass spectrum: 5HPP-33; LC-ESI-QFT; MS2; CE: 75; R=17500; [M+H]+
Name: 5HPP-33
Name: 2-(2,6-Diisopropylphenyl)-5-hydroxyisoindoline-1,3-dione
Name: 2-[2,6-di(propan-2-yl)phenyl]-5-hydroxyisoindole-1,3-dione
Formula: C20H21NO3
Exact mass: 323.1521
SMILES: CC(C)C1=CC=CC(C(C)C)=C1N1C(=O)C2=C(C=C(O)C=C2)C1=O
InChI: InChI=1S/C20H21NO3/c1-11(2)14-6-5-7-15(12(3)4)18(14)21-19(23)16-9-8-13(22)10-17(16)20(21)24/h5-12,22H,1-4H3
Instrument: Q Exactive Orbitrap (Thermo Scientific)
Instrument type: LC-ESI-QFT
Ms type: MS2
Ion mode: POSITIVE
Ionization: ESI
Fragmentation mode: HCD
Collision energy: 75
Resolution: 17500
Column name: Acquity BEH C18 1.7um, 2.1x150mm (Waters)
Retention time: 18.685 min
Base peak: 79.0211
Precursor m/z: 324.1594
Precursor type: [M+H]+
Precursor intensity: 4266131.1875
m/z	relative intensity	assigned
50.0151	8	C4H2+
51.023	39	C4H3+
53.0022	10	C3HO+
53.0386	179	C4H5+
55.0179	12	C3H3O+
63.0229	16	C5H3+
65.0385	67	C5H5+
77.0385	83	C6H5+
79.0544	3	C6H7+
81.0336	16	C5H5O+
90.0338	34	C6H4N+
91.0542	27	C7H7+
92.0493	11	C6H6N+
93.0336	5	C6H5O+
94.0415	18	C6H6O+
95.0492	532	C6H7O+
105.0335	14	C7H5O+
109.0648	7	C7H9O+
111.044	41	C6H7O2+
115.0542	6	C9H7+
116.0493	11	C8H6N+
120.0444	82	C7H6NO+
121.0284	457	C7H5O2+
128.0494	9	C9H6N+
129.0695	5	C10H9+
136.0394	15	C7H6NO2+
138.0105	4	C10H2O+
139.0058	8	C9HNO+
139.054	4	C11H7+
141.0703	8	C11H9+
146.0237	999	C8H4NO2+
146.0346	66	C9H6O2+
149.0233	7	C8H5O3+
156.081	16	C11H10N+
164.0343	26	C8H6NO3+
166.0653	17	C12H8N+
167.0728	7	C12H9N+
169.0647	7	C12H9O+
173.0212	6	C10H5O3+
178.0499	62	C9H8NO3+
183.0679	4	C12H9NO+
184.0755	13	C12H10NO+
194.0602	9	C13H8NO+
196.0756	8	C13H10NO+
204.0811	17	C15H10N+
212.0709	28	C13H10NO2+
218.0838	9	C12H12NO3+
220.0763	4	C15H10NO+
222.0554	13	C14H8NO2+
232.0756	11	C16H10NO+
240.0656	499	C14H10NO3+
242.0615	3	C17H8NO+
248.0705	9	C16H10NO2+
249.0779	5	C16H11NO2+
