Mass spectrum: Triamcinolone; LC-ESI-QFT; MS2; CE: 30; R=17500; [M-H]-
Name: Triamcinolone
Name: (8S,9R,10S,11S,13S,14S,16R,17S)-9-fluoro-11,16,17-trihydroxy-17-(2-hydroxyacetyl)-10,13-dimethyl-6,7,8,11,12,14,15,16-octahydrocyclopenta[a]phenanthren-3-one
Formula: C21H27FO6
Exact mass: 394.1792
SMILES: C[C@]12C[C@H](O)[C@@]3(F)[C@@H](CCC4=CC(=O)C=C[C@]34C)[C@@H]1C[C@@H](O)[C@]2(O)C(=O)CO
InChI: InChI=1S/C21H27FO6/c1-18-6-5-12(24)7-11(18)3-4-13-14-8-15(25)21(28,17(27)10-23)19(14,2)9-16(26)20(13,18)22/h5-7,13-16,23,25-26,28H,3-4,8-10H2,1-2H3/t13-,14-,15+,16-,18-,19-,20-,21-/m0/s1
Instrument: Q Exactive Orbitrap (Thermo Scientific)
Instrument type: LC-ESI-QFT
Ms type: MS2
Ion mode: NEGATIVE
Ionization: ESI
Fragmentation mode: HCD
Collision energy: 30
Resolution: 17500
Column name: Acquity BEH C18 1.7um, 2.1x150mm (Waters)
Retention time: 14.609 min
Base peak: 288.1355
Precursor m/z: 393.1719
Precursor type: [M-H]-
Precursor intensity: 4829788.226563
m/z	relative intensity	assigned
71.0141	2	C3H3O2-
121.066	2	C8H9O-
123.0454	6	C7H7O2-
161.0609	2	C10H9O2-
165.0555	1	C9H9O3-
178.0636	5	C10H10O3-
179.0716	4	C10H11O3-
190.0639	3	C11H10O3-
235.1128	2	C17H15O-
239.1081	2	C16H15O2-
241.1239	5	C16H17O2-
249.0923	2	C17H13O2-
251.1079	2	C17H15O2-
265.1238	5	C18H17O2-
267.1034	1	C14H16FO4-
269.1553	1	C15H22FO3-
274.1004	1	C19H14O2-
276.0792	1	C18H12O3-
277.0869	5	C18H13O3-
277.1235	7	C19H17O2-
279.1396	3	C19H19O2-
281.1188	7	C18H17O3-
283.1334	5	C18H19O3-
289.1233	2	C20H17O2-
291.1029	6	C19H15O3-
292.1105	16	C19H16O3-
294.09	2	C18H14O4-
295.1337	2	C19H19O3-
297.1497	12	C19H21O3-
307.1343	30	C20H19O3-
309.1131	15	C19H17O4-
310.1212	78	C19H18O4-
313.1446	12	C19H21O4-
322.1206	11	C20H18O4-
325.1446	511	C20H21O4-
329.1202	11	C19H18FO4-
337.1449	38	C21H21O4-
345.1507	999	C20H22FO4-
357.1504	2	C21H22FO4-
375.1569	3	C21H24FO5-
