Mass spectrum: CP-612372; LC-ESI-QFT; MS2; CE: 60; R=17500; [M-H]-
Name: CP-612372
Name: 2-(2,1,3-Benzoxadiazol-5-yloxy)-N-((4-(1-hydroxy-1-methylethyl)phenyl)methyl)-3-pyridinecarboxamide
Name: 2-(2,1,3-benzoxadiazol-5-yloxy)-N-[[4-(2-hydroxypropan-2-yl)phenyl]methyl]pyridine-3-carboxamide
Formula: C22H20N4O4
Exact mass: 404.1485
SMILES: CC(C)(O)C1=CC=C(CNC(=O)C2=CC=CN=C2OC2=CC3=NON=C3C=C2)C=C1
InChI: InChI=1S/C22H20N4O4/c1-22(2,28)15-7-5-14(6-8-15)13-24-20(27)17-4-3-11-23-21(17)29-16-9-10-18-19(12-16)26-30-25-18/h3-12,28H,13H2,1-2H3,(H,24,27)
Instrument: Q Exactive Orbitrap (Thermo Scientific)
Instrument type: LC-ESI-QFT
Ms type: MS2
Ion mode: NEGATIVE
Ionization: ESI
Fragmentation mode: HCD
Collision energy: 60
Resolution: 17500
Column name: Acquity BEH C18 1.7um, 2.1x150mm (Waters)
Retention time: 16.352 min
Base peak: 202.9785
Precursor m/z: 403.1412
Precursor type: [M-H]-
Precursor intensity: 9318949.667969
m/z	relative intensity	assigned
50.0036	5	C3N-
57.0345	17	C3H5O-
64.0067	2	C3N2-
64.0192	2	C4H2N-
65.0145	48	C3HN2-
65.9985	38	C3NO-
66.0349	7	C4H4N-
68.0142	35	C3H2NO-
77.0145	29	C4HN2-
78.0223	35	C4H2N2-
89.0145	125	C5HN2-
90.0098	30	C4N3-
90.0223	79	C5H2N2-
91.0301	22	C5H3N2-
92.0141	7	C5H2NO-
94.0298	660	C5H4NO-
102.0224	3	C6H2N2-
102.0349	20	C7H4N-
103.0301	24	C6H3N2-
104.038	2	C6H4N2-
105.0093	6	C5HN2O-
105.0332	12	C5H3N3-
106.0172	40	C5H2N2O-
109.0169	3	C5H3NO2-
116.0254	27	C6H2N3-
117.0333	4	C6H3N3-
117.0457	17	C7H5N2-
118.0171	15	C6H2N2O-
118.0411	8	C6H4N3-
119.025	85	C6H3N2O-
121.0407	7	C6H5N2O-
122.0247	30	C6H4NO2-
130.041	12	C7H4N3-
130.0662	5	C9H8N-
131.0865	7	C10H11-
132.0203	14	C6H2N3O-
133.0281	999	C6H3N3O-
134.036	18	C6H4N3O-
135.02	32	C6H3N2O2-
138.0196	72	C6H4NO3-
140.051	2	C10H6N-
143.0251	3	C8H3N2O-
146.036	2	C7H4N3O-
146.0975	10	C10H12N-
156.0821	6	C11H10N-
167.0616	7	C11H7N2-
168.0453	18	C11H6NO-
169.0406	3	C10H5N2O-
170.0358	2	C9H4N3O-
170.0974	14	C12H12N-
173.0846	21	C11H11NO-
179.0616	2	C12H7N2-
182.0977	3	C13H12N-
185.0348	2	C10H5N2O2-
186.0557	4	C11H8NO2-
188.1081	12	C12H14NO-
194.0361	2	C11H4N3O-
196.0519	3	C11H6N3O-
197.0355	4	C11H5N2O2-
197.0722	4	C12H9N2O-
198.0433	6	C11H6N2O2-
207.0927	4	C14H11N2-
210.0315	2	C11H4N3O2-
211.0511	16	C12H7N2O2-
220.0514	15	C13H6N3O-
220.1007	7	C15H12N2-
222.0305	3	C12H4N3O2-
222.0796	5	C14H10N2O-
223.0389	3	C12H5N3O2-
223.0873	2	C14H11N2O-
224.0461	2	C12H6N3O2-
233.1089	6	C16H13N2-
235.0871	2	C15H11N2O-
237.0419	5	C12H5N4O2-
237.1035	11	C15H13N2O-
238.111	24	C15H14N2O-
239.0828	4	C14H11N2O2-
240.0902	4	C14H12N2O2-
245.0962	6	C16H11N3-
246.1035	5	C16H12N3-
247.0753	4	C15H9N3O-
247.1109	4	C16H13N3-
248.0827	3	C15H10N3O-
249.1029	5	C16H13N2O-
250.0871	11	C16H12NO2-
251.1189	52	C16H15N2O-
252.1031	8	C16H14NO2-
255.1138	38	C15H15N2O2-
263.1058	5	C16H13N3O-
264.1141	35	C16H14N3O-
265.122	20	C16H15N3O-
270.1142	3	C16H16NO3-
282.1067	3	C21H14O-
282.1245	20	C16H16N3O2-
285.124	5	C16H17N2O3-
300.1144	3	C19H14N3O-
309.0776	2	C19H9N4O-
314.0929	7	C19H12N3O2-
323.1075	14	C21H13N3O-
324.114	13	C21H14N3O-
325.0848	8	C20H11N3O2-
326.0936	33	C20H12N3O2-
333.1145	9	C22H13N4-
335.0925	6	C21H11N4O-
339.1246	4	C21H15N4O-
340.1078	3	C21H14N3O2-
341.1042	5	C20H13N4O2-
342.0883	2	C20H12N3O3-
349.1091	57	C22H13N4O-
351.0885	49	C21H11N4O2-
351.125	18	C22H15N4O-
353.1038	14	C21H13N4O2-
367.1198	40	C22H15N4O2-
369.0987	19	C21H13N4O3-
369.1355	8	C22H17N4O2-
