Mass spectrum: Hydramethylnon; LC-ESI-QFT; MS2; CE: 90; R=17500; [M-H]-
Name: Hydramethylnon
Name: N-[[(1E,4E)-1,5-bis[4-(trifluoromethyl)phenyl]penta-1,4-dien-3-ylidene]amino]-5,5-dimethyl-4,6-dihydro-1H-pyrimidin-2-amine
Formula: C25H24F6N4
Exact mass: 494.1905
SMILES: CC1(C)CNC(NC1)=NN=C(\C=C\C1=CC=C(C=C1)C(F)(F)F)/C=C/C1=CC=C(C=C1)C(F)(F)F
InChI: InChI=1S/C25H24F6N4/c1-23(2)15-32-22(33-16-23)35-34-21(13-7-17-3-9-19(10-4-17)24(26,27)28)14-8-18-5-11-20(12-6-18)25(29,30)31/h3-14H,15-16H2,1-2H3,(H2,32,33,35)/b13-7+,14-8+
Instrument: Q Exactive Orbitrap (Thermo Scientific)
Instrument type: LC-ESI-QFT
Ms type: MS2
Ion mode: NEGATIVE
Ionization: ESI
Fragmentation mode: HCD
Collision energy: 90
Resolution: 17500
Column name: Acquity BEH C18 1.7um, 2.1x150mm (Waters)
Retention time: 17.721 min
Base peak: 317.1619
Precursor m/z: 493.1832
Precursor type: [M-H]-
Precursor intensity: 4509930.961914
m/z	relative intensity	assigned
65.0145	285	C3HN2-
67.0302	172	C3H3N2-
68.9958	63	CF3-
91.0303	57	C5H3N2-
105.0145	118	C7H2F-
111.024	62	C9H3-
125.0211	53	C7H3F2-
126.0349	88	C9H4N-
126.1036	75	C6H12N3-
144.057	40	C5H8F4-
145.0271	999	C7H4F3-
156.0817	69	C6H9FN4-
163.0365	517	C10H5F2-
164.0317	259	C9H4F2N-
169.0271	205	C9H4F3-
170.0222	50	C8H3F3N-
170.0411	49	C11H5FN-
177.0458	287	C12H5N2-
184.0383	31	C9H5F3N-
185.0593	71	C10H8F3-
189.0169	80	C14H2F-
189.0519	36	C7H6F3N3-
200.063	29	C11H7FN3-
208.0384	64	C11H5F3N-
210.0539	45	C11H7F3N-
211.049	41	C10H6F3N2-
215.0629	41	C15H7N2-
217.0583	164	C12H7F2N2-
235.0493	154	C12H6F3N2-
236.0441	131	C11H5F3N3-
237.0645	426	C12H8F3N2-
238.0593	96	C11H7F3N3-
263.0543	24	C12H6F3N4-
