Mass spectrum: PharmaGSID_47261; LC-ESI-QFT; MS2; CE: 75; R=17500; [M+H]+
Name: PharmaGSID_47261
Name: (2S,3S)-3-methyl-2-(3-oxo-1,2-benzothiazol-2-yl)pentanoic acid
Formula: C13H15NO3S
Exact mass: 265.0773
SMILES: CC[C@H](C)[C@H](N1SC2=CC=CC=C2C1=O)C(O)=O
InChI: InChI=1S/C13H15NO3S/c1-3-8(2)11(13(16)17)14-12(15)9-6-4-5-7-10(9)18-14/h4-8,11H,3H2,1-2H3,(H,16,17)/t8-,11-/m0/s1
Instrument: Q Exactive Orbitrap (Thermo Scientific)
Instrument type: LC-ESI-QFT
Ms type: MS2
Ion mode: POSITIVE
Ionization: ESI
Fragmentation mode: HCD
Collision energy: 75
Resolution: 17500
Column name: Acquity BEH C18 1.7um, 2.1x150mm (Waters)
Retention time: 16.615 min
Base peak: 79.0211
Precursor m/z: 266.0845
Precursor type: [M+H]+
Precursor intensity: 8438014.875
m/z	relative intensity	assigned
53.0022	68	C3HO+
53.9975	10	C2NO+
55.0179	1	C3H3O+
55.0542	9	C4H7+
57.0335	1	C3H5O+
59.0491	7	C3H7O+
65.0386	3	C5H5+
67.0542	16	C5H7+
67.9892	1	C3O2+
69.0699	478	C5H9+
73.0648	20	C4H9O+
80.0495	8	C5H6N+
90.0339	2	C6H4N+
95.0492	2	C6H7O+
97.0104	1	C5H5S+
105.0335	41	C7H5O+
108.0029	1	C6H4S+
109.0107	155	C6H5S+
111.0264	10	C6H7S+
124.0217	3	C6H6NS+
134.0059	26	C7H4NS+
135.9978	41	C7H4OS+
137.0056	25	C7H5OS+
152.0165	999	C7H6NOS+
164.0165	46	C8H6NOS+
178.0319	2	C9H8NOS+
