Mass spectrum: 3-Methyl-1-phenyl-1H-pyrazol-5-amine; LC-ESI-QFT; MS2; CE: 60; R=17500; [M+H]+
Name: 3-Methyl-1-phenyl-1H-pyrazol-5-amine
Name: 5-methyl-2-phenylpyrazol-3-amine
Formula: C10H11N3
Exact mass: 173.0953
SMILES: CC1=NN(C(N)=C1)C1=CC=CC=C1
InChI: InChI=1S/C10H11N3/c1-8-7-10(11)13(12-8)9-5-3-2-4-6-9/h2-7H,11H2,1H3
Instrument: Q Exactive Orbitrap (Thermo Scientific)
Instrument type: LC-ESI-QFT
Ms type: MS2
Ion mode: POSITIVE
Ionization: ESI
Fragmentation mode: HCD
Collision energy: 60
Resolution: 17500
Column name: Acquity BEH C18 1.7um, 2.1x150mm (Waters)
Retention time: 9.555 min
Base peak: 79.0211
Precursor m/z: 174.1026
Precursor type: [M+H]+
Precursor intensity: 4034974.375
m/z	relative intensity	assigned
54.0339	2	C3H4N+
56.0495	2	C3H6N+
57.0447	2	C2H5N2+
65.0385	21	C5H5+
68.0243	3	C2H2N3+
71.0603	10	C3H7N2+
79.0542	51	C6H7+
81.0448	6	C4H5N2+
82.0526	2	C4H6N2+
83.0604	2	C4H7N2+
89.0386	2	C7H5+
91.0543	4	C7H7+
92.0495	110	C6H6N+
93.0574	49	C6H7N+
96.0559	4	C4H6N3+
103.0546	5	C8H7+
104.0494	19	C7H6N+
105.0701	3	C8H9+
106.0652	999	C7H8N+
115.0543	4	C9H7+
116.0495	55	C8H6N+
117.0573	43	C8H7N+
118.0651	24	C8H8N+
119.0605	6	C7H7N2+
120.0809	4	C8H10N+
130.0652	111	C9H8N+
131.0607	4	C8H7N2+
131.0729	6	C9H9N+
132.0683	62	C8H8N2+
132.0808	44	C9H10N+
133.0761	512	C8H9N2+
134.0713	97	C7H8N3+
140.0496	4	C10H6N+
142.0529	9	C9H6N2+
144.081	12	C10H10N+
145.0761	8	C9H9N2+
145.0888	8	C10H11N+
147.0917	31	C9H11N2+
156.0683	19	C10H8N2+
157.0762	70	C10H9N2+
159.079	10	C9H9N3+
174.1027	654	C10H12N3+
