Mass spectrum: Trilostane; LC-ESI-QFT; MS2; CE: 30; R=17500; [M+H]+
Name: Trilostane
Name: (1S,2R,6R,8S,11S,12S,15S,16S)-5,15-dihydroxy-2,16-dimethyl-7-oxapentacyclo[9.7.0.02,8.06,8.012,16]octadec-4-ene-4-carbonitrile
Formula: C20H27NO3
Exact mass: 329.1991
SMILES: C[C@]12CC[C@H]3[C@@H](CC[C@@]45O[C@@H]4C(O)=C(C[C@]35C)C#N)[C@@H]1CC[C@@H]2O
InChI: InChI=1S/C20H27NO3/c1-18-7-6-14-12(13(18)3-4-15(18)22)5-8-20-17(24-20)16(23)11(10-21)9-19(14,20)2/h12-15,17,22-23H,3-9H2,1-2H3/t12-,13-,14-,15-,17+,18-,19+,20+/m0/s1
Instrument: Q Exactive Orbitrap (Thermo Scientific)
Instrument type: LC-ESI-QFT
Ms type: MS2
Ion mode: POSITIVE
Ionization: ESI
Fragmentation mode: HCD
Collision energy: 30
Resolution: 17500
Column name: Acquity BEH C18 1.7um, 2.1x150mm (Waters)
Retention time: 16.986 min
Base peak: 79.0211
Precursor m/z: 330.2064
Precursor type: [M+H]+
Precursor intensity: 52937816.9375
m/z	relative intensity	assigned
209.1194	141	C15H15N+
253.1697	999	C14H23NO3+
286.1601	107	C18H22O3+
290.0976	189	C19H14O3+
315.0858	391	C20H13NO3+
