Mass spectrum: Phosfolan; LC-ESI-QFT; MS2; CE: 15; R=17500; [M+H]+
Name: Phosfolan
Name: N-diethoxyphosphoryl-1,3-dithiolan-2-imine
Formula: C7H14NO3PS2
Exact mass: 255.0153
SMILES: CCOP(=O)(OCC)N=C1SCCS1
InChI: InChI=1S/C7H14NO3PS2/c1-3-10-12(9,11-4-2)8-7-13-5-6-14-7/h3-6H2,1-2H3
Instrument: Q Exactive Orbitrap (Thermo Scientific)
Instrument type: LC-ESI-QFT
Ms type: MS2
Ion mode: POSITIVE
Ionization: ESI
Fragmentation mode: HCD
Collision energy: 15
Resolution: 17500
Column name: Acquity BEH C18 1.7um, 2.1x150mm (Waters)
Retention time: 14.064 min
Base peak: 79.0212
Precursor m/z: 256.0225
Precursor type: [M+H]+
Precursor intensity: 30079382.65625
m/z	relative intensity	assigned
61.0106	88	C2H5S+
139.9565	58	CH3NO3PS+
167.9879	214	C3H7NO3PS+
196.0193	383	C5H11NO3PS+
199.96	160	C3H7NO3PS2+
227.9913	538	C5H11NO3PS2+
256.0225	999	C7H15NO3PS2+
