Mass spectrum: 6-Thioguanine; LC-ESI-QFT; MS2; CE: 75; R=17500; [M+H]+
Name: 6-Thioguanine
Name: 2-amino-7H-purine-6-thiol
Formula: C5H5N5S
Exact mass: 167.0266
SMILES: NC1=NC2=C(NC=N2)C(=S)N1
InChI: InChI=1S/C5H5N5S/c6-5-9-3-2(4(11)10-5)7-1-8-3/h1H,(H4,6,7,8,9,10,11)
Instrument: Q Exactive Orbitrap (Thermo Scientific)
Instrument type: LC-ESI-QFT
Ms type: MS2
Ion mode: POSITIVE
Ionization: ESI
Fragmentation mode: HCD
Collision energy: 75
Resolution: 17500
Column name: Acquity BEH C18 1.7um, 2.1x150mm (Waters)
Retention time: 3.077 min
Base peak: 79.0211
Precursor m/z: 168.0338
Precursor type: [M+H]+
Precursor intensity: 4481282
m/z	relative intensity	assigned
55.0291	5	C2H3N2+
62.0059	1	CH4NS+
65.0134	1	C3HN2+
67.0291	4	C3H3N2+
68.0243	2	C2H2N3+
69.9745	1	C2NS+
71.9902	10	C2H2NS+
80.0243	22	C3H2N3+
81.9745	16	C3NS+
82.04	6	C3H4N3+
83.9903	25	C3H2NS+
87.0013	2	C2H3N2S+
92.0243	33	C4H2N3+
93.0322	2	C4H3N3+
96.9855	11	C3HN2S+
99.0011	36	C3H3N2S+
107.0352	218	C4H3N4+
108.9855	102	C4HN2S+
109.0509	38	C4H5N4+
114.0124	1	C3H4N3S+
123.9965	29	C4H2N3S+
126.0121	314	C4H4N3S+
134.0461	545	C5H4N5+
136.062	2	C5H6N5+
141.0228	1	C4H5N4S+
151.0073	999	C5H3N4S+
168.0339	179	C5H6N5S+
