Mass spectrum: Methadone; LC-ESI-QFT; MS2; CE: 90; R=17500; [M+H]+
Name: Methadone
Name: 6-(dimethylamino)-4,4-diphenylheptan-3-one
Formula: C21H27NO
Exact mass: 309.2093
SMILES: CCC(=O)C(CC(C)N(C)C)(C1=CC=CC=C1)C1=CC=CC=C1
InChI: InChI=1S/C21H27NO/c1-5-20(23)21(16-17(2)22(3)4,18-12-8-6-9-13-18)19-14-10-7-11-15-19/h6-15,17H,5,16H2,1-4H3
Instrument: Q Exactive Orbitrap (Thermo Scientific)
Instrument type: LC-ESI-QFT
Ms type: MS2
Ion mode: POSITIVE
Ionization: ESI
Fragmentation mode: HCD
Collision energy: 90
Resolution: 17500
Column name: Acquity BEH C18 1.7um, 2.1x150mm (Waters)
Retention time: 15.477 min
Base peak: 79.0211
Precursor m/z: 310.2165
Precursor type: [M+H]+
Precursor intensity: 57591206
m/z	relative intensity	assigned
50.0151	3	C4H2+
53.0386	252	C4H5+
55.0178	11	C3H3O+
55.0542	2	C4H7+
57.0335	116	C3H5O+
65.0385	36	C5H5+
67.0543	2	C5H7+
69.0334	12	C4H5O+
72.0807	3	C4H10N+
77.0385	109	C6H5+
79.0542	58	C6H7+
81.0335	25	C5H5O+
81.07	3	C6H9+
91.0542	778	C7H7+
93.07	1	C7H9+
94.0414	26	C6H6O+
95.0492	746	C6H7O+
97.0536	1	C5H7NO+
103.0543	59	C8H7+
104.062	1	C8H8+
105.0336	999	C7H5O+
105.0698	143	C8H9+
107.0492	10	C7H7O+
109.065	5	C7H9O+
115.0542	200	C9H7+
116.0621	10	C9H8+
117.0699	201	C9H9+
119.0858	2	C9H11+
127.0543	5	C10H7+
128.062	89	C10H8+
129.0698	74	C10H9+
130.0777	6	C10H10+
131.0492	9	C9H7O+
131.0856	18	C10H11+
135.0812	1	C9H11O+
141.0698	31	C11H9+
142.078	3	C11H10+
143.0491	2	C10H7O+
143.0857	4	C11H11+
144.057	4	C10H8O+
145.0648	25	C10H9O+
147.0804	2	C10H11O+
152.0621	46	C12H8+
153.0697	11	C12H9+
154.0776	8	C12H10+
155.0859	2	C12H11+
157.0649	3	C11H9O+
158.0727	5	C11H10O+
159.0805	3	C11H11O+
165.0699	89	C13H9+
166.0777	30	C13H10+
167.0855	57	C13H11+
178.0777	45	C14H10+
179.0856	12	C14H11+
180.0934	3	C14H12+
181.101	2	C14H13+
189.07	15	C15H9+
190.0778	16	C15H10+
191.0855	27	C15H11+
192.0935	4	C15H12+
193.1007	2	C15H13+
194.0727	70	C14H10O+
202.0777	71	C16H10+
203.0856	148	C16H11+
204.0934	150	C16H12+
205.1013	4	C16H13+
207.0801	3	C15H11O+
208.0877	1	C15H12O+
215.0855	12	C17H11+
216.0934	8	C17H12+
217.1011	71	C17H13+
218.109	9	C17H14+
219.117	2	C17H15+
221.0961	4	C16H13O+
231.1167	1	C18H15+
