Mass spectrum: Scopolamine; LC-ESI-QFT; MS2; CE: 60; R=17500; [M+H]+
Name: Scopolamine
Formula: C17H21NO4
Exact mass: 303.1471
SMILES: CN1[C@H]2C[C@H](OC(=O)[C@H](CO)c3ccccc3)C[C@@H]1[C@H]1O[C@@H]21
InChI: InChI=1S/C17H21NO4/c1-18-13-7-11(8-14(18)16-15(13)22-16)21-17(20)12(9-19)10-5-3-2-4-6-10/h2-6,11-16,19H,7-9H2,1H3/t11-,12-,13-,14+,15-,16+/m1/s1
Instrument: Q Exactive Orbitrap (Thermo Scientific)
Instrument type: LC-ESI-QFT
Ms type: MS2
Ion mode: POSITIVE
Ionization: ESI
Fragmentation mode: HCD
Collision energy: 60
Resolution: 17500
Column name: Acquity BEH C18 1.7um, 2.1x150mm (Waters)
Retention time: 9.993 min
Base peak: 79.0212
Precursor m/z: 304.1543
Precursor type: [M+H]+
Precursor intensity: 17868269.28125
m/z	relative intensity	assigned
51.0229	1	C4H3+
53.0022	1	C3HO+
53.0386	10	C4H5+
55.0178	3	C3H3O+
55.0542	7	C4H7+
56.0494	8	C3H6N+
57.0335	7	C3H5O+
57.0573	1	C3H7N+
58.0287	6	C2H4NO+
58.065	2	C3H8N+
59.0365	3	C2H5NO+
60.0443	3	C2H6NO+
65.0385	3	C5H5+
67.0416	5	C4H5N+
67.0542	31	C5H7+
68.0494	19	C4H6N+
69.0334	2	C4H5O+
69.0699	2	C5H9+
70.065	88	C4H8N+
71.0491	1	C4H7O+
72.0443	19	C3H6NO+
73.0283	5	C3H5O2+
73.0523	1	C3H7NO+
74.06	17	C3H8NO+
74.0963	1	C4H12N+
77.0382	5	C6H5+
79.0542	236	C6H7+
80.0493	6	C5H6N+
81.0335	66	C5H5O+
81.0573	7	C5H7N+
81.0698	44	C6H9+
82.0651	109	C5H8N+
83.0491	57	C5H7O+
84.0443	4	C4H6NO+
84.0807	59	C5H10N+
86.0599	4	C4H8NO+
91.0542	52	C7H7+
93.0573	3	C6H7N+
93.0699	55	C7H9+
94.0651	68	C6H8N+
95.0491	31	C6H7O+
95.0729	29	C6H9N+
96.0443	49	C5H6NO+
96.0807	57	C6H10N+
97.0522	114	C5H7NO+
97.0647	13	C6H9O+
98.06	229	C5H8NO+
102.0464	3	C8H6+
103.0542	828	C8H7+
105.0569	1	C7H7N+
107.049	21	C7H7O+
107.0727	1	C7H9N+
108.0807	32	C7H10N+
109.0648	2	C7H9O+
109.0886	10	C7H11N+
110.06	80	C6H8NO+
110.0964	308	C7H12N+
112.0751	1	C6H10NO+
113.0595	1	C6H9O2+
114.0551	3	C5H8NO2+
115.0627	5	C5H9NO2+
120.0807	42	C8H10N+
121.0647	373	C8H9O+
122.06	1	C7H8NO+
123.0679	8	C7H9NO+
128.1068	1	C7H14NO+
136.0756	2	C8H10NO+
138.0913	999	C8H12NO+
139.099	2	C8H13NO+
153.0913	1	C9H13O2+
154.0861	4	C8H12NO2+
156.1018	192	C8H14NO2+
228.1387	1	C15H18NO+
304.1543	5	C17H22NO4+
