Mass spectrum: FR167356; LC-ESI-QFT; MS2; CE: 45; R=17500; [M+H]+
Name: FR167356
Name: Benzamide, 2,6-dichloro-N-(3-(1-hydroxy-1-methylethyl)-2-methyl-7-benzofuranyl)-
Name: 2,6-dichloro-N-[3-(2-hydroxypropan-2-yl)-2-methyl-1-benzofuran-7-yl]benzamide
Formula: C19H17Cl2NO3
Exact mass: 377.0585
SMILES: CC1=C(C2=C(O1)C(NC(=O)C1=C(Cl)C=CC=C1Cl)=CC=C2)C(C)(C)O
InChI: InChI=1S/C19H17Cl2NO3/c1-10-16(19(2,3)24)11-6-4-9-14(17(11)25-10)22-18(23)15-12(20)7-5-8-13(15)21/h4-9,24H,1-3H3,(H,22,23)
Instrument: Q Exactive Orbitrap (Thermo Scientific)
Instrument type: LC-ESI-QFT
Ms type: MS2
Ion mode: POSITIVE
Ionization: ESI
Fragmentation mode: HCD
Collision energy: 45
Resolution: 17500
Column name: Acquity BEH C18 1.7um, 2.1x150mm (Waters)
Retention time: 16.868 min
Base peak: 79.0211
Precursor m/z: 378.0658
Precursor type: [M+H]+
Precursor intensity: 1427801.75
m/z	relative intensity	assigned
59.0492	4	C3H7O+
91.0541	1	C7H7+
108.9839	1	C6H2Cl+
115.0543	1	C9H7+
119.0854	2	C9H11+
121.0648	1	C8H9O+
128.0621	9	C10H8+
129.0698	11	C10H9+
143.0857	33	C11H11+
144.0809	25	C10H10N+
145.0652	1	C7H12ClN+
146.0603	1	C9H8NO+
146.0726	2	C10H10O+
147.0805	24	C10H11O+
158.0965	1	C11H12N+
161.0963	7	C11H13O+
170.0962	1	C12H12N+
171.0805	17	C12H11O+
171.9718	3	C7H4Cl2N+
172.0758	22	C11H10NO+
172.9557	999	C7H3Cl2O+
186.0914	10	C12H12NO+
187.0995	1	C12H13NO+
189.982	2	C7H6Cl2NO+
214.0864	9	C13H12NO2+
300.0351	5	C17H12Cl2N+
302.0133	1	C16H10Cl2NO+
316.029	2	C17H12Cl2NO+
317.0375	2	C17H13Cl2NO+
318.0451	33	C17H14Cl2NO+
320.0245	2	C16H12Cl2NO2+
332.024	3	C17H12Cl2NO2+
342.045	39	C19H14Cl2NO+
360.0554	102	C19H16Cl2NO2+
