Mass spectrum: Troglitazone; LC-ESI-QFT; MS2; CE: 45; R=17500; [M-H]-
Name: Troglitazone
Name: 5-[[4-[(6-hydroxy-2,5,7,8-tetramethyl-3,4-dihydrochromen-2-yl)methoxy]phenyl]methyl]-1,3-thiazolidine-2,4-dione
Formula: C24H27NO5S
Exact mass: 441.1610
SMILES: CC1=C(O)C(C)=C2CCC(C)(COC3=CC=C(CC4SC(=O)NC4=O)C=C3)OC2=C1C
InChI: InChI=1S/C24H27NO5S/c1-13-14(2)21-18(15(3)20(13)26)9-10-24(4,30-21)12-29-17-7-5-16(6-8-17)11-19-22(27)25-23(28)31-19/h5-8,19,26H,9-12H2,1-4H3,(H,25,27,28)
Instrument: Q Exactive Orbitrap (Thermo Scientific)
Instrument type: LC-ESI-QFT
Ms type: MS2
Ion mode: NEGATIVE
Ionization: ESI
Fragmentation mode: HCD
Collision energy: 45
Resolution: 17500
Column name: Acquity BEH C18 1.7um, 2.1x150mm (Waters)
Retention time: 18.741 min
Base peak: 357.026
Precursor m/z: 440.1537
Precursor type: [M-H]-
Precursor intensity: 9309214.138672
m/z	relative intensity	assigned
71.9676	14	C2OS-
72.9754	19	C2HOS-
96.9601	204	HO4S-
114.9733	93	C3HNO2S-
115.9812	27	C3H2NO2S-
117.0347	23	C8H5O-
119.0502	154	C8H7O-
137.0067	50	C7H5OS-
145.0295	999	C9H5O2-
149.0065	8	C8H5OS-
150.0145	519	C8H6OS-
151.0223	440	C8H7OS-
162.0563	15	C9H8NO2-
163.0765	110	C10H11O2-
167.0021	11	C4H7O5S-
177.0011	8	C9H5O2S-
178.0094	370	C9H6O2S-
179.0173	156	C9H7O2S-
193.0206	28	C9H7NO2S-
369.1527	19	C22H25O3S-
397.1473	93	C23H25O4S-
440.156	13	C24H26NO5S-
