Mass spectrum: Oxazepam; LC-ESI-QFT; MS2; CE: 15; R=17500; [M-H]-
Name: Oxazepam
Name: 7-chloro-3-hydroxy-5-phenyl-1,3-dihydro-1,4-benzodiazepin-2-one
Formula: C15H11ClN2O2
Exact mass: 286.0509
SMILES: OC1N=C(C2=CC=CC=C2)C2=CC(Cl)=CC=C2NC1=O
InChI: InChI=1S/C15H11ClN2O2/c16-10-6-7-12-11(8-10)13(9-4-2-1-3-5-9)18-15(20)14(19)17-12/h1-8,15,20H,(H,17,19)
Instrument: Q Exactive Orbitrap (Thermo Scientific)
Instrument type: LC-ESI-QFT
Ms type: MS2
Ion mode: NEGATIVE
Ionization: ESI
Fragmentation mode: HCD
Collision energy: 15
Resolution: 17500
Column name: Acquity BEH C18 1.7um, 2.1x150mm (Waters)
Retention time: 16.709 min
Base peak: 127.0068
Precursor m/z: 285.0436
Precursor type: [M-H]-
Precursor intensity: 3448105.109375
m/z	relative intensity	assigned
127.0067	3	C5H4ClN2-
130.0072	2	C5H5ClNO-
179.0019	4	C8H4ClN2O-
241.0544	1	C14H10ClN2-
242.0378	7	C14H9ClNO-
257.0487	133	C14H10ClN2O-
258.0329	3	C14H9ClNO2-
285.0425	999	C15H10ClN2O2-
