Mass spectrum: MK-274; LC-ESI-QFT; MS2; CE: 90; R=17500; [M-H]-
Name: MK-274
Name: 3-[5'-Fluoro-2'-(2,2,3,3,3-pentafluoropropoxy)biphenyl-3-yl]-1H-1,2,4-triazole-5-carboxamide
Name: 3-[3-[5-fluoro-2-(2,2,3,3,3-pentafluoropropoxy)phenyl]phenyl]-1H-1,2,4-triazole-5-carboxamide
Formula: C18H12F6N4O2
Exact mass: 430.0864
SMILES: NC(=O)C1=NC(=NN1)C1=CC=CC(=C1)C1=CC(F)=CC=C1OCC(F)(F)C(F)(F)F
InChI: InChI=1S/C18H12F6N4O2/c19-11-4-5-13(30-8-17(20,21)18(22,23)24)12(7-11)9-2-1-3-10(6-9)15-26-16(14(25)29)28-27-15/h1-7H,8H2,(H2,25,29)(H,26,27,28)
Instrument: Q Exactive Orbitrap (Thermo Scientific)
Instrument type: LC-ESI-QFT
Ms type: MS2
Ion mode: NEGATIVE
Ionization: ESI
Fragmentation mode: HCD
Collision energy: 90
Resolution: 17500
Column name: Acquity BEH C18 1.7um, 2.1x150mm (Waters)
Retention time: 17.743 min
Base peak: 317.1618
Precursor m/z: 429.0792
Precursor type: [M-H]-
Precursor intensity: 3457044.625
m/z	relative intensity	assigned
66.0098	34	C2N3-
68.9958	210	CF3-
80.9958	85	C2F3-
92.0254	24	C4H2N3-
92.9958	132	C3F3-
108.9906	562	C3F3O-
183.024	126	C15H3-
203.0303	612	C15H4F-
210.035	175	C16H4N-
211.0193	49	C16H3O-
212.0515	132	C8H6F2N4O-
223.0363	111	C10H4F3N3-
224.0521	38	C14H7FNO-
229.0331	24	C11H3F2N4-
230.0412	183	C16H5FN-
231.0251	999	C16H4FO-
231.0362	72	C7H5F6N2-
238.0412	26	C13H6F4-
251.0314	512	C16H5F2O-
252.0581	125	C11H9F5O-
