Mass spectrum: Acephate; LC-ESI-QFT; MS2; CE: 75; R=17500; [M-H]-
Name: Acephate
Name: N-[methoxy(methylsulfanyl)phosphoryl]acetamide
Formula: C4H10NO3PS
Exact mass: 183.0119
SMILES: COP(=O)(NC(C)=O)SC
InChI: InChI=1S/C4H10NO3PS/c1-4(6)5-9(7,8-2)10-3/h1-3H3,(H,5,6,7)
Instrument: Q Exactive Orbitrap (Thermo Scientific)
Instrument type: LC-ESI-QFT
Ms type: MS2
Ion mode: NEGATIVE
Ionization: ESI
Fragmentation mode: HCD
Collision energy: 75
Resolution: 17500
Column name: Acquity BEH C18 1.7um, 2.1x150mm (Waters)
Retention time: 5.731 min
Base peak: 198.9364
Precursor m/z: 182.0046
Precursor type: [M-H]-
Precursor intensity: 472651.2121582
m/z	relative intensity	assigned
58.0298	676	C2H4NO-
62.9642	277	O2P-
78.9591	999	O3P-
94.9904	76	CH4O3P-
