Mass spectrum: Gibberellic acid; LC-ESI-QFT; MS2; CE: 60; R=17500; [M-H]-
Name: Gibberellic acid
Name: (1R,2R,5S,8S,9S,10R,11S,12S)-5,12-dihydroxy-11-methyl-6-methylidene-16-oxo-15-oxapentacyclo[9.3.2.15,8.01,10.02,8]heptadec-13-ene-9-carboxylic acid
Formula: C19H22O6
Exact mass: 346.1416
SMILES: C[C@@]12[C@H]3[C@H](C(O)=O)[C@@]45CC(=C)[C@@](O)(C4)CC[C@H]5[C@]3(OC1=O)C=C[C@@H]2O
InChI: InChI=1S/C19H22O6/c1-9-7-17-8-18(9,24)5-3-10(17)19-6-4-11(20)16(2,15(23)25-19)13(19)12(17)14(21)22/h4,6,10-13,20,24H,1,3,5,7-8H2,2H3,(H,21,22)/t10-,11+,12-,13-,16-,17+,18+,19-/m1/s1
Instrument: Q Exactive Orbitrap (Thermo Scientific)
Instrument type: LC-ESI-QFT
Ms type: MS2
Ion mode: NEGATIVE
Ionization: ESI
Fragmentation mode: HCD
Collision energy: 60
Resolution: 17500
Column name: Acquity BEH C18 1.7um, 2.1x150mm (Waters)
Retention time: 13.063 min
Base peak: 305.0968
Precursor m/z: 345.1344
Precursor type: [M-H]-
Precursor intensity: 9037736.26709
m/z	relative intensity	assigned
55.0189	9	C3H3O-
57.0346	6	C3H5O-
60.993	2	CHO3-
69.0346	5	C4H5O-
71.0502	97	C4H7O-
73.0295	27	C3H5O2-
79.0554	1	C6H7-
83.0502	81	C5H7O-
93.0345	1	C6H5O-
95.0502	4	C6H7O-
105.0709	14	C8H9-
107.0503	5	C7H7O-
109.0659	1	C7H9O-
119.05	1	C8H7O-
119.0866	4	C9H11-
121.0657	7	C8H9O-
128.063	1	C10H8-
129.0708	2	C10H9-
131.0864	2	C10H11-
133.0658	8	C9H9O-
133.1023	2	C10H13-
141.071	1	C11H9-
142.079	1	C11H10-
143.0866	999	C11H11-
144.0582	4	C10H8O-
145.0658	5	C10H9O-
145.1022	1	C11H13-
146.0736	9	C10H10O-
147.0813	1	C10H11O-
149.097	3	C10H13O-
155.0865	3	C12H11-
156.0578	1	C11H8O-
157.0657	3	C11H9O-
157.102	1	C12H13-
158.0737	1	C11H10O-
159.0813	4	C11H11O-
159.1189	1	C12H15-
161.0971	15	C11H13O-
167.0864	1	C13H11-
169.0659	1	C12H9O-
169.1022	3	C13H13-
170.0736	3	C12H10O-
171.0816	10	C12H11O-
171.1179	1	C13H15-
172.0894	2	C12H12O-
173.0972	4	C12H13O-
174.0688	1	C11H10O2-
179.0866	8	C14H11-
181.0663	1	C13H9O-
181.1022	5	C14H13-
183.0815	17	C13H11O-
183.1178	4	C14H15-
184.0529	3	C12H8O2-
184.0888	2	C13H12O-
185.097	10	C13H13O-
187.0761	1	C12H11O2-
189.0918	1	C12H13O2-
192.0945	2	C15H12-
193.1021	34	C15H13-
194.0738	1	C14H10O-
197.0969	4	C14H13O-
197.1336	8	C15H17-
198.0688	2	C13H10O2-
199.0765	9	C13H11O2-
199.113	7	C14H15O-
201.1282	7	C14H17O-
205.1021	36	C16H13-
206.1102	6	C16H14-
209.0971	37	C15H13O-
211.0762	7	C14H11O2-
211.1122	1	C15H15O-
212.0843	2	C14H12O2-
213.0923	2	C14H13O2-
213.1287	5	C15H17O-
217.1019	1	C17H13-
219.1179	39	C17H15-
220.09	1	C16H12O-
221.1335	156	C17H17-
225.0923	2	C15H13O2-
227.1077	102	C15H15O2-
237.1284	5	C17H17O-
239.1092	1	C16H15O2-
239.1439	2	C17H19O-
255.1393	4	C17H19O2-
257.1552	1	C17H21O2-
271.0974	1	C16H15O4-
