Mass spectrum: Colchicine; LC-ESI-QFT; MS2; CE: 75; R=17500; [M+H]+
Name: Colchicine
Name: N-[(7S)-1,2,3,10-tetramethoxy-9-oxo-6,7-dihydro-5H-benzo[a]heptalen-7-yl]acetamide
Formula: C22H25NO6
Exact mass: 399.1682
SMILES: COC1=CC2=C(C(OC)=C1OC)C1=CC=C(OC)C(=O)C=C1[C@H](CC2)NC(C)=O
InChI: InChI=1S/C22H25NO6/c1-12(24)23-16-8-6-13-10-19(27-3)21(28-4)22(29-5)20(13)14-7-9-18(26-2)17(25)11-15(14)16/h7,9-11,16H,6,8H2,1-5H3,(H,23,24)/t16-/m0/s1
Instrument: Q Exactive Orbitrap (Thermo Scientific)
Instrument type: LC-ESI-QFT
Ms type: MS2
Ion mode: POSITIVE
Ionization: ESI
Fragmentation mode: HCD
Collision energy: 75
Resolution: 17500
Column name: Acquity BEH C18 1.7um, 2.1x150mm (Waters)
Retention time: 14.647 min
Base peak: 79.0211
Precursor m/z: 400.1755
Precursor type: [M+H]+
Precursor intensity: 11113375
m/z	relative intensity	assigned
53.0387	15	C4H5+
55.0179	75	C3H3O+
56.0495	73	C3H6N+
60.0444	87	C2H6NO+
65.0385	41	C5H5+
67.0542	12	C5H7+
68.0494	25	C4H6N+
68.9971	21	C3HO2+
70.0287	41	C3H4NO+
71.049	15	C4H7O+
75.044	11	C3H7O2+
78.0464	40	C6H6+
79.0542	41	C6H7+
80.0494	37	C5H6N+
81.0335	20	C5H5O+
81.0699	17	C6H9+
84.0444	41	C4H6NO+
85.0283	34	C4H5O2+
91.0543	177	C7H7+
93.0333	22	C6H5O+
94.0414	42	C6H6O+
94.0652	15	C6H8N+
95.0493	61	C6H7O+
100.0392	17	C4H6NO2+
102.0465	19	C8H6+
103.0543	94	C8H7+
104.0493	24	C7H6N+
104.062	48	C8H8+
105.0699	46	C8H9+
106.065	22	C7H8N+
107.0491	82	C7H7O+
108.0442	23	C6H6NO+
109.0524	14	C6H7NO+
109.065	21	C7H9O+
110.0362	40	C6H6O2+
110.06	15	C6H8NO+
111.044	51	C6H7O2+
115.0541	106	C9H7+
116.0619	20	C9H8+
117.0573	14	C8H7N+
117.0699	42	C9H9+
118.0413	19	C8H6O+
118.065	48	C8H8N+
119.0492	122	C8H7O+
119.0731	23	C8H9N+
120.0443	15	C7H6NO+
120.0807	22	C8H10N+
121.0648	53	C8H9O+
122.0363	76	C7H6O2+
122.0602	19	C7H8NO+
123.044	65	C7H7O2+
125.0596	48	C7H9O2+
128.0621	44	C10H8+
129.0698	44	C10H9+
130.0413	40	C9H6O+
130.0652	79	C9H8N+
131.0492	152	C9H7O+
131.0728	21	C9H9N+
132.0447	21	C8H6NO+
132.0571	39	C9H8O+
132.0808	35	C9H10N+
133.0522	576	C8H7NO+
133.0646	110	C9H9O+
134.0599	27	C8H8NO+
135.0314	40	C7H5NO2+
135.0442	42	C8H7O2+
136.0518	34	C8H8O2+
137.0472	47	C7H7NO2+
137.0598	410	C8H9O2+
138.0676	45	C8H10O2+
139.0544	51	C11H7+
140.062	14	C11H8+
141.0698	79	C11H9+
142.0773	13	C11H10+
143.049	33	C10H7O+
143.0856	19	C11H11+
144.0571	44	C10H8O+
144.0805	20	C10H10N+
145.0519	25	C9H7NO+
145.0649	145	C10H9O+
146.0363	14	C9H6O2+
146.0603	72	C9H8NO+
146.0727	34	C10H10O+
147.0441	103	C9H7O2+
147.0678	49	C9H9NO+
147.0807	17	C10H11O+
148.0519	156	C9H8O2+
148.0755	67	C9H10NO+
149.0598	53	C9H9O2+
150.0549	229	C8H8NO2+
150.0677	16	C9H10O2+
151.0389	58	C8H7O3+
151.0754	59	C9H11O2+
152.0621	208	C12H8+
152.0707	60	C8H10NO2+
153.0699	261	C12H9+
154.0777	35	C12H10+
155.0495	32	C11H7O+
155.0855	67	C12H11+
156.057	34	C11H8O+
156.0811	14	C11H10N+
157.0649	45	C11H9O+
158.06	48	C10H8NO+
158.0725	33	C11H10O+
159.044	54	C10H7O2+
159.0677	36	C10H9NO+
160.0518	40	C10H8O2+
160.0757	110	C10H10NO+
161.047	49	C9H7NO2+
161.0596	155	C10H9O2+
162.0307	14	C9H6O3+
162.0549	45	C9H8NO2+
163.0546	25	C13H7+
163.0628	18	C9H9NO2+
163.0754	52	C10H11O2+
164.0632	12	C13H8+
164.0705	73	C9H10NO2+
165.0699	460	C13H9+
165.0782	33	C9H11NO2+
166.0624	31	C9H10O3+
166.0779	196	C13H10+
166.0857	16	C9H12NO2+
167.0489	58	C12H7O+
167.0711	19	C9H11O3+
167.0855	318	C13H11+
168.0572	113	C12H8O+
168.0809	27	C12H10N+
168.0933	24	C13H12+
169.0648	195	C12H9O+
170.06	19	C11H8NO+
170.0728	41	C12H10O+
171.0437	30	C11H7O2+
171.0671	13	C11H9NO+
171.0803	101	C12H11O+
172.052	21	C11H8O2+
172.0755	36	C11H10NO+
173.0597	62	C11H9O2+
174.055	19	C10H8NO2+
174.0678	32	C11H10O2+
175.0387	41	C10H7O3+
175.0627	52	C10H9NO2+
175.0756	52	C11H11O2+
176.0621	55	C14H8+
176.0706	163	C10H10NO2+
176.0832	166	C11H12O2+
177.055	113	C10H9O3+
177.0699	234	C14H9+
178.0778	325	C14H10+
178.0868	17	C10H12NO2+
179.0708	53	C10H11O3+
179.0855	378	C14H11+
180.057	115	C13H8O+
180.0803	65	C13H10N+
180.0934	29	C14H12+
181.0649	555	C13H9O+
181.0857	111	C10H13O3+
181.1004	58	C14H13+
182.0603	15	C12H8NO+
182.0619	16	C12H8NO+
182.0727	277	C13H10O+
182.0965	28	C13H12N+
183.0441	53	C12H7O2+
183.0683	24	C12H9NO+
183.0806	212	C13H11O+
184.0519	114	C12H8O2+
184.0757	30	C12H10NO+
184.0884	81	C13H12O+
185.0596	99	C12H9O2+
185.0959	41	C13H13O+
186.0551	19	C11H8NO2+
186.0679	23	C12H10O2+
187.0392	14	C11H7O3+
187.0759	60	C12H11O2+
188.0708	150	C11H10NO2+
188.0831	33	C12H12O2+
189.0545	35	C11H9O3+
189.0698	207	C15H9+
189.0789	11	C11H11NO2+
190.0498	26	C10H8NO3+
190.0629	31	C11H10O3+
190.0777	116	C15H10+
190.0863	38	C11H12NO2+
191.0495	20	C14H7O+
191.0708	82	C11H11O3+
191.0855	225	C15H11+
192.0574	69	C14H8O+
192.0655	62	C10H10NO3+
192.0805	56	C14H10N+
192.0933	25	C15H12+
193.065	175	C14H9O+
193.0885	46	C14H11N+
193.0998	20	C15H13+
194.0727	367	C14H10O+
194.096	66	C14H12N+
195.0805	752	C14H11O+
196.0521	69	C13H8O2+
196.076	73	C13H10NO+
196.0883	352	C14H12O+
197.0598	398	C13H9O2+
197.0838	108	C13H11NO+
197.0956	117	C14H13O+
198.0674	232	C13H10O2+
198.0912	28	C13H12NO+
199.0392	20	C12H7O3+
199.0646	21	C12H9NO2+
199.0754	380	C13H11O2+
200.0468	28	C12H8O3+
200.0706	26	C12H10NO2+
200.0833	18	C13H12O2+
201.0547	53	C12H9O3+
201.0911	30	C13H13O2+
202.0775	31	C16H10+
202.087	20	C12H12NO2+
203.0707	22	C12H11O3+
203.0851	29	C16H11+
203.0945	37	C12H13NO2+
204.0569	33	C15H8O+
204.0657	63	C11H10NO3+
204.0807	68	C15H10N+
205.0649	472	C15H9O+
205.0877	38	C12H13O3+
206.0726	273	C15H10O+
206.0824	20	C11H12NO3+
206.0964	50	C15H12N+
207.0683	77	C14H9NO+
207.0804	662	C15H11O+
207.1019	35	C12H15O3+
208.0519	165	C14H8O2+
208.0757	111	C14H10NO+
208.0883	335	C15H12O+
208.1118	32	C15H14N+
209.0599	457	C14H9O2+
209.0836	88	C14H11NO+
209.096	307	C15H13O+
210.0675	223	C14H10O2+
210.0913	106	C14H12NO+
210.1033	31	C15H14O+
211.0637	37	C13H9NO2+
211.0753	492	C14H11O2+
211.099	60	C14H13NO+
211.1117	69	C15H15O+
212.0468	145	C13H8O3+
212.071	55	C13H10NO2+
212.083	353	C14H12O2+
212.1068	37	C14H14NO+
213.0546	105	C13H9O3+
213.0789	26	C13H11NO2+
213.0907	158	C14H13O2+
214.0511	16	C12H8NO3+
214.0623	70	C13H10O3+
214.0862	59	C13H12NO2+
215.0706	95	C13H11O3+
216.0781	25	C13H12O3+
217.0647	54	C16H9O+
217.0872	22	C13H13O3+
218.0719	91	C16H10O+
218.0797	14	C12H12NO3+
218.083	20	C12H12NO3+
218.0969	33	C13H14O3+
219.044	20	C15H7O2+
219.0676	39	C15H9NO+
219.08	269	C16H11O+
219.0909	19	C12H13NO3+
220.0519	175	C15H8O2+
220.0757	113	C15H10NO+
220.0883	84	C16H12O+
220.0985	15	C12H14NO3+
220.1107	14	C13H16O3+
221.0598	358	C15H9O2+
221.0835	124	C15H11NO+
221.0962	138	C16H13O+
222.0555	28	C14H8NO2+
222.0675	384	C15H10O2+
222.0915	210	C15H12NO+
223.0754	887	C15H11O2+
223.099	66	C15H13NO+
224.071	95	C14H10NO2+
224.0831	999	C15H12O2+
224.1068	91	C15H14NO+
225.0547	376	C14H9O3+
225.0784	219	C14H11NO2+
225.091	307	C15H13O2+
226.0624	241	C14H10O3+
226.0863	120	C14H12NO2+
226.0989	92	C15H14O2+
227.0702	598	C14H11O3+
227.1065	88	C15H15O2+
228.0417	19	C13H8O4+
228.0654	57	C13H10NO3+
228.0784	93	C14H12O3+
228.1017	44	C14H14NO2+
229.0501	64	C13H9O4+
229.0751	24	C13H11NO3+
229.0861	53	C14H13O3+
231.0793	17	C17H11O+
232.0515	29	C16H8O2+
232.0763	59	C16H10NO+
233.0598	163	C16H9O2+
233.0831	69	C16H11NO+
233.0954	24	C17H13O+
234.0678	235	C16H10O2+
234.0915	177	C16H12NO+
235.063	53	C15H9NO2+
235.0753	784	C16H11O2+
235.0966	98	C13H15O4+
236.0474	145	C15H8O3+
236.0705	178	C15H10NO2+
236.0833	369	C16H12O2+
236.1063	157	C16H14NO+
237.0546	409	C15H9O3+
237.0783	109	C15H11NO2+
237.091	511	C16H13O2+
238.0626	108	C15H10O3+
238.0862	168	C15H12NO2+
238.0989	113	C16H14O2+
239.0574	24	C14H9NO3+
239.0703	327	C15H11O3+
239.0939	121	C15H13NO2+
239.1067	491	C16H15O2+
240.0415	32	C14H8O4+
240.0654	75	C14H10NO3+
240.0781	582	C15H12O3+
240.1012	162	C15H14NO2+
241.0498	71	C14H9O4+
241.0735	41	C14H11NO3+
241.0859	417	C15H13O3+
242.0587	65	C14H10O4+
242.0811	159	C14H12NO3+
242.094	51	C15H14O3+
243.0653	110	C14H11O4+
243.0888	52	C14H13NO3+
243.1016	26	C15H15O3+
244.0729	37	C14H12O4+
246.0915	47	C17H12NO+
247.0624	23	C16H9NO2+
247.0755	118	C17H11O2+
247.0991	37	C17H13NO+
248.047	33	C16H8O3+
248.0717	83	C16H10NO2+
248.0827	93	C17H12O2+
248.1067	40	C17H14NO+
249.0548	122	C16H9O3+
249.0783	151	C16H11NO2+
249.0913	189	C17H13O2+
250.0628	289	C16H10O3+
250.086	313	C16H12NO2+
250.0991	59	C17H14O2+
251.0704	803	C16H11O3+
251.0939	126	C16H13NO2+
251.1068	155	C17H15O2+
252.0654	108	C15H10NO3+
252.0783	832	C16H12O3+
252.1009	217	C16H14NO2+
253.0497	276	C15H9O4+
253.0729	204	C15H11NO3+
253.086	207	C16H13O3+
253.1086	58	C16H15NO2+
253.122	15	C17H17O2+
254.058	69	C15H10O4+
254.081	115	C15H12NO3+
254.0941	58	C16H14O3+
254.1179	30	C16H16NO2+
255.0653	325	C15H11O4+
255.0893	29	C15H13NO3+
255.1016	222	C16H15O3+
256.0602	73	C14H10NO4+
256.0732	117	C15H12O4+
256.0962	110	C15H14NO3+
256.1102	19	C16H16O3+
257.044	46	C14H9O5+
257.0814	57	C15H13O4+
257.1051	58	C15H15NO3+
258.0891	15	C15H14O4+
258.1125	20	C15H16NO3+
259.0965	42	C15H15O4+
260.1074	18	C18H14NO+
261.054	18	C17H9O3+
261.0786	33	C17H11NO2+
262.0626	46	C17H10O3+
262.086	99	C17H12NO2+
263.0568	22	C16H9NO3+
263.0706	219	C17H11O3+
263.0939	123	C17H13NO2+
264.0419	20	C16H8O4+
264.065	86	C16H10NO3+
264.0787	134	C17H12O3+
264.1019	217	C17H14NO2+
265.05	133	C16H9O4+
265.0728	54	C16H11NO3+
265.0864	336	C17H13O3+
265.1087	57	C17H15NO2+
266.081	233	C16H12NO3+
266.0942	105	C17H14O3+
266.1178	77	C17H16NO2+
267.0661	207	C16H11O4+
267.0888	107	C16H13NO3+
267.1019	912	C17H15O3+
268.0731	354	C16H12O4+
268.0968	264	C16H14NO3+
269.069	15	C15H11NO4+
269.0812	221	C16H13O4+
269.1035	16	C16H15NO3+
269.1175	16	C17H17O3+
270.0746	88	C15H12NO4+
270.0891	46	C16H14O4+
270.1125	31	C16H16NO3+
271.0598	54	C15H11O5+
271.0828	72	C15H13NO4+
271.0973	28	C16H15O4+
272.0679	14	C15H12O5+
272.0917	23	C15H14NO4+
272.1286	32	C16H18NO3+
274.0865	23	C18H12NO2+
275.0699	14	C18H11O3+
275.0936	19	C18H13NO2+
276.065	22	C17H10NO3+
276.1022	42	C18H14NO2+
277.0495	28	C17H9O4+
277.073	37	C17H11NO3+
277.1101	26	C18H15NO2+
278.0575	37	C17H10O4+
278.0808	191	C17H12NO3+
278.0946	18	C18H14O3+
278.1174	35	C15H18O5+
279.0655	193	C17H11O4+
279.1023	45	C18H15O3+
280.0732	218	C17H12O4+
280.0968	233	C17H14NO3+
281.0444	57	C16H9O5+
281.068	56	C16H11NO4+
281.0843	63	C20H11NO+
281.1178	43	C18H17O3+
282.0754	39	C16H12NO4+
282.092	85	C20H12NO+
282.1121	166	C17H16NO3+
283.0821	19	C16H13NO4+
283.0969	234	C17H15O4+
284.0911	132	C16H14NO4+
284.128	20	C17H18NO3+
285.0763	30	C16H13O5+
285.0993	53	C16H15NO4+
286.1074	68	C16H16NO4+
287.0919	72	C16H15O5+
291.0888	31	C18H13NO3+
292.0968	130	C18H14NO3+
293.1039	101	C18H15NO3+
294.0745	95	C17H12NO4+
295.061	78	C17H11O5+
295.0975	224	C18H15O4+
296.0682	88	C17H12O5+
296.0909	132	C17H14NO4+
296.1279	32	C18H18NO3+
297.1122	41	C18H17O4+
298.0705	41	C16H12NO5+
299.1151	24	C17H17NO4+
300.1232	131	C17H18NO4+
304.0972	19	C19H14NO3+
306.0761	16	C18H12NO4+
306.1128	21	C19H16NO3+
307.1227	14	C19H17NO3+
308.0921	144	C18H14NO4+
308.1286	14	C19H18NO3+
309.0971	59	C18H15NO4+
310.1061	60	C18H16NO4+
311.0919	122	C18H15O5+
312.0875	17	C17H14NO5+
314.1011	22	C17H16NO5+
320.092	14	C19H14NO4+
322.107	22	C19H16NO4+
323.1153	29	C19H17NO4+
324.1235	58	C19H18NO4+
327.1091	18	C18H17NO5+
336.0861	20	C19H14NO5+
