Mass spectrum: Dibutyl phthalate; LC-ESI-QFT; MS2; CE: 15; R=17500; [M+H]+
Name: Dibutyl phthalate
Name: dibutyl benzene-1,2-dicarboxylate
Formula: C16H22O4
Exact mass: 278.1518
SMILES: CCCCOC(=O)C1=CC=CC=C1C(=O)OCCCC
InChI: InChI=1S/C16H22O4/c1-3-5-11-19-15(17)13-9-7-8-10-14(13)16(18)20-12-6-4-2/h7-10H,3-6,11-12H2,1-2H3
Instrument: Q Exactive Orbitrap (Thermo Scientific)
Instrument type: LC-ESI-QFT
Ms type: MS2
Ion mode: POSITIVE
Ionization: ESI
Fragmentation mode: HCD
Collision energy: 15
Resolution: 17500
Column name: Acquity BEH C18 1.7um, 2.1x150mm (Waters)
Retention time: 19.148 min
Base peak: 79.0211
Precursor m/z: 279.1591
Precursor type: [M+H]+
Precursor intensity: 10121899.75
m/z	relative intensity	assigned
57.0697	438	C4H9+
149.0232	999	C8H5O3+
223.0747	271	C15H11O2+
