Mass spectrum: Tolazamide; LC-ESI-QFT; MS2; CE: 60; R=17500; [M+H]+
Name: Tolazamide
Name: 1-(azepan-1-yl)-3-(4-methylphenyl)sulfonylurea
Formula: C14H21N3O3S
Exact mass: 311.1304
SMILES: CC1=CC=C(C=C1)S(=O)(=O)NC(=O)NN1CCCCCC1
InChI: InChI=1S/C14H21N3O3S/c1-12-6-8-13(9-7-12)21(19,20)16-14(18)15-17-10-4-2-3-5-11-17/h6-9H,2-5,10-11H2,1H3,(H2,15,16,18)
Instrument: Q Exactive Orbitrap (Thermo Scientific)
Instrument type: LC-ESI-QFT
Ms type: MS2
Ion mode: POSITIVE
Ionization: ESI
Fragmentation mode: HCD
Collision energy: 60
Resolution: 17500
Column name: Acquity BEH C18 1.7um, 2.1x150mm (Waters)
Retention time: 16.183 min
Base peak: 79.0212
Precursor m/z: 312.1376
Precursor type: [M+H]+
Precursor intensity: 11350140.8125
m/z	relative intensity	assigned
53.0022	4	C3HO+
53.0386	2	C4H5+
54.0338	15	C3H4N+
55.0178	11	C3H3O+
55.0416	19	C3H5N+
55.0542	41	C4H7+
56.0495	83	C3H6N+
57.0573	293	C3H7N+
59.0604	83	C2H7N2+
61.0396	91	CH5N2O+
63.0229	2	C5H3+
65.0385	139	C5H5+
67.0416	2	C4H5N+
67.0542	49	C5H7+
68.0494	436	C4H6N+
69.0572	75	C4H7N+
69.0698	57	C5H9+
70.065	744	C4H8N+
71.0239	6	C2H3N2O+
71.0603	2	C3H7N2+
71.0729	6	C4H9N+
72.0681	4	C3H8N2+
79.054	8	C6H7+
80.0493	2	C5H6N+
81.0698	10	C6H9+
82.0651	228	C5H8N+
83.0729	4	C5H9N+
83.0853	4	C6H11+
84.0807	82	C5H10N+
85.0648	3	C5H9O+
85.0759	7	C4H9N2+
91.0542	999	C7H7+
93.0698	3	C7H9+
95.0491	14	C6H7O+
96.0807	93	C6H10N+
97.0886	64	C6H11N+
98.0964	598	C6H12N+
99.1042	748	C6H13N+
108.057	11	C7H8O+
109.0647	461	C7H9O+
113.1072	157	C6H13N2+
114.0913	42	C6H12NO+
114.1152	12	C6H14N2+
115.1229	753	C6H15N2+
119.0603	637	C7H7N2+
120.0574	3	C8H8O+
123.0804	1	C8H11O+
131.094	44	C6H13NO2+
139.0866	33	C7H11N2O+
141.1021	443	C7H13N2O+
155.016	92	C7H7O2S+
156.1128	3	C7H14N3O+
172.0425	4	C7H10NO2S+
227.1174	1	C14H15N2O+
