Mass spectrum: Imazapic; LC-ESI-QFT; MS2; CE: 45; R=17500; [M+H]+
Name: Imazapic
Name: 5-methyl-2-(4-methyl-5-oxo-4-propan-2-yl-1H-imidazol-2-yl)pyridine-3-carboxylic acid
Formula: C14H17N3O3
Exact mass: 275.1270
SMILES: CC(C)C1(C)NC(=NC1=O)C1=NC=C(C)C=C1C(O)=O
InChI: InChI=1S/C14H17N3O3/c1-7(2)14(4)13(20)16-11(17-14)10-9(12(18)19)5-8(3)6-15-10/h5-7H,1-4H3,(H,18,19)(H,16,17,20)
Instrument: Q Exactive Orbitrap (Thermo Scientific)
Instrument type: LC-ESI-QFT
Ms type: MS2
Ion mode: POSITIVE
Ionization: ESI
Fragmentation mode: HCD
Collision energy: 45
Resolution: 17500
Column name: Acquity BEH C18 1.7um, 2.1x150mm (Waters)
Retention time: 13.617 min
Base peak: 79.0211
Precursor m/z: 276.1343
Precursor type: [M+H]+
Precursor intensity: 21767425.53125
m/z	relative intensity	assigned
53.0022	6	C3HO+
53.0387	1	C4H5+
56.0494	1	C3H6N+
58.0651	26	C3H8N+
67.0542	5	C5H7+
69.0698	597	C5H9+
70.0651	4	C4H8N+
71.0728	3	C4H9N+
71.0855	13	C5H11+
72.0443	1	C3H6NO+
72.0806	1	C4H10N+
74.0964	1	C4H12N+
84.0807	4	C5H10N+
86.0964	773	C5H12N+
92.0496	2	C6H6N+
94.0654	1	C6H8N+
97.0648	42	C6H9O+
114.0914	9	C6H12NO+
118.0528	2	C7H6N2+
119.0604	74	C7H7N2+
124.0757	5	C7H10NO+
145.0396	43	C8H5N2O+
146.0481	1	C8H6N2O+
146.0965	7	C10H12N+
147.0554	6	C8H7N2O+
147.0918	5	C9H11N2+
148.0396	1	C8H6NO2+
150.055	3	C8H8NO2+
161.071	79	C9H9N2O+
162.0662	206	C8H8N3O+
163.0501	895	C8H7N2O2+
165.0662	2	C8H9N2O2+
170.0966	3	C12H12N+
175.0502	3	C9H7N2O2+
177.0658	1	C9H9N2O2+
180.0767	10	C8H10N3O2+
185.1073	6	C12H13N2+
187.0741	9	C10H9N3O+
187.123	147	C12H15N2+
188.0818	196	C10H10N3O+
189.1022	46	C11H13N2O+
190.0863	11	C11H12NO2+
190.0974	21	C10H12N3O+
191.0812	11	C10H11N2O2+
198.0784	2	C12H10N2O+
204.1496	3	C12H18N3+
205.0846	24	C10H11N3O2+
206.0921	3	C10H12N3O2+
213.1022	191	C13H13N2O+
215.0689	20	C11H9N3O2+
216.0767	764	C11H10N3O2+
220.1082	1	C11H14N3O2+
230.1289	148	C13H16N3O+
231.1128	999	C13H15N2O2+
233.0794	34	C11H11N3O3+
234.0872	409	C11H12N3O3+
248.1393	135	C13H18N3O2+
258.1238	15	C14H16N3O2+
276.1342	234	C14H18N3O3+
