Mass spectrum: Fadrozole; LC-ESI-QFT; MS2; CE: 90; R=17500; [M+H]+
Name: Fadrozole
Name: 4-(5,6,7,8-tetrahydroimidazo[1,5-a]pyridin-5-yl)benzonitrile
Formula: C14H13N3
Exact mass: 223.1109
SMILES: N#CC1=CC=C(C=C1)C1CCCC2=CN=CN12
InChI: InChI=1S/C14H13N3/c15-8-11-4-6-12(7-5-11)14-3-1-2-13-9-16-10-17(13)14/h4-7,9-10,14H,1-3H2
Instrument: Q Exactive Orbitrap (Thermo Scientific)
Instrument type: LC-ESI-QFT
Ms type: MS2
Ion mode: POSITIVE
Ionization: ESI
Fragmentation mode: HCD
Collision energy: 90
Resolution: 17500
Column name: Acquity BEH C18 1.7um, 2.1x150mm (Waters)
Retention time: 10.622 min
Base peak: 79.0211
Precursor m/z: 224.1182
Precursor type: [M+H]+
Precursor intensity: 17318835.75
m/z	relative intensity	assigned
52.0182	2	C3H2N+
53.0386	1	C4H5+
54.0338	128	C3H4N+
55.0417	34	C3H5N+
67.0416	1	C4H5N+
68.0494	14	C4H6N+
69.0446	5	C3H5N2+
80.0495	13	C5H6N+
81.0447	860	C4H5N2+
82.0525	999	C4H6N2+
89.0385	22	C7H5+
91.0542	1	C7H7+
94.0651	2	C6H8N+
95.0491	3	C4H5N3+
95.0604	24	C5H7N2+
103.0542	16	C8H7+
104.0493	1	C7H6N+
105.0447	1	C6H5N2+
107.0604	18	C6H7N2+
108.0682	17	C6H8N2+
115.0542	19	C9H7+
116.0494	86	C8H6N+
121.076	1	C7H9N2+
128.0499	1	C9H6N+
128.062	13	C10H8+
129.0698	10	C10H9+
130.0651	5	C9H8N+
140.0495	5	C10H6N+
141.0572	1	C10H7N+
142.0652	7	C10H8N+
145.0646	1	C8H7N3+
146.0966	1	C10H12N+
154.065	1	C11H8N+
155.0603	3	C10H7N2+
156.0808	1	C11H10N+
169.0757	1	C11H9N2+
224.118	1	C14H14N3+
