Mass spectrum: Sulfaquinoxaline; LC-ESI-QFT; MS2; CE: 15; R=17500; [M+H]+
Name: Sulfaquinoxaline
Name: 4-amino-N-quinoxalin-2-ylbenzenesulfonamide
Formula: C14H12N4O2S
Exact mass: 300.0681
SMILES: NC1=CC=C(C=C1)S(=O)(=O)NC1=CN=C2C=CC=CC2=N1
InChI: InChI=1S/C14H12N4O2S/c15-10-5-7-11(8-6-10)21(19,20)18-14-9-16-12-3-1-2-4-13(12)17-14/h1-9H,15H2,(H,17,18)
Instrument: Q Exactive Orbitrap (Thermo Scientific)
Instrument type: LC-ESI-QFT
Ms type: MS2
Ion mode: POSITIVE
Ionization: ESI
Fragmentation mode: HCD
Collision energy: 15
Resolution: 17500
Column name: Acquity BEH C18 1.7um, 2.1x150mm (Waters)
Retention time: 13.985 min
Base peak: 79.0211
Precursor m/z: 301.0754
Precursor type: [M+H]+
Precursor intensity: 6080762.125
m/z	relative intensity	assigned
92.0497	5	C6H6N+
94.0652	1	C6H8N+
108.0443	9	C6H6NO+
146.0713	29	C8H8N3+
152.0816	1	C7H10N3O+
156.0114	445	C6H6NO2S+
208.0175	2	C8H6N3O2S+
226.0278	1	C14H2N4+
235.0979	5	C14H11N4+
301.0754	999	C14H13N4O2S+
