Mass spectrum: Tolnaftate; LC-ESI-QFT; MS2; CE: 30; R=17500; [M+H]+
Name: Tolnaftate
Name: O-naphthalen-2-yl N-methyl-N-(3-methylphenyl)carbamothioate
Formula: C19H17NOS
Exact mass: 307.1031
SMILES: CN(C(=S)OC1=CC2=CC=CC=C2C=C1)C1=CC=CC(C)=C1
InChI: InChI=1S/C19H17NOS/c1-14-6-5-9-17(12-14)20(2)19(22)21-18-11-10-15-7-3-4-8-16(15)13-18/h3-13H,1-2H3
Instrument: Q Exactive Orbitrap (Thermo Scientific)
Instrument type: LC-ESI-QFT
Ms type: MS2
Ion mode: POSITIVE
Ionization: ESI
Fragmentation mode: HCD
Collision energy: 30
Resolution: 17500
Column name: Acquity BEH C18 1.7um, 2.1x150mm (Waters)
Retention time: 19.422 min
Base peak: 79.0211
Precursor m/z: 308.1104
Precursor type: [M+H]+
Precursor intensity: 17942878.75
m/z	relative intensity	assigned
91.0539	6	C7H7+
107.0493	2	C7H7O+
108.0808	1	C7H10N+
109.065	1	C7H9O+
120.0808	118	C8H10N+
121.0885	8	C8H11N+
123.0262	3	C7H7S+
133.0521	1	C8H7NO+
148.0756	999	C9H10NO+
152.0528	6	C8H10NS+
159.0262	10	C10H7S+
164.0528	88	C9H10NS+
165.024	2	C8H7NOS+
180.0477	171	C9H10NOS+
308.1104	27	C19H18NOS+
