Mass spectrum: 2-Aminobenzimidazole; LC-ESI-QFT; MS2; CE: 90; R=17500; [M+H]+
Name: 2-Aminobenzimidazole
Formula: C7H7N3
Exact mass: 133.0640
SMILES: NC1=NC2=CC=CC=C2N1
InChI: InChI=1S/C7H7N3/c8-7-9-5-3-1-2-4-6(5)10-7/h1-4H,(H3,8,9,10)
Instrument: Q Exactive Orbitrap (Thermo Scientific)
Instrument type: LC-ESI-QFT
Ms type: MS2
Ion mode: POSITIVE
Ionization: ESI
Fragmentation mode: HCD
Collision energy: 90
Resolution: 17500
Column name: Acquity BEH C18 1.7um, 2.1x150mm (Waters)
Retention time: 8.666 min
Base peak: 79.0212
Precursor m/z: 134.0713
Precursor type: [M+H]+
Precursor intensity: 25922548.25
m/z	relative intensity	assigned
53.0386	1	C4H5+
65.0385	370	C5H5+
66.0464	2	C5H6+
80.0494	81	C5H6N+
90.0338	6	C6H4N+
92.0495	864	C6H6N+
93.0573	178	C6H7N+
107.0604	153	C6H7N2+
117.0447	18	C7H5N2+
118.0527	1	C7H6N2+
133.0635	28	C7H7N3+
134.0712	999	C7H8N3+
