Mass spectrum: SAR102608; LC-ESI-QFT; MS2; CE: 60; R=17500; [M-H]-
Name: SAR102608
Name: N-(5-Fluoro-3-methyl-1H-indol-1-yl)-4-methyl-2-(pyridin-2-yl)pyrimidine-5-carboxamide
Name: N-(5-fluoro-3-methylindol-1-yl)-4-methyl-2-pyridin-2-ylpyrimidine-5-carboxamide
Formula: C20H16FN5O
Exact mass: 361.1339
SMILES: CC1=CN(NC(=O)C2=C(C)N=C(N=C2)C2=CC=CC=N2)C2=CC=C(F)C=C12
InChI: InChI=1S/C20H16FN5O/c1-12-11-26(18-7-6-14(21)9-15(12)18)25-20(27)16-10-23-19(24-13(16)2)17-5-3-4-8-22-17/h3-11H,1-2H3,(H,25,27)
Instrument: Q Exactive Orbitrap (Thermo Scientific)
Instrument type: LC-ESI-QFT
Ms type: MS2
Ion mode: NEGATIVE
Ionization: ESI
Fragmentation mode: HCD
Collision energy: 60
Resolution: 17500
Column name: Acquity BEH C18 1.7um, 2.1x150mm (Waters)
Retention time: 17.003 min
Base peak: 322.1196
Precursor m/z: 360.1266
Precursor type: [M-H]-
Precursor intensity: 5944101.69043
m/z	relative intensity	assigned
126.0349	13	C9H4N-
128.0506	4	C9H6N-
146.0412	6	C9H5FN-
147.049	1	C9H6FN-
148.0568	999	C9H7FN-
159.0362	2	C9H4FN2-
161.0517	3	C9H6FN2-
164.0517	14	C9H7FNO-
170.0724	2	C10H8N3-
179.0387	3	C12H5NO-
189.047	14	C10H6FN2O-
