Mass spectrum: 4-Aminoazobenzene; LC-ESI-QFT; MS2; CE: 90; R=17500; [M+H]+
Name: 4-Aminoazobenzene
Name: 4-phenyldiazenylaniline
Formula: C12H11N3
Exact mass: 197.0953
SMILES: C1=CC=C(C=C1)N=NC2=CC=C(C=C2)N
InChI: InChI=1S/C12H11N3/c13-10-6-8-12(9-7-10)15-14-11-4-2-1-3-5-11/h1-9H,13H2
Instrument: Q Exactive Orbitrap (Thermo Scientific)
Instrument type: LC-ESI-QFT
Ms type: MS2
Ion mode: POSITIVE
Ionization: ESI
Fragmentation mode: HCD
Collision energy: 90
Resolution: 17500
Column name: Acquity BEH C18 1.7um, 2.1x150mm (Waters)
Retention time: 17.237 min
Base peak: 79.0212
Precursor m/z: 198.1026
Precursor type: [M+H]+
Precursor intensity: 20474701.125
m/z	relative intensity	assigned
50.0151	10	C4H2+
51.0229	10	C4H3+
53.0386	336	C4H5+
65.0385	81	C5H5+
66.0464	9	C5H6+
67.0542	7	C5H7+
76.0306	1	C6H4+
77.0385	297	C6H5+
78.0338	1	C5H4N+
79.0416	15	C5H5N+
79.0542	3	C6H7+
80.0495	4	C5H6N+
81.0699	3	C6H9+
91.0543	2	C7H7+
92.0494	27	C6H6N+
93.0573	63	C6H7N+
94.0414	38	C4H4N3+
95.0491	999	C4H5N3+
105.0447	422	C6H5N2+
106.0525	30	C6H6N2+
106.065	5	C7H8N+
107.0492	1	C5H5N3+
107.0604	2	C6H7N2+
109.0649	9	C5H7N3+
128.0621	1	C10H8+
152.0619	11	C12H8+
154.0652	1	C11H8N+
168.0807	3	C12H10N+
169.0645	1	C10H7N3+
169.0886	2	C12H11N+
181.0762	1	C12H9N2+
196.0869	1	C12H10N3+
