Mass spectrum: Etoxazole; LC-ESI-QFT; MS2; CE: 45; R=17500; [M+H]+
Name: Etoxazole
Name: 4-(4-tert-butyl-2-ethoxyphenyl)-2-(2,6-difluorophenyl)-4,5-dihydro-1,3-oxazole
Formula: C21H23F2NO2
Exact mass: 359.1697
SMILES: CCOC1=C(C=CC(=C1)C(C)(C)C)C1COC(=N1)C1=C(F)C=CC=C1F
InChI: InChI=1S/C21H23F2NO2/c1-5-25-18-11-13(21(2,3)4)9-10-14(18)17-12-26-20(24-17)19-15(22)7-6-8-16(19)23/h6-11,17H,5,12H2,1-4H3
Instrument: Q Exactive Orbitrap (Thermo Scientific)
Instrument type: LC-ESI-QFT
Ms type: MS2
Ion mode: POSITIVE
Ionization: ESI
Fragmentation mode: HCD
Collision energy: 45
Resolution: 17500
Column name: Acquity BEH C18 1.7um, 2.1x150mm (Waters)
Retention time: 19.911 min
Base peak: 79.0212
Precursor m/z: 360.177
Precursor type: [M+H]+
Precursor intensity: 126522706.0156
m/z	relative intensity	assigned
53.0022	1	C3HO+
56.0495	1	C3H6N+
57.0699	149	C4H9+
63.023	1	C5H3+
91.0542	19	C7H7+
107.0491	2	C7H7O+
113.0196	1	C6H3F2+
119.0491	13	C8H7O+
119.0855	6	C9H11+
121.0648	20	C8H9O+
127.0353	1	C7H5F2+
137.0597	2	C8H9O2+
139.0359	1	C8H5F2+
140.0308	2	C7H4F2N+
141.0145	999	C7H3F2O+
145.065	1	C10H9O+
147.0803	20	C10H11O+
158.0412	36	C7H6F2NO+
159.0805	5	C11H11O+
159.1168	1	C12H15+
161.0961	1	C11H13O+
162.0551	1	C9H8NO2+
162.1039	3	C11H14O+
163.1115	3	C11H15O+
165.0911	1	C10H13O2+
174.104	1	C12H14O+
175.1115	3	C12H15O+
176.1196	2	C12H16O+
177.1274	47	C12H17O+
182.0411	4	C9H6F2NO+
187.1121	1	C13H15O+
188.1193	2	C13H16O+
190.0863	1	C11H12NO2+
198.0724	1	C10H10F2NO+
203.1432	7	C14H19O+
204.1383	2	C13H18NO+
219.1616	6	C14H21NO+
233.0772	8	C14H11F2O+
258.0723	2	C15H10F2NO+
261.072	1	C15H11F2O2+
261.1085	3	C16H15F2O+
273.1086	1	C17H15F2O+
286.104	2	C17H14F2NO+
304.1143	10	C17H16F2NO2+
