Mass spectrum: Tolbutamide; LC-ESI-QFT; MS2; CE: 75; R=17500; [M+H]+
Name: Tolbutamide
Name: 1-butyl-3-(4-methylphenyl)sulfonylurea
Formula: C12H18N2O3S
Exact mass: 270.1038
SMILES: CCCCNC(=O)NS(=O)(=O)C1=CC=C(C)C=C1
InChI: InChI=1S/C12H18N2O3S/c1-3-4-9-13-12(15)14-18(16,17)11-7-5-10(2)6-8-11/h5-8H,3-4,9H2,1-2H3,(H2,13,14,15)
Instrument: Q Exactive Orbitrap (Thermo Scientific)
Instrument type: LC-ESI-QFT
Ms type: MS2
Ion mode: POSITIVE
Ionization: ESI
Fragmentation mode: HCD
Collision energy: 75
Resolution: 17500
Column name: Acquity BEH C18 1.7um, 2.1x150mm (Waters)
Retention time: 16.050 min
Base peak: 79.0211
Precursor m/z: 271.1111
Precursor type: [M+H]+
Precursor intensity: 3936954.9375
m/z	relative intensity	assigned
53.0022	6	C3HO+
55.0179	5	C3H3O+
57.0699	146	C4H9+
63.023	2	C5H3+
65.0386	154	C5H5+
67.0542	14	C5H7+
74.0964	69	C4H12N+
79.0544	1	C6H7+
79.9801	4	H2NO2S+
91.0543	999	C7H7+
92.0622	2	C7H8+
93.0699	8	C7H9+
95.0491	7	C6H7O+
106.0652	3	C7H8N+
108.057	6	C7H8O+
109.0649	192	C7H9O+
119.0604	245	C7H7N2+
120.0575	1	C8H8O+
155.0163	6	C7H7O2S+
