Mass spectrum: Bispyribac; LC-ESI-QFT; MS2; CE: 60; R=17500; [M-H]-
Name: Bispyribac
Formula: C19H18N4O8
Exact mass: 430.1125
SMILES: COC1=CC(OC)=NC(OC2=CC=CC(OC3=NC(OC)=CC(OC)=N3)=C2C(O)=O)=N1
InChI: InChI=1S/C19H18N4O8/c1-26-12-8-13(27-2)21-18(20-12)30-10-6-5-7-11(16(10)17(24)25)31-19-22-14(28-3)9-15(23-19)29-4/h5-9H,1-4H3,(H,24,25)
Instrument: Q Exactive Orbitrap (Thermo Scientific)
Instrument type: LC-ESI-QFT
Ms type: MS2
Ion mode: NEGATIVE
Ionization: ESI
Fragmentation mode: HCD
Collision energy: 60
Resolution: 17500
Column name: Acquity BEH C18 1.7um, 2.1x150mm (Waters)
Retention time: 17.312 min
Base peak: 112.9856
Precursor m/z: 429.1052
Precursor type: [M-H]-
Precursor intensity: 6284631.71875
m/z	relative intensity	assigned
54.0348	24	C3H4N-
64.0067	44	C3N2-
65.0146	41	C3HN2-
65.9985	999	C3NO-
79.0302	487	C4H3N2-
87.0563	33	C3H7N2O-
91.0189	62	C6H3O-
97.017	51	C4H3NO2-
98.0249	36	C4H4NO2-
109.0042	22	C4HN2O2-
110.0122	21	C4H2N2O2-
123.0199	25	C5H3N2O2-
125.0356	165	C5H5N2O2-
135.0202	22	C6H3N2O2-
136.0278	43	C6H4N2O2-
140.0228	224	C5H4N2O3-
155.0462	962	C6H7N2O3-
164.0228	49	C7H4N2O3-
179.0463	59	C8H7N2O3-
