Mass spectrum: Triflumizole; LC-ESI-QFT; MS2; CE: 90; R=17500; [M+H]+
Name: Triflumizole
Name: N-[4-chloro-2-(trifluoromethyl)phenyl]-1-imidazol-1-yl-2-propoxyethanimine
Formula: C15H15ClF3N3O
Exact mass: 345.0856
SMILES: CCCOCC(=NC1=C(C=C(C=C1)Cl)C(F)(F)F)N2C=CN=C2
InChI: InChI=1S/C15H15ClF3N3O/c1-2-7-23-9-14(22-6-5-20-10-22)21-13-4-3-11(16)8-12(13)15(17,18)19/h3-6,8,10H,2,7,9H2,1H3
Instrument: Q Exactive Orbitrap (Thermo Scientific)
Instrument type: LC-ESI-QFT
Ms type: MS2
Ion mode: POSITIVE
Ionization: ESI
Fragmentation mode: HCD
Collision energy: 90
Resolution: 17500
Column name: Acquity BEH C18 1.7um, 2.1x150mm (Waters)
Retention time: 19.024 min
Base peak: 79.0211
Precursor m/z: 346.0929
Precursor type: [M+H]+
Precursor intensity: 25546528
m/z	relative intensity	assigned
69.0447	999	C3H5N2+
