Mass spectrum: Sulfisoxazole; LC-ESI-QFT; MS2; CE: 75; R=17500; [M-H]-
Name: Sulfisoxazole
Name: 4-amino-N-(3,4-dimethyl-1,2-oxazol-5-yl)benzenesulfonamide
Formula: C11H13N3O3S
Exact mass: 267.0678
SMILES: CC1=NOC(NS(=O)(=O)C2=CC=C(N)C=C2)=C1C
InChI: InChI=1S/C11H13N3O3S/c1-7-8(2)13-17-11(7)14-18(15,16)10-5-3-9(12)4-6-10/h3-6,14H,12H2,1-2H3
Instrument: Q Exactive Orbitrap (Thermo Scientific)
Instrument type: LC-ESI-QFT
Ms type: MS2
Ion mode: NEGATIVE
Ionization: ESI
Fragmentation mode: HCD
Collision energy: 75
Resolution: 17500
Column name: Acquity BEH C18 1.7um, 2.1x150mm (Waters)
Retention time: 12.443 min
Base peak: 266.0605
Precursor m/z: 266.0605
Precursor type: [M-H]-
Precursor intensity: 9435306.272949
m/z	relative intensity	assigned
55.0189	18	C3H3O-
61.9706	140	NOS-
63.9624	999	O2S-
65.9986	4	C3NO-
66.0349	4	C4H4N-
70.0297	4	C3H4NO-
77.9656	78	NO2S-
78.035	4	C5H4N-
78.9734	204	HNO2S-
79.9812	507	H2NO2S-
80.9651	17	HO3S-
82.0299	21	C4H4NO-
84.0455	51	C4H6NO-
85.0295	4	C4H5O2-
90.0349	4	C6H4N-
91.0427	34	C6H5N-
92.0506	228	C6H6N-
93.0345	3	C6H5O-
93.9604	116	NO3S-
94.0298	8	C5H4NO-
95.025	3	C4H3N2O-
107.0377	130	C6H5NO-
107.0614	8	C6H7N2-
108.0455	147	C6H6NO-
109.0407	14	C5H5N2O-
117.0456	5	C7H5N2-
119.0615	6	C7H7N2-
133.0407	6	C7H5N2O-
155.0046	12	C6H5NO2S-
156.0125	305	C6H6NO2S-
157.0772	12	C10H9N2-
171.0234	553	C6H7N2O2S-
172.0074	28	C6H6NO3S-
221.0389	8	C10H9N2O2S-
239.0494	20	C10H11N2O3S-
