Mass spectrum: 4`-Sulfamylacetanilide; LC-ESI-QFT; MS2; CE: 15; R=17500; [M-H]-
Name: 4'-Sulfamylacetanilide
Name: 4-Acetamidobenzenesulfonamide
Name: N-(4-sulfamoylphenyl)acetamide
Formula: C8H10N2O3S
Exact mass: 214.0412
SMILES: CC(=O)NC1=CC=C(C=C1)S(N)(=O)=O
InChI: InChI=1S/C8H10N2O3S/c1-6(11)10-7-2-4-8(5-3-7)14(9,12)13/h2-5H,1H3,(H,10,11)(H2,9,12,13)
Instrument: Q Exactive Orbitrap (Thermo Scientific)
Instrument type: LC-ESI-QFT
Ms type: MS2
Ion mode: NEGATIVE
Ionization: ESI
Fragmentation mode: HCD
Collision energy: 15
Resolution: 17500
Column name: Acquity BEH C18 1.7um, 2.1x150mm (Waters)
Retention time: 8.232 min
Base peak: 204.124
Precursor m/z: 213.0339
Precursor type: [M-H]-
Precursor intensity: 4177284.514648
m/z	relative intensity	assigned
77.9655	89	NO2S-
78.9733	2	HNO2S-
79.9573	1	O3S-
79.9814	1	H2NO2S-
92.0505	1	C6H6N-
106.0536	5	C6H6N2-
133.0536	2	C8H7NO-
134.0611	75	C8H8NO-
149.0481	3	C8H7NO2-
149.072	67	C8H9N2O-
171.0233	41	C6H7N2O2S-
197.0152	2	C8H7NO3S-
213.0339	999	C8H9N2O3S-
