Mass spectrum: CP-671305; LC-ESI-QFT; MS2; CE: 75; R=17500; [M-H]-
Name: CP-671305
Name: (2R)-2-[4-[[[2-(1,3-benzodioxol-5-yloxy)pyridine-3-carbonyl]amino]methyl]-3-fluorophenoxy]propanoic acid
Formula: C23H19FN2O7
Exact mass: 454.1176
SMILES: C[C@@H](OC1=CC=C(CNC(=O)C2=CC=CN=C2OC2=CC=C3OCOC3=C2)C(F)=C1)C(O)=O
InChI: InChI=1S/C23H19FN2O7/c1-13(23(28)29)32-15-5-4-14(18(24)9-15)11-26-21(27)17-3-2-8-25-22(17)33-16-6-7-19-20(10-16)31-12-30-19/h2-10,13H,11-12H2,1H3,(H,26,27)(H,28,29)/t13-/m1/s1
Instrument: Q Exactive Orbitrap (Thermo Scientific)
Instrument type: LC-ESI-QFT
Ms type: MS2
Ion mode: NEGATIVE
Ionization: ESI
Fragmentation mode: HCD
Collision energy: 75
Resolution: 17500
Column name: Acquity BEH C18 1.7um, 2.1x150mm (Waters)
Retention time: 16.733 min
Base peak: 316.055
Precursor m/z: 453.1104
Precursor type: [M-H]-
Precursor intensity: 13096631.5332
m/z	relative intensity	assigned
50.0035	2	C3N-
65.0033	3	C4HO-
65.0397	6	C5H5-
65.9985	47	C3NO-
66.0349	93	C4H4N-
67.0189	29	C4H3O-
68.0142	21	C3H2NO-
68.9983	2	C3HO2-
69.0347	5	C4H5O-
71.0138	12	C3H3O2-
76.0194	11	C5H2N-
78.0349	69	C5H4N-
80.0508	2	C5H6N-
81.022	9	C4H3NO-
81.0346	2	C5H5O-
90.035	31	C6H4N-
91.019	15	C6H3O-
91.0302	56	C5H3N2-
92.0142	42	C5H2NO-
93.0346	15	C6H5O-
93.0459	6	C5H5N2-
94.0299	954	C5H4NO-
95.0138	33	C5H3O2-
96.0092	6	C4H2NO2-
102.0352	2	C7H4N-
106.0299	86	C6H4NO-
107.0377	821	C6H5NO-
108.0455	554	C6H6NO-
109.0169	25	C5H3NO2-
109.0295	4	C6H5O2-
117.0458	18	C7H5N2-
118.0299	999	C7H4NO-
119.025	200	C6H3N2O-
121.0297	3	C7H5O2-
122.0248	15	C6H4NO2-
134.0248	337	C7H4NO2-
135.0326	24	C7H5NO2-
136.0404	157	C7H6NO2-
137.0359	2	C6H5N2O2-
142.0661	2	C10H8N-
143.0618	3	C9H7N2-
144.0454	8	C9H6NO-
146.0247	22	C8H4NO2-
152.0354	18	C7H6NO3-
154.054	2	C10H6N2-
155.0616	10	C10H7N2-
157.0533	6	C10H7NO-
158.0611	17	C10H8NO-
162.0197	5	C8H4NO3-
167.0617	2	C11H7N2-
168.0454	3	C11H6NO-
171.0564	5	C10H7N2O-
172.0409	2	C10H6NO2-
182.0485	17	C11H6N2O-
183.0564	59	C11H7N2O-
184.0405	3	C11H6NO2-
184.0641	15	C11H8N2O-
185.0719	18	C11H9N2O-
198.0434	2	C11H6N2O2-
199.051	3	C11H7N2O2-
210.0435	8	C12H6N2O2-
211.0513	132	C12H7N2O2-
227.0462	6	C12H7N2O3-
228.0541	39	C12H8N2O3-
229.0617	21	C12H9N2O3-
