Mass spectrum: Fadrozole; LC-ESI-QFT; MS2; CE: 30; R=17500; [M+H]+
Name: Fadrozole
Name: 4-(5,6,7,8-tetrahydroimidazo[1,5-a]pyridin-5-yl)benzonitrile
Formula: C14H13N3
Exact mass: 223.1109
SMILES: N#CC1=CC=C(C=C1)C1CCCC2=CN=CN12
InChI: InChI=1S/C14H13N3/c15-8-11-4-6-12(7-5-11)14-3-1-2-13-9-16-10-17(13)14/h4-7,9-10,14H,1-3H2
Instrument: Q Exactive Orbitrap (Thermo Scientific)
Instrument type: LC-ESI-QFT
Ms type: MS2
Ion mode: POSITIVE
Ionization: ESI
Fragmentation mode: HCD
Collision energy: 30
Resolution: 17500
Column name: Acquity BEH C18 1.7um, 2.1x150mm (Waters)
Retention time: 10.622 min
Base peak: 79.0211
Precursor m/z: 224.1182
Precursor type: [M+H]+
Precursor intensity: 17183511.5
m/z	relative intensity	assigned
69.0447	1	C3H5N2+
81.0447	56	C4H5N2+
82.0525	31	C4H6N2+
95.0603	3	C5H7N2+
108.0681	3	C6H8N2+
116.0492	1	C8H6N+
156.081	1	C11H10N+
224.1181	999	C14H14N3+
