Mass spectrum: Deethylatrazine; LC-ESI-QFT; MS2; CE: 15; R=17500; [M+H]+
Name: Deethylatrazine
Name: 6-chloro-2-N-propan-2-yl-1,3,5-triazine-2,4-diamine
Formula: C6H10ClN5
Exact mass: 187.0625
SMILES: CC(C)NC1=NC(Cl)=NC(N)=N1
InChI: InChI=1S/C6H10ClN5/c1-3(2)9-6-11-4(7)10-5(8)12-6/h3H,1-2H3,(H3,8,9,10,11,12)
Instrument: Q Exactive Orbitrap (Thermo Scientific)
Instrument type: LC-ESI-QFT
Ms type: MS2
Ion mode: POSITIVE
Ionization: ESI
Fragmentation mode: HCD
Collision energy: 15
Resolution: 17500
Column name: Acquity BEH C18 1.7um, 2.1x150mm (Waters)
Retention time: 13.617 min
Base peak: 79.0212
Precursor m/z: 188.0697
Precursor type: [M+H]+
Precursor intensity: 4809740.59375
m/z	relative intensity	assigned
68.0242	1	C2H2N3+
79.0057	5	CH4ClN2+
104.0009	5	C2H3ClN3+
110.0462	2	C3H4N5+
146.0228	245	C3H5ClN5+
188.0698	999	C6H11ClN5+
