Mass spectrum: SAR115740; LC-ESI-QFT; MS2; CE: 75; R=17500; [M+H]+
Name: SAR115740
Name: 5-fluoro-1-[(3-fluorophenyl)methyl]-N-(1H-indol-5-yl)indole-2-carboxamide
Formula: C24H17F2N3O
Exact mass: 401.1340
SMILES: FC1=CC=C2N(CC3=CC(F)=CC=C3)C(=CC2=C1)C(=O)NC1=CC=C2NC=CC2=C1
InChI: InChI=1S/C24H17F2N3O/c25-18-3-1-2-15(10-18)14-29-22-7-4-19(26)11-17(22)13-23(29)24(30)28-20-5-6-21-16(12-20)8-9-27-21/h1-13,27H,14H2,(H,28,30)
Instrument: Q Exactive Orbitrap (Thermo Scientific)
Instrument type: LC-ESI-QFT
Ms type: MS2
Ion mode: POSITIVE
Ionization: ESI
Fragmentation mode: HCD
Collision energy: 75
Resolution: 17500
Column name: Acquity BEH C18 1.7um, 2.1x150mm (Waters)
Retention time: 18.363 min
Base peak: 79.0212
Precursor m/z: 402.1412
Precursor type: [M+H]+
Precursor intensity: 6393287.71875
m/z	relative intensity	assigned
57.0135	5	C3H2F+
59.0292	4	C3H4F+
63.0228	3	C5H3+
65.0384	1	FH4N3+
80.0495	1	C5H6N+
83.0291	102	C5H4F+
89.0386	13	C7H5+
95.0492	1	C6H7O+
96.0445	2	C5H6NO+
104.0495	114	C7H6N+
105.045	1	C6H5N2+
105.0573	6	C7H7N+
106.0652	3	C7H8N+
107.0292	62	C7H4F+
108.0445	1	C6H6NO+
109.0448	999	C7H6F+
110.0399	6	C6H5FN+
113.0398	1	C6H6FO+
116.0495	18	C8H6N+
117.0573	5	C8H7N+
123.024	2	C7H4FO+
123.0351	1	C6H4FN2+
128.0494	1	C9H6N+
130.0526	2	C8H6N2+
131.0605	300	C8H7N2+
132.0682	486	C8H8N2+
133.076	14	C8H9N2+
134.04	10	C8H5FN+
134.06	12	C8H8NO+
135.0478	10	C8H6FN+
136.0557	56	C8H7FN+
143.0604	15	C9H7N2+
144.0555	4	C8H6N3+
145.0762	3	C9H9N2+
146.0399	1	C9H5FN+
148.0557	22	C9H7FN+
149.0272	5	C8H4FNO+
150.0349	3	C8H5FNO+
152.0506	13	C8H7FNO+
159.0552	1	C9H7N2O+
161.071	2	C9H9N2O+
162.035	52	C9H5FNO+
165.0701	9	C13H9+
167.0376	5	C11H5NO+
171.0552	23	C10H7N2O+
180.0808	1	C13H10N+
185.0761	3	C13H10F+
191.0728	1	C14H9N+
192.0805	3	C14H10N+
195.0606	3	C14H8F+
208.1123	2	C15H14N+
211.0793	5	C14H10FN+
212.0871	19	C14H11FN+
219.092	1	C15H11N2+
221.0631	1	C15H8FN+
222.0714	21	C15H9FN+
223.0788	5	C15H10FN+
237.0823	5	C15H10FN2+
238.0901	4	C15H11FN2+
239.098	8	C15H12FN2+
240.0617	1	C15H8F2N+
252.0618	7	C16H8F2N+
253.0698	2	C16H9F2N+
356.1294	2	C23H17FN2O+
357.1383	2	C23H18FN2O+
