Mass spectrum: Glybenclamide; LC-ESI-QFT; MS2; CE: 45; R=17500; [M+H]+
Name: Glybenclamide
Name: Glyburide
Name: 5-chloro-N-[2-[4-(cyclohexylcarbamoylsulfamoyl)phenyl]ethyl]-2-methoxybenzamide
Formula: C23H28ClN3O5S
Exact mass: 493.1438
SMILES: COC1=C(C=C(Cl)C=C1)C(=O)NCCC1=CC=C(C=C1)S(=O)(=O)NC(=O)NC1CCCCC1
InChI: InChI=1S/C23H28ClN3O5S/c1-32-21-12-9-17(24)15-20(21)22(28)25-14-13-16-7-10-19(11-8-16)33(30,31)27-23(29)26-18-5-3-2-4-6-18/h7-12,15,18H,2-6,13-14H2,1H3,(H,25,28)(H2,26,27,29)
Instrument: Q Exactive Orbitrap (Thermo Scientific)
Instrument type: LC-ESI-QFT
Ms type: MS2
Ion mode: POSITIVE
Ionization: ESI
Fragmentation mode: HCD
Collision energy: 45
Resolution: 17500
Column name: Acquity BEH C18 1.7um, 2.1x150mm (Waters)
Retention time: 17.866 min
Base peak: 79.0212
Precursor m/z: 494.1511
Precursor type: [M+H]+
Precursor intensity: 7588584.296875
m/z	relative intensity	assigned
53.0386	1	C4H5+
55.0543	3	C4H7+
77.0386	1	C6H5+
83.0855	9	C6H11+
91.0542	2	C7H7+
95.0493	4	C6H7O+
100.1121	12	C6H14N+
103.0543	10	C8H7+
105.045	1	C6H5N2+
105.0699	21	C8H9+
107.0492	12	C7H7O+
113.0152	2	C6H6Cl+
117.0696	1	C9H9+
119.0492	15	C8H7O+
120.057	2	C8H8O+
120.0807	1	C8H10N+
121.0284	1	C7H5O2+
121.0648	11	C8H9O+
125.9868	2	C6H3ClO+
131.0604	23	C8H7N2+
134.0363	1	C8H6O2+
134.0963	10	C9H12N+
138.023	2	C8H7Cl+
139.0056	1	C6H4ClN2+
139.0307	2	C8H8Cl+
141.0101	3	C7H6ClO+
154.9893	2	C7H4ClO2+
166.026	5	C8H6O4+
167.0162	23	C8H7O2S+
168.0213	7	C8H7ClNO+
169.0051	999	C8H6ClO2+
171.9924	1	C7H5ClO3+
194.0728	1	C14H10O+
195.0805	3	C14H11O+
196.0884	2	C14H12O+
198.0317	22	C9H9ClNO2+
209.0964	3	C12H16ClN+
210.0316	1	C10H9ClNO2+
210.1039	8	C15H14O+
217.0421	1	C13H10ClO+
223.0754	1	C15H11O2+
245.0362	2	C14H10ClO2+
245.9988	1	C9H9ClNO3S+
259.052	48	C15H12ClO2+
262.0628	19	C14H13ClNO2+
288.0787	11	C16H15ClNO2+
304.0736	28	C16H15ClNO3+
