Mass spectrum: Tolclofos-methyl; LC-ESI-QFT; MS2; CE: 45; R=17500; [M+H]+
Name: Tolclofos-methyl
Name: (2,6-dichloro-4-methylphenoxy)-dimethoxy-sulfanylidene-lambda5-phosphane
Formula: C9H11Cl2O3PS
Exact mass: 299.9544
SMILES: COP(=S)(OC)OC1=C(Cl)C=C(C)C=C1Cl
InChI: InChI=1S/C9H11Cl2O3PS/c1-6-4-7(10)9(8(11)5-6)14-15(16,12-2)13-3/h4-5H,1-3H3
Instrument: Q Exactive Orbitrap (Thermo Scientific)
Instrument type: LC-ESI-QFT
Ms type: MS2
Ion mode: POSITIVE
Ionization: ESI
Fragmentation mode: HCD
Collision energy: 45
Resolution: 17500
Column name: Acquity BEH C18 1.7um, 2.1x150mm (Waters)
Retention time: 17.784 min
Base peak: 79.0211
Precursor m/z: 300.9616
Precursor type: [M+H]+
Precursor intensity: 2871566.8125
m/z	relative intensity	assigned
78.9943	61	CH4O2P+
93.0101	14	C2H6O2P+
93.0334	6	C6H5O+
96.9605	511	CH3ClOP+
107.0491	6	C7H7O+
112.9375	28	CH3ClPS+
121.0284	11	C7H5O2+
124.9822	13	C3H6ClOS+
142.9927	605	C2H8O3PS+
146.9763	13	C6H5Cl2+
155.0258	34	C8H8ClO+
171.0209	51	C8H8ClO2+
174.9713	205	C7H5Cl2O+
216.9817	19	C9H7Cl2O2+
220.9766	170	C8H7Cl2O3+
221.9401	28	C7H5Cl2O2P+
236.9279	10	C7H4Cl2O3P+
237.9349	999	C7H5Cl2O3P+
252.9584	802	C8H8Cl2O3P+
286.946	27	C8H10Cl2O3PS+
300.9623	15	C9H12Cl2O3PS+
