Mass spectrum: 2-(Propan-2-yl)-9H-thioxanthen-9-one; LC-ESI-QFT; MS2; CE: 75; R=17500; [M+H]+
Name: 2-(Propan-2-yl)-9H-thioxanthen-9-one
Name: 2-Isopropylthioxanthone
Name: 2-propan-2-ylthioxanthen-9-one
Formula: C16H14OS
Exact mass: 254.0765
SMILES: CC(C)C1=CC2=C(SC3=C(C=CC=C3)C2=O)C=C1
InChI: InChI=1S/C16H14OS/c1-10(2)11-7-8-15-13(9-11)16(17)12-5-3-4-6-14(12)18-15/h3-10H,1-2H3
Instrument: Q Exactive Orbitrap (Thermo Scientific)
Instrument type: LC-ESI-QFT
Ms type: MS2
Ion mode: POSITIVE
Ionization: ESI
Fragmentation mode: HCD
Collision energy: 75
Resolution: 17500
Column name: Acquity BEH C18 1.7um, 2.1x150mm (Waters)
Retention time: 20.292 min
Base peak: 79.0211
Precursor m/z: 255.0838
Precursor type: [M+H]+
Precursor intensity: 6438946.875
m/z	relative intensity	assigned
53.0022	19	C3HO+
95.0493	1	C6H7O+
105.0336	3	C7H5O+
115.0545	1	C9H7+
139.0542	2	C11H7+
141.0698	12	C11H9+
152.0621	25	C12H8+
180.0572	2	C13H8O+
181.065	1	C13H9O+
183.0264	5	C12H7S+
184.0342	685	C12H8S+
185.042	80	C12H9S+
197.0421	7	C13H9S+
201.0371	2	C12H9OS+
212.0292	12	C13H8OS+
213.0369	999	C13H9OS+
224.029	1	C14H8OS+
225.0368	10	C14H9OS+
239.0526	57	C15H11OS+
240.0606	3	C15H12OS+
255.0867	1	C16H15OS+
