Mass spectrum: Carfentrazone-ethyl; LC-ESI-QFT; MS2; CE: 45; R=17500; [M+H]+
Name: Carfentrazone-ethyl
Name: ethyl 2-chloro-3-[2-chloro-5-[4-(difluoromethyl)-3-methyl-5-oxo-1,2,4-triazol-1-yl]-4-fluorophenyl]propanoate
Formula: C15H14Cl2F3N3O3
Exact mass: 411.0364
SMILES: CCOC(=O)C(Cl)CC1=C(Cl)C=C(F)C(=C1)N1N=C(C)N(C(F)F)C1=O
InChI: InChI=1S/C15H14Cl2F3N3O3/c1-3-26-13(24)10(17)4-8-5-12(11(18)6-9(8)16)23-15(25)22(14(19)20)7(2)21-23/h5-6,10,14H,3-4H2,1-2H3
Instrument: Q Exactive Orbitrap (Thermo Scientific)
Instrument type: LC-ESI-QFT
Ms type: MS2
Ion mode: POSITIVE
Ionization: ESI
Fragmentation mode: HCD
Collision energy: 45
Resolution: 17500
Column name: Acquity BEH C18 1.7um, 2.1x150mm (Waters)
Retention time: 18.363 min
Base peak: 79.0212
Precursor m/z: 412.0437
Precursor type: [M+H]+
Precursor intensity: 4036365.125
m/z	relative intensity	assigned
60.0243	5	C2H3FN+
73.0194	2	C2H2FN2+
74.0036	135	C2HFNO+
87.0353	48	C3H4FN2+
88.9788	2	C3H2ClO+
92.0307	44	C3H4F2N+
143.0058	2	C7H5ClF+
153.998	3	C8H4ClF+
168.0011	21	C8H4ClFN+
168.9851	15	C8H3ClFO+
169.0088	25	C8H5ClFN+
176.9669	277	C7H4Cl2F+
183.0119	23	C8H5ClFN2+
183.9962	8	C8H4ClFNO+
186.0116	7	C8H6ClFNO+
194.9883	6	C9H3ClFNO+
195.9962	23	C9H4ClFNO+
203.9778	63	C8H5Cl2FN+
204.9619	231	C8H4Cl2FO+
207.0364	11	C10H5F2N2O+
209.0278	38	C10H7ClFN2+
209.9991	16	C9H4ClFN2O+
211.007	35	C9H5ClFN2O+
213.0025	22	C9H4ClF2N2+
214.0102	3	C9H5ClF2N2+
220.9911	7	C10H3ClFN2O+
221.9993	19	C10H4ClFN2O+
222.9723	3	C8H6Cl2FO2+
223.0069	9	C10H5ClFN2O+
223.9909	101	C10H4ClFNO2+
227.9896	5	C9H3ClF2N2O+
228.9976	121	C9H4ClF2N2O+
229.9571	33	C9H3Cl2FNO+
230.965	30	C9H4Cl2FNO+
231.9726	35	C9H5Cl2FNO+
232.9805	54	C9H6Cl2FNO+
233.0085	14	C12H2F3NO+
235.0071	3	C11H5ClFN2O+
239.0016	9	C13H2FNO3+
240.9975	510	C10H4ClF2N2O+
242.0053	141	C10H5ClF2N2O+
246.9834	14	C9H6Cl2FN2O+
248.9775	11	C6H6Cl2F3N2O+
252.0335	56	C11H8ClFN3O+
256.968	64	C10H4Cl2FN2O+
257.9517	21	C10H3Cl2FNO2+
258.9598	103	C10H4Cl2FNO2+
261.0037	60	C10H5ClF3N2O+
268.9923	12	C11H4ClF2N2O2+
270.0003	16	C11H5ClF2N2O2+
270.9836	49	C11H6Cl2FN2O+
274.9785	42	C10H6Cl2FN2O2+
276.9742	975	C10H5Cl2F2N2O+
282.024	45	C12H7ClF2N3O+
284.9631	27	C11H4Cl2FN2O2+
288.0102	209	C11H9Cl2FN3O+
288.9946	9	C11H8Cl2FN2O2+
290.0298	26	C14H5F3N2O2+
298.9789	10	C12H6Cl2FN2O2+
302.0303	544	C12H8ClF3N3O+
303.0382	16	C12H9ClF3N3O+
304.9687	6	C14H2ClF2NO3+
310.0191	7	C13H7ClF2N3O2+
316.0053	90	C12H9Cl2FN3O2+
320.0409	21	C12H10ClF3N3O2+
330.0258	5	C15H12Cl2F2NO+
334.0564	20	C13H12ClF3N3O2+
338.0071	105	C12H9Cl2F3N3O+
345.9957	999	C13H8Cl2F2N3O2+
362.0463	2	C14H15Cl2FN3O3+
366.0021	25	C13H9Cl2F3N3O2+
