Mass spectrum: Monobenzyl phthalate; LC-ESI-QFT; MS2; CE: 90; R=17500; [M+H]+
Name: Monobenzyl phthalate
Name: 2-phenylmethoxycarbonylbenzoic acid
Formula: C15H12O4
Exact mass: 256.0736
SMILES: OC(=O)C1=C(C=CC=C1)C(=O)OCC1=CC=CC=C1
InChI: InChI=1S/C15H12O4/c16-14(17)12-8-4-5-9-13(12)15(18)19-10-11-6-2-1-3-7-11/h1-9H,10H2,(H,16,17)
Instrument: Q Exactive Orbitrap (Thermo Scientific)
Instrument type: LC-ESI-QFT
Ms type: MS2
Ion mode: POSITIVE
Ionization: ESI
Fragmentation mode: HCD
Collision energy: 90
Resolution: 17500
Column name: Acquity BEH C18 1.7um, 2.1x150mm (Waters)
Retention time: 16.716 min
Base peak: 79.0211
Precursor m/z: 257.0808
Precursor type: [M+H]+
Precursor intensity: 393168.34375
m/z	relative intensity	assigned
91.0543	512	C7H7+
135.0443	999	C8H7O2+
165.0701	871	C13H9+
