Mass spectrum: Isoxathion; LC-ESI-QFT; MS2; CE: 45; R=17500; [M+H]+
Name: Isoxathion
Name: diethoxy-[(5-phenyl-1,2-oxazol-3-yl)oxy]-sulfanylidene-lambda5-phosphane
Formula: C13H16NO4PS
Exact mass: 313.0538
SMILES: CCOP(=S)(OCC)OC1=NOC(=C1)C1=CC=CC=C1
InChI: InChI=1S/C13H16NO4PS/c1-3-15-19(20,16-4-2)18-13-10-12(17-14-13)11-8-6-5-7-9-11/h5-10H,3-4H2,1-2H3
Instrument: Q Exactive Orbitrap (Thermo Scientific)
Instrument type: LC-ESI-QFT
Ms type: MS2
Ion mode: POSITIVE
Ionization: ESI
Fragmentation mode: HCD
Collision energy: 45
Resolution: 17500
Column name: Acquity BEH C18 1.7um, 2.1x150mm (Waters)
Retention time: 18.742 min
Base peak: 79.0212
Precursor m/z: 314.061
Precursor type: [M+H]+
Precursor intensity: 14883218.5
m/z	relative intensity	assigned
53.0386	12	C4H5+
58.9951	1	C2H3S+
61.0106	29	C2H5S+
64.9787	51	H2O2P+
68.0131	2	C3H2NO+
77.0384	6	C6H5+
78.9943	2	CH4O2P+
79.0543	1	C6H7+
81.9815	3	H3O3P+
82.9892	7	H4O3P+
89.0386	1	C7H5+
91.0543	26	C7H7+
93.01	94	C2H6O2P+
94.0414	1	C6H6O+
95.0492	37	C6H7O+
96.9507	10	H2O2PS+
98.9665	11	H4O2PS+
98.9842	73	H4O4P+
103.0539	1	C8H7+
105.0335	999	C7H5O+
106.065	4	C7H8N+
107.9845	5	CH3NO3P+
109.0049	26	C2H6O3P+
109.0108	1	C6H5S+
112.9458	1	H2O3PS+
112.9998	5	CH6O4P+
113.9536	309	H3O3PS+
114.9614	423	H4O3PS+
116.0495	22	C8H6N+
117.0573	7	C8H7N+
123.0263	10	C7H7S+
123.9795	16	CH3NO4P+
124.9821	4	C2H6O2PS+
125.99	6	C2H7O2PS+
126.9978	1	C2H8O2PS+
127.0154	2	C2H8O4P+
128.9769	9	CH6O3PS+
129.9488	2	H3O4PS+
130.9563	255	H4O4PS+
131.9641	4	H5O4PS+
132.9719	4	H6O4PS+
133.0107	5	C8H5S+
133.0649	1	C9H9O+
134.0601	4	C8H8NO+
135.0263	22	C8H7S+
137.0057	15	C7H5OS+
140.9771	12	C2H6O3PS+
141.9849	67	C2H7O3PS+
142.9927	55	C2H8O3PS+
144.0443	1	C9H6NO+
144.972	4	CH6O4PS+
145.0524	8	C9H7NO+
145.98	2	CH7O4PS+
146.06	7	C9H8NO+
146.9875	3	CH8O4PS+
148.0217	1	C8H6NS+
148.9668	4	C6NO2P+
150.0373	2	C8H8NS+
151.0212	47	C8H7OS+
158.9876	9	C2H8O4PS+
160.0216	24	C9H6NS+
162.055	93	C9H8NO2+
162.9824	2	C7H2NO2P+
170.0161	17	C4H11O3PS+
171.0246	1	C4H12O3PS+
176.0164	2	C9H6NOS+
178.0321	115	C9H8NOS+
187.0189	3	C4H12O4PS+
190.0864	11	C11H12NO2+
206.0635	5	C11H12NOS+
214.9916	1	C8H8O3PS+
216.972	3	C7H6O4PS+
234.9828	11	C13H2NO2P+
239.9879	6	C9H7NO3PS+
240.9718	3	C9H6O4PS+
252.9929	1	C13H4NO3P+
257.9987	19	C9H9NO4PS+
