Mass spectrum: Butam; LC-ESI-QFT; MS2; CE: 30; R=17500; [M+H]+
Name: Butam
Name: Tebutam
Name: N-benzyl-2,2-dimethyl-N-propan-2-ylpropanamide
Formula: C15H23NO
Exact mass: 233.1780
SMILES: CC(C)N(CC1=CC=CC=C1)C(=O)C(C)(C)C
InChI: InChI=1S/C15H23NO/c1-12(2)16(14(17)15(3,4)5)11-13-9-7-6-8-10-13/h6-10,12H,11H2,1-5H3
Instrument: Q Exactive Orbitrap (Thermo Scientific)
Instrument type: LC-ESI-QFT
Ms type: MS2
Ion mode: POSITIVE
Ionization: ESI
Fragmentation mode: HCD
Collision energy: 30
Resolution: 17500
Column name: Acquity BEH C18 1.7um, 2.1x150mm (Waters)
Retention time: 18.091 min
Base peak: 79.0212
Precursor m/z: 234.1852
Precursor type: [M+H]+
Precursor intensity: 70011473.71875
m/z	relative intensity	assigned
57.0699	56	C4H9+
58.0651	2	C3H8N+
65.0384	1	C5H5+
84.0808	44	C5H10N+
85.0647	1	C5H9O+
91.0542	999	C7H7+
105.0697	2	C8H9+
114.0913	19	C6H12NO+
126.1277	17	C8H16N+
133.1011	16	C10H13+
142.1226	67	C8H16NO+
156.1384	4	C9H18NO+
192.1382	95	C12H18NO+
234.1852	520	C15H24NO+
