Mass spectrum: 1-Naphthol; LC-ESI-QFT; MS2; CE: 90; R=17500; [M+H]+
Name: 1-Naphthol
Name: naphthalen-1-ol
Formula: C10H8O
Exact mass: 144.0575
SMILES: OC1=CC=CC2=CC=CC=C12
InChI: InChI=1S/C10H8O/c11-10-7-3-5-8-4-1-2-6-9(8)10/h1-7,11H
Instrument: Q Exactive Orbitrap (Thermo Scientific)
Instrument type: LC-ESI-QFT
Ms type: MS2
Ion mode: POSITIVE
Ionization: ESI
Fragmentation mode: HCD
Collision energy: 90
Resolution: 17500
Column name: Acquity BEH C18 1.7um, 2.1x150mm (Waters)
Retention time: 18.171 min
Base peak: 79.0211
Precursor m/z: 145.0648
Precursor type: [M+H]+
Precursor intensity: 8192277.8125
m/z	relative intensity	assigned
50.0152	1	C4H2+
63.0229	5	C5H3+
65.0386	31	C5H5+
74.015	3	C6H2+
75.023	1	C6H3+
76.0307	14	C6H4+
81.0335	4	C5H5O+
89.0386	46	C7H5+
91.0543	171	C7H7+
102.0464	999	C8H6+
115.0543	324	C9H7+
116.062	11	C9H8+
117.0699	6	C9H9+
127.0542	1	C10H7+
130.0414	23	C9H6O+
145.0649	1	C10H9O+
