Mass spectrum: Sulfasalazine; LC-ESI-QFT; MS2; CE: 60; R=17500; [M-H]-
Name: Sulfasalazine
Name: 2-hydroxy-5-[[4-(pyridin-2-ylsulfamoyl)phenyl]diazenyl]benzoic acid
Formula: C18H14N4O5S
Exact mass: 398.0685
SMILES: C1=CC=NC(=C1)NS(=O)(=O)C2=CC=C(C=C2)N=NC3=CC(=C(C=C3)O)C(=O)O
InChI: InChI=1S/C18H14N4O5S/c23-16-9-6-13(11-15(16)18(24)25)21-20-12-4-7-14(8-5-12)28(26,27)22-17-3-1-2-10-19-17/h1-11,23H,(H,19,22)(H,24,25)
Instrument: Q Exactive Orbitrap (Thermo Scientific)
Instrument type: LC-ESI-QFT
Ms type: MS2
Ion mode: NEGATIVE
Ionization: ESI
Fragmentation mode: HCD
Collision energy: 60
Resolution: 17500
Column name: Acquity BEH C18 1.7um, 2.1x150mm (Waters)
Retention time: 17.061 min
Base peak: 221.1181
Precursor m/z: 397.0612
Precursor type: [M-H]-
Precursor intensity: 5312786.87793
m/z	relative intensity	assigned
65.9985	19	C3NO-
68.0142	9	C3H2NO-
68.9984	7	C3HO2-
69.0346	6	C4H5O-
71.0139	4	C3H3O2-
72.9931	4	C2HO3-
78.0349	3	C5H4N-
79.9904	3	C4O2-
82.006	17	C4H2O2-
90.0348	13	C6H4N-
91.019	24	C6H3O-
91.0302	63	C5H3N2-
92.0221	3	CH4N2O3-
92.0231	3	CH4N2O3-
92.0266	33	C6H4O-
92.0381	18	C5H4N2-
93.022	20	C5H3NO-
93.0346	13	C6H5O-
93.0456	4	C5H5N2-
94.0298	21	C5H4NO-
95.0139	270	C5H3O2-
96.0091	11	C4H2NO2-
97.0296	4	C5H5O2-
105.0219	19	C6H3NO-
106.0061	13	C6H2O2-
106.0299	5	C6H4NO-
107.0378	8	C6H5NO-
108.0217	231	C6H4O2-
118.0299	31	C7H4NO-
120.0091	5	C6H2NO2-
120.0455	5	C7H6NO-
121.0168	15	C6H3NO2-
122.0248	684	C6H4NO2-
123.0088	34	C6H3O3-
131.0375	8	C8H5NO-
134.0248	5	C7H4NO2-
136.0168	4	C7H4O3-
141.071	6	C11H9-
143.0502	18	C10H7O-
144.0455	6	C9H6NO-
148.0405	15	C8H6NO2-
149.0119	4	C7H3NO3-
156.0584	6	C11H8O-
158.0487	16	C9H6N2O-
167.0504	96	C12H7O-
167.0618	5	C11H7N2-
168.0695	14	C11H8N2-
169.066	94	C12H9O-
171.0456	9	C11H7O2-
171.0566	16	C10H7N2O-
183.0457	13	C12H7O2-
183.0565	134	C11H7N2O-
184.0532	13	C12H8O2-
195.0564	9	C12H7N2O-
196.0644	139	C12H8N2O-
197.0722	999	C12H9N2O-
199.0513	49	C11H7N2O2-
200.0591	5	C11H8N2O2-
202.0386	17	C10H6N2O3-
212.0594	272	C12H8N2O2-
220.0769	3	C15H10NO-
222.0669	6	C13H8N3O-
240.0546	15	C13H8N2O3-
248.0835	6	C15H10N3O-
262.0987	5	C16H12N3O-
289.1097	6	C17H13N4O-
