Mass spectrum: 2-Aminoanthraquinone; LC-ESI-QFT; MS2; CE: 30; R=17500; [M+H]+
Name: 2-Aminoanthraquinone
Name: 2-aminoanthracene-9,10-dione
Formula: C14H9NO2
Exact mass: 223.0633
SMILES: NC1=CC=C2C(=O)C3=C(C=CC=C3)C(=O)C2=C1
InChI: InChI=1S/C14H9NO2/c15-8-5-6-11-12(7-8)14(17)10-4-2-1-3-9(10)13(11)16/h1-7H,15H2
Instrument: Q Exactive Orbitrap (Thermo Scientific)
Instrument type: LC-ESI-QFT
Ms type: MS2
Ion mode: POSITIVE
Ionization: ESI
Fragmentation mode: HCD
Collision energy: 30
Resolution: 17500
Column name: Acquity BEH C18 1.7um, 2.1x150mm (Waters)
Retention time: 15.327 min
Base peak: 79.0211
Precursor m/z: 224.0706
Precursor type: [M+H]+
Precursor intensity: 1750955.125
m/z	relative intensity	assigned
168.0809	1	C12H10N+
196.0758	49	C13H10NO+
197.0596	5	C13H9O2+
207.0683	3	C14H9NO+
223.0635	3	C14H9NO2+
224.0706	999	C14H10NO2+
