Mass spectrum: 1-Phenylurea; LC-ESI-QFT; MS2; CE: 45; R=17500; [M+H]+
Name: 1-Phenylurea
Name: phenylurea
Formula: C7H8N2O
Exact mass: 136.0637
SMILES: NC(=O)NC1=CC=CC=C1
InChI: InChI=1S/C7H8N2O/c8-7(10)9-6-4-2-1-3-5-6/h1-5H,(H3,8,9,10)
Instrument: Q Exactive Orbitrap (Thermo Scientific)
Instrument type: LC-ESI-QFT
Ms type: MS2
Ion mode: POSITIVE
Ionization: ESI
Fragmentation mode: HCD
Collision energy: 45
Resolution: 17500
Column name: Acquity BEH C18 1.7um, 2.1x150mm (Waters)
Retention time: 11.084 min
Base peak: 79.0211
Precursor m/z: 137.0709
Precursor type: [M+H]+
Precursor intensity: 5593579
m/z	relative intensity	assigned
51.023	1	C4H3+
53.0387	14	C4H5+
67.0543	1	C5H7+
77.0386	5	C6H5+
81.0336	1	C5H5O+
81.0699	1	C6H9+
86.0036	17	C6N+
92.0496	57	C6H6N+
93.0572	4	C6H7N+
94.0652	999	C6H8N+
95.0492	38	C6H7O+
105.0448	15	C6H5N2+
120.0445	136	C7H6NO+
137.0711	213	C7H9N2O+
