Mass spectrum: Hydramethylnon; LC-ESI-QFT; MS2; CE: 90; R=17500; [M+H]+
Name: Hydramethylnon
Name: N-[[(1E,4E)-1,5-bis[4-(trifluoromethyl)phenyl]penta-1,4-dien-3-ylidene]amino]-5,5-dimethyl-4,6-dihydro-1H-pyrimidin-2-amine
Formula: C25H24F6N4
Exact mass: 494.1905
SMILES: CC1(C)CNC(NC1)=NN=C(\C=C\C1=CC=C(C=C1)C(F)(F)F)/C=C/C1=CC=C(C=C1)C(F)(F)F
InChI: InChI=1S/C25H24F6N4/c1-23(2)15-32-22(33-16-23)35-34-21(13-7-17-3-9-19(10-4-17)24(26,27)28)14-8-18-5-11-20(12-6-18)25(29,30)31/h3-14H,15-16H2,1-2H3,(H2,32,33,35)/b13-7+,14-8+
Instrument: Q Exactive Orbitrap (Thermo Scientific)
Instrument type: LC-ESI-QFT
Ms type: MS2
Ion mode: POSITIVE
Ionization: ESI
Fragmentation mode: HCD
Collision energy: 90
Resolution: 17500
Column name: Acquity BEH C18 1.7um, 2.1x150mm (Waters)
Retention time: 17.750 min
Base peak: 79.0211
Precursor m/z: 495.1978
Precursor type: [M+H]+
Precursor intensity: 35260737
m/z	relative intensity	assigned
53.0386	4	C4H5+
54.0338	2	C3H4N+
55.0291	24	C2H3N2+
55.0542	24	C4H7+
56.0495	43	C3H6N+
56.062	12	C4H8+
57.0447	10	C2H5N2+
57.0573	5	C3H7N+
57.0699	2	C4H9+
58.0651	33	C3H8N+
60.0556	1	CH6N3+
63.0228	2	C5H3+
65.0386	2	C5H5+
67.0416	3	C4H5N+
67.0542	3	C5H7+
68.0243	4	C2H2N3+
68.0494	8	C4H6N+
68.9946	10	CF3+
69.0447	14	C3H5N2+
69.0698	19	C5H9+
70.0399	9	C2H4N3+
70.0651	66	C4H8N+
71.0603	2	C3H7N2+
71.0729	15	C4H9N+
72.0555	1	C2H6N3+
72.0807	10	C4H10N+
75.0039	2	C3HF2+
75.0228	10	CH2FN3+
76.0307	3	C6H4+
77.0197	2	C3H3F2+
80.0494	8	C5H6N+
81.0447	1	C4H5N2+
81.0572	1	C5H7N+
82.0525	4	C4H6N2+
82.0651	17	C5H8N+
83.0477	3	C3H5N3+
83.0603	13	C4H7N2+
84.0556	5	C3H6N3+
84.0808	9	C5H10N+
85.0507	1	C2H5N4+
85.076	2	C4H9N2+
86.0964	7	C5H12N+
91.0542	2	C7H7+
94.0651	3	C6H8N+
95.049	1	CH7F4+
95.0603	8	C5H7N2+
96.0443	2	F4H6N+
96.0556	12	C4H6N3+
96.0806	1	CH9FN4+
97.0635	5	CH9F4+
97.076	22	C5H9N2+
99.0915	1	C5H11N2+
101.0198	18	C5H3F2+
102.0464	187	C8H6+
107.0603	3	C6H7N2+
109.0448	74	C7H6F+
110.0713	2	C2H10F4+
111.0915	3	C6H11N2+
112.0869	65	C5H10N3+
113.1072	7	C6H13N2+
115.0541	4	CH8F5+
116.0495	2	C8H6N+
116.062	3	C9H8+
119.0491	7	C3H7F4+
120.037	8	C8H5F+
121.0446	4	C3H5F2N3+
125.0197	16	C7H3F2+
126.1026	9	C6H12N3+
127.0353	3	C7H5F2+
127.0415	5	CH6F5N+
128.1181	23	C6H14N3+
129.0446	15	F5H6N2+
131.0292	21	C9H4F+
133.0448	13	C9H6F+
138.0272	2	C3H3F3N3+
139.0353	5	C3H4F3N3+
140.0494	1	C10H6N+
145.026	39	C7H4F3+
147.0353	5	C8H4FN2+
149.0397	6	C12H5+
151.0353	999	C9H5F2+
152.0304	1	C3H3F3N4+
153.1133	5	C7H13N4+
154.065	3	C3H9F5N+
155.0601	2	C2H8F5N2+
156.0443	7	C5H6F4N+
158.04	24	C10H5FN+
159.0415	46	C8H6F3+
163.0554	1	C13H7+
164.0434	3	C10H6F2+
165.0509	5	C5H6F3N3+
166.0464	4	C9H6F2N+
169.0261	13	C9H4F3+
169.0459	80	C12H6F+
170.0709	1	C2H9F5N3+
171.0415	39	C9H6F3+
172.0366	3	C3H4F4N4+
174.0347	1	C13H4N+
174.0533	1	C8H7F3N+
176.0306	20	C10H4F2N+
177.0507	4	C6H6F3N3+
178.0462	65	C10H6F2N+
182.034	4	C10H5F3+
183.0416	12	C10H6F3+
183.0615	20	C13H8F+
184.0368	1	C9H5F3N+
185.0446	4	C9H6F3N+
186.0521	1	C4H6F4N4+
188.0433	2	C12H6F2+
189.0508	1	C7H6F3N3+
190.0662	3	C14H8N+
191.0414	3	C10H5F2N2+
194.0412	6	C13H5FN+
196.0368	35	C10H5F3N+
197.0439	2	C5H5F4N4+
197.0826	2	C8H11F4N+
198.0527	9	C10H7F3N+
202.0466	2	C12H6F2N+
203.0858	1	C16H11+
209.0568	1	C7H7F4N3+
211.0599	1	C6H7F4N4+
213.0634	1	C10H8F3N2+
214.0472	12	C13H6F2N+
215.0853	4	C12H10FN3+
216.0933	2	C17H12+
218.053	3	C16H7F+
222.0523	1	C7H6F4N4+
228.0629	2	C14H8F2N+
229.0889	2	C17H11N+
238.0583	1	C11H7F3N3+
238.0774	1	C6H10F6N3+
246.0702	1	C12H8F2N4+
246.0838	1	C10H12F6+
251.0663	4	C12H8F3N3+
258.0709	3	C13H8F2N4+
271.0729	1	C17H10F3+
278.0771	2	C13H9F3N4+
283.0732	1	C18H10F3+
284.0672	2	C12H8F4N4+
297.0762	1	C18H10F3N+
301.0632	1	C13H8F5N3+
366.0714	1	C19H10F6N+
