Mass spectrum: SSR161421; LC-ESI-QFT; MS2; CE: 30; R=17500; [M+H]+
Name: SSR161421
Name: N-[4-(benzylamino)-3-cyanoquinolin-2-yl]-4-methoxybenzamide
Formula: C25H20N4O2
Exact mass: 408.1586
SMILES: COC1=CC=C(C=C1)C(=O)NC1=C(C#N)C(NCC2=CC=CC=C2)=C2C=CC=CC2=N1
InChI: InChI=1S/C25H20N4O2/c1-31-19-13-11-18(12-14-19)25(30)29-24-21(15-26)23(20-9-5-6-10-22(20)28-24)27-16-17-7-3-2-4-8-17/h2-14H,16H2,1H3,(H2,27,28,29,30)
Instrument: Q Exactive Orbitrap (Thermo Scientific)
Instrument type: LC-ESI-QFT
Ms type: MS2
Ion mode: POSITIVE
Ionization: ESI
Fragmentation mode: HCD
Collision energy: 30
Resolution: 17500
Column name: Acquity BEH C18 1.7um, 2.1x150mm (Waters)
Retention time: 16.963 min
Base peak: 79.0211
Precursor m/z: 409.1659
Precursor type: [M+H]+
Precursor intensity: 23643860
m/z	relative intensity	assigned
77.0385	1	C6H5+
91.0542	17	C7H7+
92.0252	1	C6H4O+
95.0491	1	C6H7O+
125.0596	2	C7H9O2+
135.0439	999	C8H7O2+
211.0612	1	C11H7N4O+
258.1027	1	C17H12N3+
276.113	14	C17H14N3O+
301.1081	1	C18H13N4O+
391.1553	16	C25H19N4O+
409.1658	247	C25H21N4O2+
