Mass spectrum: Ametryn; LC-ESI-QFT; MS2; CE: 45; R=17500; [M+H]+
Name: Ametryn
Name: 4-N-ethyl-6-methylsulfanyl-2-N-propan-2-yl-1,3,5-triazine-2,4-diamine
Formula: C9H17N5S
Exact mass: 227.1205
SMILES: CCNC1=NC(SC)=NC(NC(C)C)=N1
InChI: InChI=1S/C9H17N5S/c1-5-10-7-12-8(11-6(2)3)14-9(13-7)15-4/h6H,5H2,1-4H3,(H2,10,11,12,13,14)
Instrument: Q Exactive Orbitrap (Thermo Scientific)
Instrument type: LC-ESI-QFT
Ms type: MS2
Ion mode: POSITIVE
Ionization: ESI
Fragmentation mode: HCD
Collision energy: 45
Resolution: 17500
Column name: Acquity BEH C18 1.7um, 2.1x150mm (Waters)
Retention time: 15.455 min
Base peak: 79.0211
Precursor m/z: 228.1277
Precursor type: [M+H]+
Precursor intensity: 64932785.21875
m/z	relative intensity	assigned
68.0243	22	C2H2N3+
71.0603	54	C3H7N2+
74.0058	7	C2H4NS+
85.0509	5	C2H5N4+
85.076	7	C4H9N2+
91.0325	100	C2H7N2S+
96.0556	148	C4H6N3+
102.0372	7	C4H8NS+
110.0462	2	C3H4N5+
110.0714	2	C5H8N3+
113.0822	15	C4H9N4+
116.0277	56	C3H6N3S+
138.0775	59	C5H8N5+
138.1026	41	C7H12N3+
144.059	46	C5H10N3S+
158.0495	48	C4H8N5S+
158.0746	6	C6H12N3S+
169.0544	1	C6H9N4S+
171.0571	2	C5H9N5S+
180.1243	7	C8H14N5+
184.0656	1	C6H10N5S+
186.0808	999	C6H12N5S+
200.0971	2	C7H14N5S+
228.1278	313	C9H18N5S+
