Mass spectrum: Fluazifop-P-butyl; LC-ESI-QFT; MS2; CE: 45; R=17500; [M+H]+
Name: Fluazifop-P-butyl
Name: butyl (2R)-2-[4-[5-(trifluoromethyl)pyridin-2-yl]oxyphenoxy]propanoate
Formula: C19H20F3NO4
Exact mass: 383.1344
SMILES: CCCCOC(=O)[C@@H](C)OC1=CC=C(OC2=CC=C(C=N2)C(F)(F)F)C=C1
InChI: InChI=1S/C19H20F3NO4/c1-3-4-11-25-18(24)13(2)26-15-6-8-16(9-7-15)27-17-10-5-14(12-23-17)19(20,21)22/h5-10,12-13H,3-4,11H2,1-2H3/t13-/m1/s1
Instrument: Q Exactive Orbitrap (Thermo Scientific)
Instrument type: LC-ESI-QFT
Ms type: MS2
Ion mode: POSITIVE
Ionization: ESI
Fragmentation mode: HCD
Collision energy: 45
Resolution: 17500
Column name: Acquity BEH C18 1.7um, 2.1x150mm (Waters)
Retention time: 19.276 min
Base peak: 79.0211
Precursor m/z: 384.1417
Precursor type: [M+H]+
Precursor intensity: 22311500.75
m/z	relative intensity	assigned
53.0022	5	C3HO+
53.9974	1	C2NO+
55.0178	4	C3H3O+
55.0543	1	C4H7+
57.0699	92	C4H9+
65.0385	27	C5H5+
69.0335	1	C4H5O+
73.0283	7	C3H5O2+
91.0542	999	C7H7+
93.0335	11	C6H5O+
94.0414	1	C6H6O+
107.0492	1	C7H7O+
109.0285	1	C6H5O2+
109.0647	8	C7H9O+
111.0441	15	C6H7O2+
118.0651	4	C8H8N+
119.0492	183	C8H7O+
120.0571	3	C8H8O+
121.0284	46	C7H5O2+
121.0647	5	C8H9O+
125.0597	2	C7H9O2+
135.0439	1	C8H7O2+
137.0596	1	C8H9O2+
144.0257	1	C6H4F2NO+
146.022	2	C6H3F3N+
147.0292	1	C6H4F3N+
147.044	2	C9H7O2+
148.0367	1	C6H5F3N+
149.0211	1	C6H4F3O+
157.0888	1	C11H11N+
162.0528	1	C7H7F3N+
163.024	1	C6H4F3NO+
164.0317	44	C6H5F3NO+
167.0728	3	C12H9N+
172.0373	1	C8H5F3N+
176.0317	1	C7H5F3NO+
178.0472	1	C7H7F3NO+
179.0187	9	C6H4F3NO2+
186.0525	6	C9H7F3N+
186.0714	1	C12H9FN+
198.053	4	C10H7F3N+
200.0317	1	C9H5F3NO+
206.0774	1	C12H10F2N+
211.0608	2	C11H8F3N+
212.0685	3	C11H9F3N+
213.0786	19	C13H11NO2+
214.0474	7	C10H7F3NO+
216.0621	1	C13H8F2N+
218.0408	1	C12H6F2NO+
222.0536	1	C12H7F3N+
226.0478	3	C11H7F3NO+
226.0837	27	C12H11F3N+
227.0552	64	C11H8F3NO+
228.0633	2	C11H9F3NO+
234.0727	3	C13H10F2NO+
235.0599	1	C13H8F3N+
236.0681	18	C13H9F3N+
238.0474	263	C12H7F3NO+
239.0554	6	C12H8F3NO+
240.0631	8	C12H9F3NO+
253.0343	3	C12H6F3NO2+
253.0707	1	C13H10F3NO+
254.0429	152	C12H7F3NO2+
254.0786	511	C13H11F3NO+
255.0501	174	C12H8F3NO2+
256.0579	148	C12H9F3NO2+
262.0678	2	C14H10F2NO2+
264.0629	20	C14H9F3NO+
267.0503	4	C13H8F3NO2+
268.0586	2	C13H9F3NO2+
282.0736	848	C14H11F3NO2+
310.0683	2	C15H11F3NO3+
328.079	32	C15H13F3NO4+
