Mass spectrum: 4`-Sulfamylacetanilide; LC-ESI-QFT; MS2; CE: 30; R=17500; [M+H]+
Name: 4'-Sulfamylacetanilide
Name: 4-Acetamidobenzenesulfonamide
Name: N-(4-sulfamoylphenyl)acetamide
Formula: C8H10N2O3S
Exact mass: 214.0412
SMILES: CC(=O)NC1=CC=C(C=C1)S(N)(=O)=O
InChI: InChI=1S/C8H10N2O3S/c1-6(11)10-7-2-4-8(5-3-7)14(9,12)13/h2-5H,1H3,(H,10,11)(H2,9,12,13)
Instrument: Q Exactive Orbitrap (Thermo Scientific)
Instrument type: LC-ESI-QFT
Ms type: MS2
Ion mode: POSITIVE
Ionization: ESI
Fragmentation mode: HCD
Collision energy: 30
Resolution: 17500
Column name: Acquity BEH C18 1.7um, 2.1x150mm (Waters)
Retention time: 8.293 min
Base peak: 79.0212
Precursor m/z: 215.0485
Precursor type: [M+H]+
Precursor intensity: 1423192
m/z	relative intensity	assigned
61.0107	6	C2H5S+
65.0387	8	C5H5+
79.0212	33	C2H7OS+
93.0336	17	C6H5O+
93.0574	317	C6H7N+
94.0651	44	C6H8N+
108.0444	148	C6H6NO+
126.0106	10	CH6N2O3S+
134.0601	315	C8H8NO+
135.0679	145	C8H9NO+
136.0758	538	C8H10NO+
137.9641	11	C5NO2S+
148.0632	10	C8H8N2O+
150.0551	77	C8H8NO2+
152.0709	25	C8H10NO2+
156.0113	39	C6H6NO2S+
166.9674	5	C6HNO3S+
198.022	999	C8H8NO3S+
215.0485	247	C8H11N2O3S+
