Mass spectrum: 2-Methyl-4-isothiazolin-3-one; LC-ESI-QFT; MS2; CE: 75; R=17500; [M+H]+
Name: 2-Methyl-4-isothiazolin-3-one
Name: 2-methyl-1,2-thiazol-3-one
Formula: C4H5NOS
Exact mass: 115.0092
SMILES: CN1SC=CC1=O
InChI: InChI=1S/C4H5NOS/c1-5-4(6)2-3-7-5/h2-3H,1H3
Instrument: Q Exactive Orbitrap (Thermo Scientific)
Instrument type: LC-ESI-QFT
Ms type: MS2
Ion mode: POSITIVE
Ionization: ESI
Fragmentation mode: HCD
Collision energy: 75
Resolution: 17500
Column name: Acquity BEH C18 1.7um, 2.1x150mm (Waters)
Retention time: 3.894 min
Base peak: 79.0211
Precursor m/z: 116.0165
Precursor type: [M+H]+
Precursor intensity: 4459582.625
m/z	relative intensity	assigned
52.0182	2	C3H2N+
53.0022	6	C3HO+
54.0339	23	C3H4N+
55.0179	2	C3H3O+
56.9794	3	C2HS+
57.9872	2	C2H2S+
58.0288	38	C2H4NO+
58.995	16	C2H3S+
59.9664	2	COS+
59.9901	4	CH2NS+
61.0106	11	C2H5S+
62.006	5	CH4NS+
68.9793	6	C3HS+
69.0335	16	C4H5O+
69.9746	16	C2NS+
70.995	202	C3H3S+
72.0444	3	C3H6NO+
72.998	5	C2H3NS+
73.0106	55	C3H5S+
74.0058	1	C2H4NS+
83.0365	1	C4H5NO+
83.9902	1	C3H2NS+
84.9743	54	C3HOS+
86.99	10	C3H3OS+
88.0216	14	C3H6NS+
98.0059	92	C4H4NS+
98.9899	102	C4H3OS+
100.993	114	C3H3NOS+
114.0009	2	C4H4NOS+
116.0165	999	C4H6NOS+
