Mass spectrum: Fluometuron; LC-ESI-QFT; MS2; CE: 15; R=17500; [M-H]-
Name: Fluometuron
Name: 1,1-dimethyl-3-[3-(trifluoromethyl)phenyl]urea
Formula: C10H11F3N2O
Exact mass: 232.0823
SMILES: CN(C)C(=O)NC1=CC=CC(=C1)C(F)(F)F
InChI: InChI=1S/C10H11F3N2O/c1-15(2)9(16)14-8-5-3-4-7(6-8)10(11,12)13/h3-6H,1-2H3,(H,14,16)
Instrument: Q Exactive Orbitrap (Thermo Scientific)
Instrument type: LC-ESI-QFT
Ms type: MS2
Ion mode: NEGATIVE
Ionization: ESI
Fragmentation mode: HCD
Collision energy: 15
Resolution: 17500
Column name: Acquity BEH C18 1.7um, 2.1x150mm (Waters)
Retention time: 16.063 min
Base peak: 221.0818
Precursor m/z: 231.0751
Precursor type: [M-H]-
Precursor intensity: 15561688.80176
m/z	relative intensity	assigned
154.0473	1	C8H6F2N-
160.0378	13	C7H5F3N-
166.0109	2	C8H2F2NO-
186.0171	143	C8H3F3NO-
191.0624	1	C10H8FN2O-
211.0694	2	C10H9F2N2O-
215.0437	1	C9H6F3N2O-
231.0749	999	C10H10F3N2O-
