Mass spectrum: 4-Methylumbelliferone; LC-ESI-QFT; MS2; CE: 90; R=17500; [M+H]+
Name: 4-Methylumbelliferone
Name: 7-hydroxy-4-methylchromen-2-one
Formula: C10H8O3
Exact mass: 176.0473
SMILES: CC1=CC(=O)OC2=C1C=CC(O)=C2
InChI: InChI=1S/C10H8O3/c1-6-4-10(12)13-9-5-7(11)2-3-8(6)9/h2-5,11H,1H3
Instrument: Q Exactive Orbitrap (Thermo Scientific)
Instrument type: LC-ESI-QFT
Ms type: MS2
Ion mode: POSITIVE
Ionization: ESI
Fragmentation mode: HCD
Collision energy: 90
Resolution: 17500
Column name: Acquity BEH C18 1.7um, 2.1x150mm (Waters)
Retention time: 14.061 min
Base peak: 79.0211
Precursor m/z: 177.0546
Precursor type: [M+H]+
Precursor intensity: 3849726.875
m/z	relative intensity	assigned
50.0152	13	C4H2+
51.0229	23	C4H3+
53.0386	234	C4H5+
55.0179	102	C3H3O+
65.0386	42	C5H5+
67.0542	3	C5H7+
68.9971	464	C3HO2+
77.0385	97	C6H5+
78.0464	29	C6H6+
79.0542	398	C6H7+
81.0335	27	C5H5O+
81.0699	100	C6H9+
91.0543	687	C7H7+
93.0699	333	C7H9+
94.0414	33	C6H6O+
95.0492	712	C6H7O+
102.0464	30	C8H6+
103.0542	999	C8H7+
105.0699	174	C8H9+
106.0415	7	C7H6O+
107.0492	57	C7H7O+
109.065	5	C7H9O+
115.0543	94	C9H7+
116.0622	5	C9H8+
121.0648	383	C8H9O+
131.0491	49	C9H7O+
132.0569	19	C9H8O+
133.0646	3	C9H9O+
134.0362	34	C8H6O2+
149.0598	5	C9H9O2+
177.0547	57	C10H9O3+
