Mass spectrum: Oxadiazon; LC-ESI-QFT; MS2; CE: 45; R=17500; [M+H]+
Name: Oxadiazon
Name: 5-tert-butyl-3-(2,4-dichloro-5-propan-2-yloxyphenyl)-1,3,4-oxadiazol-2-one
Formula: C15H18Cl2N2O3
Exact mass: 344.0694
SMILES: CC(C)OC1=CC(N2N=C(OC2=O)C(C)(C)C)=C(Cl)C=C1Cl
InChI: InChI=1S/C15H18Cl2N2O3/c1-8(2)21-12-7-11(9(16)6-10(12)17)19-14(20)22-13(18-19)15(3,4)5/h6-8H,1-5H3
Instrument: Q Exactive Orbitrap (Thermo Scientific)
Instrument type: LC-ESI-QFT
Ms type: MS2
Ion mode: POSITIVE
Ionization: ESI
Fragmentation mode: HCD
Collision energy: 45
Resolution: 17500
Column name: Acquity BEH C18 1.7um, 2.1x150mm (Waters)
Retention time: 19.664 min
Base peak: 79.0211
Precursor m/z: 345.0767
Precursor type: [M+H]+
Precursor intensity: 645078.765625
m/z	relative intensity	assigned
57.0699	151	C4H9+
140.9737	11	C6H2ClO2+
147.9715	27	C5H4Cl2N+
148.9555	77	C5H3Cl2O+
155.9845	33	C6H3ClNO2+
173.951	41	C6H2Cl2NO+
175.9665	47	C6H4Cl2NO+
176.9505	999	C6H3Cl2O2+
182.9957	13	C7H4ClN2O2+
183.9797	209	C7H3ClNO3+
184.9875	842	C7H4ClNO3+
201.9458	84	C7H2Cl2NO2+
202.9536	20	C7H3Cl2NO2+
218.9723	21	C7H5Cl2N2O2+
219.9563	517	C7H4Cl2NO3+
303.0304	13	C12H13Cl2N2O3+
