Mass spectrum: meso-Hexestrol; LC-ESI-QFT; MS2; CE: 75; R=17500; [M-H]-
Name: meso-Hexestrol
Name: 4-[(3S,4R)-4-(4-hydroxyphenyl)hexan-3-yl]phenol
Formula: C18H22O2
Exact mass: 270.1620
SMILES: CC[C@@H]([C@@H](CC)C1=CC=C(O)C=C1)C1=CC=C(O)C=C1
InChI: InChI=1S/C18H22O2/c1-3-17(13-5-9-15(19)10-6-13)18(4-2)14-7-11-16(20)12-8-14/h5-12,17-20H,3-4H2,1-2H3/t17-,18+
Instrument: Q Exactive Orbitrap (Thermo Scientific)
Instrument type: LC-ESI-QFT
Ms type: MS2
Ion mode: NEGATIVE
Ionization: ESI
Fragmentation mode: HCD
Collision energy: 75
Resolution: 17500
Column name: Acquity BEH C18 1.7um, 2.1x150mm (Waters)
Retention time: 17.718 min
Base peak: 317.1618
Precursor m/z: 269.1547
Precursor type: [M-H]-
Precursor intensity: 1413310.125
m/z	relative intensity	assigned
93.0348	7	C6H5O-
106.0423	12	C7H6O-
119.0502	999	C8H7O-
132.0581	16	C9H8O-
133.0659	67	C9H9O-
135.0814	10	C9H11O-
