Mass spectrum: HC Red 3; LC-ESI-QFT; MS2; CE: 15; R=17500; [M+H]+
Name: HC Red 3
Name: 2-((4-Amino-2-nitrophenyl)amino)ethanol
Name: 2-(4-amino-2-nitroanilino)ethanol
Formula: C8H11N3O3
Exact mass: 197.0800
SMILES: NC1=CC(=C(NCCO)C=C1)[N+]([O-])=O
InChI: InChI=1S/C8H11N3O3/c9-6-1-2-7(10-3-4-12)8(5-6)11(13)14/h1-2,5,10,12H,3-4,9H2
Instrument: Q Exactive Orbitrap (Thermo Scientific)
Instrument type: LC-ESI-QFT
Ms type: MS2
Ion mode: POSITIVE
Ionization: ESI
Fragmentation mode: HCD
Collision energy: 15
Resolution: 17500
Column name: Acquity BEH C18 1.7um, 2.1x150mm (Waters)
Retention time: 3.132 min
Base peak: 79.0211
Precursor m/z: 198.0873
Precursor type: [M+H]+
Precursor intensity: 2342218.34375
m/z	relative intensity	assigned
91.0542	7	C7H7+
95.0604	67	C5H7N2+
107.0604	14	C6H7N2+
108.0679	19	C6H8N2+
117.0444	3	C7H5N2+
119.048	8	C6H5N3+
120.0556	10	C6H6N3+
122.0713	99	C6H8N3+
132.0557	8	C7H6N3+
133.0634	999	C7H7N3+
134.0713	40	C7H8N3+
134.0838	4	C8H10N2+
136.0506	190	C6H6N3O+
136.063	11	C7H8N2O+
137.0709	10	C7H9N2O+
138.0662	26	C6H8N3O+
145.0634	13	C8H7N3+
149.0583	4	C7H7N3O+
150.0662	315	C7H8N3O+
153.0537	9	C6H7N3O2+
162.0662	20	C8H8N3O+
163.074	246	C8H9N3O+
164.0819	18	C8H10N3O+
166.0609	6	C7H8N3O2+
167.0576	3	C8H9NO3+
180.0768	580	C8H10N3O2+
181.0846	17	C8H11N3O2+
198.0874	930	C8H12N3O3+
