Mass spectrum: Zoalene; LC-ESI-QFT; MS2; CE: 45; R=17500; [M-H]-
Name: Zoalene
Name: Dinitolmide
Name: 2-methyl-3,5-dinitrobenzamide
Formula: C8H7N3O5
Exact mass: 225.0386
SMILES: CC1=C(C=C(C=C1C(N)=O)[N+]([O-])=O)[N+]([O-])=O
InChI: InChI=1S/C8H7N3O5/c1-4-6(8(9)12)2-5(10(13)14)3-7(4)11(15)16/h2-3H,1H3,(H2,9,12)
Instrument: Q Exactive Orbitrap (Thermo Scientific)
Instrument type: LC-ESI-QFT
Ms type: MS2
Ion mode: NEGATIVE
Ionization: ESI
Fragmentation mode: HCD
Collision energy: 45
Resolution: 17500
Column name: Acquity BEH C18 1.7um, 2.1x150mm (Waters)
Retention time: 12.504 min
Base peak: 224.0313
Precursor m/z: 224.0313
Precursor type: [M-H]-
Precursor intensity: 5761717.196533
m/z	relative intensity	assigned
72.9933	17	C2HO3-
77.0397	999	C6H5-
78.035	31	C5H4N-
88.0193	17	C6H2N-
105.0346	40	C7H5O-
109.0296	41	C6H5O2-
116.0142	73	C7H2NO-
121.0294	17	C7H5O2-
135.0199	67	C6H3N2O2-
137.0243	16	C7H5O3-
151.0275	16	C7H5NO3-
166.0146	258	C7H4NO4-
181.0255	171	C7H5N2O4-
