Mass spectrum: Flumetsulam; LC-ESI-QFT; MS2; CE: 45; R=17500; [M-H]-
Name: Flumetsulam
Name: N-(2,6-difluorophenyl)-5-methyl-[1,2,4]triazolo[1,5-a]pyrimidine-2-sulfonamide
Formula: C12H9F2N5O2S
Exact mass: 325.0445
SMILES: CC1=NC2=NC(=NN2C=C1)S(=O)(=O)NC1=C(F)C=CC=C1F
InChI: InChI=1S/C12H9F2N5O2S/c1-7-5-6-19-11(15-7)16-12(17-19)22(20,21)18-10-8(13)3-2-4-9(10)14/h2-6,18H,1H3
Instrument: Q Exactive Orbitrap (Thermo Scientific)
Instrument type: LC-ESI-QFT
Ms type: MS2
Ion mode: NEGATIVE
Ionization: ESI
Fragmentation mode: HCD
Collision energy: 45
Resolution: 17500
Column name: Acquity BEH C18 1.7um, 2.1x150mm (Waters)
Retention time: 12.564 min
Base peak: 324.0373
Precursor m/z: 324.0372
Precursor type: [M-H]-
Precursor intensity: 7181908.222656
m/z	relative intensity	assigned
64.0193	1	C4H2N-
65.0145	3	C3HN2-
66.0097	76	C2N3-
67.0302	1	C3H3N2-
91.0302	52	C5H3N2-
92.0254	8	C4H2N3-
106.0412	1	C5H4N3-
133.052	999	C6H5N4-
153.0269	14	C7H3F2N2-
167.0365	1	C9H3N4-
175.0425	6	C8H4FN4-
193.0523	1	C11H5N4-
212.0633	1	C12H7FN3-
220.0628	1	C12H6N5-
240.069	10	C12H7FN5-
260.0751	4	C12H8F2N5-
