Mass spectrum: Melengestrol acetate; LC-ESI-QFT; MS2; CE: 90; R=17500; [M+H]+
Name: Melengestrol acetate
Name: [(8R,9S,10R,13S,14S,17R)-17-acetyl-6,10,13-trimethyl-16-methylidene-3-oxo-1,2,8,9,11,12,14,15-octahydrocyclopenta[a]phenanthren-17-yl] acetate
Formula: C25H32O4
Exact mass: 396.2301
SMILES: CC(=O)O[C@]1(C(C)=O)C(=C)C[C@H]2[C@@H]3C=C(C)C4=CC(=O)CC[C@]4(C)[C@H]3CC[C@]12C
InChI: InChI=1S/C25H32O4/c1-14-11-19-20(23(5)9-7-18(28)13-21(14)23)8-10-24(6)22(19)12-15(2)25(24,16(3)26)29-17(4)27/h11,13,19-20,22H,2,7-10,12H2,1,3-6H3/t19-,20+,22+,23-,24+,25+/m1/s1
Instrument: Q Exactive Orbitrap (Thermo Scientific)
Instrument type: LC-ESI-QFT
Ms type: MS2
Ion mode: POSITIVE
Ionization: ESI
Fragmentation mode: HCD
Collision energy: 90
Resolution: 17500
Column name: Acquity BEH C18 1.7um, 2.1x150mm (Waters)
Retention time: 18.605 min
Base peak: 79.0212
Precursor m/z: 397.2373
Precursor type: [M+H]+
Precursor intensity: 3273306.5625
m/z	relative intensity	assigned
55.0179	48	C3H3O+
55.0542	67	C4H7+
67.0542	79	C5H7+
69.0336	14	C4H5O+
69.0699	33	C5H9+
79.0542	187	C6H7+
81.0699	41	C6H9+
83.0492	112	C5H7O+
91.0542	459	C7H7+
93.0699	86	C7H9+
95.0492	77	C6H7O+
95.0855	23	C7H11+
97.0648	137	C6H9O+
103.0541	68	C8H7+
105.0699	358	C8H9+
107.0492	38	C7H7O+
107.0855	54	C8H11+
109.0649	21	C7H9O+
115.0542	143	C9H7+
116.0623	32	C9H8+
117.0699	155	C9H9+
119.0856	143	C9H11+
121.0651	33	C8H9O+
123.0808	13	C8H11O+
128.062	191	C10H8+
129.0699	250	C10H9+
130.0778	116	C10H10+
131.0856	99	C10H11+
133.065	13	C9H9O+
133.1012	40	C10H13+
135.0801	12	C9H11O+
141.0699	222	C11H9+
142.0777	195	C11H10+
143.0854	114	C11H11+
144.0937	45	C11H12+
145.0647	157	C10H9O+
145.1014	105	C11H13+
147.0806	18	C10H11O+
153.0698	145	C12H9+
154.0776	71	C12H10+
155.0854	163	C12H11+
156.0935	58	C12H12+
157.0648	74	C11H9O+
157.1012	55	C12H13+
159.0802	53	C11H11O+
159.1169	30	C12H15+
160.0884	107	C11H12O+
165.0699	335	C13H9+
166.0778	135	C13H10+
167.0856	220	C13H11+
168.0936	45	C13H12+
169.101	106	C13H13+
171.0805	36	C12H11O+
172.0885	47	C12H12O+
173.0964	41	C12H13O+
175.1121	24	C12H15O+
178.0777	199	C14H10+
179.0856	417	C14H11+
180.0934	144	C14H12+
181.1012	187	C14H13+
182.1093	29	C14H14+
183.1172	47	C14H15+
185.0965	14	C13H13O+
190.0779	48	C15H10+
191.0856	602	C15H11+
192.0935	373	C15H12+
193.1013	651	C15H13+
194.1092	136	C15H14+
195.1171	160	C15H15+
196.1245	18	C15H16+
197.1333	17	C15H17+
202.0776	44	C16H10+
203.0855	106	C16H11+
204.0934	71	C16H12+
205.1013	354	C16H13+
206.109	999	C16H14+
207.1169	444	C16H15+
208.1246	140	C16H16+
209.1324	85	C16H17+
216.0929	93	C17H12+
217.1011	115	C17H13+
218.1094	44	C17H14+
219.1169	90	C17H15+
220.1244	93	C17H16+
221.1325	622	C17H17+
222.1405	28	C17H18+
223.1481	81	C17H19+
229.1014	27	C18H13+
230.1094	47	C18H14+
231.1169	120	C18H15+
232.1247	31	C18H16+
233.1331	30	C18H17+
235.112	24	C17H15O+
235.1478	69	C18H19+
245.1327	31	C19H17+
246.1406	14	C19H18+
247.1485	17	C19H19+
249.1275	82	C18H17O+
250.1349	14	C18H18O+
261.1647	16	C20H21+
263.1434	32	C19H19O+
264.1512	14	C19H20O+
265.1588	16	C19H21O+
