Mass spectrum: Quinine; LC-ESI-QFT; MS2; CE: 90; R=17500; [M+H]+
Name: Quinine
Name: (R)-[(2S,4S,5R)-5-ethenyl-1-azabicyclo[2.2.2]octan-2-yl]-(6-methoxyquinolin-4-yl)methanol
Formula: C20H24N2O2
Exact mass: 324.1838
SMILES: C=C[C@H]1CN2CC[C@H]1C[C@H]2[C@H](O)c1ccnc2ccc(OC)cc12
InChI: InChI=1S/C20H24N2O2/c1-3-13-12-22-9-7-14(13)10-19(22)20(23)16-6-8-21-18-5-4-15(24-2)11-17(16)18/h3-6,8,11,13-14,19-20,23H,1,7,9-10,12H2,2H3/t13-,14-,19-,20+/m0/s1
Instrument: Q Exactive Orbitrap (Thermo Scientific)
Instrument type: LC-ESI-QFT
Ms type: MS2
Ion mode: POSITIVE
Ionization: ESI
Fragmentation mode: HCD
Collision energy: 90
Resolution: 17500
Column name: Acquity BEH C18 1.7um, 2.1x150mm (Waters)
Retention time: 11.420 min
Base peak: 79.0211
Precursor m/z: 325.1911
Precursor type: [M+H]+
Precursor intensity: 32466518
m/z	relative intensity	assigned
51.0231	2	C4H3+
53.0022	41	C3HO+
53.0386	273	C4H5+
53.9975	5	C2NO+
54.0338	9	C3H4N+
55.0542	137	C4H7+
56.0495	44	C3H6N+
57.0573	3	C3H7N+
58.065	4	C3H8N+
65.0385	122	C5H5+
66.0463	56	C5H6+
67.0416	38	C4H5N+
67.0542	215	C5H7+
68.0494	80	C4H6N+
69.0573	24	C4H7N+
69.0699	4	C5H9+
70.0651	21	C4H8N+
77.0385	27	C6H5+
78.0464	6	C6H6+
79.0542	999	C6H7+
80.0494	194	C5H6N+
81.0698	391	C6H9+
82.0651	148	C5H8N+
83.0729	6	C5H9N+
84.0807	12	C5H10N+
89.0386	9	C7H5+
91.0542	156	C7H7+
92.0494	7	C6H6N+
92.062	2	C7H8+
93.0572	40	C6H7N+
93.0698	31	C7H9+
94.0651	79	C6H8N+
95.0491	172	C6H7O+
95.0729	23	C6H9N+
95.0856	13	C7H11+
96.0442	8	C5H6NO+
96.0808	19	C6H10N+
102.0463	16	C8H6+
103.0542	34	C8H7+
105.0447	66	C6H5N2+
105.0699	34	C8H9+
106.0651	60	C7H8N+
107.073	16	C7H9N+
107.0854	4	C8H11+
108.0807	62	C7H10N+
109.0648	4	C7H9O+
109.0884	4	C7H11N+
110.06	6	C6H8NO+
110.0964	12	C7H12N+
115.0542	137	C9H7+
116.0493	26	C8H6N+
117.0572	244	C8H7N+
117.0698	16	C9H9+
118.065	23	C8H8N+
119.0729	11	C8H9N+
120.0807	30	C8H10N+
121.0646	4	C8H9O+
121.0885	3	C8H11N+
122.0963	11	C8H12N+
124.0754	2	C7H10NO+
124.1122	6	C8H14N+
128.0495	10	C9H6N+
129.0572	98	C9H7N+
130.0411	7	C9H6O+
130.0651	52	C9H8N+
131.0729	83	C9H9N+
132.0444	12	C8H6NO+
132.0808	13	C9H10N+
133.0521	9	C8H7NO+
133.0646	27	C9H9O+
134.0963	44	C9H12N+
136.112	19	C9H14N+
140.0492	13	C10H6N+
141.0572	100	C10H7N+
142.0651	97	C10H8N+
143.0365	17	C9H5NO+
143.0729	197	C10H9N+
144.0807	60	C10H10N+
145.0522	120	C9H7NO+
145.0647	40	C10H9O+
146.06	43	C9H8NO+
147.0677	6	C9H9NO+
148.0393	10	C8H6NO2+
153.0573	22	C11H7N+
154.065	259	C11H8N+
155.0605	13	C10H7N2+
155.0729	165	C11H9N+
156.0683	31	C10H8N2+
156.0806	36	C11H10N+
157.0522	79	C10H7NO+
157.0885	8	C11H11N+
158.06	135	C10H8NO+
159.0677	54	C10H9NO+
160.0756	196	C10H10NO+
161.0471	7	C9H7NO2+
162.0908	3	C10H12NO+
166.0651	50	C12H8N+
166.1226	3	C10H16NO+
167.0729	172	C12H9N+
168.0682	41	C11H8N2+
168.0806	38	C12H10N+
169.0521	184	C11H7NO+
169.0757	19	C11H9N2+
169.0883	12	C12H11N+
170.0599	104	C11H8NO+
170.0836	9	C11H10N2+
171.0678	31	C11H9NO+
172.0756	409	C11H10NO+
173.0834	40	C11H11NO+
174.0549	36	C10H8NO2+
174.0913	18	C11H12NO+
175.0627	29	C10H9NO2+
176.0706	4	C10H10NO2+
179.073	14	C13H9N+
180.0807	56	C13H10N+
181.0522	11	C12H7NO+
181.0755	13	C12H9N2+
181.0885	38	C13H11N+
182.06	94	C12H8NO+
182.0838	22	C12H10N2+
182.0965	9	C13H12N+
183.0678	124	C12H9NO+
183.1042	14	C13H13N+
184.0756	78	C12H10NO+
185.0475	3	C11H7NO2+
185.0704	2	C11H9N2O+
185.0836	5	C12H11NO+
186.0549	14	C11H8NO2+
186.0913	88	C12H12NO+
188.0705	16	C11H10NO2+
189.0785	5	C11H11NO2+
191.0576	2	C13H7N2+
191.0727	20	C14H9N+
192.0807	29	C14H10N+
193.0763	7	C13H9N2+
193.0886	28	C14H11N+
194.06	13	C13H8NO+
194.0838	11	C13H10N2+
194.096	16	C14H12N+
195.0679	24	C13H9NO+
195.0914	10	C13H11N2+
195.104	7	C14H13N+
196.0631	8	C12H8N2O+
196.0756	36	C13H10NO+
196.0994	8	C13H12N2+
197.0711	14	C12H9N2O+
197.0834	32	C13H11NO+
197.107	2	C13H13N2+
198.0799	3	C12H10N2O+
198.0913	37	C13H12NO+
199.0628	5	C12H9NO2+
199.0864	8	C12H11N2O+
200.0704	15	C12H10NO2+
200.1067	2	C13H14NO+
202.0861	6	C12H12NO2+
204.0807	28	C15H10N+
205.0759	8	C14H9N2+
205.0884	21	C15H11N+
206.0602	4	C14H8NO+
206.0837	13	C14H10N2+
206.0963	21	C15H12N+
207.0672	4	C14H9NO+
207.0916	21	C14H11N2+
207.1041	9	C15H13N+
208.0756	22	C14H10NO+
208.0995	22	C14H12N2+
208.1109	3	C15H14N+
209.071	5	C13H9N2O+
209.0834	11	C14H11NO+
209.107	6	C14H13N2+
210.0795	3	C13H10N2O+
210.091	46	C14H12NO+
210.1149	5	C14H14N2+
211.0863	21	C13H11N2O+
211.0988	5	C14H13NO+
212.0951	2	C13H12N2O+
212.1071	6	C14H14NO+
214.0859	7	C13H12NO2+
216.0802	3	C16H10N+
217.0881	15	C16H11N+
218.0845	3	C15H10N2+
218.0964	19	C16H12N+
219.0673	4	C15H9NO+
219.0916	13	C15H11N2+
219.1042	8	C16H13N+
220.0756	18	C15H10NO+
220.0991	8	C15H12N2+
220.112	9	C16H14N+
221.0716	4	C14H9N2O+
221.0839	5	C15H11NO+
221.107	7	C15H13N2+
221.1198	7	C16H15N+
222.0785	5	C14H10N2O+
222.0911	13	C15H12NO+
222.115	6	C15H14N2+
223.0864	6	C14H11N2O+
223.0991	8	C15H13NO+
224.0948	3	C14H12N2O+
224.1066	21	C15H14NO+
225.1022	6	C14H13N2O+
226.1226	3	C15H16NO+
230.0962	4	C17H12N+
231.1048	2	C17H13N+
232.0745	4	C16H10NO+
232.1	3	C16H12N2+
232.112	7	C17H14N+
233.0834	8	C16H11NO+
233.1076	4	C16H13N2+
233.1204	3	C17H15N+
234.0913	11	C16H12NO+
234.1149	6	C16H14N2+
234.1272	3	C17H16N+
235.0864	21	C15H11N2O+
235.0987	2	C16H13NO+
236.094	8	C15H12N2O+
236.1068	13	C16H14NO+
237.1021	18	C15H13N2O+
238.1222	5	C16H16NO+
246.0909	5	C17H12NO+
247.0991	5	C17H13NO+
248.0944	3	C16H12N2O+
248.1068	14	C17H14NO+
249.1014	10	C16H13N2O+
250.1095	4	C16H14N2O+
250.1225	5	C17H16NO+
251.1174	16	C16H15N2O+
260.1073	2	C18H14NO+
263.118	3	C17H15N2O+
264.1385	3	C18H18NO+
265.1332	4	C17H17N2O+
277.1332	3	C18H17N2O+
