Mass spectrum: 5-Methoxypsoralen; LC-ESI-QFT; MS2; CE: 75; R=17500; [M+H]+
Name: 5-Methoxypsoralen
Name: Bergapten
Name: 4-methoxyfuro[3,2-g]chromen-7-one
Formula: C12H8O4
Exact mass: 216.0423
SMILES: COC1=C2C=COC2=CC2=C1C=CC(=O)O2
InChI: InChI=1S/C12H8O4/c1-14-12-7-2-3-11(13)16-10(7)6-9-8(12)4-5-15-9/h2-6H,1H3
Instrument: Q Exactive Orbitrap (Thermo Scientific)
Instrument type: LC-ESI-QFT
Ms type: MS2
Ion mode: POSITIVE
Ionization: ESI
Fragmentation mode: HCD
Collision energy: 75
Resolution: 17500
Column name: Acquity BEH C18 1.7um, 2.1x150mm (Waters)
Retention time: 16.127 min
Base peak: 79.0212
Precursor m/z: 217.0495
Precursor type: [M+H]+
Precursor intensity: 3860408.0625
m/z	relative intensity	assigned
53.0022	1	C3HO+
53.0386	2	C4H5+
55.0178	8	C3H3O+
55.0542	3	C4H7+
62.0152	1	C5H2+
63.0228	1	C5H3+
65.0386	5	C5H5+
66.0464	24	C5H6+
68.0256	2	C4H4O+
68.9971	2	C3HO2+
76.0307	2	C6H4+
77.0385	2	C6H5+
78.0463	1	C6H6+
79.0542	8	C6H7+
81.0335	1	C5H5O+
82.0049	2	C4H2O2+
83.0493	2	C5H7O+
89.0385	32	C7H5+
90.0464	99	C7H6+
91.0542	19	C7H7+
92.0257	4	C6H4O+
93.0336	1	C6H5O+
94.0413	7	C6H6O+
95.0491	6	C6H7O+
97.0076	10	C8H+
100.0308	3	C8H4+
102.0463	21	C8H6+
103.0542	13	C8H7+
105.0335	4	C7H5O+
105.0699	23	C8H9+
106.0411	1	C7H6O+
108.0207	1	C6H4O2+
111.0232	1	C9H3+
115.0542	116	C9H7+
116.062	1	C9H8+
117.0335	5	C8H5O+
117.0698	7	C9H9+
118.0413	302	C8H6O+
119.0124	1	C7H3O2+
119.0489	1	C8H7O+
120.0205	1	C7H4O2+
121.0285	5	C7H5O2+
122.0363	4	C7H6O2+
128.0255	2	C9H4O+
129.0334	5	C9H5O+
130.0413	7	C9H6O+
131.0491	99	C9H7O+
132.0206	2	C8H4O2+
133.0286	2	C8H5O2+
133.0647	9	C9H9O+
134.0363	1	C8H6O2+
143.0491	4	C10H7O+
145.0284	29	C9H5O2+
145.0648	4	C10H9O+
146.0362	196	C9H6O2+
149.0233	8	C8H5O3+
156.0206	43	C10H4O2+
158.0362	15	C10H6O2+
159.0438	2	C10H7O2+
161.0231	1	C9H5O3+
161.0598	15	C10H9O2+
162.0311	4	C9H6O3+
171.044	1	C11H7O2+
173.0235	9	C10H5O3+
173.0598	4	C11H9O2+
174.0311	999	C10H6O3+
178.026	72	C9H6O4+
184.0153	3	C11H4O3+
189.0536	1	C11H9O3+
202.026	918	C11H6O4+
217.0496	13	C12H9O4+
