Mass spectrum: SAR115740; LC-ESI-QFT; MS2; CE: 60; R=17500; [M+H]+
Name: SAR115740
Name: 5-fluoro-1-[(3-fluorophenyl)methyl]-N-(1H-indol-5-yl)indole-2-carboxamide
Formula: C24H17F2N3O
Exact mass: 401.1340
SMILES: FC1=CC=C2N(CC3=CC(F)=CC=C3)C(=CC2=C1)C(=O)NC1=CC=C2NC=CC2=C1
InChI: InChI=1S/C24H17F2N3O/c25-18-3-1-2-15(10-18)14-29-22-7-4-19(26)11-17(22)13-23(29)24(30)28-20-5-6-21-16(12-20)8-9-27-21/h1-13,27H,14H2,(H,28,30)
Instrument: Q Exactive Orbitrap (Thermo Scientific)
Instrument type: LC-ESI-QFT
Ms type: MS2
Ion mode: POSITIVE
Ionization: ESI
Fragmentation mode: HCD
Collision energy: 60
Resolution: 17500
Column name: Acquity BEH C18 1.7um, 2.1x150mm (Waters)
Retention time: 18.363 min
Base peak: 79.0212
Precursor m/z: 402.1412
Precursor type: [M+H]+
Precursor intensity: 8212978.25
m/z	relative intensity	assigned
57.0136	2	C3H2F+
59.0292	1	C3H4F+
83.0292	35	C5H4F+
89.0386	3	C7H5+
104.0495	34	C7H6N+
106.0652	2	C7H8N+
107.0292	17	C7H4F+
109.0448	999	C7H6F+
110.0399	4	C6H5FN+
116.0495	7	C8H6N+
117.0573	2	C8H7N+
123.024	2	C7H4FO+
123.0352	2	C6H4FN2+
130.0524	1	C8H6N2+
131.0605	340	C8H7N2+
132.0682	441	C8H8N2+
133.076	21	C8H9N2+
134.04	7	C8H5FN+
134.06	4	C8H8NO+
135.048	5	C8H6FN+
136.0557	106	C8H7FN+
143.0604	6	C9H7N2+
144.0554	1	C8H6N3+
145.076	4	C9H9N2+
148.0558	23	C9H7FN+
149.0273	3	C8H4FNO+
150.0349	1	C8H5FNO+
152.0506	8	C8H7FNO+
159.0552	4	C9H7N2O+
161.0709	3	C9H9N2O+
162.035	99	C9H5FNO+
165.0699	3	C13H9+
167.0377	2	C11H5NO+
171.0553	39	C10H7N2O+
172.0552	1	C11H7FN+
180.0807	1	C13H10N+
185.0761	1	C13H10F+
192.0808	2	C14H10N+
194.0961	1	C14H12N+
195.0605	1	C14H8F+
206.0966	1	C15H12N+
208.1119	2	C15H14N+
211.0792	1	C14H10FN+
212.087	26	C14H11FN+
219.0916	2	C15H11N2+
222.0714	19	C15H9FN+
223.0791	9	C15H10FN+
237.0821	1	C15H10FN2+
238.0902	5	C15H11FN2+
239.098	42	C15H12FN2+
250.0657	1	C16H9FNO+
252.0619	6	C16H8F2N+
253.0692	2	C16H9F2N+
265.101	1	C16H12FN3+
270.0721	2	C16H10F2NO+
357.1389	3	C23H18FN2O+
