Mass spectrum: Formononetin; LC-ESI-QFT; MS2; CE: 75; R=17500; [M-H]-
Name: Formononetin
Name: 7-hydroxy-3-(4-methoxyphenyl)chromen-4-one
Formula: C16H12O4
Exact mass: 268.0736
SMILES: COC1=CC=C(C=C1)C1=COC2=C(C=CC(O)=C2)C1=O
InChI: InChI=1S/C16H12O4/c1-19-12-5-2-10(3-6-12)14-9-20-15-8-11(17)4-7-13(15)16(14)18/h2-9,17H,1H3
Instrument: Q Exactive Orbitrap (Thermo Scientific)
Instrument type: LC-ESI-QFT
Ms type: MS2
Ion mode: NEGATIVE
Ionization: ESI
Fragmentation mode: HCD
Collision energy: 75
Resolution: 17500
Column name: Acquity BEH C18 1.7um, 2.1x150mm (Waters)
Retention time: 16.859 min
Base peak: 291.0599
Precursor m/z: 267.0663
Precursor type: [M-H]-
Precursor intensity: 42704332.00586
m/z	relative intensity	assigned
65.0033	5	C4HO-
67.0189	1	C4H3O-
91.019	315	C6H3O-
95.0138	1	C5H3O2-
104.0268	29	C7H4O-
107.0138	2	C6H3O2-
108.0217	17	C6H4O2-
116.0268	3	C8H4O-
117.0346	6	C8H5O-
132.0217	461	C8H4O2-
135.0088	232	C7H3O3-
151.0555	2	C12H7-
153.0193	56	C7H5O4-
167.0502	76	C12H7O-
168.058	2	C12H8O-
169.0661	2	C12H9O-
171.0458	1	C11H7O2-
179.0502	6	C13H7O-
180.0581	54	C13H8O-
182.037	1	C12H6O2-
183.0454	1	C12H7O2-
195.0451	796	C13H7O2-
196.0531	15	C13H8O2-
197.0607	2	C13H9O2-
198.0324	2	C12H6O3-
206.0372	3	C14H6O2-
207.0452	7	C14H7O2-
208.053	93	C14H8O2-
223.0401	999	C14H7O3-
224.0479	85	C14H8O3-
250.0272	4	C15H6O4-
251.035	445	C15H7O4-
252.0428	129	C15H8O4-
