Mass spectrum: Clodinafop-propargyl; LC-ESI-QFT; MS2; CE: 45; R=17500; [M+H]+
Name: Clodinafop-propargyl
Name: prop-2-ynyl (2R)-2-[4-(5-chloro-3-fluoropyridin-2-yl)oxyphenoxy]propanoate
Formula: C17H13ClFNO4
Exact mass: 349.0517
SMILES: C[C@@H](OC1=CC=C(OC2=NC=C(Cl)C=C2F)C=C1)C(=O)OCC#C
InChI: InChI=1S/C17H13ClFNO4/c1-3-8-22-17(21)11(2)23-13-4-6-14(7-5-13)24-16-15(19)9-12(18)10-20-16/h1,4-7,9-11H,8H2,2H3/t11-/m1/s1
Instrument: Q Exactive Orbitrap (Thermo Scientific)
Instrument type: LC-ESI-QFT
Ms type: MS2
Ion mode: POSITIVE
Ionization: ESI
Fragmentation mode: HCD
Collision energy: 45
Resolution: 17500
Column name: Acquity BEH C18 1.7um, 2.1x150mm (Waters)
Retention time: 18.291 min
Base peak: 79.0212
Precursor m/z: 350.059
Precursor type: [M+H]+
Precursor intensity: 11215878.875
m/z	relative intensity	assigned
53.0022	1	C3HO+
53.0386	1	C4H5+
55.0179	7	C3H3O+
63.0229	1	C5H3+
65.0385	22	C5H5+
67.0542	1	C5H7+
91.0542	999	C7H7+
92.062	26	C7H8+
93.0334	1	C6H5O+
93.0699	1	C7H9+
94.0413	4	C6H6O+
95.049	1	C6H7O+
102.0464	5	C8H6+
103.0542	9	C8H7+
109.0284	2	C6H5O2+
109.0648	15	C7H9O+
111.044	3	C6H7O2+
112.0518	1	C6H8O2+
115.0542	1	C9H7+
119.0492	108	C8H7O+
119.0598	7	CH10FNO4+
120.057	70	C8H8O+
121.0284	39	C7H5O2+
121.0647	21	C8H9O+
123.044	2	C7H7O2+
128.062	5	C10H8+
129.0698	7	C10H9+
130.0411	3	C9H6O+
130.0778	1	C10H10+
131.0491	30	C9H7O+
132.001	4	C5H4ClFN+
132.057	8	C9H8O+
146.0166	1	C6H6ClFN+
146.9881	2	C5H3ClFNO+
147.0442	3	C3H11ClFNO2+
147.0608	3	C10H8F+
147.9959	46	C5H4ClFNO+
154.0651	4	C11H8N+
155.0604	1	C4H10FNO4+
156.0012	1	C7H4ClFN+
157.0646	2	C11H9O+
158.0724	4	C11H10O+
159.0799	1	C11H11O+
160.0681	1	C11H9F+
162.0115	6	C6H6ClFNO+
169.0087	3	C8H5ClFN+
170.0168	4	C8H6ClFN+
174.0716	4	C11H9FN+
175.0553	1	C11H8FO+
175.0793	5	C11H10FN+
176.0506	14	C10H7FNO+
178.0065	5	C6H6ClFNO2+
182.0166	14	C9H6ClFN+
182.06	1	C12H8NO+
183.0679	2	C12H9NO+
184.0557	2	C12H7FN+
185.0634	9	C12H8FN+
187.0429	3	C11H6FNO+
188.0504	1	C11H7FNO+
194.0168	2	C10H6ClFN+
195.0246	5	C10H7ClFN+
198.0115	1	C9H6ClFNO+
202.0662	17	C12H9FNO+
203.0741	30	C15H9N+
204.0454	2	C11H7FNO2+
206.0171	1	C11H6ClFN+
210.0119	4	C10H6ClFNO+
210.0479	34	C11H10ClFN+
211.0195	6	C10H7ClFNO+
214.066	4	C13H9FNO+
216.0456	3	C12H7FNO2+
218.037	5	C12H9ClNO+
219.0247	2	C12H7ClFN+
220.0323	20	C12H8ClFN+
222.0116	260	C11H6ClFNO+
223.0189	6	C14H4FO2+
230.0612	11	C13H9FNO2+
231.069	20	C13H10FNO2+
235.0198	1	C12H7ClFNO+
238.0066	85	C11H6ClFNO2+
238.0428	283	C12H10ClFNO+
239.0143	72	C11H7ClFNO2+
240.0216	3	C14H5FO3+
246.0315	1	C13H9ClNO2+
248.027	6	C16H5FO2+
251.0145	2	C12H7ClFNO2+
252.0221	4	C12H8ClFNO2+
266.0377	165	C13H10ClFNO2+
276.0221	26	C14H8ClFNO2+
277.0303	1	C14H9ClFNO2+
278.038	1	C14H10ClFNO2+
311.0355	1	C14H11ClFNO4+
