Mass spectrum: 5HPP-33; LC-ESI-QFT; MS2; CE: 45; R=17500; [M-H]-
Name: 5HPP-33
Name: 2-(2,6-Diisopropylphenyl)-5-hydroxyisoindoline-1,3-dione
Name: 2-[2,6-di(propan-2-yl)phenyl]-5-hydroxyisoindole-1,3-dione
Formula: C20H21NO3
Exact mass: 323.1521
SMILES: CC(C)C1=CC=CC(C(C)C)=C1N1C(=O)C2=C(C=C(O)C=C2)C1=O
InChI: InChI=1S/C20H21NO3/c1-11(2)14-6-5-7-15(12(3)4)18(14)21-19(23)16-9-8-13(22)10-17(16)20(21)24/h5-12,22H,1-4H3
Instrument: Q Exactive Orbitrap (Thermo Scientific)
Instrument type: LC-ESI-QFT
Ms type: MS2
Ion mode: NEGATIVE
Ionization: ESI
Fragmentation mode: HCD
Collision energy: 45
Resolution: 17500
Column name: Acquity BEH C18 1.7um, 2.1x150mm (Waters)
Retention time: 18.689 min
Base peak: 322.1447
Precursor m/z: 322.1449
Precursor type: [M-H]-
Precursor intensity: 84675534.04688
m/z	relative intensity	assigned
91.0189	1	C6H3O-
93.0345	1	C6H5O-
108.0218	3	C6H4O2-
160.0164	1	C9H4O3-
161.0118	18	C8H3NO3-
174.0558	1	C10H8NO2-
187.1002	1	C12H13NO-
223.0639	3	C14H9NO2-
235.1001	6	C16H13NO-
236.0712	3	C15H10NO2-
239.0953	6	C15H13NO2-
248.1079	17	C17H14NO-
251.0951	23	C16H13NO2-
262.1237	18	C18H16NO-
263.107	1	C18H15O2-
263.1316	19	C18H17NO-
264.0676	2	C16H10NO3-
264.1019	2	C17H14NO2-
264.1165	3	C18H16O2-
267.0899	2	C16H13NO3-
278.1185	2	C18H16NO2-
278.1545	1	C19H20NO-
279.1264	1	C18H17NO2-
280.0976	1	C17H14NO3-
290.0819	1	C18H12NO3-
290.119	2	C19H16NO2-
292.0977	1	C18H14NO3-
306.1135	300	C19H16NO3-
307.1213	99	C19H17NO3-
322.1447	999	C20H20NO3-
