Mass spectrum: 2,2`-(Tetradecylimino)diethanol; LC-ESI-QFT; MS2; CE: 45; R=17500; [M+H]+
Name: 2,2'-(Tetradecylimino)diethanol
Name: Tetradecyldiethanolamine
Formula: C18H39NO2
Exact mass: 301.2981
SMILES: CCCCCCCCCCCCCCN(CCO)CCO
InChI: InChI=1S/C18H39NO2/c1-2-3-4-5-6-7-8-9-10-11-12-13-14-19(15-17-20)16-18-21/h20-21H,2-18H2,1H3
Instrument: Q Exactive Orbitrap (Thermo Scientific)
Instrument type: LC-ESI-QFT
Ms type: MS2
Ion mode: POSITIVE
Ionization: ESI
Fragmentation mode: HCD
Collision energy: 45
Resolution: 17500
Column name: Acquity BEH C18 1.7um, 2.1x150mm (Waters)
Retention time: 18.110 min
Base peak: 79.0211
Precursor m/z: 302.3054
Precursor type: [M+H]+
Precursor intensity: 36798240.89063
m/z	relative intensity	assigned
53.0022	7	C3HO+
53.9975	1	C2NO+
55.0542	4	C4H7+
56.0494	1	C3H6N+
57.0699	224	C4H9+
58.0651	13	C3H8N+
60.0443	2	C2H6NO+
62.06	18	C2H8NO+
68.0494	3	C4H6N+
69.0698	4	C5H9+
70.065	317	C4H8N+
71.0854	128	C5H11+
72.0807	2	C4H10N+
74.06	1	C3H8NO+
83.0855	1	C6H11+
85.1011	56	C6H13+
86.06	7	C4H8NO+
88.0757	629	C4H10NO+
102.0913	178	C5H12NO+
104.0706	2	C4H10NO2+
106.0862	382	C4H12NO2+
240.2684	13	C16H34N+
256.2638	1	C16H34NO+
258.2791	40	C16H36NO+
284.2947	271	C18H38NO+
302.3053	999	C18H40NO2+
