Mass spectrum: Michler`s ketone; LC-ESI-QFT; MS2; CE: 90; R=17500; [M+H]+
Name: Michler's ketone
Name: bis[4-(dimethylamino)phenyl]methanone
Formula: C17H20N2O
Exact mass: 268.1576
SMILES: CN(C)C1=CC=C(C=C1)C(=O)C1=CC=C(C=C1)N(C)C
InChI: InChI=1S/C17H20N2O/c1-18(2)15-9-5-13(6-10-15)17(20)14-7-11-16(12-8-14)19(3)4/h5-12H,1-4H3
Instrument: Q Exactive Orbitrap (Thermo Scientific)
Instrument type: LC-ESI-QFT
Ms type: MS2
Ion mode: POSITIVE
Ionization: ESI
Fragmentation mode: HCD
Collision energy: 90
Resolution: 17500
Column name: Acquity BEH C18 1.7um, 2.1x150mm (Waters)
Retention time: 18.149 min
Base peak: 79.0211
Precursor m/z: 269.1648
Precursor type: [M+H]+
Precursor intensity: 30733303.40625
m/z	relative intensity	assigned
50.0151	1	C4H2+
51.023	4	C4H3+
53.0386	133	C4H5+
54.0338	8	C3H4N+
55.0179	6	C3H3O+
63.0229	1	C5H3+
65.0385	67	C5H5+
67.0542	10	C5H7+
68.0494	6	C4H6N+
77.0385	53	C6H5+
78.0338	3	C5H4N+
78.0464	40	C6H6+
79.0542	671	C6H7+
80.0494	99	C5H6N+
81.0335	28	C5H5O+
81.0573	13	C5H7N+
82.0287	2	C4H4NO+
91.0542	582	C7H7+
92.0495	70	C6H6N+
92.062	145	C7H8+
93.0574	39	C6H7N+
93.0699	157	C7H9+
94.0413	15	C6H6O+
94.0651	42	C6H8N+
95.0491	374	C6H7O+
96.0444	14	C5H6NO+
96.0807	16	C6H10N+
102.0464	5	C8H6+
103.0542	171	C8H7+
104.0495	184	C7H6N+
105.0448	140	C6H5N2+
105.0573	707	C7H7N+
109.0523	3	C6H7NO+
109.0647	11	C7H9O+
110.06	54	C6H8NO+
117.0574	7	C8H7N+
118.0651	154	C8H8N+
119.0605	4	C7H7N2+
119.0729	74	C8H9N+
120.0808	380	C8H10N+
124.0757	18	C7H10NO+
132.0444	9	C8H6NO+
136.0756	2	C8H10NO+
138.0914	5	C8H12NO+
148.0756	999	C9H10NO+
152.1069	1	C9H14NO+
