Mass spectrum: Bupirimate; LC-ESI-QFT; MS2; CE: 90; R=17500; [M+H]+
Name: Bupirimate
Name: [5-butyl-2-(ethylamino)-6-methylpyrimidin-4-yl] N,N-dimethylsulfamate
Formula: C13H24N4O3S
Exact mass: 316.1569
SMILES: CCCCC1=C(OS(=O)(=O)N(C)C)N=C(NCC)N=C1C
InChI: InChI=1S/C13H24N4O3S/c1-6-8-9-11-10(3)15-13(14-7-2)16-12(11)20-21(18,19)17(4)5/h6-9H2,1-5H3,(H,14,15,16)
Instrument: Q Exactive Orbitrap (Thermo Scientific)
Instrument type: LC-ESI-QFT
Ms type: MS2
Ion mode: POSITIVE
Ionization: ESI
Fragmentation mode: HCD
Collision energy: 90
Resolution: 17500
Column name: Acquity BEH C18 1.7um, 2.1x150mm (Waters)
Retention time: 17.276 min
Base peak: 79.0211
Precursor m/z: 317.1642
Precursor type: [M+H]+
Precursor intensity: 28543519.4375
m/z	relative intensity	assigned
53.0022	9	C3HO+
53.0386	95	C4H5+
54.0338	55	C3H4N+
55.0179	416	C3H3O+
55.0291	47	C2H3N2+
55.0543	202	C4H7+
56.0495	40	C3H6N+
57.0447	37	C2H5N2+
57.0573	8	C3H7N+
57.0699	8	C4H9+
58.0652	23	C3H8N+
65.0386	32	C5H5+
67.0542	208	C5H7+
68.0495	223	C4H6N+
69.0083	408	C2HN2O+
69.0335	55	C4H5O+
69.0447	99	C3H5N2+
69.0573	107	C4H7N+
69.0699	29	C5H9+
70.0651	642	C4H8N+
71.0604	379	C3H7N2+
72.0444	5	C3H6NO+
78.0337	4	C5H4N+
79.0542	79	C6H7+
80.0495	94	C5H6N+
81.0334	20	C5H5O+
81.0448	137	C4H5N2+
81.0574	57	C5H7N+
81.0699	60	C6H9+
82.0526	18	C4H6N2+
82.0651	117	C5H8N+
83.024	15	C3H3N2O+
83.0493	7	C5H7O+
83.0604	12	C4H7N2+
83.073	58	C5H9N+
84.0445	36	C4H6NO+
84.0557	8	C3H6N3+
84.0808	46	C5H10N+
85.0761	20	C4H9N2+
86.0351	7	C2H4N3O+
86.0713	89	C3H8N3+
91.0543	64	C7H7+
92.0495	14	C6H6N+
93.0447	16	C5H5N2+
93.0699	61	C7H9+
94.0652	62	C6H8N+
95.0492	38	C6H7O+
95.0604	210	C5H7N2+
95.0729	28	C6H9N+
95.0856	77	C7H11+
96.0444	957	C5H6NO+
96.0808	63	C6H10N+
97.0397	79	C4H5N2O+
97.0639	7	C6H9O+
97.0759	26	C5H9N2+
98.0601	999	C5H8NO+
103.0543	6	C8H7+
104.9755	13	CHN2O2S+
105.0449	19	C6H5N2+
105.0699	13	C8H9+
106.0653	13	C7H8N+
107.0606	21	C6H7N2+
107.073	100	C7H9N+
108.0114	440	C2H6NO2S+
109.0394	7	C5H5N2O+
109.0635	85	C5H7N3+
109.0761	111	C6H9N2+
110.0601	103	C6H8NO+
110.0713	158	C5H8N3+
110.0965	36	C7H12N+
111.0554	13	C5H7N2O+
111.0791	63	C5H9N3+
112.0508	20	C4H6N3O+
112.1121	10	C7H14N+
114.0663	7	C4H8N3O+
120.081	27	C8H10N+
121.0762	42	C7H9N2+
122.0713	166	C6H8N3+
122.0838	25	C7H10N2+
122.0965	17	C8H12N+
123.0553	60	C6H7N2O+
123.079	33	C6H9N3+
123.0917	17	C7H11N2+
124.0505	10	C5H6N3O+
124.0634	22	C6H8N2O+
124.0757	46	C7H10NO+
124.0869	36	C6H10N3+
125.0713	8	C6H9N2O+
128.0706	21	C6H10NO2+
133.0762	8	C8H9N2+
135.0793	14	C7H9N3+
135.0918	8	C8H11N2+
136.087	164	C7H10N3+
137.0584	13	C6H7N3O+
137.0948	38	C7H11N3+
137.1072	4	C8H13N2+
138.0662	273	C6H8N3O+
138.1026	39	C7H12N3+
139.0741	106	C6H9N3O+
140.107	293	C8H14NO+
148.087	10	C8H10N3+
149.0711	28	C8H9N2O+
150.1027	132	C8H12N3+
151.074	17	C7H9N3O+
151.098	11	C7H11N4+
151.1104	18	C8H13N3+
152.0819	78	C7H10N3O+
153.0891	5	C7H11N3O+
156.053	17	C6H8N2O3+
162.1028	6	C9H12N3+
164.082	148	C8H10N3O+
164.1182	14	C9H14N3+
165.0901	37	C8H11N3O+
165.1022	105	C9H13N2O+
165.1258	6	C9H15N3+
166.0976	235	C8H12N3O+
167.1053	20	C8H13N3O+
177.1025	6	C10H13N2O+
179.1292	48	C9H15N4+
180.113	17	C9H14N3O+
182.1289	34	C9H16N3O+
192.1496	6	C11H18N3+
193.1336	18	C11H17N2O+
194.1291	39	C10H16N3O+
210.1601	22	C11H20N3O+
