Mass spectrum: AVE3295; LC-ESI-QFT; MS2; CE: 60; R=17500; [M+H]+
Name: AVE3295
Name: 5-Fluoro-N-[(1S)-1-phenylpropyl]-2-[(quinolin-8-ylsulfonyl)amino]benzamide
Name: 5-fluoro-N-[(1S)-1-phenylpropyl]-2-(quinolin-8-ylsulfonylamino)benzamide
Formula: C25H22FN3O3S
Exact mass: 463.1366
SMILES: CC[C@H](NC(=O)c1cc(F)ccc1NS(=O)(=O)c1cccc2cccnc12)c1ccccc1
InChI: InChI=1S/C25H22FN3O3S/c1-2-21(17-8-4-3-5-9-17)28-25(30)20-16-19(26)13-14-22(20)29-33(31,32)23-12-6-10-18-11-7-15-27-24(18)23/h3-16,21,29H,2H2,1H3,(H,28,30)/t21-/m0/s1
Instrument: Q Exactive Orbitrap (Thermo Scientific)
Instrument type: LC-ESI-QFT
Ms type: MS2
Ion mode: POSITIVE
Ionization: ESI
Fragmentation mode: HCD
Collision energy: 60
Resolution: 17500
Column name: Acquity BEH C18 1.7um, 2.1x150mm (Waters)
Retention time: 17.503 min
Base peak: 79.0211
Precursor m/z: 464.1439
Precursor type: [M+H]+
Precursor intensity: 17147542.40625
m/z	relative intensity	assigned
56.0494	1	C3H6N+
63.0229	1	C5H3+
65.0385	15	C5H5+
91.0541	999	C7H7+
105.0573	4	C7H7N+
106.065	6	C7H8N+
109.0321	1	C6H4FN+
110.04	4	C6H5FN+
117.057	2	C8H7N+
117.0697	3	C4H8FN3+
119.0855	12	C9H11+
128.0493	64	C9H6N+
129.0444	1	C8H5N2+
129.057	4	C9H7N+
132.0441	2	C8H6NO+
134.0963	42	C9H12N+
137.0269	3	C7H4FNO+
138.0349	75	C7H5FNO+
144.0443	7	C9H6NO+
145.0521	1	C9H7NO+
146.0599	79	C9H8NO+
154.0536	11	C7H7FN2O+
155.0375	36	C7H6FNO2+
156.0442	1	C10H6NO+
156.0553	2	C9H6N3+
160.0214	11	C9H6NS+
160.0755	10	C10H10NO+
161.0292	7	C9H7NS+
169.0531	1	C8H8FNO2+
170.0611	2	C8H9FNO2+
174.0551	1	C10H8NO2+
177.024	1	C9H7NOS+
190.0649	3	C14H8N+
192.0112	15	C9H6NO2S+
194.0268	3	C9H8NO2S+
210.0218	12	C9H8NO3S+
216.0679	8	C15H8N2+
217.0758	25	C15H9N2+
221.0706	1	C14H9N2O+
222.0711	1	C15H9FN+
237.0821	29	C15H10FN2+
238.0663	3	C15H9FNO+
245.0709	8	C16H9N2O+
247.0663	10	C13H13NO2S+
263.0614	1	C16H8FN2O+
264.0693	81	C16H9FN2O+
265.0769	638	C13H15NO3S+
