Mass spectrum: Diniconazole; LC-ESI-QFT; MS2; CE: 75; R=17500; [M+H]+
Name: Diniconazole
Name: (E)-1-(2,4-dichlorophenyl)-4,4-dimethyl-2-(1,2,4-triazol-1-yl)pent-1-en-3-ol
Formula: C15H17Cl2N3O
Exact mass: 325.0749
SMILES: CC(C)(C)C(O)C(=C/C1=C(Cl)C=C(Cl)C=C1)\N1C=NC=N1
InChI: InChI=1S/C15H17Cl2N3O/c1-15(2,3)14(21)13(20-9-18-8-19-20)6-10-4-5-11(16)7-12(10)17/h4-9,14,21H,1-3H3/b13-6+
Instrument: Q Exactive Orbitrap (Thermo Scientific)
Instrument type: LC-ESI-QFT
Ms type: MS2
Ion mode: POSITIVE
Ionization: ESI
Fragmentation mode: HCD
Collision energy: 75
Resolution: 17500
Column name: Acquity BEH C18 1.7um, 2.1x150mm (Waters)
Retention time: 19.160 min
Base peak: 79.0211
Precursor m/z: 326.0821
Precursor type: [M+H]+
Precursor intensity: 20460311.71875
m/z	relative intensity	assigned
53.0022	1	C3HO+
55.0541	1	C4H7+
57.0699	11	C4H9+
59.0491	1	C3H7O+
69.0698	10	C5H9+
70.0399	999	C2H4N3+
87.0803	2	C5H11O+
91.0544	1	C7H7+
98.9996	1	C5H4Cl+
102.0465	2	C8H6+
115.0542	1	C9H7+
122.9995	6	C7H4Cl+
124.0073	1	C7H5Cl+
125.0152	1	C7H6Cl+
128.0619	1	C10H8+
129.0697	2	C10H9+
131.049	1	C9H7O+
136.0074	4	C8H5Cl+
137.0152	3	C8H6Cl+
141.0699	5	C11H9+
143.0856	1	C11H11+
145.0647	2	C10H9O+
149.0153	1	C9H6Cl+
150.0229	1	C9H7Cl+
153.0698	2	C12H9+
154.0775	5	C12H10+
155.06	1	C10H7N2+
158.0725	1	C11H10O+
158.9762	73	C7H5Cl2+
162.023	5	C10H7Cl+
165.0099	3	C9H6ClO+
169.1011	4	C13H13+
170.9761	3	C8H5Cl2+
172.0881	1	C12H12O+
172.9555	10	C7H3Cl2O+
172.9666	6	C6H3Cl2N2+
172.9918	1	C8H7Cl2+
175.0307	2	C11H8Cl+
176.0387	4	C11H9Cl+
179.0258	1	C10H8ClO+
182.071	1	C11H8N3+
182.976	2	C9H5Cl2+
189.0213	1	C10H6ClN2+
189.0464	8	C12H10Cl+
191.0242	1	C12H3N2O+
193.0414	1	C11H10ClO+
216.0324	1	C11H7ClN3+
217.0402	1	C11H8ClN3+
