Mass spectrum: Flutamide; LC-ESI-QFT; MS2; CE: 60; R=17500; [M-H]-
Name: Flutamide
Name: 2-methyl-N-[4-nitro-3-(trifluoromethyl)phenyl]propanamide
Formula: C11H11F3N2O3
Exact mass: 276.0722
SMILES: CC(C)C(=O)NC1=CC(=C(C=C1)[N+]([O-])=O)C(F)(F)F
InChI: InChI=1S/C11H11F3N2O3/c1-6(2)10(17)15-7-3-4-9(16(18)19)8(5-7)11(12,13)14/h3-6H,1-2H3,(H,15,17)
Instrument: Q Exactive Orbitrap (Thermo Scientific)
Instrument type: LC-ESI-QFT
Ms type: MS2
Ion mode: NEGATIVE
Ionization: ESI
Fragmentation mode: HCD
Collision energy: 60
Resolution: 17500
Column name: Acquity BEH C18 1.7um, 2.1x150mm (Waters)
Retention time: 17.509 min
Base peak: 275.0649
Precursor m/z: 275.0649
Precursor type: [M-H]-
Precursor intensity: 138353833.0059
m/z	relative intensity	assigned
50.0036	2	C3N-
63.0114	1	C4HN-
65.0145	1	C3HN2-
65.9985	29	C3NO-
68.0143	1	C3H2NO-
70.9939	6	C3FO-
74.0037	7	C5N-
77.0146	6	C4HN2-
86.9888	15	C3FO2-
87.0114	2	C6HN-
89.0147	2	C5HN2-
89.9986	3	C5NO-
91.019	2	C6H3O-
92.0142	3	C5H2NO-
93.0095	4	C4HN2O-
94.0099	2	C5HFN-
101.0146	4	C6HN2-
103.0064	1	C6HNO-
106.0098	4	C6HFN-
107.0177	3	C6H2FN-
110.0047	1	C5HFNO-
111.0001	1	C4FN2O-
113.9984	5	C7NO-
114.0161	1	C5H2F2N-
115.0065	2	C7HNO-
116.014	1	C7H2NO-
118.0099	7	C7HFN-
119.0251	1	C6H3N2O-
123.0123	2	C6H2FNO-
126.0161	21	C6H2F2N-
134.0047	25	C7HFNO-
135.0127	5	C7H2FNO-
136.0206	5	C7H3FNO-
137.9998	1	C6HFNO2-
138.0158	1	C7H2F2N-
139.0003	1	C7HF2O-
143.0116	4	C7H2F3-
146.0223	10	C6H3F3N-
151.0075	2	C7H2FNO2-
154.011	69	C7H2F2NO-
155.0189	12	C7H3F2NO-
159.0301	11	C7H4F3N-
160.0379	459	C7H5F3N-
161.9997	32	C8HFNO2-
162.017	3	C6H3F3NO-
165.0106	9	C7H2FN2O2-
166.0109	3	C8H2F2NO-
171.0136	7	C7H3F2NO2-
173.0095	1	C7H2F3NO-
174.0171	12	C7H3F3NO-
175.025	85	C7H4F3NO-
176.0091	12	C7H3F3O2-
182.0059	398	C8H2F2NO2-
185.0582	6	C10H8F3-
186.0172	142	C8H3F3NO-
187.0373	1	C9H6F3O-
190.0121	17	C7H3F3NO2-
191.0201	6	C7H4F3NO2-
198.0008	1	C8H2F2NO3-
201.0536	1	C10H8F3O-
202.0122	999	C8H3F3NO2-
204.015	2	C7H3F3N2O2-
205.0229	313	C7H4F3N2O2-
206.007	28	C7H3F3NO3-
229.0719	28	C11H10F3NO-
230.0067	1	C9H3F3NO3-
232.0098	5	C8H3F3N2O3-
232.0598	2	C10H9F3NO2-
259.0336	11	C10H6F3N2O3-
275.0649	52	C11H10F3N2O3-
