Mass spectrum: Haloperidol; LC-ESI-QFT; MS2; CE: 60; R=17500; [M+H]+
Name: Haloperidol
Name: 4-[4-(4-chlorophenyl)-4-hydroxypiperidin-1-yl]-1-(4-fluorophenyl)butan-1-one
Formula: C21H23ClFNO2
Exact mass: 375.1401
SMILES: OC1(CCN(CCCC(=O)C2=CC=C(F)C=C2)CC1)C1=CC=C(Cl)C=C1
InChI: InChI=1S/C21H23ClFNO2/c22-18-7-5-17(6-8-18)21(26)11-14-24(15-12-21)13-1-2-20(25)16-3-9-19(23)10-4-16/h3-10,26H,1-2,11-15H2
Instrument: Q Exactive Orbitrap (Thermo Scientific)
Instrument type: LC-ESI-QFT
Ms type: MS2
Ion mode: POSITIVE
Ionization: ESI
Fragmentation mode: HCD
Collision energy: 60
Resolution: 17500
Column name: Acquity BEH C18 1.7um, 2.1x150mm (Waters)
Retention time: 14.655 min
Base peak: 79.0211
Precursor m/z: 376.1474
Precursor type: [M+H]+
Precursor intensity: 21200174.75
m/z	relative intensity	assigned
56.0495	1	C3H6N+
71.0291	2	C4H4F+
75.0228	2	C6H3+
95.0288	3	C6H4F+
109.0449	7	C7H6F+
113.0398	10	C6H6FO+
123.0241	999	C7H4FO+
125.0151	1	C7H6Cl+
135.0604	4	C9H8F+
147.0605	2	C10H8F+
163.0556	3	C10H8FO+
165.0711	232	C10H10FO+
173.0512	1	C9H11ClF+
206.0976	4	C12H13FNO+
