Mass spectrum: Fluoxastrobin; LC-ESI-QFT; MS2; CE: 75; R=17500; [M+H]+
Name: Fluoxastrobin
Name: (E)-1-[2-[6-(2-chlorophenoxy)-5-fluoropyrimidin-4-yl]oxyphenyl]-1-(5,6-dihydro-1,4,2-dioxazin-3-yl)-N-methoxymethanimine
Formula: C21H16ClFN4O5
Exact mass: 458.0793
SMILES: CO\N=C(\C1=NOCCO1)C1=C(OC2=C(F)C(OC3=C(Cl)C=CC=C3)=NC=N2)C=CC=C1
InChI: InChI=1S/C21H16ClFN4O5/c1-28-26-18(21-27-30-11-10-29-21)13-6-2-4-8-15(13)31-19-17(23)20(25-12-24-19)32-16-9-5-3-7-14(16)22/h2-9,12H,10-11H2,1H3/b26-18+
Instrument: Q Exactive Orbitrap (Thermo Scientific)
Instrument type: LC-ESI-QFT
Ms type: MS2
Ion mode: POSITIVE
Ionization: ESI
Fragmentation mode: HCD
Collision energy: 75
Resolution: 17500
Column name: Acquity BEH C18 1.7um, 2.1x150mm (Waters)
Retention time: 17.699 min
Base peak: 79.0212
Precursor m/z: 459.0866
Precursor type: [M+H]+
Precursor intensity: 13863831.28125
m/z	relative intensity	assigned
50.0152	5	C4H2+
51.0229	12	C4H3+
52.0182	5	C3H2N+
52.0308	6	C4H4+
53.0022	30	C3HO+
53.0386	42	C4H5+
53.9975	3	C2NO+
54.0462	4	C4H6+
55.0178	15	C3H3O+
56.0131	4	C2H2NO+
57.0135	2	C3H2F+
58.0086	2	C2HFN+
63.0229	63	C5H3+
64.0181	19	C4H2N+
64.0306	18	FH3N3+
65.0386	237	C5H5+
66.0464	40	C5H6+
67.0543	5	C5H7+
68.0494	5	C4H6N+
68.997	2	C3HO2+
69.0083	10	C2HN2O+
69.9924	41	C2NO2+
70.0087	8	C3HFN+
71.0292	8	C4H4F+
72.0244	3	C3H3FN+
72.9839	7	C3H2Cl+
73.0196	27	C2H2FN2+
73.0285	3	C3H5O2+
74.0037	4	C2HFNO+
74.015	29	C6H2+
75.0229	345	C6H3+
76.0181	18	C5H2N+
77.026	8	C5H3N+
77.0385	37	C6H5+
78.0338	105	C5H4N+
79.0179	23	C5H3O+
79.0417	25	C5H5N+
79.0541	10	CH6FN3+
80.0252	2	FH3N3O+
80.0494	19	C5H6N+
81.0335	66	C5H5O+
83.0291	9	C5H4F+
84.984	13	C4H2Cl+
86.0038	4	C3HFNO+
86.9877	21	C3FO2+
86.9996	84	C4H4Cl+
88.0308	2	C7H4+
89.026	6	C6H3N+
89.0386	18	C7H5+
90.0338	252	C6H4N+
91.0417	55	C6H5N+
91.0543	11	C7H7+
92.0257	83	C6H4O+
92.037	8	C5H4N2+
92.0495	59	C6H6N+
93.0336	51	C6H5O+
94.0414	32	C6H6O+
95.0292	8	C6H4F+
95.0492	146	C6H7O+
96.0371	4	C6H5F+
96.0443	31	C5H6NO+
97.0523	17	C5H7NO+
98.0363	7	C5H6O2+
98.9996	73	C5H4Cl+
100.0181	12	C7H2N+
102.0338	185	C7H4N+
103.0417	13	C7H5N+
103.0541	3	C3H6FN3+
104.0144	2	C3H3FNO2+
104.0369	4	C6H4N2+
104.0495	34	C7H6N+
105.0335	213	C7H5O+
105.0447	75	C6H5N2+
106.0212	3	C7H3F+
106.0287	71	C6H4NO+
106.0525	5	C6H6N2+
107.0292	88	C7H4F+
107.0491	7	C7H7O+
108.0206	2	C6H4O2+
108.0244	6	C6H3FN+
108.0371	4	C7H5F+
108.0442	15	CH5FN4O+
109.0284	3	C6H5O2+
109.0323	31	C6H4FN+
110.06	2	C6H8NO+
110.9996	84	C6H4Cl+
111.0441	134	C6H7O2+
112.0074	17	C6H5Cl+
112.0319	3	C6H5FO+
113.015	3	CH5ClFN3+
113.0397	46	C6H6FO+
114.0338	32	C8H4N+
114.9946	7	C5H4ClO+
115.0292	4	C7H3N2+
115.0417	48	C8H5N+
116.0369	44	C7H4N2+
116.0495	7	C8H6N+
117.0447	42	C7H5N2+
117.0575	6	C8H7N+
118.0286	17	C2H3FN4O+
118.0526	14	CH9FNO4+
119.0366	59	C7H5NO+
119.0601	3	C7H7N2+
120.0444	280	C7H6NO+
121.0323	49	C7H4FN+
121.0396	27	C6H5N2O+
122.0401	182	C7H5FN+
122.9993	10	C2H3ClFN3+
123.0242	6	C7H4FO+
123.0353	97	C6H4FN2+
125.0153	4	C7H6Cl+
125.0597	12	C7H9O2+
126.0106	4	C6H5ClN+
126.0348	2	C6H5FNO+
127.0293	11	C8H3N2+
128.0024	43	C6H5ClO+
128.0369	13	C8H4N2+
129.0102	273	C6H6ClO+
129.0447	333	C8H5N2+
130.0289	118	C8H4NO+
130.04	626	C7H4N3+
131.0365	7	C8H5NO+
131.0604	9	C8H7N2+
132.0244	56	C8H3FN+
132.0443	26	C3H5FN4O+
133.0323	165	C8H4FN+
133.0395	19	C7H5N2O+
134.0236	11	C7H4NO2+
134.0401	58	C8H5FN+
134.0474	16	C7H6N2O+
134.0601	6	C8H8NO+
135.0242	4	C8H4FO+
135.0307	5	C5H3N4O+
135.0355	7	C7H4FN2+
135.048	3	C8H6FN+
135.0553	5	C7H7N2O+
137.0027	14	C7H4ClN+
137.0273	16	C7H4FNO+
138.0105	319	C7H5ClN+
139.0057	591	C6H4ClN2+
140.0368	28	C9H4N2+
140.9901	60	C7H3ClF+
141.0447	5	C9H5N2+
142.0399	20	C8H4N3+
142.0528	4	C9H6N2+
143.0062	10	C7H5ClF+
143.0367	5	C9H5NO+
144.0318	50	C8H4N2O+
144.0445	5	C9H6NO+
144.0557	11	C8H6N3+
145.033	7	C9H4FN+
145.0396	134	C8H5N2O+
146.0234	17	C3H3FN4O2+
147.0354	36	C8H4FN2+
147.0552	29	C8H7N2O+
147.9948	15	C8H3ClN+
148.0194	3	C8H3FNO+
148.0306	8	C7H3FN3+
148.0436	4	C8H5FN2+
149.0273	6	C8H4FNO+
149.051	9	C8H6FN2+
150.035	426	C8H5FNO+
151.0058	28	C7H4ClN2+
151.0427	30	C8H6FNO+
152.0379	2	C7H5FN2O+
152.0505	4	C8H7FNO+
152.0622	3	C12H8+
153.0455	6	C7H6FN2O+
154.0051	3	C2H4ClFN4O+
154.0399	46	C9H4N3+
154.9895	18	C7H4ClO2+
155.0241	5	C9H3N2O+
155.0353	8	C8H3N4+
156.0009	5	C7H4ClFN+
156.0557	4	C9H6N3+
157.0396	24	C9H5N2O+
158.0167	3	C7H6ClFN+
158.0473	11	C9H6N2O+
159.0353	57	C9H4FN2+
159.0552	6	C9H7N2O+
160.0432	154	C9H5FN2+
161.0272	60	C9H4FNO+
161.0346	22	C8H5N2O2+
161.0709	26	C9H9N2O+
162.0349	19	C9H5FNO+
162.0427	21	C5H9ClN3O+
162.0547	47	C4H7FN4O2+
163.0057	12	C8H4ClN2+
163.0428	4	C9H6FNO+
163.0503	21	C8H7N2O2+
164.0011	9	C7H3ClN3+
164.0341	64	C8H6NO3+
165.0222	15	C8H4FNO2+
165.0457	19	C8H6FN2O+
165.0583	5	C9H8FNO+
166.0053	10	C8H5ClNO+
166.0403	3	C3H12ClFO4+
166.066	3	C9H9FNO+
167.0379	10	C8H6FNO2+
167.0478	3	C10H5N3+
168.0011	119	C8H4ClFN+
168.032	16	C10H4N2O+
168.0455	20	C8H7FNO2+
168.0561	6	C3H14ClFO4+
169.0397	78	C10H5N2O+
170.0349	17	C9H4N3O+
170.0531	12	C12H7F+
171.0191	3	C9H3N2O2+
171.0548	2	C10H7N2O+
172.0305	2	C5H10ClFO3+
172.0426	3	C10H5FN2+
172.0502	7	C9H6N3O+
173.0386	5	C8H10ClO2+
173.051	7	C10H6FN2+
174.0466	16	C14H6+
174.0663	2	C2H16ClFO5+
175.0303	70	C9H4FN2O+
176.0381	16	C9H5FN2O+
176.0506	4	C10H7FNO+
177.0572	25	C13H7N+
178.0299	97	C9H5FNO2+
178.0654	6	C13H8N+
179.0009	8	C8H4ClN2O+
181.0397	4	C11H5N2O+
182.0611	28	C9H9FNO2+
183.996	9	C8H4ClFNO+
185.0382	6	C9H10ClO2+
186.0117	3	C8H6ClFNO+
186.0463	11	C15H6+
187.0303	8	C10H4FN2O+
187.0407	2	C5H11ClFNO3+
187.0543	3	C6H13ClFO3+
188.038	999	C10H5FN2O+
189.0458	18	C10H6FN2O+
190.0307	2	C7H8ClFN2O+
191.025	18	C9H4FN2O2+
191.0606	4	C13H7N2+
192.0682	5	C13H8N2+
194.0602	6	C13H8NO+
195.0325	9	C9H6FNO3+
195.0477	4	C13H6FN+
196.0576	13	CH13ClN4O5+
197.0636	19	C13H8FN+
198.03	2	C10H4N3O2+
200.0473	2	C9H11ClNO2+
201.0333	5	C10H4FN3O+
202.0414	11	C15H6O+
202.0517	4	C5H12ClFN2O3+
203.0599	12	C14H7N2+
204.0561	8	C6H14ClFO4+
204.0682	8	C14H8N2+
205.041	20	C10H6FN2O2+
205.0758	2	C14H9N2+
207.0675	2	C9H8FN4O+
208.0556	3	C14H7FN+
213.0334	6	C11H4FN3O+
213.057	4	C11H6FN4+
214.007	3	C9H6ClFNO2+
214.0412	10	C11H5FN3O+
215.0607	11	C15H7N2+
216.0568	4	C11H7FN3O+
218.0716	3	C7H16ClFO4+
219.0553	3	C14H7N2O+
220.0279	73	C10H5FN2O3+
221.0455	13	C12H5N4O+
222.0582	4	C14H7FN2+
223.0073	2	C10H5ClFN2O+
223.0668	25	C14H8FN2+
224.0507	8	C14H7FNO+
225.0585	22	C14H8FNO+
226.0536	4	C13H7FN2O+
228.0446	3	C16H6NO+
228.056	5	C8H14ClFO4+
229.0285	9	C16H5O2+
229.0518	5	C11H6FN4O+
230.0712	15	C15H8N3+
232.0628	10	C15H8N2O+
233.0509	4	C14H11ClF+
239.0371	5	C14H8ClN2+
241.0517	7	C12H6FN4O+
248.0616	11	C15H7FN3+
249.0694	3	C15H8FN3+
250.0537	15	C15H7FN2O+
250.0773	4	C15H9FN3+
251.0615	44	C15H8FN2O+
252.0695	5	C15H9FN2O+
277.0645	3	C16H8FN3O+
278.0722	6	C16H9FN3O+
279.0562	30	C16H8FN2O2+
280.0641	5	C16H9FN2O2+
306.0674	18	C17H9FN3O2+
318.0682	4	C20H13ClNO+
