Mass spectrum: 4-(3-Phenylpropyl)pyridine; LC-ESI-QFT; MS2; CE: 60; R=17500; [M+H]+
Name: 4-(3-Phenylpropyl)pyridine
Formula: C14H15N
Exact mass: 197.1204
SMILES: C(CC1=CC=CC=C1)CC1=CC=NC=C1
InChI: InChI=1S/C14H15N/c1-2-5-13(6-3-1)7-4-8-14-9-11-15-12-10-14/h1-3,5-6,9-12H,4,7-8H2
Instrument: Q Exactive Orbitrap (Thermo Scientific)
Instrument type: LC-ESI-QFT
Ms type: MS2
Ion mode: POSITIVE
Ionization: ESI
Fragmentation mode: HCD
Collision energy: 60
Resolution: 17500
Column name: Acquity BEH C18 1.7um, 2.1x150mm (Waters)
Retention time: 13.607 min
Base peak: 79.0211
Precursor m/z: 198.1277
Precursor type: [M+H]+
Precursor intensity: 40694323.5
m/z	relative intensity	assigned
53.0385	1	C4H5+
65.0385	1	C5H5+
66.0463	1	C5H6+
67.0417	3	C4H5N+
77.0382	1	C6H5+
79.0416	18	C5H5N+
79.0542	12	C6H7+
80.0494	86	C5H6N+
91.0543	8	C7H7+
92.0495	25	C6H6N+
93.0573	663	C6H7N+
94.0651	59	C6H8N+
103.0542	9	C8H7+
105.0699	222	C8H9+
106.0651	999	C7H8N+
107.0729	325	C7H9N+
117.0698	1	C9H9+
118.0651	2	C8H8N+
119.0731	1	C8H9N+
120.0807	29	C8H10N+
155.0853	4	C12H11+
198.1276	896	C14H16N+
