Mass spectrum: SSR161421; LC-ESI-QFT; MS2; CE: 75; R=17500; [M+H]+
Name: SSR161421
Name: N-[4-(benzylamino)-3-cyanoquinolin-2-yl]-4-methoxybenzamide
Formula: C25H20N4O2
Exact mass: 408.1586
SMILES: COC1=CC=C(C=C1)C(=O)NC1=C(C#N)C(NCC2=CC=CC=C2)=C2C=CC=CC2=N1
InChI: InChI=1S/C25H20N4O2/c1-31-19-13-11-18(12-14-19)25(30)29-24-21(15-26)23(20-9-5-6-10-22(20)28-24)27-16-17-7-3-2-4-8-17/h2-14H,16H2,1H3,(H2,27,28,29,30)
Instrument: Q Exactive Orbitrap (Thermo Scientific)
Instrument type: LC-ESI-QFT
Ms type: MS2
Ion mode: POSITIVE
Ionization: ESI
Fragmentation mode: HCD
Collision energy: 75
Resolution: 17500
Column name: Acquity BEH C18 1.7um, 2.1x150mm (Waters)
Retention time: 16.963 min
Base peak: 79.0211
Precursor m/z: 409.1659
Precursor type: [M+H]+
Precursor intensity: 22413425.5
m/z	relative intensity	assigned
51.023	1	C4H3+
53.0386	123	C4H5+
54.0464	1	C4H6+
55.0178	7	C3H3O+
55.0542	2	C4H7+
63.0228	8	C5H3+
64.0307	6	C5H4+
65.0385	9	C5H5+
68.0256	6	C4H4O+
68.9971	1	C3HO2+
77.0385	47	C6H5+
79.0178	4	C5H3O+
79.0542	77	C6H7+
81.0335	14	C5H5O+
81.0699	2	C6H9+
83.0492	1	C5H7O+
91.0542	83	C7H7+
92.0256	212	C6H4O+
94.0413	13	C6H6O+
95.0491	369	C6H7O+
96.0205	2	C5H4O2+
98.0362	1	C5H6O2+
105.0447	140	C6H5N2+
107.0491	30	C7H7O+
109.0648	3	C7H9O+
111.0442	1	C6H7O2+
124.0519	4	C7H8O2+
125.0597	236	C7H9O2+
135.0442	999	C8H7O2+
136.0523	1	C8H8O2+
139.0752	2	C8H11O2+
231.0918	1	C16H11N2+
