Mass spectrum: Triadimefon; LC-ESI-QFT; MS2; CE: 45; R=17500; [M+H]+
Name: Triadimefon
Name: 1-(4-chlorophenoxy)-3,3-dimethyl-1-(1,2,4-triazol-1-yl)butan-2-one
Formula: C14H16ClN3O2
Exact mass: 293.0931
SMILES: CC(C)(C)C(=O)C(OC1=CC=C(Cl)C=C1)N1C=NC=N1
InChI: InChI=1S/C14H16ClN3O2/c1-14(2,3)12(19)13(18-9-16-8-17-18)20-11-6-4-10(15)5-7-11/h4-9,13H,1-3H3
Instrument: Q Exactive Orbitrap (Thermo Scientific)
Instrument type: LC-ESI-QFT
Ms type: MS2
Ion mode: POSITIVE
Ionization: ESI
Fragmentation mode: HCD
Collision energy: 45
Resolution: 17500
Column name: Acquity BEH C18 1.7um, 2.1x150mm (Waters)
Retention time: 17.637 min
Base peak: 79.0211
Precursor m/z: 294.1004
Precursor type: [M+H]+
Precursor intensity: 8434101.125
m/z	relative intensity	assigned
53.0022	18	C3HO+
53.0386	1	C4H5+
53.9974	2	C2NO+
55.0542	8	C4H7+
57.0698	286	C4H9+
67.0541	12	C5H7+
69.0698	999	C5H9+
70.0776	52	C5H10+
83.0477	4	C3H5N3+
85.0647	3	C5H9O+
95.049	1	C6H7O+
98.9996	6	C5H4Cl+
103.0309	7	C5H8Cl+
105.0333	1	C7H5O+
107.049	1	C7H7O+
110.0349	3	C4H4N3O+
111.0438	1	C6H7O2+
113.0151	13	C6H6Cl+
115.0752	1	C6H11O2+
121.0648	2	C8H9O+
126.9944	73	C6H4ClO+
129.0101	116	C6H6ClO+
133.065	1	C9H9O+
139.0056	3	C6H4ClN2+
141.01	176	C7H6ClO+
147.0802	2	C10H11O+
155.0257	77	C8H8ClO+
159.0206	6	C7H8ClO2+
161.096	10	C11H13O+
162.1039	3	C11H14O+
171.1377	1	C8H17N3O+
179.0619	1	C11H12Cl+
190.0984	4	C12H14O2+
197.0727	106	C11H14ClO+
