Mass spectrum: PharmaGSID_48516; LC-ESI-QFT; MS2; CE: 90; R=17500; [M-H]-
Name: 2-chloro-4-fluoro-N-[(E)-2-phenylethenyl]sulfonylbenzamide
Name: 2-Chloro-4-fluoro-N-{[(E)-2-phenylethenyl]sulfonyl}benzamide
Name: PharmaGSID_48516
Formula: C15H11ClFNO3S
Exact mass: 339.0132
SMILES: O=C(NS(=O)(=O)/C=C/c1ccccc1)c1ccc(F)cc1Cl
InChI: InChI=1S/C15H11ClFNO3S/c16-14-10-12(17)6-7-13(14)15(19)18-22(20,21)9-8-11-4-2-1-3-5-11/h1-10H,(H,18,19)/b9-8+
Instrument: Q Exactive Orbitrap (Thermo Scientific)
Instrument type: LC-ESI-QFT
Ms type: MS2
Ion mode: NEGATIVE
Ionization: ESI
Fragmentation mode: HCD
Collision energy: 90
Resolution: 17500
Column name: Acquity BEH C18 1.7um, 2.1x150mm (Waters)
Retention time: 16.712 min
Base peak: 429.0536
Precursor m/z: 338.0059
Precursor type: [M-H]-
Precursor intensity: 15636281.86719
m/z	relative intensity	assigned
61.9706	24	NOS-
63.9625	103	O2S-
64.9705	4	HO2S-
65.0398	7	C5H5-
77.9656	18	NO2S-
79.9574	11	O3S-
79.981	6	H2NO2S-
80.9652	40	HO3S-
91.0554	61	C7H7-
101.0397	999	C8H5-
116.0506	34	C8H6N-
117.0346	462	C8H5O-
119.0502	379	C8H7O-
133.9804	12	C7HClN-
136.0202	4	C7H3FNO-
