Mass spectrum: AM580; LC-ESI-QFT; MS2; CE: 60; R=17500; [M-H]-
Name: AM580
Name: 4-{[(5,5,8,8-Tetramethyl-5,6,7,8-tetrahydronaphthalen-2-yl)carbonyl]amino}benzoic acid
Name: 4-[(5,5,8,8-tetramethyl-6,7-dihydronaphthalene-2-carbonyl)amino]benzoic acid
Formula: C22H25NO3
Exact mass: 351.1834
SMILES: CC1(C)CCC(C)(C)C2=C1C=CC(=C2)C(=O)NC1=CC=C(C=C1)C(O)=O
InChI: InChI=1S/C22H25NO3/c1-21(2)11-12-22(3,4)18-13-15(7-10-17(18)21)19(24)23-16-8-5-14(6-9-16)20(25)26/h5-10,13H,11-12H2,1-4H3,(H,23,24)(H,25,26)
Instrument: Q Exactive Orbitrap (Thermo Scientific)
Instrument type: LC-ESI-QFT
Ms type: MS2
Ion mode: NEGATIVE
Ionization: ESI
Fragmentation mode: HCD
Collision energy: 60
Resolution: 17500
Column name: Acquity BEH C18 1.7um, 2.1x150mm (Waters)
Retention time: 19.353 min
Base peak: 350.1762
Precursor m/z: 350.1762
Precursor type: [M-H]-
Precursor intensity: 18463922.2373
m/z	relative intensity	assigned
75.024	40	C6H3-
92.0506	291	C6H6N-
93.0345	46	C6H5O-
118.0298	278	C7H4NO-
119.0138	85	C7H3O2-
137.0244	16	C7H5O3-
155.0863	3	C12H11-
157.1023	6	C12H13-
162.0196	97	C8H4NO3-
171.1177	8	C13H15-
175.0178	4	C13H3O-
222.092	3	C15H12NO-
223.0995	4	C15H13NO-
234.0923	12	C16H12NO-
236.108	39	C16H14NO-
248.1081	67	C17H14NO-
249.1157	4	C17H15NO-
260.1074	3	C18H14NO-
261.1173	3	C18H15NO-
262.1236	23	C18H16NO-
263.131	6	C18H17NO-
269.1053	10	C16H15NO3-
274.1236	19	C19H16NO-
276.1392	447	C19H18NO-
278.0822	13	C17H12NO3-
278.1911	34	C20H24N-
280.0982	5	C17H14NO3-
281.1062	13	C17H15NO3-
290.1551	806	C20H20NO-
291.1628	53	C20H21NO-
292.0978	126	C18H14NO3-
293.1051	7	C18H15NO3-
295.1203	7	C18H17NO3-
304.0969	4	C19H14NO3-
304.1705	14	C21H22NO-
305.1061	5	C19H15NO3-
306.1863	988	C21H24NO-
307.1203	6	C19H17NO3-
318.1131	16	C20H16NO3-
320.129	562	C20H18NO3-
323.1526	82	C20H21NO3-
334.1449	999	C21H20NO3-
335.153	21	C21H21NO3-
350.1762	255	C22H24NO3-
