Mass spectrum: Flufenacet; LC-ESI-QFT; MS2; CE: 75; R=17500; [M+H]+
Name: Flufenacet
Name: N-(4-fluorophenyl)-N-propan-2-yl-2-[[5-(trifluoromethyl)-1,3,4-thiadiazol-2-yl]oxy]acetamide
Formula: C14H13F4N3O2S
Exact mass: 363.0665
SMILES: CC(C)N(C(=O)COC1=NN=C(S1)C(F)(F)F)C1=CC=C(F)C=C1
InChI: InChI=1S/C14H13F4N3O2S/c1-8(2)21(10-5-3-9(15)4-6-10)11(22)7-23-13-20-19-12(24-13)14(16,17)18/h3-6,8H,7H2,1-2H3
Instrument: Q Exactive Orbitrap (Thermo Scientific)
Instrument type: LC-ESI-QFT
Ms type: MS2
Ion mode: POSITIVE
Ionization: ESI
Fragmentation mode: HCD
Collision energy: 75
Resolution: 17500
Column name: Acquity BEH C18 1.7um, 2.1x150mm (Waters)
Retention time: 17.908 min
Base peak: 79.0211
Precursor m/z: 364.0737
Precursor type: [M+H]+
Precursor intensity: 5418591.1875
m/z	relative intensity	assigned
53.0385	16	C4H5+
74.0153	15	C6H2+
83.0292	18	C5H4F+
91.0542	26	C7H7+
95.0491	26	C6H7O+
96.0369	15	C6H5F+
97.0449	336	C6H6F+
104.0495	26	C7H6N+
105.0448	16	C6H5N2+
109.0449	306	C7H6F+
110.0402	21	C6H5FN+
110.9811	90	CHF2N2S+
115.0543	26	C9H7+
123.0241	85	C7H4FO+
123.0353	19	C6H4FN2+
124.0558	999	C7H7FN+
128.0622	106	C10H8+
128.9917	31	C4H2FN2S+
129.9997	26	C4H3FN2S+
134.0399	14	C8H5FN+
152.0509	112	C8H7FNO+
152.087	46	C9H11FN+
156.9981	27	C9H3NS+
166.9657	55	CHF4NO2S+
174.9633	54	C9FOS+
175.9559	65	C3F4O2S+
175.967	38	C7N2O2S+
176.9607	668	C6F3OS+
