Mass spectrum: Triadimefon; LC-ESI-QFT; MS2; CE: 30; R=17500; [M+H]+
Name: Triadimefon
Name: 1-(4-chlorophenoxy)-3,3-dimethyl-1-(1,2,4-triazol-1-yl)butan-2-one
Formula: C14H16ClN3O2
Exact mass: 293.0931
SMILES: CC(C)(C)C(=O)C(OC1=CC=C(Cl)C=C1)N1C=NC=N1
InChI: InChI=1S/C14H16ClN3O2/c1-14(2,3)12(19)13(18-9-16-8-17-18)20-11-6-4-10(15)5-7-11/h4-9,13H,1-3H3
Instrument: Q Exactive Orbitrap (Thermo Scientific)
Instrument type: LC-ESI-QFT
Ms type: MS2
Ion mode: POSITIVE
Ionization: ESI
Fragmentation mode: HCD
Collision energy: 30
Resolution: 17500
Column name: Acquity BEH C18 1.7um, 2.1x150mm (Waters)
Retention time: 17.637 min
Base peak: 79.0211
Precursor m/z: 294.1004
Precursor type: [M+H]+
Precursor intensity: 9644406.875
m/z	relative intensity	assigned
53.0022	6	C3HO+
57.0699	203	C4H9+
67.0542	5	C5H7+
69.0699	949	C5H9+
70.04	2	C2H4N3+
70.0777	5	C5H10+
83.0478	4	C3H5N3+
85.0649	7	C5H9O+
87.0805	1	C5H11O+
103.031	9	C5H8Cl+
110.0351	1	C4H4N3O+
110.9997	1	C6H4Cl+
113.0158	1	C6H6Cl+
115.0754	158	C6H11O2+
126.9946	10	C6H4ClO+
129.0102	107	C6H6ClO+
141.0102	142	C7H6ClO+
155.0258	61	C8H8ClO+
161.0961	8	C11H13O+
167.1051	5	C8H13N3O+
169.0051	2	C8H6ClO2+
171.1383	2	C8H17N3O+
179.0623	1	C11H12Cl+
190.0988	4	C12H14O2+
197.0729	999	C11H14ClO+
225.0677	31	C12H14ClO2+
294.1005	54	C14H17ClN3O2+
