Mass spectrum: Cetirizine dihydrochloride; LC-ESI-QFT; MS2; CE: 60; R=17500; [M+H]+
Name: Cetirizine
Name: 2-[2-[4-[(4-chlorophenyl)-phenylmethyl]piperazin-1-yl]ethoxy]acetic acid
Formula: C21H25ClN2O3
Exact mass: 388.1554
SMILES: OC(=O)COCCN1CCN(CC1)C(C1=CC=CC=C1)C1=CC=C(Cl)C=C1
InChI: InChI=1S/C21H25ClN2O3/c22-19-8-6-18(7-9-19)21(17-4-2-1-3-5-17)24-12-10-23(11-13-24)14-15-27-16-20(25)26/h1-9,21H,10-16H2,(H,25,26)
Instrument: Q Exactive Orbitrap (Thermo Scientific)
Instrument type: LC-ESI-QFT
Ms type: MS2
Ion mode: POSITIVE
Ionization: ESI
Fragmentation mode: HCD
Collision energy: 60
Resolution: 17500
Column name: Acquity BEH C18 1.7um, 2.1x150mm (Waters)
Retention time: 16.353 min
Base peak: 79.0211
Precursor m/z: 389.1626
Precursor type: [M+H]+
Precursor intensity: 16916158.5625
m/z	relative intensity	assigned
56.0496	1	C3H6N+
58.0651	1	C3H8N+
72.0807	1	C4H10N+
83.0603	1	C4H7N2+
84.0682	4	C4H8N2+
91.0543	2	C7H7+
92.0576	1	C2H8N2O2+
111.0917	1	C6H11N2+
131.0856	4	C10H11+
132.0888	4	C5H12N2O2+
141.0699	2	C11H9+
158.0811	1	C7H12NO3+
165.0701	355	C13H9+
166.0777	999	C13H10+
183.0805	35	C13H11O+
193.0762	41	C13H9N2+
199.0311	10	C13H8Cl+
201.0466	371	C13H10Cl+
