Mass spectrum: Imazapic; LC-ESI-QFT; MS2; CE: 90; R=17500; [M+H]+
Name: Imazapic
Name: 5-methyl-2-(4-methyl-5-oxo-4-propan-2-yl-1H-imidazol-2-yl)pyridine-3-carboxylic acid
Formula: C14H17N3O3
Exact mass: 275.1270
SMILES: CC(C)C1(C)NC(=NC1=O)C1=NC=C(C)C=C1C(O)=O
InChI: InChI=1S/C14H17N3O3/c1-7(2)14(4)13(20)16-11(17-14)10-9(12(18)19)5-8(3)6-15-10/h5-7H,1-4H3,(H,18,19)(H,16,17,20)
Instrument: Q Exactive Orbitrap (Thermo Scientific)
Instrument type: LC-ESI-QFT
Ms type: MS2
Ion mode: POSITIVE
Ionization: ESI
Fragmentation mode: HCD
Collision energy: 90
Resolution: 17500
Column name: Acquity BEH C18 1.7um, 2.1x150mm (Waters)
Retention time: 13.617 min
Base peak: 79.0211
Precursor m/z: 276.1343
Precursor type: [M+H]+
Precursor intensity: 17692622.125
m/z	relative intensity	assigned
52.0182	10	C3H2N+
52.0308	3	C4H4+
53.0022	143	C3HO+
53.0387	8	C4H5+
53.9974	21	C2NO+
55.0179	2	C3H3O+
56.0495	59	C3H6N+
58.0651	23	C3H8N+
63.0229	43	C5H3+
65.0386	53	C5H5+
67.0416	21	C4H5N+
67.0542	38	C5H7+
67.9893	4	C3O2+
68.0493	5	C4H6N+
69.0698	950	C5H9+
70.0651	84	C4H8N+
71.0729	209	C4H9N+
72.0444	6	C3H6NO+
72.0808	2	C4H10N+
74.0963	3	C4H12N+
78.0087	2	C3N3+
79.0415	9	C5H5N+
79.0542	12	C6H7+
80.0495	26	C5H6N+
81.0334	25	C5H5O+
82.0413	3	C5H6O+
82.0651	10	C5H8N+
84.0807	2	C5H10N+
86.0964	577	C5H12N+
90.0339	333	C6H4N+
91.0417	30	C6H5N+
92.0495	89	C6H6N+
93.0447	4	C5H5N2+
93.0574	22	C6H7N+
94.0526	93	C5H6N2+
94.0651	30	C6H8N+
96.0444	23	C5H6NO+
97.0651	1	C6H9O+
98.06	9	C5H8NO+
105.045	6	C6H5N2+
106.065	9	C7H8N+
107.0366	44	C6H5NO+
107.0604	31	C6H7N2+
108.0444	57	C6H6NO+
109.0523	12	C6H7NO+
110.0601	971	C6H8NO+
117.0447	271	C7H5N2+
118.0525	56	C7H6N2+
118.0651	59	C8H8N+
119.0604	300	C7H7N2+
120.0445	6	C7H6NO+
120.0681	2	C7H8N2+
120.0804	2	C8H10N+
121.0397	27	C6H5N2O+
121.076	14	C7H9N2+
122.0475	4	C6H6N2O+
122.0601	18	C7H8NO+
124.0758	35	C7H10NO+
125.0472	18	C6H7NO2+
126.0549	12	C6H8NO2+
131.073	11	C9H9N+
133.0761	16	C8H9N2+
135.0553	786	C7H7N2O+
138.055	118	C7H8NO2+
143.0604	18	C9H7N2+
144.0558	4	C8H6N3+
144.081	17	C10H10N+
145.0397	999	C8H5N2O+
146.0475	5	C8H6N2O+
146.0836	2	C9H10N2+
147.0553	180	C8H7N2O+
149.071	7	C8H9N2O+
150.055	7	C8H8NO2+
158.0713	3	C9H8N3+
158.0964	4	C11H12N+
159.0791	2	C9H9N3+
160.0872	12	C9H10N3+
161.071	576	C9H9N2O+
162.0662	60	C8H8N3O+
163.0502	425	C8H7N2O2+
168.0814	3	C12H10N+
170.0838	14	C11H10N2+
171.0919	9	C11H11N2+
172.0995	3	C11H12N2+
174.0785	6	C10H10N2O+
177.0658	70	C9H9N2O2+
185.1078	4	C12H13N2+
186.0662	6	C10H8N3O+
187.0736	5	C10H9N3O+
188.082	51	C10H10N3O+
189.102	2	C11H13N2O+
190.0859	2	C11H12NO2+
198.0788	8	C12H10N2O+
200.0816	8	C11H10N3O+
205.0843	3	C10H11N3O2+
213.1025	2	C13H13N2O+
216.0767	23	C11H10N3O2+
