Mass spectrum: Prodiamine; LC-ESI-QFT; MS2; CE: 75; R=17500; [M-H]-
Name: Prodiamine
Name: 2,4-dinitro-3-N,3-N-dipropyl-6-(trifluoromethyl)benzene-1,3-diamine
Formula: C13H17F3N4O4
Exact mass: 350.1202
SMILES: CCCN(CCC)C1=C(C(N)=C(C=C1[N+]([O-])=O)C(F)(F)F)[N+]([O-])=O
InChI: InChI=1S/C13H17F3N4O4/c1-3-5-18(6-4-2)11-9(19(21)22)7-8(13(14,15)16)10(17)12(11)20(23)24/h7H,3-6,17H2,1-2H3
Instrument: Q Exactive Orbitrap (Thermo Scientific)
Instrument type: LC-ESI-QFT
Ms type: MS2
Ion mode: NEGATIVE
Ionization: ESI
Fragmentation mode: HCD
Collision energy: 75
Resolution: 17500
Column name: Acquity BEH C18 1.7um, 2.1x150mm (Waters)
Retention time: 19.704 min
Base peak: 349.1128
Precursor m/z: 349.1129
Precursor type: [M-H]-
Precursor intensity: 59002818.33984
m/z	relative intensity	assigned
50.0035	98	C3N-
57.9935	22	CNO2-
64.0067	139	C3N2-
64.0193	24	C4H2N-
65.0146	351	C3HN2-
65.9986	999	C3NO-
68.9958	72	CF3-
70.9939	27	C3FO-
73.0295	47	C3H5O2-
74.0036	144	C5N-
76.0066	23	C4N2-
77.0145	18	C4HN2-
81.002	46	C4FN-
82.0099	21	C4HFN-
88.0005	783	C3F2N-
88.0067	429	C5N2-
89.0146	352	C5HN2-
89.9986	165	C5NO-
90.0098	100	C4N3-
92.0251	16	C4H2N3-
92.9957	41	C3F3-
93.0096	17	C4HN2O-
94.0099	18	C5HFN-
95.0051	41	C4FN2-
100.0005	136	C4F2N-
101.0147	102	C6HN2-
102.0097	34	C5N3-
102.0349	25	C7H4N-
103.9955	81	C3F2NO-
104.0505	41	C7H6N-
106.0098	30	C6HFN-
106.9988	19	C3F3N-
107.0051	150	C5FN2-
108.0068	17	C3HF3N-
108.0217	67	C6H4O2-
108.9908	70	C3F3O-
108.9969	85	C5FNO-
109.0208	27	C5H2FN2-
111	64	C4FN2O-
112.0005	378	C5F2N-
112.0067	94	C7N2-
113.0147	65	C7HN2-
114.0098	255	C6N3-
115.0302	41	C7H3N2-
116.0254	97	C6H2N3-
117.0095	23	C6HN2O-
117.0205	43	C5HN4-
119.0051	105	C6FN2-
119.0251	133	C6H3N2O-
120.0065	28	C4HF3N-
122.0045	24	CF2N4O-
124.0004	67	C6F2N-
124.0077	17	C8N2-
125.0145	13	C8HN2-
126.0035	94	C5F2N2-
126.0097	72	C7N3-
127.0113	38	C5HF2N2-
127.0175	145	C7HN3-
127.0302	19	C8H3N2-
127.9954	29	C5F2NO-
128.0254	45	C7H2N3-
128.038	32	C8H4N2-
129.0333	33	C7H3N3-
129.0459	78	C8H5N2-
130.0285	51	C6H2N4-
130.9989	366	C5F3N-
131.0048	50	C7FN2-
131.0123	18	C6HN3O-
132.0069	24	C5HF3N-
132.0125	15	C7HFN2-
132.0204	15	C6H2N3O-
133.0019	126	C4F3N2-
133.0077	21	C6FN3-
133.0207	68	C7H2FN2-
134.0161	230	C11H2-
135	50	C6FN2O-
136.0017	84	C4HF3NO-
136.0204	83	C7H3FNO-
137.0156	23	C6H2FN2O-
138.0098	51	C8N3-
139.0037	27	C6H3O4-
139.0113	131	C6HF2N2-
139.0174	19	C8HN3-
139.0301	25	C9H3N2-
139.9953	25	C6F2NO-
140.0254	86	C8H2N3-
141.0206	39	C7HN4-
141.0458	48	C9H5N2-
142.0408	71	C8H4N3-
143.0251	17	C8H3N2O-
143.0364	43	C7H3N4-
144.0067	136	C6HF3N-
144.0201	37	C7H2N3O-
144.0566	43	C8H6N3-
145.0021	117	C5F3N2-
145.0521	46	C7H5N4-
146.0097	52	C5HF3N2-
146.016	75	C7HFN3-
146.0291	15	C8H3FN2-
146.9937	30	C5F3NO-
147	29	C7FN2O-
147.0241	127	C12H3-
148.008	29	C7HFN2O-
150.0031	41	C7F2N2-
151.0117	83	C7HF2N2-
151.9953	30	C7F2NO-
152.0063	14	C6F2N3-
152.0254	15	C9H2N3-
153.0335	19	C9H3N3-
154.0283	31	C8H2N4-
154.0411	58	C9H4N3-
154.9988	35	C7F3N-
155.0061	17	C6HF2N2O-
155.0126	75	C8HN3O-
155.0487	20	C9H5N3-
156.0081	17	C7N4O-
156.0204	15	C8H2N3O-
156.033	24	C9H4N2O-
157.0019	549	C6F3N2-
158.0094	56	C6HF3N2-
158.0159	212	C8HFN3-
159.0111	26	C7FN4-
159.0176	100	C6H2F3N2-
159.0242	20	C13H3-
159.0363	28	C9H4FN2-
160.0016	132	C6HF3NO-
160.0317	69	C8H3FN3-
160.9966	29	C5F3N2O-
161.0156	45	C8H2FN2O-
162.0108	57	C7HFN3O-
162.0175	16	C6H3F3NO-
164.0065	78	C7F2N3-
166.0223	31	C12H3F-
166.0413	61	C10H4N3-
167.006	26	C7HF2N2O-
167.0364	65	C9H3N4-
168.0204	40	C9H2N3O-
168.0566	27	C10H6N3-
169.0013	13	C7F3N2-
169.0405	32	C10H5N2O-
169.0519	41	C9H5N4-
170.0096	21	C7HF3N2-
171.0172	27	C7H2F3N2-
172.0014	55	C7HF3NO-
172.0192	32	C13H2N-
172.0314	53	C9H3FN3-
173.0213	20	C11H3F2-
173.0394	129	C9H4FN3-
174.0043	83	C6HF3N2O-
174.0473	43	C9H5FN3-
175.0187	154	C8H2FN3O-
175.0312	21	C9H4FN2O-
176.0265	31	C8H3FN3O-
178.022	115	C8H2F2N3-
179.0299	35	C8H3F2N3-
180.0014	16	C7F2N3O-
181.0216	23	C8H3F2N2O-
182.0362	31	C10H4N3O-
184.0128	211	C7HF3N3-
184.0313	47	C10H3FN3-
186.0286	20	C12H4F2-
186.0476	73	C10H5FN3-
187.0123	66	C7H2F3N2O-
188.0264	58	C9H3FN3O-
188.0625	28	C10H7FN3-
191.0075	28	C6H2F3N2O2-
191.0299	52	C9H3F2N3-
197.0186	45	C5H4F3N2O3-
199.0366	66	C13H5F2-
201.0345	18	C10H4FN3O-
201.9997	106	C7HF3N2O2-
202.0422	51	C10H5FN3O-
204.0022	47	C6HF3N3O2-
204.0378	48	C10H4F2N3-
205.0288	33	C12H4F3-
206.0539	71	C10H6F2N3-
211.0244	20	C13H3F2N-
212.0437	36	C9H5F3N3-
213.028	19	C9H4F3N2O-
214.0234	76	C8H3F3N3O-
215.0313	103	C13H5F2O-
216.1142	87	C12H14N3O-
218.0179	18	C7H3F3N3O2-
224.0285	21	C6H5F3N3O3-
231.9981	62	C12H2F2O3-
237.0392	60	C10H4F3N4-
238.0465	40	C10H5F3N4-
240.0394	62	C10H5F3N3O-
243.0133	39	C8H2F3N4O2-
244.0335	19	C9H5F3N3O2-
260.0165	25	C13H4F2NO3-
