Mass spectrum: Flufenacet; LC-ESI-QFT; MS2; CE: 90; R=17500; [M+H]+
Name: Flufenacet
Name: N-(4-fluorophenyl)-N-propan-2-yl-2-[[5-(trifluoromethyl)-1,3,4-thiadiazol-2-yl]oxy]acetamide
Formula: C14H13F4N3O2S
Exact mass: 363.0665
SMILES: CC(C)N(C(=O)COC1=NN=C(S1)C(F)(F)F)C1=CC=C(F)C=C1
InChI: InChI=1S/C14H13F4N3O2S/c1-8(2)21(10-5-3-9(15)4-6-10)11(22)7-23-13-20-19-12(24-13)14(16,17)18/h3-6,8H,7H2,1-2H3
Instrument: Q Exactive Orbitrap (Thermo Scientific)
Instrument type: LC-ESI-QFT
Ms type: MS2
Ion mode: POSITIVE
Ionization: ESI
Fragmentation mode: HCD
Collision energy: 90
Resolution: 17500
Column name: Acquity BEH C18 1.7um, 2.1x150mm (Waters)
Retention time: 17.908 min
Base peak: 79.0211
Precursor m/z: 364.0737
Precursor type: [M+H]+
Precursor intensity: 5081229.5625
m/z	relative intensity	assigned
53.0386	52	C4H5+
74.0151	50	C6H2+
83.0292	147	C5H4F+
91.0543	29	C7H7+
95.0492	135	C6H7O+
96.037	104	C6H5F+
97.0449	623	C6H6F+
104.0495	51	C7H6N+
105.0448	48	C6H5N2+
109.0449	454	C7H6F+
110.04	23	C6H5FN+
110.9811	468	CHF2N2S+
115.0543	67	C9H7+
123.0242	165	C7H4FO+
123.0352	123	C6H4FN2+
124.0558	999	C7H7FN+
128.9916	51	C4H2FN2S+
129.9995	66	C4H3FN2S+
134.0402	21	C8H5FN+
152.0507	46	C8H7FNO+
152.0873	35	C9H11FN+
156.998	18	C9H3NS+
166.9653	99	CHF4NO2S+
174.9645	87	C9FOS+
175.9555	38	C3F4O2S+
175.9672	35	C7N2O2S+
176.961	946	C6F3OS+
