Mass spectrum: 4,4`-Sulfonyldiphenol; LC-ESI-QFT; MS2; CE: 45; R=17500; [M-H]-
Name: 4,4'-Sulfonyldiphenol
Name: 4-(4-hydroxyphenyl)sulfonylphenol
Formula: C12H10O4S
Exact mass: 250.0300
SMILES: OC1=CC=C(C=C1)S(=O)(=O)C1=CC=C(O)C=C1
InChI: InChI=1S/C12H10O4S/c13-9-1-5-11(6-2-9)17(15,16)12-7-3-10(14)4-8-12/h1-8,13-14H
Instrument: Q Exactive Orbitrap (Thermo Scientific)
Instrument type: LC-ESI-QFT
Ms type: MS2
Ion mode: NEGATIVE
Ionization: ESI
Fragmentation mode: HCD
Collision energy: 45
Resolution: 17500
Column name: Acquity BEH C18 1.7um, 2.1x150mm (Waters)
Retention time: 13.529 min
Base peak: 249.0227
Precursor m/z: 249.0227
Precursor type: [M-H]-
Precursor intensity: 14591607.37305
m/z	relative intensity	assigned
63.9625	2	O2S-
79.9574	263	O3S-
91.019	1	C6H3O-
92.0269	6	C6H4O-
93.0345	9	C6H5O-
95.0139	26	C5H3O2-
106.0062	1	C6H2O2-
108.0217	999	C6H4O2-
109.0292	4	C6H5O2-
117.0347	3	C8H5O-
123.0089	4	C6H3O3-
139.9937	7	C6H4O2S-
141.0017	1	C6H5O2S-
143.0502	3	C10H7O-
155.9887	168	C6H4O3S-
156.9961	7	C6H5O3S-
157.0659	10	C11H9O-
158.0373	1	C10H6O2-
184.053	72	C12H8O2-
185.0608	63	C12H9O2-
249.0227	752	C12H9O4S-
