Mass spectrum: Imazaquin; LC-ESI-QFT; MS2; CE: 30; R=17500; [M+H]+
Name: Imazaquin
Name: 2-(4-methyl-5-oxo-4-propan-2-yl-1H-imidazol-2-yl)quinoline-3-carboxylic acid
Formula: C17H17N3O3
Exact mass: 311.1270
SMILES: CC(C)C1(C)N=C(NC1=O)C1=NC2=C(C=CC=C2)C=C1C(O)=O
InChI: InChI=1S/C17H17N3O3/c1-9(2)17(3)16(23)19-14(20-17)13-11(15(21)22)8-10-6-4-5-7-12(10)18-13/h4-9H,1-3H3,(H,21,22)(H,19,20,23)
Instrument: Q Exactive Orbitrap (Thermo Scientific)
Instrument type: LC-ESI-QFT
Ms type: MS2
Ion mode: POSITIVE
Ionization: ESI
Fragmentation mode: HCD
Collision energy: 30
Resolution: 17500
Column name: Acquity BEH C18 1.7um, 2.1x150mm (Waters)
Retention time: 15.221 min
Base peak: 79.0212
Precursor m/z: 312.1343
Precursor type: [M+H]+
Precursor intensity: 22953029.25
m/z	relative intensity	assigned
58.0651	4	C3H8N+
69.0698	13	C5H9+
71.0854	1	C5H11+
86.0964	74	C5H12N+
97.0648	8	C6H9O+
114.0914	5	C6H12NO+
155.0603	2	C10H7N2+
181.0399	1	C11H5N2O+
197.0707	6	C12H9N2O+
198.0662	24	C11H8N3O+
199.0502	35	C11H7N2O2+
216.0761	2	C11H10N3O2+
223.1229	19	C15H15N2+
224.0814	2	C13H10N3O+
225.1018	5	C14H13N2O+
226.0973	4	C13H12N3O+
227.0818	1	C13H11N2O2+
240.1499	2	C15H18N3+
241.0848	1	C13H11N3O2+
249.102	6	C16H13N2O+
252.0766	57	C14H10N3O2+
266.1288	148	C16H16N3O+
267.1128	262	C16H15N2O2+
269.0796	8	C14H11N3O3+
270.0872	195	C14H12N3O3+
284.1393	120	C16H18N3O2+
294.1237	67	C17H16N3O2+
312.1341	999	C17H18N3O3+
