Mass spectrum: Warfarin; LC-ESI-QFT; MS2; CE: 30; R=17500; [M+H]+
Name: Warfarin
Name: 4-hydroxy-3-(3-oxo-1-phenylbutyl)chromen-2-one
Formula: C19H16O4
Exact mass: 308.1049
SMILES: CC(=O)CC(C1=CC=CC=C1)C1=C(O)C2=CC=CC=C2OC1=O
InChI: InChI=1S/C19H16O4/c1-12(20)11-15(13-7-3-2-4-8-13)17-18(21)14-9-5-6-10-16(14)23-19(17)22/h2-10,15,21H,11H2,1H3
Instrument: Q Exactive Orbitrap (Thermo Scientific)
Instrument type: LC-ESI-QFT
Ms type: MS2
Ion mode: POSITIVE
Ionization: ESI
Fragmentation mode: HCD
Collision energy: 30
Resolution: 17500
Column name: Acquity BEH C18 1.7um, 2.1x150mm (Waters)
Retention time: 17.456 min
Base peak: 79.0211
Precursor m/z: 309.1121
Precursor type: [M+H]+
Precursor intensity: 17056905.4375
m/z	relative intensity	assigned
91.0542	3	C7H7+
105.0698	1	C8H9+
121.0282	3	C7H5O2+
129.0699	8	C10H9+
131.0492	1	C9H7O+
147.0804	220	C10H11O+
163.0389	999	C9H7O3+
171.0805	7	C12H11O+
175.0394	3	C10H7O3+
183.0802	3	C13H11O+
189.0547	10	C11H9O3+
191.0338	9	C10H7O4+
205.0488	1	C11H9O4+
223.0752	1	C15H11O2+
233.0596	1	C16H9O2+
251.0702	811	C16H11O3+
267.9827	4	C17O4+
291.1015	22	C19H15O3+
309.1123	16	C19H17O4+
