Mass spectrum: Sulfisoxazole; LC-ESI-QFT; MS2; CE: 90; R=17500; [M+H]+
Name: Sulfisoxazole
Name: 4-amino-N-(3,4-dimethyl-1,2-oxazol-5-yl)benzenesulfonamide
Formula: C11H13N3O3S
Exact mass: 267.0678
SMILES: CC1=NOC(NS(=O)(=O)C2=CC=C(N)C=C2)=C1C
InChI: InChI=1S/C11H13N3O3S/c1-7-8(2)13-17-11(7)14-18(15,16)10-5-3-9(12)4-6-10/h3-6,14H,12H2,1-2H3
Instrument: Q Exactive Orbitrap (Thermo Scientific)
Instrument type: LC-ESI-QFT
Ms type: MS2
Ion mode: POSITIVE
Ionization: ESI
Fragmentation mode: HCD
Collision energy: 90
Resolution: 17500
Column name: Acquity BEH C18 1.7um, 2.1x150mm (Waters)
Retention time: 12.458 min
Base peak: 79.0211
Precursor m/z: 268.075
Precursor type: [M+H]+
Precursor intensity: 17892562.40625
m/z	relative intensity	assigned
53.0023	10	C3HO+
53.0386	14	C4H5+
54.0339	7	C3H4N+
55.0179	74	C3H3O+
56.0495	4	C3H6N+
58.0651	6	C3H8N+
61.0107	2	C2H5S+
62.0186	6	C2H6S+
63.0228	3	C5H3+
65.0386	999	C5H5+
66.0338	2	C4H4N+
67.0178	1	C4H3O+
67.0417	2	C4H5N+
67.0541	1	C5H7+
68.0495	117	C4H6N+
69.0335	1	C4H5O+
70.0287	1	C3H4NO+
70.0651	2	C4H8N+
71.0604	31	C3H7N2+
72.0445	7	C3H6NO+
78.0338	6	C5H4N+
79.0178	3	C5H3O+
79.0543	35	C6H7+
80.0495	267	C5H6N+
80.0575	18	CH8N2O2+
82.0287	1	C4H4NO+
83.0492	3	C5H7O+
85.0761	4	C4H9N2+
90.0339	2	C6H4N+
92.0495	460	C6H6N+
93.0574	3	C6H7N+
95.0492	14	C6H7O+
95.0605	2	C5H7N2+
96.0444	23	C5H6NO+
105.0448	4	C6H5N2+
106.0652	194	C7H8N+
107.0685	142	C2H9N3O2+
108.0444	408	C6H6NO+
109.0523	2	C6H7NO+
110.0601	112	C6H8NO+
113.0709	17	C5H9N2O+
120.0444	5	C7H6NO+
120.0556	3	C6H6N3+
121.0478	4	C2H7N3O3+
124.0759	3	C7H10NO+
134.0602	13	C8H8NO+
135.0634	11	C3H9N3O3+
140.0167	2	C6H6NOS+
162.0549	4	C9H8NO2+
163.0585	6	C10H11S+
180.0656	42	C9H10NO3+
181.069	52	C10H13OS+
194.0819	1	C10H12NO3+
195.0844	1	C9H13N3S+
