Mass spectrum: Butralin; LC-ESI-QFT; MS2; CE: 15; R=17500; [M+H]+
Name: Butralin
Formula: C14H21N3O4
Exact mass: 295.1532
SMILES: CCC(C)NC1=C(C=C(C=C1[N+]([O-])=O)C(C)(C)C)[N+]([O-])=O
InChI: InChI=1S/C14H21N3O4/c1-6-9(2)15-13-11(16(18)19)7-10(14(3,4)5)8-12(13)17(20)21/h7-9,15H,6H2,1-5H3
Instrument: Q Exactive Orbitrap (Thermo Scientific)
Instrument type: LC-ESI-QFT
Ms type: MS2
Ion mode: POSITIVE
Ionization: ESI
Fragmentation mode: HCD
Collision energy: 15
Resolution: 17500
Column name: Acquity BEH C18 1.7um, 2.1x150mm (Waters)
Retention time: 20.167 min
Base peak: 79.0211
Precursor m/z: 296.1605
Precursor type: [M+H]+
Precursor intensity: 1247850.078125
m/z	relative intensity	assigned
57.0699	43	C4H9+
58.0652	14	C3H8N+
240.098	999	C10H14N3O4+
