Mass spectrum: Furalaxyl; LC-ESI-QFT; MS2; CE: 60; R=17500; [M+H]+
Name: Furalaxyl
Name: methyl 2-[N-(furan-2-carbonyl)-2,6-dimethylanilino]propanoate
Formula: C17H19NO4
Exact mass: 301.1314
SMILES: COC(=O)C(C)N(C(=O)C1=CC=CO1)C1=C(C)C=CC=C1C
InChI: InChI=1S/C17H19NO4/c1-11-7-5-8-12(2)15(11)18(13(3)17(20)21-4)16(19)14-9-6-10-22-14/h5-10,13H,1-4H3
Instrument: Q Exactive Orbitrap (Thermo Scientific)
Instrument type: LC-ESI-QFT
Ms type: MS2
Ion mode: POSITIVE
Ionization: ESI
Fragmentation mode: HCD
Collision energy: 60
Resolution: 17500
Column name: Acquity BEH C18 1.7um, 2.1x150mm (Waters)
Retention time: 17.020 min
Base peak: 79.0212
Precursor m/z: 302.1387
Precursor type: [M+H]+
Precursor intensity: 33523582
m/z	relative intensity	assigned
53.0021	1	C3HO+
83.0128	3	C4H3O2+
95.0127	999	C5H3O2+
105.0699	1	C8H9+
146.0965	1	C10H12N+
148.0756	2	C9H10NO+
242.1177	1	C15H16NO2+
