Mass spectrum: Norflurazon; LC-ESI-QFT; MS2; CE: 60; R=17500; [M+H]+
Name: Norflurazon
Name: 4-chloro-5-(methylamino)-2-[3-(trifluoromethyl)phenyl]pyridazin-3-one
Formula: C12H9ClF3N3O
Exact mass: 303.0386
SMILES: CNC1=C(Cl)C(=O)N(N=C1)C1=CC=CC(=C1)C(F)(F)F
InChI: InChI=1S/C12H9ClF3N3O/c1-17-9-6-18-19(11(20)10(9)13)8-4-2-3-7(5-8)12(14,15)16/h2-6,17H,1H3
Instrument: Q Exactive Orbitrap (Thermo Scientific)
Instrument type: LC-ESI-QFT
Ms type: MS2
Ion mode: POSITIVE
Ionization: ESI
Fragmentation mode: HCD
Collision energy: 60
Resolution: 17500
Column name: Acquity BEH C18 1.7um, 2.1x150mm (Waters)
Retention time: 16.641 min
Base peak: 79.0212
Precursor m/z: 304.0459
Precursor type: [M+H]+
Precursor intensity: 21821030.25
m/z	relative intensity	assigned
52.0182	7	C3H2N+
54.0338	41	C3H4N+
55.029	2	C2H3N2+
55.0416	2	C3H5N+
56.0131	4	C2H2NO+
58.0287	116	C2H4NO+
60.0243	2	C2H3FN+
60.9838	5	C2H2Cl+
61.9792	3	CHClN+
62.9631	7	CClO+
62.9996	3	C2H4Cl+
63.0229	1	C5H3+
63.9948	16	CH3ClN+
66.0337	3	C4H4N+
67.029	14	C3H3N2+
68.0494	10	C4H6N+
69.0446	158	C3H5N2+
70.0524	9	C3H6N2+
72.9838	3	C3H2Cl+
73.9791	1	C2HClN+
74.987	4	C2H2ClN+
75.0039	2	C3HF2+
75.9948	24	C2H3ClN+
78.0105	5	C2H5ClN+
79.0289	1	C4H3N2+
80.0367	7	C4H4N2+
80.0494	2	C5H6N+
81.0447	39	C4H5N2+
82.0287	12	C4H4NO+
83.0291	3	C5H4F+
87.9948	346	C3H3ClN+
89.0026	72	C3H4ClN+
90.0105	31	C3H5ClN+
90.9944	6	C3H4ClO+
91.0416	10	C6H5N+
93.0572	7	C6H7N+
95.0493	2	C6H7O+
96.0246	1	C5H3FN+
96.0442	3	C5H6NO+
97.0396	94	C4H5N2O+
99.9947	42	C4H3ClN+
101.0027	3	C4H4ClN+
102.0104	219	C4H5ClN+
102.0274	41	F3H3N3+
103.0057	1	C3H4ClN2+
103.9896	7	C3H3ClNO+
104.0488	1	C7H6N+
107.0124	2	C3H6ClNO+
108.0319	2	C5H4N2O+
108.0443	2	C6H6NO+
109.0396	14	C5H5N2O+
110.0161	5	CH2F2N3O+
110.0401	6	C6H5FN+
111.0477	1	C6H6FN+
113.0198	3	C6H3F2+
114.0276	3	C6H4F2+
115.0057	103	C4H4ClN2+
115.0354	16	C6H5F2+
115.9897	115	C4H3ClNO+
116.0135	19	C4H5ClN2+
116.9736	5	C2ClN3O+
117.0569	2	C8H7N+
118.0053	24	C4H5ClNO+
118.0286	3	C7H4NO+
120.0244	2	C7H3FN+
122.04	8	C7H5FN+
123.0352	5	C6H4FN2+
124.0506	1	C5H6N3O+
126.0275	39	C7H4F2+
127.0353	32	C7H5F2+
129.0446	1	C8H5N2+
130.0054	12	C5H5ClNO+
131.0132	169	C5H6ClNO+
133.0163	4	C4H6ClN2O+
133.0258	50	C6H4F3+
133.0447	5	C4H5F2N3+
134.0396	2	C8H5FN+
135.0477	2	C8H6FN+
138.0349	5	C7H5FNO+
139.0354	35	C8H5F2+
140.0305	442	C7H4F2N+
141.0257	14	C6H3F2N2+
141.0382	2	C7H5F2N+
142.0165	2	C5H5ClN3+
142.0463	41	C7H6F2N+
142.0648	8	C10H8N+
143.0006	117	C5H4ClN2O+
143.0301	13	C2H4F3N3O+
143.0728	7	C10H9N+
144.0084	40	C5H5ClN2O+
145.0259	114	C7H4F3+
146.0397	2	C9H5FN+
146.0526	11	C10H7F+
147.035	7	C8H4FN2+
148.0304	43	C7H3FN3+
149.015	4	C4H5ClFN3+
150.0348	4	C8H5FNO+
152.0308	11	C8H4F2N+
153.0449	4	C10H5N2+
153.057	3	C11H7N+
154.0462	7	C8H6F2N+
154.065	6	C11H8N+
155.0601	4	C10H7N2+
156.0446	2	C10H6NO+
156.0617	16	C8H8F2N+
156.0682	4	C10H8N2+
158.0405	10	C10H5FN+
159.0196	4	C5H6ClN3O+
159.0352	2	C9H4FN2+
159.0416	1	C8H6F3+
160.0278	37	C5H7ClN3O+
160.0367	590	C7H5F3N+
161.0446	80	C7H6F3N+
162.0279	3	C10H4F2+
162.0523	18	C7H7F3N+
163.036	11	C7H6F3O+
163.0552	5	C5H7F2N3O+
164.0431	174	C10H6F2+
165.0386	3	C9H5F2N+
165.0511	28	C10H7F2+
166.0462	15	C9H6F2N+
167.0058	23	C9H5ClF+
167.0413	16	C8H5F2N2+
168.0011	10	C8H4ClFN+
168.0254	86	C8H4F2NO+
170.0601	4	C11H8NO+
171.0361	2	C7H5F2N2O+
171.0555	3	C10H7N2O+
172.0367	40	C8H5F3N+
172.0555	42	C11H7FN+
173.0321	51	C7H4F3N2+
173.0509	40	C10H6FN2+
173.0633	15	C11H8FN+
173.0709	3	C10H9N2O+
174.0348	2	C10H5FNO+
174.052	38	C8H7F3N+
174.0588	5	C10H7FN2+
174.0714	4	C11H9FN+
178.0471	80	C7H7F3NO+
179.03	3	C5H4F3N3O+
179.0421	1	C9H5F2N2+
179.0536	3	C10H7F2N+
180.0134	7	C5H5ClF2N3+
180.0378	4	C5H5F3N3O+
180.0549	3	C11H6N3+
180.0626	3	C7H9F3NO+
181.0326	8	C12H4FN+
181.0636	3	C11H7N3+
182.0408	6	C9H6F2NO+
183.0419	3	C10H6F3+
184.036	1	C9H5F3N+
185.0446	11	C9H6F3N+
187.012	8	C9H6ClF2+
187.0473	13	C8H6F3N2+
188.0319	7	C8H5F3NO+
189.0215	5	C10H6ClN2+
191.0413	10	C10H5F2N2+
192.0622	152	C11H8F2N+
193.0697	250	C11H9F2N+
194.0411	6	C10H6F2NO+
194.0649	11	C10H8F2N2+
195.0007	7	C10H5ClFO+
195.0117	12	C12H2FNO+
196.0365	2	C10H5F3N+
196.9961	3	C5H3ClF3N3+
198.0526	3	C10H7F3N+
199.0119	8	C5H5ClF3N3+
199.0475	40	C9H6F3N2+
200.007	3	C12H2F2O+
200.062	11	C11H7FN3+
201.0461	14	C8H9ClFN3+
202.054	15	C8H10ClFN3+
205.0158	2	C10H6ClN2O+
205.033	8	C11H5F2NO+
205.057	3	C11H7F2N2+
206.0411	11	C11H6F2NO+
207.0117	6	C10H5ClFN2+
207.0364	13	C10H5F2N2O+
208.0504	5	C12H6N3O+
209.0279	3	C10H7ClFN2+
209.0579	4	C12H7N3O+
210.0398	2	C10H5F3N2+
212.0073	4	C10H5ClF2N+
212.0678	4	C11H9F3N+
213.0148	16	C8H2F3N3O+
213.0332	3	C11H4FN3O+
213.0633	9	C10H8F3N2+
214.0402	3	C11H5FN3O+
214.0711	5	C10H9F3N2+
216.002	17	C9H5ClF2NO+
216.0322	3	C11H7ClN3+
217.0029	3	C10H5ClF3+
217.0162	5	C11H6ClN2O+
217.9978	31	C9H4ClF3N+
219.0358	3	C11H5F2N2O+
219.0594	2	C11H7F2N3+
220.044	12	C11H6F2N2O+
220.0567	19	C12H8F2NO+
220.068	6	C11H8F2N3+
221.0519	25	C11H7F2N2O+
221.0643	4	C12H9F2NO+
221.9993	4	C10H4ClFN2O+
222.0595	3	C11H8F2N2O+
223.0067	20	C10H5ClFN2O+
223.0477	4	C11H6F3N2+
225.0026	7	C10H4ClF2N2+
226.0346	5	C10H5F3N2O+
227.0305	10	C11H8ClF2N+
227.0426	8	C10H6F3N2O+
228.0385	8	C11H9ClF2N+
228.0566	20	C12H7FN3O+
229.064	8	C12H8FN3O+
232.0132	7	C10H6ClF3N+
233.0391	3	C11H5F2N3O+
233.9931	3	C9H4ClF3NO+
234.0465	2	C11H6F2N3O+
235.0004	11	C9H5ClF3NO+
236.0267	2	C12H8ClFNO+
236.0388	8	C11H8ClFN3+
237.0221	15	C11H7ClFN2O+
240.0743	3	C11H9F3N3+
240.997	3	C10H4ClF2N2O+
241.0586	8	C11H8F3N2O+
242.0051	35	C10H5ClF2N2O+
243.013	15	C10H6ClF2N2O+
244.027	5	C12H7ClN3O+
245.0088	5	C10H5ClF3N2+
245.9925	6	C10H4ClF3NO+
247.0553	4	C12H7F2N3O+
248.0628	39	C12H8F2N3O+
249.0093	8	C11H5ClFN3O+
249.0706	9	C12H9F2N3O+
250.0246	2	C10H8ClF3NO+
252.0345	3	C11H8ClFN3O+
254.0545	1	C11H7F3N3O+
256.0206	8	C11H7ClF2N2O+
256.045	16	C11H9ClF2N3+
257.0285	45	C11H8ClF2N2O+
258.0167	3	C11H6ClF3N2+
259.0239	7	C11H7ClF3N2+
262.0113	63	C10H6ClF3N2O+
264.0333	207	C12H8ClFN3O+
268.0079	3	C11H5ClF2N3O+
268.0689	14	C12H9F3N3O+
269.0158	6	C11H6ClF2N3O+
273.0034	4	C11H5ClF3N2O+
274.0242	2	C12H8ClF3NO+
275.0329	2	C12H9ClF3NO+
277.034	3	C11H9ClF3N2O+
282.0243	14	C12H7ClF2N3O+
283.0317	65	C12H8ClF2N3O+
284.0395	999	C12H9ClF2N3O+
288.014	2	C11H6ClF3N3O+
289.0214	2	C11H7ClF3N3O+
304.0457	185	C12H10ClF3N3O+
