Mass spectrum: Quinine; LC-ESI-QFT; MS2; CE: 60; R=17500; [M+H]+
Name: Quinine
Name: (R)-[(2S,4S,5R)-5-ethenyl-1-azabicyclo[2.2.2]octan-2-yl]-(6-methoxyquinolin-4-yl)methanol
Formula: C20H24N2O2
Exact mass: 324.1838
SMILES: C=C[C@H]1CN2CC[C@H]1C[C@H]2[C@H](O)c1ccnc2ccc(OC)cc12
InChI: InChI=1S/C20H24N2O2/c1-3-13-12-22-9-7-14(13)10-19(22)20(23)16-6-8-21-18-5-4-15(24-2)11-17(16)18/h3-6,8,11,13-14,19-20,23H,1,7,9-10,12H2,2H3/t13-,14-,19-,20+/m0/s1
Instrument: Q Exactive Orbitrap (Thermo Scientific)
Instrument type: LC-ESI-QFT
Ms type: MS2
Ion mode: POSITIVE
Ionization: ESI
Fragmentation mode: HCD
Collision energy: 60
Resolution: 17500
Column name: Acquity BEH C18 1.7um, 2.1x150mm (Waters)
Retention time: 11.420 min
Base peak: 79.0211
Precursor m/z: 325.1911
Precursor type: [M+H]+
Precursor intensity: 28685277.5
m/z	relative intensity	assigned
53.0022	10	C3HO+
53.0386	80	C4H5+
53.9975	2	C2NO+
54.0338	2	C3H4N+
55.0542	93	C4H7+
56.0494	37	C3H6N+
57.0573	6	C3H7N+
58.0651	13	C3H8N+
65.0385	46	C5H5+
66.0463	18	C5H6+
67.0416	13	C4H5N+
67.0542	205	C5H7+
68.0494	45	C4H6N+
69.0572	19	C4H7N+
69.0698	4	C5H9+
70.0651	32	C4H8N+
77.0385	6	C6H5+
78.0465	1	C6H6+
79.0542	848	C6H7+
80.0494	122	C5H6N+
81.0698	999	C6H9+
82.0651	138	C5H8N+
83.0729	4	C5H9N+
84.0808	27	C5H10N+
86.0601	3	C4H8NO+
91.0542	90	C7H7+
92.0621	3	C7H8+
93.0573	13	C6H7N+
93.0699	60	C7H9+
94.0651	62	C6H8N+
95.0491	43	C6H7O+
95.073	25	C6H9N+
95.0855	38	C7H11+
96.0808	47	C6H10N+
103.0542	4	C8H7+
105.0447	16	C6H5N2+
105.0699	52	C8H9+
106.0651	50	C7H8N+
107.0729	22	C7H9N+
107.0854	21	C8H11+
108.0807	88	C7H10N+
109.0648	11	C7H9O+
109.0886	6	C7H11N+
109.1013	2	C8H13+
110.0964	69	C7H12N+
115.0543	9	C9H7+
116.0495	2	C8H6N+
117.0572	18	C8H7N+
117.0698	14	C9H9+
118.0651	6	C8H8N+
119.0604	3	C7H7N2+
119.073	7	C8H9N+
119.0854	3	C9H11+
120.0808	40	C8H10N+
121.0647	3	C8H9O+
121.0886	6	C8H11N+
122.0964	41	C8H12N+
124.0756	2	C7H10NO+
124.1121	37	C8H14N+
129.0573	2	C9H7N+
130.065	7	C9H8N+
131.0729	15	C9H9N+
131.0855	1	C10H11+
132.0807	9	C9H10N+
133.0648	3	C9H9O+
134.0964	112	C9H12N+
135.1042	14	C9H13N+
136.0755	8	C8H10NO+
136.1121	37	C9H14N+
138.1276	10	C9H16N+
141.0572	4	C10H7N+
142.0652	9	C10H8N+
143.073	32	C10H9N+
144.0809	17	C10H10N+
145.0522	36	C9H7NO+
145.0647	6	C10H9O+
146.06	4	C9H8NO+
146.0963	2	C10H12N+
147.0681	3	C9H9NO+
148.0391	3	C8H6NO2+
148.0753	2	C9H10NO+
148.1122	6	C10H14N+
154.0651	44	C11H8N+
155.0729	62	C11H9N+
156.0684	2	C10H8N2+
156.0808	19	C11H10N+
157.052	9	C10H7NO+
157.0889	2	C11H11N+
158.06	50	C10H8NO+
159.0678	28	C10H9NO+
160.0756	433	C10H10NO+
161.0467	2	C9H7NO2+
162.0914	25	C10H12NO+
166.0653	15	C12H8N+
166.1226	37	C10H16NO+
167.0729	54	C12H9N+
168.0683	5	C11H8N2+
168.0806	15	C12H10N+
169.0522	67	C11H7NO+
169.076	3	C11H9N2+
169.0887	8	C12H11N+
170.06	44	C11H8NO+
170.0838	4	C11H10N2+
171.0678	28	C11H9NO+
172.0756	586	C11H10NO+
173.0835	178	C11H11NO+
174.0551	14	C10H8NO2+
174.0913	96	C11H12NO+
175.0627	9	C10H9NO2+
176.0343	3	C12H4N2+
176.0704	5	C10H10NO2+
179.0732	2	C13H9N+
180.0807	19	C13H10N+
181.076	4	C12H9N2+
181.0885	17	C13H11N+
182.0601	38	C12H8NO+
182.0838	10	C12H10N2+
182.0964	2	C13H12N+
183.0679	72	C12H9NO+
183.1042	7	C13H13N+
184.0757	334	C12H10NO+
185.0835	30	C12H11NO+
186.0549	20	C11H8NO2+
186.0913	282	C12H12NO+
187.0992	7	C12H13NO+
188.0706	18	C11H10NO2+
188.1072	2	C12H14NO+
189.0783	32	C11H11NO2+
190.0861	2	C11H12NO2+
191.0584	1	C13H7N2+
191.073	2	C14H9N+
192.0808	8	C14H10N+
193.0886	13	C14H11N+
194.06	3	C13H8NO+
194.086	2	C13H10N2+
194.0964	11	C14H12N+
195.0679	19	C13H9NO+
195.0916	2	C13H11N2+
195.1042	7	C14H13N+
196.0636	4	C12H8N2O+
196.0757	53	C13H10NO+
196.0992	3	C13H12N2+
197.0712	6	C12H9N2O+
197.0835	45	C13H11NO+
198.0801	10	C12H10N2O+
198.0913	189	C13H12NO+
199.0629	5	C12H9NO2+
199.0866	37	C12H11N2O+
199.0989	8	C13H13NO+
200.0706	28	C12H10NO2+
200.1069	23	C13H14NO+
201.0783	3	C12H11NO2+
201.1026	3	C12H13N2O+
202.0863	50	C12H12NO2+
204.0809	10	C15H10N+
205.078	1	C14H9N2+
205.0882	8	C15H11N+
206.0595	1	C14H8NO+
206.0856	1	C14H10N2+
206.096	11	C15H12N+
207.067	1	C14H9NO+
207.0917	5	C14H11N2+
207.1042	6	C15H13N+
208.0757	10	C14H10NO+
208.0994	8	C14H12N2+
208.1112	3	C15H14N+
209.0725	3	C13H9N2O+
209.0835	18	C14H11NO+
209.108	1	C14H13N2+
209.1195	2	C15H15N+
210.0793	6	C13H10N2O+
210.0912	100	C14H12NO+
211.0865	37	C13H11N2O+
211.0991	18	C14H13NO+
212.0943	14	C13H12N2O+
212.1069	30	C14H14NO+
213.1025	21	C13H13N2O+
214.0862	36	C13H12NO2+
214.122	3	C14H16NO+
215.0935	2	C13H13NO2+
216.1018	4	C13H14NO2+
217.0886	3	C16H11N+
218.0856	2	C15H10N2+
218.0962	9	C16H12N+
219.0913	7	C15H11N2+
219.1039	6	C16H13N+
220.0757	10	C15H10NO+
220.1005	3	C15H12N2+
220.1121	4	C16H14N+
221.0838	11	C15H11NO+
221.1072	18	C15H13N2+
221.1199	10	C16H15N+
222.091	17	C15H12NO+
222.1154	4	C15H14N2+
223.0868	4	C14H11N2O+
223.0992	16	C15H13NO+
224.0944	5	C14H12N2O+
224.1066	59	C15H14NO+
225.1021	25	C14H13N2O+
225.1146	5	C15H15NO+
226.1224	48	C15H16NO+
227.1179	34	C14H15N2O+
231.1037	2	C17H13N+
232.0758	3	C16H10NO+
232.1118	10	C17H14N+
233.0833	3	C16H11NO+
233.1075	2	C16H13N2+
233.1193	8	C17H15N+
234.0913	18	C16H12NO+
234.1152	3	C16H14N2+
234.1272	2	C17H16N+
235.0863	6	C15H11N2O+
235.0994	6	C16H13NO+
235.1228	3	C16H15N2+
235.1353	4	C17H17N+
236.0944	6	C15H12N2O+
236.1067	32	C16H14NO+
237.1024	32	C15H13N2O+
237.1149	5	C16H15NO+
238.1097	8	C15H14N2O+
238.1226	24	C16H16NO+
239.1178	13	C15H15N2O+
239.1295	2	C16H17NO+
240.1257	3	C15H16N2O+
240.1374	7	C16H18NO+
242.1173	3	C15H16NO2+
246.0909	3	C17H12NO+
246.1281	2	C18H16N+
247.0994	4	C17H13NO+
247.1224	3	C17H15N2+
247.1363	2	C18H17N+
248.0933	2	C16H12N2O+
248.1068	24	C17H14NO+
249.1028	8	C16H13N2O+
249.114	9	C17H15NO+
250.11	4	C16H14N2O+
250.1225	27	C17H16NO+
251.1178	139	C16H15N2O+
252.1256	37	C16H16N2O+
252.1386	12	C17H18NO+
253.1334	108	C16H17N2O+
254.1542	8	C17H20NO+
260.107	6	C18H14NO+
261.1151	4	C18H15NO+
262.1226	13	C18H16NO+
263.1176	16	C17H15N2O+
263.1311	4	C18H17NO+
263.1546	2	C18H19N2+
264.1382	45	C18H18NO+
265.1334	47	C17H17N2O+
266.1406	3	C17H18N2O+
266.1541	13	C18H20NO+
268.1333	1	C17H18NO2+
268.1699	3	C18H22NO+
275.1545	4	C19H19N2+
276.138	5	C19H18NO+
276.1623	2	C19H20N2+
277.1332	14	C18H17N2O+
278.1549	15	C19H20NO+
279.149	38	C18H19N2O+
280.17	3	C19H22NO+
282.1488	7	C18H20NO2+
291.1491	6	C19H19N2O+
292.1567	2	C19H20N2O+
296.1646	3	C19H22NO2+
297.1954	2	C19H25N2O+
305.1646	4	C20H21N2O+
307.1804	96	C20H23N2O+
325.1908	55	C20H25N2O2+
