Mass spectrum: SAR102608; LC-ESI-QFT; MS2; CE: 30; R=17500; [M+H]+
Name: SAR102608
Name: N-(5-Fluoro-3-methyl-1H-indol-1-yl)-4-methyl-2-(pyridin-2-yl)pyrimidine-5-carboxamide
Name: N-(5-fluoro-3-methylindol-1-yl)-4-methyl-2-pyridin-2-ylpyrimidine-5-carboxamide
Formula: C20H16FN5O
Exact mass: 361.1339
SMILES: CC1=CN(NC(=O)C2=C(C)N=C(N=C2)C2=CC=CC=N2)C2=CC=C(F)C=C12
InChI: InChI=1S/C20H16FN5O/c1-12-11-26(18-7-6-14(21)9-15(12)18)25-20(27)16-10-23-19(24-13(16)2)17-5-3-4-8-22-17/h3-11H,1-2H3,(H,25,27)
Instrument: Q Exactive Orbitrap (Thermo Scientific)
Instrument type: LC-ESI-QFT
Ms type: MS2
Ion mode: POSITIVE
Ionization: ESI
Fragmentation mode: HCD
Collision energy: 30
Resolution: 17500
Column name: Acquity BEH C18 1.7um, 2.1x150mm (Waters)
Retention time: 16.955 min
Base peak: 79.0212
Precursor m/z: 362.1412
Precursor type: [M+H]+
Precursor intensity: 19285501.75
m/z	relative intensity	assigned
68.0494	1	C4H6N+
78.0339	1	C5H4N+
79.042	2	C5H5N+
94.0287	3	C5H4NO+
106.0526	4	C6H6N2+
111.0553	1	C5H7N2O+
133.0635	1	C7H7N3+
146.0599	2	C4H7FN4O+
147.079	2	C8H9N3+
148.0557	26	C9H7FN+
149.0635	32	C9H8FN+
157.0397	6	C9H5N2O+
157.0634	35	C9H7N3+
158.0714	3	C9H8N3+
163.0665	1	C9H8FN2+
165.0823	15	C9H10FN2+
166.0662	8	C9H9FNO+
170.0713	20	C10H8N3+
171.079	212	C10H9N3+
172.0868	15	C10H10N3+
185.0823	7	C10H9N4+
186.0664	151	C10H8N3O+
186.0899	461	C10H10N4+
187.0734	1	C10H9N3O+
197.0822	130	C11H9N4+
198.0662	560	C11H8N3O+
213.0771	157	C11H9N4O+
214.0848	999	C11H10N4O+
215.0926	89	C11H11N4O+
241.077	28	C14H10FN2O+
258.1037	89	C14H13FN3O+
297.1133	2	C19H13N4+
302.1083	2	C19H13FN3+
317.1201	2	C19H14FN4+
319.1363	11	C19H16FN4+
325.1084	2	C20H13N4O+
330.091	16	C19H11FN4O+
332.0946	2	C18H11FN5O+
342.1344	6	C20H16N5O+
344.1304	3	C20H15FN5+
345.1145	82	C20H14FN4O+
362.1411	565	C20H17FN5O+
