Mass spectrum: SAR115740; LC-ESI-QFT; MS2; CE: 45; R=17500; [M+H]+
Name: SAR115740
Name: 5-fluoro-1-[(3-fluorophenyl)methyl]-N-(1H-indol-5-yl)indole-2-carboxamide
Formula: C24H17F2N3O
Exact mass: 401.1340
SMILES: FC1=CC=C2N(CC3=CC(F)=CC=C3)C(=CC2=C1)C(=O)NC1=CC=C2NC=CC2=C1
InChI: InChI=1S/C24H17F2N3O/c25-18-3-1-2-15(10-18)14-29-22-7-4-19(26)11-17(22)13-23(29)24(30)28-20-5-6-21-16(12-20)8-9-27-21/h1-13,27H,14H2,(H,28,30)
Instrument: Q Exactive Orbitrap (Thermo Scientific)
Instrument type: LC-ESI-QFT
Ms type: MS2
Ion mode: POSITIVE
Ionization: ESI
Fragmentation mode: HCD
Collision energy: 45
Resolution: 17500
Column name: Acquity BEH C18 1.7um, 2.1x150mm (Waters)
Retention time: 18.363 min
Base peak: 79.0212
Precursor m/z: 402.1412
Precursor type: [M+H]+
Precursor intensity: 7869114.25
m/z	relative intensity	assigned
83.029	8	F2H3N3+
89.0385	1	C7H5+
104.0493	6	C7H6N+
109.0448	999	C7H6F+
110.0397	1	C6H5FN+
131.0604	355	C8H7N2+
132.0681	370	C8H8N2+
133.0759	27	C8H9N2+
134.04	1	C8H5FN+
134.06	1	C8H8NO+
135.0479	2	C8H6FN+
136.0557	176	C8H7FN+
145.076	2	C9H9N2+
148.0556	42	C9H7FN+
152.0505	2	C8H7FNO+
159.0553	16	C9H7N2O+
162.0349	154	C9H5FNO+
171.0552	51	C10H7N2O+
194.0966	1	C14H12N+
206.0965	1	C15H12N+
208.1122	2	C15H14N+
212.0868	10	C14H11FN+
222.0713	6	C15H9FN+
223.079	4	C15H10FN+
224.0873	2	C15H11FN+
238.0902	1	C15H11FN2+
239.0978	113	C15H12FN2+
241.1135	16	C15H14FN2+
242.0777	1	C15H10F2N+
244.0932	21	C15H12F2N+
250.0664	2	C16H9FNO+
252.0618	8	C16H8F2N+
265.101	2	C16H12FN3+
267.093	3	C16H12FN2O+
270.0723	8	C16H10F2NO+
292.0879	1	C17H11FN3O+
384.1298	1	C24H16F2N3+
