Mass spectrum: Prednisone; LC-ESI-QFT; MS2; CE: 15; R=17500; [M-H]-
Name: Prednisone
Name: (8S,9S,10R,13S,14S,17R)-17-hydroxy-17-(2-hydroxyacetyl)-10,13-dimethyl-6,7,8,9,12,14,15,16-octahydrocyclopenta[a]phenanthrene-3,11-dione
Formula: C21H26O5
Exact mass: 358.1780
SMILES: C[C@]12CC(=O)[C@H]3[C@@H](CCC4=CC(=O)C=C[C@]34C)[C@@H]1CC[C@]2(O)C(=O)CO
InChI: InChI=1S/C21H26O5/c1-19-7-5-13(23)9-12(19)3-4-14-15-6-8-21(26,17(25)11-22)20(15,2)10-16(24)18(14)19/h5,7,9,14-15,18,22,26H,3-4,6,8,10-11H2,1-2H3/t14-,15-,18+,19-,20-,21-/m0/s1
Instrument: Q Exactive Orbitrap (Thermo Scientific)
Instrument type: LC-ESI-QFT
Ms type: MS2
Ion mode: NEGATIVE
Ionization: ESI
Fragmentation mode: HCD
Collision energy: 15
Resolution: 17500
Column name: Acquity BEH C18 1.7um, 2.1x150mm (Waters)
Retention time: 15.404 min
Base peak: 297.1132
Precursor m/z: 357.1707
Precursor type: [M-H]-
Precursor intensity: 1533883.806641
m/z	relative intensity	assigned
123.0452	91	C7H7O2-
125.0611	17	C7H9O2-
149.0615	3	C9H9O2-
201.0923	40	C13H13O2-
203.108	8	C13H15O2-
269.1176	3	C17H17O3-
284.1425	3	C18H20O3-
285.1495	6	C18H21O3-
297.1497	20	C19H21O3-
299.1653	278	C19H23O3-
324.1373	23	C20H20O4-
327.1603	999	C20H23O4-
339.16	21	C21H23O4-
342.1476	24	C20H22O5-
