Mass spectrum: 6-Thioguanine; LC-ESI-QFT; MS2; CE: 45; R=17500; [M-H]-
Name: 6-Thioguanine
Name: 2-amino-7H-purine-6-thiol
Formula: C5H5N5S
Exact mass: 167.0266
SMILES: NC1=NC2=C(NC=N2)C(=S)N1
InChI: InChI=1S/C5H5N5S/c6-5-9-3-2(4(11)10-5)7-1-8-3/h1H,(H4,6,7,8,9,10,11)
Instrument: Q Exactive Orbitrap (Thermo Scientific)
Instrument type: LC-ESI-QFT
Ms type: MS2
Ion mode: NEGATIVE
Ionization: ESI
Fragmentation mode: HCD
Collision energy: 45
Resolution: 17500
Column name: Acquity BEH C18 1.7um, 2.1x150mm (Waters)
Retention time: 3.049 min
Base peak: 198.9364
Precursor m/z: 166.0193
Precursor type: [M-H]-
Precursor intensity: 1305101.125244
m/z	relative intensity	assigned
57.9756	48	CNS-
66.0098	78	C2N3-
78.0099	4	C3N3-
81.9757	2	C3NS-
82.0411	25	C3H4N3-
96.9866	4	C3HN2S-
105.0208	22	C4HN4-
107.0364	101	C4H3N4-
123.9974	24	C4H2N3S-
132.0316	999	C5H2N5-
148.9929	9	C5HN4S-
166.0193	190	C5H4N5S-
