Mass spectrum: Resmethrin; LC-ESI-QFT; MS2; CE: 75; R=17500; [M+H]+
Name: Resmethrin
Formula: C22H26O3
Exact mass: 338.1882
SMILES: CC(C)=CC1C(C(=O)OCC2=COC(CC3=CC=CC=C3)=C2)C1(C)C
InChI: InChI=1S/C22H26O3/c1-15(2)10-19-20(22(19,3)4)21(23)25-14-17-12-18(24-13-17)11-16-8-6-5-7-9-16/h5-10,12-13,19-20H,11,14H2,1-4H3
Instrument: Q Exactive Orbitrap (Thermo Scientific)
Instrument type: LC-ESI-QFT
Ms type: MS2
Ion mode: POSITIVE
Ionization: ESI
Fragmentation mode: HCD
Collision energy: 75
Resolution: 17500
Column name: Acquity BEH C18 1.7um, 2.1x150mm (Waters)
Retention time: 20.591 min
Base peak: 79.0211
Precursor m/z: 339.1955
Precursor type: [M+H]+
Precursor intensity: 680459.625
m/z	relative intensity	assigned
53.0387	18	C4H5+
55.0543	34	C4H7+
59.0492	15	C3H7O+
65.0385	71	C5H5+
67.0542	48	C5H7+
69.0699	30	C5H9+
79.0542	85	C6H7+
81.0699	57	C6H9+
83.0493	13	C5H7O+
85.0648	12	C5H9O+
91.0543	999	C7H7+
93.0699	83	C7H9+
95.0492	54	C6H7O+
95.0854	28	C7H11+
103.0541	35	C8H7+
105.0336	169	C7H5O+
105.0699	143	C8H9+
107.0491	11	C7H7O+
107.0856	38	C8H11+
109.0649	48	C7H9O+
115.0542	104	C9H7+
117.0698	82	C9H9+
119.0856	78	C9H11+
121.0649	34	C8H9O+
121.1013	54	C9H13+
127.054	12	C10H7+
128.0621	576	C10H8+
129.07	33	C10H9+
131.0857	45	C10H11+
133.0649	23	C9H9O+
133.1012	21	C10H13+
141.07	54	C11H9+
142.0779	25	C11H10+
143.0857	88	C11H11+
145.0648	48	C10H9O+
145.1009	13	C11H13+
152.062	18	C12H8+
153.07	24	C12H9+
155.0856	27	C12H11+
159.0807	19	C11H11O+
171.0802	10	C12H11O+
179.0848	16	C14H11+
