Mass spectrum: Ilepatril; LC-ESI-QFT; MS2; CE: 90; R=17500; [M-H]-
Name: Ilepatril
Name: (4S,7S,12bR)-7-[[(2S)-2-acetylsulfanyl-3-methylbutanoyl]amino]-6-oxo-2,3,4,7,8,12b-hexahydro-1H-pyrido[2,1-a][2]benzazepine-4-carboxylic acid
Formula: C22H28N2O5S
Exact mass: 432.1719
SMILES: CC(C)[C@H](SC(C)=O)C(=O)N[C@H]1CC2=C(C=CC=C2)[C@H]2CCC[C@H](N2C1=O)C(O)=O
InChI: InChI=1S/C22H28N2O5S/c1-12(2)19(30-13(3)25)20(26)23-16-11-14-7-4-5-8-15(14)17-9-6-10-18(22(28)29)24(17)21(16)27/h4-5,7-8,12,16-19H,6,9-11H2,1-3H3,(H,23,26)(H,28,29)/t16-,17+,18-,19-/m0/s1
Instrument: Q Exactive Orbitrap (Thermo Scientific)
Instrument type: LC-ESI-QFT
Ms type: MS2
Ion mode: NEGATIVE
Ionization: ESI
Fragmentation mode: HCD
Collision energy: 90
Resolution: 17500
Column name: Acquity BEH C18 1.7um, 2.1x150mm (Waters)
Retention time: 16.862 min
Base peak: 231.0097
Precursor m/z: 431.1646
Precursor type: [M-H]-
Precursor intensity: 13036975.11621
m/z	relative intensity	assigned
57.0346	5	C3H5O-
57.9756	7	CNS-
58.0297	6	C2H4NO-
59.0138	102	C2H3O2-
59.9913	31	CH2NS-
60.9754	12	CHOS-
63.9624	8	O2S-
66.035	8	C4H4N-
70.9836	5	C2HNS-
71.0251	32	C2H3N2O-
72.9754	65	C2HOS-
73.9833	7	C2H2OS-
74.991	623	C2H3OS-
83.0503	15	C5H7O-
84.0458	4	C4H6NO-
85.0294	14	C4H5O2-
87.0274	44	C4H7S-
87.9989	38	C3H4OS-
88.9941	999	C2H3NOS-
90.0021	22	C2H4NOS-
96.082	18	C6H10N-
97.0044	10	C3HN2O2-
97.0169	5	C4H3NO2-
98.0123	8	C3H2N2O2-
98.0614	3	C5H8NO-
99.02	15	C3H3N2O2-
99.9863	16	C3H2NOS-
103.0222	6	C4H7OS-
111.0199	10	C4H3N2O2-
112.0768	8	C6H10NO-
115.0223	14	C5H7OS-
115.0553	9	C9H7-
116.0175	4	C4H6NOS-
116.0505	5	C8H6N-
126.9972	30	C4H3N2OS-
129.0708	7	C10H9-
130.0663	6	C9H8N-
132.0486	26	C5H10NOS-
137.072	13	C7H9N2O-
139.051	6	C6H7N2O2-
140.0719	18	C7H10NO2-
141.071	17	C11H9-
142.0662	29	C10H8N-
143.0503	31	C10H7O-
145.066	13	C10H9O-
156.0822	7	C11H10N-
157.053	12	C10H7NO-
157.0657	34	C11H9O-
158.0611	46	C10H8NO-
166.0663	12	C12H8N-
168.0822	5	C12H10N-
171.069	13	C11H9NO-
172.0766	24	C11H10NO-
180.0579	8	C13H8O-
180.082	5	C13H10N-
181.0532	4	C12H7NO-
182.0612	5	C12H8NO-
182.0974	7	C13H12N-
183.0816	8	C13H11O-
184.0771	9	C12H10NO-
192.0821	4	C14H10N-
194.0966	4	C14H12N-
196.0767	6	C13H10NO-
201.0378	6	C12H9OS-
203.0591	15	C11H9NO3-
212.1084	7	C14H14NO-
