Mass spectrum: Atrazine; LC-ESI-QFT; MS2; CE: 30; R=17500; [M+H]+
Name: Atrazine
Name: 6-chloro-4-N-ethyl-2-N-propan-2-yl-1,3,5-triazine-2,4-diamine
Formula: C8H14ClN5
Exact mass: 215.0938
SMILES: CCNC1=NC(NC(C)C)=NC(Cl)=N1
InChI: InChI=1S/C8H14ClN5/c1-4-10-7-12-6(9)13-8(14-7)11-5(2)3/h5H,4H2,1-3H3,(H2,10,11,12,13,14)
Instrument: Q Exactive Orbitrap (Thermo Scientific)
Instrument type: LC-ESI-QFT
Ms type: MS2
Ion mode: POSITIVE
Ionization: ESI
Fragmentation mode: HCD
Collision energy: 30
Resolution: 17500
Column name: Acquity BEH C18 1.7um, 2.1x150mm (Waters)
Retention time: 16.364 min
Base peak: 79.0211
Precursor m/z: 216.101
Precursor type: [M+H]+
Precursor intensity: 12989332.9375
m/z	relative intensity	assigned
68.0244	1	C2H2N3+
79.0057	8	CH4ClN2+
96.0555	16	C4H6N3+
104.0009	10	C2H3ClN3+
132.0322	10	C4H7ClN3+
138.0774	2	C5H8N5+
138.1025	15	C7H12N3+
146.0227	7	C3H5ClN5+
146.0479	10	C5H9ClN3+
174.054	467	C5H9ClN5+
180.1242	1	C8H14N5+
188.0692	2	C6H11ClN5+
216.1009	999	C8H15ClN5+
