Mass spectrum: Exifone; LC-ESI-QFT; MS2; CE: 30; R=17500; [M-H]-
Name: Exifone
Name: (2,3,4-trihydroxyphenyl)-(3,4,5-trihydroxyphenyl)methanone
Formula: C13H10O7
Exact mass: 278.0427
SMILES: OC1=CC=C(C(=O)C2=CC(O)=C(O)C(O)=C2)C(O)=C1O
InChI: InChI=1S/C13H10O7/c14-7-2-1-6(11(18)13(7)20)10(17)5-3-8(15)12(19)9(16)4-5/h1-4,14-16,18-20H
Instrument: Q Exactive Orbitrap (Thermo Scientific)
Instrument type: LC-ESI-QFT
Ms type: MS2
Ion mode: NEGATIVE
Ionization: ESI
Fragmentation mode: HCD
Collision energy: 30
Resolution: 17500
Column name: Acquity BEH C18 1.7um, 2.1x150mm (Waters)
Retention time: 11.414 min
Base peak: 169.0441
Precursor m/z: 277.0354
Precursor type: [M-H]-
Precursor intensity: 1400244.420898
m/z	relative intensity	assigned
69.0347	4	C4H5O-
95.0142	5	C5H3O2-
107.0138	57	C6H3O2-
123.0089	28	C6H3O3-
125.0244	999	C6H5O3-
151.0037	716	C7H3O4-
169.0143	460	C7H5O5-
277.0362	28	C13H9O7-
