Mass spectrum: Coumatetralyl; LC-ESI-QFT; MS2; CE: 30; R=17500; [M-H]-
Name: Coumatetralyl
Name: 4-hydroxy-3-(1,2,3,4-tetrahydronaphthalen-1-yl)chromen-2-one
Formula: C19H16O3
Exact mass: 292.1099
SMILES: OC1=C(C2CCCC3=C2C=CC=C3)C(=O)OC2=C1C=CC=C2
InChI: InChI=1S/C19H16O3/c20-18-15-9-3-4-11-16(15)22-19(21)17(18)14-10-5-7-12-6-1-2-8-13(12)14/h1-4,6,8-9,11,14,20H,5,7,10H2
Instrument: Q Exactive Orbitrap (Thermo Scientific)
Instrument type: LC-ESI-QFT
Ms type: MS2
Ion mode: NEGATIVE
Ionization: ESI
Fragmentation mode: HCD
Collision energy: 30
Resolution: 17500
Column name: Acquity BEH C18 1.7um, 2.1x150mm (Waters)
Retention time: 18.177 min
Base peak: 434.9314
Precursor m/z: 291.1027
Precursor type: [M-H]-
Precursor intensity: 82563688.94336
m/z	relative intensity	assigned
93.0345	2	C6H5O-
106.0424	24	C7H6O-
119.0503	7	C8H7O-
135.0452	17	C8H7O2-
138.0322	3	C7H6O3-
141.071	61	C11H9-
143.0508	2	C10H7O-
187.0401	15	C11H7O3-
219.0815	13	C16H11O-
245.0973	2	C18H13O-
247.1129	112	C18H15O-
263.1077	10	C18H15O2-
291.1027	999	C19H15O3-
