Mass spectrum: Nootkatone; LC-ESI-QFT; MS2; CE: 90; R=17500; [M+H]+
Name: Nootkatone
Name: (4R,4aS,6R)-4,4a-dimethyl-6-prop-1-en-2-yl-3,4,5,6,7,8-hexahydronaphthalen-2-one
Formula: C15H22O
Exact mass: 218.1671
SMILES: C[C@@H]1CC(=O)C=C2CC[C@H](C[C@@]12C)C(C)=C
InChI: InChI=1S/C15H22O/c1-10(2)12-5-6-13-8-14(16)7-11(3)15(13,4)9-12/h8,11-12H,1,5-7,9H2,2-4H3/t11-,12-,15+/m1/s1
Instrument: Q Exactive Orbitrap (Thermo Scientific)
Instrument type: LC-ESI-QFT
Ms type: MS2
Ion mode: POSITIVE
Ionization: ESI
Fragmentation mode: HCD
Collision energy: 90
Resolution: 17500
Column name: Acquity BEH C18 1.7um, 2.1x150mm (Waters)
Retention time: 19.073 min
Base peak: 79.0211
Precursor m/z: 219.1743
Precursor type: [M+H]+
Precursor intensity: 7860499.84375
m/z	relative intensity	assigned
53.0022	54	C3HO+
53.0386	129	C4H5+
55.0179	91	C3H3O+
55.0542	367	C4H7+
57.0334	12	C3H5O+
57.0699	25	C4H9+
59.0491	2	C3H7O+
65.0385	76	C5H5+
66.0463	8	C5H6+
67.0542	607	C5H7+
69.0335	222	C4H5O+
69.0698	157	C5H9+
71.0491	7	C4H7O+
77.0386	22	C6H5+
78.0463	16	C6H6+
79.0542	722	C6H7+
80.062	14	C6H8+
81.0699	999	C6H9+
83.0491	32	C5H7O+
83.0855	24	C6H11+
91.0542	628	C7H7+
92.0622	10	C7H8+
93.0699	427	C7H9+
94.0413	16	C6H6O+
94.0777	6	C7H10+
95.0491	247	C6H7O+
95.0855	185	C7H11+
96.0569	8	C6H8O+
97.0648	120	C6H9O+
103.0542	45	C8H7+
104.062	9	C8H8+
105.0699	368	C8H9+
106.0413	16	C7H6O+
106.0778	12	C8H10+
107.0491	77	C7H7O+
107.0855	168	C8H11+
108.0569	19	C7H8O+
108.0932	3	C8H12+
109.0648	88	C7H9O+
109.1012	55	C8H13+
111.0804	163	C7H11O+
115.0542	57	C9H7+
116.0621	21	C9H8+
117.0699	114	C9H9+
119.0856	166	C9H11+
120.0571	7	C8H8O+
120.0936	4	C9H12+
121.0648	134	C8H9O+
121.1012	44	C9H13+
122.0726	13	C8H10O+
123.0805	58	C8H11O+
123.1168	12	C9H15+
125.0957	7	C8H13O+
128.062	42	C10H8+
129.0698	67	C10H9+
130.0777	49	C10H10+
131.0856	82	C10H11+
132.0931	5	C10H12+
133.0648	45	C9H9O+
133.1011	54	C10H13+
134.0725	9	C9H10O+
135.0804	76	C9H11O+
135.1169	7	C10H15+
137.096	25	C9H13O+
142.0778	12	C11H10+
143.0855	61	C11H11+
144.0935	15	C11H12+
145.1012	55	C11H13+
146.0725	14	C10H10O+
147.0803	48	C10H11O+
147.1164	4	C11H15+
148.088	4	C10H12O+
149.096	18	C10H13O+
151.1117	4	C10H15O+
157.1011	8	C12H13+
158.1088	3	C12H14+
159.1168	10	C12H15+
161.0961	92	C11H13O+
161.1326	6	C12H17+
163.1119	31	C11H15O+
171.1167	5	C13H15+
175.1117	4	C12H15O+
176.1195	6	C12H16O+
189.1275	17	C13H17O+
