Mass spectrum: Triamcinolone; LC-ESI-QFT; MS2; CE: 90; R=17500; [M+H]+
Name: Triamcinolone
Name: (8S,9R,10S,11S,13S,14S,16R,17S)-9-fluoro-11,16,17-trihydroxy-17-(2-hydroxyacetyl)-10,13-dimethyl-6,7,8,11,12,14,15,16-octahydrocyclopenta[a]phenanthren-3-one
Formula: C21H27FO6
Exact mass: 394.1792
SMILES: C[C@]12C[C@H](O)[C@@]3(F)[C@@H](CCC4=CC(=O)C=C[C@]34C)[C@@H]1C[C@@H](O)[C@]2(O)C(=O)CO
InChI: InChI=1S/C21H27FO6/c1-18-6-5-12(24)7-11(18)3-4-13-14-8-15(25)21(28,17(27)10-23)19(14,2)9-16(26)20(13,18)22/h5-7,13-16,23,25-26,28H,3-4,8-10H2,1-2H3/t13-,14-,15+,16-,18-,19-,20-,21-/m0/s1
Instrument: Q Exactive Orbitrap (Thermo Scientific)
Instrument type: LC-ESI-QFT
Ms type: MS2
Ion mode: POSITIVE
Ionization: ESI
Fragmentation mode: HCD
Collision energy: 90
Resolution: 17500
Column name: Acquity BEH C18 1.7um, 2.1x150mm (Waters)
Retention time: 14.647 min
Base peak: 79.0211
Precursor m/z: 395.1864
Precursor type: [M+H]+
Precursor intensity: 2148609.90625
m/z	relative intensity	assigned
53.0387	143	C4H5+
55.0179	312	C3H3O+
55.0543	91	C4H7+
65.0386	131	C5H5+
67.0542	136	C5H7+
69.0335	82	C4H5O+
79.0543	274	C6H7+
81.0697	56	C6H9+
91.0543	999	C7H7+
93.0699	125	C7H9+
95.0492	375	C6H7O+
103.0543	160	C8H7+
105.07	329	C8H9+
107.0491	138	C7H7O+
107.0853	43	C8H11+
109.065	59	C7H9O+
115.0543	442	C9H7+
117.07	134	C9H9+
119.0856	174	C9H11+
121.0649	440	C8H9O+
128.0621	730	C10H8+
129.07	211	C10H9+
130.078	53	C10H10+
131.0494	73	C9H7O+
131.0856	92	C10H11+
132.0571	158	C9H8O+
141.0699	262	C11H9+
142.0779	118	C11H10+
143.0855	115	C11H11+
144.0571	110	C10H8O+
145.0647	243	C10H9O+
147.0807	145	C10H11O+
152.0623	111	C12H8+
153.0701	161	C12H9+
155.0857	136	C12H11+
157.0649	63	C11H9O+
158.0728	119	C11H10O+
159.0804	76	C11H11O+
165.0702	436	C13H9+
166.0779	145	C13H10+
167.0856	156	C13H11+
169.0648	82	C12H9O+
171.0805	119	C12H11O+
178.078	292	C14H10+
179.0857	361	C14H11+
180.0933	105	C14H12+
181.0651	187	C13H9O+
181.1014	89	C14H13+
182.0728	103	C13H10O+
183.081	83	C10H12FO2+
189.0704	177	C15H9+
190.0776	117	C15H10+
191.0859	318	C15H11+
192.0932	154	C15H12+
193.1012	50	C15H13+
194.0727	147	C14H10O+
195.0806	292	C14H11O+
197.0964	39	C14H13O+
202.0778	116	C16H10+
203.0856	84	C16H11+
205.1014	94	C16H13+
208.0883	99	C15H12O+
209.0962	150	C15H13O+
219.0803	115	C16H11O+
221.0962	69	C16H13O+
222.1042	65	C16H14O+
229.1017	46	C18H13+
231.0804	90	C17H11O+
233.0961	110	C17H13O+
235.112	45	C17H15O+
245.0958	104	C18H13O+
