Mass spectrum: Thalidomide; LC-ESI-QFT; MS2; CE: 60; R=17500; [M-H]-
Name: Thalidomide
Formula: C13H10N2O4
Exact mass: 258.0641
SMILES: O=C1N(C2CCC(=O)NC2=O)C(=O)C2=CC=CC=C12
InChI: InChI=1S/C13H10N2O4/c16-10-6-5-9(11(17)14-10)15-12(18)7-3-1-2-4-8(7)13(15)19/h1-4,9H,5-6H2,(H,14,16,17)
Instrument: Q Exactive Orbitrap (Thermo Scientific)
Instrument type: LC-ESI-QFT
Ms type: MS2
Ion mode: NEGATIVE
Ionization: ESI
Fragmentation mode: HCD
Collision energy: 60
Resolution: 17500
Column name: Acquity BEH C18 1.7um, 2.1x150mm (Waters)
Retention time: 16.757 min
Base peak: 291.0599
Precursor m/z: 257.0568
Precursor type: [M-H]-
Precursor intensity: 568658.0595703
m/z	relative intensity	assigned
65.9986	41	C3NO-
66.0349	77	C4H4N-
67.019	25	C4H3O-
68.0143	30	C3H2NO-
78.0349	24	C5H4N-
91.0302	47	C5H3N2-
92.0142	34	C5H2NO-
94.0299	999	C5H4NO-
95.014	49	C5H3O2-
106.0299	61	C6H4NO-
107.0377	812	C6H5NO-
108.0455	687	C6H6NO-
118.0299	872	C7H4NO-
119.0251	159	C6H3N2O-
134.0248	415	C7H4NO2-
135.0327	32	C7H5NO2-
136.0404	302	C7H6NO2-
146.0249	25	C8H4NO2-
152.0354	36	C7H6NO3-
158.0615	20	C10H8NO-
182.0483	13	C11H6N2O-
183.0568	96	C11H7N2O-
184.0642	26	C11H8N2O-
185.072	48	C11H9N2O-
211.0513	347	C12H7N2O2-
228.0538	113	C12H8N2O3-
229.0617	76	C12H9N2O3-
257.0565	19	C13H9N2O4-
