Mass spectrum: Enterolactone; LC-ESI-QFT; MS2; CE: 30; R=17500; [M-H]-
Name: Enterolactone
Name: (-)-Enterolactone
Name: (3R,4R)-3,4-bis[(3-hydroxyphenyl)methyl]oxolan-2-one
Formula: C18H18O4
Exact mass: 298.1205
SMILES: OC1=CC(C[C@H]2COC(=O)[C@@H]2CC2=CC(O)=CC=C2)=CC=C1
InChI: InChI=1S/C18H18O4/c19-15-5-1-3-12(8-15)7-14-11-22-18(21)17(14)10-13-4-2-6-16(20)9-13/h1-6,8-9,14,17,19-20H,7,10-11H2/t14-,17+/m0/s1
Instrument: Q Exactive Orbitrap (Thermo Scientific)
Instrument type: LC-ESI-QFT
Ms type: MS2
Ion mode: NEGATIVE
Ionization: ESI
Fragmentation mode: HCD
Collision energy: 30
Resolution: 17500
Column name: Acquity BEH C18 1.7um, 2.1x150mm (Waters)
Retention time: 15.387 min
Base peak: 297.1133
Precursor m/z: 297.1132
Precursor type: [M-H]-
Precursor intensity: 10296977.86328
m/z	relative intensity	assigned
65.0396	1	C5H5-
81.0345	1	C5H5O-
91.0553	1	C7H7-
93.0346	9	C6H5O-
95.0141	1	C5H3O2-
95.0504	1	C6H7O-
106.0427	3	C7H6O-
107.0503	343	C7H7O-
108.022	1	C6H4O2-
109.0659	5	C7H9O-
117.0346	2	C8H5O-
119.0502	161	C8H7O-
120.0581	4	C8H8O-
121.0296	14	C7H5O2-
121.0659	125	C8H9O-
130.0425	1	C9H6O-
131.0503	37	C9H7O-
132.0581	14	C9H8O-
133.0658	28	C9H9O-
135.0451	3	C8H7O2-
143.0501	8	C10H7O-
145.0659	55	C10H9O-
146.0739	12	C10H10O-
147.0452	32	C9H7O2-
152.0477	2	C8H8O3-
159.0455	1	C10H7O2-
159.0814	2	C11H11O-
165.0557	183	C9H9O3-
183.0813	1	C13H11O-
189.0558	257	C11H9O3-
195.0812	2	C14H11O-
235.1127	1	C17H15O-
251.1079	43	C17H15O2-
253.1235	693	C17H17O2-
279.103	2	C18H15O3-
297.1132	999	C18H17O4-
