Mass spectrum: Chlorfenvinphos; LC-ESI-QFT; MS2; CE: 75; R=17500; [M+H]+
Name: Chlorfenvinphos
Name: Clofenvinfos
Name: [2-chloro-1-(2,4-dichlorophenyl)ethenyl] diethyl phosphate
Formula: C12H14Cl3O4P
Exact mass: 357.9695
SMILES: CCOP(=O)(OCC)OC(=CCl)C1=C(Cl)C=C(Cl)C=C1
InChI: InChI=1S/C12H14Cl3O4P/c1-3-17-20(16,18-4-2)19-12(8-13)10-6-5-9(14)7-11(10)15/h5-8H,3-4H2,1-2H3
Instrument: Q Exactive Orbitrap (Thermo Scientific)
Instrument type: LC-ESI-QFT
Ms type: MS2
Ion mode: POSITIVE
Ionization: ESI
Fragmentation mode: HCD
Collision energy: 75
Resolution: 17500
Column name: Acquity BEH C18 1.7um, 2.1x150mm (Waters)
Retention time: 18.582 min
Base peak: 79.0212
Precursor m/z: 358.9768
Precursor type: [M+H]+
Precursor intensity: 10582045.875
m/z	relative intensity	assigned
64.9786	1	H2O2P+
77.0021	1	C5HO+
80.9735	1	H2O3P+
86.9632	3	C3ClO+
89.0386	1	C7H5+
98.0151	5	C8H2+
98.9841	999	H4O4P+
108.9839	7	C6H2Cl+
110.9632	21	C5ClO+
116.9947	19	CH6ClO4+
122.9995	9	C7H4Cl+
127.0153	2	C2H8O4P+
131.0103	19	C2H8ClO4+
132.9839	18	C8H2Cl+
133.992	4	C8H3Cl+
144.9607	3	C6H3Cl2+
150.9944	3	C7H4O2P+
158.9764	3	C7H5Cl2+
163.0057	2	CH14Cl3O2+
168.9607	27	C8H3Cl2+
169.9684	759	C8H4Cl2+
172.9667	1	C4H8Cl2OP+
186.9715	4	C8H5Cl2O+
196.9668	10	Cl3H13O3P+
200.9866	3	C8H7ClO2P+
204.9374	14	C8H4Cl3+
