Mass spectrum: Hexylparaben; LC-ESI-QFT; MS2; CE: 60; R=17500; [M-H]-
Name: Hexylparaben
Name: hexyl 4-hydroxybenzoate
Formula: C13H18O3
Exact mass: 222.1256
SMILES: CCCCCCOC(=O)C1=CC=C(O)C=C1
InChI: InChI=1S/C13H18O3/c1-2-3-4-5-10-16-13(15)11-6-8-12(14)9-7-11/h6-9,14H,2-5,10H2,1H3
Instrument: Q Exactive Orbitrap (Thermo Scientific)
Instrument type: LC-ESI-QFT
Ms type: MS2
Ion mode: NEGATIVE
Ionization: ESI
Fragmentation mode: HCD
Collision energy: 60
Resolution: 17500
Column name: Acquity BEH C18 1.7um, 2.1x150mm (Waters)
Retention time: 18.967 min
Base peak: 221.1183
Precursor m/z: 221.1183
Precursor type: [M-H]-
Precursor intensity: 82629326.16406
m/z	relative intensity	assigned
53.0033	1	C3HO-
65.0033	2	C4HO-
65.0396	1	C5H5-
67.019	4	C4H3O-
68.9982	9	C3HO2-
69.0346	9	C4H5O-
70.0061	5	C3H2O2-
71.0138	6	C3H3O2-
72.9932	5	C2HO3-
78.0113	2	C5H2O-
79.0189	7	C5H3O-
79.9904	6	C4O2-
80.9983	3	C4HO2-
82.006	30	C4H2O2-
86.001	1	C3H2O3-
91.019	75	C6H3O-
92.0268	153	C6H4O-
93.0346	999	C6H5O-
95.0138	390	C5H3O2-
97.0296	6	C5H5O2-
97.066	1	C6H9O-
98.0013	1	C4H2O3-
99.0815	71	C6H11O-
106.006	21	C6H2O2-
106.0425	2	C7H6O-
107.0139	2	C6H3O2-
108.0217	362	C6H4O2-
119.0138	13	C7H3O2-
121.0295	37	C7H5O2-
123.0088	52	C6H3O3-
136.0165	274	C7H4O3-
137.0243	201	C7H5O3-
149.024	1	C8H5O3-
221.1182	40	C13H17O3-
