Mass spectrum: CP-471358; LC-ESI-QFT; MS2; CE: 90; R=17500; [M-H]-
Name: CP-471358
Name: 3-[[4-(4-fluorophenoxy)phenyl]sulfonyl-[1-(hydroxycarbamoyl)cyclopentyl]amino]propanoic acid
Formula: C21H23FN2O7S
Exact mass: 466.1210
SMILES: ONC(=O)C1(CCCC1)N(CCC(O)=O)S(=O)(=O)C1=CC=C(OC2=CC=C(F)C=C2)C=C1
InChI: InChI=1S/C21H23FN2O7S/c22-15-3-5-16(6-4-15)31-17-7-9-18(10-8-17)32(29,30)24(14-11-19(25)26)21(20(27)23-28)12-1-2-13-21/h3-10,28H,1-2,11-14H2,(H,23,27)(H,25,26)
Instrument: Q Exactive Orbitrap (Thermo Scientific)
Instrument type: LC-ESI-QFT
Ms type: MS2
Ion mode: NEGATIVE
Ionization: ESI
Fragmentation mode: HCD
Collision energy: 90
Resolution: 17500
Column name: Acquity BEH C18 1.7um, 2.1x150mm (Waters)
Retention time: 16.686 min
Base peak: 408.1942
Precursor m/z: 465.1137
Precursor type: [M-H]-
Precursor intensity: 3223340.229492
m/z	relative intensity	assigned
57.9934	8	CNO2-
61.9706	605	NOS-
63.9624	226	O2S-
77.9655	323	NO2S-
78.035	123	C5H4N-
78.9734	174	HNO2S-
79.9812	663	H2NO2S-
80.9652	16	HO3S-
93.9604	88	NO3S-
95.0303	40	C6H4F-
106.0297	18	C6H4NO-
107.0377	999	C6H5NO-
108.0217	143	C6H4O2-
111.0252	202	C6H4FO-
160.0566	10	C10H7FN-
