Mass spectrum: FR140423; LC-ESI-QFT; MS2; CE: 90; R=17500; [M+H]+
Name: FR140423
Name: 3-(Difluoromethyl)-1-(4-methoxyphenyl)-5-(4-(methylsulfinyl)phenyl)pyrazole
Name: 3-(difluoromethyl)-1-(4-methoxyphenyl)-5-(4-methylsulfinylphenyl)pyrazole
Formula: C18H16F2N2O2S
Exact mass: 362.0901
SMILES: COC1=CC=C(C=C1)N1N=C(C=C1C1=CC=C(C=C1)S(C)=O)C(F)F
InChI: InChI=1S/C18H16F2N2O2S/c1-24-14-7-5-13(6-8-14)22-17(11-16(21-22)18(19)20)12-3-9-15(10-4-12)25(2)23/h3-11,18H,1-2H3
Instrument: Q Exactive Orbitrap (Thermo Scientific)
Instrument type: LC-ESI-QFT
Ms type: MS2
Ion mode: POSITIVE
Ionization: ESI
Fragmentation mode: HCD
Collision energy: 90
Resolution: 17500
Column name: Acquity BEH C18 1.7um, 2.1x150mm (Waters)
Retention time: 16.264 min
Base peak: 79.0211
Precursor m/z: 363.0973
Precursor type: [M+H]+
Precursor intensity: 4054003.125
m/z	relative intensity	assigned
51.023	19	C4H3+
53.0386	79	C4H5+
65.0385	69	C5H5+
76.0307	62	C6H4+
78.0464	87	C6H6+
79.0542	98	C6H7+
81.0334	34	C5H5O+
89.0386	172	C7H5+
91.0543	127	C7H7+
92.0257	66	C6H4O+
94.0414	20	C6H6O+
95.0492	284	C6H7O+
96.0028	28	C5H4S+
96.0443	61	C5H6NO+
97.0108	32	C5H5S+
102.0464	959	C8H6+
103.0416	139	C7H5N+
103.0542	41	C8H7+
104.0495	430	C7H6N+
105.0334	27	C7H5O+
105.0447	108	C6H5N2+
108.0569	44	C7H8O+
116.0494	107	C8H6N+
117.0573	72	C8H7N+
118.065	29	C8H8N+
119.0492	153	C8H7O+
121.0106	60	C7H5S+
122.0601	79	C7H8NO+
125.0599	36	C7H9O2+
127.0354	132	C7H5F2+
127.0415	37	C9H5N+
128.0496	59	C9H6N+
130.0651	15	C9H8N+
131.0367	86	C8H5NO+
132.0444	999	C8H6NO+
133.0106	57	C8H5S+
133.0449	19	C9H6F+
133.0523	24	C8H7NO+
134.036	136	C8H6O2+
134.0401	180	C8H5FN+
134.06	83	C8H8NO+
135.0262	32	C8H7S+
135.0479	267	C8H6FN+
135.0549	31	C7H7N2O+
136.043	50	C7H5FN2+
146.06	537	C9H8NO+
147.0138	112	C8H5NS+
147.0478	113	C9H6FN+
147.0679	225	C9H9NO+
148.0558	70	C9H7FN+
148.0628	17	C8H8N2O+
149.0296	69	C8H7NS+
149.071	18	C8H9N2O+
150.0135	49	C8H6OS+
151.0087	20	C7H5NOS+
151.0556	13	C9H8FO+
152.0505	42	C8H7FNO+
152.0621	156	C12H8+
153.0383	36	C8H5F2N+
153.0699	196	C12H9+
154.0463	145	C8H6F2N+
154.0658	61	C8H9FNO+
155.0303	41	C8H5F2O+
157.0461	22	C8H7F2O+
159.0554	25	C9H7N2O+
162.0371	152	C9H8NS+
163.0427	103	C9H6FNO+
164.0163	25	C8H6NOS+
164.0378	37	C8H5FN2O+
164.0502	37	C9H7FNO+
165.0699	77	C13H9+
166.0463	74	C9H6F2N+
166.0654	31	C12H8N+
167.0545	19	C9H7F2N+
167.0728	28	C12H9N+
173.0712	13	C10H9N2O+
178.0462	64	C10H6F2N+
179.0614	252	C9H8FN2O+
179.073	176	C13H9N+
180.0808	850	C13H10N+
181.0648	89	C13H9O+
182.041	106	C9H6F2NO+
183.0368	18	C8H5F2N2O+
184.0443	79	C8H6F2N2O+
184.0756	20	C12H10NO+
189.0698	23	C15H9+
190.0652	307	C14H8N+
191.0728	190	C14H9N+
192.0808	130	C14H10N+
193.0879	26	C14H11N+
195.0684	11	C13H9NO+
196.0567	30	C10H8F2NO+
199.0678	68	C9H9F2N2O+
204.0809	47	C15H10N+
205.0761	529	C14H9N2+
206.0839	467	C14H10N2+
208.0651	12	C10H9FN2O2+
208.0756	224	C14H10NO+
210.0185	14	C10H6F2NS+
210.0713	84	C14H9FN+
215.0605	56	C15H7N2+
216.0684	355	C15H8N2+
217.0761	300	C15H9N2+
218.0597	13	C15H8NO+
218.0842	79	C15H10N2+
221.0828	12	C15H11NO+
222.0374	22	C14H8NS+
222.0579	14	C11H12NO2S+
222.0913	47	C15H12NO+
223.0667	74	C14H8FN2+
223.0997	24	C15H13NO+
224.0337	20	C11H8F2NS+
224.0744	104	C11H14NO2S+
227.0405	67	C13H9NOS+
228.0479	51	C13H10NOS+
229.0763	203	C16H9N2+
230.0841	23	C16H10N2+
231.0918	95	C16H11N2+
233.0711	182	C15H9N2O+
234.0787	201	C15H10N2O+
235.0666	260	C15H8FN2+
235.0867	27	C15H11N2O+
236.0746	735	C15H9FN2+
237.0479	217	C14H9N2S+
237.0822	251	C15H10FN2+
238.0325	25	C14H8NOS+
239.0614	24	C14H8FN2O+
241.0741	16	C12H13F2NS+
242.0654	14	C14H8F2N2+
243.0729	57	C14H9F2N2+
244.0808	125	C14H10F2N2+
245.0707	90	C16H9N2O+
246.079	12	C16H10N2O+
247.0661	77	C13H13NO2S+
247.0863	34	C16H11N2O+
248.0402	90	C15H8N2S+
248.0745	96	C16H9FN2+
248.094	30	C16H12N2O+
249.082	139	C16H10FN2+
249.1017	52	C16H13N2O+
251.0632	42	C12H9F2N2O2+
252.0702	72	C12H10F2N2O2+
253.0768	37	C15H10FN2O+
254.0509	14	C14H10N2OS+
255.0371	38	C14H5F2N2O+
255.073	336	C15H9F2N2+
255.0894	44	C13H15F2NS+
256.0429	17	C17H5FN2+
256.0807	234	C15H10F2N2+
257.0885	136	C15H11F2N2+
259.0867	62	C17H11N2O+
260.0942	15	C17H12N2O+
263.0618	107	C16H8FN2O+
264.0693	147	C16H9FN2O+
265.0431	83	C15H9N2OS+
265.059	14	C13H11F2N2S+
265.0767	51	C16H10FN2O+
266.0687	51	C13H12F2N2S+
266.0852	65	C16H11FN2O+
267.0731	24	C16H9F2N2+
268.0471	124	C15H9FN2S+
268.0806	47	C16H10F2N2+
269.0881	17	C13H16FNO2S+
271.068	22	C15H9F2N2O+
272.0762	13	C15H10F2N2O+
275.046	16	C14H9F2N2S+
278.0846	13	C17H11FN2O+
279.0588	108	C16H11N2OS+
279.0929	169	C17H12FN2O+
280.0472	30	C13H10F2N2OS+
280.0663	61	C16H12N2OS+
280.0846	44	C14H14F2N2S+
281.0384	13	C15H9N2O2S+
281.0713	50	C16H10FN2O2+
281.1075	12	C17H14FN2O+
282.0625	105	C16H11FN2S+
282.0797	16	C16H11FN2O2+
284.0411	30	C15H9FN2OS+
284.0757	56	C16H10F2N2O+
285.083	42	C16H11F2N2O+
286.092	29	C16H12F2N2O+
287.045	102	C15H9F2N2S+
288.0528	272	C15H10F2N2S+
292.0845	16	C15H14F2N2S+
295.0335	50	C16H8FN2OS+
295.0897	13	C17H15N2OS+
296.041	19	C16H9FN2OS+
296.0589	25	C16H12N2O2S+
297.0489	23	C16H10FN2OS+
299.0437	24	C16H9F2N2S+
299.0992	24	C17H13F2N2O+
300.0519	14	C16H10F2N2S+
302.0686	15	C16H12F2N2S+
305.056	18	C15H11F2N2OS+
309.0489	21	C17H10FN2OS+
310.0568	194	C17H11FN2OS+
312.0366	49	C16H9FN2O2S+
315.0391	21	C16H9F2N2OS+
325.0807	18	C18H14FN2OS+
330.063	14	C17H12F2N2OS+
332.0423	23	C16H10F2N2O2S+
