Mass spectrum: Chloroxuron; LC-ESI-QFT; MS2; CE: 90; R=17500; [M+H]+
Name: Chloroxuron
Name: 3-[4-(4-chlorophenoxy)phenyl]-1,1-dimethylurea
Formula: C15H15ClN2O2
Exact mass: 290.0822
SMILES: CN(C)C(=O)NC1=CC=C(OC2=CC=C(Cl)C=C2)C=C1
InChI: InChI=1S/C15H15ClN2O2/c1-18(2)15(19)17-12-5-9-14(10-6-12)20-13-7-3-11(16)4-8-13/h3-10H,1-2H3,(H,17,19)
Instrument: Q Exactive Orbitrap (Thermo Scientific)
Instrument type: LC-ESI-QFT
Ms type: MS2
Ion mode: POSITIVE
Ionization: ESI
Fragmentation mode: HCD
Collision energy: 90
Resolution: 17500
Column name: Acquity BEH C18 1.7um, 2.1x150mm (Waters)
Retention time: 17.967 min
Base peak: 79.0211
Precursor m/z: 291.0895
Precursor type: [M+H]+
Precursor intensity: 22838821.5
m/z	relative intensity	assigned
56.0131	31	C2H2NO+
71.0604	1	C3H7N2+
72.0443	999	C3H6NO+
75.0229	13	C6H3+
79.0542	2	C6H7+
86.9997	5	C4H4Cl+
91.0542	1	C7H7+
94.0413	1	C6H6O+
98.9996	5	C5H4Cl+
103.0542	1	C8H7+
106.0652	9	C7H8N+
108.0445	2	C6H6NO+
110.9995	5	C6H4Cl+
111.0441	1	C6H7O2+
118.0651	15	C8H8N+
120.0808	1	C8H10N+
127.0543	2	C10H7+
128.062	34	C10H8+
129.0102	16	C6H6ClO+
132.0448	1	C5H9ClN2+
139.0057	31	C6H4ClN2+
145.0647	8	C10H9O+
149.0153	3	C9H6Cl+
154.0651	7	C11H8N+
155.0604	13	C10H7N2+
155.0723	3	C11H9N+
163.031	13	C10H8Cl+
168.0569	2	C12H8O+
175.0305	1	C11H8Cl+
183.0679	3	C12H9NO+
190.0419	3	C11H9ClN+
218.0367	2	C12H9ClNO+
