Mass spectrum: Crotamiton; LC-ESI-QFT; MS2; CE: 90; R=17500; [M+H]+
Name: Crotamiton
Name: N-ethyl-N-(2-methylphenyl)but-2-enamide
Formula: C13H17NO
Exact mass: 203.1310
SMILES: CCN(C(=O)C=CC)C1=CC=CC=C1C
InChI: InChI=1S/C13H17NO/c1-4-8-13(15)14(5-2)12-10-7-6-9-11(12)3/h4,6-10H,5H2,1-3H3
Instrument: Q Exactive Orbitrap (Thermo Scientific)
Instrument type: LC-ESI-QFT
Ms type: MS2
Ion mode: POSITIVE
Ionization: ESI
Fragmentation mode: HCD
Collision energy: 90
Resolution: 17500
Column name: Acquity BEH C18 1.7um, 2.1x150mm (Waters)
Retention time: 17.257 min
Base peak: 79.0211
Precursor m/z: 204.1383
Precursor type: [M+H]+
Precursor intensity: 30563709.25
m/z	relative intensity	assigned
53.0022	57	C3HO+
53.9975	8	C2NO+
55.0543	1	C4H7+
65.0385	26	C5H5+
67.0541	1	C5H7+
68.0495	145	C4H6N+
69.0334	999	C4H5O+
77.0385	1	C6H5+
79.0542	21	C6H7+
91.0542	215	C7H7+
92.0621	1	C7H8+
93.0573	82	C6H7N+
93.0699	4	C7H9+
95.0491	6	C6H7O+
96.0809	1	C6H10N+
103.0541	2	C8H7+
104.0495	2	C7H6N+
104.0622	1	C8H8+
105.0336	1	C7H5O+
105.0699	7	C8H9+
106.0651	266	C7H8N+
107.0729	84	C7H9N+
108.0807	84	C7H10N+
109.0648	13	C7H9O+
115.0542	5	C9H7+
116.0495	10	C8H6N+
117.0572	10	C8H7N+
117.0699	5	C9H9+
118.0651	11	C8H8N+
119.0365	3	C7H5NO+
119.073	9	C8H9N+
119.0857	1	C9H11+
120.0808	8	C8H10N+
121.0886	76	C8H11N+
129.0698	1	C10H9+
130.0651	9	C9H8N+
131.0728	1	C9H9N+
131.0857	1	C10H11+
132.0444	8	C8H6NO+
132.0808	4	C9H10N+
133.0887	1	C9H11N+
134.06	31	C8H8NO+
134.0964	43	C9H12N+
136.1121	36	C9H14N+
143.0729	13	C10H9N+
146.0599	6	C9H8NO+
146.0965	2	C10H12N+
156.0809	3	C11H10N+
158.0963	7	C11H12N+
160.0758	3	C10H10NO+
161.0834	1	C10H11NO+
174.0915	3	C11H12NO+
