Mass spectrum: N-Phenyldiethanolamine; LC-ESI-QFT; MS2; CE: 45; R=17500; [M+H]+
Name: N-Phenyldiethanolamine
Name: 2-[N-(2-hydroxyethyl)anilino]ethanol
Formula: C10H15NO2
Exact mass: 181.1103
SMILES: OCCN(CCO)C1=CC=CC=C1
InChI: InChI=1S/C10H15NO2/c12-8-6-11(7-9-13)10-4-2-1-3-5-10/h1-5,12-13H,6-9H2
Instrument: Q Exactive Orbitrap (Thermo Scientific)
Instrument type: LC-ESI-QFT
Ms type: MS2
Ion mode: POSITIVE
Ionization: ESI
Fragmentation mode: HCD
Collision energy: 45
Resolution: 17500
Column name: Acquity BEH C18 1.7um, 2.1x150mm (Waters)
Retention time: 6.737 min
Base peak: 79.0212
Precursor m/z: 182.1176
Precursor type: [M+H]+
Precursor intensity: 5207288.3125
m/z	relative intensity	assigned
74.0963	1	C4H12N+
77.0385	3	C6H5+
79.0542	6	C6H7+
91.0541	5	C7H7+
93.0572	4	C6H7N+
93.0699	4	C7H9+
94.0652	24	C6H8N+
95.049	2	C6H7O+
103.0542	9	C8H7+
104.0494	22	C7H6N+
105.0698	8	C8H9+
106.0651	144	C7H8N+
117.0573	8	C8H7N+
118.0652	94	C8H8N+
119.0731	192	C8H9N+
120.0808	999	C8H10N+
121.0886	7	C8H11N+
129.0698	6	C10H9+
130.0652	7	C9H8N+
131.073	38	C9H9N+
136.0761	1	C8H10NO+
137.0836	100	C8H11NO+
138.0914	102	C8H12NO+
144.0807	7	C10H10N+
146.0965	191	C10H12N+
164.1071	474	C10H14NO+
182.1176	411	C10H16NO2+
