Mass spectrum: Benalaxyl; LC-ESI-QFT; MS2; CE: 45; R=17500; [M+H]+
Name: Benalaxyl
Name: methyl 2-(2,6-dimethyl-N-(2-phenylacetyl)anilino)propanoate
Formula: C20H23NO3
Exact mass: 325.1678
SMILES: COC(=O)C(C)N(C(=O)CC1=CC=CC=C1)C1=C(C)C=CC=C1C
InChI: InChI=1S/C20H23NO3/c1-14-9-8-10-15(2)19(14)21(16(3)20(23)24-4)18(22)13-17-11-6-5-7-12-17/h5-12,16H,13H2,1-4H3
Instrument: Q Exactive Orbitrap (Thermo Scientific)
Instrument type: LC-ESI-QFT
Ms type: MS2
Ion mode: POSITIVE
Ionization: ESI
Fragmentation mode: HCD
Collision energy: 45
Resolution: 17500
Column name: Acquity BEH C18 1.7um, 2.1x150mm (Waters)
Retention time: 18.580 min
Base peak: 79.0211
Precursor m/z: 326.1751
Precursor type: [M+H]+
Precursor intensity: 50780728.75
m/z	relative intensity	assigned
57.0698	15	C4H9+
58.0651	7	C3H8N+
65.0384	5	C5H5+
71.0854	7	C5H11+
85.101	4	C6H13+
91.0542	662	C7H7+
105.0698	1	C8H9+
106.0651	2	C7H8N+
118.0648	1	C8H8N+
120.0807	3	C8H10N+
121.0886	387	C8H11N+
122.0963	25	C8H12N+
131.0853	1	C10H11+
133.0886	2	C9H11N+
148.112	999	C10H14N+
208.1331	64	C12H18NO2+
211.1351	1	C15H17N+
