Mass spectrum: 2-[4-(Diethylamino)-2-hydroxybenzoyl]benzoic acid; LC-ESI-QFT; MS2; CE: 45; R=17500; [M-H]-
Name: 2-[4-(Diethylamino)-2-hydroxybenzoyl]benzoic acid
Name: 2-(4-(Diethylamino)-2-hydroxybenzoyl)benzoic acid
Formula: C18H19NO4
Exact mass: 313.1314
SMILES: CCN(CC)C1=CC(O)=C(C=C1)C(=O)C1=C(C=CC=C1)C(O)=O
InChI: InChI=1S/C18H19NO4/c1-3-19(4-2)12-9-10-15(16(20)11-12)17(21)13-7-5-6-8-14(13)18(22)23/h5-11,20H,3-4H2,1-2H3,(H,22,23)
Instrument: Q Exactive Orbitrap (Thermo Scientific)
Instrument type: LC-ESI-QFT
Ms type: MS2
Ion mode: NEGATIVE
Ionization: ESI
Fragmentation mode: HCD
Collision energy: 45
Resolution: 17500
Column name: Acquity BEH C18 1.7um, 2.1x150mm (Waters)
Retention time: 17.529 min
Base peak: 307.0977
Precursor m/z: 312.1241
Precursor type: [M-H]-
Precursor intensity: 23001530.53906
m/z	relative intensity	assigned
120.0454	22	C7H6NO-
121.0294	56	C7H5O2-
134.0613	1	C8H8NO-
135.0689	44	C8H9NO-
136.0768	6	C8H10NO-
164.108	148	C10H14NO-
169.0659	7	C12H9O-
183.0122	1	C14HN-
184.0152	1	C11H4O3-
184.0529	2	C12H8O2-
195.0454	1	C13H7O2-
196.0765	4	C13H10NO-
197.061	4	C13H9O2-
197.0972	1	C14H13O-
210.0562	5	C13H8NO2-
211.0633	2	C13H9NO2-
212.0721	4	C13H10NO2-
221.0846	1	C15H11NO-
222.0558	1	C14H8NO2-
223.065	1	C14H9NO2-
223.0763	8	C15H11O2-
224.0716	999	C14H10NO2-
225.0796	1	C14H11NO2-
225.092	2	C15H13O2-
238.0513	7	C14H8NO3-
238.0872	51	C15H12NO2-
239.0951	86	C15H13NO2-
240.1029	76	C15H14NO2-
250.1238	9	C17H16NO-
252.0664	1	C15H10NO3-
252.1025	1	C16H14NO2-
256.0741	2	C15H12O4-
266.1192	1	C17H16NO2-
268.1342	497	C17H18NO2-
