Mass spectrum: Pyrimethamine; LC-ESI-QFT; MS2; CE: 45; R=17500; [M+H]+
Name: Pyrimethamine
Name: 5-(4-chlorophenyl)-6-ethylpyrimidine-2,4-diamine
Formula: C12H13ClN4
Exact mass: 248.0829
SMILES: CCC1=NC(N)=NC(N)=C1C1=CC=C(Cl)C=C1
InChI: InChI=1S/C12H13ClN4/c1-2-9-10(11(14)17-12(15)16-9)7-3-5-8(13)6-4-7/h3-6H,2H2,1H3,(H4,14,15,16,17)
Instrument: Q Exactive Orbitrap (Thermo Scientific)
Instrument type: LC-ESI-QFT
Ms type: MS2
Ion mode: POSITIVE
Ionization: ESI
Fragmentation mode: HCD
Collision energy: 45
Resolution: 17500
Column name: Acquity BEH C18 1.7um, 2.1x150mm (Waters)
Retention time: 13.596 min
Base peak: 79.0211
Precursor m/z: 249.0902
Precursor type: [M+H]+
Precursor intensity: 15110731.75
m/z	relative intensity	assigned
56.0495	1	C3H6N+
60.0556	1	CH6N3+
152.0261	6	C8H7ClN+
163.0307	4	C10H8Cl+
177.0213	89	C9H6ClN2+
190.042	2	C11H9ClN+
196.087	1	C12H10N3+
197.0949	2	C12H11N3+
207.0683	13	C11H12ClN2+
213.1135	5	C12H13N4+
232.0634	8	C12H11ClN3+
233.0588	81	C11H10ClN4+
234.0666	22	C11H11ClN4+
249.09	999	C12H14ClN4+
