Mass spectrum: 2-Amino-6-methoxybenzothiazole; LC-ESI-QFT; MS2; CE: 60; R=17500; [M+H]+
Name: 2-Amino-6-methoxybenzothiazole
Name: 6-methoxy-1,3-benzothiazol-2-amine
Formula: C8H8N2OS
Exact mass: 180.0357
SMILES: COC1=CC2=C(C=C1)N=C(N)S2
InChI: InChI=1S/C8H8N2OS/c1-11-5-2-3-6-7(4-5)12-8(9)10-6/h2-4H,1H3,(H2,9,10)
Instrument: Q Exactive Orbitrap (Thermo Scientific)
Instrument type: LC-ESI-QFT
Ms type: MS2
Ion mode: POSITIVE
Ionization: ESI
Fragmentation mode: HCD
Collision energy: 60
Resolution: 17500
Column name: Acquity BEH C18 1.7um, 2.1x150mm (Waters)
Retention time: 11.161 min
Base peak: 79.0212
Precursor m/z: 181.043
Precursor type: [M+H]+
Precursor intensity: 22268498.46875
m/z	relative intensity	assigned
59.9904	1	CH2NS+
67.0416	1	C4H5N+
69.0446	2	C3H5N2+
81.0447	1	C4H5N2+
81.0575	1	C5H7N+
93.0573	2	C6H7N+
94.0652	3	C6H8N+
95.0492	6	C6H7O+
96.0028	3	C5H4S+
107.0366	2	C6H5NO+
108.0444	1	C6H6NO+
108.0556	3	C7H8O+
110.06	2	C6H8NO+
111.0138	5	C5H5NS+
111.0263	2	C6H7S+
122.0059	3	C6H4NS+
122.0601	11	C7H8NO+
123.9978	6	C6H4OS+
133.0395	1	C7H5N2O+
138.0246	152	C6H6N2S+
139.0086	2	C6H5NOS+
139.0212	28	C7H7OS+
148.0631	9	C8H8N2O+
149.0168	6	C7H5N2S+
150.0247	42	C7H6N2S+
153.0481	1	C7H9N2S+
154.0322	21	C7H8NOS+
166.0195	999	C7H6N2OS+
180.0354	1	C8H8N2OS+
181.043	624	C8H9N2OS+
