Mass spectrum: Etoxazole; LC-ESI-QFT; MS2; CE: 30; R=17500; [M+H]+
Name: Etoxazole
Name: 4-(4-tert-butyl-2-ethoxyphenyl)-2-(2,6-difluorophenyl)-4,5-dihydro-1,3-oxazole
Formula: C21H23F2NO2
Exact mass: 359.1697
SMILES: CCOC1=C(C=CC(=C1)C(C)(C)C)C1COC(=N1)C1=C(F)C=CC=C1F
InChI: InChI=1S/C21H23F2NO2/c1-5-25-18-11-13(21(2,3)4)9-10-14(18)17-12-26-20(24-17)19-15(22)7-6-8-16(19)23/h6-11,17H,5,12H2,1-4H3
Instrument: Q Exactive Orbitrap (Thermo Scientific)
Instrument type: LC-ESI-QFT
Ms type: MS2
Ion mode: POSITIVE
Ionization: ESI
Fragmentation mode: HCD
Collision energy: 30
Resolution: 17500
Column name: Acquity BEH C18 1.7um, 2.1x150mm (Waters)
Retention time: 19.911 min
Base peak: 79.0212
Precursor m/z: 360.177
Precursor type: [M+H]+
Precursor intensity: 132555391.7969
m/z	relative intensity	assigned
56.0494	1	C3H6N+
57.0699	208	C4H9+
91.0541	6	C7H7+
95.0489	2	C6H7O+
107.0491	3	C7H7O+
113.0196	1	C6H3F2+
119.049	9	C8H7O+
119.0855	4	C9H11+
121.0647	60	C8H9O+
137.0597	3	C8H9O2+
140.0306	1	C7H4F2N+
141.0145	999	C7H3F2O+
145.0648	1	C10H9O+
147.0803	50	C10H11O+
149.0597	1	C9H9O2+
158.0412	97	C7H6F2NO+
159.0802	1	C11H11O+
162.055	1	C9H8NO2+
163.1117	7	C11H15O+
165.0909	36	C10H13O2+
174.1041	1	C12H14O+
175.1117	19	C12H15O+
176.1195	1	C12H16O+
177.1273	304	C12H17O+
182.041	10	C9H6F2NO+
184.0568	5	C9H8F2NO+
186.0724	2	C9H10F2NO+
190.0857	3	C11H12NO2+
197.0761	1	C14H10F+
198.0728	3	C10H10F2NO+
203.143	68	C14H19O+
204.138	1	C13H18NO+
205.1222	1	C13H17O2+
217.0819	3	C14H11F2+
218.1176	3	C13H16NO2+
219.1616	22	C14H21NO+
233.0769	20	C14H11F2O+
258.0723	5	C15H10F2NO+
261.0724	19	C15H11F2O2+
261.1083	59	C16H15F2O+
273.1448	7	C18H19F2+
276.0829	1	C15H12F2NO2+
286.1037	13	C17H14F2NO+
289.1395	6	C18H19F2O+
304.1142	350	C17H16F2NO2+
316.1505	2	C19H20F2NO+
317.1709	82	C20H23F2O+
360.1767	308	C21H24F2NO2+
