Mass spectrum: Parinol; LC-ESI-QFT; MS2; CE: 75; R=17500; [M+H]+
Name: Parinol
Name: bis(4-chlorophenyl)-pyridin-3-ylmethanol
Formula: C18H13Cl2NO
Exact mass: 329.0374
SMILES: OC(C1=CC=C(Cl)C=C1)(C1=CC=C(Cl)C=C1)C1=CC=CN=C1
InChI: InChI=1S/C18H13Cl2NO/c19-16-7-3-13(4-8-16)18(22,15-2-1-11-21-12-15)14-5-9-17(20)10-6-14/h1-12,22H
Instrument: Q Exactive Orbitrap (Thermo Scientific)
Instrument type: LC-ESI-QFT
Ms type: MS2
Ion mode: POSITIVE
Ionization: ESI
Fragmentation mode: HCD
Collision energy: 75
Resolution: 17500
Column name: Acquity BEH C18 1.7um, 2.1x150mm (Waters)
Retention time: 18.413 min
Base peak: 79.0211
Precursor m/z: 330.0447
Precursor type: [M+H]+
Precursor intensity: 19741428.5
m/z	relative intensity	assigned
53.0386	101	C4H5+
56.0495	3	C3H6N+
75.0229	1	C6H3+
78.0338	7	C5H4N+
79.0416	3	C5H5N+
80.0494	999	C5H6N+
86.9996	5	C4H4Cl+
89.0387	1	C7H5+
96.0444	62	C5H6NO+
110.0599	1	C6H8NO+
110.9995	1	C6H4Cl+
115.0543	2	C9H7+
116.062	1	C9H8+
125.0152	15	C7H6Cl+
128.0621	1	C10H8+
129.0101	13	C6H6ClO+
138.0105	10	C7H5ClN+
138.9945	180	C7H4ClO+
139.0049	34	C9HNO+
145.0646	1	C10H9O+
149.0152	12	C9H6Cl+
154.0651	6	C11H8N+
155.0605	1	C9H12Cl+
155.0729	3	C11H9N+
165.0698	9	C13H9+
166.065	7	C12H8N+
167.0729	3	C12H9N+
173.0153	1	C11H6Cl+
175.0308	3	C11H8Cl+
182.0601	8	C12H8NO+
183.0678	7	C12H9NO+
189.0698	38	C15H9+
190.0419	3	C11H9ClN+
191.0855	3	C15H11+
199.0305	2	C13H8Cl+
200.0262	4	C12H7ClN+
200.0386	1	C13H9Cl+
201.034	7	C12H8ClN+
202.042	1	C12H9ClN+
202.0776	9	C16H10+
203.0853	1	C16H11+
204.0935	1	C16H12+
212.0387	2	C14H9Cl+
213.0699	1	C17H9+
215.0855	32	C17H11+
216.0932	4	C17H12+
217.029	1	C12H8ClNO+
217.0648	8	C16H9O+
217.1011	8	C17H13+
218.0366	54	C12H9ClNO+
219.0445	1	C12H10ClNO+
223.0308	6	C15H8Cl+
224.0389	2	C15H9Cl+
230.0966	1	C17H12N+
232.9919	3	C13H7Cl2+
235.0076	1	C13H9Cl2+
240.0808	4	C18H10N+
241.0885	43	C18H11N+
242.0963	33	C18H12N+
243.0812	2	C15H14ClN+
243.1039	4	C18H13N+
249.0464	6	C17H10Cl+
250.0187	2	C13H10Cl2N+
252.0338	7	C16H9ClO+
259.0076	9	C15H9Cl2+
264.0573	1	C17H11ClN+
266.073	1	C17H13ClN+
275.0025	1	C15H9Cl2O+
275.0497	2	C18H10ClN+
276.0575	23	C18H11ClN+
277.0652	50	C18H12ClN+
278.0732	6	C18H13ClN+
294.0681	1	C18H13ClNO+
311.0256	2	C18H11Cl2N+
312.0341	10	C18H12Cl2N+
313.0418	4	C18H13Cl2N+
