Mass spectrum: Bispyribac; LC-ESI-QFT; MS2; CE: 45; R=17500; [M+H]+
Name: Bispyribac
Formula: C19H18N4O8
Exact mass: 430.1125
SMILES: COC1=CC(OC)=NC(OC2=CC=CC(OC3=NC(OC)=CC(OC)=N3)=C2C(O)=O)=N1
InChI: InChI=1S/C19H18N4O8/c1-26-12-8-13(27-2)21-18(20-12)30-10-6-5-7-11(16(10)17(24)25)31-19-22-14(28-3)9-15(23-19)29-4/h5-9H,1-4H3,(H,24,25)
Instrument: Q Exactive Orbitrap (Thermo Scientific)
Instrument type: LC-ESI-QFT
Ms type: MS2
Ion mode: POSITIVE
Ionization: ESI
Fragmentation mode: HCD
Collision energy: 45
Resolution: 17500
Column name: Acquity BEH C18 1.7um, 2.1x150mm (Waters)
Retention time: 17.331 min
Base peak: 79.0211
Precursor m/z: 431.1197
Precursor type: [M+H]+
Precursor intensity: 10429379.25
m/z	relative intensity	assigned
55.0178	1	C3H3O+
56.0132	1	C2H2NO+
58.0286	1	C2H4NO+
63.0229	3	C5H3+
68.013	2	C3H2NO+
68.9971	6	C3HO2+
69.9923	17	C2NO2+
71.0603	23	C3H7N2+
72.0443	66	C3H6NO+
82.0287	19	C4H4NO+
83.0127	15	C4H3O2+
83.0239	22	C3H3N2O+
90.0338	1	C6H4N+
91.0178	22	C6H3O+
95.049	2	C6H7O+
95.0601	2	C5H7N2+
96.0444	3	C5H6NO+
100.0393	6	C4H6NO2+
107.024	77	C5H3N2O+
108.0443	6	C6H6NO+
109.0395	2	C5H5N2O+
112.0394	1	C5H6NO2+
114.055	11	C5H8NO2+
116.0342	39	C4H6NO3+
116.0494	2	C8H6N+
118.0648	1	C8H8N+
119.0128	562	C7H3O2+
125.0345	12	C5H5N2O2+
126.0186	30	C5H4NO3+
126.0549	8	C6H8NO2+
128.049	2	C9H6N+
130.0651	2	C9H8N+
132.0446	9	C8H6NO+
134.0598	2	C8H8NO+
136.0394	5	C7H6NO2+
137.0234	44	C7H5O3+
139.0502	373	C6H7N2O2+
140.0342	74	C6H6NO3+
143.0604	4	C9H7N2+
144.0444	3	C9H6NO+
145.0526	1	C9H7NO+
146.0599	12	C9H8NO+
147.0553	3	C8H7N2O+
148.0394	1	C8H6NO2+
148.0632	2	C8H8N2O+
150.0553	6	C8H8NO2+
151.039	3	C8H7O3+
153.0657	6	C7H9N2O2+
155.0603	5	C10H7N2+
157.0608	154	C6H9N2O3+
158.0601	5	C10H8NO+
159.0319	2	C9H5NO2+
159.0551	4	C9H7N2O+
160.0273	1	C8H4N2O2+
160.0757	2	C10H10NO+
161.0711	2	C9H9N2O+
162.0186	4	C8H4NO3+
162.0551	5	C9H8NO2+
169.0398	7	C10H5N2O+
169.0759	2	C11H9N2+
171.0554	20	C10H7N2O+
171.0764	104	C7H11N2O3+
172.0393	3	C10H6NO2+
172.0476	2	C6H8N2O4+
172.0633	1	C10H8N2O+
173.047	3	C10H7NO2+
174.0426	2	C9H6N2O2+
174.0552	5	C10H8NO2+
175.0502	14	C9H7N2O2+
176.0341	15	C9H6NO3+
176.0709	2	C10H10NO2+
177.044	1	C9H7NO3+
180.0556	1	C11H6N3+
183.0556	1	C11H7N2O+
184.027	3	C10H4N2O2+
185.0348	2	C10H5N2O2+
185.071	11	C11H9N2O+
185.0921	4	C8H13N2O3+
186.0186	4	C10H4NO3+
186.0552	7	C11H8NO2+
187.05	6	C10H7N2O2+
188.0581	12	C10H8N2O2+
188.0704	3	C11H10NO2+
189.0421	2	C10H7NO3+
189.0659	4	C10H9N2O2+
190.05	3	C10H8NO3+
195.0551	1	C12H7N2O+
196.0507	1	C11H6N3O+
196.0632	1	C12H8N2O+
197.0347	2	C11H5N2O2+
197.0712	3	C12H9N2O+
198.0425	5	C11H6N2O2+
198.0665	2	C11H8N3O+
199.0502	41	C11H7N2O2+
200.034	4	C11H6NO3+
200.0582	2	C11H8N2O2+
200.0817	1	C11H10N3O+
201.0659	7	C11H9N2O2+
202.0376	1	C10H6N2O3+
203.0449	1	C10H7N2O3+
203.0814	2	C11H11N2O2+
204.0656	2	C11H10NO3+
207.0767	13	C10H11N2O3+
209.0583	2	C12H7N3O+
211.0505	3	C12H7N2O2+
212.082	5	C12H10N3O+
213.0297	1	C11H5N2O3+
213.0653	7	C12H9N2O2+
215.045	57	C11H7N2O3+
216.0529	11	C11H8N2O3+
217.0609	11	C11H9N2O3+
218.0448	9	C11H8NO4+
219.04	13	C10H7N2O4+
224.0456	1	C12H6N3O2+
224.0581	1	C13H8N2O2+
224.0699	2	C12H8N4O+
224.0815	3	C13H10N3O+
225.0656	4	C13H9N2O2+
226.0609	11	C12H8N3O2+
227.045	3	C12H7N2O3+
228.0763	3	C12H10N3O2+
229.0607	12	C12H9N2O3+
230.0684	2	C12H10N2O3+
230.0926	4	C12H12N3O2+
231.0764	14	C12H11N2O3+
232.0481	7	C11H8N2O4+
232.0603	3	C12H10NO4+
237.0532	3	C13H7N3O2+
238.0612	3	C13H8N3O2+
239.0456	3	C13H7N2O3+
239.0688	3	C13H9N3O2+
240.0401	2	C12H6N3O3+
240.0529	3	C13H8N2O3+
240.0771	3	C13H10N3O2+
241.048	7	C12H7N3O3+
241.0605	1	C13H9N2O3+
242.0322	4	C12H6N2O4+
242.0553	6	C12H8N3O3+
243.04	533	C12H7N2O4+
244.1083	2	C13H14N3O2+
245.0561	3	C12H9N2O4+
245.092	12	C13H13N2O3+
247.0726	1	C12H11N2O4+
249.0874	3	C12H13N2O4+
250.0609	6	C14H8N3O2+
251.0565	2	C13H7N4O2+
251.0688	3	C14H9N3O2+
252.0532	4	C14H8N2O3+
252.0766	15	C14H10N3O2+
253.0482	2	C13H7N3O3+
253.0609	10	C14H9N2O3+
254.056	2	C13H8N3O3+
255.0769	2	C14H11N2O3+
256.0482	1	C13H8N2O4+
256.0715	17	C13H10N3O3+
257.0557	43	C13H9N2O4+
259.0712	2	C13H11N2O4+
260.0427	8	C12H8N2O5+
261.0506	352	C12H9N2O5+
263.0559	2	C14H7N4O2+
263.1025	11	C13H15N2O4+
264.04	2	C14H6N3O3+
264.0639	9	C14H8N4O2+
265.0481	13	C14H7N3O3+
265.0722	3	C14H9N4O2+
266.0563	5	C14H8N3O3+
267.0398	16	C14H7N2O4+
268.0352	7	C13H6N3O4+
268.0717	8	C14H10N3O3+
269.0797	5	C14H11N3O3+
272.0665	3	C13H10N3O4+
274.0818	9	C13H12N3O4+
275.0662	999	C13H11N2O5+
278.0572	1	C17H10O4+
280.0717	60	C15H10N3O3+
281.0554	11	C15H9N2O4+
283.059	3	C14H9N3O4+
284.0435	1	C14H8N2O5+
284.0665	2	C14H10N3O4+
285.0504	14	C14H9N2O5+
288.098	26	C14H14N3O4+
289.0818	116	C14H13N2O5+
293.0667	2	C15H9N4O3+
294.0515	9	C15H8N3O4+
296.0668	10	C15H10N3O4+
298.0831	3	C17H14O5+
300.0615	18	C14H10N3O5+
300.0965	3	C12H16N2O7+
307.0943	30	C17H13N3O3+
309.0381	4	C15H7N3O5+
312.098	48	C16H14N3O4+
314.0775	12	C15H12N3O5+
321.0622	3	C16H9N4O4+
321.1086	2	C15H17N2O6+
322.0693	15	C16H10N4O4+
323.0775	9	C16H11N4O4+
324.0615	122	C16H10N3O5+
330.1074	2	C16H16N3O5+
337.0928	17	C17H13N4O4+
342.0727	9	C18H14O7+
342.1084	18	C17H16N3O5+
343.1165	4	C17H17N3O5+
345.1201	3	C18H19NO6+
355.1028	2	C17H15N4O5+
356.0877	5	C17H14N3O6+
366.0596	22	C17H10N4O6+
369.1194	3	C18H17N4O5+
370.1032	41	C18H16N3O6+
381.0831	57	C18H13N4O6+
413.1096	27	C19H17N4O7+
