Mass spectrum: Azoxystrobin; LC-ESI-QFT; MS2; CE: 90; R=17500; [M+H]+
Name: Azoxystrobin
Formula: C22H17N3O5
Exact mass: 403.1168
SMILES: CO\C=C(\C(=O)OC)C1=CC=CC=C1OC1=CC(OC2=CC=CC=C2C#N)=NC=N1
InChI: InChI=1S/C22H17N3O5/c1-27-13-17(22(26)28-2)16-8-4-6-10-19(16)30-21-11-20(24-14-25-21)29-18-9-5-3-7-15(18)12-23/h3-11,13-14H,1-2H3/b17-13+
Instrument: Q Exactive Orbitrap (Thermo Scientific)
Instrument type: LC-ESI-QFT
Ms type: MS2
Ion mode: POSITIVE
Ionization: ESI
Fragmentation mode: HCD
Collision energy: 90
Resolution: 17500
Column name: Acquity BEH C18 1.7um, 2.1x150mm (Waters)
Retention time: 16.922 min
Base peak: 79.0212
Precursor m/z: 404.1241
Precursor type: [M+H]+
Precursor intensity: 23585070
m/z	relative intensity	assigned
50.0151	2	C4H2+
51.023	1	C4H3+
53.0022	17	C3HO+
53.0386	29	C4H5+
54.0465	2	C4H6+
55.0178	14	C3H3O+
63.0229	20	C5H3+
64.0308	6	C5H4+
65.0385	38	C5H5+
66.0464	17	C5H6+
68.013	10	C3H2NO+
68.9971	47	C3HO2+
69.9924	5	C2NO2+
75.0229	47	C6H3+
76.0181	8	C5H2N+
77.0385	24	C6H5+
78.0338	17	C5H4N+
78.0464	25	C6H6+
79.0178	3	C5H3O+
79.0417	9	C5H5N+
79.0542	19	C6H7+
80.013	3	C4H2NO+
80.0494	3	C5H6N+
82.0287	7	C4H4NO+
89.0386	245	C7H5+
90.0338	4	C6H4N+
90.0464	13	C7H6+
91.0417	45	C6H5N+
91.0543	43	C7H7+
92.0257	15	C6H4O+
92.0369	3	C5H4N2+
92.0495	22	C6H6N+
93.0336	3	C6H5O+
94.0413	8	C6H6O+
95.0492	86	C6H7O+
101.0386	11	C8H5+
102.0338	62	C7H4N+
102.0464	26	C8H6+
103.0417	32	C7H5N+
103.0542	22	C8H7+
104.0495	194	C7H6N+
105.0335	58	C7H5O+
105.0447	33	C6H5N2+
105.0573	14	C7H7N+
106.0288	3	C6H4NO+
106.0413	3	C7H6O+
106.0651	8	C7H8N+
107.0492	12	C7H7O+
108.0443	3	C6H6NO+
111.0441	2	C6H7O2+
114.0339	98	C8H4N+
115.0417	28	C8H5N+
115.0542	14	C9H7+
116.0495	201	C8H6N+
117.0335	40	C8H5O+
117.0573	28	C8H7N+
118.0287	10	C7H4NO+
118.0414	24	C8H6O+
118.0527	1	C7H6N2+
118.065	3	C8H8N+
119.0366	42	C7H5NO+
119.0492	26	C8H7O+
120.0444	96	C7H6NO+
121.0283	2	C7H5O2+
121.0524	2	C7H7NO+
121.0647	5	C8H9O+
124.0518	7	C7H8O2+
127.0417	83	C9H5N+
128.0495	108	C9H6N+
129.0335	23	C9H5O+
129.0447	169	C8H5N2+
130.0288	101	C8H4NO+
130.04	180	C7H4N3+
131.0366	5	C8H5NO+
131.0492	10	C9H7O+
131.0604	9	C8H7N2+
132.0444	30	C8H6NO+
133.0284	29	C8H5O2+
133.0522	65	C8H7NO+
134.0363	19	C8H6O2+
134.06	84	C8H8NO+
140.0496	12	C10H6N+
141.0447	17	C9H5N2+
142.0526	12	C9H6N2+
142.0646	1	C10H8N+
143.0366	30	C9H5NO+
143.0604	29	C9H7N2+
144.0444	227	C9H6NO+
145.0285	16	C9H5O2+
145.0522	40	C9H7NO+
146.0236	35	C8H4NO2+
146.0601	29	C9H8NO+
147.0438	2	C9H7O2+
147.0555	9	C8H7N2O+
148.0395	2	C8H6NO2+
148.0756	6	C9H10NO+
149.0471	2	C8H7NO2+
150.0547	8	C8H8NO2+
153.0447	6	C10H5N2+
154.0288	9	C10H4NO+
154.0401	3	C9H4N3+
154.0525	11	C10H6N2+
155.0367	8	C10H5NO+
155.0603	46	C10H7N2+
156.0444	666	C10H6NO+
157.0284	4	C10H5O2+
157.0397	3	C9H5N2O+
157.0523	13	C10H7NO+
158.0361	3	C10H6O2+
158.06	1	C10H8NO+
159.0317	7	C9H5NO2+
159.0552	12	C9H7N2O+
160.0394	5	C9H6NO2+
160.0757	1	C10H10NO+
161.0472	3	C9H7NO2+
161.071	6	C9H9N2O+
162.0311	7	C9H6O3+
162.0549	14	C9H8NO2+
169.0397	10	C10H5N2O+
170.0238	2	C10H4NO2+
170.0476	28	C10H6N2O+
170.0598	1	C11H8NO+
171.0553	123	C10H7N2O+
172.0392	999	C10H6NO2+
173.0469	3	C10H7NO2+
174.0177	1	C9H4NO3+
174.0546	2	C10H8NO2+
176.0705	2	C10H10NO2+
181.0396	29	C11H5N2O+
181.0635	2	C11H7N3+
182.0475	33	C11H6N2O+
182.0712	2	C11H8N3+
183.0554	34	C11H7N2O+
184.0393	6	C11H6NO2+
185.0238	1	C11H5O3+
186.0423	2	C10H6N2O2+
186.055	5	C11H8NO2+
187.0501	4	C10H7N2O2+
188.0704	6	C11H10NO2+
189.0699	2	C15H9+
190.0498	2	C10H8NO3+
190.0652	20	C14H8N+
191.0729	2	C14H9N+
197.0347	5	C11H5N2O2+
199.0502	38	C11H7N2O2+
200.0342	59	C11H6NO3+
201.0409	1	C11H7NO3+
203.0727	4	C15H9N+
204.0803	8	C15H10N+
205.0647	4	C15H9O+
205.076	12	C14H9N2+
206.0602	2	C14H8NO+
210.0423	6	C12H6N2O2+
211.0504	6	C12H7N2O2+
214.0372	3	C11H6N2O3+
216.0682	3	C15H8N2+
216.0809	2	C16H10N+
217.0763	14	C15H9N2+
218.0841	9	C15H10N2+
219.0673	4	C15H9NO+
219.0917	3	C15H11N2+
220.0757	5	C15H10NO+
221.0704	2	C14H9N2O+
227.045	5	C12H7N2O3+
228.0672	2	C16H8N2+
229.076	10	C16H9N2+
230.0601	2	C16H8NO+
231.0916	3	C16H11N2+
232.0626	1	C15H8N2O+
232.0755	4	C16H10NO+
232.0871	1	C15H10N3+
233.0708	9	C15H9N2O+
242.0323	10	C12H6N2O4+
243.0913	1	C17H11N2+
244.0754	2	C17H10NO+
244.0871	17	C16H10N3+
245.0708	42	C16H9N2O+
246.0784	3	C16H10N2O+
247.0863	3	C16H11N2O+
254.0706	2	C17H8N3+
256.0871	2	C17H10N3+
257.0709	4	C17H9N2O+
258.0789	3	C17H10N2O+
259.0856	3	C17H11N2O+
260.0696	2	C17H10NO2+
271.0865	2	C18H11N2O+
272.0819	45	C17H10N3O+
273.0659	12	C17H9N2O2+
274.0734	2	C17H10N2O2+
275.0815	4	C17H11N2O2+
283.0746	1	C18H9N3O+
300.0766	20	C18H10N3O2+
328.072	18	C19H10N3O3+
