Mass spectrum: 5,7-Dimethoxy-2H-chromen-2-one; LC-ESI-QFT; MS2; CE: 30; R=17500; [M+H]+
Name: 5,7-Dimethoxy-2H-chromen-2-one
Name: 5,7-dimethoxychromen-2-one
Formula: C11H10O4
Exact mass: 206.0579
SMILES: COC1=CC2=C(C=CC(=O)O2)C(OC)=C1
InChI: InChI=1S/C11H10O4/c1-13-7-5-9(14-2)8-3-4-11(12)15-10(8)6-7/h3-6H,1-2H3
Instrument: Q Exactive Orbitrap (Thermo Scientific)
Instrument type: LC-ESI-QFT
Ms type: MS2
Ion mode: POSITIVE
Ionization: ESI
Fragmentation mode: HCD
Collision energy: 30
Resolution: 17500
Column name: Acquity BEH C18 1.7um, 2.1x150mm (Waters)
Retention time: 15.951 min
Base peak: 79.0211
Precursor m/z: 207.0652
Precursor type: [M+H]+
Precursor intensity: 14016975.875
m/z	relative intensity	assigned
121.0647	1	C8H9O+
148.0518	2	C9H8O2+
151.0754	11	C9H11O2+
163.0754	23	C10H11O2+
164.047	2	C9H8O3+
179.0703	4	C10H11O3+
192.0418	18	C10H8O4+
207.0651	999	C11H11O4+
