Mass spectrum: Candoxatril; LC-ESI-QFT; MS2; CE: 60; R=17500; [M+H]+
Name: Candoxatril
Formula: C29H41NO7
Exact mass: 515.2883
SMILES: COCCOC[C@H](CC1(CCCC1)C(=O)N[C@H]1CC[C@H](CC1)C(O)=O)C(=O)OC1=CC2=C(CCC2)C=C1
InChI: InChI=1S/C29H41NO7/c1-35-15-16-36-19-23(27(33)37-25-12-9-20-5-4-6-22(20)17-25)18-29(13-2-3-14-29)28(34)30-24-10-7-21(8-11-24)26(31)32/h9,12,17,21,23-24H,2-8,10-11,13-16,18-19H2,1H3,(H,30,34)(H,31,32)/t21-,23-,24+/m0/s1
Instrument: Q Exactive Orbitrap (Thermo Scientific)
Instrument type: LC-ESI-QFT
Ms type: MS2
Ion mode: POSITIVE
Ionization: ESI
Fragmentation mode: HCD
Collision energy: 60
Resolution: 17500
Column name: Acquity BEH C18 1.7um, 2.1x150mm (Waters)
Retention time: 18.625 min
Base peak: 79.0211
Precursor m/z: 516.2956
Precursor type: [M+H]+
Precursor intensity: 8983850.125
m/z	relative intensity	assigned
53.0023	3	C3HO+
53.0386	13	C4H5+
55.0179	26	C3H3O+
55.0543	12	C4H7+
56.0495	3	C3H6N+
57.0335	19	C3H5O+
59.0491	133	C3H7O+
65.0386	9	C5H5+
67.0542	120	C5H7+
69.0335	106	C4H5O+
72.0444	6	C3H6NO+
77.0384	4	C6H5+
79.0542	999	C6H7+
81.0699	758	C6H9+
83.0855	33	C6H11+
86.06	30	C4H8NO+
91.0542	143	C7H7+
92.0494	9	C6H6N+
93.0699	360	C7H9+
95.0491	20	C6H7O+
95.0855	5	C7H11+
96.0446	7	C5H6NO+
96.0807	12	C6H10N+
98.0963	7	C6H12N+
99.0805	3	C6H11O+
105.0699	84	C8H9+
106.0652	6	C7H8N+
107.0855	981	C8H11+
108.0808	10	C7H10N+
109.0648	61	C7H9O+
109.1012	69	C8H13+
115.0542	80	C9H7+
116.0621	4	C9H8+
117.0698	766	C9H9+
119.0853	7	C9H11+
123.0804	5	C8H11O+
124.1121	10	C8H14N+
126.0913	562	C7H12NO+
127.0753	8	C7H11O2+
132.0813	3	C9H10N+
134.0964	159	C9H12N+
135.0804	693	C9H11O+
138.0913	13	C8H12NO+
144.1019	8	C7H14NO2+
145.0646	5	C10H9O+
147.0804	29	C10H11O+
152.107	328	C9H14NO+
153.0909	5	C9H13O2+
159.0803	3	C11H11O+
161.0596	12	C10H9O2+
162.0912	62	C10H12NO+
163.0754	9	C10H11O2+
179.1065	4	C11H15O2+
180.1019	238	C10H14NO2+
187.0754	24	C12H11O2+
194.1174	3	C11H16NO2+
232.1694	4	C15H22NO+
278.1752	18	C16H24NO3+
