Mass spectrum: 6-Chloro-2-picolinic acid; LC-ESI-QFT; MS2; CE: 15; R=17500; [M-H]-
Name: 6-Chloro-2-picolinic acid
Name: 6-Chloropicolinic acid
Name: 6-chloropyridine-2-carboxylic acid
Formula: C6H4ClNO2
Exact mass: 156.9931
SMILES: OC(=O)C1=NC(Cl)=CC=C1
InChI: InChI=1S/C6H4ClNO2/c7-5-3-1-2-4(8-5)6(9)10/h1-3H,(H,9,10)
Instrument: Q Exactive Orbitrap (Thermo Scientific)
Instrument type: LC-ESI-QFT
Ms type: MS2
Ion mode: NEGATIVE
Ionization: ESI
Fragmentation mode: HCD
Collision energy: 15
Resolution: 17500
Column name: Acquity BEH C18 1.7um, 2.1x150mm (Waters)
Retention time: 11.302 min
Base peak: 290.0858
Precursor m/z: 155.9858
Precursor type: [M-H]-
Precursor intensity: 488151.3920898
m/z	relative intensity	assigned
111.996	999	C5H3ClN-
155.986	120	C6H3ClNO2-
