Mass spectrum: 2-Acrylamido-2-methyl-1-propanesulfonic acid; LC-ESI-QFT; MS2; CE: 75; R=17500; [M-H]-
Name: 2-Acrylamido-2-methyl-1-propanesulfonic acid
Name: 2-methyl-2-(prop-2-enoylamino)propane-1-sulfonic acid
Formula: C7H13NO4S
Exact mass: 207.0565
SMILES: CC(C)(CS(O)(=O)=O)NC(=O)C=C
InChI: InChI=1S/C7H13NO4S/c1-4-6(9)8-7(2,3)5-13(10,11)12/h4H,1,5H2,2-3H3,(H,8,9)(H,10,11,12)
Instrument: Q Exactive Orbitrap (Thermo Scientific)
Instrument type: LC-ESI-QFT
Ms type: MS2
Ion mode: NEGATIVE
Ionization: ESI
Fragmentation mode: HCD
Collision energy: 75
Resolution: 17500
Column name: Acquity BEH C18 1.7um, 2.1x150mm (Waters)
Retention time: 5.811 min
Base peak: 206.0492
Precursor m/z: 206.0493
Precursor type: [M-H]-
Precursor intensity: 4130439.590942
m/z	relative intensity	assigned
64.9702	1	HO2S-
70.0299	127	C3H4NO-
77.9655	2	NO2S-
79.9574	999	O3S-
80.9652	39	HO3S-
94.9808	1	CH3O3S-
96.9601	10	HO4S-
135.0122	199	C4H7O3S-
206.0493	3	C7H12NO4S-
