Mass spectrum: 2,5-Dimethoxy-4-chloroaniline; LC-ESI-QFT; MS2; CE: 75; R=17500; [M+H]+
Name: 2,5-Dimethoxy-4-chloroaniline
Name: 4-chloro-2,5-dimethoxyaniline
Formula: C8H10ClNO2
Exact mass: 187.0400
SMILES: COC1=CC(N)=C(OC)C=C1Cl
InChI: InChI=1S/C8H10ClNO2/c1-11-7-4-6(10)8(12-2)3-5(7)9/h3-4H,10H2,1-2H3
Instrument: Q Exactive Orbitrap (Thermo Scientific)
Instrument type: LC-ESI-QFT
Ms type: MS2
Ion mode: POSITIVE
Ionization: ESI
Fragmentation mode: HCD
Collision energy: 75
Resolution: 17500
Column name: Acquity BEH C18 1.7um, 2.1x150mm (Waters)
Retention time: 13.442 min
Base peak: 79.0211
Precursor m/z: 188.0473
Precursor type: [M+H]+
Precursor intensity: 2447526
m/z	relative intensity	assigned
65.0386	11	C5H5+
67.0417	3	C4H5N+
74.9995	2	C3H4Cl+
78.0338	6	C5H4N+
79.0178	5	C5H3O+
80.0131	10	C4H2NO+
80.0493	2	C5H6N+
81.0574	4	C5H7N+
82.0651	1	C5H8N+
92.0495	6	C6H6N+
93.0574	10	C6H7N+
95.0366	9	C5H5NO+
95.049	4	C6H7O+
96.0445	12	C5H6NO+
102.0105	5	C4H5ClN+
106.0288	6	C6H4NO+
109.0522	10	C6H7NO+
110.0601	100	C6H8NO+
111.0441	3	C6H7O2+
122.0604	2	C7H8NO+
123.0677	2	C7H9NO+
124.0394	15	C6H6NO2+
128.9976	4	C5H4ClNO+
129.0101	14	C6H6ClO+
130.0055	999	C5H5ClNO+
138.055	632	C7H8NO2+
142.0052	3	C6H5ClNO+
144.0211	13	C6H7ClNO+
153.0785	31	C8H11NO2+
156.0213	2	C7H7ClNO+
157.0287	3	C7H8ClNO+
158.0004	434	C6H5ClNO2+
172.0162	12	C7H7ClNO2+
173.0239	483	C7H8ClNO2+
