Mass spectrum: AVE9423; LC-ESI-QFT; MS2; CE: 75; R=17500; [M+H]+
Name: AVE9423
Name: 1-(2-carboxyphenyl)-7-chloro-6-(2-chloro-4,6-difluoroanilino)-4-oxoquinoline-3-carboxylic acid
Formula: C23H12Cl2F2N2O5
Exact mass: 504.0091
SMILES: OC(=O)C1=CC=CC=C1N1C=C(C(O)=O)C(=O)C2=C1C=C(Cl)C(NC1=C(F)C=C(F)C=C1Cl)=C2
InChI: InChI=1S/C23H12Cl2F2N2O5/c24-14-8-19-12(7-17(14)28-20-15(25)5-10(26)6-16(20)27)21(30)13(23(33)34)9-29(19)18-4-2-1-3-11(18)22(31)32/h1-9,28H,(H,31,32)(H,33,34)
Instrument: Q Exactive Orbitrap (Thermo Scientific)
Instrument type: LC-ESI-QFT
Ms type: MS2
Ion mode: POSITIVE
Ionization: ESI
Fragmentation mode: HCD
Collision energy: 75
Resolution: 17500
Column name: Acquity BEH C18 1.7um, 2.1x150mm (Waters)
Retention time: 17.513 min
Base peak: 79.0211
Precursor m/z: 505.0164
Precursor type: [M+H]+
Precursor intensity: 1779756.75
m/z	relative intensity	assigned
68.997	10	C3HO2+
101.0198	38	C5H3F2+
105.0335	6	C7H5O+
116.9902	14	C5H3ClF+
126.0151	6	C6H2F2N+
127.0227	22	C6H3F2N+
134.9808	87	C5H2ClF2+
144.0256	39	C6H4F2NO+
152.0622	6	C12H8+
161.9917	166	C6H3ClF2N+
166.0653	12	C12H8N+
169.0648	11	C12H9O+
177.0573	48	C13H7N+
178.0653	83	C13H8N+
179.073	8	C13H9N+
180.0022	13	C6H5ClF2NO+
189.0574	7	C14H7N+
190.0652	265	C14H8N+
201.0345	9	C12H6FO2+
202.018	10	C12H7ClO+
202.0466	8	C12H6F2N+
204.0682	5	C14H8N2+
205.0761	46	C14H9N2+
206.0599	42	C14H8NO+
207.0678	12	C14H9NO+
213.0344	18	C13H6FO2+
214.0465	26	C13H6F2N+
218.0602	17	C15H8NO+
224.0262	26	C14H7ClN+
225.0341	404	C14H8ClN+
229.0292	34	C10H11Cl2N2+
239.041	6	C14H5F2N2+
240.0216	22	C11H10Cl2N2+
240.0494	9	C14H6F2N2+
241.0291	21	C14H8ClNO+
241.057	17	C14H7F2N2+
245.0248	6	C10H9ClFNO3+
246.0551	52	C16H8NO2+
248.0079	6	C13H5ClF2N+
253.0291	147	C15H8ClNO+
255.012	10	C14H5ClFN2+
269.0243	23	C12H11Cl2N2O+
269.0635	4	C19H8FN+
275.0184	24	C14H6ClF2N2+
287.0547	15	C19H7F2N+
288.0622	14	C19H8F2N+
289.0699	19	C19H9F2N+
290.0781	122	C19H10F2N+
291.0734	43	C18H9F2N2+
294.0587	33	C20H7FN2+
295.0665	43	C20H8FN2+
296.0741	27	C20H9FN2+
297.0824	151	C20H10FN2+
298.09	27	C20H11FN2+
302.0653	9	C19H8F2N2+
303.0729	9	C19H9F2N2+
304.0808	27	C19H10F2N2+
305.089	28	C19H11F2N2+
307.0669	10	C21H8FN2+
312.0496	6	C20H6F2N2+
313.0562	18	C20H7F2N2+
314.0654	125	C20H8F2N2+
315.073	999	C20H9F2N2+
316.081	408	C20H10F2N2+
317.0887	114	C20H11F2N2+
319.0684	10	C21H13ClF+
320.0764	8	C19H10F2N2O+
324.0386	14	C19H9ClF2N+
325.0766	43	C21H10FN2O+
326.0644	11	C21H8F2N2+
327.0731	57	C21H9F2N2+
330.0355	24	C20H8ClFN2+
331.0665	13	C23H8FN2+
332.0515	33	C20H8F2NO2+
332.0752	10	C20H10F2N2O+
333.0834	13	C20H11F2N2O+
343.0679	537	C21H9F2N2O+
344.0762	58	C21H10F2N2O+
345.0835	14	C21H11F2N2O+
346.0553	12	C22H12ClFO+
349.0342	136	C20H8ClF2N2+
350.0425	35	C20H9ClF2N2+
351.0504	20	C20H10ClF2N2+
352.0576	25	C20H11ClF2N2+
359.039	16	C23H13Cl2+
360.0247	8	C15H12Cl2F2N2O2+
362.0415	11	C21H9ClF2N2+
371.0633	36	C22H9F2N2O2+
372.0698	8	C22H10F2N2O2+
373.0787	21	C22H11F2N2O2+
377.0285	28	C21H8ClF2N2O+
378.0371	124	C23H13Cl2F+
385.0107	120	C20H9Cl2F2N2+
397.0117	9	C21H9Cl2F2N2+
406.0312	19	C22H9ClF2N2O2+
