Mass spectrum: Oxazepam; LC-ESI-QFT; MS2; CE: 45; R=17500; [M+H]+
Name: Oxazepam
Name: 7-chloro-3-hydroxy-5-phenyl-1,3-dihydro-1,4-benzodiazepin-2-one
Formula: C15H11ClN2O2
Exact mass: 286.0509
SMILES: OC1N=C(C2=CC=CC=C2)C2=CC(Cl)=CC=C2NC1=O
InChI: InChI=1S/C15H11ClN2O2/c16-10-6-7-12-11(8-10)13(9-4-2-1-3-5-9)18-15(20)14(19)17-12/h1-8,15,20H,(H,17,19)
Instrument: Q Exactive Orbitrap (Thermo Scientific)
Instrument type: LC-ESI-QFT
Ms type: MS2
Ion mode: POSITIVE
Ionization: ESI
Fragmentation mode: HCD
Collision energy: 45
Resolution: 17500
Column name: Acquity BEH C18 1.7um, 2.1x150mm (Waters)
Retention time: 16.615 min
Base peak: 79.0211
Precursor m/z: 287.0582
Precursor type: [M+H]+
Precursor intensity: 14026717.25
m/z	relative intensity	assigned
79.0542	1	C6H7+
93.0573	16	C6H7N+
104.0495	151	C7H6N+
118.0526	1	C7H6N2+
128.0261	80	C6H7ClN+
138.0105	5	C7H5ClN+
153.0214	35	C7H6ClN2+
156.0211	8	C7H7ClNO+
163.0057	22	C8H4ClN2+
166.0054	33	C8H5ClNO+
181.0164	3	C8H6ClN2O+
195.0318	1	C9H8ClN2O+
195.0918	4	C13H11N2+
205.0763	1	C14H9N2+
206.0834	1	C14H10N2+
207.068	8	C14H9NO+
214.0413	3	C13H9ClN+
216.0575	5	C13H11ClN+
229.0531	3	C13H10ClN2+
231.0685	174	C13H12ClN2+
241.0527	999	C14H10ClN2+
242.0366	9	C14H9ClNO+
257.0475	10	C14H10ClN2O+
258.0554	2	C14H11ClN2O+
259.0632	1	C14H12ClN2O+
269.0476	124	C15H10ClN2O+
287.0578	6	C15H12ClN2O2+
