Mass spectrum: CI-1029; LC-ESI-QFT; MS2; CE: 30; R=17500; [M-H]-
Name: CI-1029
Name: (2S)-2-[2-(4-aminophenyl)ethyl]-5-[2-tert-butyl-4-(hydroxymethyl)-5-methylphenyl]sulfanyl-4-hydroxy-2-propan-2-yl-3H-pyran-6-one
Formula: C28H37NO4S
Exact mass: 483.2443
SMILES: CC(C)[C@]1(CCC2=CC=C(N)C=C2)CC(O)=C(SC2=CC(C)=C(CO)C=C2C(C)(C)C)C(=O)O1
InChI: InChI=1S/C28H37NO4S/c1-17(2)28(12-11-19-7-9-21(29)10-8-19)15-23(31)25(26(32)33-28)34-24-13-18(3)20(16-30)14-22(24)27(4,5)6/h7-10,13-14,17,30-31H,11-12,15-16,29H2,1-6H3/t28-/m0/s1
Instrument: Q Exactive Orbitrap (Thermo Scientific)
Instrument type: LC-ESI-QFT
Ms type: MS2
Ion mode: NEGATIVE
Ionization: ESI
Fragmentation mode: HCD
Collision energy: 30
Resolution: 17500
Column name: Acquity BEH C18 1.7um, 2.1x150mm (Waters)
Retention time: 15.677 min
Base peak: 356.1305
Precursor m/z: 482.2371
Precursor type: [M-H]-
Precursor intensity: 3580211.973633
m/z	relative intensity	assigned
71.9676	1	C2OS-
203.09	7	C13H15S-
209.1004	6	C12H17OS-
219.0847	2	C13H15OS-
221.1001	3	C13H17OS-
247.1161	2	C15H19OS-
249.0954	151	C14H17O2S-
261.1186	1	C15H19NOS-
291.1064	10	C16H19O3S-
305.1091	29	C16H19NO3S-
482.2368	999	C28H36NO4S-
