Mass spectrum: HC Red 3; LC-ESI-QFT; MS2; CE: 30; R=17500; [M+H]+
Name: HC Red 3
Name: 2-((4-Amino-2-nitrophenyl)amino)ethanol
Name: 2-(4-amino-2-nitroanilino)ethanol
Formula: C8H11N3O3
Exact mass: 197.0800
SMILES: NC1=CC(=C(NCCO)C=C1)[N+]([O-])=O
InChI: InChI=1S/C8H11N3O3/c9-6-1-2-7(10-3-4-12)8(5-6)11(13)14/h1-2,5,10,12H,3-4,9H2
Instrument: Q Exactive Orbitrap (Thermo Scientific)
Instrument type: LC-ESI-QFT
Ms type: MS2
Ion mode: POSITIVE
Ionization: ESI
Fragmentation mode: HCD
Collision energy: 30
Resolution: 17500
Column name: Acquity BEH C18 1.7um, 2.1x150mm (Waters)
Retention time: 3.132 min
Base peak: 79.0211
Precursor m/z: 198.0873
Precursor type: [M+H]+
Precursor intensity: 2252684.84375
m/z	relative intensity	assigned
80.0497	3	C5H6N+
81.0447	5	C4H5N2+
86.0601	15	C4H8NO+
91.0544	5	C7H7+
93.0447	4	C5H5N2+
95.0604	80	C5H7N2+
105.0446	3	C6H5N2+
107.0604	12	C6H7N2+
108.0683	21	C6H8N2+
109.0396	4	C5H5N2O+
118.0402	9	C6H4N3+
119.0478	17	C6H5N3+
120.0556	7	C6H6N3+
121.0638	3	C6H7N3+
122.0713	87	C6H8N3+
123.0553	3	C6H7N2O+
132.0557	6	C7H6N3+
132.0684	3	C8H8N2+
133.0634	999	C7H7N3+
134.0712	37	C7H8N3+
136.0506	212	C6H6N3O+
137.0708	12	C7H9N2O+
138.0662	16	C6H8N3O+
145.0635	18	C8H7N3+
149.0585	4	C7H7N3O+
150.0662	199	C7H8N3O+
153.0532	20	C6H7N3O2+
162.0663	18	C8H8N3O+
163.074	183	C8H9N3O+
164.0818	20	C8H10N3O+
167.0579	4	C8H9NO3+
180.0768	331	C8H10N3O2+
181.0845	13	C8H11N3O2+
198.0875	303	C8H12N3O3+
