Mass spectrum: Trinexapac-ethyl; LC-ESI-QFT; MS2; CE: 15; R=17500; [M-H]-
Name: Trinexapac-ethyl
Name: ethyl 4-[cyclopropyl(hydroxy)methylidene]-3,5-dioxocyclohexane-1-carboxylate
Formula: C13H16O5
Exact mass: 252.0998
SMILES: CCOC(=O)C1CC(=O)C(=C(O)C2CC2)C(=O)C1
InChI: InChI=1S/C13H16O5/c1-2-18-13(17)8-5-9(14)11(10(15)6-8)12(16)7-3-4-7/h7-8,16H,2-6H2,1H3
Instrument: Q Exactive Orbitrap (Thermo Scientific)
Instrument type: LC-ESI-QFT
Ms type: MS2
Ion mode: NEGATIVE
Ionization: ESI
Fragmentation mode: HCD
Collision energy: 15
Resolution: 17500
Column name: Acquity BEH C18 1.7um, 2.1x150mm (Waters)
Retention time: 17.193 min
Base peak: 284.0962
Precursor m/z: 251.0925
Precursor type: [M-H]-
Precursor intensity: 397665.2880859
m/z	relative intensity	assigned
109.0293	68	C6H5O2-
133.0659	20	C9H9O-
137.0611	20	C8H9O2-
179.1078	250	C11H15O2-
207.1026	468	C12H15O3-
251.0926	999	C13H15O5-
