Mass spectrum: 1,5-Naphthalenediamine; LC-ESI-QFT; MS2; CE: 90; R=17500; [M+H]+
Name: 1,5-Naphthalenediamine
Name: naphthalene-1,5-diamine
Formula: C10H10N2
Exact mass: 158.0844
SMILES: NC1=CC=CC2=C(N)C=CC=C12
InChI: InChI=1S/C10H10N2/c11-9-5-1-3-7-8(9)4-2-6-10(7)12/h1-6H,11-12H2
Instrument: Q Exactive Orbitrap (Thermo Scientific)
Instrument type: LC-ESI-QFT
Ms type: MS2
Ion mode: POSITIVE
Ionization: ESI
Fragmentation mode: HCD
Collision energy: 90
Resolution: 17500
Column name: Acquity BEH C18 1.7um, 2.1x150mm (Waters)
Retention time: 2.581 min
Base peak: 79.0211
Precursor m/z: 159.0917
Precursor type: [M+H]+
Precursor intensity: 9057199.625
m/z	relative intensity	assigned
91.0543	22	C7H7+
93.0573	45	C6H7N+
97.0075	4	C8H+
105.07	14	C8H9+
115.0543	999	C9H7+
116.0495	19	C8H6N+
116.062	55	C9H8+
117.0574	76	C8H7N+
118.0651	101	C8H8N+
130.0653	55	C9H8N+
132.0808	86	C9H10N+
140.0496	16	C10H6N+
141.0573	76	C10H7N+
142.0653	164	C10H8N+
143.073	863	C10H9N+
157.0763	23	C10H9N2+
158.084	655	C10H10N2+
159.0922	100	C10H11N2+
