Mass spectrum: 4-[3-(4-Acetyl-3-hydroxy-2-propylphenoxy)propoxy]phenoxy-acetic acid; LC-ESI-QFT; MS2; CE: 60; R=17500; [M+H]+
Name: 4-[3-(4-Acetyl-3-hydroxy-2-propylphenoxy)propoxy]phenoxy-acetic acid
Name: 2-(4-(3-(4-Acetyl-3-hydroxy-2-propylphenoxy)propoxy)phenoxy)acetic acid
Name: 2-[4-[3-(4-acetyl-3-hydroxy-2-propylphenoxy)propoxy]phenoxy]acetic acid
Formula: C22H26O7
Exact mass: 402.1679
SMILES: CCCC1=C(OCCCOC2=CC=C(OCC(O)=O)C=C2)C=CC(C(C)=O)=C1O
InChI: InChI=1S/C22H26O7/c1-3-5-19-20(11-10-18(15(2)23)22(19)26)28-13-4-12-27-16-6-8-17(9-7-16)29-14-21(24)25/h6-11,26H,3-5,12-14H2,1-2H3,(H,24,25)
Instrument: Q Exactive Orbitrap (Thermo Scientific)
Instrument type: LC-ESI-QFT
Ms type: MS2
Ion mode: POSITIVE
Ionization: ESI
Fragmentation mode: HCD
Collision energy: 60
Resolution: 17500
Column name: Acquity BEH C18 1.7um, 2.1x150mm (Waters)
Retention time: 19.209 min
Base peak: 79.0211
Precursor m/z: 403.1751
Precursor type: [M+H]+
Precursor intensity: 9867635.125
m/z	relative intensity	assigned
51.023	4	C4H3+
53.0022	12	C3HO+
53.0386	60	C4H5+
55.0179	85	C3H3O+
57.0336	4	C3H5O+
65.0385	95	C5H5+
67.0542	85	C5H7+
68.997	16	C3HO2+
69.0333	15	C4H5O+
75.023	3	C6H3+
77.0384	47	C6H5+
78.0467	3	C6H6+
79.0542	647	C6H7+
81.0335	76	C5H5O+
81.0699	19	C6H9+
83.0127	3	C4H3O2+
83.0491	6	C5H7O+
91.0542	158	C7H7+
92.0256	27	C6H4O+
93.0335	110	C6H5O+
93.0699	65	C7H9+
94.0413	37	C6H6O+
95.0491	735	C6H7O+
103.0542	107	C8H7+
105.0336	99	C7H5O+
105.0699	646	C8H9+
107.0491	999	C7H7O+
107.0854	80	C8H11+
108.057	3	C7H8O+
109.0284	627	C6H5O2+
109.0648	91	C7H9O+
110.0361	11	C6H6O2+
111.044	145	C6H7O2+
115.0542	51	C9H7+
116.0621	3	C9H8+
117.0699	66	C9H9+
118.0413	6	C8H6O+
119.0492	20	C8H7O+
119.0856	8	C9H11+
120.057	13	C8H8O+
121.0284	42	C7H5O2+
121.0647	76	C8H9O+
122.0362	55	C7H6O2+
123.044	665	C7H7O2+
124.0517	19	C7H8O2+
125.0597	54	C7H9O2+
128.0619	4	C10H8+
131.0492	30	C9H7O+
131.0856	6	C10H11+
132.057	9	C9H8O+
133.0647	120	C9H9O+
134.0362	4	C8H6O2+
134.0726	5	C9H10O+
135.044	321	C8H7O2+
135.0804	559	C9H11O+
137.0597	223	C8H9O2+
139.0757	3	C8H11O2+
140.0471	5	C7H8O3+
141.0544	8	C7H9O3+
144.0571	3	C10H8O+
145.0647	13	C10H9O+
146.0729	5	C10H10O+
147.044	190	C9H7O2+
147.0806	20	C10H11O+
148.0518	13	C9H8O2+
149.0597	193	C9H9O2+
149.0962	17	C10H13O+
150.0675	245	C9H10O2+
151.0754	428	C9H11O2+
153.0546	96	C8H9O3+
153.0909	30	C9H13O2+
154.0628	5	C8H10O3+
155.0705	4	C8H11O3+
159.0805	8	C11H11O+
161.0598	87	C10H9O2+
162.0678	5	C10H10O2+
163.0753	268	C10H11O2+
165.0546	120	C9H9O3+
165.091	144	C10H13O2+
167.034	31	C8H7O4+
173.0961	4	C12H13O+
175.0753	50	C11H11O2+
177.091	263	C11H13O2+
179.0701	65	C10H11O3+
181.0494	92	C9H9O4+
189.091	42	C12H13O2+
191.0697	5	C11H11O3+
191.1065	16	C12H15O2+
192.0778	3	C11H12O3+
193.0861	31	C11H13O3+
193.1221	25	C12H17O2+
195.1016	113	C11H15O3+
203.1066	11	C13H15O2+
205.086	12	C12H13O3+
207.1017	50	C12H15O3+
233.1184	4	C14H17O3+
235.1328	7	C14H19O3+
