Mass spectrum: Tebuconazole; LC-ESI-QFT; MS2; CE: 75; R=17500; [M+H]+
Name: Tebuconazole
Name: 1-(4-chlorophenyl)-4,4-dimethyl-3-(1,2,4-triazol-1-ylmethyl)pentan-3-ol
Formula: C16H22ClN3O
Exact mass: 307.1451
SMILES: CC(C)(C)C(O)(CCC1=CC=C(Cl)C=C1)CN1C=NC=N1
InChI: InChI=1S/C16H22ClN3O/c1-15(2,3)16(21,10-20-12-18-11-19-20)9-8-13-4-6-14(17)7-5-13/h4-7,11-12,21H,8-10H2,1-3H3
Instrument: Q Exactive Orbitrap (Thermo Scientific)
Instrument type: LC-ESI-QFT
Ms type: MS2
Ion mode: POSITIVE
Ionization: ESI
Fragmentation mode: HCD
Collision energy: 75
Resolution: 17500
Column name: Acquity BEH C18 1.7um, 2.1x150mm (Waters)
Retention time: 18.593 min
Base peak: 79.0212
Precursor m/z: 308.1524
Precursor type: [M+H]+
Precursor intensity: 21549901.90625
m/z	relative intensity	assigned
53.0022	1	C3HO+
55.0542	7	C4H7+
57.0699	16	C4H9+
59.0491	30	C3H7O+
69.0698	2	C5H9+
70.0399	999	C2H4N3+
83.0855	2	C6H11+
89.0385	3	C7H5+
91.0543	1	C7H7+
98.9997	1	C5H4Cl+
103.0542	5	C8H7+
115.0542	16	C9H7+
116.062	27	C9H8+
125.0152	115	C7H6Cl+
128.0618	1	C10H8+
129.0697	4	C10H9+
130.0776	6	C10H10+
133.0648	1	C9H9O+
137.0153	1	C8H6Cl+
139.0308	5	C8H8Cl+
143.0604	1	C9H7N2+
144.0932	1	C11H12+
151.0309	10	C9H8Cl+
165.0463	1	C10H10Cl+
