Mass spectrum: Nelivaptan; LC-ESI-QFT; MS2; CE: 75; R=17500; [M+H]+
Name: Nelivaptan
Name: (2S,4R)-1-[(3R)-5-chloro-1-(2,4-dimethoxyphenyl)sulfonyl-3-(2-methoxyphenyl)-2-oxoindol-3-yl]-4-hydroxy-N,N-dimethylpyrrolidine-2-carboxamide
Formula: C30H32ClN3O8S
Exact mass: 629.1599
SMILES: COC1=CC(OC)=C(C=C1)S(=O)(=O)N1C(=O)[C@@](N2C[C@H](O)C[C@H]2C(=O)N(C)C)(C2=CC(Cl)=CC=C12)C1=CC=CC=C1OC
InChI: InChI=1S/C30H32ClN3O8S/c1-32(2)28(36)24-15-19(35)17-33(24)30(21-8-6-7-9-25(21)41-4)22-14-18(31)10-12-23(22)34(29(30)37)43(38,39)27-13-11-20(40-3)16-26(27)42-5/h6-14,16,19,24,35H,15,17H2,1-5H3/t19-,24+,30+/m1/s1
Instrument: Q Exactive Orbitrap (Thermo Scientific)
Instrument type: LC-ESI-QFT
Ms type: MS2
Ion mode: POSITIVE
Ionization: ESI
Fragmentation mode: HCD
Collision energy: 75
Resolution: 17500
Column name: Acquity BEH C18 1.7um, 2.1x150mm (Waters)
Retention time: 18.171 min
Base peak: 79.0211
Precursor m/z: 630.1671
Precursor type: [M+H]+
Precursor intensity: 8994356
m/z	relative intensity	assigned
50.0151	1	C4H2+
51.0231	3	C4H3+
52.0308	1	C4H4+
53.0386	180	C4H5+
54.0464	3	C4H6+
55.0178	28	C3H3O+
55.0543	2	C4H7+
63.0228	12	C5H3+
64.0307	7	C5H4+
65.0385	176	C5H5+
66.0464	23	C5H6+
67.0542	31	C5H7+
68.0256	7	C4H4O+
68.997	23	C3HO2+
69.0335	4	C4H5O+
72.0442	1	C3H6NO+
77.0385	55	C6H5+
78.0465	3	C6H6+
79.0178	84	C5H3O+
79.0542	172	C6H7+
81.0335	23	C5H5O+
81.0699	29	C6H9+
82.0413	25	C5H6O+
83.0127	4	C4H3O2+
83.0491	3	C5H7O+
84.0445	5	C4H6NO+
91.0542	16	C7H7+
92.0257	350	C6H4O+
93.0335	80	C6H5O+
94.0413	168	C6H6O+
95.0491	552	C6H7O+
97.0648	24	C6H9O+
98.0362	1	C5H6O2+
105.0337	28	C7H5O+
105.0447	221	C6H5N2+
106.0418	2	C4H9ClN+
107.0127	197	C6H3O2+
107.0491	27	C7H7O+
108.0205	5	C6H4O2+
109.0284	8	C6H5O2+
109.0648	69	C7H9O+
110.0362	270	C6H6O2+
111.044	148	C6H7O2+
121.0286	9	C7H5O2+
121.0397	10	C6H5N2O+
122.0362	685	C7H6O2+
123.0439	8	C7H7O2+
124.0518	8	C7H8O2+
125.0597	999	C7H9O2+
135.0553	101	C7H7N2O+
139.0391	2	C7H7O3+
139.0755	4	C8H11O2+
141.0546	3	C7H9O3+
153.0546	190	C8H9O3+
180.0808	4	C13H10N+
207.0678	2	C14H9NO+
208.0757	3	C14H10NO+
235.063	1	C15H9NO2+
