Mass spectrum: Crotamiton; LC-ESI-QFT; MS2; CE: 60; R=17500; [M+H]+
Name: Crotamiton
Name: N-ethyl-N-(2-methylphenyl)but-2-enamide
Formula: C13H17NO
Exact mass: 203.1310
SMILES: CCN(C(=O)C=CC)C1=CC=CC=C1C
InChI: InChI=1S/C13H17NO/c1-4-8-13(15)14(5-2)12-10-7-6-9-11(12)3/h4,6-10H,5H2,1-3H3
Instrument: Q Exactive Orbitrap (Thermo Scientific)
Instrument type: LC-ESI-QFT
Ms type: MS2
Ion mode: POSITIVE
Ionization: ESI
Fragmentation mode: HCD
Collision energy: 60
Resolution: 17500
Column name: Acquity BEH C18 1.7um, 2.1x150mm (Waters)
Retention time: 17.257 min
Base peak: 79.0211
Precursor m/z: 204.1383
Precursor type: [M+H]+
Precursor intensity: 32335163.25
m/z	relative intensity	assigned
53.0022	13	C3HO+
53.9975	2	C2NO+
65.0385	1	C5H5+
68.0495	146	C4H6N+
69.0335	999	C4H5O+
79.0542	3	C6H7+
91.0543	44	C7H7+
93.0573	7	C6H7N+
93.0698	3	C7H9+
96.0808	42	C6H10N+
97.0649	5	C6H9O+
105.0699	7	C8H9+
106.0652	63	C7H8N+
107.0492	2	C7H7O+
107.073	34	C7H9N+
108.0808	97	C7H10N+
109.0648	13	C7H9O+
116.0495	4	C8H6N+
117.0573	4	C8H7N+
117.0701	2	C9H9+
118.0652	5	C8H8N+
119.0729	2	C8H9N+
119.0855	2	C9H11+
120.0809	3	C8H10N+
121.0886	53	C8H11N+
130.0653	6	C9H8N+
131.0858	1	C10H11+
132.0443	3	C8H6NO+
132.0808	3	C9H10N+
133.0887	1	C9H11N+
134.0601	166	C8H8NO+
134.0964	51	C9H12N+
136.1121	241	C9H14N+
143.073	8	C10H9N+
144.0808	1	C10H10N+
146.0966	1	C10H12N+
148.0759	1	C9H10NO+
148.1119	3	C10H14N+
156.0811	1	C11H10N+
157.089	1	C11H11N+
158.0965	39	C11H12N+
160.076	2	C10H10NO+
161.0835	4	C10H11NO+
162.0914	10	C10H12NO+
162.1281	1	C11H16N+
174.0914	2	C11H12NO+
176.1069	4	C11H14NO+
176.1436	1	C12H18N+
186.1279	3	C13H16N+
204.1384	46	C13H18NO+
