Mass spectrum: 3-((Ethylphenylamino)methyl)benzenesulfonic acid; LC-ESI-QFT; MS2; CE: 75; R=17500; [M+H]+
Name: 3-((Ethylphenylamino)methyl)benzenesulfonic acid
Name: 3-[(N-ethylanilino)methyl]benzenesulfonic acid
Formula: C15H17NO3S
Exact mass: 291.0929
SMILES: CCN(CC1=CC(=CC=C1)S(O)(=O)=O)C1=CC=CC=C1
InChI: InChI=1S/C15H17NO3S/c1-2-16(14-8-4-3-5-9-14)12-13-7-6-10-15(11-13)20(17,18)19/h3-11H,2,12H2,1H3,(H,17,18,19)
Instrument: Q Exactive Orbitrap (Thermo Scientific)
Instrument type: LC-ESI-QFT
Ms type: MS2
Ion mode: POSITIVE
Ionization: ESI
Fragmentation mode: HCD
Collision energy: 75
Resolution: 17500
Column name: Acquity BEH C18 1.7um, 2.1x150mm (Waters)
Retention time: 11.275 min
Base peak: 79.0212
Precursor m/z: 292.1002
Precursor type: [M+H]+
Precursor intensity: 3734428.84375
m/z	relative intensity	assigned
51.023	1	C4H3+
53.0386	10	C4H5+
77.0384	4	C6H5+
79.0542	33	C6H7+
91.0542	1	C7H7+
93.0574	2	C6H7N+
95.0492	29	C6H7O+
104.0494	1	C7H6N+
105.0448	12	H11NO3S+
106.0651	999	C7H8N+
118.065	1	C8H8N+
120.0808	15	C8H10N+
121.0886	42	C8H11N+
165.0699	4	C13H9+
171.011	19	C7H7O3S+
180.0808	4	C13H10N+
181.0887	1	C13H11N+
182.0965	1	C13H12N+
262.054	1	C13H12NO3S+
