Mass spectrum: Monobenzyl phthalate; LC-ESI-QFT; MS2; CE: 15; R=17500; [M-H]-
Name: Monobenzyl phthalate
Name: 2-phenylmethoxycarbonylbenzoic acid
Formula: C15H12O4
Exact mass: 256.0736
SMILES: OC(=O)C1=C(C=CC=C1)C(=O)OCC1=CC=CC=C1
InChI: InChI=1S/C15H12O4/c16-14(17)12-8-4-5-9-13(12)15(18)19-10-11-6-2-1-3-7-11/h1-9H,10H2,(H,16,17)
Instrument: Q Exactive Orbitrap (Thermo Scientific)
Instrument type: LC-ESI-QFT
Ms type: MS2
Ion mode: NEGATIVE
Ionization: ESI
Fragmentation mode: HCD
Collision energy: 15
Resolution: 17500
Column name: Acquity BEH C18 1.7um, 2.1x150mm (Waters)
Retention time: 16.658 min
Base peak: 429.0536
Precursor m/z: 255.0663
Precursor type: [M-H]-
Precursor intensity: 28779604.03711
m/z	relative intensity	assigned
59.0138	11	C2H3O2-
59.9854	2	CO3-
60.9932	4	CHO3-
65.0397	4	C5H5-
77.0394	13	C6H5-
93.0346	31	C6H5O-
105.0346	129	C7H5O-
107.0503	999	C7H7O-
108.0217	4	C6H4O2-
121.0295	476	C7H5O2-
123.0452	62	C7H7O2-
125.0608	10	C7H9O2-
133.0294	5	C8H5O2-
147.0088	102	C8H3O3-
149.0244	43	C8H5O3-
151.0401	24	C8H7O3-
165.0193	19	C8H5O4-
167.0863	2	C13H11-
181.0661	4	C13H9O-
183.0816	605	C13H11O-
197.0606	11	C13H9O2-
211.0764	113	C14H11O2-
