Mass spectrum: N-Dodecanoyl-N-methylglycine; LC-ESI-QFT; MS2; CE: 75; R=17500; [M-H]-
Name: N-Dodecanoyl-N-methylglycine
Name: N-Lauroylsarcosine
Name: 2-[dodecanoyl(methyl)amino]acetic acid
Formula: C15H29NO3
Exact mass: 271.2147
SMILES: CCCCCCCCCCCC(=O)N(C)CC(O)=O
InChI: InChI=1S/C15H29NO3/c1-3-4-5-6-7-8-9-10-11-12-14(17)16(2)13-15(18)19/h3-13H2,1-2H3,(H,18,19)
Instrument: Q Exactive Orbitrap (Thermo Scientific)
Instrument type: LC-ESI-QFT
Ms type: MS2
Ion mode: NEGATIVE
Ionization: ESI
Fragmentation mode: HCD
Collision energy: 75
Resolution: 17500
Column name: Acquity BEH C18 1.7um, 2.1x150mm (Waters)
Retention time: 19.716 min
Base peak: 249.1496
Precursor m/z: 270.2075
Precursor type: [M-H]-
Precursor intensity: 56092245.0625
m/z	relative intensity	assigned
55.0189	1	C3H3O-
57.0346	2	C3H5O-
66.035	1	C4H4N-
70.0298	1	C3H4NO-
80.0268	4	C5H4O-
81.0347	1	C5H5O-
83.0502	1	C5H7O-
86.0248	2	C3H4NO2-
86.061	1	C4H8NO-
88.0404	999	C3H6NO2-
96.0456	1	C5H6NO-
155.1447	1	C10H19O-
179.1441	5	C12H19O-
181.16	9	C12H21O-
183.1758	3	C12H23O-
