Mass spectrum: Octyl gallate; LC-ESI-QFT; MS2; CE: 60; R=17500; [M-H]-
Name: Octyl gallate
Name: octyl 3,4,5-trihydroxybenzoate
Formula: C15H22O5
Exact mass: 282.1467
SMILES: CCCCCCCCOC(=O)C1=CC(O)=C(O)C(O)=C1
InChI: InChI=1S/C15H22O5/c1-2-3-4-5-6-7-8-20-15(19)11-9-12(16)14(18)13(17)10-11/h9-10,16-18H,2-8H2,1H3
Instrument: Q Exactive Orbitrap (Thermo Scientific)
Instrument type: LC-ESI-QFT
Ms type: MS2
Ion mode: NEGATIVE
Ionization: ESI
Fragmentation mode: HCD
Collision energy: 60
Resolution: 17500
Column name: Acquity BEH C18 1.7um, 2.1x150mm (Waters)
Retention time: 18.717 min
Base peak: 357.026
Precursor m/z: 281.1394
Precursor type: [M-H]-
Precursor intensity: 4107917.81543
m/z	relative intensity	assigned
55.0189	10	C3H3O-
65.0033	37	C4HO-
67.019	38	C4H3O-
68.9982	31	C3HO2-
69.0346	33	C4H5O-
71.014	35	C3H3O2-
72.9931	44	C2HO3-
78.0112	4	C5H2O-
79.0188	10	C5H3O-
81.0346	12	C5H5O-
82.006	11	C4H2O2-
83.0138	55	C4H3O2-
86.001	9	C3H2O3-
87.0088	21	C3H3O3-
95.0139	30	C5H3O2-
96.9932	15	C4HO3-
97.0295	34	C5H5O2-
99.0089	12	C4H3O3-
106.0059	20	C6H2O2-
107.0137	6	C6H3O2-
110.0009	52	C5H2O3-
111.0087	331	C5H3O3-
123.0088	111	C6H3O3-
124.0166	142	C6H4O3-
125.0244	999	C6H5O3-
127.0037	143	C5H3O4-
136.988	221	C6HO4-
139.0037	340	C6H3O4-
140.0115	551	C6H4O4-
141.9903	5	C5H2O5-
151.0035	14	C7H3O4-
154.9987	50	C6H3O5-
168.0065	55	C7H4O5-
169.0143	215	C7H5O5-
281.1392	36	C15H21O5-
