Mass spectrum: N-Benzyladenine; LC-ESI-QFT; MS2; CE: 75; R=17500; [M-H]-
Name: N-Benzyladenine
Name: 6-Benzylaminopurine
Name: N-benzyl-7H-purin-6-amine
Formula: C12H11N5
Exact mass: 225.1014
SMILES: C(NC1=C2N=CN=C2N=CN1)C1=CC=CC=C1
InChI: InChI=1S/C12H11N5/c1-2-4-9(5-3-1)6-13-11-10-12(15-7-14-10)17-8-16-11/h1-5,7-8H,6H2,(H2,13,14,15,16,17)
Instrument: Q Exactive Orbitrap (Thermo Scientific)
Instrument type: LC-ESI-QFT
Ms type: MS2
Ion mode: NEGATIVE
Ionization: ESI
Fragmentation mode: HCD
Collision energy: 75
Resolution: 17500
Column name: Acquity BEH C18 1.7um, 2.1x150mm (Waters)
Retention time: 13.477 min
Base peak: 112.9857
Precursor m/z: 224.0942
Precursor type: [M-H]-
Precursor intensity: 11502124.20386
m/z	relative intensity	assigned
65.0145	2	C3HN2-
66.0097	31	C2N3-
79.0176	33	C3HN3-
92.0254	5	C4H2N3-
105.0207	7	C4HN4-
106.0285	178	C4H2N4-
117.0207	69	C5HN4-
119.0363	9	C5H3N4-
132.0317	560	C5H2N5-
133.0393	999	C5H3N5-
146.0472	3	C6H4N5-
207.0675	11	C12H7N4-
208.0752	2	C12H8N4-
222.0787	3	C12H8N5-
224.0941	1	C12H10N5-
