Mass spectrum: Labetalol; LC-ESI-QFT; MS2; CE: 15; R=17500; [M+H]+
Name: Labetalol
Name: 2-hydroxy-5-[1-hydroxy-2-(4-phenylbutan-2-ylamino)ethyl]benzamide
Formula: C19H24N2O3
Exact mass: 328.1787
SMILES: CC(CCC1=CC=CC=C1)NCC(O)C1=CC=C(O)C(=C1)C(N)=O
InChI: InChI=1S/C19H24N2O3/c1-13(7-8-14-5-3-2-4-6-14)21-12-18(23)15-9-10-17(22)16(11-15)19(20)24/h2-6,9-11,13,18,21-23H,7-8,12H2,1H3,(H2,20,24)
Instrument: Q Exactive Orbitrap (Thermo Scientific)
Instrument type: LC-ESI-QFT
Ms type: MS2
Ion mode: POSITIVE
Ionization: ESI
Fragmentation mode: HCD
Collision energy: 15
Resolution: 17500
Column name: Acquity BEH C18 1.7um, 2.1x150mm (Waters)
Retention time: 13.584 min
Base peak: 79.0211
Precursor m/z: 329.186
Precursor type: [M+H]+
Precursor intensity: 17012261.25
m/z	relative intensity	assigned
91.0548	9	C7H7+
133.1009	1	C10H13+
162.0547	10	C9H8NO2+
164.0705	1	C9H10NO2+
179.0815	19	C9H11N2O2+
190.0862	1	C11H12NO2+
207.1129	58	C11H15N2O2+
294.1489	24	C19H20NO2+
311.1753	999	C19H23N2O2+
312.1591	6	C19H22NO3+
329.186	517	C19H25N2O3+
