Mass spectrum: Nomifensine; LC-ESI-QFT; MS2; CE: 30; R=17500; [M+H]+
Name: Nomifensine
Name: 2-methyl-4-phenyl-3,4-dihydro-1H-isoquinolin-8-amine
Formula: C16H18N2
Exact mass: 238.1470
SMILES: CN1CC(C2=CC=CC=C2)C2=CC=CC(N)=C2C1
InChI: InChI=1S/C16H18N2/c1-18-10-14(12-6-3-2-4-7-12)13-8-5-9-16(17)15(13)11-18/h2-9,14H,10-11,17H2,1H3
Instrument: Q Exactive Orbitrap (Thermo Scientific)
Instrument type: LC-ESI-QFT
Ms type: MS2
Ion mode: POSITIVE
Ionization: ESI
Fragmentation mode: HCD
Collision energy: 30
Resolution: 17500
Column name: Acquity BEH C18 1.7um, 2.1x150mm (Waters)
Retention time: 13.050 min
Base peak: 79.0211
Precursor m/z: 239.1543
Precursor type: [M+H]+
Precursor intensity: 31606462
m/z	relative intensity	assigned
91.0542	70	C7H7+
106.0651	5	C7H8N+
115.0542	2	C9H7+
118.0651	25	C8H8N+
120.0808	23	C8H10N+
130.0651	37	C9H8N+
132.0807	17	C9H10N+
147.0917	4	C9H11N2+
148.0995	1	C9H12N2+
161.1073	9	C10H13N2+
179.0854	5	C14H11+
181.0883	4	C13H11N+
191.0855	1	C15H11+
194.0964	3	C14H12N+
196.1121	162	C14H14N+
198.1273	3	C14H16N+
208.1121	72	C15H14N+
210.1277	34	C15H16N+
222.1276	9	C16H16N+
224.1305	1	C15H16N2+
237.1388	4	C16H17N2+
239.1542	999	C16H19N2+
