Mass spectrum: Cyproterone acetate; LC-ESI-QFT; MS2; CE: 90; R=17500; [M+H]+
Name: Cyproterone acetate
Name: [(1S,2S,3S,5R,11R,12S,15R,16S)-15-acetyl-9-chloro-2,16-dimethyl-6-oxo-15-pentacyclo[9.7.0.02,8.03,5.012,16]octadeca-7,9-dienyl] acetate
Formula: C24H29ClO4
Exact mass: 416.1754
SMILES: CC(=O)O[C@@]1(CC[C@H]2[C@@H]3C=C(Cl)C4=CC(=O)[C@@H]5C[C@@H]5[C@]4(C)[C@H]3CC[C@]12C)C(C)=O
InChI: InChI=1S/C24H29ClO4/c1-12(26)24(29-13(2)27)8-6-16-14-10-20(25)19-11-21(28)15-9-18(15)23(19,4)17(14)5-7-22(16,24)3/h10-11,14-18H,5-9H2,1-4H3/t14-,15+,16-,17-,18-,22-,23-,24-/m0/s1
Instrument: Q Exactive Orbitrap (Thermo Scientific)
Instrument type: LC-ESI-QFT
Ms type: MS2
Ion mode: POSITIVE
Ionization: ESI
Fragmentation mode: HCD
Collision energy: 90
Resolution: 17500
Column name: Acquity BEH C18 1.7um, 2.1x150mm (Waters)
Retention time: 18.263 min
Base peak: 79.0211
Precursor m/z: 417.1827
Precursor type: [M+H]+
Precursor intensity: 3118569.5625
m/z	relative intensity	assigned
53.0022	11	C3HO+
53.0386	84	C4H5+
55.0179	52	C3H3O+
55.0543	128	C4H7+
57.0699	11	C4H9+
59.0491	22	C3H7O+
65.0386	103	C5H5+
67.0542	174	C5H7+
69.0335	18	C4H5O+
69.0698	13	C5H9+
71.0491	11	C4H7O+
77.0385	21	C6H5+
79.0542	308	C6H7+
81.0336	16	C5H5O+
81.0699	103	C6H9+
83.0492	11	C5H7O+
85.0284	8	C4H5O2+
91.0542	999	C7H7+
93.0699	171	C7H9+
94.0411	15	C6H6O+
95.0491	174	C6H7O+
95.0854	33	C7H11+
103.0543	133	C8H7+
105.0699	788	C8H9+
107.0493	61	C7H7O+
107.0856	29	C8H11+
109.0649	28	C7H9O+
113.0153	7	C6H6Cl+
115.0542	345	C9H7+
116.0621	90	C9H8+
117.0699	237	C9H9+
118.0779	13	C9H10+
119.049	13	C8H7O+
119.0856	140	C9H11+
120.0571	8	C8H8O+
121.0649	57	C8H9O+
121.1014	8	C9H13+
125.0153	29	C7H6Cl+
127.031	6	C7H8Cl+
127.0543	25	C10H7+
128.062	441	C10H8+
129.0699	340	C10H9+
130.0777	100	C10H10+
131.0492	78	C9H7O+
131.0856	145	C10H11+
132.0571	40	C9H8O+
133.0648	21	C9H9O+
133.1012	123	C10H13+
139.0311	21	C8H8Cl+
141.0699	423	C11H9+
142.0778	294	C11H10+
143.0856	136	C11H11+
144.0571	61	C10H8O+
144.0934	15	C11H12+
145.0649	129	C10H9O+
145.1009	47	C11H13+
146.0731	15	C10H10O+
147.1169	19	C11H15+
152.0621	103	C12H8+
153.0699	210	C12H9+
154.0777	95	C12H10+
155.0604	72	C9H12Cl+
155.0855	225	C12H11+
156.0933	51	C12H12+
157.0648	85	C11H9O+
157.1012	36	C12H13+
158.0728	32	C11H10O+
159.0807	30	C11H11O+
159.1173	10	C12H15+
162.0233	9	C10H7Cl+
163.0314	11	C10H8Cl+
165.0699	395	C13H9+
166.0778	157	C13H10+
167.0855	220	C13H11+
168.0569	20	C12H8O+
168.0934	56	C13H12+
169.065	77	C12H9O+
169.1011	55	C13H13+
170.0728	39	C12H10O+
171.0804	52	C12H11O+
171.1168	12	C13H15+
172.0886	9	C12H12O+
173.0966	9	C12H13O+
175.031	33	C11H8Cl+
178.0178	11	C10H7ClO+
178.0777	218	C14H10+
179.0856	277	C14H11+
180.0933	92	C14H12+
181.0648	62	C13H9O+
181.1012	118	C14H13+
182.0729	24	C13H10O+
182.1094	19	C14H14+
183.0808	29	C13H11O+
183.1165	36	C14H15+
184.0886	11	C13H12O+
185.0963	21	C13H13O+
189.0469	19	C12H10Cl+
189.0699	62	C15H9+
190.0777	77	C15H10+
191.0856	200	C15H11+
192.0934	127	C15H12+
193.1012	133	C15H13+
194.0729	37	C14H10O+
194.1095	30	C15H14+
195.0805	44	C14H11O+
195.1171	47	C15H15+
196.0893	9	C14H12O+
196.1249	11	C15H16+
202.0778	141	C16H10+
203.0855	191	C16H11+
204.0935	103	C16H12+
205.0418	9	C12H10ClO+
205.1014	141	C16H13+
206.073	19	C15H10O+
206.1094	43	C16H14+
207.0806	72	C15H11O+
207.1171	41	C16H15+
208.0881	52	C15H12O+
208.1247	11	C16H16+
209.096	31	C15H13O+
209.1329	22	C16H17+
215.0857	110	C17H11+
216.0935	81	C17H12+
217.1014	101	C17H13+
218.0726	19	C16H10O+
218.109	48	C17H14+
219.0804	45	C16H11O+
219.1165	73	C17H15+
220.0887	29	C16H12O+
220.1252	27	C17H16+
221.0961	65	C16H13O+
221.1319	31	C17H17+
222.1041	18	C16H14O+
223.1126	8	C16H15O+
229.1015	74	C18H13+
230.109	39	C18H14+
231.1169	76	C18H15+
232.088	32	C17H12O+
233.096	64	C17H13O+
233.133	28	C18H17+
234.1041	25	C17H14O+
235.1118	38	C17H15O+
235.1487	18	C18H19+
236.1199	8	C17H16O+
243.1165	14	C19H15+
245.1329	21	C19H17+
246.104	7	C18H14O+
247.1117	36	C18H15O+
248.1201	30	C18H16O+
249.1278	25	C18H17O+
261.1273	8	C19H17O+
263.1434	20	C19H19O+
