Mass spectrum: Laurocapram; LC-ESI-QFT; MS2; CE: 45; R=17500; [M+H]+
Name: Laurocapram
Name: 1-dodecylazepan-2-one
Formula: C18H35NO
Exact mass: 281.2719
SMILES: CCCCCCCCCCCCN1CCCCCC1=O
InChI: InChI=1S/C18H35NO/c1-2-3-4-5-6-7-8-9-10-13-16-19-17-14-11-12-15-18(19)20/h2-17H2,1H3
Instrument: Q Exactive Orbitrap (Thermo Scientific)
Instrument type: LC-ESI-QFT
Ms type: MS2
Ion mode: POSITIVE
Ionization: ESI
Fragmentation mode: HCD
Collision energy: 45
Resolution: 17500
Column name: Acquity BEH C18 1.7um, 2.1x150mm (Waters)
Retention time: 21.255 min
Base peak: 79.0212
Precursor m/z: 282.2791
Precursor type: [M+H]+
Precursor intensity: 53227144.79687
m/z	relative intensity	assigned
53.0022	2	C3HO+
55.0542	3	C4H7+
57.0699	66	C4H9+
67.0543	2	C5H7+
68.0495	5	C4H6N+
69.0698	47	C5H9+
71.0855	39	C5H11+
72.0807	2	C4H10N+
79.0542	51	C6H7+
81.0698	4	C6H9+
84.0807	1	C5H10N+
85.1012	13	C6H13+
86.0964	2	C5H12N+
96.0808	70	C6H10N+
97.0648	13	C6H9O+
98.0964	6	C6H12N+
110.0964	1	C7H12N+
114.0914	511	C6H12NO+
126.0911	4	C7H12NO+
128.1069	11	C7H14NO+
142.1227	5	C8H16NO+
156.1382	4	C9H18NO+
170.1541	2	C10H20NO+
184.2059	6	C12H26N+
186.2217	2	C12H28N+
254.2839	1	C17H36N+
264.2686	8	C18H34N+
280.2636	1	C18H34NO+
282.2791	999	C18H36NO+
