Mass spectrum: Diphenamid; LC-ESI-QFT; MS2; CE: 90; R=17500; [M+H]+
Name: Diphenamid
Name: N,N-dimethyl-2,2-diphenylacetamide
Formula: C16H17NO
Exact mass: 239.1310
SMILES: CN(C)C(=O)C(C1=CC=CC=C1)C1=CC=CC=C1
InChI: InChI=1S/C16H17NO/c1-17(2)16(18)15(13-9-5-3-6-10-13)14-11-7-4-8-12-14/h3-12,15H,1-2H3
Instrument: Q Exactive Orbitrap (Thermo Scientific)
Instrument type: LC-ESI-QFT
Ms type: MS2
Ion mode: POSITIVE
Ionization: ESI
Fragmentation mode: HCD
Collision energy: 90
Resolution: 17500
Column name: Acquity BEH C18 1.7um, 2.1x150mm (Waters)
Retention time: 16.705 min
Base peak: 79.0211
Precursor m/z: 240.1383
Precursor type: [M+H]+
Precursor intensity: 45036378.5
m/z	relative intensity	assigned
53.0385	2	C4H5+
56.0131	2	C2H2NO+
56.0495	8	C3H6N+
65.0385	8	C5H5+
67.0542	4	C5H7+
68.0494	1	C4H6N+
72.0443	106	C3H6NO+
77.0385	1	C6H5+
79.0541	4	C6H7+
89.0385	1	C7H5+
91.0542	306	C7H7+
93.0699	10	C7H9+
94.0651	12	C6H8N+
95.0491	6	C6H7O+
103.0542	8	C8H7+
104.0494	5	C7H6N+
105.0698	12	C8H9+
106.0651	2	C7H8N+
115.0542	5	C9H7+
117.0573	5	C8H7N+
118.065	147	C8H8N+
119.0729	45	C8H9N+
128.062	11	C10H8+
132.0808	18	C9H10N+
133.0883	2	C9H11N+
134.0963	999	C9H12N+
141.0698	14	C11H9+
146.0599	1	C9H8NO+
147.0676	1	C9H9NO+
151.0542	2	C12H7+
152.062	294	C12H8+
160.0759	2	C10H10NO+
165.0698	279	C13H9+
166.0776	78	C13H10+
167.0854	92	C13H11+
169.0646	13	C12H9O+
