Mass spectrum: 4-Chlorophenylurea; LC-ESI-QFT; MS2; CE: 15; R=17500; [M+H]+
Name: 4-Chlorophenylurea
Name: (4-chlorophenyl)urea
Formula: C7H7ClN2O
Exact mass: 170.0247
SMILES: NC(=O)NC1=CC=C(Cl)C=C1
InChI: InChI=1S/C7H7ClN2O/c8-5-1-3-6(4-2-5)10-7(9)11/h1-4H,(H3,9,10,11)
Instrument: Q Exactive Orbitrap (Thermo Scientific)
Instrument type: LC-ESI-QFT
Ms type: MS2
Ion mode: POSITIVE
Ionization: ESI
Fragmentation mode: HCD
Collision energy: 15
Resolution: 17500
Column name: Acquity BEH C18 1.7um, 2.1x150mm (Waters)
Retention time: 1.016 min
Base peak: 79.0212
Precursor m/z: 171.032
Precursor type: [M+H]+
Precursor intensity: 3290077.25
m/z	relative intensity	assigned
55.0543	11	C4H7+
72.0444	192	C3H6NO+
73.0285	10	ClH8NO+
114.971	57	C3ClN2O+
128.9866	75	C4H2ClN2O+
139.0076	10	C6H4ClN2+
143.0023	90	C5H4ClN2O+
152.9869	12	C6H2ClN2O+
155.0022	47	C6H4ClN2O+
157.0179	999	C6H6ClN2O+
