Mass spectrum: 3,3`,5,5`-Tetramethylbenzidine; LC-ESI-QFT; MS2; CE: 45; R=17500; [M+H]+
Name: 3,3',5,5'-Tetramethylbenzidine
Name: 4-(4-amino-3,5-dimethylphenyl)-2,6-dimethylaniline
Formula: C16H20N2
Exact mass: 240.1626
SMILES: CC1=CC(=CC(C)=C1N)C1=CC(C)=C(N)C(C)=C1
InChI: InChI=1S/C16H20N2/c1-9-5-13(6-10(2)15(9)17)14-7-11(3)16(18)12(4)8-14/h5-8H,17-18H2,1-4H3
Instrument: Q Exactive Orbitrap (Thermo Scientific)
Instrument type: LC-ESI-QFT
Ms type: MS2
Ion mode: POSITIVE
Ionization: ESI
Fragmentation mode: HCD
Collision energy: 45
Resolution: 17500
Column name: Acquity BEH C18 1.7um, 2.1x150mm (Waters)
Retention time: 13.490 min
Base peak: 79.0211
Precursor m/z: 241.1699
Precursor type: [M+H]+
Precursor intensity: 39571679.28125
m/z	relative intensity	assigned
120.0808	75	C8H10N+
121.0886	49	C8H11N+
134.0966	13	C9H12N+
158.0969	6	C11H12N+
159.1048	5	C11H13N+
192.0935	12	C15H12+
194.0966	70	C14H12N+
195.1047	5	C14H13N+
207.1169	18	C16H15+
208.1123	15	C15H14N+
209.12	646	C15H15N+
210.1129	4	C14H14N2+
224.1434	999	C16H18N+
225.1492	14	C16H19N+
226.1469	773	C15H18N2+
239.1542	6	C16H19N2+
240.1615	114	C16H20N2+
