Mass spectrum: 4-Androstene-3,17-dione; LC-ESI-QFT; MS2; CE: 30; R=17500; [M+H]+
Name: 4-Androstene-3,17-dione
Name: Androstenedione
Name: (8R,9S,10R,13S,14S)-10,13-dimethyl-2,6,7,8,9,11,12,14,15,16-decahydro-1H-cyclopenta[a]phenanthrene-3,17-dione
Formula: C19H26O2
Exact mass: 286.1933
SMILES: [H][C@@]12CCC(=O)[C@@]1(C)CC[C@@]1([H])[C@@]2([H])CCC2=CC(=O)CC[C@]12C
InChI: InChI=1S/C19H26O2/c1-18-9-7-13(20)11-12(18)3-4-14-15-5-6-17(21)19(15,2)10-8-16(14)18/h11,14-16H,3-10H2,1-2H3/t14-,15-,16-,18-,19-/m0/s1
Instrument: Q Exactive Orbitrap (Thermo Scientific)
Instrument type: LC-ESI-QFT
Ms type: MS2
Ion mode: POSITIVE
Ionization: ESI
Fragmentation mode: HCD
Collision energy: 30
Resolution: 17500
Column name: Acquity BEH C18 1.7um, 2.1x150mm (Waters)
Retention time: 17.321 min
Base peak: 79.0211
Precursor m/z: 287.2006
Precursor type: [M+H]+
Precursor intensity: 2313522.84375
m/z	relative intensity	assigned
79.0543	4	C6H7+
81.07	6	C6H9+
83.0492	43	C5H7O+
93.0699	3	C7H9+
95.0855	3	C7H11+
97.0649	999	C6H9O+
105.0699	2	C8H9+
107.0855	7	C8H11+
109.0649	491	C7H9O+
119.0856	9	C9H11+
121.1012	9	C9H13+
123.0805	42	C8H11O+
131.0856	3	C10H11+
133.1012	8	C10H13+
135.117	4	C10H15+
137.096	3	C9H13O+
143.0853	3	C11H11+
145.1014	15	C11H13+
147.1168	11	C11H15+
157.1012	5	C12H13+
159.1169	13	C12H15+
161.1327	7	C12H17+
169.1013	4	C13H13+
171.1169	7	C13H15+
173.1325	27	C13H17+
183.1169	7	C14H15+
185.1325	20	C14H17+
187.1484	13	C14H19+
195.1172	5	C15H15+
209.1327	6	C16H17+
211.1484	32	C16H19+
217.1588	11	C15H21O+
225.1642	6	C17H21+
229.159	15	C16H21O+
251.1796	33	C19H23+
269.19	75	C19H25O+
287.2007	818	C19H27O2+
