Mass spectrum: Undecanedioic acid; LC-ESI-QFT; MS2; CE: 30; R=17500; [M-H]-
Name: Undecanedioic acid
Formula: C11H20O4
Exact mass: 216.1362
SMILES: OC(=O)CCCCCCCCCC(O)=O
InChI: InChI=1S/C11H20O4/c12-10(13)8-6-4-2-1-3-5-7-9-11(14)15/h1-9H2,(H,12,13)(H,14,15)
Instrument: Q Exactive Orbitrap (Thermo Scientific)
Instrument type: LC-ESI-QFT
Ms type: MS2
Ion mode: NEGATIVE
Ionization: ESI
Fragmentation mode: HCD
Collision energy: 30
Resolution: 17500
Column name: Acquity BEH C18 1.7um, 2.1x150mm (Waters)
Retention time: 16.712 min
Base peak: 429.0536
Precursor m/z: 215.1289
Precursor type: [M-H]-
Precursor intensity: 27237889.30664
m/z	relative intensity	assigned
57.0345	5	C3H5O-
125.0972	7	C8H13O-
151.1127	3	C10H15O-
153.1285	608	C10H17O-
171.1391	17	C10H19O2-
197.1183	999	C11H17O3-
215.1288	840	C11H19O4-
