Mass spectrum: Flurandrenolide; LC-ESI-QFT; MS2; CE: 30; R=17500; [M+H]+
Name: Flurandrenolide
Name: (1S,2S,4R,8S,9S,11S,12S,13R,19S)-19-fluoro-11-hydroxy-8-(2-hydroxyacetyl)-6,6,9,13-tetramethyl-5,7-dioxapentacyclo[10.8.0.02,9.04,8.013,18]icos-17-en-16-one
Formula: C24H33FO6
Exact mass: 436.2261
SMILES: CC1(C)O[C@@H]2C[C@H]3[C@@H]4C[C@H](F)C5=CC(=O)CC[C@]5(C)[C@H]4[C@@H](O)C[C@]3(C)[C@@]2(O1)C(=O)CO
InChI: InChI=1S/C24H33FO6/c1-21(2)30-19-9-14-13-8-16(25)15-7-12(27)5-6-22(15,3)20(13)17(28)10-23(14,4)24(19,31-21)18(29)11-26/h7,13-14,16-17,19-20,26,28H,5-6,8-11H2,1-4H3/t13-,14-,16-,17-,19+,20+,22-,23-,24+/m0/s1
Instrument: Q Exactive Orbitrap (Thermo Scientific)
Instrument type: LC-ESI-QFT
Ms type: MS2
Ion mode: POSITIVE
Ionization: ESI
Fragmentation mode: HCD
Collision energy: 30
Resolution: 17500
Column name: Acquity BEH C18 1.7um, 2.1x150mm (Waters)
Retention time: 17.165 min
Base peak: 79.0212
Precursor m/z: 437.2334
Precursor type: [M+H]+
Precursor intensity: 600389.8125
m/z	relative intensity	assigned
59.0492	370	C3H7O+
69.0336	72	C4H5O+
81.0699	89	C6H9+
83.0492	164	C5H7O+
93.07	86	C7H9+
95.0857	98	C7H11+
97.0648	205	C6H9O+
99.044	370	C5H7O2+
101.0233	183	C4H5O3+
105.07	269	C8H9+
107.0856	112	C8H11+
109.0648	146	C7H9O+
115.0391	188	C5H7O3+
119.0857	169	C9H11+
121.0649	679	C8H9O+
123.0806	122	C8H11O+
127.0554	104	C7H8FO+
131.0856	167	C10H11+
133.0649	133	C9H9O+
133.1013	99	C10H13+
135.0804	258	C9H11O+
137.0596	76	C8H9O2+
139.0556	312	C8H8FO+
139.0753	77	C8H11O2+
141.0708	105	C8H10FO+
143.0856	289	C11H11+
145.065	106	C10H9O+
145.1014	222	C11H13+
147.0803	277	C10H11O+
147.1168	108	C11H15+
149.0958	81	C10H13O+
151.0918	75	C10H12F+
155.0858	196	C12H11+
157.1015	301	C12H13+
159.0805	252	C11H11O+
159.1171	109	C12H15+
161.0963	267	C11H13O+
163.0754	70	C10H11O2+
169.1013	334	C13H13+
171.0807	366	C12H11O+
171.1171	126	C13H15+
173.0962	399	C12H13O+
181.1019	558	C11H14FO+
183.0809	80	C13H11O+
183.117	177	C14H15+
185.0963	297	C13H13O+
187.1122	197	C13H15O+
189.0911	55	C12H13O2+
193.1014	133	C15H13+
195.1167	171	C15H15+
197.0961	173	C14H13O+
197.1324	95	C15H17+
199.1118	173	C14H15O+
207.1172	428	C16H15+
209.0971	273	C12H14FO2+
209.1327	186	C16H17+
211.1122	222	C15H15O+
213.1275	152	C15H17O+
219.118	136	C14H16FO+
221.0965	69	C16H13O+
221.1323	187	C17H17+
223.1117	193	C16H15O+
225.1274	807	C16H17O+
227.1434	358	C16H19O+
233.1326	84	C18H17+
235.1488	224	C15H20FO+
237.1276	336	C17H17O+
239.1435	336	C17H19O+
241.1591	157	C17H21O+
245.1336	475	C16H18FO+
247.1495	557	C16H20FO+
249.1636	94	C19H21+
251.1435	141	C18H19O+
253.1591	199	C18H21O+
257.1342	145	C17H18FO+
261.1654	241	C17H22FO+
263.1435	447	C19H19O+
265.1589	765	C19H21O+
267.1742	161	C19H23O+
271.1507	97	C18H20FO+
277.159	773	C20H21O+
281.1541	255	C19H21O2+
283.1502	145	C19H20FO+
287.1434	110	C21H19O+
303.1758	835	C19H24FO2+
315.1761	589	C20H24FO2+
323.1644	999	C21H23O3+
