Mass spectrum: Pyrimethanil; LC-ESI-QFT; MS2; CE: 75; R=17500; [M+H]+
Name: Pyrimethanil
Name: 4,6-dimethyl-N-phenylpyrimidin-2-amine
Formula: C12H13N3
Exact mass: 199.1109
SMILES: CC1=CC(C)=NC(NC2=CC=CC=C2)=N1
InChI: InChI=1S/C12H13N3/c1-9-8-10(2)14-12(13-9)15-11-6-4-3-5-7-11/h3-8H,1-2H3,(H,13,14,15)
Instrument: Q Exactive Orbitrap (Thermo Scientific)
Instrument type: LC-ESI-QFT
Ms type: MS2
Ion mode: POSITIVE
Ionization: ESI
Fragmentation mode: HCD
Collision energy: 75
Resolution: 17500
Column name: Acquity BEH C18 1.7um, 2.1x150mm (Waters)
Retention time: 16.235 min
Base peak: 79.0211
Precursor m/z: 200.1182
Precursor type: [M+H]+
Precursor intensity: 31397152.25
m/z	relative intensity	assigned
53.0386	78	C4H5+
54.0339	2	C3H4N+
55.0542	21	C4H7+
56.0496	8	C3H6N+
58.0652	28	C3H8N+
63.023	2	C5H3+
65.0386	67	C5H5+
66.0338	132	C4H4N+
67.0291	67	C3H3N2+
67.0416	80	C4H5N+
70.0651	9	C4H8N+
77.0384	9	C6H5+
78.0464	8	C6H6+
80.0495	403	C5H6N+
81.0574	4	C5H7N+
82.0651	867	C5H8N+
83.0604	79	C4H7N2+
90.0338	3	C6H4N+
91.0542	23	C7H7+
92.037	8	C5H4N2+
92.0495	100	C6H6N+
93.0574	79	C6H7N+
94.0652	18	C6H8N+
95.0492	54	C4H5N3+
95.0604	5	C5H7N2+
96.0682	2	C5H8N2+
97.0763	7	C5H9N2+
104.0495	3	C7H6N+
105.0448	25	C6H5N2+
107.0604	781	C6H7N2+
108.0683	6	C6H8N2+
115.0542	43	C9H7+
116.0495	9	C8H6N+
117.0573	19	C8H7N+
118.0525	29	C7H6N2+
118.0651	86	C8H8N+
119.0605	132	C7H7N2+
123.0792	9	C6H9N3+
124.0871	4	C6H10N3+
128.0494	3	C9H6N+
128.0618	3	C10H8+
129.0699	25	C10H9+
130.065	3	C9H8N+
131.0604	20	C8H7N2+
132.0683	2	C8H8N2+
132.0807	12	C9H10N+
139.0542	7	C11H7+
140.0496	11	C10H6N+
141.0573	8	C10H7N+
142.0653	98	C10H8N+
143.0605	169	C9H7N2+
143.073	34	C10H9N+
146.0839	4	C9H10N2+
154.0652	3	C11H8N+
155.0605	5	C10H7N2+
155.0732	2	C11H9N+
156.0691	12	C10H8N2+
156.0808	52	C11H10N+
157.0762	4	C10H9N2+
157.0887	2	C11H11N+
158.084	14	C10H10N2+
158.0963	16	C11H12N+
159.0918	77	C10H11N2+
160.0999	7	C10H12N2+
166.0653	39	C12H8N+
167.0608	2	C11H7N2+
167.0731	44	C12H9N+
168.0682	315	C11H8N2+
171.0793	4	C10H9N3+
172.0994	1	C11H12N2+
173.1075	18	C11H13N2+
181.0761	56	C12H9N2+
182.084	342	C12H10N2+
183.0918	487	C12H11N2+
184.087	10	C11H10N3+
185.0948	28	C11H11N3+
198.1026	21	C12H12N3+
199.1107	8	C12H13N3+
200.1183	999	C12H14N3+
