Mass spectrum: Forchlorfenuron; LC-ESI-QFT; MS2; CE: 90; R=17500; [M+H]+
Name: Forchlorfenuron
Name: 1-(2-chloropyridin-4-yl)-3-phenylurea
Formula: C12H10ClN3O
Exact mass: 247.0512
SMILES: ClC1=NC=CC(NC(=O)NC2=CC=CC=C2)=C1
InChI: InChI=1S/C12H10ClN3O/c13-11-8-10(6-7-14-11)16-12(17)15-9-4-2-1-3-5-9/h1-8H,(H2,14,15,16,17)
Instrument: Q Exactive Orbitrap (Thermo Scientific)
Instrument type: LC-ESI-QFT
Ms type: MS2
Ion mode: POSITIVE
Ionization: ESI
Fragmentation mode: HCD
Collision energy: 90
Resolution: 17500
Column name: Acquity BEH C18 1.7um, 2.1x150mm (Waters)
Retention time: 16.717 min
Base peak: 79.0211
Precursor m/z: 248.0585
Precursor type: [M+H]+
Precursor intensity: 21669749.75
m/z	relative intensity	assigned
52.0181	2	C3H2N+
53.0022	10	C3HO+
53.0386	4	C4H5+
53.9975	1	C2NO+
56.0495	71	C3H6N+
65.0386	2	C5H5+
66.0338	64	C4H4N+
67.029	1	C3H3N2+
68.0494	4	C4H6N+
76.0181	5	C5H2N+
77.0386	1	C6H5+
82.0287	20	C4H4NO+
84.0443	5	C4H6NO+
92.0494	11	C6H6N+
93.0447	171	C5H5N2+
94.0526	1	C5H6N2+
94.0651	10	C6H8N+
95.0491	12	C6H7O+
98.0601	7	C5H8NO+
105.0447	5	C6H5N2+
111.0553	999	C5H7N2O+
112.0393	5	C2H9ClN2O+
113.0596	1	C4H7N3O+
119.024	23	C6H3N2O+
120.0442	1	C7H6NO+
125.0709	19	C6H9N2O+
126.0425	1	C2H9ClN3O+
129.0214	374	C5H6ClN2+
130.0053	4	C5H5ClNO+
137.0346	101	C3H8ClN3O+
151.0504	1	C4H10ClN3O+
155.0006	35	C6H4ClN2O+
