Mass spectrum: Diflufenzopyr; LC-ESI-QFT; MS2; CE: 60; R=17500; [M+H]+
Name: Diflufenzopyr
Name: 2-[(E)-N-[(3,5-difluorophenyl)carbamoylamino]-C-methylcarbonimidoyl]pyridine-3-carboxylic acid
Formula: C15H12F2N4O3
Exact mass: 334.0877
SMILES: C\C(=N/NC(=O)NC1=CC(F)=CC(F)=C1)C1=NC=CC=C1C(O)=O
InChI: InChI=1S/C15H12F2N4O3/c1-8(13-12(14(22)23)3-2-4-18-13)20-21-15(24)19-11-6-9(16)5-10(17)7-11/h2-7H,1H3,(H,22,23)(H2,19,21,24)/b20-8+
Instrument: Q Exactive Orbitrap (Thermo Scientific)
Instrument type: LC-ESI-QFT
Ms type: MS2
Ion mode: POSITIVE
Ionization: ESI
Fragmentation mode: HCD
Collision energy: 60
Resolution: 17500
Column name: Acquity BEH C18 1.7um, 2.1x150mm (Waters)
Retention time: 16.398 min
Base peak: 79.0211
Precursor m/z: 335.095
Precursor type: [M+H]+
Precursor intensity: 2764388.78125
m/z	relative intensity	assigned
63.023	19	C5H3+
68.0494	52	C4H6N+
78.0338	85	C5H4N+
80.0495	102	C5H6N+
90.0338	41	C6H4N+
92.0494	45	C6H6N+
93.0447	55	C5H5N2+
94.0288	15	C5H4NO+
96.0444	999	C5H6NO+
104.0494	110	C7H6N+
105.0448	37	C6H5N2+
106.0288	35	C6H4NO+
106.0651	47	C7H8N+
107.0604	52	C6H7N2+
107.0732	34	C7H9N+
108.0444	179	C6H6NO+
110.0601	73	C6H8NO+
112.0394	56	C5H6NO2+
117.0448	206	C7H5N2+
118.0526	66	C7H6N2+
119.0604	31	C7H7N2+
120.0444	35	C7H6NO+
121.0397	150	C6H5N2O+
122.0601	50	C7H8NO+
124.0395	196	C6H6NO2+
130.0465	17	C6H6F2N+
131.0242	36	C7H3N2O+
132.0443	73	C8H6NO+
133.0396	120	C7H5N2O+
135.0553	232	C7H7N2O+
140.0344	54	C6H6NO3+
144.056	53	C8H6N3+
145.0396	155	C8H5N2O+
146.0475	227	C8H6N2O+
148.0394	176	C8H6NO2+
150.0553	73	C8H8NO2+
151.0629	36	C8H9NO2+
161.0709	41	C9H9N2O+
162.0662	868	C8H8N3O+
163.0502	642	C8H7N2O2+
188.0456	26	C9H6N3O2+
