Mass spectrum: Chloridazon; LC-ESI-QFT; MS2; CE: 75; R=17500; [M-H]-
Name: Chloridazon
Name: 5-amino-4-chloro-2-phenylpyridazin-3-one
Formula: C10H8ClN3O
Exact mass: 221.0356
SMILES: NC1=C(Cl)C(=O)N(N=C1)C1=CC=CC=C1
InChI: InChI=1S/C10H8ClN3O/c11-9-8(12)6-13-14(10(9)15)7-4-2-1-3-5-7/h1-6H,12H2
Instrument: Q Exactive Orbitrap (Thermo Scientific)
Instrument type: LC-ESI-QFT
Ms type: MS2
Ion mode: NEGATIVE
Ionization: ESI
Fragmentation mode: HCD
Collision energy: 75
Resolution: 17500
Column name: Acquity BEH C18 1.7um, 2.1x150mm (Waters)
Retention time: 13.150 min
Base peak: 118.0299
Precursor m/z: 220.0283
Precursor type: [M-H]-
Precursor intensity: 9041028.772461
m/z	relative intensity	assigned
50.0035	9	C3N-
64.0067	11	C3N2-
65.0145	149	C3HN2-
65.9986	195	C3NO-
73.9803	214	C2HClN-
74.9643	999	C2ClO-
90.0349	2	C6H4N-
92.0506	31	C6H6N-
100.9674	8	C3ClNO-
100.9912	5	C3H2ClN2-
101.9754	10	C3HClNO-
113.0397	3	C9H5-
117.0458	167	C7H5N2-
118.0299	11	C7H4NO-
133.0407	4	C7H5N2O-
141.0459	3	C9H5N2-
144.057	2	C8H6N3-
150.0116	41	C8H5ClN-
