Mass spectrum: Triethylene glycol dibenzoate; LC-ESI-QFT; MS2; CE: 15; R=17500; [M+H]+
Name: Triethylene glycol dibenzoate
Name: 2-[2-(2-benzoyloxyethoxy)ethoxy]ethyl benzoate
Formula: C20H22O6
Exact mass: 358.1416
SMILES: O=C(OCCOCCOCCOC(=O)C1=CC=CC=C1)C1=CC=CC=C1
InChI: InChI=1S/C20H22O6/c21-19(17-7-3-1-4-8-17)25-15-13-23-11-12-24-14-16-26-20(22)18-9-5-2-6-10-18/h1-10H,11-16H2
Instrument: Q Exactive Orbitrap (Thermo Scientific)
Instrument type: LC-ESI-QFT
Ms type: MS2
Ion mode: POSITIVE
Ionization: ESI
Fragmentation mode: HCD
Collision energy: 15
Resolution: 17500
Column name: Acquity BEH C18 1.7um, 2.1x150mm (Waters)
Retention time: 18.034 min
Base peak: 79.0212
Precursor m/z: 359.1489
Precursor type: [M+H]+
Precursor intensity: 2977476.8125
m/z	relative intensity	assigned
105.0333	16	C7H5O+
149.0599	999	C9H9O2+
