Mass spectrum: 5-Nitroisophthalic acid; LC-ESI-QFT; MS2; CE: 15; R=17500; [M-H]-
Name: 5-Nitroisophthalic acid
Name: 5-nitrobenzene-1,3-dicarboxylic acid
Formula: C8H5NO6
Exact mass: 211.0117
SMILES: OC(=O)C1=CC(=CC(=C1)C(O)=O)[N+]([O-])=O
InChI: InChI=1S/C8H5NO6/c10-7(11)4-1-5(8(12)13)3-6(2-4)9(14)15/h1-3H,(H,10,11)(H,12,13)
Instrument: Q Exactive Orbitrap (Thermo Scientific)
Instrument type: LC-ESI-QFT
Ms type: MS2
Ion mode: NEGATIVE
Ionization: ESI
Fragmentation mode: HCD
Collision energy: 15
Resolution: 17500
Column name: Acquity BEH C18 1.7um, 2.1x150mm (Waters)
Retention time: 14.316 min
Base peak: 112.9857
Precursor m/z: 210.0044
Precursor type: [M-H]-
Precursor intensity: 1482595.405762
m/z	relative intensity	assigned
63.024	9	C5H3-
65.0033	7	C4HO-
107.0138	14	C6H3O2-
119.0138	131	C7H3O2-
122.0247	17	C6H4NO2-
123.0087	27	C6H3O3-
136.0168	3	C7H4O3-
166.0146	999	C7H4NO4-
210.0044	41	C8H4NO6-
