Mass spectrum: Thiazopyr; LC-ESI-QFT; MS2; CE: 60; R=17500; [M+H]+
Name: Thiazopyr
Name: methyl 2-(difluoromethyl)-5-(4,5-dihydro-1,3-thiazol-2-yl)-4-(2-methylpropyl)-6-(trifluoromethyl)pyridine-3-carboxylate
Formula: C16H17F5N2O2S
Exact mass: 396.0931
SMILES: COC(=O)C1=C(CC(C)C)C(C2=NCCS2)=C(N=C1C(F)F)C(F)(F)F
InChI: InChI=1S/C16H17F5N2O2S/c1-7(2)6-8-9(15(24)25-3)11(13(17)18)23-12(16(19,20)21)10(8)14-22-4-5-26-14/h7,13H,4-6H2,1-3H3
Instrument: Q Exactive Orbitrap (Thermo Scientific)
Instrument type: LC-ESI-QFT
Ms type: MS2
Ion mode: POSITIVE
Ionization: ESI
Fragmentation mode: HCD
Collision energy: 60
Resolution: 17500
Column name: Acquity BEH C18 1.7um, 2.1x150mm (Waters)
Retention time: 18.344 min
Base peak: 79.0211
Precursor m/z: 397.1004
Precursor type: [M+H]+
Precursor intensity: 24090497.25
m/z	relative intensity	assigned
53.0022	6	C3HO+
58.995	31	C2H3S+
60.0028	32	C2H4S+
61.0106	999	C2H5S+
73.0648	14	C4H9O+
75.0263	19	C3H7S+
76.0215	25	C2H6NS+
128.0621	6	C10H8+
129.0699	25	C10H9+
133.045	4	C9H6F+
136.9929	5	C6H3NOS+
146.0062	3	C8H4NS+
147.0606	8	C10H8F+
148.0214	2	F5H7NS+
148.0561	2	C9H7FN+
153.0512	3	C9H7F2+
154.0652	17	C11H8N+
155.0604	5	C10H7N2+
155.0729	12	C11H9N+
156.0809	2	C11H10N+
160.0556	4	C10H7FN+
161.0168	2	C8H5N2S+
165.0511	3	C10H7F2+
166.0122	4	C8H5FNS+
170.0212	2	C8H3F3N+
172.0216	5	C10H6NS+
172.0761	2	C11H10NO+
173.0512	3	C10H6FN2+
174.0715	61	C11H9FN+
175.0666	7	C10H8FN2+
175.079	6	C11H10FN+
176.0312	1	C7H5F3NO+
176.087	3	C11H11FN+
177.0514	3	C11H7F2+
178.0121	2	C9H5FNS+
178.0662	5	C10H9FNO+
179.0417	2	C9H5F2N2+
180.062	8	C10H8F2N+
181.076	10	C12H9N2+
183.0555	2	C11H7N2O+
184.0024	4	C8H4F2NS+
184.0226	2	C8H7FNOS+
184.0559	4	C12H7FN+
185.0714	2	C11H9N2O+
186.0183	8	C8H6F2NS+
186.0589	12	C11H7FN2+
187.0667	9	C11H8FN2+
188.0508	6	C11H7FNO+
190.0464	10	C11H6F2N+
190.0665	7	C11H9FNO+
191.0075	2	C9H4FN2S+
191.0416	8	C10H5F2N2+
192.0277	6	C10H7FNS+
192.0617	6	C11H8F2N+
192.0819	82	C11H11FNO+
193.0776	9	C10H10FN2O+
194.0072	2	C9H5FNOS+
194.0776	9	C11H10F2N+
195.0563	2	C9H8FN2O2+
196.0569	3	C10H8F2NO+
198.0184	8	C9H6F2NS+
199.0325	6	C11H7N2S+
199.0479	7	C9H6F3N2+
201.0823	51	C12H10FN2+
201.9934	1	C8H3F3NS+
202.0665	30	C12H9FNO+
202.0899	4	C12H11FN2+
203.0011	7	C8H4F3NS+
203.0618	8	C11H8FN2O+
204.0617	12	C12H8F2N+
204.0821	4	C12H11FNO+
205.0234	12	C10H6FN2S+
205.0572	5	C11H7F2N2+
206.0651	44	C11H8F2N2+
206.0975	5	C12H13FNO+
207.0732	12	C11H9F2N2+
208.0025	7	C10H4F2NS+
208.0567	6	C11H8F2NO+
208.9978	5	C9H3F2N2S+
209.0709	4	C13H9N2O+
210.0526	20	C11H7F3N+
211.0139	12	C9H5F2N2S+
211.0327	6	C12H7N2S+
211.0482	5	C10H6F3N2+
211.0678	3	C10H9F2N2O+
212.02	2	C6H4F4N2O2+
213.0268	6	C9H4F3N2O+
213.0473	5	C9H7F2N2O2+
214.0132	7	C9H6F2NOS+
214.0541	5	C12H7FN2O+
214.989	2	C8H2F3N2S+
215.0077	7	C11H4FN2S+
215.0226	3	C9H3F4N2+
215.0425	4	C9H6F3N2O+
215.0615	10	C12H8FN2O+
215.0977	5	C13H12FN2+
215.9968	4	C8H3F3N2S+
217.0226	3	C11H6FN2S+
217.0443	2	C11H9N2OS+
217.0571	43	C12H7F2N2+
217.0761	2	C15H9N2+
218.0314	4	C11H7FN2S+
219.0384	37	C11H8FN2S+
220.0229	11	C11H7FNOS+
220.0572	2	C12H8F2NO+
220.0779	6	C4H15F5NOS+
221.0886	41	C12H11F2N2+
222.0725	173	C12H10F2NO+
223.0485	4	C8H7F4N2O+
223.0678	26	C11H9F2N2O+
224.0213	10	C10H6F2N2S+
224.0558	2	C11H7F3N2+
224.0682	40	C12H9F3N+
225.0053	2	C10H5F2NOS+
225.0292	29	C10H7F2N2S+
226.0369	6	C10H8F2N2S+
226.9883	2	C9H2F3N2S+
227.0089	3	C9H5F2N2OS+
227.0439	7	C7H7F4N2O2+
228.0085	9	C10H5F3NS+
228.0635	9	C11H9F3NO+
229.023	7	C12H3F2N2O+
229.0582	2	C10H8F3N2O+
229.0775	54	C13H10FN2O+
230.0121	24	C9H5F3N2S+
230.045	8	C10H10F2NOS+
231.0023	1	C11H4FN2OS+
231.0387	7	C12H8FN2S+
231.0697	5	C8H13F4NS+
232.0101	18	C11H5FN2OS+
232.0233	3	C9H8F2NO2S+
232.9795	5	C8HF4N2S+
233.0336	12	C9H5F4N2O+
233.0532	15	C9H8F3N2O2+
233.0653	2	C10H13F2NOS+
233.0708	2	C10H13F2NOS+
233.9997	7	C14F2N2+
234.0601	41	C12H8F2N2O+
234.9956	2	C5H4F5N2OS+
235.0134	31	C11H5F2N2S+
235.0337	13	C11H8FN2OS+
235.0465	3	C12H10FNOS+
235.0677	34	C12H9F2N2O+
236.9928	17	C10H3F2N2OS+
237.0482	14	C14H9N2S+
237.0635	35	C12H8F3N2+
238.0356	3	C8H6F4N2O2+
238.0474	29	C12H7F3NO+
239.0087	3	C10H5F2N2OS+
239.0437	27	C8H7F4N2O2+
239.0791	9	C12H10F3N2+
240.0145	5	C10H3F3N2O2+
240.0289	9	C11H8F2NOS+
240.0428	6	C9H11F3O2S+
241.0238	17	C10H7F2N2OS+
241.0381	4	C11H5F4N2+
241.0582	4	C11H8F3N2O+
242.0784	16	C12H11F3NO+
242.9832	11	C9H2F3N2OS+
243.0371	3	C10H6F3N2O2+
243.0922	6	C14H12FN2O+
243.9911	11	C9H3F3N2OS+
244.0272	15	C10H7F3N2S+
244.9992	5	C9H4F3N2OS+
246.0213	4	C10H3F5N2+
246.9955	15	C6H4F5N2OS+
247.0153	3	C9H6F3N2OS+
247.0331	32	C12H8FN2OS+
247.0488	19	C10H7F4N2O+
247.0689	7	C10H10F3N2O2+
248.0027	14	C9H4F4N2S+
248.0161	8	C7H7F5NOS+
248.0761	4	C13H10F2N2O+
249.0835	147	C13H11F2N2O+
250.0203	7	C11H7FN2O2S+
250.0676	52	C13H10F2NO2+
251.0086	12	C11H5F2N2OS+
251.0463	2	C9H10F3N2OS+
251.0626	27	C12H9F2N2O2+
251.0791	8	C13H10F3N2+
252.0164	52	C11H6F2N2OS+
252.0634	5	C13H9F3NO+
253.001	14	C14F3N2+
253.0242	36	C11H7F2N2OS+
253.0582	17	C12H8F3N2O+
254.0265	4	C6H9F5NO2S+
255.0198	88	C11H6F3N2S+
255.0499	17	C12H8F3NO2+
256.0037	49	C11H5F3NOS+
256.0453	3	C14H10NO2S+
256.0949	3	C13H13F3NO+
256.9997	12	C10H4F3N2OS+
257.0194	4	C16H5N2S+
257.0542	14	C14H10FN2S+
257.0712	20	C9H10F5N2O+
258.007	37	C10H5F3N2OS+
259.0148	19	C10H6F3N2OS+
259.0491	3	C11H7F4N2O+
259.0682	5	C14H9F2N2O+
260.0042	5	C15H4N2OS+
260.9937	5	C9H4F3N2O2S+
262.0366	2	C13H8F2N2S+
262.9897	16	C9H3F4N2OS+
263.0086	11	C15H4FN2S+
263.0238	2	C15H4FN2O2+
263.0627	25	C13H9F2N2O2+
263.0785	4	C11H15F2NO2S+
264.988	15	C11H3F2N2O2S+
265.0441	8	C12H10FN2O2S+
265.0585	110	C13H8F3N2O+
266.0318	8	C12H8F2N2OS+
267.0397	17	C12H9F2N2OS+
267.0745	4	C13H10F3N2O+
268.0238	15	C12H8F2NO2S+
269.0189	18	C11H7F2N2O2S+
269.0896	87	C13H12F3N2O+
270.0416	7	C12H6F4N2O+
270.9797	10	C10H2F3N2O2S+
271.0148	182	C11H6F3N2OS+
271.0689	77	C12H10F3N2O2+
271.9852	13	C13H2F2N2OS+
272.0004	3	C11HF5N2O+
272.0223	58	C11H7F3N2OS+
272.0694	30	C13H10F4NO+
273.0299	12	C11H8F3N2OS+
273.0485	4	C9H10F5N2S+
275.0262	543	C11H7F4N2S+
276.0339	320	C11H8F4N2S+
277.0603	17	C14H11F2N2S+
277.0784	15	C14H11F2N2O2+
279.0033	7	C12H5F2N2O2S+
279.0396	5	C13H9F2N2OS+
279.0737	10	C14H10F3N2O+
280.0112	48	C12H6F2N2O2S+
281.0539	3	C16H10FN2S+
282.0434	8	C13H9F3N2S+
282.061	4	C13H9F3N2O2+
283.0149	66	C12H6F3N2OS+
283.0685	10	C13H10F3N2O2+
284.9939	3	C11H4F3N2O2S+
285.0497	21	C15H10FN2OS+
285.0649	58	C13H9F4N2O+
287.0094	8	C11H6F3N2O2S+
287.0457	32	C12H10F3N2OS+
288.0301	93	C12H9F3NO2S+
289.0255	13	C11H8F3N2O2S+
290.0136	5	C11H6F4N2OS+
290.9846	42	C10H3F4N2O2S+
291.0209	63	C11H7F4N2OS+
291.9924	5	C10H4F4N2O2S+
295.0342	15	C13H9F2N2O2S+
295.0513	3	C14H10F3N2S+
297.0667	9	C14H12F3N2S+
297.0844	52	C14H12F3N2O2+
299.0098	162	C12H6F3N2O2S+
300.0176	348	C12H7F3N2O2S+
302.0135	4	C12H6F4N2OS+
302.0521	3	C15H11FN2O2S+
303.0211	457	C12H7F4N2OS+
304.0126	24	C14H6F2N2O2S+
305.0366	9	C12H9F4N2OS+
306.0079	29	C11H6F4N2O2S+
307.0163	7	C11H7F4N2O2S+
307.0339	3	C14H9F2N2O2S+
307.0516	6	C15H10F3N2S+
308.0241	17	C11H8F4N2O2S+
309.0863	6	C15H15F2N2OS+
310.0387	5	C14H9F3N2OS+
311.1004	3	C15H14F3N2O2+
314.033	14	C13H9F3N2O2S+
315.0409	86	C13H10F3N2O2S+
317.0203	6	C15H7F2N2O2S+
317.0918	13	C14H13F4N2O2+
319.0159	422	C12H7F4N2O2S+
321.0312	4	C12H9F4N2O2S+
322.0582	8	C15H12F2N2O2S+
324.0188	5	C14H7F3N2O2S+
325.0615	12	C15H12F3N2OS+
327.0406	4	C14H10F3N2O2S+
327.0587	24	C12H12F5N2OS+
331.036	16	C16H9F2N2O2S+
333.0516	6	C16H11F2N2O2S+
335.0472	252	C13H11F4N2O2S+
337.0814	2	C16H15F2N2O2S+
357.0898	3	C16H16F3N2O2S+
377.0939	9	C16H17F4N2O2S+
