Mass spectrum: Flurandrenolide; LC-ESI-QFT; MS2; CE: 45; R=17500; [M+H]+
Name: Flurandrenolide
Name: (1S,2S,4R,8S,9S,11S,12S,13R,19S)-19-fluoro-11-hydroxy-8-(2-hydroxyacetyl)-6,6,9,13-tetramethyl-5,7-dioxapentacyclo[10.8.0.02,9.04,8.013,18]icos-17-en-16-one
Formula: C24H33FO6
Exact mass: 436.2261
SMILES: CC1(C)O[C@@H]2C[C@H]3[C@@H]4C[C@H](F)C5=CC(=O)CC[C@]5(C)[C@H]4[C@@H](O)C[C@]3(C)[C@@]2(O1)C(=O)CO
InChI: InChI=1S/C24H33FO6/c1-21(2)30-19-9-14-13-8-16(25)15-7-12(27)5-6-22(15,3)20(13)17(28)10-23(14,4)24(19,31-21)18(29)11-26/h7,13-14,16-17,19-20,26,28H,5-6,8-11H2,1-4H3/t13-,14-,16-,17-,19+,20+,22-,23-,24+/m0/s1
Instrument: Q Exactive Orbitrap (Thermo Scientific)
Instrument type: LC-ESI-QFT
Ms type: MS2
Ion mode: POSITIVE
Ionization: ESI
Fragmentation mode: HCD
Collision energy: 45
Resolution: 17500
Column name: Acquity BEH C18 1.7um, 2.1x150mm (Waters)
Retention time: 17.165 min
Base peak: 79.0212
Precursor m/z: 437.2334
Precursor type: [M+H]+
Precursor intensity: 420100.90625
m/z	relative intensity	assigned
55.0179	184	C3H3O+
59.0492	438	C3H7O+
67.0543	72	C5H7+
69.0335	128	C4H5O+
71.0492	129	C4H7O+
79.0543	147	C6H7+
81.0699	316	C6H9+
83.0492	274	C5H7O+
91.0543	211	C7H7+
93.07	435	C7H9+
95.0493	123	C6H7O+
95.0856	145	C7H11+
97.065	297	C6H9O+
99.0441	244	C5H7O2+
101.0234	158	C4H5O3+
105.07	687	C8H9+
107.0492	178	C7H7O+
107.0855	212	C8H11+
109.0649	302	C7H9O+
115.0392	66	C5H7O3+
117.0699	205	C9H9+
119.0857	339	C9H11+
121.0649	939	C8H9O+
123.0806	207	C8H11O+
127.0552	126	C7H8FO+
129.0697	99	C10H9+
131.0856	428	C10H11+
133.0648	262	C9H9O+
133.1014	241	C10H13+
135.0806	309	C9H11O+
137.0602	112	C8H9O2+
139.0556	598	C8H8FO+
139.0753	66	C8H11O2+
141.0709	371	C8H10FO+
142.0776	96	C11H10+
143.0855	759	C11H11+
145.0651	160	C10H9O+
145.1013	478	C11H13+
147.0806	390	C10H11O+
147.117	232	C11H15+
149.0958	135	C10H13O+
151.0921	105	C10H12F+
154.078	63	C12H10+
155.0855	388	C12H11+
157.0646	99	C11H9O+
157.1014	475	C12H13+
159.0806	408	C11H11O+
159.1169	99	C12H15+
161.0965	252	C11H13O+
163.0757	94	C10H11O2+
163.0915	68	C11H12F+
169.1013	406	C13H13+
171.0805	413	C12H11O+
171.117	246	C13H15+
173.0962	527	C12H13O+
179.0858	131	C14H11+
181.1021	999	C11H14FO+
183.0808	86	C13H11O+
183.1172	311	C14H15+
185.096	300	C13H13O+
187.112	185	C13H15O+
189.0915	97	C12H13O2+
192.0938	72	C15H12+
193.1016	220	C15H13+
195.0806	67	C14H11O+
195.1171	430	C15H15+
197.0964	153	C14H13O+
197.1327	229	C15H17+
199.1121	164	C14H15O+
207.1173	552	C16H15+
209.0968	264	C12H14FO2+
209.1327	236	C16H17+
211.1118	348	C15H15O+
213.1279	130	C15H17O+
221.0966	125	C16H13O+
221.1329	209	C17H17+
223.1123	181	C16H15O+
225.1276	412	C16H17O+
227.1429	230	C16H19O+
233.1326	133	C18H17+
235.1489	167	C15H20FO+
237.1278	221	C17H17O+
239.1431	368	C17H19O+
241.1588	79	C17H21O+
245.1335	222	C16H18FO+
247.1492	289	C16H20FO+
249.1642	55	C19H21+
251.1436	112	C18H19O+
253.1586	117	C18H21O+
257.1342	74	C17H18FO+
261.165	163	C17H22FO+
263.1429	164	C19H19O+
265.1589	230	C19H21O+
267.1738	62	C19H23O+
271.1491	67	C18H20FO+
277.1592	153	C20H21O+
281.1532	63	C19H21O2+
283.1503	68	C19H20FO+
287.1418	84	C21H19O+
303.1759	134	C19H24FO2+
315.1759	95	C20H24FO2+
323.1645	104	C21H23O3+
