Mass spectrum: Tebufenozide; LC-ESI-QFT; MS2; CE: 60; R=17500; [M+H]+
Name: Tebufenozide
Name: N-tert-butyl-N'-(4-ethylbenzoyl)-3,5-dimethylbenzohydrazide
Formula: C22H28N2O2
Exact mass: 352.2151
SMILES: CCC1=CC=C(C=C1)C(=O)NN(C(=O)C1=CC(C)=CC(C)=C1)C(C)(C)C
InChI: InChI=1S/C22H28N2O2/c1-7-17-8-10-18(11-9-17)20(25)23-24(22(4,5)6)21(26)19-13-15(2)12-16(3)14-19/h8-14H,7H2,1-6H3,(H,23,25)
Instrument: Q Exactive Orbitrap (Thermo Scientific)
Instrument type: LC-ESI-QFT
Ms type: MS2
Ion mode: POSITIVE
Ionization: ESI
Fragmentation mode: HCD
Collision energy: 60
Resolution: 17500
Column name: Acquity BEH C18 1.7um, 2.1x150mm (Waters)
Retention time: 18.246 min
Base peak: 79.0212
Precursor m/z: 353.2224
Precursor type: [M+H]+
Precursor intensity: 4488728.875
m/z	relative intensity	assigned
65.0386	77	C5H5+
66.0419	30	H6N2O2+
72.0808	108	C4H10N+
79.0542	80	C6H7+
91.0542	716	C7H7+
92.0576	391	C2H8N2O2+
103.0543	72	C8H7+
105.07	278	C8H9+
119.049	38	C8H7O+
123.0805	177	C8H11O+
131.0493	25	C9H7O+
133.0648	999	C9H9O+
133.0759	122	C8H9N2+
160.0519	57	C10H8O2+
162.1278	48	C11H16N+
241.0076	48	C20H+
