Mass spectrum: Quinclorac; LC-ESI-QFT; MS2; CE: 45; R=17500; [M+H]+
Name: Quinclorac
Name: 3,7-dichloroquinoline-8-carboxylic acid
Formula: C10H5Cl2NO2
Exact mass: 240.9697
SMILES: OC(=O)C1=C(Cl)C=CC2=CC(Cl)=CN=C12
InChI: InChI=1S/C10H5Cl2NO2/c11-6-3-5-1-2-7(12)8(10(14)15)9(5)13-4-6/h1-4H,(H,14,15)
Instrument: Q Exactive Orbitrap (Thermo Scientific)
Instrument type: LC-ESI-QFT
Ms type: MS2
Ion mode: POSITIVE
Ionization: ESI
Fragmentation mode: HCD
Collision energy: 45
Resolution: 17500
Column name: Acquity BEH C18 1.7um, 2.1x150mm (Waters)
Retention time: 15.027 min
Base peak: 79.0211
Precursor m/z: 241.977
Precursor type: [M+H]+
Precursor intensity: 1373297.9375
m/z	relative intensity	assigned
84.9597	21	CH3Cl2+
95.0126	4	C5H3O2+
102.9704	2	CH5Cl2O+
141.9383	5	C6Cl2+
153.9383	12	C7Cl2+
161.003	10	C9H4ClN+
165.938	15	C8Cl2+
167.9542	5	C8H2Cl2+
168.9617	22	C8H3Cl2+
178.9461	9	C9HCl2+
180.9616	61	C9H3Cl2+
181.9694	4	C9H4Cl2+
182.9774	9	C9H5Cl2+
183.9489	5	C8H2Cl2O+
194.9777	13	C10H5Cl2+
195.9713	4	C9H4Cl2N+
196.9567	10	C9H3Cl2O+
197.9649	3	C9H4Cl2O+
213.982	55	C9H6Cl2NO+
223.9665	999	C10H4Cl2NO+
241.9771	533	C10H6Cl2NO2+
