Mass spectrum: Ethiofencarb; LC-ESI-QFT; MS2; CE: 15; R=17500; [M+H]+
Name: Ethiofencarb
Name: [2-(ethylsulfanylmethyl)phenyl] N-methylcarbamate
Formula: C11H15NO2S
Exact mass: 225.0823
SMILES: CCSCC1=C(OC(=O)NC)C=CC=C1
InChI: InChI=1S/C11H15NO2S/c1-3-15-8-9-6-4-5-7-10(9)14-11(13)12-2/h4-7H,3,8H2,1-2H3,(H,12,13)
Instrument: Q Exactive Orbitrap (Thermo Scientific)
Instrument type: LC-ESI-QFT
Ms type: MS2
Ion mode: POSITIVE
Ionization: ESI
Fragmentation mode: HCD
Collision energy: 15
Resolution: 17500
Column name: Acquity BEH C18 1.7um, 2.1x150mm (Waters)
Retention time: 15.974 min
Base peak: 79.0212
Precursor m/z: 226.0896
Precursor type: [M+H]+
Precursor intensity: 1273733
m/z	relative intensity	assigned
147.9966	103	C8H4OS+
166.0075	999	C8H6O2S+
180.0233	249	C9H8O2S+
