Mass spectrum: Tacrine; LC-ESI-QFT; MS2; CE: 75; R=17500; [M+H]+
Name: Tacrine
Name: 1,2,3,4-tetrahydroacridin-9-amine
Formula: C13H14N2
Exact mass: 198.1157
SMILES: NC1=C2CCCCC2=NC2=C1C=CC=C2
InChI: InChI=1S/C13H14N2/c14-13-9-5-1-3-7-11(9)15-12-8-4-2-6-10(12)13/h1,3,5,7H,2,4,6,8H2,(H2,14,15)
Instrument: Q Exactive Orbitrap (Thermo Scientific)
Instrument type: LC-ESI-QFT
Ms type: MS2
Ion mode: POSITIVE
Ionization: ESI
Fragmentation mode: HCD
Collision energy: 75
Resolution: 17500
Column name: Acquity BEH C18 1.7um, 2.1x150mm (Waters)
Retention time: 12.075 min
Base peak: 79.0211
Precursor m/z: 199.123
Precursor type: [M+H]+
Precursor intensity: 47556782.46875
m/z	relative intensity	assigned
74.0964	1	C4H12N+
116.0496	1	C8H6N+
118.065	1	C8H8N+
130.0652	4	C9H8N+
140.0494	1	C10H6N+
144.0808	55	C10H10N+
154.0651	1	C11H8N+
157.0761	18	C10H9N2+
158.0839	28	C10H10N2+
167.0731	5	C12H9N+
168.081	1	C12H10N+
169.0761	1	C11H9N2+
170.0836	1	C11H10N2+
170.0965	2	C12H12N+
171.0916	317	C11H11N2+
172.1118	1	C12H14N+
180.0809	2	C13H10N+
181.0761	1	C12H9N2+
182.084	10	C12H10N2+
182.0965	4	C13H12N+
183.0917	31	C12H11N2+
184.0997	5	C12H12N2+
195.092	4	C13H11N2+
197.1075	44	C13H13N2+
198.1151	4	C13H14N2+
199.123	999	C13H15N2+
