Mass spectrum: Sulfisoxazole; LC-ESI-QFT; MS2; CE: 60; R=17500; [M-H]-
Name: Sulfisoxazole
Name: 4-amino-N-(3,4-dimethyl-1,2-oxazol-5-yl)benzenesulfonamide
Formula: C11H13N3O3S
Exact mass: 267.0678
SMILES: CC1=NOC(NS(=O)(=O)C2=CC=C(N)C=C2)=C1C
InChI: InChI=1S/C11H13N3O3S/c1-7-8(2)13-17-11(7)14-18(15,16)10-5-3-9(12)4-6-10/h3-6,14H,12H2,1-2H3
Instrument: Q Exactive Orbitrap (Thermo Scientific)
Instrument type: LC-ESI-QFT
Ms type: MS2
Ion mode: NEGATIVE
Ionization: ESI
Fragmentation mode: HCD
Collision energy: 60
Resolution: 17500
Column name: Acquity BEH C18 1.7um, 2.1x150mm (Waters)
Retention time: 12.443 min
Base peak: 266.0605
Precursor m/z: 266.0605
Precursor type: [M-H]-
Precursor intensity: 9607211.009766
m/z	relative intensity	assigned
55.0189	13	C3H3O-
61.9706	35	NOS-
63.9625	448	O2S-
65.9986	2	C3NO-
66.0349	8	C4H4N-
70.03	2	C3H4NO-
77.9655	39	NO2S-
78.035	2	C5H4N-
78.9733	68	HNO2S-
79.9574	14	O3S-
79.9812	186	H2NO2S-
80.9652	3	HO3S-
82.0299	22	C4H4NO-
84.0455	38	C4H6NO-
85.0295	5	C4H5O2-
90.0347	1	C6H4N-
91.0428	13	C6H5N-
92.0506	160	C6H6N-
93.9605	32	NO3S-
94.0298	6	C5H4NO-
95.025	5	C4H3N2O-
107.0377	109	C6H5NO-
107.0616	6	C6H7N2-
108.0455	184	C6H6NO-
109.0407	18	C5H5N2O-
110.0485	1	C5H6N2O-
117.0458	5	C7H5N2-
119.0615	7	C7H7N2-
122.025	1	C6H4NO2-
133.0407	9	C7H5N2O-
140.0173	2	C6H6NOS-
144.0693	3	C9H8N2-
155.0047	28	C6H5NO2S-
156.0125	463	C6H6NO2S-
157.0771	24	C10H9N2-
171.0234	999	C6H7N2O2S-
172.0074	29	C6H6NO3S-
183.0237	7	C7H7N2O2S-
221.039	37	C10H9N2O2S-
239.0496	153	C10H11N2O3S-
