Mass spectrum: Colchicine; LC-ESI-QFT; MS2; CE: 30; R=17500; [M+H]+
Name: Colchicine
Name: N-[(7S)-1,2,3,10-tetramethoxy-9-oxo-6,7-dihydro-5H-benzo[a]heptalen-7-yl]acetamide
Formula: C22H25NO6
Exact mass: 399.1682
SMILES: COC1=CC2=C(C(OC)=C1OC)C1=CC=C(OC)C(=O)C=C1[C@H](CC2)NC(C)=O
InChI: InChI=1S/C22H25NO6/c1-12(24)23-16-8-6-13-10-19(27-3)21(28-4)22(29-5)20(13)14-7-9-18(26-2)17(25)11-15(14)16/h7,9-11,16H,6,8H2,1-5H3,(H,23,24)/t16-/m0/s1
Instrument: Q Exactive Orbitrap (Thermo Scientific)
Instrument type: LC-ESI-QFT
Ms type: MS2
Ion mode: POSITIVE
Ionization: ESI
Fragmentation mode: HCD
Collision energy: 30
Resolution: 17500
Column name: Acquity BEH C18 1.7um, 2.1x150mm (Waters)
Retention time: 14.647 min
Base peak: 79.0211
Precursor m/z: 400.1755
Precursor type: [M+H]+
Precursor intensity: 11388692.125
m/z	relative intensity	assigned
56.0495	2	C3H6N+
60.0444	10	C2H6NO+
70.0285	1	C3H4NO+
75.0441	2	C3H7O2+
84.0444	5	C4H6NO+
86.06	2	C4H8NO+
136.0761	1	C8H10NO+
137.0597	8	C8H9O2+
138.0552	1	C7H8NO2+
145.0647	1	C10H9O+
151.0755	2	C9H11O2+
152.0707	3	C8H10NO2+
155.0703	1	C8H11O3+
167.0702	1	C9H11O3+
173.0598	1	C11H9O2+
176.0708	2	C10H10NO2+
181.086	11	C10H13O3+
188.0835	1	C12H12O2+
190.0861	1	C11H12NO2+
191.0702	1	C11H11O3+
193.0738	1	C10H11NO3+
194.0941	1	C11H14O3+
203.0941	2	C12H13NO2+
204.0782	1	C12H12O3+
205.0857	4	C12H13O3+
206.0815	1	C11H12NO3+
207.1018	3	C12H15O3+
219.089	2	C12H13NO3+
219.1019	4	C13H15O3+
220.0968	2	C12H14NO3+
222.1127	2	C12H16NO3+
227.1074	1	C15H15O2+
231.102	1	C14H15O3+
234.1125	31	C13H16NO3+
235.0755	1	C16H11O2+
235.0963	3	C13H15O4+
238.0982	1	C16H14O2+
239.1069	3	C16H15O2+
242.0942	2	C15H14O3+
245.1048	3	C14H15NO3+
246.1116	1	C14H16NO3+
249.0909	4	C17H13O2+
250.0991	4	C17H14O2+
251.107	2	C17H15O2+
252.1147	2	C17H16O2+
253.1223	1	C17H17O2+
254.0932	1	C16H14O3+
254.1294	1	C17H18O2+
255.1016	3	C16H15O3+
257.1175	3	C16H17O3+
258.0889	2	C15H14O4+
258.1119	1	C15H16NO3+
261.0994	1	C14H15NO4+
263.0704	1	C17H11O3+
263.0938	1	C17H13NO2+
265.0871	1	C17H13O3+
266.0939	5	C17H14O3+
266.1168	2	C17H16NO2+
267.1013	13	C17H15O3+
267.1253	1	C17H17NO2+
268.1096	7	C17H16O3+
269.1167	2	C17H17O3+
270.0887	2	C16H14O4+
270.1249	7	C17H18O3+
271.0962	2	C16H15O4+
272.104	1	C16H16O4+
273.1122	5	C16H17O4+
276.1232	3	C15H18NO4+
277.0862	15	C18H13O3+
277.1097	2	C18H15NO2+
278.0941	29	C18H14O3+
278.112	1	C15H18O5+
279.0656	1	C17H11O4+
279.088	1	C17H13NO3+
279.1021	6	C18H15O3+
280.0955	1	C14H16O6+
280.1103	2	C18H16O3+
280.1333	1	C18H18NO2+
281.1173	38	C18H17O3+
282.1251	124	C18H18O3+
283.0814	1	C16H13NO4+
283.0965	9	C17H15O4+
284.1045	8	C17H16O4+
284.1279	3	C17H18NO3+
285.1121	48	C17H17O4+
287.0909	1	C16H15O5+
287.1279	3	C17H19O4+
292.0962	2	C18H14NO3+
293.0811	2	C18H13O4+
294.0888	19	C18H14O4+
294.1123	11	C18H16NO3+
295.0966	17	C18H15O4+
295.1204	24	C18H17NO3+
296.1292	2	C18H18NO3+
297.1137	7	C21H15NO+
297.1349	5	C18H19NO3+
298.0842	4	C17H14O5+
298.1201	40	C18H18O4+
298.1438	39	C18H20NO3+
299.1291	17	C18H19O4+
300.0987	2	C17H16O5+
301.1071	4	C17H17O5+
301.1281	1	C17H19NO4+
301.1456	2	C21H19NO+
302.1153	9	C17H18O5+
306.1126	1	C19H16NO3+
307.1206	3	C19H17NO3+
308.1044	5	C19H16O4+
308.1281	12	C19H18NO3+
309.1125	81	C19H17O4+
309.1353	9	C19H19NO3+
310.1203	204	C19H18O4+
311.0914	14	C18H15O5+
311.1151	18	C18H17NO4+
312.1233	7	C18H18NO4+
313.1434	82	C19H21O4+
314.1361	4	C18H20NO4+
315.1458	3	C18H21NO4+
316.1543	23	C18H22NO4+
322.1436	3	C20H20NO3+
323.1278	9	C20H19O4+
323.1517	3	C20H21NO3+
324.1218	7	C19H18NO4+
325.1307	19	C19H19NO4+
326.1152	80	C19H18O5+
326.1387	153	C19H20NO4+
327.1469	6	C19H21NO4+
328.1169	11	C18H18NO5+
330.1337	14	C18H20NO5+
330.1691	7	C19H24NO4+
335.1153	2	C20H17NO4+
336.1234	3	C20H18NO4+
338.1027	1	C19H16NO5+
338.1392	2	C20H20NO4+
339.1469	17	C20H21NO4+
340.1545	75	C20H22NO4+
341.1385	210	C20H21O5+
342.1334	12	C19H20NO5+
343.1413	18	C19H21NO5+
350.1382	12	C21H20NO4+
351.1467	3	C21H21NO4+
352.1171	5	C20H18NO5+
354.1332	1	C20H20NO5+
354.1699	13	C21H24NO4+
357.1204	2	C19H19NO6+
357.1573	7	C20H23NO5+
358.165	415	C20H24NO5+
366.1342	2	C21H20NO5+
367.1414	38	C21H21NO5+
368.1494	32	C21H22NO5+
370.1281	1	C20H20NO6+
382.165	153	C22H24NO5+
385.1516	2	C21H23NO6+
400.1757	999	C22H26NO6+
