Mass spectrum: Fludioxonil; LC-ESI-QFT; MS2; CE: 30; R=17500; [M-H]-
Name: Fludioxonil
Name: 4-(2,2-difluoro-1,3-benzodioxol-4-yl)-1H-pyrrole-3-carbonitrile
Formula: C12H6F2N2O2
Exact mass: 248.0397
SMILES: FC1(F)OC2=CC=CC(=C2O1)C1=CNC=C1C#N
InChI: InChI=1S/C12H6F2N2O2/c13-12(14)17-10-3-1-2-8(11(10)18-12)9-6-16-5-7(9)4-15/h1-3,5-6,16H
Instrument: Q Exactive Orbitrap (Thermo Scientific)
Instrument type: LC-ESI-QFT
Ms type: MS2
Ion mode: NEGATIVE
Ionization: ESI
Fragmentation mode: HCD
Collision energy: 30
Resolution: 17500
Column name: Acquity BEH C18 1.7um, 2.1x150mm (Waters)
Retention time: 17.532 min
Base peak: 247.0324
Precursor m/z: 247.0325
Precursor type: [M-H]-
Precursor intensity: 153352876.0625
m/z	relative intensity	assigned
126.0346	1	C9H4N-
153.0454	1	C10H5N2-
179.0252	1	C11H3N2O-
180.0328	4	C11H4N2O-
181.0409	16	C11H5N2O-
197.0356	1	C11H5N2O2-
199.0316	1	C11H4FN2O-
247.0324	999	C12H5F2N2O2-
