Mass spectrum: N-Butylurea; LC-ESI-QFT; MS2; CE: 75; R=17500; [M+H]+
Name: N-Butylurea
Name: butylurea
Formula: C5H12N2O
Exact mass: 116.0950
SMILES: CCCCNC(N)=O
InChI: InChI=1S/C5H12N2O/c1-2-3-4-7-5(6)8/h2-4H2,1H3,(H3,6,7,8)
Instrument: Q Exactive Orbitrap (Thermo Scientific)
Instrument type: LC-ESI-QFT
Ms type: MS2
Ion mode: POSITIVE
Ionization: ESI
Fragmentation mode: HCD
Collision energy: 75
Resolution: 17500
Column name: Acquity BEH C18 1.7um, 2.1x150mm (Waters)
Retention time: 10.164 min
Base peak: 79.0212
Precursor m/z: 117.1022
Precursor type: [M+H]+
Precursor intensity: 8090790.4375
m/z	relative intensity	assigned
53.0023	72	C3HO+
53.9975	10	C2NO+
55.0543	4	C4H7+
57.0699	999	C4H9+
61.0397	206	CH5N2O+
74.0964	89	C4H12N+
117.1022	61	C5H13N2O+
