Mass spectrum: Ranitidine; LC-ESI-QFT; MS2; CE: 30; R=17500; [M-H]-
Name: Ranitidine
Name: Ranitidine Base
Name: 1-N'-[2-[[5-[(dimethylamino)methyl]furan-2-yl]methylsulfanyl]ethyl]-1-N-methyl-2-nitroethene-1,1-diamine
Formula: C13H22N4O3S
Exact mass: 314.1413
SMILES: CNC(=C[N+](=O)[O-])NCCSCC1=CC=C(O1)CN(C)C
InChI: InChI=1S/C13H22N4O3S/c1-14-13(9-17(18)19)15-6-7-21-10-12-5-4-11(20-12)8-16(2)3/h4-5,9,14-15H,6-8,10H2,1-3H3
Instrument: Q Exactive Orbitrap (Thermo Scientific)
Instrument type: LC-ESI-QFT
Ms type: MS2
Ion mode: NEGATIVE
Ionization: ESI
Fragmentation mode: HCD
Collision energy: 30
Resolution: 17500
Column name: Acquity BEH C18 1.7um, 2.1x150mm (Waters)
Retention time: 7.766 min
Base peak: 75.0088
Precursor m/z: 313.134
Precursor type: [M-H]-
Precursor intensity: 268522.776123
m/z	relative intensity	assigned
55.0301	35	C2H3N2-
60.0091	201	CH2NO2-
111.9988	299	C5H4OS-
116.0466	449	C3H6N3O2-
142.0622	727	C5H8N3O2-
170.0646	999	C8H12NOS-
