Mass spectrum: 1-Naphthol; LC-ESI-QFT; MS2; CE: 60; R=17500; [M+H]+
Name: 1-Naphthol
Name: naphthalen-1-ol
Formula: C10H8O
Exact mass: 144.0575
SMILES: OC1=CC=CC2=CC=CC=C12
InChI: InChI=1S/C10H8O/c11-10-7-3-5-8-4-1-2-6-9(8)10/h1-7,11H
Instrument: Q Exactive Orbitrap (Thermo Scientific)
Instrument type: LC-ESI-QFT
Ms type: MS2
Ion mode: POSITIVE
Ionization: ESI
Fragmentation mode: HCD
Collision energy: 60
Resolution: 17500
Column name: Acquity BEH C18 1.7um, 2.1x150mm (Waters)
Retention time: 18.171 min
Base peak: 79.0211
Precursor m/z: 145.0648
Precursor type: [M+H]+
Precursor intensity: 10269429.6875
m/z	relative intensity	assigned
50.0151	1	C4H2+
53.0022	1	C3HO+
63.0229	2	C5H3+
65.0385	6	C5H5+
74.015	1	C6H2+
76.0307	1	C6H4+
89.0385	8	C7H5+
91.0542	332	C7H7+
102.0464	903	C8H6+
105.0333	1	C7H5O+
114.0459	1	C9H6+
115.0542	999	C9H7+
116.062	33	C9H8+
117.0698	169	C9H9+
127.0543	1	C10H7+
130.0413	245	C9H6O+
133.0646	2	C9H9O+
145.0647	47	C10H9O+
