Mass spectrum: N-Dodecanoyl-N-methylglycine; LC-ESI-QFT; MS2; CE: 30; R=17500; [M+H]+
Name: N-Dodecanoyl-N-methylglycine
Name: N-Lauroylsarcosine
Name: 2-[dodecanoyl(methyl)amino]acetic acid
Formula: C15H29NO3
Exact mass: 271.2147
SMILES: CCCCCCCCCCCC(=O)N(C)CC(O)=O
InChI: InChI=1S/C15H29NO3/c1-3-4-5-6-7-8-9-10-11-12-14(17)16(2)13-15(18)19/h3-13H2,1-2H3,(H,18,19)
Instrument: Q Exactive Orbitrap (Thermo Scientific)
Instrument type: LC-ESI-QFT
Ms type: MS2
Ion mode: POSITIVE
Ionization: ESI
Fragmentation mode: HCD
Collision energy: 30
Resolution: 17500
Column name: Acquity BEH C18 1.7um, 2.1x150mm (Waters)
Retention time: 19.710 min
Base peak: 79.0211
Precursor m/z: 272.222
Precursor type: [M+H]+
Precursor intensity: 10741082
m/z	relative intensity	assigned
55.0542	3	C4H7+
57.0699	65	C4H9+
67.0542	7	C5H7+
69.0698	2	C5H9+
71.0855	49	C5H11+
72.0807	1	C4H10N+
74.0965	3	C4H12N+
81.0699	13	C6H9+
83.0855	16	C6H11+
85.1012	39	C6H13+
90.055	999	C3H8NO2+
95.0855	50	C7H11+
97.1012	6	C7H13+
99.1168	2	C7H15+
109.1012	30	C8H13+
123.1168	6	C9H15+
129.1147	4	C7H15NO+
165.1639	2	C12H21+
171.0805	4	C12H11O+
172.0369	5	C10H6NO2+
183.1744	17	C12H23O+
186.0526	16	C11H8NO2+
199.0609	1	C12H9NO2+
199.0754	3	C13H11O2+
200.0682	7	C12H10NO2+
226.084	1	C14H12NO2+
228.0995	33	C14H14NO2+
254.0786	5	C15H12NO3+
272.2221	2	C15H30NO3+
