Mass spectrum: Budesonide; LC-ESI-QFT; MS2; CE: 75; R=17500; [M+H]+
Name: Budesonide
Name: (1S,2S,4R,8S,9S,11S,12S,13R)-11-hydroxy-8-(2-hydroxyacetyl)-9,13-dimethyl-6-propyl-5,7-dioxapentacyclo[10.8.0.02,9.04,8.013,18]icosa-14,17-dien-16-one
Formula: C25H34O6
Exact mass: 430.2355
SMILES: CCCC1O[C@@H]2C[C@H]3[C@@H]4CCC5=CC(=O)C=C[C@]5(C)[C@H]4[C@@H](O)C[C@]3(C)[C@@]2(O1)C(=O)CO
InChI: InChI=1S/C25H34O6/c1-4-5-21-30-20-11-17-16-7-6-14-10-15(27)8-9-23(14,2)22(16)18(28)12-24(17,3)25(20,31-21)19(29)13-26/h8-10,16-18,20-22,26,28H,4-7,11-13H2,1-3H3/t16-,17-,18-,20+,21?,22+,23-,24-,25+/m0/s1
Instrument: Q Exactive Orbitrap (Thermo Scientific)
Instrument type: LC-ESI-QFT
Ms type: MS2
Ion mode: POSITIVE
Ionization: ESI
Fragmentation mode: HCD
Collision energy: 75
Resolution: 17500
Column name: Acquity BEH C18 1.7um, 2.1x150mm (Waters)
Retention time: 18.150 min
Base peak: 79.0212
Precursor m/z: 431.2428
Precursor type: [M+H]+
Precursor intensity: 3056809.8125
m/z	relative intensity	assigned
53.0387	61	C4H5+
55.0179	120	C3H3O+
55.0543	101	C4H7+
65.0386	46	C5H5+
67.0543	120	C5H7+
69.0335	89	C4H5O+
79.0542	247	C6H7+
81.0336	32	C5H5O+
81.0699	214	C6H9+
91.0543	909	C7H7+
93.07	212	C7H9+
95.0491	197	C6H7O+
95.0856	60	C7H11+
97.065	35	C6H9O+
103.0543	95	C8H7+
105.07	380	C8H9+
107.0494	104	C7H7O+
107.0856	110	C8H11+
109.0649	137	C7H9O+
115.0544	239	C9H7+
116.0622	62	C9H8+
117.0699	263	C9H9+
119.0856	482	C9H11+
121.0649	772	C8H9O+
128.0622	307	C10H8+
129.0699	262	C10H9+
130.0778	80	C10H10+
131.0491	66	C9H7O+
131.0856	133	C10H11+
132.0571	288	C9H8O+
133.0647	26	C9H9O+
133.1014	39	C10H13+
135.0807	109	C9H11O+
141.0699	150	C11H9+
142.0778	95	C11H10+
143.0858	89	C11H11+
144.0571	93	C10H8O+
145.0649	315	C10H9O+
145.1013	135	C11H13+
146.0728	80	C10H10O+
147.0805	999	C10H11O+
152.062	29	C12H8+
153.07	90	C12H9+
154.0781	39	C12H10+
155.0856	163	C12H11+
157.0649	63	C11H9O+
157.1014	37	C12H13+
158.0727	588	C11H10O+
159.0805	220	C11H11O+
161.0962	57	C11H13O+
165.0701	132	C13H9+
166.0781	48	C13H10+
167.0858	66	C13H11+
169.0651	118	C12H9O+
170.0725	56	C12H10O+
171.0806	552	C12H11O+
172.0883	36	C12H12O+
173.0962	216	C12H13O+
178.0779	155	C14H10+
179.0856	191	C14H11+
181.0649	191	C13H9O+
181.1015	46	C14H13+
182.0727	94	C13H10O+
183.0809	87	C13H11O+
184.0887	41	C13H12O+
185.0964	78	C13H13O+
190.0776	80	C15H10+
191.086	148	C15H11+
192.0937	178	C15H12+
193.1017	139	C15H13+
194.073	74	C14H10O+
195.0806	292	C14H11O+
196.0885	143	C14H12O+
197.0963	160	C14H13O+
198.1044	40	C14H14O+
202.0784	33	C16H10+
203.0857	88	C16H11+
205.1015	64	C16H13+
207.0806	71	C15H11O+
207.117	61	C16H15+
208.0885	162	C15H12O+
209.0963	201	C15H13O+
210.104	125	C15H14O+
211.112	207	C15H15O+
215.0858	40	C17H11+
216.0934	59	C17H12+
217.102	34	C17H13+
218.0729	42	C16H10O+
219.0807	58	C16H11O+
219.1177	51	C17H15+
220.0885	106	C16H12O+
221.0965	162	C16H13O+
222.1042	113	C16H14O+
223.1119	71	C16H15O+
229.1012	63	C18H13+
231.0804	43	C17H11O+
232.0889	74	C17H12O+
233.0963	121	C17H13O+
234.1044	96	C17H14O+
235.1122	111	C17H15O+
237.1282	36	C17H17O+
245.096	53	C18H13O+
246.1046	37	C18H14O+
247.1119	84	C18H15O+
248.1195	49	C18H16O+
249.1279	39	C18H17O+
261.1293	31	C19H17O+
