Mass spectrum: Pirimiphos-ethyl; LC-ESI-QFT; MS2; CE: 15; R=17500; [M+H]+
Name: Pirimiphos-ethyl
Formula: C13H24N3O3PS
Exact mass: 333.1276
SMILES: CCOP(=S)(OCC)OC1=CC(C)=NC(=N1)N(CC)CC
InChI: InChI=1S/C13H24N3O3PS/c1-6-16(7-2)13-14-11(5)10-12(15-13)19-20(21,17-8-3)18-9-4/h10H,6-9H2,1-5H3
Instrument: Q Exactive Orbitrap (Thermo Scientific)
Instrument type: LC-ESI-QFT
Ms type: MS2
Ion mode: POSITIVE
Ionization: ESI
Fragmentation mode: HCD
Collision energy: 15
Resolution: 17500
Column name: Acquity BEH C18 1.7um, 2.1x150mm (Waters)
Retention time: 19.447 min
Base peak: 79.0211
Precursor m/z: 334.1349
Precursor type: [M+H]+
Precursor intensity: 87538428.82812
m/z	relative intensity	assigned
182.1287	24	C9H16N3O+
198.1059	44	C9H16N3S+
306.1035	28	C11H21N3O3PS+
334.1347	999	C13H25N3O3PS+
