Mass spectrum: Chloralose; LC-ESI-QFT; MS2; CE: 90; R=17500; [M-H]-
Name: Chloralose
Formula: C8H11Cl3O6
Exact mass: 307.9621
SMILES: OC[C@@H](O)[C@H]1O[C@@H]2O[C@@H](O[C@@H]2[C@H]1O)C(Cl)(Cl)Cl
InChI: InChI=1S/C8H11Cl3O6/c9-8(10,11)7-16-5-3(14)4(2(13)1-12)15-6(5)17-7/h2-7,12-14H,1H2/t2-,3+,4-,5-,6-,7-/m1/s1
Instrument: Q Exactive Orbitrap (Thermo Scientific)
Instrument type: LC-ESI-QFT
Ms type: MS2
Ion mode: NEGATIVE
Ionization: ESI
Fragmentation mode: HCD
Collision energy: 90
Resolution: 17500
Column name: Acquity BEH C18 1.7um, 2.1x150mm (Waters)
Retention time: 13.543 min
Base peak: 249.0227
Precursor m/z: 306.9548
Precursor type: [M-H]-
Precursor intensity: 2040907.921387
m/z	relative intensity	assigned
55.0189	677	C3H3O-
57.0346	202	C3H5O-
59.0138	972	C2H3O2-
71.0139	999	C3H3O2-
72.9932	137	C2HO3-
73.0296	143	C3H5O2-
83.0139	130	C4H3O2-
84.0217	81	C4H4O2-
85.0296	218	C4H5O2-
87.0088	59	C3H3O3-
108.0217	125	C6H4O2-
