Mass spectrum: Cotinine; LC-ESI-QFT; MS2; CE: 90; R=17500; [M+H]+
Name: Cotinine
Name: (5S)-1-methyl-5-pyridin-3-ylpyrrolidin-2-one
Formula: C10H12N2O
Exact mass: 176.0950
SMILES: CN1[C@@H](CCC1=O)C1=CN=CC=C1
InChI: InChI=1S/C10H12N2O/c1-12-9(4-5-10(12)13)8-3-2-6-11-7-8/h2-3,6-7,9H,4-5H2,1H3/t9-/m0/s1
Instrument: Q Exactive Orbitrap (Thermo Scientific)
Instrument type: LC-ESI-QFT
Ms type: MS2
Ion mode: POSITIVE
Ionization: ESI
Fragmentation mode: HCD
Collision energy: 90
Resolution: 17500
Column name: Acquity BEH C18 1.7um, 2.1x150mm (Waters)
Retention time: 2.480 min
Base peak: 79.0211
Precursor m/z: 177.1022
Precursor type: [M+H]+
Precursor intensity: 10269307.21875
m/z	relative intensity	assigned
53.0021	1	C3HO+
53.0386	18	C4H5+
58.0288	4	C2H4NO+
65.0386	1	C5H5+
68.0495	9	C4H6N+
69.0333	1	C4H5O+
70.0651	71	C4H8N+
78.0339	1	C5H4N+
80.0494	999	C5H6N+
91.0542	14	C7H7+
92.0494	2	C6H6N+
93.0699	1	C7H9+
94.0651	1	C6H8N+
96.0444	8	C5H6NO+
98.0601	193	C5H8NO+
103.0541	1	C8H7+
106.0651	4	C7H8N+
110.0601	2	C6H8NO+
117.0573	9	C8H7N+
118.0651	29	C8H8N+
120.0808	14	C8H10N+
128.0495	1	C9H6N+
130.0652	1	C9H8N+
144.0683	1	C9H8N2+
146.06	11	C9H8NO+
149.0711	1	C8H9N2O+
159.0917	1	C10H11N2+
177.1023	7	C10H13N2O+
