Mass spectrum: Nicardipine; LC-ESI-QFT; MS2; CE: 60; R=17500; [M-H]-
Name: Nicardipine
Name: 5-O-[2-[benzyl(methyl)amino]ethyl] 3-O-methyl 2,6-dimethyl-4-(3-nitrophenyl)-1,4-dihydropyridine-3,5-dicarboxylate
Formula: C26H29N3O6
Exact mass: 479.2056
SMILES: COC(=O)C1=C(C)NC(C)=C(C1C1=CC(=CC=C1)[N+]([O-])=O)C(=O)OCCN(C)CC1=CC=CC=C1
InChI: InChI=1S/C26H29N3O6/c1-17-22(25(30)34-4)24(20-11-8-12-21(15-20)29(32)33)23(18(2)27-17)26(31)35-14-13-28(3)16-19-9-6-5-7-10-19/h5-12,15,24,27H,13-14,16H2,1-4H3
Instrument: Q Exactive Orbitrap (Thermo Scientific)
Instrument type: LC-ESI-QFT
Ms type: MS2
Ion mode: NEGATIVE
Ionization: ESI
Fragmentation mode: HCD
Collision energy: 60
Resolution: 17500
Column name: Acquity BEH C18 1.7um, 2.1x150mm (Waters)
Retention time: 14.882 min
Base peak: 307.0283
Precursor m/z: 478.1984
Precursor type: [M-H]-
Precursor intensity: 14352206.1709
m/z	relative intensity	assigned
65.9986	14	C3NO-
67.0191	18	C4H3O-
68.9984	11	C3HO2-
69.0347	11	C4H5O-
79.019	74	C5H3O-
82.0061	79	C4H2O2-
92.014	10	C5H2NO-
92.0268	58	C6H4O-
92.0508	17	C6H6N-
94.03	19	C5H4NO-
95.0139	519	C5H3O2-
97.0295	10	C5H5O2-
104.0505	82	C7H6N-
105.0584	13	C7H7N-
106.0662	146	C7H8N-
108.0217	999	C6H4O2-
118.0663	39	C8H8N-
120.0455	86	C7H6NO-
122.0247	602	C6H4NO2-
123.0089	29	C6H3O3-
132.0456	36	C8H6NO-
134.0611	28	C8H8NO-
136.0404	56	C7H6NO2-
138.0199	11	C6H4NO3-
140.0352	21	C6H6NO3-
148.0404	122	C8H6NO2-
149.0482	151	C8H7NO2-
150.0561	179	C8H8NO2-
162.0561	124	C9H8NO2-
164.0356	26	C8H6NO3-
164.0717	306	C9H10NO2-
166.0146	21	C7H4NO4-
181.0379	47	C8H7NO4-
181.0536	31	C12H7NO-
182.0371	10	C12H6O2-
182.0613	38	C12H8NO-
190.0509	44	C10H8NO3-
193.041	11	C12H5N2O-
194.0612	16	C13H8NO-
195.0686	11	C13H9NO-
196.0404	94	C12H6NO2-
196.0768	27	C13H10NO-
197.0482	23	C12H7NO2-
199.0276	55	C11H5NO3-
205.053	13	C14H7NO-
206.0612	22	C14H8NO-
207.0561	11	C13H7N2O-
207.0691	22	C14H9NO-
208.0404	36	C13H6NO2-
208.0634	8	C13H8N2O-
208.0768	22	C14H10NO-
209.0484	97	C13H7NO2-
209.0715	20	C13H9N2O-
210.0558	48	C13H8NO2-
211.0635	24	C13H9NO2-
212.0354	23	C12H6NO3-
221.0355	37	C13H5N2O2-
222.0562	25	C14H8NO2-
223.0639	64	C14H9NO2-
224.0717	791	C14H10NO2-
225.068	10	C13H9N2O2-
227.0587	11	C13H9NO3-
228.0671	10	C13H10NO3-
237.0675	45	C14H9N2O2-
238.0508	18	C14H8NO3-
239.0463	190	C13H7N2O3-
240.0668	19	C14H10NO3-
241.0622	10	C13H9N2O3-
249.067	9	C15H9N2O2-
253.062	57	C14H9N2O3-
253.0748	13	C15H11NO3-
255.0774	12	C14H11N2O3-
257.0565	12	C13H9N2O4-
265.062	12	C15H9N2O3-
268.0612	109	C15H10NO4-
