Mass spectrum: Monobenzyl phthalate; LC-ESI-QFT; MS2; CE: 90; R=17500; [M-H]-
Name: Monobenzyl phthalate
Name: 2-phenylmethoxycarbonylbenzoic acid
Formula: C15H12O4
Exact mass: 256.0736
SMILES: OC(=O)C1=C(C=CC=C1)C(=O)OCC1=CC=CC=C1
InChI: InChI=1S/C15H12O4/c16-14(17)12-8-4-5-9-13(12)15(18)19-10-11-6-2-1-3-7-11/h1-9H,10H2,(H,16,17)
Instrument: Q Exactive Orbitrap (Thermo Scientific)
Instrument type: LC-ESI-QFT
Ms type: MS2
Ion mode: NEGATIVE
Ionization: ESI
Fragmentation mode: HCD
Collision energy: 90
Resolution: 17500
Column name: Acquity BEH C18 1.7um, 2.1x150mm (Waters)
Retention time: 16.658 min
Base peak: 429.0536
Precursor m/z: 255.0663
Precursor type: [M-H]-
Precursor intensity: 29510031.18164
m/z	relative intensity	assigned
59.0138	80	C2H3O2-
75.0241	999	C6H3-
93.0347	47	C6H5O-
103.0188	38	C7H3O-
105.0346	22	C7H5O-
107.0501	14	C7H7O-
119.0137	19	C7H3O2-
121.0295	61	C7H5O2-
123.0454	15	C7H7O2-
147.0084	12	C8H3O3-
