Mass spectrum: CP-863187; LC-ESI-QFT; MS2; CE: 15; R=17500; [M+H]+
Name: CP-863187
Name: 1,2,4-Triazolo(4,3-a)pyridine, 6-(4-(2,5-difluorophenyl)-5-oxazolyl)-3-(1-methylethyl)-
Name: 4-(2,5-difluorophenyl)-5-(3-propan-2-yl-[1,2,4]triazolo[4,3-a]pyridin-6-yl)-1,3-oxazole
Formula: C18H14F2N4O
Exact mass: 340.1136
SMILES: CC(C)C1=NN=C2C=CC(=CN12)C1=C(N=CO1)C1=CC(F)=CC=C1F
InChI: InChI=1S/C18H14F2N4O/c1-10(2)18-23-22-15-6-3-11(8-24(15)18)17-16(21-9-25-17)13-7-12(19)4-5-14(13)20/h3-10H,1-2H3
Instrument: Q Exactive Orbitrap (Thermo Scientific)
Instrument type: LC-ESI-QFT
Ms type: MS2
Ion mode: POSITIVE
Ionization: ESI
Fragmentation mode: HCD
Collision energy: 15
Resolution: 17500
Column name: Acquity BEH C18 1.7um, 2.1x150mm (Waters)
Retention time: 15.986 min
Base peak: 79.0211
Precursor m/z: 341.1208
Precursor type: [M+H]+
Precursor intensity: 35712665.4375
m/z	relative intensity	assigned
190.0477	1	C11H6F2N+
341.1207	999	C18H15F2N4O+
