Mass spectrum: N2-(4-Nitrophenyl)-L-glutamine; LC-ESI-QFT; MS2; CE: 75; R=17500; [M+H]+
Name: N2-(4-Nitrophenyl)-L-glutamine
Name: (2S)-5-amino-2-(4-nitroanilino)-5-oxopentanoic acid
Formula: C11H13N3O5
Exact mass: 267.0855
SMILES: NC(=O)CC[C@H](NC1=CC=C(C=C1)[N+]([O-])=O)C(O)=O
InChI: InChI=1S/C11H13N3O5/c12-10(15)6-5-9(11(16)17)13-7-1-3-8(4-2-7)14(18)19/h1-4,9,13H,5-6H2,(H2,12,15)(H,16,17)/t9-/m0/s1
Instrument: Q Exactive Orbitrap (Thermo Scientific)
Instrument type: LC-ESI-QFT
Ms type: MS2
Ion mode: POSITIVE
Ionization: ESI
Fragmentation mode: HCD
Collision energy: 75
Resolution: 17500
Column name: Acquity BEH C18 1.7um, 2.1x150mm (Waters)
Retention time: 11.272 min
Base peak: 79.0211
Precursor m/z: 268.0928
Precursor type: [M+H]+
Precursor intensity: 4146744.84375
m/z	relative intensity	assigned
53.0022	9	C3HO+
53.9974	1	C2NO+
56.0495	185	C3H6N+
57.0335	6	C3H5O+
65.0386	4	C5H5+
68.0495	4	C4H6N+
69.0335	2	C4H5O+
75.0229	1	C6H3+
84.0444	999	C4H6NO+
85.0284	23	C4H5O2+
92.0494	15	C6H6N+
93.0574	14	C6H7N+
95.0127	2	C5H3O2+
102.0551	4	C4H8NO2+
108.0445	1	C6H6NO+
109.0528	1	C6H7NO+
110.0601	3	C6H8NO+
119.0366	2	C7H5NO+
122.0475	113	C6H6N2O+
125.0472	10	C6H7NO2+
130.05	4	C5H8NO3+
130.0652	10	C9H8N+
131.0733	1	C9H9N+
137.0346	2	C6H5N2O2+
139.0504	10	C6H7N2O2+
149.0348	3	C7H5N2O2+
150.03	1	C6H4N3O2+
158.084	7	C10H10N2+
159.0681	4	C10H9NO+
165.0296	6	C7H5N2O3+
190.0738	8	C10H10N2O2+
191.058	3	C10H9NO3+
205.0613	1	C10H9N2O3+
205.0738	2	C11H11NO3+
237.0636	2	C11H11NO5+
