Mass spectrum: Flusilazole; LC-ESI-QFT; MS2; CE: 75; R=17500; [M+H]+
Name: Flusilazole
Name: bis(4-fluorophenyl)-methyl-(1,2,4-triazol-1-ylmethyl)silane
Formula: C16H15F2N3Si
Exact mass: 315.1003
SMILES: C[Si](CN1C=NC=N1)(C1=CC=C(F)C=C1)C1=CC=C(F)C=C1
InChI: InChI=1S/C16H15F2N3Si/c1-22(12-21-11-19-10-20-21,15-6-2-13(17)3-7-15)16-8-4-14(18)5-9-16/h2-11H,12H2,1H3
Instrument: Q Exactive Orbitrap (Thermo Scientific)
Instrument type: LC-ESI-QFT
Ms type: MS2
Ion mode: POSITIVE
Ionization: ESI
Fragmentation mode: HCD
Collision energy: 75
Resolution: 17500
Column name: Acquity BEH C18 1.7um, 2.1x150mm (Waters)
Retention time: 18.340 min
Base peak: 79.0211
Precursor m/z: 316.1076
Precursor type: [M+H]+
Precursor intensity: 1587710.4375
m/z	relative intensity	assigned
53.0386	93	C4H5+
55.0541	6	C4H7+
63.0063	7	CH4FSi+
65.0386	38	C5H5+
77.0385	24	CH4FN3+
79.0542	82	C6H7+
81.0003	66	C4FN+
89.0388	9	C7H5+
91.0543	236	C7H7+
95.0159	137	C5H2FN+
95.0492	272	C4H5N3+
103.0542	60	C8H7+
105.0448	130	C6H5N2+
105.0699	106	C8H9+
109.0316	29	C6H4FN+
109.0449	177	C7H6F+
111.0107	8	C8HN+
113.0269	6	C8H3N+
115.0543	72	C9H7+
123.0605	14	C8H8F+
128.062	16	C10H8+
129.0699	14	C10H9+
139.0541	31	C11H7+
141.0701	20	C11H9+
152.0622	149	C12H8+
153.07	52	C12H9+
155.0606	10	C10H7N2+
155.0857	12	C12H11+
163.0544	16	C13H7+
164.062	27	C13H8+
165.07	999	C13H9+
166.0778	8	C13H10+
168.0571	49	C10H6N3+
169.0478	9	C11H9Si+
169.0648	23	C10H7N3+
171.0434	8	C8H9F2Si+
173.0763	7	C12H10F+
175.0223	44	C10H3F2N+
178.0778	42	C14H10+
179.0607	11	C12H7N2+
179.0856	14	C14H11+
183.0606	140	C13H8F+
184.069	11	C13H9F+
185.0431	19	C9H7N3Si+
185.0761	64	C13H10F+
187.0585	55	C9H9N3Si+
196.0517	18	C10H10F2Si+
201.0739	8	C10H11N3Si+
235.0385	7	C15H8FSi+
235.0595	12	C13H9N3Si+
253.0493	15	C13H8FN3Si+
267.0644	12	C14H10FN3Si+
