Mass spectrum: Kinetin; LC-ESI-QFT; MS2; CE: 15; R=17500; [M-H]-
Name: Kinetin
Name: N-(furan-2-ylmethyl)-7H-purin-6-amine
Formula: C10H9N5O
Exact mass: 215.0807
SMILES: C(NC1=C2N=CN=C2N=CN1)C1=CC=CO1
InChI: InChI=1S/C10H9N5O/c1-2-7(16-3-1)4-11-9-8-10(13-5-12-8)15-6-14-9/h1-3,5-6H,4H2,(H2,11,12,13,14,15)
Instrument: Q Exactive Orbitrap (Thermo Scientific)
Instrument type: LC-ESI-QFT
Ms type: MS2
Ion mode: NEGATIVE
Ionization: ESI
Fragmentation mode: HCD
Collision energy: 15
Resolution: 17500
Column name: Acquity BEH C18 1.7um, 2.1x150mm (Waters)
Retention time: 11.237 min
Base peak: 214.0735
Precursor m/z: 214.0734
Precursor type: [M-H]-
Precursor intensity: 7065214.857178
m/z	relative intensity	assigned
92.0254	1	C4H2N3-
107.0364	1	C4H3N4-
117.0202	4	C5HN4-
121.0406	1	C6H5N2O-
132.0319	1	C5H2N5-
133.0394	258	C5H3N5-
134.0472	276	C5H4N5-
144.0314	1	C6H2N5-
146.0471	2	C6H4N5-
158.0473	8	C7H4N5-
160.0265	2	C6H2N5O-
160.0628	3	C7H6N5-
169.0518	2	C9H5N4-
170.0473	29	C8H4N5-
172.0625	2	C8H6N5-
173.0343	6	C7H3N5O-
186.0786	26	C9H8N5-
187.0627	6	C9H7N4O-
196.0629	137	C10H6N5-
199.0499	2	C9H5N5O-
214.0735	999	C10H8N5O-
