Mass spectrum: 4-Acetylaminophenylacetic acid; LC-ESI-QFT; MS2; CE: 75; R=17500; [M+H]+
Name: 4-Acetylaminophenylacetic acid
Name: Actarit
Name: 2-(4-acetamidophenyl)acetic acid
Formula: C10H11NO3
Exact mass: 193.0739
SMILES: CC(=O)NC1=CC=C(CC(O)=O)C=C1
InChI: InChI=1S/C10H11NO3/c1-7(12)11-9-4-2-8(3-5-9)6-10(13)14/h2-5H,6H2,1H3,(H,11,12)(H,13,14)
Instrument: Q Exactive Orbitrap (Thermo Scientific)
Instrument type: LC-ESI-QFT
Ms type: MS2
Ion mode: POSITIVE
Ionization: ESI
Fragmentation mode: HCD
Collision energy: 75
Resolution: 17500
Column name: Acquity BEH C18 1.7um, 2.1x150mm (Waters)
Retention time: 11.791 min
Base peak: 79.0212
Precursor m/z: 194.0812
Precursor type: [M+H]+
Precursor intensity: 8383713.25
m/z	relative intensity	assigned
53.0385	1	C4H5+
67.0178	1	C4H3O+
79.0542	14	C6H7+
93.0574	3	C6H7N+
95.0492	3	C6H7O+
106.0651	999	C7H8N+
107.049	9	C7H7O+
148.0756	5	C9H10NO+
152.0707	2	C8H10NO2+
