Mass spectrum: PharmaGSID_48516; LC-ESI-QFT; MS2; CE: 15; R=17500; [M+H]+
Name: 2-chloro-4-fluoro-N-[(E)-2-phenylethenyl]sulfonylbenzamide
Name: 2-Chloro-4-fluoro-N-{[(E)-2-phenylethenyl]sulfonyl}benzamide
Name: PharmaGSID_48516
Formula: C15H11ClFNO3S
Exact mass: 339.0132
SMILES: O=C(NS(=O)(=O)/C=C/c1ccccc1)c1ccc(F)cc1Cl
InChI: InChI=1S/C15H11ClFNO3S/c16-14-10-12(17)6-7-13(14)15(19)18-22(20,21)9-8-11-4-2-1-3-5-11/h1-10H,(H,18,19)/b9-8+
Instrument: Q Exactive Orbitrap (Thermo Scientific)
Instrument type: LC-ESI-QFT
Ms type: MS2
Ion mode: POSITIVE
Ionization: ESI
Fragmentation mode: HCD
Collision energy: 15
Resolution: 17500
Column name: Acquity BEH C18 1.7um, 2.1x150mm (Waters)
Retention time: 16.772 min
Base peak: 79.0211
Precursor m/z: 340.0205
Precursor type: [M+H]+
Precursor intensity: 1746147.8125
m/z	relative intensity	assigned
103.0542	45	C8H7+
156.001	5	C7H4ClFN+
156.9851	999	C7H3ClFO+
166.0322	4	C8H8NOS+
167.0162	314	C8H7O2S+
174.0119	2	C7H6ClFNO+
185.0269	2	C8H9O3S+
