Mass spectrum: Promecarb; LC-ESI-QFT; MS2; CE: 90; R=17500; [M+H]+
Name: Promecarb
Name: (3-methyl-5-propan-2-ylphenyl) N-methylcarbamate
Formula: C12H17NO2
Exact mass: 207.1259
SMILES: CNC(=O)OC1=CC(=CC(C)=C1)C(C)C
InChI: InChI=1S/C12H17NO2/c1-8(2)10-5-9(3)6-11(7-10)15-12(14)13-4/h5-8H,1-4H3,(H,13,14)
Instrument: Q Exactive Orbitrap (Thermo Scientific)
Instrument type: LC-ESI-QFT
Ms type: MS2
Ion mode: POSITIVE
Ionization: ESI
Fragmentation mode: HCD
Collision energy: 90
Resolution: 17500
Column name: Acquity BEH C18 1.7um, 2.1x150mm (Waters)
Retention time: 17.557 min
Base peak: 79.0211
Precursor m/z: 208.1332
Precursor type: [M+H]+
Precursor intensity: 3852094.46875
m/z	relative intensity	assigned
72.0443	219	C3H6NO+
81.0699	171	C6H9+
91.0543	579	C7H7+
94.0414	330	C6H6O+
107.0492	156	C7H7O+
109.0648	999	C7H9O+
