Mass spectrum: 4-(Dimethylamino)phenylthiocyanate; LC-ESI-QFT; MS2; CE: 15; R=17500; [M+H]+
Name: 4-(Dimethylamino)phenylthiocyanate
Name: Thiocyanic acid, 4-(dimethylamino)phenyl ester
Name: [4-(dimethylamino)phenyl] thiocyanate
Formula: C9H10N2S
Exact mass: 178.0565
SMILES: CN(C)C1=CC=C(SC#N)C=C1
InChI: InChI=1S/C9H10N2S/c1-11(2)8-3-5-9(6-4-8)12-7-10/h3-6H,1-2H3
Instrument: Q Exactive Orbitrap (Thermo Scientific)
Instrument type: LC-ESI-QFT
Ms type: MS2
Ion mode: POSITIVE
Ionization: ESI
Fragmentation mode: HCD
Collision energy: 15
Resolution: 17500
Column name: Acquity BEH C18 1.7um, 2.1x150mm (Waters)
Retention time: 17.205 min
Base peak: 79.0211
Precursor m/z: 179.0637
Precursor type: [M+H]+
Precursor intensity: 9309947.8125
m/z	relative intensity	assigned
121.0886	16	C8H11N+
131.0604	1	C8H7N2+
137.0117	4	C9HN2+
147.0137	2	C8H5NS+
153.0608	1	C8H11NS+
163.0326	1	C8H7N2S+
164.0402	383	C8H8N2S+
179.0637	999	C9H11N2S+
