Mass spectrum: Hexylparaben; LC-ESI-QFT; MS2; CE: 45; R=17500; [M-H]-
Name: Hexylparaben
Name: hexyl 4-hydroxybenzoate
Formula: C13H18O3
Exact mass: 222.1256
SMILES: CCCCCCOC(=O)C1=CC=C(O)C=C1
InChI: InChI=1S/C13H18O3/c1-2-3-4-5-10-16-13(15)11-6-8-12(14)9-7-11/h6-9,14H,2-5,10H2,1H3
Instrument: Q Exactive Orbitrap (Thermo Scientific)
Instrument type: LC-ESI-QFT
Ms type: MS2
Ion mode: NEGATIVE
Ionization: ESI
Fragmentation mode: HCD
Collision energy: 45
Resolution: 17500
Column name: Acquity BEH C18 1.7um, 2.1x150mm (Waters)
Retention time: 18.967 min
Base peak: 221.1183
Precursor m/z: 221.1183
Precursor type: [M-H]-
Precursor intensity: 83991491.21973
m/z	relative intensity	assigned
53.0033	1	C3HO-
59.0138	1	C2H3O2-
67.019	3	C4H3O-
68.9982	8	C3HO2-
69.0345	5	C4H5O-
70.006	5	C3H2O2-
71.0138	5	C3H3O2-
72.9932	3	C2HO3-
78.0111	1	C5H2O-
79.0189	4	C5H3O-
79.9904	3	C4O2-
80.9981	2	C4HO2-
82.006	23	C4H2O2-
86.0008	1	C3H2O3-
91.019	32	C6H3O-
92.0268	149	C6H4O-
93.0346	960	C6H5O-
95.0138	286	C5H3O2-
97.0297	3	C5H5O2-
99.0816	24	C6H11O-
106.006	15	C6H2O2-
106.0423	5	C7H6O-
107.0141	2	C6H3O2-
108.0217	260	C6H4O2-
119.0138	30	C7H3O2-
121.0295	32	C7H5O2-
123.0088	36	C6H3O3-
125.0248	1	C6H5O3-
136.0166	999	C7H4O3-
137.0244	757	C7H5O3-
177.1283	5	C12H17O-
221.1183	710	C13H17O3-
