Mass spectrum: Meloxicam; LC-ESI-QFT; MS2; CE: 45; R=17500; [M+H]+
Name: Meloxicam
Name: 4-hydroxy-2-methyl-N-(5-methyl-1,3-thiazol-2-yl)-1,1-dioxo-1lambda6,2-benzothiazine-3-carboxamide
Formula: C14H13N3O4S2
Exact mass: 351.0347
SMILES: CN1C(C(=O)NC2=NC=C(C)S2)=C(O)C2=C(C=CC=C2)S1(=O)=O
InChI: InChI=1S/C14H13N3O4S2/c1-8-7-15-14(22-8)16-13(19)11-12(18)9-5-3-4-6-10(9)23(20,21)17(11)2/h3-7,18H,1-2H3,(H,15,16,19)
Instrument: Q Exactive Orbitrap (Thermo Scientific)
Instrument type: LC-ESI-QFT
Ms type: MS2
Ion mode: POSITIVE
Ionization: ESI
Fragmentation mode: HCD
Collision energy: 45
Resolution: 17500
Column name: Acquity BEH C18 1.7um, 2.1x150mm (Waters)
Retention time: 16.851 min
Base peak: 79.0211
Precursor m/z: 352.042
Precursor type: [M+H]+
Precursor intensity: 9892652.875
m/z	relative intensity	assigned
56.0495	1	C3H6N+
73.0106	34	C3H5S+
88.0216	12	C3H6NS+
109.0108	2	C6H5S+
113.0168	3	C4H5N2S+
114.0008	1	C4H4NOS+
115.0324	999	C4H7N2S+
127.0323	4	C5H7N2S+
137.0055	5	C7H5OS+
141.0116	380	C5H5N2OS+
153.0004	18	C7H5O2S+
164.0163	6	C8H6NOS+
168.9955	2	C7H5O3S+
184.0539	2	C7H10N3OS+
194.0271	3	C9H8NO2S+
210.0219	6	C9H8NO3S+
249.0146	1	C11H9N2OS2+
265.0102	2	C11H9N2O2S2+
270.044	1	C14H10N2O2S+
