Mass spectrum: N-Dodecanoyl-N-methylglycine; LC-ESI-QFT; MS2; CE: 90; R=17500; [M+H]+
Name: N-Dodecanoyl-N-methylglycine
Name: N-Lauroylsarcosine
Name: 2-[dodecanoyl(methyl)amino]acetic acid
Formula: C15H29NO3
Exact mass: 271.2147
SMILES: CCCCCCCCCCCC(=O)N(C)CC(O)=O
InChI: InChI=1S/C15H29NO3/c1-3-4-5-6-7-8-9-10-11-12-14(17)16(2)13-15(18)19/h3-13H2,1-2H3,(H,18,19)
Instrument: Q Exactive Orbitrap (Thermo Scientific)
Instrument type: LC-ESI-QFT
Ms type: MS2
Ion mode: POSITIVE
Ionization: ESI
Fragmentation mode: HCD
Collision energy: 90
Resolution: 17500
Column name: Acquity BEH C18 1.7um, 2.1x150mm (Waters)
Retention time: 19.710 min
Base peak: 79.0211
Precursor m/z: 272.222
Precursor type: [M+H]+
Precursor intensity: 11033360.75
m/z	relative intensity	assigned
53.0022	116	C3HO+
53.0387	20	C4H5+
53.9975	25	C2NO+
55.0543	241	C4H7+
57.0699	999	C4H9+
58.0652	34	C3H8N+
65.0386	26	C5H5+
67.0542	369	C5H7+
69.0698	27	C5H9+
71.0855	87	C5H11+
72.0806	8	C4H10N+
74.0965	10	C4H12N+
79.0543	64	C6H7+
81.0699	144	C6H9+
83.0855	8	C6H11+
90.055	222	C3H8NO2+
91.0544	10	C7H7+
93.0699	27	C7H9+
95.0856	126	C7H11+
109.1013	9	C8H13+
117.0573	52	C8H7N+
128.0621	31	C10H8+
130.0654	37	C9H8N+
141.0698	6	C11H9+
144.0811	23	C10H10N+
153.0706	7	C12H9+
157.0889	8	C11H11N+
158.0964	15	C11H12N+
167.0732	8	C12H9N+
174.0528	17	C10H8NO2+
185.0454	6	C11H7NO2+
186.0526	6	C11H8NO2+
198.0527	87	C12H8NO2+
211.0609	8	C13H9NO2+
212.0683	17	C13H10NO2+
