Mass spectrum: CP-457920; LC-ESI-QFT; MS2; CE: 75; R=17500; [M+H]+
Name: CP-457920
Name: 1,5-Naphthyridine-3-carboxamide, 6-ethoxy-1,4-dihydro-4-oxo-N-(phenylmethyl)-
Name: N-benzyl-6-ethoxy-4-oxo-1H-1,5-naphthyridine-3-carboxamide
Formula: C18H17N3O3
Exact mass: 323.1270
SMILES: CCOC1=NC2=C(NC=C(C(=O)NCC3=CC=CC=C3)C2=O)C=C1
InChI: InChI=1S/C18H17N3O3/c1-2-24-15-9-8-14-16(21-15)17(22)13(11-19-14)18(23)20-10-12-6-4-3-5-7-12/h3-9,11H,2,10H2,1H3,(H,19,22)(H,20,23)
Instrument: Q Exactive Orbitrap (Thermo Scientific)
Instrument type: LC-ESI-QFT
Ms type: MS2
Ion mode: POSITIVE
Ionization: ESI
Fragmentation mode: HCD
Collision energy: 75
Resolution: 17500
Column name: Acquity BEH C18 1.7um, 2.1x150mm (Waters)
Retention time: 16.966 min
Base peak: 79.0212
Precursor m/z: 324.1343
Precursor type: [M+H]+
Precursor intensity: 10852202
m/z	relative intensity	assigned
52.0182	1	C3H2N+
53.0023	2	C3HO+
54.0339	2	C3H4N+
63.0229	1	C5H3+
64.0182	1	C4H2N+
65.0386	74	C5H5+
78.0338	15	C5H4N+
80.0132	1	C4H2NO+
88.0182	3	C6H2N+
90.0339	1	C6H4N+
91.0542	999	C7H7+
93.0448	7	C5H5N2+
105.0448	40	C6H5N2+
106.0289	5	C6H4NO+
115.0293	4	C7H3N2+
117.0447	2	C7H5N2+
120.0318	1	C6H4N2O+
121.0396	6	C6H5N2O+
133.0397	75	C7H5N2O+
143.024	90	C8H3N2O+
145.0396	75	C8H5N2O+
147.0552	2	C8H7N2O+
148.0269	1	C7H4N2O2+
151.0502	1	C7H7N2O2+
161.0346	624	C8H5N2O2+
163.0385	1	C9H7O3+
163.0502	10	C8H7N2O2+
171.0189	14	C9H3N2O2+
173.071	1	C10H9N2O+
175.0502	22	C9H7N2O2+
177.0658	8	C9H9N2O2+
179.0451	47	C8H7N2O3+
189.0295	59	C9H5N2O3+
207.0401	527	C12H5N3O+
221.0557	18	C13H7N3O+
235.0713	14	C14H9N3O+
