Mass spectrum: Napropamide; LC-ESI-QFT; MS2; CE: 75; R=17500; [M+H]+
Name: Napropamide
Name: N,N-diethyl-2-naphthalen-1-yloxypropanamide
Formula: C17H21NO2
Exact mass: 271.1572
SMILES: CCN(CC)C(=O)C(C)OC1=C2C=CC=CC2=CC=C1
InChI: InChI=1S/C17H21NO2/c1-4-18(5-2)17(19)13(3)20-16-12-8-10-14-9-6-7-11-15(14)16/h6-13H,4-5H2,1-3H3
Instrument: Q Exactive Orbitrap (Thermo Scientific)
Instrument type: LC-ESI-QFT
Ms type: MS2
Ion mode: POSITIVE
Ionization: ESI
Fragmentation mode: HCD
Collision energy: 75
Resolution: 17500
Column name: Acquity BEH C18 1.7um, 2.1x150mm (Waters)
Retention time: 18.023 min
Base peak: 79.0211
Precursor m/z: 272.1645
Precursor type: [M+H]+
Precursor intensity: 45177869
m/z	relative intensity	assigned
55.0178	41	C3H3O+
56.0495	3	C3H6N+
57.0335	171	C3H5O+
58.0651	999	C3H8N+
60.0807	2	C3H10N+
65.0384	2	C5H5+
72.0444	144	C3H6NO+
72.0807	330	C4H10N+
73.0886	1	C4H11N+
74.0964	147	C4H12N+
86.06	34	C4H8NO+
91.0544	8	C7H7+
100.0757	149	C5H10NO+
100.1121	90	C6H14N+
101.0835	35	C5H11NO+
103.0542	17	C8H7+
114.0913	42	C6H12NO+
115.0542	81	C9H7+
116.0622	9	C9H8+
117.0698	5	C9H9+
127.0541	16	C10H7+
128.062	699	C10H8+
129.0698	72	C10H9+
129.1148	10	C7H15NO+
131.0492	2	C9H7O+
141.0698	36	C11H9+
142.0778	9	C11H10+
143.0494	25	C10H7O+
143.0856	404	C11H11+
144.0569	18	C10H8O+
145.0648	85	C10H9O+
152.0621	172	C12H8+
153.0699	301	C12H9+
154.0776	4	C12H10+
156.0571	5	C11H8O+
169.0649	22	C12H9O+
170.0726	11	C12H10O+
171.0804	352	C12H11O+
