Mass spectrum: Penconazole; LC-ESI-QFT; MS2; CE: 75; R=17500; [M+H]+
Name: Penconazole
Name: 1-[2-(2,4-dichlorophenyl)pentyl]-1,2,4-triazole
Formula: C13H15Cl2N3
Exact mass: 283.0643
SMILES: CCCC(CN1C=NC=N1)C1=C(Cl)C=C(Cl)C=C1
InChI: InChI=1S/C13H15Cl2N3/c1-2-3-10(7-18-9-16-8-17-18)12-5-4-11(14)6-13(12)15/h4-6,8-10H,2-3,7H2,1H3
Instrument: Q Exactive Orbitrap (Thermo Scientific)
Instrument type: LC-ESI-QFT
Ms type: MS2
Ion mode: POSITIVE
Ionization: ESI
Fragmentation mode: HCD
Collision energy: 75
Resolution: 17500
Column name: Acquity BEH C18 1.7um, 2.1x150mm (Waters)
Retention time: 18.602 min
Base peak: 79.0212
Precursor m/z: 284.0716
Precursor type: [M+H]+
Precursor intensity: 32800301.28125
m/z	relative intensity	assigned
53.0022	15	ClH4N+
55.0543	5	C4H7+
57.0699	125	C4H9+
58.0651	59	C3H8N+
59.073	3	C3H9N+
60.0808	515	C3H10N+
69.0699	2	C5H9+
70.0399	999	C2H4N3+
71.0855	22	C5H11+
72.984	1	C3H2Cl+
75.0228	1	C6H3+
85.1013	3	C6H13+
89.0385	7	C7H5+
91.0543	2	C7H7+
98.9996	11	C5H4Cl+
101.0388	1	C8H5+
102.0464	32	C8H6+
119.0493	2	C5H10ClN+
122.9996	69	C7H4Cl+
124.0074	17	C7H5Cl+
129.0446	7	C8H5N2+
132.9607	6	C5H3Cl2+
134.0963	2	C9H12N+
137.0153	51	C8H6Cl+
138.0232	5	C8H7Cl+
158.9763	912	C7H5Cl2+
172.9921	21	C8H7Cl2+
