Mass spectrum: Thiamethoxam; LC-ESI-QFT; MS2; CE: 45; R=17500; [M+H]+
Name: Thiamethoxam
Name: N-[3-[(2-chloro-1,3-thiazol-5-yl)methyl]-5-methyl-1,3,5-oxadiazinan-4-ylidene]nitramide
Formula: C8H10ClN5O3S
Exact mass: 291.0193
SMILES: CN1COCN(CC2=CN=C(Cl)S2)C1=N[N+]([O-])=O
InChI: InChI=1S/C8H10ClN5O3S/c1-12-4-17-5-13(8(12)11-14(15)16)3-6-2-10-7(9)18-6/h2H,3-5H2,1H3
Instrument: Q Exactive Orbitrap (Thermo Scientific)
Instrument type: LC-ESI-QFT
Ms type: MS2
Ion mode: POSITIVE
Ionization: ESI
Fragmentation mode: HCD
Collision energy: 45
Resolution: 17500
Column name: Acquity BEH C18 1.7um, 2.1x150mm (Waters)
Retention time: 11.173 min
Base peak: 79.0212
Precursor m/z: 292.0266
Precursor type: [M+H]+
Precursor intensity: 2532737.5
m/z	relative intensity	assigned
61.0105	7	C2H5S+
69.0447	128	C3H5N2+
70.995	21	C3H3S+
99.001	24	C3H3N2S+
112.0214	12	C5H6NS+
113.0169	13	C4H5N2S+
122.0713	121	C6H8N3+
123.0792	9	C6H9N3+
125.0167	29	C5H5N2S+
131.9669	999	C4H3ClNS+
138.0121	14	C5H4N3S+
139.0324	25	C6H7N2S+
151.0198	39	C6H5N3S+
152.0277	87	C6H6N3S+
160.9934	7	C5H6ClN2S+
174.9727	43	C5H4ClN2OS+
179.0385	9	C7H7N4S+
180.0464	67	C7H8N4S+
181.0543	589	C7H9N4S+
199.0649	52	C7H11N4OS+
210.057	11	C8H10N4OS+
211.0649	203	C8H11N4OS+
