Mass spectrum: Propane-1,3-diyl bis(4-aminobenzoate); LC-ESI-QFT; MS2; CE: 60; R=17500; [M+H]+
Name: Propane-1,3-diyl bis(4-aminobenzoate)
Name: 3-(4-aminobenzoyl)oxypropyl 4-aminobenzoate
Formula: C17H18N2O4
Exact mass: 314.1267
SMILES: NC1=CC=C(C=C1)C(=O)OCCCOC(=O)C1=CC=C(N)C=C1
InChI: InChI=1S/C17H18N2O4/c18-14-6-2-12(3-7-14)16(20)22-10-1-11-23-17(21)13-4-8-15(19)9-5-13/h2-9H,1,10-11,18-19H2
Instrument: Q Exactive Orbitrap (Thermo Scientific)
Instrument type: LC-ESI-QFT
Ms type: MS2
Ion mode: POSITIVE
Ionization: ESI
Fragmentation mode: HCD
Collision energy: 60
Resolution: 17500
Column name: Acquity BEH C18 1.7um, 2.1x150mm (Waters)
Retention time: 15.029 min
Base peak: 79.0211
Precursor m/z: 315.1339
Precursor type: [M+H]+
Precursor intensity: 705413.5
m/z	relative intensity	assigned
67.0178	740	C4H3O+
91.0542	615	C7H7+
120.0445	999	C7H6NO+
168.0809	185	C12H10N+
180.081	363	C13H10N+
182.0968	199	C13H12N+
196.0761	199	C13H10NO+
208.076	563	C14H10NO+
209.0835	264	C14H11NO+
210.0917	711	C14H12NO+
226.0861	984	C14H12NO2+
236.0704	405	C15H10NO2+
241.0736	220	C14H11NO3+
243.0895	141	C14H13NO3+
254.0808	412	C15H12NO3+
268.0971	293	C16H14NO3+
269.1057	115	C16H15NO3+
