Mass spectrum: Hexazinone; LC-ESI-QFT; MS2; CE: 15; R=17500; [M+H]+
Name: Hexazinone
Name: 3-cyclohexyl-6-(dimethylamino)-1-methyl-1,3,5-triazine-2,4-dione
Formula: C12H20N4O2
Exact mass: 252.1586
SMILES: CN(C)C1=NC(=O)N(C2CCCCC2)C(=O)N1C
InChI: InChI=1S/C12H20N4O2/c1-14(2)10-13-11(17)16(12(18)15(10)3)9-7-5-4-6-8-9/h9H,4-8H2,1-3H3
Instrument: Q Exactive Orbitrap (Thermo Scientific)
Instrument type: LC-ESI-QFT
Ms type: MS2
Ion mode: POSITIVE
Ionization: ESI
Fragmentation mode: HCD
Collision energy: 15
Resolution: 17500
Column name: Acquity BEH C18 1.7um, 2.1x150mm (Waters)
Retention time: 15.350 min
Base peak: 79.0211
Precursor m/z: 253.1659
Precursor type: [M+H]+
Precursor intensity: 20062297
m/z	relative intensity	assigned
71.0605	4	C3H7N2+
83.0857	1	C6H11+
85.0759	4	C4H9N2+
171.0876	999	C6H11N4O2+
253.1658	709	C12H21N4O2+
