Mass spectrum: UK-343664; LC-ESI-QFT; MS2; CE: 60; R=17500; [M+H]+
Name: UK-343664
Name: 3-ethyl-5-[5-(4-ethylpiperazin-1-yl)sulfonyl-2-propoxyphenyl]-2-(pyridin-2-ylmethyl)-4H-pyrazolo[4,3-d]pyrimidin-7-one
Formula: C28H35N7O4S
Exact mass: 565.2471
SMILES: CCCOC1=C(C=C(C=C1)S(=O)(=O)N1CCN(CC)CC1)C1=NC2=C(CC)N(CC3=CC=CC=N3)N=C2C(=O)N1
InChI: InChI=1S/C28H35N7O4S/c1-4-17-39-24-11-10-21(40(37,38)34-15-13-33(6-3)14-16-34)18-22(24)27-30-25-23(5-2)35(32-26(25)28(36)31-27)19-20-9-7-8-12-29-20/h7-12,18H,4-6,13-17,19H2,1-3H3,(H,30,31,36)
Instrument: Q Exactive Orbitrap (Thermo Scientific)
Instrument type: LC-ESI-QFT
Ms type: MS2
Ion mode: POSITIVE
Ionization: ESI
Fragmentation mode: HCD
Collision energy: 60
Resolution: 17500
Column name: Acquity BEH C18 1.7um, 2.1x150mm (Waters)
Retention time: 14.203 min
Base peak: 79.0211
Precursor m/z: 566.2544
Precursor type: [M+H]+
Precursor intensity: 5829732.25
m/z	relative intensity	assigned
53.0023	1	C3HO+
56.0495	105	C3H6N+
57.0573	46	C3H7N+
58.0651	261	C3H8N+
65.0386	90	C5H5+
66.0464	3	C5H6+
67.0416	1	C4H5N+
68.0494	5	C4H6N+
70.0651	126	C4H8N+
71.0729	56	C4H9N+
72.0807	999	C4H10N+
80.0494	27	C5H6N+
82.0526	1	C4H6N2+
82.0651	5	C5H8N+
83.0604	16	C4H7N2+
84.0682	29	C4H8N2+
84.0808	124	C5H10N+
85.0761	5	C4H9N2+
92.0495	82	C6H6N+
93.0573	203	C6H7N+
94.0651	48	C6H8N+
96.0444	4	C5H6NO+
96.0682	4	C5H8N2+
96.0807	4	C6H10N+
97.0761	7	C5H9N2+
98.0839	51	C5H10N2+
99.0917	174	C5H11N2+
106.0402	5	C5H4N3+
106.0651	3	C7H8N+
107.0478	4	C5H5N3+
107.0603	1	C6H7N2+
108.0447	1	C6H6NO+
110.06	483	C6H8NO+
111.0917	23	C6H11N2+
112.0993	6	C6H12N2+
113.1073	127	C6H13N2+
114.1151	2	C6H14N2+
115.123	16	C6H15N2+
117.0572	7	C8H7N+
118.0651	2	C8H8N+
119.0603	2	C7H7N2+
120.0444	1	C7H6NO+
120.0808	1	C8H10N+
124.0756	6	C7H10NO+
130.0651	2	C9H8N+
131.0602	1	C8H7N2+
136.0507	3	C6H6N3O+
138.0661	1	C6H8N3O+
145.0648	4	C10H9O+
145.0759	2	C9H9N2+
147.0914	1	C9H11N2+
154.06	2	C4H6N6O+
154.0659	2	C5H14O3S+
155.0604	2	C10H7N2+
156.0684	1	C10H8N2+
161.0594	1	C10H9O2+
169.0762	3	C11H9N2+
170.0714	2	C10H8N3+
181.0758	2	C12H9N2+
182.06	6	C12H8NO+
184.0755	1	C12H10NO+
184.0867	5	C11H10N3+
185.0715	1	C5H15NO4S+
186.1023	2	C11H12N3+
196.087	1	C12H10N3+
197.0712	3	C12H9N2O+
198.0664	1	C11H8N3O+
201.0768	4	C10H9N4O+
209.0706	9	C13H9N2O+
210.0664	2	C12H8N3O+
211.0615	4	C11H7N4O+
211.0979	6	C12H11N4+
212.0819	5	C12H10N3O+
224.0814	1	C5H14N5O3S+
225.0769	21	C12H9N4O+
226.085	65	C12H10N4O+
227.0927	3	C12H11N4O+
236.0824	2	C8H16N2O4S+
239.0562	4	C12H7N4O2+
239.0927	26	C13H11N4O+
240.1005	2	C13H12N4O+
247.1195	2	C12H15N4O2+
252.0642	1	C13H8N4O2+
253.0719	38	C13H9N4O2+
254.0797	76	C13H10N4O2+
255.0875	23	C13H11N4O2+
256.0714	4	C13H10N3O3+
263.0929	3	C15H11N4O+
267.0876	28	C14H11N4O2+
269.0672	7	C13H9N4O3+
269.1034	6	C14H13N4O2+
283.0825	16	C14H11N4O3+
286.0696	33	C13H10N4O4+
296.1267	2	C16H16N4O2+
318.1348	44	C18H16N5O+
319.1185	4	C10H19N6O4S+
328.1174	11	C16H16N4O4+
330.0986	2	C18H12N5O2+
346.1299	53	C19H16N5O2+
347.1378	5	C19H17N5O2+
348.1445	3	C11H22N7O4S+
360.1456	1	C20H18N5O2+
362.1246	43	C19H16N5O3+
421.1741	4	C22H23N5O4+
