Mass spectrum: Nilutamide; LC-ESI-QFT; MS2; CE: 45; R=17500; [M-H]-
Name: Nilutamide
Name: 5,5-dimethyl-3-[4-nitro-3-(trifluoromethyl)phenyl]imidazolidine-2,4-dione
Formula: C12H10F3N3O4
Exact mass: 317.0623
SMILES: CC1(C)NC(=O)N(C1=O)C1=CC(=C(C=C1)[N+]([O-])=O)C(F)(F)F
InChI: InChI=1S/C12H10F3N3O4/c1-11(2)9(19)17(10(20)16-11)6-3-4-8(18(21)22)7(5-6)12(13,14)15/h3-5H,1-2H3,(H,16,20)
Instrument: Q Exactive Orbitrap (Thermo Scientific)
Instrument type: LC-ESI-QFT
Ms type: MS2
Ion mode: NEGATIVE
Ionization: ESI
Fragmentation mode: HCD
Collision energy: 45
Resolution: 17500
Column name: Acquity BEH C18 1.7um, 2.1x150mm (Waters)
Retention time: 16.669 min
Base peak: 316.0549
Precursor m/z: 316.0551
Precursor type: [M-H]-
Precursor intensity: 77913546.65234
m/z	relative intensity	assigned
55.0189	15	C3H3O-
65.9985	3	C3NO-
68.9958	1	CF3-
70.994	1	C3FO-
74.0037	1	C5N-
84.0455	19	C4H6NO-
86.9888	3	C3FO2-
93.0094	1	C4HN2O-
101.0143	1	C6HN2-
110.0247	2	C5H4NO2-
126.0349	1	C9H4N-
141.0458	4	C9H5N2-
154.011	1	C7H2F2NO-
155.0188	1	C7H3F2NO-
165.0106	2	C7H2FN2O2-
169.0407	2	C10H5N2O-
173.0094	3	C7H2F3NO-
174.0175	1	C7H3F3NO-
175.025	13	C7H4F3NO-
175.0437	1	C10H6FNO-
182.0059	5	C8H2F2NO2-
185.0221	1	C9H4F3O-
185.0355	1	C10H5N2O2-
186.0169	3	C8H3F3NO-
186.0361	1	C11H5FNO-
189.0169	2	C8H4F3O2-
190.0121	30	C7H3F3NO2-
199.0269	1	C11H5NO3-
199.0376	20	C10H6F3O-
200.0331	2	C9H5F3NO-
200.0455	4	C10H7F3O-
200.0693	3	C10H9F3N-
202.0122	104	C8H3F3NO2-
203.047	2	C7H8FN2O4-
204.0278	14	C8H5F3NO2-
205.0229	393	C7H4F3N2O2-
206.0069	20	C7H3F3NO3-
206.0426	5	C11H6F2NO-
208.0214	1	C10H4F2NO2-
209.0295	1	C10H5F2NO2-
211.025	1	C10H4F3NO-
212.0325	1	C10H5F3NO-
214.0122	1	C9H3F3NO2-
214.0482	1	C10H7F3NO-
215.0327	2	C10H6F3O2-
215.056	1	C10H8F3NO-
222.0371	8	C11H6F2NO2-
225.0405	3	C11H6F3NO-
226.0485	18	C11H7F3NO-
227.0327	2	C11H6F3O2-
227.0563	14	C11H8F3NO-
228.0279	7	C10H5F3NO2-
230.0433	5	C10H7F3NO2-
231.002	4	C8H2F3N2O3-
232.0099	10	C8H3F3N2O3-
242.0434	21	C11H7F3NO2-
243.015	1	C10H4F3NO3-
243.0511	8	C11H8F3NO2-
245.0543	2	C10H8F3N2O2-
254.031	5	C11H5F3N2O2-
255.0388	2	C11H6F3N2O2-
257.0306	2	C11H6F3NO3-
258.0253	3	C10H5F3N2O3-
271.0338	4	C11H6F3N2O3-
273.0493	999	C11H8F3N2O3-
301.0315	20	C11H6F3N3O4-
316.0548	24	C12H9F3N3O4-
