Mass spectrum: Testosterone propionate; LC-ESI-QFT; MS2; CE: 60; R=17500; [M+H]+
Name: Testosterone propionate
Name: [(8R,9S,10R,13S,14S,17S)-10,13-dimethyl-3-oxo-1,2,6,7,8,9,11,12,14,15,16,17-dodecahydrocyclopenta[a]phenanthren-17-yl] propanoate
Formula: C22H32O3
Exact mass: 344.2351
SMILES: CCC(=O)O[C@H]1CC[C@H]2[C@@H]3CCC4=CC(=O)CC[C@]4(C)[C@H]3CC[C@]12C
InChI: InChI=1S/C22H32O3/c1-4-20(24)25-19-8-7-17-16-6-5-14-13-15(23)9-11-21(14,2)18(16)10-12-22(17,19)3/h13,16-19H,4-12H2,1-3H3/t16-,17-,18-,19-,21-,22-/m0/s1
Instrument: Q Exactive Orbitrap (Thermo Scientific)
Instrument type: LC-ESI-QFT
Ms type: MS2
Ion mode: POSITIVE
Ionization: ESI
Fragmentation mode: HCD
Collision energy: 60
Resolution: 17500
Column name: Acquity BEH C18 1.7um, 2.1x150mm (Waters)
Retention time: 19.836 min
Base peak: 79.0211
Precursor m/z: 345.2424
Precursor type: [M+H]+
Precursor intensity: 6323361.25
m/z	relative intensity	assigned
53.0023	2	C3HO+
53.0386	7	C4H5+
55.0179	17	C3H3O+
55.0543	16	C4H7+
57.0335	139	C3H5O+
65.0386	4	C5H5+
67.0542	50	C5H7+
69.0334	5	C4H5O+
69.0699	36	C5H9+
77.0386	2	C6H5+
79.0542	157	C6H7+
81.0699	175	C6H9+
83.0492	50	C5H7O+
83.0856	4	C6H11+
91.0543	69	C7H7+
93.07	98	C7H9+
94.0415	2	C6H6O+
95.0492	16	C6H7O+
95.0856	76	C7H11+
97.0649	999	C6H9O+
105.07	95	C8H9+
107.0492	8	C7H7O+
107.0856	58	C8H11+
108.057	1	C7H8O+
109.0649	910	C7H9O+
111.0806	3	C7H11O+
117.0699	13	C9H9+
119.0856	74	C9H11+
121.0648	17	C8H9O+
121.1012	20	C9H13+
123.0805	92	C8H11O+
128.0622	2	C10H8+
129.0699	12	C10H9+
130.0781	1	C10H10+
131.0856	37	C10H11+
133.1012	48	C10H13+
135.0805	4	C9H11O+
135.1168	9	C10H15+
137.0962	3	C9H13O+
141.07	4	C11H9+
142.0779	6	C11H10+
143.0856	22	C11H11+
144.0935	4	C11H12+
145.1013	41	C11H13+
147.0804	5	C10H11O+
147.1168	32	C11H15+
149.0962	7	C10H13O+
149.1327	7	C11H17+
155.0855	12	C12H11+
156.0933	2	C12H12+
157.1012	23	C12H13+
159.1168	27	C12H15+
161.0964	2	C11H13O+
161.1325	13	C12H17+
163.1119	8	C11H15O+
163.1482	4	C12H19+
167.0856	1	C13H11+
168.0932	1	C13H12+
169.1012	12	C13H13+
171.117	19	C13H15+
173.0965	1	C12H13O+
173.133	9	C13H17+
175.1118	3	C12H15O+
175.1483	18	C13H19+
177.1276	5	C12H17O+
181.1017	1	C14H13+
182.1091	3	C14H14+
183.117	13	C14H15+
185.1327	9	C14H17+
187.1483	10	C14H19+
189.1277	2	C13H17O+
195.1173	1	C15H15+
197.1326	14	C15H17+
199.1483	3	C15H19+
201.1638	3	C15H21+
209.1322	1	C16H17+
211.1479	8	C16H19+
213.1638	7	C16H21+
215.143	1	C15H19O+
225.1637	3	C17H21+
238.1724	1	C18H22+
253.1954	5	C19H25+
