Mass spectrum: Pyraclostrobin; LC-ESI-QFT; MS2; CE: 30; R=17500; [M+H]+
Name: Pyraclostrobin
Name: methyl N-[2-[[1-(4-chlorophenyl)pyrazol-3-yl]oxymethyl]phenyl]-N-methoxycarbamate
Formula: C19H18ClN3O4
Exact mass: 387.0986
SMILES: CON(C(=O)OC)C1=C(COC2=NN(C=C2)C2=CC=C(Cl)C=C2)C=CC=C1
InChI: InChI=1S/C19H18ClN3O4/c1-25-19(24)23(26-2)17-6-4-3-5-14(17)13-27-18-11-12-22(21-18)16-9-7-15(20)8-10-16/h3-12H,13H2,1-2H3
Instrument: Q Exactive Orbitrap (Thermo Scientific)
Instrument type: LC-ESI-QFT
Ms type: MS2
Ion mode: POSITIVE
Ionization: ESI
Fragmentation mode: HCD
Collision energy: 30
Resolution: 17500
Column name: Acquity BEH C18 1.7um, 2.1x150mm (Waters)
Retention time: 18.708 min
Base peak: 79.0211
Precursor m/z: 388.1059
Precursor type: [M+H]+
Precursor intensity: 15373355.25
m/z	relative intensity	assigned
59.0128	2	C2H3O2+
75.044	9	C3H7O2+
77.0385	1	C6H5+
91.0542	4	C7H7+
104.0493	8	C7H6N+
105.0572	2	C7H7N+
106.0651	8	C7H8N+
107.0729	3	C7H9N+
109.0648	6	C7H9O+
116.0494	1	C8H6N+
117.0573	2	C8H7N+
118.0651	33	C8H8N+
119.0365	13	C7H5NO+
120.0444	2	C7H6NO+
121.0646	1	C8H9O+
125.0151	1	C7H6Cl+
126.0105	4	C6H5ClN+
129.0572	1	C9H7N+
130.0285	3	C8H4NO+
132.0444	50	C8H6NO+
133.0522	37	C8H7NO+
134.06	104	C8H8NO+
135.0676	2	C8H9NO+
137.0596	4	C8H9O2+
138.0107	2	C7H5ClN+
140.0261	1	C7H7ClN+
144.0442	1	C9H6NO+
144.0806	1	C10H10N+
146.06	21	C9H8NO+
149.0471	195	C8H7NO2+
151.0627	3	C8H9NO2+
156.0443	1	C10H6NO+
159.0552	5	C9H7N2O+
160.0757	1	C10H10NO+
162.055	185	C9H8NO2+
163.0627	999	C9H9NO2+
164.0705	588	C9H10NO2+
166.0862	18	C9H12NO2+
174.0549	15	C10H8NO2+
179.0577	15	C9H9NO3+
180.0211	1	C9H7ClNO+
185.0707	1	C11H9N2O+
188.0705	3	C11H10NO2+
193.0162	5	C9H6ClN2O+
194.0812	190	C10H12NO3+
196.097	3	C10H14NO3+
202.0498	1	C11H8NO3+
218.0834	2	C15H10N2+
232.0869	1	C15H10N3+
233.0944	1	C15H11N3+
241.0528	3	C14H10ClN2+
253.0529	8	C15H10ClN2+
260.0817	1	C16H10N3O+
261.0897	21	C16H11N3O+
268.0634	3	C15H11ClN3+
281.0481	5	C16H10ClN2O+
296.0585	152	C16H11ClN3O+
300.0654	2	C19H10NO3+
324.0533	21	C17H11ClN3O2+
