Mass spectrum: Testosterone propionate; LC-ESI-QFT; MS2; CE: 30; R=17500; [M+H]+
Name: Testosterone propionate
Name: [(8R,9S,10R,13S,14S,17S)-10,13-dimethyl-3-oxo-1,2,6,7,8,9,11,12,14,15,16,17-dodecahydrocyclopenta[a]phenanthren-17-yl] propanoate
Formula: C22H32O3
Exact mass: 344.2351
SMILES: CCC(=O)O[C@H]1CC[C@H]2[C@@H]3CCC4=CC(=O)CC[C@]4(C)[C@H]3CC[C@]12C
InChI: InChI=1S/C22H32O3/c1-4-20(24)25-19-8-7-17-16-6-5-14-13-15(23)9-11-21(14,2)18(16)10-12-22(17,19)3/h13,16-19H,4-12H2,1-3H3/t16-,17-,18-,19-,21-,22-/m0/s1
Instrument: Q Exactive Orbitrap (Thermo Scientific)
Instrument type: LC-ESI-QFT
Ms type: MS2
Ion mode: POSITIVE
Ionization: ESI
Fragmentation mode: HCD
Collision energy: 30
Resolution: 17500
Column name: Acquity BEH C18 1.7um, 2.1x150mm (Waters)
Retention time: 19.836 min
Base peak: 79.0211
Precursor m/z: 345.2424
Precursor type: [M+H]+
Precursor intensity: 7224082.375
m/z	relative intensity	assigned
53.0386	1	C4H5+
55.0178	1	C3H3O+
55.0543	1	C4H7+
57.0335	133	C3H5O+
67.0542	4	C5H7+
69.0698	4	C5H9+
77.0386	1	C6H5+
79.0541	13	C6H7+
81.0699	33	C6H9+
83.0491	46	C5H7O+
83.0856	4	C6H11+
91.0541	2	C7H7+
93.0699	23	C7H9+
95.0855	44	C7H11+
97.0648	999	C6H9O+
105.0699	15	C8H9+
107.0492	3	C7H7O+
107.0855	23	C8H11+
109.0648	604	C7H9O+
111.0804	2	C7H11O+
117.0699	2	C9H9+
119.0855	15	C9H11+
121.0648	14	C8H9O+
121.1011	35	C9H13+
123.0804	49	C8H11O+
123.1167	6	C9H15+
129.0698	2	C10H9+
131.0856	14	C10H11+
133.1012	19	C10H13+
135.0805	6	C9H11O+
135.1168	20	C10H15+
137.0962	5	C9H13O+
141.0705	1	C11H9+
143.0855	12	C11H11+
145.1011	39	C11H13+
147.0807	4	C10H11O+
147.1168	42	C11H15+
149.0961	9	C10H13O+
149.1325	21	C11H17+
151.1115	1	C10H15O+
155.0856	3	C12H11+
157.1012	23	C12H13+
159.1169	38	C12H15+
161.0957	6	C11H13O+
161.1324	35	C12H17+
163.1118	19	C11H15O+
163.148	32	C12H19+
169.101	5	C13H13+
171.1167	41	C13H15+
173.1324	32	C13H17+
175.1118	10	C12H15O+
175.1481	118	C13H19+
177.1273	22	C12H17O+
183.1167	13	C14H15+
185.1324	18	C14H17+
187.1116	2	C13H15O+
187.1479	31	C14H19+
189.1271	9	C13H17O+
189.1637	40	C14H21+
191.1431	2	C13H19O+
197.1325	32	C15H17+
199.148	6	C15H19+
201.1277	5	C14H17O+
201.1637	20	C15H21+
203.1435	3	C14H19O+
211.1481	25	C16H19+
213.1636	27	C16H21+
215.1431	9	C15H19O+
225.1635	15	C17H21+
227.1793	11	C17H23+
229.1588	3	C16H21O+
229.1947	6	C17H25+
253.195	214	C19H25+
255.1748	11	C18H23O+
271.2055	203	C19H27O+
273.1856	2	C18H25O2+
289.2162	115	C19H29O2+
309.2207	2	C22H29O+
327.2321	2	C22H31O2+
345.2424	264	C22H33O3+
