Mass spectrum: Spirotetramat; LC-ESI-QFT; MS2; CE: 15; R=17500; [M+H]+
Name: Spirotetramat
Formula: C21H27NO5
Exact mass: 373.1889
SMILES: CCOC(=O)OC1=C(C(=O)N[C@@]11CC[C@@H](CC1)OC)C1=C(C)C=CC(C)=C1
InChI: InChI=1S/C21H27NO5/c1-5-26-20(24)27-18-17(16-12-13(2)6-7-14(16)3)19(23)22-21(18)10-8-15(25-4)9-11-21/h6-7,12,15H,5,8-11H2,1-4H3,(H,22,23)/t15-,21+
Instrument: Q Exactive Orbitrap (Thermo Scientific)
Instrument type: LC-ESI-QFT
Ms type: MS2
Ion mode: POSITIVE
Ionization: ESI
Fragmentation mode: HCD
Collision energy: 15
Resolution: 17500
Column name: Acquity BEH C18 1.7um, 2.1x150mm (Waters)
Retention time: 17.784 min
Base peak: 79.0211
Precursor m/z: 374.1962
Precursor type: [M+H]+
Precursor intensity: 17222888.1875
m/z	relative intensity	assigned
216.1029	1	C13H14NO2+
244.1325	1	C15H18NO2+
252.1374	1	C17H18NO+
270.1483	8	C17H20NO2+
281.1537	4	C19H21O2+
298.1801	50	C19H24NO2+
300.1596	7	C18H22NO3+
301.1673	3	C18H23NO3+
302.1751	749	C18H24NO3+
328.1549	2	C19H22NO4+
330.2064	873	C20H28NO3+
374.1962	999	C21H28NO5+
