Mass spectrum: Fluconazole; LC-ESI-QFT; MS2; CE: 75; R=17500; [M+H]+
Name: Fluconazole
Name: 2-(2,4-difluorophenyl)-1,3-bis(1,2,4-triazol-1-yl)propan-2-ol
Formula: C13H12F2N6O
Exact mass: 306.1041
SMILES: OC(CN1C=NC=N1)(CN1C=NC=N1)C1=C(F)C=C(F)C=C1
InChI: InChI=1S/C13H12F2N6O/c14-10-1-2-11(12(15)3-10)13(22,4-20-8-16-6-18-20)5-21-9-17-7-19-21/h1-3,6-9,22H,4-5H2
Instrument: Q Exactive Orbitrap (Thermo Scientific)
Instrument type: LC-ESI-QFT
Ms type: MS2
Ion mode: POSITIVE
Ionization: ESI
Fragmentation mode: HCD
Collision energy: 75
Resolution: 17500
Column name: Acquity BEH C18 1.7um, 2.1x150mm (Waters)
Retention time: 13.017 min
Base peak: 79.0211
Precursor m/z: 307.1113
Precursor type: [M+H]+
Precursor intensity: 6284659.5
m/z	relative intensity	assigned
51.0229	2	C4H3+
53.0022	3	C3HO+
53.0386	3	C4H5+
55.0179	63	C3H3O+
55.0291	10	C2H3N2+
57.0135	1	C3H2F+
63.0229	2	C5H3+
65.0385	2	C5H5+
70.0399	999	C2H4N3+
75.0229	41	C6H3+
77.0022	1	C5HO+
77.0386	27	C6H5+
82.04	42	C3H4N3+
83.0478	30	C3H5N3+
84.0556	5	C3H6N3+
91.0543	87	C7H7+
95.0291	4	C6H4F+
95.0492	9	C6H7O+
99.0229	4	C8H3+
100.0506	11	C3H6N3O+
101.0197	5	C5H3F2+
101.0386	35	C8H5+
105.0447	4	C6H5N2+
107.0291	4	C7H4F+
109.0449	31	C7H6F+
113.0398	3	C6H6FO+
115.0355	9	C6H5F2+
115.0541	4	C9H7+
119.0492	98	C8H7O+
121.0448	701	C8H6F+
123.0353	3	C6H4FN2+
125.0386	3	C10H5+
127.0354	857	C7H5F2+
129.0447	323	C8H5N2+
130.0419	1	C9H6O+
131.0297	1	C6H5F2O+
137.0398	9	C8H6FO+
139.0354	904	C8H5F2+
140.0305	5	C7H4F2N+
141.0147	111	C7H3F2O+
141.051	288	C8H7F2+
145.0449	7	C10H6F+
146.04	30	C9H5FN+
147.0353	125	C8H4FN2+
149.0397	10	C9H6FO+
151.0354	666	C9H5F2+
152.0305	2	C8H4F2N+
152.0435	3	C9H6F2+
153.0383	8	C8H5F2N+
153.0448	9	C10H5N2+
154.0219	2	C8H4F2O+
154.0399	6	C9H4N3+
156.0619	2	C8H8F2N+
158.0401	2	C10H5FN+
163.0554	8	C10H8FO+
164.043	21	C10H6F2+
164.0506	6	C9H7FNO+
166.0464	61	C9H6F2N+
167.05	3	C12H7O+
169.046	149	C9H7F2O+
170.071	5	C5H7FN6+
171.0552	2	C10H7N2O+
173.0511	107	C10H6FN2+
176.0307	8	C10H4F2N+
177.0458	13	C9H6FN2O+
178.0336	1	C9H4F2N2+
178.0462	6	C10H6F2N+
192.0492	2	C10H6F2N2+
193.0572	17	C10H7F2N2+
200.0619	42	C11H7FN3+
219.0601	5	C11H7F2N3+
220.0681	31	C11H8F2N3+
238.0781	4	C11H10F2N3O+
