Mass spectrum: CP-642931; LC-ESI-QFT; MS2; CE: 15; R=17500; [M+H]+
Name: CP-642931
Name: (1R)-1-[4-[(2R,6S)-4-(4,6-dimethyl-1,3,5-triazin-2-yl)-2,6-dimethylpiperazin-1-yl]pyrimidin-2-yl]ethanol
Formula: C17H25N7O
Exact mass: 343.2121
SMILES: C[C@@H](O)C1=NC(=CC=N1)N1[C@@H](C)CN(C[C@H]1C)C1=NC(C)=NC(C)=N1
InChI: InChI=1S/C17H25N7O/c1-10-8-23(17-20-13(4)19-14(5)21-17)9-11(2)24(10)15-6-7-18-16(22-15)12(3)25/h6-7,10-12,25H,8-9H2,1-5H3/t10-,11+,12-/m1/s1
Instrument: Q Exactive Orbitrap (Thermo Scientific)
Instrument type: LC-ESI-QFT
Ms type: MS2
Ion mode: POSITIVE
Ionization: ESI
Fragmentation mode: HCD
Collision energy: 15
Resolution: 17500
Column name: Acquity BEH C18 1.7um, 2.1x150mm (Waters)
Retention time: 10.435 min
Base peak: 79.0211
Precursor m/z: 344.2193
Precursor type: [M+H]+
Precursor intensity: 19457850.125
m/z	relative intensity	assigned
326.2089	5	C17H24N7+
344.2192	999	C17H26N7O+
