Mass spectrum: Dibutyl phthalate; LC-ESI-QFT; MS2; CE: 75; R=17500; [M+H]+
Name: Dibutyl phthalate
Name: dibutyl benzene-1,2-dicarboxylate
Formula: C16H22O4
Exact mass: 278.1518
SMILES: CCCCOC(=O)C1=CC=CC=C1C(=O)OCCCC
InChI: InChI=1S/C16H22O4/c1-3-5-11-19-15(17)13-9-7-8-10-14(13)16(18)20-12-6-4-2/h7-10H,3-6,11-12H2,1-2H3
Instrument: Q Exactive Orbitrap (Thermo Scientific)
Instrument type: LC-ESI-QFT
Ms type: MS2
Ion mode: POSITIVE
Ionization: ESI
Fragmentation mode: HCD
Collision energy: 75
Resolution: 17500
Column name: Acquity BEH C18 1.7um, 2.1x150mm (Waters)
Retention time: 19.148 min
Base peak: 79.0211
Precursor m/z: 279.1591
Precursor type: [M+H]+
Precursor intensity: 10838678
m/z	relative intensity	assigned
53.0387	477	C4H5+
57.07	601	C4H9+
65.0387	219	C5H5+
91.0542	939	C7H7+
95.0493	942	C6H7O+
109.065	999	C7H9O+
115.0544	244	C9H7+
121.0287	435	C7H5O2+
128.0622	444	C10H8+
129.0701	277	C10H9+
149.0232	917	C8H5O3+
154.0777	199	C12H10+
165.0701	436	C13H9+
178.0777	553	C14H10+
