Mass spectrum: 6-Thioguanine; LC-ESI-QFT; MS2; CE: 90; R=17500; [M-H]-
Name: 6-Thioguanine
Name: 2-amino-7H-purine-6-thiol
Formula: C5H5N5S
Exact mass: 167.0266
SMILES: NC1=NC2=C(NC=N2)C(=S)N1
InChI: InChI=1S/C5H5N5S/c6-5-9-3-2(4(11)10-5)7-1-8-3/h1H,(H4,6,7,8,9,10,11)
Instrument: Q Exactive Orbitrap (Thermo Scientific)
Instrument type: LC-ESI-QFT
Ms type: MS2
Ion mode: NEGATIVE
Ionization: ESI
Fragmentation mode: HCD
Collision energy: 90
Resolution: 17500
Column name: Acquity BEH C18 1.7um, 2.1x150mm (Waters)
Retention time: 3.049 min
Base peak: 198.9364
Precursor m/z: 166.0193
Precursor type: [M-H]-
Precursor intensity: 1657219.251221
m/z	relative intensity	assigned
57.9757	111	CNS-
65.0145	7	C3HN2-
66.0098	999	C2N3-
78.0098	18	C3N3-
81.9757	53	C3NS-
82.0411	61	C3H4N3-
90.0097	22	C4N3-
96.9868	9	C3HN2S-
105.0206	52	C4HN4-
107.0363	68	C4H3N4-
132.0316	377	C5H2N5-
