Mass spectrum: Oxazepam; LC-ESI-QFT; MS2; CE: 75; R=17500; [M-H]-
Name: Oxazepam
Name: 7-chloro-3-hydroxy-5-phenyl-1,3-dihydro-1,4-benzodiazepin-2-one
Formula: C15H11ClN2O2
Exact mass: 286.0509
SMILES: OC1N=C(C2=CC=CC=C2)C2=CC(Cl)=CC=C2NC1=O
InChI: InChI=1S/C15H11ClN2O2/c16-10-6-7-12-11(8-10)13(9-4-2-1-3-5-9)18-15(20)14(19)17-12/h1-8,15,20H,(H,17,19)
Instrument: Q Exactive Orbitrap (Thermo Scientific)
Instrument type: LC-ESI-QFT
Ms type: MS2
Ion mode: NEGATIVE
Ionization: ESI
Fragmentation mode: HCD
Collision energy: 75
Resolution: 17500
Column name: Acquity BEH C18 1.7um, 2.1x150mm (Waters)
Retention time: 16.709 min
Base peak: 127.0068
Precursor m/z: 285.0436
Precursor type: [M-H]-
Precursor intensity: 4516885.804688
m/z	relative intensity	assigned
63.024	398	C5H3-
65.0033	255	C4HO-
67.019	119	C4H3O-
83.0139	290	C4H3O2-
91.0189	165	C6H3O-
91.0301	76	C5H3N2-
93.0346	999	C6H5O-
95.0138	169	C5H3O2-
107.0138	178	C6H3O2-
108.0217	211	C6H4O2-
109.0295	185	C6H5O2-
117.0347	741	C8H5O-
121.0293	128	C7H5O2-
126.0115	107	C6H5ClN-
130.0423	83	C9H6O-
131.0503	152	C9H7O-
133.0295	95	C8H5O2-
135.0087	163	C4H6ClNO2-
137.0241	118	C4H8ClNO2-
143.0502	401	C10H7O-
145.0297	309	C9H5O2-
151.0068	416	C7H4ClN2-
154.0425	103	C11H6O-
155.05	112	C11H7O-
156.0579	145	C11H8O-
157.0291	107	C10H5O2-
157.0656	163	C11H9O-
158.0371	198	C10H6O2-
159.045	441	C10H7O2-
161.0244	255	C6H8ClNO2-
167.0504	165	C12H7O-
171.0451	176	C11H7O2-
173.0243	92	C7H8ClNO2-
179.0019	89	C8H4ClN2O-
183.045	190	C12H7O2-
184.0528	98	C12H8O2-
185.0606	191	C12H9O2-
187.0403	172	C8H10ClNO2-
211.0398	234	C10H10ClNO2-
214.0269	68	C15H4NO-
227.035	239	C13H8ClN2-
239.0348	168	C14H8ClN2-
241.0296	147	C14H8ClNO-
255.03	190	C14H8ClN2O-
