Mass spectrum: CP-612372; LC-ESI-QFT; MS2; CE: 75; R=17500; [M-H]-
Name: CP-612372
Name: 2-(2,1,3-Benzoxadiazol-5-yloxy)-N-((4-(1-hydroxy-1-methylethyl)phenyl)methyl)-3-pyridinecarboxamide
Name: 2-(2,1,3-benzoxadiazol-5-yloxy)-N-[[4-(2-hydroxypropan-2-yl)phenyl]methyl]pyridine-3-carboxamide
Formula: C22H20N4O4
Exact mass: 404.1485
SMILES: CC(C)(O)C1=CC=C(CNC(=O)C2=CC=CN=C2OC2=CC3=NON=C3C=C2)C=C1
InChI: InChI=1S/C22H20N4O4/c1-22(2,28)15-7-5-14(6-8-15)13-24-20(27)17-4-3-11-23-21(17)29-16-9-10-18-19(12-16)26-30-25-18/h3-12,28H,13H2,1-2H3,(H,24,27)
Instrument: Q Exactive Orbitrap (Thermo Scientific)
Instrument type: LC-ESI-QFT
Ms type: MS2
Ion mode: NEGATIVE
Ionization: ESI
Fragmentation mode: HCD
Collision energy: 75
Resolution: 17500
Column name: Acquity BEH C18 1.7um, 2.1x150mm (Waters)
Retention time: 16.352 min
Base peak: 202.9785
Precursor m/z: 403.1412
Precursor type: [M-H]-
Precursor intensity: 8663317.889648
m/z	relative intensity	assigned
50.0035	13	C3N-
57.0346	16	C3H5O-
64.0067	9	C3N2-
64.0193	11	C4H2N-
65.0145	102	C3HN2-
65.9986	54	C3NO-
66.0349	20	C4H4N-
68.0142	42	C3H2NO-
74.0038	4	C5N-
76.0193	7	C5H2N-
77.0145	46	C4HN2-
78.0224	69	C4H2N2-
89.0146	449	C5HN2-
90.0098	49	C4N3-
90.0224	94	C5H2N2-
90.035	7	C6H4N-
91.0302	34	C5H3N2-
92.0141	16	C5H2NO-
94.0299	999	C5H4NO-
102.035	28	C7H4N-
103.0301	26	C6H3N2-
105.0095	11	C5HN2O-
105.0332	12	C5H3N3-
106.0172	62	C5H2N2O-
109.0169	5	C5H3NO2-
116.0254	62	C6H2N3-
117.0332	6	C6H3N3-
117.0458	16	C7H5N2-
118.0172	10	C6H2N2O-
118.0297	5	C7H4NO-
118.0412	4	C6H4N3-
119.025	52	C6H3N2O-
121.0408	11	C6H5N2O-
122.0248	9	C6H4NO2-
130.0412	11	C7H4N3-
130.0663	3	C9H8N-
131.0864	8	C10H11-
132.0204	31	C6H2N3O-
133.0282	498	C6H3N3O-
134.0359	9	C6H4N3O-
135.0199	10	C6H3N2O2-
138.0195	24	C6H4NO3-
140.051	13	C10H6N-
141.046	3	C9H5N2-
143.0251	3	C8H3N2O-
146.0975	3	C10H12N-
156.0817	11	C11H10N-
167.0614	5	C11H7N2-
168.0456	18	C11H6NO-
169.0409	3	C10H5N2O-
170.0975	6	C12H12N-
173.0842	4	C11H11NO-
179.0619	3	C12H7N2-
182.0977	7	C13H12N-
194.0361	6	C11H4N3O-
197.0357	5	C11H5N2O2-
206.0975	5	C15H12N-
207.093	7	C14H11N2-
211.0505	7	C12H7N2O2-
220.0517	10	C13H6N3O-
220.1006	9	C15H12N2-
222.0307	3	C12H4N3O2-
222.0799	6	C14H10N2O-
223.0876	4	C14H11N2O-
233.1085	40	C16H13N2-
235.0875	14	C15H11N2O-
237.1033	11	C15H13N2O-
238.1114	7	C15H14N2O-
239.0823	13	C14H11N2O2-
245.0956	10	C16H11N3-
246.1036	4	C16H12N3-
247.0749	4	C15H9N3O-
248.0834	4	C15H10N3O-
250.0869	9	C16H12NO2-
251.119	30	C16H15N2O-
252.1032	3	C16H14NO2-
255.1134	4	C15H15N2O2-
264.1144	9	C16H14N3O-
282.105	2	C21H14O-
306.1033	3	C21H12N3-
322.0989	6	C21H12N3O-
325.0859	8	C20H11N3O2-
326.0932	8	C20H12N3O2-
333.116	4	C22H13N4-
335.0938	15	C21H11N4O-
340.0594	4	C19H8N4O3-
349.1092	36	C22H13N4O-
351.0889	66	C21H11N4O2-
351.1246	6	C22H15N4O-
353.1046	24	C21H13N4O2-
