Mass spectrum: Ethionamide; LC-ESI-QFT; MS2; CE: 75; R=17500; [M+H]+
Name: Ethionamide
Name: 2-ethylpyridine-4-carboximidothioic acid
Formula: C8H10N2S
Exact mass: 166.0565
SMILES: CCC1=NC=CC(=C1)C(N)=S
InChI: InChI=1S/C8H10N2S/c1-2-7-5-6(8(9)11)3-4-10-7/h3-5H,2H2,1H3,(H2,9,11)
Instrument: Q Exactive Orbitrap (Thermo Scientific)
Instrument type: LC-ESI-QFT
Ms type: MS2
Ion mode: POSITIVE
Ionization: ESI
Fragmentation mode: HCD
Collision energy: 75
Resolution: 17500
Column name: Acquity BEH C18 1.7um, 2.1x150mm (Waters)
Retention time: 6.599 min
Base peak: 79.0211
Precursor m/z: 167.0637
Precursor type: [M+H]+
Precursor intensity: 10682968.8125
m/z	relative intensity	assigned
56.0495	1	C3H6N+
61.0106	12	C2H5S+
65.0386	1	C5H5+
78.0338	2	C5H4N+
79.0542	3	C6H7+
80.0494	4	C5H6N+
92.0494	1	C6H6N+
93.0573	38	C6H7N+
96.0808	2	C6H10N+
97.0076	9	C8H+
106.0652	29	C7H8N+
107.0729	374	C7H9N+
108.0681	2	C6H8N2+
108.0807	18	C7H10N+
112.0216	5	C5H6NS+
117.0573	8	C8H7N+
118.0525	27	C7H6N2+
119.0604	12	C7H7N2+
123.0916	6	C7H11N2+
125.0294	174	C6H7NS+
133.076	308	C8H9N2+
134.0838	232	C8H10N2+
140.0528	999	C7H10NS+
149.0293	1	C8H7NS+
150.0373	7	C8H8NS+
151.0453	1	C8H9NS+
152.0402	25	C7H8N2S+
167.0637	159	C8H11N2S+
