Mass spectrum: 9-Ethyl-3-nitro-9H-carbazole; LC-ESI-QFT; MS2; CE: 75; R=17500; [M+H]+
Name: 9-Ethyl-3-nitro-9H-carbazole
Name: 9-ethyl-3-nitrocarbazole
Formula: C14H12N2O2
Exact mass: 240.0899
SMILES: CCN1C2=C(C=CC=C2)C2=C1C=CC(=C2)[N+]([O-])=O
InChI: InChI=1S/C14H12N2O2/c1-2-15-13-6-4-3-5-11(13)12-9-10(16(17)18)7-8-14(12)15/h3-9H,2H2,1H3
Instrument: Q Exactive Orbitrap (Thermo Scientific)
Instrument type: LC-ESI-QFT
Ms type: MS2
Ion mode: POSITIVE
Ionization: ESI
Fragmentation mode: HCD
Collision energy: 75
Resolution: 17500
Column name: Acquity BEH C18 1.7um, 2.1x150mm (Waters)
Retention time: 14.796 min
Base peak: 79.0211
Precursor m/z: 241.0972
Precursor type: [M+H]+
Precursor intensity: 5534735.78125
m/z	relative intensity	assigned
53.0022	2	C3HO+
55.0291	5	C2H3N2+
56.0496	5	C3H6N+
58.0651	44	C3H8N+
67.0291	16	C3H3N2+
69.0446	5	C3H5N2+
70.0651	9	C4H8N+
71.0603	652	C3H7N2+
72.0443	8	C3H6NO+
78.0105	6	C5H2O+
79.0057	253	C4HNO+
83.0604	301	C4H7N2+
90.0106	52	C6H2O+
95.0603	12	C5H7N2+
96.0556	551	C6H8O+
102.0107	3	C7H2O+
103.0058	11	C6HNO+
104.001	999	C5N2O+
108.0556	50	C7H8O+
110.0461	46	C5H6N2O+
110.0713	63	C7H10O+
111.0792	19	C7H11O+
119.0371	95	C7H5NO+
121.028	2	C7H5O2+
121.0508	3	C7H7NO+
132.0324	261	C7H4N2O+
135.0665	7	C8H9NO+
136.0743	6	C8H10NO+
136.087	97	C9H12O+
138.0774	33	C7H10N2O+
144.0322	20	C8H4N2O+
146.0228	76	C8H4NO2+
150.0774	9	C8H10N2O+
173.0588	23	C11H9O2+
174.0542	54	C10H8NO2+
186.0542	15	C11H8NO2+
194.0965	6	C14H12N+
214.0854	86	C13H12NO2+
