Mass spectrum: Fipronil; LC-ESI-QFT; MS2; CE: 45; R=17500; [M-H]-
Name: Fipronil
Name: 5-amino-1-[2,6-dichloro-4-(trifluoromethyl)phenyl]-4-(trifluoromethylsulfinyl)pyrazole-3-carbonitrile
Formula: C12H4Cl2F6N4OS
Exact mass: 435.9387
SMILES: NC1=C(C(=NN1C1=C(Cl)C=C(C=C1Cl)C(F)(F)F)C#N)S(=O)C(F)(F)F
InChI: InChI=1S/C12H4Cl2F6N4OS/c13-5-1-4(11(15,16)17)2-6(14)8(5)24-10(22)9(7(3-21)23-24)26(25)12(18,19)20/h1-2H,22H2
Instrument: Q Exactive Orbitrap (Thermo Scientific)
Instrument type: LC-ESI-QFT
Ms type: MS2
Ion mode: NEGATIVE
Ionization: ESI
Fragmentation mode: HCD
Collision energy: 45
Resolution: 17500
Column name: Acquity BEH C18 1.7um, 2.1x150mm (Waters)
Retention time: 18.222 min
Base peak: 434.9313
Precursor m/z: 434.9314
Precursor type: [M-H]-
Precursor intensity: 63658019.28125
m/z	relative intensity	assigned
57.9757	84	CNS-
65.9985	4	C3NO-
66.0098	4	C2N3-
66.9416	1	ClS-
76.0067	2	C4N2-
77.0146	12	C4HN2-
81.9758	6	C3NS-
84.9907	14	CF3O-
88.0067	16	C5N2-
89.0145	2	C5HN2-
113.0144	6	C7HN2-
130.9985	1	C5F3N-
143.0052	2	C8FN2-
148.9911	7	C7H2ClN2-
150.0035	12	C7F2N2-
158.009	1	C6HF3N2-
160.0018	2	C6HF3NO-
163.0113	16	C8HF2N2-
170.0098	241	C7HF3N2-
174.0034	1	C9F2N2-
182.0098	96	C8HF3N2-
183.0175	578	C8H2F3N2-
199.0118	1	C11HF2N2-
201.9985	7	C10F2N2O-
208.9584	11	C8H2ClN2OS-
212.9491	24	C7H2Cl2F3-
216.9786	15	C8HClF3N2-
217.9863	64	C8H2ClF3N2-
222.0046	1	C10HF3N2O-
228.9445	3	C8ClF2N2S-
233.9812	42	C8H2ClF3N2O-
235.9555	3	C8H2ClF3NS-
240.9447	3	C9ClF2N2S-
242.9846	9	C9H2F3N2OS-
243.9895	168	C9H2ClF3N3-
244.9212	6	C7H2Cl2F3S-
246.0152	2	C11HF3N4-
249.9584	999	C8H2ClF3N2S-
253.9864	60	C11H2ClF3N2-
267.9896	100	C11H2ClF3N3-
271.9848	4	C8H2F6N2S-
276.9459	1	C9HClF3N2OS-
277.9534	508	C9H2ClF3N2OS-
278.9963	2	C11H2F3N4S-
280.9568	32	C9H2ClF4N2S-
281.9925	241	C11H2ClF3N4-
283	4	C11H3ClF3N4-
287.9616	53	C10H2ClF3N3S-
303.957	9	C10H2ClF3N3OS-
317.9692	96	C12F6N2S-
329.9595	42	C11H2ClF3N4OS-
348.934	2	C11H2Cl2F3N4S-
350.9883	6	C12H2ClF6N4-
