Mass spectrum: Laurocapram; LC-ESI-QFT; MS2; CE: 60; R=17500; [M+H]+
Name: Laurocapram
Name: 1-dodecylazepan-2-one
Formula: C18H35NO
Exact mass: 281.2719
SMILES: CCCCCCCCCCCCN1CCCCCC1=O
InChI: InChI=1S/C18H35NO/c1-2-3-4-5-6-7-8-9-10-13-16-19-17-14-11-12-15-18(19)20/h2-17H2,1H3
Instrument: Q Exactive Orbitrap (Thermo Scientific)
Instrument type: LC-ESI-QFT
Ms type: MS2
Ion mode: POSITIVE
Ionization: ESI
Fragmentation mode: HCD
Collision energy: 60
Resolution: 17500
Column name: Acquity BEH C18 1.7um, 2.1x150mm (Waters)
Retention time: 21.255 min
Base peak: 79.0212
Precursor m/z: 282.2791
Precursor type: [M+H]+
Precursor intensity: 64236902.78125
m/z	relative intensity	assigned
53.0022	23	C3HO+
53.0386	2	C4H5+
53.9975	2	C2NO+
54.0338	2	C3H4N+
55.0178	10	C3H3O+
55.0543	24	C4H7+
56.0495	2	C3H6N+
57.0699	279	C4H9+
58.065	1	C3H8N+
67.0542	25	C5H7+
68.0495	29	C4H6N+
69.0699	249	C5H9+
70.0652	7	C4H8N+
71.0491	9	C4H7O+
71.0855	111	C5H11+
72.0444	1	C3H6NO+
72.0808	19	C4H10N+
77.0384	1	C6H5+
79.0542	295	C6H7+
81.0573	5	C5H7N+
81.0699	16	C6H9+
83.0856	3	C6H11+
84.0808	9	C5H10N+
85.0649	3	C5H9O+
85.1012	23	C6H13+
86.0965	16	C5H12N+
94.065	1	C6H8N+
95.0492	8	C6H7O+
96.0808	248	C6H10N+
97.0649	58	C6H9O+
98.0964	24	C6H12N+
99.0807	1	C6H11O+
110.0964	4	C7H12N+
114.0914	999	C6H12NO+
126.0911	5	C7H12NO+
128.107	16	C7H14NO+
142.1226	8	C8H16NO+
156.1383	7	C9H18NO+
170.1537	1	C10H20NO+
184.2062	7	C12H26N+
186.2217	2	C12H28N+
240.2696	1	C16H34N+
254.2844	3	C17H36N+
264.2686	8	C18H34N+
280.2629	1	C18H34NO+
282.2792	234	C18H36NO+
