Mass spectrum: Chloroxuron; LC-ESI-QFT; MS2; CE: 15; R=17500; [M+H]+
Name: Chloroxuron
Name: 3-[4-(4-chlorophenoxy)phenyl]-1,1-dimethylurea
Formula: C15H15ClN2O2
Exact mass: 290.0822
SMILES: CN(C)C(=O)NC1=CC=C(OC2=CC=C(Cl)C=C2)C=C1
InChI: InChI=1S/C15H15ClN2O2/c1-18(2)15(19)17-12-5-9-14(10-6-12)20-13-7-3-11(16)4-8-13/h3-10H,1-2H3,(H,17,19)
Instrument: Q Exactive Orbitrap (Thermo Scientific)
Instrument type: LC-ESI-QFT
Ms type: MS2
Ion mode: POSITIVE
Ionization: ESI
Fragmentation mode: HCD
Collision energy: 15
Resolution: 17500
Column name: Acquity BEH C18 1.7um, 2.1x150mm (Waters)
Retention time: 17.967 min
Base peak: 79.0211
Precursor m/z: 291.0895
Precursor type: [M+H]+
Precursor intensity: 26482003
m/z	relative intensity	assigned
72.0443	174	C3H6NO+
164.0944	12	C9H12N2O+
291.0894	999	C15H16ClN2O2+
