Mass spectrum: Praziquantel; LC-ESI-QFT; MS2; CE: 45; R=17500; [M+H]+
Name: Praziquantel
Name: 2-(cyclohexanecarbonyl)-3,6,7,11b-tetrahydro-1H-pyrazino[2,1-a]isoquinolin-4-one
Formula: C19H24N2O2
Exact mass: 312.1838
SMILES: O=C(C1CCCCC1)N1CC2N(CCC3=C2C=CC=C3)C(=O)C1
InChI: InChI=1S/C19H24N2O2/c22-18-13-20(19(23)15-7-2-1-3-8-15)12-17-16-9-5-4-6-14(16)10-11-21(17)18/h4-6,9,15,17H,1-3,7-8,10-13H2
Instrument: Q Exactive Orbitrap (Thermo Scientific)
Instrument type: LC-ESI-QFT
Ms type: MS2
Ion mode: POSITIVE
Ionization: ESI
Fragmentation mode: HCD
Collision energy: 45
Resolution: 17500
Column name: Acquity BEH C18 1.7um, 2.1x150mm (Waters)
Retention time: 17.238 min
Base peak: 79.0211
Precursor m/z: 313.1911
Precursor type: [M+H]+
Precursor intensity: 15736743.15625
m/z	relative intensity	assigned
53.0022	1	C3HO+
53.0386	5	C4H5+
55.0543	200	C4H7+
72.0443	13	C3H6NO+
83.0855	999	C6H11+
105.0699	2	C8H9+
111.0804	10	C7H11O+
117.0699	3	C9H9+
129.0698	25	C10H9+
130.065	6	C9H8N+
131.0729	1	C9H9N+
132.0807	197	C9H10N+
144.0807	13	C10H10N+
146.0964	110	C10H12N+
158.0964	32	C11H12N+
173.1073	4	C11H13N2+
174.0913	353	C11H12NO+
175.1229	76	C11H15N2+
176.1068	1	C11H14NO+
185.1074	4	C12H13N2+
186.0913	1	C12H12NO+
201.1023	2	C12H13N2O+
203.1178	715	C12H15N2O+
254.154	1	C17H20NO+
256.1694	22	C17H22NO+
285.1961	12	C18H25N2O+
313.1913	1	C19H25N2O2+
