Mass spectrum: Hexamethylphosphoramide; LC-ESI-QFT; MS2; CE: 60; R=17500; [M+H]+
Name: Hexamethylphosphoramide
Name: N-[bis(dimethylamino)phosphoryl]-N-methylmethanamine
Formula: C6H18N3OP
Exact mass: 179.1187
SMILES: CN(C)P(=O)(N(C)C)N(C)C
InChI: InChI=1S/C6H18N3OP/c1-7(2)11(10,8(3)4)9(5)6/h1-6H3
Instrument: Q Exactive Orbitrap (Thermo Scientific)
Instrument type: LC-ESI-QFT
Ms type: MS2
Ion mode: POSITIVE
Ionization: ESI
Fragmentation mode: HCD
Collision energy: 60
Resolution: 17500
Column name: Acquity BEH C18 1.7um, 2.1x150mm (Waters)
Retention time: 13.053 min
Base peak: 79.0211
Precursor m/z: 180.126
Precursor type: [M+H]+
Precursor intensity: 32162771.25
m/z	relative intensity	assigned
59.9998	1	CH3NP+
73.0759	2	C3H9N2+
88.0995	2	C4H12N2+
90.0104	1	C2H5NOP+
91.018	1	C2H6NOP+
92.0259	40	C2H7NOP+
106.0416	1	C3H9NOP+
110.0365	25	C4H4N3O+
110.06	1	C6H8NO+
135.0681	999	C4H12N2OP+
137.0837	1	C4H14N2OP+
180.1263	1	C6H19N3OP+
