Mass spectrum: Oxycarboxin; LC-ESI-QFT; MS2; CE: 15; R=17500; [M+H]+
Name: Oxycarboxin
Name: 6-methyl-4,4-dioxo-N-phenyl-2,3-dihydro-1,4-oxathiine-5-carboxamide
Formula: C12H13NO4S
Exact mass: 267.0565
SMILES: CC1=C(C(=O)NC2=CC=CC=C2)S(=O)(=O)CCO1
InChI: InChI=1S/C12H13NO4S/c1-9-11(18(15,16)8-7-17-9)12(14)13-10-5-3-2-4-6-10/h2-6H,7-8H2,1H3,(H,13,14)
Instrument: Q Exactive Orbitrap (Thermo Scientific)
Instrument type: LC-ESI-QFT
Ms type: MS2
Ion mode: POSITIVE
Ionization: ESI
Fragmentation mode: HCD
Collision energy: 15
Resolution: 17500
Column name: Acquity BEH C18 1.7um, 2.1x150mm (Waters)
Retention time: 13.629 min
Base peak: 79.0211
Precursor m/z: 268.0638
Precursor type: [M+H]+
Precursor intensity: 4816000.375
m/z	relative intensity	assigned
120.0444	43	C7H6NO+
175.006	999	C6H7O4S+
189.0898	16	C12H13O2+
193.0166	227	C12H3NO2+
207.0323	40	C10H9NO2S+
207.9607	20	C12O2S+
250.0526	3	C12H12NO3S+
268.0632	165	C12H14NO4S+
