Mass spectrum: Oleyl sarcosine; LC-ESI-QFT; MS2; CE: 60; R=17500; [M+H]+
Name: Oleyl sarcosine
Name: Oleoyl sarcosine
Name: 2-[methyl-[(Z)-octadec-9-enoyl]amino]acetic acid
Formula: C21H39NO3
Exact mass: 353.2930
SMILES: CCCCCCCC\C=C/CCCCCCCC(=O)N(C)CC(O)=O
InChI: InChI=1S/C21H39NO3/c1-3-4-5-6-7-8-9-10-11-12-13-14-15-16-17-18-20(23)22(2)19-21(24)25/h10-11H,3-9,12-19H2,1-2H3,(H,24,25)/b11-10-
Instrument: Q Exactive Orbitrap (Thermo Scientific)
Instrument type: LC-ESI-QFT
Ms type: MS2
Ion mode: POSITIVE
Ionization: ESI
Fragmentation mode: HCD
Collision energy: 60
Resolution: 17500
Column name: Acquity BEH C18 1.7um, 2.1x150mm (Waters)
Retention time: 21.843 min
Base peak: 79.0211
Precursor m/z: 354.3003
Precursor type: [M+H]+
Precursor intensity: 2380361.03125
m/z	relative intensity	assigned
53.0022	12	C3HO+
53.0386	7	C4H5+
55.0542	332	C4H7+
57.0699	69	C4H9+
65.0385	8	C5H5+
67.0542	204	C5H7+
69.0698	283	C5H9+
71.0493	5	C4H7O+
71.0855	26	C5H11+
79.0542	110	C6H7+
81.0699	189	C6H9+
83.0855	121	C6H11+
90.055	999	C3H8NO2+
91.0543	22	C7H7+
93.0699	125	C7H9+
95.0493	8	C6H7O+
95.0855	116	C7H11+
97.0648	30	C6H9O+
97.1012	40	C7H13+
107.0856	41	C8H11+
109.1011	33	C8H13+
111.0805	10	C7H11O+
111.1171	5	C8H15+
121.1012	48	C9H13+
123.1174	6	C9H15+
135.1169	22	C10H15+
149.1327	6	C11H17+
