Mass spectrum: Ethirimol; LC-ESI-QFT; MS2; CE: 60; R=17500; [M+H]+
Name: Ethirimol
Name: 5-butyl-2-(ethylamino)-6-methyl-1H-pyrimidin-4-one
Formula: C11H19N3O
Exact mass: 209.1528
SMILES: CCCCC1=C(O)N=C(NCC)N=C1C
InChI: InChI=1S/C11H19N3O/c1-4-6-7-9-8(3)13-11(12-5-2)14-10(9)15/h4-7H2,1-3H3,(H2,12,13,14,15)
Instrument: Q Exactive Orbitrap (Thermo Scientific)
Instrument type: LC-ESI-QFT
Ms type: MS2
Ion mode: POSITIVE
Ionization: ESI
Fragmentation mode: HCD
Collision energy: 60
Resolution: 17500
Column name: Acquity BEH C18 1.7um, 2.1x150mm (Waters)
Retention time: 13.266 min
Base peak: 79.0211
Precursor m/z: 210.1601
Precursor type: [M+H]+
Precursor intensity: 30486189.59375
m/z	relative intensity	assigned
53.0386	2	C4H5+
54.0337	1	C3H4N+
55.0179	1	C3H3O+
55.0542	26	C4H7+
56.0495	2	C3H6N+
58.0651	3	C3H8N+
60.0556	2	CH6N3+
67.0542	13	C5H7+
68.0494	2	C4H6N+
69.0083	43	C2HN2O+
69.0698	4	C5H9+
70.0651	110	C4H8N+
71.0603	161	C3H7N2+
79.0542	4	C6H7+
80.0494	2	C5H6N+
81.0335	2	C5H5O+
81.0574	1	C5H7N+
81.0698	28	C6H9+
82.0651	3	C5H8N+
83.0603	1	C4H7N2+
83.0728	3	C5H9N+
84.0444	2	C4H6NO+
84.0808	4	C5H10N+
86.0349	2	C2H4N3O+
88.0869	3	C3H10N3+
91.0545	1	C7H7+
93.0699	6	C7H9+
94.0651	3	C6H8N+
95.0604	14	C5H7N2+
95.0856	29	C7H11+
96.0443	12	C5H6NO+
96.0683	1	C5H8N2+
96.0808	4	C6H10N+
97.0397	96	C4H5N2O+
98.06	533	C5H8NO+
103.0542	1	C8H7+
105.0698	5	C8H9+
107.0729	42	C7H9N+
108.0682	1	C6H8N2+
109.0761	7	C6H9N2+
110.0601	4	C6H8NO+
110.0964	4	C7H12N+
111.0792	2	C5H9N3+
112.0757	1	C6H10NO+
112.1121	10	C7H14N+
114.0662	11	C4H8N3O+
120.0807	7	C8H10N+
121.0761	1	C7H9N2+
122.0712	17	C6H8N3+
122.0837	1	C7H10N2+
122.0964	27	C8H12N+
123.0553	12	C6H7N2O+
123.0805	3	C8H11O+
123.0915	4	C7H11N2+
124.0632	3	C6H8N2O+
124.0758	1	C7H10NO+
126.0661	6	C5H8N3O+
136.0996	1	C8H12N2+
137.1072	4	C8H13N2+
138.0662	48	C6H8N3O+
138.0915	5	C8H12NO+
139.0741	40	C6H9N3O+
139.1231	2	C8H15N2+
140.107	999	C8H14NO+
150.1026	67	C8H12N3+
151.0867	3	C8H11N2O+
151.1228	4	C9H15N2+
152.0817	9	C7H10N3O+
153.0897	2	C7H11N3O+
154.0975	4	C7H12N3O+
165.1023	140	C9H13N2O+
166.0975	20	C8H12N3O+
167.1053	62	C8H13N3O+
168.1133	4	C8H14N3O+
180.1132	2	C9H14N3O+
182.1288	238	C9H16N3O+
193.1336	175	C11H17N2O+
208.1446	8	C11H18N3O+
210.16	546	C11H20N3O+
