Mass spectrum: Ingliforib; LC-ESI-QFT; MS2; CE: 60; R=17500; [M-H]-
Name: Ingliforib
Name: 5-chloro-N-[(2S,3R)-4-[(3R,4S)-3,4-dihydroxypyrrolidin-1-yl]-3-hydroxy-4-oxo-1-phenylbutan-2-yl]-1H-indole-2-carboxamide
Formula: C23H24ClN3O5
Exact mass: 457.1404
SMILES: O[C@H]([C@H](CC1=CC=CC=C1)NC(=O)C1=CC2=CC(Cl)=CC=C2N1)C(=O)N1C[C@H](O)[C@H](O)C1
InChI: InChI=1S/C23H24ClN3O5/c24-15-6-7-16-14(9-15)10-18(25-16)22(31)26-17(8-13-4-2-1-3-5-13)21(30)23(32)27-11-19(28)20(29)12-27/h1-7,9-10,17,19-21,25,28-30H,8,11-12H2,(H,26,31)/t17-,19-,20+,21+/m0/s1
Instrument: Q Exactive Orbitrap (Thermo Scientific)
Instrument type: LC-ESI-QFT
Ms type: MS2
Ion mode: NEGATIVE
Ionization: ESI
Fragmentation mode: HCD
Collision energy: 60
Resolution: 17500
Column name: Acquity BEH C18 1.7um, 2.1x150mm (Waters)
Retention time: 17.345 min
Base peak: 112.9855
Precursor m/z: 456.1332
Precursor type: [M-H]-
Precursor intensity: 12006481.94189
m/z	relative intensity	assigned
58.0298	1	C2H4NO-
59.0138	1	C2H3O2-
66.0349	106	C4H4N-
68.0142	1	C3H2NO-
70.0299	5	C3H4NO-
71.0139	12	C3H3O2-
72.993	1	C2HO3-
73.0295	8	C3H5O2-
75.0088	1	C2H3O3-
82.0298	5	C4H4NO-
84.009	3	C3H2NO2-
84.0455	6	C4H6NO-
86.0248	1	C3H4NO2-
88.0406	5	C3H6NO2-
91.0554	6	C7H7-
94.03	1	C5H4NO-
96.0457	1	C5H6NO-
98.0247	2	C4H4NO2-
100.0405	25	C4H6NO2-
101.0271	11	C7H3N-
102.0561	21	C4H8NO2-
114.0349	26	C8H4N-
116.0352	1	C4H6NO3-
116.0507	8	C8H6N-
117.0345	2	C8H5O-
118.0663	2	C8H8N-
119.0503	1	C8H7O-
124.0404	2	C6H6NO2-
125.0038	1	C6H4ClN-
131.0503	4	C9H7O-
144.0454	3	C9H6NO-
146.0483	2	C8H6N2O-
146.0612	6	C9H8NO-
149.0038	11	C8H4ClN-
150.0117	999	C8H5ClN-
164.9988	90	C8H4ClNO-
173.0356	1	C9H5N2O2-
174.0118	3	C10H5ClN-
174.0562	4	C10H8NO2-
175.007	47	C9H4ClN2-
177.0226	1	C9H6ClN2-
178.0067	9	C9H5ClNO-
188.0146	4	C10H5ClN2-
189.0223	2	C10H6ClN2-
191.002	4	C9H4ClN2O-
193.0176	285	C9H6ClN2O-
194.0015	5	C9H5ClNO2-
198.0436	3	C11H6N2O2-
198.092	2	C13H12NO-
201.0311	4	C7H8ClN3O2-
202.0388	2	C7H9ClN3O2-
205.0175	51	C10H6ClN2O-
207.0332	3	C10H8ClN2O-
208.0169	5	C10H7ClNO2-
216.0098	10	C11H5ClN2O-
217.0176	4	C11H6ClN2O-
232.005	4	C11H5ClN2O2-
233.0126	15	C11H6ClN2O2-
234.0204	143	C11H7ClN2O2-
238.0154	21	C10H7ClN2O3-
252.0591	5	C16H11ClN-
268.0539	7	C16H11ClNO-
279.0697	1	C17H12ClN2-
295.0657	4	C17H12ClN2O-
297.0807	1	C17H14ClN2O-
307.065	11	C18H12ClN2O-
335.0593	2	C19H12ClN2O2-
