Mass spectrum: Nuarimol; LC-ESI-QFT; MS2; CE: 90; R=17500; [M-H]-
Name: Nuarimol
Name: (2-chlorophenyl)-(4-fluorophenyl)-pyrimidin-5-ylmethanol
Formula: C17H12ClFN2O
Exact mass: 314.0622
SMILES: OC(C1=CC=C(F)C=C1)(C1=CN=CN=C1)C1=CC=CC=C1Cl
InChI: InChI=1S/C17H12ClFN2O/c18-16-4-2-1-3-15(16)17(22,13-9-20-11-21-10-13)12-5-7-14(19)8-6-12/h1-11,22H
Instrument: Q Exactive Orbitrap (Thermo Scientific)
Instrument type: LC-ESI-QFT
Ms type: MS2
Ion mode: NEGATIVE
Ionization: ESI
Fragmentation mode: HCD
Collision energy: 90
Resolution: 17500
Column name: Acquity BEH C18 1.7um, 2.1x150mm (Waters)
Retention time: 17.326 min
Base peak: 112.9856
Precursor m/z: 313.0549
Precursor type: [M-H]-
Precursor intensity: 1849844.609375
m/z	relative intensity	assigned
57.0346	200	C3H5O-
93.0346	74	C6H5O-
101.0397	82	C8H5-
113.0394	38	C9H5-
115.0554	74	C9H7-
117.0347	45	C8H5O-
121.0297	32	C4H8ClNO-
137.0397	53	C11H5-
139.0554	34	C11H7-
141.071	231	C11H9-
153.0348	23	C11H5O-
156.0577	9	C11H8O-
165.0346	253	C12H5O-
167.0505	13	C12H7O-
169.0659	999	C12H9O-
171.0454	33	C8H10ClNO-
183.0451	63	C9H10ClNO-
184.0526	9	C9H11ClNO-
199.0404	9	C15H5N-
