Mass spectrum: CP-607366; LC-ESI-QFT; MS2; CE: 15; R=17500; [M+H]+
Name: CP-607366
Name: 1-(2-(3,4-Dichlorophenoxy)-5-fluorophenyl)-N-methylmethanamine
Name: 1-[2-(3,4-dichlorophenoxy)-5-fluorophenyl]-N-methylmethanamine
Formula: C14H12Cl2FNO
Exact mass: 299.0280
SMILES: CNCC1=C(OC2=CC=C(Cl)C(Cl)=C2)C=CC(F)=C1
InChI: InChI=1S/C14H12Cl2FNO/c1-18-8-9-6-10(17)2-5-14(9)19-11-3-4-12(15)13(16)7-11/h2-7,18H,8H2,1H3
Instrument: Q Exactive Orbitrap (Thermo Scientific)
Instrument type: LC-ESI-QFT
Ms type: MS2
Ion mode: POSITIVE
Ionization: ESI
Fragmentation mode: HCD
Collision energy: 15
Resolution: 17500
Column name: Acquity BEH C18 1.7um, 2.1x150mm (Waters)
Retention time: 15.598 min
Base peak: 79.0211
Precursor m/z: 300.0353
Precursor type: [M+H]+
Precursor intensity: 15935655.25
m/z	relative intensity	assigned
170.0535	1	C12H7F+
199.0547	3	C13H8FO+
233.016	14	C13H7ClFO+
234.0243	72	C13H8ClFO+
240.9976	1	C12H8Cl2F+
268.993	999	C13H8Cl2FO+
300.0352	725	C14H13Cl2FNO+
