Mass spectrum: Topramezone; LC-ESI-QFT; MS2; CE: 75; R=17500; [M-H]-
Name: Topramezone
Formula: C16H17N3O5S
Exact mass: 363.0889
SMILES: CN1N=CC(C(=O)C2=C(C)C(C3=NOCC3)=C(C=C2)S(C)(=O)=O)=C1O
InChI: InChI=1S/C16H17N3O5S/c1-9-10(15(20)11-8-17-19(2)16(11)21)4-5-13(25(3,22)23)14(9)12-6-7-24-18-12/h4-5,8,21H,6-7H2,1-3H3
Instrument: Q Exactive Orbitrap (Thermo Scientific)
Instrument type: LC-ESI-QFT
Ms type: MS2
Ion mode: NEGATIVE
Ionization: ESI
Fragmentation mode: HCD
Collision energy: 75
Resolution: 17500
Column name: Acquity BEH C18 1.7um, 2.1x150mm (Waters)
Retention time: 12.785 min
Base peak: 200.0387
Precursor m/z: 362.0816
Precursor type: [M-H]-
Precursor intensity: 475593.1286621
m/z	relative intensity	assigned
63.9624	830	O2S-
65.9985	218	C3NO-
78.986	999	CH3O2S-
82.0173	163	C3H2N2O-
97.0408	842	C4H5N2O-
115.0553	244	C9H7-
116.0506	295	C8H6N-
130.0661	497	C9H8N-
131.0377	260	C8H5NO-
147.0328	133	C8H5NO2-
158.0611	129	C10H8NO-
168.0456	102	C11H6NO-
179.0048	78	C8H5NO2S-
179.0172	290	C9H7O2S-
181.0405	137	C11H5N2O-
194.0282	98	C9H8NO2S-
238.0619	119	C13H8N3O2-
254.0568	107	C13H8N3O3-
