Mass spectrum: Furosemide; LC-ESI-QFT; MS2; CE: 30; R=17500; [M-H]-
Name: Furosemide
Name: 4-chloro-2-(furan-2-ylmethylamino)-5-sulfamoylbenzoic acid
Formula: C12H11ClN2O5S
Exact mass: 330.0077
SMILES: NS(=O)(=O)C1=C(Cl)C=C(NCC2=CC=CO2)C(=C1)C(O)=O
InChI: InChI=1S/C12H11ClN2O5S/c13-9-5-10(15-6-7-2-1-3-20-7)8(12(16)17)4-11(9)21(14,18)19/h1-5,15H,6H2,(H,16,17)(H2,14,18,19)
Instrument: Q Exactive Orbitrap (Thermo Scientific)
Instrument type: LC-ESI-QFT
Ms type: MS2
Ion mode: NEGATIVE
Ionization: ESI
Fragmentation mode: HCD
Collision energy: 30
Resolution: 17500
Column name: Acquity BEH C18 1.7um, 2.1x150mm (Waters)
Retention time: 14.699 min
Base peak: 329.0005
Precursor m/z: 329.0004
Precursor type: [M-H]-
Precursor intensity: 9854347.972168
m/z	relative intensity	assigned
63.9625	1	O2S-
77.9656	92	NO2S-
78.9734	1	HNO2S-
79.0189	3	C5H3O-
79.9809	3	H2NO2S-
121.0408	1	C6H5N2O-
126.0116	15	C6H5ClN-
140.0146	1	C6H5ClN2-
142.0664	1	C10H8N-
156.0695	1	C10H8N2-
157.0769	4	C10H9N2-
167.0615	2	C11H7N2-
170.0613	3	C11H8NO-
173.072	1	C10H9N2O-
177.0223	1	C9H6ClN2-
178.0424	3	C10H9ClN-
183.0567	1	C11H7N2O-
184.0639	1	C11H8N2O-
185.0721	24	C11H9N2O-
189.9738	2	C6H5ClNO2S-
201.067	4	C11H9N2O2-
203.9766	2	C6H5ClN2O2S-
204.9844	999	C6H6ClN2O2S-
206.0377	71	C11H9ClNO-
221.0491	6	C11H10ClN2O-
223.0186	2	C9H7N2O3S-
228.9846	2	C8H6ClN2O2S-
249.0339	34	C11H9N2O3S-
257.0157	6	C10H10ClN2O2S-
258	2	C10H9ClNO3S-
267.0003	10	C11H8ClN2O2S-
268.9917	1	C11H8ClNO3S-
269.9878	4	C10H7ClN2O3S-
285.0106	668	C11H10ClN2O3S-
329.0007	13	C12H10ClN2O5S-
