Mass spectrum: Corticosterone; LC-ESI-QFT; MS2; CE: 75; R=17500; [M+H]+
Name: Corticosterone
Name: (8S,9S,10R,11S,13S,14S,17S)-11-hydroxy-17-(2-hydroxyacetyl)-10,13-dimethyl-1,2,6,7,8,9,11,12,14,15,16,17-dodecahydrocyclopenta[a]phenanthren-3-one
Formula: C21H30O4
Exact mass: 346.2144
SMILES: C[C@]12C[C@H](O)[C@H]3[C@@H](CCC4=CC(=O)CC[C@]34C)[C@@H]1CC[C@@H]2C(=O)CO
InChI: InChI=1S/C21H30O4/c1-20-8-7-13(23)9-12(20)3-4-14-15-5-6-16(18(25)11-22)21(15,2)10-17(24)19(14)20/h9,14-17,19,22,24H,3-8,10-11H2,1-2H3/t14-,15-,16+,17-,19+,20-,21-/m0/s1
Instrument: Q Exactive Orbitrap (Thermo Scientific)
Instrument type: LC-ESI-QFT
Ms type: MS2
Ion mode: POSITIVE
Ionization: ESI
Fragmentation mode: HCD
Collision energy: 75
Resolution: 17500
Column name: Acquity BEH C18 1.7um, 2.1x150mm (Waters)
Retention time: 16.831 min
Base peak: 79.0211
Precursor m/z: 347.2217
Precursor type: [M+H]+
Precursor intensity: 1224886.9375
m/z	relative intensity	assigned
53.0021	35	C3HO+
53.0387	107	C4H5+
55.0178	133	C3H3O+
55.0542	207	C4H7+
65.0385	51	C5H5+
67.0542	452	C5H7+
69.0335	89	C4H5O+
69.07	128	C5H9+
77.0386	36	C6H5+
79.0542	654	C6H7+
81.0335	27	C5H5O+
81.0699	422	C6H9+
83.0492	272	C5H7O+
87.044	32	C4H7O2+
91.0543	980	C7H7+
93.0699	633	C7H9+
95.0492	271	C6H7O+
95.0856	375	C7H11+
97.0648	646	C6H9O+
103.0541	62	C8H7+
105.07	961	C8H9+
107.0493	149	C7H7O+
107.0856	315	C8H11+
109.0649	380	C7H9O+
109.1012	24	C8H13+
115.0543	108	C9H7+
116.0621	21	C9H8+
117.0699	295	C9H9+
119.0856	517	C9H11+
121.0648	999	C8H9O+
121.1013	67	C9H13+
123.0805	405	C8H11O+
128.062	200	C10H8+
129.0699	303	C10H9+
130.0775	97	C10H10+
131.0856	412	C10H11+
133.065	39	C9H9O+
133.1012	180	C10H13+
135.0804	76	C9H11O+
135.1164	30	C10H15+
141.0699	149	C11H9+
142.0778	226	C11H10+
143.0856	297	C11H11+
144.0935	72	C11H12+
145.0646	54	C10H9O+
145.1012	289	C11H13+
147.0804	142	C10H11O+
147.117	77	C11H15+
148.0882	46	C10H12O+
149.096	38	C10H13O+
153.0695	42	C12H9+
154.0777	72	C12H10+
155.0857	160	C12H11+
156.0934	157	C12H12+
157.1012	176	C12H13+
159.1171	101	C12H15+
161.0961	74	C11H13O+
163.1119	128	C11H15O+
165.07	58	C13H9+
166.078	36	C13H10+
167.0856	79	C13H11+
169.1014	125	C13H13+
171.117	108	C13H15+
173.0966	43	C12H13O+
173.133	23	C13H17+
175.1119	25	C12H15O+
179.0854	63	C14H11+
180.0933	44	C14H12+
181.1013	87	C14H13+
182.1097	41	C14H14+
183.1168	45	C14H15+
187.111	27	C13H15O+
193.1016	37	C15H13+
195.1169	59	C15H15+
197.1333	19	C15H17+
199.1115	30	C14H15O+
205.1017	26	C16H13+
213.1271	19	C15H17O+
