Mass spectrum: UK-416244; LC-ESI-QFT; MS2; CE: 60; R=17500; [M+H]+
Name: UK-416244
Name: 3-((Dimethylamino)methyl)-4-(3-methyl-4-(methylthio)phenoxy)benzenesulfonamide
Name: 3-[(dimethylamino)methyl]-4-(3-methyl-4-methylsulfanylphenoxy)benzenesulfonamide
Formula: C17H22N2O3S2
Exact mass: 366.1072
SMILES: CSC1=CC=C(OC2=CC=C(C=C2CN(C)C)S(N)(=O)=O)C=C1C
InChI: InChI=1S/C17H22N2O3S2/c1-12-9-14(5-8-17(12)23-4)22-16-7-6-15(24(18,20)21)10-13(16)11-19(2)3/h5-10H,11H2,1-4H3,(H2,18,20,21)
Instrument: Q Exactive Orbitrap (Thermo Scientific)
Instrument type: LC-ESI-QFT
Ms type: MS2
Ion mode: POSITIVE
Ionization: ESI
Fragmentation mode: HCD
Collision energy: 60
Resolution: 17500
Column name: Acquity BEH C18 1.7um, 2.1x150mm (Waters)
Retention time: 13.853 min
Base peak: 79.0212
Precursor m/z: 367.1145
Precursor type: [M+H]+
Precursor intensity: 15947306.25
m/z	relative intensity	assigned
122.06	2	C7H8NO+
137.0417	1	C8H9S+
148.0338	1	C9H8S+
152.0623	1	C12H8+
165.0696	2	C13H9+
168.057	1	C12H8O+
169.0646	1	C12H9O+
180.0566	13	C5H12N2O3S+
181.0646	4	C13H9O+
182.0728	1	C13H10O+
184.076	2	C12H10NO+
186.0218	5	C7H8NO3S+
193.0646	2	C14H9O+
194.0726	60	C14H10O+
195.0804	261	C14H11O+
196.0758	2	C13H10NO+
197.0596	7	C13H9O2+
198.0678	1	C13H10O2+
198.091	1	C13H12NO+
199.0576	1	C13H11S+
209.0958	1	C15H13O+
210.0914	1	C14H12NO+
211.0753	5	C14H11O2+
212.0297	1	C13H8OS+
212.0466	19	C13H8O3+
226.0623	119	C14H10O3+
227.0523	51	C14H11OS+
241.068	64	C15H13OS+
242.0393	3	C14H10O2S+
242.0758	6	C15H14OS+
258.0345	3	C14H10O3S+
258.0578	2	C14H12NO2S+
259.0294	1	C13H9NO3S+
259.0425	7	C14H11O3S+
260.0374	999	C13H10NO3S+
273.0449	1	C14H11NO3S+
274.053	727	C14H12NO3S+
275.0607	13	C14H13NO3S+
292.0093	5	C13H10NO3S2+
304.0892	1	C15H16N2O3S+
305.0168	5	C14H11NO3S2+
306.025	18	C14H12NO3S2+
307.033	3	C14H13NO3S2+
320.0409	4	C15H14NO3S2+
