Mass spectrum: Prometryn; LC-ESI-QFT; MS2; CE: 30; R=17500; [M+H]+
Name: Prometryn
Name: 6-methylsulfanyl-2-N,4-N-di(propan-2-yl)-1,3,5-triazine-2,4-diamine
Formula: C10H19N5S
Exact mass: 241.1361
SMILES: CSC1=NC(NC(C)C)=NC(NC(C)C)=N1
InChI: InChI=1S/C10H19N5S/c1-6(2)11-8-13-9(12-7(3)4)15-10(14-8)16-5/h6-7H,1-5H3,(H2,11,12,13,14,15)
Instrument: Q Exactive Orbitrap (Thermo Scientific)
Instrument type: LC-ESI-QFT
Ms type: MS2
Ion mode: POSITIVE
Ionization: ESI
Fragmentation mode: HCD
Collision energy: 30
Resolution: 17500
Column name: Acquity BEH C18 1.7um, 2.1x150mm (Waters)
Retention time: 16.449 min
Base peak: 79.0211
Precursor m/z: 242.1434
Precursor type: [M+H]+
Precursor intensity: 59300220.59375
m/z	relative intensity	assigned
68.0242	1	C2H2N3+
110.0714	5	C5H8N3+
116.0276	2	C3H6N3S+
152.0929	1	C6H10N5+
152.1183	9	C8H14N3+
158.0496	89	C4H8N5S+
200.0966	308	C7H14N5S+
227.119	2	C9H17N5S+
242.1434	999	C10H20N5S+
