Mass spectrum: 2-Norbornene-5,6-dicarboxylic anhydride; LC-ESI-QFT; MS2; CE: 30; R=17500; [M+H]+
Name: 2-Norbornene-5,6-dicarboxylic anhydride
Name: 5-Norbornene-2,3-dicarboxylic anhydride
Name: 4-oxatricyclo[5.2.1.02,6]dec-8-ene-3,5-dione
Formula: C9H8O3
Exact mass: 164.0473
SMILES: O=C1OC(=O)C2C3CC(C=C3)C12
InChI: InChI=1S/C9H8O3/c10-8-6-4-1-2-5(3-4)7(6)9(11)12-8/h1-2,4-7H,3H2
Instrument: Q Exactive Orbitrap (Thermo Scientific)
Instrument type: LC-ESI-QFT
Ms type: MS2
Ion mode: POSITIVE
Ionization: ESI
Fragmentation mode: HCD
Collision energy: 30
Resolution: 17500
Column name: Acquity BEH C18 1.7um, 2.1x150mm (Waters)
Retention time: 17.413 min
Base peak: 79.0212
Precursor m/z: 165.0546
Precursor type: [M+H]+
Precursor intensity: 3129963.75
m/z	relative intensity	assigned
79.0542	8	C6H7+
95.049	1	C6H7O+
105.0335	1	C7H5O+
107.0128	1	C6H3O2+
107.0491	9	C7H7O+
109.0646	4	C7H9O+
122.0362	6	C7H6O2+
125.0596	2	C7H9O2+
135.0441	4	C8H7O2+
137.0601	2	C8H9O2+
150.0311	34	C8H6O3+
165.0546	999	C9H9O3+
