Mass spectrum: SR58611; LC-ESI-QFT; MS2; CE: 90; R=17500; [M+H]+
Name: SR58611
Name: ethyl 2-[[7-[[2-(3-chlorophenyl)-2-hydroxyethyl]amino]-5,6,7,8-tetrahydronaphthalen-2-yl]oxy]acetate
Formula: C22H26ClNO4
Exact mass: 403.1550
SMILES: CCOC(=O)COC1=CC2=C(CCC(C2)NCC(O)C2=CC(Cl)=CC=C2)C=C1
InChI: InChI=1S/C22H26ClNO4/c1-2-27-22(26)14-28-20-9-7-15-6-8-19(11-17(15)12-20)24-13-21(25)16-4-3-5-18(23)10-16/h3-5,7,9-10,12,19,21,24-25H,2,6,8,11,13-14H2,1H3
Instrument: Q Exactive Orbitrap (Thermo Scientific)
Instrument type: LC-ESI-QFT
Ms type: MS2
Ion mode: POSITIVE
Ionization: ESI
Fragmentation mode: HCD
Collision energy: 90
Resolution: 17500
Column name: Acquity BEH C18 1.7um, 2.1x150mm (Waters)
Retention time: 15.271 min
Base peak: 79.0211
Precursor m/z: 404.1623
Precursor type: [M+H]+
Precursor intensity: 19640756
m/z	relative intensity	assigned
50.0151	1	C4H2+
51.023	1	C4H3+
53.0386	8	C4H5+
55.0178	1	C3H3O+
63.0229	2	C5H3+
65.0385	13	C5H5+
75.0228	1	C6H3+
77.0384	3	C6H5+
79.0542	6	C6H7+
89.0383	1	C7H5+
91.0542	613	C7H7+
92.062	3	C7H8+
95.0491	9	C6H7O+
102.0464	9	C8H6+
103.0542	80	C8H7+
104.0494	7	C7H6N+
104.062	2	C8H8+
105.0699	15	C8H9+
107.0491	15	C7H7O+
115.0542	126	C9H7+
116.062	176	C9H8+
117.0573	8	C8H7N+
117.0699	102	C9H9+
118.0651	108	C8H8N+
119.0729	148	C8H9N+
121.0645	2	C8H9O+
125.0153	2	C7H6Cl+
126.0464	4	C10H6+
127.0542	58	C10H7+
128.062	999	C10H8+
129.0697	257	C10H9+
130.0774	4	C10H10+
131.0491	74	C9H7O+
131.0855	140	C10H11+
132.0569	8	C9H8O+
133.0648	5	C9H9O+
137.0152	2	C8H6Cl+
139.0306	1	C8H8Cl+
141.0698	20	C11H9+
142.0776	4	C11H10+
143.0605	3	C8H12Cl+
144.057	32	C10H8O+
145.0647	237	C10H9O+
146.0726	36	C10H10O+
147.0803	105	C10H11O+
154.0416	6	C8H9ClN+
155.0603	177	C9H12Cl+
157.076	142	C9H14Cl+
158.0727	1	C11H10O+
159.0804	16	C11H11O+
