Mass spectrum: Acetohexamide; LC-ESI-QFT; MS2; CE: 30; R=17500; [M+H]+
Name: Acetohexamide
Name: 1-(4-acetylphenyl)sulfonyl-3-cyclohexylurea
Formula: C15H20N2O4S
Exact mass: 324.1144
SMILES: CC(=O)C1=CC=C(C=C1)S(=O)(=O)NC(=O)NC1CCCCC1
InChI: InChI=1S/C15H20N2O4S/c1-11(18)12-7-9-14(10-8-12)22(20,21)17-15(19)16-13-5-3-2-4-6-13/h7-10,13H,2-6H2,1H3,(H2,16,17,19)
Instrument: Q Exactive Orbitrap (Thermo Scientific)
Instrument type: LC-ESI-QFT
Ms type: MS2
Ion mode: POSITIVE
Ionization: ESI
Fragmentation mode: HCD
Collision energy: 30
Resolution: 17500
Column name: Acquity BEH C18 1.7um, 2.1x150mm (Waters)
Retention time: 16.086 min
Base peak: 79.0212
Precursor m/z: 325.1217
Precursor type: [M+H]+
Precursor intensity: 693270.75
m/z	relative intensity	assigned
55.0543	221	C4H7+
83.0856	687	C6H11+
91.0545	32	C7H7+
93.07	46	C7H9+
97.0647	31	C6H9O+
100.1121	64	C6H14N+
107.0856	78	C8H11+
111.0441	31	C6H7O2+
119.0493	60	C8H7O+
119.0859	48	C9H11+
121.0647	175	C8H9O+
125.0601	44	C7H9O2+
131.0853	36	C10H11+
133.0653	27	C9H9O+
133.101	36	C10H13+
135.0807	98	C9H11O+
137.06	45	C8H9O2+
147.0553	220	C8H7N2O+
147.0805	649	C10H11O+
149.0964	36	C10H13O+
151.0757	30	C9H11O2+
157.1015	31	C12H13+
159.0809	54	C11H11O+
161.0961	79	C11H13O+
163.0756	42	C10H11O2+
165.0915	72	C10H13O2+
171.0806	400	C12H11O+
173.0964	233	C12H13O+
183.0112	999	C8H7O3S+
185.0963	50	C13H13O+
187.112	53	C13H15O+
197.0965	128	C14H13O+
199.1122	84	C14H15O+
200.0377	695	C8H10NO3S+
209.0963	82	C15H13O+
211.1119	92	C15H15O+
221.0963	40	C8H17N2O3S+
223.1119	433	C8H19N2O3S+
225.1279	101	C8H21N2O3S+
235.1116	53	C9H19N2O3S+
237.1275	129	C9H21N2O3S+
243.0436	399	C9H11N2O4S+
247.1118	75	C10H19N2O3S+
249.1275	165	C10H21N2O3S+
261.1271	43	C11H21N2O3S+
263.1429	162	C14H19N2O3+
