Mass spectrum: 3-Hydroxy-2-naphthoic acid; LC-ESI-QFT; MS2; CE: 15; R=17500; [M-H]-
Name: 3-Hydroxy-2-naphthoic acid
Name: 3-hydroxynaphthalene-2-carboxylic acid
Formula: C11H8O3
Exact mass: 188.0473
SMILES: OC(=O)C1=CC2=C(C=CC=C2)C=C1O
InChI: InChI=1S/C11H8O3/c12-10-6-8-4-2-1-3-7(8)5-9(10)11(13)14/h1-6,12H,(H,13,14)
Instrument: Q Exactive Orbitrap (Thermo Scientific)
Instrument type: LC-ESI-QFT
Ms type: MS2
Ion mode: NEGATIVE
Ionization: ESI
Fragmentation mode: HCD
Collision energy: 15
Resolution: 17500
Column name: Acquity BEH C18 1.7um, 2.1x150mm (Waters)
Retention time: 17.688 min
Base peak: 112.9857
Precursor m/z: 187.0401
Precursor type: [M-H]-
Precursor intensity: 9846135.694336
m/z	relative intensity	assigned
143.0502	999	C10H7O-
187.0401	356	C11H7O3-
