Mass spectrum: 3-(Octyloxy)propan-1-amine; LC-ESI-QFT; MS2; CE: 15; R=17500; [M+H]+
Name: 3-(Octyloxy)propan-1-amine
Name: 3-octoxypropan-1-amine
Formula: C11H25NO
Exact mass: 187.1936
SMILES: CCCCCCCCOCCCN
InChI: InChI=1S/C11H25NO/c1-2-3-4-5-6-7-10-13-11-8-9-12/h2-12H2,1H3
Instrument: Q Exactive Orbitrap (Thermo Scientific)
Instrument type: LC-ESI-QFT
Ms type: MS2
Ion mode: POSITIVE
Ionization: ESI
Fragmentation mode: HCD
Collision energy: 15
Resolution: 17500
Column name: Acquity BEH C18 1.7um, 2.1x150mm (Waters)
Retention time: 16.264 min
Base peak: 79.0211
Precursor m/z: 188.2009
Precursor type: [M+H]+
Precursor intensity: 40261038.34375
m/z	relative intensity	assigned
53.0021	1	C3HO+
57.0699	37	C4H9+
58.0651	904	C3H8N+
59.0491	61	C3H7O+
69.0698	5	C5H9+
71.0855	51	C5H11+
76.0757	114	C3H10NO+
111.1168	4	C8H15+
171.1743	59	C11H23O+
188.2009	999	C11H26NO+
