Mass spectrum: FR130739; LC-ESI-QFT; MS2; CE: 75; R=17500; [M+H]+
Name: FR130739
Name: FK-739 free acid
Name: 2-butyl-3-[[4-[2-(2H-tetrazol-5-yl)phenyl]phenyl]methyl]imidazo[4,5-b]pyridine
Formula: C24H23N7
Exact mass: 409.2015
SMILES: CCCCC1=NC2=C(N=CC=C2)N1CC1=CC=C(C=C1)C1=CC=CC=C1C1=NN=NN1
InChI: InChI=1S/C24H23N7/c1-2-3-10-22-26-21-9-6-15-25-24(21)31(22)16-17-11-13-18(14-12-17)19-7-4-5-8-20(19)23-27-29-30-28-23/h4-9,11-15H,2-3,10,16H2,1H3,(H,27,28,29,30)
Instrument: Q Exactive Orbitrap (Thermo Scientific)
Instrument type: LC-ESI-QFT
Ms type: MS2
Ion mode: POSITIVE
Ionization: ESI
Fragmentation mode: HCD
Collision energy: 75
Resolution: 17500
Column name: Acquity BEH C18 1.7um, 2.1x150mm (Waters)
Retention time: 16.703 min
Base peak: 79.0212
Precursor m/z: 410.2088
Precursor type: [M+H]+
Precursor intensity: 17093715.25
m/z	relative intensity	assigned
51.023	1	C4H3+
53.0386	28	C4H5+
63.0229	2	C5H3+
67.0416	3	C4H5N+
75.0228	1	C6H3+
77.0384	14	C6H5+
78.0339	3	C5H4N+
79.0542	41	C6H7+
80.0494	91	C5H6N+
89.0386	2	C7H5+
93.0446	4	C5H5N2+
95.0491	77	C4H5N3+
96.0444	9	C3H4N4+
103.0541	3	C8H7+
104.0494	9	C7H6N+
105.0447	32	C6H5N2+
111.0553	2	C3H5N5+
113.0383	1	C9H5+
115.0541	12	C9H7+
116.0495	5	C8H6N+
117.0573	12	C8H7N+
120.0444	2	C5H4N4+
120.0556	18	C6H6N3+
122.0601	5	C5H6N4+
127.0542	4	C10H7+
128.0494	7	C9H6N+
128.0621	4	C10H8+
129.0447	35	C8H5N2+
129.0697	3	C10H9+
130.0401	7	C7H4N3+
131.0603	3	C8H7N2+
132.0557	6	C7H6N3+
133.0634	405	C7H7N3+
134.0712	16	C7H8N3+
139.0542	21	C11H7+
140.0494	75	C10H6N+
140.0618	6	C11H8+
141.0572	6	C10H7N+
141.0695	3	C11H9+
142.0526	3	C9H6N2+
145.0649	11	C8H7N3+
146.06	4	C7H6N4+
146.0713	20	C8H8N3+
147.0552	3	C6H5N5+
147.0789	13	C8H9N3+
150.0459	2	C12H6+
151.0541	15	C12H7+
152.062	423	C12H8+
153.0698	281	C12H9+
154.065	28	C11H8N+
154.0766	1	C12H10+
155.0489	4	C9H5N3+
155.0603	21	C10H7N2+
155.0723	2	C11H9N+
155.0855	10	C12H11+
158.071	1	C9H8N3+
161.0708	2	C7H7N5+
163.0541	102	C13H7+
164.0495	25	C12H6N+
164.0616	11	C13H8+
165.0572	18	C12H7N+
165.0699	324	C13H9+
166.0651	40	C12H8N+
166.0774	21	C13H10+
167.0729	101	C12H9N+
168.0569	25	C10H6N3+
168.0681	24	C11H8N2+
169.0647	191	C10H7N3+
170.0602	10	C9H6N4+
176.1182	380	C10H14N3+
177.0573	54	C13H7N+
177.0695	5	C14H9+
178.0651	144	C13H8N+
178.0775	115	C14H10+
179.0604	71	C12H7N2+
179.0728	282	C13H9N+
180.0807	953	C13H10N+
181.0758	22	C12H9N2+
181.0884	4	C13H11N+
182.06	33	C10H6N4+
183.0677	18	C10H7N4+
183.0803	5	C11H9N3+
188.0491	1	C14H6N+
189.0576	8	C14H7N+
190.0651	614	C14H8N+
191.0608	16	C13H7N2+
191.0729	232	C14H9N+
192.0681	404	C13H8N2+
192.0802	183	C14H10N+
193.0522	8	C11H5N4+
194.06	113	C11H6N4+
196.052	4	C9H4N6+
196.0757	88	C11H8N4+
204.0552	2	C13H6N3+
205.076	999	C14H9N2+
206.0838	409	C14H10N2+
207.0686	13	C12H7N4+
207.0916	233	C14H11N2+
208.0756	46	C12H8N4+
209.0832	10	C12H9N4+
210.0918	2	C12H10N4+
211.0626	35	C9H5N7+
221.0469	4	C10H3N7+
