Mass spectrum: Indomethacin; LC-ESI-QFT; MS2; CE: 30; R=17500; [M+H]+
Name: Indomethacin
Name: 2-[1-(4-chlorobenzoyl)-5-methoxy-2-methylindol-3-yl]acetic acid
Formula: C19H16ClNO4
Exact mass: 357.0768
SMILES: COC1=CC2=C(C=C1)N(C(=O)C1=CC=C(Cl)C=C1)C(C)=C2CC(O)=O
InChI: InChI=1S/C19H16ClNO4/c1-11-15(10-18(22)23)16-9-14(25-2)7-8-17(16)21(11)19(24)12-3-5-13(20)6-4-12/h3-9H,10H2,1-2H3,(H,22,23)
Instrument: Q Exactive Orbitrap (Thermo Scientific)
Instrument type: LC-ESI-QFT
Ms type: MS2
Ion mode: POSITIVE
Ionization: ESI
Fragmentation mode: HCD
Collision energy: 30
Resolution: 17500
Column name: Acquity BEH C18 1.7um, 2.1x150mm (Waters)
Retention time: 18.541 min
Base peak: 79.0211
Precursor m/z: 358.0841
Precursor type: [M+H]+
Precursor intensity: 7291426.5625
m/z	relative intensity	assigned
110.9992	2	C6H4Cl+
129.0104	2	C6H6ClO+
138.9946	999	C7H4ClO+
174.0914	45	C11H12NO+
202.087	1	C12H12NO2+
312.0783	2	C18H15ClNO2+
