Mass spectrum: Dimethenamid; LC-ESI-QFT; MS2; CE: 90; R=17500; [M+H]+
Name: Dimethenamid
Name: 2-chloro-N-(2,4-dimethylthiophen-3-yl)-N-(1-methoxypropan-2-yl)acetamide
Formula: C12H18ClNO2S
Exact mass: 275.0747
SMILES: COCC(C)N(C(=O)CCl)C1=C(C)SC=C1C
InChI: InChI=1S/C12H18ClNO2S/c1-8-7-17-10(3)12(8)14(11(15)5-13)9(2)6-16-4/h7,9H,5-6H2,1-4H3
Instrument: Q Exactive Orbitrap (Thermo Scientific)
Instrument type: LC-ESI-QFT
Ms type: MS2
Ion mode: POSITIVE
Ionization: ESI
Fragmentation mode: HCD
Collision energy: 90
Resolution: 17500
Column name: Acquity BEH C18 1.7um, 2.1x150mm (Waters)
Retention time: 17.366 min
Base peak: 79.0211
Precursor m/z: 276.082
Precursor type: [M+H]+
Precursor intensity: 13422728.5
m/z	relative intensity	assigned
51.023	7	C4H3+
53.0022	28	C3HO+
53.0386	96	C4H5+
55.0179	10	C3H3O+
55.0543	11	C4H7+
56.0495	29	C3H6N+
58.995	122	C2H3S+
65.0385	82	C5H5+
67.0542	169	C5H7+
69.0698	5	C5H9+
70.9949	42	C3H3S+
73.0106	9	C3H5S+
73.0648	47	C4H9O+
75.0229	49	C6H3+
75.9948	9	C2H3ClN+
76.9789	97	C2H2ClO+
77.0386	42	C6H5+
78.0464	69	C6H6+
79.0178	6	C5H3O+
79.0542	67	C6H7+
80.0496	35	C5H6N+
81.0334	13	C5H5O+
81.0574	16	C5H7N+
81.0698	10	C6H9+
82.0651	40	C5H8N+
85.0106	36	C4H5S+
86.9996	38	C4H4Cl+
91.0543	266	C7H7+
92.0495	13	C6H6N+
93.0574	72	C6H7N+
93.0699	128	C7H9+
94.0414	26	C6H6O+
94.0652	206	C6H8N+
95.0492	304	C6H7O+
95.073	277	C6H9N+
96.0569	6	C6H8O+
96.0807	5	C6H10N+
97.0107	87	C5H5S+
98.0185	12	C5H6S+
99.0263	100	C5H7S+
100.0216	6	C4H6NS+
101.042	23	C5H9S+
102.0464	9	C8H6+
103.0543	248	C8H7+
104.0495	46	C7H6N+
105.0573	89	C7H7N+
105.0698	10	C8H9+
106.0651	29	C7H8N+
107.0729	13	C7H9N+
107.0856	11	C8H11+
108.0808	69	C7H10N+
109.0107	25	C6H5S+
110.0186	19	C6H6S+
110.06	8	C6H8NO+
111.0263	999	C6H7S+
112.0217	20	C5H6NS+
112.0341	93	C6H8S+
113.0294	29	C5H7NS+
113.0419	61	C6H9S+
114.0371	15	C5H8NS+
115.0542	19	C9H7+
117.0574	42	C8H7N+
117.0698	32	C9H9+
118.0652	57	C8H8N+
118.0776	8	C9H10+
119.073	71	C8H9N+
120.0808	151	C8H10N+
121.0648	66	C8H9O+
122.0965	14	C8H12N+
123.0137	17	C6H5NS+
123.0263	35	C7H7S+
124.0216	45	C6H6NS+
124.0342	41	C7H8S+
125.0295	49	C6H7NS+
125.042	97	C7H9S+
126.0372	766	C6H8NS+
127.0214	16	C6H7OS+
127.0451	46	C6H9NS+
127.0577	10	C7H11S+
128.0528	92	C6H10NS+
129.0102	101	C6H6ClO+
129.0368	14	C6H9OS+
132.0807	10	C9H10N+
133.0885	9	C9H11N+
134.0964	90	C9H12N+
135.0262	26	C8H7S+
135.1042	65	C9H13N+
136.0216	91	C7H6NS+
136.034	16	C8H8S+
137.0294	104	C7H7NS+
138.0372	349	C7H8NS+
138.9947	109	C7H4ClO+
139.0057	221	C9HNO+
140.053	22	C7H10NS+
142.0076	3	C6H6O2S+
144.987	3	C6H6ClS+
149.042	10	C9H9S+
150.0372	118	C8H8NS+
151.0451	22	C8H9NS+
151.0574	25	C9H11S+
152.0165	247	C7H6NOS+
152.0529	240	C8H10NS+
153.0243	69	C7H7NOS+
153.0607	63	C8H11NS+
154.0322	28	C7H8NOS+
154.0684	11	C8H12NS+
158.0369	3	C7H9ClNO+
159.0035	4	C7H8ClS+
166.0322	23	C8H8NOS+
166.0688	20	C9H12NS+
167.0758	8	C9H13NS+
168.0481	4	C8H10NOS+
168.0841	82	C9H14NS+
186.0141	9	C8H9ClNS+
