Mass spectrum: Chlorfenvinphos; LC-ESI-QFT; MS2; CE: 15; R=17500; [M+H]+
Name: Chlorfenvinphos
Name: Clofenvinfos
Name: [2-chloro-1-(2,4-dichlorophenyl)ethenyl] diethyl phosphate
Formula: C12H14Cl3O4P
Exact mass: 357.9695
SMILES: CCOP(=O)(OCC)OC(=CCl)C1=C(Cl)C=C(Cl)C=C1
InChI: InChI=1S/C12H14Cl3O4P/c1-3-17-20(16,18-4-2)19-12(8-13)10-6-5-9(14)7-11(10)15/h5-8H,3-4H2,1-2H3
Instrument: Q Exactive Orbitrap (Thermo Scientific)
Instrument type: LC-ESI-QFT
Ms type: MS2
Ion mode: POSITIVE
Ionization: ESI
Fragmentation mode: HCD
Collision energy: 15
Resolution: 17500
Column name: Acquity BEH C18 1.7um, 2.1x150mm (Waters)
Retention time: 18.582 min
Base peak: 79.0212
Precursor m/z: 358.9768
Precursor type: [M+H]+
Precursor intensity: 11337476.375
m/z	relative intensity	assigned
98.9841	51	H4O4P+
127.0155	260	C2H8O4P+
155.0467	999	C4H12O4P+
159.0417	1	C4H12ClO4+
169.9693	1	C8H4Cl2+
204.9374	127	C8H4Cl3+
236.9633	1	C8H8Cl2O2P+
