Mass spectrum: Chlorfenvinphos; LC-ESI-QFT; MS2; CE: 90; R=17500; [M+H]+
Name: Chlorfenvinphos
Name: Clofenvinfos
Name: [2-chloro-1-(2,4-dichlorophenyl)ethenyl] diethyl phosphate
Formula: C12H14Cl3O4P
Exact mass: 357.9695
SMILES: CCOP(=O)(OCC)OC(=CCl)C1=C(Cl)C=C(Cl)C=C1
InChI: InChI=1S/C12H14Cl3O4P/c1-3-17-20(16,18-4-2)19-12(8-13)10-6-5-9(14)7-11(10)15/h5-8H,3-4H2,1-2H3
Instrument: Q Exactive Orbitrap (Thermo Scientific)
Instrument type: LC-ESI-QFT
Ms type: MS2
Ion mode: POSITIVE
Ionization: ESI
Fragmentation mode: HCD
Collision energy: 90
Resolution: 17500
Column name: Acquity BEH C18 1.7um, 2.1x150mm (Waters)
Retention time: 18.582 min
Base peak: 79.0212
Precursor m/z: 358.9768
Precursor type: [M+H]+
Precursor intensity: 8982375
m/z	relative intensity	assigned
75.0228	5	C6H3+
77.0021	6	C5HO+
80.9736	1	H2O3P+
84.9842	1	C4H2Cl+
89.0386	4	C7H5+
98.0151	38	C8H2+
98.9841	999	H4O4P+
108.9839	8	C6H2Cl+
109.0049	1	C2H6O3P+
110.9632	46	C5ClO+
112.9996	1	CH6O4P+
116.9947	20	CH6ClO4+
122.9995	19	C7H4Cl+
124.0075	3	C7H5Cl+
131.0104	19	C2H8ClO4+
132.9839	59	C8H2Cl+
133.9918	25	C8H3Cl+
144.9606	3	C6H3Cl2+
150.9943	2	C7H4O2P+
152.0026	1	C8H5ClO+
158.9762	2	C6H5ClOP+
163.0057	18	CH14Cl3O2+
168.9606	21	C8H3Cl2+
169.9684	790	C8H4Cl2+
172.9667	1	C4H8Cl2OP+
186.9715	4	C8H5Cl2O+
196.9668	6	Cl3H13O3P+
200.9866	2	C8H7ClO2P+
