Mass spectrum: 7-Diethylamino-4-methylcoumarin; LC-ESI-QFT; MS2; CE: 60; R=17500; [M+H]+
Name: 7-Diethylamino-4-methylcoumarin
Name: 7-(diethylamino)-4-methylchromen-2-one
Formula: C14H17NO2
Exact mass: 231.1259
SMILES: CCN(CC)C1=CC=C2C(C)=CC(=O)OC2=C1
InChI: InChI=1S/C14H17NO2/c1-4-15(5-2)11-6-7-12-10(3)8-14(16)17-13(12)9-11/h6-9H,4-5H2,1-3H3
Instrument: Q Exactive Orbitrap (Thermo Scientific)
Instrument type: LC-ESI-QFT
Ms type: MS2
Ion mode: POSITIVE
Ionization: ESI
Fragmentation mode: HCD
Collision energy: 60
Resolution: 17500
Column name: Acquity BEH C18 1.7um, 2.1x150mm (Waters)
Retention time: 17.638 min
Base peak: 79.0211
Precursor m/z: 232.1332
Precursor type: [M+H]+
Precursor intensity: 43480290.5625
m/z	relative intensity	assigned
58.0651	2	C3H8N+
67.0178	6	C4H3O+
68.013	26	C3H2NO+
70.0651	1	C4H8N+
72.0807	6	C4H10N+
74.0963	1	C4H12N+
77.0386	1	C6H5+
79.0542	2	C6H7+
82.0651	1	C5H8N+
91.0541	7	C7H7+
93.0699	2	C7H9+
96.0443	14	C5H6NO+
98.0964	1	C6H12N+
103.054	6	C8H7+
105.0699	15	C8H9+
106.065	3	C7H8N+
107.0853	1	C8H11+
109.0648	3	C7H9O+
110.0601	1	C6H8NO+
115.0541	7	C9H7+
116.062	4	C9H8+
117.0573	5	C8H7N+
117.0698	11	C9H9+
118.0651	10	C8H8N+
119.0728	3	C8H9N+
120.0807	4	C8H10N+
121.0647	2	C8H9O+
128.062	1	C10H8+
129.0694	1	C10H9+
130.0651	11	C9H8N+
131.0489	3	C9H7O+
131.0729	10	C9H9N+
131.0851	2	C10H11+
132.0569	3	C9H8O+
132.0807	36	C9H10N+
133.0646	4	C9H9O+
133.0885	1	C9H11N+
134.06	7	C8H8NO+
134.0964	4	C9H12N+
135.0804	1	C9H11O+
138.0912	4	C8H12NO+
143.0732	1	C10H9N+
144.0808	59	C10H10N+
145.0885	6	C10H11N+
146.0597	3	C9H8NO+
146.0965	9	C10H12N+
147.0677	12	C9H9NO+
147.1041	5	C10H13N+
148.0757	7	C9H10NO+
148.112	25	C10H14N+
157.0888	1	C11H11N+
158.0964	20	C11H12N+
159.0439	1	C10H7O2+
159.0803	1	C11H11O+
159.1042	9	C11H13N+
160.0756	158	C10H10NO+
160.1121	19	C11H14N+
161.0596	4	C10H9O2+
161.0835	3	C10H11NO+
161.1198	11	C11H15N+
162.0911	4	C10H12NO+
162.1276	1	C11H16N+
172.1119	14	C12H14N+
173.1198	7	C12H15N+
174.0678	4	C11H10O2+
174.0914	40	C11H12NO+
174.1277	2	C12H16N+
175.0626	17	C10H9NO2+
175.0991	175	C11H13NO+
176.0706	19	C10H10NO2+
176.1069	31	C11H14NO+
176.1433	94	C12H18N+
186.0913	1	C12H12NO+
186.1278	7	C13H16N+
188.0705	999	C11H10NO2+
189.0781	2	C11H11NO2+
189.1148	9	C12H15NO+
190.1227	2	C12H16NO+
192.0416	1	C13H6NO+
192.1015	3	C11H14NO2+
202.0863	62	C12H12NO2+
203.094	282	C12H13NO2+
204.1019	96	C12H14NO2+
204.1381	22	C13H18NO+
216.1018	13	C13H14NO2+
217.1096	8	C13H15NO2+
230.1179	1	C14H16NO2+
232.1331	260	C14H18NO2+
