Mass spectrum: Propoxycarbazone; LC-ESI-QFT; MS2; CE: 45; R=17500; [M+H]+
Name: Propoxycarbazone
Name: methyl 2-[(4-methyl-5-oxo-3-propoxy-1,2,4-triazole-1-carbonyl)sulfamoyl]benzoate
Formula: C15H18N4O7S
Exact mass: 398.0896
SMILES: CCCOC1=NN(C(=O)NS(=O)(=O)C2=C(C=CC=C2)C(=O)OC)C(=O)N1C
InChI: InChI=1S/C15H18N4O7S/c1-4-9-26-14-16-19(15(22)18(14)2)13(21)17-27(23,24)11-8-6-5-7-10(11)12(20)25-3/h5-8H,4,9H2,1-3H3,(H,17,21)
Instrument: Q Exactive Orbitrap (Thermo Scientific)
Instrument type: LC-ESI-QFT
Ms type: MS2
Ion mode: POSITIVE
Ionization: ESI
Fragmentation mode: HCD
Collision energy: 45
Resolution: 17500
Column name: Acquity BEH C18 1.7um, 2.1x150mm (Waters)
Retention time: 15.573 min
Base peak: 79.0211
Precursor m/z: 399.0969
Precursor type: [M+H]+
Precursor intensity: 3580199.875
m/z	relative intensity	assigned
53.0386	17	C4H5+
58.0288	38	C2H4NO+
79.0542	38	C6H7+
81.0335	8	C5H5O+
90.034	23	C6H4N+
95.0492	52	C6H7O+
99.0552	9	C4H7N2O+
105.0337	13	C7H5O+
105.0448	20	C6H5N2+
107.0493	14	C7H7O+
114.0299	58	C3H4N3O2+
116.0455	999	C3H6N3O2+
120.0205	10	C7H4O2+
135.0441	654	C8H7O2+
138.0311	37	C7H6O3+
146.0237	99	C8H4NO2+
168.9953	67	C7H5O3S+
199.006	316	C8H7O4S+
209.9856	183	C8H4NO4S+
