Mass spectrum: Laurocapram; LC-ESI-QFT; MS2; CE: 90; R=17500; [M+H]+
Name: Laurocapram
Name: 1-dodecylazepan-2-one
Formula: C18H35NO
Exact mass: 281.2719
SMILES: CCCCCCCCCCCCN1CCCCCC1=O
InChI: InChI=1S/C18H35NO/c1-2-3-4-5-6-7-8-9-10-13-16-19-17-14-11-12-15-18(19)20/h2-17H2,1H3
Instrument: Q Exactive Orbitrap (Thermo Scientific)
Instrument type: LC-ESI-QFT
Ms type: MS2
Ion mode: POSITIVE
Ionization: ESI
Fragmentation mode: HCD
Collision energy: 90
Resolution: 17500
Column name: Acquity BEH C18 1.7um, 2.1x150mm (Waters)
Retention time: 21.255 min
Base peak: 79.0212
Precursor m/z: 282.2791
Precursor type: [M+H]+
Precursor intensity: 55871670.64063
m/z	relative intensity	assigned
53.0022	212	C3HO+
53.0387	61	C4H5+
53.9975	35	C2NO+
54.0101	6	C3H2O+
54.0339	15	C3H4N+
55.0179	111	C3H3O+
55.0543	271	C4H7+
56.0495	17	C3H6N+
57.0699	598	C4H9+
58.0652	8	C3H8N+
65.0386	9	C5H5+
67.0542	169	C5H7+
68.0495	128	C4H6N+
69.0699	869	C5H9+
70.0652	49	C4H8N+
71.0491	32	C4H7O+
71.0855	64	C5H11+
72.0444	8	C3H6NO+
72.0808	71	C4H10N+
77.0386	17	C6H5+
79.0542	999	C6H7+
80.0495	18	C5H6N+
81.0574	57	C5H7N+
81.0699	20	C6H9+
83.0852	3	C6H11+
84.0808	24	C5H10N+
85.0648	8	C5H9O+
86.0964	45	C5H12N+
94.0413	6	C6H6O+
94.0651	18	C6H8N+
95.0492	142	C6H7O+
96.0808	393	C6H10N+
97.0649	87	C6H9O+
98.0965	33	C6H12N+
114.0914	517	C6H12NO+
