Mass spectrum: Besonprodil; LC-ESI-QFT; MS2; CE: 75; R=17500; [M+H]+
Name: Besonprodil
Name: 6-[2-[4-[(4-fluorophenyl)methyl]piperidin-1-yl]ethylsulfinyl]-3H-1,3-benzoxazol-2-one
Formula: C21H23FN2O3S
Exact mass: 402.1413
SMILES: FC1=CC=C(CC2CCN(CCS(=O)C3=CC=C4NC(=O)OC4=C3)CC2)C=C1
InChI: InChI=1S/C21H23FN2O3S/c22-17-3-1-15(2-4-17)13-16-7-9-24(10-8-16)11-12-28(26)18-5-6-19-20(14-18)27-21(25)23-19/h1-6,14,16H,7-13H2,(H,23,25)
Instrument: Q Exactive Orbitrap (Thermo Scientific)
Instrument type: LC-ESI-QFT
Ms type: MS2
Ion mode: POSITIVE
Ionization: ESI
Fragmentation mode: HCD
Collision energy: 75
Resolution: 17500
Column name: Acquity BEH C18 1.7um, 2.1x150mm (Waters)
Retention time: 13.242 min
Base peak: 79.0211
Precursor m/z: 403.1486
Precursor type: [M+H]+
Precursor intensity: 11501389.5
m/z	relative intensity	assigned
53.0022	2	C3HO+
53.0386	2	C4H5+
54.0338	5	C3H4N+
54.0465	1	C4H6+
55.0418	1	C3H5N+
55.0543	15	C4H7+
56.0495	275	C3H6N+
57.0136	1	C3H2F+
57.0573	7	C3H7N+
58.0651	110	C3H8N+
65.0385	5	C5H5+
67.0415	2	C4H5N+
67.0542	29	C5H7+
68.0495	131	C4H6N+
69.0573	599	C4H7N+
70.0651	248	C4H8N+
72.0808	10	C4H10N+
79.0542	6	C6H7+
80.0495	8	C5H6N+
81.0698	6	C6H9+
82.0651	127	C5H8N+
83.0292	12	C5H4F+
83.0729	20	C5H9N+
84.0808	136	C5H10N+
89.0387	1	C7H5+
91.0542	1	C7H7+
93.0698	1	C7H9+
94.0651	5	C6H8N+
94.995	1	C5H3S+
95.073	5	C6H9N+
96.0808	144	C6H10N+
97.0886	25	C6H11N+
98.0964	2	C6H12N+
100.0756	2	C5H10NO+
103.0542	8	C8H7+
108.0445	3	C6H6NO+
108.0808	5	C7H10N+
109.0449	999	C7H6F+
110.0964	29	C7H12N+
111.0443	1	C6H7O2+
111.1043	14	C7H13N+
112.112	6	C7H14N+
115.0543	34	C9H7+
120.0445	1	C7H6NO+
121.0449	6	C8H6F+
122.006	5	C6H4NS+
123.0605	31	C8H8F+
124.1121	2	C8H14N+
128.062	15	C10H8+
129.0698	8	C10H9+
133.0449	30	C9H6F+
134.0527	7	C9H7F+
135.0605	134	C9H8F+
136.0394	37	C7H6NO2+
136.0683	16	C9H9F+
137.0058	1	C7H5OS+
145.0649	1	C10H9O+
146.0527	7	C10H7F+
147.0605	86	C10H8F+
148.0683	47	C10H9F+
149.0762	47	C10H10F+
150.0712	6	C9H9FN+
152.0167	2	C7H6NOS+
153.9952	1	C6H4NO2S+
155.0602	2	C10H7N2+
160.0682	1	C11H9F+
161.076	6	C11H10F+
163.0918	17	C11H12F+
164.0869	2	C10H11FN+
165.9956	2	C7H4NO2S+
175.0923	1	C12H12F+
181.9906	3	C7H4NO3S+
192.1184	87	C12H15FN+
193.0189	1	C9H7NO2S+
206.134	79	C13H17FN+
220.1496	68	C14H19FN+
