Mass spectrum: Propylparaben; LC-ESI-QFT; MS2; CE: 90; R=17500; [M-H]-
Name: Propylparaben
Name: propyl 4-hydroxybenzoate
Formula: C10H12O3
Exact mass: 180.0786
SMILES: CCCOC(=O)C1=CC=C(O)C=C1
InChI: InChI=1S/C10H12O3/c1-2-7-13-10(12)8-3-5-9(11)6-4-8/h3-6,11H,2,7H2,1H3
Instrument: Q Exactive Orbitrap (Thermo Scientific)
Instrument type: LC-ESI-QFT
Ms type: MS2
Ion mode: NEGATIVE
Ionization: ESI
Fragmentation mode: HCD
Collision energy: 90
Resolution: 17500
Column name: Acquity BEH C18 1.7um, 2.1x150mm (Waters)
Retention time: 16.598 min
Base peak: 179.0714
Precursor m/z: 179.0714
Precursor type: [M-H]-
Precursor intensity: 39946729.89551
m/z	relative intensity	assigned
53.0032	1	C3HO-
57.0346	115	C3H5O-
59.0502	5	C3H7O-
65.0034	3	C4HO-
65.0397	23	C5H5-
67.0189	4	C4H3O-
68.9982	14	C3HO2-
69.0346	13	C4H5O-
70.006	4	C3H2O2-
71.0139	7	C3H3O2-
72.9932	5	C2HO3-
79.0189	4	C5H3O-
79.9904	4	C4O2-
80.9983	3	C4HO2-
82.0061	23	C4H2O2-
83.0138	1	C4H3O2-
86.0011	1	C3H2O3-
91.019	95	C6H3O-
92.0268	106	C6H4O-
93.0346	999	C6H5O-
95.0139	489	C5H3O2-
97.0296	8	C5H5O2-
98.0009	2	C4H2O3-
106.006	26	C6H2O2-
107.0139	3	C6H3O2-
108.0217	463	C6H4O2-
119.0136	2	C7H3O2-
121.0295	26	C7H5O2-
123.0088	65	C6H3O3-
125.0242	2	C6H5O3-
136.0167	16	C7H4O3-
137.0244	12	C7H5O3-
