Mass spectrum: Phenolphthalein; LC-ESI-QFT; MS2; CE: 30; R=17500; [M-H]-
Name: Phenolphthalein
Name: 3,3-bis(4-hydroxyphenyl)-2-benzofuran-1-one
Formula: C20H14O4
Exact mass: 318.0892
SMILES: OC1=CC=C(C=C1)C1(OC(=O)C2=C1C=CC=C2)C1=CC=C(O)C=C1
InChI: InChI=1S/C20H14O4/c21-15-9-5-13(6-10-15)20(14-7-11-16(22)12-8-14)18-4-2-1-3-17(18)19(23)24-20/h1-12,21-22H
Instrument: Q Exactive Orbitrap (Thermo Scientific)
Instrument type: LC-ESI-QFT
Ms type: MS2
Ion mode: NEGATIVE
Ionization: ESI
Fragmentation mode: HCD
Collision energy: 30
Resolution: 17500
Column name: Acquity BEH C18 1.7um, 2.1x150mm (Waters)
Retention time: 15.333 min
Base peak: 317.0818
Precursor m/z: 317.0819
Precursor type: [M-H]-
Precursor intensity: 8559521.289063
m/z	relative intensity	assigned
93.0346	999	C6H5O-
180.0581	23	C13H8O-
195.0455	1	C13H7O2-
197.0606	3	C13H9O2-
205.066	2	C15H9O-
223.0404	3	C14H7O3-
224.0478	16	C14H8O3-
227.0868	2	C18H11-
243.0815	7	C18H11O-
245.0969	8	C18H13O-
271.0765	3	C19H11O2-
272.0844	109	C19H12O2-
273.0921	152	C19H13O2-
