Mass spectrum: 3-Amino-9-ethylcarbazole; LC-ESI-QFT; MS2; CE: 30; R=17500; [M+H]+
Name: 3-Amino-9-ethylcarbazole
Name: 9-ethylcarbazol-3-amine
Formula: C14H14N2
Exact mass: 210.1157
SMILES: CCN1C2=C(C=CC=C2)C2=C1C=CC(N)=C2
InChI: InChI=1S/C14H14N2/c1-2-16-13-6-4-3-5-11(13)12-9-10(15)7-8-14(12)16/h3-9H,2,15H2,1H3
Instrument: Q Exactive Orbitrap (Thermo Scientific)
Instrument type: LC-ESI-QFT
Ms type: MS2
Ion mode: POSITIVE
Ionization: ESI
Fragmentation mode: HCD
Collision energy: 30
Resolution: 17500
Column name: Acquity BEH C18 1.7um, 2.1x150mm (Waters)
Retention time: 14.120 min
Base peak: 79.0212
Precursor m/z: 211.123
Precursor type: [M+H]+
Precursor intensity: 6685311
m/z	relative intensity	assigned
179.0726	1	C13H9N+
182.0839	115	C12H10N2+
183.0918	11	C12H11N2+
194.0966	3	C14H12N+
195.0912	1	C13H11N2+
195.1039	1	C14H13N+
210.1153	5	C14H14N2+
211.1227	999	C14H15N2+
