Mass spectrum: Fipronil; LC-ESI-QFT; MS2; CE: 75; R=17500; [M-H]-
Name: Fipronil
Name: 5-amino-1-[2,6-dichloro-4-(trifluoromethyl)phenyl]-4-(trifluoromethylsulfinyl)pyrazole-3-carbonitrile
Formula: C12H4Cl2F6N4OS
Exact mass: 435.9387
SMILES: NC1=C(C(=NN1C1=C(Cl)C=C(C=C1Cl)C(F)(F)F)C#N)S(=O)C(F)(F)F
InChI: InChI=1S/C12H4Cl2F6N4OS/c13-5-1-4(11(15,16)17)2-6(14)8(5)24-10(22)9(7(3-21)23-24)26(25)12(18,19)20/h1-2H,22H2
Instrument: Q Exactive Orbitrap (Thermo Scientific)
Instrument type: LC-ESI-QFT
Ms type: MS2
Ion mode: NEGATIVE
Ionization: ESI
Fragmentation mode: HCD
Collision energy: 75
Resolution: 17500
Column name: Acquity BEH C18 1.7um, 2.1x150mm (Waters)
Retention time: 18.222 min
Base peak: 434.9313
Precursor m/z: 434.9314
Precursor type: [M-H]-
Precursor intensity: 87013573.22266
m/z	relative intensity	assigned
50.0035	32	C3N-
57.9757	302	CNS-
64.0067	8	C3N2-
65.9985	12	C3NO-
66.0098	22	C2N3-
66.9415	6	ClS-
74.0036	22	C5N-
76.0067	2	C4N2-
77.0145	72	C4HN2-
81.9757	45	C3NS-
84.9907	9	CF3O-
85.9706	8	C2NOS-
86.0036	6	C6N-
88.0003	15	C3F2N-
88.0066	10	C5N2-
89.0145	3	C5HN2-
90.0098	28	CH2F4-
98.0037	15	C7N-
100.0068	3	C6N2-
112.0004	24	C5F2N-
112.0067	18	C7N2-
113.0145	394	C7HN2-
124.0067	5	C8N2-
130.9989	5	C5F3N-
136.0006	8	C7F2N-
136.0064	2	CHF5N2-
138.0034	2	C6F2N2-
143.0051	638	C8FN2-
148.0067	27	C10N2-
148.9912	23	C7H2ClN2-
150.0034	3	C7F2N2-
151.9713	2	C7ClFN-
154.9988	34	C7F3N-
157.0019	2	C6F3N2-
158.0098	5	C6HF3N2-
160.0017	4	C6HF3NO-
162.0035	16	C8F2N2-
163.0114	895	C8HF2N2-
170.0097	29	C7HF3N2-
174.0034	6	C9F2N2-
174.9773	2	C8FN2S-
181.0022	8	C8F3N2-
182.0098	106	C8HF3N2-
183.0175	999	C8H2F3N2-
194.9836	6	C8HF2N2S-
196.9724	7	C8ClF2N2-
198.0037	20	C11F2N2-
199.0111	11	C11HF2N2-
201.9986	20	C10F2N2O-
203.9768	37	CHClF6N3-
205.0021	2	C10F3N2-
207.0007	5	C9H3ClFN3-
208.0128	38	C9HF3N3-
208.9588	3	C8H2ClN2OS-
212.0067	24	C8H2F6-
212.9492	16	C7H2Cl2F3-
213.9734	3	C3HClF6N2-
214.9902	13	C8H2F3N2S-
216.9783	28	C8HClF3N2-
217.9865	8	C8H2ClF3N2-
218.0096	26	C11HF3N2-
222.0052	3	C10HF3N2O-
223.9833	40	C6H3ClF6-
227.0178	2	C8H3F6N-
228.945	2	C8ClF2N2S-
229.9525	5	C8HClF2N2S-
232.0127	24	C11HF3N3-
233.981	7	C8H2ClF3N2O-
236.984	3	C8H2ClF4N2-
243.9895	99	C9H2ClF3N3-
244.9208	5	C2HCl2F4N3S-
247.983	32	C11HClF2N3-
249.9584	166	C8H2ClF3N2S-
253.9864	5	C11H2ClF3N2-
267.9896	159	C11H2ClF3N3-
271.9845	27	C10H2ClF3N3O-
277.9547	5	C9H2ClF3N2OS-
280.957	4	C9H2ClF4N2S-
281.9925	12	C11H2ClF3N4-
287.9614	5	C10H2ClF3N3S-
