Mass spectrum: Lufenuron; LC-ESI-QFT; MS2; CE: 30; R=17500; [M-H]-
Name: Lufenuron
Formula: C17H8Cl2F8N2O3
Exact mass: 509.9784
SMILES: FC(C(F)(F)F)C(F)(F)OC1=CC(Cl)=C(NC(=O)NC(=O)C2=C(F)C=CC=C2F)C=C1Cl
InChI: InChI=1S/C17H8Cl2F8N2O3/c18-6-5-11(32-17(26,27)14(22)16(23,24)25)7(19)4-10(6)28-15(31)29-13(30)12-8(20)2-1-3-9(12)21/h1-5,14H,(H2,28,29,30,31)
Instrument: Q Exactive Orbitrap (Thermo Scientific)
Instrument type: LC-ESI-QFT
Ms type: MS2
Ion mode: NEGATIVE
Ionization: ESI
Fragmentation mode: HCD
Collision energy: 30
Resolution: 17500
Column name: Acquity BEH C18 1.7um, 2.1x150mm (Waters)
Retention time: 19.448 min
Base peak: 112.9856
Precursor m/z: 508.9711
Precursor type: [M-H]-
Precursor intensity: 7521663.133789
m/z	relative intensity	assigned
113.0206	17	C6H3F2-
130.9927	12	C3F5-
146.9873	34	C3F5O-
156.0269	10	C7H4F2NO-
173.9518	8	C6H2Cl2NO-
174.9597	999	C6H3Cl2NO-
175.9675	3	C6H4Cl2NO-
201.9468	360	C7H2Cl2NO2-
249.9688	5	C9HClF4NO-
258	28	C5H5ClF6N2O-
265.9394	18	C9HCl2F3NO-
285.9456	88	C9H2Cl2F4NO-
294.9611	5	C13H4Cl2FNO2-
302.9978	51	C14H5ClFN2O3-
305.9517	88	C9H3Cl2F5NO-
325.9579	890	C9H4Cl2F6NO-
338.9742	206	C6H7Cl2F6N2O3-
350.9533	51	C10H3Cl2F6N2O-
408.9992	5	C16H3F8NO3-
452.988	9	C17H5ClF7N2O3-
