Mass spectrum: 4-Amino-2,5-dimethoxy-N-phenylbenzenesulfonamide; LC-ESI-QFT; MS2; CE: 60; R=17500; [M-H]-
Name: 4-Amino-2,5-dimethoxy-N-phenylbenzenesulfonamide
Formula: C14H16N2O4S
Exact mass: 308.0831
SMILES: COC1=CC(N)=C(OC)C=C1S(=O)(=O)NC1=CC=CC=C1
InChI: InChI=1S/C14H16N2O4S/c1-19-12-9-14(13(20-2)8-11(12)15)21(17,18)16-10-6-4-3-5-7-10/h3-9,16H,15H2,1-2H3
Instrument: Q Exactive Orbitrap (Thermo Scientific)
Instrument type: LC-ESI-QFT
Ms type: MS2
Ion mode: NEGATIVE
Ionization: ESI
Fragmentation mode: HCD
Collision energy: 60
Resolution: 17500
Column name: Acquity BEH C18 1.7um, 2.1x150mm (Waters)
Retention time: 14.546 min
Base peak: 112.9856
Precursor m/z: 307.0758
Precursor type: [M-H]-
Precursor intensity: 277703.9545898
m/z	relative intensity	assigned
91.0428	32	C6H5N-
92.0506	69	C6H6N-
110.0247	169	C5H4NO2-
116.0505	22	C8H6N-
136.0403	118	C7H6NO2-
138.0193	15	C6H4NO3-
153.9961	16	C6H4NO2S-
167.0613	27	C11H7N2-
168.0456	21	C11H6NO-
185.0722	62	C11H9N2O-
186.0559	68	C11H8NO2-
195.056	64	C12H7N2O-
196.0405	28	C12H6NO2-
197.0481	73	C12H7NO2-
213.0669	999	C12H9N2O2-
227.0346	15	C13H7O4-
