Mass spectrum: Fluazifop-butyl; LC-ESI-QFT; MS2; CE: 75; R=17500; [M+H]+
Name: Fluazifop-butyl
Name: butyl 2-[4-[5-(trifluoromethyl)pyridin-2-yl]oxyphenoxy]propanoate
Formula: C19H20F3NO4
Exact mass: 383.1344
SMILES: CCCCOC(=O)C(C)OC1=CC=C(OC2=CC=C(C=N2)C(F)(F)F)C=C1
InChI: InChI=1S/C19H20F3NO4/c1-3-4-11-25-18(24)13(2)26-15-6-8-16(9-7-15)27-17-10-5-14(12-23-17)19(20,21)22/h5-10,12-13H,3-4,11H2,1-2H3
Instrument: Q Exactive Orbitrap (Thermo Scientific)
Instrument type: LC-ESI-QFT
Ms type: MS2
Ion mode: POSITIVE
Ionization: ESI
Fragmentation mode: HCD
Collision energy: 75
Resolution: 17500
Column name: Acquity BEH C18 1.7um, 2.1x150mm (Waters)
Retention time: 19.277 min
Base peak: 79.0212
Precursor m/z: 384.1417
Precursor type: [M+H]+
Precursor intensity: 26873175.75
m/z	relative intensity	assigned
53.0022	21	C3HO+
53.0386	4	C4H5+
53.9975	2	C2NO+
55.0178	11	C3H3O+
55.0543	2	C4H7+
57.0699	35	C4H9+
63.0228	7	C5H3+
64.0307	2	C5H4+
65.0386	379	C5H5+
66.0464	1	C5H6+
67.0543	2	C5H7+
69.0333	1	C4H5O+
73.0284	6	C3H5O2+
75.0041	3	C3HF2+
75.0229	18	C6H3+
76.0307	1	C6H4+
77.0385	2	C6H5+
78.0339	1	C5H4N+
79.0179	1	C5H3O+
79.0542	5	C6H7+
80.0621	2	C6H8+
81.0335	5	C5H5O+
89.0386	1	C7H5+
90.0464	1	C7H6+
91.0542	999	C7H7+
92.0257	14	C6H4O+
92.0621	6	C7H8+
93.0335	14	C6H5O+
93.07	4	C7H9+
94.0413	14	C6H6O+
95.0491	11	C6H7O+
96.0441	1	C5H6NO+
97.0085	1	C5H2FO+
99.0041	3	C5HF2+
103.023	1	C4H3F2N+
103.0542	6	C8H7+
104.0131	8	C6H2NO+
105.0334	1	C7H5O+
105.0446	3	FH8NO4+
105.0697	1	C8H9+
107.0491	6	C7H7O+
108.0569	2	C7H8O+
109.0285	6	C6H5O2+
109.0648	9	C7H9O+
110.0362	5	C6H6O2+
111.044	28	C6H7O2+
115.0543	2	C9H7+
117.0147	1	C5H3F2O+
117.0574	5	C8H7N+
118.065	3	C8H8N+
119.0367	1	C7H5NO+
119.0492	32	C8H7O+
119.0598	4	CH10FNO4+
120.0443	4	C7H6NO+
120.0569	7	C8H8O+
121.0284	22	C7H5O2+
121.0647	6	C8H9O+
124.0195	3	C6H3FNO+
125.0597	3	C7H9O2+
126.015	2	C6H2F2N+
127.0227	2	C6H3F2N+
130.0651	11	C9H8N+
131.0492	25	C9H7O+
133.0448	5	C9H6F+
133.0521	2	C8H7NO+
134.0598	1	C8H8NO+
135.0291	1	C5H4F3N+
136.052	1	C8H8O2+
139.0352	1	C8H5F2+
140.0306	1	C7H4F2N+
140.0495	6	C10H6N+
141.0573	121	C10H7N+
142.0412	1	C10H6O+
142.0653	2	C10H8N+
144.0256	4	C6H4F2NO+
144.0444	1	C9H6NO+
145.0332	4	C6H5F2NO+
146.0212	17	C6H3F3N+
146.06	2	C9H8NO+
147.029	9	C6H4F3N+
148.0368	10	C6H5F3N+
149.021	1	C6H4F3O+
151.0353	1	C9H5F2+
152.0429	4	C9H6F2+
155.0729	1	C11H9N+
156.081	2	C11H10N+
157.0525	1	C10H7NO+
157.0885	5	C11H11N+
158.06	35	C10H8NO+
159.048	3	C10H6FN+
159.0673	1	C10H9NO+
160.0559	2	C10H7FN+
161.0449	3	C7H6F3N+
163.0239	10	C6H4F3NO+
163.0353	1	C10H5F2+
164.0317	198	C6H5F3NO+
166.0651	3	C12H8N+
167.0729	20	C12H9N+
168.0444	23	C11H6NO+
169.0522	15	C11H7NO+
170.0399	4	C11H5FN+
170.0595	4	C11H8NO+
172.0368	6	C8H5F3N+
176.0319	1	C7H5F3NO+
177.0585	2	C10H8FNO+
178.0472	8	C7H7F3NO+
179.0188	83	C6H4F3NO2+
179.0538	4	C10H7F2N+
180.0379	12	C10H6F2O+
181.0462	3	C10H7F2O+
182.0336	1	C10H5F3+
182.0415	1	C9H6F2NO+
183.0415	6	C10H6F3+
184.037	1	C9H5F3N+
184.0757	2	C12H10NO+
185.0448	13	C9H6F3N+
185.0837	1	C12H11NO+
186.0533	12	C9H7F3N+
186.0711	6	C12H9FN+
187.0427	3	C11H6FNO+
188.0322	1	C8H5F3NO+
188.0507	21	C11H7FNO+
189.0385	2	C11H5F2N+
190.0463	53	C11H6F2N+
191.0415	6	C4H8F3NO4+
191.0536	1	C11H7F2N+
194.0595	1	C13H8NO+
196.0559	2	C13H7FN+
198.0349	3	C12H5FNO+
198.0527	39	C10H7F3N+
199.036	1	C10H6F3O+
199.0606	4	C10H8F3N+
200.0319	4	C9H5F3NO+
200.0445	3	C10H7F3O+
200.0698	1	C12H10NO2+
201.0417	12	C11H7NO3+
202.0474	7	C9H7F3NO+
206.0412	2	C11H6F2NO+
207.0493	9	C11H7F2NO+
208.057	6	C11H8F2NO+
209.0446	17	C11H6F3N+
210.0525	22	C11H7F3N+
211.0603	28	C11H8F3N+
213.0782	2	C13H11NO2+
214.0481	1	C10H7F3NO+
214.0662	3	C13H9FNO+
216.0454	2	C12H7FNO2+
216.0618	5	C13H8F2N+
218.0412	115	C12H6F2NO+
222.0529	2	C12H7F3N+
224.0683	2	C12H9F3N+
225.0395	1	C11H6F3NO+
226.0474	19	C11H7F3NO+
226.0838	10	C12H11F3N+
227.0552	147	C11H8F3NO+
228.0633	1	C11H9F3NO+
235.0605	14	C13H8F3N+
236.032	1	C12H5F3NO+
236.0681	9	C13H9F3N+
237.0394	1	C12H6F3NO+
238.0474	447	C12H7F3NO+
239.0552	2	C12H8F3NO+
240.063	2	C12H9F3NO+
254.0423	228	C12H7F3NO2+
255.0499	2	C12H8F3NO2+
256.058	18	C12H9F3NO2+
264.0634	3	C14H9F3NO+
267.05	1	C13H8F3NO2+
269.0291	1	C12H6F3NO3+
282.0742	4	C14H11F3NO2+
