Mass spectrum: 9-Ethyl-3-nitro-9H-carbazole; LC-ESI-QFT; MS2; CE: 30; R=17500; [M+H]+
Name: 9-Ethyl-3-nitro-9H-carbazole
Name: 9-ethyl-3-nitrocarbazole
Formula: C14H12N2O2
Exact mass: 240.0899
SMILES: CCN1C2=C(C=CC=C2)C2=C1C=CC(=C2)[N+]([O-])=O
InChI: InChI=1S/C14H12N2O2/c1-2-15-13-6-4-3-5-11(13)12-9-10(16(17)18)7-8-14(12)15/h3-9H,2H2,1H3
Instrument: Q Exactive Orbitrap (Thermo Scientific)
Instrument type: LC-ESI-QFT
Ms type: MS2
Ion mode: POSITIVE
Ionization: ESI
Fragmentation mode: HCD
Collision energy: 30
Resolution: 17500
Column name: Acquity BEH C18 1.7um, 2.1x150mm (Waters)
Retention time: 14.796 min
Base peak: 79.0211
Precursor m/z: 241.0972
Precursor type: [M+H]+
Precursor intensity: 5119707
m/z	relative intensity	assigned
71.0602	4	C3H7N2+
72.0443	6	C3H6NO+
79.0058	3	C4HNO+
83.0604	1	C4H7N2+
90.0106	2	C6H2O+
96.0556	28	C6H8O+
104.0009	12	C5N2O+
110.0712	5	C7H10O+
119.0372	3	C7H5NO+
132.0322	8	C7H4N2O+
136.0871	2	C9H12O+
138.0775	2	C7H10N2O+
146.0227	2	C8H4NO2+
173.0584	1	C11H9O2+
174.0541	46	C10H8NO2+
186.0538	4	C11H8NO2+
214.0853	999	C13H12NO2+
