Mass spectrum: Milrinone; LC-ESI-QFT; MS2; CE: 45; R=17500; [M-H]-
Name: Milrinone
Name: 6-methyl-2-oxo-5-pyridin-4-yl-1H-pyridine-3-carbonitrile
Formula: C12H9N3O
Exact mass: 211.0746
SMILES: CC1=C(C=C(C#N)C(=O)N1)C1=CC=NC=C1
InChI: InChI=1S/C12H9N3O/c1-8-11(9-2-4-14-5-3-9)6-10(7-13)12(16)15-8/h2-6H,1H3,(H,15,16)
Instrument: Q Exactive Orbitrap (Thermo Scientific)
Instrument type: LC-ESI-QFT
Ms type: MS2
Ion mode: NEGATIVE
Ionization: ESI
Fragmentation mode: HCD
Collision energy: 45
Resolution: 17500
Column name: Acquity BEH C18 1.7um, 2.1x150mm (Waters)
Retention time: 3.062 min
Base peak: 210.0672
Precursor m/z: 210.0673
Precursor type: [M-H]-
Precursor intensity: 1877767.11792
m/z	relative intensity	assigned
65.0145	8	C3HN2-
65.9985	16	C3NO-
90.0348	1	C6H4N-
91.0301	1	C5H3N2-
93.0095	2	C4HN2O-
107.0251	15	C5H3N2O-
116.0505	3	C8H6N-
117.0458	9	C7H5N2-
118.0297	7	C7H4NO-
141.0459	14	C9H5N2-
143.0615	62	C9H7N2-
159.0566	3	C9H7N2O-
166.041	26	C10H4N3-
167.0615	99	C11H7N2-
168.0567	15	C10H6N3-
169.041	1	C10H5N2O-
182.0723	5	C11H8N3-
183.0563	8	C11H7N2O-
194.0359	9	C11H4N3O-
208.0514	3	C12H6N3O-
210.0673	999	C12H8N3O-
