Mass spectrum: Enterolactone; LC-ESI-QFT; MS2; CE: 75; R=17500; [M-H]-
Name: Enterolactone
Name: (-)-Enterolactone
Name: (3R,4R)-3,4-bis[(3-hydroxyphenyl)methyl]oxolan-2-one
Formula: C18H18O4
Exact mass: 298.1205
SMILES: OC1=CC(C[C@H]2COC(=O)[C@@H]2CC2=CC(O)=CC=C2)=CC=C1
InChI: InChI=1S/C18H18O4/c19-15-5-1-3-12(8-15)7-14-11-22-18(21)17(14)10-13-4-2-6-16(20)9-13/h1-6,8-9,14,17,19-20H,7,10-11H2/t14-,17+/m0/s1
Instrument: Q Exactive Orbitrap (Thermo Scientific)
Instrument type: LC-ESI-QFT
Ms type: MS2
Ion mode: NEGATIVE
Ionization: ESI
Fragmentation mode: HCD
Collision energy: 75
Resolution: 17500
Column name: Acquity BEH C18 1.7um, 2.1x150mm (Waters)
Retention time: 15.387 min
Base peak: 297.1133
Precursor m/z: 297.1132
Precursor type: [M-H]-
Precursor intensity: 12961608.54492
m/z	relative intensity	assigned
57.0345	2	C3H5O-
65.0397	130	C5H5-
67.0189	10	C4H3O-
79.0554	70	C6H7-
80.0268	3	C5H4O-
82.0059	2	C4H2O2-
91.0553	7	C7H7-
92.0267	9	C6H4O-
93.0346	34	C6H5O-
93.0709	6	C7H9-
95.0139	22	C5H3O2-
95.0503	5	C6H7O-
102.0475	4	C8H6-
103.0554	7	C8H7-
105.0711	4	C8H9-
106.0424	36	C7H6O-
107.0503	999	C7H7O-
108.0217	50	C6H4O2-
109.0296	8	C6H5O2-
109.0659	9	C7H9O-
115.055	7	C9H7-
117.0343	2	C8H5O-
119.0502	344	C8H7O-
121.0295	394	C7H5O2-
121.0659	146	C8H9O-
123.0087	1	C6H3O3-
130.0424	118	C9H6O-
131.0503	192	C9H7O-
132.0581	5	C9H8O-
133.0659	150	C9H9O-
135.0455	1	C8H7O2-
136.0166	8	C7H4O3-
137.0244	23	C7H5O3-
143.0503	145	C10H7O-
144.0581	9	C10H8O-
145.0295	28	C9H5O2-
145.0659	163	C10H9O-
146.0374	4	C9H6O2-
146.0736	4	C10H10O-
147.0452	48	C9H7O2-
149.0606	2	C9H9O2-
157.0655	8	C11H9O-
158.0374	10	C10H6O2-
159.0452	28	C10H7O2-
159.0815	7	C11H11O-
161.0608	10	C10H9O2-
171.0449	6	C11H7O2-
173.061	7	C11H9O2-
178.027	3	C9H6O4-
185.0605	4	C12H9O2-
187.0399	1	C11H7O3-
189.0555	27	C11H9O3-
237.0916	3	C16H13O2-
249.0921	4	C17H13O2-
251.1073	8	C17H15O2-
253.1236	6	C17H17O2-
