Mass spectrum: Pyrithiobac; LC-ESI-QFT; MS2; CE: 15; R=17500; [M+H]+
Name: Pyrithiobac
Name: 2-chloro-6-(4,6-dimethoxypyrimidin-2-yl)sulfanylbenzoic acid
Formula: C13H11ClN2O4S
Exact mass: 326.0128
SMILES: COC1=CC(OC)=NC(SC2=C(C(O)=O)C(Cl)=CC=C2)=N1
InChI: InChI=1S/C13H11ClN2O4S/c1-19-9-6-10(20-2)16-13(15-9)21-8-5-3-4-7(14)11(8)12(17)18/h3-6H,1-2H3,(H,17,18)
Instrument: Q Exactive Orbitrap (Thermo Scientific)
Instrument type: LC-ESI-QFT
Ms type: MS2
Ion mode: POSITIVE
Ionization: ESI
Fragmentation mode: HCD
Collision energy: 15
Resolution: 17500
Column name: Acquity BEH C18 1.7um, 2.1x150mm (Waters)
Retention time: 17.367 min
Base peak: 79.0211
Precursor m/z: 327.0201
Precursor type: [M+H]+
Precursor intensity: 8833746.6875
m/z	relative intensity	assigned
91.0541	1	C7H7+
132.0807	25	C9H10N+
139.0506	1	C6H7N2O2+
150.0914	2	C9H12NO+
152.026	1	C8H7ClN+
169.96	2	C7H3ClOS+
178.0054	24	C9H5ClNO+
250.9991	1	C8H10ClNO4S+
293.9852	1	C12H7ClN2O3S+
309.0094	999	C13H10ClN2O3S+
327.02	640	C13H12ClN2O4S+
