Mass spectrum: Amoxapine; LC-ESI-QFT; MS2; CE: 30; R=17500; [M+H]+
Name: Amoxapine
Name: 8-chloro-6-piperazin-1-ylbenzo[b][1,4]benzoxazepine
Formula: C17H16ClN3O
Exact mass: 313.0982
SMILES: ClC1=CC=C2OC3=C(C=CC=C3)N=C(N3CCNCC3)C2=C1
InChI: InChI=1S/C17H16ClN3O/c18-12-5-6-15-13(11-12)17(21-9-7-19-8-10-21)20-14-3-1-2-4-16(14)22-15/h1-6,11,19H,7-10H2
Instrument: Q Exactive Orbitrap (Thermo Scientific)
Instrument type: LC-ESI-QFT
Ms type: MS2
Ion mode: POSITIVE
Ionization: ESI
Fragmentation mode: HCD
Collision energy: 30
Resolution: 17500
Column name: Acquity BEH C18 1.7um, 2.1x150mm (Waters)
Retention time: 15.206 min
Base peak: 79.0211
Precursor m/z: 314.1055
Precursor type: [M+H]+
Precursor intensity: 18684410.75
m/z	relative intensity	assigned
70.0651	113	C4H8N+
71.0603	3	C3H7N2+
85.076	1	C4H9N2+
193.0534	2	C10H10ClN2+
228.0204	1	C13H7ClNO+
230.0363	1	C13H9ClNO+
245.0476	87	C13H10ClN2O+
271.0631	441	C15H12ClN2O+
297.079	50	C17H14ClN2O+
314.1053	999	C17H17ClN3O+
