Mass spectrum: Metalaxyl; LC-ESI-QFT; MS2; CE: 30; R=17500; [M+H]+
Name: Metalaxyl
Name: methyl 2-(N-(2-methoxyacetyl)-2,6-dimethylanilino)propanoate
Formula: C15H21NO4
Exact mass: 279.1471
SMILES: COCC(=O)N(C(C)C(=O)OC)C1=C(C)C=CC=C1C
InChI: InChI=1S/C15H21NO4/c1-10-7-6-8-11(2)14(10)16(13(17)9-19-4)12(3)15(18)20-5/h6-8,12H,9H2,1-5H3
Instrument: Q Exactive Orbitrap (Thermo Scientific)
Instrument type: LC-ESI-QFT
Ms type: MS2
Ion mode: POSITIVE
Ionization: ESI
Fragmentation mode: HCD
Collision energy: 30
Resolution: 17500
Column name: Acquity BEH C18 1.7um, 2.1x150mm (Waters)
Retention time: 16.409 min
Base peak: 79.0211
Precursor m/z: 280.1543
Precursor type: [M+H]+
Precursor intensity: 33349818.15625
m/z	relative intensity	assigned
121.0887	1	C8H11N+
132.0807	1	C9H10N+
133.0886	5	C9H11N+
134.0964	9	C9H12N+
146.0963	11	C10H12N+
148.112	109	C10H14N+
160.1121	314	C11H14N+
161.0833	2	C10H11NO+
162.1277	35	C11H16N+
165.1149	31	C10H15NO+
188.1071	9	C12H14NO+
192.1382	999	C12H18NO+
208.0609	2	C10H10NO4+
208.1336	5	C12H18NO2+
220.1332	858	C13H18NO2+
221.0124	1	C13H3NO3+
248.128	48	C14H18NO3+
252.1603	1	C14H22NO3+
280.1542	8	C15H22NO4+
