Mass spectrum: Clothianidin; LC-ESI-QFT; MS2; CE: 75; R=17500; [M+H]+
Name: Clothianidin
Name: 1-[(2-chloro-1,3-thiazol-5-yl)methyl]-2-methyl-3-nitroguanidine
Formula: C6H8ClN5O2S
Exact mass: 249.0087
SMILES: CN\C(NCC1=CN=C(Cl)S1)=N/[N+]([O-])=O
InChI: InChI=1S/C6H8ClN5O2S/c1-8-6(11-12(13)14)10-3-4-2-9-5(7)15-4/h2H,3H2,1H3,(H2,8,10,11)
Instrument: Q Exactive Orbitrap (Thermo Scientific)
Instrument type: LC-ESI-QFT
Ms type: MS2
Ion mode: POSITIVE
Ionization: ESI
Fragmentation mode: HCD
Collision energy: 75
Resolution: 17500
Column name: Acquity BEH C18 1.7um, 2.1x150mm (Waters)
Retention time: 12.566 min
Base peak: 79.0211
Precursor m/z: 250.016
Precursor type: [M+H]+
Precursor intensity: 1291495.375
m/z	relative intensity	assigned
54.0339	69	C3H4N+
57.0448	63	C2H5N2+
61.0107	56	C2H5S+
69.0447	48	C3H5N2+
70.9951	289	C3H3S+
78.9406	32	CClS+
86.006	156	C3H4NS+
96.0556	72	C4H6N3+
110.0714	539	C5H8N3+
111.0792	449	C5H9N3+
113.0169	918	C4H5N2S+
131.967	999	C4H3ClNS+
132.975	43	C4H4ClNS+
142.0434	38	C5H8N3S+
146.978	49	C4H4ClN2S+
169.0546	80	C6H9N4S+
