Mass spectrum: PHA-00568487; LC-ESI-QFT; MS2; CE: 60; R=17500; [M+H]+
Name: PHA-00568487
Name: N-(3R)-1-Azabicyclo(2.2.2)oct-3-yl-2,3-dihydro-1,4-benzodioxin-6-carboxamide
Name: N-[(3R)-1-azabicyclo[2.2.2]octan-3-yl]-2,3-dihydro-1,4-benzodioxine-6-carboxamide
Formula: C16H20N2O3
Exact mass: 288.1474
SMILES: O=C(N[C@H]1CN2CCC1CC2)C1=CC2=C(OCCO2)C=C1
InChI: InChI=1S/C16H20N2O3/c19-16(17-13-10-18-5-3-11(13)4-6-18)12-1-2-14-15(9-12)21-8-7-20-14/h1-2,9,11,13H,3-8,10H2,(H,17,19)/t13-/m0/s1
Instrument: Q Exactive Orbitrap (Thermo Scientific)
Instrument type: LC-ESI-QFT
Ms type: MS2
Ion mode: POSITIVE
Ionization: ESI
Fragmentation mode: HCD
Collision energy: 60
Resolution: 17500
Column name: Acquity BEH C18 1.7um, 2.1x150mm (Waters)
Retention time: 10.712 min
Base peak: 79.0211
Precursor m/z: 289.1547
Precursor type: [M+H]+
Precursor intensity: 20715264.875
m/z	relative intensity	assigned
53.0386	6	C4H5+
54.0338	6	C3H4N+
55.0542	43	C4H7+
56.0495	76	C3H6N+
65.0385	3	C5H5+
67.0416	3	C4H5N+
67.0542	18	C5H7+
68.0494	65	C4H6N+
69.0573	25	C4H7N+
69.0698	11	C5H9+
70.0651	2	C4H8N+
77.0386	1	C6H5+
79.0542	54	C6H7+
80.0494	11	C5H6N+
81.0699	180	C6H9+
82.0651	248	C5H8N+
83.0856	3	C6H11+
84.0808	5	C5H10N+
91.0542	17	C7H7+
93.0699	33	C7H9+
94.0651	5	C6H8N+
95.0492	5	C6H7O+
95.073	19	C6H9N+
96.0808	22	C6H10N+
98.0963	2	C6H12N+
105.0447	3	C6H5N2+
107.0127	12	C6H3O2+
108.0808	36	C7H10N+
109.0648	1	C7H9O+
110.0964	544	C7H12N+
125.1073	7	C7H13N2+
126.0911	1	C7H12NO+
128.107	72	C7H14NO+
135.0441	1	C8H7O2+
137.0597	34	C8H9O2+
149.0597	23	C9H9O2+
153.0546	12	C8H9O3+
162.0551	49	C9H8NO2+
163.039	999	C9H7O3+
164.0704	1	C9H10NO2+
180.0655	17	C9H10NO3+
233.128	1	C13H17N2O2+
244.1333	2	C15H18NO2+
271.1442	1	C16H19N2O2+
272.1266	2	C16H18NO3+
287.1388	2	C16H19N2O3+
289.1547	130	C16H21N2O3+
