Mass spectrum: 2,2`-[(4-Methylphenyl)imino]diethanol; LC-ESI-QFT; MS2; CE: 30; R=17500; [M+H]+
Name: 2,2'-[(4-Methylphenyl)imino]diethanol
Name: N,N-Bis(2-hydroxyethyl)-p-toluidine
Name: 2-[N-(2-hydroxyethyl)-4-methylanilino]ethanol
Formula: C11H17NO2
Exact mass: 195.1259
SMILES: CC1=CC=C(C=C1)N(CCO)CCO
InChI: InChI=1S/C11H17NO2/c1-10-2-4-11(5-3-10)12(6-8-13)7-9-14/h2-5,13-14H,6-9H2,1H3
Instrument: Q Exactive Orbitrap (Thermo Scientific)
Instrument type: LC-ESI-QFT
Ms type: MS2
Ion mode: POSITIVE
Ionization: ESI
Fragmentation mode: HCD
Collision energy: 30
Resolution: 17500
Column name: Acquity BEH C18 1.7um, 2.1x150mm (Waters)
Retention time: 9.123 min
Base peak: 79.0211
Precursor m/z: 196.1332
Precursor type: [M+H]+
Precursor intensity: 21367139.34375
m/z	relative intensity	assigned
107.0729	1	C7H9N+
108.0806	2	C7H10N+
118.0649	1	C8H8N+
119.073	2	C8H9N+
120.0806	26	C8H10N+
132.0807	10	C9H10N+
133.0885	74	C9H11N+
134.0963	93	C9H12N+
135.1041	2	C9H13N+
145.0885	3	C10H11N+
150.0914	2	C9H12NO+
151.0991	113	C9H13NO+
152.1069	51	C9H14NO+
160.112	48	C11H14N+
163.0986	1	C10H13NO+
178.1225	231	C11H16NO+
196.1331	999	C11H18NO2+
