Mass spectrum: Selegiline; LC-ESI-QFT; MS2; CE: 30; R=17500; [M+H]+
Name: Selegiline
Name: (2R)-N-methyl-1-phenyl-N-prop-2-ynylpropan-2-amine
Formula: C13H17N
Exact mass: 187.1361
SMILES: C#CCN(C)[C@H](C)Cc1ccccc1
InChI: InChI=1S/C13H17N/c1-4-10-14(3)12(2)11-13-8-6-5-7-9-13/h1,5-9,12H,10-11H2,2-3H3/t12-/m1/s1
Instrument: Q Exactive Orbitrap (Thermo Scientific)
Instrument type: LC-ESI-QFT
Ms type: MS2
Ion mode: POSITIVE
Ionization: ESI
Fragmentation mode: HCD
Collision energy: 30
Resolution: 17500
Column name: Acquity BEH C18 1.7um, 2.1x150mm (Waters)
Retention time: 11.309 min
Base peak: 79.0212
Precursor m/z: 188.1434
Precursor type: [M+H]+
Precursor intensity: 17679475.59375
m/z	relative intensity	assigned
65.0386	1	C5H5+
68.0494	1	C4H6N+
70.0651	200	C4H8N+
82.0652	1	C5H8N+
91.0543	999	C7H7+
96.0808	4	C6H10N+
97.0886	3	C6H11N+
119.0856	818	C9H11+
148.1124	3	C10H14N+
188.1435	363	C13H18N+
