Mass spectrum: Diniconazole; LC-ESI-QFT; MS2; CE: 45; R=17500; [M+H]+
Name: Diniconazole
Name: (E)-1-(2,4-dichlorophenyl)-4,4-dimethyl-2-(1,2,4-triazol-1-yl)pent-1-en-3-ol
Formula: C15H17Cl2N3O
Exact mass: 325.0749
SMILES: CC(C)(C)C(O)C(=C/C1=C(Cl)C=C(Cl)C=C1)\N1C=NC=N1
InChI: InChI=1S/C15H17Cl2N3O/c1-15(2,3)14(21)13(20-9-18-8-19-20)6-10-4-5-11(16)7-12(10)17/h4-9,14,21H,1-3H3/b13-6+
Instrument: Q Exactive Orbitrap (Thermo Scientific)
Instrument type: LC-ESI-QFT
Ms type: MS2
Ion mode: POSITIVE
Ionization: ESI
Fragmentation mode: HCD
Collision energy: 45
Resolution: 17500
Column name: Acquity BEH C18 1.7um, 2.1x150mm (Waters)
Retention time: 19.160 min
Base peak: 79.0211
Precursor m/z: 326.0821
Precursor type: [M+H]+
Precursor intensity: 20490754.75
m/z	relative intensity	assigned
57.0699	11	C4H9+
69.0699	5	C5H9+
70.0399	999	C2H4N3+
87.0805	8	C5H11O+
93.0699	1	C7H9+
110.0712	1	C5H8N3+
148.0869	1	C8H10N3+
151.0309	1	C9H8Cl+
158.9763	54	C7H5Cl2+
162.0232	1	C10H7Cl+
165.0101	1	C9H6ClO+
169.1012	1	C13H13+
170.9763	6	C8H5Cl2+
172.9555	14	C7H3Cl2O+
172.9919	4	C8H7Cl2+
176.0387	4	C11H9Cl+
179.0257	1	C10H8ClO+
180.0338	1	C10H9ClO+
182.9762	1	C9H5Cl2+
189.0463	1	C12H10Cl+
191.0243	1	C9H6ClN3+
193.0414	2	C11H10ClO+
196.9921	2	C10H7Cl2+
204.0701	8	C13H13Cl+
207.0568	1	C12H12ClO+
211.0073	1	C11H9Cl2+
216.0322	2	C11H7ClN3+
222.0808	2	C13H15ClO+
234.0429	1	C11H9ClN3O+
239.0391	2	C13H13Cl2+
240.0087	1	C13H5ClN2O+
252.0091	7	C11H8Cl2N3+
265.0167	1	C12H9Cl2N3+
266.0245	1	C12H10Cl2N3+
269.0117	3	C11H9Cl2N3O+
270.0192	2	C11H10Cl2N3O+
278.025	1	C13H10Cl2N3+
308.0715	1	C15H16Cl2N3+
326.0823	27	C15H18Cl2N3O+
