Mass spectrum: Nelivaptan; LC-ESI-QFT; MS2; CE: 45; R=17500; [M+H]+
Name: Nelivaptan
Name: (2S,4R)-1-[(3R)-5-chloro-1-(2,4-dimethoxyphenyl)sulfonyl-3-(2-methoxyphenyl)-2-oxoindol-3-yl]-4-hydroxy-N,N-dimethylpyrrolidine-2-carboxamide
Formula: C30H32ClN3O8S
Exact mass: 629.1599
SMILES: COC1=CC(OC)=C(C=C1)S(=O)(=O)N1C(=O)[C@@](N2C[C@H](O)C[C@H]2C(=O)N(C)C)(C2=CC(Cl)=CC=C12)C1=CC=CC=C1OC
InChI: InChI=1S/C30H32ClN3O8S/c1-32(2)28(36)24-15-19(35)17-33(24)30(21-8-6-7-9-25(21)41-4)22-14-18(31)10-12-23(22)34(29(30)37)43(38,39)27-13-11-20(40-3)16-26(27)42-5/h6-14,16,19,24,35H,15,17H2,1-5H3/t19-,24+,30+/m1/s1
Instrument: Q Exactive Orbitrap (Thermo Scientific)
Instrument type: LC-ESI-QFT
Ms type: MS2
Ion mode: POSITIVE
Ionization: ESI
Fragmentation mode: HCD
Collision energy: 45
Resolution: 17500
Column name: Acquity BEH C18 1.7um, 2.1x150mm (Waters)
Retention time: 18.171 min
Base peak: 79.0211
Precursor m/z: 630.1671
Precursor type: [M+H]+
Precursor intensity: 7991129.125
m/z	relative intensity	assigned
52.0308	1	C4H4+
53.0386	13	C4H5+
55.0179	1	C3H3O+
55.0542	1	C4H7+
65.0385	6	C5H5+
66.0463	1	C5H6+
67.0542	1	C5H7+
68.0256	3	C4H4O+
68.9971	1	C3HO2+
77.0385	4	C6H5+
79.0177	4	C5H3O+
79.0542	36	C6H7+
81.0334	1	C5H5O+
81.0699	16	C6H9+
83.049	1	C5H7O+
84.0444	4	C4H6NO+
91.0542	5	C7H7+
92.0257	11	C6H4O+
93.0335	6	C6H5O+
94.0413	41	C6H6O+
95.0492	39	C6H7O+
97.0648	2	C6H9O+
105.0336	56	C7H5O+
105.0447	16	C6H5N2+
107.0128	2	C6H3O2+
107.0491	31	C7H7O+
109.0648	228	C7H9O+
110.0363	22	C6H6O2+
111.0441	19	C6H7O2+
121.0285	1	C7H5O2+
121.0648	4	C8H9O+
122.0363	127	C7H6O2+
124.0519	4	C7H8O2+
125.0597	357	C7H9O2+
135.0553	73	C7H7N2O+
137.0598	47	C8H9O2+
139.0753	3	C8H11O2+
151.0755	15	C9H11O2+
153.0546	999	C8H9O3+
171.0109	1	C7H7O3S+
201.0217	301	C8H9O4S+
219.0322	56	C8H11O5S+
233.0478	36	C9H13O5S+
243.0445	2	C14H10ClNO+
254.037	4	C15H9ClNO+
