Mass spectrum: Isoxadifen-ethyl; LC-ESI-QFT; MS2; CE: 15; R=17500; [M+H]+
Name: Isoxadifen-ethyl
Name: ethyl 5,5-diphenyl-4H-1,2-oxazole-3-carboxylate
Formula: C18H17NO3
Exact mass: 295.1208
SMILES: CCOC(=O)C1=NOC(C1)(C1=CC=CC=C1)C1=CC=CC=C1
InChI: InChI=1S/C18H17NO3/c1-2-21-17(20)16-13-18(22-19-16,14-9-5-3-6-10-14)15-11-7-4-8-12-15/h3-12H,2,13H2,1H3
Instrument: Q Exactive Orbitrap (Thermo Scientific)
Instrument type: LC-ESI-QFT
Ms type: MS2
Ion mode: POSITIVE
Ionization: ESI
Fragmentation mode: HCD
Collision energy: 15
Resolution: 17500
Column name: Acquity BEH C18 1.7um, 2.1x150mm (Waters)
Retention time: 18.392 min
Base peak: 79.0212
Precursor m/z: 296.1281
Precursor type: [M+H]+
Precursor intensity: 11403637.875
m/z	relative intensity	assigned
70.0652	29	C4H8N+
77.0386	2	C6H5+
103.0543	7	C8H7+
104.0493	2	C7H6N+
105.0336	176	C7H5O+
146.0599	3	C9H8NO+
165.0701	5	C13H9+
167.0856	3	C13H11+
176.062	1	C14H8+
178.0782	2	C14H10+
179.0855	9	C14H11+
181.1014	4	C14H13+
183.0806	471	C13H11O+
191.0857	12	C15H11+
193.1012	2	C15H13+
203.073	3	C15H9N+
204.081	76	C15H10N+
206.0966	112	C15H12N+
207.0801	12	C15H11O+
217.1018	2	C17H13+
219.1042	3	C16H13N+
222.0916	112	C15H12NO+
232.0759	769	C16H10NO+
233.0837	6	C16H11NO+
234.1278	19	C17H16N+
235.0754	4	C16H11O2+
235.1118	9	C17H15O+
240.1024	2	C15H14NO2+
250.0864	740	C16H12NO2+
263.1068	999	C18H15O2+
268.097	17	C16H14NO3+
278.1179	6	C18H16NO2+
296.1286	403	C18H18NO3+
