Mass spectrum: Indomethacin; LC-ESI-QFT; MS2; CE: 75; R=17500; [M+H]+
Name: Indomethacin
Name: 2-[1-(4-chlorobenzoyl)-5-methoxy-2-methylindol-3-yl]acetic acid
Formula: C19H16ClNO4
Exact mass: 357.0768
SMILES: COC1=CC2=C(C=C1)N(C(=O)C1=CC=C(Cl)C=C1)C(C)=C2CC(O)=O
InChI: InChI=1S/C19H16ClNO4/c1-11-15(10-18(22)23)16-9-14(25-2)7-8-17(16)21(11)19(24)12-3-5-13(20)6-4-12/h3-9H,10H2,1-2H3,(H,22,23)
Instrument: Q Exactive Orbitrap (Thermo Scientific)
Instrument type: LC-ESI-QFT
Ms type: MS2
Ion mode: POSITIVE
Ionization: ESI
Fragmentation mode: HCD
Collision energy: 75
Resolution: 17500
Column name: Acquity BEH C18 1.7um, 2.1x150mm (Waters)
Retention time: 18.541 min
Base peak: 79.0211
Precursor m/z: 358.0841
Precursor type: [M+H]+
Precursor intensity: 5627178.375
m/z	relative intensity	assigned
50.0151	12	C4H2+
51.023	18	C4H3+
53.0022	9	C3HO+
55.0179	6	C3H3O+
62.9632	3	CClO+
65.0385	5	C5H5+
74.0149	8	C6H2+
75.0229	96	C6H3+
79.0178	18	C5H3O+
80.0255	2	C5H4O+
84.984	4	C4H2Cl+
86.9996	133	C4H4Cl+
88.979	2	C3H2ClO+
93.0335	16	C6H5O+
94.0413	14	C6H6O+
98.0362	4	C5H6O2+
108.0205	1	C6H4O2+
108.0568	2	C7H8O+
110.9995	54	C6H4Cl+
111.0441	58	C6H7O2+
114.9945	14	C5H4ClO+
121.0398	8	C5H10ClO+
128.0024	12	C6H5ClO+
129.0101	446	C6H6ClO+
131.073	24	C9H9N+
138.9949	999	C7H4ClO+
139.0053	901	C9HNO+
140.0027	6	C7H5ClO+
159.068	10	C10H9NO+
174.0911	6	C11H12NO+
