Mass spectrum: 2,2`,6,6`-Tetrachlorobisphenol A; LC-ESI-QFT; MS2; CE: 45; R=17500; [M-H]-
Name: 2,2',6,6'-Tetrachlorobisphenol A
Name: Tetrachlorobisphenol A
Name: 2,6-dichloro-4-[2-(3,5-dichloro-4-hydroxyphenyl)propan-2-yl]phenol
Formula: C15H12Cl4O2
Exact mass: 363.9591
SMILES: CC(C)(C1=CC(Cl)=C(O)C(Cl)=C1)C1=CC(Cl)=C(O)C(Cl)=C1
InChI: InChI=1S/C15H12Cl4O2/c1-15(2,7-3-9(16)13(20)10(17)4-7)8-5-11(18)14(21)12(19)6-8/h3-6,20-21H,1-2H3
Instrument: Q Exactive Orbitrap (Thermo Scientific)
Instrument type: LC-ESI-QFT
Ms type: MS2
Ion mode: NEGATIVE
Ionization: ESI
Fragmentation mode: HCD
Collision energy: 45
Resolution: 17500
Column name: Acquity BEH C18 1.7um, 2.1x150mm (Waters)
Retention time: 19.009 min
Base peak: 221.1183
Precursor m/z: 362.9519
Precursor type: [M-H]-
Precursor intensity: 6243468.425781
m/z	relative intensity	assigned
89.0032	14	C6HO-
124.98	165	C6H2ClO-
151.9907	6	C10O2-
156.0217	9	C10H4O2-
158.9786	10	C7H5Cl2-
160.9566	69	C6H3Cl2O-
165.011	2	C9H6ClO-
175.9437	20	C6H2Cl2O2-
180.0217	3	C12H4O2-
184.9568	14	C8H3Cl2O-
188.0035	31	C11H5ClO-
191.9984	16	C10H5ClO2-
200.0035	20	C12H5ClO-
200.9879	999	C9H7Cl2O-
210.9722	31	C10H5Cl2O-
211.9801	171	C10H6Cl2O-
212.9513	30	C9H3Cl2O2-
215.9983	145	C12H5ClO2-
223.9801	205	C11H6Cl2O-
226.9672	44	C10H5Cl2O2-
232.9569	6	C12H3Cl2O-
234.9722	18	C12H5Cl2O-
235.98	120	C12H6Cl2O-
238.9673	23	C11H5Cl2O2-
239.9752	8	C11H6Cl2O2-
246.8915	4	C6H3Cl4O2-
247.98	340	C13H6Cl2O-
250.9671	42	C12H5Cl2O2-
251.975	399	C12H6Cl2O2-
262.9671	117	C13H5Cl2O2-
263.9751	81	C13H6Cl2O2-
268.9338	4	C12H4Cl3O-
270.949	30	C12H6Cl3O-
271.9561	8	C12H7Cl3O-
272.9281	8	C11H4Cl3O2-
275.9751	12	C14H6Cl2O2-
282.9492	9	C13H6Cl3O-
283.9569	154	C13H7Cl3O-
284.9287	12	C12H4Cl3O2-
286.9439	198	C12H6Cl3O2-
287.9505	4	C12H7Cl3O2-
296.9282	22	C13H4Cl3O2-
298.9438	116	C13H6Cl3O2-
299.9516	213	C13H7Cl3O2-
310.9441	11	C14H6Cl3O2-
311.9518	290	C14H7Cl3O2-
326.975	40	C15H10Cl3O2-
346.92	8	C14H7Cl4O2-
347.9285	40	C14H8Cl4O2-
362.9519	429	C15H11Cl4O2-
