Mass spectrum: Cetirizine dihydrochloride; LC-ESI-QFT; MS2; CE: 45; R=17500; [M-H]-
Name: Cetirizine
Name: 2-[2-[4-[(4-chlorophenyl)-phenylmethyl]piperazin-1-yl]ethoxy]acetic acid
Formula: C21H25ClN2O3
Exact mass: 388.1554
SMILES: OC(=O)COCCN1CCN(CC1)C(C1=CC=CC=C1)C1=CC=C(Cl)C=C1
InChI: InChI=1S/C21H25ClN2O3/c22-19-8-6-18(7-9-19)21(17-4-2-1-3-5-17)24-12-10-23(11-13-24)14-15-27-16-20(25)26/h1-9,21H,10-16H2,(H,25,26)
Instrument: Q Exactive Orbitrap (Thermo Scientific)
Instrument type: LC-ESI-QFT
Ms type: MS2
Ion mode: NEGATIVE
Ionization: ESI
Fragmentation mode: HCD
Collision energy: 45
Resolution: 17500
Column name: Acquity BEH C18 1.7um, 2.1x150mm (Waters)
Retention time: 16.306 min
Base peak: 202.9785
Precursor m/z: 387.1481
Precursor type: [M-H]-
Precursor intensity: 1324806.779297
m/z	relative intensity	assigned
59.9853	32	CO3-
72.9931	151	C2HO3-
75.0088	999	C2H3O3-
101.0245	160	C4H5O3-
111.0006	23	C6H4Cl-
130.0509	36	C5H8NO3-
185.0932	54	C8H13N2O3-
199.032	30	C13H8Cl-
201.0476	16	C13H10Cl-
387.1485	123	C21H24ClN2O3-
