Mass spectrum: Melengestrol acetate; LC-ESI-QFT; MS2; CE: 45; R=17500; [M+H]+
Name: Melengestrol acetate
Name: [(8R,9S,10R,13S,14S,17R)-17-acetyl-6,10,13-trimethyl-16-methylidene-3-oxo-1,2,8,9,11,12,14,15-octahydrocyclopenta[a]phenanthren-17-yl] acetate
Formula: C25H32O4
Exact mass: 396.2301
SMILES: CC(=O)O[C@]1(C(C)=O)C(=C)C[C@H]2[C@@H]3C=C(C)C4=CC(=O)CC[C@]4(C)[C@H]3CC[C@]12C
InChI: InChI=1S/C25H32O4/c1-14-11-19-20(23(5)9-7-18(28)13-21(14)23)8-10-24(6)22(19)12-15(2)25(24,16(3)26)29-17(4)27/h11,13,19-20,22H,2,7-10,12H2,1,3-6H3/t19-,20+,22+,23-,24+,25+/m1/s1
Instrument: Q Exactive Orbitrap (Thermo Scientific)
Instrument type: LC-ESI-QFT
Ms type: MS2
Ion mode: POSITIVE
Ionization: ESI
Fragmentation mode: HCD
Collision energy: 45
Resolution: 17500
Column name: Acquity BEH C18 1.7um, 2.1x150mm (Waters)
Retention time: 18.605 min
Base peak: 79.0212
Precursor m/z: 397.2373
Precursor type: [M+H]+
Precursor intensity: 1670468.0625
m/z	relative intensity	assigned
69.0697	10	C5H9+
79.0541	17	C6H7+
81.0699	13	C6H9+
83.0491	30	C5H7O+
91.0542	23	C7H7+
93.0699	10	C7H9+
95.0855	24	C7H11+
97.0648	69	C6H9O+
105.0699	48	C8H9+
107.0856	48	C8H11+
109.0648	14	C7H9O+
109.1011	14	C8H13+
111.0804	11	C7H11O+
117.0699	19	C9H9+
119.0856	64	C9H11+
121.0647	23	C8H9O+
121.1013	46	C9H13+
129.0698	12	C10H9+
130.0782	10	C10H10+
131.0854	26	C10H11+
133.1012	48	C10H13+
135.0802	18	C9H11O+
137.0961	12	C9H13O+
142.0777	9	C11H10+
143.0853	43	C11H11+
145.1012	163	C11H13+
147.0805	16	C10H11O+
147.1168	23	C11H15+
149.0962	23	C10H13O+
151.1115	8	C10H15O+
155.0857	21	C12H11+
156.0936	11	C12H12+
157.1012	111	C12H13+
159.0809	10	C11H11O+
159.1169	78	C12H15+
160.0887	9	C11H12O+
161.096	39	C11H13O+
163.1119	16	C11H15O+
167.0856	14	C13H11+
169.1014	61	C13H13+
171.0803	9	C12H11O+
171.1169	32	C13H15+
172.0883	10	C12H12O+
173.0962	28	C12H13O+
175.1118	311	C12H15O+
179.0857	21	C14H11+
181.1016	51	C14H13+
182.109	12	C14H14+
183.1169	63	C14H15+
185.0962	30	C13H13O+
185.1322	35	C14H17+
187.1118	373	C13H15O+
189.1275	11	C13H17O+
193.1013	32	C15H13+
194.109	25	C15H14+
195.117	98	C15H15+
196.1249	19	C15H16+
197.1327	44	C15H17+
199.1124	10	C14H15O+
201.1281	11	C14H17O+
205.1008	11	C16H13+
206.1089	43	C16H14+
207.1167	47	C16H15+
208.1247	9	C16H16+
209.1327	119	C16H17+
210.1404	40	C16H18+
211.1118	12	C15H15O+
211.1483	42	C16H19+
219.1169	25	C17H15+
220.1247	45	C17H16+
221.1326	593	C17H17+
222.1402	79	C17H18+
223.1482	437	C17H19+
224.1563	51	C17H20+
225.1269	11	C16H17O+
225.1635	28	C17H21+
227.1436	14	C16H19O+
231.1168	32	C18H15+
232.1246	19	C18H16+
233.1321	23	C18H17+
234.1406	19	C18H18+
235.1484	110	C18H19+
236.156	999	C18H20+
237.1639	534	C18H21+
239.1434	16	C17H19O+
246.1405	86	C19H18+
247.1481	33	C19H19+
249.1283	16	C18H17O+
249.1633	25	C19H21+
251.143	20	C18H19O+
251.1795	27	C19H23+
253.1593	43	C18H21O+
261.1639	126	C20H21+
262.1716	33	C20H22+
263.1428	33	C19H19O+
264.151	22	C19H20O+
265.159	39	C19H21O+
275.1795	14	C21H23+
276.187	20	C21H24+
277.1589	23	C20H21O+
277.1953	37	C21H25+
278.1664	26	C20H22O+
279.1744	733	C20H23O+
280.1819	30	C20H24O+
293.1905	60	C21H25O+
294.198	165	C21H26O+
295.2065	55	C21H27O+
337.2157	17	C23H29O2+
