Mass spectrum: Tebupirimfos; LC-ESI-QFT; MS2; CE: 30; R=17500; [M+H]+
Name: Tebupirimfos
Name: (2-tert-butylpyrimidin-5-yl)oxy-ethoxy-propan-2-yloxy-sulfanylidene-lambda5-phosphane
Formula: C13H23N2O3PS
Exact mass: 318.1167
SMILES: CCOP(=S)(OC(C)C)OC1=CN=C(N=C1)C(C)(C)C
InChI: InChI=1S/C13H23N2O3PS/c1-7-16-19(20,17-10(2)3)18-11-8-14-12(15-9-11)13(4,5)6/h8-10H,7H2,1-6H3
Instrument: Q Exactive Orbitrap (Thermo Scientific)
Instrument type: LC-ESI-QFT
Ms type: MS2
Ion mode: POSITIVE
Ionization: ESI
Fragmentation mode: HCD
Collision energy: 30
Resolution: 17500
Column name: Acquity BEH C18 1.7um, 2.1x150mm (Waters)
Retention time: 19.637 min
Base peak: 79.0211
Precursor m/z: 319.124
Precursor type: [M+H]+
Precursor intensity: 28751898.64063
m/z	relative intensity	assigned
153.1022	401	C8H13N2O+
169.0794	12	C8H13N2S+
231.0352	159	C8H12N2O2PS+
249.0458	337	C8H14N2O3PS+
263.0614	29	C9H16N2O3PS+
277.077	999	C10H18N2O3PS+
291.0932	1	C11H20N2O3PS+
319.1237	12	C13H24N2O3PS+
