Mass spectrum: 2-(Phenylsulfonyl)aniline; LC-ESI-QFT; MS2; CE: 15; R=17500; [M+H]+
Name: 2-(Phenylsulfonyl)aniline
Name: 2-(benzenesulfonyl)aniline
Formula: C12H11NO2S
Exact mass: 233.0510
SMILES: NC1=CC=CC=C1S(=O)(=O)C1=CC=CC=C1
InChI: InChI=1S/C12H11NO2S/c13-11-8-4-5-9-12(11)16(14,15)10-6-2-1-3-7-10/h1-9H,13H2
Instrument: Q Exactive Orbitrap (Thermo Scientific)
Instrument type: LC-ESI-QFT
Ms type: MS2
Ion mode: POSITIVE
Ionization: ESI
Fragmentation mode: HCD
Collision energy: 15
Resolution: 17500
Column name: Acquity BEH C18 1.7um, 2.1x150mm (Waters)
Retention time: 15.284 min
Base peak: 79.0211
Precursor m/z: 234.0583
Precursor type: [M+H]+
Precursor intensity: 5882612.5
m/z	relative intensity	assigned
79.0417	4	C5H5N+
92.0495	170	C6H6N+
93.0573	62	C6H7N+
97.0521	6	C5H7NO+
106.0288	3	C6H4NO+
108.0444	88	C6H6NO+
110.06	3	C6H8NO+
156.0113	62	C6H6NO2S+
234.0584	999	C12H12NO2S+
