Mass spectrum: Pyrinuron; LC-ESI-QFT; MS2; CE: 75; R=17500; [M-H]-
Name: Pyrinuron
Name: Pyriminil
Name: 1-(4-nitrophenyl)-3-(pyridin-3-ylmethyl)urea
Formula: C13H12N4O3
Exact mass: 272.0909
SMILES: [O-][N+](=O)C1=CC=C(NC(=O)NCC2=CC=CN=C2)C=C1
InChI: InChI=1S/C13H12N4O3/c18-13(15-9-10-2-1-7-14-8-10)16-11-3-5-12(6-4-11)17(19)20/h1-8H,9H2,(H2,15,16,18)
Instrument: Q Exactive Orbitrap (Thermo Scientific)
Instrument type: LC-ESI-QFT
Ms type: MS2
Ion mode: NEGATIVE
Ionization: ESI
Fragmentation mode: HCD
Collision energy: 75
Resolution: 17500
Column name: Acquity BEH C18 1.7um, 2.1x150mm (Waters)
Retention time: 11.626 min
Base peak: 271.0836
Precursor m/z: 271.0837
Precursor type: [M-H]-
Precursor intensity: 5072488.580811
m/z	relative intensity	assigned
107.0377	433	C6H5NO-
137.0356	999	C6H5N2O2-
