Mass spectrum: Testosterone propionate; LC-ESI-QFT; MS2; CE: 15; R=17500; [M+H]+
Name: Testosterone propionate
Name: [(8R,9S,10R,13S,14S,17S)-10,13-dimethyl-3-oxo-1,2,6,7,8,9,11,12,14,15,16,17-dodecahydrocyclopenta[a]phenanthren-17-yl] propanoate
Formula: C22H32O3
Exact mass: 344.2351
SMILES: CCC(=O)O[C@H]1CC[C@H]2[C@@H]3CCC4=CC(=O)CC[C@]4(C)[C@H]3CC[C@]12C
InChI: InChI=1S/C22H32O3/c1-4-20(24)25-19-8-7-17-16-6-5-14-13-15(23)9-11-21(14,2)18(16)10-12-22(17,19)3/h13,16-19H,4-12H2,1-3H3/t16-,17-,18-,19-,21-,22-/m0/s1
Instrument: Q Exactive Orbitrap (Thermo Scientific)
Instrument type: LC-ESI-QFT
Ms type: MS2
Ion mode: POSITIVE
Ionization: ESI
Fragmentation mode: HCD
Collision energy: 15
Resolution: 17500
Column name: Acquity BEH C18 1.7um, 2.1x150mm (Waters)
Retention time: 19.836 min
Base peak: 79.0211
Precursor m/z: 345.2424
Precursor type: [M+H]+
Precursor intensity: 7616702.125
m/z	relative intensity	assigned
57.0335	2	C3H5O+
81.0699	1	C6H9+
83.0491	2	C5H7O+
95.0855	1	C7H11+
97.0648	67	C6H9O+
109.0647	27	C7H9O+
121.0645	1	C8H9O+
121.1012	1	C9H13+
123.0806	2	C8H11O+
135.1165	1	C10H15+
145.101	1	C11H13+
147.1169	1	C11H15+
149.1324	1	C11H17+
157.1012	1	C12H13+
159.1165	1	C12H15+
161.1326	1	C12H17+
163.1479	2	C12H19+
171.1167	3	C13H15+
173.1323	1	C13H17+
175.1479	5	C13H19+
177.1273	1	C12H17O+
187.1478	2	C14H19+
189.1638	5	C14H21+
197.1328	1	C15H17+
213.1635	1	C16H21+
253.195	27	C19H25+
255.1742	1	C18H23O+
271.2054	69	C19H27O+
289.2161	12	C19H29O2+
309.2218	1	C22H29O+
327.2319	1	C22H31O2+
345.2423	999	C22H33O3+
