Mass spectrum: Pimozide; LC-ESI-QFT; MS2; CE: 75; R=17500; [M+H]+
Name: Pimozide
Name: 3-[1-[4,4-bis(4-fluorophenyl)butyl]piperidin-4-yl]-1H-benzimidazol-2-one
Formula: C28H29F2N3O
Exact mass: 461.2279
SMILES: FC1=CC=C(C=C1)C(CCCN1CCC(CC1)N1C(=O)NC2=C1C=CC=C2)C1=CC=C(F)C=C1
InChI: InChI=1S/C28H29F2N3O/c29-22-11-7-20(8-12-22)25(21-9-13-23(30)14-10-21)4-3-17-32-18-15-24(16-19-32)33-27-6-2-1-5-26(27)31-28(33)34/h1-2,5-14,24-25H,3-4,15-19H2,(H,31,34)
Instrument: Q Exactive Orbitrap (Thermo Scientific)
Instrument type: LC-ESI-QFT
Ms type: MS2
Ion mode: POSITIVE
Ionization: ESI
Fragmentation mode: HCD
Collision energy: 75
Resolution: 17500
Column name: Acquity BEH C18 1.7um, 2.1x150mm (Waters)
Retention time: 15.883 min
Base peak: 79.0212
Precursor m/z: 462.2351
Precursor type: [M+H]+
Precursor intensity: 22130702.5
m/z	relative intensity	assigned
53.0022	1	C3HO+
53.0386	6	C4H5+
54.0338	1	C3H4N+
55.0542	101	C4H7+
56.0495	27	C3H6N+
57.0135	2	C3H2F+
57.0699	1	C4H9+
58.0652	2	C3H8N+
59.0292	1	C3H4F+
65.0386	8	C5H5+
67.0416	3	C4H5N+
67.0542	40	C5H7+
68.0495	6	C4H6N+
69.0573	4	C4H7N+
69.0698	9	C5H9+
70.0651	77	C4H8N+
77.0385	1	CH4FN3+
79.0542	1	C6H7+
80.0494	8	C5H6N+
81.0573	3	C5H7N+
81.0699	1	C6H9+
82.0651	27	C5H8N+
83.0291	33	C5H4F+
83.0729	11	C5H9N+
84.0808	35	C5H10N+
89.0385	3	C7H5+
91.0542	2	C7H7+
92.0495	5	C6H6N+
94.0651	3	C6H8N+
95.0491	5	C6H7O+
95.073	2	C6H9N+
96.0808	31	C6H10N+
97.0886	6	C6H11N+
98.0964	102	C6H12N+
103.0542	75	C8H7+
105.0449	2	C6H5N2+
107.0604	11	C6H7N2+
108.0807	2	C7H10N+
109.0448	999	C7H6F+
110.0964	40	C7H12N+
112.1121	2	C7H14N+
115.0542	6	C9H7+
117.0574	1	C8H7N+
117.0694	1	C4H8FN3+
118.0652	6	C8H8N+
119.0492	1	C8H7O+
119.0604	12	C7H7N2+
121.0448	39	C8H6F+
122.0965	9	C8H12N+
123.0604	47	C8H8F+
124.1121	22	C8H14N+
127.0542	6	C10H7+
128.0496	3	C9H6N+
128.0623	2	C10H8+
129.0448	5	C8H5N2+
129.0699	12	C10H9+
130.0652	66	C9H8N+
131.0613	2	C5H8FN2O+
131.0729	43	C9H9N+
133.0448	5	C9H6F+
134.0472	2	C7H6N2O+
135.0552	37	C7H7N2O+
135.0605	29	C9H8F+
145.0651	31	C10H9O+
145.0759	62	C9H9N2+
146.0527	36	C10H7F+
146.0597	4	C9H8NO+
147.0605	131	C10H8F+
148.0757	1	C9H10NO+
149.0761	70	C10H10F+
155.0603	43	C10H7N2+
156.0443	2	C10H6NO+
158.0475	13	C9H6N2O+
159.0915	1	C10H11N2+
170.0527	1	C12H7F+
171.0549	5	C10H7N2O+
172.0629	5	C10H8N2O+
173.071	157	C10H9N2O+
177.0698	16	C14H9+
183.0605	141	C13H8F+
184.0685	1	C13H9F+
185.071	1	C11H9N2O+
187.0866	22	C11H11N2O+
188.0428	1	C12H6F2+
195.0604	1	C14H8F+
196.0684	13	C14H9F+
197.0761	15	C14H10F+
201.051	31	C13H7F2+
201.1021	5	C12H13N2O+
202.0589	10	C13H8F2+
203.0666	81	C13H9F2+
214.0591	3	C14H8F2+
215.0667	2	C14H9F2+
217.0826	3	C14H11F2+
228.0745	1	C15H10F2+
