Mass spectrum: 5-Phenyl-1H-tetrazole; LC-ESI-QFT; MS2; CE: 30; R=17500; [M-H]-
Name: 5-Phenyl-1H-tetrazole
Name: 5-phenyl-2H-tetrazole
Formula: C7H6N4
Exact mass: 146.0592
SMILES: N1N=NN=C1C1=CC=CC=C1
InChI: InChI=1S/C7H6N4/c1-2-4-6(5-3-1)7-8-10-11-9-7/h1-5H,(H,8,9,10,11)
Instrument: Q Exactive Orbitrap (Thermo Scientific)
Instrument type: LC-ESI-QFT
Ms type: MS2
Ion mode: NEGATIVE
Ionization: ESI
Fragmentation mode: HCD
Collision energy: 30
Resolution: 17500
Column name: Acquity BEH C18 1.7um, 2.1x150mm (Waters)
Retention time: 13.231 min
Base peak: 112.9856
Precursor m/z: 145.052
Precursor type: [M-H]-
Precursor intensity: 1962765.925049
m/z	relative intensity	assigned
89.0397	370	C7H5-
117.0458	999	C7H5N2-
145.052	92	C7H5N4-
