Mass spectrum: MK-274; LC-ESI-QFT; MS2; CE: 75; R=17500; [M-H]-
Name: MK-274
Name: 3-[5'-Fluoro-2'-(2,2,3,3,3-pentafluoropropoxy)biphenyl-3-yl]-1H-1,2,4-triazole-5-carboxamide
Name: 3-[3-[5-fluoro-2-(2,2,3,3,3-pentafluoropropoxy)phenyl]phenyl]-1H-1,2,4-triazole-5-carboxamide
Formula: C18H12F6N4O2
Exact mass: 430.0864
SMILES: NC(=O)C1=NC(=NN1)C1=CC=CC(=C1)C1=CC(F)=CC=C1OCC(F)(F)C(F)(F)F
InChI: InChI=1S/C18H12F6N4O2/c19-11-4-5-13(30-8-17(20,21)18(22,23)24)12(7-11)9-2-1-3-10(6-9)15-26-16(14(25)29)28-27-15/h1-7H,8H2,(H2,25,29)(H,26,27,28)
Instrument: Q Exactive Orbitrap (Thermo Scientific)
Instrument type: LC-ESI-QFT
Ms type: MS2
Ion mode: NEGATIVE
Ionization: ESI
Fragmentation mode: HCD
Collision energy: 75
Resolution: 17500
Column name: Acquity BEH C18 1.7um, 2.1x150mm (Waters)
Retention time: 17.743 min
Base peak: 317.1618
Precursor m/z: 429.0792
Precursor type: [M-H]-
Precursor intensity: 8477178.349609
m/z	relative intensity	assigned
66.01	5	C2N3-
68.9958	126	CF3-
80.9958	25	C2F3-
83.0052	2	C3FN2-
92.0257	11	CH4F4-
92.9958	61	C3F3-
108.9907	282	C3F3O-
128.9972	9	C3HF4O-
183.0241	9	C15H3-
203.0303	131	C15H4F-
208.0568	12	C14H7FN-
210.0349	61	C16H4N-
211.0192	6	C16H3O-
224.0517	17	C14H7FNO-
226.0675	6	C14H9FNO-
229.0331	8	C11H3F2N4-
230.0412	194	C16H5FN-
231.0252	536	C16H4FO-
231.0364	56	C15H4FN2-
236.0515	3	C10H6F2N4O-
236.0632	12	C11H9F5-
238.0413	35	C13H6F4-
248.0516	8	C8H8F6NO-
250.0477	40	C16H6F2N-
251.0314	999	C16H5F2O-
252.0579	147	C11H9F5O-
254.0732	8	C6H10F6N3O-
266.0364	5	C14H6F4O-
269.0423	7	C16H7F2O2-
276.0574	3	C8H8F6N3O-
278.0401	21	C15H4F2N4-
279.0373	7	C16H5F2N2O-
295.0212	30	C12H5F6O2-
306.048	21	C17H6F2N3O-
326.0547	16	C17H7F3N3O-
