Mass spectrum: Scopolamine; LC-ESI-QFT; MS2; CE: 15; R=17500; [M+H]+
Name: Scopolamine
Formula: C17H21NO4
Exact mass: 303.1471
SMILES: CN1[C@H]2C[C@H](OC(=O)[C@H](CO)c3ccccc3)C[C@@H]1[C@H]1O[C@@H]21
InChI: InChI=1S/C17H21NO4/c1-18-13-7-11(8-14(18)16-15(13)22-16)21-17(20)12(9-19)10-5-3-2-4-6-10/h2-6,11-16,19H,7-9H2,1H3/t11-,12-,13-,14+,15-,16+/m1/s1
Instrument: Q Exactive Orbitrap (Thermo Scientific)
Instrument type: LC-ESI-QFT
Ms type: MS2
Ion mode: POSITIVE
Ionization: ESI
Fragmentation mode: HCD
Collision energy: 15
Resolution: 17500
Column name: Acquity BEH C18 1.7um, 2.1x150mm (Waters)
Retention time: 9.993 min
Base peak: 79.0212
Precursor m/z: 304.1543
Precursor type: [M+H]+
Precursor intensity: 19913139
m/z	relative intensity	assigned
98.06	2	C5H8NO+
110.0965	6	C7H12N+
121.0648	23	C8H9O+
138.0914	218	C8H12NO+
156.102	200	C8H14NO2+
286.1445	2	C17H20NO3+
304.1544	999	C17H22NO4+
