Mass spectrum: Carbetamide; LC-ESI-QFT; MS2; CE: 60; R=17500; [M+H]+
Name: Carbetamide
Name: [1-(ethylamino)-1-oxopropan-2-yl] N-phenylcarbamate
Formula: C12H16N2O3
Exact mass: 236.1161
SMILES: CCNC(=O)C(C)OC(=O)NC1=CC=CC=C1
InChI: InChI=1S/C12H16N2O3/c1-3-13-11(15)9(2)17-12(16)14-10-7-5-4-6-8-10/h4-9H,3H2,1-2H3,(H,13,15)(H,14,16)
Instrument: Q Exactive Orbitrap (Thermo Scientific)
Instrument type: LC-ESI-QFT
Ms type: MS2
Ion mode: POSITIVE
Ionization: ESI
Fragmentation mode: HCD
Collision energy: 60
Resolution: 17500
Column name: Acquity BEH C18 1.7um, 2.1x150mm (Waters)
Retention time: 14.852 min
Base peak: 79.0211
Precursor m/z: 237.1234
Precursor type: [M+H]+
Precursor intensity: 2680601.75
m/z	relative intensity	assigned
72.0444	39	C3H6NO+
72.0808	205	C4H10N+
81.0699	17	C6H9+
82.0652	25	C5H8N+
84.0809	89	C5H10N+
92.0495	26	C6H6N+
96.0807	22	C6H10N+
100.0757	32	C5H10NO+
109.076	35	C6H9N2+
118.086	22	C5H12NO2+
120.0444	136	C7H6NO+
122.0713	112	C8H10O+
126.1278	142	C8H16N+
136.087	218	C9H12O+
137.0949	53	C9H13O+
138.0667	19	C8H10O2+
150.1027	999	C10H14O+
151.0979	44	C9H13NO+
151.1105	307	C10H15O+
151.1224	39	C9H15N2+
152.1183	22	C10H16O+
165.1138	179	C10H15NO+
165.1261	296	C11H17O+
166.0976	206	C10H14O2+
166.1214	39	C10H16NO+
179.1292	892	C11H17NO+
