Mass spectrum: Flufenpyr-ethyl; LC-ESI-QFT; MS2; CE: 45; R=17500; [M-H]-
Name: Flufenpyr-ethyl
Formula: C16H13ClF4N2O4
Exact mass: 408.0500
SMILES: CCOC(=O)COC1=CC(N2N=CC(=C(C)C2=O)C(F)(F)F)=C(F)C=C1Cl
InChI: InChI=1S/C16H13ClF4N2O4/c1-3-26-14(24)7-27-13-5-12(11(18)4-10(13)17)23-15(25)8(2)9(6-22-23)16(19,20)21/h4-6H,3,7H2,1-2H3
Instrument: Q Exactive Orbitrap (Thermo Scientific)
Instrument type: LC-ESI-QFT
Ms type: MS2
Ion mode: NEGATIVE
Ionization: ESI
Fragmentation mode: HCD
Collision energy: 45
Resolution: 17500
Column name: Acquity BEH C18 1.7um, 2.1x150mm (Waters)
Retention time: 18.108 min
Base peak: 112.9856
Precursor m/z: 407.0427
Precursor type: [M-H]-
Precursor intensity: 664038.796875
m/z	relative intensity	assigned
65.9986	183	C3NO-
89.0146	148	C5HN2-
89.9987	156	C5NO-
110.0048	214	C5HFNO-
122.9642	288	C6ClO-
137.0157	669	C6H2FN2O-
159.0177	142	C6H2F3N2-
166.978	84	C7H2ClNO2-
176.0202	373	C6H3F3N2O-
181.0212	79	C11H2FN2-
209.0158	211	C12H2FN2O-
209.976	241	C9H2ClFNO2-
216.9969	94	C14FNO-
229.0222	78	C12H3F2N2O-
231.9846	323	C11H2ClFN2O-
237.0106	447	C13H2FN2O2-
244.9923	466	C12H3ClFN2O-
249.028	274	C12H4F3N2O-
256.9918	67	C16FNO2-
272.9875	999	C13H3ClFN2O2-
277.0233	141	C13H4F3N2O2-
300.9823	259	C14H3ClFN2O3-
320.9882	103	C14H4ClF2N2O3-
340.9943	152	C14H5ClF3N2O3-
