Mass spectrum: Raloxifene; LC-ESI-QFT; MS2; CE: 75; R=17500; [M-H]-
Name: Raloxifene
Name: [6-hydroxy-2-(4-hydroxyphenyl)-1-benzothiophen-3-yl]-[4-(2-piperidin-1-ylethoxy)phenyl]methanone
Formula: C28H27NO4S
Exact mass: 473.1661
SMILES: OC1=CC=C(C=C1)C1=C(C(=O)C2=CC=C(OCCN3CCCCC3)C=C2)C2=CC=C(O)C=C2S1
InChI: InChI=1S/C28H27NO4S/c30-21-8-4-20(5-9-21)28-26(24-13-10-22(31)18-25(24)34-28)27(32)19-6-11-23(12-7-19)33-17-16-29-14-2-1-3-15-29/h4-13,18,30-31H,1-3,14-17H2
Instrument: Q Exactive Orbitrap (Thermo Scientific)
Instrument type: LC-ESI-QFT
Ms type: MS2
Ion mode: NEGATIVE
Ionization: ESI
Fragmentation mode: HCD
Collision energy: 75
Resolution: 17500
Column name: Acquity BEH C18 1.7um, 2.1x150mm (Waters)
Retention time: 14.256 min
Base peak: 472.1585
Precursor m/z: 472.1588
Precursor type: [M-H]-
Precursor intensity: 9806284.412598
m/z	relative intensity	assigned
56.9803	21	C2HS-
91.0191	4	C6H3O-
93.0346	137	C6H5O-
117.0348	4	C8H5O-
123.9987	4	C6H4OS-
147.9988	18	C8H4OS-
149.0066	3	C8H5OS-
167.0503	5	C12H7O-
179.0501	5	C13H7O-
180.058	47	C13H8O-
181.0659	62	C13H9O-
183.0273	177	C12H7S-
184.0312	10	C15H4-
195.0453	11	C13H7O2-
199.0222	15	C12H7OS-
201.0377	7	C12H9OS-
207.0456	6	C14H7O2-
208.0528	20	C14H8O2-
209.0606	6	C14H9O2-
210.0146	46	C13H6OS-
211.0223	543	C13H7OS-
212.0301	922	C13H8OS-
213.0378	9	C13H9OS-
214.0095	5	C12H6O2S-
215.0168	5	C12H7O2S-
223.0215	4	C14H7OS-
225.0381	9	C14H9OS-
227.0176	5	C13H7O2S-
229.0328	9	C13H9O2S-
238.0094	126	C14H6O2S-
239.0172	999	C14H7O2S-
240.025	524	C14H8O2S-
241.0329	190	C14H9O2S-
243.0818	2	C18H11O-
253.0327	9	C15H9O2S-
261.0368	2	C17H9OS-
265.0335	4	C16H9O2S-
266.0042	78	C15H6O3S-
266.0402	6	C16H10O2S-
267.0121	74	C15H7O3S-
269.06	5	C19H9O2-
270.0689	11	C19H10O2-
271.0763	14	C19H11O2-
275.0538	8	C18H11OS-
286.0455	15	C19H10OS-
287.0539	28	C19H11OS-
288.0251	8	C18H8O2S-
289.0324	12	C18H9O2S-
290.0413	3	C18H10O2S-
297.0552	6	C20H9O3-
298.0635	15	C20H10O3-
299.0709	9	C20H11O3-
301.033	4	C19H9O2S-
302.0405	37	C19H10O2S-
303.0487	75	C19H11O2S-
304.0205	6	C18H8O3S-
304.0556	7	C19H12O2S-
305.028	2	C18H9O3S-
313.0328	5	C20H9O2S-
314.0408	19	C20H10O2S-
315.0485	45	C20H11O2S-
316.0562	7	C20H12O2S-
317.0269	10	C25H3N-
327.0665	3	C21H11O4-
330.0356	54	C20H10O3S-
331.0435	95	C20H11O3S-
332.0513	30	C20H12O3S-
341.027	4	C27H3N-
342.0356	18	C21H10O3S-
343.0432	54	C21H11O3S-
358.03	8	C27H4NO-
359.0384	31	C21H11O4S-
