Mass spectrum: Nuarimol; LC-ESI-QFT; MS2; CE: 75; R=17500; [M+H]+
Name: Nuarimol
Name: (2-chlorophenyl)-(4-fluorophenyl)-pyrimidin-5-ylmethanol
Formula: C17H12ClFN2O
Exact mass: 314.0622
SMILES: OC(C1=CC=C(F)C=C1)(C1=CN=CN=C1)C1=CC=CC=C1Cl
InChI: InChI=1S/C17H12ClFN2O/c18-16-4-2-1-3-15(16)17(22,13-9-20-11-21-10-13)12-5-7-14(19)8-6-12/h1-11,22H
Instrument: Q Exactive Orbitrap (Thermo Scientific)
Instrument type: LC-ESI-QFT
Ms type: MS2
Ion mode: POSITIVE
Ionization: ESI
Fragmentation mode: HCD
Collision energy: 75
Resolution: 17500
Column name: Acquity BEH C18 1.7um, 2.1x150mm (Waters)
Retention time: 17.248 min
Base peak: 79.0212
Precursor m/z: 315.0695
Precursor type: [M+H]+
Precursor intensity: 3624928.1875
m/z	relative intensity	assigned
50.015	1	C4H2+
51.023	2	C4H3+
52.0182	6	C3H2N+
54.0339	312	C3H4N+
71.0292	5	C4H4F+
75.0229	10	C6H3+
79.0177	1	C5H3O+
81.0448	999	C4H5N2+
86.9998	8	C4H4Cl+
93.0336	4	C6H5O+
94.0414	6	C6H6O+
95.0291	3	C6H4F+
95.0491	3	C6H7O+
97.0446	2	C6H6F+
104.0496	6	C7H6N+
105.0446	1	C6H5N2+
109.0451	2	C7H6F+
110.9994	5	C6H4Cl+
111.044	15	C3H10ClNO+
113.0153	1	C6H6Cl+
113.0398	30	C6H6FO+
121.0401	2	C6H5N2O+
121.0449	3	C8H6F+
122.0401	4	C7H5FN+
123.0241	343	C7H4FO+
123.0351	68	C6H4FN2+
124.0557	4	C7H7FN+
125.0152	2	C7H6Cl+
128.0495	20	C9H6N+
129.0101	24	C6H6ClO+
129.0447	4	C8H5N2+
129.0572	7	C9H7N+
130.0653	9	C9H8N+
133.0449	8	C9H6F+
137.0154	5	C8H6Cl+
138.9946	571	C7H4ClO+
140.0263	6	C7H7ClN+
146.0402	9	C9H5FN+
146.0602	11	C9H8NO+
148.0558	17	C9H7FN+
149.0155	5	C9H6Cl+
155.0604	7	C10H7N2+
156.0443	2	C10H6NO+
156.0682	12	C10H8N2+
157.0762	10	C10H9N2+
158.0401	4	C10H5FN+
158.0601	7	C10H8NO+
164.0261	5	C9H7ClN+
164.0508	7	C9H7FNO+
169.065	5	C12H9O+
170.0525	2	C12H7F+
171.0605	2	C12H8F+
175.0665	4	C10H8FN2+
176.0508	5	C10H7FNO+
176.0623	18	C14H8+
177.0698	30	C14H9+
183.061	44	C13H8F+
184.0687	17	C13H9F+
189.0702	6	C15H9+
194.0528	3	C14H7F+
195.0608	5	C14H8F+
196.0685	74	C14H9F+
197.0763	21	C14H10F+
203.0616	10	C11H8FN2O+
203.073	6	C15H9N+
204.0809	22	C15H10N+
205.0651	11	C12H12ClN+
207.0606	526	C15H8F+
208.0683	133	C15H9F+
209.0643	3	C14H8FN+
209.0764	7	C15H10F+
212.0628	2	C14H9FO+
214.0654	6	C16H8N+
216.0803	3	C16H10N+
217.0216	73	C13H7ClF+
220.0764	2	C12H13ClN2+
221.0635	5	C15H8FN+
222.0714	124	C15H9FN+
223.0308	11	C15H8Cl+
223.0794	16	C15H10FN+
224.087	71	C15H11FN+
225.0711	74	C15H10FO+
232.076	19	C13H13ClN2+
233.0642	4	C16H8FN+
234.0716	58	C16H9FN+
235.0322	5	C13H9ClFO+
235.0569	8	C13H11ClFN+
235.0792	50	C16H10FN+
236.0634	82	C16H9FO+
242.0843	3	C17H10N2+
243.0373	66	C15H9ClF+
249.0826	3	C16H10FN2+
250.0664	31	C16H9FNO+
251.0971	3	C16H12FN2+
252.0819	45	C16H11FNO+
260.0748	3	C17H9FN2+
261.0821	20	C17H10FN2+
262.0899	9	C17H11FN2+
263.0975	5	C17H12FN2+
