Mass spectrum: Thidiazuron; LC-ESI-QFT; MS2; CE: 60; R=17500; [M+H]+
Name: Thidiazuron
Name: 1-phenyl-3-(thiadiazol-5-yl)urea
Formula: C9H8N4OS
Exact mass: 220.0419
SMILES: O=C(NC1=CN=NS1)NC1=CC=CC=C1
InChI: InChI=1S/C9H8N4OS/c14-9(12-8-6-10-13-15-8)11-7-4-2-1-3-5-7/h1-6H,(H2,11,12,14)
Instrument: Q Exactive Orbitrap (Thermo Scientific)
Instrument type: LC-ESI-QFT
Ms type: MS2
Ion mode: POSITIVE
Ionization: ESI
Fragmentation mode: HCD
Collision energy: 60
Resolution: 17500
Column name: Acquity BEH C18 1.7um, 2.1x150mm (Waters)
Retention time: 15.561 min
Base peak: 79.0211
Precursor m/z: 221.0492
Precursor type: [M+H]+
Precursor intensity: 4588650.5
m/z	relative intensity	assigned
53.0386	4	C4H5+
59.9902	5	CH2NS+
61.0106	1	C2H5S+
65.0387	1	C5H5+
71.9902	18	C2H2NS+
72.998	2	C2H3NS+
74.0058	8	C2H4NS+
77.0386	1	C6H5+
91.0543	5	C7H7+
92.0495	26	C6H6N+
94.0652	59	C6H8N+
95.0492	11	C6H7O+
102.0121	999	C2H4N3S+
105.0448	5	C6H5N2+
120.0444	24	C7H6NO+
127.9913	123	C3H2N3OS+
130.9819	7	C7HNS+
144.9975	2	C8H3NS+
159.0132	2	C9H5NS+
161.0027	1	C7H3N3S+
221.0503	1	C9H9N4OS+
