Mass spectrum: Carbutamide; LC-ESI-QFT; MS2; CE: 75; R=17500; [M+H]+
Name: Carbutamide
Name: 1-(4-aminophenyl)sulfonyl-3-butylurea
Formula: C11H17N3O3S
Exact mass: 271.0991
SMILES: CCCCNC(=O)NS(=O)(=O)C1=CC=C(N)C=C1
InChI: InChI=1S/C11H17N3O3S/c1-2-3-8-13-11(15)14-18(16,17)10-6-4-9(12)5-7-10/h4-7H,2-3,8,12H2,1H3,(H2,13,14,15)
Instrument: Q Exactive Orbitrap (Thermo Scientific)
Instrument type: LC-ESI-QFT
Ms type: MS2
Ion mode: POSITIVE
Ionization: ESI
Fragmentation mode: HCD
Collision energy: 75
Resolution: 17500
Column name: Acquity BEH C18 1.7um, 2.1x150mm (Waters)
Retention time: 13.516 min
Base peak: 79.0211
Precursor m/z: 272.1063
Precursor type: [M+H]+
Precursor intensity: 7155449.75
m/z	relative intensity	assigned
53.0022	10	C3HO+
53.0387	11	C4H5+
54.0339	5	C3H4N+
55.0179	7	C3H3O+
57.0699	206	C4H9+
58.0651	6	C3H8N+
65.0386	775	C5H5+
68.0495	118	C4H6N+
69.0335	10	C4H5O+
72.0808	5	C4H10N+
74.0964	131	C4H12N+
78.0338	13	C5H4N+
79.0178	14	C5H3O+
80.0495	146	C5H6N+
82.0288	4	C4H4NO+
92.0495	999	C6H6N+
93.0574	28	C6H7N+
95.0365	3	C5H5NO+
96.0444	20	C5H6NO+
107.0604	33	C6H7N2+
108.0444	952	C6H6NO+
109.0522	9	C6H7NO+
110.0601	303	C6H8NO+
120.0558	16	C6H6N3+
124.076	7	C7H10NO+
128.0623	6	C10H8+
156.0115	26	C6H6NO2S+
