Mass spectrum: Aplaviroc; LC-ESI-QFT; MS2; CE: 60; R=17500; [M-H]-
Name: Aplaviroc
Name: 4-[4-[[(3R)-1-butyl-3-[(R)-cyclohexyl(hydroxy)methyl]-2,5-dioxo-1,4,9-triazaspiro[5.5]undecan-9-yl]methyl]phenoxy]benzoic acid
Formula: C33H43N3O6
Exact mass: 577.3152
SMILES: CCCCN1C(=O)[C@@H]([C@H](O)C2CCCCC2)NC(=O)C12CCN(Cc1ccc(Oc3ccc(C(=O)O)cc3)cc1)CC2
InChI: InChI=1S/C33H43N3O6/c1-2-3-19-36-30(38)28(29(37)24-7-5-4-6-8-24)34-32(41)33(36)17-20-35(21-18-33)22-23-9-13-26(14-10-23)42-27-15-11-25(12-16-27)31(39)40/h9-16,24,28-29,37H,2-8,17-22H2,1H3,(H,34,41)(H,39,40)/t28-,29-/m1/s1
Instrument: Q Exactive Orbitrap (Thermo Scientific)
Instrument type: LC-ESI-QFT
Ms type: MS2
Ion mode: NEGATIVE
Ionization: ESI
Fragmentation mode: HCD
Collision energy: 60
Resolution: 17500
Column name: Acquity BEH C18 1.7um, 2.1x150mm (Waters)
Retention time: 15.958 min
Base peak: 229.0506
Precursor m/z: 576.3079
Precursor type: [M-H]-
Precursor intensity: 3525184.748535
m/z	relative intensity	assigned
67.0191	48	C4H3O-
73.0408	129	C2H5N2O-
80.0505	116	C5H6N-
84.0091	270	C3H2NO2-
92.0507	132	C6H6N-
93.0346	442	C6H5O-
95.0502	82	C6H7O-
97.0044	482	C3HN2O2-
98.0975	93	C6H12N-
100.0769	79	C5H10NO-
106.0423	274	C7H6O-
108.0216	176	C6H4O2-
108.0454	291	C6H6NO-
110.0611	102	C6H8NO-
118.0299	144	C7H4NO-
120.0458	63	C7H6NO-
122.0612	47	C7H8NO-
123.0451	190	C7H7O2-
127.0877	508	C6H11N2O-
129.1033	999	C6H13N2O-
132.0455	83	C8H6NO-
133.0534	170	C8H7NO-
136.0403	734	C7H6NO2-
138.0323	59	C7H6O3-
148.0402	69	C8H6NO2-
154.0749	565	C7H10N2O2-
155.0826	821	C7H11N2O2-
165.0437	84	C8H7NO3-
169.066	93	C12H9O-
172.0769	90	C11H10NO-
182.0738	158	C13H10O-
183.0816	440	C13H11O-
208.0762	52	C14H10NO-
209.1292	100	C11H17N2O2-
210.0926	69	C14H12NO-
238.1563	175	C12H20N3O2-
