Mass spectrum: Apomorphine; LC-ESI-QFT; MS2; CE: 90; R=17500; [M+H]+
Name: Apomorphine
Name: (6aR)-6-methyl-5,6,6a,7-tetrahydro-4H-dibenzo[de,g]quinoline-10,11-diol
Formula: C17H17NO2
Exact mass: 267.1259
SMILES: CN1CCc2cccc3c2[C@H]1Cc1ccc(O)c(O)c1-3
InChI: InChI=1S/C17H17NO2/c1-18-8-7-10-3-2-4-12-15(10)13(18)9-11-5-6-14(19)17(20)16(11)12/h2-6,13,19-20H,7-9H2,1H3/t13-/m1/s1
Instrument: Q Exactive Orbitrap (Thermo Scientific)
Instrument type: LC-ESI-QFT
Ms type: MS2
Ion mode: POSITIVE
Ionization: ESI
Fragmentation mode: HCD
Collision energy: 90
Resolution: 17500
Column name: Acquity BEH C18 1.7um, 2.1x150mm (Waters)
Retention time: 11.129 min
Base peak: 79.0211
Precursor m/z: 268.1332
Precursor type: [M+H]+
Precursor intensity: 14783964.125
m/z	relative intensity	assigned
55.0179	1	C3H3O+
58.0651	1	C3H8N+
139.0545	1	C11H7+
141.0697	4	C11H9+
152.062	35	C12H8+
153.0699	3	C12H9+
163.0536	3	C13H7+
165.0699	120	C13H9+
166.0778	3	C13H10+
167.0856	2	C13H11+
176.0619	21	C14H8+
177.0698	7	C14H9+
178.0777	16	C14H10+
179.0855	11	C14H11+
181.0649	1	C13H9O+
187.0544	1	C15H7+
189.07	834	C15H9+
190.0777	991	C15H10+
191.0853	999	C15H11+
194.0729	1	C14H10O+
195.0805	2	C14H11O+
200.062	42	C16H8+
201.0697	34	C16H9+
202.0776	15	C16H10+
204.0573	1	C15H8O+
205.0647	29	C15H9O+
207.0806	1	C15H11O+
218.0725	32	C16H10O+
219.0803	69	C16H11O+
221.0593	1	C15H9O2+
