Mass spectrum: SB281832; LC-ESI-QFT; MS2; CE: 30; R=17500; [M+H]+
Name: SB281832
Name: 2-[4-(4-fluorophenyl)-5-(2-phenoxypyrimidin-4-yl)imidazol-1-yl]propane-1,3-diol
Formula: C22H19FN4O3
Exact mass: 406.1441
SMILES: OCC(CO)N1C=NC(=C1C1=CC=NC(OC2=CC=CC=C2)=N1)C1=CC=C(F)C=C1
InChI: InChI=1S/C22H19FN4O3/c23-16-8-6-15(7-9-16)20-21(27(14-25-20)17(12-28)13-29)19-10-11-24-22(26-19)30-18-4-2-1-3-5-18/h1-11,14,17,28-29H,12-13H2
Instrument: Q Exactive Orbitrap (Thermo Scientific)
Instrument type: LC-ESI-QFT
Ms type: MS2
Ion mode: POSITIVE
Ionization: ESI
Fragmentation mode: HCD
Collision energy: 30
Resolution: 17500
Column name: Acquity BEH C18 1.7um, 2.1x150mm (Waters)
Retention time: 15.246 min
Base peak: 79.0212
Precursor m/z: 407.1514
Precursor type: [M+H]+
Precursor intensity: 22226489.625
m/z	relative intensity	assigned
187.0667	2	C11H8FN2+
230.0725	8	C12H9FN3O+
240.0568	1	C13H7FN3O+
290.1087	14	C18H13FN3+
333.1146	999	C19H14FN4O+
389.1406	1	C22H18FN4O2+
407.1516	342	C22H20FN4O3+
