Mass spectrum: Methylprednisolone; LC-ESI-QFT; MS2; CE: 15; R=17500; [M+H]+
Name: Methylprednisolone
Formula: C22H30O5
Exact mass: 374.2093
SMILES: C[C@H]1C[C@H]2[C@@H]3CC[C@](O)(C(=O)CO)[C@@]3(C)C[C@H](O)[C@@H]2[C@@]2(C)C=CC(=O)C=C12
InChI: InChI=1S/C22H30O5/c1-12-8-14-15-5-7-22(27,18(26)11-23)21(15,3)10-17(25)19(14)20(2)6-4-13(24)9-16(12)20/h4,6,9,12,14-15,17,19,23,25,27H,5,7-8,10-11H2,1-3H3/t12-,14-,15-,17-,19+,20-,21-,22-/m0/s1
Instrument: Q Exactive Orbitrap (Thermo Scientific)
Instrument type: LC-ESI-QFT
Ms type: MS2
Ion mode: POSITIVE
Ionization: ESI
Fragmentation mode: HCD
Collision energy: 15
Resolution: 17500
Column name: Acquity BEH C18 1.7um, 2.1x150mm (Waters)
Retention time: 16.827 min
Base peak: 79.0211
Precursor m/z: 375.2166
Precursor type: [M+H]+
Precursor intensity: 4518626.375
m/z	relative intensity	assigned
135.0806	125	C9H11O+
147.0805	26	C10H11O+
149.0962	29	C10H13O+
161.0961	203	C11H13O+
165.0915	24	C10H13O2+
185.0964	94	C13H13O+
187.112	64	C13H15O+
201.1276	16	C14H17O+
213.1272	16	C15H17O+
225.1271	26	C16H17O+
237.1273	25	C17H17O+
249.1283	20	C18H17O+
251.1433	63	C18H19O+
253.1587	127	C18H21O+
255.1745	30	C18H23O+
263.1444	23	C19H19O+
267.1376	27	C18H19O2+
277.1586	50	C20H21O+
279.1384	22	C19H19O2+
279.1747	135	C20H23O+
280.1824	14	C20H24O+
281.1903	49	C20H25O+
291.1731	26	C21H23O+
293.1899	99	C21H25O+
297.1488	23	C19H21O3+
297.1845	30	C20H25O2+
303.1744	127	C22H23O+
309.1851	40	C21H25O2+
321.1851	352	C22H25O2+
339.1956	595	C22H27O3+
357.2063	999	C22H29O4+
