Mass spectrum: Terbacil; LC-ESI-QFT; MS2; CE: 75; R=17500; [M-H]-
Name: Terbacil
Name: 3-tert-butyl-5-chloro-6-methyl-1H-pyrimidine-2,4-dione
Formula: C9H13ClN2O2
Exact mass: 216.0666
SMILES: CC1=C(Cl)C(=O)N(C(=O)N1)C(C)(C)C
InChI: InChI=1S/C9H13ClN2O2/c1-5-6(10)7(13)12(8(14)11-5)9(2,3)4/h1-4H3,(H,11,14)
Instrument: Q Exactive Orbitrap (Thermo Scientific)
Instrument type: LC-ESI-QFT
Ms type: MS2
Ion mode: NEGATIVE
Ionization: ESI
Fragmentation mode: HCD
Collision energy: 75
Resolution: 17500
Column name: Acquity BEH C18 1.7um, 2.1x150mm (Waters)
Retention time: 15.621 min
Base peak: 215.0593
Precursor m/z: 215.0593
Precursor type: [M-H]-
Precursor intensity: 35514895.42383
m/z	relative intensity	assigned
60.9725	8	CClN-
69.9935	7	C2NO2-
72.9725	75	C2ClN-
73.9803	51	C2HClN-
74.9643	202	C2ClO-
88.9673	7	C2ClNO-
115.9909	86	C4H3ClNO-
130.0429	10	C6H9ClN-
143.0504	3	C7H10ClN-
158.9967	999	C5H4ClN2O2-
215.0596	3	C9H12ClN2O2-
