Mass spectrum: 4-(2,5-Diethoxy-4-nitrophenyl)morpholine; LC-ESI-QFT; MS2; CE: 30; R=17500; [M+H]+
Name: 4-(2,5-Diethoxy-4-nitrophenyl)morpholine
Formula: C14H20N2O5
Exact mass: 296.1372
SMILES: CCOC1=CC(=C(OCC)C=C1N1CCOCC1)[N+]([O-])=O
InChI: InChI=1S/C14H20N2O5/c1-3-20-13-10-12(16(17)18)14(21-4-2)9-11(13)15-5-7-19-8-6-15/h9-10H,3-8H2,1-2H3
Instrument: Q Exactive Orbitrap (Thermo Scientific)
Instrument type: LC-ESI-QFT
Ms type: MS2
Ion mode: POSITIVE
Ionization: ESI
Fragmentation mode: HCD
Collision energy: 30
Resolution: 17500
Column name: Acquity BEH C18 1.7um, 2.1x150mm (Waters)
Retention time: 17.266 min
Base peak: 79.0212
Precursor m/z: 297.1445
Precursor type: [M+H]+
Precursor intensity: 9363360.6875
m/z	relative intensity	assigned
73.0647	1	C4H9O+
94.0287	2	C5H4NO+
105.0445	1	C6H5N2+
134.0237	3	C7H4NO2+
134.0598	1	C8H8NO+
137.0708	1	C7H9N2O+
148.0394	2	C8H6NO2+
149.0468	2	C8H7NO2+
149.0707	1	C8H9N2O+
150.0548	3	C8H8NO2+
151.0502	1	C7H7N2O2+
151.0627	1	C8H9NO2+
154.0132	1	C6H4NO4+
162.0546	1	C9H8NO2+
162.0912	1	C10H12NO+
163.0499	1	C8H7N2O2+
163.0865	1	C9H11N2O+
164.0705	2	C9H10NO2+
165.0659	4	C8H9N2O2+
166.0496	1	C8H8NO3+
166.0861	1	C9H12NO2+
176.0706	8	C10H10NO2+
177.0294	2	C8H5N2O3+
177.0782	3	C10H11NO2+
178.0736	1	C9H10N2O2+
178.0863	5	C10H12NO2+
179.0456	2	C8H7N2O3+
179.0813	3	C9H11N2O2+
179.0941	11	C10H13NO2+
179.1176	1	C10H15N2O+
180.0529	1	C8H8N2O3+
180.089	1	C9H12N2O2+
181.0246	1	C7H5N2O4+
181.0967	2	C9H13N2O2+
182.0446	1	C8H8NO4+
190.086	2	C11H12NO2+
192.0652	1	C10H10NO3+
192.102	10	C11H14NO2+
193.0608	1	C9H9N2O3+
193.0973	16	C10H13N2O2+
193.1087	1	C11H15NO2+
194.0811	37	C10H12NO3+
195.0403	2	C8H7N2O4+
195.089	1	C10H13NO3+
196.0478	3	C8H8N2O4+
197.0557	8	C8H9N2O4+
205.0609	1	C10H9N2O3+
205.11	4	C12H15NO2+
206.0684	1	C10H10N2O3+
206.1176	1	C12H16NO2+
207.0762	4	C10H11N2O3+
207.1254	2	C12H17NO2+
208.0842	6	C10H12N2O3+
208.1207	42	C11H16N2O2+
209.0562	3	C9H9N2O4+
209.0922	39	C10H13N2O3+
209.1042	3	C11H15NO3+
209.1284	19	C11H17N2O2+
210.076	1	C10H12NO4+
220.1334	2	C13H18NO2+
221.0925	2	C11H13N2O3+
222.1123	21	C12H16NO3+
223.0712	7	C10H11N2O4+
223.1202	31	C12H17NO3+
224.0791	16	C10H12N2O4+
225.087	25	C10H13N2O4+
226.0945	2	C10H14N2O4+
234.0997	1	C12H14N2O3+
236.1281	38	C13H18NO3+
237.0868	6	C11H13N2O4+
237.1233	29	C12H17N2O3+
238.1074	7	C12H16NO4+
238.1309	7	C12H18N2O3+
239.0662	3	C10H11N2O5+
239.1025	1	C11H15N2O4+
239.1154	2	C12H17NO4+
240.0745	4	C10H12N2O5+
241.0822	4	C10H13N2O5+
250.1432	1	C14H20NO3+
251.1026	7	C12H15N2O4+
251.1514	3	C14H21NO3+
252.1103	16	C12H16N2O4+
252.1234	2	C13H18NO4+
253.0821	3	C11H13N2O5+
253.1182	30	C12H17N2O4+
254.1259	5	C12H18N2O4+
263.1399	2	C14H19N2O3+
267.0975	1	C12H15N2O5+
268.1053	48	C12H16N2O5+
269.1132	81	C12H17N2O5+
280.1417	40	C14H20N2O4+
297.1445	999	C14H21N2O5+
