Mass spectrum: Penoxsulam; LC-ESI-QFT; MS2; CE: 60; R=17500; [M+H]+
Name: Penoxsulam
Name: 2-(2,2-difluoroethoxy)-N-(5,8-dimethoxy-[1,2,4]triazolo[1,5-c]pyrimidin-2-yl)-6-(trifluoromethyl)benzenesulfonamide
Formula: C16H14F5N5O5S
Exact mass: 483.0636
SMILES: COC1=CN=C(OC)N2N=C(NS(=O)(=O)C3=C(C=CC=C3OCC(F)F)C(F)(F)F)N=C12
InChI: InChI=1S/C16H14F5N5O5S/c1-29-10-6-22-15(30-2)26-13(10)23-14(24-26)25-32(27,28)12-8(16(19,20)21)4-3-5-9(12)31-7-11(17)18/h3-6,11H,7H2,1-2H3,(H,24,25)
Instrument: Q Exactive Orbitrap (Thermo Scientific)
Instrument type: LC-ESI-QFT
Ms type: MS2
Ion mode: POSITIVE
Ionization: ESI
Fragmentation mode: HCD
Collision energy: 60
Resolution: 17500
Column name: Acquity BEH C18 1.7um, 2.1x150mm (Waters)
Retention time: 15.597 min
Base peak: 79.0211
Precursor m/z: 484.0709
Precursor type: [M+H]+
Precursor intensity: 10094267.375
m/z	relative intensity	assigned
52.0181	13	C3H2N+
53.0137	2	C2HN2+
53.026	3	C3H3N+
53.9975	9	C2NO+
54.0338	25	C3H4N+
55.0179	3	C3H3O+
55.0292	8	C2H3N2+
55.0417	3	C3H5N+
56.0131	3	C2H2NO+
56.037	2	C2H4N2+
56.0495	33	C3H6N+
57.0209	17	C2H3NO+
57.0447	12	C2H5N2+
58.0288	11	C2H4NO+
58.04	8	CH4N3+
60.0444	2	C2H6NO+
64.0181	1	C4H2N+
65.0135	5	C3HN2+
65.0197	14	C2H3F2+
66.0212	4	C3H2N2+
66.0338	9	C4H4N+
67.029	20	C3H3N2+
67.0417	4	C4H5N+
68.0131	7	C3H2NO+
68.0243	4	C2H2N3+
68.0368	20	C3H4N2+
68.0494	19	C4H6N+
69.0084	5	C2HN2O+
69.0447	61	C3H5N2+
70.0287	114	C3H4NO+
71.0478	5	C2H5N3+
72.0443	2	C3H6NO+
74.0963	2	C4H12N+
79.029	47	C4H3N2+
80.0131	4	C4H2NO+
80.0369	25	C4H4N2+
81.0447	144	C4H5N2+
82.0287	15	C4H4NO+
82.04	6	C3H4N3+
82.0526	4	C4H6N2+
83.0001	18	C3HNO2+
83.0239	18	C3H3N2O+
83.0603	64	C4H7N2+
84.0192	31	C2H2N3O+
84.0318	10	C3H4N2O+
84.0445	12	C4H6NO+
85.0397	6	C3H5N2O+
85.0509	7	C2H5N4+
86.0237	7	C3H4NO2+
88.0392	11	C3H6NO2+
92.0249	2	CH4F4+
92.0369	31	C5H4N2+
93.0083	2	C4HN2O+
93.032	3	C4H3N3+
93.0447	25	C5H5N2+
94.0287	14	C5H4NO+
94.04	44	C4H4N3+
94.0527	4	C5H6N2+
95.0239	27	C4H3N2O+
95.0477	18	C4H5N3+
95.0604	121	C5H7N2+
96.0318	12	C4H4N2O+
96.0444	6	C5H6NO+
96.0556	57	C4H6N3+
97.0397	179	C4H5N2O+
97.0508	13	C3H5N4+
98.0238	3	C4H4NO2+
98.0352	2	F4H6O+
98.0474	5	C4H6N2O+
98.0587	2	C3H6N4+
99.0553	3	C4H7N2O+
101.0198	8	C5H3F2+
102.0274	2	F3H3N3+
105.0336	13	C7H5O+
105.045	2	C6H5N2+
106.04	319	C5H4N3+
107.013	12	C6H3O2+
107.024	94	C5H3N2O+
108.043	430	C4H4N4+
108.0554	24	C5H6N3+
109.0396	134	C5H5N2O+
109.0509	60	C4H5N4+
110.0238	8	C5H4NO2+
110.0349	35	C4H4N3O+
110.0475	19	C5H6N2O+
110.0586	17	C4H6N4+
111.0189	16	C4H3N2O2+
111.0553	206	C5H7N2O+
111.0665	19	C4H7N4+
112.0268	23	C4H4N2O2+
112.0505	16	C4H6N3O+
113.0345	4	C4H5N2O2+
115.0614	59	C3H7N4O+
118.0286	4	C2H3FN4O+
119.0354	4	C2H5F4N+
120.0556	7	C6H6N3+
121.0033	6	C5HN2O2+
121.0398	4	C6H5N2O+
121.0508	23	C5H5N4+
122.0348	36	C5H4N3O+
122.9899	23	F3H2O4+
123.0426	35	C5H5N3O+
123.0545	6	CH7F4N2+
124.0268	478	C5H4N2O2+
124.0506	353	C2H8F4O+
124.0616	79	FH11NO5+
125.0346	118	C5H5N2O2+
125.0458	44	C4H5N4O+
125.0583	43	C5H7N3O+
126.0662	10	C5H8N3O+
127.0357	10	C7H5F2+
127.0501	12	C5H7N2O2+
127.0615	4	CH9F4NO+
128.045	3	C4H6N3O2+
129.0294	8	C4H5N2O3+
129.0406	37	C3H5N4O2+
129.0769	3	C4H9N4O+
130.0226	5	C6H4F2O+
132.0181	11	C6H3F3+
133.0261	8	C6H4F3+
134.0349	4	C6H4N3O+
134.0459	14	CH9FNO5+
135.0441	26	C8H7O2+
135.0537	11	CH10FNO5+
135.0665	77	C6H7N4+
136.0618	757	C2H8F4N2+
137.0347	6	C6H5N2O2+
137.0457	38	C5H5N4O+
137.0585	2	C3H9F4O+
138.0299	8	C2H6F4O2+
138.0663	7	C3H10F4O+
139.0378	26	C2H7F4O2+
139.0502	423	C6H7N2O2+
140.0217	17	C5H4N2O3+
140.0453	49	C5H6N3O2+
141.0147	9	C7H3F2O+
142.0375	14	C5H6N2O3+
143.0563	43	C4H7N4O2+
145.0259	10	C7H4F3+
146.0461	12	C6H4N5+
148.0509	10	CH12N2O4S+
148.0617	37	C6H6N5+
149.0211	6	C6H4F3O+
149.0348	23	C7H5N2O2+
150.0409	34	C5H4N5O+
150.0468	2	CH11FN2O3S+
150.0536	2	C6H6N4O+
150.0777	5	C3H10F4N2+
151.0166	35	C6H3F4+
151.0489	58	C2H7F4N2O+
151.0611	22	F3H14O3S+
152.0455	594	C3H8F4O2+
152.0561	165	C5H6N5O+
153.0532	54	C6H7N3O2+
153.0772	6	C3H11F4NO+
153.9943	6	C4H2N4OS+
154.061	59	C6H8N3O2+
155.0325	31	C8H8FS+
155.0451	4	C6H7N2O3+
155.0559	4	C5H7N4O2+
156.0557	9	C6H8F4+
157.0481	4	C3H9F2N3S+
158.0175	4	C7H4F2O2+
159.0076	7	CH4F5O3+
161.0348	5	C8H5N2O2+
164.0567	621	C6H6N5O+
165.0646	196	C3H9F4N2O+
166.0723	714	C6H8N5O+
170.0346	2	CH5F5N3O+
171.0253	9	C8H5F2O2+
172.0174	5	C5H6N3O2S+
176.0341	5	C9H6NO3+
176.0565	60	C7H6N5O+
177.0161	17	C7H4F3O2+
177.0323	19	C8H5F4+
177.0409	18	C4H7F4NO2+
177.0645	132	C7H7N5O+
178.0724	24	C7H8N5O+
179.0562	26	C7H7N4O2+
180.0516	430	C6H6N5O2+
181.0332	8	C4H4F3N4O+
185.0432	4	C3H9F4O4+
188.0495	2	C14H6N+
188.9832	3	C4H4F3O3S+
190.0409	3	C9H5FN3O+
192.0518	2	C6H9FN2O4+
194.0673	999	C4H10F4N2O2+
195.0751	746	C7H9N5O2+
198.036	4	C9H6F2NO2+
200.0695	8	C7H10F4NO+
201.0164	12	CH4F5N3O3+
205.0276	2	CH8FN5O4S+
205.0606	5	C2H10F5N2O3+
212.0237	13	C3H8F4N2O2S+
215.0566	11	C7H9F4NO2+
219.036	3	C8H10FNO3S+
227.0594	3	F5H12N4O2S+
228.0649	4	C5H14N3O5S+
231.0312	11	C10H4FN4O2+
240.0186	82	C7H6N5O3S+
241.0726	2	C6H15N3O5S+
243.0554	2	C16H7N2O+
243.088	11	C9H13F4NO2+
257.0467	6	C6H13F4O4S+
269.0309	4	C7H8F3N4O2S+
296.0412	4	C11H8F2N5OS+
298.0937	11	C11H14F4N2O3+
310.0562	2	C14H9F3N2O3+
311.065	6	C11H11F4N2O4+
326.0884	3	C15H12N5O4+
348.07	12	C12H14F2N4O4S+
