Mass spectrum: Carbutamide; LC-ESI-QFT; MS2; CE: 30; R=17500; [M+H]+
Name: Carbutamide
Name: 1-(4-aminophenyl)sulfonyl-3-butylurea
Formula: C11H17N3O3S
Exact mass: 271.0991
SMILES: CCCCNC(=O)NS(=O)(=O)C1=CC=C(N)C=C1
InChI: InChI=1S/C11H17N3O3S/c1-2-3-8-13-11(15)14-18(16,17)10-6-4-9(12)5-7-10/h4-7H,2-3,8,12H2,1H3,(H2,13,14,15)
Instrument: Q Exactive Orbitrap (Thermo Scientific)
Instrument type: LC-ESI-QFT
Ms type: MS2
Ion mode: POSITIVE
Ionization: ESI
Fragmentation mode: HCD
Collision energy: 30
Resolution: 17500
Column name: Acquity BEH C18 1.7um, 2.1x150mm (Waters)
Retention time: 13.516 min
Base peak: 79.0211
Precursor m/z: 272.1063
Precursor type: [M+H]+
Precursor intensity: 7244565.25
m/z	relative intensity	assigned
53.0387	1	C4H5+
57.0699	60	C4H9+
65.0386	3	C5H5+
68.0495	17	C4H6N+
72.0807	7	C4H10N+
74.0964	969	C4H12N+
78.034	2	C5H4N+
79.0179	3	C5H3O+
92.0495	36	C6H6N+
96.0444	2	C5H6NO+
107.0604	4	C6H7N2+
108.0444	128	C6H6NO+
110.0599	6	C6H8NO+
120.0558	3	C6H6N3+
155.0275	17	C6H7N2OS+
156.0114	999	C6H6NO2S+
171.0809	3	C4H15N2O3S+
173.0381	31	C6H9N2O2S+
272.1065	6	C11H18N3O3S+
