Mass spectrum: CP-114271; LC-ESI-QFT; MS2; CE: 60; R=17500; [M-H]-
Name: CP-114271
Name: 2-[4-[2-[[2-hydroxy-2-[2-(trifluoromethyl)-1,3-thiazol-4-yl]ethyl]amino]propyl]phenoxy]acetic acid
Formula: C17H19F3N2O4S
Exact mass: 404.1018
SMILES: CC(CC1=CC=C(OCC(O)=O)C=C1)NCC(O)C1=CSC(=N1)C(F)(F)F
InChI: InChI=1S/C17H19F3N2O4S/c1-10(6-11-2-4-12(5-3-11)26-8-15(24)25)21-7-14(23)13-9-27-16(22-13)17(18,19)20/h2-5,9-10,14,21,23H,6-8H2,1H3,(H,24,25)
Instrument: Q Exactive Orbitrap (Thermo Scientific)
Instrument type: LC-ESI-QFT
Ms type: MS2
Ion mode: NEGATIVE
Ionization: ESI
Fragmentation mode: HCD
Collision energy: 60
Resolution: 17500
Column name: Acquity BEH C18 1.7um, 2.1x150mm (Waters)
Retention time: 13.754 min
Base peak: 403.0945
Precursor m/z: 403.0945
Precursor type: [M-H]-
Precursor intensity: 11179677.50049
m/z	relative intensity	assigned
55.9726	1	C2S-
56.9804	999	C2HS-
57.9756	14	CNS-
58.0298	3	C2H4NO-
59.0138	2	C2H3O2-
66.0349	14	C4H4N-
68.0506	16	C4H6N-
68.9958	45	CF3-
81.9756	6	C3NS-
84.0455	66	C4H6NO-
84.9754	1	C3HOS-
86.0612	1	C4H8NO-
93.0345	4	C6H5O-
98.0071	4	C4H4NS-
106.0424	120	C7H6O-
107.0503	66	C7H7O-
108.0217	43	C6H4O2-
111.9862	3	C4H2NOS-
119.0502	48	C8H7O-
121.0296	3	C7H5O2-
121.066	4	C8H9O-
123.0451	9	C7H7O2-
126.9836	6	C3H2F3S-
127.9788	2	C2HF3NS-
132.058	3	C9H8O-
133.0659	179	C9H9O-
135.0453	6	C8H7O2-
135.0816	10	C9H11O-
138.0323	21	C7H6O3-
141.9771	1	C5HFNOS-
147.0689	4	C9H9NO-
147.0816	2	C10H11O-
149.061	2	C9H9O2-
151.9787	744	C4HF3NS-
162.0172	1	C6H3F3NO-
162.0924	7	C10H12NO-
163.0767	3	C10H11O2-
174.0923	9	C11H12NO-
181.9891	5	C5H3F3NOS-
192.1031	209	C11H14NO2-
193.0049	1	C6H4F3N2S-
