Mass spectrum: 2,2`,6,6`-Tetrachlorobisphenol A; LC-ESI-QFT; MS2; CE: 90; R=17500; [M-H]-
Name: 2,2',6,6'-Tetrachlorobisphenol A
Name: Tetrachlorobisphenol A
Name: 2,6-dichloro-4-[2-(3,5-dichloro-4-hydroxyphenyl)propan-2-yl]phenol
Formula: C15H12Cl4O2
Exact mass: 363.9591
SMILES: CC(C)(C1=CC(Cl)=C(O)C(Cl)=C1)C1=CC(Cl)=C(O)C(Cl)=C1
InChI: InChI=1S/C15H12Cl4O2/c1-15(2,7-3-9(16)13(20)10(17)4-7)8-5-11(18)14(21)12(19)6-8/h3-6,20-21H,1-2H3
Instrument: Q Exactive Orbitrap (Thermo Scientific)
Instrument type: LC-ESI-QFT
Ms type: MS2
Ion mode: NEGATIVE
Ionization: ESI
Fragmentation mode: HCD
Collision energy: 90
Resolution: 17500
Column name: Acquity BEH C18 1.7um, 2.1x150mm (Waters)
Retention time: 19.009 min
Base peak: 221.1183
Precursor m/z: 362.9519
Precursor type: [M-H]-
Precursor intensity: 6861200.996094
m/z	relative intensity	assigned
61.0084	4	C5H-
77.0033	8	C5HO-
89.0033	222	C6HO-
124.98	67	C6H2ClO-
148.032	25	C12H4-
160.9565	8	C6H3Cl2O-
176.0266	11	C13H4O-
184.9567	51	C8H3Cl2O-
200.988	24	C9H7Cl2O-
208.9566	5	C10H3Cl2O-
212.0033	8	C13H5ClO-
232.9566	999	C12H3Cl2O-
246.9722	12	C13H5Cl2O-
247.98	56	C13H6Cl2O-
268.9337	20	C12H4Cl3O-
282.9493	12	C13H6Cl3O-
296.9277	4	C13H4Cl3O2-
