Mass spectrum: Colchicine; LC-ESI-QFT; MS2; CE: 45; R=17500; [M+H]+
Name: Colchicine
Name: N-[(7S)-1,2,3,10-tetramethoxy-9-oxo-6,7-dihydro-5H-benzo[a]heptalen-7-yl]acetamide
Formula: C22H25NO6
Exact mass: 399.1682
SMILES: COC1=CC2=C(C(OC)=C1OC)C1=CC=C(OC)C(=O)C=C1[C@H](CC2)NC(C)=O
InChI: InChI=1S/C22H25NO6/c1-12(24)23-16-8-6-13-10-19(27-3)21(28-4)22(29-5)20(13)14-7-9-18(26-2)17(25)11-15(14)16/h7,9-11,16H,6,8H2,1-5H3,(H,23,24)/t16-/m0/s1
Instrument: Q Exactive Orbitrap (Thermo Scientific)
Instrument type: LC-ESI-QFT
Ms type: MS2
Ion mode: POSITIVE
Ionization: ESI
Fragmentation mode: HCD
Collision energy: 45
Resolution: 17500
Column name: Acquity BEH C18 1.7um, 2.1x150mm (Waters)
Retention time: 14.647 min
Base peak: 79.0211
Precursor m/z: 400.1755
Precursor type: [M+H]+
Precursor intensity: 12656912
m/z	relative intensity	assigned
56.0495	25	C3H6N+
60.0444	71	C2H6NO+
68.0495	11	C4H6N+
70.0288	15	C3H4NO+
71.0493	10	C4H7O+
75.044	17	C3H7O2+
79.0543	5	C6H7+
84.0444	33	C4H6NO+
85.0284	11	C4H5O2+
86.06	21	C4H8NO+
91.0542	10	C7H7+
95.0492	11	C6H7O+
100.0393	34	C4H6NO2+
102.055	6	C4H8NO2+
108.0447	7	C6H6NO+
117.0702	9	C9H9+
119.0492	17	C8H7O+
121.0648	7	C8H9O+
123.0442	7	C7H7O2+
125.0597	10	C7H9O2+
130.0653	10	C9H8N+
131.0493	9	C9H7O+
133.065	5	C9H9O+
135.0441	6	C8H7O2+
136.076	7	C8H10NO+
137.0598	124	C8H9O2+
138.0548	13	C7H8NO2+
138.0678	13	C8H10O2+
145.0649	37	C10H9O+
146.0602	8	C9H8NO+
146.0723	5	C10H10O+
147.0682	8	C9H9NO+
148.0518	11	C9H8O2+
148.0759	7	C9H10NO+
149.0601	6	C9H9O2+
150.0551	21	C8H8NO2+
150.0676	12	C9H10O2+
151.0754	47	C9H11O2+
152.0706	64	C8H10NO2+
155.0705	11	C8H11O3+
158.0603	11	C10H8NO+
158.0727	6	C11H10O+
160.0518	14	C10H8O2+
160.0759	39	C10H10NO+
161.0599	10	C10H9O2+
162.0672	5	C10H10O2+
163.0754	12	C10H11O2+
165.0711	12	C13H9+
165.0785	87	C9H11NO2+
166.0629	15	C9H10O3+
166.0865	7	C9H12NO2+
167.0705	24	C9H11O3+
173.0598	38	C11H9O2+
173.0837	6	C11H11NO+
174.0678	9	C11H10O2+
174.0915	8	C11H12NO+
175.063	28	C10H9NO2+
175.0756	23	C11H11O2+
176.0707	63	C10H10NO2+
176.0836	22	C11H12O2+
177.0548	16	C10H9O3+
177.0789	5	C10H11NO2+
177.0909	9	C11H13O2+
178.0627	8	C10H10O3+
179.0703	30	C10H11O3+
179.085	8	C14H11+
180.0781	7	C13H10N+
181.086	204	C10H13O3+
183.0802	11	C13H11O+
188.0712	23	C11H10NO2+
188.0829	43	C12H12O2+
190.0626	12	C11H10O3+
190.0859	31	C11H12NO2+
191.0705	35	C11H11O3+
192.0664	7	C10H10NO3+
192.0784	9	C11H12O3+
193.0733	26	C10H11NO3+
194.0941	14	C11H14O3+
195.0808	19	C14H11O+
196.0886	6	C14H12O+
197.0601	8	C13H9O2+
198.0687	6	C13H10O2+
199.0755	9	C13H11O2+
202.0863	20	C12H12NO2+
203.0944	86	C12H13NO2+
204.0657	24	C11H10NO3+
204.0785	23	C12H12O3+
205.0736	16	C11H11NO3+
205.0861	37	C12H13O3+
206.0723	11	C15H10O+
206.0817	24	C11H12NO3+
206.0941	38	C12H14O3+
207.0804	31	C15H11O+
207.1016	101	C12H15O3+
208.0887	11	C15H12O+
209.0593	6	C14H9O2+
209.0965	23	C15H13O+
210.0679	18	C14H10O2+
211.0753	19	C14H11O2+
211.1122	9	C15H15O+
212.0834	16	C14H12O2+
213.0914	11	C14H13O2+
216.0787	10	C13H12O3+
217.0651	7	C16H9O+
218.082	13	C12H12NO3+
218.0936	8	C13H14O3+
219.0789	11	C16H11O+
219.0893	53	C12H13NO3+
219.1018	17	C13H15O3+
220.0868	9	C16H12O+
220.0986	28	C12H14NO3+
220.1086	8	C13H16O3+
221.0957	32	C16H13O+
222.0664	5	C15H10O2+
222.113	24	C12H16NO3+
223.0755	54	C15H11O2+
223.1117	9	C16H15O+
224.0833	44	C15H12O2+
225.054	7	C14H9O3+
225.08	8	C14H11NO2+
225.0909	44	C15H13O2+
226.0625	10	C14H10O3+
226.0987	56	C15H14O2+
227.0701	41	C14H11O3+
227.1067	13	C15H15O2+
229.086	11	C14H13O3+
231.1014	13	C14H15O3+
233.06	8	C16H9O2+
234.0678	32	C16H10O2+
234.0913	18	C16H12NO+
234.1127	168	C13H16NO3+
235.0754	126	C16H11O2+
235.0978	13	C13H15O4+
236.0717	9	C15H10NO2+
236.0834	39	C16H12O2+
236.1072	22	C16H14NO+
237.0911	85	C16H13O2+
237.1148	22	C16H15NO+
238.0618	8	C15H10O3+
238.0862	5	C15H12NO2+
238.0989	74	C16H14O2+
239.0703	26	C15H11O3+
239.1067	132	C16H15O2+
240.0782	47	C15H12O3+
240.1022	9	C15H14NO2+
240.115	25	C16H16O2+
241.0862	62	C15H13O3+
242.0939	110	C15H14O3+
243.0655	11	C14H11O4+
243.102	11	C15H15O3+
245.1047	12	C14H15NO3+
246.1137	12	C14H16NO3+
247.0756	25	C17H11O2+
247.0987	8	C17H13NO+
248.0834	39	C17H12O2+
248.1074	10	C17H14NO+
249.0911	98	C17H13O2+
250.0863	30	C16H12NO2+
250.0992	123	C17H14O2+
250.1225	8	C17H16NO+
251.0706	142	C16H11O3+
251.0941	18	C16H13NO2+
251.1068	132	C17H15O2+
252.0786	93	C16H12O3+
252.1019	51	C16H14NO2+
252.1151	72	C17H16O2+
253.086	82	C16H13O3+
253.1097	15	C16H15NO2+
253.1224	26	C17H17O2+
254.0809	11	C15H12NO3+
254.094	65	C16H14O3+
254.1176	14	C16H16NO2+
254.1305	13	C17H18O2+
255.0655	66	C15H11O4+
255.1017	154	C16H15O3+
256.0967	10	C15H14NO3+
256.1099	41	C16H16O3+
257.0806	29	C15H13O4+
257.1178	32	C16H17O3+
258.0888	51	C15H14O4+
258.1127	11	C15H16NO3+
259.0961	6	C15H15O4+
260.1083	6	C18H14NO+
261.1014	7	C14H15NO4+
262.0626	20	C17H10O3+
262.0866	18	C17H12NO2+
263.0704	114	C17H11O3+
263.0939	23	C17H13NO2+
264.0645	10	C16H10NO3+
264.0791	28	C17H12O3+
264.1019	64	C17H14NO2+
265.0861	147	C17H13O3+
265.1094	58	C17H15NO2+
266.0939	177	C17H14O3+
266.1173	55	C17H16NO2+
267.1017	632	C17H15O3+
267.1247	50	C17H17NO2+
268.0733	36	C16H12O4+
268.0966	74	C16H14NO3+
268.1099	114	C17H16O3+
269.0808	85	C16H13O4+
269.1041	13	C16H15NO3+
269.1175	39	C17H17O3+
270.0888	192	C16H14O4+
270.1119	15	C16H16NO3+
270.1257	61	C17H18O3+
271.0966	70	C16H15O4+
272.0691	7	C15H12O5+
272.105	21	C16H16O4+
272.1286	23	C16H18NO3+
273.112	53	C16H17O4+
275.0941	7	C18H13NO2+
276.0784	18	C18H12O3+
276.1023	20	C18H14NO2+
276.1209	8	C15H18NO4+
277.0863	106	C18H13O3+
277.1095	39	C18H15NO2+
278.0946	294	C18H14O3+
278.1177	24	C15H18O5+
279.0654	169	C17H11O4+
279.0885	18	C17H13NO3+
279.1024	176	C18H15O3+
279.1254	24	C18H17NO2+
280.0737	42	C17H12O4+
280.0953	123	C14H16O6+
280.1105	44	C18H16O3+
280.1333	22	C18H18NO2+
281.081	25	C17H13O4+
281.1175	326	C18H17O3+
282.1258	934	C18H18O3+
283.0966	424	C17H15O4+
284.1048	132	C17H16O4+
284.1283	60	C17H18NO3+
285.076	40	C16H13O5+
285.1124	563	C17H17O4+
286.0842	20	C19H12NO2+
286.1074	36	C16H16NO4+
287.0914	122	C16H15O5+
287.1289	11	C17H19O4+
293.0811	112	C18H13O4+
293.1048	91	C18H15NO3+
294.089	202	C18H14O4+
294.1126	196	C18H16NO3+
295.0969	971	C18H15O4+
295.1202	288	C18H17NO3+
296.0909	176	C17H14NO4+
296.1279	104	C18H18NO3+
297.075	11	C17H13O5+
297.1127	109	C18H17O4+
297.1361	50	C18H19NO3+
298.084	46	C17H14O5+
298.1204	310	C18H18O4+
298.1439	244	C18H20NO3+
299.0919	30	C17H15O5+
299.1148	66	C17H17NO4+
299.1285	72	C18H19O4+
300.1005	30	C17H16O5+
300.1226	241	C17H18NO4+
301.1074	37	C17H17O5+
301.1311	117	C17H19NO4+
301.1477	8	C21H19NO+
302.1153	78	C17H18O5+
304.0967	9	C19H14NO3+
305.1046	8	C19H15NO3+
306.1126	36	C19H16NO3+
307.1208	43	C19H17NO3+
308.1049	57	C19H16O4+
308.1285	149	C19H18NO3+
309.1125	283	C19H17O4+
309.1358	70	C19H19NO3+
310.1216	999	C22H16NO+
311.0917	691	C18H15O5+
311.115	185	C18H17NO4+
312.123	171	C18H18NO4+
313.1436	162	C19H21O4+
314.1014	77	C17H16NO5+
314.1383	133	C18H20NO4+
315.107	26	C17H17NO5+
315.1475	21	C18H21NO4+
316.1544	93	C18H22NO4+
320.0919	26	C19H14NO4+
320.1286	14	C20H18NO3+
321.0992	29	C19H15NO4+
322.1072	9	C19H16NO4+
322.1437	24	C20H20NO3+
323.1148	20	C19H17NO4+
323.1305	16	C20H19O4+
324.1231	307	C19H18NO4+
325.1075	63	C19H17O5+
325.1314	114	C19H19NO4+
326.1152	380	C19H18O5+
326.139	399	C19H20NO4+
327.1456	50	C19H21NO4+
328.118	413	C18H18NO5+
330.1344	33	C18H20NO5+
330.1697	27	C19H24NO4+
334.1078	24	C20H16NO4+
335.1154	19	C20H17NO4+
336.1236	58	C20H18NO4+
337.095	11	C19H15NO5+
338.1046	8	C19H16NO5+
338.1389	54	C20H20NO4+
339.1467	232	C20H21NO4+
340.1545	207	C20H22NO4+
341.1387	221	C20H21O5+
342.1337	282	C19H20NO5+
343.1417	113	C19H21NO5+
350.1381	26	C21H20NO4+
351.1093	7	C20H17NO5+
351.147	11	C21H21NO4+
352.1182	87	C20H18NO5+
354.1327	8	C20H20NO5+
354.1695	40	C21H24NO4+
357.1205	11	C19H19NO6+
357.1578	18	C20H23NO5+
358.165	365	C20H24NO5+
366.1344	35	C21H20NO5+
367.1416	106	C21H21NO5+
368.1494	11	C21H22NO5+
370.1286	13	C20H20NO6+
382.1649	51	C22H24NO5+
384.1445	16	C21H22NO6+
400.1761	77	C22H26NO6+
