Mass spectrum: N,N-Dimethylacetoacetamide; LC-ESI-QFT; MS2; CE: 75; R=17500; [M+H]+
Name: N,N-Dimethylacetoacetamide
Name: N,N-dimethyl-3-oxobutanamide
Formula: C6H11NO2
Exact mass: 129.0790
SMILES: CN(C)C(=O)CC(C)=O
InChI: InChI=1S/C6H11NO2/c1-5(8)4-6(9)7(2)3/h4H2,1-3H3
Instrument: Q Exactive Orbitrap (Thermo Scientific)
Instrument type: LC-ESI-QFT
Ms type: MS2
Ion mode: POSITIVE
Ionization: ESI
Fragmentation mode: HCD
Collision energy: 75
Resolution: 17500
Column name: Acquity BEH C18 1.7um, 2.1x150mm (Waters)
Retention time: 3.896 min
Base peak: 79.0211
Precursor m/z: 130.0863
Precursor type: [M+H]+
Precursor intensity: 2030689.046875
m/z	relative intensity	assigned
56.0495	45	C3H6N+
70.0651	32	C4H8N+
72.0444	117	C3H6NO+
84.0808	455	C5H10N+
85.0285	59	C4H5O2+
112.0758	999	C6H10NO+
130.0863	52	C6H12NO2+
