Mass spectrum: Sulfasalazine; LC-ESI-QFT; MS2; CE: 30; R=17500; [M-H]-
Name: Sulfasalazine
Name: 2-hydroxy-5-[[4-(pyridin-2-ylsulfamoyl)phenyl]diazenyl]benzoic acid
Formula: C18H14N4O5S
Exact mass: 398.0685
SMILES: C1=CC=NC(=C1)NS(=O)(=O)C2=CC=C(C=C2)N=NC3=CC(=C(C=C3)O)C(=O)O
InChI: InChI=1S/C18H14N4O5S/c23-16-9-6-13(11-15(16)18(24)25)21-20-12-4-7-14(8-5-12)28(26,27)22-17-3-1-2-10-19-17/h1-11,23H,(H,19,22)(H,24,25)
Instrument: Q Exactive Orbitrap (Thermo Scientific)
Instrument type: LC-ESI-QFT
Ms type: MS2
Ion mode: NEGATIVE
Ionization: ESI
Fragmentation mode: HCD
Collision energy: 30
Resolution: 17500
Column name: Acquity BEH C18 1.7um, 2.1x150mm (Waters)
Retention time: 17.048 min
Base peak: 221.1182
Precursor m/z: 397.0612
Precursor type: [M-H]-
Precursor intensity: 4748699.681641
m/z	relative intensity	assigned
65.9985	1	C3NO-
92.0269	5	C6H4O-
92.0381	4	C5H4N2-
93.022	1	C5H3NO-
94.0298	1	C5H4NO-
105.022	18	C6H3NO-
118.03	1	C7H4NO-
121.0169	2	C6H3NO2-
122.0247	60	C6H4NO2-
148.0404	1	C8H6NO2-
149.0117	6	C7H3NO3-
151.0275	2	C7H5NO3-
169.0658	1	C12H9O-
183.0562	6	C11H7N2O-
183.0798	4	C11H9N3-
196.0639	7	C4H12N4O3S-
197.072	999	C12H9N2O-
199.0512	4	C11H7N2O2-
200.0593	1	C11H8N2O2-
202.0387	1	C10H6N2O3-
212.0591	64	C12H8N2O2-
240.054	11	C13H8N2O3-
241.0619	64	C13H9N2O3-
248.0827	2	C15H10N3O-
262.098	1	C16H12N3O-
289.1095	146	C17H13N4O-
333.0987	3	C18H13N4O3-
353.0713	17	C17H13N4O3S-
397.0611	156	C18H13N4O5S-
