Mass spectrum: PD-0333941; LC-ESI-QFT; MS2; CE: 15; R=17500; [M-H]-
Name: PD-0333941
Name: 3-[4-[2-(5-methyl-2-phenyl-1,3-oxazol-4-yl)ethoxy]indol-1-yl]propanoic acid
Formula: C23H22N2O4
Exact mass: 390.1580
SMILES: CC1=C(CCOC2=CC=CC3=C2C=CN3CCC(O)=O)N=C(O1)C1=CC=CC=C1
InChI: InChI=1S/C23H22N2O4/c1-16-19(24-23(29-16)17-6-3-2-4-7-17)12-15-28-21-9-5-8-20-18(21)10-13-25(20)14-11-22(26)27/h2-10,13H,11-12,14-15H2,1H3,(H,26,27)
Instrument: Q Exactive Orbitrap (Thermo Scientific)
Instrument type: LC-ESI-QFT
Ms type: MS2
Ion mode: NEGATIVE
Ionization: ESI
Fragmentation mode: HCD
Collision energy: 15
Resolution: 17500
Column name: Acquity BEH C18 1.7um, 2.1x150mm (Waters)
Retention time: 18.689 min
Base peak: 322.1448
Precursor m/z: 389.1507
Precursor type: [M-H]-
Precursor intensity: 15486415.8457
m/z	relative intensity	assigned
131.0382	20	C8H5NO-
132.0456	2	C8H6NO-
317.1295	999	C20H17N2O2-
389.1508	609	C23H21N2O4-
