Mass spectrum: 4-(4-Hydroxyphenyl)butan-2-one; LC-ESI-QFT; MS2; CE: 90; R=17500; [M+H]+
Name: 4-(4-Hydroxyphenyl)butan-2-one
Name: 4-(4-Hydroxyphenyl)-2-butanone
Formula: C10H12O2
Exact mass: 164.0837
SMILES: CC(=O)CCC1=CC=C(O)C=C1
InChI: InChI=1S/C10H12O2/c1-8(11)2-3-9-4-6-10(12)7-5-9/h4-7,12H,2-3H2,1H3
Instrument: Q Exactive Orbitrap (Thermo Scientific)
Instrument type: LC-ESI-QFT
Ms type: MS2
Ion mode: POSITIVE
Ionization: ESI
Fragmentation mode: HCD
Collision energy: 90
Resolution: 17500
Column name: Acquity BEH C18 1.7um, 2.1x150mm (Waters)
Retention time: 15.236 min
Base peak: 79.0212
Precursor m/z: 165.091
Precursor type: [M+H]+
Precursor intensity: 3166160.25
m/z	relative intensity	assigned
50.0151	11	C4H2+
51.0229	18	C4H3+
53.0022	9	C3HO+
53.0386	97	C4H5+
55.0179	47	C3H3O+
55.0543	215	C4H7+
65.0386	101	C5H5+
67.0542	213	C5H7+
77.0386	194	C6H5+
79.0542	20	C6H7+
81.0335	22	C5H5O+
81.07	5	C6H9+
91.0542	251	C7H7+
93.0334	2	C6H5O+
93.07	3	C7H9+
94.0414	5	C6H6O+
95.0492	380	C6H7O+
103.0543	23	C8H7+
104.0621	14	C8H8+
105.0336	173	C7H5O+
107.0491	11	C7H7O+
109.0285	4	C6H5O2+
109.0649	4	C7H9O+
110.0363	10	C6H6O2+
111.0441	12	C6H7O2+
115.0543	10	C9H7+
117.0699	13	C9H9+
119.0492	19	C8H7O+
119.0857	7	C9H11+
123.0441	999	C7H7O2+
128.0622	3	C10H8+
131.0491	10	C9H7O+
132.057	4	C9H8O+
133.065	2	C9H9O+
137.0597	10	C8H9O2+
