Mass spectrum: Oxypurinol; LC-ESI-QFT; MS2; CE: 45; R=17500; [M-H]-
Name: Oxypurinol
Name: 1,2-dihydropyrazolo[3,4-d]pyrimidine-4,6-dione
Formula: C5H4N4O2
Exact mass: 152.0334
SMILES: O=C1NC2=NNC=C2C(=O)N1
InChI: InChI=1S/C5H4N4O2/c10-4-2-1-6-9-3(2)7-5(11)8-4/h1H,(H3,6,7,8,9,10,11)
Instrument: Q Exactive Orbitrap (Thermo Scientific)
Instrument type: LC-ESI-QFT
Ms type: MS2
Ion mode: NEGATIVE
Ionization: ESI
Fragmentation mode: HCD
Collision energy: 45
Resolution: 17500
Column name: Acquity BEH C18 1.7um, 2.1x150mm (Waters)
Retention time: 3.142 min
Base peak: 151.0261
Precursor m/z: 151.0261
Precursor type: [M-H]-
Precursor intensity: 5669690.982178
m/z	relative intensity	assigned
65.0145	1	C3HN2-
65.9986	4	C3NO-
95.0252	6	C4H3N2O-
107.0364	2	C4H3N4-
108.0204	66	C4H2N3O-
123.0199	2	C5H3N2O2-
151.0261	999	C5H3N4O2-
