Mass spectrum: Thiacloprid; LC-ESI-QFT; MS2; CE: 45; R=17500; [M+H]+
Name: Thiacloprid
Name: [3-[(6-chloropyridin-3-yl)methyl]-1,3-thiazolidin-2-ylidene]cyanamide
Formula: C10H9ClN4S
Exact mass: 252.0236
SMILES: C1CSC(=NC#N)N1CC2=CN=C(C=C2)Cl
InChI: InChI=1S/C10H9ClN4S/c11-9-2-1-8(5-13-9)6-15-3-4-16-10(15)14-7-12/h1-2,5H,3-4,6H2
Instrument: Q Exactive Orbitrap (Thermo Scientific)
Instrument type: LC-ESI-QFT
Ms type: MS2
Ion mode: POSITIVE
Ionization: ESI
Fragmentation mode: HCD
Collision energy: 45
Resolution: 17500
Column name: Acquity BEH C18 1.7um, 2.1x150mm (Waters)
Retention time: 13.720 min
Base peak: 79.0212
Precursor m/z: 253.0309
Precursor type: [M+H]+
Precursor intensity: 9607864.3125
m/z	relative intensity	assigned
63.023	1	C5H3+
72.9835	1	C3H2Cl+
81.0335	2	C2H8ClN+
90.0338	11	C6H4N+
91.0416	2	C6H5N+
98.9996	4	C5H4Cl+
126.0104	999	C6H5ClN+
128.0262	1	C6H7ClN+
144.021	6	C4H5ClN4+
151.0057	5	C7H4ClN2+
157.0511	1	C8H5N4+
186.0139	14	C8H9ClNS+
190.0431	1	C9H8N3S+
193.0274	1	C8H6ClN4+
211.0092	4	C9H8ClN2S+
217.0544	2	C10H9N4S+
226.0198	4	C9H9ClN3S+
236.0042	2	C10H7ClN3S+
253.0308	18	C10H10ClN4S+
