Mass spectrum: MK-274; LC-ESI-QFT; MS2; CE: 75; R=17500; [M+H]+
Name: MK-274
Name: 3-[5'-Fluoro-2'-(2,2,3,3,3-pentafluoropropoxy)biphenyl-3-yl]-1H-1,2,4-triazole-5-carboxamide
Name: 3-[3-[5-fluoro-2-(2,2,3,3,3-pentafluoropropoxy)phenyl]phenyl]-1H-1,2,4-triazole-5-carboxamide
Formula: C18H12F6N4O2
Exact mass: 430.0864
SMILES: NC(=O)C1=NC(=NN1)C1=CC=CC(=C1)C1=CC(F)=CC=C1OCC(F)(F)C(F)(F)F
InChI: InChI=1S/C18H12F6N4O2/c19-11-4-5-13(30-8-17(20,21)18(22,23)24)12(7-11)9-2-1-3-10(6-9)15-26-16(14(25)29)28-27-15/h1-7H,8H2,(H2,25,29)(H,26,27,28)
Instrument: Q Exactive Orbitrap (Thermo Scientific)
Instrument type: LC-ESI-QFT
Ms type: MS2
Ion mode: POSITIVE
Ionization: ESI
Fragmentation mode: HCD
Collision energy: 75
Resolution: 17500
Column name: Acquity BEH C18 1.7um, 2.1x150mm (Waters)
Retention time: 17.813 min
Base peak: 79.0211
Precursor m/z: 431.0937
Precursor type: [M+H]+
Precursor intensity: 13447638.875
m/z	relative intensity	assigned
69.0083	82	C2HN2O+
114.0339	2	C8H4N+
120.037	2	C8H5F+
133.0448	8	C9H6F+
149.0397	11	C9H6FO+
153.0577	1	C11H7N+
157.0448	26	C11H6F+
158.0402	3	C10H5FN+
158.0526	7	C11H7F+
159.0604	4	C3H9F6+
161.0397	2	C10H6FO+
164.0495	2	C12H6N+
169.0447	5	C4H7F6+
169.0649	3	C12H9O+
170.0526	353	C12H7F+
171.0481	7	C11H6FN+
171.0603	9	C4H9F6+
172.0559	1	C11H7FN+
173.0399	9	C11H6FO+
173.051	9	C10H6FN2+
174.0473	3	C6H6F2N3O+
176.0494	2	C5H7F5N+
177.0573	130	C13H7N+
178.0651	19	C13H8N+
179.0604	1	C12H7N2+
180.0448	1	C12H6NO+
182.0525	1	C5H8F6+
183.0605	18	C13H8F+
184.0558	25	C12H7FN+
184.0683	1	C13H9F+
185.0398	2	C12H6FO+
185.0636	23	C12H8FN+
186.0476	206	C12H7FO+
187.0554	30	C12H8FO+
188.0498	5	C14H6N+
190.0652	7	C14H8N+
191.0367	1	C13H5NO+
193.0522	3	C13H7NO+
194.0603	10	C13H8NO+
195.0478	14	C13H6FN+
196.0558	276	C13H7FN+
197.0514	12	C12H6FN2+
198.0476	67	C13H7FO+
199.0554	43	C13H8FO+
202.0424	15	C12H7FO2+
203.0377	2	C11H6FNO2+
204.0444	7	C14H6NO+
205.0523	12	C14H7NO+
206.0403	9	C14H5FN+
206.0601	19	C14H8NO+
207.048	25	C14H6FN+
208.0557	255	C14H7FN+
209.0635	19	C14H8FN+
210.0353	2	C13H5FNO+
210.0576	9	C5H8F6N2+
210.0709	1	C9H8F2N4+
211.0428	65	C13H6FNO+
212.0506	466	C13H7FNO+
213.0584	65	C13H8FNO+
214.0665	18	C13H9FNO+
215.0501	2	C5H9F6O2+
223.0432	1	C14H6FNO+
224.0505	999	C14H7FNO+
225.0457	7	C5H7F6N2O+
225.0584	52	C14H8FNO+
226.0538	14	C13H7FN2O+
227.0611	2	C5H9F6N2O+
230.0373	27	C16H6O2+
236.0385	5	C14H5FN2O+
237.0458	23	C14H6FN2O+
237.0684	4	C6H9F6N3+
238.0659	4	C10H8F2N4O+
238.0779	1	C11H11F5+
239.0377	41	C14H6FNO2+
239.0602	7	C9H8F5N2+
243.0689	1	C6H11F6NO2+
244.0767	14	C9H10F2N4O2+
251.0623	1	C12H9F2N2O2+
252.0449	1	C10H6F2N4O2+
252.0568	9	C11H9F5O+
254.0725	8	C11H11F5O+
255.0568	3	C14H8FN2O2+
256.0766	1	C10H10F2N4O2+
258.0522	2	C10H6F4N4+
270.0525	1	C16H7F3N+
280.0517	1	C12H9F5O2+
282.0674	11	C12H11F5O2+
286.0476	2	C16H7F3NO+
298.0618	5	C15H10F4O2+
346.0655	4	C16H10F6NO+
