Mass spectrum: Nicardipine; LC-ESI-QFT; MS2; CE: 45; R=17500; [M-H]-
Name: Nicardipine
Name: 5-O-[2-[benzyl(methyl)amino]ethyl] 3-O-methyl 2,6-dimethyl-4-(3-nitrophenyl)-1,4-dihydropyridine-3,5-dicarboxylate
Formula: C26H29N3O6
Exact mass: 479.2056
SMILES: COC(=O)C1=C(C)NC(C)=C(C1C1=CC(=CC=C1)[N+]([O-])=O)C(=O)OCCN(C)CC1=CC=CC=C1
InChI: InChI=1S/C26H29N3O6/c1-17-22(25(30)34-4)24(20-11-8-12-21(15-20)29(32)33)23(18(2)27-17)26(31)35-14-13-28(3)16-19-9-6-5-7-10-19/h5-12,15,24,27H,13-14,16H2,1-4H3
Instrument: Q Exactive Orbitrap (Thermo Scientific)
Instrument type: LC-ESI-QFT
Ms type: MS2
Ion mode: NEGATIVE
Ionization: ESI
Fragmentation mode: HCD
Collision energy: 45
Resolution: 17500
Column name: Acquity BEH C18 1.7um, 2.1x150mm (Waters)
Retention time: 14.882 min
Base peak: 307.0283
Precursor m/z: 478.1984
Precursor type: [M-H]-
Precursor intensity: 12669892.0293
m/z	relative intensity	assigned
67.019	9	C4H3O-
68.9983	3	C3HO2-
69.0346	4	C4H5O-
79.0191	4	C5H3O-
82.0061	36	C4H2O2-
83.014	2	C4H3O2-
92.0268	72	C6H4O-
92.0506	4	C6H6N-
93.0347	2	C6H5O-
94.03	3	C5H4NO-
95.0139	230	C5H3O2-
97.0295	3	C5H5O2-
104.0505	3	C7H6N-
106.0662	32	C7H8N-
108.0217	455	C6H4O2-
118.0662	5	C8H8N-
120.0455	20	C7H6NO-
122.0247	999	C6H4NO2-
123.0088	21	C6H3O3-
132.0452	2	C8H6NO-
134.0612	5	C8H8NO-
136.0404	18	C7H6NO2-
138.0197	8	C6H4NO3-
140.0354	46	C6H6NO3-
148.0403	13	C8H6NO2-
149.0482	42	C8H7NO2-
150.056	129	C8H8NO2-
160.077	2	C10H10NO-
162.0561	18	C9H8NO2-
163.0641	7	C9H9NO2-
164.0356	19	C8H6NO3-
164.0717	217	C9H10NO2-
166.0145	43	C7H4NO4-
181.0381	13	C8H7NO4-
182.0611	2	C12H8NO-
188.0954	7	C11H12N2O-
190.0508	24	C10H8NO3-
192.0305	4	C9H6NO4-
192.0664	6	C10H10NO3-
196.0403	9	C12H6NO2-
196.0769	4	C13H10NO-
199.0275	6	C11H5NO3-
206.0614	3	C14H8NO-
207.0538	32	C13H7N2O-
207.0699	2	C14H9NO-
208.0614	37	C13H8N2O-
208.0767	4	C14H10NO-
209.0486	5	C13H7NO2-
209.0718	4	C13H9N2O-
210.0562	16	C13H8NO2-
213.0435	6	C12H7NO3-
221.0358	9	C13H5N2O2-
221.0693	7	C11H11NO4-
223.0636	19	C14H9NO2-
224.0717	317	C14H10NO2-
225.0664	4	C13H9N2O2-
236.0594	4	C14H8N2O2-
237.0671	20	C14H9N2O2-
238.0515	12	C14H8NO3-
239.0462	94	C13H7N2O3-
240.0668	5	C14H10NO3-
241.0615	2	C13H9N2O3-
242.0824	9	C14H12NO3-
244.0614	4	C13H10NO4-
249.0667	3	C15H9N2O2-
250.0759	3	C15H10N2O2-
253.0618	28	C14H9N2O3-
253.0747	7	C15H11NO3-
254.0462	4	C14H8NO4-
254.0694	6	C14H10N2O3-
255.0775	11	C14H11N2O3-
257.0567	7	C13H9N2O4-
264.0541	8	C15H8N2O3-
265.0615	5	C15H9N2O3-
265.0753	6	C16H11NO3-
268.0615	95	C15H10NO4-
271.0727	7	C14H11N2O4-
272.0557	3	C14H10NO5-
281.0553	5	C15H9N2O4-
282.0779	4	C16H12NO4-
283.0364	5	C14H7N2O5-
295.0728	14	C16H11N2O4-
296.0805	4	C16H12N2O4-
298.0592	17	C15H10N2O5-
313.0833	16	C16H13N2O5-
355.1663	33	C20H23N2O4-
401.1513	27	C24H21N2O4-
430.1537	5	C25H22N2O5-
