Mass spectrum: Clomipramine; LC-ESI-QFT; MS2; CE: 90; R=17500; [M+H]+
Name: Clomipramine
Name: 3-(2-chloro-5,6-dihydrobenzo[b][1]benzazepin-11-yl)-N,N-dimethylpropan-1-amine
Formula: C19H23ClN2
Exact mass: 314.1550
SMILES: CN(C)CCCN1C2=CC(Cl)=CC=C2CCC2=C1C=CC=C2
InChI: InChI=1S/C19H23ClN2/c1-21(2)12-5-13-22-18-7-4-3-6-15(18)8-9-16-10-11-17(20)14-19(16)22/h3-4,6-7,10-11,14H,5,8-9,12-13H2,1-2H3
Instrument: Q Exactive Orbitrap (Thermo Scientific)
Instrument type: LC-ESI-QFT
Ms type: MS2
Ion mode: POSITIVE
Ionization: ESI
Fragmentation mode: HCD
Collision energy: 90
Resolution: 17500
Column name: Acquity BEH C18 1.7um, 2.1x150mm (Waters)
Retention time: 16.241 min
Base peak: 79.0211
Precursor m/z: 315.1623
Precursor type: [M+H]+
Precursor intensity: 33940849.25
m/z	relative intensity	assigned
56.0495	15	C3H6N+
57.0573	1	C3H7N+
58.0651	999	C3H8N+
70.0651	1	C4H8N+
71.0729	16	C4H9N+
84.0808	1	C5H10N+
86.0964	172	C5H12N+
91.0543	2	C7H7+
125.0154	1	C7H6Cl+
130.0652	1	C9H8N+
144.0808	1	C10H10N+
165.07	11	C13H9+
178.0779	2	C14H10+
179.0856	1	C14H11+
191.073	8	C14H9N+
192.0808	50	C14H10N+
201.0343	4	C12H8ClN+
204.0811	2	C15H10N+
205.0885	1	C15H11N+
206.0966	16	C15H12N+
207.1044	10	C15H13N+
214.0417	1	C13H9ClN+
220.1121	10	C16H14N+
226.0419	10	C14H9ClN+
227.0497	101	C14H10ClN+
234.1276	2	C17H16N+
240.0574	1	C15H11ClN+
242.0731	6	C15H13ClN+
254.0727	2	C16H13ClN+
