Mass spectrum: Azaconazole; LC-ESI-QFT; MS2; CE: 45; R=17500; [M+H]+
Name: Azaconazole
Name: 1-[[2-(2,4-dichlorophenyl)-1,3-dioxolan-2-yl]methyl]-1,2,4-triazole
Formula: C12H11Cl2N3O2
Exact mass: 299.0228
SMILES: ClC1=CC(Cl)=C(C=C1)C1(CN2C=NC=N2)OCCO1
InChI: InChI=1S/C12H11Cl2N3O2/c13-9-1-2-10(11(14)5-9)12(18-3-4-19-12)6-17-8-15-7-16-17/h1-2,5,7-8H,3-4,6H2
Instrument: Q Exactive Orbitrap (Thermo Scientific)
Instrument type: LC-ESI-QFT
Ms type: MS2
Ion mode: POSITIVE
Ionization: ESI
Fragmentation mode: HCD
Collision energy: 45
Resolution: 17500
Column name: Acquity BEH C18 1.7um, 2.1x150mm (Waters)
Retention time: 16.727 min
Base peak: 79.0211
Precursor m/z: 300.0301
Precursor type: [M+H]+
Precursor intensity: 6417378.5
m/z	relative intensity	assigned
70.0399	27	C2H4N3+
89.0386	1	C7H5+
158.9763	999	C7H5Cl2+
172.9555	14	C7H3Cl2O+
196.0287	6	C10H9ClO2+
216.9817	18	C9H7Cl2O2+
230.9974	143	C10H9Cl2O2+
300.0299	7	C12H12Cl2N3O2+
