Mass spectrum: PharmaGSID_48506; LC-ESI-QFT; MS2; CE: 45; R=17500; [M+H]+
Name: PharmaGSID_48506
Name: (2R)-2-(3-chloro-4-methylsulfonylphenyl)-3-cyclopentyl-N-pyrazin-2-ylpropanamide
Formula: C19H22ClN3O3S
Exact mass: 407.1070
SMILES: CS(=O)(=O)C1=CC=C(C=C1Cl)[C@@H](CC1CCCC1)C(=O)NC1=NC=CN=C1
InChI: InChI=1S/C19H22ClN3O3S/c1-27(25,26)17-7-6-14(11-16(17)20)15(10-13-4-2-3-5-13)19(24)23-18-12-21-8-9-22-18/h6-9,11-13,15H,2-5,10H2,1H3,(H,22,23,24)/t15-/m1/s1
Instrument: Q Exactive Orbitrap (Thermo Scientific)
Instrument type: LC-ESI-QFT
Ms type: MS2
Ion mode: POSITIVE
Ionization: ESI
Fragmentation mode: HCD
Collision energy: 45
Resolution: 17500
Column name: Acquity BEH C18 1.7um, 2.1x150mm (Waters)
Retention time: 17.918 min
Base peak: 79.0211
Precursor m/z: 408.1143
Precursor type: [M+H]+
Precursor intensity: 9055799.125
m/z	relative intensity	assigned
52.0183	4	C3H2N+
55.0543	2	C4H7+
67.0542	2	C5H7+
69.0446	6	C3H5N2+
69.0698	26	C5H9+
78.9848	19	CH3O2S+
79.054	2	C6H7+
81.0699	18	C6H9+
95.0856	4	C7H11+
96.0556	999	C4H6N3+
97.0396	44	C4H5N2O+
115.0545	1	C9H7+
123.0426	1	C5H5N3O+
125.0152	3	C7H6Cl+
128.0621	1	C10H8+
129.0698	10	C10H9+
138.023	9	C8H7Cl+
139.0309	4	C8H8Cl+
141.0101	40	C7H6ClO+
149.0152	4	C9H6Cl+
150.0231	23	C9H7Cl+
151.031	3	C9H8Cl+
155.0258	17	C8H8ClO+
162.0232	10	C10H7Cl+
163.0309	147	C10H8Cl+
164.0387	93	C10H9Cl+
169.1014	1	C13H13+
170.1091	2	C13H14+
171.1168	156	C13H15+
177.0465	119	C11H10Cl+
178.0543	12	C11H11Cl+
191.0622	10	C12H12Cl+
202.9928	19	C8H8ClO2S+
205.0779	31	C13H14Cl+
206.0857	218	C13H15Cl+
216.0702	1	C14H13Cl+
217.0084	46	C9H10ClO2S+
229.0085	2	C10H10ClO2S+
243.0242	1	C11H12ClO2S+
285.0711	26	C14H18ClO2S+
310.0418	3	C13H13ClN3O2S+
317.0968	1	C15H22ClO3S+
