Mass spectrum: Prochloraz; LC-ESI-QFT; MS2; CE: 15; R=17500; [M+H]+
Name: Prochloraz
Name: N-propyl-N-[2-(2,4,6-trichlorophenoxy)ethyl]imidazole-1-carboxamide
Formula: C15H16Cl3N3O2
Exact mass: 375.0308
SMILES: CCCN(CCOC1=C(Cl)C=C(Cl)C=C1Cl)C(=O)N1C=CN=C1
InChI: InChI=1S/C15H16Cl3N3O2/c1-2-4-20(15(22)21-5-3-19-10-21)6-7-23-14-12(17)8-11(16)9-13(14)18/h3,5,8-10H,2,4,6-7H2,1H3
Instrument: Q Exactive Orbitrap (Thermo Scientific)
Instrument type: LC-ESI-QFT
Ms type: MS2
Ion mode: POSITIVE
Ionization: ESI
Fragmentation mode: HCD
Collision energy: 15
Resolution: 17500
Column name: Acquity BEH C18 1.7um, 2.1x150mm (Waters)
Retention time: 18.455 min
Base peak: 79.0211
Precursor m/z: 376.0381
Precursor type: [M+H]+
Precursor intensity: 11582680.3125
m/z	relative intensity	assigned
70.0288	8	C3H4NO+
239.9745	21	C8H9Cl3NO+
265.9538	51	C9H7Cl3NO2+
280.0064	8	C11H13Cl3NO+
283.9645	4	C15H4Cl2NO+
297.9799	6	C13H9Cl3N2+
308.0009	999	C12H13Cl3NO2+
