Mass spectrum: Sulfasalazine; LC-ESI-QFT; MS2; CE: 90; R=17500; [M-H]-
Name: Sulfasalazine
Name: 2-hydroxy-5-[[4-(pyridin-2-ylsulfamoyl)phenyl]diazenyl]benzoic acid
Formula: C18H14N4O5S
Exact mass: 398.0685
SMILES: C1=CC=NC(=C1)NS(=O)(=O)C2=CC=C(C=C2)N=NC3=CC(=C(C=C3)O)C(=O)O
InChI: InChI=1S/C18H14N4O5S/c23-16-9-6-13(11-15(16)18(24)25)21-20-12-4-7-14(8-5-12)28(26,27)22-17-3-1-2-10-19-17/h1-11,23H,(H,19,22)(H,24,25)
Instrument: Q Exactive Orbitrap (Thermo Scientific)
Instrument type: LC-ESI-QFT
Ms type: MS2
Ion mode: NEGATIVE
Ionization: ESI
Fragmentation mode: HCD
Collision energy: 90
Resolution: 17500
Column name: Acquity BEH C18 1.7um, 2.1x150mm (Waters)
Retention time: 17.048 min
Base peak: 221.1182
Precursor m/z: 397.0612
Precursor type: [M-H]-
Precursor intensity: 5892238.703125
m/z	relative intensity	assigned
67.0191	13	C4H3O-
68.9982	21	C3HO2-
69.0346	21	C4H5O-
71.0139	12	C3H3O2-
72.9932	14	C2HO3-
78.0349	86	C5H4N-
82.0059	40	C4H2O2-
90.0349	96	C6H4N-
91.019	33	C6H3O-
91.0302	233	C5H3N2-
92.0268	84	C6H4O-
93.0346	49	C6H5O-
93.0459	31	C5H5N2-
95.0139	999	C5H3O2-
97.0295	14	C5H5O2-
106.0061	56	C6H2O2-
106.0299	8	C6H4NO-
107.0378	13	C6H5NO-
108.0217	928	C6H4O2-
115.0552	6	C9H7-
116.0503	6	C8H6N-
118.0298	43	C7H4NO-
122.0248	90	C6H4NO2-
123.0088	139	C6H3O3-
131.0378	9	C8H5NO-
136.0164	10	C7H4O3-
139.0555	13	C11H7-
141.0711	9	C11H9-
143.0503	42	C10H7O-
158.0485	38	C9H6N2O-
167.0502	137	C12H7O-
167.0615	23	C11H7N2-
169.066	20	C12H9O-
183.0453	14	C12H7O2-
183.0565	18	C11H7N2O-
195.0567	19	C12H7N2O-
196.0638	18	C4H12N4O3S-
197.072	35	C12H9N2O-
212.0593	23	C12H8N2O2-
