Mass spectrum: CP-642931; LC-ESI-QFT; MS2; CE: 90; R=17500; [M+H]+
Name: CP-642931
Name: (1R)-1-[4-[(2R,6S)-4-(4,6-dimethyl-1,3,5-triazin-2-yl)-2,6-dimethylpiperazin-1-yl]pyrimidin-2-yl]ethanol
Formula: C17H25N7O
Exact mass: 343.2121
SMILES: C[C@@H](O)C1=NC(=CC=N1)N1[C@@H](C)CN(C[C@H]1C)C1=NC(C)=NC(C)=N1
InChI: InChI=1S/C17H25N7O/c1-10-8-23(17-20-13(4)19-14(5)21-17)9-11(2)24(10)15-6-7-18-16(22-15)12(3)25/h6-7,10-12,25H,8-9H2,1-5H3/t10-,11+,12-/m1/s1
Instrument: Q Exactive Orbitrap (Thermo Scientific)
Instrument type: LC-ESI-QFT
Ms type: MS2
Ion mode: POSITIVE
Ionization: ESI
Fragmentation mode: HCD
Collision energy: 90
Resolution: 17500
Column name: Acquity BEH C18 1.7um, 2.1x150mm (Waters)
Retention time: 10.435 min
Base peak: 79.0211
Precursor m/z: 344.2193
Precursor type: [M+H]+
Precursor intensity: 22446219
m/z	relative intensity	assigned
52.0182	16	C3H2N+
53.0022	54	C3HO+
53.0386	72	C4H5+
54.0338	249	C3H4N+
55.0291	214	C2H3N2+
55.0542	208	C4H7+
56.0495	999	C3H6N+
57.0447	15	C2H5N2+
57.0572	15	C3H7N+
58.0651	46	C3H8N+
65.0386	64	C5H5+
66.0338	8	C4H4N+
66.0463	12	C5H6+
67.029	201	C3H3N2+
67.0416	86	C4H5N+
67.0542	64	C5H7+
68.0368	21	C3H4N2+
68.0494	329	C4H6N+
69.0447	783	C3H5N2+
69.0698	51	C5H9+
70.0651	75	C4H8N+
78.0338	180	C5H4N+
79.029	27	C4H3N2+
79.0542	445	C6H7+
80.0494	247	C5H6N+
81.0447	325	C4H5N2+
81.0573	90	C5H7N+
81.0698	185	C6H9+
82.0651	448	C5H8N+
83.0603	643	C4H7N2+
84.0557	25	C3H6N3+
84.0808	357	C5H10N+
91.0542	38	C7H7+
92.0495	47	C6H6N+
93.0448	31	C5H5N2+
93.0572	28	C6H7N+
93.0699	25	C7H9+
94.0399	19	C4H4N3+
94.0651	230	C6H8N+
95.0492	67	C6H7O+
95.0604	119	C5H7N2+
95.0729	26	C6H9N+
96.0444	38	C5H6NO+
96.0556	48	C4H6N3+
96.0807	155	C6H10N+
97.076	45	C5H9N2+
97.0885	4	C6H11N+
98.0965	22	C6H12N+
104.0493	7	C7H6N+
105.0447	500	C6H5N2+
106.0525	30	C6H6N2+
106.0651	155	C7H8N+
107.0604	178	C6H7N2+
108.0556	480	C5H6N3+
108.0682	104	C6H8N2+
108.0807	247	C7H10N+
109.076	224	C6H9N2+
110.0601	28	C6H8NO+
110.0713	95	C5H8N3+
110.0841	5	C6H10N2+
110.0963	13	C7H12N+
111.0552	17	C5H7N2O+
111.0917	21	C6H11N2+
112.0505	5	C4H6N3O+
117.0572	11	C8H7N+
118.0651	61	C8H8N+
119.0604	36	C7H7N2+
120.0556	16	C6H6N3+
120.0682	66	C7H8N2+
120.0808	23	C8H10N+
121.076	253	C7H9N2+
122.0712	263	C6H8N3+
122.0838	14	C7H10N2+
123.0791	21	C6H9N3+
123.0916	124	C7H11N2+
124.0758	92	C7H10NO+
124.0869	125	C6H10N3+
125.0709	7	C6H9N2O+
125.0823	17	C5H9N4+
126.0424	4	C3H4N5O+
126.0662	53	C5H8N3O+
132.0556	4	C7H6N3+
132.0681	23	C8H8N2+
133.0635	65	C7H7N3+
133.076	23	C8H9N2+
134.0712	703	C7H8N3+
135.0916	400	C8H11N2+
136.087	107	C7H10N3+
136.0995	70	C8H12N2+
137.0821	34	C6H9N4+
137.1072	32	C8H13N2+
138.0423	3	C4H4N5O+
138.1026	24	C7H12N3+
140.0817	6	C6H10N3O+
142.0977	6	C6H12N3O+
145.0761	24	C9H9N2+
146.0712	107	C8H8N3+
147.0665	73	C7H7N4+
147.079	183	C8H9N3+
147.0914	37	C9H11N2+
148.0868	99	C8H10N3+
149.0822	110	C7H9N4+
149.0946	44	C8H11N3+
160.0869	36	C9H10N3+
162.1025	240	C9H12N3+
163.0977	15	C8H11N4+
164.1182	62	C9H14N3+
165.1133	40	C8H13N4+
172.0869	15	C10H10N3+
175.0984	3	C9H11N4+
176.1179	13	C10H14N3+
186.1022	10	C11H12N3+
187.1106	3	C11H13N3+
202.1335	9	C12H16N3+
205.1448	50	C11H17N4+
226.1089	4	C12H12N5+
