Mass spectrum: CP-114271; LC-ESI-QFT; MS2; CE: 90; R=17500; [M+H]+
Name: CP-114271
Name: 2-[4-[2-[[2-hydroxy-2-[2-(trifluoromethyl)-1,3-thiazol-4-yl]ethyl]amino]propyl]phenoxy]acetic acid
Formula: C17H19F3N2O4S
Exact mass: 404.1018
SMILES: CC(CC1=CC=C(OCC(O)=O)C=C1)NCC(O)C1=CSC(=N1)C(F)(F)F
InChI: InChI=1S/C17H19F3N2O4S/c1-10(6-11-2-4-12(5-3-11)26-8-15(24)25)21-7-14(23)13-9-27-16(22-13)17(18,19)20/h2-5,9-10,14,21,23H,6-8H2,1H3,(H,24,25)
Instrument: Q Exactive Orbitrap (Thermo Scientific)
Instrument type: LC-ESI-QFT
Ms type: MS2
Ion mode: POSITIVE
Ionization: ESI
Fragmentation mode: HCD
Collision energy: 90
Resolution: 17500
Column name: Acquity BEH C18 1.7um, 2.1x150mm (Waters)
Retention time: 13.776 min
Base peak: 79.0211
Precursor m/z: 405.109
Precursor type: [M+H]+
Precursor intensity: 21755552
m/z	relative intensity	assigned
50.0151	1	C4H2+
51.0229	1	C4H3+
53.0022	4	C3HO+
53.0386	19	C4H5+
55.0178	7	C3H3O+
56.0495	3	C3H6N+
63.023	2	C5H3+
65.0386	38	C5H5+
67.0416	26	C4H5N+
77.0385	9	C6H5+
78.0463	8	C6H6+
79.0542	75	C6H7+
81.0335	2	C5H5O+
89.0384	5	C7H5+
90.0462	1	C7H6+
91.0542	999	C7H7+
93.0448	2	C5H5N2+
93.0699	10	C7H9+
94.0414	2	C6H6O+
95.0491	64	C6H7O+
98.0057	2	C4H4NS+
100.0215	6	C4H6NS+
102.0464	12	C8H6+
103.0542	25	C8H7+
104.062	18	C8H8+
105.0333	4	C7H5O+
105.0447	19	C6H5N2+
105.0699	29	C8H9+
107.0491	957	C7H7O+
109.065	1	C7H9O+
115.0542	807	C9H7+
116.0304	3	C2H9FO2S+
116.062	62	C9H8+
117.0698	64	C9H9+
119.0491	9	C8H7O+
119.0855	29	C9H11+
120.0574	3	C8H8O+
121.0649	1	C8H9O+
125.0169	1	C5H5N2S+
128.062	8	C10H8+
129.0696	3	C10H9+
131.0415	1	C5H5F2N2+
131.0493	6	C9H7O+
132.057	11	C9H8O+
133.0647	60	C9H9O+
134.0726	8	C9H10O+
135.0804	40	C9H11O+
143.0605	1	C9H7N2+
145.065	3	C10H9O+
145.076	36	C9H9N2+
147.0804	3	C10H11O+
148.0026	3	C5H4F2NS+
155.0604	1	C10H7N2+
161.032	3	C6H4F3N2+
165.0545	16	C7H11F2S+
