Mass spectrum: Methfuroxam; LC-ESI-QFT; MS2; CE: 90; R=17500; [M+H]+
Name: Methfuroxam
Name: 2,4,5-trimethyl-N-phenylfuran-3-carboxamide
Formula: C14H15NO2
Exact mass: 229.1103
SMILES: CC1=C(C)C(C(=O)NC2=CC=CC=C2)=C(C)O1
InChI: InChI=1S/C14H15NO2/c1-9-10(2)17-11(3)13(9)14(16)15-12-7-5-4-6-8-12/h4-8H,1-3H3,(H,15,16)
Instrument: Q Exactive Orbitrap (Thermo Scientific)
Instrument type: LC-ESI-QFT
Ms type: MS2
Ion mode: POSITIVE
Ionization: ESI
Fragmentation mode: HCD
Collision energy: 90
Resolution: 17500
Column name: Acquity BEH C18 1.7um, 2.1x150mm (Waters)
Retention time: 16.865 min
Base peak: 79.0211
Precursor m/z: 230.1176
Precursor type: [M+H]+
Precursor intensity: 8913438.625
m/z	relative intensity	assigned
50.0152	2	C4H2+
53.0022	9	C3HO+
53.0386	51	C4H5+
55.0179	8	C3H3O+
55.0543	45	C4H7+
65.0386	105	C5H5+
66.0465	2	C5H6+
67.0542	999	C5H7+
69.0335	4	C4H5O+
77.0386	14	C6H5+
79.0542	69	C6H7+
81.0699	93	C6H9+
83.0492	3	C5H7O+
83.0855	8	C6H11+
91.0542	25	C7H7+
92.0495	114	C6H6N+
93.07	21	C7H9+
94.0413	4	C6H6O+
94.0651	2	C6H8N+
95.0492	390	C6H7O+
109.0649	199	C7H9O+
111.0805	23	C7H11O+
120.0444	4	C7H6NO+
124.0758	4	C7H10NO+
137.0598	482	C8H9O2+
