Mass spectrum: Betamethasone; LC-ESI-QFT; MS2; CE: 15; R=17500; [M+H]+
Name: Betamethasone
Name: (8S,9R,10S,11S,13S,14S,16S,17R)-9-fluoro-11,17-dihydroxy-17-(2-hydroxyacetyl)-10,13,16-trimethyl-6,7,8,11,12,14,15,16-octahydrocyclopenta[a]phenanthren-3-one
Formula: C22H29FO5
Exact mass: 392.1999
SMILES: C[C@H]1C[C@H]2[C@@H]3CCC4=CC(=O)C=C[C@]4(C)[C@@]3(F)[C@@H](O)C[C@]2(C)[C@@]1(O)C(=O)CO
InChI: InChI=1S/C22H29FO5/c1-12-8-16-15-5-4-13-9-14(25)6-7-19(13,2)21(15,23)17(26)10-20(16,3)22(12,28)18(27)11-24/h6-7,9,12,15-17,24,26,28H,4-5,8,10-11H2,1-3H3/t12-,15-,16-,17-,19-,20-,21-,22-/m0/s1
Instrument: Q Exactive Orbitrap (Thermo Scientific)
Instrument type: LC-ESI-QFT
Ms type: MS2
Ion mode: POSITIVE
Ionization: ESI
Fragmentation mode: HCD
Collision energy: 15
Resolution: 17500
Column name: Acquity BEH C18 1.7um, 2.1x150mm (Waters)
Retention time: 16.590 min
Base peak: 79.0212
Precursor m/z: 393.2072
Precursor type: [M+H]+
Precursor intensity: 4295469.375
m/z	relative intensity	assigned
135.0802	92	C9H11O+
147.0807	275	C10H11O+
149.0965	87	C10H13O+
153.091	223	C9H13O2+
159.0806	94	C11H11O+
161.0966	88	C11H13O+
171.0805	157	C12H11O+
215.1071	136	C14H15O2+
235.1112	125	C17H15O+
237.1279	235	C17H17O+
267.138	109	C18H19O2+
277.1586	278	C20H21O+
279.1744	770	C20H23O+
309.1851	300	C21H25O2+
325.1792	202	C21H25O3+
337.1802	999	C22H25O3+
393.21	443	C22H30FO5+
