Mass spectrum: Corticosterone; LC-ESI-QFT; MS2; CE: 30; R=17500; [M+H]+
Name: Corticosterone
Name: (8S,9S,10R,11S,13S,14S,17S)-11-hydroxy-17-(2-hydroxyacetyl)-10,13-dimethyl-1,2,6,7,8,9,11,12,14,15,16,17-dodecahydrocyclopenta[a]phenanthren-3-one
Formula: C21H30O4
Exact mass: 346.2144
SMILES: C[C@]12C[C@H](O)[C@H]3[C@@H](CCC4=CC(=O)CC[C@]34C)[C@@H]1CC[C@@H]2C(=O)CO
InChI: InChI=1S/C21H30O4/c1-20-8-7-13(23)9-12(20)3-4-14-15-5-6-16(18(25)11-22)21(15,2)10-17(24)19(14)20/h9,14-17,19,22,24H,3-8,10-11H2,1-2H3/t14-,15-,16+,17-,19+,20-,21-/m0/s1
Instrument: Q Exactive Orbitrap (Thermo Scientific)
Instrument type: LC-ESI-QFT
Ms type: MS2
Ion mode: POSITIVE
Ionization: ESI
Fragmentation mode: HCD
Collision energy: 30
Resolution: 17500
Column name: Acquity BEH C18 1.7um, 2.1x150mm (Waters)
Retention time: 16.831 min
Base peak: 79.0211
Precursor m/z: 347.2217
Precursor type: [M+H]+
Precursor intensity: 606977.6875
m/z	relative intensity	assigned
55.0542	19	C4H7+
69.0332	18	C4H5O+
69.0698	30	C5H9+
79.054	33	C6H7+
81.0698	83	C6H9+
83.0492	133	C5H7O+
87.0439	51	C4H7O2+
93.0701	86	C7H9+
95.0857	124	C7H11+
97.0649	483	C6H9O+
99.044	26	C5H7O2+
101.0598	185	C5H9O2+
105.0699	89	C8H9+
107.0486	24	C7H7O+
107.0857	152	C8H11+
109.0649	180	C7H9O+
109.1012	39	C8H13+
111.0441	21	C6H7O2+
117.0699	23	C9H9+
119.0856	88	C9H11+
121.0649	887	C8H9O+
121.1011	54	C9H13+
123.0804	351	C8H11O+
131.0857	113	C10H11+
133.1012	172	C10H13+
135.0805	235	C9H11O+
135.1168	77	C10H15+
137.0961	55	C9H13O+
143.0857	94	C11H11+
145.1011	122	C11H13+
147.0804	117	C10H11O+
147.1169	104	C11H15+
149.0961	78	C10H13O+
149.1327	32	C11H17+
153.0911	46	C9H13O2+
155.0856	48	C12H11+
157.1013	165	C12H13+
159.0803	47	C11H11O+
159.1169	127	C12H15+
161.0962	111	C11H13O+
161.1328	39	C12H17+
163.1116	195	C11H15O+
169.1012	100	C13H13+
171.0806	27	C12H11O+
171.1169	214	C13H15+
173.0962	75	C12H13O+
173.1327	68	C13H17+
175.1119	217	C12H15O+
177.1275	62	C12H17O+
183.1169	69	C14H15+
185.0965	26	C13H13O+
185.1325	77	C14H17+
187.1119	145	C13H15O+
187.1481	59	C14H19+
189.1272	106	C13H17O+
193.1228	91	C12H17O2+
195.1171	48	C15H15+
197.1325	93	C15H17+
199.1117	49	C14H15O+
201.1275	71	C14H17O+
203.1063	24	C13H15O2+
209.1325	76	C16H17+
211.1119	38	C15H15O+
211.1481	121	C16H19+
213.1276	40	C15H17O+
215.1428	67	C15H19O+
219.1176	17	C17H15+
223.1482	77	C17H19+
225.1271	32	C16H17O+
225.1639	45	C17H21+
227.1433	54	C16H19O+
229.1585	151	C16H21O+
233.1327	29	C18H17+
235.1482	97	C18H19+
237.1272	31	C17H17O+
237.1636	35	C18H21+
239.1429	61	C17H19O+
241.1589	108	C17H21O+
243.1742	59	C17H23O+
247.148	22	C19H19+
249.1639	39	C19H21+
251.1795	85	C19H23+
253.1588	150	C18H21O+
265.1587	49	C19H21O+
265.1953	100	C20H25+
267.1743	78	C19H23O+
269.1903	256	C19H25O+
271.169	50	C18H23O2+
271.2062	53	C19H27O+
275.1797	144	C21H23+
281.1904	90	C20H25O+
283.2066	57	C20H27O+
293.1901	452	C21H25O+
311.2006	530	C21H27O2+
329.2112	999	C21H29O3+
347.2219	666	C21H31O4+
