Mass spectrum: 3-Oxo-N-(2-oxo-2,3-dihydro-1H-benzimidazol-5-yl)butanamide; LC-ESI-QFT; MS2; CE: 75; R=17500; [M-H]-
Name: 3-Oxo-N-(2-oxo-2,3-dihydro-1H-benzimidazol-5-yl)butanamide
Name: 3-oxo-N-(2-oxo-1,3-dihydrobenzimidazol-5-yl)butanamide
Formula: C11H11N3O3
Exact mass: 233.0800
SMILES: CC(=O)CC(=O)NC1=CC2=C(NC(=O)N2)C=C1
InChI: InChI=1S/C11H11N3O3/c1-6(15)4-10(16)12-7-2-3-8-9(5-7)14-11(17)13-8/h2-3,5H,4H2,1H3,(H,12,16)(H2,13,14,17)
Instrument: Q Exactive Orbitrap (Thermo Scientific)
Instrument type: LC-ESI-QFT
Ms type: MS2
Ion mode: NEGATIVE
Ionization: ESI
Fragmentation mode: HCD
Collision energy: 75
Resolution: 17500
Column name: Acquity BEH C18 1.7um, 2.1x150mm (Waters)
Retention time: 9.570 min
Base peak: 134.036
Precursor m/z: 232.0728
Precursor type: [M-H]-
Precursor intensity: 572643.902832
m/z	relative intensity	assigned
83.0139	999	C4H3O2-
93.0455	31	C5H5N2-
119.0255	23	C6H3N2O-
120.0569	168	C6H6N3-
121.0407	53	C6H5N2O-
132.0333	32	C7H4N2O-
146.0363	58	C7H4N3O-
147.0439	372	C7H5N3O-
148.0517	609	C7H6N3O-
174.0309	69	C8H4N3O2-
