Mass spectrum: 5,7-Dimethoxy-2H-chromen-2-one; LC-ESI-QFT; MS2; CE: 60; R=17500; [M+H]+
Name: 5,7-Dimethoxy-2H-chromen-2-one
Name: 5,7-dimethoxychromen-2-one
Formula: C11H10O4
Exact mass: 206.0579
SMILES: COC1=CC2=C(C=CC(=O)O2)C(OC)=C1
InChI: InChI=1S/C11H10O4/c1-13-7-5-9(14-2)8-3-4-11(12)15-10(8)6-7/h3-6H,1-2H3
Instrument: Q Exactive Orbitrap (Thermo Scientific)
Instrument type: LC-ESI-QFT
Ms type: MS2
Ion mode: POSITIVE
Ionization: ESI
Fragmentation mode: HCD
Collision energy: 60
Resolution: 17500
Column name: Acquity BEH C18 1.7um, 2.1x150mm (Waters)
Retention time: 15.959 min
Base peak: 79.0211
Precursor m/z: 207.0652
Precursor type: [M+H]+
Precursor intensity: 12659756.125
m/z	relative intensity	assigned
51.023	1	C4H3+
53.0386	24	C4H5+
55.0178	20	C3H3O+
63.0229	1	C5H3+
65.0385	12	C5H5+
66.0463	13	C5H6+
67.0542	7	C5H7+
68.997	8	C3HO2+
77.0384	7	C6H5+
78.0463	17	C6H6+
79.0542	78	C6H7+
80.062	4	C6H8+
81.0334	24	C5H5O+
81.0698	2	C6H9+
82.0048	2	C4H2O2+
82.0413	2	C5H6O+
83.0126	5	C4H3O2+
85.0284	16	C4H5O2+
89.0386	5	C7H5+
90.0463	14	C7H6+
91.0542	316	C7H7+
92.0255	2	C6H4O+
92.0621	10	C7H8+
93.0336	2	C6H5O+
93.0698	27	C7H9+
94.0413	7	C6H6O+
95.0491	67	C6H7O+
97.0285	1	C5H5O2+
102.0463	5	C8H6+
103.0542	128	C8H7+
104.062	3	C8H8+
105.0335	20	C7H5O+
105.0698	47	C8H9+
106.0412	23	C7H6O+
107.0491	18	C7H7O+
108.0208	2	C6H4O2+
108.0569	38	C7H8O+
109.0284	2	C6H5O2+
109.0647	13	C7H9O+
110.0362	4	C6H6O2+
111.044	3	C6H7O2+
115.0542	4	C9H7+
118.0413	112	C8H6O+
119.0491	85	C8H7O+
120.057	59	C8H8O+
121.0647	698	C8H9O+
122.0362	3	C7H6O2+
123.0439	4	C7H7O2+
123.0804	57	C8H11O+
124.052	2	C7H8O2+
125.0597	5	C7H9O2+
130.0417	1	C9H6O+
131.0493	7	C9H7O+
132.0207	1	C8H4O2+
132.057	19	C9H8O+
133.0284	51	C8H5O2+
133.0647	98	C9H9O+
134.0362	18	C8H6O2+
135.044	47	C8H7O2+
135.0805	9	C9H11O+
136.0519	47	C8H8O2+
137.0233	6	C7H5O3+
137.0596	13	C8H9O2+
138.0312	1	C7H6O3+
138.0673	2	C8H10O2+
139.0753	152	C8H11O2+
145.0283	5	C9H5O2+
146.0361	17	C9H6O2+
147.044	34	C9H7O2+
148.0518	331	C9H8O2+
149.0233	187	C8H5O3+
149.0597	22	C9H9O2+
151.0753	543	C9H11O2+
152.047	2	C8H8O3+
153.0545	21	C8H9O3+
161.0598	5	C10H9O2+
162.0312	62	C9H6O3+
163.039	365	C9H7O3+
163.0752	349	C10H11O2+
164.0467	901	C9H8O3+
165.0546	2	C9H9O3+
173.0233	1	C10H5O3+
174.031	1	C10H6O3+
175.0389	14	C10H7O3+
177.0545	3	C10H9O3+
179.0702	60	C10H11O3+
191.0339	73	C10H7O4+
192.0416	999	C10H8O4+
207.0651	808	C11H11O4+
