Mass spectrum: AVE6324; LC-ESI-QFT; MS2; CE: 45; R=17500; [M+H]+
Name: AVE6324
Name: [(1R)-1-ethoxycarbonyloxyethyl] 1-[[5-(5-chlorothiophen-2-yl)-1,2-oxazol-3-yl]methyl]-2-[(1-propan-2-ylpiperidin-4-yl)carbamoyl]indole-5-carboxylate
Formula: C31H35ClN4O7S
Exact mass: 642.1915
SMILES: CCOC(=O)O[C@H](C)OC(=O)c1ccc2c(c1)cc(C(=O)NC1CCN(C(C)C)CC1)n2Cc1cc(-c2ccc(Cl)s2)on1
InChI: InChI=1S/C31H35ClN4O7S/c1-5-40-31(39)42-19(4)41-30(38)20-6-7-24-21(14-20)15-25(29(37)33-22-10-12-35(13-11-22)18(2)3)36(24)17-23-16-26(43-34-23)27-8-9-28(32)44-27/h6-9,14-16,18-19,22H,5,10-13,17H2,1-4H3,(H,33,37)/t19-/m1/s1
Instrument: Q Exactive Orbitrap (Thermo Scientific)
Instrument type: LC-ESI-QFT
Ms type: MS2
Ion mode: POSITIVE
Ionization: ESI
Fragmentation mode: HCD
Collision energy: 45
Resolution: 17500
Column name: Acquity BEH C18 1.7um, 2.1x150mm (Waters)
Retention time: 17.315 min
Base peak: 79.0212
Precursor m/z: 643.1988
Precursor type: [M+H]+
Precursor intensity: 7669126.21875
m/z	relative intensity	assigned
53.0022	1	C3HO+
53.0385	1	C4H5+
55.0542	35	C4H7+
56.0495	102	C3H6N+
57.0699	2	C4H9+
58.0651	21	C3H8N+
65.0384	2	C5H5+
67.0416	1	C4H5N+
67.0542	20	C5H7+
69.0573	1	C4H7N+
69.0698	14	C5H9+
70.0651	21	C4H8N+
71.0729	1	C4H9N+
72.0807	41	C4H10N+
72.984	3	C3H2Cl+
80.0493	7	C5H6N+
82.0651	109	C5H8N+
84.0808	409	C5H10N+
86.0964	4	C5H12N+
96.081	2	C6H10N+
98.0964	17	C6H12N+
108.0808	1	C7H10N+
109.0887	1	C7H11N+
110.0964	32	C7H12N+
112.1121	5	C7H14N+
122.0964	15	C8H12N+
124.1121	414	C8H14N+
126.1277	999	C8H16N+
127.0865	25	C6H11N2O+
127.1228	2	C7H15N2+
129.0575	2	C9H7N+
130.0653	3	C9H8N+
130.9718	2	C5H4ClS+
137.1075	2	C8H13N2+
139.1229	4	C8H15N2+
141.1385	7	C8H17N2+
142.0288	2	C9H4NO+
142.9716	46	C6H4ClS+
144.0445	11	C9H6NO+
144.0555	1	C8H6N3+
144.9509	545	C5H2ClOS+
153.1025	1	C8H13N2O+
155.0605	1	C10H7N2+
157.0524	12	C10H7NO+
158.0599	2	C10H8NO+
161.0471	9	C9H7NO2+
162.0009	2	C8H4NOS+
167.118	6	C9H15N2O+
167.9671	3	C7H3ClNS+
169.0394	8	C10H5N2O+
169.1335	41	C9H17N2O+
169.9824	45	C7H5ClNS+
170.9666	3	C7H4ClOS+
172.0391	1	C10H6NO2+
172.0629	3	C10H8N2O+
174.0548	6	C10H8NO2+
183.0552	2	C11H7N2O+
187.0503	10	C10H7N2O2+
188.0342	237	C10H6NO3+
189.0419	3	C10H7NO3+
195.0553	5	C12H7N2O+
195.9622	1	C8H3ClNOS+
196.0636	1	C9H11ClN3+
197.0709	3	C12H9N2O+
197.9775	232	C8H5ClNOS+
199.0501	9	C11H7N2O2+
202.0496	7	ClH15N4O4S+
204.0528	4	C10H8N2O3+
213.0656	3	C12H9N2O2+
214.0498	3	C12H8NO3+
215.988	1	C8H7ClNO2S+
216.029	2	ClH13N4O5S+
216.0662	1	C6H16O6S+
223.0502	61	C7H12ClN2O4+
225.0662	4	C10H12ClN3O+
227.0454	1	C9H10ClN3O2+
230.0036	4	C9H9ClNO2S+
239.0449	7	C13H7N2O3+
243.0399	68	C12H7N2O4+
270.0132	1	C18H6OS+
277.0423	6	C16H9N2OS+
278.0508	5	C16H10N2OS+
278.0686	3	C16H10N2O3+
297.1837	19	C18H23N3O+
305.0383	11	C14H12ClN3OS+
306.0454	16	C17H10N2O2S+
311.0039	4	C16H8ClN2OS+
312.1705	49	C18H22N3O2+
313.0194	10	C19H7NO2S+
314.0039	11	C16H9ClNO2S+
321.0329	24	C17H9N2O3S+
322.0406	26	C17H10N2O3S+
329.1732	32	C18H23N3O3+
336.0202	1	C14H11ClN3O3S+
338.9988	20	C17H8ClN2O2S+
341.0144	149	C17H10ClN2O2S+
344.0027	4	C24H5ClO+
357.0094	68	C17H10ClN2O3S+
370.0404	10	C21H10N2O3S+
371.9967	23	C17H9ClN2O4S+
384.0203	63	C18H11ClN3O3S+
385.0045	86	C18H10ClN2O4S+
413.0358	3	C20H14ClN2O4S+
422.0359	3	C21H13ClN3O3S+
466.1227	19	C24H23ClN4O2S+
467.0941	9	C23H20ClN4O3S+
509.1409	556	C26H26ClN4O3S+
