Mass spectrum: Dipropyl 2,5-pyridinedicarboxylate; LC-ESI-QFT; MS2; CE: 30; R=17500; [M+H]+
Name: Dipropyl 2,5-pyridinedicarboxylate
Name: Dipropyl isocinchomeronate
Name: dipropyl pyridine-2,5-dicarboxylate
Formula: C13H17NO4
Exact mass: 251.1158
SMILES: CCCOC(=O)C1=CC=C(N=C1)C(=O)OCCC
InChI: InChI=1S/C13H17NO4/c1-3-7-17-12(15)10-5-6-11(14-9-10)13(16)18-8-4-2/h5-6,9H,3-4,7-8H2,1-2H3
Instrument: Q Exactive Orbitrap (Thermo Scientific)
Instrument type: LC-ESI-QFT
Ms type: MS2
Ion mode: POSITIVE
Ionization: ESI
Fragmentation mode: HCD
Collision energy: 30
Resolution: 17500
Column name: Acquity BEH C18 1.7um, 2.1x150mm (Waters)
Retention time: 17.731 min
Base peak: 79.0212
Precursor m/z: 252.123
Precursor type: [M+H]+
Precursor intensity: 38207337.25
m/z	relative intensity	assigned
95.0368	1	C5H5NO+
122.0241	3	C6H4NO2+
123.032	2	C6H5NO2+
140.0342	101	C6H6NO3+
164.0702	2	C9H10NO2+
168.0292	78	C7H6NO4+
182.0813	284	C9H12NO3+
192.0653	1	C10H10NO3+
196.0969	4	C10H14NO3+
210.0761	999	C10H12NO4+
224.0917	8	C11H14NO4+
252.1231	67	C13H18NO4+
