Mass spectrum: Bis[2-(2-butoxyethoxy)ethyl] hexandioate; LC-ESI-QFT; MS2; CE: 90; R=17500; [M+H]+
Name: Bis[2-(2-butoxyethoxy)ethyl] hexandioate
Name: Bis[2-(2-butoxyethoxy)ethyl] adipate
Name: bis[2-(2-butoxyethoxy)ethyl] hexanedioate
Formula: C22H42O8
Exact mass: 434.2880
SMILES: CCCCOCCOCCOC(=O)CCCCC(=O)OCCOCCOCCCC
InChI: InChI=1S/C22H42O8/c1-3-5-11-25-13-15-27-17-19-29-21(23)9-7-8-10-22(24)30-20-18-28-16-14-26-12-6-4-2/h3-20H2,1-2H3
Instrument: Q Exactive Orbitrap (Thermo Scientific)
Instrument type: LC-ESI-QFT
Ms type: MS2
Ion mode: POSITIVE
Ionization: ESI
Fragmentation mode: HCD
Collision energy: 90
Resolution: 17500
Column name: Acquity BEH C18 1.7um, 2.1x150mm (Waters)
Retention time: 18.791 min
Base peak: 79.0212
Precursor m/z: 435.2952
Precursor type: [M+H]+
Precursor intensity: 3263109.125
m/z	relative intensity	assigned
53.0023	45	C3HO+
53.0386	30	C4H5+
55.0179	115	C3H3O+
55.0543	999	C4H7+
57.0699	496	C4H9+
59.0491	24	C3H7O+
65.0386	82	C5H5+
67.0543	311	C5H7+
69.0335	264	C4H5O+
73.0284	39	C3H5O2+
73.0647	11	C4H9O+
83.0492	573	C5H7O+
85.0647	23	C5H9O+
87.0441	10	C4H7O2+
89.0233	32	C3H5O3+
89.0597	63	C4H9O2+
93.0335	22	C6H5O+
95.0491	23	C6H7O+
99.0441	175	C5H7O2+
111.0441	401	C6H7O2+
113.0598	214	C6H9O2+
127.0753	30	C7H11O2+
137.0596	19	C8H9O2+
155.0701	31	C8H11O3+
