Mass spectrum: Cinchophen; LC-ESI-QFT; MS2; CE: 75; R=17500; [M-H]-
Name: Cinchophen
Name: 2-phenylquinoline-4-carboxylic acid
Formula: C16H11NO2
Exact mass: 249.0790
SMILES: OC(=O)C1=C2C=CC=CC2=NC(=C1)C1=CC=CC=C1
InChI: InChI=1S/C16H11NO2/c18-16(19)13-10-15(11-6-2-1-3-7-11)17-14-9-5-4-8-12(13)14/h1-10H,(H,18,19)
Instrument: Q Exactive Orbitrap (Thermo Scientific)
Instrument type: LC-ESI-QFT
Ms type: MS2
Ion mode: NEGATIVE
Ionization: ESI
Fragmentation mode: HCD
Collision energy: 75
Resolution: 17500
Column name: Acquity BEH C18 1.7um, 2.1x150mm (Waters)
Retention time: 17.000 min
Base peak: 213.0557
Precursor m/z: 248.0717
Precursor type: [M-H]-
Precursor intensity: 13341115.83594
m/z	relative intensity	assigned
101.0397	147	C8H5-
102.035	521	C7H4N-
146.0248	29	C8H4NO2-
203.0742	999	C15H9N-
204.0818	653	C15H10N-
220.0769	90	C15H10NO-
