Mass spectrum: Pimozide; LC-ESI-QFT; MS2; CE: 45; R=17500; [M+H]+
Name: Pimozide
Name: 3-[1-[4,4-bis(4-fluorophenyl)butyl]piperidin-4-yl]-1H-benzimidazol-2-one
Formula: C28H29F2N3O
Exact mass: 461.2279
SMILES: FC1=CC=C(C=C1)C(CCCN1CCC(CC1)N1C(=O)NC2=C1C=CC=C2)C1=CC=C(F)C=C1
InChI: InChI=1S/C28H29F2N3O/c29-22-11-7-20(8-12-22)25(21-9-13-23(30)14-10-21)4-3-17-32-18-15-24(16-19-32)33-27-6-2-1-5-26(27)31-28(33)34/h1-2,5-14,24-25H,3-4,15-19H2,(H,31,34)
Instrument: Q Exactive Orbitrap (Thermo Scientific)
Instrument type: LC-ESI-QFT
Ms type: MS2
Ion mode: POSITIVE
Ionization: ESI
Fragmentation mode: HCD
Collision energy: 45
Resolution: 17500
Column name: Acquity BEH C18 1.7um, 2.1x150mm (Waters)
Retention time: 15.883 min
Base peak: 79.0212
Precursor m/z: 462.2351
Precursor type: [M+H]+
Precursor intensity: 18231204
m/z	relative intensity	assigned
53.0386	1	C4H5+
55.0542	37	C4H7+
56.0495	20	C3H6N+
58.0652	1	C3H8N+
65.0386	2	C5H5+
67.0542	32	C5H7+
68.0493	1	C4H6N+
69.0699	7	C5H9+
70.0651	63	C4H8N+
80.0495	1	C5H6N+
82.0651	21	C5H8N+
83.0291	2	C5H4F+
83.0729	10	C5H9N+
84.0808	137	C5H10N+
86.0963	4	C5H12N+
96.0808	26	C6H10N+
97.0886	6	C6H11N+
98.0964	635	C6H12N+
107.0604	2	C6H7N2+
109.0448	999	C7H6F+
110.0964	28	C7H12N+
111.1043	1	C7H13N+
112.1121	18	C7H14N+
119.0602	1	C7H7N2+
121.0449	13	C8H6F+
122.0964	2	C8H12N+
123.0605	51	C8H8F+
124.1121	54	C8H14N+
125.12	7	C8H15N+
126.1274	2	C8H16N+
129.0699	2	C10H9+
130.0651	5	C9H8N+
131.0729	2	C9H9N+
133.0448	3	C9H6F+
134.0472	1	C7H6N2O+
134.0527	1	C9H7F+
135.0552	70	C7H7N2O+
135.0605	47	C9H8F+
145.0652	4	C10H9O+
145.0758	7	C9H9N2+
146.0526	4	C10H7F+
147.0605	820	C10H8F+
149.0761	300	C10H10F+
155.0604	7	C10H7N2+
159.0553	1	C9H7N2O+
173.0709	537	C10H9N2O+
177.0698	3	C14H9+
178.1028	7	C11H13FN+
183.0599	4	C8H7F2N3+
186.0789	2	C11H10N2O+
187.0866	19	C11H11N2O+
192.1184	3	C12H15FN+
197.0762	13	C14H10F+
201.1022	487	C12H13N2O+
202.0587	1	C13H8F2+
203.0666	129	C13H9F2+
214.059	3	C14H8F2+
215.0667	3	C14H9F2+
217.0823	60	C14H11F2+
218.1286	10	C12H16N3O+
230.1288	45	C13H16N3O+
232.1493	11	C15H19FN+
243.0979	47	C16H13F2+
274.1401	51	C17H18F2N+
326.1715	263	C21H22F2N+
328.1871	678	C21H24F2N+
366.1984	1	C27H26O+
460.2199	2	C28H28F2N3O+
462.2354	227	C28H30F2N3O+
