Mass spectrum: Oxycarboxin; LC-ESI-QFT; MS2; CE: 30; R=17500; [M+H]+
Name: Oxycarboxin
Name: 6-methyl-4,4-dioxo-N-phenyl-2,3-dihydro-1,4-oxathiine-5-carboxamide
Formula: C12H13NO4S
Exact mass: 267.0565
SMILES: CC1=C(C(=O)NC2=CC=CC=C2)S(=O)(=O)CCO1
InChI: InChI=1S/C12H13NO4S/c1-9-11(18(15,16)8-7-17-9)12(14)13-10-5-3-2-4-6-10/h2-6H,7-8H2,1H3,(H,13,14)
Instrument: Q Exactive Orbitrap (Thermo Scientific)
Instrument type: LC-ESI-QFT
Ms type: MS2
Ion mode: POSITIVE
Ionization: ESI
Fragmentation mode: HCD
Collision energy: 30
Resolution: 17500
Column name: Acquity BEH C18 1.7um, 2.1x150mm (Waters)
Retention time: 13.629 min
Base peak: 79.0211
Precursor m/z: 268.0638
Precursor type: [M+H]+
Precursor intensity: 4957633.3125
m/z	relative intensity	assigned
62.0184	9	C2H6S+
83.0128	3	C4H3O2+
120.0444	17	C7H6NO+
146.9748	3	C4H3O4S+
175.006	999	C6H7O4S+
182.9955	1	C10HNO3+
189.0896	8	C12H13O2+
193.0166	233	C12H3NO2+
207.0321	40	C10H9NO2S+
207.9606	13	C12O2S+
250.0535	2	C12H12NO3S+
268.0634	8	C12H14NO4S+
