Mass spectrum: Coumaphos; LC-ESI-QFT; MS2; CE: 15; R=17500; [M+H]+
Name: Coumaphos
Formula: C14H16ClO5PS
Exact mass: 362.0145
SMILES: CCOP(=S)(OCC)OC1=CC2=C(C=C1)C(C)=C(Cl)C(=O)O2
InChI: InChI=1S/C14H16ClO5PS/c1-4-17-21(22,18-5-2)20-10-6-7-11-9(3)13(15)14(16)19-12(11)8-10/h6-8H,4-5H2,1-3H3
Instrument: Q Exactive Orbitrap (Thermo Scientific)
Instrument type: LC-ESI-QFT
Ms type: MS2
Ion mode: POSITIVE
Ionization: ESI
Fragmentation mode: HCD
Collision energy: 15
Resolution: 17500
Column name: Acquity BEH C18 1.7um, 2.1x150mm (Waters)
Retention time: 18.628 min
Base peak: 79.0212
Precursor m/z: 363.0217
Precursor type: [M+H]+
Precursor intensity: 11203588.34375
m/z	relative intensity	assigned
98.9842	18	H4O4P+
127.0155	90	C2H8O4P+
129.0198	2	C5H5O4+
155.0468	338	C4H12O4P+
157.0512	8	C7H9O4+
208.9315	43	C5H2ClO5S+
211.0164	2	C10H8ClO3+
225.9855	1	C10H7ClO2S+
226.9928	19	C10H8ClO2S+
288.9486	2	C10H7ClO4PS+
290.0152	1	C14H11O3PS+
306.9593	129	C10H9ClO5PS+
317.0383	27	C13H15ClO5P+
334.9905	166	C12H13ClO5PS+
363.0217	999	C14H17ClO5PS+
