Mass spectrum: Milrinone; LC-ESI-QFT; MS2; CE: 60; R=17500; [M-H]-
Name: Milrinone
Name: 6-methyl-2-oxo-5-pyridin-4-yl-1H-pyridine-3-carbonitrile
Formula: C12H9N3O
Exact mass: 211.0746
SMILES: CC1=C(C=C(C#N)C(=O)N1)C1=CC=NC=C1
InChI: InChI=1S/C12H9N3O/c1-8-11(9-2-4-14-5-3-9)6-10(7-13)12(16)15-8/h2-6H,1H3,(H,15,16)
Instrument: Q Exactive Orbitrap (Thermo Scientific)
Instrument type: LC-ESI-QFT
Ms type: MS2
Ion mode: NEGATIVE
Ionization: ESI
Fragmentation mode: HCD
Collision energy: 60
Resolution: 17500
Column name: Acquity BEH C18 1.7um, 2.1x150mm (Waters)
Retention time: 3.062 min
Base peak: 210.0672
Precursor m/z: 210.0673
Precursor type: [M-H]-
Precursor intensity: 2802033.930664
m/z	relative intensity	assigned
50.0036	5	C3N-
64.0193	8	C4H2N-
65.0145	112	C3HN2-
65.9985	99	C3NO-
90.0349	31	C6H4N-
91.0301	9	C5H3N2-
92.0506	4	C6H6N-
93.0095	12	C4HN2O-
102.035	7	C7H4N-
107.0251	77	C5H3N2O-
116.0506	68	C8H6N-
117.0458	90	C7H5N2-
118.0298	44	C7H4NO-
133.0405	4	C7H5N2O-
140.0504	6	C10H6N-
141.0459	123	C9H5N2-
143.0614	226	C9H7N2-
159.0565	16	C9H7N2O-
166.0411	284	C10H4N3-
167.0614	471	C11H7N2-
168.0567	90	C10H6N3-
169.0409	7	C10H5N2O-
182.0724	29	C11H8N3-
183.0564	34	C11H7N2O-
194.036	56	C11H4N3O-
208.0516	17	C12H6N3O-
210.0673	999	C12H8N3O-
