Mass spectrum: Fenamiphos; LC-ESI-QFT; MS2; CE: 15; R=17500; [M+H]+
Name: Fenamiphos
Name: N-[ethoxy-(3-methyl-4-methylsulfanylphenoxy)phosphoryl]propan-2-amine
Formula: C13H22NO3PS
Exact mass: 303.1058
SMILES: CCOP(=O)(NC(C)C)OC1=CC=C(SC)C(C)=C1
InChI: InChI=1S/C13H22NO3PS/c1-6-16-18(15,14-10(2)3)17-12-7-8-13(19-5)11(4)9-12/h7-10H,6H2,1-5H3,(H,14,15)
Instrument: Q Exactive Orbitrap (Thermo Scientific)
Instrument type: LC-ESI-QFT
Ms type: MS2
Ion mode: POSITIVE
Ionization: ESI
Fragmentation mode: HCD
Collision energy: 15
Resolution: 17500
Column name: Acquity BEH C18 1.7um, 2.1x150mm (Waters)
Retention time: 18.218 min
Base peak: 79.0212
Precursor m/z: 304.1131
Precursor type: [M+H]+
Precursor intensity: 42799130.0625
m/z	relative intensity	assigned
60.0808	28	C3H10N+
154.0456	2	C4H13NOPS+
155.0525	1	C8H11OS+
217.0083	48	C8H10O3PS+
234.0349	160	C8H13NO3PS+
245.0396	27	C10H14O3PS+
262.0662	210	C10H17NO3PS+
276.0819	301	C11H19NO3PS+
304.1131	999	C13H23NO3PS+
