Mass spectrum: Methyl red; LC-ESI-QFT; MS2; CE: 90; R=17500; [M+H]+
Name: Methyl red
Name: 2-[[4-(dimethylamino)phenyl]diazenyl]benzoic acid
Formula: C15H15N3O2
Exact mass: 269.1164
SMILES: CN(C)C1=CC=C(C=C1)N=NC2=CC=CC=C2C(=O)O
InChI: InChI=1S/C15H15N3O2/c1-18(2)12-9-7-11(8-10-12)16-17-14-6-4-3-5-13(14)15(19)20/h3-10H,1-2H3,(H,19,20)
Instrument: Q Exactive Orbitrap (Thermo Scientific)
Instrument type: LC-ESI-QFT
Ms type: MS2
Ion mode: POSITIVE
Ionization: ESI
Fragmentation mode: HCD
Collision energy: 90
Resolution: 17500
Column name: Acquity BEH C18 1.7um, 2.1x150mm (Waters)
Retention time: 18.101 min
Base peak: 79.0211
Precursor m/z: 270.1237
Precursor type: [M+H]+
Precursor intensity: 6160757.625
m/z	relative intensity	assigned
53.0386	58	C4H5+
54.0339	2	C3H4N+
55.0179	2	C3H3O+
57.0699	3	C4H9+
58.0652	4	C3H8N+
63.023	2	C5H3+
65.0386	38	C5H5+
67.0542	6	C5H7+
68.0494	10	C4H6N+
72.0444	4	C3H6NO+
72.0806	1	C4H10N+
74.0964	8	C4H12N+
77.0385	21	C6H5+
78.0464	17	C6H6+
79.0542	214	C6H7+
80.0495	34	C5H6N+
81.0336	11	C5H5O+
81.0573	6	C5H7N+
82.0287	2	C4H4NO+
91.0542	211	C7H7+
92.0495	25	C6H6N+
92.0621	48	C7H8+
93.0573	13	C6H7N+
93.0699	42	C7H9+
94.0651	25	C6H8N+
95.0492	154	C6H7O+
96.0443	5	C5H6NO+
96.0807	9	C6H10N+
103.0543	51	C8H7+
104.0495	79	C7H6N+
105.0448	62	C6H5N2+
105.0573	238	C7H7N+
109.0647	4	C7H9O+
110.06	11	C6H8NO+
115.0542	84	C9H7+
117.057	7	C8H7N+
118.0651	60	C8H8N+
119.0603	5	C7H7N2+
119.073	33	C8H9N+
120.0808	122	C8H10N+
122.0601	3	C7H8NO+
124.0758	11	C7H10NO+
127.0541	11	C10H7+
128.062	29	C10H8+
129.0697	12	C10H9+
130.0652	5	C9H8N+
131.0732	3	C9H9N+
132.0809	14	C9H10N+
133.0759	8	C8H9N2+
136.076	2	C8H10NO+
137.0471	4	C7H7NO2+
138.0915	3	C8H12NO+
139.0542	82	C11H7+
140.0495	36	C10H6N+
140.0622	16	C11H8+
141.0699	19	C11H9+
145.0649	22	C10H9O+
146.0964	3	C10H12N+
147.1043	5	C10H13N+
148.0757	191	C9H10NO+
150.0465	4	C12H6+
151.0543	10	C12H7+
151.0628	7	C8H9NO2+
152.0621	999	C12H8+
153.0699	382	C12H9+
154.0653	10	C11H8N+
154.0776	30	C12H10+
155.049	4	C11H7O+
155.0603	38	C10H7N2+
155.0728	2	C11H9N+
155.0854	2	C12H11+
164.0623	3	C13H8+
165.07	98	C13H9+
166.0652	437	C12H8N+
167.0493	10	C12H7O+
167.0729	7	C12H9N+
167.0856	14	C13H11+
168.0568	10	C12H8O+
168.081	4	C12H10N+
169.0648	76	C12H9O+
171.0801	4	C12H11O+
176.0624	3	C14H8+
177.07	2	C14H9+
178.0651	13	C13H8N+
178.0777	9	C14H10+
179.05	2	C13H7O+
179.0604	29	C12H7N2+
179.073	21	C13H9N+
180.0571	81	C13H8O+
180.0807	413	C13H10N+
181.0648	42	C13H9O+
181.0886	42	C13H11N+
183.0802	2	C13H11O+
184.076	2	C12H10NO+
190.0647	7	C14H8N+
192.0809	3	C14H10N+
193.0886	5	C14H11N+
194.0601	11	C13H8NO+
194.0965	51	C14H12N+
195.1041	13	C14H13N+
196.0757	30	C13H10NO+
204.0807	4	C15H10N+
206.0602	19	C14H8NO+
207.0556	12	C13H7N2O+
207.0679	34	C14H9NO+
208.0759	94	C14H10NO+
209.0839	2	C14H11NO+
212.0469	4	C11H6N3O2+
222.0914	41	C15H12NO+
222.1025	7	C14H12N3+
236.0827	1	C14H10N3O+
