Mass spectrum: Haloxyfop; LC-ESI-QFT; MS2; CE: 30; R=17500; [M-H]-
Name: Haloxyfop
Name: 2-[4-[3-chloro-5-(trifluoromethyl)pyridin-2-yl]oxyphenoxy]propanoic acid
Formula: C15H11ClF3NO4
Exact mass: 361.0329
SMILES: CC(OC1=CC=C(OC2=NC=C(C=C2Cl)C(F)(F)F)C=C1)C(O)=O
InChI: InChI=1S/C15H11ClF3NO4/c1-8(14(21)22)23-10-2-4-11(5-3-10)24-13-12(16)6-9(7-20-13)15(17,18)19/h2-8H,1H3,(H,21,22)
Instrument: Q Exactive Orbitrap (Thermo Scientific)
Instrument type: LC-ESI-QFT
Ms type: MS2
Ion mode: NEGATIVE
Ionization: ESI
Fragmentation mode: HCD
Collision energy: 30
Resolution: 17500
Column name: Acquity BEH C18 1.7um, 2.1x150mm (Waters)
Retention time: 18.614 min
Base peak: 360.0257
Precursor m/z: 360.0256
Precursor type: [M-H]-
Precursor intensity: 25621816.76172
m/z	relative intensity	assigned
71.0139	138	C3H3O2-
108.0215	5	C6H4O2-
162.0172	5	C6H3F3NO-
179.9833	19	C6H2ClF3N-
195.9777	12	C6H2ClF3NO-
197.9938	5	C6H4ClF3NO-
208.0378	1	C11H5F3N-
213.0722	1	C14H10FO-
224.0326	4	C11H5F3NO-
232.0212	1	C12H4F2NO2-
242.0431	1	C11H7F3NO2-
252.0278	126	C12H5F3NO2-
253.0352	1	C12H6F3NO2-
280.0588	2	C14H9F3NO2-
288.0044	999	C12H6ClF3NO2-
