Mass spectrum: 6-Ethoxy-2,3,4-trimethyl-1,2,3,4-tetrahydroquinoline; LC-ESI-QFT; MS2; CE: 60; R=17500; [M+H]+
Name: 6-Ethoxy-2,3,4-trimethyl-1,2,3,4-tetrahydroquinoline
Name: 6-Ethoxy-2,2,4-trimethyl-1,2,3,4-tetrahydroquinoline
Name: 6-ethoxy-2,2,4-trimethyl-3,4-dihydro-1H-quinoline
Formula: C14H21NO
Exact mass: 219.1623
SMILES: CCOC1=CC=C2NC(C)(C)CC(C)C2=C1
InChI: InChI=1S/C14H21NO/c1-5-16-11-6-7-13-12(8-11)10(2)9-14(3,4)15-13/h6-8,10,15H,5,9H2,1-4H3
Instrument: Q Exactive Orbitrap (Thermo Scientific)
Instrument type: LC-ESI-QFT
Ms type: MS2
Ion mode: POSITIVE
Ionization: ESI
Fragmentation mode: HCD
Collision energy: 60
Resolution: 17500
Column name: Acquity BEH C18 1.7um, 2.1x150mm (Waters)
Retention time: 13.808 min
Base peak: 79.0211
Precursor m/z: 220.1696
Precursor type: [M+H]+
Precursor intensity: 14525416.3125
m/z	relative intensity	assigned
55.0543	1	C4H7+
79.0542	1	C6H7+
80.0494	1	C5H6N+
81.0699	1	C6H9+
91.0542	45	C7H7+
92.0495	1	C6H6N+
93.0574	15	C6H7N+
93.0699	9	C7H9+
94.0651	3	C6H8N+
95.0491	1	C6H7O+
103.0543	6	C8H7+
106.065	3	C7H8N+
107.0493	1	C7H7O+
107.0729	6	C7H9N+
108.0808	62	C7H10N+
109.0648	5	C7H9O+
110.0601	2	C6H8NO+
117.0573	2	C8H7N+
118.0651	25	C8H8N+
119.0492	20	C8H7O+
119.073	29	C8H9N+
119.0853	2	C9H11+
120.0808	29	C8H10N+
121.0886	2	C8H11N+
122.0601	17	C7H8NO+
134.0601	18	C8H8NO+
135.0679	261	C8H9NO+
136.0757	374	C8H10NO+
138.0912	1	C8H12NO+
150.0914	10	C9H12NO+
163.099	2	C10H13NO+
164.107	999	C10H14NO+
204.1385	1	C13H18NO+
220.1694	1	C14H22NO+
