Mass spectrum: Sulfisoxazole; LC-ESI-QFT; MS2; CE: 75; R=17500; [M+H]+
Name: Sulfisoxazole
Name: 4-amino-N-(3,4-dimethyl-1,2-oxazol-5-yl)benzenesulfonamide
Formula: C11H13N3O3S
Exact mass: 267.0678
SMILES: CC1=NOC(NS(=O)(=O)C2=CC=C(N)C=C2)=C1C
InChI: InChI=1S/C11H13N3O3S/c1-7-8(2)13-17-11(7)14-18(15,16)10-5-3-9(12)4-6-10/h3-6,14H,12H2,1-2H3
Instrument: Q Exactive Orbitrap (Thermo Scientific)
Instrument type: LC-ESI-QFT
Ms type: MS2
Ion mode: POSITIVE
Ionization: ESI
Fragmentation mode: HCD
Collision energy: 75
Resolution: 17500
Column name: Acquity BEH C18 1.7um, 2.1x150mm (Waters)
Retention time: 12.458 min
Base peak: 79.0211
Precursor m/z: 268.075
Precursor type: [M+H]+
Precursor intensity: 16066966.3125
m/z	relative intensity	assigned
53.0022	10	C3HO+
53.0386	12	C4H5+
54.0339	11	C3H4N+
55.0179	124	C3H3O+
56.0496	2	C3H6N+
58.0651	9	C3H8N+
61.0106	2	C2H5S+
62.0185	14	C2H6S+
63.0229	1	C5H3+
65.0386	909	C5H5+
66.0337	2	C4H4N+
67.0178	2	C4H3O+
67.0542	2	C5H7+
68.0495	269	C4H6N+
69.0334	6	C4H5O+
70.065	6	C4H8N+
71.0604	109	C3H7N2+
72.0443	18	C3H6NO+
78.0338	11	C5H4N+
79.0178	16	C5H3O+
79.0542	24	C6H7+
80.0495	202	C5H6N+
80.0575	11	CH8N2O2+
82.0286	3	C4H4NO+
83.0491	4	C5H7O+
85.0761	12	C4H9N2+
86.06	6	C4H8NO+
90.0337	1	C6H4N+
92.0495	999	C6H6N+
93.0574	8	C6H7N+
94.0654	2	C6H8N+
95.0365	3	C5H5NO+
95.0492	9	C6H7O+
95.0603	4	C5H7N2+
96.0444	97	C5H6NO+
105.0446	2	C6H5N2+
106.0652	390	C7H8N+
107.0685	286	C2H9N3O2+
108.0444	952	C6H6NO+
109.0522	7	C6H7NO+
110.0601	312	C6H8NO+
113.0709	126	C5H9N2O+
120.0445	4	C7H6NO+
120.0556	14	C6H6N3+
121.0477	3	C2H7N3O3+
124.0758	7	C7H10NO+
134.0601	17	C8H8NO+
135.0632	15	C3H9N3O3+
140.0164	8	C6H6NOS+
156.0113	11	C6H6NO2S+
162.0549	11	C9H8NO2+
163.0582	15	C10H11S+
180.0656	121	C9H10NO3+
181.069	136	C10H13OS+
195.0846	3	C9H13N3S+
