Mass spectrum: 4-Nitrosodiphenylamine; LC-ESI-QFT; MS2; CE: 45; R=17500; [M+H]+
Name: 4-Nitrosodiphenylamine
Name: 4-nitroso-N-phenylaniline
Formula: C12H10N2O
Exact mass: 198.0793
SMILES: O=NC1=CC=C(NC2=CC=CC=C2)C=C1
InChI: InChI=1S/C12H10N2O/c15-14-12-8-6-11(7-9-12)13-10-4-2-1-3-5-10/h1-9,13H
Instrument: Q Exactive Orbitrap (Thermo Scientific)
Instrument type: LC-ESI-QFT
Ms type: MS2
Ion mode: POSITIVE
Ionization: ESI
Fragmentation mode: HCD
Collision energy: 45
Resolution: 17500
Column name: Acquity BEH C18 1.7um, 2.1x150mm (Waters)
Retention time: 16.721 min
Base peak: 79.0211
Precursor m/z: 199.0866
Precursor type: [M+H]+
Precursor intensity: 5286764.5
m/z	relative intensity	assigned
72.0443	1	C3H6NO+
77.0389	1	C6H5+
83.0856	1	C6H11+
100.0757	4	C5H10NO+
130.0652	5	C9H8N+
144.0446	1	C9H6NO+
154.0649	4	C11H8N+
155.0728	5	C11H9N+
168.0809	23	C12H10N+
169.0887	150	C12H11N+
181.0761	308	C12H9N2+
182.084	271	C12H10N2+
184.0755	6	C12H10NO+
198.0783	1	C12H10N2O+
199.0867	999	C12H11N2O+
