Mass spectrum: C.I. Basic Red 9; LC-ESI-QFT; MS2; CE: 75; R=17500; [M+H]+
Name: C.I. Basic Red 9
Name: 4-[(4-aminophenyl)-(4-iminocyclohexa-2,5-dien-1-ylidene)methyl]aniline
Formula: C19H17N3
Exact mass: 287.1422
SMILES: NC1=CC=C(C=C1)C(C1=CC=C(N)C=C1)=C1C=CC(=N)C=C1
InChI: InChI=1S/C19H17N3/c20-16-7-1-13(2-8-16)19(14-3-9-17(21)10-4-14)15-5-11-18(22)12-6-15/h1-12,20H,21-22H2
Instrument: Q Exactive Orbitrap (Thermo Scientific)
Instrument type: LC-ESI-QFT
Ms type: MS2
Ion mode: POSITIVE
Ionization: ESI
Fragmentation mode: HCD
Collision energy: 75
Resolution: 17500
Column name: Acquity BEH C18 1.7um, 2.1x150mm (Waters)
Retention time: 13.053 min
Base peak: 79.0211
Precursor m/z: 288.1495
Precursor type: [M+H]+
Precursor intensity: 17963199.75
m/z	relative intensity	assigned
54.0339	2	C3H4N+
80.0496	4	C5H6N+
91.0544	3	C7H7+
93.0574	1	C6H7N+
94.0651	1	C6H8N+
103.0543	1	C8H7+
106.0652	9	C7H8N+
115.0543	7	C9H7+
118.0651	5	C8H8N+
119.0606	1	C7H7N2+
127.0543	1	C10H7+
128.0494	1	C9H6N+
128.0622	1	C10H8+
130.0652	7	C9H8N+
131.0728	1	C9H9N+
140.0498	1	C10H6N+
141.07	22	C11H9+
142.0654	2	C10H8N+
143.0604	1	C9H7N2+
143.0731	15	C10H9N+
144.0807	3	C10H10N+
145.065	2	C8H7N3+
145.0764	1	C9H9N2+
151.0544	5	C12H7+
152.0622	6	C12H8+
153.0573	3	C11H7N+
153.0696	2	C12H9+
154.0652	17	C11H8N+
155.049	1	C9H5N3+
155.0605	5	C10H7N2+
155.0729	4	C11H9N+
166.0654	3	C12H8N+
167.0731	51	C12H9N+
168.0809	187	C12H10N+
169.0649	51	C10H7N3+
169.0757	4	C11H9N2+
171.0917	4	C11H11N2+
177.0572	7	C13H7N+
178.0653	111	C13H8N+
179.0605	20	C12H7N2+
179.0731	7	C13H9N+
180.0684	2	C12H8N2+
180.0808	11	C13H10N+
181.076	4	C12H9N2+
182.0841	2	C12H10N2+
193.0764	7	C13H9N2+
193.0877	1	C14H11N+
194.0842	30	C13H10N2+
195.0918	999	C13H11N2+
196.0998	3	C13H12N2+
202.078	4	C16H10+
203.086	1	C16H11+
204.081	3	C15H10N+
206.0713	1	C13H8N3+
208.0998	1	C14H12N2+
215.0857	3	C17H11+
217.089	8	C16H11N+
218.0966	5	C16H12N+
219.0813	1	C14H9N3+
219.0918	1	C15H11N2+
219.1044	1	C16H13N+
221.1075	11	C15H13N2+
226.0776	6	C18H10+
227.0856	3	C18H11+
228.0811	3	C17H10N+
228.0932	1	C18H12+
229.0891	1	C17H11N+
230.0966	20	C17H12N+
231.1044	3	C17H13N+
232.0996	5	C16H12N2+
233.1077	1	C16H13N2+
234.1154	1	C16H14N2+
239.0859	2	C19H11+
240.0813	1	C18H10N+
241.089	5	C18H11N+
242.0966	5	C18H12N+
243.092	1	C17H11N2+
243.1045	8	C18H13N+
244.0993	1	C17H12N2+
244.1124	4	C18H14N+
245.1075	29	C17H13N2+
246.1151	7	C17H14N2+
247.123	2	C17H15N2+
252.0813	1	C19H10N+
253.0889	3	C19H11N+
254.0965	47	C19H12N+
255.0916	8	C18H11N2+
255.1049	6	C19H13N+
256.0995	11	C18H12N2+
256.1126	9	C19H14N+
257.1076	9	C18H13N2+
258.1156	3	C18H14N2+
259.1233	2	C18H15N2+
260.1182	1	C17H14N3+
269.1074	24	C19H13N2+
270.1154	8	C19H14N2+
271.1232	82	C19H15N2+
272.1179	35	C18H14N3+
272.1303	3	C19H16N2+
273.1261	37	C18H15N3+
286.134	24	C19H16N3+
287.1422	1	C19H17N3+
288.1498	34	C19H18N3+
