Mass spectrum: Coumatetralyl; LC-ESI-QFT; MS2; CE: 90; R=17500; [M-H]-
Name: Coumatetralyl
Name: 4-hydroxy-3-(1,2,3,4-tetrahydronaphthalen-1-yl)chromen-2-one
Formula: C19H16O3
Exact mass: 292.1099
SMILES: OC1=C(C2CCCC3=C2C=CC=C3)C(=O)OC2=C1C=CC=C2
InChI: InChI=1S/C19H16O3/c20-18-15-9-3-4-11-16(15)22-19(21)17(18)14-10-5-7-12-6-1-2-8-13(12)14/h1-4,6,8-9,11,14,20H,5,7,10H2
Instrument: Q Exactive Orbitrap (Thermo Scientific)
Instrument type: LC-ESI-QFT
Ms type: MS2
Ion mode: NEGATIVE
Ionization: ESI
Fragmentation mode: HCD
Collision energy: 90
Resolution: 17500
Column name: Acquity BEH C18 1.7um, 2.1x150mm (Waters)
Retention time: 18.177 min
Base peak: 434.9314
Precursor m/z: 291.1027
Precursor type: [M-H]-
Precursor intensity: 82606461.11523
m/z	relative intensity	assigned
59.0139	24	C2H3O2-
65.0397	36	C5H5-
67.019	22	C4H3O-
91.0553	9	C7H7-
92.0269	1	C6H4O-
93.0346	526	C6H5O-
95.0139	4	C5H3O2-
106.0424	32	C7H6O-
107.0503	2	C7H7O-
108.0218	8	C6H4O2-
115.0553	167	C9H7-
117.0346	101	C8H5O-
119.0502	113	C8H7O-
129.071	21	C10H9-
130.0421	1	C9H6O-
133.0293	1	C8H5O2-
135.0452	28	C8H7O2-
138.0323	3	C7H6O3-
139.0552	10	C11H7-
141.071	282	C11H9-
143.0502	999	C10H7O-
165.071	14	C13H9-
167.0502	3	C12H7O-
167.0867	5	C13H11-
169.0658	9	C12H9O-
187.0403	7	C11H7O3-
191.0867	19	C15H11-
203.0863	2	C16H11-
215.0867	6	C17H11-
217.066	18	C16H9O-
217.1021	6	C17H13-
218.0738	5	C16H10O-
219.0816	31	C16H11O-
230.0734	7	C17H10O-
231.0808	6	C17H11O-
232.0882	1	C17H12O-
243.0815	78	C18H11O-
244.0893	1	C18H12O-
245.0972	117	C18H13O-
