Mass spectrum: Bentazone; LC-ESI-QFT; MS2; CE: 30; R=17500; [M-H]-
Name: Bentazone
Name: 2,2-dioxo-3-propan-2-yl-1H-2lambda6,1,3-benzothiadiazin-4-one
Formula: C10H12N2O3S
Exact mass: 240.0569
SMILES: CC(C)N1C(=O)C2=C(NS1(=O)=O)C=CC=C2
InChI: InChI=1S/C10H12N2O3S/c1-7(2)12-10(13)8-5-3-4-6-9(8)11-16(12,14)15/h3-7,11H,1-2H3
Instrument: Q Exactive Orbitrap (Thermo Scientific)
Instrument type: LC-ESI-QFT
Ms type: MS2
Ion mode: NEGATIVE
Ionization: ESI
Fragmentation mode: HCD
Collision energy: 30
Resolution: 17500
Column name: Acquity BEH C18 1.7um, 2.1x150mm (Waters)
Retention time: 15.674 min
Base peak: 239.0496
Precursor m/z: 239.0496
Precursor type: [M-H]-
Precursor intensity: 68977941.7666
m/z	relative intensity	assigned
117.0457	2	C7H5N2-
132.0329	67	C7H4N2O-
133.0407	34	C7H5N2O-
145.0412	1	C8H5N2O-
147.0816	5	C10H11O-
175.0877	180	C10H11N2O-
195.9948	7	C7H4N2O3S-
197.0026	161	C7H5N2O3S-
239.0496	999	C10H11N2O3S-
