Mass spectrum: Hydroxyflutamide; LC-ESI-QFT; MS2; CE: 90; R=17500; [M-H]-
Name: Hydroxyflutamide
Name: 2-hydroxy-2-methyl-N-[4-nitro-3-(trifluoromethyl)phenyl]propanamide
Formula: C11H11F3N2O4
Exact mass: 292.0671
SMILES: CC(C)(O)C(=O)NC1=CC(=C(C=C1)[N+]([O-])=O)C(F)(F)F
InChI: InChI=1S/C11H11F3N2O4/c1-10(2,18)9(17)15-6-3-4-8(16(19)20)7(5-6)11(12,13)14/h3-5,18H,1-2H3,(H,15,17)
Instrument: Q Exactive Orbitrap (Thermo Scientific)
Instrument type: LC-ESI-QFT
Ms type: MS2
Ion mode: NEGATIVE
Ionization: ESI
Fragmentation mode: HCD
Collision energy: 90
Resolution: 17500
Column name: Acquity BEH C18 1.7um, 2.1x150mm (Waters)
Retention time: 16.807 min
Base peak: 291.0599
Precursor m/z: 291.0598
Precursor type: [M-H]-
Precursor intensity: 121376373.6797
m/z	relative intensity	assigned
50.0035	171	C3N-
58.9939	5	C2FO-
62.0037	9	C4N-
62.9888	10	CFO2-
63.0114	67	C4HN-
63.9955	24	C4O-
64.0067	9	C3N2-
64.0193	20	C4H2N-
65.0034	9	C4HO-
65.0146	74	C3HN2-
65.9986	999	C3NO-
68.0142	28	C3H2NO-
68.9959	8	CF3-
70.0099	5	C3HFN-
70.9939	326	C3FO-
74.0037	245	C5N-
75.0114	4	C5HN-
76.0192	9	C5H2N-
77.0145	19	C4HN2-
79.0064	7	C4HNO-
84.0017	9	C4HFO-
84.997	17	C3FNO-
86.0036	17	C6N-
86.9888	174	C3FO2-
87.0115	756	C6HN-
89.0145	30	C5HN2-
89.9986	133	C5NO-
91.0063	30	C5HNO-
92.0141	23	C5H2NO-
93.0094	67	C4HN2O-
94.0099	7	C5HFN-
94.9939	6	C5FO-
95.0052	8	C4FN2-
96.9971	4	C4FNO-
101.0145	24	C6HN2-
101.9986	8	C6NO-
103.0064	42	C6HNO-
105.0219	13	C6H3NO-
106.0099	34	C6HFN-
106.9949	17	C3HF2O2-
107.0177	207	C6H2FN-
108.0018	11	C6HFO-
110.0048	46	C5HFNO-
111.0001	38	C4FN2O-
113.9985	363	C7NO-
115.0064	84	C7HNO-
119.0176	17	C7H2FN-
119.0249	7	C6H3N2O-
122.0049	4	C6HFNO-
122.0247	5	C6H4NO2-
123.0127	140	C6H2FNO-
128.0079	8	C6H2F2O-
130.9957	6	C2H2F3O3-
131.0012	12	C7HNO2-
134.0048	160	C7HFNO-
135.0127	40	C7H2FNO-
137.0046	9	C7H2FO2-
137.0159	20	C6H2FN2O-
138	10	C6HFNO2-
138.9951	7	C5FN2O2-
139.0239	40	C7H3F2N-
143.0186	6	C6H3F2NO-
148.008	9	C7HFN2O-
151.0076	14	C7H2FNO2-
154.011	153	C7H2F2NO-
155.0189	226	C7H3F2NO-
158.0224	15	C7H3F3N-
159.0301	219	C7H4F3N-
160.0383	7	C7H5F3N-
162.0172	56	C6H3F3NO-
165.0107	29	C7H2FN2O2-
175.0251	686	C7H4F3NO-
176.0091	59	C7H3F3O2-
190.012	6	C7H3F3NO2-
205.023	274	C7H4F3N2O2-
206.0069	12	C7H3F3NO3-
