Mass spectrum: Praziquantel; LC-ESI-QFT; MS2; CE: 60; R=17500; [M+H]+
Name: Praziquantel
Name: 2-(cyclohexanecarbonyl)-3,6,7,11b-tetrahydro-1H-pyrazino[2,1-a]isoquinolin-4-one
Formula: C19H24N2O2
Exact mass: 312.1838
SMILES: O=C(C1CCCCC1)N1CC2N(CCC3=C2C=CC=C3)C(=O)C1
InChI: InChI=1S/C19H24N2O2/c22-18-13-20(19(23)15-7-2-1-3-8-15)12-17-16-9-5-4-6-14(16)10-11-21(17)18/h4-6,9,15,17H,1-3,7-8,10-13H2
Instrument: Q Exactive Orbitrap (Thermo Scientific)
Instrument type: LC-ESI-QFT
Ms type: MS2
Ion mode: POSITIVE
Ionization: ESI
Fragmentation mode: HCD
Collision energy: 60
Resolution: 17500
Column name: Acquity BEH C18 1.7um, 2.1x150mm (Waters)
Retention time: 17.238 min
Base peak: 79.0211
Precursor m/z: 313.1911
Precursor type: [M+H]+
Precursor intensity: 16299858
m/z	relative intensity	assigned
53.0023	3	C3HO+
53.0386	11	C4H5+
54.0339	2	C3H4N+
55.0543	528	C4H7+
56.0495	1	C3H6N+
72.0444	48	C3H6NO+
83.0855	999	C6H11+
105.0699	7	C8H9+
111.0805	1	C7H11O+
115.0544	2	C9H7+
117.0573	2	C8H7N+
117.0699	23	C9H9+
118.0651	1	C8H8N+
119.0853	1	C9H11+
128.062	8	C10H8+
129.0699	90	C10H9+
130.0652	16	C9H8N+
131.0731	11	C9H9N+
132.0808	395	C9H10N+
143.0728	1	C10H9N+
144.0808	31	C10H10N+
145.0886	7	C10H11N+
146.0964	161	C10H12N+
156.0806	1	C11H10N+
158.0965	40	C11H12N+
173.1074	5	C11H13N2+
174.0914	517	C11H12NO+
175.1229	21	C11H15N2+
185.1074	8	C12H13N2+
186.0914	2	C12H12NO+
203.1179	145	C12H15N2O+
256.1694	10	C17H22NO+
285.1961	2	C18H25N2O+
