Mass spectrum: Imazamox; LC-ESI-QFT; MS2; CE: 45; R=17500; [M-H]-
Name: Imazamox
Name: 5-(methoxymethyl)-2-(4-methyl-5-oxo-4-propan-2-yl-1H-imidazol-2-yl)pyridine-3-carboxylic acid
Formula: C15H19N3O4
Exact mass: 305.1376
SMILES: COCC1=CN=C(C2=NC(C)(C(C)C)C(=O)N2)C(=C1)C(O)=O
InChI: InChI=1S/C15H19N3O4/c1-8(2)15(3)14(21)17-12(18-15)11-10(13(19)20)5-9(6-16-11)7-22-4/h5-6,8H,7H2,1-4H3,(H,19,20)(H,17,18,21)
Instrument: Q Exactive Orbitrap (Thermo Scientific)
Instrument type: LC-ESI-QFT
Ms type: MS2
Ion mode: NEGATIVE
Ionization: ESI
Fragmentation mode: HCD
Collision energy: 45
Resolution: 17500
Column name: Acquity BEH C18 1.7um, 2.1x150mm (Waters)
Retention time: 13.643 min
Base peak: 355.1122
Precursor m/z: 304.1303
Precursor type: [M-H]-
Precursor intensity: 3136777.808105
m/z	relative intensity	assigned
117.046	4	C7H5N2-
185.0594	2	C10H7N3O-
186.0672	635	C10H8N3O-
187.0751	8	C10H9N3O-
204.0775	7	C10H10N3O2-
214.0988	7	C12H12N3O-
217.0856	999	C11H11N3O2-
218.0931	7	C11H12N3O2-
230.0932	19	C12H12N3O2-
245.1166	30	C13H15N3O2-
260.1406	34	C14H18N3O2-
