Mass spectrum: Triamcinolone acetonide; LC-ESI-QFT; MS2; CE: 30; R=17500; [M+H]+
Name: Triamcinolone acetonide
Name: (1S,2S,4R,8S,9S,11S,12R,13S)-12-fluoro-11-hydroxy-8-(2-hydroxyacetyl)-6,6,9,13-tetramethyl-5,7-dioxapentacyclo[10.8.0.02,9.04,8.013,18]icosa-14,17-dien-16-one
Formula: C24H31FO6
Exact mass: 434.2105
SMILES: CC1(C)O[C@@H]2C[C@H]3[C@@H]4CCC5=CC(=O)C=C[C@]5(C)[C@@]4(F)[C@@H](O)C[C@]3(C)[C@@]2(O1)C(=O)CO
InChI: InChI=1S/C24H31FO6/c1-20(2)30-19-10-16-15-6-5-13-9-14(27)7-8-21(13,3)23(15,25)17(28)11-22(16,4)24(19,31-20)18(29)12-26/h7-9,15-17,19,26,28H,5-6,10-12H2,1-4H3/t15-,16-,17-,19+,21-,22-,23-,24+/m0/s1
Instrument: Q Exactive Orbitrap (Thermo Scientific)
Instrument type: LC-ESI-QFT
Ms type: MS2
Ion mode: POSITIVE
Ionization: ESI
Fragmentation mode: HCD
Collision energy: 30
Resolution: 17500
Column name: Acquity BEH C18 1.7um, 2.1x150mm (Waters)
Retention time: 16.761 min
Base peak: 79.0211
Precursor m/z: 435.2177
Precursor type: [M+H]+
Precursor intensity: 4991284.625
m/z	relative intensity	assigned
55.0178	47	C3H3O+
59.0491	261	C3H7O+
69.0334	40	C4H5O+
81.07	49	C6H9+
83.0489	30	C5H7O+
87.0439	39	C4H7O2+
93.0699	113	C7H9+
95.0491	70	C6H7O+
95.0856	81	C7H11+
97.0285	51	C5H5O2+
99.044	54	C5H7O2+
101.0234	50	C4H5O3+
105.07	78	C8H9+
107.0855	43	C8H11+
109.0648	71	C7H9O+
111.0441	37	C6H7O2+
115.039	70	C5H7O3+
119.0491	22	C8H7O+
119.0855	27	C9H11+
121.0648	328	C8H9O+
123.0441	26	C7H7O2+
123.0803	74	C8H11O+
125.0597	87	C7H9O2+
131.0857	65	C10H11+
133.0646	134	C9H9O+
135.0804	207	C9H11O+
137.0598	98	C8H9O2+
139.0754	69	C8H11O2+
141.0544	34	C7H9O3+
143.0859	37	C11H11+
145.0646	45	C10H9O+
145.1009	22	C11H13+
147.0805	711	C10H11O+
151.0388	65	C8H7O3+
151.0754	201	C9H11O2+
153.0548	36	C8H9O3+
155.0703	44	C8H11O3+
155.0856	39	C12H11+
159.0805	231	C11H11O+
161.0595	81	C10H9O2+
161.0962	263	C11H13O+
169.0648	59	C12H9O+
171.0805	404	C12H11O+
173.0962	254	C12H13O+
179.07	43	C10H11O3+
185.0591	25	C12H9O2+
185.0962	197	C13H13O+
187.0754	259	C12H11O2+
187.112	55	C13H15O+
193.1008	27	C15H13+
197.096	145	C14H13O+
197.1325	147	C15H17+
199.1123	119	C14H15O+
207.1171	32	C16H15+
209.0963	133	C15H13O+
211.1119	176	C15H15O+
212.1196	30	C15H16O+
213.1275	999	C15H17O+
221.0961	96	C16H13O+
221.1327	41	C17H17+
222.1042	31	C16H14O+
223.1118	492	C16H15O+
224.1192	37	C16H16O+
225.1156	45	C9H18FO5+
225.1275	746	C16H17O+
227.1068	38	C15H15O2+
227.143	91	C16H19O+
233.1324	37	C18H17+
235.1116	224	C17H15O+
235.1478	33	C18H19+
237.0907	33	C16H13O2+
237.1276	326	C17H17O+
239.1435	284	C17H19O+
241.1223	175	C16H17O2+
243.1172	30	C19H15+
245.1324	24	C19H17+
247.1116	47	C18H15O+
249.1274	200	C18H17O+
251.1433	280	C18H19O+
253.1225	221	C17H17O2+
253.1587	222	C18H21O+
257.1324	34	C20H17+
259.1113	26	C19H15O+
260.1198	45	C19H16O+
261.1276	248	C19H17O+
262.1353	38	C19H18O+
263.1432	685	C19H19O+
265.1585	245	C19H21O+
269.1186	33	C14H18FO4+
269.1541	35	C18H21O2+
275.1434	471	C20H19O+
277.1218	99	C19H17O2+
278.1301	47	C19H18O2+
279.1382	344	C19H19O2+
280.1454	47	C19H20O2+
283.1692	73	C19H23O2+
288.1149	33	C20H16O2+
295.1325	68	C19H19O3+
297.1486	181	C19H21O3+
309.1485	78	C20H21O3+
311.1647	293	C20H23O3+
357.1699	37	C21H25O5+
