Mass spectrum: PharmaGSID_48519; LC-ESI-QFT; MS2; CE: 45; R=17500; [M+H]+
Name: PharmaGSID_48519
Name: 3-(2-bromophenyl)-7-[[2-(hydroxymethyl)-2,3-dihydro-1,4-benzodioxin-6-yl]amino]-1-methyl-4H-pyrimido[4,5-d]pyrimidin-2-one
Formula: C22H20BrN5O4
Exact mass: 497.0699
SMILES: CN1C(=O)N(CC2=CN=C(NC3=CC4=C(OC(CO)CO4)C=C3)N=C12)C1=CC=CC=C1Br
InChI: InChI=1S/C22H20BrN5O4/c1-27-20-13(10-28(22(27)30)17-5-3-2-4-16(17)23)9-24-21(26-20)25-14-6-7-18-19(8-14)31-12-15(11-29)32-18/h2-9,15,29H,10-12H2,1H3,(H,24,25,26)
Instrument: Q Exactive Orbitrap (Thermo Scientific)
Instrument type: LC-ESI-QFT
Ms type: MS2
Ion mode: POSITIVE
Ionization: ESI
Fragmentation mode: HCD
Collision energy: 45
Resolution: 17500
Column name: Acquity BEH C18 1.7um, 2.1x150mm (Waters)
Retention time: 16.353 min
Base peak: 79.0211
Precursor m/z: 498.0771
Precursor type: [M+H]+
Precursor intensity: 3538862.4375
m/z	relative intensity	assigned
54.0339	6	C3H4N+
57.0335	2	C3H5O+
66.0338	26	C4H4N+
68.0494	40	C4H6N+
70.0651	1	C4H8N+
81.0448	1	C4H5N2+
95.0604	454	C5H7N2+
108.0559	1	C5H6N3+
110.0713	2	C5H8N3+
126.0661	2	C5H8N3O+
137.0825	1	C6H9N4+
159.0555	1	C9H7N2O+
163.0502	1	C8H7N2O2+
166.0623	1	C9H10O3+
170.0711	2	C10H8N3+
172.0868	1	C10H10N3+
180.0657	1	C9H10NO3+
181.0733	1	C9H11NO3+
186.0664	2	C10H8N3O+
187.0977	23	C10H11N4+
188.0821	2	C10H10N3O+
194.081	1	C10H12NO3+
196.0868	2	C12H10N3+
198.0661	3	C11H8N3O+
198.1025	2	C12H12N3+
199.0978	9	C11H11N4+
200.0823	5	C11H10N3O+
201.0767	1	C10H9N4O+
207.0765	15	C10H11N2O3+
211.0983	1	C12H11N4+
212.0825	3	C12H10N3O+
213.1136	4	C12H13N4+
214.061	12	C11H8N3O2+
214.0856	1	C11H10N4O+
214.0976	1	C12H12N3O+
215.0927	137	C11H11N4O+
216.0767	20	C11H10N3O2+
217.1084	2	C11H13N4O+
219.0763	4	C11H11N2O3+
221.0916	1	C11H13N2O3+
224.0819	12	C13H10N3O+
226.0615	5	C12H8N3O2+
226.0978	3	C13H12N3O+
227.0928	9	C12H11N4O+
227.1292	6	C13H15N4+
228.0767	3	C12H10N3O2+
228.1002	1	C12H12N4O+
229.1084	2	C12H13N4O+
241.1085	6	C13H13N4O+
242.0925	2	C13H12N3O2+
243.0877	72	C12H11N4O2+
244.0954	4	C12H12N4O2+
245.1034	9	C12H13N4O2+
253.1084	10	C14H13N4O+
254.0925	2	C14H12N3O2+
255.0879	3	C13H11N4O2+
255.1239	6	C14H15N4O+
271.1188	5	C14H15N4O2+
272.1032	9	C14H14N3O3+
301.1296	999	C15H17N4O3+
384.046	4	C17H15BrN5O+
412.0406	5	C18H15BrN5O2+
498.0775	49	C22H21BrN5O4+
