Mass spectrum: Oleyl sarcosine; LC-ESI-QFT; MS2; CE: 45; R=17500; [M+H]+
Name: Oleyl sarcosine
Name: Oleoyl sarcosine
Name: 2-[methyl-[(Z)-octadec-9-enoyl]amino]acetic acid
Formula: C21H39NO3
Exact mass: 353.2930
SMILES: CCCCCCCC\C=C/CCCCCCCC(=O)N(C)CC(O)=O
InChI: InChI=1S/C21H39NO3/c1-3-4-5-6-7-8-9-10-11-12-13-14-15-16-17-18-20(23)22(2)19-21(24)25/h10-11H,3-9,12-19H2,1-2H3,(H,24,25)/b11-10-
Instrument: Q Exactive Orbitrap (Thermo Scientific)
Instrument type: LC-ESI-QFT
Ms type: MS2
Ion mode: POSITIVE
Ionization: ESI
Fragmentation mode: HCD
Collision energy: 45
Resolution: 17500
Column name: Acquity BEH C18 1.7um, 2.1x150mm (Waters)
Retention time: 21.843 min
Base peak: 79.0211
Precursor m/z: 354.3003
Precursor type: [M+H]+
Precursor intensity: 3096676.6875
m/z	relative intensity	assigned
53.0386	2	C4H5+
55.0543	66	C4H7+
57.0335	2	C3H5O+
57.0699	29	C4H9+
67.0542	59	C5H7+
69.0699	103	C5H9+
71.0491	2	C4H7O+
71.0856	10	C5H11+
79.0542	30	C6H7+
81.0699	65	C6H9+
83.0855	76	C6H11+
85.1012	6	C6H13+
90.055	999	C3H8NO2+
91.0541	3	C7H7+
93.0699	37	C7H9+
95.0856	65	C7H11+
97.0649	14	C6H9O+
97.1012	40	C7H13+
107.0856	26	C8H11+
109.1013	25	C8H13+
111.0805	5	C7H11O+
111.117	8	C8H15+
121.1013	44	C9H13+
123.117	5	C9H15+
135.1169	27	C10H15+
149.1326	7	C11H17+
163.1485	2	C12H19+
