Mass spectrum: Nuarimol; LC-ESI-QFT; MS2; CE: 45; R=17500; [M-H]-
Name: Nuarimol
Name: (2-chlorophenyl)-(4-fluorophenyl)-pyrimidin-5-ylmethanol
Formula: C17H12ClFN2O
Exact mass: 314.0622
SMILES: OC(C1=CC=C(F)C=C1)(C1=CN=CN=C1)C1=CC=CC=C1Cl
InChI: InChI=1S/C17H12ClFN2O/c18-16-4-2-1-3-15(16)17(22,13-9-20-11-21-10-13)12-5-7-14(19)8-6-12/h1-11,22H
Instrument: Q Exactive Orbitrap (Thermo Scientific)
Instrument type: LC-ESI-QFT
Ms type: MS2
Ion mode: NEGATIVE
Ionization: ESI
Fragmentation mode: HCD
Collision energy: 45
Resolution: 17500
Column name: Acquity BEH C18 1.7um, 2.1x150mm (Waters)
Retention time: 17.326 min
Base peak: 112.9856
Precursor m/z: 313.0549
Precursor type: [M-H]-
Precursor intensity: 1653637.418457
m/z	relative intensity	assigned
57.0346	246	C3H5O-
59.0502	114	C3H7O-
117.0346	14	C8H5O-
127.0552	30	C10H7-
139.0554	55	C11H7-
156.0581	249	C11H8O-
165.0346	596	C12H5O-
167.0502	211	C12H7O-
168.0581	27	C12H8O-
169.0659	999	C12H9O-
171.0452	386	C8H10ClNO-
182.0374	34	C9H9ClNO-
183.0452	115	C9H10ClNO-
184.053	230	C9H11ClNO-
198.056	111	C9H11ClN2O-
199.0401	76	C15H5N-
210.0558	12	C10H11ClN2O-
