Mass spectrum: Labetalol; LC-ESI-QFT; MS2; CE: 45; R=17500; [M-H]-
Name: Labetalol
Name: 2-hydroxy-5-[1-hydroxy-2-(4-phenylbutan-2-ylamino)ethyl]benzamide
Formula: C19H24N2O3
Exact mass: 328.1787
SMILES: CC(CCC1=CC=CC=C1)NCC(O)C1=CC=C(O)C(=C1)C(N)=O
InChI: InChI=1S/C19H24N2O3/c1-13(7-8-14-5-3-2-4-6-14)21-12-18(23)15-9-10-17(22)16(11-15)19(20)24/h2-6,9-11,13,18,21-23H,7-8,12H2,1H3,(H2,20,24)
Instrument: Q Exactive Orbitrap (Thermo Scientific)
Instrument type: LC-ESI-QFT
Ms type: MS2
Ion mode: NEGATIVE
Ionization: ESI
Fragmentation mode: HCD
Collision energy: 45
Resolution: 17500
Column name: Acquity BEH C18 1.7um, 2.1x150mm (Waters)
Retention time: 13.525 min
Base peak: 304.1303
Precursor m/z: 327.1714
Precursor type: [M-H]-
Precursor intensity: 9421143.994629
m/z	relative intensity	assigned
65.9986	7	C3NO-
91.0552	6	C7H7-
93.0346	10	C6H5O-
106.0298	5	C6H4NO-
106.0424	103	C7H6O-
107.0502	10	C7H7O-
108.0216	36	C6H4O2-
109.0295	3	C6H5O2-
117.0345	3	C8H5O-
118.0298	79	C7H4NO-
119.0499	2	C8H7O-
120.0454	2	C7H6NO-
121.0295	3	C7H5O2-
123.0452	8	C7H7O2-
131.0376	207	C8H5NO-
132.0455	317	C8H6NO-
133.0172	11	C7H3NO2-
133.0533	80	C8H7NO-
134.0248	19	C7H4NO2-
134.0612	13	C8H8NO-
136.0404	19	C7H6NO2-
138.0323	14	C7H6O3-
144.0453	22	C9H6NO-
146.0248	87	C8H4NO2-
146.0611	10	C9H8NO-
148.0405	10	C8H6NO2-
149.0481	216	C8H7NO2-
150.056	8	C8H8NO2-
157.0408	120	C9H5N2O-
158.0484	41	C9H6N2O-
158.0607	4	C10H8NO-
159.0563	80	C9H7N2O-
160.0771	8	C10H10NO-
162.056	36	C9H8NO2-
162.0923	5	C10H12NO-
163.0275	70	C8H5NO3-
164.0353	21	C8H6NO3-
169.0402	2	C10H5N2O-
171.0565	19	C10H7N2O-
175.0513	514	C9H7N2O2-
176.0591	999	C9H8N2O2-
177.067	43	C9H9N2O2-
181.0381	229	C11H5N2O-
185.0721	38	C11H9N2O-
186.0669	2	C12H10O2-
186.08	8	C11H10N2O-
187.0877	88	C11H11N2O-
189.067	18	C10H9N2O2-
199.0877	36	C12H11N2O-
203.0825	9	C11H11N2O2-
205.098	9	C11H13N2O2-
248.1082	28	C17H14NO-
258.0816	7	C17H10N2O-
266.1551	396	C18H20NO-
275.1189	4	C18H15N2O-
291.1504	655	C19H19N2O-
309.1609	455	C19H21N2O2-
327.1714	10	C19H23N2O3-
