Mass spectrum: 2-Methyl-4,6-dinitrophenol; LC-ESI-QFT; MS2; CE: 90; R=17500; [M-H]-
Name: 2-Methyl-4,6-dinitrophenol
Name: 4,6-Dinitro-O-cresol
Formula: C7H6N2O5
Exact mass: 198.0277
SMILES: CC1=C(O)C(=CC(=C1)[N+]([O-])=O)[N+]([O-])=O
InChI: InChI=1S/C7H6N2O5/c1-4-2-5(8(11)12)3-6(7(4)10)9(13)14/h2-3,10H,1H3
Instrument: Q Exactive Orbitrap (Thermo Scientific)
Instrument type: LC-ESI-QFT
Ms type: MS2
Ion mode: NEGATIVE
Ionization: ESI
Fragmentation mode: HCD
Collision energy: 90
Resolution: 17500
Column name: Acquity BEH C18 1.7um, 2.1x150mm (Waters)
Retention time: 16.349 min
Base peak: 197.0204
Precursor m/z: 197.0204
Precursor type: [M-H]-
Precursor intensity: 51037324.86523
m/z	relative intensity	assigned
55.0189	18	C3H3O-
63.0115	3	C4HN-
63.024	24	C5H3-
64.0193	55	C4H2N-
65.0033	16	C4HO-
65.0145	11	C3HN2-
65.0397	161	C5H5-
65.9986	73	C3NO-
66.0349	18	C4H4N-
67.019	84	C4H3O-
68.0143	4	C3H2NO-
68.9982	55	C3HO2-
69.0346	3	C4H5O-
75.0241	34	C6H3-
76.0194	6	C5H2N-
78.035	5	C5H4N-
79.0189	4	C5H3O-
80.0268	12	C5H4O-
81.0346	31	C5H5O-
88.0192	17	C6H2N-
91.0189	6	C6H3O-
92.0141	4	C5H2NO-
93.0346	91	C6H5O-
94.0298	7	C5H4NO-
95.0138	12	C5H3O2-
96.0092	6	C4H2NO2-
103.019	8	C7H3O-
105.0219	4	C6H3NO-
108.0217	53	C6H4O2-
109.0295	999	C6H5O2-
110.0247	29	C5H4NO2-
121.0295	28	C7H5O2-
122.0248	209	C6H4NO2-
123.0327	31	C6H5NO2-
134.0248	20	C7H4NO2-
136.0164	15	C7H4O3-
137.0244	112	C7H5O3-
138.0197	105	C6H4NO3-
139.0275	47	C6H5NO3-
150.0196	143	C7H4NO3-
166.0146	35	C7H4NO4-
167.0223	7	C7H5NO4-
180.0177	58	C7H4N2O4-
197.0208	5	C7H5N2O5-
