Mass spectrum: MK-547; LC-ESI-QFT; MS2; CE: 45; R=17500; [M+H]+
Name: MK-547
Name: J-104132
Name: (5S,6R,7R)-5-(1,3-benzodioxol-5-yl)-2-butyl-7-[2-[(2S)-2-carboxypropyl]-4-methoxyphenyl]-6,7-dihydro-5H-cyclopenta[b]pyridine-6-carboxylic acid
Formula: C31H33NO7
Exact mass: 531.2257
SMILES: CCCCc1ccc2c(n1)[C@@H](c1ccc(OC)cc1C[C@H](C)C(O)=O)[C@H](C(O)=O)[C@H]2c1ccc2c(c1)OCO2
InChI: InChI=1S/C31H33NO7/c1-4-5-6-20-8-10-23-26(18-7-12-24-25(15-18)39-16-38-24)28(31(35)36)27(29(23)32-20)22-11-9-21(37-3)14-19(22)13-17(2)30(33)34/h7-12,14-15,17,26-28H,4-6,13,16H2,1-3H3,(H,33,34)(H,35,36)/t17-,26-,27-,28+/m0/s1
Instrument: Q Exactive Orbitrap (Thermo Scientific)
Instrument type: LC-ESI-QFT
Ms type: MS2
Ion mode: POSITIVE
Ionization: ESI
Fragmentation mode: HCD
Collision energy: 45
Resolution: 17500
Column name: Acquity BEH C18 1.7um, 2.1x150mm (Waters)
Retention time: 18.582 min
Base peak: 79.0212
Precursor m/z: 532.233
Precursor type: [M+H]+
Precursor intensity: 20118237.5
m/z	relative intensity	assigned
57.0698	3	C4H9+
69.0334	2	C4H5O+
91.0542	2	C7H7+
115.0541	1	C9H7+
118.0649	1	C8H8N+
121.0283	5	C7H5O2+
121.0647	31	C8H9O+
122.0362	11	C7H6O2+
129.0697	1	C10H9+
130.0651	102	C9H8N+
131.0732	2	C9H9N+
131.0856	1	C10H11+
132.0445	3	C8H6NO+
133.0521	2	C8H7NO+
134.0725	1	C9H10O+
135.0439	12	C8H7O2+
135.0803	2	C9H11O+
143.0729	7	C10H9N+
144.057	16	C10H8O+
144.0806	1	C10H10N+
145.0649	1	C10H9O+
146.06	61	C9H8NO+
147.0805	7	C10H11O+
149.0233	131	C8H5O3+
149.0961	18	C10H13O+
151.0389	2	C8H7O3+
152.0617	1	C12H8+
153.0697	2	C12H9+
155.0729	3	C11H9N+
156.0443	1	C10H6NO+
156.0807	2	C11H10N+
157.0886	18	C11H11N+
159.0804	79	C11H11O+
160.0755	1	C10H10NO+
160.1123	6	C11H14N+
162.0672	6	C10H10O2+
165.0697	1	C13H9+
165.0913	1	C10H13O2+
170.0964	21	C12H12N+
171.1042	1	C12H13N+
172.112	146	C12H14N+
173.1202	3	C12H15N+
174.0549	29	C10H8NO2+
175.0752	16	C11H11O2+
177.0909	623	C11H13O2+
178.1228	1	C11H16NO+
180.0808	11	C13H10N+
181.0646	3	C13H9O+
182.0969	1	C13H12N+
188.107	41	C12H14NO+
190.0655	1	C14H8N+
192.0812	1	C14H10N+
193.0882	10	C14H11N+
194.0964	141	C14H12N+
196.0758	3	C13H10NO+
198.0912	9	C13H12NO+
206.0598	2	C14H8NO+
206.0965	2	C15H12N+
207.0679	3	C14H9NO+
207.1043	2	C15H13N+
208.0755	24	C14H10NO+
208.1119	2	C15H14N+
209.0834	1	C14H11NO+
210.0913	10	C14H12NO+
211.0758	1	C14H11O2+
216.1019	4	C13H14NO2+
220.0756	7	C15H10NO+
221.0825	10	C15H11NO+
222.0913	275	C15H12NO+
223.0989	9	C15H13NO+
224.0703	2	C14H10NO2+
224.1434	34	C16H18N+
233.0848	1	C16H11NO+
234.0543	2	C15H8NO2+
234.0913	3	C16H12NO+
234.1279	5	C17H16N+
235.0991	15	C16H13NO+
236.1071	6	C16H14NO+
236.1433	105	C17H18N+
237.0786	27	C15H11NO2+
238.0862	43	C15H12NO2+
238.1592	5	C17H20N+
239.0933	1	C15H13NO2+
248.0705	26	C16H10NO2+
249.0787	4	C16H11NO2+
249.1144	4	C17H15NO+
250.0862	597	C16H12NO2+
251.094	123	C16H13NO2+
252.1018	39	C16H14NO2+
252.1382	19	C17H18NO+
253.0732	16	C15H11NO3+
254.081	2	C15H12NO3+
261.0785	1	C17H11NO2+
261.1143	1	C18H15NO+
262.1226	30	C18H16NO+
263.0572	6	C16H9NO3+
263.0938	18	C17H13NO2+
263.1294	2	C18H17NO+
264.1037	11	C17H14NO2+
264.1382	183	C18H18NO+
265.073	1	C16H11NO3+
265.1088	4	C17H15NO2+
266.0813	13	C16H12NO3+
266.1177	2	C17H16NO2+
266.1538	23	C18H20NO+
267.0878	1	C16H13NO3+
276.0658	2	C17H10NO3+
276.1016	2	C18H14NO2+
276.1383	2	C19H18NO+
277.0733	36	C17H11NO3+
277.1084	5	C18H15NO2+
278.081	8	C17H12NO3+
278.1178	1	C18H16NO2+
280.133	10	C18H18NO2+
281.0684	13	C16H11NO4+
282.1483	9	C18H20NO2+
290.1176	17	C19H16NO2+
290.1542	2	C20H20NO+
291.0882	1	C18H13NO3+
291.1613	1	C20H21NO+
292.1332	337	C19H18NO2+
293.141	50	C19H19NO2+
294.1487	999	C19H20NO2+
295.0831	4	C17H13NO4+
295.1209	1	C18H17NO3+
296.0915	14	C17H14NO4+
296.1283	6	C18H18NO3+
304.1695	2	C21H22NO+
308.1272	7	C19H18NO3+
310.1436	63	C19H20NO3+
318.1499	1	C21H20NO2+
318.1849	4	C22H24NO+
319.1197	1	C20H17NO3+
320.1281	452	C20H18NO3+
330.1854	1	C23H24NO+
336.1595	1	C21H22NO3+
337.1309	5	C20H19NO4+
338.1386	354	C20H20NO4+
340.1543	2	C20H22NO4+
346.1807	7	C23H24NO2+
348.1957	3	C23H26NO2+
352.1547	2	C21H22NO4+
369.1365	1	C24H19NO3+
370.1434	2	C24H20NO3+
374.1738	1	C24H24NO3+
382.1803	2	C26H24NO2+
392.1848	4	C24H26NO4+
396.1582	1	C26H22NO3+
398.1754	3	C26H24NO3+
400.1912	1	C26H26NO3+
407.1912	1	C28H25NO2+
410.1745	1	C27H24NO3+
411.1828	2	C27H25NO3+
412.1913	11	C27H26NO3+
414.2059	7	C27H28NO3+
424.1897	1	C28H26NO3+
426.2071	4	C28H28NO3+
440.2219	14	C29H30NO3+
441.2292	5	C29H31NO3+
456.1814	3	C28H26NO5+
458.1961	34	C28H28NO5+
468.2173	29	C30H30NO4+
478.2018	2	C31H28NO4+
486.2276	35	C30H32NO5+
496.2123	2	C31H30NO5+
514.2223	4	C31H32NO6+
532.2321	2	C31H34NO7+
