Mass spectrum: Sulisobenzone; LC-ESI-QFT; MS2; CE: 75; R=17500; [M-H]-
Name: Sulisobenzone
Name: 5-benzoyl-4-hydroxy-2-methoxybenzenesulfonic acid
Formula: C14H12O6S
Exact mass: 308.0355
SMILES: COC1=C(C=C(C(=O)C2=CC=CC=C2)C(O)=C1)S(O)(=O)=O
InChI: InChI=1S/C14H12O6S/c1-20-12-8-11(15)10(7-13(12)21(17,18)19)14(16)9-5-3-2-4-6-9/h2-8,15H,1H3,(H,17,18,19)
Instrument: Q Exactive Orbitrap (Thermo Scientific)
Instrument type: LC-ESI-QFT
Ms type: MS2
Ion mode: NEGATIVE
Ionization: ESI
Fragmentation mode: HCD
Collision energy: 75
Resolution: 17500
Column name: Acquity BEH C18 1.7um, 2.1x150mm (Waters)
Retention time: 14.834 min
Base peak: 307.0282
Precursor m/z: 307.0282
Precursor type: [M-H]-
Precursor intensity: 13071163.57715
m/z	relative intensity	assigned
63.9624	62	O2S-
64.9703	3	HO2S-
65.0033	19	C4HO-
66.0111	1	C4H2O-
68.9982	15	C3HO2-
71.9676	6	C2OS-
75.0239	1	C6H3-
79.9574	999	O3S-
80.9652	155	HO3S-
82.006	1	C4H2O2-
89.0034	1	C6HO-
91.019	8	C6H3O-
93.0346	3	C6H5O-
94.006	6	C5H2O2-
94.9808	2	CH3O3S-
95.0138	26	C5H3O2-
96.9933	1	C4HO3-
97.9832	3	C4H2OS-
101.0397	3	C8H5-
104.9654	1	C2HO3S-
105.0346	3	C7H5O-
106.0059	2	C6H2O2-
108.0219	2	C6H4O2-
110.0009	22	C5H2O3-
110.9756	1	CH3O4S-
113.9781	6	C4H2O2S-
117.973	3	C3H2O3S-
121.0295	10	C7H5O2-
122.0011	3	C6H2O3-
123.0088	25	C6H3O3-
127.0552	1	C10H7-
128.9651	9	C4HO3S-
129.0347	4	C9H5O-
130.0421	1	C9H6O-
131.0502	2	C9H7O-
134.9755	1	C3H3O4S-
135.0089	3	C7H3O3-
139.0553	9	C11H7-
143.0502	4	C10H7O-
145.0296	44	C9H5O2-
147.0451	4	C9H7O2-
149.0246	5	C8H5O3-
149.9959	44	C7H2O4-
153.0191	1	C7H5O4-
154.0426	3	C11H6O-
155.0502	45	C11H7O-
156.0582	3	C11H8O-
157.0291	1	C10H5O2-
157.9681	11	C5H2O4S-
158.037	5	C10H6O2-
158.9759	3	C5H3O4S-
167.0502	72	C12H7O-
169.0296	11	C11H5O2-
169.0661	1	C12H9O-
171.0453	7	C11H7O2-
172.0529	3	C11H8O2-
173.9626	1	C5H2O5S-
181.0144	1	C8H5O5-
182.0374	88	C12H6O2-
183.0452	157	C12H7O2-
184.053	35	C12H8O2-
184.9917	2	C7H5O4S-
185.0249	1	C11H5O3-
185.9629	43	C6H2O5S-
195.0457	7	C13H7O2-
198.0323	2	C12H6O3-
199.0401	70	C12H7O3-
200.0479	44	C12H8O3-
200.9864	6	C7H5O5S-
210.0327	1	C13H6O3-
211.0401	785	C13H7O3-
212.0478	5	C13H8O3-
213.0552	2	C13H9O3-
213.9578	56	C7H2O6S-
226.027	1	C13H6O4-
227.0351	21	C13H7O4-
227.0712	5	C14H11O3-
228.043	21	C13H8O4-
228.9811	15	C8H5O6S-
263.002	72	C12H7O5S-
264.0104	2	C12H8O5S-
275.002	1	C13H7O5S-
290.997	68	C13H7O6S-
