Mass spectrum: SAR102608; LC-ESI-QFT; MS2; CE: 45; R=17500; [M+H]+
Name: SAR102608
Name: N-(5-Fluoro-3-methyl-1H-indol-1-yl)-4-methyl-2-(pyridin-2-yl)pyrimidine-5-carboxamide
Name: N-(5-fluoro-3-methylindol-1-yl)-4-methyl-2-pyridin-2-ylpyrimidine-5-carboxamide
Formula: C20H16FN5O
Exact mass: 361.1339
SMILES: CC1=CN(NC(=O)C2=C(C)N=C(N=C2)C2=CC=CC=N2)C2=CC=C(F)C=C12
InChI: InChI=1S/C20H16FN5O/c1-12-11-26(18-7-6-14(21)9-15(12)18)25-20(27)16-10-23-19(24-13(16)2)17-5-3-4-8-22-17/h3-11H,1-2H3,(H,25,27)
Instrument: Q Exactive Orbitrap (Thermo Scientific)
Instrument type: LC-ESI-QFT
Ms type: MS2
Ion mode: POSITIVE
Ionization: ESI
Fragmentation mode: HCD
Collision energy: 45
Resolution: 17500
Column name: Acquity BEH C18 1.7um, 2.1x150mm (Waters)
Retention time: 16.955 min
Base peak: 79.0212
Precursor m/z: 362.1412
Precursor type: [M+H]+
Precursor intensity: 16342542.375
m/z	relative intensity	assigned
53.0022	16	C3HO+
54.0338	7	C3H4N+
55.0416	5	C3H5N+
56.0494	6	C3H6N+
66.0337	1	C4H4N+
67.0178	1	C4H3O+
67.0416	2	C4H5N+
68.0256	1	C4H4O+
68.0494	5	C4H6N+
70.0287	5	C3H4NO+
78.0339	5	C5H4N+
79.0413	12	FH4N4+
81.0447	4	C4H5N2+
82.0286	3	C4H4NO+
82.0525	8	C4H6N2+
83.0602	1	C4H7N2+
84.0443	3	C4H6NO+
94.0287	61	C5H4NO+
95.0365	28	C5H5NO+
96.0443	13	C5H6NO+
105.0447	173	C6H5N2+
106.0526	18	C6H6N2+
109.0396	2	C5H5N2O+
110.06	6	C6H8NO+
111.0313	4	C3H3N4O+
111.0553	4	C5H7N2O+
112.0392	12	C3H4N4O+
118.0525	1	C7H6N2+
118.065	1	C3H7FN4+
119.0603	2	C7H7N2+
121.0446	1	C8H6F+
131.0603	2	C8H7N2+
133.0634	7	C7H7N3+
138.0712	1	C8H9FN+
143.0603	18	C9H7N2+
144.0552	2	C8H6N3+
145.0635	2	C8H7N3+
145.0759	4	C4H8FN5+
146.06	3	C9H8NO+
147.0788	8	C8H9N3+
148.0556	55	C9H7FN+
149.0635	54	C9H8FN+
155.0604	11	C10H7N2+
157.0398	42	C9H5N2O+
157.0634	353	C9H7N3+
158.0712	20	C9H8N3+
159.0792	8	C9H9N3+
160.0504	3	C8H6N3O+
161.0582	2	C8H7N3O+
163.0665	1	C9H8FN2+
165.0823	17	C9H10FN2+
166.0661	8	C9H9FNO+
170.0713	234	C10H8N3+
171.079	999	C10H9N3+
172.0868	22	C10H10N3+
174.0661	1	C9H8N3O+
185.0823	122	C10H9N4+
186.0665	646	C10H8N3O+
186.0897	920	C10H10N4+
187.0736	3	C10H9N3O+
188.0816	5	C10H10N3O+
191.0591	1	C8H6FN5+
197.0822	449	C11H9N4+
198.0661	448	C11H8N3O+
205.0728	1	C9H8FN5+
213.0769	255	C11H9N4O+
214.0848	235	C11H10N4O+
215.0925	47	C11H11N4O+
226.0533	4	C13H7FN2O+
241.0771	36	C14H10FN2O+
243.0798	4	C13H10FN3O+
258.1036	27	C14H13FN3O+
297.1134	2	C19H13N4+
302.1097	2	C19H13FN3+
303.104	2	C18H12FN4+
304.0989	1	C17H11FN5+
315.1042	1	C19H12FN4+
317.1194	2	C19H14FN4+
319.1346	2	C19H16FN4+
325.1084	2	C20H13N4O+
330.0913	19	C19H11FN4O+
332.0945	6	C18H11FN5O+
342.1335	1	C20H16N5O+
344.1303	2	C20H15FN5+
345.1145	20	C20H14FN4O+
362.1415	7	C20H17FN5O+
