Mass spectrum: Furosemide; LC-ESI-QFT; MS2; CE: 15; R=17500; [M-H]-
Name: Furosemide
Name: 4-chloro-2-(furan-2-ylmethylamino)-5-sulfamoylbenzoic acid
Formula: C12H11ClN2O5S
Exact mass: 330.0077
SMILES: NS(=O)(=O)C1=C(Cl)C=C(NCC2=CC=CO2)C(=C1)C(O)=O
InChI: InChI=1S/C12H11ClN2O5S/c13-9-5-10(15-6-7-2-1-3-20-7)8(12(16)17)4-11(9)21(14,18)19/h1-5,15H,6H2,(H,16,17)(H2,14,18,19)
Instrument: Q Exactive Orbitrap (Thermo Scientific)
Instrument type: LC-ESI-QFT
Ms type: MS2
Ion mode: NEGATIVE
Ionization: ESI
Fragmentation mode: HCD
Collision energy: 15
Resolution: 17500
Column name: Acquity BEH C18 1.7um, 2.1x150mm (Waters)
Retention time: 14.699 min
Base peak: 329.0005
Precursor m/z: 329.0004
Precursor type: [M-H]-
Precursor intensity: 7602330.672607
m/z	relative intensity	assigned
77.9656	1	NO2S-
185.0722	1	C11H9N2O-
189.9735	1	C6H5ClNO2S-
204.9843	67	C6H6ClN2O2S-
206.0379	2	C11H9ClNO-
249.0338	12	C11H9N2O3S-
267.0002	1	C11H8ClN2O2S-
269.9876	1	C10H7ClN2O3S-
285.0106	999	C11H10ClN2O3S-
329.0005	688	C12H10ClN2O5S-
