Mass spectrum: Fenpyroximate (Z,E); LC-ESI-QFT; MS2; CE: 30; R=17500; [M+H]+
Name: Fenpyroximate (Z,E)
Name: tert-butyl 4-[[(1,3-dimethyl-5-phenoxypyrazol-4-yl)methylideneamino]oxymethyl]benzoate
Formula: C24H27N3O4
Exact mass: 421.2002
SMILES: CN1N=C(C)C(C=NOCC2=CC=C(C=C2)C(=O)OC(C)(C)C)=C1OC1=CC=CC=C1
InChI: InChI=1S/C24H27N3O4/c1-17-21(22(27(5)26-17)30-20-9-7-6-8-10-20)15-25-29-16-18-11-13-19(14-12-18)23(28)31-24(2,3)4/h6-15H,16H2,1-5H3
Instrument: Q Exactive Orbitrap (Thermo Scientific)
Instrument type: LC-ESI-QFT
Ms type: MS2
Ion mode: POSITIVE
Ionization: ESI
Fragmentation mode: HCD
Collision energy: 30
Resolution: 17500
Column name: Acquity BEH C18 1.7um, 2.1x150mm (Waters)
Retention time: 20.132 min
Base peak: 79.0211
Precursor m/z: 422.2074
Precursor type: [M+H]+
Precursor intensity: 18698609.75
m/z	relative intensity	assigned
57.0699	27	C4H9+
68.0368	1	C3H4N2+
69.0446	1	C3H5N2+
71.0603	2	C3H7N2+
81.0446	2	C4H5N2+
82.0287	4	C4H4NO+
91.0542	1	C7H7+
92.0495	2	C6H6N+
93.0573	6	C6H7N+
94.0413	1	C6H6O+
95.0605	1	C5H7N2+
96.0682	18	C5H8N2+
97.0397	2	C4H5N2O+
104.0494	4	C7H6N+
106.0652	2	C7H8N+
107.0491	1	C7H7O+
109.0397	1	C5H5N2O+
110.0473	1	C5H6N2O+
110.0712	1	C5H8N3+
111.0553	1	C5H7N2O+
112.0631	1	C5H8N2O+
113.0709	9	C5H9N2O+
117.0572	3	C8H7N+
118.0651	2	C8H8N+
120.0445	1	C7H6NO+
121.076	1	C7H9N2+
122.0713	16	C6H8N3+
123.0553	6	C6H7N2O+
124.0508	2	C5H6N3O+
130.065	4	C9H8N+
131.0728	1	C9H9N+
132.0444	5	C8H6NO+
132.0682	1	C8H8N2+
133.0284	5	C8H5O2+
135.044	69	C8H7O2+
137.0582	3	C6H7N3O+
138.0662	142	C6H8N3O+
139.05	1	C6H7N2O2+
139.074	2	C6H9N3O+
142.0527	1	C9H6N2+
143.073	1	C10H9N+
144.0444	6	C9H6NO+
144.0806	1	C10H10N+
145.076	7	C9H9N2+
146.0601	2	C9H8NO+
146.0839	5	C9H10N2+
155.0491	6	C11H7O+
155.0604	2	C10H7N2+
155.0689	2	C6H9N3O2+
157.0607	9	C6H9N2O3+
157.076	8	C10H9N2+
158.0839	9	C10H10N2+
159.0678	21	C10H9NO+
159.0917	2	C10H11N2+
169.0759	2	C11H9N2+
170.0601	7	C11H8NO+
170.0835	1	C11H10N2+
171.0677	2	C11H9NO+
171.0915	1	C11H11N2+
172.063	1	C10H8N2O+
172.0868	1	C10H10N3+
173.071	18	C10H9N2O+
174.0788	6	C10H10N2O+
184.063	1	C11H8N2O+
185.0709	4	C11H9N2O+
186.055	6	C11H8NO2+
186.079	1	C11H10N2O+
186.1025	12	C11H12N3+
187.0626	3	C11H9NO2+
187.0867	1	C11H11N2O+
187.1103	7	C11H13N3+
189.1021	8	C11H13N2O+
191.0817	1	C10H11N2O2+
197.0711	1	C12H9N2O+
198.0789	5	C12H10N2O+
199.0742	5	C11H9N3O+
199.0866	15	C12H11N2O+
200.082	5	C11H10N3O+
200.0945	1	C12H12N2O+
201.0662	1	C11H9N2O2+
201.1022	1	C12H13N2O+
202.0976	16	C11H12N3O+
203.1055	4	C11H13N3O+
212.0821	1	C12H10N3O+
213.0899	2	C12H11N3O+
214.0975	145	C12H12N3O+
215.1053	267	C12H13N3O+
216.077	1	C11H10N3O2+
216.1131	12	C12H14N3O+
230.0926	8	C12H12N3O2+
231.1003	243	C12H13N3O2+
256.108	1	C14H14N3O2+
273.1109	3	C14H15N3O3+
335.139	11	C20H19N2O3+
348.1345	8	C20H18N3O3+
366.1449	999	C20H20N3O4+
422.2076	1	C24H28N3O4+
