Mass spectrum: Atorvastatin; LC-ESI-QFT; MS2; CE: 30; R=17500; [M+H]+
Name: Atorvastatin
Name: (3R,5R)-7-[2-(4-fluorophenyl)-3-phenyl-4-(phenylcarbamoyl)-5-propan-2-ylpyrrol-1-yl]-3,5-dihydroxyheptanoic acid
Formula: C33H35FN2O5
Exact mass: 558.2530
SMILES: CC(C)C1=C(C(=O)NC2=CC=CC=C2)C(=C(N1CC[C@@H](O)C[C@@H](O)CC(O)=O)C1=CC=C(F)C=C1)C1=CC=CC=C1
InChI: InChI=1S/C33H35FN2O5/c1-21(2)31-30(33(41)35-25-11-7-4-8-12-25)29(22-9-5-3-6-10-22)32(23-13-15-24(34)16-14-23)36(31)18-17-26(37)19-27(38)20-28(39)40/h3-16,21,26-27,37-38H,17-20H2,1-2H3,(H,35,41)(H,39,40)/t26-,27-/m1/s1
Instrument: Q Exactive Orbitrap (Thermo Scientific)
Instrument type: LC-ESI-QFT
Ms type: MS2
Ion mode: POSITIVE
Ionization: ESI
Fragmentation mode: HCD
Collision energy: 30
Resolution: 17500
Column name: Acquity BEH C18 1.7um, 2.1x150mm (Waters)
Retention time: 17.818 min
Base peak: 79.0211
Precursor m/z: 559.2603
Precursor type: [M+H]+
Precursor intensity: 9297934.25
m/z	relative intensity	assigned
79.0542	5	C6H7+
83.049	4	C5H7O+
89.0232	4	C3H5O3+
92.0494	2	C6H6N+
101.0598	4	C5H9O2+
107.0489	2	C7H7O+
120.0444	14	C7H6NO+
125.0597	3	C7H9O2+
197.0959	1	C14H13O+
237.0942	1	C16H12FN+
238.1025	14	C16H13FN+
248.0878	1	C17H11FN+
249.0947	7	C17H12FN+
250.1027	257	C17H13FN+
251.1108	3	C17H14FN+
252.1184	13	C17H15FN+
262.1024	9	C18H13FN+
264.1188	1	C18H15FN+
276.083	8	C18H11FNO+
276.1183	110	C19H15FN+
277.1255	4	C19H16FN+
279.1417	13	C19H18FN+
280.1496	32	C19H19FN+
290.1345	4	C20H17FN+
291.1417	1	C20H18FN+
292.1497	466	C20H19FN+
294.0928	6	C18H13FNO2+
294.1287	4	C19H17FNO+
294.1653	76	C20H21FN+
300.1177	1	C21H15FN+
302.0985	4	C20H13FNO+
302.134	13	C21H17FN+
304.1501	3	C21H19FN+
306.1291	10	C20H17FNO+
316.1491	4	C22H19FN+
318.1653	56	C22H21FN+
320.1444	23	C21H19FNO+
334.1252	1	C21H17FNO2+
336.1404	7	C21H19FNO2+
336.1758	15	C22H23FNO+
344.1448	14	C23H19FNO+
344.181	4	C24H23FN+
360.14	9	C23H19FNO2+
362.1552	120	C23H21FNO2+
370.1238	4	C24H17FNO2+
380.1659	280	C23H23FNO3+
380.2008	20	C27H26NO+
386.1921	2	C26H25FNO+
388.1345	7	C24H19FNO3+
398.1765	56	C23H25FNO4+
404.2023	66	C26H27FNO2+
406.1818	4	C25H25FNO3+
411.1866	4	C27H24FN2O+
413.2027	2	C27H26FN2O+
422.2128	224	C26H29FNO3+
424.1561	11	C24H23FNO5+
430.1818	15	C27H25FNO3+
440.2235	999	C26H31FNO4+
448.1923	12	C27H27FNO4+
466.2029	132	C27H29FNO5+
541.2503	1	C33H34FN2O4+
