Mass spectrum: Triclopyr; LC-ESI-QFT; MS2; CE: 30; R=17500; [M-H]-
Name: Triclopyr
Name: 2-(3,5,6-trichloropyridin-2-yl)oxyacetic acid
Formula: C7H4Cl3NO3
Exact mass: 254.9257
SMILES: OC(=O)COC1=C(Cl)C=C(Cl)C(Cl)=N1
InChI: InChI=1S/C7H4Cl3NO3/c8-3-1-4(9)7(11-6(3)10)14-2-5(12)13/h1H,2H2,(H,12,13)
Instrument: Q Exactive Orbitrap (Thermo Scientific)
Instrument type: LC-ESI-QFT
Ms type: MS2
Ion mode: NEGATIVE
Ionization: ESI
Fragmentation mode: HCD
Collision energy: 30
Resolution: 17500
Column name: Acquity BEH C18 1.7um, 2.1x150mm (Waters)
Retention time: 17.506 min
Base peak: 462.1293
Precursor m/z: 253.9184
Precursor type: [M-H]-
Precursor intensity: 296102.949707
m/z	relative intensity	assigned
183.9133	61	C4HCl3NO-
195.913	999	C5HCl3NO-
