Mass spectrum: Pyriproxyfen; LC-ESI-QFT; MS2; CE: 45; R=17500; [M+H]+
Name: Pyriproxyfen
Name: 2-[1-(4-phenoxyphenoxy)propan-2-yloxy]pyridine
Formula: C20H19NO3
Exact mass: 321.1365
SMILES: CC(COC1=CC=C(OC2=CC=CC=C2)C=C1)OC1=NC=CC=C1
InChI: InChI=1S/C20H19NO3/c1-16(23-20-9-5-6-14-21-20)15-22-17-10-12-19(13-11-17)24-18-7-3-2-4-8-18/h2-14,16H,15H2,1H3
Instrument: Q Exactive Orbitrap (Thermo Scientific)
Instrument type: LC-ESI-QFT
Ms type: MS2
Ion mode: POSITIVE
Ionization: ESI
Fragmentation mode: HCD
Collision energy: 45
Resolution: 17500
Column name: Acquity BEH C18 1.7um, 2.1x150mm (Waters)
Retention time: 19.691 min
Base peak: 79.0211
Precursor m/z: 322.1438
Precursor type: [M+H]+
Precursor intensity: 35021916.28125
m/z	relative intensity	assigned
53.0386	3	C4H5+
55.0178	1	C3H3O+
77.0388	3	C6H5+
78.0337	8	C5H4N+
79.0542	1	C6H7+
91.0542	5	C7H7+
93.0696	1	C7H9+
95.0492	9	C6H7O+
96.0444	999	C5H6NO+
103.0541	1	C8H7+
105.0699	30	C8H9+
106.0776	1	C8H10+
107.0491	5	C7H7O+
110.0599	2	C6H8NO+
115.0544	3	C9H7+
116.0621	1	C9H8+
117.0699	1	C9H9+
119.0492	92	C8H7O+
121.0648	1	C8H9O+
128.0621	3	C10H8+
129.0698	79	C10H9+
133.0648	24	C9H9O+
134.0726	135	C9H10O+
136.0757	17	C8H10NO+
141.0698	13	C11H9+
143.0855	2	C11H11+
153.0698	3	C12H9+
157.0648	19	C11H9O+
165.0699	1	C13H9+
166.0775	2	C13H10+
169.0648	2	C12H9O+
170.0727	8	C12H10O+
171.0805	6	C12H11O+
171.1167	1	C13H15+
181.0648	4	C13H9O+
181.101	2	C14H13+
184.0522	1	C12H8O2+
184.0883	1	C13H12O+
185.0597	249	C12H9O2+
186.0675	4	C12H10O2+
187.0753	1	C12H11O2+
191.0851	2	C15H11+
194.0726	4	C14H10O+
197.0597	1	C13H9O2+
198.0673	2	C13H10O2+
199.0754	18	C13H11O2+
199.1118	1	C14H15O+
209.0964	3	C15H13O+
212.0832	1	C14H12O2+
227.1064	7	C15H15O2+
