Mass spectrum: 6-Pentyl-2H-pyran-2-one; LC-ESI-QFT; MS2; CE: 30; R=17500; [M+H]+
Name: 6-Pentyl-2H-pyran-2-one
Name: 6-pentylpyran-2-one
Formula: C10H14O2
Exact mass: 166.0994
SMILES: CCCCCC1=CC=CC(=O)O1
InChI: InChI=1S/C10H14O2/c1-2-3-4-6-9-7-5-8-10(11)12-9/h5,7-8H,2-4,6H2,1H3
Instrument: Q Exactive Orbitrap (Thermo Scientific)
Instrument type: LC-ESI-QFT
Ms type: MS2
Ion mode: POSITIVE
Ionization: ESI
Fragmentation mode: HCD
Collision energy: 30
Resolution: 17500
Column name: Acquity BEH C18 1.7um, 2.1x150mm (Waters)
Retention time: 16.695 min
Base peak: 79.0211
Precursor m/z: 167.1067
Precursor type: [M+H]+
Precursor intensity: 1665184.40625
m/z	relative intensity	assigned
55.0543	7	C4H7+
65.0385	2	C5H5+
67.0543	23	C5H7+
69.0698	8	C5H9+
79.0542	16	C6H7+
81.0699	19	C6H9+
83.0492	11	C5H7O+
93.0336	2	C6H5O+
93.0699	18	C7H9+
95.0491	1	C6H7O+
95.0853	2	C7H11+
97.0285	37	C5H5O2+
97.0648	4	C6H9O+
99.0441	1	C5H7O2+
107.0492	7	C7H7O+
107.0858	3	C8H11+
110.0363	2	C6H6O2+
111.0441	5	C6H7O2+
121.0648	2	C8H9O+
121.1013	10	C9H13+
131.0856	6	C10H11+
139.112	2	C9H15O+
149.0962	4	C10H13O+
167.1068	999	C10H15O2+
