Mass spectrum: Fenpyroximate (Z,E); LC-ESI-QFT; MS2; CE: 75; R=17500; [M+H]+
Name: Fenpyroximate (Z,E)
Name: tert-butyl 4-[[(1,3-dimethyl-5-phenoxypyrazol-4-yl)methylideneamino]oxymethyl]benzoate
Formula: C24H27N3O4
Exact mass: 421.2002
SMILES: CN1N=C(C)C(C=NOCC2=CC=C(C=C2)C(=O)OC(C)(C)C)=C1OC1=CC=CC=C1
InChI: InChI=1S/C24H27N3O4/c1-17-21(22(27(5)26-17)30-20-9-7-6-8-10-20)15-25-29-16-18-11-13-19(14-12-18)23(28)31-24(2,3)4/h6-15H,16H2,1-5H3
Instrument: Q Exactive Orbitrap (Thermo Scientific)
Instrument type: LC-ESI-QFT
Ms type: MS2
Ion mode: POSITIVE
Ionization: ESI
Fragmentation mode: HCD
Collision energy: 75
Resolution: 17500
Column name: Acquity BEH C18 1.7um, 2.1x150mm (Waters)
Retention time: 20.132 min
Base peak: 79.0211
Precursor m/z: 422.2074
Precursor type: [M+H]+
Precursor intensity: 16987994.75
m/z	relative intensity	assigned
51.0229	5	C4H3+
52.0182	14	C3H2N+
53.0022	10	C3HO+
53.0386	92	C4H5+
54.0338	219	C3H4N+
55.0178	38	C3H3O+
55.0416	77	C3H5N+
55.0544	4	C4H7+
56.0495	79	C3H6N+
57.0447	36	C2H5N2+
57.0698	48	C4H9+
58.0287	27	C2H4NO+
63.0229	13	C5H3+
64.0307	13	C5H4+
65.0385	121	C5H5+
66.0338	132	C4H4N+
66.0463	49	C5H6+
67.0178	32	C4H3O+
67.029	10	C3H3N2+
67.0416	68	C4H5N+
67.0543	7	C5H7+
68.013	52	C3H2NO+
68.0369	25	C3H4N2+
68.0494	179	C4H6N+
69.0447	179	C3H5N2+
69.0572	10	C4H7N+
70.0287	33	C3H4NO+
71.0603	322	C3H7N2+
74.0964	4	C4H12N+
77.0383	42	C6H5+
78.0339	3	C5H4N+
78.0463	25	C6H6+
79.0291	49	C4H3N2+
79.0415	15	C5H5N+
79.0542	144	C6H7+
80.013	52	C4H2NO+
80.0368	11	C4H4N2+
80.0494	41	C5H6N+
81.0447	859	C4H5N2+
82.0287	510	C4H4NO+
82.0525	41	C4H6N2+
83.0604	118	C4H7N2+
84.0444	83	C4H6NO+
89.0386	30	C7H5+
90.0464	48	C7H6+
91.0416	153	C6H5N+
91.0542	185	C7H7+
92.0494	137	C6H6N+
92.0621	6	C7H8+
93.0448	72	C5H5N2+
93.0573	213	C6H7N+
94.0287	54	C5H4NO+
94.0413	105	C6H6O+
94.0525	15	C5H6N2+
94.0651	16	C6H8N+
95.0492	304	C6H7O+
95.0603	622	C5H7N2+
96.0444	16	C5H6NO+
96.0681	162	C5H8N2+
97.0396	104	C4H5N2O+
99.0552	38	C4H7N2O+
102.0463	15	C8H6+
103.0416	38	C7H5N+
103.0542	41	C8H7+
104.0494	222	C7H6N+
105.0336	28	C7H5O+
105.0447	128	C6H5N2+
105.0572	12	C7H7N+
105.0698	9	C8H9+
106.0651	194	C7H8N+
107.024	91	C5H3N2O+
107.0491	999	C7H7O+
108.0445	17	C6H6NO+
108.0556	41	C5H6N3+
109.0396	97	C5H5N2O+
109.0521	11	C6H7NO+
109.0645	4	C7H9O+
110.0236	16	C5H4NO2+
110.0474	31	C5H6N2O+
110.0713	114	C5H8N3+
111.044	26	C6H7O2+
111.0552	217	C5H7N2O+
112.0631	12	C5H8N2O+
113.071	30	C5H9N2O+
115.0542	158	C9H7+
116.0494	111	C8H6N+
116.062	17	C9H8+
117.0572	319	C8H7N+
117.0697	33	C9H9+
118.0412	15	C8H6O+
118.065	148	C8H8N+
119.0494	4	C8H7O+
119.0604	18	C7H7N2+
120.0444	15	C7H6NO+
120.0556	62	C6H6N3+
120.0809	8	C8H10N+
121.0397	9	C6H5N2O+
121.0634	112	C6H7N3+
121.076	43	C7H9N2+
122.0712	184	C6H8N3+
123.0552	255	C6H7N2O+
124.0506	12	C5H6N3O+
125.0706	5	C6H9N2O+
127.05	34	C5H7N2O2+
127.0545	6	C10H7+
128.0494	69	C9H6N+
128.062	10	C10H8+
129.0447	8	C8H5N2+
129.0573	71	C9H7N+
129.0698	50	C10H9+
130.0651	474	C9H8N+
131.0492	19	C9H7O+
131.0603	78	C8H7N2+
131.0729	40	C9H9N+
132.0444	58	C8H6NO+
132.0566	8	C9H8O+
132.0681	82	C8H8N2+
132.0807	21	C9H10N+
133.0521	10	C8H7NO+
133.0761	31	C8H9N2+
134.0601	13	C8H8NO+
135.044	289	C8H7O2+
136.0505	35	C6H6N3O+
137.0584	8	C6H7N3O+
138.0662	745	C6H8N3O+
139.0502	8	C6H7N2O2+
140.0495	36	C10H6N+
141.0573	33	C10H7N+
142.0525	32	C9H6N2+
142.0651	138	C10H8N+
143.0367	22	C9H5NO+
143.0604	284	C9H7N2+
143.0729	98	C10H9N+
144.0444	524	C9H6NO+
144.0807	104	C10H10N+
145.0659	33	C10H9O+
145.0759	247	C9H9N2+
146.0599	139	C9H8NO+
146.0837	13	C9H10N2+
147.0916	6	C9H11N2+
148.0756	3	C9H10NO+
149.071	3	C8H9N2O+
154.0661	24	C11H8N+
155.0496	34	C11H7O+
155.0602	136	C10H7N2+
156.0443	10	C10H6NO+
156.068	25	C10H8N2+
156.0806	4	C11H10N+
157.0606	61	C6H9N2O3+
157.076	216	C10H9N2+
158.0474	7	C9H6N2O+
158.06	37	C10H8NO+
158.0839	60	C10H10N2+
159.0678	83	C10H9NO+
159.0916	51	C10H11N2+
160.0393	6	C9H6NO2+
160.0756	41	C10H10NO+
161.047	11	C9H7NO2+
161.071	6	C9H9N2O+
162.0548	8	C9H8NO2+
163.0861	4	C9H11N2O+
168.068	9	C11H8N2+
169.076	127	C11H9N2+
170.0599	123	C11H8NO+
170.0709	10	C10H8N3+
170.0835	7	C11H10N2+
171.0552	26	C10H7N2O+
171.0678	12	C11H9NO+
171.0787	10	C10H9N3+
171.0914	25	C11H11N2+
172.0758	15	C11H10NO+
172.0866	16	C10H10N3+
173.0709	122	C10H9N2O+
173.1075	8	C11H13N2+
174.0548	7	C10H8NO2+
174.0787	4	C10H10N2O+
174.1024	9	C10H12N3+
175.0633	3	C10H9NO2+
175.0866	9	C10H11N2O+
177.042	3	C9H7NO3+
183.0553	21	C11H7N2O+
184.0632	9	C11H8N2O+
184.0756	3	C12H10NO+
184.087	3	C11H10N3+
185.0709	95	C11H9N2O+
186.0553	5	C11H8NO2+
186.1025	70	C11H12N3+
187.0865	57	C11H11N2O+
188.0705	3	C11H10NO2+
188.0942	5	C11H12N2O+
189.1025	3	C11H13N2O+
197.071	35	C12H9N2O+
198.0662	5	C11H8N3O+
198.0789	10	C12H10N2O+
198.1024	8	C12H12N3+
199.074	57	C11H9N3O+
199.0864	43	C12H11N2O+
200.0818	46	C11H10N3O+
200.0935	4	C12H12N2O+
201.1022	11	C12H13N2O+
202.0974	16	C11H12N3O+
212.082	6	C12H10N3O+
213.0894	6	C12H11N3O+
214.0974	301	C12H12N3O+
230.0917	4	C12H12N3O2+
