Mass spectrum: Methadone; LC-ESI-QFT; MS2; CE: 60; R=17500; [M+H]+
Name: Methadone
Name: 6-(dimethylamino)-4,4-diphenylheptan-3-one
Formula: C21H27NO
Exact mass: 309.2093
SMILES: CCC(=O)C(CC(C)N(C)C)(C1=CC=CC=C1)C1=CC=CC=C1
InChI: InChI=1S/C21H27NO/c1-5-20(23)21(16-17(2)22(3)4,18-12-8-6-9-13-18)19-14-10-7-11-15-19/h6-15,17H,5,16H2,1-4H3
Instrument: Q Exactive Orbitrap (Thermo Scientific)
Instrument type: LC-ESI-QFT
Ms type: MS2
Ion mode: POSITIVE
Ionization: ESI
Fragmentation mode: HCD
Collision energy: 60
Resolution: 17500
Column name: Acquity BEH C18 1.7um, 2.1x150mm (Waters)
Retention time: 15.477 min
Base peak: 79.0211
Precursor m/z: 310.2165
Precursor type: [M+H]+
Precursor intensity: 66141677
m/z	relative intensity	assigned
53.0386	25	C4H5+
55.0542	1	C4H7+
57.0335	162	C3H5O+
65.0385	1	C5H5+
69.0334	6	C4H5O+
69.0697	1	C5H9+
77.0385	13	C6H5+
79.0541	5	C6H7+
81.0335	2	C5H5O+
91.0542	289	C7H7+
94.0412	1	C6H6O+
95.0491	73	C6H7O+
103.0543	4	C8H7+
105.0335	999	C7H5O+
105.0697	105	C8H9+
107.0491	5	C7H7O+
115.0542	12	C9H7+
116.0621	1	C9H8+
117.0699	164	C9H9+
119.0856	2	C9H11+
128.062	8	C10H8+
129.0698	47	C10H9+
130.0777	1	C10H10+
131.0492	2	C9H7O+
131.0855	16	C10H11+
135.0804	6	C9H11O+
141.0698	9	C11H9+
143.0855	12	C11H11+
145.0648	21	C10H9O+
145.1012	4	C11H13+
147.0804	8	C10H11O+
154.0777	5	C12H10+
155.0856	1	C12H11+
158.0725	3	C11H10O+
159.0805	8	C11H11O+
159.1168	14	C12H15+
165.0696	3	C13H9+
166.0778	3	C13H10+
167.0855	41	C13H11+
169.1009	5	C13H13+
178.0777	10	C14H10+
179.0857	8	C14H11+
180.0932	2	C14H12+
181.1011	1	C14H13+
187.1119	2	C13H15O+
190.0775	3	C15H10+
191.0855	14	C15H11+
192.0934	2	C15H12+
193.1015	2	C15H13+
194.0726	16	C14H10O+
195.0805	5	C14H11O+
195.1169	32	C15H15+
202.0778	2	C16H10+
203.0856	20	C16H11+
204.0934	88	C16H12+
205.1012	22	C16H13+
206.109	2	C16H14+
207.1167	1	C16H15+
208.0884	1	C15H12O+
209.0964	1	C15H13O+
217.1012	16	C17H13+
218.109	46	C17H14+
219.1168	62	C17H15+
221.0954	4	C16H13O+
223.1117	13	C16H15O+
224.1199	2	C16H16O+
232.1247	7	C18H16+
236.1196	8	C17H16O+
247.1483	1	C19H19+
265.1583	1	C19H21O+
