Mass spectrum: 12-Hydroxyoctadecanoic acid; LC-ESI-QFT; MS2; CE: 60; R=17500; [M-H]-
Name: 12-Hydroxyoctadecanoic acid
Formula: C18H36O3
Exact mass: 300.2664
SMILES: CCCCCCC(O)CCCCCCCCCCC(O)=O
InChI: InChI=1S/C18H36O3/c1-2-3-4-11-14-17(19)15-12-9-7-5-6-8-10-13-16-18(20)21/h17,19H,2-16H2,1H3,(H,20,21)
Instrument: Q Exactive Orbitrap (Thermo Scientific)
Instrument type: LC-ESI-QFT
Ms type: MS2
Ion mode: NEGATIVE
Ionization: ESI
Fragmentation mode: HCD
Collision energy: 60
Resolution: 17500
Column name: Acquity BEH C18 1.7um, 2.1x150mm (Waters)
Retention time: 20.158 min
Base peak: 112.9856
Precursor m/z: 299.2592
Precursor type: [M-H]-
Precursor intensity: 7355479.067871
m/z	relative intensity	assigned
57.0346	106	C3H5O-
111.0817	134	C7H11O-
113.0972	803	C7H13O-
127.113	237	C8H15O-
139.113	101	C9H15O-
167.144	391	C11H19O-
169.1599	411	C11H21O-
183.1759	56	C12H23O-
211.1707	54	C13H23O2-
213.1496	67	C12H21O3-
253.2536	323	C17H33O-
281.2486	285	C18H33O2-
297.2436	235	C18H33O3-
299.2592	999	C18H35O3-
