Mass spectrum: PharmaGSID_48519; LC-ESI-QFT; MS2; CE: 30; R=17500; [M+H]+
Name: PharmaGSID_48519
Name: 3-(2-bromophenyl)-7-[[2-(hydroxymethyl)-2,3-dihydro-1,4-benzodioxin-6-yl]amino]-1-methyl-4H-pyrimido[4,5-d]pyrimidin-2-one
Formula: C22H20BrN5O4
Exact mass: 497.0699
SMILES: CN1C(=O)N(CC2=CN=C(NC3=CC4=C(OC(CO)CO4)C=C3)N=C12)C1=CC=CC=C1Br
InChI: InChI=1S/C22H20BrN5O4/c1-27-20-13(10-28(22(27)30)17-5-3-2-4-16(17)23)9-24-21(26-20)25-14-6-7-18-19(8-14)31-12-15(11-29)32-18/h2-9,15,29H,10-12H2,1H3,(H,24,25,26)
Instrument: Q Exactive Orbitrap (Thermo Scientific)
Instrument type: LC-ESI-QFT
Ms type: MS2
Ion mode: POSITIVE
Ionization: ESI
Fragmentation mode: HCD
Collision energy: 30
Resolution: 17500
Column name: Acquity BEH C18 1.7um, 2.1x150mm (Waters)
Retention time: 16.353 min
Base peak: 79.0211
Precursor m/z: 498.0771
Precursor type: [M+H]+
Precursor intensity: 4426737.1875
m/z	relative intensity	assigned
95.0603	23	C5H7N2+
215.0926	2	C11H11N4O+
243.0875	3	C12H11N4O2+
301.1295	522	C15H17N4O3+
412.0395	2	C18H15BrN5O2+
498.0774	999	C22H21BrN5O4+
