Mass spectrum: Benzyl butyl phthalate; LC-ESI-QFT; MS2; CE: 75; R=17500; [M+H]+
Name: Benzyl butyl phthalate
Name: 2-O-benzyl 1-O-butyl benzene-1,2-dicarboxylate
Formula: C19H20O4
Exact mass: 312.1362
SMILES: CCCCOC(=O)C1=C(C=CC=C1)C(=O)OCC1=CC=CC=C1
InChI: InChI=1S/C19H20O4/c1-2-3-13-22-18(20)16-11-7-8-12-17(16)19(21)23-14-15-9-5-4-6-10-15/h4-12H,2-3,13-14H2,1H3
Instrument: Q Exactive Orbitrap (Thermo Scientific)
Instrument type: LC-ESI-QFT
Ms type: MS2
Ion mode: POSITIVE
Ionization: ESI
Fragmentation mode: HCD
Collision energy: 75
Resolution: 17500
Column name: Acquity BEH C18 1.7um, 2.1x150mm (Waters)
Retention time: 19.153 min
Base peak: 79.0211
Precursor m/z: 313.1434
Precursor type: [M+H]+
Precursor intensity: 10177451.32813
m/z	relative intensity	assigned
65.0387	82	C5H5+
91.0543	999	C7H7+
105.0336	97	C7H5O+
105.07	36	C8H9+
149.0237	55	C8H5O3+
