Mass spectrum: Buspirone; LC-ESI-QFT; MS2; CE: 75; R=17500; [M+H]+
Name: Buspirone
Name: 8-[4-(4-pyrimidin-2-ylpiperazin-1-yl)butyl]-8-azaspiro[4.5]decane-7,9-dione
Formula: C21H31N5O2
Exact mass: 385.2478
SMILES: O=C1CC2(CCCC2)CC(=O)N1CCCCN1CCN(CC1)C1=NC=CC=N1
InChI: InChI=1S/C21H31N5O2/c27-18-16-21(6-1-2-7-21)17-19(28)26(18)11-4-3-10-24-12-14-25(15-13-24)20-22-8-5-9-23-20/h5,8-9H,1-4,6-7,10-17H2
Instrument: Q Exactive Orbitrap (Thermo Scientific)
Instrument type: LC-ESI-QFT
Ms type: MS2
Ion mode: POSITIVE
Ionization: ESI
Fragmentation mode: HCD
Collision energy: 75
Resolution: 17500
Column name: Acquity BEH C18 1.7um, 2.1x150mm (Waters)
Retention time: 13.245 min
Base peak: 79.0211
Precursor m/z: 386.2551
Precursor type: [M+H]+
Precursor intensity: 37858154.5
m/z	relative intensity	assigned
53.0386	7	C4H5+
54.0339	4	C3H4N+
55.0178	2	C3H3O+
55.0542	31	C4H7+
56.0495	26	C3H6N+
58.0651	2	C3H8N+
60.0444	7	C2H6NO+
67.0542	82	C5H7+
68.0494	10	C4H6N+
68.9971	1	C3HO2+
69.0446	3	C3H5N2+
69.0573	1	C4H7N+
69.0698	7	C5H9+
70.0651	6	C4H8N+
72.0807	36	C4H10N+
78.0338	5	C5H4N+
79.0289	2	C4H3N2+
79.0542	29	C6H7+
80.0494	145	C5H6N+
81.0448	37	C4H5N2+
81.0699	186	C6H9+
82.0651	1	C5H8N+
83.0855	5	C6H11+
84.0445	3	C4H6NO+
84.0808	11	C5H10N+
86.0237	2	C3H4NO2+
91.0541	2	C7H7+
93.0699	7	C7H9+
94.0652	2	C6H8N+
95.0604	146	C5H7N2+
95.0855	180	C7H11+
96.0444	33	C5H6NO+
96.0556	41	C4H6N3+
96.0808	4	C6H10N+
97.0396	78	C4H5N2O+
97.1011	5	C7H13+
98.0601	10	C5H8NO+
98.0964	99	C6H12N+
105.0447	6	C6H5N2+
105.0698	6	C8H9+
106.04	14	C5H4N3+
106.0654	1	C7H8N+
107.0605	3	C6H7N2+
107.0855	16	C8H11+
108.0556	12	C5H6N3+
108.0809	3	C7H10N+
109.0648	193	C7H9O+
109.1012	125	C8H13+
110.0965	8	C7H12N+
111.0554	1	C5H7N2O+
114.0915	1	C6H12NO+
117.0698	1	C9H9+
119.0604	6	C7H7N2+
120.0556	19	C6H6N3+
121.0759	4	C7H9N2+
122.0712	999	C6H8N3+
123.0803	82	C8H11O+
124.112	15	C8H14N+
126.0913	14	C7H12NO+
131.0602	8	C8H7N2+
132.0556	4	C7H6N3+
133.0634	33	C7H7N3+
134.0711	1	C7H8N3+
134.0965	6	C9H12N+
135.0803	6	C9H11O+
136.0868	2	C7H10N3+
140.107	60	C8H14NO+
146.0713	3	C8H8N3+
148.0869	161	C8H10N3+
149.082	2	C7H9N4+
150.0913	4	C9H12NO+
150.1025	58	C8H12N3+
151.0753	4	C9H11O2+
152.107	87	C9H14NO+
162.0898	3	C8H10N4+
168.1019	42	C9H14NO2+
180.1019	8	C10H14NO2+
194.1538	1	C12H20NO+
198.1131	3	C8H14N4O2+
222.1487	7	C13H20NO2+
265.1915	1	C15H25N2O2+
