Mass spectrum: Quinoxyfen; LC-ESI-QFT; MS2; CE: 75; R=17500; [M+H]+
Name: Quinoxyfen
Name: 5,7-dichloro-4-(4-fluorophenoxy)quinoline
Formula: C15H8Cl2FNO
Exact mass: 306.9967
SMILES: FC1=CC=C(OC2=CC=NC3=CC(Cl)=CC(Cl)=C23)C=C1
InChI: InChI=1S/C15H8Cl2FNO/c16-9-7-12(17)15-13(8-9)19-6-5-14(15)20-11-3-1-10(18)2-4-11/h1-8H
Instrument: Q Exactive Orbitrap (Thermo Scientific)
Instrument type: LC-ESI-QFT
Ms type: MS2
Ion mode: POSITIVE
Ionization: ESI
Fragmentation mode: HCD
Collision energy: 75
Resolution: 17500
Column name: Acquity BEH C18 1.7um, 2.1x150mm (Waters)
Retention time: 19.951 min
Base peak: 79.0211
Precursor m/z: 308.004
Precursor type: [M+H]+
Precursor intensity: 26139190.5
m/z	relative intensity	assigned
50.0152	1	C4H2+
51.023	4	C4H3+
53.0022	14	C3HO+
55.0179	1	C3H3O+
57.0135	1	C3H2F+
63.023	2	C5H3+
65.0385	3	C5H5+
69.0135	1	C4H2F+
71.0291	30	C4H4F+
72.9839	1	C3H2Cl+
73.0084	2	C3H2FO+
74.015	30	C6H2+
75.0229	246	C6H3+
79.0178	9	C5H3O+
83.0291	14	C5H4F+
87.023	1	C7H3+
88.0307	1	C7H4+
89.0386	5	C7H5+
90.0338	3	C6H4N+
91.0416	10	C6H5N+
91.0541	1	C7H7+
93.0335	3	C6H5O+
95.0291	75	C6H4F+
98.9995	4	C5H4Cl+
99.0239	4	C5H4FO+
104.0494	1	C7H6N+
108.0444	1	C6H6NO+
109.0448	13	C7H6F+
111.024	2	C6H4FO+
112.0316	6	C6H5FO+
113.0397	168	C6H6FO+
114.0338	13	C8H4N+
115.0416	34	C8H5N+
118.0288	12	C7H4NO+
119.0366	2	C7H5NO+
122.9996	114	C7H4Cl+
123.9948	3	C6H3ClN+
124.0074	2	C7H5Cl+
124.0324	2	C4H8ClFN+
126.0104	15	C6H5ClN+
127.0415	10	C9H5N+
132.0443	19	C8H6NO+
133.0522	17	C8H7NO+
138.0104	19	C7H5ClN+
142.0287	3	C9H4NO+
144.0443	1	C9H6NO+
149.0029	1	C8H4ClN+
150.0105	83	C8H5ClN+
151.0182	27	C8H6ClN+
154.0052	5	C7H5ClNO+
154.04	3	C11H6O+
156.9607	6	C7H3Cl2+
158.9759	1	C7H5Cl2+
161.0028	15	C9H4ClN+
162.0104	999	C9H5ClN+
163.0057	1	C11HNO+
164.9975	3	C8H4ClNO+
166.0053	34	C8H5ClNO+
167.0132	2	C8H6ClNO+
168.021	92	C8H7ClNO+
169.9684	25	C8H4Cl2+
171.9716	9	C7H4Cl2N+
172.9667	1	C9ClNO+
172.9794	4	C7H5Cl2N+
178.0054	12	C9H5ClNO+
178.0166	25	C10H7ClO+
179.0132	49	C9H6ClNO+
180.021	34	C9H7ClNO+
181.0453	1	C13H6F+
182.0528	2	C13H7F+
183.0604	31	C13H8F+
183.9716	25	C8H4Cl2N+
184.0558	1	C12H7FN+
184.9793	140	C8H5Cl2N+
185.9873	1	C8H6Cl2N+
186.0477	4	C12H7FO+
189.0576	1	C14H7N+
190.0649	22	C14H8N+
191.0727	2	C14H9N+
194.0005	6	C15N+
194.0366	8	C10H9ClNO+
195.9716	14	C9H4Cl2N+
196.9793	725	C9H5Cl2N+
197.9875	2	C9H6Cl2N+
199.9662	9	C8H4Cl2NO+
200.975	4	C8H5Cl2NO+
201.0337	2	C12H8ClN+
204.0137	3	C12H6ClF+
208.0557	24	C14H7FN+
209.0635	83	C14H8FN+
210.0713	57	C14H9FN+
211.0031	1	C15HNO+
211.9665	7	C9H4Cl2NO+
212.9742	14	C9H5Cl2NO+
213.982	897	C9H6Cl2NO+
217.0214	19	C13H7ClF+
217.052	1	C15H7NO+
218.0594	2	C15H8NO+
219.0244	15	C12H7ClFN+
221.987	5	C11H6Cl2N+
224.0263	6	C14H7ClN+
225.0339	48	C14H8ClN+
226.0421	5	C14H9ClN+
228.9691	632	C15ClN+
230.9743	2	C13H5Cl2+
231.0245	1	C13H7ClFN+
232.9916	1	C13H7Cl2+
236.0504	3	C15H7FNO+
237.0583	163	C15H8FNO+
238.0662	15	C15H9FNO+
243.0245	19	C14H7ClFN+
244.0323	79	C14H8ClFN+
245.0401	108	C14H9ClFN+
252.0213	2	C15H7ClNO+
253.0286	24	C15H8ClNO+
254.0368	12	C15H9ClNO+
255.0243	4	C15H7ClFN+
256.0319	3	C15H8ClFN+
258.9953	2	C14H7Cl2N+
260.0023	4	C14H8Cl2N+
265.992	1	C13H7Cl2FN+
271.0193	4	C15H7ClFNO+
272.0272	196	C15H8ClFNO+
273.0353	3	C15H9ClFNO+
279.0013	4	C14H8Cl2FN+
280.0088	7	C14H9Cl2FN+
287.998	12	C15H8Cl2NO+
289.9934	1	C15H7Cl2FN+
308.0039	40	C15H9Cl2FNO+
