Mass spectrum: 4-[3-(4-Acetyl-3-hydroxy-2-propylphenoxy)propoxy]phenoxy-acetic acid; LC-ESI-QFT; MS2; CE: 45; R=17500; [M-H]-
Name: 4-[3-(4-Acetyl-3-hydroxy-2-propylphenoxy)propoxy]phenoxy-acetic acid
Name: 2-(4-(3-(4-Acetyl-3-hydroxy-2-propylphenoxy)propoxy)phenoxy)acetic acid
Name: 2-[4-[3-(4-acetyl-3-hydroxy-2-propylphenoxy)propoxy]phenoxy]acetic acid
Formula: C22H26O7
Exact mass: 402.1679
SMILES: CCCC1=C(OCCCOC2=CC=C(OCC(O)=O)C=C2)C=CC(C(C)=O)=C1O
InChI: InChI=1S/C22H26O7/c1-3-5-19-20(11-10-18(15(2)23)22(19)26)28-13-4-12-27-16-6-8-17(9-7-16)29-14-21(24)25/h6-11,26H,3-5,12-14H2,1-2H3,(H,24,25)
Instrument: Q Exactive Orbitrap (Thermo Scientific)
Instrument type: LC-ESI-QFT
Ms type: MS2
Ion mode: NEGATIVE
Ionization: ESI
Fragmentation mode: HCD
Collision energy: 45
Resolution: 17500
Column name: Acquity BEH C18 1.7um, 2.1x150mm (Waters)
Retention time: 19.176 min
Base peak: 401.1605
Precursor m/z: 401.1606
Precursor type: [M-H]-
Precursor intensity: 16680687.73047
m/z	relative intensity	assigned
85.0296	1	C4H5O2-
93.0346	1	C6H5O-
95.0138	1	C5H3O2-
107.0867	2	C8H11-
108.0216	999	C6H4O2-
109.0294	22	C6H5O2-
121.0295	13	C7H5O2-
122.0373	46	C7H6O2-
123.0094	1	C6H3O3-
123.0451	10	C7H7O2-
133.0661	1	C9H9O-
149.0971	12	C10H13O-
151.0764	14	C9H11O2-
161.0972	1	C11H13O-
163.04	65	C9H7O3-
164.0479	6	C9H8O3-
175.0766	1	C11H11O2-
177.0557	53	C10H9O3-
191.0714	12	C11H11O3-
191.108	1	C12H15O2-
192.0793	9	C11H12O3-
193.0869	509	C11H13O3-
195.066	2	C10H11O4-
196.0375	1	C9H8O5-
205.0869	43	C12H13O3-
233.1182	19	C14H17O3-
343.1549	21	C20H23O5-
