Mass spectrum: 4-Methylumbelliferone; LC-ESI-QFT; MS2; CE: 15; R=17500; [M+H]+
Name: 4-Methylumbelliferone
Name: 7-hydroxy-4-methylchromen-2-one
Formula: C10H8O3
Exact mass: 176.0473
SMILES: CC1=CC(=O)OC2=C1C=CC(O)=C2
InChI: InChI=1S/C10H8O3/c1-6-4-10(12)13-9-5-7(11)2-3-8(6)9/h2-5,11H,1H3
Instrument: Q Exactive Orbitrap (Thermo Scientific)
Instrument type: LC-ESI-QFT
Ms type: MS2
Ion mode: POSITIVE
Ionization: ESI
Fragmentation mode: HCD
Collision energy: 15
Resolution: 17500
Column name: Acquity BEH C18 1.7um, 2.1x150mm (Waters)
Retention time: 14.061 min
Base peak: 79.0211
Precursor m/z: 177.0546
Precursor type: [M+H]+
Precursor intensity: 5583211.875
m/z	relative intensity	assigned
55.0178	1	C3H3O+
79.0543	1	C6H7+
91.0543	1	C7H7+
105.07	14	C8H9+
115.0542	1	C9H7+
121.0648	4	C8H9O+
133.0647	4	C9H9O+
149.0598	1	C9H9O2+
177.0547	999	C10H9O3+
