Mass spectrum: 4-Nitroanthranilic acid; LC-ESI-QFT; MS2; CE: 60; R=17500; [M-H]-
Name: 4-Nitroanthranilic acid
Name: 2-amino-4-nitrobenzoic acid
Formula: C7H6N2O4
Exact mass: 182.0328
SMILES: NC1=C(C=CC(=C1)[N+]([O-])=O)C(O)=O
InChI: InChI=1S/C7H6N2O4/c8-6-3-4(9(12)13)1-2-5(6)7(10)11/h1-3H,8H2,(H,10,11)
Instrument: Q Exactive Orbitrap (Thermo Scientific)
Instrument type: LC-ESI-QFT
Ms type: MS2
Ion mode: NEGATIVE
Ionization: ESI
Fragmentation mode: HCD
Collision energy: 60
Resolution: 17500
Column name: Acquity BEH C18 1.7um, 2.1x150mm (Waters)
Retention time: 14.834 min
Base peak: 307.0282
Precursor m/z: 181.0255
Precursor type: [M-H]-
Precursor intensity: 5871408.293457
m/z	relative intensity	assigned
79.0429	4	C5H5N-
80.0268	110	C5H4O-
90.035	19	C6H4N-
92.9938	6	HN2O4-
106.0299	7	C6H4NO-
107.0377	999	C6H5NO-
122.0247	2	C6H4NO2-
137.0357	612	C6H5N2O2-
