Mass spectrum: Imazamox; LC-ESI-QFT; MS2; CE: 30; R=17500; [M+H]+
Name: Imazamox
Name: 5-(methoxymethyl)-2-(4-methyl-5-oxo-4-propan-2-yl-1H-imidazol-2-yl)pyridine-3-carboxylic acid
Formula: C15H19N3O4
Exact mass: 305.1376
SMILES: COCC1=CN=C(C2=NC(C)(C(C)C)C(=O)N2)C(=C1)C(O)=O
InChI: InChI=1S/C15H19N3O4/c1-8(2)15(3)14(21)17-12(18-15)11-10(13(19)20)5-9(6-16-11)7-22-4/h5-6,8H,7H2,1-4H3,(H,19,20)(H,17,18,21)
Instrument: Q Exactive Orbitrap (Thermo Scientific)
Instrument type: LC-ESI-QFT
Ms type: MS2
Ion mode: POSITIVE
Ionization: ESI
Fragmentation mode: HCD
Collision energy: 30
Resolution: 17500
Column name: Acquity BEH C18 1.7um, 2.1x150mm (Waters)
Retention time: 13.539 min
Base peak: 79.0211
Precursor m/z: 306.1448
Precursor type: [M+H]+
Precursor intensity: 13347731.875
m/z	relative intensity	assigned
58.0651	6	C3H8N+
69.0698	24	C5H9+
71.0855	2	C5H11+
86.0964	91	C5H12N+
97.0648	8	C6H9O+
114.0914	6	C6H12NO+
149.0709	7	C8H9N2O+
163.0502	1	C8H7N2O2+
175.0501	1	C9H7N2O2+
191.0816	4	C10H11N2O2+
192.0767	17	C9H10N3O2+
193.0608	44	C9H9N2O3+
210.0876	2	C9H12N3O3+
217.1335	61	C13H17N2O+
218.0926	3	C11H12N3O2+
219.1128	3	C12H15N2O2+
220.0965	1	C12H14NO3+
220.108	6	C11H14N3O2+
221.0921	1	C11H13N2O3+
234.16	7	C13H20N3O+
235.0948	4	C11H13N3O3+
243.1129	10	C14H15N2O2+
246.0873	83	C12H12N3O3+
260.1394	87	C14H18N3O2+
261.1234	331	C14H17N2O3+
262.1549	5	C14H20N3O2+
263.0897	7	C12H13N3O4+
264.0978	255	C12H14N3O4+
278.1499	163	C14H20N3O3+
288.1343	28	C15H18N3O3+
306.1448	999	C15H20N3O4+
