Mass spectrum: Atraton; LC-ESI-QFT; MS2; CE: 90; R=17500; [M+H]+
Name: Atraton
Name: 4-N-ethyl-6-methoxy-2-N-propan-2-yl-1,3,5-triazine-2,4-diamine
Formula: C9H17N5O
Exact mass: 211.1433
SMILES: CCNC1=NC(NC(C)C)=NC(OC)=N1
InChI: InChI=1S/C9H17N5O/c1-5-10-7-12-8(11-6(2)3)14-9(13-7)15-4/h6H,5H2,1-4H3,(H2,10,11,12,13,14)
Instrument: Q Exactive Orbitrap (Thermo Scientific)
Instrument type: LC-ESI-QFT
Ms type: MS2
Ion mode: POSITIVE
Ionization: ESI
Fragmentation mode: HCD
Collision energy: 90
Resolution: 17500
Column name: Acquity BEH C18 1.7um, 2.1x150mm (Waters)
Retention time: 13.594 min
Base peak: 79.0211
Precursor m/z: 212.1506
Precursor type: [M+H]+
Precursor intensity: 30361465.25
m/z	relative intensity	assigned
53.0022	9	C3HO+
53.9974	2	C2NO+
57.0447	738	C2H5N2+
58.0287	247	C2H4NO+
68.0243	999	C2H2N3+
69.0083	777	C2HN2O+
71.0603	297	C3H7N2+
74.0963	2	C4H12N+
75.0553	439	C2H7N2O+
82.04	60	C3H4N3+
83.024	115	C3H3N2O+
85.0509	22	C2H5N4+
85.076	127	C4H9N2+
86.0349	355	C2H4N3O+
92.0493	1	C6H6N+
96.0556	334	C4H6N3+
97.0397	193	C4H5N2O+
99.0665	32	C3H7N4+
100.0505	973	C3H6N3O+
110.0461	20	C3H4N5+
110.0712	4	C5H8N3+
111.03	2	C3H3N4O+
112.0505	3	C4H6N3O+
113.0821	4	C4H9N4+
114.0662	141	C4H8N3O+
119.0603	1	C7H7N2+
125.0458	7	C4H5N4O+
126.0537	2	C4H6N4O+
127.0976	2	C5H11N4+
128.0818	94	C5H10N3O+
138.0774	16	C5H8N5+
142.0723	124	C4H8N5O+
153.077	3	C6H9N4O+
168.0878	4	C6H10N5O+
170.1036	82	C6H12N5O+
