Mass spectrum: Folic acid; LC-ESI-QFT; MS2; CE: 60; R=17500; [M-H]-
Name: Folic acid
Name: (2S)-2-[[4-[(2-amino-4-oxo-1H-pteridin-6-yl)methylamino]benzoyl]amino]pentanedioic acid
Formula: C19H19N7O6
Exact mass: 441.1397
SMILES: NC1=NC(=O)C2=C(N1)N=CC(CNC1=CC=C(C=C1)C(=O)N[C@@H](CCC(O)=O)C(O)=O)=N2
InChI: InChI=1S/C19H19N7O6/c20-19-25-15-14(17(30)26-19)23-11(8-22-15)7-21-10-3-1-9(2-4-10)16(29)24-12(18(31)32)5-6-13(27)28/h1-4,8,12,21H,5-7H2,(H,24,29)(H,27,28)(H,31,32)(H3,20,22,25,26,30)/t12-/m0/s1
Instrument: Q Exactive Orbitrap (Thermo Scientific)
Instrument type: LC-ESI-QFT
Ms type: MS2
Ion mode: NEGATIVE
Ionization: ESI
Fragmentation mode: HCD
Collision energy: 60
Resolution: 17500
Column name: Acquity BEH C18 1.7um, 2.1x150mm (Waters)
Retention time: 11.004 min
Base peak: 116.9285
Precursor m/z: 440.1324
Precursor type: [M-H]-
Precursor intensity: 497838.5493164
m/z	relative intensity	assigned
66.0098	70	C2N3-
84.0456	47	C4H6NO-
92.0506	247	C6H6N-
102.0561	70	C4H8NO2-
117.0458	38	C7H5N2-
119.0364	80	C5H3N4-
128.0354	72	C5H6NO3-
132.0442	999	C6H4N4-
133.052	58	C6H5N4-
135.0565	120	C7H7N2O-
136.0405	98	C7H6NO2-
146.0456	22	C5H8NO4-
147.0564	42	C8H7N2O-
162.0422	44	C6H4N5O-
164.0341	123	C6H4N4O2-
175.05	426	C7H5N5O-
177.1034	75	C10H13N2O-
203.0832	17	C11H11N2O2-
207.0397	129	C7H5N5O3-
