Mass spectrum: N-[3-(Dimethylamino)propyl]dodecanamide; LC-ESI-QFT; MS2; CE: 30; R=17500; [M+H]+
Name: N-[3-(Dimethylamino)propyl]dodecanamide
Formula: C17H36N2O
Exact mass: 284.2828
SMILES: CCCCCCCCCCCC(=O)NCCCN(C)C
InChI: InChI=1S/C17H36N2O/c1-4-5-6-7-8-9-10-11-12-14-17(20)18-15-13-16-19(2)3/h4-16H2,1-3H3,(H,18,20)
Instrument: Q Exactive Orbitrap (Thermo Scientific)
Instrument type: LC-ESI-QFT
Ms type: MS2
Ion mode: POSITIVE
Ionization: ESI
Fragmentation mode: HCD
Collision energy: 30
Resolution: 17500
Column name: Acquity BEH C18 1.7um, 2.1x150mm (Waters)
Retention time: 17.468 min
Base peak: 79.0211
Precursor m/z: 285.29
Precursor type: [M+H]+
Precursor intensity: 61433544
m/z	relative intensity	assigned
57.07	1	C4H9+
58.0652	1	C3H8N+
71.0857	1	C5H11+
86.0964	21	C5H12N+
103.1229	4	C5H15N2+
109.1011	1	C8H13+
112.0763	1	C6H10NO+
183.1743	6	C12H23O+
240.232	999	C15H30NO+
285.2899	423	C17H37N2O+
