Mass spectrum: Coumatetralyl; LC-ESI-QFT; MS2; CE: 15; R=17500; [M+H]+
Name: Coumatetralyl
Name: 4-hydroxy-3-(1,2,3,4-tetrahydronaphthalen-1-yl)chromen-2-one
Formula: C19H16O3
Exact mass: 292.1099
SMILES: OC1=C(C2CCCC3=C2C=CC=C3)C(=O)OC2=C1C=CC=C2
InChI: InChI=1S/C19H16O3/c20-18-15-9-3-4-11-16(15)22-19(21)17(18)14-10-5-7-12-6-1-2-8-13(12)14/h1-4,6,8-9,11,14,20H,5,7,10H2
Instrument: Q Exactive Orbitrap (Thermo Scientific)
Instrument type: LC-ESI-QFT
Ms type: MS2
Ion mode: POSITIVE
Ionization: ESI
Fragmentation mode: HCD
Collision energy: 15
Resolution: 17500
Column name: Acquity BEH C18 1.7um, 2.1x150mm (Waters)
Retention time: 18.147 min
Base peak: 79.0211
Precursor m/z: 293.1172
Precursor type: [M+H]+
Precursor intensity: 17255685.28125
m/z	relative intensity	assigned
91.054	7	C7H7+
131.0853	7	C10H11+
163.0389	6	C9H7O3+
175.0388	37	C10H7O3+
189.054	1	C11H9O3+
215.0696	1	C13H11O3+
293.1168	999	C19H17O3+
