Mass spectrum: Pirinixic acid; LC-ESI-QFT; MS2; CE: 60; R=17500; [M+H]+
Name: Pirinixic acid
Name: 2-[4-chloro-6-(2,3-dimethylanilino)pyrimidin-2-yl]sulfanylacetic acid
Formula: C14H14ClN3O2S
Exact mass: 323.0495
SMILES: CC1=C(C)C(NC2=NC(SCC(O)=O)=NC(Cl)=C2)=CC=C1
InChI: InChI=1S/C14H14ClN3O2S/c1-8-4-3-5-10(9(8)2)16-12-6-11(15)17-14(18-12)21-7-13(19)20/h3-6H,7H2,1-2H3,(H,19,20)(H,16,17,18)
Instrument: Q Exactive Orbitrap (Thermo Scientific)
Instrument type: LC-ESI-QFT
Ms type: MS2
Ion mode: POSITIVE
Ionization: ESI
Fragmentation mode: HCD
Collision energy: 60
Resolution: 17500
Column name: Acquity BEH C18 1.7um, 2.1x150mm (Waters)
Retention time: 17.857 min
Base peak: 79.0212
Precursor m/z: 324.0568
Precursor type: [M+H]+
Precursor intensity: 7960547.1875
m/z	relative intensity	assigned
53.0386	3	C4H5+
58.9951	1	C2H3S+
59.9904	1	CH2NS+
65.0385	10	C5H5+
71.9902	101	C2H2NS+
75.9948	81	C2H3ClN+
77.0384	2	C6H5+
79.0542	59	C6H7+
83.9903	1	C3H2NS+
87.9948	6	C3H3ClN+
89.0387	1	C7H5+
91.0541	9	C7H7+
93.0699	9	C7H9+
95.0491	10	C6H7O+
99.001	2	C3H3N2S+
103.0542	42	C8H7+
105.0699	400	C8H9+
105.9513	3	C2HClNS+
106.0655	1	C7H8N+
106.0778	1	C8H10+
107.0854	14	C8H11+
111.0441	9	C6H7O2+
115.0056	8	C4H4ClN2+
115.0541	12	C9H7+
116.0492	1	C8H6N+
117.0573	3	C8H7N+
117.0698	23	C9H9+
118.0651	2	C8H8N+
119.073	8	C8H9N+
119.0856	2	C9H11+
121.0395	4	C6H5N2O+
123.0804	14	C8H11O+
128.0621	2	C10H8+
129.0698	40	C10H9+
130.0651	29	C9H8N+
131.073	8	C9H9N+
131.0854	10	C10H11+
132.0807	23	C9H10N+
133.0758	9	C8H9N2+
134.0963	96	C9H12N+
139.0308	3	C8H8Cl+
141.0698	3	C11H9+
142.0651	12	C10H8N+
143.0729	16	C10H9N+
144.0807	101	C10H10N+
144.962	2	C4H2ClN2S+
145.0885	19	C10H11N+
148.0753	1	C9H10NO+
153.0465	5	C9H10Cl+
154.0651	15	C11H8N+
155.0603	6	C10H7N2+
155.0727	10	C11H9N+
156.0693	13	C9H13Cl+
156.0807	99	C11H10N+
157.0761	4	C10H9N2+
157.0886	28	C11H11N+
158.0964	100	C11H12N+
159.0916	11	C10H11N2+
160.0755	10	C10H10NO+
162.0376	2	C9H8NS+
162.0914	1	C10H12NO+
163.0309	1	C10H8Cl+
164.0529	2	C9H10NS+
165.0466	4	C10H10Cl+
166.0649	2	C12H8N+
167.073	4	C12H9N+
168.0682	36	C11H8N2+
169.0759	58	C11H9N2+
170.0837	20	C11H10N2+
171.0916	27	C11H11N2+
173.0208	4	C8H3N3O2+
173.0293	6	C10H7NS+
174.0372	4	C10H8NS+
174.0913	35	C11H12NO+
175.0627	1	C10H9NO2+
175.0867	2	C10H11N2O+
176.0524	9	C10H10NS+
178.0418	11	C10H9ClN+
179.0603	3	C12H7N2+
180.0682	4	C12H8N2+
181.0759	14	C12H9N2+
182.0838	19	C12H10N2+
183.0917	377	C12H11N2+
184.0995	33	C12H12N2+
185.1071	4	C12H13N2+
186.0373	4	C11H8NS+
187.0451	1	C11H9NS+
188.0263	5	C11H7ClN+
188.0529	27	C11H10NS+
188.1069	3	C12H14NO+
189.0214	10	C10H6ClN2+
189.048	23	C10H9N2S+
190.0308	1	C10H7ClN2+
190.0418	25	C11H9ClN+
191.0498	4	C11H10ClN+
192.0574	69	C11H11ClN+
193.0635	5	C12H7N3+
194.0716	8	C12H8N3+
195.0791	3	C12H9N3+
196.0869	47	C12H10N3+
197.0944	1	C12H11N3+
198.0255	1	C11H6N2S+
198.1026	3	C12H12N3+
199.0865	2	C12H11N2O+
200.0402	11	C11H8N2S+
201.0479	2	C11H9N2S+
201.1021	11	C12H13N2O+
203.037	21	C11H8ClN2+
204.0449	66	C11H9ClN2+
207.0585	14	C10H11N2OS+
207.0685	8	C11H12ClN2+
207.0783	1	C13H9N3+
208.0869	27	C13H10N3+
209.0947	3	C13H11N3+
212.0276	27	C11H6N3S+
213.048	22	C12H9N2S+
214.0557	4	C12H10N2S+
215.0637	198	C12H11N2S+
216.0338	1	C13H9ClO+
216.0448	4	C12H9ClN2+
217.0404	2	C11H8ClN3+
217.0526	12	C12H10ClN2+
217.0795	5	C12H13N2S+
218.0611	5	C12H11ClN2+
219.0683	999	C12H12ClN2+
220.0765	2	C12H13ClN2+
226.0431	11	C12H8N3S+
227.0511	32	C12H9N3S+
228.0592	7	C12H10N3S+
229.0667	27	C12H11N3S+
230.0479	18	C12H9ClN3+
231.0582	3	C12H11N2OS+
232.0634	10	C12H11ClN3+
234.0022	1	C11H7ClN2S+
240.059	3	C13H10N3S+
242.0745	319	C13H12N3S+
243.0831	1	C13H13N3S+
245.0715	2	C13H12ClN3+
249.0247	36	C12H10ClN2S+
262.0201	22	C12H9ClN3S+
263.028	22	C12H10ClN3S+
278.0512	111	C13H13ClN3S+
