Mass spectrum: AVE3295; LC-ESI-QFT; MS2; CE: 75; R=17500; [M-H]-
Name: AVE3295
Name: 5-Fluoro-N-[(1S)-1-phenylpropyl]-2-[(quinolin-8-ylsulfonyl)amino]benzamide
Name: 5-fluoro-N-[(1S)-1-phenylpropyl]-2-(quinolin-8-ylsulfonylamino)benzamide
Formula: C25H22FN3O3S
Exact mass: 463.1366
SMILES: CC[C@H](NC(=O)c1cc(F)ccc1NS(=O)(=O)c1cccc2cccnc12)c1ccccc1
InChI: InChI=1S/C25H22FN3O3S/c1-2-21(17-8-4-3-5-9-17)28-25(30)20-16-19(26)13-14-22(20)29-33(31,32)23-12-6-10-18-11-7-15-27-24(18)23/h3-16,21,29H,2H2,1H3,(H,28,30)/t21-/m0/s1
Instrument: Q Exactive Orbitrap (Thermo Scientific)
Instrument type: LC-ESI-QFT
Ms type: MS2
Ion mode: NEGATIVE
Ionization: ESI
Fragmentation mode: HCD
Collision energy: 75
Resolution: 17500
Column name: Acquity BEH C18 1.7um, 2.1x150mm (Waters)
Retention time: 17.482 min
Base peak: 462.1292
Precursor m/z: 462.1293
Precursor type: [M-H]-
Precursor intensity: 22314959.60889
m/z	relative intensity	assigned
50.0034	1	C3N-
61.9706	4	NOS-
63.9624	22	O2S-
64.0192	10	C4H2N-
65.9985	2	C3NO-
77.9657	1	NO2S-
79.9811	3	H2NO2S-
83.0302	1	C5H4F-
84.0255	9	C4H3FN-
88.0194	2	C6H2N-
90.035	28	C6H4N-
95.0302	2	C6H4F-
103.0064	2	C6HNO-
108.0254	23	C6H3FN-
109.0333	10	C6H4FN-
110.0411	347	C6H5FN-
111.0251	7	C6H4FO-
116.0507	9	C8H6N-
128.0506	350	C9H6N-
135.0362	2	C7H4FN2-
135.9868	1	C6H2NOS-
138.9894	5	C6H2FNS-
141.0458	6	C9H5N2-
143.0615	16	C9H7N2-
144.0454	455	C9H6NO-
146.0609	7	C9H8NO-
150.0234	6	C7H3FN2O-
152.052	1	C8H7FNO-
154.0309	1	C7H5FNO2-
163.0313	124	C8H4FN2O-
166.0662	149	C12H8N-
172.0404	30	C10H6NO2-
177.047	16	C9H6FN2O-
184.0567	9	C12H7FN-
190.0662	23	C14H8N-
191.0619	12	C7H13NO3S-
192.0125	3	C9H6NO2S-
208.0568	21	C14H7FN-
209.0522	1	C13H6FN2-
210.0724	47	C14H9FN-
215.0615	128	C15H7N2-
217.077	65	C15H9N2-
218.072	1	C14H8N3-
222.06	11	C14H7FN2-
225.0599	3	C14H8FNO-
230.0725	3	C15H8N3-
233.0522	2	C15H6FN2-
235.0676	999	C15H8FN2-
237.0832	8	C15H10FN2-
239.0628	15	C14H8FN2O-
258.0671	3	C16H8N3O-
263.0623	7	C13H13NO3S-
272.0193	1	C14H7FNO2S-
