Mass spectrum: Quinclorac; LC-ESI-QFT; MS2; CE: 15; R=17500; [M+H]+
Name: Quinclorac
Name: 3,7-dichloroquinoline-8-carboxylic acid
Formula: C10H5Cl2NO2
Exact mass: 240.9697
SMILES: OC(=O)C1=C(Cl)C=CC2=CC(Cl)=CN=C12
InChI: InChI=1S/C10H5Cl2NO2/c11-6-3-5-1-2-7(12)8(10(14)15)9(5)13-4-6/h1-4H,(H,14,15)
Instrument: Q Exactive Orbitrap (Thermo Scientific)
Instrument type: LC-ESI-QFT
Ms type: MS2
Ion mode: POSITIVE
Ionization: ESI
Fragmentation mode: HCD
Collision energy: 15
Resolution: 17500
Column name: Acquity BEH C18 1.7um, 2.1x150mm (Waters)
Retention time: 15.027 min
Base peak: 79.0211
Precursor m/z: 241.977
Precursor type: [M+H]+
Precursor intensity: 2114487.75
m/z	relative intensity	assigned
95.0125	4	C5H3O2+
165.9382	126	C8Cl2+
167.9538	4	C8H2Cl2+
168.9616	20	C8H3Cl2+
178.9458	3	C9HCl2+
179.9539	23	C9H2Cl2+
180.9617	38	C9H3Cl2+
181.9695	32	C9H4Cl2+
182.9771	6	C9H5Cl2+
183.9487	89	C8H2Cl2O+
185.9643	4	C8H4Cl2O+
194.9778	7	C10H5Cl2+
195.9848	10	C10H6Cl2+
196.9563	5	C9H3Cl2O+
197.9641	17	C9H4Cl2O+
209.9644	251	C10H4Cl2O+
223.9665	999	C10H4Cl2NO+
227.9751	60	C10H6Cl2O2+
241.9771	906	C10H6Cl2NO2+
