Mass spectrum: Tribenzylamine; LC-ESI-QFT; MS2; CE: 15; R=17500; [M+H]+
Name: Tribenzylamine
Name: N,N-dibenzyl-1-phenylmethanamine
Formula: C21H21N
Exact mass: 287.1674
SMILES: C(N(CC1=CC=CC=C1)CC1=CC=CC=C1)C1=CC=CC=C1
InChI: InChI=1S/C21H21N/c1-4-10-19(11-5-1)16-22(17-20-12-6-2-7-13-20)18-21-14-8-3-9-15-21/h1-15H,16-18H2
Instrument: Q Exactive Orbitrap (Thermo Scientific)
Instrument type: LC-ESI-QFT
Ms type: MS2
Ion mode: POSITIVE
Ionization: ESI
Fragmentation mode: HCD
Collision energy: 15
Resolution: 17500
Column name: Acquity BEH C18 1.7um, 2.1x150mm (Waters)
Retention time: 15.474 min
Base peak: 79.0211
Precursor m/z: 288.1747
Precursor type: [M+H]+
Precursor intensity: 53233108.3125
m/z	relative intensity	assigned
91.0541	87	C7H7+
106.065	1	C7H8N+
120.0808	27	C8H10N+
181.1011	62	C14H13+
196.1121	48	C14H14N+
271.1483	1	C21H19+
288.1746	999	C21H22N+
