Mass spectrum: Pirimiphos-ethyl; LC-ESI-QFT; MS2; CE: 30; R=17500; [M+H]+
Name: Pirimiphos-ethyl
Formula: C13H24N3O3PS
Exact mass: 333.1276
SMILES: CCOP(=S)(OCC)OC1=CC(C)=NC(=N1)N(CC)CC
InChI: InChI=1S/C13H24N3O3PS/c1-6-16(7-2)13-14-11(5)10-12(15-13)19-20(21,17-8-3)18-9-4/h10H,6-9H2,1-5H3
Instrument: Q Exactive Orbitrap (Thermo Scientific)
Instrument type: LC-ESI-QFT
Ms type: MS2
Ion mode: POSITIVE
Ionization: ESI
Fragmentation mode: HCD
Collision energy: 30
Resolution: 17500
Column name: Acquity BEH C18 1.7um, 2.1x150mm (Waters)
Retention time: 19.447 min
Base peak: 79.0211
Precursor m/z: 334.1349
Precursor type: [M+H]+
Precursor intensity: 87509313.53125
m/z	relative intensity	assigned
114.9613	10	H4O3PS+
136.0869	1	C7H10N3+
154.0973	2	C7H12N3O+
164.1183	11	C9H14N3+
170.0745	8	C7H12N3S+
171.0238	1	C4H12O3PS+
182.1288	297	C9H16N3O+
196.0907	1	C9H14N3S+
198.1059	999	C9H16N3S+
210.1605	2	C11H20N3O+
226.137	1	C11H20N3S+
260.0617	15	C9H15N3O2PS+
278.0722	28	C9H17N3O3PS+
306.1035	97	C11H21N3O3PS+
334.1348	216	C13H25N3O3PS+
