Mass spectrum: N,N-Dimethyl-4-nitrosoaniline; LC-ESI-QFT; MS2; CE: 75; R=17500; [M+H]+
Name: N,N-Dimethyl-4-nitrosoaniline
Formula: C8H10N2O
Exact mass: 150.0793
SMILES: CN(C)C1=CC=C(C=C1)N=O
InChI: InChI=1S/C8H10N2O/c1-10(2)8-5-3-7(9-11)4-6-8/h3-6H,1-2H3
Instrument: Q Exactive Orbitrap (Thermo Scientific)
Instrument type: LC-ESI-QFT
Ms type: MS2
Ion mode: POSITIVE
Ionization: ESI
Fragmentation mode: HCD
Collision energy: 75
Resolution: 17500
Column name: Acquity BEH C18 1.7um, 2.1x150mm (Waters)
Retention time: 4.494 min
Base peak: 79.0211
Precursor m/z: 151.0866
Precursor type: [M+H]+
Precursor intensity: 6540617.40625
m/z	relative intensity	assigned
53.0387	1	C4H5+
54.0339	1	C3H4N+
55.0417	4	C3H5N+
65.0385	12	C5H5+
66.0338	4	C4H4N+
66.0463	6	C5H6+
67.0541	2	C5H7+
68.0494	109	C4H6N+
78.0338	1	C5H4N+
78.0463	2	C6H6+
79.0542	7	C6H7+
80.0495	4	C5H6N+
81.0572	18	C5H7N+
81.0699	1	C6H9+
82.0651	24	C5H8N+
91.0416	6	C6H5N+
92.0494	66	C6H6N+
93.0447	172	C5H5N2+
93.0572	10	C6H7N+
94.0651	27	C6H8N+
95.0489	1	C6H7O+
96.0811	1	C6H10N+
104.0496	2	C7H6N+
105.0448	1	C6H5N2+
105.0574	2	C7H7N+
106.0524	4	C6H6N2+
106.0652	30	C7H8N+
107.0603	11	C6H7N2+
107.0729	28	C7H9N+
108.0808	8	C7H10N+
110.06	4	C6H8NO+
117.0575	2	C8H7N+
118.0525	6	C7H6N2+
118.0653	2	C8H8N+
119.0604	287	C7H7N2+
120.0808	191	C8H10N+
121.0886	44	C8H11N+
124.0759	4	C7H10NO+
132.0683	3	C8H8N2+
133.076	999	C8H9N2+
134.0838	743	C8H10N2+
135.0555	1	C7H7N2O+
136.0757	14	C8H10NO+
139.0868	1	C7H11N2O+
151.0866	236	C8H11N2O+
