Mass spectrum: Aziprotryne; LC-ESI-QFT; MS2; CE: 75; R=17500; [M+H]+
Name: Aziprotryne
Name: 4-azido-6-methylsulfanyl-N-propan-2-yl-1,3,5-triazin-2-amine
Formula: C7H11N7S
Exact mass: 225.0797
SMILES: CSC1=NC(NC(C)C)=NC(N=[N+]=[N-])=N1
InChI: InChI=1S/C7H11N7S/c1-4(2)9-5-10-6(13-14-8)12-7(11-5)15-3/h4H,1-3H3,(H,9,10,11,12)
Instrument: Q Exactive Orbitrap (Thermo Scientific)
Instrument type: LC-ESI-QFT
Ms type: MS2
Ion mode: POSITIVE
Ionization: ESI
Fragmentation mode: HCD
Collision energy: 75
Resolution: 17500
Column name: Acquity BEH C18 1.7um, 2.1x150mm (Waters)
Retention time: 17.808 min
Base peak: 79.0212
Precursor m/z: 226.0869
Precursor type: [M+H]+
Precursor intensity: 9600077.9375
m/z	relative intensity	assigned
55.0291	33	C2H3N2+
56.0495	28	C3H6N+
57.0321	1	CH3N3+
57.0447	2	C2H5N2+
58.0652	221	C3H8N+
58.995	3	C2H3S+
61.0107	3	C2H5S+
62.0059	73	CH4NS+
67.0165	2	C2HN3+
67.0291	5	C3H3N2+
68.0243	999	C2H2N3+
69.0447	28	C3H5N2+
71.0604	2	C3H7N2+
71.9903	9	C2H2NS+
72.9981	16	C2H3NS+
73.9934	12	CH2N2S+
74.0059	88	C2H4NS+
81.0196	7	C2HN4+
81.0447	3	C4H5N2+
82.04	4	C3H4N3+
83.0353	30	C2H3N4+
83.0604	46	C4H7N2+
84.9856	4	C2HN2S+
85.9933	2	C2H2N2S+
87.0011	3	C2H3N2S+
89.0168	193	C2H5N2S+
91.0543	2	C7H7+
93.0196	43	C3HN4+
94.04	11	C4H4N3+
96.0557	3	C4H6N3+
99.0012	201	C3H3N2S+
101.0169	3	C3H5N2S+
108.0305	161	C3H2N5+
109.0384	3	C3H3N5+
109.0509	18	C4H5N4+
110.0462	34	C3H4N5+
114.0121	103	C3H4N3S+
116.0277	2	C3H6N3S+
123.0666	11	C5H7N4+
125.0823	10	C5H9N4+
126.0122	1	C4H4N3S+
131.0274	2	C2H5N5S+
136.0617	7	C5H6N5+
138.0122	18	C5H4N3S+
141.0104	109	C3H3N5S+
141.0228	8	C4H5N4S+
150.0777	4	C6H8N5+
152.0285	4	C6H6N3S+
155.0224	4	C7HN5+
156.023	15	C3H4N6S+
156.0339	25	C4H6N5S+
168.034	17	C5H6N5S+
170.0389	2	C4H6N6S+
182.0489	2	C6H8N5S+
