Mass spectrum: Isoxadifen-ethyl; LC-ESI-QFT; MS2; CE: 45; R=17500; [M+H]+
Name: Isoxadifen-ethyl
Name: ethyl 5,5-diphenyl-4H-1,2-oxazole-3-carboxylate
Formula: C18H17NO3
Exact mass: 295.1208
SMILES: CCOC(=O)C1=NOC(C1)(C1=CC=CC=C1)C1=CC=CC=C1
InChI: InChI=1S/C18H17NO3/c1-2-21-17(20)16-13-18(22-19-16,14-9-5-3-6-10-14)15-11-7-4-8-12-15/h3-12H,2,13H2,1H3
Instrument: Q Exactive Orbitrap (Thermo Scientific)
Instrument type: LC-ESI-QFT
Ms type: MS2
Ion mode: POSITIVE
Ionization: ESI
Fragmentation mode: HCD
Collision energy: 45
Resolution: 17500
Column name: Acquity BEH C18 1.7um, 2.1x150mm (Waters)
Retention time: 18.392 min
Base peak: 79.0212
Precursor m/z: 296.1281
Precursor type: [M+H]+
Precursor intensity: 11268548.5
m/z	relative intensity	assigned
53.0386	5	C4H5+
70.0651	5	C4H8N+
77.0385	2	C6H5+
91.0543	1	C7H7+
94.041	1	C6H6O+
95.0492	21	C6H7O+
103.0542	11	C8H7+
104.0495	16	C7H6N+
105.0335	471	C7H5O+
128.0494	11	C9H6N+
130.0289	9	C8H4NO+
146.0601	16	C9H8NO+
153.0698	6	C12H9+
154.065	1	C11H8N+
165.0699	16	C13H9+
166.0776	4	C13H10+
167.0859	7	C13H11+
176.062	16	C14H8+
177.0699	73	C14H9+
178.0649	3	C13H8N+
178.0776	26	C14H10+
179.0855	22	C14H11+
180.0806	2	C13H10N+
181.0647	7	C13H9O+
183.0806	25	C13H11O+
191.0855	158	C15H11+
192.0934	3	C15H12+
193.0888	8	C14H11N+
193.1005	1	C15H13+
194.0963	19	C14H12N+
195.0807	9	C14H11O+
196.0761	2	C13H10NO+
202.0655	3	C15H8N+
202.0778	2	C16H10+
203.073	96	C15H9N+
204.0808	999	C15H10N+
205.0649	5	C15H9O+
205.0761	9	C11H11NO3+
205.0886	23	C15H11N+
206.0964	85	C15H12N+
207.0804	267	C15H11O+
218.0969	2	C16H12N+
219.1045	5	C16H13N+
220.0758	5	C15H10NO+
222.0915	22	C15H12NO+
232.0757	601	C16H10NO+
233.0833	11	C16H11NO+
235.0753	42	C16H11O2+
235.1117	16	C17H15O+
250.0863	4	C16H12NO2+
263.1066	25	C18H15O2+
278.1192	1	C18H16NO2+
