Mass spectrum: Testosterone propionate; LC-ESI-QFT; MS2; CE: 75; R=17500; [M+H]+
Name: Testosterone propionate
Name: [(8R,9S,10R,13S,14S,17S)-10,13-dimethyl-3-oxo-1,2,6,7,8,9,11,12,14,15,16,17-dodecahydrocyclopenta[a]phenanthren-17-yl] propanoate
Formula: C22H32O3
Exact mass: 344.2351
SMILES: CCC(=O)O[C@H]1CC[C@H]2[C@@H]3CCC4=CC(=O)CC[C@]4(C)[C@H]3CC[C@]12C
InChI: InChI=1S/C22H32O3/c1-4-20(24)25-19-8-7-17-16-6-5-14-13-15(23)9-11-21(14,2)18(16)10-12-22(17,19)3/h13,16-19H,4-12H2,1-3H3/t16-,17-,18-,19-,21-,22-/m0/s1
Instrument: Q Exactive Orbitrap (Thermo Scientific)
Instrument type: LC-ESI-QFT
Ms type: MS2
Ion mode: POSITIVE
Ionization: ESI
Fragmentation mode: HCD
Collision energy: 75
Resolution: 17500
Column name: Acquity BEH C18 1.7um, 2.1x150mm (Waters)
Retention time: 19.836 min
Base peak: 79.0211
Precursor m/z: 345.2424
Precursor type: [M+H]+
Precursor intensity: 6045181.75
m/z	relative intensity	assigned
53.0022	9	C3HO+
53.0386	28	C4H5+
55.0179	39	C3H3O+
55.0542	34	C4H7+
57.0335	128	C3H5O+
65.0385	15	C5H5+
66.0464	3	C5H6+
67.0542	111	C5H7+
69.0335	8	C4H5O+
69.0699	78	C5H9+
77.0386	5	C6H5+
79.0542	384	C6H7+
81.0699	336	C6H9+
82.0415	3	C5H6O+
83.0491	57	C5H7O+
91.0543	174	C7H7+
93.0699	123	C7H9+
94.0413	9	C6H6O+
95.0492	56	C6H7O+
95.0856	81	C7H11+
97.0648	999	C6H9O+
103.0542	7	C8H7+
105.0699	164	C8H9+
107.049	11	C7H7O+
107.0856	52	C8H11+
108.057	2	C7H8O+
109.0648	870	C7H9O+
115.0541	3	C9H7+
116.0621	2	C9H8+
117.0699	31	C9H9+
119.0856	91	C9H11+
121.0648	19	C8H9O+
121.1012	13	C9H13+
123.0804	89	C8H11O+
128.062	11	C10H8+
129.0698	28	C10H9+
130.0778	8	C10H10+
131.0856	40	C10H11+
133.1012	34	C10H13+
135.0803	4	C9H11O+
135.1167	3	C10H15+
141.0698	11	C11H9+
142.0779	14	C11H10+
143.0857	28	C11H11+
144.0933	8	C11H12+
145.0648	2	C10H9O+
145.1012	36	C11H13+
147.0803	3	C10H11O+
147.1168	17	C11H15+
149.0961	5	C10H13O+
149.1323	2	C11H17+
153.0704	2	C12H9+
154.0779	5	C12H10+
155.0856	20	C12H11+
156.0936	6	C12H12+
157.1013	19	C12H13+
159.1169	15	C12H15+
161.1326	5	C12H17+
163.1119	2	C11H15O+
167.0857	3	C13H11+
168.0935	4	C13H12+
169.1013	13	C13H13+
171.1168	8	C13H15+
173.1326	4	C13H17+
175.1486	3	C13H19+
181.101	4	C14H13+
182.1089	5	C14H14+
183.1169	10	C14H15+
185.1323	4	C14H17+
187.1485	2	C14H19+
195.1164	2	C15H15+
197.1327	5	C15H17+
199.1483	2	C15H19+
209.1322	2	C16H17+
211.1484	4	C16H19+
