Mass spectrum: GSK163929B; LC-ESI-QFT; MS2; CE: 75; R=17500; [M+H]+
Name: GSK163929B
Name: 4-chloro-2-fluoro-5-[4-(3-fluorophenyl)-4-[2-[3-(2-methylbenzimidazol-1-yl)-8-azabicyclo[3.2.1]octan-8-yl]ethyl]piperidine-1-carbonyl]-N-methylbenzenesulfonamide
Formula: C36H40ClF2N5O3S
Exact mass: 695.2508
SMILES: CNS(=O)(=O)C1=C(F)C=C(Cl)C(=C1)C(=O)N1CCC(CCN2C3CCC2CC(C3)N2C(C)=NC3=C2C=CC=C3)(CC1)C1=CC(F)=CC=C1
InChI: InChI=1S/C36H40ClF2N5O3S/c1-23-41-32-8-3-4-9-33(32)44(23)28-19-26-10-11-27(20-28)43(26)17-14-36(24-6-5-7-25(38)18-24)12-15-42(16-13-36)35(45)29-21-34(48(46,47)40-2)31(39)22-30(29)37/h3-9,18,21-22,26-28,40H,10-17,19-20H2,1-2H3
Instrument: Q Exactive Orbitrap (Thermo Scientific)
Instrument type: LC-ESI-QFT
Ms type: MS2
Ion mode: POSITIVE
Ionization: ESI
Fragmentation mode: HCD
Collision energy: 75
Resolution: 17500
Column name: Acquity BEH C18 1.7um, 2.1x150mm (Waters)
Retention time: 13.147 min
Base peak: 79.0211
Precursor m/z: 696.2581
Precursor type: [M+H]+
Precursor intensity: 5510972.375
m/z	relative intensity	assigned
50.0152	1	C4H2+
53.0021	12	C3HO+
53.0386	26	C4H5+
54.0338	11	C3H4N+
54.0464	2	C4H6+
55.0179	4	C3H3O+
55.0416	13	C3H5N+
55.0542	27	C4H7+
56.0495	37	C3H6N+
57.0136	3	C3H2F+
58.0288	3	C2H4NO+
58.0651	23	C3H8N+
62.0059	23	CH4NS+
62.9632	2	CClO+
63.023	8	C5H3+
65.0385	42	C5H5+
67.0417	11	C4H5N+
67.0542	219	C5H7+
68.0495	70	C4H6N+
68.9972	3	C3HO2+
69.0573	17	C4H7N+
69.0699	13	C5H9+
70.0651	267	C4H8N+
71.0729	2	C4H9N+
72.9839	13	C3H2Cl+
73.0083	2	C3H2FO+
74.0152	2	C6H2+
78.0338	6	C5H4N+
79.0178	28	C5H3O+
79.0543	23	C6H7+
80.0494	57	C5H6N+
81.0336	5	C5H5O+
81.0573	15	C5H7N+
81.0699	13	C6H9+
82.0651	136	C5H8N+
83.0291	11	C5H4F+
83.0729	52	C5H9N+
84.0807	11	C5H10N+
84.9839	41	C4H2Cl+
85.9917	4	C4H3Cl+
86.9633	3	C3ClO+
86.9996	4	C4H4Cl+
90.9746	7	C3HClF+
91.0543	117	C7H7+
92.0495	31	C6H6N+
93.0573	5	C6H7N+
93.0699	48	C7H9+
93.9957	12	CH4NO2S+
94.0652	48	C6H8N+
95.0492	60	C6H7O+
95.0731	11	C6H9N+
95.0855	62	C7H11+
96.0443	8	C5H6NO+
96.0808	108	C6H10N+
96.984	7	C5H2Cl+
97.0084	10	C5H2FO+
97.0285	7	C5H5O2+
97.0886	6	C6H11N+
98.0966	4	C6H12N+
98.9997	11	C5H4Cl+
102.0338	28	C7H4N+
103.9825	3	C4H2ClF+
104.0495	5	C7H6N+
104.9903	9	C4H3ClF+
105.0447	21	C6H5N2+
105.0699	2	C8H9+
106.0652	2	C7H8N+
106.9694	3	C3HClFO+
107.0127	14	C6H3O2+
107.9903	7	C5H2NS+
108.0808	70	C7H10N+
108.9839	17	C6H2Cl+
109.0448	96	CH14ClOS+
109.0886	27	C7H11N+
109.9917	27	C6H3Cl+
110.0964	55	C7H12N+
110.9996	7	C6H4Cl+
111.0241	40	C6H4FO+
111.1043	4	C7H13N+
112.0318	28	C6H5FO+
112.9788	6	C5H2ClO+
115.0542	5	C9H7+
116.9902	111	C5H3ClF+
119.0058	11	C5H5ClF+
120.0444	31	C7H6NO+
120.0808	6	C8H10N+
122.0964	43	C8H12N+
123.0355	4	ClH12N2OS+
123.0478	11	C7H6FN+
123.0602	3	C3H7F2N3+
124.1122	16	C8H14N+
125.9867	232	C6H3ClO+
126.9945	5	C6H4ClO+
127.0187	6	CH3F2N3O2+
127.9823	29	C6H2ClF+
129.0102	15	C6H6ClO+
130.0053	13	C5H5ClNO+
130.0288	7	C8H4NO+
130.04	32	C7H4N3+
131.006	5	C6H5ClF+
131.0368	2	ClFH7N5+
131.9774	5	C5H2ClFO+
132.0682	3	C8H8N2+
133.076	67	C8H9N2+
134.9468	4	C4HClFS+
136.112	19	C9H14N+
137.9867	128	C7H3ClO+
138.0105	167	C7H5ClN+
138.1277	38	C9H16N+
138.9946	80	C7H4ClO+
139.0055	27	CH3ClFN5+
139.0184	12	C7H6ClN+
140.9738	15	C6H2ClO2+
141.07	7	C11H9+
142.9893	5	C6H4ClO2+
143.0058	4	C7H5ClF+
143.0503	2	C7H8FO2+
143.9669	19	C5H3ClNS+
143.977	3	CHClF2N3O+
144.9851	61	C6H3ClFO+
145.0763	6	C9H9N2+
146.0167	8	C6H6ClFN+
146.0526	156	C10H7F+
146.9663	2	ClFH3N3OS+
147.0007	37	C6H5ClFO+
148.0559	2	C3H15ClNOS+
150.9819	25	C7H2ClNO+
151.0427	4	C3H5F2N4O+
152.9849	4	CHClFN5O+
153.0295	2	C6H5N2O3+
153.9816	7	C7H3ClO2+
154.0054	10	C7H5ClNO+
154.9695	5	C7HClFO+
154.9894	9	C7H4ClO2+
155.9772	29	C2HClF2N3O+
156.9852	325	C3FN5S+
156.9963	374	C6H3ClFN2+
158.0169	10	C7H6ClFN+
158.9643	8	C6HClFO2+
158.9846	2	C2HN5O2S+
159.0007	6	C7H5ClFO+
159.0918	9	C10H11N2+
160.0685	3	C5H17ClOS+
161.0761	45	C11H10F+
166.0055	106	C8H5ClNO+
168.9509	6	C7H2ClOS+
169.9765	616	C7H3ClO3+
171.0081	33	C7H6ClNO2+
171.9722	23	C7H2ClFO2+
172.98	793	C7H3ClFO2+
173.9773	2	CH4ClFN4OS+
174.0116	17	C7H6ClFNO+
176.0869	9	ClFH18N4OS+
183.9616	8	C2H2ClFN4OS+
183.996	6	C8H4ClFNO+
186.9953	4	C3H4ClF2N3O2+
187.9671	198	C7H2ClFO3+
190.1025	2	CH20ClFN4OS+
202.9565	96	C7H4ClO3S+
203.9442	9	C7H2ClFO2S+
206.1339	9	C13H17FN+
220.947	538	C7H3ClFO3S+
229.9673	361	C8H5ClNO3S+
247.9575	2	C3H3ClF2N4O3S+
249.9735	999	C8H6ClFNO3S+
