Mass spectrum: Metronidazole; LC-ESI-QFT; MS2; CE: 45; R=17500; [M+H]+
Name: Metronidazole
Name: 2-(2-methyl-5-nitroimidazol-1-yl)ethanol
Formula: C6H9N3O3
Exact mass: 171.0644
SMILES: CC1=NC=C(N1CCO)[N+]([O-])=O
InChI: InChI=1S/C6H9N3O3/c1-5-7-4-6(9(11)12)8(5)2-3-10/h4,10H,2-3H2,1H3
Instrument: Q Exactive Orbitrap (Thermo Scientific)
Instrument type: LC-ESI-QFT
Ms type: MS2
Ion mode: POSITIVE
Ionization: ESI
Fragmentation mode: HCD
Collision energy: 45
Resolution: 17500
Column name: Acquity BEH C18 1.7um, 2.1x150mm (Waters)
Retention time: 6.904 min
Base peak: 79.0211
Precursor m/z: 172.0717
Precursor type: [M+H]+
Precursor intensity: 5280484.125
m/z	relative intensity	assigned
56.0369	42	C2H4N2+
57.021	3	C2H3NO+
60.0444	1	C2H6NO+
72.0444	2	C3H6NO+
82.0525	22	C4H6N2+
83.0604	1	C4H7N2+
89.0709	1	C3H9N2O+
97.0396	2	C4H5N2O+
98.0475	21	C4H6N2O+
111.0427	20	C4H5N3O+
128.0454	999	C4H6N3O2+
172.0717	80	C6H10N3O3+
