Mass spectrum: Fluazifop-P-butyl; LC-ESI-QFT; MS2; CE: 75; R=17500; [M+H]+
Name: Fluazifop-P-butyl
Name: butyl (2R)-2-[4-[5-(trifluoromethyl)pyridin-2-yl]oxyphenoxy]propanoate
Formula: C19H20F3NO4
Exact mass: 383.1344
SMILES: CCCCOC(=O)[C@@H](C)OC1=CC=C(OC2=CC=C(C=N2)C(F)(F)F)C=C1
InChI: InChI=1S/C19H20F3NO4/c1-3-4-11-25-18(24)13(2)26-15-6-8-16(9-7-15)27-17-10-5-14(12-23-17)19(20,21)22/h5-10,12-13H,3-4,11H2,1-2H3/t13-/m1/s1
Instrument: Q Exactive Orbitrap (Thermo Scientific)
Instrument type: LC-ESI-QFT
Ms type: MS2
Ion mode: POSITIVE
Ionization: ESI
Fragmentation mode: HCD
Collision energy: 75
Resolution: 17500
Column name: Acquity BEH C18 1.7um, 2.1x150mm (Waters)
Retention time: 19.276 min
Base peak: 79.0211
Precursor m/z: 384.1417
Precursor type: [M+H]+
Precursor intensity: 23717604.5
m/z	relative intensity	assigned
53.0022	21	C3HO+
53.0387	4	C4H5+
53.9974	3	C2NO+
55.0178	14	C3H3O+
55.0543	2	C4H7+
57.0699	37	C4H9+
63.0229	6	C5H3+
64.0307	1	C5H4+
65.0386	364	C5H5+
66.0463	1	C5H6+
67.0542	1	C5H7+
68.997	1	C3HO2+
69.0335	1	C4H5O+
73.0283	7	C3H5O2+
75.0041	2	C3HF2+
75.0229	17	C6H3+
77.0385	3	C6H5+
78.0339	1	C5H4N+
79.0542	3	C6H7+
81.0334	3	C5H5O+
89.0385	2	C7H5+
90.0464	2	C7H6+
91.0542	999	C7H7+
92.0256	13	C6H4O+
92.0621	5	C7H8+
93.0336	15	C6H5O+
93.0698	3	C7H9+
94.0285	1	C5H4NO+
94.0414	13	C6H6O+
95.0491	11	C6H7O+
99.0042	2	C5HF2+
103.0229	2	C4H3F2N+
103.0543	6	C8H7+
104.0131	8	C6H2NO+
105.0447	4	FH8NO4+
105.0697	1	C8H9+
107.0104	1	C4H2F3+
107.0492	7	C7H7O+
108.0569	1	C7H8O+
109.0285	6	C6H5O2+
109.0649	8	C7H9O+
110.0363	5	C6H6O2+
111.0441	26	C6H7O2+
115.0541	2	C9H7+
116.0303	1	C5H4F2N+
117.0147	1	C5H3F2O+
117.0572	7	C8H7N+
118.0653	4	C8H8N+
119.0492	35	C8H7O+
119.06	5	CH10FNO4+
120.0443	4	C7H6NO+
120.057	6	C8H8O+
121.0285	20	C7H5O2+
121.0647	6	C8H9O+
124.0192	4	C6H3FNO+
125.0598	2	C7H9O2+
126.0151	1	C6H2F2N+
127.0226	2	C6H3F2N+
128.0068	1	C6H2F2O+
130.0652	9	C9H8N+
131.0492	26	C9H7O+
133.0448	5	C9H6F+
133.0523	3	C8H7NO+
134.06	2	C8H8NO+
135.0291	2	C5H4F3N+
135.044	1	C8H7O2+
136.0131	1	C5H3F3O+
136.052	2	C8H8O2+
137.0599	1	C8H9O2+
140.0302	1	C7H4F2N+
140.0495	9	C10H6N+
141.0573	122	C10H7N+
142.0416	1	C10H6O+
142.0653	2	C10H8N+
144.0253	5	C6H4F2NO+
145.0333	3	C6H5F2NO+
146.0212	18	C6H3F3N+
146.0597	1	C9H8NO+
147.029	6	C6H4F3N+
147.0349	1	C2H7F2NO4+
148.0368	10	C6H5F3N+
150.0477	1	C9H7FO+
151.0352	1	C9H5F2+
152.043	4	C9H6F2+
156.081	2	C11H10N+
157.0521	1	C10H7NO+
157.0886	5	C11H11N+
158.0601	38	C10H8NO+
159.0479	3	C10H6FN+
159.0604	1	C11H8F+
159.0675	1	C10H9NO+
160.0559	2	C10H7FN+
161.0449	4	C7H6F3N+
162.0529	1	C7H7F3N+
163.024	10	C6H4F3NO+
163.0352	2	C10H5F2+
164.0318	203	C6H5F3NO+
166.0652	2	C12H8N+
167.073	19	C12H9N+
168.0444	26	C11H6NO+
169.0522	18	C11H7NO+
170.04	4	C11H5FN+
170.0601	4	C11H8NO+
172.0364	4	C8H5F3N+
173.0517	1	C4H9F2NO4+
176.0318	2	C7H5F3NO+
177.0586	2	C10H8FNO+
178.0472	8	C7H7F3NO+
179.0189	87	C6H4F3NO2+
180.0382	12	C10H6F2O+
181.046	4	C10H7F2O+
182.0336	1	C10H5F3+
182.0415	1	C9H6F2NO+
183.0416	5	C10H6F3+
184.0755	3	C12H10NO+
185.0448	13	C9H6F3N+
185.0638	1	C12H8FN+
185.0835	1	C12H11NO+
186.0538	9	C11H8NO2+
186.0711	4	C12H9FN+
187.0427	3	C11H6FNO+
188.0315	1	C8H5F3NO+
188.0507	24	C11H7FNO+
189.0385	1	C11H5F2N+
190.0463	58	C11H6F2N+
191.0416	5	C4H8F3NO4+
194.06	1	C13H8NO+
196.056	2	C13H7FN+
197.0444	1	C10H6F3N+
198.0352	2	C12H5FNO+
198.0528	40	C10H7F3N+
199.0363	1	C10H6F3O+
199.0603	5	C10H8F3N+
200.0316	3	C9H5F3NO+
201.0418	12	C11H7NO3+
202.0471	6	C9H7F3NO+
206.0416	2	C11H6F2NO+
206.0776	1	C12H10F2N+
207.0492	10	C11H7F2NO+
208.0568	7	C11H8F2NO+
209.0448	17	C11H6F3N+
210.0525	22	C11H7F3N+
211.0603	25	C11H8F3N+
212.0315	1	C10H5F3NO+
212.0696	7	C13H10NO2+
213.0782	1	C13H11NO2+
214.0474	2	C10H7F3NO+
214.0664	3	C13H9FNO+
216.0456	2	C12H7FNO2+
216.0619	5	C13H8F2N+
218.0412	118	C12H6F2NO+
222.0524	2	C12H7F3N+
224.0674	1	C12H9F3N+
225.04	1	C11H6F3NO+
226.0473	19	C11H7F3NO+
226.0838	7	C12H11F3N+
227.0553	156	C11H8F3NO+
228.064	1	C11H9F3NO+
234.036	1	C12H6F2NO2+
234.0725	1	C13H10F2NO+
235.0602	14	C13H8F3N+
236.0322	1	C12H5F3NO+
236.0681	8	C13H9F3N+
237.0402	2	C12H6F3NO+
238.0474	433	C12H7F3NO+
239.0551	2	C12H8F3NO+
240.0628	2	C12H9F3NO+
254.0423	233	C12H7F3NO2+
255.0496	2	C12H8F3NO2+
256.0579	14	C12H9F3NO2+
264.0628	5	C14H9F3NO+
267.0497	2	C13H8F3NO2+
269.0297	1	C12H6F3NO3+
