Mass spectrum: Chloridazon; LC-ESI-QFT; MS2; CE: 75; R=17500; [M+H]+
Name: Chloridazon
Name: 5-amino-4-chloro-2-phenylpyridazin-3-one
Formula: C10H8ClN3O
Exact mass: 221.0356
SMILES: NC1=C(Cl)C(=O)N(N=C1)C1=CC=CC=C1
InChI: InChI=1S/C10H8ClN3O/c11-9-8(12)6-13-14(10(9)15)7-4-2-1-3-5-7/h1-6H,12H2
Instrument: Q Exactive Orbitrap (Thermo Scientific)
Instrument type: LC-ESI-QFT
Ms type: MS2
Ion mode: POSITIVE
Ionization: ESI
Fragmentation mode: HCD
Collision energy: 75
Resolution: 17500
Column name: Acquity BEH C18 1.7um, 2.1x150mm (Waters)
Retention time: 13.186 min
Base peak: 79.0211
Precursor m/z: 222.0429
Precursor type: [M+H]+
Precursor intensity: 12569437.59375
m/z	relative intensity	assigned
50.015	1	C4H2+
51.0229	3	C4H3+
52.0182	3	C3H2N+
53.0386	157	C4H5+
54.0339	2	C3H4N+
55.0178	7	C3H3O+
55.0291	99	C2H3N2+
56.0132	1	C2H2NO+
61.9791	1	CHClN+
62.9633	1	CClO+
63.0231	1	C5H3+
63.9948	51	CH3ClN+
65.0386	711	C5H5+
66.0212	26	C3H2N2+
66.0464	3	C5H6+
67.0291	14	C3H3N2+
67.0542	6	C5H7+
68.0131	3	C3H2NO+
73.0396	6	C2H5N2O+
73.9792	11	C2HClN+
74.9869	4	C2H2ClN+
75.9948	35	C2H3ClN+
77.0385	71	C6H5+
78.0464	2	C6H6+
79.0541	1	C6H7+
80.0493	2	C5H6N+
81.0335	17	C5H5O+
83.024	17	C3H3N2O+
87.9949	115	C3H3ClN+
89.0386	4	C7H5+
90.0464	4	C7H6+
91.006	1	C2H4ClN2+
91.0545	2	C7H7+
92.0495	999	C6H6N+
93.0573	106	C6H7N+
94.0652	213	C6H8N+
95.0491	518	C6H7O+
100.9901	172	C3H2ClN2+
101.9742	25	C3HClNO+
102.0464	7	C8H6+
103.0058	2	C3H4ClN2+
103.0543	12	C8H7+
104.0495	685	C7H6N+
105.0447	185	C6H5N2+
106.0651	2	C7H8N+
109.0649	3	C7H9O+
110.06	2	C6H8NO+
111.044	5	C4H5N3O+
113.0382	1	C9H5+
114.0338	3	C8H4N+
114.0464	2	C9H6+
115.0542	7	C9H7+
115.9896	1	C4H3ClNO+
116.0496	8	C8H6N+
116.9976	21	C4H4ClNO+
117.0574	7	C8H7N+
118.0412	2	C8H6O+
119.0008	6	C3H4ClN2O+
119.0604	24	C7H7N2+
120.0445	7	C7H6NO+
122.9996	7	C7H4Cl+
125.0152	4	C7H6Cl+
128.985	195	C4H2ClN2O+
130.0652	65	C9H8N+
131.0493	1	C9H7O+
131.0604	30	C8H7N2+
132.0444	30	C8H6NO+
132.0569	3	C9H8O+
132.0681	8	C8H8N2+
133.0522	4	C8H7NO+
134.06	1	C8H8NO+
140.0495	202	C10H6N+
141.0573	424	C10H7N+
142.0526	14	C9H6N2+
143.0605	3	C9H7N2+
144.0558	1	C8H6N3+
145.0393	1	C8H5N2O+
146.0116	219	C4H5ClN3O+
149.0153	281	C9H6Cl+
150.0105	41	C8H5ClN+
152.0254	2	C8H7ClN+
158.06	19	C10H8NO+
158.0711	7	C9H8N3+
159.0552	21	C9H7N2O+
159.0672	2	C10H9NO+
159.0792	3	C9H9N3+
160.0629	8	C9H8N2O+
166.0053	4	C8H5ClNO+
169.0395	5	C10H5N2O+
174.0111	1	C10H5ClN+
175.018	3	C10H6ClN+
176.0262	140	C10H7ClN+
177.0211	6	C9H6ClN2+
178.0053	4	C9H5ClNO+
186.0663	19	C10H8N3O+
193.029	53	C10H8ClNO+
194.0368	128	C10H9ClNO+
195.0319	5	C9H8ClN2O+
205.0166	8	C10H6ClN2O+
222.0428	136	C10H9ClN3O+
