Mass spectrum: Pyrimethanil; LC-ESI-QFT; MS2; CE: 90; R=17500; [M+H]+
Name: Pyrimethanil
Name: 4,6-dimethyl-N-phenylpyrimidin-2-amine
Formula: C12H13N3
Exact mass: 199.1109
SMILES: CC1=CC(C)=NC(NC2=CC=CC=C2)=N1
InChI: InChI=1S/C12H13N3/c1-9-8-10(2)14-12(13-9)15-11-6-4-3-5-7-11/h3-8H,1-2H3,(H,13,14,15)
Instrument: Q Exactive Orbitrap (Thermo Scientific)
Instrument type: LC-ESI-QFT
Ms type: MS2
Ion mode: POSITIVE
Ionization: ESI
Fragmentation mode: HCD
Collision energy: 90
Resolution: 17500
Column name: Acquity BEH C18 1.7um, 2.1x150mm (Waters)
Retention time: 16.235 min
Base peak: 79.0211
Precursor m/z: 200.1182
Precursor type: [M+H]+
Precursor intensity: 30438821.3125
m/z	relative intensity	assigned
53.0386	287	C4H5+
54.0339	4	C3H4N+
55.0543	57	C4H7+
56.0495	17	C3H6N+
58.0651	25	C3H8N+
63.0228	10	C5H3+
65.0385	236	C5H5+
66.0338	268	C4H4N+
67.0291	240	C3H3N2+
67.0416	244	C4H5N+
70.065	20	C4H8N+
74.0962	2	C4H12N+
77.0385	36	C6H5+
78.0464	29	C6H6+
80.0494	774	C5H6N+
81.0573	10	C5H7N+
82.0651	999	C5H8N+
83.0603	114	C4H7N2+
90.0338	7	C6H4N+
91.0542	59	C7H7+
92.037	24	C5H4N2+
92.0495	218	C6H6N+
93.0573	184	C6H7N+
94.0651	18	C6H8N+
95.0491	229	C4H5N3+
96.068	10	C5H8N2+
97.0761	4	C5H9N2+
104.0495	16	C7H6N+
105.0447	98	C6H5N2+
107.0604	661	C6H7N2+
108.0681	13	C6H8N2+
115.0542	114	C9H7+
116.0495	33	C8H6N+
117.0573	43	C8H7N+
118.0525	66	C7H6N2+
118.0651	90	C8H8N+
119.0604	191	C7H7N2+
123.0791	9	C6H9N3+
124.0871	9	C6H10N3+
128.0495	15	C9H6N+
128.062	15	C10H8+
129.0699	42	C10H9+
130.0652	8	C9H8N+
131.0604	54	C8H7N2+
132.0682	7	C8H8N2+
132.0808	7	C9H10N+
139.0542	22	C11H7+
140.0494	48	C10H6N+
141.0572	66	C10H7N+
142.0652	106	C10H8N+
143.0604	174	C9H7N2+
143.073	50	C10H9N+
146.084	7	C9H10N2+
154.065	17	C11H8N+
155.0603	15	C10H7N2+
155.0728	8	C11H9N+
156.0684	43	C10H8N2+
156.0807	58	C11H10N+
157.0761	11	C10H9N2+
157.0888	2	C11H11N+
158.0839	19	C10H10N2+
158.0963	14	C11H12N+
159.0916	65	C10H11N2+
160.0996	3	C10H12N2+
166.0651	52	C12H8N+
167.0609	11	C11H7N2+
167.0729	70	C12H9N+
168.0682	592	C11H8N2+
171.079	3	C10H9N3+
172.0991	2	C11H12N2+
173.1073	19	C11H13N2+
181.076	256	C12H9N2+
182.0839	551	C12H10N2+
183.0917	313	C12H11N2+
184.0868	17	C11H10N3+
185.0947	28	C11H11N3+
198.1024	32	C12H12N3+
199.1103	7	C12H13N3+
200.1182	269	C12H14N3+
