Mass spectrum: Amiodarone hydrochloride; LC-ESI-QFT; MS2; CE: 90; R=17500; [M+H]+
Name: Amiodarone
Name: (2-butyl-1-benzofuran-3-yl)-[4-[2-(diethylamino)ethoxy]-3,5-diiodophenyl]methanone
Formula: C25H29I2NO3
Exact mass: 645.0237
SMILES: CCCCC1=C(C(=O)C2=CC(I)=C(OCCN(CC)CC)C(I)=C2)C2=CC=CC=C2O1
InChI: InChI=1S/C25H29I2NO3/c1-4-7-11-22-23(18-10-8-9-12-21(18)31-22)24(29)17-15-19(26)25(20(27)16-17)30-14-13-28(5-2)6-3/h8-10,12,15-16H,4-7,11,13-14H2,1-3H3
Instrument: Q Exactive Orbitrap (Thermo Scientific)
Instrument type: LC-ESI-QFT
Ms type: MS2
Ion mode: POSITIVE
Ionization: ESI
Fragmentation mode: HCD
Collision energy: 90
Resolution: 17500
Column name: Acquity BEH C18 1.7um, 2.1x150mm (Waters)
Retention time: 18.103 min
Base peak: 79.0211
Precursor m/z: 646.031
Precursor type: [M+H]+
Precursor intensity: 17683062.5
m/z	relative intensity	assigned
53.0386	1	C4H5+
56.0495	3	C3H6N+
58.0651	999	C3H8N+
63.0228	3	C5H3+
65.0385	1	C5H5+
70.0651	2	C4H8N+
72.0807	57	C4H10N+
74.0964	2	C4H12N+
86.0964	40	C5H12N+
89.0385	4	C7H5+
90.0464	1	C7H6+
91.018	1	C6H3O+
91.0542	4	C7H7+
92.0255	1	C6H4O+
95.0491	4	C6H7O+
100.112	4	C6H14N+
102.0464	5	C8H6+
103.0542	13	C8H7+
105.0336	1	C7H5O+
115.0542	9	C9H7+
118.0413	2	C8H6O+
128.062	2	C10H8+
131.0491	54	C9H7O+
139.0541	1	C11H7+
152.0621	2	C12H8+
157.0648	1	C11H9O+
159.044	19	C10H7O2+
163.0541	8	C13H7+
164.0621	2	C13H8+
165.0699	25	C13H9+
168.0568	6	C12H8O+
169.0648	3	C12H9O+
171.044	2	C11H7O2+
176.062	8	C14H8+
177.0697	1	C14H9+
178.0776	8	C14H10+
179.0492	3	C13H7O+
179.0855	1	C14H11+
181.0646	1	C13H9O+
189.0698	7	C15H9+
190.0777	3	C15H10+
191.0855	7	C15H11+
192.0569	18	C14H8O+
193.0648	3	C14H9O+
196.052	1	C13H8O2+
202.0778	4	C16H10+
203.0489	1	C15H7O+
203.0855	1	C16H11+
205.0648	19	C15H9O+
206.0726	1	C15H10O+
207.0803	1	C15H11O+
215.0854	1	C17H11+
217.9225	2	C6H3IO+
218.0725	6	C16H10O+
219.0805	4	C16H11O+
220.0519	1	C15H8O2+
221.0598	4	C15H9O2+
231.0804	3	C17H11O+
233.0593	1	C16H9O2+
234.0675	2	C16H10O2+
245.0597	1	C17H9O2+
247.0751	5	C17H11O2+
