Mass spectrum: MK-547; LC-ESI-QFT; MS2; CE: 45; R=17500; [M-H]-
Name: MK-547
Name: J-104132
Name: (5S,6R,7R)-5-(1,3-benzodioxol-5-yl)-2-butyl-7-[2-[(2S)-2-carboxypropyl]-4-methoxyphenyl]-6,7-dihydro-5H-cyclopenta[b]pyridine-6-carboxylic acid
Formula: C31H33NO7
Exact mass: 531.2257
SMILES: CCCCc1ccc2c(n1)[C@@H](c1ccc(OC)cc1C[C@H](C)C(O)=O)[C@H](C(O)=O)[C@H]2c1ccc2c(c1)OCO2
InChI: InChI=1S/C31H33NO7/c1-4-5-6-20-8-10-23-26(18-7-12-24-25(15-18)39-16-38-24)28(31(35)36)27(29(23)32-20)22-11-9-21(37-3)14-19(22)13-17(2)30(33)34/h7-12,14-15,17,26-28H,4-6,13,16H2,1-3H3,(H,33,34)(H,35,36)/t17-,26-,27-,28+/m0/s1
Instrument: Q Exactive Orbitrap (Thermo Scientific)
Instrument type: LC-ESI-QFT
Ms type: MS2
Ion mode: NEGATIVE
Ionization: ESI
Fragmentation mode: HCD
Collision energy: 45
Resolution: 17500
Column name: Acquity BEH C18 1.7um, 2.1x150mm (Waters)
Retention time: 18.559 min
Base peak: 112.9856
Precursor m/z: 530.2184
Precursor type: [M-H]-
Precursor intensity: 11306328.90332
m/z	relative intensity	assigned
65.0033	25	C4HO-
65.0397	11	C5H5-
73.0295	68	C3H5O2-
91.0189	148	C6H3O-
93.0346	199	C6H5O-
107.0503	34	C7H7O-
108.0218	18	C6H4O2-
109.0295	78	C6H5O2-
119.0501	31	C8H7O-
121.0294	140	C7H5O2-
131.0505	19	C9H7O-
133.0659	37	C9H9O-
135.0817	49	C9H11O-
145.0296	14	C9H5O2-
147.0451	28	C9H7O2-
147.0818	48	C10H11O-
150.0923	15	C9H12NO-
158.0371	26	C10H6O2-
159.045	23	C10H7O2-
161.0608	33	C10H9O2-
173.0608	45	C11H9O2-
174.0684	23	C11H10O2-
193.0869	26	C11H13O3-
195.0688	18	C13H9NO-
221.0843	10	C15H11NO-
238.1237	125	C16H16NO-
240.067	26	C14H10NO3-
240.1394	144	C16H18NO-
250.1237	110	C17H16NO-
254.1185	20	C16H16NO2-
263.1317	97	C18H17NO-
264.1394	218	C18H18NO-
266.1193	63	C17H16NO2-
266.1546	95	C18H20NO-
268.134	40	C17H18NO2-
274.1232	12	C19H16NO-
279.1626	57	C19H21NO-
284.1289	26	C17H18NO3-
288.1389	21	C20H18NO-
292.1343	121	C19H18NO2-
294.1497	17	C19H20NO2-
304.1344	36	C20H18NO2-
318.1492	60	C21H20NO2-
320.2028	13	C22H26NO-
326.1553	12	C23H20NO-
331.1568	44	C22H21NO2-
350.1187	12	C24H16NO2-
354.1502	57	C24H20NO2-
355.1574	115	C24H21NO2-
356.1655	170	C24H22NO2-
364.1336	35	C25H18NO2-
366.1492	10	C25H20NO2-
368.1653	62	C25H22NO2-
370.1806	87	C25H24NO2-
378.1135	129	C25H16NO3-
378.1527	12	C26H20NO2-
380.2023	17	C27H26NO-
382.1443	58	C25H20NO3-
382.2187	20	C27H28NO-
383.1527	41	C25H21NO3-
384.1604	405	C25H22NO3-
384.2336	20	C27H30NO-
385.1674	37	C25H23NO3-
392.1289	33	C26H18NO3-
393.1369	17	C26H19NO3-
394.1811	108	C27H24NO2-
396.1605	56	C26H22NO3-
396.1965	149	C27H26NO2-
397.2046	211	C27H27NO2-
398.1764	95	C26H24NO3-
398.2122	228	C27H28NO2-
399.1841	17	C26H25NO3-
399.2209	17	C27H29NO2-
405.173	37	C28H23NO2-
406.1811	169	C28H24NO2-
407.1886	118	C28H25NO2-
408.1604	41	C27H22NO3-
408.1965	82	C28H26NO2-
409.2039	39	C28H27NO2-
410.1398	84	C26H20NO4-
410.176	86	C27H24NO3-
410.2122	49	C28H28NO2-
412.1917	139	C27H26NO3-
412.2279	103	C28H30NO2-
413.2363	12	C28H31NO2-
414.2102	9	C27H28NO3-
414.244	55	C28H32NO2-
420.1967	76	C29H26NO2-
423.1508	20	C27H21NO4-
423.1835	129	C28H25NO3-
424.1918	401	C28H26NO3-
425.1997	225	C28H27NO3-
426.2075	309	C28H28NO3-
427.2151	170	C28H29NO3-
434.1758	264	C29H24NO3-
435.1836	222	C29H25NO3-
436.1912	42	C29H26NO3-
438.1711	67	C28H24NO4-
438.2072	55	C29H28NO3-
439.2142	87	C29H29NO3-
440.2228	59	C29H30NO3-
450.2071	12	C30H28NO3-
452.1866	149	C29H26NO4-
453.1946	999	C29H27NO4-
456.218	33	C29H30NO4-
468.2173	41	C30H30NO4-
484.2122	24	C30H30NO5-
486.228	19	C30H32NO5-
512.2088	21	C31H30NO6-
