Mass spectrum: Methyl red; LC-ESI-QFT; MS2; CE: 15; R=17500; [M+H]+
Name: Methyl red
Name: 2-[[4-(dimethylamino)phenyl]diazenyl]benzoic acid
Formula: C15H15N3O2
Exact mass: 269.1164
SMILES: CN(C)C1=CC=C(C=C1)N=NC2=CC=CC=C2C(=O)O
InChI: InChI=1S/C15H15N3O2/c1-18(2)12-9-7-11(8-10-12)16-17-14-6-4-3-5-13(14)15(19)20/h3-10H,1-2H3,(H,19,20)
Instrument: Q Exactive Orbitrap (Thermo Scientific)
Instrument type: LC-ESI-QFT
Ms type: MS2
Ion mode: POSITIVE
Ionization: ESI
Fragmentation mode: HCD
Collision energy: 15
Resolution: 17500
Column name: Acquity BEH C18 1.7um, 2.1x150mm (Waters)
Retention time: 18.101 min
Base peak: 79.0211
Precursor m/z: 270.1237
Precursor type: [M+H]+
Precursor intensity: 30145157.25
m/z	relative intensity	assigned
148.0757	1	C9H10NO+
153.0699	4	C12H9+
162.1277	2	C11H16N+
181.0646	1	C13H9O+
181.0888	3	C13H11N+
196.1121	11	C14H14N+
209.0836	10	C14H11NO+
222.0914	2	C15H12NO+
224.1071	14	C15H14NO+
237.0904	1	C14H11N3O+
238.0992	8	C14H12N3O+
252.1131	574	C15H14N3O+
270.1237	999	C15H16N3O2+
