Mass spectrum: Pirinixic acid; LC-ESI-QFT; MS2; CE: 90; R=17500; [M-H]-
Name: Pirinixic acid
Name: 2-[4-chloro-6-(2,3-dimethylanilino)pyrimidin-2-yl]sulfanylacetic acid
Formula: C14H14ClN3O2S
Exact mass: 323.0495
SMILES: CC1=C(C)C(NC2=NC(SCC(O)=O)=NC(Cl)=C2)=CC=C1
InChI: InChI=1S/C14H14ClN3O2S/c1-8-4-3-5-10(9(8)2)16-12-6-11(15)17-14(18-12)21-7-13(19)20/h3-6H,7H2,1-2H3,(H,19,20)(H,16,17,18)
Instrument: Q Exactive Orbitrap (Thermo Scientific)
Instrument type: LC-ESI-QFT
Ms type: MS2
Ion mode: NEGATIVE
Ionization: ESI
Fragmentation mode: HCD
Collision energy: 90
Resolution: 17500
Column name: Acquity BEH C18 1.7um, 2.1x150mm (Waters)
Retention time: 17.832 min
Base peak: 317.1395
Precursor m/z: 322.0422
Precursor type: [M-H]-
Precursor intensity: 15170183.14844
m/z	relative intensity	assigned
57.9757	460	CNS-
64.0067	86	C3N2-
65.0145	999	C3HN2-
70.9835	14	C2HNS-
71.9914	9	C2H2NS-
90.0098	69	C4N3-
95.979	17	C3N2S-
130.0662	66	C9H8N-
145.0772	34	C9H9N2-
154.0537	24	C10H6N2-
168.0694	30	C11H8N2-
169.077	47	C11H9N2-
194.0722	35	C12H8N3-
226.0443	17	C12H8N3S-
262.0216	19	C12H9ClN3S-
