Mass spectrum: Mifepristone; LC-ESI-QFT; MS2; CE: 15; R=17500; [M+H]+
Name: Mifepristone
Name: (8S,11R,13S,14S,17S)-11-[4-(dimethylamino)phenyl]-17-hydroxy-13-methyl-17-prop-1-ynyl-1,2,6,7,8,11,12,14,15,16-decahydrocyclopenta[a]phenanthren-3-one
Formula: C29H35NO2
Exact mass: 429.2668
SMILES: CC#C[C@]1(O)CC[C@H]2[C@@H]3CCC4=CC(=O)CCC4=C3[C@H](C[C@]12C)C1=CC=C(C=C1)N(C)C
InChI: InChI=1S/C29H35NO2/c1-5-15-29(32)16-14-26-24-12-8-20-17-22(31)11-13-23(20)27(24)25(18-28(26,29)2)19-6-9-21(10-7-19)30(3)4/h6-7,9-10,17,24-26,32H,8,11-14,16,18H2,1-4H3/t24-,25+,26-,28-,29-/m0/s1
Instrument: Q Exactive Orbitrap (Thermo Scientific)
Instrument type: LC-ESI-QFT
Ms type: MS2
Ion mode: POSITIVE
Ionization: ESI
Fragmentation mode: HCD
Collision energy: 15
Resolution: 17500
Column name: Acquity BEH C18 1.7um, 2.1x150mm (Waters)
Retention time: 16.426 min
Base peak: 79.0211
Precursor m/z: 430.2741
Precursor type: [M+H]+
Precursor intensity: 8410984.75
m/z	relative intensity	assigned
121.0886	2	C8H11N+
122.0963	6	C8H12N+
134.0964	13	C9H12N+
147.0804	1	C10H11O+
148.1119	3	C10H14N+
149.096	1	C10H13O+
159.0806	1	C11H11O+
160.112	3	C11H14N+
162.1277	2	C11H16N+
163.1115	1	C11H15O+
173.0962	1	C12H13O+
174.1278	1	C12H16N+
186.1278	2	C13H16N+
188.1435	3	C13H18N+
199.1121	1	C14H15O+
213.1276	1	C15H17O+
225.1272	1	C16H17O+
242.1536	2	C16H20NO+
264.1749	1	C19H22N+
265.1588	1	C19H21O+
266.1901	1	C19H24N+
268.1697	1	C18H22NO+
269.1533	4	C18H21O2+
280.1694	2	C19H22NO+
282.1853	3	C19H24NO+
291.1739	4	C21H23O+
309.1848	10	C21H25O2+
372.2323	20	C26H30NO+
412.2643	6	C29H34NO+
415.2517	1	C28H33NO2+
430.274	999	C29H36NO2+
