Mass spectrum: Probenecid; LC-ESI-QFT; MS2; CE: 30; R=17500; [M-H]-
Name: Probenecid
Name: 4-(dipropylsulfamoyl)benzoic acid
Formula: C13H19NO4S
Exact mass: 285.1035
SMILES: CCCN(CCC)S(=O)(=O)C1=CC=C(C=C1)C(O)=O
InChI: InChI=1S/C13H19NO4S/c1-3-9-14(10-4-2)19(17,18)12-7-5-11(6-8-12)13(15)16/h5-8H,3-4,9-10H2,1-2H3,(H,15,16)
Instrument: Q Exactive Orbitrap (Thermo Scientific)
Instrument type: LC-ESI-QFT
Ms type: MS2
Ion mode: NEGATIVE
Ionization: ESI
Fragmentation mode: HCD
Collision energy: 30
Resolution: 17500
Column name: Acquity BEH C18 1.7um, 2.1x150mm (Waters)
Retention time: 17.130 min
Base peak: 284.0962
Precursor m/z: 284.0962
Precursor type: [M-H]-
Precursor intensity: 32549912.44727
m/z	relative intensity	assigned
56.9803	1	C2HS-
60.9931	9	CHO3-
63.9624	732	O2S-
64.9703	310	HO2S-
66.0113	1	C4H2O-
77.0397	1	C6H5-
79.019	6	C5H3O-
79.9574	23	O3S-
91.019	2	C6H3O-
93.0346	10	C6H5O-
95.0139	12	C5H3O2-
107.0137	1	C6H3O2-
108.0217	5	C6H4O2-
110.991	2	C5H3OS-
123.0089	2	C6H3O3-
139.9938	162	C6H4O2S-
141.0016	980	C6H5O2S-
154.9809	2	C6H3O3S-
155.9887	34	C6H4O3S-
164.0751	562	C6H14NO2S-
198.0594	999	C9H12NO2S-
240.1064	497	C12H18NO2S-
256.1021	3	C12H18NO3S-
284.0963	156	C13H18NO4S-
