Mass spectrum: Diflufenzopyr; LC-ESI-QFT; MS2; CE: 75; R=17500; [M-H]-
Name: Diflufenzopyr
Name: 2-[(E)-N-[(3,5-difluorophenyl)carbamoylamino]-C-methylcarbonimidoyl]pyridine-3-carboxylic acid
Formula: C15H12F2N4O3
Exact mass: 334.0877
SMILES: C\C(=N/NC(=O)NC1=CC(F)=CC(F)=C1)C1=NC=CC=C1C(O)=O
InChI: InChI=1S/C15H12F2N4O3/c1-8(13-12(14(22)23)3-2-4-18-13)20-21-15(24)19-11-6-9(16)5-10(17)7-11/h2-7H,1H3,(H,22,23)(H2,19,21,24)/b20-8+
Instrument: Q Exactive Orbitrap (Thermo Scientific)
Instrument type: LC-ESI-QFT
Ms type: MS2
Ion mode: NEGATIVE
Ionization: ESI
Fragmentation mode: HCD
Collision energy: 75
Resolution: 17500
Column name: Acquity BEH C18 1.7um, 2.1x150mm (Waters)
Retention time: 16.368 min
Base peak: 112.9856
Precursor m/z: 333.0805
Precursor type: [M-H]-
Precursor intensity: 8269893.894531
m/z	relative intensity	assigned
65.0033	4	C4HO-
65.9986	2	C3NO-
79.0554	67	C6H7-
87.0115	6	C6HN-
88.0193	214	C6H2N-
90.0349	6	C6H4N-
91.0302	4	C5H3N2-
93.0459	3	C5H5N2-
102.035	19	C7H4N-
103.0302	8	C6H3N2-
104.0506	53	C7H6N-
106.0663	24	C7H8N-
108.0255	247	C6H3FN-
122.0613	3	C7H8NO-
128.0317	999	C6H4F2N-
132.0567	42	C7H6N3-
134.0724	10	C7H8N3-
148.0405	3	C8H6NO2-
160.0516	150	C8H6N3O-
178.0624	11	C8H8N3O2-
227.0352	7	C14H3N4-
255.0297	4	C15H3N4O-
