Mass spectrum: AVE3295; LC-ESI-QFT; MS2; CE: 15; R=17500; [M+H]+
Name: AVE3295
Name: 5-Fluoro-N-[(1S)-1-phenylpropyl]-2-[(quinolin-8-ylsulfonyl)amino]benzamide
Name: 5-fluoro-N-[(1S)-1-phenylpropyl]-2-(quinolin-8-ylsulfonylamino)benzamide
Formula: C25H22FN3O3S
Exact mass: 463.1366
SMILES: CC[C@H](NC(=O)c1cc(F)ccc1NS(=O)(=O)c1cccc2cccnc12)c1ccccc1
InChI: InChI=1S/C25H22FN3O3S/c1-2-21(17-8-4-3-5-9-17)28-25(30)20-16-19(26)13-14-22(20)29-33(31,32)23-12-6-10-18-11-7-15-27-24(18)23/h3-16,21,29H,2H2,1H3,(H,28,30)/t21-/m0/s1
Instrument: Q Exactive Orbitrap (Thermo Scientific)
Instrument type: LC-ESI-QFT
Ms type: MS2
Ion mode: POSITIVE
Ionization: ESI
Fragmentation mode: HCD
Collision energy: 15
Resolution: 17500
Column name: Acquity BEH C18 1.7um, 2.1x150mm (Waters)
Retention time: 17.503 min
Base peak: 79.0211
Precursor m/z: 464.1439
Precursor type: [M+H]+
Precursor intensity: 18433232.53125
m/z	relative intensity	assigned
91.0542	27	C7H7+
119.0855	105	C9H11+
128.0446	1	C4H6N3O2+
129.0585	3	C6H8FNO+
137.0283	1	C7H4FNO+
154.055	1	C7H7FN2O+
210.0217	6	C9H8NO3S+
265.0765	8	C13H15NO3S+
329.0389	182	C16H10FN2O3S+
346.0653	999	C16H13FN3O3S+
464.1438	829	C25H23FN3O3S+
