Mass spectrum: Albendazole; LC-ESI-QFT; MS2; CE: 15; R=17500; [M+H]+
Name: Albendazole
Name: methyl N-(6-propylsulfanyl-1H-benzimidazol-2-yl)carbamate
Formula: C12H15N3O2S
Exact mass: 265.0885
SMILES: CCCSC1=CC=C2NC(NC(=O)OC)=NC2=C1
InChI: InChI=1S/C12H15N3O2S/c1-3-6-18-8-4-5-9-10(7-8)14-11(13-9)15-12(16)17-2/h4-5,7H,3,6H2,1-2H3,(H2,13,14,15,16)
Instrument: Q Exactive Orbitrap (Thermo Scientific)
Instrument type: LC-ESI-QFT
Ms type: MS2
Ion mode: POSITIVE
Ionization: ESI
Fragmentation mode: HCD
Collision energy: 15
Resolution: 17500
Column name: Acquity BEH C18 1.7um, 2.1x150mm (Waters)
Retention time: 16.061 min
Base peak: 79.0211
Precursor m/z: 266.0958
Precursor type: [M+H]+
Precursor intensity: 24804590.46875
m/z	relative intensity	assigned
191.0137	1	C8H5N3OS+
207.0822	1	C10H13N3S+
223.0403	4	C9H9N3O2S+
234.0695	146	C11H12N3OS+
266.0955	999	C12H16N3O2S+
