Mass spectrum: Tris(2-butoxyethyl) phosphate; LC-ESI-QFT; MS2; CE: 75; R=17500; [M+H]+
Name: Tris(2-butoxyethyl) phosphate
Formula: C18H39O7P
Exact mass: 398.2433
SMILES: CCCCOCCOP(=O)(OCCOCCCC)OCCOCCCC
InChI: InChI=1S/C18H39O7P/c1-4-7-10-20-13-16-23-26(19,24-17-14-21-11-8-5-2)25-18-15-22-12-9-6-3/h4-18H2,1-3H3
Instrument: Q Exactive Orbitrap (Thermo Scientific)
Instrument type: LC-ESI-QFT
Ms type: MS2
Ion mode: POSITIVE
Ionization: ESI
Fragmentation mode: HCD
Collision energy: 75
Resolution: 17500
Column name: Acquity BEH C18 1.7um, 2.1x150mm (Waters)
Retention time: 19.345 min
Base peak: 79.0211
Precursor m/z: 399.2506
Precursor type: [M+H]+
Precursor intensity: 40947492.5
m/z	relative intensity	assigned
53.0022	62	C3HO+
53.0387	13	C4H5+
55.0543	434	C4H7+
57.0699	999	C4H9+
59.0046	3	C2H4P+
59.0492	48	C3H7O+
61.0202	29	C2H6P+
62.028	73	C2H7P+
62.9995	3	CH4OP+
67.9894	2	C3O2+
68.9971	2	C3HO2+
75.0358	16	C3H8P+
76.0437	175	C3H9P+
83.0857	10	C6H11+
89.0514	15	C4H10P+
90.0594	48	C4H11P+
91.031	6	C3H8OP+
98.9843	443	H4O4P+
103.0673	12	C5H12P+
104.0751	5	C5H13P+
108.0336	9	C3H9O2P+
116.9949	5	H6O5P+
117.0828	13	C6H14P+
118.0906	2	C6H15P+
119.0621	14	C5H12OP+
125	31	C2H6O4P+
131.0104	3	CH8O5P+
131.0986	26	C7H16P+
133.0779	9	C6H14OP+
145.1143	15	C8H18P+
147.1296	3	C8H20P+
159.13	9	C9H20P+
173.1456	35	C10H22P+
182.9907	4	C7H3O6+
187.1613	22	C11H24P+
201.0011	3	C7H5O7+
201.177	13	C12H26P+
203.1927	5	C12H28P+
215.1926	26	C13H28P+
229.2082	46	C14H30P+
243.2238	11	C15H32P+
257.2395	8	C16H34P+
271.2553	15	C17H36P+
285.2711	11	C18H38P+
