Mass spectrum: UK-416244; LC-ESI-QFT; MS2; CE: 45; R=17500; [M+H]+
Name: UK-416244
Name: 3-((Dimethylamino)methyl)-4-(3-methyl-4-(methylthio)phenoxy)benzenesulfonamide
Name: 3-[(dimethylamino)methyl]-4-(3-methyl-4-methylsulfanylphenoxy)benzenesulfonamide
Formula: C17H22N2O3S2
Exact mass: 366.1072
SMILES: CSC1=CC=C(OC2=CC=C(C=C2CN(C)C)S(N)(=O)=O)C=C1C
InChI: InChI=1S/C17H22N2O3S2/c1-12-9-14(5-8-17(12)23-4)22-16-7-6-15(24(18,20)21)10-13(16)11-19(2)3/h5-10H,11H2,1-4H3,(H2,18,20,21)
Instrument: Q Exactive Orbitrap (Thermo Scientific)
Instrument type: LC-ESI-QFT
Ms type: MS2
Ion mode: POSITIVE
Ionization: ESI
Fragmentation mode: HCD
Collision energy: 45
Resolution: 17500
Column name: Acquity BEH C18 1.7um, 2.1x150mm (Waters)
Retention time: 13.853 min
Base peak: 79.0212
Precursor m/z: 367.1145
Precursor type: [M+H]+
Precursor intensity: 14551762
m/z	relative intensity	assigned
122.06	1	C7H8NO+
137.0419	2	C8H9S+
148.0342	1	C9H8S+
165.0703	1	C13H9+
180.0562	6	C5H12N2O3S+
181.0647	1	C13H9O+
185.0519	1	C8H11NO2S+
186.0219	8	C7H8NO3S+
194.0726	47	C14H10O+
195.0804	212	C14H11O+
196.0885	3	C14H12O+
226.0624	89	C14H10O3+
227.0524	45	C14H11OS+
241.0681	53	C15H13OS+
242.0759	110	C15H14OS+
245.0265	1	C13H9O3S+
258.0351	2	C14H10O3S+
258.0583	3	C14H12NO2S+
259.0288	1	C13H9NO3S+
259.0425	12	C14H11O3S+
260.0374	999	C13H10NO3S+
273.0449	1	C14H11NO3S+
274.0531	621	C14H12NO3S+
275.0608	398	C14H13NO3S+
276.068	3	C14H14NO3S+
292.0092	2	C13H10NO3S2+
304.0887	4	C15H16N2O3S+
306.0251	16	C14H12NO3S2+
307.0331	18	C14H13NO3S2+
320.041	12	C15H14NO3S2+
322.0565	10	C15H16NO3S2+
