Mass spectrum: Hydroxyzine; LC-ESI-QFT; MS2; CE: 15; R=17500; [M+H]+
Name: Hydroxyzine
Name: 2-[2-[4-[(4-chlorophenyl)-phenylmethyl]piperazin-1-yl]ethoxy]ethanol
Formula: C21H27ClN2O2
Exact mass: 374.1761
SMILES: OCCOCCN1CCN(CC1)C(C1=CC=CC=C1)C1=CC=C(Cl)C=C1
InChI: InChI=1S/C21H27ClN2O2/c22-20-8-6-19(7-9-20)21(18-4-2-1-3-5-18)24-12-10-23(11-13-24)14-16-26-17-15-25/h1-9,21,25H,10-17H2
Instrument: Q Exactive Orbitrap (Thermo Scientific)
Instrument type: LC-ESI-QFT
Ms type: MS2
Ion mode: POSITIVE
Ionization: ESI
Fragmentation mode: HCD
Collision energy: 15
Resolution: 17500
Column name: Acquity BEH C18 1.7um, 2.1x150mm (Waters)
Retention time: 15.635 min
Base peak: 79.0212
Precursor m/z: 375.1834
Precursor type: [M+H]+
Precursor intensity: 21329753.25
m/z	relative intensity	assigned
165.0706	3	C13H9+
173.1285	47	C8H17N2O2+
201.0466	999	C13H10Cl+
375.1835	563	C21H28ClN2O2+
