Mass spectrum: Etoxazole; LC-ESI-QFT; MS2; CE: 15; R=17500; [M+H]+
Name: Etoxazole
Name: 4-(4-tert-butyl-2-ethoxyphenyl)-2-(2,6-difluorophenyl)-4,5-dihydro-1,3-oxazole
Formula: C21H23F2NO2
Exact mass: 359.1697
SMILES: CCOC1=C(C=CC(=C1)C(C)(C)C)C1COC(=N1)C1=C(F)C=CC=C1F
InChI: InChI=1S/C21H23F2NO2/c1-5-25-18-11-13(21(2,3)4)9-10-14(18)17-12-26-20(24-17)19-15(22)7-6-8-16(19)23/h6-11,17H,5,12H2,1-4H3
Instrument: Q Exactive Orbitrap (Thermo Scientific)
Instrument type: LC-ESI-QFT
Ms type: MS2
Ion mode: POSITIVE
Ionization: ESI
Fragmentation mode: HCD
Collision energy: 15
Resolution: 17500
Column name: Acquity BEH C18 1.7um, 2.1x150mm (Waters)
Retention time: 19.911 min
Base peak: 79.0212
Precursor m/z: 360.177
Precursor type: [M+H]+
Precursor intensity: 140400447.5938
m/z	relative intensity	assigned
57.07	3	C4H9+
141.0154	12	C7H3F2O+
158.0413	5	C7H6F2NO+
165.091	3	C10H13O2+
177.1274	22	C12H17O+
203.143	4	C14H19O+
261.1093	2	C16H15F2O+
304.1144	39	C17H16F2NO2+
317.1712	20	C20H23F2O+
360.1769	999	C21H24F2NO2+
