Mass spectrum: Coumatetralyl; LC-ESI-QFT; MS2; CE: 60; R=17500; [M+H]+
Name: Coumatetralyl
Name: 4-hydroxy-3-(1,2,3,4-tetrahydronaphthalen-1-yl)chromen-2-one
Formula: C19H16O3
Exact mass: 292.1099
SMILES: OC1=C(C2CCCC3=C2C=CC=C3)C(=O)OC2=C1C=CC=C2
InChI: InChI=1S/C19H16O3/c20-18-15-9-3-4-11-16(15)22-19(21)17(18)14-10-5-7-12-6-1-2-8-13(12)14/h1-4,6,8-9,11,14,20H,5,7,10H2
Instrument: Q Exactive Orbitrap (Thermo Scientific)
Instrument type: LC-ESI-QFT
Ms type: MS2
Ion mode: POSITIVE
Ionization: ESI
Fragmentation mode: HCD
Collision energy: 60
Resolution: 17500
Column name: Acquity BEH C18 1.7um, 2.1x150mm (Waters)
Retention time: 18.147 min
Base peak: 79.0211
Precursor m/z: 293.1172
Precursor type: [M+H]+
Precursor intensity: 19679072.90625
m/z	relative intensity	assigned
53.0022	1	C3HO+
53.0386	9	C4H5+
55.0179	3	C3H3O+
63.0229	1	C5H3+
65.0386	20	C5H5+
67.0542	4	C5H7+
68.9972	1	C3HO2+
69.0335	9	C4H5O+
77.0383	5	C6H5+
79.0542	131	C6H7+
81.0336	1	C5H5O+
91.0543	927	C7H7+
93.0335	2	C6H5O+
95.0492	218	C6H7O+
103.0543	23	C8H7+
105.0699	62	C8H9+
107.0491	457	C7H7O+
111.044	1	C6H7O2+
115.0542	8	C9H7+
116.0621	10	C9H8+
117.0699	3	C9H9+
119.0492	1	C8H7O+
119.0857	2	C9H11+
121.0284	189	C7H5O2+
125.0596	2	C7H9O2+
128.0621	23	C10H8+
129.0699	27	C10H9+
131.0856	121	C10H11+
139.039	2	C7H7O3+
141.0701	1	C11H9+
143.0491	1	C10H7O+
143.0857	5	C11H11+
145.0647	4	C10H9O+
147.044	12	C9H7O2+
149.0233	1	C8H5O3+
152.062	3	C12H8+
153.0696	3	C12H9+
159.0442	4	C10H7O2+
159.08	3	C11H11O+
163.039	46	C9H7O3+
169.0648	2	C12H9O+
175.039	999	C10H7O3+
187.0392	1	C11H7O3+
187.0755	3	C12H11O2+
189.0547	42	C11H9O3+
197.0596	1	C13H9O2+
201.0547	4	C12H9O3+
215.0704	7	C13H11O3+
