Mass spectrum: Mifepristone; LC-ESI-QFT; MS2; CE: 75; R=17500; [M+H]+
Name: Mifepristone
Name: (8S,11R,13S,14S,17S)-11-[4-(dimethylamino)phenyl]-17-hydroxy-13-methyl-17-prop-1-ynyl-1,2,6,7,8,11,12,14,15,16-decahydrocyclopenta[a]phenanthren-3-one
Formula: C29H35NO2
Exact mass: 429.2668
SMILES: CC#C[C@]1(O)CC[C@H]2[C@@H]3CCC4=CC(=O)CCC4=C3[C@H](C[C@]12C)C1=CC=C(C=C1)N(C)C
InChI: InChI=1S/C29H35NO2/c1-5-15-29(32)16-14-26-24-12-8-20-17-22(31)11-13-23(20)27(24)25(18-28(26,29)2)19-6-9-21(10-7-19)30(3)4/h6-7,9-10,17,24-26,32H,8,11-14,16,18H2,1-4H3/t24-,25+,26-,28-,29-/m0/s1
Instrument: Q Exactive Orbitrap (Thermo Scientific)
Instrument type: LC-ESI-QFT
Ms type: MS2
Ion mode: POSITIVE
Ionization: ESI
Fragmentation mode: HCD
Collision energy: 75
Resolution: 17500
Column name: Acquity BEH C18 1.7um, 2.1x150mm (Waters)
Retention time: 16.426 min
Base peak: 79.0211
Precursor m/z: 430.2741
Precursor type: [M+H]+
Precursor intensity: 8621886
m/z	relative intensity	assigned
51.023	3	C4H3+
53.0023	7	C3HO+
53.0386	29	C4H5+
55.0179	52	C3H3O+
55.0543	42	C4H7+
56.0495	4	C3H6N+
57.0336	3	C3H5O+
58.0651	9	C3H8N+
65.0385	27	C5H5+
66.0464	3	C5H6+
67.0178	12	C4H3O+
67.0542	63	C5H7+
69.0333	12	C4H5O+
69.0699	11	C5H9+
70.0652	10	C4H8N+
71.0491	3	C4H7O+
77.0386	7	C6H5+
78.0463	3	C6H6+
79.0542	170	C6H7+
81.0335	6	C5H5O+
81.0699	57	C6H9+
83.0491	49	C5H7O+
91.0542	441	C7H7+
92.0621	9	C7H8+
93.0699	87	C7H9+
94.0414	4	C6H6O+
94.0651	7	C6H8N+
95.0491	76	C6H7O+
95.0854	14	C7H11+
97.0648	36	C6H9O+
103.0542	43	C8H7+
104.0621	10	C8H8+
105.0699	260	C8H9+
106.0651	18	C7H8N+
107.0491	107	C7H7O+
107.0729	106	C7H9N+
107.0854	31	C8H11+
108.0808	9	C7H10N+
109.0648	60	C7H9O+
115.0542	118	C9H7+
116.062	58	C9H8+
117.0573	17	C8H7N+
117.0699	204	C9H9+
118.0651	69	C8H8N+
119.0488	4	C8H7O+
119.073	31	C8H9N+
119.0855	68	C9H11+
120.0808	202	C8H10N+
121.0648	22	C8H9O+
121.0886	101	C8H11N+
122.0963	54	C8H12N+
123.0805	8	C8H11O+
127.0542	6	C10H7+
128.062	189	C10H8+
129.0698	188	C10H9+
130.0652	28	C9H8N+
130.0777	36	C10H10+
131.0491	29	C9H7O+
131.0731	32	C9H9N+
131.0855	99	C10H11+
132.0568	16	C9H8O+
132.0808	53	C9H10N+
132.0935	3	C10H12+
133.0649	122	C9H9O+
133.0886	93	C9H11N+
133.101	17	C10H13+
134.0964	999	C9H12N+
135.0804	105	C9H11O+
136.1122	5	C9H14N+
141.0698	128	C11H9+
142.0652	8	C10H8N+
142.0777	60	C11H10+
143.073	41	C10H9N+
143.0855	67	C11H11+
144.057	42	C10H8O+
144.0808	97	C10H10N+
144.0934	6	C11H12+
145.0648	88	C10H9O+
145.0887	45	C10H11N+
145.1012	27	C11H13+
146.0726	37	C10H10O+
146.0964	107	C10H12N+
147.0803	24	C10H11O+
147.1042	66	C10H13N+
148.0755	26	C9H10NO+
148.112	84	C10H14N+
149.0596	3	C9H9O2+
149.0959	6	C10H13O+
150.0912	3	C9H12NO+
151.0755	5	C9H11O2+
152.062	20	C12H8+
153.0698	71	C12H9+
154.0659	3	C11H8N+
154.0777	52	C12H10+
155.0734	7	C11H9N+
155.0856	96	C12H11+
156.0809	68	C11H10N+
156.0925	13	C12H12+
157.0648	36	C11H9O+
157.0886	109	C11H11N+
157.1004	24	C12H13+
158.0728	16	C11H10O+
158.0964	230	C11H12N+
159.0805	85	C11H11O+
159.1043	56	C11H13N+
159.1163	5	C12H15+
160.0891	2	C11H12O+
160.1121	48	C11H14N+
161.0962	27	C11H13O+
161.1203	5	C11H15N+
162.128	5	C11H16N+
165.0699	122	C13H9+
166.0779	45	C13H10+
167.0733	4	C12H9N+
167.0855	76	C13H11+
168.0811	12	C12H10N+
168.0933	27	C13H12+
169.065	12	C12H9O+
169.0889	12	C12H11N+
169.1012	38	C13H13+
170.0726	5	C12H10O+
170.0964	78	C12H12N+
170.1089	4	C13H14+
171.0807	20	C12H11O+
171.1042	94	C12H13N+
171.1167	5	C13H15+
172.112	227	C12H14N+
173.0961	16	C12H13O+
173.1202	23	C12H15N+
174.104	26	C12H14O+
174.1274	13	C12H16N+
177.0701	5	C14H9+
178.0777	83	C14H10+
179.0855	103	C14H11+
180.0807	9	C13H10N+
180.0933	31	C14H12+
181.0648	24	C13H9O+
181.0888	9	C13H11N+
181.1011	48	C14H13+
182.0725	19	C13H10O+
182.0966	37	C13H12N+
182.1094	5	C14H14+
183.0804	28	C13H11O+
183.1043	37	C13H13N+
183.1168	16	C14H15+
184.1121	105	C13H14N+
185.0962	9	C13H13O+
185.1201	29	C13H15N+
186.1277	22	C13H16N+
187.112	3	C13H15O+
187.1354	5	C13H17N+
189.0697	8	C15H9+
190.0777	20	C15H10+
191.0855	69	C15H11+
192.083	5	C14H10N+
192.0933	56	C15H12+
193.0888	19	C14H11N+
193.1013	47	C15H13+
194.0733	12	C14H10O+
194.0966	56	C14H12N+
194.1091	11	C15H14+
195.0804	18	C14H11O+
195.1044	39	C14H13N+
195.1167	17	C15H15+
196.0886	13	C14H12O+
196.112	43	C14H14N+
197.096	29	C14H13O+
197.1199	32	C14H15N+
197.1311	5	C15H17+
198.104	5	C14H14O+
198.1277	59	C14H16N+
199.1119	7	C14H15O+
199.135	15	C14H17N+
200.1432	5	C14H18N+
202.0779	18	C16H10+
203.0856	42	C16H11+
204.0828	4	C15H10N+
204.0933	22	C16H12+
205.0906	4	C15H11N+
205.1013	39	C16H13+
206.0967	20	C15H12N+
206.109	13	C16H14+
207.0802	10	C15H11O+
207.1043	61	C15H13N+
207.1168	18	C16H15+
208.0884	8	C15H12O+
208.1121	104	C15H14N+
209.0962	10	C15H13O+
209.12	72	C15H15N+
209.1316	4	C16H17+
210.1277	65	C15H16N+
211.1008	2	C14H13NO+
211.1114	14	C15H15O+
211.1358	22	C15H17N+
212.1075	4	C14H14NO+
212.1198	4	C15H16O+
212.143	12	C15H18N+
213.1148	3	C14H15NO+
215.0856	34	C17H11+
216.0936	15	C17H12+
217.0895	4	C16H11N+
217.1011	33	C17H13+
218.0965	10	C16H12N+
218.1091	13	C17H14+
219.0806	9	C16H11O+
219.1045	13	C16H13N+
219.117	19	C17H15+
220.1122	46	C16H14N+
220.1232	2	C17H16+
221.0963	9	C16H13O+
221.1199	66	C16H15N+
221.1312	4	C17H17+
222.1277	107	C16H16N+
223.0998	4	C15H13NO+
223.112	5	C16H15O+
223.1357	46	C16H17N+
223.1478	3	C17H19+
224.1071	4	C15H14NO+
224.1434	39	C16H18N+
225.1147	13	C15H15NO+
225.1274	6	C16H17O+
225.1509	6	C16H19N+
226.123	6	C15H16NO+
226.159	3	C16H20N+
227.0858	5	C18H11+
228.0933	13	C18H12+
229.1012	40	C18H13+
230.0963	8	C17H12N+
230.1091	20	C18H14+
231.1041	7	C17H13N+
231.1171	17	C18H15+
232.1121	17	C17H14N+
232.1251	6	C18H16+
233.0961	8	C17H13O+
233.12	26	C17H15N+
233.1324	6	C18H17+
234.1277	57	C17H16N+
235.112	7	C17H15O+
235.1356	37	C17H17N+
236.1434	41	C17H18N+
237.1147	8	C16H15NO+
237.1278	4	C17H17O+
237.1513	8	C17H19N+
238.1226	10	C16H16NO+
238.1593	9	C17H20N+
239.0858	5	C19H11+
239.131	4	C16H17NO+
240.1383	6	C16H18NO+
241.1011	10	C19H13+
242.1094	9	C19H14+
242.1542	3	C16H20NO+
243.1045	5	C18H13N+
243.1169	21	C19H15+
244.1119	14	C18H14N+
244.1249	3	C19H16+
245.1203	22	C18H15N+
245.1326	5	C19H17+
246.1045	3	C18H14O+
246.1276	35	C18H16N+
247.1122	3	C18H15O+
247.1355	31	C18H17N+
247.1488	4	C19H19+
248.1435	40	C18H18N+
249.1514	11	C18H19N+
250.1227	9	C17H16NO+
250.1591	11	C18H20N+
251.1306	3	C17H17NO+
251.1665	3	C18H21N+
252.0932	4	C20H12+
252.138	7	C17H18NO+
253.1012	5	C20H13+
254.1104	4	C20H14+
255.117	11	C20H15+
256.1114	8	C19H14N+
256.1253	7	C20H16+
257.1198	9	C19H15N+
258.1278	85	C19H16N+
259.1354	24	C19H17N+
260.1434	54	C19H18N+
261.1511	26	C19H19N+
262.1593	20	C19H20N+
263.1663	4	C19H21N+
264.1384	7	C18H18NO+
265.1009	3	C21H13+
265.1461	3	C18H19NO+
266.1536	4	C18H20NO+
269.1191	5	C20H15N+
270.1276	6	C20H16N+
271.1356	20	C20H17N+
272.1433	76	C20H18N+
273.1514	34	C20H19N+
274.1588	53	C20H20N+
275.1663	4	C20H21N+
276.138	5	C19H18NO+
276.1751	5	C20H22N+
278.1537	3	C19H20NO+
280.1693	4	C19H22NO+
282.1281	4	C21H16N+
283.1343	5	C21H17N+
284.1433	17	C21H18N+
285.1514	9	C21H19N+
286.1594	25	C21H20N+
287.1663	7	C21H21N+
288.1746	31	C21H22N+
290.1544	2	C20H20NO+
296.1433	5	C22H18N+
297.1511	6	C22H19N+
298.1593	27	C22H20N+
299.1671	11	C22H21N+
300.1753	6	C22H22N+
302.1545	5	C21H20NO+
310.1587	3	C23H20N+
311.1666	3	C23H21N+
312.1748	5	C23H22N+
314.1526	2	C22H20NO+
314.1915	5	C23H24N+
316.1694	8	C22H22NO+
317.1773	4	C22H23NO+
338.1892	3	C25H24N+
