Mass spectrum: Imidacloprid; LC-ESI-QFT; MS2; CE: 15; R=17500; [M-H]-
Name: Imidacloprid
Name: N-[1-[(6-Chloro-3-pyridinyl)methyl]-4,5-dihydroimidazol-2-yl]nitramide
Name: N-[1-[(6-chloropyridin-3-yl)methyl]-4,5-dihydroimidazol-2-yl]nitramide
Formula: C9H10ClN5O2
Exact mass: 255.0523
SMILES: [O-][N+](=O)\N=C1/NCCN1CC1=CN=C(Cl)C=C1
InChI: InChI=1S/C9H10ClN5O2/c10-8-2-1-7(5-12-8)6-14-4-3-11-9(14)13-15(16)17/h1-2,5H,3-4,6H2,(H,11,13)
Instrument: Q Exactive Orbitrap (Thermo Scientific)
Instrument type: LC-ESI-QFT
Ms type: MS2
Ion mode: NEGATIVE
Ionization: ESI
Fragmentation mode: HCD
Collision energy: 15
Resolution: 17500
Column name: Acquity BEH C18 1.7um, 2.1x150mm (Waters)
Retention time: 12.320 min
Base peak: 112.9857
Precursor m/z: 254.045
Precursor type: [M-H]-
Precursor intensity: 2716137.84668
m/z	relative intensity	assigned
85.9998	4	CN3O2-
126.0115	2	C6H5ClN-
153.0226	302	C7H6ClN2-
207.0443	22	C9H8ClN4-
210.0439	36	C9H9ClN3O-
254.0451	999	C9H9ClN5O2-
