Mass spectrum: Gibberellic acid; LC-ESI-QFT; MS2; CE: 30; R=17500; [M-H]-
Name: Gibberellic acid
Name: (1R,2R,5S,8S,9S,10R,11S,12S)-5,12-dihydroxy-11-methyl-6-methylidene-16-oxo-15-oxapentacyclo[9.3.2.15,8.01,10.02,8]heptadec-13-ene-9-carboxylic acid
Formula: C19H22O6
Exact mass: 346.1416
SMILES: C[C@@]12[C@H]3[C@H](C(O)=O)[C@@]45CC(=C)[C@@](O)(C4)CC[C@H]5[C@]3(OC1=O)C=C[C@@H]2O
InChI: InChI=1S/C19H22O6/c1-9-7-17-8-18(9,24)5-3-10(17)19-6-4-11(20)16(2,15(23)25-19)13(19)12(17)14(21)22/h4,6,10-13,20,24H,1,3,5,7-8H2,2H3,(H,21,22)/t10-,11+,12-,13-,16-,17+,18+,19-/m1/s1
Instrument: Q Exactive Orbitrap (Thermo Scientific)
Instrument type: LC-ESI-QFT
Ms type: MS2
Ion mode: NEGATIVE
Ionization: ESI
Fragmentation mode: HCD
Collision energy: 30
Resolution: 17500
Column name: Acquity BEH C18 1.7um, 2.1x150mm (Waters)
Retention time: 13.063 min
Base peak: 305.0968
Precursor m/z: 345.1344
Precursor type: [M-H]-
Precursor intensity: 9441319.419434
m/z	relative intensity	assigned
57.0346	4	C3H5O-
60.9931	4	CHO3-
69.0346	1	C4H5O-
71.0503	232	C4H7O-
73.0295	55	C3H5O2-
83.0502	168	C5H7O-
95.0503	3	C6H7O-
105.071	4	C8H9-
107.0504	1	C7H7O-
119.0496	1	C8H7O-
133.0658	2	C9H9O-
143.0866	999	C11H11-
145.066	2	C10H9O-
145.1022	1	C11H13-
146.0737	1	C10H10O-
147.0813	2	C10H11O-
149.0972	1	C10H13O-
155.0867	6	C12H11-
157.0655	2	C11H9O-
159.0812	7	C11H11O-
159.1179	1	C12H15-
161.0972	59	C11H13O-
169.0662	1	C12H9O-
169.1022	4	C13H13-
171.0816	4	C12H11O-
173.0605	1	C11H9O2-
173.0973	5	C12H13O-
175.0765	3	C11H11O2-
181.1025	1	C14H13-
183.0817	6	C13H11O-
183.1178	2	C14H15-
185.0972	10	C13H13O-
187.0766	3	C12H11O2-
187.1126	1	C13H15O-
189.0919	1	C12H13O2-
197.0973	8	C14H13O-
197.1335	11	C15H17-
199.0767	2	C13H11O2-
199.1129	20	C14H15O-
201.1284	30	C14H17O-
205.1016	1	C16H13-
209.0967	3	C15H13O-
211.1125	4	C15H15O-
213.1285	49	C15H17O-
215.1074	3	C14H15O2-
215.1438	5	C15H19O-
217.1231	1	C14H17O2-
219.1179	2	C17H15-
221.1336	425	C17H17-
223.1125	3	C16H15O-
225.0919	4	C15H13O2-
227.1078	200	C15H15O2-
235.1126	4	C17H15O-
237.1285	21	C17H17O-
239.1442	250	C17H19O-
241.1237	4	C16H17O2-
243.066	4	C14H11O4-
243.1389	1	C16H19O2-
245.1178	3	C15H17O3-
251.1076	5	C17H15O2-
253.1234	32	C17H17O2-
255.1391	15	C17H19O2-
257.1547	80	C17H21O2-
265.1232	5	C18H17O2-
269.1185	2	C17H17O3-
271.0976	88	C16H15O4-
273.1495	4	C17H21O3-
283.134	56	C18H19O3-
301.1445	73	C18H21O4-
327.1236	17	C19H19O5-
345.1343	184	C19H21O6-
