Mass spectrum: Venlafaxine; LC-ESI-QFT; MS2; CE: 90; R=17500; [M+H]+
Name: Venlafaxine
Name: 1-[2-(dimethylamino)-1-(4-methoxyphenyl)ethyl]cyclohexan-1-ol
Formula: C17H27NO2
Exact mass: 277.2042
SMILES: COC1=CC=C(C=C1)C(CN(C)C)C1(O)CCCCC1
InChI: InChI=1S/C17H27NO2/c1-18(2)13-16(17(19)11-5-4-6-12-17)14-7-9-15(20-3)10-8-14/h7-10,16,19H,4-6,11-13H2,1-3H3
Instrument: Q Exactive Orbitrap (Thermo Scientific)
Instrument type: LC-ESI-QFT
Ms type: MS2
Ion mode: POSITIVE
Ionization: ESI
Fragmentation mode: HCD
Collision energy: 90
Resolution: 17500
Column name: Acquity BEH C18 1.7um, 2.1x150mm (Waters)
Retention time: 13.882 min
Base peak: 79.0211
Precursor m/z: 278.2115
Precursor type: [M+H]+
Precursor intensity: 33790445
m/z	relative intensity	assigned
53.0023	1	C3HO+
53.0386	8	C4H5+
55.0543	2	C4H7+
56.0495	10	C3H6N+
57.0573	1	C3H7N+
58.0651	999	C3H8N+
65.0386	10	C5H5+
67.0543	6	C5H7+
69.0699	4	C5H9+
77.0385	3	C6H5+
78.0464	17	C6H6+
79.0542	30	C6H7+
81.0699	22	C6H9+
91.0543	147	C7H7+
93.07	7	C7H9+
95.0492	22	C6H7O+
103.0542	4	C8H7+
105.07	7	C8H9+
106.0414	8	C7H6O+
107.0493	13	C7H7O+
107.0852	1	C8H11+
109.065	4	C7H9O+
115.0543	22	C9H7+
116.0622	5	C9H8+
117.07	8	C9H9+
119.0494	1	C8H7O+
119.0856	3	C9H11+
121.0649	216	C8H9O+
128.062	6	C10H8+
129.0699	5	C10H9+
130.0777	2	C10H10+
131.0493	6	C9H7O+
132.057	15	C9H8O+
133.0648	1	C9H9O+
135.0806	7	C9H11O+
141.0699	5	C11H9+
142.0779	1	C11H10+
143.0858	1	C11H11+
144.057	9	C10H8O+
145.065	5	C10H9O+
146.0728	2	C10H10O+
147.0805	17	C10H11O+
148.0758	4	C9H10NO+
158.0727	14	C11H10O+
159.0805	6	C11H11O+
161.0959	1	C11H13O+
162.0913	7	C10H12NO+
163.0995	1	C10H13NO+
171.0805	1	C12H11O+
172.0882	1	C12H12O+
173.0963	4	C12H13O+
