Mass spectrum: Triamcinolone acetonide; LC-ESI-QFT; MS2; CE: 90; R=17500; [M+H]+
Name: Triamcinolone acetonide
Name: (1S,2S,4R,8S,9S,11S,12R,13S)-12-fluoro-11-hydroxy-8-(2-hydroxyacetyl)-6,6,9,13-tetramethyl-5,7-dioxapentacyclo[10.8.0.02,9.04,8.013,18]icosa-14,17-dien-16-one
Formula: C24H31FO6
Exact mass: 434.2105
SMILES: CC1(C)O[C@@H]2C[C@H]3[C@@H]4CCC5=CC(=O)C=C[C@]5(C)[C@@]4(F)[C@@H](O)C[C@]3(C)[C@@]2(O1)C(=O)CO
InChI: InChI=1S/C24H31FO6/c1-20(2)30-19-10-16-15-6-5-13-9-14(27)7-8-21(13,3)23(15,25)17(28)11-22(16,4)24(19,31-20)18(29)12-26/h7-9,15-17,19,26,28H,5-6,10-12H2,1-4H3/t15-,16-,17-,19+,21-,22-,23-,24+/m0/s1
Instrument: Q Exactive Orbitrap (Thermo Scientific)
Instrument type: LC-ESI-QFT
Ms type: MS2
Ion mode: POSITIVE
Ionization: ESI
Fragmentation mode: HCD
Collision energy: 90
Resolution: 17500
Column name: Acquity BEH C18 1.7um, 2.1x150mm (Waters)
Retention time: 16.761 min
Base peak: 79.0211
Precursor m/z: 435.2177
Precursor type: [M+H]+
Precursor intensity: 4094173.4375
m/z	relative intensity	assigned
51.023	31	C4H3+
53.0386	161	C4H5+
55.0179	192	C3H3O+
55.0543	108	C4H7+
59.0492	163	C3H7O+
65.0385	68	C5H5+
67.0542	155	C5H7+
69.0334	89	C4H5O+
77.0385	38	C6H5+
79.0543	263	C6H7+
81.0335	30	C5H5O+
81.0699	117	C6H9+
83.0489	24	C5H7O+
91.0543	999	C7H7+
93.07	171	C7H9+
95.0492	351	C6H7O+
95.0856	55	C7H11+
97.0646	19	C6H9O+
103.0543	141	C8H7+
105.07	399	C8H9+
107.0492	97	C7H7O+
109.0648	61	C7H9O+
111.0805	23	C7H11O+
115.0543	417	C9H7+
116.062	95	C9H8+
117.07	218	C9H9+
119.0857	197	C9H11+
121.0649	494	C8H9O+
128.0622	521	C10H8+
129.0701	220	C10H9+
130.0777	65	C10H10+
131.0494	81	C9H7O+
131.0857	88	C10H11+
132.0571	156	C9H8O+
133.065	25	C9H9O+
133.1008	21	C10H13+
141.07	266	C11H9+
142.0779	121	C11H10+
143.0857	137	C11H11+
144.057	167	C10H8O+
145.0649	272	C10H9O+
145.1013	24	C11H13+
146.0725	57	C10H10O+
147.0803	138	C10H11O+
152.0622	118	C12H8+
153.0701	132	C12H9+
154.0782	37	C12H10+
155.0857	109	C12H11+
156.0571	35	C11H8O+
157.0649	86	C11H9O+
157.1012	28	C12H13+
158.0728	200	C11H10O+
159.0807	131	C11H11O+
165.07	358	C13H9+
166.0778	77	C13H10+
167.0856	135	C13H11+
168.0571	63	C12H8O+
169.065	98	C12H9O+
169.1015	27	C13H13+
170.0729	28	C12H10O+
171.0805	224	C12H11O+
173.0959	28	C12H13O+
178.0778	247	C14H10+
179.0857	250	C14H11+
180.0932	69	C14H12+
181.0649	182	C13H9O+
181.101	57	C14H13+
182.0724	68	C13H10O+
183.0801	95	C13H11O+
184.088	29	C13H12O+
189.0698	132	C15H9+
190.0779	126	C15H10+
191.0857	241	C15H11+
192.0936	174	C15H12+
193.1013	81	C15H13+
194.0727	108	C14H10O+
195.0807	211	C14H11O+
196.0882	61	C14H12O+
197.0961	41	C14H13O+
202.078	142	C16H10+
203.086	142	C16H11+
204.0935	36	C16H12+
205.0649	54	C15H9O+
205.1012	77	C16H13+
206.0732	41	C15H10O+
206.1096	29	C16H14+
207.0805	124	C15H11O+
208.0886	129	C15H12O+
209.0964	121	C15H13O+
210.1041	27	C15H14O+
215.0858	154	C17H11+
216.0928	38	C17H12+
217.1015	47	C17H13+
218.0727	60	C16H10O+
219.0807	140	C16H11O+
220.0883	29	C16H12O+
222.1036	50	C16H14O+
223.1118	25	C16H15O+
228.0935	34	C18H12+
229.1013	43	C18H13+
231.0806	92	C17H11O+
232.0883	53	C17H12O+
233.0963	73	C17H13O+
234.1034	20	C17H14O+
235.1121	36	C17H15O+
241.1002	26	C19H13+
245.0961	80	C18H13O+
247.1122	26	C18H15O+
259.1116	22	C19H15O+
