Mass spectrum: Fumaric acid; LC-ESI-QFT; MS2; CE: 15; R=17500; [M-H]-
Name: Fumaric acid
Name: (E)-but-2-enedioic acid
Formula: C4H4O4
Exact mass: 116.0110
SMILES: OC(=O)\C=C\C(O)=O
InChI: InChI=1S/C4H4O4/c5-3(6)1-2-4(7)8/h1-2H,(H,5,6)(H,7,8)/b2-1+
Instrument: Q Exactive Orbitrap (Thermo Scientific)
Instrument type: LC-ESI-QFT
Ms type: MS2
Ion mode: NEGATIVE
Ionization: ESI
Fragmentation mode: HCD
Collision energy: 15
Resolution: 17500
Column name: Acquity BEH C18 1.7um, 2.1x150mm (Waters)
Retention time: 3.414 min
Base peak: 198.9364
Precursor m/z: 115.0037
Precursor type: [M-H]-
Precursor intensity: 2023329.358887
m/z	relative intensity	assigned
71.014	999	C3H3O2-
