Mass spectrum: Tebufenozide; LC-ESI-QFT; MS2; CE: 75; R=17500; [M+H]+
Name: Tebufenozide
Name: N-tert-butyl-N'-(4-ethylbenzoyl)-3,5-dimethylbenzohydrazide
Formula: C22H28N2O2
Exact mass: 352.2151
SMILES: CCC1=CC=C(C=C1)C(=O)NN(C(=O)C1=CC(C)=CC(C)=C1)C(C)(C)C
InChI: InChI=1S/C22H28N2O2/c1-7-17-8-10-18(11-9-17)20(25)23-24(22(4,5)6)21(26)19-13-15(2)12-16(3)14-19/h8-14H,7H2,1-6H3,(H,23,25)
Instrument: Q Exactive Orbitrap (Thermo Scientific)
Instrument type: LC-ESI-QFT
Ms type: MS2
Ion mode: POSITIVE
Ionization: ESI
Fragmentation mode: HCD
Collision energy: 75
Resolution: 17500
Column name: Acquity BEH C18 1.7um, 2.1x150mm (Waters)
Retention time: 18.246 min
Base peak: 79.0212
Precursor m/z: 353.2224
Precursor type: [M+H]+
Precursor intensity: 5902141.4375
m/z	relative intensity	assigned
65.0386	246	C5H5+
66.0419	96	H6N2O2+
72.0807	174	C4H10N+
79.0543	460	C6H7+
81.0332	63	C5H5O+
91.0543	825	C7H7+
92.0577	457	C2H8N2O2+
95.0491	183	C6H7O+
103.0542	402	C8H7+
105.0448	94	C6H5N2+
105.07	999	C8H9+
123.0805	375	C8H11O+
133.0649	718	C9H9O+
133.076	187	C8H9N2+
160.0513	182	C10H8O2+
241.0078	68	C20H+
