Mass spectrum: Forchlorfenuron; LC-ESI-QFT; MS2; CE: 60; R=17500; [M+H]+
Name: Forchlorfenuron
Name: 1-(2-chloropyridin-4-yl)-3-phenylurea
Formula: C12H10ClN3O
Exact mass: 247.0512
SMILES: ClC1=NC=CC(NC(=O)NC2=CC=CC=C2)=C1
InChI: InChI=1S/C12H10ClN3O/c13-11-8-10(6-7-14-11)16-12(17)15-9-4-2-1-3-5-9/h1-8H,(H2,14,15,16,17)
Instrument: Q Exactive Orbitrap (Thermo Scientific)
Instrument type: LC-ESI-QFT
Ms type: MS2
Ion mode: POSITIVE
Ionization: ESI
Fragmentation mode: HCD
Collision energy: 60
Resolution: 17500
Column name: Acquity BEH C18 1.7um, 2.1x150mm (Waters)
Retention time: 16.717 min
Base peak: 79.0211
Precursor m/z: 248.0585
Precursor type: [M+H]+
Precursor intensity: 22243028.40625
m/z	relative intensity	assigned
56.0495	3	C3H6N+
66.0337	3	C4H4N+
92.0495	3	C6H6N+
93.0447	22	C5H5N2+
94.0651	14	C6H8N+
95.049	1	C6H7O+
111.0553	433	C5H7N2O+
120.0443	3	C7H6NO+
125.0709	6	C6H9N2O+
129.0214	999	C5H6ClN2+
130.0054	7	C5H5ClNO+
137.0346	35	C3H8ClN3O+
155.0006	122	C6H4ClN2O+
