Mass spectrum: Pyraflufen-ethyl; LC-ESI-QFT; MS2; CE: 90; R=17500; [M+H]+
Name: Pyraflufen-ethyl
Name: ethyl 2-[2-chloro-5-[4-chloro-5-(difluoromethoxy)-1-methylpyrazol-3-yl]-4-fluorophenoxy]acetate
Formula: C15H13Cl2F3N2O4
Exact mass: 412.0204
SMILES: CCOC(=O)COC1=C(Cl)C=C(F)C(=C1)C1=NN(C)C(OC(F)F)=C1Cl
InChI: InChI=1S/C15H13Cl2F3N2O4/c1-3-24-11(23)6-25-10-4-7(9(18)5-8(10)16)13-12(17)14(22(2)21-13)26-15(19)20/h4-5,15H,3,6H2,1-2H3
Instrument: Q Exactive Orbitrap (Thermo Scientific)
Instrument type: LC-ESI-QFT
Ms type: MS2
Ion mode: POSITIVE
Ionization: ESI
Fragmentation mode: HCD
Collision energy: 90
Resolution: 17500
Column name: Acquity BEH C18 1.7um, 2.1x150mm (Waters)
Retention time: 18.455 min
Base peak: 79.0211
Precursor m/z: 413.0277
Precursor type: [M+H]+
Precursor intensity: 8571754.5625
m/z	relative intensity	assigned
58.0288	67	C2H4NO+
62.9632	36	CClO+
75.9949	12	C2H3ClN+
78.0106	26	C2H5ClN+
83.0292	15	C5H4F+
87.9947	7	C3H3ClN+
97.0397	19	C4H5N2O+
100.0181	23	C7H2N+
107.0292	67	C7H4F+
108.0244	7	C6H3FN+
109.0449	9	C7H6F+
111.0241	7	C6H4FO+
114.034	20	C8H4N+
115.0543	14	C9H7+
115.9898	35	C4H3ClNO+
116.9901	22	C5H3ClF+
119.0294	3	C8H4F+
120.037	29	C8H5F+
121.0323	36	C7H4FN+
121.0447	7	C8H6F+
122.04	47	C7H5FN+
122.9996	49	C7H4Cl+
123.024	9	C7H4FO+
123.0353	9	C6H4FN2+
124.0215	2	F3H5NO3+
129.998	7	C6H4ClF+
132.0245	36	C8H3FN+
133.0324	21	C8H4FN+
133.0449	91	C9H6F+
134.0401	115	C8H5FN+
134.0525	19	C9H7F+
135.0479	120	C8H6FN+
136.0557	21	C8H7FN+
137.0272	4	C7H4FNO+
137.051	4	C7H6FN2+
140.9902	223	C7H3ClF+
142.0526	54	C9H6N2+
143.006	23	C7H5ClF+
143.0605	31	C9H7N2+
145.0324	3	C9H4FN+
146.0402	21	C9H5FN+
147.0353	137	C8H4FN2+
148.0194	80	C8H3FNO+
148.0556	12	C9H7FN+
149.0152	8	C9H6Cl+
149.0511	16	C8H6FN2+
150.0106	36	C8H5ClN+
150.035	27	C8H5FNO+
150.0587	6	C8H7FN2+
151.0184	14	C8H6ClN+
151.0428	33	C8H6FNO+
152.0507	34	C8H7FNO+
153.0447	4	C10H5N2+
153.998	55	C8H4ClF+
154.0053	14	C7H5ClNO+
154.9933	14	C7H3ClFN+
155.0057	36	C8H5ClF+
156.0011	206	C7H4ClFN+
156.9606	22	C7H3Cl2+
156.9852	17	C7H3ClFO+
156.9964	21	C6H3ClFN2+
158.0166	5	C7H6ClFN+
159.0553	6	C9H7N2O+
160.0432	29	C9H5FN2+
161.051	142	C9H6FN2+
162.0349	34	C9H5FNO+
162.0471	5	C10H7FO+
162.0588	70	C9H7FN2+
162.9945	24	C9H4ClO+
163.0058	24	C8H4ClN2+
163.043	13	C9H6FNO+
163.0666	53	C9H8FN2+
163.99	6	C8H3ClNO+
164.0009	27	Cl2FH11O4+
164.0506	23	C9H7FNO+
165.0219	5	C8H4FNO2+
165.046	4	C8H6FN2O+
166.03	30	C8H5FNO2+
167.0059	29	C9H5ClF+
167.0374	8	C8H6FNO2+
168.0011	282	C8H4ClFN+
169.0089	249	C8H5ClFN+
169.9686	3	C8H4Cl2+
170.0166	16	C8H6ClFN+
171.0554	27	C10H7N2O+
171.9715	23	C7H4Cl2N+
171.9958	14	C7H4ClFNO+
172.0629	3	C10H8N2O+
173.0512	15	C10H6FN2+
174.0351	14	C10H5FNO+
174.9512	15	C7H2Cl2F+
175.0303	160	C9H4FN2O+
176.0383	20	C9H5FN2O+
176.0503	4	C10H7FNO+
176.9669	63	C7H4Cl2F+
177.0214	117	C9H6ClN2+
178.0056	9	C9H5ClNO+
178.0292	12	C9H7ClN2+
179.0375	7	C9H6FNO2+
179.0614	3	C9H8FN2O+
180.0013	21	C9H4ClFN+
180.0454	17	C9H7FNO2+
180.9853	9	C9H3ClFO+
182.0016	9	C5H6ClFNO3+
182.0168	7	C9H6ClFN+
183.0008	34	C9H5ClFO+
183.0119	24	C8H5ClFN2+
183.9713	11	C8H4Cl2N+
183.9961	84	C8H4ClFNO+
184.02	17	C8H6ClFN2+
185.0039	46	C8H5ClFNO+
185.0276	13	C8H7ClFN2+
185.071	6	C11H9N2O+
186.0118	35	C8H6ClFNO+
189.0459	37	C10H6FN2O+
190.0538	147	C10H7FN2O+
191.0616	72	C10H8FN2O+
191.9777	20	C7H5Cl2FN+
193.0297	30	C10H6FO3+
194.9882	19	C9H3ClFNO+
195.0119	19	C9H5ClFN2+
195.0327	3	C9H6FNO3+
195.9962	44	C9H4ClFNO+
197.0041	36	C6H8Cl2FN2+
197.0167	7	C5H4F3N2O3+
197.0275	95	C9H7ClFN2+
198.0116	30	C9H6ClFNO+
198.9828	2	C11FO3+
199.0195	7	C9H7ClFNO+
199.967	3	C8H2ClFO3+
199.9911	3	C8H4ClFNO2+
200.0273	14	C9H8ClFNO+
201.9622	69	C8H3Cl2FN+
203.978	6	C8H5Cl2FN+
205.0166	18	C10H6ClN2O+
205.0408	4	C10H6FN2O2+
206.0244	19	C10H7ClN2O+
206.0485	6	C10H7FN2O2+
207.012	5	C10H5ClFN2+
209.0277	5	C10H7ClFN2+
209.9993	33	C9H4ClFN2O+
211.0068	13	C9H5ClFN2O+
211.9908	7	C9H4ClFNO2+
212.0271	2	C10H8ClFNO+
212.0819	13	C12H11F3+
213.0226	999	C9H7ClFN2O+
214.0064	39	C9H6ClFNO2+
217.0409	19	C11H6FN2O2+
217.0605	4	C11H9N2O3+
218.0487	16	C11H7FN2O2+
218.9648	13	C8H4Cl2FNO+
219.0562	15	C11H8FN2O2+
219.9727	7	C8H5Cl2FNO+
223.0067	4	C10H5ClFN2O+
225.0225	86	C10H7ClFN2O+
226.0304	102	C10H8ClFN2O+
229.9573	2	C9H3Cl2FNO+
232.9683	17	C8H2ClF2NO3+
233.0118	3	C11H4FNO4+
234.0191	7	C11H7ClN2O2+
237.0225	3	C11H7ClFN2O+
237.994	8	C10H4ClFN2O2+
239.0016	6	C10H5ClFN2O2+
240.0097	5	C10H6ClFN2O2+
241.0173	16	C10H7ClFN2O2+
242.0022	5	C7H9Cl2FN2O2+
242.0255	8	C10H8ClFN2O2+
245.9757	6	C9H5Cl2FN2O+
246.9839	15	C12HF2O4+
253.0175	94	C11H7ClFN2O2+
254.0256	5	C11H8ClFN2O2+
260.9992	7	C10H8Cl2FN2O+
275.9864	9	C10H7Cl2FN2O2+
