Mass spectrum: PK 11195; LC-ESI-QFT; MS2; CE: 90; R=17500; [M+H]+
Name: PK 11195
Name: 1-(2-Chlorophenyl)-N-methyl-N-(1-methylpropyl)-3-isoquinolinecarboxamide
Name: N-butan-2-yl-1-(2-chlorophenyl)-N-methylisoquinoline-3-carboxamide
Formula: C21H21ClN2O
Exact mass: 352.1342
SMILES: CCC(C)N(C)C(=O)C1=CC2=C(C=CC=C2)C(=N1)C1=CC=CC=C1Cl
InChI: InChI=1S/C21H21ClN2O/c1-4-14(2)24(3)21(25)19-13-15-9-5-6-10-16(15)20(23-19)17-11-7-8-12-18(17)22/h5-14H,4H2,1-3H3
Instrument: Q Exactive Orbitrap (Thermo Scientific)
Instrument type: LC-ESI-QFT
Ms type: MS2
Ion mode: POSITIVE
Ionization: ESI
Fragmentation mode: HCD
Collision energy: 90
Resolution: 17500
Column name: Acquity BEH C18 1.7um, 2.1x150mm (Waters)
Retention time: 18.557 min
Base peak: 79.0211
Precursor m/z: 353.1415
Precursor type: [M+H]+
Precursor intensity: 26223971
m/z	relative intensity	assigned
57.0699	1	C4H9+
75.0228	7	C6H3+
86.9995	2	C4H4Cl+
110.9995	3	C6H4Cl+
115.0541	2	C9H7+
129.0101	8	C6H6ClO+
139.0057	15	C6H4ClN2+
140.0494	2	C10H6N+
151.0542	2	C12H7+
152.062	13	C12H8+
165.0701	1	C13H9+
169.0647	13	C12H9O+
174.0467	1	C14H6+
175.0542	13	C14H7+
176.062	81	C14H8+
177.0573	29	C13H7N+
179.0493	3	C13H7O+
179.0604	6	C12H7N2+
189.0702	1	C15H9+
193.0648	40	C14H9O+
194.06	11	C13H8NO+
201.0575	99	C15H7N+
202.0652	90	C15H8N+
203.0727	999	C15H9N+
204.0554	6	C15H8O+
206.0598	1	C14H8NO+
211.0307	5	C14H8Cl+
216.0809	4	C16H10N+
217.0885	6	C16H11N+
220.0756	125	C15H10NO+
230.072	1	C17H10O+
234.0911	2	C16H12NO+
235.0625	3	C12H12ClN2O+
237.0338	14	C15H8ClN+
238.0417	148	C15H9ClN+
251.0494	1	C16H10ClN+
252.0577	1	C16H11ClN+
256.0523	5	C15H11ClNO+
