Mass spectrum: Cyproterone acetate; LC-ESI-QFT; MS2; CE: 15; R=17500; [M+H]+
Name: Cyproterone acetate
Name: [(1S,2S,3S,5R,11R,12S,15R,16S)-15-acetyl-9-chloro-2,16-dimethyl-6-oxo-15-pentacyclo[9.7.0.02,8.03,5.012,16]octadeca-7,9-dienyl] acetate
Formula: C24H29ClO4
Exact mass: 416.1754
SMILES: CC(=O)O[C@@]1(CC[C@H]2[C@@H]3C=C(Cl)C4=CC(=O)[C@@H]5C[C@@H]5[C@]4(C)[C@H]3CC[C@]12C)C(C)=O
InChI: InChI=1S/C24H29ClO4/c1-12(26)24(29-13(2)27)8-6-16-14-10-20(25)19-11-21(28)15-9-18(15)23(19,4)17(14)5-7-22(16,24)3/h10-11,14-18H,5-9H2,1-4H3/t14-,15+,16-,17-,18-,22-,23-,24-/m0/s1
Instrument: Q Exactive Orbitrap (Thermo Scientific)
Instrument type: LC-ESI-QFT
Ms type: MS2
Ion mode: POSITIVE
Ionization: ESI
Fragmentation mode: HCD
Collision energy: 15
Resolution: 17500
Column name: Acquity BEH C18 1.7um, 2.1x150mm (Waters)
Retention time: 18.263 min
Base peak: 79.0211
Precursor m/z: 417.1827
Precursor type: [M+H]+
Precursor intensity: 4555007.125
m/z	relative intensity	assigned
107.0855	1	C8H11+
133.1012	1	C10H13+
145.1009	2	C11H13+
147.1168	10	C11H15+
151.1114	1	C10H15O+
175.1115	1	C12H15O+
181.0418	1	C10H10ClO+
181.0774	1	C11H14Cl+
201.1279	3	C14H17O+
205.042	3	C12H10ClO+
261.1641	2	C20H21+
263.1442	1	C19H19O+
277.1585	1	C20H21O+
278.1665	2	C20H22O+
279.1742	12	C20H23O+
297.1403	1	C20H22Cl+
303.1743	4	C22H23O+
313.1355	11	C20H22ClO+
314.1435	7	C20H23ClO+
315.1512	15	C20H24ClO+
321.1851	27	C22H25O2+
339.1512	3	C22H24ClO+
357.1617	129	C22H26ClO2+
417.183	999	C24H30ClO4+
