Mass spectrum: Hydrochlorothiazide; LC-ESI-QFT; MS2; CE: 75; R=17500; [M-H]-
Name: Hydrochlorothiazide
Name: 6-chloro-1,1-dioxo-3,4-dihydro-2H-1lambda6,2,4-benzothiadiazine-7-sulfonamide
Formula: C7H8ClN3O4S2
Exact mass: 296.9645
SMILES: NS(=O)(=O)C1=CC2=C(NCNS2(=O)=O)C=C1Cl
InChI: InChI=1S/C7H8ClN3O4S2/c8-4-1-5-7(2-6(4)16(9,12)13)17(14,15)11-3-10-5/h1-2,10-11H,3H2,(H2,9,12,13)
Instrument: Q Exactive Orbitrap (Thermo Scientific)
Instrument type: LC-ESI-QFT
Ms type: MS2
Ion mode: NEGATIVE
Ionization: ESI
Fragmentation mode: HCD
Collision energy: 75
Resolution: 17500
Column name: Acquity BEH C18 1.7um, 2.1x150mm (Waters)
Retention time: 8.152 min
Base peak: 218.1034
Precursor m/z: 295.9572
Precursor type: [M-H]-
Precursor intensity: 2239906.699219
m/z	relative intensity	assigned
61.9706	19	NOS-
63.9625	37	O2S-
65.0146	2	C3HN2-
65.9986	2	C3NO-
76.0193	20	C5H2N-
77.9655	999	NO2S-
78.9733	37	HNO2S-
79.9812	22	H2NO2S-
80.9652	3	HO3S-
87.0114	6	C6HN-
90.0349	43	C6H4N-
92.0142	3	C5H2NO-
93.9605	26	NO3S-
94.0298	60	C5H4NO-
104.0381	54	C6H4N2-
105.0217	2	C6H3NO-
105.0456	10	C6H5N2-
114.9517	2	H3O3S2-
115.0302	14	C7H3N2-
117.046	10	C7H5N2-
119.0252	6	C6H3N2O-
121.0408	109	C6H5N2O-
123.9959	61	C6H3ClN-
126.0116	194	C6H5ClN-
131.0491	2	C7H5N3-
132.033	4	C7H4N2O-
140.9987	4	C6H4ClNO-
146.0357	4	C7H4N3O-
169.0083	5	C6H5N2O2S-
178.992	11	C7H3N2O2S-
188.965	2	C6H4ClNO2S-
189.9736	11	C6H5ClNO2S-
194.0033	7	C7H4N3O2S-
202.9689	32	C6H4ClN2O2S-
203.9774	3	C6H5ClN2O2S-
204.9846	17	C6H6ClN2O2S-
215.9577	2	C7H5ClN2S2-
216.9654	2	C7H6ClN2S2-
