Mass spectrum: Carfentrazone-ethyl; LC-ESI-QFT; MS2; CE: 75; R=17500; [M+H]+
Name: Carfentrazone-ethyl
Name: ethyl 2-chloro-3-[2-chloro-5-[4-(difluoromethyl)-3-methyl-5-oxo-1,2,4-triazol-1-yl]-4-fluorophenyl]propanoate
Formula: C15H14Cl2F3N3O3
Exact mass: 411.0364
SMILES: CCOC(=O)C(Cl)CC1=C(Cl)C=C(F)C(=C1)N1N=C(C)N(C(F)F)C1=O
InChI: InChI=1S/C15H14Cl2F3N3O3/c1-3-26-13(24)10(17)4-8-5-12(11(18)6-9(8)16)23-15(25)22(14(19)20)7(2)21-23/h5-6,10,14H,3-4H2,1-2H3
Instrument: Q Exactive Orbitrap (Thermo Scientific)
Instrument type: LC-ESI-QFT
Ms type: MS2
Ion mode: POSITIVE
Ionization: ESI
Fragmentation mode: HCD
Collision energy: 75
Resolution: 17500
Column name: Acquity BEH C18 1.7um, 2.1x150mm (Waters)
Retention time: 18.363 min
Base peak: 79.0212
Precursor m/z: 412.0437
Precursor type: [M+H]+
Precursor intensity: 3764782.84375
m/z	relative intensity	assigned
57.0135	2	C3H2F+
57.0447	2	C2H5N2+
60.0244	19	C2H3FN+
60.9839	5	C2H2Cl+
62.9631	6	CClO+
66.9746	8	CHClF+
72.9838	3	C3H2Cl+
73.0196	4	C2H2FN2+
74.0036	145	C2HFNO+
76.0181	2	C5H2N+
83.0291	5	C5H4F+
85.0396	8	C3H5N2O+
87.0353	37	C3H4FN2+
88.9786	1	C3H2ClO+
90.9746	3	C3HClF+
92.0307	35	C3H4F2N+
100.0182	6	C7H2N+
107.0291	19	C7H4F+
108.0244	3	C6H3FN+
109.0322	2	C6H4FN+
111.0241	3	C6H4FO+
114.0342	5	C8H4N+
116.9902	29	C5H3ClF+
117.998	5	C5H4ClF+
120.0246	3	C7H3FN+
120.0369	7	C8H5F+
121.032	10	C7H4FN+
122.0399	4	C7H5FN+
122.9997	10	C7H4Cl+
123.024	2	C7H4FO+
128.9901	3	C6H3ClF+
132.0243	40	C8H3FN+
133.0323	30	C8H4FN+
133.0449	14	C9H6F+
134.04	28	C8H5FN+
134.0526	12	C9H7F+
135.0479	8	C8H6FN+
135.9949	2	C7H3ClN+
140.9902	530	C7H3ClF+
141.9855	8	C6H2ClFN+
141.998	20	C7H4ClF+
143.0059	13	C7H5ClF+
144.9849	11	CH2ClF2N3O+
146.0526	9	C10H7F+
147.0352	11	C8H4FN2+
147.9947	9	C8H3ClN+
148.0305	26	C7H3FN3+
148.043	5	C8H5FN2+
148.0561	2	C9H7FN+
149.0027	4	C8H4ClN+
149.0509	4	C8H6FN2+
150.0349	11	C8H5FNO+
150.059	2	C8H7FN2+
150.9512	3	C5H2Cl2F+
151.043	33	C8H6FNO+
152.0507	81	C8H7FNO+
152.9737	16	C7H2ClO2+
153.9982	24	C8H4ClF+
154.0053	4	C7H5ClNO+
155.006	8	C8H5ClF+
156.0011	92	C7H4ClFN+
156.9606	4	C7H3Cl2+
156.985	6	C7H3ClFO+
156.9965	4	C6H3ClFN2+
159.0007	9	C7H5ClFO+
159.0353	5	C9H4FN2+
161.0272	36	C9H4FNO+
162.035	2	C9H5FNO+
163.0056	7	C8H4ClN2+
163.0426	3	C9H6FNO+
164.0008	12	C7H3ClN3+
165.9854	23	C8H2ClFN+
166.0054	7	C8H5ClNO+
167.0134	13	C8H6ClNO+
168.0012	314	C8H4ClFN+
168.9852	155	C8H3ClFO+
169.0089	234	C8H5ClFN+
169.9929	134	C8H4ClFO+
170.0168	7	C8H6ClFN+
171.0122	10	C7H5ClFN2+
173.051	7	C10H6FN2+
174.0587	12	C10H7FN2+
174.9514	12	C7H2Cl2F+
175.0302	13	C9H4FN2O+
175.0666	4	C10H8FN2+
176.0381	110	C9H5FN2O+
176.9669	999	C7H4Cl2F+
178.0336	27	C9H4F2N2+
179.0179	9	C9H3F2NO+
179.0417	13	C9H5F2N2+
180.0012	2	C9H4ClFN+
180.9967	4	C8HF2NO2+
181.9557	2	C8H2Cl2N+
183.012	134	C8H5ClFN2+
183.996	44	C8H4ClFNO+
184.0197	6	C8H6ClFN2+
185.9917	35	C8H3ClF2N+
186.0116	36	C8H6ClFNO+
189.0461	6	C10H6FN2O+
189.0695	5	C10H8FN3+
191.0004	4	C12HNO2+
192.9965	35	C9H3ClFN2+
194.0043	33	C9H4ClFN2+
194.9883	146	C9H3ClFNO+
195.9961	268	C9H4ClFNO+
196.9804	4	C6H6Cl2FNO+
197.0038	42	C9H5ClFNO+
198.0117	126	C9H6ClFNO+
199.9666	5	C8H4Cl2NO+
200.0273	8	C9H8ClFNO+
200.0378	4	C4H15Cl2FO3+
201.9621	79	C8H3Cl2FN+
203.9778	51	C8H5Cl2FN+
204.0021	6	C8H5ClF2NO+
204.0325	5	C10H7ClN3+
204.9619	99	C8H4Cl2FO+
205.9977	13	C8H4ClF3N+
206.0288	50	C10H4F2N2O+
207.0365	98	C10H5F2N2O+
207.9963	5	C5HF3N3O3+
208.9913	18	C9H3ClFN2O+
209.0277	34	C10H7ClFN2+
209.999	10	C9H4ClFN2O+
210.0355	11	C10H8ClFN2+
211.0069	161	C9H5ClFN2O+
212.0148	42	C9H6ClFN2O+
213.0026	67	C9H4ClF2N2+
213.9865	7	C9H3ClF2NO+
214.0105	26	C9H5ClF2N2+
215.0142	15	C9H7ClFNO2+
215.0253	15	C11H4FN2O2+
216.0567	16	C11H7FN3O+
217.0646	13	C11H8FN3O+
218.9887	2	C8H6Cl2FN2+
219.9726	5	C8H5Cl2FNO+
220.9915	15	C10H3ClFN2O+
221.9992	31	C10H4ClFN2O+
222.9831	5	C10H3ClFNO2+
223.007	9	C10H5ClFN2O+
223.991	282	C10H4ClFNO2+
225.023	2	C7H10Cl2FN3+
226.0347	13	C10H5F3N2O+
226.9775	11	C9H5Cl2N2O+
227.9898	4	C9H3ClF2N2O+
228.0023	4	C10H5ClF2NO+
228.9735	14	C9H2ClF2NO2+
228.9976	90	C9H4ClF2N2O+
229.9571	12	C9H3Cl2FNO+
230.965	82	C9H4Cl2FNO+
231.9725	7	C9H5Cl2FNO+
232.0272	7	C11H7ClN3O+
232.9806	70	C9H6Cl2FNO+
233.0084	19	C12H2F3NO+
236.0148	16	C11H6ClFN2O+
239.002	11	C10H5ClFN2O2+
240.9975	205	C10H4ClF2N2O+
242.0053	117	C10H5ClF2N2O+
243.0333	5	C10H9ClFN2O2+
248.9852	4	C8H7Cl2N2O3+
251.0261	4	C11H5F2N2O3+
252.0335	68	C11H8ClFN3O+
253.0414	4	C11H9ClFN3O+
256.9682	12	C10H4Cl2FN2O+
261.0037	3	C10H5ClF3N2O+
267.0617	2	C12H8F3N3O+
268.0034	10	C14H5ClN2O2+
268.9923	2	C11H4ClF2N2O2+
276.9743	6	C10H5Cl2F2N2O+
288.0104	21	C11H9Cl2FN3O+
290.0297	8	C14H5F3N2O2+
