Mass spectrum: Atraton; LC-ESI-QFT; MS2; CE: 75; R=17500; [M+H]+
Name: Atraton
Name: 4-N-ethyl-6-methoxy-2-N-propan-2-yl-1,3,5-triazine-2,4-diamine
Formula: C9H17N5O
Exact mass: 211.1433
SMILES: CCNC1=NC(NC(C)C)=NC(OC)=N1
InChI: InChI=1S/C9H17N5O/c1-5-10-7-12-8(11-6(2)3)14-9(13-7)15-4/h6H,5H2,1-4H3,(H2,10,11,12,13,14)
Instrument: Q Exactive Orbitrap (Thermo Scientific)
Instrument type: LC-ESI-QFT
Ms type: MS2
Ion mode: POSITIVE
Ionization: ESI
Fragmentation mode: HCD
Collision energy: 75
Resolution: 17500
Column name: Acquity BEH C18 1.7um, 2.1x150mm (Waters)
Retention time: 13.594 min
Base peak: 79.0211
Precursor m/z: 212.1506
Precursor type: [M+H]+
Precursor intensity: 45361769.375
m/z	relative intensity	assigned
53.0023	7	C3HO+
57.0448	460	C2H5N2+
58.0288	101	C2H4NO+
68.0243	488	C2H2N3+
69.0083	476	C2HN2O+
71.0604	285	C3H7N2+
74.0965	1	C4H12N+
75.0553	476	C2H7N2O+
82.04	49	C3H4N3+
83.024	81	C3H3N2O+
85.0509	19	C2H5N4+
85.0761	214	C4H9N2+
86.0349	378	C2H4N3O+
89.071	2	C3H9N2O+
92.0493	2	C6H6N+
96.0557	495	C4H6N3+
97.0397	292	C4H5N2O+
99.0666	36	C3H7N4+
100.0506	999	C3H6N3O+
103.0867	2	C4H11N2O+
110.0462	21	C3H4N5+
110.0713	11	C5H8N3+
111.0304	1	C3H3N4O+
112.0507	3	C4H6N3O+
113.0821	11	C4H9N4+
114.0662	328	C4H8N3O+
119.0604	3	C7H7N2+
125.0458	7	C4H5N4O+
126.0535	1	C4H6N4O+
127.098	9	C5H11N4+
128.0819	204	C5H10N3O+
138.0775	41	C5H8N5+
138.1026	4	C7H12N3+
139.0614	1	C5H7N4O+
142.0724	303	C4H8N5O+
153.0771	9	C6H9N4O+
168.0879	13	C6H10N5O+
170.1037	435	C6H12N5O+
184.1192	1	C7H14N5O+
212.1509	9	C9H18N5O+
