Mass spectrum: Monuron; LC-ESI-QFT; MS2; CE: 45; R=17500; [M+H]+
Name: Monuron
Name: 3-(4-chlorophenyl)-1,1-dimethylurea
Formula: C9H11ClN2O
Exact mass: 198.0560
SMILES: CN(C)C(=O)NC1=CC=C(Cl)C=C1
InChI: InChI=1S/C9H11ClN2O/c1-12(2)9(13)11-8-5-3-7(10)4-6-8/h3-6H,1-2H3,(H,11,13)
Instrument: Q Exactive Orbitrap (Thermo Scientific)
Instrument type: LC-ESI-QFT
Ms type: MS2
Ion mode: POSITIVE
Ionization: ESI
Fragmentation mode: HCD
Collision energy: 45
Resolution: 17500
Column name: Acquity BEH C18 1.7um, 2.1x150mm (Waters)
Retention time: 15.153 min
Base peak: 79.0211
Precursor m/z: 199.0633
Precursor type: [M+H]+
Precursor intensity: 7038469.34375
m/z	relative intensity	assigned
56.0131	2	C2H2NO+
72.0444	999	C3H6NO+
74.0964	22	C4H12N+
83.0855	1	C6H11+
100.0757	6	C5H10NO+
126.0105	33	C6H5ClN+
154.0054	23	C7H5ClNO+
199.0632	53	C9H12ClN2O+
