Mass spectrum: Farglitazar; LC-ESI-QFT; MS2; CE: 75; R=17500; [M+H]+
Name: Farglitazar
Name: (2S)-2-(2-benzoylanilino)-3-[4-[2-(5-methyl-2-phenyl-1,3-oxazol-4-yl)ethoxy]phenyl]propanoic acid
Formula: C34H30N2O5
Exact mass: 546.2155
SMILES: CC1=C(CCOC2=CC=C(C[C@H](NC3=C(C=CC=C3)C(=O)C3=CC=CC=C3)C(O)=O)C=C2)N=C(O1)C1=CC=CC=C1
InChI: InChI=1S/C34H30N2O5/c1-23-29(36-33(41-23)26-12-6-3-7-13-26)20-21-40-27-18-16-24(17-19-27)22-31(34(38)39)35-30-15-9-8-14-28(30)32(37)25-10-4-2-5-11-25/h2-19,31,35H,20-22H2,1H3,(H,38,39)/t31-/m0/s1
Instrument: Q Exactive Orbitrap (Thermo Scientific)
Instrument type: LC-ESI-QFT
Ms type: MS2
Ion mode: POSITIVE
Ionization: ESI
Fragmentation mode: HCD
Collision energy: 75
Resolution: 17500
Column name: Acquity BEH C18 1.7um, 2.1x150mm (Waters)
Retention time: 20.146 min
Base peak: 79.0211
Precursor m/z: 547.2227
Precursor type: [M+H]+
Precursor intensity: 8210335.125
m/z	relative intensity	assigned
50.0151	3	C4H2+
51.023	4	C4H3+
53.0386	52	C4H5+
55.0179	5	C3H3O+
55.0543	25	C4H7+
65.0386	6	C5H5+
69.0335	23	C4H5O+
77.0385	18	C6H5+
78.0464	1	C6H6+
79.0542	4	C6H7+
81.0335	5	C5H5O+
83.0492	110	C5H7O+
84.0571	3	C5H8O+
91.0543	61	C7H7+
92.0495	3	C6H6N+
93.07	10	C7H9+
94.0415	5	C6H6O+
95.0492	158	C6H7O+
103.0544	12	C8H7+
104.0496	999	C7H6N+
105.0336	500	C7H5O+
105.0447	56	C6H5N2+
107.0492	16	C7H7O+
109.065	2	C7H9O+
115.0543	19	C9H7+
116.0495	3	C8H6N+
116.0622	3	C9H8+
117.0576	8	C8H7N+
117.07	53	C9H9+
118.0654	2	C8H8N+
119.0491	4	C8H7O+
120.0446	7	C7H6NO+
121.065	8	C8H9O+
122.06	5	C7H8NO+
123.0441	2	C7H7O2+
127.0543	2	C10H7+
128.0622	29	C10H8+
129.0699	10	C10H9+
130.0289	13	C8H4NO+
130.0651	12	C9H8N+
131.0493	4	C9H7O+
131.0858	6	C10H11+
132.0444	3	C8H6NO+
134.06	3	C8H8NO+
136.0759	8	C8H10NO+
137.0598	3	C8H9O2+
141.0699	9	C11H9+
143.0731	62	C10H9N+
144.0809	203	C10H10N+
145.065	13	C10H9O+
146.0603	2	C9H8NO+
147.0554	4	C8H7N2O+
147.0805	2	C10H11O+
149.06	2	C9H9O2+
152.0621	5	C12H8+
153.0702	6	C12H9+
155.0606	13	C10H7N2+
158.0602	4	C10H8NO+
158.0966	25	C11H12N+
159.0805	3	C11H11O+
165.0699	10	C13H9+
167.073	10	C12H9N+
167.0853	8	C13H11+
168.0811	8	C12H10N+
172.0758	100	C11H10NO+
178.0781	3	C14H10+
180.0808	28	C13H10N+
181.0649	2	C13H9O+
181.0892	1	C13H11N+
183.0805	2	C13H11O+
186.0915	197	C12H12NO+
187.0994	4	C12H13NO+
192.0805	2	C14H10N+
193.0889	15	C14H11N+
194.0966	10	C14H12N+
196.0759	14	C13H10NO+
204.0808	8	C15H10N+
208.076	47	C14H10NO+
209.0841	2	C14H11NO+
210.0918	4	C14H12NO+
220.0761	6	C15H10NO+
222.0912	3	C15H12NO+
236.0713	2	C15H10NO2+
268.1127	6	C20H14N+
280.1136	2	C21H14N+
296.107	4	C21H14NO+
298.1232	7	C21H16NO+
314.1172	8	C21H16NO2+
