Mass spectrum: FR130739; LC-ESI-QFT; MS2; CE: 45; R=17500; [M+H]+
Name: FR130739
Name: FK-739 free acid
Name: 2-butyl-3-[[4-[2-(2H-tetrazol-5-yl)phenyl]phenyl]methyl]imidazo[4,5-b]pyridine
Formula: C24H23N7
Exact mass: 409.2015
SMILES: CCCCC1=NC2=C(N=CC=C2)N1CC1=CC=C(C=C1)C1=CC=CC=C1C1=NN=NN1
InChI: InChI=1S/C24H23N7/c1-2-3-10-22-26-21-9-6-15-25-24(21)31(22)16-17-11-13-18(14-12-17)19-7-4-5-8-20(19)23-27-29-30-28-23/h4-9,11-15H,2-3,10,16H2,1H3,(H,27,28,29,30)
Instrument: Q Exactive Orbitrap (Thermo Scientific)
Instrument type: LC-ESI-QFT
Ms type: MS2
Ion mode: POSITIVE
Ionization: ESI
Fragmentation mode: HCD
Collision energy: 45
Resolution: 17500
Column name: Acquity BEH C18 1.7um, 2.1x150mm (Waters)
Retention time: 16.703 min
Base peak: 79.0212
Precursor m/z: 410.2088
Precursor type: [M+H]+
Precursor intensity: 19359869.25
m/z	relative intensity	assigned
79.0542	7	C6H7+
80.0494	7	C5H6N+
95.0491	1	C4H5N3+
129.0444	2	C8H5N2+
133.0634	4	C7H7N3+
140.0493	3	C10H6N+
152.0617	2	C12H8+
153.0697	7	C12H9+
165.0695	3	C13H9+
166.0652	1	C12H8N+
166.0779	2	C13H10+
167.0728	6	C12H9N+
176.1182	220	C10H14N3+
178.0652	5	C13H8N+
178.0777	22	C14H10+
179.0603	1	C12H7N2+
179.0729	6	C13H9N+
179.0853	2	C14H11+
180.0807	149	C13H10N+
182.0605	1	C10H6N4+
188.1184	1	C11H14N3+
190.065	25	C14H8N+
191.0729	14	C14H9N+
192.0685	26	C13H8N2+
192.0807	68	C14H10N+
194.06	7	C11H6N4+
195.0916	1	C13H11N2+
196.0757	29	C11H8N4+
205.0763	25	C14H9N2+
206.0841	130	C14H10N2+
207.0915	999	C14H11N2+
208.0754	12	C12H8N4+
239.1171	1	C13H13N5+
367.1918	6	C24H23N4+
