Mass spectrum: Biotin; LC-ESI-QFT; MS2; CE: 30; R=17500; [M-H]-
Name: Biotin
Name: 5-[(3aS,4S,6aR)-2-oxo-1,3,3a,4,6,6a-hexahydrothieno[3,4-d]imidazol-4-yl]pentanoic acid
Formula: C10H16N2O3S
Exact mass: 244.0882
SMILES: OC(=O)CCCC[C@@H]1SC[C@@H]2NC(=O)N[C@H]12
InChI: InChI=1S/C10H16N2O3S/c13-8(14)4-2-1-3-7-9-6(5-16-7)11-10(15)12-9/h6-7,9H,1-5H2,(H,13,14)(H2,11,12,15)/t6-,7-,9-/m0/s1
Instrument: Q Exactive Orbitrap (Thermo Scientific)
Instrument type: LC-ESI-QFT
Ms type: MS2
Ion mode: NEGATIVE
Ionization: ESI
Fragmentation mode: HCD
Collision energy: 30
Resolution: 17500
Column name: Acquity BEH C18 1.7um, 2.1x150mm (Waters)
Retention time: 11.886 min
Base peak: 243.0807
Precursor m/z: 243.0809
Precursor type: [M-H]-
Precursor intensity: 10303538.9873
m/z	relative intensity	assigned
59.0138	2	C2H3O2-
59.0251	2	CH3N2O-
68.0505	31	C4H6N-
71.9914	4	C2H2NS-
74.007	78	C2H4NS-
83.0501	2	C5H7O-
92.0504	1	C6H6N-
95.0251	12	C4H3N2O-
97.0407	13	C4H5N2O-
103.0588	3	C5H11S-
111.0451	6	C6H7O2-
111.0563	12	C5H7N2O-
120.0818	39	C8H10N-
122.0975	116	C8H12N-
130.0697	3	C6H12NS-
136.0767	2	C8H10NO-
139.0587	32	C8H11S-
140.072	2	C7H10NO2-
148.0769	5	C9H10NO-
153.1032	10	C8H13N2O-
154.0873	6	C8H12NO2-
156.0852	146	C8H14NS-
165.1033	79	C9H13N2O-
166.0873	642	C9H12NO2-
179.0831	8	C9H11N2O2-
183.0483	2	C9H11O2S-
191.0825	9	C10H11N2O2-
197.0932	40	C9H13N2O3-
199.091	90	C9H15N2OS-
200.075	823	C9H14NO2S-
209.0931	59	C10H13N2O3-
225.0705	6	C10H13N2O2S-
243.0807	999	C10H15N2O3S-
