Mass spectrum: 2-Amino-5-(5-nitro-2-furyl)-1,3,4-oxadiazole; LC-ESI-QFT; MS2; CE: 60; R=17500; [M-H]-
Name: 2-Amino-5-(5-nitro-2-furyl)-1,3,4-oxadiazole
Name: 5-(5-nitrofuran-2-yl)-1,3,4-oxadiazol-2-amine
Formula: C6H4N4O4
Exact mass: 196.0233
SMILES: NC1=NN=C(O1)C1=CC=C(O1)[N+]([O-])=O
InChI: InChI=1S/C6H4N4O4/c7-6-9-8-5(14-6)3-1-2-4(13-3)10(11)12/h1-2H,(H2,7,9)
Instrument: Q Exactive Orbitrap (Thermo Scientific)
Instrument type: LC-ESI-QFT
Ms type: MS2
Ion mode: NEGATIVE
Ionization: ESI
Fragmentation mode: HCD
Collision energy: 60
Resolution: 17500
Column name: Acquity BEH C18 1.7um, 2.1x150mm (Waters)
Retention time: 11.157 min
Base peak: 195.016
Precursor m/z: 195.016
Precursor type: [M-H]-
Precursor intensity: 2873739.122803
m/z	relative intensity	assigned
50.0035	115	C3N-
64.0193	458	C4H2N-
65.0033	465	C4HO-
65.0146	43	C3HN2-
65.9986	84	C3NO-
77.0034	577	C5HO-
77.0146	71	C4HN2-
77.9985	24	C4NO-
80.0143	27	C4H2NO-
82.0047	999	C2N3O-
89.9985	88	C5NO-
92.0142	242	C5H2NO-
92.9983	41	C5HO2-
93.0097	25	C4HN2O-
109.0296	33	C4H3N3O-
120.0204	31	C5H2N3O-
124.0041	53	C5H2NO3-
