Mass spectrum: Tolbutamide; LC-ESI-QFT; MS2; CE: 75; R=17500; [M-H]-
Name: Tolbutamide
Name: 1-butyl-3-(4-methylphenyl)sulfonylurea
Formula: C12H18N2O3S
Exact mass: 270.1038
SMILES: CCCCNC(=O)NS(=O)(=O)C1=CC=C(C)C=C1
InChI: InChI=1S/C12H18N2O3S/c1-3-4-9-13-12(15)14-18(16,17)11-7-5-10(2)6-8-11/h5-8H,3-4,9H2,1-2H3,(H2,13,14,15)
Instrument: Q Exactive Orbitrap (Thermo Scientific)
Instrument type: LC-ESI-QFT
Ms type: MS2
Ion mode: NEGATIVE
Ionization: ESI
Fragmentation mode: HCD
Collision energy: 75
Resolution: 17500
Column name: Acquity BEH C18 1.7um, 2.1x150mm (Waters)
Retention time: 16.151 min
Base peak: 112.9857
Precursor m/z: 269.0965
Precursor type: [M-H]-
Precursor intensity: 2373371.895508
m/z	relative intensity	assigned
61.9706	115	NOS-
63.9625	60	O2S-
77.9656	44	NO2S-
78.9734	183	HNO2S-
79.9812	349	H2NO2S-
80.9652	15	HO3S-
93.9605	102	NO3S-
103.0426	1	C7H5N-
104.0506	1	C7H6N-
106.0662	999	C7H8N-
107.0502	38	C7H7O-
122.0612	60	C7H8NO-
150.0561	7	C8H8NO2-
170.0282	286	C7H8NO2S-
174.9721	4	C8HNO2S-
