Mass spectrum: Fenarimol; LC-ESI-QFT; MS2; CE: 30; R=17500; [M+H]+
Name: Fenarimol
Name: (2-chlorophenyl)-(4-chlorophenyl)-pyrimidin-5-ylmethanol
Formula: C17H12Cl2N2O
Exact mass: 330.0327
SMILES: OC(C1=CC=C(Cl)C=C1)(C1=CN=CN=C1)C1=CC=CC=C1Cl
InChI: InChI=1S/C17H12Cl2N2O/c18-14-7-5-12(6-8-14)17(22,13-9-20-11-21-10-13)15-3-1-2-4-16(15)19/h1-11,22H
Instrument: Q Exactive Orbitrap (Thermo Scientific)
Instrument type: LC-ESI-QFT
Ms type: MS2
Ion mode: POSITIVE
Ionization: ESI
Fragmentation mode: HCD
Collision energy: 30
Resolution: 17500
Column name: Acquity BEH C18 1.7um, 2.1x150mm (Waters)
Retention time: 18.058 min
Base peak: 79.0211
Precursor m/z: 331.0399
Precursor type: [M+H]+
Precursor intensity: 19011577.5
m/z	relative intensity	assigned
54.0339	3	C3H4N+
71.037	2	ClH8N2+
81.0447	173	C4H5N2+
97.0648	2	C6H9O+
109.0647	1	C7H9O+
122.0482	236	C6H6N2O+
123.0241	81	C10H3+
124.0275	50	CH12Cl2NO+
138.9945	43	C7H4ClO+
141.0102	38	C7H6ClO+
149.0153	1	C9H6Cl+
155.0606	1	C10H7N2+
156.0682	9	C10H8N2+
157.0757	1	C10H9N2+
183.0554	14	C11H7N2O+
184.0631	4	C11H8N2O+
189.0705	1	C15H9+
191.0371	15	C10H8ClN2+
192.0211	5	C10H7ClNO+
192.0449	11	C10H9ClN2+
210.0315	3	C7H12Cl2N2O+
219.0319	18	C11H8ClN2O+
225.0466	1	C15H10Cl+
232.0762	2	C13H13ClN2+
233.0837	2	C16H11NO+
235.0076	17	C13H9Cl2+
238.0416	2	C15H9ClN+
240.0576	7	C15H11ClN+
250.0422	2	C16H9ClN+
251.0025	24	C13H9Cl2O+
251.0496	14	C16H10ClN+
252.0336	52	C16H9ClO+
256.0519	2	C15H11ClNO+
259.0077	105	C15H9Cl2+
260.0941	1	C17H12N2O+
267.0445	2	C16H10ClNO+
267.0682	10	C16H12ClN2+
268.0524	395	C16H11ClNO+
275.0028	1	C15H9Cl2O+
276.0342	7	C15H12Cl2N+
277.0178	1	C15H11Cl2O+
277.0524	1	C17H10ClN2+
278.0606	13	C17H11ClN2+
285.0112	1	C16H9Cl2N+
286.0185	10	C16H10Cl2N+
287.0026	22	C16H9Cl2O+
295.0634	16	C17H12ClN2O+
302.0139	3	C16H10Cl2NO+
302.0369	11	C16H12Cl2N2+
303.046	7	C16H13Cl2N2+
304.0291	122	C16H12Cl2NO+
313.0295	14	C17H11Cl2N2+
331.04	999	C17H13Cl2N2O+
