Mass spectrum: Tomelukast; LC-ESI-QFT; MS2; CE: 60; R=17500; [M-H]-
Name: Tomelukast
Name: 1-[2-hydroxy-3-propyl-4-[4-(2H-tetrazol-5-yl)butoxy]phenyl]ethanone
Formula: C16H22N4O3
Exact mass: 318.1692
SMILES: CCCC1=C(OCCCCC2=NN=NN2)C=CC(C(C)=O)=C1O
InChI: InChI=1S/C16H22N4O3/c1-3-6-13-14(9-8-12(11(2)21)16(13)22)23-10-5-4-7-15-17-19-20-18-15/h8-9,22H,3-7,10H2,1-2H3,(H,17,18,19,20)
Instrument: Q Exactive Orbitrap (Thermo Scientific)
Instrument type: LC-ESI-QFT
Ms type: MS2
Ion mode: NEGATIVE
Ionization: ESI
Fragmentation mode: HCD
Collision energy: 60
Resolution: 17500
Column name: Acquity BEH C18 1.7um, 2.1x150mm (Waters)
Retention time: 17.659 min
Base peak: 317.1618
Precursor m/z: 317.1619
Precursor type: [M-H]-
Precursor intensity: 39388874.17773
m/z	relative intensity	assigned
59.0137	1	C2H3O2-
65.0397	2	C5H5-
67.019	3	C4H3O-
81.0346	1	C5H5O-
83.0502	17	C5H7O-
91.0554	2	C7H7-
105.0344	1	C7H5O-
105.071	2	C8H9-
106.0424	1	C7H6O-
107.0503	7	C7H7O-
107.0866	108	C8H11-
108.0216	2	C6H4O2-
109.0294	13	C6H5O2-
119.0503	2	C8H7O-
119.0866	1	C9H11-
120.0581	14	C8H8O-
121.0295	22	C7H5O2-
122.0373	5	C7H6O2-
131.0865	2	C10H11-
133.066	274	C9H9O-
135.0452	21	C8H7O2-
136.053	68	C8H8O2-
146.0374	9	C9H6O2-
147.0815	3	C10H11O-
149.0973	197	C10H13O-
150.0323	2	C8H6O3-
151.0766	523	C9H11O2-
152.0481	2	C8H8O3-
163.0402	87	C9H7O3-
164.0481	243	C9H8O3-
165.0922	2	C10H13O2-
175.0766	63	C11H11O2-
177.0559	139	C10H9O3-
178.0272	2	C10H2N4-
191.0715	12	C11H11O3-
193.0872	999	C11H13O3-
195.0664	69	C11H7N4-
196.0378	28	C10H4N4O-
