Mass spectrum: Bis[2-(2-butoxyethoxy)ethyl] hexandioate; LC-ESI-QFT; MS2; CE: 60; R=17500; [M+H]+
Name: Bis[2-(2-butoxyethoxy)ethyl] hexandioate
Name: Bis[2-(2-butoxyethoxy)ethyl] adipate
Name: bis[2-(2-butoxyethoxy)ethyl] hexanedioate
Formula: C22H42O8
Exact mass: 434.2880
SMILES: CCCCOCCOCCOC(=O)CCCCC(=O)OCCOCCOCCCC
InChI: InChI=1S/C22H42O8/c1-3-5-11-25-13-15-27-17-19-29-21(23)9-7-8-10-22(24)30-20-18-28-16-14-26-12-6-4-2/h3-20H2,1-2H3
Instrument: Q Exactive Orbitrap (Thermo Scientific)
Instrument type: LC-ESI-QFT
Ms type: MS2
Ion mode: POSITIVE
Ionization: ESI
Fragmentation mode: HCD
Collision energy: 60
Resolution: 17500
Column name: Acquity BEH C18 1.7um, 2.1x150mm (Waters)
Retention time: 18.791 min
Base peak: 79.0212
Precursor m/z: 435.2952
Precursor type: [M+H]+
Precursor intensity: 3979422.75
m/z	relative intensity	assigned
53.0022	26	C3HO+
53.0385	15	C4H5+
55.0543	769	C4H7+
57.0699	999	C4H9+
59.0492	41	C3H7O+
65.0386	17	C5H5+
67.0542	356	C5H7+
69.0335	80	C4H5O+
69.07	18	C5H9+
71.0491	15	C4H7O+
73.0284	96	C3H5O2+
73.0647	60	C4H9O+
81.0698	15	C6H9+
83.0492	781	C5H7O+
83.0855	54	C6H11+
85.0649	84	C5H9O+
87.0441	24	C4H7O2+
89.0233	93	C3H5O3+
89.0597	909	C4H9O2+
93.0337	17	C6H5O+
95.0491	32	C6H7O+
99.0441	120	C5H7O2+
101.0597	77	C5H9O2+
101.0961	71	C6H13O+
107.0703	30	C4H11O3+
111.0441	892	C6H7O2+
113.0597	375	C6H9O2+
127.0754	223	C7H11O2+
129.0547	111	C6H9O3+
137.0599	62	C8H9O2+
139.0754	64	C8H11O2+
143.0707	17	C7H11O3+
155.0703	840	C8H11O3+
157.0859	38	C8H13O3+
173.0809	40	C8H13O4+
