Mass spectrum: 2-Amino-N-cyclohexyl-N-methylbenzenesulfonamide; LC-ESI-QFT; MS2; CE: 75; R=17500; [M+H]+
Name: 2-Amino-N-cyclohexyl-N-methylbenzenesulfonamide
Formula: C13H20N2O2S
Exact mass: 268.1245
SMILES: CN(C1CCCCC1)S(=O)(=O)C1=CC=CC=C1N
InChI: InChI=1S/C13H20N2O2S/c1-15(11-7-3-2-4-8-11)18(16,17)13-10-6-5-9-12(13)14/h5-6,9-11H,2-4,7-8,14H2,1H3
Instrument: Q Exactive Orbitrap (Thermo Scientific)
Instrument type: LC-ESI-QFT
Ms type: MS2
Ion mode: POSITIVE
Ionization: ESI
Fragmentation mode: HCD
Collision energy: 75
Resolution: 17500
Column name: Acquity BEH C18 1.7um, 2.1x150mm (Waters)
Retention time: 17.468 min
Base peak: 79.0211
Precursor m/z: 269.1318
Precursor type: [M+H]+
Precursor intensity: 4814997.625
m/z	relative intensity	assigned
55.0543	174	C4H7+
57.0699	39	C4H9+
65.0386	245	C5H5+
67.0543	20	C5H7+
73.0648	20	C4H9O+
80.0495	87	C5H6N+
83.0856	51	C6H11+
92.0495	999	C6H6N+
95.0858	19	C7H11+
108.0445	190	C6H6NO+
109.1015	26	C8H13+
110.06	16	C6H8NO+
