Mass spectrum: Oxfendazole; LC-ESI-QFT; MS2; CE: 90; R=17500; [M+H]+
Name: Oxfendazole
Name: methyl N-[6-(benzenesulfinyl)-1H-benzimidazol-2-yl]carbamate
Formula: C15H13N3O3S
Exact mass: 315.0678
SMILES: COC(=O)NC1=NC2=C(N1)C=CC(=C2)S(=O)C1=CC=CC=C1
InChI: InChI=1S/C15H13N3O3S/c1-21-15(19)18-14-16-12-8-7-11(9-13(12)17-14)22(20)10-5-3-2-4-6-10/h2-9H,1H3,(H2,16,17,18,19)
Instrument: Q Exactive Orbitrap (Thermo Scientific)
Instrument type: LC-ESI-QFT
Ms type: MS2
Ion mode: POSITIVE
Ionization: ESI
Fragmentation mode: HCD
Collision energy: 90
Resolution: 17500
Column name: Acquity BEH C18 1.7um, 2.1x150mm (Waters)
Retention time: 14.495 min
Base peak: 79.0211
Precursor m/z: 316.075
Precursor type: [M+H]+
Precursor intensity: 1349087.625
m/z	relative intensity	assigned
52.0308	9	C4H4+
53.0387	5	C4H5+
67.0417	4	C4H5N+
69.0083	2	C2HN2O+
77.026	69	C5H3N+
79.0417	32	C5H5N+
91.0416	16	C6H5N+
92.037	8	C5H4N2+
95.0366	21	C5H5NO+
96.0445	6	C5H6NO+
97.0108	17	C5H5S+
97.0523	26	C5H7NO+
103.0418	19	C7H5N+
104.037	254	C6H4N2+
105.0448	56	C6H5N2+
106.0527	5	C6H6N2+
116.0369	17	C7H4N2+
118.0526	25	C7H6N2+
119.048	21	C6H5N3+
119.0605	31	C7H7N2+
122.006	10	C6H4NS+
122.0476	7	C6H6N2O+
125.006	4	C6H5OS+
129.0448	5	C8H5N2+
130.0401	16	C7H4N3+
131.0479	630	C7H5N3+
132.0559	3	C7H6N3+
133.0636	6	C7H7N3+
134.0478	6	C7H6N2O+
136.027	18	C6H4N2O2+
146.0349	2	C7H4N3O+
146.0714	27	C8H8N3+
147.0429	34	C7H5N3O+
147.0554	7	C8H7N2O+
158.035	3	C8H4N3O+
159.0429	517	C8H5N3O+
160.0509	2	C8H6N3O+
163.038	2	C7H5N3O2+
171.0263	20	C11H7S+
172.0343	4	C11H8S+
174.03	62	C8H4N3O2+
175.0376	13	C8H5N3O2+
178.0072	2	C7H4N3OS+
190.0071	29	C8H4N3OS+
191.0327	999	C8H5N3O3+
193.0371	5	C12H5N2O+
196.022	20	C12H6NS+
198.0373	24	C12H8NS+
199.0453	7	C12H9NS+
207.0099	34	C8H5N3O2S+
211.0325	16	C12H7N2S+
223.0594	2	C15H11S+
224.0403	28	C13H8N2S+
225.0482	1	C13H9N2S+
234.0667	4	C14H8N3O+
235.0744	12	C14H9N3O+
238.0436	37	C13H8N3S+
239.0514	4	C13H9N3S+
241.0437	5	C13H9N2OS+
252.0229	5	C13H6N3OS+
265.0309	20	C14H7N3OS+
266.0385	122	C14H8N3OS+
267.0464	3	C14H9N3OS+
