Mass spectrum: Atorvastatin; LC-ESI-QFT; MS2; CE: 90; R=17500; [M+H]+
Name: Atorvastatin
Name: (3R,5R)-7-[2-(4-fluorophenyl)-3-phenyl-4-(phenylcarbamoyl)-5-propan-2-ylpyrrol-1-yl]-3,5-dihydroxyheptanoic acid
Formula: C33H35FN2O5
Exact mass: 558.2530
SMILES: CC(C)C1=C(C(=O)NC2=CC=CC=C2)C(=C(N1CC[C@@H](O)C[C@@H](O)CC(O)=O)C1=CC=C(F)C=C1)C1=CC=CC=C1
InChI: InChI=1S/C33H35FN2O5/c1-21(2)31-30(33(41)35-25-11-7-4-8-12-25)29(22-9-5-3-6-10-22)32(23-13-15-24(34)16-14-23)36(31)18-17-26(37)19-27(38)20-28(39)40/h3-16,21,26-27,37-38H,17-20H2,1-2H3,(H,35,41)(H,39,40)/t26-,27-/m1/s1
Instrument: Q Exactive Orbitrap (Thermo Scientific)
Instrument type: LC-ESI-QFT
Ms type: MS2
Ion mode: POSITIVE
Ionization: ESI
Fragmentation mode: HCD
Collision energy: 90
Resolution: 17500
Column name: Acquity BEH C18 1.7um, 2.1x150mm (Waters)
Retention time: 17.818 min
Base peak: 79.0211
Precursor m/z: 559.2603
Precursor type: [M+H]+
Precursor intensity: 6285364.75
m/z	relative intensity	assigned
51.023	11	C4H3+
53.0022	16	C3HO+
53.0386	114	C4H5+
55.0178	19	C3H3O+
55.0542	101	C4H7+
57.0335	48	C3H5O+
59.0491	14	C3H7O+
61.0284	4	C2H5O2+
65.0385	112	C5H5+
67.0541	22	C5H7+
68.9972	8	C3HO2+
69.0334	66	C4H5O+
69.0698	10	C5H9+
71.0127	40	C3H3O2+
71.0491	49	C4H7O+
73.0284	13	C3H5O2+
77.0385	51	C6H5+
79.0542	117	C6H7+
80.0494	14	C5H6N+
81.0335	12	C5H5O+
81.0698	4	C6H9+
83.0491	97	C5H7O+
89.0384	11	C7H5+
91.0542	120	C7H7+
92.0494	219	C6H6N+
94.0413	10	C6H6O+
94.0652	7	C6H8N+
95.0491	312	C6H7O+
97.0285	12	C5H5O2+
97.0647	4	C6H9O+
101.0598	10	C5H9O2+
103.0542	114	C8H7+
104.0494	170	C7H6N+
105.0447	124	C6H5N2+
106.0652	11	C7H8N+
109.0448	146	C7H6F+
115.0542	331	C9H7+
116.0494	28	C8H6N+
116.0619	20	C9H8+
117.0572	120	C8H7N+
117.0697	13	C9H9+
120.0442	24	C7H6NO+
121.0448	50	C8H6F+
122.04	189	C7H5FN+
124.0758	8	C7H10NO+
127.0541	99	C10H7+
128.0497	48	C9H6N+
128.0619	208	C10H8+
129.0447	28	C8H5N2+
129.0698	72	C10H9+
130.0651	60	C9H8N+
132.0445	10	C8H6NO+
133.0447	247	C9H6F+
134.04	22	C8H5FN+
134.0526	20	C9H7F+
134.0597	7	C8H8NO+
135.0477	73	C8H6FN+
135.0603	5	C9H8F+
136.0557	8	C8H7FN+
140.0497	18	C10H6N+
141.0698	54	C11H9+
142.0649	18	C10H8N+
142.0776	7	C11H10+
143.049	7	C10H7O+
143.0728	34	C10H9N+
145.0445	26	C10H6F+
145.0648	187	C10H9O+
146.0526	121	C10H7F+
146.06	64	C9H8NO+
147.0602	38	C10H8F+
148.0554	37	C9H7FN+
152.05	19	C11H6N+
152.062	67	C12H8+
153.0576	29	C11H7N+
153.0697	83	C12H9+
154.0651	247	C11H8N+
155.0603	252	C10H7N2+
155.0726	12	C11H9N+
156.0809	17	C11H10N+
159.0604	21	C11H8F+
160.0557	10	C10H7FN+
160.0687	4	C11H9F+
160.0759	4	C10H10NO+
161.0637	19	C10H8FN+
163.0554	55	C10H8FO+
164.0505	32	C9H7FNO+
165.0698	46	C13H9+
166.0652	25	C12H8N+
167.073	61	C12H9N+
168.0809	12	C12H10N+
169.0645	21	C12H9O+
170.0524	17	C12H7F+
170.06	51	C11H8NO+
171.0479	27	C11H6FN+
171.0604	36	C12H8F+
172.0556	167	C11H7FN+
172.0756	20	C11H10NO+
173.051	122	C10H6FN2+
173.0639	11	C11H8FN+
174.0715	15	C11H9FN+
177.0698	18	C14H9+
178.0654	14	C13H8N+
178.0775	12	C14H10+
179.0854	5	C14H11+
180.0557	12	C13H8O+
180.0806	56	C13H10N+
181.0888	10	C13H11N+
182.0966	12	C13H12N+
183.0604	93	C13H8F+
184.0555	10	C12H7FN+
185.0634	47	C12H8FN+
186.0714	10	C12H9FN+
189.0698	59	C15H9+
190.066	25	C11H9FNO+
191.073	8	C14H9N+
191.0857	9	C15H11+
192.0805	9	C14H10N+
193.0885	10	C14H11N+
194.0963	5	C14H12N+
196.068	52	C14H9F+
197.0766	8	C14H10F+
198.0713	52	C13H9FN+
199.0788	7	C13H10FN+
200.087	11	C13H11FN+
202.0776	323	C16H10+
203.0854	105	C16H11+
204.0809	16	C15H10N+
206.096	9	C15H12N+
207.0603	76	C15H8F+
208.0681	45	C15H9F+
209.076	220	C15H10F+
210.0717	8	C14H9FN+
210.0829	8	C15H11F+
211.0788	27	C14H10FN+
212.087	8	C14H11FN+
213.0699	22	C17H9+
215.0856	30	C17H11+
217.0885	59	C16H11N+
218.0967	23	C16H12N+
219.0804	20	C16H11O+
220.068	210	C16H9F+
221.076	144	C16H10F+
222.0713	111	C15H9FN+
222.0839	80	C16H11F+
223.0791	14	C15H10FN+
223.0919	22	C16H12F+
224.0872	13	C15H11FN+
226.0781	18	C18H10+
227.0728	23	C17H9N+
227.0855	11	C18H11+
228.0808	74	C17H10N+
229.0758	10	C16H9N2+
229.0886	24	C17H11N+
229.1003	5	C18H13+
230.0965	116	C17H12N+
233.0761	516	C17H10F+
234.0713	100	C16H9FN+
234.084	25	C17H11F+
235.0791	660	C16H10FN+
236.0869	90	C16H11FN+
237.0721	8	C16H10FO+
237.0946	78	C16H12FN+
238.1026	25	C16H13FN+
239.0855	16	C19H11+
241.0886	29	C18H11N+
242.0962	21	C18H12N+
243.1042	6	C18H13N+
246.071	30	C17H9FN+
246.084	31	C18H11F+
247.0658	6	C16H8FN2+
247.079	40	C17H10FN+
247.0919	19	C18H12F+
248.0869	999	C17H11FN+
249.0946	182	C17H12FN+
250.1026	384	C17H13FN+
254.0959	23	C19H12N+
255.1042	4	C19H13N+
256.1118	10	C19H14N+
257.0758	35	C19H10F+
258.0846	7	C19H11F+
259.079	53	C18H10FN+
259.0922	25	C19H12F+
260.0869	128	C18H11FN+
260.1018	8	C19H13F+
261.0948	260	C18H12FN+
262.1026	187	C18H13FN+
263.0741	16	C17H10FNO+
263.1106	34	C18H14FN+
264.0819	25	C17H11FNO+
264.1181	36	C18H15FN+
270.0831	14	C20H11F+
271.092	6	C20H12F+
272.0864	58	C19H11FN+
274.1024	157	C19H13FN+
275.1102	32	C19H14FN+
276.0819	41	C18H11FNO+
276.1182	246	C19H15FN+
285.0946	16	C20H12FN+
286.1024	31	C20H13FN+
287.11	30	C20H14FN+
288.1184	45	C20H15FN+
290.097	16	C19H13FNO+
290.1345	17	C20H17FN+
298.1025	14	C21H13FN+
299.1093	4	C21H14FN+
300.1183	22	C21H15FN+
302.1338	28	C21H17FN+
314.1326	5	C22H17FN+
