Mass spectrum: Flufenacet; LC-ESI-QFT; MS2; CE: 60; R=17500; [M+H]+
Name: Flufenacet
Name: N-(4-fluorophenyl)-N-propan-2-yl-2-[[5-(trifluoromethyl)-1,3,4-thiadiazol-2-yl]oxy]acetamide
Formula: C14H13F4N3O2S
Exact mass: 363.0665
SMILES: CC(C)N(C(=O)COC1=NN=C(S1)C(F)(F)F)C1=CC=C(F)C=C1
InChI: InChI=1S/C14H13F4N3O2S/c1-8(2)21(10-5-3-9(15)4-6-10)11(22)7-23-13-20-19-12(24-13)14(16,17)18/h3-6,8H,7H2,1-2H3
Instrument: Q Exactive Orbitrap (Thermo Scientific)
Instrument type: LC-ESI-QFT
Ms type: MS2
Ion mode: POSITIVE
Ionization: ESI
Fragmentation mode: HCD
Collision energy: 60
Resolution: 17500
Column name: Acquity BEH C18 1.7um, 2.1x150mm (Waters)
Retention time: 17.908 min
Base peak: 79.0211
Precursor m/z: 364.0737
Precursor type: [M+H]+
Precursor intensity: 3440947.8125
m/z	relative intensity	assigned
97.0448	146	C6H6F+
109.0449	271	C7H6F+
115.0542	13	C9H7+
123.0241	31	C7H4FO+
124.0558	999	C7H7FN+
125.0397	10	C7H6FO+
128.062	55	C10H8+
129.9991	10	C4H3FN2S+
144.0808	23	C10H10N+
152.0507	328	C8H7FNO+
152.087	105	C9H11FN+
156.9982	9	C9H3NS+
166.9655	11	CHF4NO2S+
175.956	88	C3F4O2S+
176.9602	143	C6F3OS+
