Mass spectrum: Leucomalachite green; LC-ESI-QFT; MS2; CE: 75; R=17500; [M+H]+
Name: Leucomalachite green
Name: 4-[[4-(dimethylamino)phenyl]-phenylmethyl]-N,N-dimethylaniline
Formula: C23H26N2
Exact mass: 330.2096
SMILES: CN(C)C1=CC=C(C=C1)C(C1=CC=CC=C1)C1=CC=C(C=C1)N(C)C
InChI: InChI=1S/C23H26N2/c1-24(2)21-14-10-19(11-15-21)23(18-8-6-5-7-9-18)20-12-16-22(17-13-20)25(3)4/h5-17,23H,1-4H3
Instrument: Q Exactive Orbitrap (Thermo Scientific)
Instrument type: LC-ESI-QFT
Ms type: MS2
Ion mode: POSITIVE
Ionization: ESI
Fragmentation mode: HCD
Collision energy: 75
Resolution: 17500
Column name: Acquity BEH C18 1.7um, 2.1x150mm (Waters)
Retention time: 16.907 min
Base peak: 79.0211
Precursor m/z: 331.2169
Precursor type: [M+H]+
Precursor intensity: 32927457.65625
m/z	relative intensity	assigned
68.0493	1	C4H6N+
79.054	1	C6H7+
91.0542	9	C7H7+
103.0543	2	C8H7+
115.0542	4	C9H7+
117.0573	2	C8H7N+
118.065	6	C8H8N+
120.0807	15	C8H10N+
121.0886	3	C8H11N+
132.0808	3	C9H10N+
134.0964	14	C9H12N+
141.0697	1	C11H9+
152.0387	1	C10H4N2+
152.062	3	C12H8+
153.0698	5	C12H9+
165.0699	65	C13H9+
166.0779	19	C13H10+
167.0729	1	C12H9N+
167.0855	9	C13H11+
170.0963	1	C12H12N+
178.0774	1	C14H10+
179.0729	2	C13H9N+
179.0852	1	C14H11+
180.0807	30	C13H10N+
181.0885	15	C13H11N+
182.0962	2	C13H12N+
183.1041	1	C13H13N+
191.0854	1	C15H11+
192.0805	1	C14H10N+
193.0886	17	C14H11N+
194.0964	186	C14H12N+
195.1042	50	C14H13N+
196.112	44	C14H14N+
197.1199	5	C14H15N+
202.0775	1	C16H10+
207.0915	1	C14H11N2+
207.104	2	C15H13N+
208.112	109	C15H14N+
209.1072	15	C14H13N2+
209.1195	16	C15H15N+
210.1277	65	C15H16N+
215.0857	2	C17H11+
217.1012	1	C17H13+
221.1069	1	C15H13N2+
222.1154	5	C15H14N2+
223.1229	151	C15H15N2+
224.1307	149	C15H16N2+
228.0932	1	C18H12+
237.1389	22	C16H17N2+
238.1463	6	C16H18N2+
239.1541	999	C16H19N2+
241.1011	6	C19H13+
242.1085	2	C19H14+
244.1128	2	C18H14N+
250.0741	2	C20H10+
253.17	1	C17H21N2+
254.0967	1	C19H12N+
255.1041	1	C19H13N+
256.1117	10	C19H14N+
257.1197	7	C19H15N+
258.1279	1	C19H16N+
263.0818	1	C21H11+
270.1277	13	C20H16N+
271.1358	7	C20H17N+
272.1433	29	C20H18N+
275.0692	2	C21H9N+
276.0771	3	C21H10N+
284.1432	4	C21H18N+
285.1367	3	C20H17N2+
286.1596	16	C21H20N+
287.0876	3	C23H11+
288.0951	7	C23H12+
289.0859	1	C22H11N+
290.0927	3	C22H12N+
291.1014	7	C22H13N+
299.1544	24	C21H19N2+
300.1621	17	C21H20N2+
301.1707	2	C21H21N2+
314.175	2	C22H22N2+
315.1858	120	C22H23N2+
