Mass spectrum: Icaridin; LC-ESI-QFT; MS2; CE: 75; R=17500; [M+H]+
Name: Icaridin
Name: butan-2-yl 2-(2-hydroxyethyl)piperidine-1-carboxylate
Formula: C12H23NO3
Exact mass: 229.1678
SMILES: CCC(C)OC(=O)N1CCCCC1CCO
InChI: InChI=1S/C12H23NO3/c1-3-10(2)16-12(15)13-8-5-4-6-11(13)7-9-14/h10-11,14H,3-9H2,1-2H3
Instrument: Q Exactive Orbitrap (Thermo Scientific)
Instrument type: LC-ESI-QFT
Ms type: MS2
Ion mode: POSITIVE
Ionization: ESI
Fragmentation mode: HCD
Collision energy: 75
Resolution: 17500
Column name: Acquity BEH C18 1.7um, 2.1x150mm (Waters)
Retention time: 16.941 min
Base peak: 79.0211
Precursor m/z: 230.1751
Precursor type: [M+H]+
Precursor intensity: 6718632.875
m/z	relative intensity	assigned
55.0543	290	C4H7+
56.0495	127	C3H6N+
57.0699	147	C4H9+
67.0543	999	C5H7+
69.0698	174	C5H9+
70.0651	298	C4H8N+
71.0492	520	C4H7O+
84.0808	728	C5H10N+
93.0699	158	C7H9+
95.0856	666	C7H11+
112.1123	399	C7H14N+
113.0959	118	C7H13O+
128.0706	206	C6H10NO2+
130.1228	697	C7H16NO+
