Mass spectrum: Prednisone; LC-ESI-QFT; MS2; CE: 90; R=17500; [M+H]+
Name: Prednisone
Name: (8S,9S,10R,13S,14S,17R)-17-hydroxy-17-(2-hydroxyacetyl)-10,13-dimethyl-6,7,8,9,12,14,15,16-octahydrocyclopenta[a]phenanthrene-3,11-dione
Formula: C21H26O5
Exact mass: 358.1780
SMILES: C[C@]12CC(=O)[C@H]3[C@@H](CCC4=CC(=O)C=C[C@]34C)[C@@H]1CC[C@]2(O)C(=O)CO
InChI: InChI=1S/C21H26O5/c1-19-7-5-13(23)9-12(19)3-4-14-15-6-8-21(26,17(25)11-22)20(15,2)10-16(24)18(14)19/h5,7,9,14-15,18,22,26H,3-4,6,8,10-11H2,1-2H3/t14-,15-,18+,19-,20-,21-/m0/s1
Instrument: Q Exactive Orbitrap (Thermo Scientific)
Instrument type: LC-ESI-QFT
Ms type: MS2
Ion mode: POSITIVE
Ionization: ESI
Fragmentation mode: HCD
Collision energy: 90
Resolution: 17500
Column name: Acquity BEH C18 1.7um, 2.1x150mm (Waters)
Retention time: 15.437 min
Base peak: 79.0211
Precursor m/z: 359.1853
Precursor type: [M+H]+
Precursor intensity: 5318111.625
m/z	relative intensity	assigned
53.0023	29	C3HO+
53.0386	139	C4H5+
55.0179	73	C3H3O+
55.0543	127	C4H7+
57.0336	20	C3H5O+
65.0386	126	C5H5+
67.0542	262	C5H7+
69.0335	60	C4H5O+
69.0698	20	C5H9+
71.0491	13	C4H7O+
77.0387	31	C6H5+
79.0543	370	C6H7+
81.0336	33	C5H5O+
81.0699	167	C6H9+
83.049	19	C5H7O+
91.0543	999	C7H7+
93.07	190	C7H9+
95.0492	341	C6H7O+
95.0856	104	C7H11+
97.0649	17	C6H9O+
103.0543	103	C8H7+
104.0621	23	C8H8+
105.0699	290	C8H9+
107.0492	122	C7H7O+
107.0856	53	C8H11+
109.0649	57	C7H9O+
115.0543	351	C9H7+
116.0621	113	C9H8+
117.07	192	C9H9+
119.0856	271	C9H11+
121.0648	354	C8H9O+
128.0621	358	C10H8+
129.0699	209	C10H9+
130.0777	74	C10H10+
131.0493	131	C9H7O+
131.0857	105	C10H11+
132.057	220	C9H8O+
133.0651	15	C9H9O+
133.1013	19	C10H13+
135.0805	39	C9H11O+
141.0699	284	C11H9+
142.0778	55	C11H10+
143.0855	61	C11H11+
144.0571	241	C10H8O+
145.0649	319	C10H9O+
145.1013	25	C11H13+
146.0727	124	C10H10O+
147.0805	257	C10H11O+
152.0621	121	C12H8+
153.07	152	C12H9+
154.0779	60	C12H10+
155.0856	68	C12H11+
156.094	15	C12H12+
157.0649	108	C11H9O+
157.1011	9	C12H13+
158.0728	247	C11H10O+
159.0806	158	C11H11O+
160.0889	9	C11H12O+
161.0959	14	C11H13O+
165.07	278	C13H9+
166.0778	78	C13H10+
167.0857	84	C13H11+
168.0572	71	C12H8O+
168.0932	11	C13H12+
169.0649	177	C12H9O+
169.1015	13	C13H13+
170.0728	30	C12H10O+
171.0805	328	C12H11O+
172.0885	22	C12H12O+
173.0962	38	C12H13O+
177.0698	40	C14H9+
178.0778	195	C14H10+
179.0857	296	C14H11+
180.0933	38	C14H12+
181.0649	283	C13H9O+
181.1013	45	C14H13+
182.0727	115	C13H10O+
183.0806	95	C13H11O+
184.0885	36	C13H12O+
185.0965	31	C13H13O+
189.07	86	C15H9+
190.0779	74	C15H10+
191.0855	115	C15H11+
192.0934	47	C15H12+
193.1011	77	C15H13+
194.0728	116	C14H10O+
194.109	13	C15H14+
195.0806	195	C14H11O+
196.0884	71	C14H12O+
197.0963	56	C14H13O+
202.0778	88	C16H10+
203.0857	86	C16H11+
204.0937	39	C16H12+
205.0649	57	C15H9O+
205.1014	68	C16H13+
206.0726	42	C15H10O+
206.1096	9	C16H14+
207.0806	210	C15H11O+
207.1171	15	C16H15+
208.0884	120	C15H12O+
209.0962	90	C15H13O+
210.1045	23	C15H14O+
211.1124	15	C15H15O+
215.0856	96	C17H11+
216.0929	36	C17H12+
217.1013	38	C17H13+
218.0725	46	C16H10O+
219.0805	110	C16H11O+
219.1175	8	C17H15+
220.0886	44	C16H12O+
221.0963	145	C16H13O+
222.1039	85	C16H14O+
223.1121	32	C16H15O+
227.0856	13	C18H11+
228.0938	29	C18H12+
229.1013	45	C18H13+
231.0806	85	C17H11O+
231.1171	9	C18H15+
232.0886	65	C17H12O+
233.0964	74	C17H13O+
234.104	53	C17H14O+
235.1122	17	C17H15O+
238.0993	9	C16H14O2+
244.0888	22	C18H12O+
245.0961	42	C18H13O+
246.1042	11	C18H14O+
247.1124	28	C18H15O+
248.12	12	C18H16O+
249.1273	11	C18H17O+
257.0968	12	C19H13O+
259.111	10	C19H15O+
