Mass spectrum: Clothianidin; LC-ESI-QFT; MS2; CE: 45; R=17500; [M+H]+
Name: Clothianidin
Name: 1-[(2-chloro-1,3-thiazol-5-yl)methyl]-2-methyl-3-nitroguanidine
Formula: C6H8ClN5O2S
Exact mass: 249.0087
SMILES: CN\C(NCC1=CN=C(Cl)S1)=N/[N+]([O-])=O
InChI: InChI=1S/C6H8ClN5O2S/c1-8-6(11-12(13)14)10-3-4-2-9-5(7)15-4/h2H,3H2,1H3,(H2,8,10,11)
Instrument: Q Exactive Orbitrap (Thermo Scientific)
Instrument type: LC-ESI-QFT
Ms type: MS2
Ion mode: POSITIVE
Ionization: ESI
Fragmentation mode: HCD
Collision energy: 45
Resolution: 17500
Column name: Acquity BEH C18 1.7um, 2.1x150mm (Waters)
Retention time: 12.566 min
Base peak: 79.0211
Precursor m/z: 250.016
Precursor type: [M+H]+
Precursor intensity: 1166643.125
m/z	relative intensity	assigned
61.0106	20	C2H5S+
70.995	16	C3H3S+
86.006	22	C3H4NS+
110.0714	253	C5H8N3+
111.0792	29	C5H9N3+
113.0168	435	C4H5N2S+
131.967	999	C4H3ClNS+
142.0434	31	C5H8N3S+
146.9779	38	C4H4ClN2S+
147.9858	39	C4H5ClN2S+
153.0232	19	C5H5N4S+
168.0467	108	C6H8N4S+
169.0544	694	C6H9N4S+
174.9728	27	C5H4ClN2OS+
