Mass spectrum: Mefenamic acid; LC-ESI-QFT; MS2; CE: 60; R=17500; [M+H]+
Name: Mefenamic acid
Name: 2-(2,3-dimethylanilino)benzoic acid
Formula: C15H15NO2
Exact mass: 241.1103
SMILES: CC1=C(C)C(NC2=C(C=CC=C2)C(O)=O)=CC=C1
InChI: InChI=1S/C15H15NO2/c1-10-6-5-9-13(11(10)2)16-14-8-4-3-7-12(14)15(17)18/h3-9,16H,1-2H3,(H,17,18)
Instrument: Q Exactive Orbitrap (Thermo Scientific)
Instrument type: LC-ESI-QFT
Ms type: MS2
Ion mode: POSITIVE
Ionization: ESI
Fragmentation mode: HCD
Collision energy: 60
Resolution: 17500
Column name: Acquity BEH C18 1.7um, 2.1x150mm (Waters)
Retention time: 19.468 min
Base peak: 79.0211
Precursor m/z: 242.1176
Precursor type: [M+H]+
Precursor intensity: 1479778.09375
m/z	relative intensity	assigned
60.0808	18	C3H10N+
65.0386	6	C5H5+
180.0809	52	C13H10N+
181.0891	30	C13H11N+
183.0679	8	C12H9NO+
194.0959	5	C14H12N+
196.0757	7	C13H10NO+
207.0677	3	C14H9NO+
208.0758	66	C14H10NO+
209.0836	941	C14H11NO+
222.0919	27	C15H12NO+
223.0993	18	C15H13NO+
224.107	999	C15H14NO+
