Mass spectrum: 2,2`-(Oxydimethanediyl)bis(2-ethylpropane-1,3-diol); LC-ESI-QFT; MS2; CE: 15; R=17500; [M+H]+
Name: 2,2'-(Oxydimethanediyl)bis(2-ethylpropane-1,3-diol)
Name: Ditrimethylolpropane
Name: 2-[2,2-bis(hydroxymethyl)butoxymethyl]-2-ethylpropane-1,3-diol
Formula: C12H26O5
Exact mass: 250.1780
SMILES: CCC(CO)(CO)COCC(CC)(CO)CO
InChI: InChI=1S/C12H26O5/c1-3-11(5-13,6-14)9-17-10-12(4-2,7-15)8-16/h13-16H,3-10H2,1-2H3
Instrument: Q Exactive Orbitrap (Thermo Scientific)
Instrument type: LC-ESI-QFT
Ms type: MS2
Ion mode: POSITIVE
Ionization: ESI
Fragmentation mode: HCD
Collision energy: 15
Resolution: 17500
Column name: Acquity BEH C18 1.7um, 2.1x150mm (Waters)
Retention time: 13.467 min
Base peak: 79.0211
Precursor m/z: 251.1853
Precursor type: [M+H]+
Precursor intensity: 4212681.625
m/z	relative intensity	assigned
55.0543	5	C4H7+
57.0334	15	C3H5O+
59.0491	8	C3H7O+
69.0699	60	C5H9+
71.0492	3	C4H7O+
71.0855	22	C5H11+
79.054	2	C6H7+
81.0699	133	C6H9+
83.0856	34	C6H11+
85.0648	70	C5H9O+
87.0806	4	C5H11O+
99.0805	493	C6H11O+
101.0962	42	C6H13O+
115.0755	13	C6H11O2+
117.091	472	C6H13O2+
119.1067	27	C6H15O2+
129.0914	6	C7H13O2+
131.1067	44	C7H15O2+
135.1016	517	C6H15O3+
147.1016	25	C7H15O3+
167.143	15	C11H19O+
173.1538	13	C10H21O2+
185.1537	47	C11H21O2+
203.1643	48	C11H23O3+
233.1748	202	C12H25O4+
251.1854	999	C12H27O5+
