Mass spectrum: (4-Aminophenyl)arsonic acid; LC-ESI-QFT; MS2; CE: 30; R=17500; [M+H]+
Name: (4-Aminophenyl)arsonic acid
Name: Arsanilic acid
Formula: C6H8AsNO3
Exact mass: 216.9720
SMILES: NC1=CC=C(C=C1)[As](O)(O)=O
InChI: InChI=1S/C6H8AsNO3/c8-6-3-1-5(2-4-6)7(9,10)11/h1-4H,8H2,(H2,9,10,11)
Instrument: Q Exactive Orbitrap (Thermo Scientific)
Instrument type: LC-ESI-QFT
Ms type: MS2
Ion mode: POSITIVE
Ionization: ESI
Fragmentation mode: HCD
Collision energy: 30
Resolution: 17500
Column name: Acquity BEH C18 1.7um, 2.1x150mm (Waters)
Retention time: 2.514 min
Base peak: 79.0211
Precursor m/z: 217.9793
Precursor type: [M+H]+
Precursor intensity: 5478983.8125
m/z	relative intensity	assigned
65.0385	7	C5H5+
68.0495	5	C4H6N+
79.0178	1	C5H3O+
80.0493	1	C5H6N+
92.0495	33	C6H6N+
93.0573	1	C6H7N+
96.0445	1	C5H6NO+
108.0445	189	C6H6NO+
109.0523	999	C6H7NO+
110.0601	33	C6H8NO+
111.0441	1	C6H7O2+
125.9908	1	CH9AsNO+
129.9856	8	AsH9NO2+
171.9734	2	C5H7AsNO+
181.9584	19	C6H5AsNO+
199.9689	31	C6H7AsNO2+
213.9483	1	C6H5AsNO3+
217.9794	486	C6H9AsNO3+
