Mass spectrum: Besonprodil; LC-ESI-QFT; MS2; CE: 60; R=17500; [M+H]+
Name: Besonprodil
Name: 6-[2-[4-[(4-fluorophenyl)methyl]piperidin-1-yl]ethylsulfinyl]-3H-1,3-benzoxazol-2-one
Formula: C21H23FN2O3S
Exact mass: 402.1413
SMILES: FC1=CC=C(CC2CCN(CCS(=O)C3=CC=C4NC(=O)OC4=C3)CC2)C=C1
InChI: InChI=1S/C21H23FN2O3S/c22-17-3-1-15(2-4-17)13-16-7-9-24(10-8-16)11-12-28(26)18-5-6-19-20(14-18)27-21(25)23-19/h1-6,14,16H,7-13H2,(H,23,25)
Instrument: Q Exactive Orbitrap (Thermo Scientific)
Instrument type: LC-ESI-QFT
Ms type: MS2
Ion mode: POSITIVE
Ionization: ESI
Fragmentation mode: HCD
Collision energy: 60
Resolution: 17500
Column name: Acquity BEH C18 1.7um, 2.1x150mm (Waters)
Retention time: 13.242 min
Base peak: 79.0211
Precursor m/z: 403.1486
Precursor type: [M+H]+
Precursor intensity: 13664055
m/z	relative intensity	assigned
54.0338	4	C3H4N+
54.0463	1	C4H6+
55.0542	14	C4H7+
56.0495	268	C3H6N+
57.0573	7	C3H7N+
58.0651	202	C3H8N+
65.0385	1	C5H5+
67.0542	26	C5H7+
68.0495	109	C4H6N+
69.0573	999	C4H7N+
70.0651	275	C4H8N+
72.0808	19	C4H10N+
79.0541	5	C6H7+
80.0494	3	C5H6N+
81.0699	11	C6H9+
82.0651	134	C5H8N+
83.0291	2	C5H4F+
83.0729	20	C5H9N+
84.0808	295	C5H10N+
92.0497	1	C6H6N+
93.0697	1	C7H9+
94.0651	2	C6H8N+
95.073	7	C6H9N+
96.0808	128	C6H10N+
97.0886	85	C6H11N+
98.0965	4	C6H12N+
100.0756	6	C5H10NO+
103.0542	1	C8H7+
108.0808	8	C7H10N+
109.0448	776	C7H6F+
110.0964	57	C7H12N+
111.1043	35	C7H13N+
112.112	18	C7H14N+
115.0542	8	C9H7+
120.0444	4	C7H6NO+
121.0447	4	C8H6F+
122.006	5	C6H4NS+
123.0604	29	C8H8F+
124.1121	11	C8H14N+
128.0621	15	C10H8+
129.0699	5	C10H9+
133.0447	12	C9H6F+
134.0527	1	C9H7F+
135.0605	160	C9H8F+
136.0394	63	C7H6NO2+
136.0683	22	C9H9F+
137.0054	1	C7H5OS+
143.0853	2	C11H11+
146.0524	2	C10H7F+
147.0605	59	C10H8F+
148.0683	119	C10H9F+
149.0762	64	C10H10F+
150.0713	4	C9H9FN+
152.0164	4	C7H6NOS+
160.0683	2	C11H9F+
161.0761	7	C11H10F+
163.0917	38	C11H12F+
164.0871	5	C10H11FN+
165.9959	8	C7H4NO2S+
175.0919	2	C12H12F+
180.0113	8	C8H6NO2S+
181.9911	6	C7H4NO3S+
191.1099	2	C9H19O2S+
192.1183	151	C12H15FN+
193.0193	2	C9H7NO2S+
193.1264	11	C12H16FN+
194.1339	3	C12H17FN+
206.134	438	C13H17FN+
220.1496	706	C14H19FN+
236.1442	1	C11H24O3S+
238.16	2	C14H21FNO+
