Mass spectrum: Nimesulide; LC-ESI-QFT; MS2; CE: 90; R=17500; [M-H]-
Name: Nimesulide
Name: N-(4-nitro-2-phenoxyphenyl)methanesulfonamide
Formula: C13H12N2O5S
Exact mass: 308.0467
SMILES: CS(=O)(=O)NC1=CC=C(C=C1OC1=CC=CC=C1)[N+]([O-])=O
InChI: InChI=1S/C13H12N2O5S/c1-21(18,19)14-12-8-7-10(15(16)17)9-13(12)20-11-5-3-2-4-6-11/h2-9,14H,1H3
Instrument: Q Exactive Orbitrap (Thermo Scientific)
Instrument type: LC-ESI-QFT
Ms type: MS2
Ion mode: NEGATIVE
Ionization: ESI
Fragmentation mode: HCD
Collision energy: 90
Resolution: 17500
Column name: Acquity BEH C18 1.7um, 2.1x150mm (Waters)
Retention time: 16.701 min
Base peak: 429.0536
Precursor m/z: 307.0394
Precursor type: [M-H]-
Precursor intensity: 29327925.55859
m/z	relative intensity	assigned
63.9625	999	O2S-
65.0032	10	C4HO-
65.9986	3	C3NO-
66.0349	21	C4H4N-
67.019	1	C4H3O-
69.0346	32	C4H5O-
76.0193	26	C5H2N-
78.9859	224	CH3O2S-
80.0142	15	C4H2NO-
91.0189	37	C6H3O-
92.0506	4	C6H6N-
93.0346	18	C6H5O-
94.0298	54	C5H4NO-
95.0139	37	C5H3O2-
97.0296	14	C5H5O2-
116.0506	80	C8H6N-
118.0298	8	C7H4NO-
120.0093	7	C6H2NO2-
121.0171	3	C6H3NO2-
122.0248	535	C6H4NO2-
128.0506	16	C9H6N-
140.0506	42	C10H6N-
142.0662	305	C10H8N-
144.0452	10	C9H6NO-
146.0613	2	C9H8NO-
152.0228	3	C6H4N2O3-
152.0507	4	C11H6N-
153.0306	2	C6H5N2O3-
153.0585	4	C11H7N-
154.066	1	C11H8N-
156.0453	1	C10H6NO-
168.0459	6	C11H6NO-
170.0612	84	C11H8NO-
180.0459	3	C12H6NO-
181.0543	1	C12H7NO-
183.0455	1	C12H7O2-
186.0561	2	C11H8NO2-
196.0404	4	C12H6NO2-
197.0485	14	C12H7NO2-
198.0561	13	C12H8NO2-
227.0465	8	C12H7N2O3-
