Mass spectrum: Corticosterone; LC-ESI-QFT; MS2; CE: 90; R=17500; [M+H]+
Name: Corticosterone
Name: (8S,9S,10R,11S,13S,14S,17S)-11-hydroxy-17-(2-hydroxyacetyl)-10,13-dimethyl-1,2,6,7,8,9,11,12,14,15,16,17-dodecahydrocyclopenta[a]phenanthren-3-one
Formula: C21H30O4
Exact mass: 346.2144
SMILES: C[C@]12C[C@H](O)[C@H]3[C@@H](CCC4=CC(=O)CC[C@]34C)[C@@H]1CC[C@@H]2C(=O)CO
InChI: InChI=1S/C21H30O4/c1-20-8-7-13(23)9-12(20)3-4-14-15-5-6-16(18(25)11-22)21(15,2)10-17(24)19(14)20/h9,14-17,19,22,24H,3-8,10-11H2,1-2H3/t14-,15-,16+,17-,19+,20-,21-/m0/s1
Instrument: Q Exactive Orbitrap (Thermo Scientific)
Instrument type: LC-ESI-QFT
Ms type: MS2
Ion mode: POSITIVE
Ionization: ESI
Fragmentation mode: HCD
Collision energy: 90
Resolution: 17500
Column name: Acquity BEH C18 1.7um, 2.1x150mm (Waters)
Retention time: 16.831 min
Base peak: 79.0211
Precursor m/z: 347.2217
Precursor type: [M+H]+
Precursor intensity: 1394083
m/z	relative intensity	assigned
53.0023	40	C3HO+
53.0386	146	C4H5+
55.0179	124	C3H3O+
55.0542	194	C4H7+
65.0386	87	C5H5+
67.0543	313	C5H7+
69.0334	31	C4H5O+
69.0699	58	C5H9+
77.0386	35	C6H5+
79.0543	591	C6H7+
81.0336	27	C5H5O+
81.07	273	C6H9+
83.0491	135	C5H7O+
91.0543	999	C7H7+
93.0699	258	C7H9+
95.0492	279	C6H7O+
95.0856	174	C7H11+
97.0648	292	C6H9O+
103.0544	103	C8H7+
105.0699	600	C8H9+
107.0491	61	C7H7O+
107.0857	83	C8H11+
109.0649	151	C7H9O+
115.0543	170	C9H7+
116.0622	44	C9H8+
117.0699	185	C9H9+
119.0856	211	C9H11+
121.0648	357	C8H9O+
123.0804	128	C8H11O+
128.0621	202	C10H8+
129.0699	184	C10H9+
130.0777	74	C10H10+
131.0856	154	C10H11+
133.065	29	C9H9O+
133.1016	43	C10H13+
141.07	181	C11H9+
142.0777	166	C11H10+
143.0857	99	C11H11+
144.0936	35	C11H12+
145.0649	28	C10H9O+
145.1013	86	C11H13+
147.0806	46	C10H11O+
148.0884	66	C10H12O+
153.0698	80	C12H9+
154.0777	44	C12H10+
155.0857	108	C12H11+
156.0935	52	C12H12+
157.1013	45	C12H13+
159.0803	19	C11H11O+
159.1172	15	C12H15+
163.1119	20	C11H15O+
165.0703	74	C13H9+
166.0777	23	C13H10+
167.0858	54	C13H11+
169.1014	52	C13H13+
171.1167	21	C13H15+
179.0858	32	C14H11+
180.0935	25	C14H12+
181.1012	30	C14H13+
193.1013	28	C15H13+
205.1016	21	C16H13+
