Mass spectrum: Ketoconazole; LC-ESI-QFT; MS2; CE: 90; R=17500; [M+H]+
Name: Ketoconazole
Name: Xolegel
Name: 1-[4-[4-[[(2R,4S)-2-(2,4-dichlorophenyl)-2-(imidazol-1-ylmethyl)-1,3-dioxolan-4-yl]methoxy]phenyl]piperazin-1-yl]ethanone
Formula: C26H28Cl2N4O4
Exact mass: 530.1488
SMILES: CC(=O)N1CCN(CC1)C1=CC=C(OC[C@H]2CO[C@@](CN3C=CN=C3)(O2)C2=CC=C(Cl)C=C2Cl)C=C1
InChI: InChI=1S/C26H28Cl2N4O4/c1-19(33)31-10-12-32(13-11-31)21-3-5-22(6-4-21)34-15-23-16-35-26(36-23,17-30-9-8-29-18-30)24-7-2-20(27)14-25(24)28/h2-9,14,18,23H,10-13,15-17H2,1H3/t23-,26-/m0/s1
Instrument: Q Exactive Orbitrap (Thermo Scientific)
Instrument type: LC-ESI-QFT
Ms type: MS2
Ion mode: POSITIVE
Ionization: ESI
Fragmentation mode: HCD
Collision energy: 90
Resolution: 17500
Column name: Acquity BEH C18 1.7um, 2.1x150mm (Waters)
Retention time: 15.405 min
Base peak: 79.0211
Precursor m/z: 531.156
Precursor type: [M+H]+
Precursor intensity: 13174821.75
m/z	relative intensity	assigned
53.0022	4	C3HO+
53.0386	11	C4H5+
54.0338	89	C3H4N+
55.0178	9	C3H3O+
55.0416	13	C3H5N+
55.0543	2	C4H7+
56.0495	81	C3H6N+
57.0573	3	C3H7N+
58.0651	5	C3H8N+
65.0385	26	C5H5+
68.0368	34	C3H4N2+
68.0494	8	C4H6N+
69.0447	101	C3H5N2+
70.0651	146	C4H8N+
71.0603	38	C3H7N2+
74.0962	1	C4H12N+
77.0385	4	C6H5+
79.0542	63	C6H7+
80.0131	2	C4H2NO+
80.0495	12	C5H6N+
81.0447	999	C4H5N2+
82.0525	576	C4H6N2+
83.0603	18	C4H7N2+
84.9839	2	C4H2Cl+
86.06	17	C4H8NO+
89.0385	7	C7H5+
91.0542	50	C7H7+
92.0495	3	C6H6N+
93.0336	1	C6H5O+
93.07	5	C7H9+
94.0414	25	C6H6O+
94.0651	8	C6H8N+
95.0491	39	C6H7O+
95.0603	6	C5H7N2+
96.0444	4	C5H6NO+
98.9996	18	C5H4Cl+
103.0542	51	C8H7+
104.0494	10	C7H6N+
104.062	4	C8H8+
105.0447	14	C6H5N2+
105.0573	3	C7H7N+
105.0698	15	C8H9+
106.0651	28	C7H8N+
107.0491	39	C7H7O+
107.0603	8	C6H7N2+
108.0445	5	C6H6NO+
108.0569	1	C7H8O+
108.081	1	C7H10N+
109.0397	23	C5H5N2O+
109.0523	3	C6H7NO+
109.0761	3	C6H9N2+
111.044	17	C6H7O2+
111.0552	2	C5H7N2O+
112.0757	71	C6H10NO+
114.0424	4	C4H6N2O2+
115.0542	71	C9H7+
116.062	10	C9H8+
117.0572	30	C8H7N+
117.0698	21	C9H9+
118.0651	48	C8H8N+
119.0491	4	C8H7O+
119.0729	10	C8H9N+
119.0856	3	C9H11+
120.0444	248	C7H6NO+
120.0808	41	C8H10N+
121.0396	26	C6H5N2O+
121.0521	11	C7H7NO+
121.0646	10	C8H9O+
121.0759	2	C7H9N2+
122.06	114	C7H8NO+
122.9996	111	C7H4Cl+
124.0075	9	C7H5Cl+
125.0153	13	C7H6Cl+
125.9865	2	C6H3ClO+
126.9943	11	C6H4ClO+
127.0502	144	C5H7N2O2+
128.0619	18	C10H8+
129.0101	2	C6H6ClO+
129.0698	11	C10H9+
130.0651	68	C9H8N+
131.0491	24	C9H7O+
131.0604	7	C8H7N2+
131.0729	25	C9H9N+
132.0445	2	C8H6NO+
132.0569	16	C9H8O+
132.0807	20	C9H10N+
133.0522	13	C8H7NO+
133.0649	2	C9H9O+
134.06	76	C8H8NO+
135.0678	20	C8H9NO+
136.0074	23	C8H5Cl+
136.0757	66	C8H10NO+
137.0151	5	C8H6Cl+
138.023	1	C8H7Cl+
139.0055	5	C6H4ClN2+
139.0307	4	C8H8Cl+
141.0103	1	C7H6ClO+
142.0653	3	C10H8N+
143.0729	15	C10H9N+
144.0563	2	C10H8O+
144.0809	28	C10H10N+
145.005	2	C6H6ClO2+
145.0647	8	C10H9O+
145.0885	6	C10H11N+
145.9684	7	C6H4Cl2+
146.06	22	C9H8NO+
146.0964	25	C10H12N+
146.9761	2	C6H5Cl2+
147.0676	4	C9H9NO+
148.0756	33	C9H10NO+
149.0153	28	C9H6Cl+
150.0231	36	C9H7Cl+
151.0309	5	C9H8Cl+
154.0649	4	C11H8N+
154.9895	3	C7H4ClO2+
155.0604	8	C10H7N2+
155.0729	2	C11H9N+
156.0683	4	C10H8N2+
156.0806	10	C11H10N+
157.0887	1	C11H11N+
157.9685	16	C7H4Cl2+
158.0599	11	C10H8NO+
158.0963	7	C11H12N+
158.9762	231	C7H5Cl2+
159.0678	15	C10H9NO+
160.0756	16	C10H10NO+
161.0707	1	C2H19Cl2O3+
161.0833	1	C10H11NO+
161.9636	2	C6H4Cl2O+
162.0913	3	C10H12NO+
163.0307	1	C10H8Cl+
163.0864	3	C9H11N2O+
165.0103	1	C9H6ClO+
167.0256	4	C9H8ClO+
167.0814	22	C8H11N2O2+
169.9684	137	C8H4Cl2+
170.9761	21	C8H5Cl2+
171.0679	1	C11H9NO+
172.0757	7	C11H10NO+
172.9556	77	C7H3Cl2O+
174.0913	24	C11H12NO+
174.9709	4	C7H5Cl2O+
177.0339	2	C10H8ClN+
177.1025	4	C10H13N2O+
178.0862	1	C10H12NO2+
182.9763	3	C9H5Cl2+
184.0759	1	C12H10NO+
184.9919	3	C9H7Cl2+
185.9633	16	C8H4Cl2O+
186.9715	3	C8H5Cl2O+
189.9582	4	C7H4Cl2O2+
191.0378	1	C10H8ClN2+
192.1013	5	C11H14NO2+
203.037	23	C11H8ClN2+
204.0212	2	C11H7ClNO+
205.029	6	C11H8ClNO+
219.0319	2	C11H8ClN2O+
239.0134	2	C14H6ClNO+
252.9927	6	C14H4ClNO2+
267.0087	4	C12H9Cl2N2O+
