Mass spectrum: Reserpine; LC-ESI-QFT; MS2; CE: 90; R=17500; [M+H]+
Name: Reserpine
Name: methyl (1R,15S,17R,18R,19S,20S)-6,18-dimethoxy-17-(3,4,5-trimethoxybenzoyl)oxy-1,3,11,12,14,15,16,17,18,19,20,21-dodecahydroyohimban-19-carboxylate
Formula: C33H40N2O9
Exact mass: 608.2734
SMILES: CO[C@H]1[C@@H](C[C@@H]2CN3CCC4=C(NC5=C4C=CC(OC)=C5)[C@H]3C[C@@H]2[C@@H]1C(=O)OC)OC(=O)C1=CC(OC)=C(OC)C(OC)=C1
InChI: InChI=1S/C33H40N2O9/c1-38-19-7-8-20-21-9-10-35-16-18-13-27(44-32(36)17-11-25(39-2)30(41-4)26(12-17)40-3)31(42-5)28(33(37)43-6)22(18)15-24(35)29(21)34-23(20)14-19/h7-8,11-12,14,18,22,24,27-28,31,34H,9-10,13,15-16H2,1-6H3/t18-,22+,24-,27-,28+,31+/m1/s1
Instrument: Q Exactive Orbitrap (Thermo Scientific)
Instrument type: LC-ESI-QFT
Ms type: MS2
Ion mode: POSITIVE
Ionization: ESI
Fragmentation mode: HCD
Collision energy: 90
Resolution: 17500
Column name: Acquity BEH C18 1.7um, 2.1x150mm (Waters)
Retention time: 15.330 min
Base peak: 79.0211
Precursor m/z: 609.2807
Precursor type: [M+H]+
Precursor intensity: 2713416.5
m/z	relative intensity	assigned
51.023	13	C4H3+
53.0387	252	C4H5+
55.0178	20	C3H3O+
55.0543	13	C4H7+
56.0495	11	C3H6N+
65.0386	84	C5H5+
66.0464	67	C5H6+
67.0542	65	C5H7+
68.0256	10	C4H4O+
68.0495	7	C4H6N+
68.997	7	C3HO2+
69.0334	8	C4H5O+
70.0651	9	C4H8N+
71.0491	15	C4H7O+
75.0442	9	C3H7O2+
77.0384	34	C6H5+
78.0464	59	C6H6+
79.0542	180	C6H7+
80.0495	38	C5H6N+
81.0335	417	C5H5O+
81.0699	52	C6H9+
82.0413	11	C5H6O+
83.0492	8	C5H7O+
85.0284	7	C4H5O2+
90.0465	11	C7H6+
91.0543	222	C7H7+
92.0257	39	C6H4O+
92.0495	12	C6H6N+
93.0336	23	C6H5O+
93.0574	35	C6H7N+
93.0699	9	C7H9+
94.0414	77	C6H6O+
94.0652	34	C6H8N+
95.0492	245	C6H7O+
96.057	140	C6H8O+
99.0439	9	C5H7O2+
103.0543	58	C8H7+
104.0494	12	C7H6N+
104.0622	25	C8H8+
105.0337	29	C7H5O+
105.0448	68	C6H5N2+
105.0699	30	C8H9+
106.0415	13	C7H6O+
106.0651	29	C7H8N+
107.0129	55	C6H3O2+
107.0493	26	C7H7O+
107.0729	13	C7H9N+
108.057	61	C7H8O+
108.0806	6	C7H10N+
109.0285	94	C6H5O2+
109.0649	63	C7H9O+
111.0442	31	C6H7O2+
111.0804	8	C7H11O+
113.0598	13	C6H9O2+
115.0543	194	C9H7+
116.0621	50	C9H8+
117.0574	145	C8H7N+
117.0701	40	C9H9+
118.0414	8	C8H6O+
118.0651	48	C8H8N+
119.0492	14	C8H7O+
119.0731	6	C8H9N+
119.086	5	C9H11+
120.0807	16	C8H10N+
121.0285	111	C7H5O2+
121.0647	28	C8H9O+
122.0363	114	C7H6O2+
123.0441	15	C7H7O2+
124.052	95	C7H8O2+
125.0599	4	C7H9O2+
128.0622	26	C10H8+
129.0698	21	C10H9+
130.0652	562	C9H8N+
131.073	999	C9H9N+
132.0446	45	C8H6NO+
132.0496	6	CH10NO6+
132.0514	4	CH10NO6+
132.0567	32	C9H8O+
132.0808	39	C9H10N+
133.0523	18	C8H7NO+
133.065	14	C9H9O+
134.0601	17	C8H8NO+
135.0444	6	C8H7O2+
135.0808	8	C9H11O+
136.0757	10	C8H10NO+
137.0234	170	C7H5O3+
139.0755	47	C8H11O2+
142.0653	67	C10H8N+
143.0731	455	C10H9N+
144.0573	23	C10H8O+
144.0809	106	C10H10N+
145.0523	52	C9H7NO+
145.065	14	C10H9O+
145.0887	28	C10H11N+
146.0601	89	C9H8NO+
146.0962	9	C10H12N+
147.0681	34	C9H9NO+
147.0805	32	C10H11O+
148.0758	22	C9H10NO+
151.039	164	C8H7O3+
152.0469	166	C8H8O3+
154.0653	38	C11H8N+
155.0606	12	C10H7N2+
155.073	39	C11H9N+
156.0809	34	C11H10N+
157.0887	32	C11H11N+
158.0601	117	C10H8NO+
158.072	6	C11H10O+
159.068	540	C10H9NO+
160.0758	83	C10H10NO+
161.0838	11	C10H11NO+
168.081	31	C12H10N+
169.052	14	C11H7NO+
169.0887	10	C12H11N+
170.0601	72	C11H8NO+
171.0681	11	C11H9NO+
172.0757	48	C11H10NO+
173.0836	86	C11H11NO+
174.0915	204	C11H12NO+
180.0807	36	C13H10N+
181.0882	25	C13H11N+
182.0606	24	C12H8NO+
182.0969	9	C13H12N+
183.0681	24	C12H9NO+
184.0627	7	C11H8N2O+
184.0761	35	C12H10NO+
184.0997	10	C12H12N2+
185.071	6	C11H9N2O+
186.0914	19	C12H12NO+
192.0808	29	C14H10N+
193.0887	24	C14H11N+
194.0968	22	C14H12N+
195.0662	33	C10H11O4+
196.076	22	C13H10NO+
197.0835	15	C13H11NO+
198.0917	17	C13H12NO+
199.087	23	C12H11N2O+
204.081	55	C15H10N+
205.0885	30	C15H11N+
206.0965	21	C15H12N+
207.0918	19	C14H11N2+
207.1033	8	C15H13N+
208.0759	29	C14H10NO+
209.0839	9	C14H11NO+
210.0914	27	C14H12NO+
211.0867	7	C13H11N2O+
212.0948	9	C13H12N2O+
217.0885	30	C16H11N+
218.0963	33	C16H12N+
219.1048	13	C16H13N+
220.076	17	C15H10NO+
221.0838	14	C15H11NO+
222.0917	26	C15H12NO+
222.1151	6	C15H14N2+
223.0875	10	C14H11N2O+
223.0988	10	C15H13NO+
224.1071	11	C15H14NO+
225.1022	6	C14H13N2O+
230.0966	28	C17H12N+
231.104	17	C17H13N+
232.0758	16	C16H10NO+
232.1123	13	C17H14N+
233.0837	15	C16H11NO+
233.1203	9	C17H15N+
234.0909	27	C16H12NO+
235.087	8	C15H11N2O+
235.0993	7	C16H13NO+
236.0944	23	C15H12N2O+
236.1064	8	C16H14NO+
237.1018	6	C15H13N2O+
239.119	7	C15H15N2O+
244.1121	7	C18H14N+
246.0912	39	C17H12NO+
247.0993	14	C17H13NO+
248.1072	12	C17H14NO+
249.1024	21	C16H13N2O+
250.1102	12	C16H14N2O+
251.1179	20	C16H15N2O+
260.1079	15	C18H14NO+
262.1235	10	C18H16NO+
263.1179	8	C17H15N2O+
