Mass spectrum: Besonprodil; LC-ESI-QFT; MS2; CE: 30; R=17500; [M+H]+
Name: Besonprodil
Name: 6-[2-[4-[(4-fluorophenyl)methyl]piperidin-1-yl]ethylsulfinyl]-3H-1,3-benzoxazol-2-one
Formula: C21H23FN2O3S
Exact mass: 402.1413
SMILES: FC1=CC=C(CC2CCN(CCS(=O)C3=CC=C4NC(=O)OC4=C3)CC2)C=C1
InChI: InChI=1S/C21H23FN2O3S/c22-17-3-1-15(2-4-17)13-16-7-9-24(10-8-16)11-12-28(26)18-5-6-19-20(14-18)27-21(25)23-19/h1-6,14,16H,7-13H2,(H,23,25)
Instrument: Q Exactive Orbitrap (Thermo Scientific)
Instrument type: LC-ESI-QFT
Ms type: MS2
Ion mode: POSITIVE
Ionization: ESI
Fragmentation mode: HCD
Collision energy: 30
Resolution: 17500
Column name: Acquity BEH C18 1.7um, 2.1x150mm (Waters)
Retention time: 13.242 min
Base peak: 79.0211
Precursor m/z: 403.1486
Precursor type: [M+H]+
Precursor intensity: 13098847.5
m/z	relative intensity	assigned
56.0497	1	C3H6N+
58.0651	2	C3H8N+
68.0495	1	C4H6N+
69.0573	92	C4H7N+
82.0651	8	C5H8N+
84.0808	3	C5H10N+
96.0809	1	C6H10N+
97.0886	42	C6H11N+
109.0452	5	C7H6F+
112.112	11	C7H14N+
136.0393	5	C7H6NO2+
148.0683	2	C10H9F+
165.9958	3	C7H4NO2S+
180.0113	39	C8H6NO2S+
192.1182	6	C12H15FN+
193.1262	216	C12H16FN+
194.1338	1	C12H17FN+
206.134	253	C13H17FN+
220.1495	999	C14H19FN+
222.1284	3	C10H22O3S+
236.1443	8	C14H19FNO+
238.1601	7	C14H21FNO+
403.1487	30	C21H24FN2O3S+
