Mass spectrum: SSR 240612; LC-ESI-QFT; MS2; CE: 75; R=17500; [M+H]+
Name: SSR 240612
Name: Ssr-240612 free base
Name: (2R)-2-[[(3R)-3-(1,3-benzodioxol-5-yl)-3-[(6-methoxynaphthalen-2-yl)sulfonylamino]propanoyl]amino]-3-[4-[[(2S,6R)-2,6-dimethylpiperidin-1-yl]methyl]phenyl]-N-methyl-N-propan-2-ylpropanamide
Formula: C42H52N4O7S
Exact mass: 756.3557
SMILES: COc1ccc2cc(S(=O)(=O)N[C@H](CC(=O)N[C@H](Cc3ccc(CN4[C@@H](C)CCC[C@H]4C)cc3)C(=O)N(C)C(C)C)c3ccc4c(c3)OCO4)ccc2c1
InChI: InChI=1S/C42H52N4O7S/c1-27(2)45(5)42(48)38(20-30-10-12-31(13-11-30)25-46-28(3)8-7-9-29(46)4)43-41(47)24-37(34-16-19-39-40(23-34)53-26-52-39)44-54(49,50)36-18-15-32-21-35(51-6)17-14-33(32)22-36/h10-19,21-23,27-29,37-38,44H,7-9,20,24-26H2,1-6H3,(H,43,47)/t28-,29+,37-,38-/m1/s1
Instrument: Q Exactive Orbitrap (Thermo Scientific)
Instrument type: LC-ESI-QFT
Ms type: MS2
Ion mode: POSITIVE
Ionization: ESI
Fragmentation mode: HCD
Collision energy: 75
Resolution: 17500
Column name: Acquity BEH C18 1.7um, 2.1x150mm (Waters)
Retention time: 15.712 min
Base peak: 79.0211
Precursor m/z: 757.3629
Precursor type: [M+H]+
Precursor intensity: 7826533.75
m/z	relative intensity	assigned
53.0022	2	C3HO+
53.0386	1	C4H5+
55.0178	1	C3H3O+
55.0542	4	C4H7+
56.0131	2	C2H2NO+
56.0494	9	C3H6N+
57.0573	14	C3H7N+
58.0287	18	C2H4NO+
58.0651	3	C3H8N+
59.0604	1	C2H7N2+
63.0227	3	C5H3+
65.0385	7	C5H5+
70.0651	26	C4H8N+
71.073	1	C4H9N+
72.0807	999	C4H10N+
74.0963	35	C4H12N+
77.0385	1	C6H5+
78.0462	1	C6H6+
79.0542	11	C6H7+
83.0365	6	C4H5NO+
84.0808	1	C5H10N+
85.0396	1	C3H5N2O+
87.0552	6	C3H7N2O+
89.0385	86	C7H5+
90.0464	1	C7H6+
91.0542	173	C7H7+
93.0335	1	C6H5O+
95.049	8	C6H7O+
95.0854	2	C7H11+
102.0465	2	C8H6+
103.0542	33	C8H7+
104.0497	1	C7H6N+
104.0621	1	C8H8+
105.0447	3	C6H5N2+
105.0699	59	C8H9+
106.065	1	C7H8N+
110.06	4	C6H8NO+
110.0965	3	C7H12N+
111.0442	2	C6H7O2+
112.112	26	C7H14N+
113.0347	1	C4H5N2O2+
115.0542	315	C9H7+
116.062	25	C9H8+
117.0336	63	C8H5O+
117.0698	971	C9H9+
118.0411	3	C8H6O+
119.0491	17	C8H7O+
119.0853	2	C9H11+
123.044	3	C7H7O2+
124.0757	34	C7H10NO+
125.0835	28	C7H11NO+
128.0493	1	C9H6N+
128.062	9	C10H8+
129.0697	13	C10H9+
130.0651	29	C9H8N+
131.0492	21	C9H7O+
131.0728	12	C9H9N+
131.0855	6	C10H11+
132.0807	39	C9H10N+
133.0647	19	C9H9O+
135.044	51	C8H7O2+
137.0598	2	C8H9O2+
141.0697	2	C11H9+
142.0413	34	C10H6O+
142.0652	2	C10H8N+
142.0776	4	C11H10+
143.0492	12	C10H7O+
143.0856	2	C11H11+
144.0569	12	C10H8O+
144.0806	4	C10H10N+
144.0934	3	C11H12+
145.0284	96	C9H5O2+
145.0647	41	C10H9O+
146.0964	90	C10H12N+
147.044	44	C9H7O2+
148.0392	1	C8H6NO2+
149.0596	12	C9H9O2+
150.0549	15	C8H8NO2+
152.0103	2	C7H4O4+
155.0605	5	C10H7N2+
157.0648	16	C11H9O+
157.1009	1	C12H13+
158.06	108	C10H8NO+
159.0441	1	C10H7O2+
159.0678	6	C10H9NO+
160.0757	3	C10H10NO+
161.0596	13	C10H9O2+
163.0389	62	C9H7O3+
165.0697	1	C13H9+
171.0803	4	C12H11O+
173.0597	29	C11H9O2+
173.0834	3	C11H11NO+
174.0914	18	C11H12NO+
175.0389	58	C10H7O3+
175.0753	47	C11H11O2+
177.0545	11	C10H9O3+
178.078	3	C14H10+
179.0854	3	C14H11+
184.0757	1	C12H10NO+
185.0709	52	C11H9N2O+
188.1433	40	C13H18N+
189.0699	6	C15H9+
191.0854	6	C15H11+
193.101	1	C15H13+
202.0774	2	C16H10+
203.0854	4	C16H11+
205.1008	2	C8H17N2O2S+
217.0647	1	C16H9O+
218.0724	1	C16H10O+
219.0803	3	C16H11O+
237.0912	3	C16H13O2+
247.0751	4	C17H11O2+
248.0833	1	C17H12O2+
249.0911	4	C17H13O2+
261.0913	2	C18H13O2+
263.0934	1	C9H17N3O4S+
