Mass spectrum: Triamterene; LC-ESI-QFT; MS2; CE: 60; R=17500; [M+H]+
Name: Triamterene
Name: 6-phenylpteridine-2,4,7-triamine
Formula: C12H11N7
Exact mass: 253.1076
SMILES: NC1=NC(N)=C2N=C(C(N)=NC2=N1)C1=CC=CC=C1
InChI: InChI=1S/C12H11N7/c13-9-7(6-4-2-1-3-5-6)16-8-10(14)18-12(15)19-11(8)17-9/h1-5H,(H6,13,14,15,17,18,19)
Instrument: Q Exactive Orbitrap (Thermo Scientific)
Instrument type: LC-ESI-QFT
Ms type: MS2
Ion mode: POSITIVE
Ionization: ESI
Fragmentation mode: HCD
Collision energy: 60
Resolution: 17500
Column name: Acquity BEH C18 1.7um, 2.1x150mm (Waters)
Retention time: 11.875 min
Base peak: 79.0211
Precursor m/z: 254.1149
Precursor type: [M+H]+
Precursor intensity: 27870406.65625
m/z	relative intensity	assigned
67.029	1	C3H3N2+
82.0399	2	C3H4N3+
92.0243	9	C4H2N3+
104.0495	137	C7H6N+
107.0351	2	C4H3N4+
116.0494	7	C8H6N+
131.0605	1	C8H7N2+
134.0461	6	C5H4N5+
141.0448	3	C9H5N2+
142.0526	3	C9H6N2+
143.0604	47	C9H7N2+
158.0713	2	C9H8N3+
161.071	6	C7H7N5+
168.0556	59	C10H6N3+
170.0714	1	C10H8N3+
176.0679	1	C6H6N7+
183.0665	9	C10H7N4+
185.0823	16	C10H9N4+
186.0662	3	C8H6N6+
193.0514	2	C11H5N4+
195.0666	139	C11H7N4+
210.0775	66	C11H8N5+
212.0931	87	C11H10N5+
213.0772	19	C9H7N7+
220.0618	13	C12H6N5+
227.104	37	C11H11N6+
237.0883	999	C12H9N6+
239.0909	1	C11H9N7+
252.0998	4	C12H10N7+
254.1149	665	C12H12N7+
