Mass spectrum: Dinitramine; LC-ESI-QFT; MS2; CE: 90; R=17500; [M-H]-
Name: Dinitramine
Formula: C11H13F3N4O4
Exact mass: 322.0889
SMILES: CCN(CC)C1=C(C=C(C(N)=C1[N+]([O-])=O)C(F)(F)F)[N+]([O-])=O
InChI: InChI=1S/C11H13F3N4O4/c1-3-16(4-2)9-7(17(19)20)5-6(11(12,13)14)8(15)10(9)18(21)22/h5H,3-4,15H2,1-2H3
Instrument: Q Exactive Orbitrap (Thermo Scientific)
Instrument type: LC-ESI-QFT
Ms type: MS2
Ion mode: NEGATIVE
Ionization: ESI
Fragmentation mode: HCD
Collision energy: 90
Resolution: 17500
Column name: Acquity BEH C18 1.7um, 2.1x150mm (Waters)
Retention time: 18.942 min
Base peak: 321.0815
Precursor m/z: 321.0816
Precursor type: [M-H]-
Precursor intensity: 20741742.01074
m/z	relative intensity	assigned
50.0035	124	C3N-
57.9935	18	CNO2-
59.0138	42	C2H3O2-
64.0067	101	C3N2-
64.0193	41	C4H2N-
65.0145	570	C3HN2-
65.9985	999	C3NO-
68.9958	83	CF3-
70.9939	31	C3FO-
74.0036	350	C5N-
76.0005	13	C2F2N-
76.0193	22	C5H2N-
80.0016	17	C3N2O-
81.002	59	C4FN-
82.01	16	C4HFN-
86.0036	41	C6N-
87.0115	30	C6HN-
88.0005	701	C3F2N-
88.0067	489	C5N2-
88.0192	113	C6H2N-
89.0145	413	C5HN2-
89.9985	192	C5NO-
90.0098	119	C4N3-
90.035	43	C6H4N-
91.0301	24	C5H3N2-
92.0254	10	C4H2N3-
92.9957	59	C3F3-
93.0097	14	C4HN2O-
94.0098	26	C5HFN-
94.994	14	C5FO-
95.0051	51	C4FN2-
98.0036	28	C7N-
100.0005	107	C4F2N-
100.0067	21	C6N2-
100.0194	15	C7H2N-
101.0145	110	C6HN2-
102.0098	27	C5N3-
103.9953	29	C3F2NO-
104.0017	13	C5N2O-
106.0099	33	C6HFN-
106.041	11	C5H4N3-
107.005	191	C5FN2-
108.0065	9	C3HF3N-
108.0254	16	C6H3FN-
108.9906	46	C3F3O-
108.9969	59	C5FNO-
109.0209	18	C5H2FN2-
110.0048	13	C5HFNO-
111	31	C4FN2O-
112.0005	386	C5F2N-
112.0067	155	C7N2-
113.0145	128	C7HN2-
114.0097	383	C6N3-
115.0176	20	C6HN3-
115.0301	143	C7H3N2-
116.0143	9	C7H2NO-
116.0254	102	C6H2N3-
116.9958	10	C5F3-
117.0094	25	C6HN2O-
117.0208	44	C5HN4-
117.0459	18	C7H5N2-
119.005	99	C6FN2-
119.0248	27	C6H3N2O-
120.0067	10	C4HF3N-
121.0208	16	C6H2FN2-
124.0005	105	C6F2N-
125.0145	25	C8HN2-
126.0036	36	C5F2N2-
126.0097	49	C7N3-
126.0158	10	CHF3N4-
127.0176	100	C7HN3-
127.03	29	C8H3N2-
128.0014	11	C7N2O-
128.0255	29	C7H2N3-
129.0335	14	C7H3N3-
129.0456	10	C8H5N2-
130.0172	14	C7H2N2O-
130.0287	22	C6H2N4-
130.0411	43	C7H4N3-
130.9989	279	C5F3N-
131.0051	105	C7FN2-
131.0124	14	C6HN3O-
131.0361	57	C6H3N4-
132.0067	18	C5HF3N-
132.0203	9	C6H2N3O-
133.0021	43	C4F3N2-
133.0207	80	C7H2FN2-
134.0048	13	C7HFNO-
134.0161	153	C6HFN3-
135	33	C6FN2O-
135.0364	20	C7H4FN2-
136.0012	30	C4HF3NO-
136.0201	51	C2H2F2N4O-
137.0156	16	C6H2FN2O-
138.0098	123	C8N3-
139.0114	94	C6HF2N2-
139.0173	16	C8HN3-
139.0301	25	C9H3N2-
139.9954	10	C6F2NO-
140.0253	144	C8H2N3-
141.0207	37	C7HN4-
142.0412	50	C8H4N3-
143.0052	11	C8FN2-
143.025	30	C8H3N2O-
144.0065	67	C6HF3N-
144.0204	34	C7H2N3O-
145.0021	20	C5F3N2-
145.0082	21	C7FN3-
145.0209	15	C8H2FN2-
146.0097	29	C5HF3N2-
146.016	38	C7HFN3-
146.029	19	C8H3FN2-
146.9939	22	C5F3NO-
147.0238	61	C7H2FN3-
148.0078	30	C7HFN2O-
150.0035	27	C7F2N2-
151.0114	61	C7HF2N2-
151.9953	37	C7F2NO-
152.0129	23	C8N4-
152.0256	18	C9H2N3-
153.0331	25	C9H3N3-
154.0287	47	C8H2N4-
154.0413	33	C9H4N3-
154.9988	25	C7F3N-
155.0061	14	C6HF2N2O-
155.0126	53	C8HN3O-
155.0363	54	C8H3N4-
157.0018	419	C6F3N2-
158.0098	16	C6HF3N2-
158.016	268	C8HFN3-
159.0111	30	C7FN4-
159.0176	44	C6H2F3N2-
159.0239	14	C8H2FN3-
159.0362	24	C9H4FN2-
160.0015	47	C6HF3NO-
160.0315	71	C8H3FN3-
161.0154	45	C8H2FN2O-
161.04	10	C8H4FN3-
162.0109	20	C7HFN3O-
162.0177	21	C6H3F3NO-
164.0067	48	C7F2N3-
165.0205	14	C9HN4-
166.0224	14	C7H2F2N3-
167.0067	15	C7HF2N2O-
168.0205	22	C9H2N3O-
170.0093	12	C7HF3N2-
171.0311	9	C8H3N4O-
172.0016	14	C7HF3NO-
172.0194	11	C8HFN4-
172.0317	29	C9H3FN3-
173.0028	13	C8FN3O-
173.0396	77	C9H4FN3-
174.0044	33	C6HF3N2O-
174.0473	64	C9H5FN3-
175.0188	47	C8H2FN3O-
175.031	11	C9H4FN2O-
178.0222	67	C8H2F2N3-
179.0299	11	C2H6F3N2O4-
183.0177	15	C8H2F3N2-
184.013	121	C7HF3N3-
186.0183	22	C8H2N4O2-
187.0121	18	C7H2F3N2O-
188.0268	27	C9H3FN3O-
188.083	24	C10H10N3O-
191.0303	36	C9H3F2N3-
192.0381	47	C9H4F2N3-
198.029	25	C8H3F3N3-
200.02	11	C8H3F3N2O-
204.0028	17	C11H2F2O2-
205.0171	14	C8H2FN4O2-
205.0293	39	C6H5F2N3O3-
210.0284	16	C9H3F3N3-
211.024	9	C8H2F3N4-
212.0441	17	C9H5F3N3-
215.0313	16	C8H4F3N3O-
217.0166	13	C9H2FN4O2-
223.0198	21	C9H3F2N3O2-
224.0305	11	C8H7F3O4-
228.0388	10	C9H5F3N3O-
241.0344	21	C9H4F3N4O-
256.0213	10	C9H3F3N4O2-
