Mass spectrum: Azathioprine; LC-ESI-QFT; MS2; CE: 45; R=17500; [M+H]+
Name: Azathioprine
Name: 6-(3-methyl-5-nitroimidazol-4-yl)sulfanyl-7H-purine
Formula: C9H7N7O2S
Exact mass: 277.0382
SMILES: CN1C=NC(=C1SC1=NC=NC2=C1NC=N2)[N+]([O-])=O
InChI: InChI=1S/C9H7N7O2S/c1-15-4-14-7(16(17)18)9(15)19-8-5-6(11-2-10-5)12-3-13-8/h2-4H,1H3,(H,10,11,12,13)
Instrument: Q Exactive Orbitrap (Thermo Scientific)
Instrument type: LC-ESI-QFT
Ms type: MS2
Ion mode: POSITIVE
Ionization: ESI
Fragmentation mode: HCD
Collision energy: 45
Resolution: 17500
Column name: Acquity BEH C18 1.7um, 2.1x150mm (Waters)
Retention time: 10.727 min
Base peak: 79.0212
Precursor m/z: 278.0455
Precursor type: [M+H]+
Precursor intensity: 5232611
m/z	relative intensity	assigned
57.9746	115	CNS+
58.0288	34	C2H4NO+
58.9824	4	CHNS+
67.0291	502	C3H3N2+
69.0083	31	C2HN2O+
69.0447	65	C3H5N2+
72.9855	7	CHN2S+
72.9981	54	C2H3NS+
74.0058	152	C2H4NS+
81.0322	20	C3H3N3+
81.0447	142	C4H5N2+
84.9855	896	C2HN2S+
85.9695	15	C2NOS+
86.0058	21	C3H4NS+
90.0008	14	C2H4NOS+
100.9804	63	C2HN2OS+
108.043	11	C4H4N4+
109.0269	4	C4H3N3O+
112.0088	21	C4H4N2S+
113.0168	191	C4H5N2S+
119.0352	52	C5H3N4+
120.043	40	C5H4N4+
121.0508	64	C5H5N4+
134.0587	16	C6H6N4+
136.038	92	C5H4N4O+
137.0459	29	C5H5N4O+
142.007	999	C4H4N3OS+
145.0508	5	C7H5N4+
146.0461	21	C6H4N5+
147.0537	9	C6H5N5+
147.0669	4	C7H7N4+
152.0151	213	C5H4N4S+
152.0326	29	C5H4N4O2+
153.023	17	C5H5N4S+
158.0588	9	C8H6N4+
159.054	25	C7H5N5+
160.0618	29	C7H6N5+
164.0151	240	C6H4N4S+
165.023	380	C6H5N4S+
172.0618	105	C8H6N5+
173.0697	20	C8H7N5+
174.0775	104	C8H8N5+
176.0148	8	C7H4N4S+
177.023	115	C7H5N4S+
178.0309	7	C7H6N4S+
182.0259	6	C6H6N4OS+
187.0726	8	C8H7N6+
188.0145	6	C8H4N4S+
190.0179	10	C7H4N5S+
191.0261	56	C7H5N5S+
199.0727	776	C9H7N6+
200.0805	21	C9H8N6+
204.0339	146	C8H6N5S+
205.0417	751	C8H7N5S+
214.0416	5	C6H8N5O2S+
215.0262	43	C9H5N5S+
231.0448	289	C9H7N6S+
232.0526	351	C9H8N6S+
