Mass spectrum: Napropamide; LC-ESI-QFT; MS2; CE: 15; R=17500; [M+H]+
Name: Napropamide
Name: N,N-diethyl-2-naphthalen-1-yloxypropanamide
Formula: C17H21NO2
Exact mass: 271.1572
SMILES: CCN(CC)C(=O)C(C)OC1=C2C=CC=CC2=CC=C1
InChI: InChI=1S/C17H21NO2/c1-4-18(5-2)17(19)13(3)20-16-12-8-10-14-9-6-7-11-15(14)16/h6-13H,4-5H2,1-3H3
Instrument: Q Exactive Orbitrap (Thermo Scientific)
Instrument type: LC-ESI-QFT
Ms type: MS2
Ion mode: POSITIVE
Ionization: ESI
Fragmentation mode: HCD
Collision energy: 15
Resolution: 17500
Column name: Acquity BEH C18 1.7um, 2.1x150mm (Waters)
Retention time: 18.023 min
Base peak: 79.0211
Precursor m/z: 272.1645
Precursor type: [M+H]+
Precursor intensity: 40648569.5
m/z	relative intensity	assigned
57.0336	1	C3H5O+
58.0651	9	C3H8N+
72.0807	107	C4H10N+
74.0964	484	C4H12N+
100.0756	6	C5H10NO+
100.112	15	C6H14N+
101.0835	1	C5H11NO+
114.0913	16	C6H12NO+
127.0543	1	C10H7+
128.107	164	C7H14NO+
129.1147	441	C7H15NO+
171.0804	174	C12H11O+
199.0753	619	C13H11O2+
272.1644	999	C17H22NO2+
