Mass spectrum: 1,1`-Disulfanediyldiazepan-2-one; LC-ESI-QFT; MS2; CE: 75; R=17500; [M+H]+
Name: 1,1'-Disulfanediyldiazepan-2-one
Name: 1-[(2-oxoazepan-1-yl)disulfanyl]azepan-2-one
Formula: C12H20N2O2S2
Exact mass: 288.0966
SMILES: O=C1CCCCCN1SSN1CCCCCC1=O
InChI: InChI=1S/C12H20N2O2S2/c15-11-7-3-1-5-9-13(11)17-18-14-10-6-2-4-8-12(14)16/h1-10H2
Instrument: Q Exactive Orbitrap (Thermo Scientific)
Instrument type: LC-ESI-QFT
Ms type: MS2
Ion mode: POSITIVE
Ionization: ESI
Fragmentation mode: HCD
Collision energy: 75
Resolution: 17500
Column name: Acquity BEH C18 1.7um, 2.1x150mm (Waters)
Retention time: 16.230 min
Base peak: 79.0211
Precursor m/z: 289.1039
Precursor type: [M+H]+
Precursor intensity: 5830913.28125
m/z	relative intensity	assigned
55.0543	432	C4H7+
56.0495	221	C3H6N+
69.0699	635	C5H9+
82.0652	503	C5H8N+
83.0729	478	C5H9N+
96.0809	999	C6H10N+
114.0915	216	C6H12NO+
