Mass spectrum: Mefenamic acid; LC-ESI-QFT; MS2; CE: 75; R=17500; [M-H]-
Name: Mefenamic acid
Name: 2-(2,3-dimethylanilino)benzoic acid
Formula: C15H15NO2
Exact mass: 241.1103
SMILES: CC1=C(C)C(NC2=C(C=CC=C2)C(O)=O)=CC=C1
InChI: InChI=1S/C15H15NO2/c1-10-6-5-9-13(11(10)2)16-14-8-4-3-7-12(14)15(17)18/h3-9,16H,1-2H3,(H,17,18)
Instrument: Q Exactive Orbitrap (Thermo Scientific)
Instrument type: LC-ESI-QFT
Ms type: MS2
Ion mode: NEGATIVE
Ionization: ESI
Fragmentation mode: HCD
Collision energy: 75
Resolution: 17500
Column name: Acquity BEH C18 1.7um, 2.1x150mm (Waters)
Retention time: 19.431 min
Base peak: 240.1031
Precursor m/z: 240.103
Precursor type: [M-H]-
Precursor intensity: 22320988.92969
m/z	relative intensity	assigned
65.0396	19	C5H5-
66.035	11	C4H4N-
91.0429	5	C6H5N-
92.0506	320	C6H6N-
93.0711	11	C7H9-
116.0504	21	C8H6N-
118.0663	46	C8H8N-
120.0456	10	C7H6NO-
120.0818	111	C8H10N-
129.071	6	C10H9-
130.0662	10	C9H8N-
143.0741	9	C10H9N-
144.0819	44	C10H10N-
154.0662	7	C11H8N-
166.0662	14	C12H8N-
175.0638	13	C10H9NO2-
179.0742	105	C13H9N-
179.0867	378	C14H11-
180.0819	999	C13H10N-
181.0893	6	C13H11N-
192.082	898	C14H10N-
193.0895	27	C14H11N-
194.0975	631	C14H12N-
196.1132	936	C14H14N-
211.0641	34	C13H9NO2-
225.0793	12	C14H11NO2-
