Mass spectrum: Fluridone; LC-ESI-QFT; MS2; CE: 60; R=17500; [M+H]+
Name: Fluridone
Name: 1-methyl-3-phenyl-5-[3-(trifluoromethyl)phenyl]pyridin-4-one
Formula: C19H14F3NO
Exact mass: 329.1027
SMILES: CN1C=C(C(=O)C(=C1)C1=CC(=CC=C1)C(F)(F)F)C1=CC=CC=C1
InChI: InChI=1S/C19H14F3NO/c1-23-11-16(13-6-3-2-4-7-13)18(24)17(12-23)14-8-5-9-15(10-14)19(20,21)22/h2-12H,1H3
Instrument: Q Exactive Orbitrap (Thermo Scientific)
Instrument type: LC-ESI-QFT
Ms type: MS2
Ion mode: POSITIVE
Ionization: ESI
Fragmentation mode: HCD
Collision energy: 60
Resolution: 17500
Column name: Acquity BEH C18 1.7um, 2.1x150mm (Waters)
Retention time: 16.806 min
Base peak: 79.0211
Precursor m/z: 330.11
Precursor type: [M+H]+
Precursor intensity: 51671571.3125
m/z	relative intensity	assigned
53.0385	1	C4H5+
91.0542	24	C7H7+
95.049	3	C6H7O+
103.0542	11	C8H7+
104.0493	1	C7H6N+
105.0334	2	C7H5O+
115.0542	18	C9H7+
116.062	3	C9H8+
117.0572	2	C8H7N+
117.0697	2	C9H9+
118.0651	14	C8H8N+
128.062	2	C10H8+
129.0699	10	C10H9+
130.0653	1	C9H8N+
131.0491	1	C9H7O+
131.0729	1	C9H9N+
132.0808	1	C9H10N+
133.0447	1	C9H6F+
143.0729	2	C10H9N+
145.0254	1	C7H4F3+
151.0354	7	C9H5F2+
156.0807	1	C11H10N+
157.0886	2	C11H11N+
159.0415	8	C8H6F3+
159.0607	3	C11H8F+
164.043	1	C10H6F2+
165.0509	4	C10H7F2+
166.0458	1	C9H6F2N+
171.0415	8	C9H6F3+
172.0369	1	C8H5F3N+
173.021	3	C8H4F3O+
177.0512	2	C11H7F2+
183.0416	15	C10H6F3+
184.0555	3	C12H7FN+
186.0528	4	C9H7F3N+
191.0854	4	C15H11+
192.0934	3	C15H12+
197.0576	4	C11H8F3+
201.0698	2	C16H9+
202.0777	16	C16H10+
203.0854	1	C16H11+
204.062	1	C12H8F2N+
204.093	3	C16H12+
208.1117	3	C15H14N+
209.0756	2	C15H10F+
209.1156	5	C13H15F2+
212.0506	1	C13H7FNO+
215.0857	17	C17H11+
216.0808	3	C16H10N+
216.0935	3	C17H12+
217.0883	2	C16H11N+
218.0969	4	C16H12N+
219.0803	1	C16H11O+
220.0683	12	C16H9F+
221.0647	1	C12H9F2NO+
221.0762	25	C16H10F+
227.0727	3	C17H9N+
229.0649	1	C17H9O+
231.1041	1	C17H13N+
232.0564	1	C13H8F2NO+
232.112	4	C17H14N+
233.0762	6	C17H10F+
233.1197	4	C17H15N+
234.0719	1	C16H9FN+
234.0841	2	C17H11F+
235.092	1	C17H12F+
242.0964	130	C18H12N+
243.0679	1	C17H9NO+
243.0814	1	C18H11O+
243.1043	2	C18H13N+
244.0754	3	C17H10NO+
245.0836	2	C17H11NO+
246.0909	1	C17H12NO+
247.0791	10	C17H10FN+
248.0634	3	C17H9FO+
249.071	29	C17H10FO+
251.0661	5	C17H9F2+
253.0826	1	C17H11F2+
255.0667	1	C18H9NO+
258.0723	1	C15H10F2NO+
258.0914	1	C18H12NO+
259.0746	4	C16H10F3+
259.0992	19	C18H13NO+
260.0872	4	C18H11FN+
260.107	27	C18H14NO+
261.0712	3	C18H10FO+
261.0948	24	C18H12FN+
262.0794	15	C18H11FO+
262.1026	74	C18H13FN+
263.0865	3	C18H12FO+
266.0774	2	C17H10F2N+
267.0852	3	C17H11F2N+
269.0833	3	C19H11NO+
270.0648	2	C17H9F3+
270.0913	42	C19H12NO+
272.0702	1	C16H9F3N+
272.0873	4	C19H11FN+
273.0948	9	C19H12FN+
274.066	10	C18H9FNO+
275.074	42	C18H10FNO+
276.0823	1	C18H11FNO+
280.0935	1	C18H12F2N+
281.1009	1	C18H13F2N+
282.109	5	C18H14F2N+
286.0839	16	C17H11F3N+
287.0917	84	C17H12F3N+
288.0823	9	C19H11FNO+
289.0899	37	C19H12FNO+
290.0976	371	C19H13FNO+
291.0891	14	C16H12F3NO+
292.0933	1	C19H12F2N+
294.0724	43	C18H10F2NO+
295.0802	11	C18H11F2NO+
300.1009	3	C18H13F3N+
301.1079	2	C18H14F3N+
302.1152	27	C18H15F3N+
308.088	6	C19H12F2NO+
309.096	999	C19H13F2NO+
310.1038	924	C19H14F2NO+
312.0998	1	C19H13F3N+
314.0789	10	C18H11F3NO+
315.0861	6	C18H12F3NO+
328.0942	4	C19H13F3NO+
330.1101	660	C19H15F3NO+
