Mass spectrum: 4,4`-Methylenebis(N,N-dimethylaniline); LC-ESI-QFT; MS2; CE: 60; R=17500; [M+H]+
Name: 4,4'-Methylenebis(N,N-dimethylaniline)
Name: 4-[[4-(dimethylamino)phenyl]methyl]-N,N-dimethylaniline
Formula: C17H22N2
Exact mass: 254.1783
SMILES: CN(C)C1=CC=C(CC2=CC=C(C=C2)N(C)C)C=C1
InChI: InChI=1S/C17H22N2/c1-18(2)16-9-5-14(6-10-16)13-15-7-11-17(12-8-15)19(3)4/h5-12H,13H2,1-4H3
Instrument: Q Exactive Orbitrap (Thermo Scientific)
Instrument type: LC-ESI-QFT
Ms type: MS2
Ion mode: POSITIVE
Ionization: ESI
Fragmentation mode: HCD
Collision energy: 60
Resolution: 17500
Column name: Acquity BEH C18 1.7um, 2.1x150mm (Waters)
Retention time: 10.439 min
Base peak: 79.0212
Precursor m/z: 255.1856
Precursor type: [M+H]+
Precursor intensity: 26361031
m/z	relative intensity	assigned
91.0543	1	C7H7+
118.0651	18	C8H8N+
119.0729	9	C8H9N+
120.0808	68	C8H10N+
121.0886	54	C8H11N+
122.0965	7	C8H12N+
132.0808	12	C9H10N+
133.0887	7	C9H11N+
134.0964	284	C9H12N+
157.0884	1	C11H11N+
163.1227	1	C10H15N2+
165.0701	1	C13H9+
170.0964	1	C12H12N+
180.0807	8	C13H10N+
181.0885	13	C13H11N+
182.0964	1	C13H12N+
194.0966	8	C14H12N+
195.1042	9	C14H13N+
196.1121	446	C14H14N+
197.1197	1	C14H15N+
208.1119	3	C15H14N+
209.1083	1	C14H13N2+
209.12	4	C15H15N+
210.1277	242	C15H16N+
223.1229	3	C15H15N2+
224.1306	10	C15H16N2+
225.1386	89	C15H17N2+
239.1542	999	C16H19N2+
240.1619	352	C16H20N2+
255.1856	11	C17H23N2+
