Mass spectrum: CI-1018; LC-ESI-QFT; MS2; CE: 75; R=17500; [M+H]+
Name: CI-1018
Name: N-[(11R)-6-methyl-12-oxo-9-phenyl-1,10-diazatricyclo[6.4.1.04,13]trideca-4(13),5,7,9-tetraen-11-yl]pyridine-4-carboxamide
Formula: C24H20N4O2
Exact mass: 396.1586
SMILES: CC1=CC2=C3N(CC2)C(=O)[C@H](NC(=O)C2=CC=NC=C2)N=C(C2=CC=CC=C2)C3=C1
InChI: InChI=1S/C24H20N4O2/c1-15-13-18-9-12-28-21(18)19(14-15)20(16-5-3-2-4-6-16)26-22(24(28)30)27-23(29)17-7-10-25-11-8-17/h2-8,10-11,13-14,22H,9,12H2,1H3,(H,27,29)/t22-/m0/s1
Instrument: Q Exactive Orbitrap (Thermo Scientific)
Instrument type: LC-ESI-QFT
Ms type: MS2
Ion mode: POSITIVE
Ionization: ESI
Fragmentation mode: HCD
Collision energy: 75
Resolution: 17500
Column name: Acquity BEH C18 1.7um, 2.1x150mm (Waters)
Retention time: 17.174 min
Base peak: 79.0212
Precursor m/z: 397.1659
Precursor type: [M+H]+
Precursor intensity: 21388337.3125
m/z	relative intensity	assigned
78.0338	8	C5H4N+
80.0494	6	C5H6N+
91.0542	10	C7H7+
95.0604	1	C5H7N2+
96.0442	1	C5H6NO+
104.0494	5	C7H6N+
105.0446	4	C6H5N2+
106.0287	3	C6H4NO+
115.0542	26	C9H7+
116.0494	5	C8H6N+
116.062	1	C9H8+
117.0573	1	C8H7N+
117.0698	10	C9H9+
123.0552	12	C6H7N2O+
128.0493	2	C9H6N+
129.0572	2	C9H7N+
130.0649	2	C9H8N+
131.0728	2	C9H9N+
132.0808	1	C9H10N+
135.0804	7	C9H11O+
142.0651	10	C10H8N+
143.0729	19	C10H9N+
144.0807	142	C10H10N+
145.0759	7	C9H9N2+
146.0599	1	C9H8NO+
155.0603	4	C10H7N2+
159.0914	1	C10H11N2+
160.0756	4	C10H10NO+
167.0731	1	C12H9N+
168.0678	2	C11H8N2+
169.076	16	C11H9N2+
178.0777	1	C14H10+
204.0807	6	C15H10N+
205.0761	1	C14H9N2+
205.0886	6	C15H11N+
218.0838	2	C15H10N2+
218.0964	1	C16H12N+
219.0917	1	C15H11N2+
219.1044	1	C16H13N+
220.1118	4	C16H14N+
230.0964	1	C17H12N+
231.0916	38	C16H11N2+
232.0995	21	C16H12N2+
242.0841	3	C17H10N2+
245.1075	11	C17H13N2+
246.1154	8	C17H14N2+
247.1228	999	C17H15N2+
255.0917	1	C18H11N2+
256.0993	3	C18H12N2+
257.1075	1	C18H13N2+
259.0864	7	C17H11N2O+
260.0938	3	C17H12N2O+
263.1176	3	C17H15N2O+
273.1022	2	C18H13N2O+
275.1172	1	C18H15N2O+
