Mass spectrum: Todralazine; LC-ESI-QFT; MS2; CE: 60; R=17500; [M+H]+
Name: Todralazine
Name: ethyl N-(phthalazin-1-ylamino)carbamate
Formula: C11H12N4O2
Exact mass: 232.0960
SMILES: CCOC(=O)NNC1=NN=CC2=CC=CC=C12
InChI: InChI=1S/C11H12N4O2/c1-2-17-11(16)15-14-10-9-6-4-3-5-8(9)7-12-13-10/h3-7H,2H2,1H3,(H,13,14)(H,15,16)
Instrument: Q Exactive Orbitrap (Thermo Scientific)
Instrument type: LC-ESI-QFT
Ms type: MS2
Ion mode: POSITIVE
Ionization: ESI
Fragmentation mode: HCD
Collision energy: 60
Resolution: 17500
Column name: Acquity BEH C18 1.7um, 2.1x150mm (Waters)
Retention time: 9.110 min
Base peak: 79.0212
Precursor m/z: 233.1033
Precursor type: [M+H]+
Precursor intensity: 17788938.3125
m/z	relative intensity	assigned
53.0386	2	C4H5+
62.0151	1	C5H2+
62.0236	3	CH4NO2+
63.0229	3	C5H3+
64.0307	1	C5H4+
66.0463	3	C5H6+
72.0443	1	C3H6NO+
77.0385	1	C6H5+
79.0415	5	C5H5N+
79.0542	2	C6H7+
89.0385	999	C7H5+
90.0336	1	C6H4N+
90.0464	3	C7H6+
91.0417	2	C6H5N+
92.0256	1	C6H4O+
94.0412	1	C6H6O+
95.0491	5	C6H7O+
103.0416	9	C7H5N+
103.0543	4	C8H7+
104.0494	104	C7H6N+
105.0447	3	C6H5N2+
105.0572	7	C7H7N+
108.0444	1	C6H6NO+
115.0417	1	C8H5N+
116.0494	120	C8H6N+
117.0447	7	C7H5N2+
117.0572	77	C8H7N+
118.0529	1	C7H6N2+
129.0447	3	C8H5N2+
130.0526	66	C8H6N2+
131.0604	243	C8H7N2+
132.0681	340	C8H8N2+
134.0599	54	C8H8NO+
144.0555	29	C8H6N3+
145.0634	563	C8H7N3+
146.0712	3	C8H8N3+
147.0554	2	C8H7N2O+
158.0474	9	C9H6N2O+
158.0713	2	C9H8N3+
159.0665	460	C8H7N4+
160.0743	29	C8H8N4+
160.0994	3	C10H12N2+
161.0821	820	C8H9N4+
172.0871	1	C10H10N3+
173.0947	3	C10H11N3+
187.0613	285	C9H7N4O+
205.0719	43	C9H9N4O2+
233.1031	3	C11H13N4O2+
