Mass spectrum: Oleyl sarcosine; LC-ESI-QFT; MS2; CE: 15; R=17500; [M+H]+
Name: Oleyl sarcosine
Name: Oleoyl sarcosine
Name: 2-[methyl-[(Z)-octadec-9-enoyl]amino]acetic acid
Formula: C21H39NO3
Exact mass: 353.2930
SMILES: CCCCCCCC\C=C/CCCCCCCC(=O)N(C)CC(O)=O
InChI: InChI=1S/C21H39NO3/c1-3-4-5-6-7-8-9-10-11-12-13-14-15-16-17-18-20(23)22(2)19-21(24)25/h10-11H,3-9,12-19H2,1-2H3,(H,24,25)/b11-10-
Instrument: Q Exactive Orbitrap (Thermo Scientific)
Instrument type: LC-ESI-QFT
Ms type: MS2
Ion mode: POSITIVE
Ionization: ESI
Fragmentation mode: HCD
Collision energy: 15
Resolution: 17500
Column name: Acquity BEH C18 1.7um, 2.1x150mm (Waters)
Retention time: 21.843 min
Base peak: 79.0211
Precursor m/z: 354.3003
Precursor type: [M+H]+
Precursor intensity: 3232085.875
m/z	relative intensity	assigned
81.0699	1	C6H9+
90.055	999	C3H8NO2+
95.0856	2	C7H11+
97.1013	1	C7H13+
121.1013	4	C9H13+
135.1171	3	C10H15+
149.1323	2	C11H17+
247.242	7	C18H31+
265.2525	12	C18H33O+
354.3005	703	C21H40NO3+
