Mass spectrum: Crotamiton; LC-ESI-QFT; MS2; CE: 15; R=17500; [M+H]+
Name: Crotamiton
Name: N-ethyl-N-(2-methylphenyl)but-2-enamide
Formula: C13H17NO
Exact mass: 203.1310
SMILES: CCN(C(=O)C=CC)C1=CC=CC=C1C
InChI: InChI=1S/C13H17NO/c1-4-8-13(15)14(5-2)12-10-7-6-9-11(12)3/h4,6-10H,5H2,1-3H3
Instrument: Q Exactive Orbitrap (Thermo Scientific)
Instrument type: LC-ESI-QFT
Ms type: MS2
Ion mode: POSITIVE
Ionization: ESI
Fragmentation mode: HCD
Collision energy: 15
Resolution: 17500
Column name: Acquity BEH C18 1.7um, 2.1x150mm (Waters)
Retention time: 17.257 min
Base peak: 79.0211
Precursor m/z: 204.1383
Precursor type: [M+H]+
Precursor intensity: 25208436.25
m/z	relative intensity	assigned
68.0494	2	C4H6N+
69.0334	50	C4H5O+
71.0855	1	C5H11+
96.0807	15	C6H10N+
97.0648	1	C6H9O+
108.0807	1	C7H10N+
134.06	19	C8H8NO+
134.0963	3	C9H12N+
136.1121	30	C9H14N+
158.096	1	C11H12N+
162.0913	11	C10H12NO+
176.1066	2	C11H14NO+
186.128	1	C13H16N+
204.1381	999	C13H18NO+
