Mass spectrum: Nomifensine; LC-ESI-QFT; MS2; CE: 60; R=17500; [M+H]+
Name: Nomifensine
Name: 2-methyl-4-phenyl-3,4-dihydro-1H-isoquinolin-8-amine
Formula: C16H18N2
Exact mass: 238.1470
SMILES: CN1CC(C2=CC=CC=C2)C2=CC=CC(N)=C2C1
InChI: InChI=1S/C16H18N2/c1-18-10-14(12-6-3-2-4-7-12)13-8-5-9-16(17)15(13)11-18/h2-9,14H,10-11,17H2,1H3
Instrument: Q Exactive Orbitrap (Thermo Scientific)
Instrument type: LC-ESI-QFT
Ms type: MS2
Ion mode: POSITIVE
Ionization: ESI
Fragmentation mode: HCD
Collision energy: 60
Resolution: 17500
Column name: Acquity BEH C18 1.7um, 2.1x150mm (Waters)
Retention time: 13.050 min
Base peak: 79.0211
Precursor m/z: 239.1543
Precursor type: [M+H]+
Precursor intensity: 35462295.125
m/z	relative intensity	assigned
53.0386	3	C4H5+
65.0385	7	C5H5+
68.0495	1	C4H6N+
77.0385	3	C6H5+
79.0542	29	C6H7+
80.0494	4	C5H6N+
91.0542	967	C7H7+
93.0572	7	C6H7N+
93.0699	3	C7H9+
94.0652	5	C6H8N+
103.0543	24	C8H7+
104.0495	3	C7H6N+
105.0447	2	C6H5N2+
105.0699	17	C8H9+
106.0651	100	C7H8N+
107.0729	7	C7H9N+
108.0808	6	C7H10N+
115.0543	142	C9H7+
117.0573	108	C8H7N+
117.0697	8	C9H9+
118.0651	999	C8H8N+
119.0728	2	C8H9N+
120.0808	135	C8H10N+
121.0886	2	C8H11N+
122.0965	2	C8H12N+
128.0386	2	C8H4N2+
129.0698	2	C10H9+
130.0652	229	C9H8N+
131.0729	6	C9H9N+
132.0808	194	C9H10N+
133.076	15	C8H9N2+
133.0887	2	C9H11N+
134.0965	4	C9H12N+
135.0917	1	C8H11N2+
141.0697	4	C11H9+
143.0734	1	C10H9N+
144.0808	4	C10H10N+
146.0839	19	C9H10N2+
147.0917	53	C9H11N2+
148.0996	8	C9H12N2+
152.0389	2	C10H4N2+
152.0623	1	C12H8+
153.0697	4	C12H9+
154.0652	2	C11H8N+
155.0853	4	C12H11+
159.0919	22	C10H11N2+
161.1073	15	C10H13N2+
165.0697	9	C13H9+
166.0645	1	C12H8N+
166.0779	7	C13H10+
167.0733	7	C12H9N+
167.0854	11	C13H11+
168.0811	4	C12H10N+
177.0703	2	C14H9+
178.0777	73	C14H10+
179.0856	240	C14H11+
180.0808	57	C13H10N+
181.0886	506	C13H11N+
182.0964	4	C13H12N+
190.0777	4	C15H10+
191.0855	23	C15H11+
192.0932	3	C15H12+
193.0888	93	C14H11N+
193.1006	9	C15H13+
194.0966	71	C14H12N+
195.1043	37	C14H13N+
196.1121	308	C14H14N+
197.12	3	C14H15N+
198.1276	14	C14H16N+
206.0966	6	C15H12N+
207.1044	21	C15H13N+
208.1121	89	C15H14N+
209.1073	32	C14H13N2+
210.1278	51	C15H16N+
222.1278	6	C16H16N+
223.1233	8	C15H15N2+
224.1308	37	C15H16N2+
237.1387	18	C16H17N2+
239.1543	132	C16H19N2+
