Mass spectrum: Nomifensine; LC-ESI-QFT; MS2; CE: 75; R=17500; [M+H]+
Name: Nomifensine
Name: 2-methyl-4-phenyl-3,4-dihydro-1H-isoquinolin-8-amine
Formula: C16H18N2
Exact mass: 238.1470
SMILES: CN1CC(C2=CC=CC=C2)C2=CC=CC(N)=C2C1
InChI: InChI=1S/C16H18N2/c1-18-10-14(12-6-3-2-4-7-12)13-8-5-9-16(17)15(13)11-18/h2-9,14H,10-11,17H2,1H3
Instrument: Q Exactive Orbitrap (Thermo Scientific)
Instrument type: LC-ESI-QFT
Ms type: MS2
Ion mode: POSITIVE
Ionization: ESI
Fragmentation mode: HCD
Collision energy: 75
Resolution: 17500
Column name: Acquity BEH C18 1.7um, 2.1x150mm (Waters)
Retention time: 13.050 min
Base peak: 79.0211
Precursor m/z: 239.1543
Precursor type: [M+H]+
Precursor intensity: 35039134.3125
m/z	relative intensity	assigned
53.0386	13	C4H5+
65.0386	25	C5H5+
68.0494	4	C4H6N+
77.0385	6	C6H5+
79.0542	45	C6H7+
80.0495	6	C5H6N+
81.0573	2	C5H7N+
90.0465	2	C7H6+
91.0543	999	C7H7+
92.0494	2	C6H6N+
93.0574	11	C6H7N+
93.07	2	C7H9+
94.0651	8	C6H8N+
103.0543	58	C8H7+
104.0494	8	C7H6N+
105.0448	17	C6H5N2+
105.0699	18	C8H9+
106.0652	123	C7H8N+
107.073	9	C7H9N+
108.0808	5	C7H10N+
115.0543	138	C9H7+
116.0493	3	C8H6N+
117.0573	150	C8H7N+
117.0699	7	C9H9+
118.0651	917	C8H8N+
119.0731	7	C8H9N+
120.0808	127	C8H10N+
121.0887	3	C8H11N+
128.0387	3	C8H4N2+
128.0617	3	C10H8+
129.0701	4	C10H9+
130.0652	220	C9H8N+
131.0604	2	C8H7N2+
131.0731	15	C9H9N+
132.0686	16	C8H8N2+
132.0808	100	C9H10N+
133.076	26	C8H9N2+
133.0885	2	C9H11N+
134.0965	3	C9H12N+
141.0697	8	C11H9+
143.0726	2	C10H9N+
144.0808	3	C10H10N+
145.076	4	C9H9N2+
146.0839	27	C9H10N2+
147.0918	49	C9H11N2+
148.0997	4	C9H12N2+
152.039	1	C10H4N2+
152.0621	4	C12H8+
153.0699	8	C12H9+
154.0653	3	C11H8N+
154.0775	2	C12H10+
155.0852	7	C12H11+
156.0809	3	C11H10N+
159.0916	21	C10H11N2+
161.1075	2	C10H13N2+
165.0698	25	C13H9+
166.0777	19	C13H10+
167.0732	11	C12H9N+
167.0855	13	C13H11+
168.0808	6	C12H10N+
176.0621	1	C14H8+
177.0701	7	C14H9+
178.0778	230	C14H10+
179.0856	186	C14H11+
180.0808	246	C13H10N+
181.0886	471	C13H11N+
182.0964	6	C13H12N+
189.0702	7	C15H9+
190.0776	16	C15H10+
191.0856	21	C15H11+
192.0812	5	C14H10N+
192.0935	4	C15H12+
193.0887	137	C14H11N+
194.0966	85	C14H12N+
195.1043	45	C14H13N+
196.1122	66	C14H14N+
197.1198	6	C14H15N+
198.1277	3	C14H16N+
206.0965	17	C15H12N+
207.1041	17	C15H13N+
208.1	4	C14H12N2+
208.112	30	C15H14N+
209.1074	57	C14H13N2+
210.1279	7	C15H16N+
222.1279	2	C16H16N+
223.123	15	C15H15N2+
223.1344	2	C16H17N+
224.1314	10	C15H16N2+
237.1391	7	C16H17N2+
239.1543	7	C16H19N2+
