Mass spectrum: Flufenpyr-ethyl; LC-ESI-QFT; MS2; CE: 15; R=17500; [M+H]+
Name: Flufenpyr-ethyl
Formula: C16H13ClF4N2O4
Exact mass: 408.0500
SMILES: CCOC(=O)COC1=CC(N2N=CC(=C(C)C2=O)C(F)(F)F)=C(F)C=C1Cl
InChI: InChI=1S/C16H13ClF4N2O4/c1-3-26-14(24)7-27-13-5-12(11(18)4-10(13)17)23-15(25)8(2)9(6-22-23)16(19,20)21/h4-6H,3,7H2,1-2H3
Instrument: Q Exactive Orbitrap (Thermo Scientific)
Instrument type: LC-ESI-QFT
Ms type: MS2
Ion mode: POSITIVE
Ionization: ESI
Fragmentation mode: HCD
Collision energy: 15
Resolution: 17500
Column name: Acquity BEH C18 1.7um, 2.1x150mm (Waters)
Retention time: 18.118 min
Base peak: 79.0212
Precursor m/z: 409.0573
Precursor type: [M+H]+
Precursor intensity: 9593270.25
m/z	relative intensity	assigned
59.0492	2	C3H7O+
307.0258	1	C12H8ClF4N2O+
335.0205	140	C13H8ClF4N2O2+
353.0312	154	C13H10ClF4N2O3+
363.0152	8	C14H8ClF4N2O3+
363.0517	8	C15H12ClF4N2O2+
367.0472	1	C14H12ClF4N2O3+
381.0261	217	C14H10ClF4N2O4+
381.0614	53	C15H14ClF4N2O3+
409.0574	999	C16H14ClF4N2O4+
