Mass spectrum: N2-(4-Nitrophenyl)-L-glutamine; LC-ESI-QFT; MS2; CE: 45; R=17500; [M+H]+
Name: N2-(4-Nitrophenyl)-L-glutamine
Name: (2S)-5-amino-2-(4-nitroanilino)-5-oxopentanoic acid
Formula: C11H13N3O5
Exact mass: 267.0855
SMILES: NC(=O)CC[C@H](NC1=CC=C(C=C1)[N+]([O-])=O)C(O)=O
InChI: InChI=1S/C11H13N3O5/c12-10(15)6-5-9(11(16)17)13-7-1-3-8(4-2-7)14(18)19/h1-4,9,13H,5-6H2,(H2,12,15)(H,16,17)/t9-/m0/s1
Instrument: Q Exactive Orbitrap (Thermo Scientific)
Instrument type: LC-ESI-QFT
Ms type: MS2
Ion mode: POSITIVE
Ionization: ESI
Fragmentation mode: HCD
Collision energy: 45
Resolution: 17500
Column name: Acquity BEH C18 1.7um, 2.1x150mm (Waters)
Retention time: 11.272 min
Base peak: 79.0211
Precursor m/z: 268.0928
Precursor type: [M+H]+
Precursor intensity: 3956245.25
m/z	relative intensity	assigned
53.0023	2	C3HO+
56.0495	25	C3H6N+
57.0336	1	C3H5O+
69.0336	1	C4H5O+
84.0445	999	C4H6NO+
85.0284	35	C4H5O2+
93.0572	1	C6H7N+
95.0127	1	C5H3O2+
102.055	24	C4H8NO2+
122.0475	70	C6H6N2O+
125.0472	1	C6H7NO2+
130.05	117	C5H8NO3+
139.0503	90	C6H7N2O2+
158.084	1	C10H10N2+
159.0676	1	C10H9NO+
165.0296	13	C7H5N2O3+
204.0768	8	C10H10N3O2+
205.0611	13	C10H9N2O3+
205.0735	3	C11H11NO3+
222.0877	2	C10H12N3O3+
223.0712	1	C10H11N2O4+
237.0636	2	C11H11NO5+
251.0665	43	C11H11N2O5+
