Mass spectrum: 2-Methyl-4-isothiazolin-3-one; LC-ESI-QFT; MS2; CE: 90; R=17500; [M+H]+
Name: 2-Methyl-4-isothiazolin-3-one
Name: 2-methyl-1,2-thiazol-3-one
Formula: C4H5NOS
Exact mass: 115.0092
SMILES: CN1SC=CC1=O
InChI: InChI=1S/C4H5NOS/c1-5-4(6)2-3-7-5/h2-3H,1H3
Instrument: Q Exactive Orbitrap (Thermo Scientific)
Instrument type: LC-ESI-QFT
Ms type: MS2
Ion mode: POSITIVE
Ionization: ESI
Fragmentation mode: HCD
Collision energy: 90
Resolution: 17500
Column name: Acquity BEH C18 1.7um, 2.1x150mm (Waters)
Retention time: 3.894 min
Base peak: 79.0211
Precursor m/z: 116.0165
Precursor type: [M+H]+
Precursor intensity: 4140147.5
m/z	relative intensity	assigned
52.0182	8	C3H2N+
53.0022	32	C3HO+
54.0339	55	C3H4N+
55.0179	6	C3H3O+
56.9794	13	C2HS+
57.9872	13	C2H2S+
58.0288	126	C2H4NO+
58.995	43	C2H3S+
59.9665	8	COS+
59.9903	12	CH2NS+
61.0107	22	C2H5S+
62.0059	12	CH4NS+
68.9793	11	C3HS+
69.0335	37	C4H5O+
69.9746	46	C2NS+
70.995	416	C3H3S+
72.0444	6	C3H6NO+
72.9981	32	C2H3NS+
73.0106	72	C3H5S+
74.0058	2	C2H4NS+
83.0367	2	C4H5NO+
83.9904	4	C3H2NS+
84.9743	146	C3HOS+
86.99	15	C3H3OS+
88.0216	16	C3H6NS+
98.0059	136	C4H4NS+
98.9899	136	C4H3OS+
100.993	303	C3H3NOS+
114.001	7	C4H4NOS+
116.0165	999	C4H6NOS+
