Mass spectrum: 2-Mercaptobenzimidazole; LC-ESI-QFT; MS2; CE: 15; R=17500; [M+H]+
Name: 2-Mercaptobenzimidazole
Name: 1H-benzimidazole-2-thiol
Formula: C7H6N2S
Exact mass: 150.0252
SMILES: S=C1NC2=CC=CC=C2N1
InChI: InChI=1S/C7H6N2S/c10-7-8-5-3-1-2-4-6(5)9-7/h1-4H,(H2,8,9,10)
Instrument: Q Exactive Orbitrap (Thermo Scientific)
Instrument type: LC-ESI-QFT
Ms type: MS2
Ion mode: POSITIVE
Ionization: ESI
Fragmentation mode: HCD
Collision energy: 15
Resolution: 17500
Column name: Acquity BEH C18 1.7um, 2.1x150mm (Waters)
Retention time: 11.929 min
Base peak: 79.0211
Precursor m/z: 151.0324
Precursor type: [M+H]+
Precursor intensity: 3071317.875
m/z	relative intensity	assigned
61.0107	5	C2H5S+
93.0572	8	C6H7N+
118.0526	3	C7H6N2+
119.0602	2	C7H7N2+
151.0324	999	C7H7N2S+
