Mass spectrum: Pyriproxyfen; LC-ESI-QFT; MS2; CE: 30; R=17500; [M+H]+
Name: Pyriproxyfen
Name: 2-[1-(4-phenoxyphenoxy)propan-2-yloxy]pyridine
Formula: C20H19NO3
Exact mass: 321.1365
SMILES: CC(COC1=CC=C(OC2=CC=CC=C2)C=C1)OC1=NC=CC=C1
InChI: InChI=1S/C20H19NO3/c1-16(23-20-9-5-6-14-21-20)15-22-17-10-12-19(13-11-17)24-18-7-3-2-4-8-18/h2-14,16H,15H2,1H3
Instrument: Q Exactive Orbitrap (Thermo Scientific)
Instrument type: LC-ESI-QFT
Ms type: MS2
Ion mode: POSITIVE
Ionization: ESI
Fragmentation mode: HCD
Collision energy: 30
Resolution: 17500
Column name: Acquity BEH C18 1.7um, 2.1x150mm (Waters)
Retention time: 19.691 min
Base peak: 79.0211
Precursor m/z: 322.1438
Precursor type: [M+H]+
Precursor intensity: 28124940.5
m/z	relative intensity	assigned
77.0388	1	C6H5+
78.0337	2	C5H4N+
95.0494	1	C6H7O+
96.0443	999	C5H6NO+
105.0699	13	C8H9+
107.0491	3	C7H7O+
119.0491	13	C8H7O+
129.0698	3	C10H9+
133.0648	31	C9H9O+
134.0726	119	C9H10O+
136.0757	29	C8H10NO+
157.0647	2	C11H9O+
170.0727	3	C12H10O+
171.0805	3	C12H11O+
171.1168	1	C13H15+
181.0647	4	C13H9O+
181.1011	3	C14H13+
185.0597	175	C12H9O2+
186.0673	2	C12H10O2+
187.0752	1	C12H11O2+
191.0854	1	C15H11+
194.0726	2	C14H10O+
198.0676	2	C13H10O2+
199.0753	22	C13H11O2+
199.1116	6	C14H15O+
209.096	9	C15H13O+
212.083	2	C14H12O2+
227.1066	124	C15H15O2+
322.1439	3	C20H20NO3+
