Mass spectrum: Triphenylphosphine oxide; LC-ESI-QFT; MS2; CE: 45; R=17500; [M+H]+
Name: Triphenylphosphine oxide
Name: diphenylphosphorylbenzene
Formula: C18H15OP
Exact mass: 278.0861
SMILES: O=P(C1=CC=CC=C1)(C1=CC=CC=C1)C1=CC=CC=C1
InChI: InChI=1S/C18H15OP/c19-20(16-10-4-1-5-11-16,17-12-6-2-7-13-17)18-14-8-3-9-15-18/h1-15H
Instrument: Q Exactive Orbitrap (Thermo Scientific)
Instrument type: LC-ESI-QFT
Ms type: MS2
Ion mode: POSITIVE
Ionization: ESI
Fragmentation mode: HCD
Collision energy: 45
Resolution: 17500
Column name: Acquity BEH C18 1.7um, 2.1x150mm (Waters)
Retention time: 16.902 min
Base peak: 79.0211
Precursor m/z: 279.0933
Precursor type: [M+H]+
Precursor intensity: 47840857
m/z	relative intensity	assigned
53.0386	1	C4H5+
77.0389	4	C6H5+
95.0491	2	C6H7O+
128.0621	1	C10H8+
129.0697	1	C10H9+
154.0779	1	C12H10+
171.0353	2	C11H8P+
173.0515	28	C11H10P+
183.0359	3	C12H8P+
185.0518	1	C12H10P+
199.031	1	C12H8OP+
201.0464	421	C12H10OP+
202.0552	2	C12H11OP+
278.0853	1	C18H15OP+
279.0932	999	C18H16OP+
