Mass spectrum: Fenarimol; LC-ESI-QFT; MS2; CE: 15; R=17500; [M+H]+
Name: Fenarimol
Name: (2-chlorophenyl)-(4-chlorophenyl)-pyrimidin-5-ylmethanol
Formula: C17H12Cl2N2O
Exact mass: 330.0327
SMILES: OC(C1=CC=C(Cl)C=C1)(C1=CN=CN=C1)C1=CC=CC=C1Cl
InChI: InChI=1S/C17H12Cl2N2O/c18-14-7-5-12(6-8-14)17(22,13-9-20-11-21-10-13)15-3-1-2-4-16(15)19/h1-11,22H
Instrument: Q Exactive Orbitrap (Thermo Scientific)
Instrument type: LC-ESI-QFT
Ms type: MS2
Ion mode: POSITIVE
Ionization: ESI
Fragmentation mode: HCD
Collision energy: 15
Resolution: 17500
Column name: Acquity BEH C18 1.7um, 2.1x150mm (Waters)
Retention time: 18.058 min
Base peak: 79.0211
Precursor m/z: 331.0399
Precursor type: [M+H]+
Precursor intensity: 21652156.375
m/z	relative intensity	assigned
81.0452	1	C4H5N2+
122.0481	32	C6H6N2O+
123.0241	22	C10H3+
124.0274	15	CH12Cl2NO+
141.0102	9	C7H6ClO+
268.0521	4	C16H11ClNO+
304.0287	4	C16H12Cl2NO+
331.0404	999	C17H13Cl2N2O+
