Mass spectrum: Lufenuron; LC-ESI-QFT; MS2; CE: 60; R=17500; [M-H]-
Name: Lufenuron
Formula: C17H8Cl2F8N2O3
Exact mass: 509.9784
SMILES: FC(C(F)(F)F)C(F)(F)OC1=CC(Cl)=C(NC(=O)NC(=O)C2=C(F)C=CC=C2F)C=C1Cl
InChI: InChI=1S/C17H8Cl2F8N2O3/c18-6-5-11(32-17(26,27)14(22)16(23,24)25)7(19)4-10(6)28-15(31)29-13(30)12-8(20)2-1-3-9(12)21/h1-5,14H,(H2,28,29,30,31)
Instrument: Q Exactive Orbitrap (Thermo Scientific)
Instrument type: LC-ESI-QFT
Ms type: MS2
Ion mode: NEGATIVE
Ionization: ESI
Fragmentation mode: HCD
Collision energy: 60
Resolution: 17500
Column name: Acquity BEH C18 1.7um, 2.1x150mm (Waters)
Retention time: 19.448 min
Base peak: 112.9856
Precursor m/z: 508.9711
Precursor type: [M-H]-
Precursor intensity: 7793546.654297
m/z	relative intensity	assigned
74.0034	3	C5N-
93.0146	33	C6H2F-
113.0208	56	C6H3F2-
130.9926	38	C3F5-
146.9876	63	C3F5O-
165.9701	42	C7HClNO2-
174.9597	999	C6H3Cl2NO-
185.952	10	C7H2Cl2NO-
199.955	35	C7H2Cl2N2O-
201.9469	64	C7H2Cl2NO2-
201.968	13	C8ClF3N-
203.9835	6	C8H2ClF3N-
211.031	2	C4H5F6N2O-
216.9504	3	C8H2Cl2FNO-
265.9394	4	C9HCl2F3NO-
302.9979	5	C14H5ClFN2O3-
