Mass spectrum: Famotidine; LC-ESI-QFT; MS2; CE: 15; R=17500; [M+H]+
Name: Famotidine
Name: 3-[[2-(diaminomethylideneamino)-1,3-thiazol-4-yl]methylsulfanyl]-N'-sulfamoylpropanimidamide
Formula: C8H15N7O2S3
Exact mass: 337.0449
SMILES: NC(N)=NC1=NC(CSCCC(N)=NS(N)(=O)=O)=CS1
InChI: InChI=1S/C8H15N7O2S3/c9-6(15-20(12,16)17)1-2-18-3-5-4-19-8(13-5)14-7(10)11/h4H,1-3H2,(H2,9,15)(H2,12,16,17)(H4,10,11,13,14)
Instrument: Q Exactive Orbitrap (Thermo Scientific)
Instrument type: LC-ESI-QFT
Ms type: MS2
Ion mode: POSITIVE
Ionization: ESI
Fragmentation mode: HCD
Collision energy: 15
Resolution: 17500
Column name: Acquity BEH C18 1.7um, 2.1x150mm (Waters)
Retention time: 8.079 min
Base peak: 79.0211
Precursor m/z: 338.0522
Precursor type: [M+H]+
Precursor intensity: 7282434.125
m/z	relative intensity	assigned
71.0603	63	C3H7N2+
113.0172	1	C4H5N2S+
155.0382	5	C5H7N4S+
157.0546	1	C5H9N4S+
189.0263	313	C5H9N4S2+
242.0526	7	C8H12N5S2+
259.0794	999	C8H15N6S2+
