Mass spectrum: FR130739; LC-ESI-QFT; MS2; CE: 60; R=17500; [M+H]+
Name: FR130739
Name: FK-739 free acid
Name: 2-butyl-3-[[4-[2-(2H-tetrazol-5-yl)phenyl]phenyl]methyl]imidazo[4,5-b]pyridine
Formula: C24H23N7
Exact mass: 409.2015
SMILES: CCCCC1=NC2=C(N=CC=C2)N1CC1=CC=C(C=C1)C1=CC=CC=C1C1=NN=NN1
InChI: InChI=1S/C24H23N7/c1-2-3-10-22-26-21-9-6-15-25-24(21)31(22)16-17-11-13-18(14-12-17)19-7-4-5-8-20(19)23-27-29-30-28-23/h4-9,11-15H,2-3,10,16H2,1H3,(H,27,28,29,30)
Instrument: Q Exactive Orbitrap (Thermo Scientific)
Instrument type: LC-ESI-QFT
Ms type: MS2
Ion mode: POSITIVE
Ionization: ESI
Fragmentation mode: HCD
Collision energy: 60
Resolution: 17500
Column name: Acquity BEH C18 1.7um, 2.1x150mm (Waters)
Retention time: 16.703 min
Base peak: 79.0212
Precursor m/z: 410.2088
Precursor type: [M+H]+
Precursor intensity: 17619843.84375
m/z	relative intensity	assigned
51.023	1	C4H3+
53.0386	7	C4H5+
63.0229	1	C5H3+
67.0417	2	C4H5N+
77.0383	4	C6H5+
79.0542	35	C6H7+
80.0494	47	C5H6N+
95.0491	22	C4H5N3+
96.0444	2	C3H4N4+
104.0493	5	C7H6N+
105.0447	11	C6H5N2+
115.0542	2	C9H7+
116.0493	1	C8H6N+
117.0573	3	C8H7N+
120.0556	7	C6H6N3+
122.0599	4	C5H6N4+
128.0496	1	C9H6N+
129.0447	18	C8H5N2+
132.0552	1	C7H6N3+
133.0634	93	C7H7N3+
134.0712	5	C7H8N3+
139.0541	4	C11H7+
140.0494	23	C10H6N+
141.0696	1	C11H9+
142.0523	1	C9H6N2+
145.0649	2	C8H7N3+
146.0711	7	C8H8N3+
147.0552	2	C6H5N5+
147.0787	4	C8H9N3+
151.0541	4	C12H7+
152.062	78	C12H8+
153.0698	125	C12H9+
154.0651	8	C11H8N+
155.06	4	C10H7N2+
155.073	1	C11H9N+
155.0858	4	C12H11+
161.0713	2	C7H7N5+
163.0542	18	C13H7+
164.0495	3	C12H6N+
165.0698	74	C13H9+
166.0652	17	C12H8N+
166.0775	17	C13H10+
167.0729	55	C12H9N+
168.0569	3	C10H6N3+
168.0682	10	C11H8N2+
169.0647	40	C10H7N3+
170.0602	2	C9H6N4+
176.1182	500	C10H14N3+
177.0572	11	C13H7N+
177.0699	1	C14H9+
178.0652	68	C13H8N+
178.0777	82	C14H10+
179.0604	17	C12H7N2+
179.073	85	C13H9N+
180.0807	901	C13H10N+
181.0758	11	C12H9N2+
181.0888	4	C13H11N+
182.06	16	C10H6N4+
183.0678	5	C10H7N4+
190.0651	267	C14H8N+
191.0729	159	C14H9N+
192.0684	244	C13H8N2+
192.0805	221	C14H10N+
194.06	80	C11H6N4+
195.0676	1	C11H7N4+
196.0757	127	C11H8N4+
204.0688	1	C14H8N2+
205.0761	407	C14H9N2+
206.0839	592	C14H10N2+
207.0915	999	C14H11N2+
208.0755	64	C12H8N4+
209.0831	6	C12H9N4+
210.091	1	C12H10N4+
211.0626	15	C9H5N7+
222.0915	1	C13H10N4+
