Mass spectrum: Pirimicarb; LC-ESI-QFT; MS2; CE: 90; R=17500; [M+H]+
Name: Pirimicarb
Name: [2-(dimethylamino)-5,6-dimethylpyrimidin-4-yl] N,N-dimethylcarbamate
Formula: C11H18N4O2
Exact mass: 238.1430
SMILES: CN(C)C(=O)OC1=C(C)C(C)=NC(=N1)N(C)C
InChI: InChI=1S/C11H18N4O2/c1-7-8(2)12-10(14(3)4)13-9(7)17-11(16)15(5)6/h1-6H3
Instrument: Q Exactive Orbitrap (Thermo Scientific)
Instrument type: LC-ESI-QFT
Ms type: MS2
Ion mode: POSITIVE
Ionization: ESI
Fragmentation mode: HCD
Collision energy: 90
Resolution: 17500
Column name: Acquity BEH C18 1.7um, 2.1x150mm (Waters)
Retention time: 12.680 min
Base peak: 79.0211
Precursor m/z: 239.1503
Precursor type: [M+H]+
Precursor intensity: 45140654
m/z	relative intensity	assigned
56.0131	27	C2H2NO+
56.0494	4	C3H6N+
58.0651	10	C3H8N+
68.0495	2	C4H6N+
69.0447	2	C3H5N2+
69.0573	9	C4H7N+
70.0526	2	C3H6N2+
71.0604	6	C3H7N2+
72.0443	999	C3H6NO+
83.024	38	C3H3N2O+
85.076	90	C4H9N2+
94.0526	4	C5H6N2+
95.0604	2	C5H7N2+
96.0444	1	C5H6NO+
96.0682	1	C5H8N2+
97.0523	1	C5H7NO+
98.0601	1	C5H8NO+
109.0761	80	C6H9N2+
110.0601	1	C6H8NO+
123.0553	4	C6H7N2O+
124.0632	6	C6H8N2O+
137.071	9	C7H9N2O+
138.0788	20	C7H10N2O+
139.0867	1	C7H11N2O+
150.1028	2	C8H12N3+
152.0818	19	C7H10N3O+
166.0974	1	C8H12N3O+
167.1054	2	C8H13N3O+
182.1288	2	C9H16N3O+
