Mass spectrum: 4-Nitrosodiphenylamine; LC-ESI-QFT; MS2; CE: 60; R=17500; [M-H]-
Name: 4-Nitrosodiphenylamine
Name: 4-nitroso-N-phenylaniline
Formula: C12H10N2O
Exact mass: 198.0793
SMILES: O=NC1=CC=C(NC2=CC=CC=C2)C=C1
InChI: InChI=1S/C12H10N2O/c15-14-12-8-6-11(7-9-12)13-10-4-2-1-3-5-10/h1-9,13H
Instrument: Q Exactive Orbitrap (Thermo Scientific)
Instrument type: LC-ESI-QFT
Ms type: MS2
Ion mode: NEGATIVE
Ionization: ESI
Fragmentation mode: HCD
Collision energy: 60
Resolution: 17500
Column name: Acquity BEH C18 1.7um, 2.1x150mm (Waters)
Retention time: 16.701 min
Base peak: 216.994
Precursor m/z: 197.072
Precursor type: [M-H]-
Precursor intensity: 3783381.645508
m/z	relative intensity	assigned
90.0349	51	C6H4N-
94.0298	46	C5H4NO-
121.0407	12	C6H5N2O-
154.0663	55	C11H8N-
166.0662	999	C12H8N-
167.0742	84	C12H9N-
170.0612	838	C11H8NO-
183.0689	101	C12H9NO-
195.0568	8	C12H7N2O-
197.0721	603	C12H9N2O-
