Mass spectrum: 2,4,6-Tris(allyloxy)-1,3,5-triazine; LC-ESI-QFT; MS2; CE: 30; R=17500; [M+H]+
Name: 2,4,6-Tris(allyloxy)-1,3,5-triazine
Name: Triallyl cyanurate
Name: 2,4,6-tris(prop-2-enoxy)-1,3,5-triazine
Formula: C12H15N3O3
Exact mass: 249.1113
SMILES: C=CCOC1=NC(OCC=C)=NC(OCC=C)=N1
InChI: InChI=1S/C12H15N3O3/c1-4-7-16-10-13-11(17-8-5-2)15-12(14-10)18-9-6-3/h4-6H,1-3,7-9H2
Instrument: Q Exactive Orbitrap (Thermo Scientific)
Instrument type: LC-ESI-QFT
Ms type: MS2
Ion mode: POSITIVE
Ionization: ESI
Fragmentation mode: HCD
Collision energy: 30
Resolution: 17500
Column name: Acquity BEH C18 1.7um, 2.1x150mm (Waters)
Retention time: 17.729 min
Base peak: 79.0211
Precursor m/z: 250.1186
Precursor type: [M+H]+
Precursor intensity: 21508760.15625
m/z	relative intensity	assigned
53.0022	30	C3HO+
53.0386	14	C4H5+
53.9975	7	C2NO+
55.0543	7	C4H7+
56.0131	13	C2H2NO+
56.0495	2	C3H6N+
58.0652	33	C3H8N+
65.0386	7	C5H5+
66.0465	2	C5H6+
68.0494	5	C4H6N+
69.9922	12	C2NO2+
70.0285	2	C3H4NO+
70.065	2	C4H8N+
79.0542	252	C6H7+
81.0699	999	C6H9+
82.0287	56	C4H4NO+
84.0444	112	C4H6NO+
87.0189	145	C2H3N2O2+
95.0492	1	C6H7O+
96.0444	5	C5H6NO+
96.0808	14	C6H10N+
99.0189	45	C3H3N2O2+
105.045	1	C6H5N2+
124.0758	10	C7H10NO+
125.0346	17	C5H5N2O2+
127.0503	110	C5H7N2O2+
130.0248	89	C3H4N3O3+
139.0502	8	C6H7N2O2+
142.025	4	C4H4N3O3+
165.0661	4	C8H9N2O2+
170.0561	200	C6H8N3O3+
196.0718	2	C8H10N3O3+
208.0717	29	C9H10N3O3+
250.1186	29	C12H16N3O3+
