Mass spectrum: Diclosulam; LC-ESI-QFT; MS2; CE: 75; R=17500; [M+H]+
Name: Diclosulam
Name: N-(2,6-dichlorophenyl)-5-ethoxy-7-fluoro-[1,2,4]triazolo[1,5-c]pyrimidine-2-sulfonamide
Formula: C13H10Cl2FN5O3S
Exact mass: 404.9865
SMILES: CCOC1=NC(F)=CC2=NC(=NN12)S(=O)(=O)NC1=C(Cl)C=CC=C1Cl
InChI: InChI=1S/C13H10Cl2FN5O3S/c1-2-24-13-17-9(16)6-10-18-12(19-21(10)13)25(22,23)20-11-7(14)4-3-5-8(11)15/h3-6,20H,2H2,1H3
Instrument: Q Exactive Orbitrap (Thermo Scientific)
Instrument type: LC-ESI-QFT
Ms type: MS2
Ion mode: POSITIVE
Ionization: ESI
Fragmentation mode: HCD
Collision energy: 75
Resolution: 17500
Column name: Acquity BEH C18 1.7um, 2.1x150mm (Waters)
Retention time: 15.765 min
Base peak: 79.0211
Precursor m/z: 405.9938
Precursor type: [M+H]+
Precursor intensity: 3236011.25
m/z	relative intensity	assigned
63.0229	6	C5H3+
67.029	1	C3H3N2+
72.9838	2	C3H2Cl+
80.0494	1	C5H6N+
81.0336	5	C5H5O+
89.026	1	C6H3N+
90.0339	28	C6H4N+
97.9918	1	C5H3Cl+
98.9996	13	C5H4Cl+
101.0027	1	C4H4ClN+
108.0445	3	C6H6NO+
113.0148	1	C4H2FN2O+
114.0105	1	C5H5ClN+
123.9949	10	C6H3ClN+
125.0027	67	C6H4ClN+
126.0106	34	C6H5ClN+
132.9608	6	C5H3Cl2+
133.9685	13	C5H4Cl2+
142.0054	4	C6H5ClNO+
147.9715	6	C5H4Cl2N+
159.9716	6	C6H4Cl2N+
160.9794	999	C6H5Cl2N+
166.0164	1	C7H5ClN3+
171.9716	1	C7H4Cl2N+
175.9666	13	C6H4Cl2NO+
176.9744	3	C6H5Cl2NO+
186.9827	2	C10FO3+
