Mass spectrum: Coumatetralyl; LC-ESI-QFT; MS2; CE: 75; R=17500; [M+H]+
Name: Coumatetralyl
Name: 4-hydroxy-3-(1,2,3,4-tetrahydronaphthalen-1-yl)chromen-2-one
Formula: C19H16O3
Exact mass: 292.1099
SMILES: OC1=C(C2CCCC3=C2C=CC=C3)C(=O)OC2=C1C=CC=C2
InChI: InChI=1S/C19H16O3/c20-18-15-9-3-4-11-16(15)22-19(21)17(18)14-10-5-7-12-6-1-2-8-13(12)14/h1-4,6,8-9,11,14,20H,5,7,10H2
Instrument: Q Exactive Orbitrap (Thermo Scientific)
Instrument type: LC-ESI-QFT
Ms type: MS2
Ion mode: POSITIVE
Ionization: ESI
Fragmentation mode: HCD
Collision energy: 75
Resolution: 17500
Column name: Acquity BEH C18 1.7um, 2.1x150mm (Waters)
Retention time: 18.147 min
Base peak: 79.0211
Precursor m/z: 293.1172
Precursor type: [M+H]+
Precursor intensity: 17207841.0625
m/z	relative intensity	assigned
51.0228	1	C4H3+
53.0022	3	C3HO+
53.0386	39	C4H5+
55.0178	8	C3H3O+
63.0229	1	C5H3+
65.0385	68	C5H5+
67.0542	7	C5H7+
68.9971	2	C3HO2+
69.0335	11	C4H5O+
77.0384	13	C6H5+
79.0542	386	C6H7+
81.0335	4	C5H5O+
91.0542	999	C7H7+
93.0335	8	C6H5O+
93.0699	1	C7H9+
94.0413	4	C6H6O+
95.0491	306	C6H7O+
102.0465	1	C8H6+
103.0542	48	C8H7+
105.0699	51	C8H9+
107.0491	536	C7H7O+
109.065	2	C7H9O+
111.044	7	C6H7O2+
115.0541	17	C9H7+
116.062	18	C9H8+
117.0699	4	C9H9+
119.0491	4	C8H7O+
119.0855	1	C9H11+
121.0284	292	C7H5O2+
125.0597	2	C7H9O2+
127.054	1	C10H7+
128.062	30	C10H8+
129.0698	21	C10H9+
131.0491	5	C9H7O+
131.0855	39	C10H11+
138.0311	1	C7H6O3+
139.0389	6	C7H7O3+
141.0697	3	C11H9+
143.049	1	C10H7O+
143.0856	1	C11H11+
144.0569	1	C10H8O+
145.0647	4	C10H9O+
147.044	12	C9H7O2+
152.0619	5	C12H8+
153.0698	3	C12H9+
159.0439	2	C10H7O2+
159.0803	1	C11H11O+
163.0388	14	C9H7O3+
169.0644	1	C12H9O+
175.0389	302	C10H7O3+
187.0391	1	C11H7O3+
187.0749	1	C12H11O2+
189.0546	13	C11H9O3+
201.0547	1	C12H9O3+
215.0706	1	C13H11O3+
