Mass spectrum: Picloram; LC-ESI-QFT; MS2; CE: 15; R=17500; [M-H]-
Name: Picloram
Name: 4-amino-3,5,6-trichloropyridine-2-carboxylic acid
Formula: C6H3Cl3N2O2
Exact mass: 239.9260
SMILES: NC1=C(Cl)C(Cl)=NC(C(O)=O)=C1Cl
InChI: InChI=1S/C6H3Cl3N2O2/c7-1-3(10)2(8)5(9)11-4(1)6(12)13/h(H2,10,11)(H,12,13)
Instrument: Q Exactive Orbitrap (Thermo Scientific)
Instrument type: LC-ESI-QFT
Ms type: MS2
Ion mode: NEGATIVE
Ionization: ESI
Fragmentation mode: HCD
Collision energy: 15
Resolution: 17500
Column name: Acquity BEH C18 1.7um, 2.1x150mm (Waters)
Retention time: 11.864 min
Base peak: 116.9285
Precursor m/z: 238.9187
Precursor type: [M-H]-
Precursor intensity: 812491.6062012
m/z	relative intensity	assigned
122.9754	14	C5ClN2-
158.9522	32	C5HCl2N2-
194.9289	999	C5H2Cl3N2-
