Mass spectrum: 8-Methoxypsoralen; LC-ESI-QFT; MS2; CE: 75; R=17500; [M+H]+
Name: 8-Methoxypsoralen
Name: Methoxsalen
Name: 9-methoxyfuro[3,2-g]chromen-7-one
Formula: C12H8O4
Exact mass: 216.0423
SMILES: COC1=C2OC(=O)C=CC2=CC2=C1OC=C2
InChI: InChI=1S/C12H8O4/c1-14-12-10-8(4-5-15-10)6-7-2-3-9(13)16-11(7)12/h2-6H,1H3
Instrument: Q Exactive Orbitrap (Thermo Scientific)
Instrument type: LC-ESI-QFT
Ms type: MS2
Ion mode: POSITIVE
Ionization: ESI
Fragmentation mode: HCD
Collision energy: 75
Resolution: 17500
Column name: Acquity BEH C18 1.7um, 2.1x150mm (Waters)
Retention time: 15.198 min
Base peak: 79.0211
Precursor m/z: 217.0495
Precursor type: [M+H]+
Precursor intensity: 8339717.59375
m/z	relative intensity	assigned
53.0386	3	C4H5+
55.0178	3	C3H3O+
55.0542	3	C4H7+
63.023	1	C5H3+
64.0306	1	C5H4+
65.0385	5	C5H5+
66.0463	24	C5H6+
68.0256	1	C4H4O+
75.0229	1	C6H3+
77.0385	2	C6H5+
78.0463	1	C6H6+
79.0542	15	C6H7+
81.0335	1	C5H5O+
83.0492	2	C5H7O+
89.0385	41	C7H5+
90.0464	97	C7H6+
91.0542	22	C7H7+
92.0256	1	C6H4O+
93.0336	1	C6H5O+
94.0413	4	C6H6O+
95.0491	10	C6H7O+
97.0076	7	C8H+
101.0387	3	C8H5+
102.0464	12	C8H6+
103.0542	24	C8H7+
104.062	2	C8H8+
105.0335	2	C7H5O+
105.0699	27	C8H9+
111.0231	1	C9H3+
115.0542	81	C9H7+
116.0621	3	C9H8+
117.0335	1	C8H5O+
117.0698	6	C9H9+
118.0413	219	C8H6O+
119.0492	2	C8H7O+
121.0283	3	C7H5O2+
122.0363	2	C7H6O2+
129.0334	29	C9H5O+
130.0412	6	C9H6O+
131.0491	80	C9H7O+
132.0204	3	C8H4O2+
132.0568	3	C9H8O+
133.0284	4	C8H5O2+
133.0647	6	C9H9O+
134.0363	1	C8H6O2+
135.0441	1	C8H7O2+
143.0495	3	C10H7O+
144.0569	1	C10H8O+
145.0284	79	C9H5O2+
145.0652	4	C10H9O+
146.0362	177	C9H6O2+
147.0446	1	C9H7O2+
150.0308	1	C8H6O3+
157.0284	35	C10H5O2+
158.0362	18	C10H6O2+
159.0443	1	C10H7O2+
161.0597	291	C10H9O2+
162.0308	6	C9H6O3+
173.0234	3	C10H5O3+
173.0595	3	C11H9O2+
174.0311	999	C10H6O3+
178.026	5	C9H6O4+
185.0233	15	C11H5O3+
189.0544	11	C11H9O3+
202.026	315	C11H6O4+
217.0495	8	C12H9O4+
