Mass spectrum: MK-578; LC-ESI-QFT; MS2; CE: 30; R=17500; [M+H]+
Name: MK-578
Name: (2R)-2-[[(1R,3S,4S)-3-[[4-(5-benzyl-2-ethylpyrazol-3-yl)piperidin-1-yl]methyl]-4-(3-fluorophenyl)cyclopentyl]-methylamino]-3-methylbutanoic acid
Formula: C35H47FN4O2
Exact mass: 574.3683
SMILES: CCN1N=C(CC2=CC=CC=C2)C=C1C1CCN(C[C@H]2C[C@@H](C[C@@H]2C2=CC=CC(F)=C2)N(C)[C@H](C(C)C)C(O)=O)CC1
InChI: InChI=1S/C35H47FN4O2/c1-5-40-33(21-30(37-40)18-25-10-7-6-8-11-25)26-14-16-39(17-15-26)23-28-20-31(38(4)34(24(2)3)35(41)42)22-32(28)27-12-9-13-29(36)19-27/h6-13,19,21,24,26,28,31-32,34H,5,14-18,20,22-23H2,1-4H3,(H,41,42)/t28-,31+,32-,34-/m1/s1
Instrument: Q Exactive Orbitrap (Thermo Scientific)
Instrument type: LC-ESI-QFT
Ms type: MS2
Ion mode: POSITIVE
Ionization: ESI
Fragmentation mode: HCD
Collision energy: 30
Resolution: 17500
Column name: Acquity BEH C18 1.7um, 2.1x150mm (Waters)
Retention time: 14.569 min
Base peak: 79.0211
Precursor m/z: 575.3756
Precursor type: [M+H]+
Precursor intensity: 4411618.25
m/z	relative intensity	assigned
58.0651	3	C3H8N+
70.065	2	C4H8N+
79.0542	1	C6H7+
86.0964	10	C5H12N+
91.0542	1	C7H7+
98.0965	10	C6H12N+
109.0449	6	C7H6F+
132.1019	4	C6H14NO2+
147.0605	2	C10H8F+
175.0917	8	C12H12F+
187.1233	1	C12H15N2+
206.1338	4	C13H17FN+
239.1544	1	C16H19N2+
258.166	1	C17H21FN+
270.1962	9	C17H24N3+
282.1964	42	C18H24N3+
304.1711	1	C18H23FNO2+
306.1866	3	C18H25FNO2+
416.2496	2	C27H31FN3+
444.2811	999	C34H36+
529.3699	1	C34H46FN4+
575.376	15	C35H48FN4O2+
