Mass spectrum: Diisobutyl phthalate; LC-ESI-QFT; MS2; CE: 45; R=17500; [M+H]+
Name: Diisobutyl phthalate
Formula: C16H22O4
Exact mass: 278.1518
SMILES: CC(C)COC(=O)C1=C(C=CC=C1)C(=O)OCC(C)C
InChI: InChI=1S/C16H22O4/c1-11(2)9-19-15(17)13-7-5-6-8-14(13)16(18)20-10-12(3)4/h5-8,11-12H,9-10H2,1-4H3
Instrument: Q Exactive Orbitrap (Thermo Scientific)
Instrument type: LC-ESI-QFT
Ms type: MS2
Ion mode: POSITIVE
Ionization: ESI
Fragmentation mode: HCD
Collision energy: 45
Resolution: 17500
Column name: Acquity BEH C18 1.7um, 2.1x150mm (Waters)
Retention time: 19.141 min
Base peak: 79.0212
Precursor m/z: 279.1591
Precursor type: [M+H]+
Precursor intensity: 13776733.59375
m/z	relative intensity	assigned
57.0699	568	C4H9+
109.0649	999	C7H9O+
149.0235	937	C8H5O3+
167.0855	298	C13H11+
