Mass spectrum: Flutriafol; LC-ESI-QFT; MS2; CE: 90; R=17500; [M+H]+
Name: Flutriafol
Name: 1-(2-fluorophenyl)-1-(4-fluorophenyl)-2-(1,2,4-triazol-1-yl)ethanol
Formula: C16H13F2N3O
Exact mass: 301.1027
SMILES: OC(CN1C=NC=N1)(C1=CC=C(F)C=C1)C1=C(F)C=CC=C1
InChI: InChI=1S/C16H13F2N3O/c17-13-7-5-12(6-8-13)16(22,9-21-11-19-10-20-21)14-3-1-2-4-15(14)18/h1-8,10-11,22H,9H2
Instrument: Q Exactive Orbitrap (Thermo Scientific)
Instrument type: LC-ESI-QFT
Ms type: MS2
Ion mode: POSITIVE
Ionization: ESI
Fragmentation mode: HCD
Collision energy: 90
Resolution: 17500
Column name: Acquity BEH C18 1.7um, 2.1x150mm (Waters)
Retention time: 16.275 min
Base peak: 79.0211
Precursor m/z: 302.1099
Precursor type: [M+H]+
Precursor intensity: 5481165.25
m/z	relative intensity	assigned
50.0152	1	C4H2+
53.0022	1	C3HO+
57.0135	1	C3H2F+
70.0399	999	C2H4N3+
71.0291	18	C4H4F+
74.0151	3	C6H2+
74.0964	1	C4H12N+
75.0229	26	C6H3+
79.0179	6	C5H3O+
83.0291	27	C5H4F+
89.0386	3	C7H5+
91.0542	2	C7H7+
93.0335	2	C6H5O+
95.0291	14	C6H4F+
99.0241	4	C5H4FO+
109.0448	203	C7H6F+
111.044	5	C4H5N3O+
112.0319	1	C6H5FO+
113.0397	104	C6H6FO+
123.0242	235	C7H4FO+
123.0351	199	C6H4FN2+
124.0323	1	C7H5FO+
165.0698	8	C13H9+
175.0541	1	C14H7+
183.0603	3	C8H7F2N3+
193.0648	5	C14H9O+
194.0526	12	C14H7F+
195.0605	1	C14H8F+
203.0606	2	C14H7N2+
214.0588	10	C14H8F2+
