Mass spectrum: 1-Naphthol; LC-ESI-QFT; MS2; CE: 15; R=17500; [M+H]+
Name: 1-Naphthol
Name: naphthalen-1-ol
Formula: C10H8O
Exact mass: 144.0575
SMILES: OC1=CC=CC2=CC=CC=C12
InChI: InChI=1S/C10H8O/c11-10-7-3-5-8-4-1-2-6-9(8)10/h1-7,11H
Instrument: Q Exactive Orbitrap (Thermo Scientific)
Instrument type: LC-ESI-QFT
Ms type: MS2
Ion mode: POSITIVE
Ionization: ESI
Fragmentation mode: HCD
Collision energy: 15
Resolution: 17500
Column name: Acquity BEH C18 1.7um, 2.1x150mm (Waters)
Retention time: 18.171 min
Base peak: 79.0211
Precursor m/z: 145.0648
Precursor type: [M+H]+
Precursor intensity: 8287143.046875
m/z	relative intensity	assigned
51.023	1	C4H3+
63.0229	1	C5H3+
89.0384	1	C7H5+
91.0542	181	C7H7+
102.0464	128	C8H6+
105.0333	1	C7H5O+
114.0464	1	C9H6+
115.0542	999	C9H7+
116.062	20	C9H8+
117.0698	821	C9H9+
130.0413	257	C9H6O+
133.0645	1	C9H9O+
145.0648	707	C10H9O+
