Mass spectrum: Tetraconazole; LC-ESI-QFT; MS2; CE: 75; R=17500; [M+H]+
Name: Tetraconazole
Name: 1-[2-(2,4-dichlorophenyl)-3-(1,1,2,2-tetrafluoroethoxy)propyl]-1,2,4-triazole
Formula: C13H11Cl2F4N3O
Exact mass: 371.0215
SMILES: FC(F)C(F)(F)OCC(CN1C=NC=N1)C1=C(Cl)C=C(Cl)C=C1
InChI: InChI=1S/C13H11Cl2F4N3O/c14-9-1-2-10(11(15)3-9)8(4-22-7-20-6-21-22)5-23-13(18,19)12(16)17/h1-3,6-8,12H,4-5H2
Instrument: Q Exactive Orbitrap (Thermo Scientific)
Instrument type: LC-ESI-QFT
Ms type: MS2
Ion mode: POSITIVE
Ionization: ESI
Fragmentation mode: HCD
Collision energy: 75
Resolution: 17500
Column name: Acquity BEH C18 1.7um, 2.1x150mm (Waters)
Retention time: 17.947 min
Base peak: 79.0212
Precursor m/z: 372.0288
Precursor type: [M+H]+
Precursor intensity: 15249613.96875
m/z	relative intensity	assigned
59.0291	1	C3H4F+
63.023	1	C5H3+
65.0385	1	C5H5+
70.0399	435	C2H4N3+
72.9838	2	C3H2Cl+
89.0385	13	C7H5+
98.9996	16	C5H4Cl+
103.0542	1	C8H7+
115.0542	77	C9H7+
122.9996	100	C7H4Cl+
124.0074	27	C7H5Cl+
125.0149	2	C2H5ClFN3+
132.9606	12	C5H3Cl2+
133.0448	1	C9H6F+
135.0603	1	C4H7F2N3+
149.0153	33	C9H6Cl+
150.0231	35	C9H7Cl+
158.9762	999	C7H5Cl2+
171.0023	1	C2H9Cl2F2NO+
176.9668	15	C7H4Cl2F+
