Mass spectrum: Thalidomide; LC-ESI-QFT; MS2; CE: 75; R=17500; [M-H]-
Name: Thalidomide
Formula: C13H10N2O4
Exact mass: 258.0641
SMILES: O=C1N(C2CCC(=O)NC2=O)C(=O)C2=CC=CC=C12
InChI: InChI=1S/C13H10N2O4/c16-10-6-5-9(11(17)14-10)15-12(18)7-3-1-2-4-8(7)13(15)19/h1-4,9H,5-6H2,(H,14,16,17)
Instrument: Q Exactive Orbitrap (Thermo Scientific)
Instrument type: LC-ESI-QFT
Ms type: MS2
Ion mode: NEGATIVE
Ionization: ESI
Fragmentation mode: HCD
Collision energy: 75
Resolution: 17500
Column name: Acquity BEH C18 1.7um, 2.1x150mm (Waters)
Retention time: 16.757 min
Base peak: 291.0599
Precursor m/z: 257.0568
Precursor type: [M-H]-
Precursor intensity: 535334.0175781
m/z	relative intensity	assigned
65.9986	115	C3NO-
66.035	151	C4H4N-
67.0189	49	C4H3O-
68.0142	25	C3H2NO-
78.0349	81	C5H4N-
90.0349	68	C6H4N-
91.0302	78	C5H3N2-
92.0142	73	C5H2NO-
94.0299	999	C5H4NO-
95.0139	72	C5H3O2-
106.03	97	C6H4NO-
107.0377	996	C6H5NO-
108.0455	598	C6H6NO-
118.0299	989	C7H4NO-
119.0251	298	C6H3N2O-
134.0247	264	C7H4NO2-
135.0326	21	C7H5NO2-
136.0404	133	C7H6NO2-
146.025	25	C8H4NO2-
152.0352	42	C7H6NO3-
182.0487	25	C11H6N2O-
183.0564	61	C11H7N2O-
185.0727	30	C11H9N2O-
211.0507	35	C12H7N2O2-
