Mass spectrum: 2-Amino-6-nitrobenzothiazole; LC-ESI-QFT; MS2; CE: 60; R=17500; [M+H]+
Name: 2-Amino-6-nitrobenzothiazole
Name: 6-nitro-1,3-benzothiazol-2-amine
Formula: C7H5N3O2S
Exact mass: 195.0102
SMILES: NC1=NC2=CC=C(C=C2S1)[N+]([O-])=O
InChI: InChI=1S/C7H5N3O2S/c8-7-9-5-2-1-4(10(11)12)3-6(5)13-7/h1-3H,(H2,8,9)
Instrument: Q Exactive Orbitrap (Thermo Scientific)
Instrument type: LC-ESI-QFT
Ms type: MS2
Ion mode: POSITIVE
Ionization: ESI
Fragmentation mode: HCD
Collision energy: 60
Resolution: 17500
Column name: Acquity BEH C18 1.7um, 2.1x150mm (Waters)
Retention time: 14.474 min
Base peak: 79.0211
Precursor m/z: 196.0175
Precursor type: [M+H]+
Precursor intensity: 1676601.5
m/z	relative intensity	assigned
59.9902	1	CH2NS+
61.0107	7	C2H5S+
72.0443	2	C3H6NO+
84.0028	2	C4H4S+
88.0216	4	C3H6NS+
89.0249	2	C6H3N+
91.0416	1	C6H5N+
96.0028	7	C5H4S+
99.0137	2	C4H5NS+
106.0528	1	C6H6N2+
111.0137	5	C5H5NS+
111.9977	2	C5H4OS+
118.0526	1	C7H6N2+
123.0137	24	C6H5NS+
126.0247	11	C5H6N2S+
138.0247	43	C6H6N2S+
141.0114	1	C5H5N2OS+
149.0169	1	C7H5N2S+
150.0247	520	C7H6N2S+
153.0118	5	C6H5N2OS+
165.0114	5	C7H5N2OS+
166.0195	33	C7H6N2OS+
182.0144	999	C7H6N2O2S+
184.0188	4	C6H6N3O2S+
196.0176	80	C7H6N3O2S+
