Mass spectrum: SAR115740; LC-ESI-QFT; MS2; CE: 90; R=17500; [M-H]-
Name: SAR115740
Name: 5-fluoro-1-[(3-fluorophenyl)methyl]-N-(1H-indol-5-yl)indole-2-carboxamide
Formula: C24H17F2N3O
Exact mass: 401.1340
SMILES: FC1=CC=C2N(CC3=CC(F)=CC=C3)C(=CC2=C1)C(=O)NC1=CC=C2NC=CC2=C1
InChI: InChI=1S/C24H17F2N3O/c25-18-3-1-2-15(10-18)14-29-22-7-4-19(26)11-17(22)13-23(29)24(30)28-20-5-6-21-16(12-20)8-9-27-21/h1-13,27H,14H2,(H,28,30)
Instrument: Q Exactive Orbitrap (Thermo Scientific)
Instrument type: LC-ESI-QFT
Ms type: MS2
Ion mode: NEGATIVE
Ionization: ESI
Fragmentation mode: HCD
Collision energy: 90
Resolution: 17500
Column name: Acquity BEH C18 1.7um, 2.1x150mm (Waters)
Retention time: 18.334 min
Base peak: 292.0981
Precursor m/z: 400.1267
Precursor type: [M-H]-
Precursor intensity: 7002181.707031
m/z	relative intensity	assigned
75.0241	999	C6H3-
95.0303	187	C6H4F-
114.0349	29	C8H4N-
120.0254	3	C7H3FN-
126.035	735	C9H4N-
129.0459	76	C8H5N2-
130.0538	23	C8H6N2-
131.0378	4	C8H5NO-
134.0412	26	C8H5FN-
139.02	5	C10H3O-
146.0412	17	C9H5FN-
157.0408	263	C9H5N2O-
159.0364	4	C9H4FN2-
170.0408	10	C11H5FN-
220.0569	12	C15H7FN-
221.0646	5	C15H8FN-
222.0725	4	C15H9FN-
240.0625	4	C15H8F2N-
