Mass spectrum: Clothianidin; LC-ESI-QFT; MS2; CE: 60; R=17500; [M-H]-
Name: Clothianidin
Name: 1-[(2-chloro-1,3-thiazol-5-yl)methyl]-2-methyl-3-nitroguanidine
Formula: C6H8ClN5O2S
Exact mass: 249.0087
SMILES: CN\C(NCC1=CN=C(Cl)S1)=N/[N+]([O-])=O
InChI: InChI=1S/C6H8ClN5O2S/c1-8-6(11-12(13)14)10-3-4-2-9-5(7)15-4/h2H,3H2,1H3,(H2,8,10,11)
Instrument: Q Exactive Orbitrap (Thermo Scientific)
Instrument type: LC-ESI-QFT
Ms type: MS2
Ion mode: NEGATIVE
Ionization: ESI
Fragmentation mode: HCD
Collision energy: 60
Resolution: 17500
Column name: Acquity BEH C18 1.7um, 2.1x150mm (Waters)
Retention time: 12.515 min
Base peak: 248.0015
Precursor m/z: 248.0014
Precursor type: [M-H]-
Precursor intensity: 15311591.30957
m/z	relative intensity	assigned
55.0301	50	C2H3N2-
56.9804	8	C2HS-
57.9756	999	CNS-
61.0043	56	HN2O2-
68.0143	1	C3H2NO-
79.0175	2	C3HN3-
81.9756	1	C3NS-
83.9913	2	C3H2NS-
85.9997	2	CN3O2-
86.0069	1	C3H4NS-
90.0097	2	C4N3-
92.0255	7	C4H2N3-
95.0251	9	C4H3N2O-
96.9866	1	C3HN2S-
107.0126	1	C4HN3O-
111.0022	41	C4H3N2S-
113.0176	1	C4H5N2S-
117.0205	1	C5HN4-
117.9523	24	C3HClNS-
119.0365	3	C5H3N4-
122.036	5	C5H4N3O-
122.9897	3	C4HN3S-
123.9974	1	C4H2N3S-
125.9893	1	C4H2N2OS-
132.044	2	C6H4N4-
133.0518	4	C6H5N4-
135.9974	2	C5H2N3S-
138.013	2	C5H4N3S-
148.9927	11	C5HN4S-
150.0005	99	C5H2N4S-
151.0082	6	C5H3N4S-
163.0083	1	C6H3N4S-
165.024	43	C6H5N4S-
