Mass spectrum: Bentazone; LC-ESI-QFT; MS2; CE: 45; R=17500; [M-H]-
Name: Bentazone
Name: 2,2-dioxo-3-propan-2-yl-1H-2lambda6,1,3-benzothiadiazin-4-one
Formula: C10H12N2O3S
Exact mass: 240.0569
SMILES: CC(C)N1C(=O)C2=C(NS1(=O)=O)C=CC=C2
InChI: InChI=1S/C10H12N2O3S/c1-7(2)12-10(13)8-5-3-4-6-9(8)11-16(12,14)15/h3-7,11H,1-2H3
Instrument: Q Exactive Orbitrap (Thermo Scientific)
Instrument type: LC-ESI-QFT
Ms type: MS2
Ion mode: NEGATIVE
Ionization: ESI
Fragmentation mode: HCD
Collision energy: 45
Resolution: 17500
Column name: Acquity BEH C18 1.7um, 2.1x150mm (Waters)
Retention time: 15.674 min
Base peak: 239.0496
Precursor m/z: 239.0496
Precursor type: [M-H]-
Precursor intensity: 66054465.76465
m/z	relative intensity	assigned
69.0347	1	C4H5O-
77.9656	4	NO2S-
79.9573	11	O3S-
105.0346	9	C7H5O-
116.038	7	C7H4N2-
117.0459	52	C7H5N2-
121.0296	6	C7H5O2-
123.045	1	C7H7O2-
130.0426	2	C9H6O-
132.0329	999	C7H4N2O-
133.0407	466	C7H5N2O-
134.025	1	C7H4NO2-
145.0409	3	C8H5N2O-
145.066	12	C10H9O-
147.0816	50	C10H11O-
153.9971	2	C6H4NO2S-
159.0565	1	C9H7N2O-
175.0877	626	C10H11N2O-
194.987	2	C7H3N2O3S-
195.9949	93	C7H4N2O3S-
197.0026	728	C7H5N2O3S-
239.0496	773	C10H11N2O3S-
