Mass spectrum: Ilepatril; LC-ESI-QFT; MS2; CE: 45; R=17500; [M-H]-
Name: Ilepatril
Name: (4S,7S,12bR)-7-[[(2S)-2-acetylsulfanyl-3-methylbutanoyl]amino]-6-oxo-2,3,4,7,8,12b-hexahydro-1H-pyrido[2,1-a][2]benzazepine-4-carboxylic acid
Formula: C22H28N2O5S
Exact mass: 432.1719
SMILES: CC(C)[C@H](SC(C)=O)C(=O)N[C@H]1CC2=C(C=CC=C2)[C@H]2CCC[C@H](N2C1=O)C(O)=O
InChI: InChI=1S/C22H28N2O5S/c1-12(2)19(30-13(3)25)20(26)23-16-11-14-7-4-5-8-15(14)17-9-6-10-18(22(28)29)24(17)21(16)27/h4-5,7-8,12,16-19H,6,9-11H2,1-3H3,(H,23,26)(H,28,29)/t16-,17+,18-,19-/m0/s1
Instrument: Q Exactive Orbitrap (Thermo Scientific)
Instrument type: LC-ESI-QFT
Ms type: MS2
Ion mode: NEGATIVE
Ionization: ESI
Fragmentation mode: HCD
Collision energy: 45
Resolution: 17500
Column name: Acquity BEH C18 1.7um, 2.1x150mm (Waters)
Retention time: 16.862 min
Base peak: 231.0097
Precursor m/z: 431.1646
Precursor type: [M-H]-
Precursor intensity: 13015658.5127
m/z	relative intensity	assigned
58.0299	5	C2H4NO-
59.0138	61	C2H3O2-
59.9914	3	CH2NS-
69.0095	2	C2HN2O-
71.0251	20	C2H3N2O-
72.9754	7	C2HOS-
74.991	362	C2H3OS-
80.0505	2	C5H6N-
82.0663	3	C5H8N-
83.0502	3	C5H7O-
85.0295	11	C4H5O2-
87.0275	35	C4H7S-
87.9989	13	C3H4OS-
88.9941	293	C2H3NOS-
90.0019	22	C2H4NOS-
96.0819	4	C6H10N-
97.0043	2	C3HN2O2-
97.0169	2	C4H3NO2-
98.0123	4	C3H2N2O2-
98.0611	8	C5H8NO-
99.0201	15	C3H3N2O2-
99.0817	4	C6H11O-
100.0769	15	C5H10NO-
101.0609	4	C5H9O2-
102.035	6	C7H4N-
103.0223	7	C4H7OS-
112.0768	31	C6H10NO-
114.0383	37	C5H8NS-
115.0223	92	C5H7OS-
116.0541	2	C5H10NS-
117.038	10	C5H9OS-
119.0503	5	C8H7O-
126.9972	23	C4H3N2OS-
131.0377	25	C8H5NO-
131.0538	22	C6H11OS-
132.0489	999	C5H10NOS-
133.0326	2	C5H9O2S-
137.0718	4	C7H9N2O-
139.0515	2	C6H7N2O2-
140.0717	569	C7H10NO2-
141.0709	13	C11H9-
142.0661	16	C10H8N-
143.0503	4	C10H7O-
144.045	3	C9H6NO-
145.0077	5	C4H5N2O2S-
145.0656	9	C10H9O-
146.0614	4	C9H8NO-
154.0663	3	C11H8N-
155.0866	2	C12H11-
156.0489	10	C7H10NOS-
156.0579	3	C11H8O-
156.0819	25	C11H10N-
157.0659	6	C11H9O-
157.1024	6	C12H13-
158.0611	14	C10H8NO-
160.0763	3	C10H10NO-
166.0662	11	C12H8N-
168.082	40	C12H10N-
169.1024	8	C13H13-
171.069	30	C11H9NO-
171.0814	3	C12H11O-
172.0769	6	C11H10NO-
172.113	6	C12H14N-
174.1289	3	C12H16N-
181.0526	4	C12H7NO-
182.0612	7	C12H8NO-
182.0973	8	C13H12N-
183.0693	2	C6H15O4S-
183.0818	5	C13H11O-
184.0767	9	C12H10NO-
184.1131	38	C13H14N-
185.0974	3	C13H13O-
192.0818	4	C14H10N-
194.0975	22	C14H12N-
195.0815	10	C14H11O-
199.1243	5	C13H15N2-
201.0379	3	C12H9OS-
202.1238	3	C13H16NO-
203.059	43	C11H9NO3-
209.1087	6	C14H13N2-
210.0924	14	C14H12NO-
211.124	11	C14H15N2-
212.1081	671	C14H14NO-
214.0874	172	C13H12NO2-
222.0924	6	C15H12NO-
225.1035	10	C14H13N2O-
227.1191	97	C14H15N2O-
228.1031	74	C14H14NO2-
229.1346	174	C14H17N2O-
230.1186	6	C14H16NO2-
237.1025	2	C15H13N2O-
240.1031	11	C15H14NO2-
255.1142	18	C15H15N2O2-
256.0979	20	C15H14NO3-
257.1302	4	C9H23NO5S-
266.1552	3	C18H20NO-
267.1867	3	C18H23N2-
268.1706	38	C18H22NO-
271.109	16	C15H15N2O3-
273.1246	364	C15H17N2O3-
283.1085	8	C16H15N2O3-
284.0994	4	C16H16N2OS-
294.1494	4	C19H20NO2-
302.1092	10	C16H18N2O2S-
311.176	10	C19H23N2O2-
312.1595	3	C19H22NO3-
327.1539	8	C19H23N2OS-
328.0887	3	C17H16N2O3S-
345.1648	6	C19H25N2O2S-
355.1661	3	C20H23N2O4-
371.1432	4	C20H23N2O3S-
389.1525	3	C20H25N2O4S-
