Mass spectrum: Quizalofop-ethyl; LC-ESI-QFT; MS2; CE: 15; R=17500; [M+H]+
Name: Quizalofop-ethyl
Name: ethyl 2-[4-(6-chloroquinoxalin-2-yl)oxyphenoxy]propanoate
Formula: C19H17ClN2O4
Exact mass: 372.0877
SMILES: CCOC(=O)C(C)OC1=CC=C(OC2=CN=C3C=C(Cl)C=CC3=N2)C=C1
InChI: InChI=1S/C19H17ClN2O4/c1-3-24-19(23)12(2)25-14-5-7-15(8-6-14)26-18-11-21-17-10-13(20)4-9-16(17)22-18/h4-12H,3H2,1-2H3
Instrument: Q Exactive Orbitrap (Thermo Scientific)
Instrument type: LC-ESI-QFT
Ms type: MS2
Ion mode: POSITIVE
Ionization: ESI
Fragmentation mode: HCD
Collision energy: 15
Resolution: 17500
Column name: Acquity BEH C18 1.7um, 2.1x150mm (Waters)
Retention time: 19.435 min
Base peak: 79.0211
Precursor m/z: 373.095
Precursor type: [M+H]+
Precursor intensity: 12043441.64063
m/z	relative intensity	assigned
163.0068	1	C8H4ClN2+
273.0421	1	C17H7NO3+
285.0416	2	C18H7NO3+
299.0582	241	C16H12ClN2O2+
327.0527	2	C17H12ClN2O3+
345.0641	3	C17H14ClN2O4+
373.095	999	C19H18ClN2O4+
