Mass spectrum: SSR 241586 HCl; LC-ESI-QFT; MS2; CE: 15; R=17500; [M+H]+
Name: SSR 241586 HCl
Name: 1-[2-[(2R)-4-benzoyl-2-(3,4-dichlorophenyl)morpholin-2-yl]ethyl]-N,N-dimethyl-4-piperidin-1-ylpiperidine-4-carboxamide
Formula: C32H42Cl2N4O3
Exact mass: 600.2634
SMILES: CN(C)C(=O)C1(N2CCCCC2)CCN(CC[C@@]2(c3ccc(Cl)c(Cl)c3)CN(C(=O)c3ccccc3)CCO2)CC1
InChI: InChI=1S/C32H42Cl2N4O3/c1-35(2)30(40)31(38-16-7-4-8-17-38)13-18-36(19-14-31)20-15-32(26-11-12-27(33)28(34)23-26)24-37(21-22-41-32)29(39)25-9-5-3-6-10-25/h3,5-6,9-12,23H,4,7-8,13-22,24H2,1-2H3/t32-/m0/s1
Instrument: Q Exactive Orbitrap (Thermo Scientific)
Instrument type: LC-ESI-QFT
Ms type: MS2
Ion mode: POSITIVE
Ionization: ESI
Fragmentation mode: HCD
Collision energy: 15
Resolution: 17500
Column name: Acquity BEH C18 1.7um, 2.1x150mm (Waters)
Retention time: 16.670 min
Base peak: 79.0211
Precursor m/z: 601.2707
Precursor type: [M+H]+
Precursor intensity: 9243035
m/z	relative intensity	assigned
58.0651	88	C3H8N+
126.0914	10	C7H12NO+
138.1278	101	C9H16N+
516.1823	56	C27H32Cl2N3O3+
601.2714	999	C32H43Cl2N4O3+
