Mass spectrum: 1-Naphthol; LC-ESI-QFT; MS2; CE: 75; R=17500; [M+H]+
Name: 1-Naphthol
Name: naphthalen-1-ol
Formula: C10H8O
Exact mass: 144.0575
SMILES: OC1=CC=CC2=CC=CC=C12
InChI: InChI=1S/C10H8O/c11-10-7-3-5-8-4-1-2-6-9(8)10/h1-7,11H
Instrument: Q Exactive Orbitrap (Thermo Scientific)
Instrument type: LC-ESI-QFT
Ms type: MS2
Ion mode: POSITIVE
Ionization: ESI
Fragmentation mode: HCD
Collision energy: 75
Resolution: 17500
Column name: Acquity BEH C18 1.7um, 2.1x150mm (Waters)
Retention time: 18.171 min
Base peak: 79.0211
Precursor m/z: 145.0648
Precursor type: [M+H]+
Precursor intensity: 10091260
m/z	relative intensity	assigned
50.0152	1	C4H2+
63.023	2	C5H3+
65.0385	14	C5H5+
76.0307	4	C6H4+
89.0386	27	C7H5+
91.0542	243	C7H7+
101.0384	1	C8H5+
102.0464	999	C8H6+
114.0465	1	C9H6+
115.0542	556	C9H7+
116.062	21	C9H8+
117.0699	33	C9H9+
130.0414	84	C9H6O+
145.0648	7	C10H9O+
