Mass spectrum: Ingliforib; LC-ESI-QFT; MS2; CE: 90; R=17500; [M-H]-
Name: Ingliforib
Name: 5-chloro-N-[(2S,3R)-4-[(3R,4S)-3,4-dihydroxypyrrolidin-1-yl]-3-hydroxy-4-oxo-1-phenylbutan-2-yl]-1H-indole-2-carboxamide
Formula: C23H24ClN3O5
Exact mass: 457.1404
SMILES: O[C@H]([C@H](CC1=CC=CC=C1)NC(=O)C1=CC2=CC(Cl)=CC=C2N1)C(=O)N1C[C@H](O)[C@H](O)C1
InChI: InChI=1S/C23H24ClN3O5/c24-15-6-7-16-14(9-15)10-18(25-16)22(31)26-17(8-13-4-2-1-3-5-13)21(30)23(32)27-11-19(28)20(29)12-27/h1-7,9-10,17,19-21,25,28-30H,8,11-12H2,(H,26,31)/t17-,19-,20+,21+/m0/s1
Instrument: Q Exactive Orbitrap (Thermo Scientific)
Instrument type: LC-ESI-QFT
Ms type: MS2
Ion mode: NEGATIVE
Ionization: ESI
Fragmentation mode: HCD
Collision energy: 90
Resolution: 17500
Column name: Acquity BEH C18 1.7um, 2.1x150mm (Waters)
Retention time: 17.345 min
Base peak: 112.9855
Precursor m/z: 456.1332
Precursor type: [M-H]-
Precursor intensity: 16894269.96582
m/z	relative intensity	assigned
58.0299	8	C2H4NO-
59.0138	6	C2H3O2-
66.035	537	C4H4N-
68.0142	14	C3H2NO-
70.0299	16	C3H4NO-
71.0139	46	C3H3O2-
72.9931	3	C2HO3-
73.0295	18	C3H5O2-
75.0089	3	C2H3O3-
76.0193	7	C5H2N-
81.9935	4	C3NO2-
82.0298	20	C4H4NO-
84.0091	4	C3H2NO2-
84.0455	9	C4H6NO-
85.017	5	C3H3NO2-
86.0247	5	C3H4NO2-
88.0404	3	C3H6NO2-
90.0351	6	C6H4N-
91.0553	4	C7H7-
94.0299	2	C5H4NO-
96.0456	8	C5H6NO-
98.0248	5	C4H4NO2-
100.0405	46	C4H6NO2-
101.0271	46	C7H3N-
102.0561	16	C4H8NO2-
111.0007	11	C6H4Cl-
114.0349	348	C8H4N-
116.0506	26	C8H6N-
117.0222	3	C7H3NO-
117.0346	9	C8H5O-
118.0662	3	C8H8N-
125.0039	3	C6H4ClN-
126.9957	27	C6H4ClO-
135.996	8	C7H3ClN-
139.0303	67	C9H3N2-
144.0456	2	C9H6NO-
146.0487	5	C8H6N2O-
149.0039	35	C8H4ClN-
150.0117	999	C8H5ClN-
151.9913	7	C7H3ClNO-
164.9988	198	C8H4ClNO-
174.012	9	C10H5ClN-
175.007	116	C9H4ClN2-
178.0068	10	C9H5ClNO-
179.9857	12	C8H3ClNO2-
188.015	5	C10H5ClN2-
191.0018	7	C9H4ClN2O-
193.0174	22	C9H6ClN2O-
205.0176	16	C10H6ClN2O-
217.0181	7	C11H6ClN2O-
233.013	2	C11H6ClN2O2-
