Mass spectrum: Bupropion; LC-ESI-QFT; MS2; CE: 45; R=17500; [M+H]+
Name: Bupropion
Name: 2-(tert-butylamino)-1-(3-chlorophenyl)propan-1-one
Formula: C13H18ClNO
Exact mass: 239.1077
SMILES: CC(NC(C)(C)C)C(=O)C1=CC=CC(Cl)=C1
InChI: InChI=1S/C13H18ClNO/c1-9(15-13(2,3)4)12(16)10-6-5-7-11(14)8-10/h5-9,15H,1-4H3
Instrument: Q Exactive Orbitrap (Thermo Scientific)
Instrument type: LC-ESI-QFT
Ms type: MS2
Ion mode: POSITIVE
Ionization: ESI
Fragmentation mode: HCD
Collision energy: 45
Resolution: 17500
Column name: Acquity BEH C18 1.7um, 2.1x150mm (Waters)
Retention time: 13.424 min
Base peak: 79.0211
Precursor m/z: 240.115
Precursor type: [M+H]+
Precursor intensity: 24883277.75
m/z	relative intensity	assigned
57.0699	271	C4H9+
77.0386	1	C6H5+
103.0542	11	C8H7+
130.0651	13	C9H8N+
131.073	710	C9H9N+
132.0569	6	C9H8O+
134.0964	19	C9H12N+
139.0309	272	C8H8Cl+
148.0755	1	C9H10NO+
151.0183	4	C8H6ClN+
158.0716	2	C11H10O+
166.0418	999	C9H9ClN+
167.0258	485	C9H8ClO+
184.0524	400	C9H11ClNO+
