Mass spectrum: CP-532623; LC-ESI-QFT; MS2; CE: 45; R=17500; [M-H]-
Name: CP-532623
Name: propan-2-yl (2R,4S)-4-[acetyl-[[3,5-bis(trifluoromethyl)phenyl]methyl]amino]-2-ethyl-6-(trifluoromethyl)-3,4-dihydro-2H-quinoline-1-carboxylate
Formula: C27H27F9N2O3
Exact mass: 598.1878
SMILES: CC[C@@H]1C[C@H](N(CC2=CC(=CC(=C2)C(F)(F)F)C(F)(F)F)C(C)=O)C2=C(C=CC(=C2)C(F)(F)F)N1C(=O)OC(C)C
InChI: InChI=1S/C27H27F9N2O3/c1-5-20-12-23(21-11-17(25(28,29)30)6-7-22(21)38(20)24(40)41-14(2)3)37(15(4)39)13-16-8-18(26(31,32)33)10-19(9-16)27(34,35)36/h6-11,14,20,23H,5,12-13H2,1-4H3/t20-,23+/m1/s1
Instrument: Q Exactive Orbitrap (Thermo Scientific)
Instrument type: LC-ESI-QFT
Ms type: MS2
Ion mode: NEGATIVE
Ionization: ESI
Fragmentation mode: HCD
Collision energy: 45
Resolution: 17500
Column name: Acquity BEH C18 1.7um, 2.1x150mm (Waters)
Retention time: 19.739 min
Base peak: 249.1496
Precursor m/z: 597.1805
Precursor type: [M-H]-
Precursor intensity: 1421626.65625
m/z	relative intensity	assigned
57.0345	4	C3H5O-
58.0298	7	C2H4NO-
68.9957	4	CF3-
197.0455	5	C2H7F8N-
212.0696	5	C11H9F3N-
213.0145	56	C8H3F6-
224.0693	40	C12H9F3N-
225.0407	19	C11H6F3NO-
227.0302	999	C17H4F-
228.1004	6	C4H14F8N-
229.036	14	C10H6F3NO2-
234.0733	4	C5H11F7NO-
241.0458	10	C10H7F6-
253.0092	19	C10H3F6O-
254.0799	136	C13H11F3NO-
262.0293	15	C11H5F5NO-
267.0754	21	C13H10F3N2O-
280.0952	3	C7H14F8NO-
294.1313	15	C16H18F2NO2-
310.031	19	C20H5FNO2-
375.0619	14	C21H9F6-
435.0796	9	C21H12F9-
436.0734	5	C25H12F4O3-
