Mass spectrum: 1,2-Dimethyl-5-nitroimidazole; LC-ESI-QFT; MS2; CE: 75; R=17500; [M+H]+
Name: 1,2-Dimethyl-5-nitroimidazole
Name: Dimetridazole
Formula: C5H7N3O2
Exact mass: 141.0538
SMILES: CN1C(C)=NC=C1[N+]([O-])=O
InChI: InChI=1S/C5H7N3O2/c1-4-6-3-5(7(4)2)8(9)10/h3H,1-2H3
Instrument: Q Exactive Orbitrap (Thermo Scientific)
Instrument type: LC-ESI-QFT
Ms type: MS2
Ion mode: POSITIVE
Ionization: ESI
Fragmentation mode: HCD
Collision energy: 75
Resolution: 17500
Column name: Acquity BEH C18 1.7um, 2.1x150mm (Waters)
Retention time: 7.630 min
Base peak: 79.0211
Precursor m/z: 142.0611
Precursor type: [M+H]+
Precursor intensity: 3425088.5
m/z	relative intensity	assigned
54.0338	268	C3H4N+
55.0417	133	C3H5N+
56.0495	701	C3H6N+
57.0447	2	C2H5N2+
58.0287	3	C2H4NO+
68.0368	4	C3H4N2+
68.0494	15	C4H6N+
69.0448	2	C3H5N2+
71.0129	3	C3H3O2+
72.0683	6	C3H8N2+
81.0447	615	C4H5N2+
83.0604	3	C4H7N2+
95.0604	999	C5H7N2+
96.0682	141	C5H8N2+
97.0397	2	C4H5N2O+
111.043	1	C4H5N3O+
112.0631	344	C5H8N2O+
142.0612	83	C5H8N3O2+
