Mass spectrum: N-Octyl-2-pyrrolidone; LC-ESI-QFT; MS2; CE: 45; R=17500; [M+H]+
Name: N-Octyl-2-pyrrolidone
Name: 1-octylpyrrolidin-2-one
Formula: C12H23NO
Exact mass: 197.1780
SMILES: CCCCCCCCN1CCCC1=O
InChI: InChI=1S/C12H23NO/c1-2-3-4-5-6-7-10-13-11-8-9-12(13)14/h2-11H2,1H3
Instrument: Q Exactive Orbitrap (Thermo Scientific)
Instrument type: LC-ESI-QFT
Ms type: MS2
Ion mode: POSITIVE
Ionization: ESI
Fragmentation mode: HCD
Collision energy: 45
Resolution: 17500
Column name: Acquity BEH C18 1.7um, 2.1x150mm (Waters)
Retention time: 18.547 min
Base peak: 79.0211
Precursor m/z: 198.1852
Precursor type: [M+H]+
Precursor intensity: 55495644.6875
m/z	relative intensity	assigned
53.0022	2	C3HO+
57.0699	58	C4H9+
68.0494	1	C4H6N+
69.0334	15	C4H5O+
70.0652	1	C4H8N+
71.0854	47	C5H11+
86.06	663	C4H8NO+
98.0599	10	C5H8NO+
100.0756	3	C5H10NO+
114.0913	6	C6H12NO+
128.1069	12	C7H14NO+
142.1225	5	C8H16NO+
156.1385	1	C9H18NO+
198.1852	999	C12H24NO+
