Mass spectrum: 3-Methyl-N-phenylaniline; LC-ESI-QFT; MS2; CE: 60; R=17500; [M+H]+
Name: 3-Methyl-N-phenylaniline
Name: 3-Methyldiphenylamine
Formula: C13H13N
Exact mass: 183.1048
SMILES: CC1=CC(NC2=CC=CC=C2)=CC=C1
InChI: InChI=1S/C13H13N/c1-11-6-5-9-13(10-11)14-12-7-3-2-4-8-12/h2-10,14H,1H3
Instrument: Q Exactive Orbitrap (Thermo Scientific)
Instrument type: LC-ESI-QFT
Ms type: MS2
Ion mode: POSITIVE
Ionization: ESI
Fragmentation mode: HCD
Collision energy: 60
Resolution: 17500
Column name: Acquity BEH C18 1.7um, 2.1x150mm (Waters)
Retention time: 18.660 min
Base peak: 79.0212
Precursor m/z: 184.1121
Precursor type: [M+H]+
Precursor intensity: 9254477.75
m/z	relative intensity	assigned
53.0386	2	C4H5+
65.0385	71	C5H5+
66.0464	4	C5H6+
67.0541	2	C5H7+
77.0386	2	C6H5+
79.0542	87	C6H7+
91.0542	47	C7H7+
92.0495	576	C6H6N+
93.0573	538	C6H7N+
106.0652	352	C7H8N+
107.0729	999	C7H9N+
128.0618	1	C10H8+
129.0698	3	C10H9+
130.0652	1	C9H8N+
141.0697	1	C11H9+
142.0779	7	C11H10+
143.0729	2	C10H9N+
143.0856	1	C11H11+
144.0807	1	C10H10N+
152.0621	19	C12H8+
154.065	9	C11H8N+
155.0731	2	C11H9N+
156.0807	2	C11H10N+
157.1011	3	C12H13+
165.07	13	C13H9+
166.0779	5	C13H10+
167.0733	3	C12H9N+
167.0855	12	C13H11+
168.0808	46	C12H10N+
169.0886	577	C12H11N+
182.0965	4	C13H12N+
183.1046	15	C13H13N+
184.1121	619	C13H14N+
