Mass spectrum: SAR 150640; LC-ESI-QFT; MS2; CE: 75; R=17500; [M-H]-
Name: SAR 150640
Name: ethyl 4-[4-[[(2S)-2-hydroxy-3-[4-hydroxy-3-(methanesulfonamido)phenoxy]propyl]amino]cyclohexyl]benzoate
Formula: C25H34N2O7S
Exact mass: 506.2087
SMILES: CCOC(=O)c1ccc([C@H]2CC[C@H](NC[C@H](O)COc3ccc(O)c(NS(C)(=O)=O)c3)CC2)cc1
InChI: InChI=1S/C25H34N2O7S/c1-3-33-25(30)19-6-4-17(5-7-19)18-8-10-20(11-9-18)26-15-21(28)16-34-22-12-13-24(29)23(14-22)27-35(2,31)32/h4-7,12-14,18,20-21,26-29H,3,8-11,15-16H2,1-2H3/t18-,20-,21-/m0/s1
Instrument: Q Exactive Orbitrap (Thermo Scientific)
Instrument type: LC-ESI-QFT
Ms type: MS2
Ion mode: NEGATIVE
Ionization: ESI
Fragmentation mode: HCD
Collision energy: 75
Resolution: 17500
Column name: Acquity BEH C18 1.7um, 2.1x150mm (Waters)
Retention time: 14.571 min
Base peak: 112.9857
Precursor m/z: 505.2014
Precursor type: [M-H]-
Precursor intensity: 327928.690918
m/z	relative intensity	assigned
63.9624	999	O2S-
78.986	398	CH3O2S-
94.0299	20	C5H4NO-
122.0248	54	C6H4NO2-
