Mass spectrum: Diflufenzopyr; LC-ESI-QFT; MS2; CE: 75; R=17500; [M+H]+
Name: Diflufenzopyr
Name: 2-[(E)-N-[(3,5-difluorophenyl)carbamoylamino]-C-methylcarbonimidoyl]pyridine-3-carboxylic acid
Formula: C15H12F2N4O3
Exact mass: 334.0877
SMILES: C\C(=N/NC(=O)NC1=CC(F)=CC(F)=C1)C1=NC=CC=C1C(O)=O
InChI: InChI=1S/C15H12F2N4O3/c1-8(13-12(14(22)23)3-2-4-18-13)20-21-15(24)19-11-6-9(16)5-10(17)7-11/h2-7H,1H3,(H,22,23)(H2,19,21,24)/b20-8+
Instrument: Q Exactive Orbitrap (Thermo Scientific)
Instrument type: LC-ESI-QFT
Ms type: MS2
Ion mode: POSITIVE
Ionization: ESI
Fragmentation mode: HCD
Collision energy: 75
Resolution: 17500
Column name: Acquity BEH C18 1.7um, 2.1x150mm (Waters)
Retention time: 16.398 min
Base peak: 79.0211
Precursor m/z: 335.095
Precursor type: [M+H]+
Precursor intensity: 2251979.25
m/z	relative intensity	assigned
51.0229	13	C4H3+
52.0184	9	C3H2N+
56.0496	21	C3H6N+
63.0229	25	C5H3+
65.0386	51	C5H5+
67.0178	22	C4H3O+
68.0494	55	C4H6N+
78.0339	125	C5H4N+
79.0416	24	C5H5N+
80.0495	139	C5H6N+
81.0335	12	C5H5O+
90.0339	119	C6H4N+
92.0496	45	C6H6N+
93.0448	89	C5H5N2+
94.029	18	C5H4NO+
95.0366	24	C5H5NO+
95.0492	20	C6H7O+
96.0444	999	C5H6NO+
104.0495	117	C7H6N+
105.0447	34	C6H5N2+
106.0289	13	C6H4NO+
106.0652	67	C7H8N+
107.0605	58	C6H7N2+
108.0445	132	C6H6NO+
110.0602	87	C6H8NO+
111.0315	22	C5H5NO2+
112.0394	92	C5H6NO2+
117.0448	188	C7H5N2+
118.0526	159	C7H6N2+
119.0605	32	C7H7N2+
120.0445	22	C7H6NO+
121.0397	81	C6H5N2O+
122.06	19	C7H8NO+
124.0394	84	C6H6NO2+
130.0463	21	C6H6F2N+
131.0241	27	C7H3N2O+
132.0446	28	C8H6NO+
133.0398	65	C7H5N2O+
135.0554	160	C7H7N2O+
140.0342	13	C6H6NO3+
145.0398	70	C8H5N2O+
146.0476	158	C8H6N2O+
148.0395	64	C8H6NO2+
150.0554	16	C8H8NO2+
151.0629	13	C8H9NO2+
161.0714	23	C9H9N2O+
162.0663	189	C8H8N3O+
163.0504	121	C8H7N2O2+
