Mass spectrum: Albendazole; LC-ESI-QFT; MS2; CE: 75; R=17500; [M-H]-
Name: Albendazole
Name: methyl N-(6-propylsulfanyl-1H-benzimidazol-2-yl)carbamate
Formula: C12H15N3O2S
Exact mass: 265.0885
SMILES: CCCSC1=CC=C2NC(NC(=O)OC)=NC2=C1
InChI: InChI=1S/C12H15N3O2S/c1-3-6-18-8-4-5-9-10(7-8)14-11(13-9)15-12(16)17-2/h4-5,7H,3,6H2,1-2H3,(H2,13,14,15,16)
Instrument: Q Exactive Orbitrap (Thermo Scientific)
Instrument type: LC-ESI-QFT
Ms type: MS2
Ion mode: NEGATIVE
Ionization: ESI
Fragmentation mode: HCD
Collision energy: 75
Resolution: 17500
Column name: Acquity BEH C18 1.7um, 2.1x150mm (Waters)
Retention time: 16.045 min
Base peak: 323.107
Precursor m/z: 264.0812
Precursor type: [M-H]-
Precursor intensity: 396121.2539063
m/z	relative intensity	assigned
57.9757	123	CNS-
81.9758	20	C3NS-
94.9835	9	C4HNS-
159.9976	140	C7H2N3S-
161.0054	275	C7H3N3S-
189.0003	999	C8H3N3OS-
