Mass spectrum: Propyl gallate; LC-ESI-QFT; MS2; CE: 30; R=17500; [M-H]-
Name: Propyl gallate
Name: propyl 3,4,5-trihydroxybenzoate
Formula: C10H12O5
Exact mass: 212.0685
SMILES: CCCOC(=O)C1=CC(O)=C(O)C(O)=C1
InChI: InChI=1S/C10H12O5/c1-2-3-15-10(14)6-4-7(11)9(13)8(12)5-6/h4-5,11-13H,2-3H2,1H3
Instrument: Q Exactive Orbitrap (Thermo Scientific)
Instrument type: LC-ESI-QFT
Ms type: MS2
Ion mode: NEGATIVE
Ionization: ESI
Fragmentation mode: HCD
Collision energy: 30
Resolution: 17500
Column name: Acquity BEH C18 1.7um, 2.1x150mm (Waters)
Retention time: 14.149 min
Base peak: 211.0612
Precursor m/z: 211.0612
Precursor type: [M-H]-
Precursor intensity: 30149996.20703
m/z	relative intensity	assigned
65.0033	1	C4HO-
67.019	1	C4H3O-
68.9983	1	C3HO2-
71.0139	1	C3H3O2-
72.9932	1	C2HO3-
82.006	1	C4H2O2-
83.0138	2	C4H3O2-
87.0088	1	C3H3O3-
95.0138	1	C5H3O2-
110.0011	2	C5H2O3-
111.0088	17	C5H3O3-
123.0089	2	C6H3O3-
124.0163	22	C6H4O3-
125.0244	75	C6H5O3-
127.0037	7	C5H3O4-
136.9881	11	C6HO4-
139.0037	17	C6H3O4-
140.0116	27	C6H4O4-
151.0036	4	C7H3O4-
154.9989	2	C6H3O5-
167.0712	1	C9H11O3-
168.0065	103	C7H4O5-
169.0143	204	C7H5O5-
211.0611	999	C10H11O5-
