Mass spectrum: Trinexapac-ethyl; LC-ESI-QFT; MS2; CE: 90; R=17500; [M-H]-
Name: Trinexapac-ethyl
Name: ethyl 4-[cyclopropyl(hydroxy)methylidene]-3,5-dioxocyclohexane-1-carboxylate
Formula: C13H16O5
Exact mass: 252.0998
SMILES: CCOC(=O)C1CC(=O)C(=C(O)C2CC2)C(=O)C1
InChI: InChI=1S/C13H16O5/c1-2-18-13(17)8-5-9(14)11(10(15)6-8)12(16)7-3-4-7/h7-8,16H,2-6H2,1H3
Instrument: Q Exactive Orbitrap (Thermo Scientific)
Instrument type: LC-ESI-QFT
Ms type: MS2
Ion mode: NEGATIVE
Ionization: ESI
Fragmentation mode: HCD
Collision energy: 90
Resolution: 17500
Column name: Acquity BEH C18 1.7um, 2.1x150mm (Waters)
Retention time: 17.175 min
Base peak: 193.0869
Precursor m/z: 251.0925
Precursor type: [M-H]-
Precursor intensity: 347728.5410156
m/z	relative intensity	assigned
109.0295	933	C6H5O2-
121.0293	701	C7H5O2-
122.0373	999	C7H6O2-
