Mass spectrum: Quinmerac; LC-ESI-QFT; MS2; CE: 90; R=17500; [M+H]+
Name: Quinmerac
Name: 7-chloro-3-methylquinoline-8-carboxylic acid
Formula: C11H8ClNO2
Exact mass: 221.0244
SMILES: CC1=CC2=C(N=C1)C(C(O)=O)=C(Cl)C=C2
InChI: InChI=1S/C11H8ClNO2/c1-6-4-7-2-3-8(12)9(11(14)15)10(7)13-5-6/h2-5H,1H3,(H,14,15)
Instrument: Q Exactive Orbitrap (Thermo Scientific)
Instrument type: LC-ESI-QFT
Ms type: MS2
Ion mode: POSITIVE
Ionization: ESI
Fragmentation mode: HCD
Collision energy: 90
Resolution: 17500
Column name: Acquity BEH C18 1.7um, 2.1x150mm (Waters)
Retention time: 13.186 min
Base peak: 79.0211
Precursor m/z: 222.0316
Precursor type: [M+H]+
Precursor intensity: 10109439.25
m/z	relative intensity	assigned
50.0151	3	C4H2+
51.023	5	C4H3+
52.0183	6	C3H2N+
53.0386	184	C4H5+
54.0339	7	C3H4N+
55.0179	10	C3H3O+
56.0131	3	C2H2NO+
62.9632	6	CClO+
63.0229	2	C5H3+
63.9949	51	CH3ClN+
65.0386	999	C5H5+
66.0464	13	C5H6+
67.0542	7	C5H7+
68.0131	3	C3H2NO+
68.9971	2	C3HO2+
73.9792	28	C2HClN+
74.9871	10	C2H2ClN+
75.9948	42	C2H3ClN+
77.0385	117	C6H5+
79.0544	2	C6H7+
80.0494	3	C5H6N+
81.0335	17	C5H5O+
87.9949	165	C3H3ClN+
89.0386	15	C7H5+
90.0464	35	C7H6+
91.0542	2	C7H7+
92.0495	565	C6H6N+
93.0573	135	C6H7N+
94.0414	13	C6H6O+
94.0652	102	C6H8N+
95.0492	575	C6H7O+
101.9742	21	C3HClNO+
102.0464	14	C8H6+
103.0058	2	C6HNO+
103.0543	14	C8H7+
104.0495	253	C7H6N+
106.0651	3	C7H8N+
109.0649	4	C7H9O+
110.0603	1	C6H8NO+
111.044	2	C6H7O2+
113.0385	25	C9H5+
114.0338	10	C8H4N+
114.0464	19	C9H6+
115.0542	10	C9H7+
116.0494	5	C8H6N+
116.9976	28	C4H4ClNO+
117.0573	8	C8H7N+
119.0009	1	C6HNO2+
120.0443	2	C7H6NO+
122.9996	17	C7H4Cl+
125.0152	4	C7H6Cl+
130.0652	59	C9H8N+
132.0447	21	C8H6NO+
132.057	41	C9H8O+
133.0523	5	C8H7NO+
140.0495	510	C10H6N+
141.0573	925	C10H7N+
146.0116	167	C6H7ClO2+
149.0153	595	C9H6Cl+
150.0105	42	C8H5ClN+
158.06	13	C10H8NO+
168.0209	2	C8H7ClNO+
175.0183	6	C10H6ClN+
176.0262	106	C10H7ClN+
193.029	16	C10H8ClNO+
194.0367	69	C10H9ClNO+
204.0212	68	C11H7ClNO+
222.0316	24	C11H9ClNO2+
