Mass spectrum: Kaempferol; LC-ESI-QFT; MS2; CE: 15; R=17500; [M-H]-
Name: Kaempferol
Name: 3,5,7-trihydroxy-2-(4-hydroxyphenyl)chromen-4-one
Formula: C15H10O6
Exact mass: 286.0477
SMILES: OC1=CC=C(C=C1)C1=C(O)C(=O)C2=C(O1)C=C(O)C=C2O
InChI: InChI=1S/C15H10O6/c16-8-3-1-7(2-4-8)15-14(20)13(19)12-10(18)5-9(17)6-11(12)21-15/h1-6,16-18,20H
Instrument: Q Exactive Orbitrap (Thermo Scientific)
Instrument type: LC-ESI-QFT
Ms type: MS2
Ion mode: NEGATIVE
Ionization: ESI
Fragmentation mode: HCD
Collision energy: 15
Resolution: 17500
Column name: Acquity BEH C18 1.7um, 2.1x150mm (Waters)
Retention time: 16.377 min
Base peak: 112.9856
Precursor m/z: 285.0405
Precursor type: [M-H]-
Precursor intensity: 5755071.851562
m/z	relative intensity	assigned
151.0036	2	C7H3O4-
257.0453	1	C14H9O5-
285.0404	999	C15H9O6-
