Mass spectrum: Bupirimate; LC-ESI-QFT; MS2; CE: 75; R=17500; [M+H]+
Name: Bupirimate
Name: [5-butyl-2-(ethylamino)-6-methylpyrimidin-4-yl] N,N-dimethylsulfamate
Formula: C13H24N4O3S
Exact mass: 316.1569
SMILES: CCCCC1=C(OS(=O)(=O)N(C)C)N=C(NCC)N=C1C
InChI: InChI=1S/C13H24N4O3S/c1-6-8-9-11-10(3)15-13(14-7-2)16-12(11)20-21(18,19)17(4)5/h6-9H2,1-5H3,(H,14,15,16)
Instrument: Q Exactive Orbitrap (Thermo Scientific)
Instrument type: LC-ESI-QFT
Ms type: MS2
Ion mode: POSITIVE
Ionization: ESI
Fragmentation mode: HCD
Collision energy: 75
Resolution: 17500
Column name: Acquity BEH C18 1.7um, 2.1x150mm (Waters)
Retention time: 17.276 min
Base peak: 79.0211
Precursor m/z: 317.1642
Precursor type: [M+H]+
Precursor intensity: 24629322.9375
m/z	relative intensity	assigned
53.0022	3	C3HO+
53.0386	41	C4H5+
54.0338	15	C3H4N+
55.0179	175	C3H3O+
55.0291	10	C2H3N2+
55.0542	122	C4H7+
56.0495	26	C3H6N+
57.0447	23	C2H5N2+
57.0572	3	C3H7N+
57.0699	4	C4H9+
58.0651	11	C3H8N+
65.0385	12	C5H5+
67.0542	108	C5H7+
68.0494	72	C4H6N+
69.0083	248	C2HN2O+
69.0335	21	C4H5O+
69.0447	70	C3H5N2+
69.0573	39	C4H7N+
69.0698	26	C5H9+
70.0651	286	C4H8N+
71.0603	284	C3H7N2+
72.0441	3	C3H6NO+
78.0337	3	C5H4N+
79.0542	50	C6H7+
80.0494	38	C5H6N+
81.0334	12	C5H5O+
81.0447	59	C4H5N2+
81.0573	29	C5H7N+
81.0699	64	C6H9+
82.0525	9	C4H6N2+
82.0651	72	C5H8N+
83.024	8	C3H3N2O+
83.0491	7	C5H7O+
83.0603	14	C4H7N2+
83.0729	25	C5H9N+
84.0443	24	C4H6NO+
84.0556	4	C3H6N3+
84.0808	52	C5H10N+
85.0761	30	C4H9N2+
86.0349	4	C2H4N3O+
86.0713	79	C3H8N3+
91.0541	31	C7H7+
92.0495	10	C6H6N+
93.0449	3	C5H5N2+
93.0699	63	C7H9+
94.0651	38	C6H8N+
95.024	11	C4H3N2O+
95.0493	15	C6H7O+
95.0604	129	C5H7N2+
95.0729	18	C6H9N+
95.0855	89	C7H11+
96.0444	839	C5H6NO+
96.0808	49	C6H10N+
97.0397	126	C4H5N2O+
97.0761	19	C5H9N2+
98.06	781	C5H8NO+
103.0541	8	C8H7+
104.9752	7	CHN2O2S+
105.0449	5	C6H5N2+
105.0699	10	C8H9+
106.0652	6	C7H8N+
107.0604	9	C6H7N2+
107.073	74	C7H9N+
108.0114	999	C2H6NO2S+
109.0397	4	C5H5N2O+
109.0635	57	C5H7N3+
109.076	81	C6H9N2+
110.06	82	C6H8NO+
110.0713	79	C5H8N3+
110.0965	49	C7H12N+
111.0553	7	C5H7N2O+
111.0791	38	C5H9N3+
112.0505	28	C4H6N3O+
112.1121	15	C7H14N+
114.0662	10	C4H8N3O+
120.0807	36	C8H10N+
121.0646	6	C8H9O+
121.0761	35	C7H9N2+
122.0712	155	C6H8N3+
122.0838	18	C7H10N2+
122.0963	28	C8H12N+
123.0553	48	C6H7N2O+
123.0791	28	C6H9N3+
123.0917	23	C7H11N2+
124.0507	5	C5H6N3O+
124.0632	27	C6H8N2O+
124.0757	42	C7H10NO+
124.087	23	C6H10N3+
125.0584	7	C5H7N3O+
125.0711	4	C6H9N2O+
126.0219	4	C2H8NO3S+
126.0661	6	C5H8N3O+
126.1276	9	C8H16N+
128.0706	26	C6H10NO2+
133.0761	5	C8H9N2+
135.079	10	C7H9N3+
135.0916	6	C8H11N2+
136.0869	89	C7H10N3+
136.9904	3	C4HN4S+
137.0584	33	C6H7N3O+
137.0949	43	C7H11N3+
137.1073	7	C8H13N2+
138.0662	262	C6H8N3O+
138.0915	20	C8H12NO+
138.1026	48	C7H12N3+
139.074	157	C6H9N3O+
139.1231	14	C8H15N2+
140.107	625	C8H14NO+
148.0867	18	C8H10N3+
149.0709	27	C8H9N2O+
149.1075	3	C9H13N2+
150.1026	266	C8H12N3+
151.0741	15	C7H9N3O+
151.0979	7	C7H11N4+
151.1103	25	C8H13N3+
151.1227	6	C9H15N2+
152.0818	94	C7H10N3O+
152.1184	7	C8H14N3+
153.0896	5	C7H11N3O+
154.0975	4	C7H12N3O+
156.0528	22	C6H8N2O3+
162.1024	4	C9H12N3+
164.0819	121	C8H10N3O+
164.1182	9	C9H14N3+
165.09	124	C8H11N3O+
165.1021	196	C9H13N2O+
165.1259	10	C9H15N3+
166.0975	712	C8H12N3O+
167.1052	58	C8H13N3O+
168.1128	3	C8H14N3O+
177.1023	10	C10H13N2O+
179.1291	57	C9H15N4+
180.1131	29	C9H14N3O+
180.1495	9	C10H18N3+
181.121	7	C9H15N3O+
182.1289	105	C9H16N3O+
191.1178	3	C11H15N2O+
192.1498	14	C11H18N3+
193.1336	75	C11H17N2O+
194.1288	110	C10H16N3O+
196.1443	5	C10H18N3O+
198.1003	4	C9H14N2O3+
208.1445	25	C11H18N3O+
209.176	4	C11H21N4+
210.1601	160	C11H20N3O+
224.1757	5	C12H22N3O+
237.207	15	C13H25N4+
