Mass spectrum: Ketoconazole; LC-ESI-QFT; MS2; CE: 60; R=17500; [M+H]+
Name: Ketoconazole
Name: Xolegel
Name: 1-[4-[4-[[(2R,4S)-2-(2,4-dichlorophenyl)-2-(imidazol-1-ylmethyl)-1,3-dioxolan-4-yl]methoxy]phenyl]piperazin-1-yl]ethanone
Formula: C26H28Cl2N4O4
Exact mass: 530.1488
SMILES: CC(=O)N1CCN(CC1)C1=CC=C(OC[C@H]2CO[C@@](CN3C=CN=C3)(O2)C2=CC=C(Cl)C=C2Cl)C=C1
InChI: InChI=1S/C26H28Cl2N4O4/c1-19(33)31-10-12-32(13-11-31)21-3-5-22(6-4-21)34-15-23-16-35-26(36-23,17-30-9-8-29-18-30)24-7-2-20(27)14-25(24)28/h2-9,14,18,23H,10-13,15-17H2,1H3/t23-,26-/m0/s1
Instrument: Q Exactive Orbitrap (Thermo Scientific)
Instrument type: LC-ESI-QFT
Ms type: MS2
Ion mode: POSITIVE
Ionization: ESI
Fragmentation mode: HCD
Collision energy: 60
Resolution: 17500
Column name: Acquity BEH C18 1.7um, 2.1x150mm (Waters)
Retention time: 15.405 min
Base peak: 79.0211
Precursor m/z: 531.156
Precursor type: [M+H]+
Precursor intensity: 11187541
m/z	relative intensity	assigned
53.0386	1	C4H5+
54.0338	25	C3H4N+
55.0179	3	C3H3O+
55.0417	3	C3H5N+
55.0542	1	C4H7+
56.0494	42	C3H6N+
58.065	7	C3H8N+
65.0385	1	C5H5+
68.0369	30	C3H4N2+
68.0494	5	C4H6N+
69.0447	84	C3H5N2+
70.0651	121	C4H8N+
71.0603	92	C3H7N2+
74.0965	1	C4H12N+
79.0542	9	C6H7+
80.0494	4	C5H6N+
81.0447	475	C4H5N2+
82.0525	999	C4H6N2+
83.0603	27	C4H7N2+
84.068	1	C4H8N2+
85.076	1	C4H9N2+
86.06	53	C4H8NO+
91.0543	7	C7H7+
94.0414	1	C6H6O+
94.0651	2	C6H8N+
95.0491	2	C6H7O+
95.0604	7	C5H7N2+
98.06	1	C5H8NO+
98.9996	8	C5H4Cl+
103.0542	7	C8H7+
104.0496	2	C7H6N+
105.0698	8	C8H9+
106.0651	5	C7H8N+
107.0491	21	C7H7O+
107.0605	7	C6H7N2+
108.0443	1	C6H6NO+
108.0572	1	C7H8O+
108.0809	1	C7H10N+
109.0397	9	C5H5N2O+
109.0523	3	C6H7NO+
109.0761	8	C6H9N2+
111.044	1	C6H7O2+
111.0552	4	C5H7N2O+
112.0756	238	C6H10NO+
113.0708	4	C5H9N2O+
114.0423	9	C4H6N2O2+
115.0543	5	C9H7+
116.0618	1	C9H8+
117.0572	9	C8H7N+
117.0699	14	C9H9+
118.065	22	C8H8N+
119.049	1	C8H7O+
119.0729	7	C8H9N+
119.0855	2	C9H11+
120.0444	96	C7H6NO+
120.0807	39	C8H10N+
121.0396	1	C6H5N2O+
121.065	2	C8H9O+
121.0761	1	C7H9N2+
122.06	98	C7H8NO+
122.9993	5	C7H4Cl+
123.0918	1	C7H11N2+
125.0152	8	C7H6Cl+
125.9866	1	C6H3ClO+
126.9945	3	C6H4ClO+
127.0501	45	C5H7N2O2+
128.0618	3	C10H8+
129.0697	15	C10H9+
130.0651	27	C9H8N+
131.0491	8	C9H7O+
131.0728	17	C9H9N+
132.0445	2	C8H6NO+
132.0569	10	C9H8O+
132.0807	20	C9H10N+
133.0522	6	C8H7NO+
133.0646	5	C9H9O+
134.06	96	C8H8NO+
135.0678	135	C8H9NO+
136.0757	103	C8H10NO+
139.0309	6	C8H8Cl+
141.0103	1	C7H6ClO+
142.0653	1	C10H8N+
143.0728	7	C10H9N+
144.0808	48	C10H10N+
145.0648	9	C10H9O+
145.0886	20	C10H11N+
145.9686	3	C6H4Cl2+
146.06	35	C9H8NO+
146.0964	67	C10H12N+
146.9764	3	C6H5Cl2+
147.0678	6	C9H9NO+
147.0806	2	C10H11O+
148.0756	191	C9H10NO+
149.0152	15	C9H6Cl+
149.1073	1	C9H13N2+
150.023	24	C9H7Cl+
151.031	9	C9H8Cl+
154.0652	3	C11H8N+
154.9893	1	C7H4ClO2+
155.0603	3	C10H7N2+
156.0686	1	C10H8N2+
156.0808	13	C11H10N+
157.0884	4	C11H11N+
157.9684	7	C7H4Cl2+
158.06	3	C10H8NO+
158.0964	25	C11H12N+
158.9762	146	C7H5Cl2+
159.0677	11	C10H9NO+
159.9843	3	C7H6Cl2+
160.0756	24	C10H10NO+
161.0834	5	C10H11NO+
161.1075	3	C10H13N2+
161.9635	1	C6H4Cl2O+
162.0912	14	C10H12NO+
162.1151	1	C10H14N2+
163.0308	14	C10H8Cl+
163.1228	10	C10H15N2+
164.0389	1	C10H9Cl+
164.0704	2	C9H10NO2+
165.0098	1	C9H6ClO+
167.0258	28	C9H8ClO+
167.0814	134	C8H11N2O2+
169.9684	107	C8H4Cl2+
170.976	10	C8H5Cl2+
171.0677	2	C11H9NO+
171.9841	2	C8H6Cl2+
172.0755	17	C11H10NO+
172.1117	5	C12H14N+
172.9555	103	C7H3Cl2O+
173.0835	7	C11H11NO+
174.0913	132	C11H12NO+
174.9712	9	C7H5Cl2O+
175.0865	4	C10H11N2O+
175.0991	1	C11H13NO+
175.1235	2	C11H15N2+
176.0942	6	C10H12N2O+
176.1065	4	C11H14NO+
177.1021	142	C10H13N2O+
178.0862	5	C10H12NO2+
178.1099	8	C10H14N2O+
179.0258	4	C10H8ClO+
184.9919	48	C9H7Cl2+
185.9633	162	C8H4Cl2O+
186.9711	20	C8H5Cl2O+
187.1228	2	C5H25Cl2O2+
188.1071	6	C12H14NO+
189.1386	9	C12H17N2+
189.9585	1	C7H4Cl2O2+
190.086	4	C11H12NO2+
191.0265	1	C8H11Cl2N+
191.037	2	C10H8ClN2+
191.0939	2	C11H13NO2+
191.1179	3	C11H15N2O+
192.1018	23	C11H14NO2+
199.0076	2	C10H9Cl2+
200.1069	10	C13H14NO+
202.0862	1	C12H12NO2+
202.966	8	C8H5Cl2O2+
203.037	36	C11H8ClN2+
204.1023	5	C9H17ClN2O+
205.0525	1	C11H10ClN2+
205.0972	2	C11H13N2O2+
205.1336	2	C12H17N2O+
209.0366	1	C11H10ClO2+
212.0023	1	C13H5ClO+
215.1179	2	C13H15N2O+
216.1019	11	C13H14NO2+
217.1335	15	C13H17N2O+
218.1174	4	C13H16NO2+
219.0319	2	C11H8ClN2O+
219.1128	17	C12H15N2O2+
220.1207	2	C12H16N2O2+
226.0057	1	C10H8Cl2N2+
233.0477	3	C12H10ClN2O+
234.1122	3	C13H16NO3+
235.1442	3	C13H19N2O2+
238.0059	10	C11H8Cl2N2+
239.0135	8	C14H6ClNO+
239.9974	1	C14H5ClO2+
244.0052	16	C11H10Cl2O2+
247.0631	13	C13H12ClN2O+
255.0084	95	C11H9Cl2N2O+
267.0084	72	C12H9Cl2N2O+
281.0241	12	C13H11Cl2N2O+
297.019	4	C13H11Cl2N2O2+
311.0349	5	C14H13Cl2N2O2+
378.0654	9	C22H15ClO4+
