Mass spectrum: Carbamazepine; LC-ESI-QFT; MS2; CE: 45; R=17500; [M+H]+
Name: Carbamazepine
Formula: C15H12N2O
Exact mass: 236.0950
SMILES: NC(=O)N1C2=CC=CC=C2C=CC2=C1C=CC=C2
InChI: InChI=1S/C15H12N2O/c16-15(18)17-13-7-3-1-5-11(13)9-10-12-6-2-4-8-14(12)17/h1-10H,(H2,16,18)
Instrument: Q Exactive Orbitrap (Thermo Scientific)
Instrument type: LC-ESI-QFT
Ms type: MS2
Ion mode: POSITIVE
Ionization: ESI
Fragmentation mode: HCD
Collision energy: 45
Resolution: 17500
Column name: Acquity BEH C18 1.7um, 2.1x150mm (Waters)
Retention time: 15.734 min
Base peak: 79.0212
Precursor m/z: 237.1022
Precursor type: [M+H]+
Precursor intensity: 25269289.25
m/z	relative intensity	assigned
116.0495	1	C8H6N+
165.0699	1	C13H9+
167.0854	3	C13H11+
177.0698	1	C14H9+
179.0729	3	C13H9N+
191.0728	1	C14H9N+
192.0809	220	C14H10N+
193.0888	25	C14H11N+
194.0963	999	C14H12N+
220.0758	5	C15H10NO+
237.1022	42	C15H13N2O+
