Mass spectrum: Triamcinolone acetonide; LC-ESI-QFT; MS2; CE: 15; R=17500; [M+H]+
Name: Triamcinolone acetonide
Name: (1S,2S,4R,8S,9S,11S,12R,13S)-12-fluoro-11-hydroxy-8-(2-hydroxyacetyl)-6,6,9,13-tetramethyl-5,7-dioxapentacyclo[10.8.0.02,9.04,8.013,18]icosa-14,17-dien-16-one
Formula: C24H31FO6
Exact mass: 434.2105
SMILES: CC1(C)O[C@@H]2C[C@H]3[C@@H]4CCC5=CC(=O)C=C[C@]5(C)[C@@]4(F)[C@@H](O)C[C@]3(C)[C@@]2(O1)C(=O)CO
InChI: InChI=1S/C24H31FO6/c1-20(2)30-19-10-16-15-6-5-13-9-14(27)7-8-21(13,3)23(15,25)17(28)11-22(16,4)24(19,31-20)18(29)12-26/h7-9,15-17,19,26,28H,5-6,10-12H2,1-4H3/t15-,16-,17-,19+,21-,22-,23-,24+/m0/s1
Instrument: Q Exactive Orbitrap (Thermo Scientific)
Instrument type: LC-ESI-QFT
Ms type: MS2
Ion mode: POSITIVE
Ionization: ESI
Fragmentation mode: HCD
Collision energy: 15
Resolution: 17500
Column name: Acquity BEH C18 1.7um, 2.1x150mm (Waters)
Retention time: 16.761 min
Base peak: 79.0211
Precursor m/z: 435.2177
Precursor type: [M+H]+
Precursor intensity: 4917690.25
m/z	relative intensity	assigned
59.0492	50	C3H7O+
95.0493	23	C6H7O+
121.0652	23	C8H9O+
139.0757	19	C8H11O2+
147.0804	160	C10H11O+
151.0754	73	C9H11O2+
155.0704	24	C8H11O3+
159.0803	17	C11H11O+
161.0964	85	C11H13O+
169.065	16	C12H9O+
171.0809	46	C12H11O+
173.0961	25	C12H13O+
179.0705	33	C10H11O3+
185.0966	51	C13H13O+
187.0755	99	C12H11O2+
197.096	29	C14H13O+
199.1121	35	C14H15O+
211.1116	32	C15H15O+
213.1274	127	C15H17O+
223.1118	150	C16H15O+
225.1275	183	C16H17O+
235.112	53	C17H15O+
237.1275	97	C17H17O+
239.1432	64	C17H19O+
241.1225	60	C16H17O2+
249.1269	29	C18H17O+
251.1429	69	C18H19O+
253.1226	104	C17H17O2+
261.1277	93	C19H17O+
263.1433	105	C19H19O+
265.1585	55	C19H21O+
269.1178	16	C14H18FO4+
269.1526	21	C18H21O2+
275.1431	166	C20H19O+
277.1226	41	C19H17O2+
279.1382	184	C19H19O2+
281.1535	124	C19H21O2+
283.1682	75	C19H23O2+
291.1386	54	C17H20FO3+
293.1538	411	C20H21O2+
295.1333	37	C19H19O3+
297.1486	160	C19H21O3+
303.1385	156	C18H20FO3+
309.1487	103	C20H21O3+
311.1645	615	C20H23O3+
321.1486	677	C21H21O3+
357.17	999	C21H25O5+
