Mass spectrum: Triadimefon; LC-ESI-QFT; MS2; CE: 75; R=17500; [M+H]+
Name: Triadimefon
Name: 1-(4-chlorophenoxy)-3,3-dimethyl-1-(1,2,4-triazol-1-yl)butan-2-one
Formula: C14H16ClN3O2
Exact mass: 293.0931
SMILES: CC(C)(C)C(=O)C(OC1=CC=C(Cl)C=C1)N1C=NC=N1
InChI: InChI=1S/C14H16ClN3O2/c1-14(2,3)12(19)13(18-9-16-8-17-18)20-11-6-4-10(15)5-7-11/h4-9,13H,1-3H3
Instrument: Q Exactive Orbitrap (Thermo Scientific)
Instrument type: LC-ESI-QFT
Ms type: MS2
Ion mode: POSITIVE
Ionization: ESI
Fragmentation mode: HCD
Collision energy: 75
Resolution: 17500
Column name: Acquity BEH C18 1.7um, 2.1x150mm (Waters)
Retention time: 17.637 min
Base peak: 79.0211
Precursor m/z: 294.1004
Precursor type: [M+H]+
Precursor intensity: 10747137.4375
m/z	relative intensity	assigned
50.0151	4	C4H2+
51.0229	6	C4H3+
53.0022	139	C3HO+
53.0386	31	C4H5+
53.9975	23	C2NO+
55.0542	242	C4H7+
57.0699	999	C4H9+
62.9632	3	CClO+
63.0229	3	C5H3+
65.0386	30	C5H5+
67.0542	41	C5H7+
67.9893	4	C3O2+
69.0698	757	C5H9+
70.0777	324	C5H10+
72.9839	12	C3H2Cl+
74.9995	8	C3H4Cl+
75.0229	37	C6H3+
77.0384	6	C6H5+
78.0087	4	C3N3+
78.0462	3	C6H6+
79.018	5	C5H3O+
82.0399	8	C3H4N3+
83.0477	6	C3H5N3+
86.9997	35	C4H4Cl+
91.0543	64	C7H7+
93.0336	14	C6H5O+
94.0413	56	C6H6O+
95.0491	66	C6H7O+
98.9996	571	C5H4Cl+
102.0466	9	C8H6+
105.0336	5	C7H5O+
105.0448	31	C6H5N2+
105.0698	8	C8H9+
107.0491	10	C7H7O+
109.0646	6	C7H9O+
110.0349	13	C4H4N3O+
110.9996	15	C6H4Cl+
111.0441	52	C6H7O2+
113.0153	117	C6H6Cl+
119.049	17	C8H7O+
119.0604	8	C7H7N2+
119.0853	4	C9H11+
120.057	24	C8H8O+
121.0396	18	C6H5N2O+
121.0646	3	C8H9O+
125.0153	9	C7H6Cl+
125.0597	4	C7H9O2+
126.9945	312	C6H4ClO+
128.0024	5	C6H5ClO+
129.0101	238	C6H6ClO+
137.0153	4	C8H6Cl+
139.0057	215	C6H4ClN2+
141.0102	219	C7H6ClO+
146.0724	4	C10H10O+
147.0805	14	C10H11O+
155.0257	50	C8H8ClO+
159.0208	36	C7H8ClO2+
