Mass spectrum: Nordihydroguaiaretic acid; LC-ESI-QFT; MS2; CE: 60; R=17500; [M-H]-
Name: Nordihydroguaiaretic acid
Name: 4-[4-(3,4-dihydroxyphenyl)-2,3-dimethylbutyl]benzene-1,2-diol
Formula: C18H22O4
Exact mass: 302.1518
SMILES: CC(CC1=CC(O)=C(O)C=C1)C(C)CC1=CC=C(O)C(O)=C1
InChI: InChI=1S/C18H22O4/c1-11(7-13-3-5-15(19)17(21)9-13)12(2)8-14-4-6-16(20)18(22)10-14/h3-6,9-12,19-22H,7-8H2,1-2H3
Instrument: Q Exactive Orbitrap (Thermo Scientific)
Instrument type: LC-ESI-QFT
Ms type: MS2
Ion mode: NEGATIVE
Ionization: ESI
Fragmentation mode: HCD
Collision energy: 60
Resolution: 17500
Column name: Acquity BEH C18 1.7um, 2.1x150mm (Waters)
Retention time: 17.121 min
Base peak: 141.0113
Precursor m/z: 301.1445
Precursor type: [M-H]-
Precursor intensity: 2494580.739258
m/z	relative intensity	assigned
65.0033	4	C4HO-
81.0345	22	C5H5O-
83.0503	31	C5H7O-
93.0345	9	C6H5O-
95.0502	12	C6H7O-
107.0139	5	C6H3O2-
108.0217	287	C6H4O2-
109.0295	268	C6H5O2-
111.0089	3	C5H3O3-
121.0296	22	C7H5O2-
122.0373	999	C7H6O2-
123.0451	157	C7H7O2-
124.0165	116	C6H4O3-
125.0245	5	C6H5O3-
135.0451	75	C8H7O2-
136.0166	28	C7H4O3-
137.0244	242	C7H5O3-
149.0244	4	C8H5O3-
149.0607	64	C9H9O2-
151.0766	5	C9H11O2-
153.0193	24	C7H5O4-
154.0272	367	C7H6O4-
173.1178	4	C9H17O3-
175.0759	4	C11H11O2-
177.0919	13	C11H13O2-
191.1084	4	C12H15O2-
245.1548	10	C16H21O2-
273.1499	26	C17H21O3-
301.1445	81	C18H21O4-
