Mass spectrum: CP-409092; LC-ESI-QFT; MS2; CE: 60; R=17500; [M-H]-
Name: CP-409092
Name: 1H-Indole-3-carboxamide, 4,5,6,7-tetrahydro-N-(4-((methylamino)methyl)phenyl)-4-oxo-
Name: N-[4-(methylaminomethyl)phenyl]-4-oxo-1,5,6,7-tetrahydroindole-3-carboxamide
Formula: C17H19N3O2
Exact mass: 297.1477
SMILES: CNCC1=CC=C(NC(=O)C2=CNC3=C2C(=O)CCC3)C=C1
InChI: InChI=1S/C17H19N3O2/c1-18-9-11-5-7-12(8-6-11)20-17(22)13-10-19-14-3-2-4-15(21)16(13)14/h5-8,10,18-19H,2-4,9H2,1H3,(H,20,22)
Instrument: Q Exactive Orbitrap (Thermo Scientific)
Instrument type: LC-ESI-QFT
Ms type: MS2
Ion mode: NEGATIVE
Ionization: ESI
Fragmentation mode: HCD
Collision energy: 60
Resolution: 17500
Column name: Acquity BEH C18 1.7um, 2.1x150mm (Waters)
Retention time: 12.411 min
Base peak: 296.1404
Precursor m/z: 296.1405
Precursor type: [M-H]-
Precursor intensity: 11493231.67114
m/z	relative intensity	assigned
65.0033	1	C4HO-
65.9985	9	C3NO-
66.035	1	C4H4N-
80.0506	3	C5H6N-
81.022	2	C4H3NO-
92.0506	14	C6H6N-
96.0455	1	C5H6NO-
103.0428	9	C7H5N-
104.0506	15	C7H6N-
106.0662	106	C7H8N-
107.0375	5	C6H5NO-
108.0455	2	C6H6NO-
109.0169	1	C5H3NO2-
116.0504	3	C8H6N-
120.0456	3	C7H6NO-
121.017	2	C6H3NO2-
122.0611	359	C7H8NO-
132.0456	12	C8H6NO-
133.0536	1	C8H7NO-
134.0611	999	C8H8NO-
135.0927	204	C8H11N2-
148.0404	22	C8H6NO2-
149.0482	36	C8H7NO2-
159.0328	2	C9H5NO2-
159.0565	5	C9H7N2O-
160.0404	12	C9H6NO2-
170.0045	2	C13N-
179.0828	2	C9H11N2O2-
201.9935	1	C13NO2-
265.0984	2	C16H13N2O2-
266.1061	53	C16H14N2O2-
280.1087	2	C16H14N3O2-
296.1403	22	C17H18N3O2-
