Mass spectrum: Diniconazole; LC-ESI-QFT; MS2; CE: 30; R=17500; [M+H]+
Name: Diniconazole
Name: (E)-1-(2,4-dichlorophenyl)-4,4-dimethyl-2-(1,2,4-triazol-1-yl)pent-1-en-3-ol
Formula: C15H17Cl2N3O
Exact mass: 325.0749
SMILES: CC(C)(C)C(O)C(=C/C1=C(Cl)C=C(Cl)C=C1)\N1C=NC=N1
InChI: InChI=1S/C15H17Cl2N3O/c1-15(2,3)14(21)13(20-9-18-8-19-20)6-10-4-5-11(16)7-12(10)17/h4-9,14,21H,1-3H3/b13-6+
Instrument: Q Exactive Orbitrap (Thermo Scientific)
Instrument type: LC-ESI-QFT
Ms type: MS2
Ion mode: POSITIVE
Ionization: ESI
Fragmentation mode: HCD
Collision energy: 30
Resolution: 17500
Column name: Acquity BEH C18 1.7um, 2.1x150mm (Waters)
Retention time: 19.160 min
Base peak: 79.0211
Precursor m/z: 326.0821
Precursor type: [M+H]+
Precursor intensity: 19081320.45312
m/z	relative intensity	assigned
57.0699	5	C4H9+
69.0699	1	C5H9+
70.0399	924	C2H4N3+
87.0805	4	C5H11O+
97.0646	1	C6H9O+
158.9762	28	C7H5Cl2+
170.976	2	C8H5Cl2+
172.9555	9	C7H3Cl2O+
172.992	2	C8H7Cl2+
196.9922	1	C10H7Cl2+
200.9868	1	C9H7Cl2O+
204.07	6	C13H13Cl+
211.0081	2	C11H9Cl2+
222.0804	4	C13H15ClO+
225.9932	1	C9H6Cl2N3+
239.039	7	C13H13Cl2+
252.009	16	C11H8Cl2N3+
266.0246	2	C12H10Cl2N3+
268.0039	1	C11H8Cl2N3O+
269.0119	13	C11H9Cl2N3O+
270.02	4	C11H10Cl2N3O+
308.0718	14	C15H16Cl2N3+
326.0822	999	C15H18Cl2N3O+
