Mass spectrum: Florasulam; LC-ESI-QFT; MS2; CE: 45; R=17500; [M-H]-
Name: Florasulam
Name: N-(2,6-difluorophenyl)-8-fluoro-5-methoxy-[1,2,4]triazolo[1,5-c]pyrimidine-2-sulfonamide
Formula: C12H8F3N5O3S
Exact mass: 359.0300
SMILES: COC1=NC=C(F)C2=NC(=NN12)S(=O)(=O)NC1=C(F)C=CC=C1F
InChI: InChI=1S/C12H8F3N5O3S/c1-23-12-16-5-8(15)10-17-11(18-20(10)12)24(21,22)19-9-6(13)3-2-4-7(9)14/h2-5,19H,1H3
Instrument: Q Exactive Orbitrap (Thermo Scientific)
Instrument type: LC-ESI-QFT
Ms type: MS2
Ion mode: NEGATIVE
Ionization: ESI
Fragmentation mode: HCD
Collision energy: 45
Resolution: 17500
Column name: Acquity BEH C18 1.7um, 2.1x150mm (Waters)
Retention time: 13.928 min
Base peak: 358.0229
Precursor m/z: 358.0227
Precursor type: [M-H]-
Precursor intensity: 7624041.48291
m/z	relative intensity	assigned
55.0301	33	C2H3N2-
64.0067	11	C3N2-
66.0097	49	C2N3-
77.0144	1	C4HN2-
80.0016	3	C3N2O-
80.0253	1	C3H2N3-
83.0051	31	C3FN2-
85.0207	1	C3H2FN2-
90.0098	22	C4N3-
97.0208	3	C4H2FN2-
99.0364	1	C4H4FN2-
104.0128	34	C4N4-
104.0254	13	C5H2N3-
110.0159	12	C4HFN3-
111	7	C4FN2O-
113.0157	1	C4H2FN2O-
119.0362	1	C5H3N4-
120.0202	2	C5H2N3O-
124.0191	1	C4HFN4-
124.0315	1	C5H3FN3-
132.0077	9	C5N4O-
138.0107	1	C5HFN3O-
140.0266	14	C5H3FN3O-
147.0311	2	C6H3N4O-
148.0025	1	C5N4O2-
152.0139	159	C5HFN4O-
167.0374	999	C6H4FN4O-
231.036	2	C10H3F2N5-
