Mass spectrum: Milrinone; LC-ESI-QFT; MS2; CE: 45; R=17500; [M+H]+
Name: Milrinone
Name: 6-methyl-2-oxo-5-pyridin-4-yl-1H-pyridine-3-carbonitrile
Formula: C12H9N3O
Exact mass: 211.0746
SMILES: CC1=C(C=C(C#N)C(=O)N1)C1=CC=NC=C1
InChI: InChI=1S/C12H9N3O/c1-8-11(9-2-4-14-5-3-9)6-10(7-13)12(16)15-8/h2-6H,1H3,(H,15,16)
Instrument: Q Exactive Orbitrap (Thermo Scientific)
Instrument type: LC-ESI-QFT
Ms type: MS2
Ion mode: POSITIVE
Ionization: ESI
Fragmentation mode: HCD
Collision energy: 45
Resolution: 17500
Column name: Acquity BEH C18 1.7um, 2.1x150mm (Waters)
Retention time: 3.078 min
Base peak: 79.0211
Precursor m/z: 212.0818
Precursor type: [M+H]+
Precursor intensity: 8329634.9375
m/z	relative intensity	assigned
104.0494	4	C7H6N+
116.0494	2	C8H6N+
117.057	1	C8H7N+
118.065	1	C8H8N+
130.0651	2	C9H8N+
131.073	5	C9H9N+
132.0808	4	C9H10N+
140.0495	5	C10H6N+
142.0519	1	C9H6N2+
142.0653	1	C10H8N+
143.0604	11	C9H7N2+
157.0761	7	C10H9N2+
167.0604	21	C11H7N2+
168.0682	1	C11H8N2+
169.0639	3	C10H7N3+
169.0759	7	C11H9N2+
171.0553	4	C10H7N2O+
183.0788	1	C11H9N3+
184.0869	71	C11H10N3+
185.0711	6	C11H9N2O+
193.0639	2	C12H7N3+
194.0713	54	C12H8N3+
195.0554	4	C12H7N2O+
210.0664	1	C12H8N3O+
212.0817	999	C12H10N3O+
