Mass spectrum: SAR115740; LC-ESI-QFT; MS2; CE: 75; R=17500; [M-H]-
Name: SAR115740
Name: 5-fluoro-1-[(3-fluorophenyl)methyl]-N-(1H-indol-5-yl)indole-2-carboxamide
Formula: C24H17F2N3O
Exact mass: 401.1340
SMILES: FC1=CC=C2N(CC3=CC(F)=CC=C3)C(=CC2=C1)C(=O)NC1=CC=C2NC=CC2=C1
InChI: InChI=1S/C24H17F2N3O/c25-18-3-1-2-15(10-18)14-29-22-7-4-19(26)11-17(22)13-23(29)24(30)28-20-5-6-21-16(12-20)8-9-27-21/h1-13,27H,14H2,(H,28,30)
Instrument: Q Exactive Orbitrap (Thermo Scientific)
Instrument type: LC-ESI-QFT
Ms type: MS2
Ion mode: NEGATIVE
Ionization: ESI
Fragmentation mode: HCD
Collision energy: 75
Resolution: 17500
Column name: Acquity BEH C18 1.7um, 2.1x150mm (Waters)
Retention time: 18.334 min
Base peak: 292.0981
Precursor m/z: 400.1267
Precursor type: [M-H]-
Precursor intensity: 6330161.236328
m/z	relative intensity	assigned
75.024	947	C6H3-
93.0347	12	C6H5O-
95.0303	613	C6H4F-
114.0349	22	C8H4N-
120.0254	6	C7H3FN-
126.0349	999	C9H4N-
129.0458	165	C8H5N2-
130.0536	65	C8H6N2-
131.0378	8	C8H5NO-
134.0412	23	C8H5FN-
139.0201	27	C10H3O-
144.0457	4	C9H6NO-
146.0412	126	C9H5FN-
157.0407	887	C9H5N2O-
159.0367	5	C9H4FN2-
170.0411	4	C11H5FN-
190.0309	5	C13H4NO-
220.0567	20	C15H7FN-
221.0646	12	C15H8FN-
222.073	23	C15H9FN-
239.0561	3	C15H7F2N-
240.0631	20	C15H8F2N-
241.0708	5	C15H9F2N-
242.0783	17	C15H10F2N-
