Mass spectrum: Propiconazole; LC-ESI-QFT; MS2; CE: 90; R=17500; [M+H]+
Name: Propiconazole
Name: 1-[[2-(2,4-dichlorophenyl)-4-propyl-1,3-dioxolan-2-yl]methyl]-1,2,4-triazole
Formula: C15H17Cl2N3O2
Exact mass: 341.0698
SMILES: CCCC1COC(CN2C=NC=N2)(O1)C1=C(Cl)C=C(Cl)C=C1
InChI: InChI=1S/C15H17Cl2N3O2/c1-2-3-12-7-21-15(22-12,8-20-10-18-9-19-20)13-5-4-11(16)6-14(13)17/h4-6,9-10,12H,2-3,7-8H2,1H3
Instrument: Q Exactive Orbitrap (Thermo Scientific)
Instrument type: LC-ESI-QFT
Ms type: MS2
Ion mode: POSITIVE
Ionization: ESI
Fragmentation mode: HCD
Collision energy: 90
Resolution: 17500
Column name: Acquity BEH C18 1.7um, 2.1x150mm (Waters)
Retention time: 18.657 min
Base peak: 79.0212
Precursor m/z: 342.0771
Precursor type: [M+H]+
Precursor intensity: 10959373.875
m/z	relative intensity	assigned
53.0022	48	C3HO+
53.9975	7	C2NO+
55.0179	1	C3H3O+
55.0542	1	C4H7+
63.0229	2	C5H3+
65.0386	4	C5H5+
67.0543	6	C5H7+
67.9893	1	C3O2+
69.0699	34	C5H9+
70.04	37	C2H4N3+
72.9839	11	C3H2Cl+
84.0556	2	C3H6N3+
84.9839	3	C4H2Cl+
89.0386	64	C7H5+
98.9996	55	C5H4Cl+
100.0075	2	C5H5Cl+
108.9841	5	C6H2Cl+
122.9996	251	C7H4Cl+
124.0075	76	C7H5Cl+
126.9944	3	C6H4ClO+
128.0023	4	C6H5ClO+
129.0102	2	C6H6ClO+
132.9607	34	C5H3Cl2+
139.0059	4	C6H4ClN2+
144.9605	3	C6H3Cl2+
151.0186	2	C8H6ClN+
152.0022	4	C8H5ClO+
158.9763	999	C7H5Cl2+
162.9712	5	C6H5Cl2O+
172.9557	57	C7H3Cl2O+
172.9668	35	C6H3Cl2N2+
