Mass spectrum: Tebufenpyrad; LC-ESI-QFT; MS2; CE: 60; R=17500; [M+H]+
Name: Tebufenpyrad
Name: N-[(4-tert-butylphenyl)methyl]-4-chloro-5-ethyl-2-methylpyrazole-3-carboxamide
Formula: C18H24ClN3O
Exact mass: 333.1608
SMILES: CCC1=NN(C)C(C(=O)NCC2=CC=C(C=C2)C(C)(C)C)=C1Cl
InChI: InChI=1S/C18H24ClN3O/c1-6-14-15(19)16(22(5)21-14)17(23)20-11-12-7-9-13(10-8-12)18(2,3)4/h7-10H,6,11H2,1-5H3,(H,20,23)
Instrument: Q Exactive Orbitrap (Thermo Scientific)
Instrument type: LC-ESI-QFT
Ms type: MS2
Ion mode: POSITIVE
Ionization: ESI
Fragmentation mode: HCD
Collision energy: 60
Resolution: 17500
Column name: Acquity BEH C18 1.7um, 2.1x150mm (Waters)
Retention time: 19.491 min
Base peak: 79.0211
Precursor m/z: 334.1681
Precursor type: [M+H]+
Precursor intensity: 17732869.125
m/z	relative intensity	assigned
53.0022	1	C3HO+
53.0386	1	C4H5+
54.0338	11	C3H4N+
55.0418	1	C3H5N+
55.0542	17	C4H7+
56.0131	3	C2H2NO+
56.0494	7	C3H6N+
57.0698	8	C4H9+
62.9996	7	C2H4Cl+
63.9948	1	CH3ClN+
65.0385	2	C5H5+
67.0541	1	C5H7+
68.0494	8	C4H6N+
69.0698	3	C5H9+
75.9948	95	C2H3ClN+
77.0152	2	C3H6Cl+
78.0105	6	C2H5ClN+
79.0541	5	C6H7+
80.0494	1	C5H6N+
81.0447	17	C4H5N2+
82.0524	5	C4H6N2+
82.0651	8	C5H8N+
90.0105	72	C3H5ClN+
91.0542	65	C7H7+
93.0698	8	C7H9+
95.0491	1	C6H7O+
95.0605	3	C5H7N2+
102.0104	1	C4H5ClN+
103.0543	2	C8H7+
104.0261	8	C4H7ClN+
104.0619	3	C8H8+
105.0698	214	C8H9+
107.0854	34	C8H11+
109.076	6	C6H9N2+
110.0838	2	C6H10N2+
115.0059	3	C4H4ClN2+
115.0543	1	C9H7+
116.0618	1	C9H8+
117.0213	999	C4H6ClN2+
117.0696	59	C9H9+
118.0416	2	C5H9ClN+
119.0854	259	C9H11+
129.0213	2	C5H6ClN2+
130.0291	15	C5H7ClN2+
131.0855	7	C10H11+
132.0933	238	C10H12+
143.0372	4	C6H8ClN2+
145.0526	578	C6H10ClN2+
147.1167	363	C11H15+
157.0525	1	C7H10ClN2+
162.1273	1	C11H16N+
171.0318	52	C7H8ClN2O+
188.0584	12	C7H11ClN3O+
200.0584	8	C8H11ClN3O+
275.1307	1	C16H20ClN2+
318.1382	2	C17H21ClN3O+
334.1676	6	C18H25ClN3O+
