Mass spectrum: Aziprotryne; LC-ESI-QFT; MS2; CE: 45; R=17500; [M-H]-
Name: Aziprotryne
Name: 4-azido-6-methylsulfanyl-N-propan-2-yl-1,3,5-triazin-2-amine
Formula: C7H11N7S
Exact mass: 225.0797
SMILES: CSC1=NC(NC(C)C)=NC(N=[N+]=[N-])=N1
InChI: InChI=1S/C7H11N7S/c1-4(2)9-5-10-6(13-14-8)12-7(11-5)15-3/h4H,1-3H3,(H,9,10,11,12)
Instrument: Q Exactive Orbitrap (Thermo Scientific)
Instrument type: LC-ESI-QFT
Ms type: MS2
Ion mode: NEGATIVE
Ionization: ESI
Fragmentation mode: HCD
Collision energy: 45
Resolution: 17500
Column name: Acquity BEH C18 1.7um, 2.1x150mm (Waters)
Retention time: 17.621 min
Base peak: 193.0869
Precursor m/z: 224.0724
Precursor type: [M-H]-
Precursor intensity: 758708.03125
m/z	relative intensity	assigned
57.9756	139	CNS-
66.0098	999	C2N3-
80.0129	119	C2N4-
83.0615	180	C4H7N2-
87.0022	20	C2H3N2S-
96.0567	35	C4H6N3-
134.0473	85	C5H4N5-
138.996	37	C3HN5S-
151.0738	56	C5H7N6-
153.0116	129	C4H3N5S-
154.032	33	C5H6N4S-
169.0553	52	C6H9N4S-
181.0423	30	C6H7N5S-
