Mass spectrum: 2-Amino-5-azotoluene; LC-ESI-QFT; MS2; CE: 60; R=17500; [M+H]+
Name: 2-Amino-5-azotoluene
Name: o-Aminoazotoluene
Name: 2-methyl-4-[(2-methylphenyl)diazenyl]aniline
Formula: C14H15N3
Exact mass: 225.1266
SMILES: CC1=C(N)C=CC(=C1)N=NC1=C(C)C=CC=C1
InChI: InChI=1S/C14H15N3/c1-10-5-3-4-6-14(10)17-16-12-7-8-13(15)11(2)9-12/h3-9H,15H2,1-2H3
Instrument: Q Exactive Orbitrap (Thermo Scientific)
Instrument type: LC-ESI-QFT
Ms type: MS2
Ion mode: POSITIVE
Ionization: ESI
Fragmentation mode: HCD
Collision energy: 60
Resolution: 17500
Column name: Acquity BEH C18 1.7um, 2.1x150mm (Waters)
Retention time: 18.780 min
Base peak: 79.0212
Precursor m/z: 226.1339
Precursor type: [M+H]+
Precursor intensity: 33208311.10938
m/z	relative intensity	assigned
53.0386	14	C4H5+
54.0339	1	C3H4N+
55.0543	2	C4H7+
63.0229	2	C5H3+
65.0385	97	C5H5+
66.0464	2	C5H6+
67.0416	2	C4H5N+
67.0541	4	C5H7+
68.0494	1	C4H6N+
77.0385	8	C6H5+
78.0464	2	C6H6+
79.0542	243	C6H7+
80.0494	8	C5H6N+
81.0573	2	C5H7N+
82.0651	8	C5H8N+
89.0385	2	C7H5+
91.0542	999	C7H7+
92.0494	11	C6H6N+
93.0335	2	C4H3N3+
93.0573	8	C6H7N+
94.0651	70	C6H8N+
95.0491	38	C4H5N3+
104.0494	7	C7H6N+
105.0447	18	C6H5N2+
106.0651	442	C7H8N+
107.0492	8	C5H5N3+
107.0729	75	C7H9N+
108.0572	1	C5H6N3+
108.0808	7	C7H10N+
109.0648	59	C5H7N3+
116.0493	1	C8H6N+
118.0525	14	C7H6N2+
119.0604	50	C7H7N2+
120.0682	4	C7H8N2+
120.0808	42	C8H10N+
121.076	653	C7H9N2+
122.0838	10	C7H10N2+
123.0803	1	C6H9N3+
132.0682	1	C8H8N2+
133.076	136	C8H9N2+
134.0712	4	C7H8N3+
165.0697	3	C13H9+
167.0727	6	C12H9N+
168.0807	1	C12H10N+
182.0836	1	C12H10N2+
182.0964	9	C13H12N+
183.1043	3	C13H13N+
184.0993	5	C12H12N2+
192.0807	2	C14H10N+
193.0885	1	C14H11N+
194.0838	16	C13H10N2+
195.0917	6	C13H11N2+
196.0868	4	C12H10N3+
196.1122	1	C14H14N+
197.1198	4	C14H15N+
199.1227	1	C13H15N2+
208.0992	1	C14H12N2+
209.1072	35	C14H13N2+
210.1025	13	C13H12N3+
211.1102	4	C13H13N3+
224.1183	1	C14H14N3+
226.1338	9	C14H16N3+
