Mass spectrum: AVE3247; LC-ESI-QFT; MS2; CE: 75; R=17500; [M+H]+
Name: AVE3247
Name: 1-[[5-(5-chlorothiophen-2-yl)-1,2-oxazol-3-yl]methyl]-2-[(1-cyclopropylpiperidin-4-yl)carbamoyl]benzimidazole-5-carboxylic acid
Formula: C25H24ClN5O4S
Exact mass: 525.1238
SMILES: OC(=O)C1=CC=C2N(CC3=NOC(=C3)C3=CC=C(Cl)S3)C(=NC2=C1)C(=O)NC1CCN(CC1)C1CC1
InChI: InChI=1S/C25H24ClN5O4S/c26-22-6-5-21(36-22)20-12-16(29-35-20)13-31-19-4-1-14(25(33)34)11-18(19)28-23(31)24(32)27-15-7-9-30(10-8-15)17-2-3-17/h1,4-6,11-12,15,17H,2-3,7-10,13H2,(H,27,32)(H,33,34)
Instrument: Q Exactive Orbitrap (Thermo Scientific)
Instrument type: LC-ESI-QFT
Ms type: MS2
Ion mode: POSITIVE
Ionization: ESI
Fragmentation mode: HCD
Collision energy: 75
Resolution: 17500
Column name: Acquity BEH C18 1.7um, 2.1x150mm (Waters)
Retention time: 15.907 min
Base peak: 79.0211
Precursor m/z: 526.131
Precursor type: [M+H]+
Precursor intensity: 1523268.125
m/z	relative intensity	assigned
53.0022	73	C3HO+
53.0386	83	C4H5+
53.9975	15	C2NO+
54.0338	11	C3H4N+
55.0543	999	C4H7+
56.0495	424	C3H6N+
65.0385	24	C5H5+
67.0419	10	C4H5N+
67.0542	142	C5H7+
68.0495	203	C4H6N+
69.0699	50	C5H9+
70.0651	508	C4H8N+
72.0808	164	C4H10N+
72.9839	26	C3H2Cl+
79.0542	86	C6H7+
80.013	23	C4H2NO+
80.0495	135	C5H6N+
81.0574	41	C5H7N+
81.0699	114	C6H9+
82.0652	477	C5H8N+
83.0729	35	C5H9N+
84.0444	35	C4H6NO+
84.0808	286	C5H10N+
90.0339	17	C6H4N+
91.0542	11	C7H7+
92.0496	27	C6H6N+
93.0698	11	C7H9+
94.0651	90	C6H8N+
95.0856	86	C7H11+
96.0444	41	C5H6NO+
96.0808	441	C6H10N+
98.0965	19	C6H12N+
98.9997	16	C5H4Cl+
104.0496	14	C7H6N+
108.0028	98	C6H4S+
108.0808	15	C7H10N+
109.0886	33	C7H11N+
110.0965	24	C7H12N+
117.045	12	C7H5N2+
119.0606	40	C7H7N2+
122.0964	211	C8H12N+
124.1122	745	C8H14N+
125.071	372	C6H9N2O+
129.0447	27	C8H5N2+
130.972	8	C5H4ClS+
131.0603	34	C8H7N2+
134.006	75	C7H4NS+
135.0137	228	C7H5NS+
139.0866	62	C7H11N2O+
142.9717	296	C6H4ClS+
144.9509	313	C5H2ClOS+
145.0397	31	C8H5N2O+
163.0502	34	C8H7N2O2+
167.118	722	C9H15N2O+
169.9828	109	C7H5ClNS+
175.0503	289	C9H7N2O2+
176.0581	36	C9H8N2O2+
187.0507	14	C7H10ClN3O+
