Mass spectrum: Butylphthalyl butylglycolate; LC-ESI-QFT; MS2; CE: 45; R=17500; [M+H]+
Name: Butylphthalyl butylglycolate
Name: Butoxycarbonylmethyl butyl phthalate
Name: 2-O-(2-butoxy-2-oxoethyl) 1-O-butyl benzene-1,2-dicarboxylate
Formula: C18H24O6
Exact mass: 336.1573
SMILES: CCCCOC(=O)COC(=O)C1=CC=CC=C1C(=O)OCCCC
InChI: InChI=1S/C18H24O6/c1-3-5-11-22-16(19)13-24-18(21)15-10-8-7-9-14(15)17(20)23-12-6-4-2/h7-10H,3-6,11-13H2,1-2H3
Instrument: Q Exactive Orbitrap (Thermo Scientific)
Instrument type: LC-ESI-QFT
Ms type: MS2
Ion mode: POSITIVE
Ionization: ESI
Fragmentation mode: HCD
Collision energy: 45
Resolution: 17500
Column name: Acquity BEH C18 1.7um, 2.1x150mm (Waters)
Retention time: 18.947 min
Base peak: 79.0211
Precursor m/z: 337.1646
Precursor type: [M+H]+
Precursor intensity: 2386963.03125
m/z	relative intensity	assigned
57.0698	122	C4H9+
149.0233	999	C8H5O3+
152.0624	226	C12H8+
