Mass spectrum: 4,4`-Methylenebis(2,6-diethylaniline); LC-ESI-QFT; MS2; CE: 90; R=17500; [M+H]+
Name: 4,4'-Methylenebis(2,6-diethylaniline)
Name: 4-[(4-amino-3,5-diethylphenyl)methyl]-2,6-diethylaniline
Formula: C21H30N2
Exact mass: 310.2409
SMILES: CCC1=CC(CC2=CC(CC)=C(N)C(CC)=C2)=CC(CC)=C1N
InChI: InChI=1S/C21H30N2/c1-5-16-10-14(11-17(6-2)20(16)22)9-15-12-18(7-3)21(23)19(8-4)13-15/h10-13H,5-9,22-23H2,1-4H3
Instrument: Q Exactive Orbitrap (Thermo Scientific)
Instrument type: LC-ESI-QFT
Ms type: MS2
Ion mode: POSITIVE
Ionization: ESI
Fragmentation mode: HCD
Collision energy: 90
Resolution: 17500
Column name: Acquity BEH C18 1.7um, 2.1x150mm (Waters)
Retention time: 16.990 min
Base peak: 79.0211
Precursor m/z: 311.2482
Precursor type: [M+H]+
Precursor intensity: 31100655.15625
m/z	relative intensity	assigned
53.0385	6	C4H5+
55.0542	1	C4H7+
65.0385	7	C5H5+
67.0542	5	C5H7+
77.0386	3	C6H5+
78.0463	6	C6H6+
79.0541	27	C6H7+
80.0494	16	C5H6N+
89.0385	1	C7H5+
91.0542	161	C7H7+
92.062	5	C7H8+
93.0573	2	C6H7N+
93.0698	6	C7H9+
94.0651	66	C6H8N+
95.0729	8	C6H9N+
103.0542	21	C8H7+
104.0493	10	C7H6N+
104.062	3	C8H8+
105.0699	121	C8H9+
106.065	22	C7H8N+
107.0729	4	C7H9N+
107.0854	3	C8H11+
108.0807	2	C7H10N+
115.0542	287	C9H7+
116.062	60	C9H8+
117.0698	167	C9H9+
118.065	47	C8H8N+
119.0729	154	C8H9N+
119.0854	12	C9H11+
120.0807	13	C8H10N+
121.0884	1	C8H11N+
128.062	64	C10H8+
129.0698	115	C10H9+
130.0653	31	C9H8N+
130.0776	78	C10H10+
131.073	26	C9H9N+
131.0854	5	C10H11+
132.0807	183	C9H10N+
133.0885	35	C9H11N+
134.0963	35	C9H12N+
141.0698	5	C11H9+
142.0776	2	C11H10+
143.0729	6	C10H9N+
143.0857	9	C11H11+
144.0808	13	C10H10N+
145.0889	9	C10H11N+
145.1012	41	C11H13+
146.0963	999	C10H12N+
147.1041	639	C10H13N+
148.1119	1	C10H14N+
154.0777	1	C12H10+
155.0603	6	C10H7N2+
155.0852	1	C12H11+
156.0809	4	C11H10N+
157.0889	4	C11H11N+
158.0964	3	C11H12N+
160.1119	11	C11H14N+
161.12	1	C11H15N+
162.1276	689	C11H16N+
165.0696	6	C13H9+
167.0853	3	C13H11+
170.0965	2	C12H12N+
171.1038	2	C12H13N+
172.1116	1	C12H14N+
178.0774	9	C14H10+
179.0853	9	C14H11+
180.0806	20	C13H10N+
181.0883	5	C13H11N+
181.1011	1	C14H13+
182.0961	2	C13H12N+
190.0778	8	C15H10+
191.0853	14	C15H11+
192.0928	4	C15H12+
193.0886	46	C14H11N+
193.1007	4	C15H13+
194.0964	17	C14H12N+
194.1073	1	C15H14+
195.1042	2	C14H13N+
196.1116	2	C14H14N+
203.0855	14	C16H11+
204.0933	13	C16H12+
205.0884	4	C15H11N+
205.101	13	C16H13+
206.0963	151	C15H12N+
207.1041	76	C15H13N+
208.1118	20	C15H14N+
209.1072	2	C14H13N2+
209.1198	3	C15H15N+
210.1271	1	C15H16N+
217.1012	5	C17H13+
218.1087	3	C17H14+
219.1039	6	C16H13N+
219.1167	6	C17H15+
220.112	60	C16H14N+
221.1197	96	C16H15N+
222.1148	3	C15H14N2+
222.1275	11	C16H16N+
223.1224	2	C15H15N2+
223.1351	1	C16H17N+
224.1428	1	C16H18N+
233.1326	3	C18H17+
234.1276	20	C17H16N+
235.1355	22	C17H17N+
236.1432	32	C17H18N+
237.1384	2	C16H17N2+
237.1509	1	C17H19N+
238.159	3	C17H20N+
248.1432	24	C18H18N+
249.1511	7	C18H19N+
250.159	12	C18H20N+
251.1539	1	C17H19N2+
253.1696	1	C17H21N2+
264.1745	45	C19H22N+
265.1694	5	C18H21N2+
266.1741	2	C18H22N2+
278.1898	1	C20H24N+
281.2016	1	C19H25N2+
