Mass spectrum: SAR115740; LC-ESI-QFT; MS2; CE: 90; R=17500; [M+H]+
Name: SAR115740
Name: 5-fluoro-1-[(3-fluorophenyl)methyl]-N-(1H-indol-5-yl)indole-2-carboxamide
Formula: C24H17F2N3O
Exact mass: 401.1340
SMILES: FC1=CC=C2N(CC3=CC(F)=CC=C3)C(=CC2=C1)C(=O)NC1=CC=C2NC=CC2=C1
InChI: InChI=1S/C24H17F2N3O/c25-18-3-1-2-15(10-18)14-29-22-7-4-19(26)11-17(22)13-23(29)24(30)28-20-5-6-21-16(12-20)8-9-27-21/h1-13,27H,14H2,(H,28,30)
Instrument: Q Exactive Orbitrap (Thermo Scientific)
Instrument type: LC-ESI-QFT
Ms type: MS2
Ion mode: POSITIVE
Ionization: ESI
Fragmentation mode: HCD
Collision energy: 90
Resolution: 17500
Column name: Acquity BEH C18 1.7um, 2.1x150mm (Waters)
Retention time: 18.363 min
Base peak: 79.0212
Precursor m/z: 402.1412
Precursor type: [M+H]+
Precursor intensity: 9381737.609375
m/z	relative intensity	assigned
57.0135	17	C3H2F+
59.0292	15	C3H4F+
63.0229	12	C5H3+
80.0494	6	C5H6N+
83.0291	290	C5H4F+
85.0448	1	C5H6F+
89.0386	38	C7H5+
90.0339	1	C6H4N+
92.0496	1	C6H6N+
95.0492	5	C6H7O+
96.0444	10	C5H6NO+
104.0495	254	C7H6N+
105.0447	4	C6H5N2+
105.0573	34	C7H7N+
106.0651	7	C7H8N+
107.0292	133	C7H4F+
108.0445	2	C6H6NO+
109.0448	999	C7H6F+
110.0398	4	C6H5FN+
116.0495	33	C8H6N+
117.0573	10	C8H7N+
123.024	1	C7H4FO+
123.0353	2	C6H4FN2+
128.0495	3	C9H6N+
129.0447	3	C8H5N2+
130.0524	3	C8H6N2+
131.0604	258	C8H7N2+
132.0682	506	C8H8N2+
133.0759	7	C8H9N2+
134.04	13	C8H5FN+
134.06	16	C8H8NO+
135.0478	11	C8H6FN+
136.0557	24	C8H7FN+
142.0527	2	C9H6N2+
143.0604	12	C9H7N2+
144.0557	5	C8H6N3+
145.0761	3	C9H9N2+
146.0399	1	C9H5FN+
148.0557	15	C9H7FN+
149.0273	4	C8H4FNO+
150.0349	2	C8H5FNO+
152.0506	11	C8H7FNO+
162.0349	21	C9H5FNO+
164.0501	1	C9H7FNO+
165.0699	19	C13H9+
167.0375	4	C11H5NO+
171.055	9	C10H7N2O+
180.0803	1	C13H10N+
181.0536	1	C12H7NO+
191.0729	4	C14H9N+
192.0807	2	C14H10N+
194.0524	3	C9H6F2N3+
195.0604	3	C14H8F+
196.0681	4	C9H8F2N3+
211.079	9	C14H10FN+
212.0869	8	C14H11FN+
221.0631	2	C15H8FN+
222.0712	20	C15H9FN+
223.0788	1	C15H10FN+
225.0508	2	C15H7F2+
237.0824	4	C15H10FN2+
240.0619	3	C15H8F2N+
250.0659	1	C16H9FNO+
252.0621	4	C16H8F2N+
253.0693	2	C16H9F2N+
356.1306	4	C23H17FN2O+
