Mass spectrum: Bupropion; LC-ESI-QFT; MS2; CE: 15; R=17500; [M+H]+
Name: Bupropion
Name: 2-(tert-butylamino)-1-(3-chlorophenyl)propan-1-one
Formula: C13H18ClNO
Exact mass: 239.1077
SMILES: CC(NC(C)(C)C)C(=O)C1=CC=CC(Cl)=C1
InChI: InChI=1S/C13H18ClNO/c1-9(15-13(2,3)4)12(16)10-6-5-7-11(14)8-10/h5-9,15H,1-4H3
Instrument: Q Exactive Orbitrap (Thermo Scientific)
Instrument type: LC-ESI-QFT
Ms type: MS2
Ion mode: POSITIVE
Ionization: ESI
Fragmentation mode: HCD
Collision energy: 15
Resolution: 17500
Column name: Acquity BEH C18 1.7um, 2.1x150mm (Waters)
Retention time: 13.415 min
Base peak: 79.0211
Precursor m/z: 240.115
Precursor type: [M+H]+
Precursor intensity: 24768640.5625
m/z	relative intensity	assigned
57.0699	26	C4H9+
131.0729	3	C9H9N+
138.9946	1	C7H4ClO+
139.0311	1	C8H8Cl+
166.0419	71	C9H9ClN+
167.0259	31	C9H8ClO+
184.0524	999	C9H11ClNO+
240.1151	270	C13H19ClNO+
