Mass spectrum: Fipexide; LC-ESI-QFT; MS2; CE: 60; R=17500; [M+H]+
Name: Fipexide
Name: 1-[4-(1,3-benzodioxol-5-ylmethyl)piperazin-1-yl]-2-(4-chlorophenoxy)ethanone
Formula: C20H21ClN2O4
Exact mass: 388.1190
SMILES: ClC1=CC=C(OCC(=O)N2CCN(CC3=CC4=C(OCO4)C=C3)CC2)C=C1
InChI: InChI=1S/C20H21ClN2O4/c21-16-2-4-17(5-3-16)25-13-20(24)23-9-7-22(8-10-23)12-15-1-6-18-19(11-15)27-14-26-18/h1-6,11H,7-10,12-14H2
Instrument: Q Exactive Orbitrap (Thermo Scientific)
Instrument type: LC-ESI-QFT
Ms type: MS2
Ion mode: POSITIVE
Ionization: ESI
Fragmentation mode: HCD
Collision energy: 60
Resolution: 17500
Column name: Acquity BEH C18 1.7um, 2.1x150mm (Waters)
Retention time: 13.929 min
Base peak: 79.0212
Precursor m/z: 389.1263
Precursor type: [M+H]+
Precursor intensity: 10619789.625
m/z	relative intensity	assigned
51.0231	1	C4H3+
53.0386	10	C4H5+
65.0385	1	C5H5+
67.0542	3	C5H7+
77.0385	12	C6H5+
79.0542	64	C6H7+
84.0682	1	C4H8N2+
94.0413	1	C6H6O+
95.0492	33	C6H7O+
105.0335	29	C7H5O+
105.0447	12	C6H5N2+
107.0492	2	C7H7O+
135.044	999	C8H7O2+
