Mass spectrum: N-Benzyladenine; LC-ESI-QFT; MS2; CE: 60; R=17500; [M-H]-
Name: N-Benzyladenine
Name: 6-Benzylaminopurine
Name: N-benzyl-7H-purin-6-amine
Formula: C12H11N5
Exact mass: 225.1014
SMILES: C(NC1=C2N=CN=C2N=CN1)C1=CC=CC=C1
InChI: InChI=1S/C12H11N5/c1-2-4-9(5-3-1)6-13-11-10-12(15-7-14-10)17-8-16-11/h1-5,7-8H,6H2,(H2,13,14,15,16,17)
Instrument: Q Exactive Orbitrap (Thermo Scientific)
Instrument type: LC-ESI-QFT
Ms type: MS2
Ion mode: NEGATIVE
Ionization: ESI
Fragmentation mode: HCD
Collision energy: 60
Resolution: 17500
Column name: Acquity BEH C18 1.7um, 2.1x150mm (Waters)
Retention time: 13.477 min
Base peak: 112.9857
Precursor m/z: 224.0942
Precursor type: [M-H]-
Precursor intensity: 13197290.1897
m/z	relative intensity	assigned
66.0096	3	C2N3-
79.0176	6	C3HN3-
92.0255	3	C4H2N3-
106.0285	53	C4H2N4-
117.0207	17	C5HN4-
119.0362	5	C5H3N4-
132.0317	153	C5H2N5-
133.0393	999	C5H3N5-
146.0473	3	C6H4N5-
182.0727	2	C11H8N3-
207.0678	5	C12H7N4-
208.0754	5	C12H8N4-
222.0787	4	C12H8N5-
224.0942	16	C12H10N5-
