Mass spectrum: SB413217A; LC-ESI-QFT; MS2; CE: 45; R=17500; [M+H]+
Name: SB413217A
Name: (E)-3-(4-fluorophenyl)-N-[4-[2-[7-(5-methyl-1,2,4-oxadiazol-3-yl)-1,2,4,5-tetrahydro-3-benzazepin-3-yl]ethyl]cyclohexyl]prop-2-enamide
Formula: C30H35FN4O2
Exact mass: 502.2744
SMILES: Cc1nc(-c2ccc3c(c2)CCN(CCC2CCC(NC(=O)/C=C/c4ccc(F)cc4)CC2)CC3)no1
InChI: InChI=1S/C30H35FN4O2/c1-21-32-30(34-37-21)26-8-7-24-15-18-35(19-16-25(24)20-26)17-14-23-4-11-28(12-5-23)33-29(36)13-6-22-2-9-27(31)10-3-22/h2-3,6-10,13,20,23,28H,4-5,11-12,14-19H2,1H3,(H,33,36)/b13-6+
Instrument: Q Exactive Orbitrap (Thermo Scientific)
Instrument type: LC-ESI-QFT
Ms type: MS2
Ion mode: POSITIVE
Ionization: ESI
Fragmentation mode: HCD
Collision energy: 45
Resolution: 17500
Column name: Acquity BEH C18 1.7um, 2.1x150mm (Waters)
Retention time: 15.241 min
Base peak: 79.0211
Precursor m/z: 503.2817
Precursor type: [M+H]+
Precursor intensity: 8365699.75
m/z	relative intensity	assigned
58.0651	1	C3H8N+
65.0385	1	C5H5+
67.0542	76	C5H7+
75.023	1	C6H3+
79.0542	2	C6H7+
81.0698	16	C6H9+
91.0542	1	C7H7+
101.0386	1	C8H5+
107.0855	1	C8H11+
109.1012	36	C8H13+
121.0448	106	C8H6F+
123.0603	6	C8H8F+
124.0555	1	C7H7FN+
124.1121	7	C8H14N+
126.1277	2	C8H16N+
129.0446	4	C8H5N2+
138.1278	1	C9H16N+
148.0557	1	C9H7FN+
149.0397	999	C9H6FO+
156.0682	1	C10H8N2+
159.0916	20	C10H11N2+
160.0756	2	C10H10NO+
166.0662	58	C9H9FNO+
171.0915	15	C11H11N2+
172.0757	1	C11H10NO+
173.1071	1	C11H13N2+
185.1072	1	C12H13N2+
186.1026	1	C11H12N3+
188.1182	18	C11H14N3+
198.1024	1	C12H12N3+
200.1182	39	C12H14N3+
201.102	12	C12H13N2O+
213.1017	2	C13H13N2O+
214.1336	2	C13H16N3+
218.1292	2	C12H16N3O+
228.1129	1	C13H14N3O+
230.1287	48	C13H16N3O+
240.1127	1	C14H14N3O+
242.1287	179	C14H16N3O+
256.1442	4	C15H18N3O+
296.2121	26	C19H26N3+
297.1956	1	C19H25N2O+
313.2386	3	C19H29N4+
314.2228	2	C19H28N3O+
338.2226	89	C21H28N3O+
355.2495	6	C21H31N4O+
461.2709	3	C28H34FN4O+
503.2807	2	C30H36FN4O2+
