Mass spectrum: 2,2`,4,4`-Tetrahydroxybenzophenone; LC-ESI-QFT; MS2; CE: 75; R=17500; [M-H]-
Name: 2,2',4,4'-Tetrahydroxybenzophenone
Name: bis(2,4-dihydroxyphenyl)methanone
Formula: C13H10O5
Exact mass: 246.0528
SMILES: OC1=CC(O)=C(C=C1)C(=O)C1=CC=C(O)C=C1O
InChI: InChI=1S/C13H10O5/c14-7-1-3-9(11(16)5-7)13(18)10-4-2-8(15)6-12(10)17/h1-6,14-17H
Instrument: Q Exactive Orbitrap (Thermo Scientific)
Instrument type: LC-ESI-QFT
Ms type: MS2
Ion mode: NEGATIVE
Ionization: ESI
Fragmentation mode: HCD
Collision energy: 75
Resolution: 17500
Column name: Acquity BEH C18 1.7um, 2.1x150mm (Waters)
Retention time: 14.968 min
Base peak: 245.0455
Precursor m/z: 245.0455
Precursor type: [M-H]-
Precursor intensity: 34075417.83984
m/z	relative intensity	assigned
63.0239	5	C5H3-
65.0033	60	C4HO-
65.0397	396	C5H5-
67.0189	188	C4H3O-
69.0346	1	C4H5O-
79.0189	1	C5H3O-
81.0345	1	C5H5O-
89.0397	11	C7H5-
91.019	941	C6H3O-
92.9981	1	C5HO2-
95.014	1	C5H3O2-
97.0293	1	C5H5O2-
107.014	12	C6H3O2-
108.0218	2	C6H4O2-
109.0295	999	C6H5O2-
115.0553	9	C9H7-
117.0347	4	C8H5O-
123.0088	2	C6H3O3-
124.0168	2	C6H4O3-
128.0633	2	C10H8-
129.0711	1	C10H9-
130.0422	5	C9H6O-
131.0503	9	C9H7O-
133.0296	6	C8H5O2-
133.0661	2	C9H9O-
135.0088	84	C7H3O3-
153.0194	16	C7H5O4-
156.0582	2	C11H8O-
157.066	1	C11H9O-
158.0373	9	C10H6O2-
159.0451	19	C10H7O2-
161.0245	10	C9H5O3-
173.0611	1	C11H9O2-
177.0558	2	C10H9O3-
227.0351	1	C13H7O4-
