Mass spectrum: Pyrimethanil; LC-ESI-QFT; MS2; CE: 60; R=17500; [M+H]+
Name: Pyrimethanil
Name: 4,6-dimethyl-N-phenylpyrimidin-2-amine
Formula: C12H13N3
Exact mass: 199.1109
SMILES: CC1=CC(C)=NC(NC2=CC=CC=C2)=N1
InChI: InChI=1S/C12H13N3/c1-9-8-10(2)14-12(13-9)15-11-6-4-3-5-7-11/h3-8H,1-2H3,(H,13,14,15)
Instrument: Q Exactive Orbitrap (Thermo Scientific)
Instrument type: LC-ESI-QFT
Ms type: MS2
Ion mode: POSITIVE
Ionization: ESI
Fragmentation mode: HCD
Collision energy: 60
Resolution: 17500
Column name: Acquity BEH C18 1.7um, 2.1x150mm (Waters)
Retention time: 16.235 min
Base peak: 79.0211
Precursor m/z: 200.1182
Precursor type: [M+H]+
Precursor intensity: 21526087.875
m/z	relative intensity	assigned
53.0386	4	C4H5+
55.0543	2	C4H7+
58.0651	8	C3H8N+
65.0385	4	C5H5+
66.0338	16	C4H4N+
67.0289	4	C3H3N2+
67.0416	7	C4H5N+
70.0651	1	C4H8N+
77.0387	1	C6H5+
80.0494	48	C5H6N+
82.0651	194	C5H8N+
83.0603	16	C4H7N2+
91.0542	1	C7H7+
92.0494	8	C6H6N+
93.0573	10	C6H7N+
94.0651	4	C6H8N+
95.0491	3	C4H5N3+
95.0603	1	C5H7N2+
97.076	1	C5H9N2+
105.0445	1	C6H5N2+
107.0603	215	C6H7N2+
108.0682	1	C6H8N2+
115.0542	3	C9H7+
117.057	1	C8H7N+
118.0525	2	C7H6N2+
118.0651	19	C8H8N+
119.0603	18	C7H7N2+
123.079	2	C6H9N3+
129.0697	2	C10H9+
131.0602	1	C8H7N2+
132.0808	3	C9H10N+
142.0651	16	C10H8N+
143.0603	41	C9H7N2+
143.0729	6	C10H9N+
146.084	1	C9H10N2+
156.0681	1	C10H8N2+
156.0808	8	C11H10N+
158.0841	2	C10H10N2+
158.0964	4	C11H12N+
159.0916	22	C10H11N2+
160.0995	2	C10H12N2+
166.0651	6	C12H8N+
167.0727	5	C12H9N+
168.0681	32	C11H8N2+
173.1071	5	C11H13N2+
181.0763	2	C12H9N2+
182.0839	39	C12H10N2+
183.0917	148	C12H11N2+
184.0871	2	C11H10N3+
185.0948	8	C11H11N3+
198.1024	4	C12H12N3+
199.1107	2	C12H13N3+
200.1181	999	C12H14N3+
