Mass spectrum: Cyclopamine; LC-ESI-QFT; MS2; CE: 30; R=17500; [M+H]+
Name: Cyclopamine
Name: (3S,3'R,3'aS,6'S,6aS,6bS,7'aR,9R,11aS,11bR)-3',6',10,11b-tetramethylspiro[2,3,4,6,6a,6b,7,8,11,11a-decahydro-1H-benzo[a]fluorene-9,2'-3a,4,5,6,7,7a-hexahydro-3H-furo[3,2-b]pyridine]-3-ol
Formula: C27H41NO2
Exact mass: 411.3137
SMILES: C[C@@H]1[C@@H]2NC[C@@H](C)C[C@H]2O[C@]11CC[C@H]2[C@@H]3CC=C4C[C@@H](O)CC[C@]4(C)[C@H]3CC2=C1C
InChI: InChI=1S/C27H41NO2/c1-15-11-24-25(28-14-15)17(3)27(30-24)10-8-20-21-6-5-18-12-19(29)7-9-26(18,4)23(21)13-22(20)16(27)2/h5,15,17,19-21,23-25,28-29H,6-14H2,1-4H3/t15-,17+,19-,20-,21-,23-,24+,25-,26-,27-/m0/s1
Instrument: Q Exactive Orbitrap (Thermo Scientific)
Instrument type: LC-ESI-QFT
Ms type: MS2
Ion mode: POSITIVE
Ionization: ESI
Fragmentation mode: HCD
Collision energy: 30
Resolution: 17500
Column name: Acquity BEH C18 1.7um, 2.1x150mm (Waters)
Retention time: 15.350 min
Base peak: 79.0211
Precursor m/z: 412.321
Precursor type: [M+H]+
Precursor intensity: 8413201.25
m/z	relative intensity	assigned
67.0542	7	C5H7+
70.0651	1	C4H8N+
81.0698	3	C6H9+
84.0808	41	C5H10N+
85.0648	8	C5H9O+
93.0698	1	C7H9+
95.0856	1	C7H11+
96.0808	4	C6H10N+
98.0964	6	C6H12N+
99.0805	2	C6H11O+
100.0755	1	C5H10NO+
102.0913	25	C5H12NO+
105.0699	1	C8H9+
107.0857	2	C8H11+
109.1012	58	C8H13+
110.0964	1	C7H12N+
112.0757	6	C6H10NO+
114.0914	105	C6H12NO+
119.0855	1	C9H11+
121.1014	2	C9H13+
124.1121	3	C8H14N+
125.0962	1	C8H13O+
126.1277	64	C8H16N+
131.0857	1	C10H11+
133.1011	9	C10H13+
135.1168	2	C10H15+
140.107	4	C8H14NO+
142.1227	3	C8H16NO+
143.0855	1	C11H11+
145.1012	4	C11H13+
147.1167	2	C11H15+
151.1117	4	C10H15O+
157.1011	4	C12H13+
159.1168	6	C12H15+
161.1325	3	C12H17+
163.1119	1	C11H15O+
171.1172	3	C13H15+
173.1325	4	C13H17+
183.1168	1	C14H15+
185.1328	2	C14H17+
195.1169	1	C15H15+
197.1325	1	C15H17+
209.1323	1	C16H17+
211.1479	1	C16H19+
213.1638	10	C16H21+
223.1479	1	C17H19+
239.1791	1	C18H23+
251.1799	1	C19H23+
253.1953	6	C19H25+
271.2053	1	C19H27O+
279.2104	4	C21H27+
281.1903	1	C20H25O+
287.2004	2	C19H27O2+
295.2061	1	C21H27O+
297.2213	7	C21H29O+
299.2367	1	C21H31O+
321.2215	11	C23H29O+
335.2374	6	C24H31O+
359.2731	1	C27H35+
377.2841	12	C27H37O+
394.3107	22	C27H40NO+
395.2952	1	C27H39O2+
412.3212	999	C27H42NO2+
