Mass spectrum: PharmaGSID_47333; LC-ESI-QFT; MS2; CE: 90; R=17500; [M+H]+
Name: (3S)-3-(2-methylpyrimidin-5-yl)-9-(5,6,7,8-tetrahydro-1,8-naphthyridin-2-yl)nonanoic acid
Name: PharmaGSID_47333
Formula: C22H30N4O2
Exact mass: 382.2369
SMILES: CC1=NC=C(C=N1)[C@@H](CCCCCCC1=NC2=C(CCCN2)C=C1)CC(O)=O
InChI: InChI=1S/C22H30N4O2/c1-16-24-14-19(15-25-16)18(13-21(27)28)7-4-2-3-5-9-20-11-10-17-8-6-12-23-22(17)26-20/h10-11,14-15,18H,2-9,12-13H2,1H3,(H,23,26)(H,27,28)/t18-/m0/s1
Instrument: Q Exactive Orbitrap (Thermo Scientific)
Instrument type: LC-ESI-QFT
Ms type: MS2
Ion mode: POSITIVE
Ionization: ESI
Fragmentation mode: HCD
Collision energy: 90
Resolution: 17500
Column name: Acquity BEH C18 1.7um, 2.1x150mm (Waters)
Retention time: 13.643 min
Base peak: 79.0212
Precursor m/z: 383.2442
Precursor type: [M+H]+
Precursor intensity: 18441010.75
m/z	relative intensity	assigned
53.0385	2	C4H5+
65.0385	3	C5H5+
67.0416	2	C4H5N+
67.0542	2	C5H7+
68.0494	1	C4H6N+
79.0542	6	C6H7+
80.0494	27	C5H6N+
82.0651	2	C5H8N+
91.0542	7	C7H7+
92.0493	3	C6H6N+
93.0573	9	C6H7N+
93.0699	2	C7H9+
94.0651	11	C6H8N+
95.0492	3	C6H7O+
95.0603	2	C5H7N2+
103.0541	4	C8H7+
104.0493	6	C7H6N+
105.0446	4	C6H5N2+
105.0573	1	C7H7N+
105.0698	2	C8H9+
106.0651	20	C7H8N+
107.0603	11	C6H7N2+
107.0728	3	C7H9N+
108.0443	1	C6H6NO+
108.0681	7	C6H8N2+
108.0807	1	C7H10N+
109.0761	1	C6H9N2+
110.0601	2	C6H8NO+
115.054	2	C9H7+
116.0494	8	C8H6N+
117.0572	4	C8H7N+
117.0698	3	C9H9+
118.065	6	C8H8N+
119.0604	16	C7H7N2+
119.0729	1	C8H9N+
120.0682	45	C7H8N2+
120.0807	15	C8H10N+
121.076	50	C7H9N2+
122.0601	1	C7H8NO+
122.0839	7	C7H10N2+
123.0551	4	C6H7N2O+
123.0917	1	C7H11N2+
125.0709	2	C6H9N2O+
130.0652	10	C9H8N+
131.0603	3	C8H7N2+
131.073	1	C9H9N+
132.0682	31	C8H8N2+
132.0803	3	C9H10N+
133.076	262	C8H9N2+
134.0599	7	C8H8NO+
134.0837	11	C8H10N2+
134.0962	6	C9H12N+
135.0916	12	C8H11N2+
135.1043	3	C9H13N+
143.073	4	C10H9N+
144.0683	3	C9H8N2+
144.0808	8	C10H10N+
145.0761	14	C9H9N2+
146.0839	11	C9H10N2+
146.0964	1	C10H12N+
147.0916	456	C9H11N2+
148.0994	377	C9H12N2+
149.1073	3	C9H13N2+
151.0865	5	C8H11N2O+
157.076	4	C10H9N2+
159.0917	10	C10H11N2+
160.0997	2	C10H12N2+
161.1072	999	C10H13N2+
162.115	16	C10H14N2+
165.102	1	C9H13N2O+
171.0914	3	C11H11N2+
172.0993	3	C11H12N2+
173.1072	18	C11H13N2+
174.115	2	C11H14N2+
175.1229	107	C11H15N2+
183.0916	1	C12H11N2+
185.1069	1	C12H13N2+
187.1228	8	C12H15N2+
189.1386	8	C12H17N2+
199.1224	1	C13H15N2+
203.1542	4	C13H19N2+
217.1696	2	C14H21N2+
