Mass spectrum: Phosfolan; LC-ESI-QFT; MS2; CE: 90; R=17500; [M+H]+
Name: Phosfolan
Name: N-diethoxyphosphoryl-1,3-dithiolan-2-imine
Formula: C7H14NO3PS2
Exact mass: 255.0153
SMILES: CCOP(=O)(OCC)N=C1SCCS1
InChI: InChI=1S/C7H14NO3PS2/c1-3-10-12(9,11-4-2)8-7-13-5-6-14-7/h3-6H2,1-2H3
Instrument: Q Exactive Orbitrap (Thermo Scientific)
Instrument type: LC-ESI-QFT
Ms type: MS2
Ion mode: POSITIVE
Ionization: ESI
Fragmentation mode: HCD
Collision energy: 90
Resolution: 17500
Column name: Acquity BEH C18 1.7um, 2.1x150mm (Waters)
Retention time: 14.064 min
Base peak: 79.0212
Precursor m/z: 256.0225
Precursor type: [M+H]+
Precursor intensity: 35072372
m/z	relative intensity	assigned
58.995	12	C2H3S+
59.9903	812	CH2NS+
61.0106	999	C2H5S+
64.9786	8	H2O2P+
74.0964	1	C4H12N+
80.9735	1	H2O3P+
86.0059	3	C3H4NS+
96.9509	7	H2O2PS+
109.005	21	C2H6O3P+
114.9614	78	H4O3PS+
116.9947	2	CH10PS2+
119.9936	5	C3H6NS2+
128.977	2	CH6O3PS+
137.9232	1	CHNOPS2+
139.9566	744	CH3NO3PS+
140.9769	2	C2H6O3PS+
155.9338	3	CH3NO2PS2+
