Mass spectrum: CP-114271; LC-ESI-QFT; MS2; CE: 30; R=17500; [M+H]+
Name: CP-114271
Name: 2-[4-[2-[[2-hydroxy-2-[2-(trifluoromethyl)-1,3-thiazol-4-yl]ethyl]amino]propyl]phenoxy]acetic acid
Formula: C17H19F3N2O4S
Exact mass: 404.1018
SMILES: CC(CC1=CC=C(OCC(O)=O)C=C1)NCC(O)C1=CSC(=N1)C(F)(F)F
InChI: InChI=1S/C17H19F3N2O4S/c1-10(6-11-2-4-12(5-3-11)26-8-15(24)25)21-7-14(23)13-9-27-16(22-13)17(18,19)20/h2-5,9-10,14,21,23H,6-8H2,1H3,(H,24,25)
Instrument: Q Exactive Orbitrap (Thermo Scientific)
Instrument type: LC-ESI-QFT
Ms type: MS2
Ion mode: POSITIVE
Ionization: ESI
Fragmentation mode: HCD
Collision energy: 30
Resolution: 17500
Column name: Acquity BEH C18 1.7um, 2.1x150mm (Waters)
Retention time: 13.776 min
Base peak: 79.0211
Precursor m/z: 405.109
Precursor type: [M+H]+
Precursor intensity: 18376651.25
m/z	relative intensity	assigned
91.0542	14	C7H7+
107.0489	4	C7H7O+
117.0697	1	C9H9+
119.0856	16	C9H11+
129.0699	1	C10H9+
134.0726	1	C9H10O+
135.0804	3	C9H11O+
145.0757	1	C9H9N2+
147.0804	217	C10H11O+
165.0546	144	C9H9O3+
193.0859	999	C11H13O3+
195.0196	12	C6H6F3N2S+
213.0305	4	C6H8F3N2OS+
387.0988	3	C17H18F3N2O3S+
405.1093	57	C17H20F3N2O4S+
