Mass spectrum: Methyl trans-styryl ketone; LC-ESI-QFT; MS2; CE: 15; R=17500; [M+H]+
Name: Methyl trans-styryl ketone
Name: Benzylideneacetone
Name: (E)-4-phenylbut-3-en-2-one
Formula: C10H10O
Exact mass: 146.0732
SMILES: CC(=O)\C=C\C1=CC=CC=C1
InChI: InChI=1S/C10H10O/c1-9(11)7-8-10-5-3-2-4-6-10/h2-8H,1H3/b8-7+
Instrument: Q Exactive Orbitrap (Thermo Scientific)
Instrument type: LC-ESI-QFT
Ms type: MS2
Ion mode: POSITIVE
Ionization: ESI
Fragmentation mode: HCD
Collision energy: 15
Resolution: 17500
Column name: Acquity BEH C18 1.7um, 2.1x150mm (Waters)
Retention time: 19.670 min
Base peak: 79.0211
Precursor m/z: 147.0804
Precursor type: [M+H]+
Precursor intensity: 2009481.75
m/z	relative intensity	assigned
55.0178	8	C3H3O+
69.0335	9	C4H5O+
79.0542	12	C6H7+
91.0543	208	C7H7+
93.0699	5	C7H9+
103.0542	8	C8H7+
104.0621	5	C8H8+
105.07	9	C8H9+
107.049	18	C7H7O+
117.0699	74	C9H9+
119.0856	823	C9H11+
128.0621	7	C10H8+
129.0699	95	C10H9+
132.0569	23	C9H8O+
147.0805	999	C10H11O+
