Mass spectrum: 4,4`-Thiodianiline; LC-ESI-QFT; MS2; CE: 90; R=17500; [M+H]+
Name: 4,4'-Thiodianiline
Name: 4-(4-aminophenyl)sulfanylaniline
Formula: C12H12N2S
Exact mass: 216.0721
SMILES: NC1=CC=C(SC2=CC=C(N)C=C2)C=C1
InChI: InChI=1S/C12H12N2S/c13-9-1-5-11(6-2-9)15-12-7-3-10(14)4-8-12/h1-8H,13-14H2
Instrument: Q Exactive Orbitrap (Thermo Scientific)
Instrument type: LC-ESI-QFT
Ms type: MS2
Ion mode: POSITIVE
Ionization: ESI
Fragmentation mode: HCD
Collision energy: 90
Resolution: 17500
Column name: Acquity BEH C18 1.7um, 2.1x150mm (Waters)
Retention time: 12.268 min
Base peak: 79.0211
Precursor m/z: 217.0794
Precursor type: [M+H]+
Precursor intensity: 8043859.46875
m/z	relative intensity	assigned
51.023	1	C4H3+
53.0386	16	C4H5+
55.0542	7	C4H7+
61.0106	39	C2H5S+
80.0495	664	C5H6N+
93.0574	101	C6H7N+
97.0107	67	C5H5S+
111.0234	13	C9H3+
124.0216	999	C6H6NS+
141.9875	15	C9H2S+
157.0111	3	C10H5S+
171.0264	50	C11H7S+
199.0451	212	C12H9NS+
215.0639	11	C12H11N2S+
216.0712	5	C12H12N2S+
