Mass spectrum: Fosthiazate; LC-ESI-QFT; MS2; CE: 90; R=17500; [M+H]+
Name: Fosthiazate
Name: 3-[butan-2-ylsulfanyl(ethoxy)phosphoryl]-1,3-thiazolidin-2-one
Formula: C9H18NO3PS2
Exact mass: 283.0466
SMILES: CCOP(=O)(SC(C)CC)N1CCSC1=O
InChI: InChI=1S/C9H18NO3PS2/c1-4-8(3)16-14(12,13-5-2)10-6-7-15-9(10)11/h8H,4-7H2,1-3H3
Instrument: Q Exactive Orbitrap (Thermo Scientific)
Instrument type: LC-ESI-QFT
Ms type: MS2
Ion mode: POSITIVE
Ionization: ESI
Fragmentation mode: HCD
Collision energy: 90
Resolution: 17500
Column name: Acquity BEH C18 1.7um, 2.1x150mm (Waters)
Retention time: 15.929 min
Base peak: 79.0211
Precursor m/z: 284.0538
Precursor type: [M+H]+
Precursor intensity: 9265364.53125
m/z	relative intensity	assigned
57.0699	11	C4H9+
58.9949	12	C2H3S+
61.0107	99	C2H5S+
74.0058	13	C2H4NS+
76.0216	85	C2H6NS+
94.9174	21	PS2+
104.0165	999	C3H6NOS+
114.9614	121	H4O3PS+
119.9936	9	C3H6NS2+
120.933	11	C2H2PS2+
121.9827	9	C2H5NOPS+
124.0161	6	C2H7NO3P+
137.96	39	C2H5NPS2+
139.9566	9	CH3NO3PS+
139.9928	9	C2H7NO2PS+
154.0653	16	C5H14O3S+
155.0686	16	C8H11O3+
171.9653	6	C2H7NO2PS2+
183.0878	6	C7H19OS2+
199.0827	8	C7H19O2S2+
