Mass spectrum: Tris(2-butoxyethyl) phosphate; LC-ESI-QFT; MS2; CE: 45; R=17500; [M+H]+
Name: Tris(2-butoxyethyl) phosphate
Formula: C18H39O7P
Exact mass: 398.2433
SMILES: CCCCOCCOP(=O)(OCCOCCCC)OCCOCCCC
InChI: InChI=1S/C18H39O7P/c1-4-7-10-20-13-16-23-26(19,24-17-14-21-11-8-5-2)25-18-15-22-12-9-6-3/h4-18H2,1-3H3
Instrument: Q Exactive Orbitrap (Thermo Scientific)
Instrument type: LC-ESI-QFT
Ms type: MS2
Ion mode: POSITIVE
Ionization: ESI
Fragmentation mode: HCD
Collision energy: 45
Resolution: 17500
Column name: Acquity BEH C18 1.7um, 2.1x150mm (Waters)
Retention time: 19.345 min
Base peak: 79.0211
Precursor m/z: 399.2506
Precursor type: [M+H]+
Precursor intensity: 43294115.875
m/z	relative intensity	assigned
53.0022	15	C3HO+
53.0386	6	C4H5+
55.0542	354	C4H7+
57.0699	999	C4H9+
59.0491	54	C3H7O+
67.9893	2	C3O2+
83.0855	107	C6H11+
89.0597	7	C4H9O2+
98.9842	224	H4O4P+
101.0961	117	C6H13O+
116.9946	3	H6O5P+
124.9998	52	C2H6O4P+
131.0104	1	CH8O5P+
143.0104	36	C2H8O5P+
199.073	9	C6H16O5P+
