Mass spectrum: Prometryn; LC-ESI-QFT; MS2; CE: 60; R=17500; [M+H]+
Name: Prometryn
Name: 6-methylsulfanyl-2-N,4-N-di(propan-2-yl)-1,3,5-triazine-2,4-diamine
Formula: C10H19N5S
Exact mass: 241.1361
SMILES: CSC1=NC(NC(C)C)=NC(NC(C)C)=N1
InChI: InChI=1S/C10H19N5S/c1-6(2)11-8-13-9(12-7(3)4)15-10(14-8)16-5/h6-7H,1-5H3,(H2,11,12,13,14,15)
Instrument: Q Exactive Orbitrap (Thermo Scientific)
Instrument type: LC-ESI-QFT
Ms type: MS2
Ion mode: POSITIVE
Ionization: ESI
Fragmentation mode: HCD
Collision energy: 60
Resolution: 17500
Column name: Acquity BEH C18 1.7um, 2.1x150mm (Waters)
Retention time: 16.449 min
Base peak: 79.0211
Precursor m/z: 242.1434
Precursor type: [M+H]+
Precursor intensity: 66822216.9375
m/z	relative intensity	assigned
68.0243	187	C2H2N3+
74.0058	21	C2H4NS+
85.0508	118	C2H5N4+
85.076	18	C4H9N2+
91.0324	44	C2H7N2S+
102.0121	1	C2H4N3S+
110.0461	57	C3H4N5+
110.0712	41	C5H8N3+
112.0618	2	C3H6N5+
116.0277	146	C3H6N3S+
127.0978	3	C5H11N4+
143.0257	2	C3H5N5S+
152.0931	12	C6H10N5+
152.1182	5	C8H14N3+
158.0494	999	C4H8N5S+
200.0964	145	C7H14N5S+
242.1432	19	C10H20N5S+
