Mass spectrum: Fluorescein; LC-ESI-QFT; MS2; CE: 75; R=17500; [M-H]-
Name: Fluorescein
Name: 3',6'-dihydroxyspiro[2-benzofuran-3,9'-xanthene]-1-one
Formula: C20H12O5
Exact mass: 332.0685
SMILES: OC1=CC2=C(C=C1)C1(OC(=O)C3=C1C=CC=C3)C1=C(O2)C=C(O)C=C1
InChI: InChI=1S/C20H12O5/c21-11-5-7-15-17(9-11)24-18-10-12(22)6-8-16(18)20(15)14-4-2-1-3-13(14)19(23)25-20/h1-10,21-22H
Instrument: Q Exactive Orbitrap (Thermo Scientific)
Instrument type: LC-ESI-QFT
Ms type: MS2
Ion mode: NEGATIVE
Ionization: ESI
Fragmentation mode: HCD
Collision energy: 75
Resolution: 17500
Column name: Acquity BEH C18 1.7um, 2.1x150mm (Waters)
Retention time: 15.805 min
Base peak: 331.0612
Precursor m/z: 331.0612
Precursor type: [M-H]-
Precursor intensity: 11252061.87744
m/z	relative intensity	assigned
165.0711	6	C13H9-
167.0502	3	C12H7O-
175.0553	2	C14H7-
187.0553	1	C15H7-
189.0711	16	C15H9-
193.0659	9	C14H9O-
195.0451	1	C13H7O2-
201.0709	1	C16H9-
202.0789	4	C16H10-
203.0502	5	C15H7O-
203.0862	2	C16H11-
204.0579	10	C15H8O-
213.071	9	C17H9-
215.0493	2	C16H7O-
215.0865	21	C17H11-
217.0659	38	C16H9O-
219.0812	3	C16H11O-
228.0587	4	C17H8O-
229.066	7	C17H9O-
230.0737	33	C17H10O-
231.0817	6	C17H11O-
232.0529	4	C16H8O2-
233.06	2	C16H9O2-
234.0679	2	C16H10O2-
241.066	50	C18H9O-
243.0456	2	C17H7O2-
243.0814	19	C18H11O-
245.0606	8	C17H9O2-
246.0685	10	C17H10O2-
247.0765	2	C17H11O2-
256.0534	6	C18H8O2-
257.061	33	C18H9O2-
258.0686	21	C18H10O2-
259.0765	5	C18H11O2-
284.0489	4	C19H8O3-
285.0558	999	C19H9O3-
286.0635	9	C19H10O3-
287.071	7	C19H11O3-
