Mass spectrum: Icaridin; LC-ESI-QFT; MS2; CE: 15; R=17500; [M+H]+
Name: Icaridin
Name: butan-2-yl 2-(2-hydroxyethyl)piperidine-1-carboxylate
Formula: C12H23NO3
Exact mass: 229.1678
SMILES: CCC(C)OC(=O)N1CCCCC1CCO
InChI: InChI=1S/C12H23NO3/c1-3-10(2)16-12(15)13-8-5-4-6-11(13)7-9-14/h10-11,14H,3-9H2,1-2H3
Instrument: Q Exactive Orbitrap (Thermo Scientific)
Instrument type: LC-ESI-QFT
Ms type: MS2
Ion mode: POSITIVE
Ionization: ESI
Fragmentation mode: HCD
Collision energy: 15
Resolution: 17500
Column name: Acquity BEH C18 1.7um, 2.1x150mm (Waters)
Retention time: 16.941 min
Base peak: 79.0211
Precursor m/z: 230.1751
Precursor type: [M+H]+
Precursor intensity: 9715264.78125
m/z	relative intensity	assigned
112.112	11	C7H14N+
130.1227	999	C7H16NO+
156.102	88	C8H14NO2+
174.1125	99	C8H16NO3+
