Mass spectrum: Pyridaben; LC-ESI-QFT; MS2; CE: 90; R=17500; [M+H]+
Name: Pyridaben
Formula: C19H25ClN2OS
Exact mass: 364.1376
SMILES: CC(C)(C)N1N=CC(SCC2=CC=C(C=C2)C(C)(C)C)=C(Cl)C1=O
InChI: InChI=1S/C19H25ClN2OS/c1-18(2,3)14-9-7-13(8-10-14)12-24-15-11-21-22(19(4,5)6)17(23)16(15)20/h7-11H,12H2,1-6H3
Instrument: Q Exactive Orbitrap (Thermo Scientific)
Instrument type: LC-ESI-QFT
Ms type: MS2
Ion mode: POSITIVE
Ionization: ESI
Fragmentation mode: HCD
Collision energy: 90
Resolution: 17500
Column name: Acquity BEH C18 1.7um, 2.1x150mm (Waters)
Retention time: 20.420 min
Base peak: 79.0212
Precursor m/z: 365.1449
Precursor type: [M+H]+
Precursor intensity: 17539455.25
m/z	relative intensity	assigned
53.0386	4	C4H5+
55.0543	27	C4H7+
57.07	3	C4H9+
65.0386	6	C5H5+
67.0543	2	C5H7+
69.0698	5	C5H9+
79.0542	35	C6H7+
91.0543	169	C7H7+
93.0699	15	C7H9+
103.0543	23	C8H7+
104.0621	74	C8H8+
105.0699	285	C8H9+
107.0855	38	C8H11+
109.065	5	C7H9O+
115.0543	36	C9H7+
116.0621	6	C9H8+
117.0699	999	C9H9+
119.0856	308	C9H11+
129.0695	4	C10H9+
131.0856	54	C10H11+
132.0934	664	C10H12+
145.1011	11	C11H13+
147.1168	86	C11H15+
