Mass spectrum: Thiobencarb; LC-ESI-QFT; MS2; CE: 60; R=17500; [M+H]+
Name: Thiobencarb
Name: S-[(4-chlorophenyl)methyl] N,N-diethylcarbamothioate
Formula: C12H16ClNOS
Exact mass: 257.0641
SMILES: CCN(CC)C(=O)SCC1=CC=C(Cl)C=C1
InChI: InChI=1S/C12H16ClNOS/c1-3-14(4-2)12(15)16-9-10-5-7-11(13)8-6-10/h5-8H,3-4,9H2,1-2H3
Instrument: Q Exactive Orbitrap (Thermo Scientific)
Instrument type: LC-ESI-QFT
Ms type: MS2
Ion mode: POSITIVE
Ionization: ESI
Fragmentation mode: HCD
Collision energy: 60
Resolution: 17500
Column name: Acquity BEH C18 1.7um, 2.1x150mm (Waters)
Retention time: 19.037 min
Base peak: 79.0212
Precursor m/z: 258.0714
Precursor type: [M+H]+
Precursor intensity: 2972557.625
m/z	relative intensity	assigned
58.0651	7	C3H8N+
72.0444	17	C3H6NO+
79.0214	4	C2H7OS+
89.0386	22	C7H5+
90.0464	5	C7H6+
98.9997	5	C5H4Cl+
100.1122	19	C6H14N+
125.0154	999	C7H6Cl+
138.0123	10	C7H6OS+
