Mass spectrum: Fluroxypyr-meptyl; LC-ESI-QFT; MS2; CE: 30; R=17500; [M-H]-
Name: Fluroxypyr-meptyl
Name: octan-2-yl 2-(4-amino-3,5-dichloro-6-fluoropyridin-2-yl)oxyacetate
Formula: C15H21Cl2FN2O3
Exact mass: 366.0913
SMILES: CCCCCCC(C)OC(=O)COC1=NC(F)=C(Cl)C(N)=C1Cl
InChI: InChI=1S/C15H21Cl2FN2O3/c1-3-4-5-6-7-9(2)23-10(21)8-22-15-12(17)13(19)11(16)14(18)20-15/h9H,3-8H2,1-2H3,(H2,19,20)
Instrument: Q Exactive Orbitrap (Thermo Scientific)
Instrument type: LC-ESI-QFT
Ms type: MS2
Ion mode: NEGATIVE
Ionization: ESI
Fragmentation mode: HCD
Collision energy: 30
Resolution: 17500
Column name: Acquity BEH C18 1.7um, 2.1x150mm (Waters)
Retention time: 19.914 min
Base peak: 112.9856
Precursor m/z: 365.084
Precursor type: [M-H]-
Precursor intensity: 333582.5922852
m/z	relative intensity	assigned
157.9687	10	C5ClFN2O-
160.9763	39	C4H2ClN2O3-
170.9768	14	C6HClFN2O-
172.9925	29	C6H3ClFN2O-
193.9456	999	C5HCl2FN2O-
194.9537	86	C5H2Cl2FN2O-
198.9712	50	C7HClFN2O2-
365.0838	147	C15H20Cl2FN2O3-
