Mass spectrum: Hexaconazole; LC-ESI-QFT; MS2; CE: 90; R=17500; [M+H]+
Name: Hexaconazole
Name: 2-(2,4-dichlorophenyl)-1-(1,2,4-triazol-1-yl)hexan-2-ol
Formula: C14H17Cl2N3O
Exact mass: 313.0749
SMILES: CCCCC(O)(CN1C=NC=N1)C1=CC=C(Cl)C=C1Cl
InChI: InChI=1S/C14H17Cl2N3O/c1-2-3-6-14(20,8-19-10-17-9-18-19)12-5-4-11(15)7-13(12)16/h4-5,7,9-10,20H,2-3,6,8H2,1H3
Instrument: Q Exactive Orbitrap (Thermo Scientific)
Instrument type: LC-ESI-QFT
Ms type: MS2
Ion mode: POSITIVE
Ionization: ESI
Fragmentation mode: HCD
Collision energy: 90
Resolution: 17500
Column name: Acquity BEH C18 1.7um, 2.1x150mm (Waters)
Retention time: 18.898 min
Base peak: 79.0211
Precursor m/z: 314.0821
Precursor type: [M+H]+
Precursor intensity: 20445539
m/z	relative intensity	assigned
53.0021	2	C3HO+
55.0543	6	C4H7+
57.0699	15	C4H9+
64.9787	1	CH2ClO+
70.0399	999	C2H4N3+
75.0229	5	C6H3+
86.9996	3	C4H4Cl+
89.0385	14	C7H5+
90.0464	2	C7H6+
91.0542	1	C7H7+
95.0491	1	C6H7O+
98.9996	10	C5H4Cl+
102.0464	1	C8H6+
105.0335	1	C7H5O+
110.9995	2	C6H4Cl+
112.0074	1	C6H5Cl+
115.0542	30	C9H7+
119.0602	1	C7H7N2+
122.9996	34	C7H4Cl+
124.0074	10	C7H5Cl+
125.0152	48	C7H6Cl+
129.0101	11	C6H6ClO+
132.9606	4	C5H3Cl2+
134.9996	1	C8H4Cl+
136.0075	18	C8H5Cl+
139.0057	22	C6H4ClN2+
146.9762	2	C6H5Cl2+
149.0152	9	C9H6Cl+
150.0231	14	C9H7Cl+
158.9763	144	C7H5Cl2+
163.0057	3	C8H4ClN2+
170.9762	3	C8H5Cl2+
174.9709	1	C7H5Cl2O+
