Mass spectrum: Hydramethylnon; LC-ESI-QFT; MS2; CE: 30; R=17500; [M-H]-
Name: Hydramethylnon
Name: N-[[(1E,4E)-1,5-bis[4-(trifluoromethyl)phenyl]penta-1,4-dien-3-ylidene]amino]-5,5-dimethyl-4,6-dihydro-1H-pyrimidin-2-amine
Formula: C25H24F6N4
Exact mass: 494.1905
SMILES: CC1(C)CNC(NC1)=NN=C(\C=C\C1=CC=C(C=C1)C(F)(F)F)/C=C/C1=CC=C(C=C1)C(F)(F)F
InChI: InChI=1S/C25H24F6N4/c1-23(2)15-32-22(33-16-23)35-34-21(13-7-17-3-9-19(10-4-17)24(26,27)28)14-8-18-5-11-20(12-6-18)25(29,30)31/h3-14H,15-16H2,1-2H3,(H2,32,33,35)/b13-7+,14-8+
Instrument: Q Exactive Orbitrap (Thermo Scientific)
Instrument type: LC-ESI-QFT
Ms type: MS2
Ion mode: NEGATIVE
Ionization: ESI
Fragmentation mode: HCD
Collision energy: 30
Resolution: 17500
Column name: Acquity BEH C18 1.7um, 2.1x150mm (Waters)
Retention time: 17.721 min
Base peak: 317.1619
Precursor m/z: 493.1832
Precursor type: [M-H]-
Precursor intensity: 5187646.949219
m/z	relative intensity	assigned
95.0614	7	C5H7N2-
121.0772	3	C7H9N2-
126.1038	19	C3H14F4-
145.0271	446	C7H4F3-
159.0428	49	C8H6F3-
169.0275	2	C9H4F3-
183.0429	3	C10H6F3-
184.0379	17	C9H5F3N-
186.0537	5	C9H7F3N-
189.0169	32	C14H2F-
198.0405	2	C9H5F3N2-
211.049	2	C10H6F3N2-
220.0692	31	C8H10F6-
224.0566	7	C11H7F3N2-
237.0645	867	C12H8F3N2-
238.0598	110	C11H7F3N3-
240.1007	12	C13H13F3N-
242.1166	10	C13H15F3N-
255.1113	57	C13H14F3N2-
263.0544	4	C12H6F3N4-
276.1317	999	C15H16F2N3-
294.1225	105	C20H16F2-
296.138	377	C15H17F3N3-
330.1215	4	C18H15F3N3-
347.1488	178	C18H18F3N4-
363.0928	13	C19H12F5N2-
367.0795	6	C22H9F2N4-
381.0834	82	C19H11F6N2-
383.099	309	C19H13F6N2-
437.1205	60	C21H15F6N4-
473.1739	4	C25H22F5N4-
493.1834	81	C25H23F6N4-
