Mass spectrum: Fosthiazate; LC-ESI-QFT; MS2; CE: 45; R=17500; [M+H]+
Name: Fosthiazate
Name: 3-[butan-2-ylsulfanyl(ethoxy)phosphoryl]-1,3-thiazolidin-2-one
Formula: C9H18NO3PS2
Exact mass: 283.0466
SMILES: CCOP(=O)(SC(C)CC)N1CCSC1=O
InChI: InChI=1S/C9H18NO3PS2/c1-4-8(3)16-14(12,13-5-2)10-6-7-15-9(10)11/h8H,4-7H2,1-3H3
Instrument: Q Exactive Orbitrap (Thermo Scientific)
Instrument type: LC-ESI-QFT
Ms type: MS2
Ion mode: POSITIVE
Ionization: ESI
Fragmentation mode: HCD
Collision energy: 45
Resolution: 17500
Column name: Acquity BEH C18 1.7um, 2.1x150mm (Waters)
Retention time: 15.929 min
Base peak: 79.0211
Precursor m/z: 284.0538
Precursor type: [M+H]+
Precursor intensity: 9260163.1875
m/z	relative intensity	assigned
57.0699	21	C4H9+
61.0107	13	C2H5S+
76.0215	4	C2H6NS+
96.951	3	H2O2PS+
104.0164	999	C3H6NOS+
114.9613	63	H4O3PS+
119.9937	13	C3H6NS2+
137.9595	22	C2H5NPS2+
139.9566	17	CH3NO3PS+
153.0135	10	C4H10O2PS+
154.0652	3	C5H14O3S+
167.988	2	C3H7NO3PS+
199.9601	50	C3H7NO3PS2+
227.9912	7	C5H11NO3PS2+
