Mass spectrum: N-[3-(Dimethylamino)propyl]dodecanamide; LC-ESI-QFT; MS2; CE: 60; R=17500; [M+H]+
Name: N-[3-(Dimethylamino)propyl]dodecanamide
Formula: C17H36N2O
Exact mass: 284.2828
SMILES: CCCCCCCCCCCC(=O)NCCCN(C)C
InChI: InChI=1S/C17H36N2O/c1-4-5-6-7-8-9-10-11-12-14-17(20)18-15-13-16-19(2)3/h4-16H2,1-3H3,(H,18,20)
Instrument: Q Exactive Orbitrap (Thermo Scientific)
Instrument type: LC-ESI-QFT
Ms type: MS2
Ion mode: POSITIVE
Ionization: ESI
Fragmentation mode: HCD
Collision energy: 60
Resolution: 17500
Column name: Acquity BEH C18 1.7um, 2.1x150mm (Waters)
Retention time: 17.468 min
Base peak: 79.0211
Precursor m/z: 285.29
Precursor type: [M+H]+
Precursor intensity: 68715871.29687
m/z	relative intensity	assigned
53.0022	18	C3HO+
55.0542	59	C4H7+
57.0699	999	C4H9+
58.0651	369	C3H8N+
67.0542	124	C5H7+
69.0699	40	C5H9+
71.0855	541	C5H11+
72.0806	2	C4H10N+
79.0542	2	C6H7+
81.0699	162	C6H9+
83.0855	147	C6H11+
84.0807	4	C5H10N+
85.1012	371	C6H13+
86.0964	212	C5H12N+
93.0698	2	C7H9+
95.0855	432	C7H11+
97.1012	65	C7H13+
99.0804	5	C6H11O+
99.1168	15	C7H15+
101.096	1	C6H13O+
103.123	10	C5H15N2+
109.1012	254	C8H13+
111.117	1	C8H15+
113.1326	4	C8H17+
123.1168	56	C9H15+
165.1638	23	C12H21+
183.1744	154	C12H23O+
240.2322	674	C15H30NO+
