Mass spectrum: Amiloride; LC-ESI-QFT; MS2; CE: 15; R=17500; [M-H]-
Name: Amiloride
Name: 3,5-diamino-6-chloro-N-(diaminomethylidene)pyrazine-2-carboxamide
Formula: C6H8ClN7O
Exact mass: 229.0479
SMILES: NC(=N)NC(=O)C1=NC(Cl)=C(N)N=C1N
InChI: InChI=1S/C6H8ClN7O/c7-2-4(9)13-3(8)1(12-2)5(15)14-6(10)11/h(H4,8,9,13)(H4,10,11,14,15)
Instrument: Q Exactive Orbitrap (Thermo Scientific)
Instrument type: LC-ESI-QFT
Ms type: MS2
Ion mode: NEGATIVE
Ionization: ESI
Fragmentation mode: HCD
Collision energy: 15
Resolution: 17500
Column name: Acquity BEH C18 1.7um, 2.1x150mm (Waters)
Retention time: 9.296 min
Base peak: 228.0407
Precursor m/z: 228.0406
Precursor type: [M-H]-
Precursor intensity: 2299595.737061
m/z	relative intensity	assigned
65.0145	13	C3HN2-
84.0203	5	C2H2N3O-
107.0363	14	C4H3N4-
108.0203	53	C4H2N3O-
143.013	999	C4H4ClN4-
150.0421	18	C5H4N5O-
168.0083	13	C5H3ClN5-
168.9923	60	C5H2ClN4O-
186.0188	779	C5H5ClN5O-
211.0141	75	C6H4ClN6O-
228.0407	712	C6H7ClN7O-
