Mass spectrum: Milrinone; LC-ESI-QFT; MS2; CE: 75; R=17500; [M+H]+
Name: Milrinone
Name: 6-methyl-2-oxo-5-pyridin-4-yl-1H-pyridine-3-carbonitrile
Formula: C12H9N3O
Exact mass: 211.0746
SMILES: CC1=C(C=C(C#N)C(=O)N1)C1=CC=NC=C1
InChI: InChI=1S/C12H9N3O/c1-8-11(9-2-4-14-5-3-9)6-10(7-13)12(16)15-8/h2-6H,1H3,(H,15,16)
Instrument: Q Exactive Orbitrap (Thermo Scientific)
Instrument type: LC-ESI-QFT
Ms type: MS2
Ion mode: POSITIVE
Ionization: ESI
Fragmentation mode: HCD
Collision energy: 75
Resolution: 17500
Column name: Acquity BEH C18 1.7um, 2.1x150mm (Waters)
Retention time: 3.084 min
Base peak: 79.0212
Precursor m/z: 212.0818
Precursor type: [M+H]+
Precursor intensity: 7026869.1875
m/z	relative intensity	assigned
52.0183	3	C3H2N+
53.0387	3	C4H5+
54.0338	14	C3H4N+
63.0229	6	C5H3+
64.0181	4	C4H2N+
65.0385	9	C5H5+
67.0416	3	C4H5N+
68.0129	3	C3H2NO+
78.0338	16	C5H4N+
79.0416	21	C5H5N+
80.0493	30	C5H6N+
89.0385	48	C7H5+
90.0339	6	C6H4N+
91.0541	11	C7H7+
92.0494	29	C6H6N+
93.0573	55	C6H7N+
94.0652	21	C6H8N+
95.0491	3	C6H7O+
95.0604	14	C5H7N2+
96.0444	21	C5H6NO+
102.0464	4	C8H6+
103.0542	16	C8H7+
104.0494	479	C7H6N+
105.0447	20	C6H5N2+
105.0572	12	C7H7N+
106.0649	3	C7H8N+
107.0603	6	C6H7N2+
110.06	3	C6H8NO+
113.0385	9	C9H5+
114.0338	4	C8H4N+
115.0542	122	C9H7+
116.0494	340	C8H6N+
117.0572	149	C8H7N+
118.0286	6	C7H4NO+
118.0526	10	C7H6N2+
118.065	82	C8H8N+
119.0239	10	C6H3N2O+
119.0605	11	C7H7N2+
120.0444	10	C7H6NO+
120.0808	5	C8H10N+
127.0418	4	C9H5N+
128.0494	20	C9H6N+
129.0446	11	C8H5N2+
129.0572	32	C9H7N+
130.0651	224	C9H8N+
131.0606	19	C8H7N2+
131.0729	55	C9H9N+
132.0444	14	C8H6NO+
132.0683	7	C8H8N2+
132.0807	18	C9H10N+
133.0757	4	C8H9N2+
134.06	105	C8H8NO+
135.0551	2	C7H7N2O+
139.0412	3	C10H5N+
140.0494	905	C10H6N+
141.0446	12	C9H5N2+
141.0572	20	C10H7N+
142.0526	393	C9H6N2+
142.065	100	C10H8N+
143.0603	777	C9H7N2+
144.0445	11	C9H6NO+
144.0556	26	C8H6N3+
144.0681	12	C9H8N2+
145.0759	65	C9H9N2+
146.0601	8	C9H8NO+
146.0838	23	C9H10N2+
148.0751	2	C9H10NO+
152.0491	5	C11H6N+
153.0445	6	C10H5N2+
154.0525	6	C10H6N2+
155.0603	40	C10H7N2+
156.0681	52	C10H8N2+
157.076	196	C10H9N2+
158.06	60	C10H8NO+
159.0552	36	C9H7N2O+
160.0757	6	C10H10NO+
165.0448	11	C11H5N2+
166.0525	102	C11H6N2+
167.0603	680	C11H7N2+
168.0556	51	C10H6N3+
168.0681	188	C11H8N2+
169.0633	185	C10H7N3+
169.0759	157	C11H9N2+
170.0475	4	C10H6N2O+
170.06	9	C11H8NO+
170.0711	13	C10H8N3+
171.0552	92	C10H7N2O+
177.0447	10	C12H5N2+
180.0548	2	C11H6N3+
182.0715	32	C11H8N3+
183.0553	7	C11H7N2O+
183.0791	67	C11H9N3+
184.0869	481	C11H10N3+
185.0709	111	C11H9N2O+
192.0559	6	C12H6N3+
193.0634	226	C12H7N3+
194.0712	269	C12H8N3+
195.0552	82	C12H7N2O+
196.0503	4	C11H6N3O+
197.0585	14	C11H7N3O+
210.0661	49	C12H8N3O+
211.0739	7	C12H9N3O+
212.0817	999	C12H10N3O+
