Mass spectrum: Azathioprine; LC-ESI-QFT; MS2; CE: 30; R=17500; [M+H]+
Name: Azathioprine
Name: 6-(3-methyl-5-nitroimidazol-4-yl)sulfanyl-7H-purine
Formula: C9H7N7O2S
Exact mass: 277.0382
SMILES: CN1C=NC(=C1SC1=NC=NC2=C1NC=N2)[N+]([O-])=O
InChI: InChI=1S/C9H7N7O2S/c1-15-4-14-7(16(17)18)9(15)19-8-5-6(11-2-10-5)12-3-13-8/h2-4H,1H3,(H,10,11,12,13)
Instrument: Q Exactive Orbitrap (Thermo Scientific)
Instrument type: LC-ESI-QFT
Ms type: MS2
Ion mode: POSITIVE
Ionization: ESI
Fragmentation mode: HCD
Collision energy: 30
Resolution: 17500
Column name: Acquity BEH C18 1.7um, 2.1x150mm (Waters)
Retention time: 10.727 min
Base peak: 79.0212
Precursor m/z: 278.0455
Precursor type: [M+H]+
Precursor intensity: 4600743
m/z	relative intensity	assigned
57.9746	10	CNS+
58.0287	7	C2H4NO+
67.0291	75	C3H3N2+
69.0083	2	C2HN2O+
69.0447	20	C3H5N2+
72.9855	2	CHN2S+
72.998	5	C2H3NS+
74.0058	14	C2H4NS+
81.0319	1	C3H3N3+
81.0447	9	C4H5N2+
84.9855	216	C2HN2S+
85.9694	5	C2NOS+
90.0008	3	C2H4NOS+
100.9804	15	C2HN2OS+
112.009	3	C4H4N2S+
113.0168	19	C4H5N2S+
121.0507	19	C5H5N4+
134.0585	2	C6H6N4+
136.038	25	C5H4N4O+
137.0457	2	C5H5N4O+
142.007	999	C4H4N3OS+
152.0152	25	C5H4N4S+
152.0328	3	C5H4N4O2+
153.0232	1	C5H5N4S+
159.0538	3	C7H5N5+
160.0619	3	C7H6N5+
164.015	43	C6H4N4S+
165.023	58	C6H5N4S+
172.062	3	C8H6N5+
173.0695	2	C8H7N5+
174.0773	15	C8H8N5+
177.023	18	C7H5N4S+
191.0259	8	C7H5N5S+
199.0727	163	C9H7N6+
200.0807	3	C9H8N6+
204.0336	3	C8H6N5S+
205.0417	149	C8H7N5S+
215.0258	10	C9H5N5S+
231.0448	66	C9H7N6S+
232.0526	654	C9H8N6S+
248.0472	6	C9H8N6OS+
278.0453	6	C9H8N7O2S+
