Mass spectrum: Florasulam; LC-ESI-QFT; MS2; CE: 30; R=17500; [M+H]+
Name: Florasulam
Name: N-(2,6-difluorophenyl)-8-fluoro-5-methoxy-[1,2,4]triazolo[1,5-c]pyrimidine-2-sulfonamide
Formula: C12H8F3N5O3S
Exact mass: 359.0300
SMILES: COC1=NC=C(F)C2=NC(=NN12)S(=O)(=O)NC1=C(F)C=CC=C1F
InChI: InChI=1S/C12H8F3N5O3S/c1-23-12-16-5-8(15)10-17-11(18-20(10)12)24(21,22)19-9-6(13)3-2-4-7(9)14/h2-5,19H,1H3
Instrument: Q Exactive Orbitrap (Thermo Scientific)
Instrument type: LC-ESI-QFT
Ms type: MS2
Ion mode: POSITIVE
Ionization: ESI
Fragmentation mode: HCD
Collision energy: 30
Resolution: 17500
Column name: Acquity BEH C18 1.7um, 2.1x150mm (Waters)
Retention time: 13.974 min
Base peak: 79.0211
Precursor m/z: 360.0373
Precursor type: [M+H]+
Precursor intensity: 4715119.5
m/z	relative intensity	assigned
57.0135	2	C3H2F+
84.0244	13	C4H3FN+
104.0307	2	C4H4F2N+
112.0193	1	C5H3FNO+
114.9991	1	C5HF2O+
115.0304	2	C4H4FN2O+
127.0305	1	C5H4FN2O+
128.0308	10	C6H4F2N+
129.0384	999	C6H5F2N+
132.0257	1	C5H4F2NO+
143.0493	1	C10H7O+
144.0256	30	C6H4F2NO+
145.0334	13	C6H5F2NO+
146.0415	2	C6H6F2NO+
169.0521	1	C6H6FN4O+
191.9926	42	C6H4F2NO2S+
196.0318	1	C8H4F2N3O+
261.046	1	C11H5F2N5O+
296.0755	17	C12H9F3N5O+
360.0374	36	C12H9F3N5O3S+
