Mass spectrum: Hydroxyprogesterone caproate; LC-ESI-QFT; MS2; CE: 45; R=17500; [M+H]+
Name: Hydroxyprogesterone caproate
Name: [(8R,9S,10R,13S,14S,17R)-17-acetyl-10,13-dimethyl-3-oxo-2,6,7,8,9,11,12,14,15,16-decahydro-1H-cyclopenta[a]phenanthren-17-yl] hexanoate
Formula: C27H40O4
Exact mass: 428.2927
SMILES: CCCCCC(=O)O[C@@]1(CC[C@H]2[C@@H]3CCC4=CC(=O)CC[C@]4(C)[C@H]3CC[C@]12C)C(C)=O
InChI: InChI=1S/C27H40O4/c1-5-6-7-8-24(30)31-27(18(2)28)16-13-23-21-10-9-19-17-20(29)11-14-25(19,3)22(21)12-15-26(23,27)4/h17,21-23H,5-16H2,1-4H3/t21-,22+,23+,25+,26+,27+/m1/s1
Instrument: Q Exactive Orbitrap (Thermo Scientific)
Instrument type: LC-ESI-QFT
Ms type: MS2
Ion mode: POSITIVE
Ionization: ESI
Fragmentation mode: HCD
Collision energy: 45
Resolution: 17500
Column name: Acquity BEH C18 1.7um, 2.1x150mm (Waters)
Retention time: 19.791 min
Base peak: 79.0211
Precursor m/z: 429.2999
Precursor type: [M+H]+
Precursor intensity: 3941807.328125
m/z	relative intensity	assigned
53.0022	5	C3HO+
55.0178	9	C3H3O+
55.0542	17	C4H7+
59.049	6	C3H7O+
67.0542	30	C5H7+
69.0698	19	C5H9+
71.0855	284	C5H11+
79.0542	66	C6H7+
81.0698	95	C6H9+
83.0491	136	C5H7O+
83.0855	11	C6H11+
85.0648	10	C5H9O+
91.0542	25	C7H7+
93.0699	73	C7H9+
95.0492	10	C6H7O+
95.0855	126	C7H11+
97.0648	999	C6H9O+
99.0805	127	C6H11O+
105.0698	77	C8H9+
107.0491	11	C7H7O+
107.0855	70	C8H11+
109.0648	869	C7H9O+
111.0805	68	C7H11O+
117.07	22	C9H9+
119.0855	84	C9H11+
121.0648	55	C8H9O+
121.1012	54	C9H13+
123.0804	176	C8H11O+
129.07	19	C10H9+
131.0855	74	C10H11+
133.0645	5	C9H9O+
133.1012	82	C10H13+
135.0803	17	C9H11O+
135.1168	33	C10H15+
137.0963	19	C9H13O+
141.0698	7	C11H9+
143.0856	77	C11H11+
145.1012	208	C11H13+
147.0803	19	C10H11O+
147.1168	143	C11H15+
149.0961	27	C10H13O+
149.1327	19	C11H17+
151.1117	5	C10H15O+
155.0856	29	C12H11+
156.0928	6	C12H12+
157.1012	93	C12H13+
159.1168	141	C12H15+
160.1245	13	C12H16+
161.0959	29	C11H13O+
161.1325	72	C12H17+
163.1117	71	C11H15O+
163.1482	28	C12H19+
167.0857	4	C13H11+
169.1012	64	C13H13+
170.1087	5	C13H14+
171.1168	147	C13H15+
173.0959	16	C12H13O+
173.1326	136	C13H17+
175.1117	36	C12H15O+
175.1482	186	C13H19+
177.1273	51	C12H17O+
181.101	15	C14H13+
182.1089	4	C14H14+
183.1168	68	C14H15+
184.1247	6	C14H16+
185.1326	60	C14H17+
187.1114	14	C13H15O+
187.1481	75	C14H19+
189.1277	20	C13H17O+
189.1637	16	C14H21+
195.117	35	C15H15+
196.1242	8	C15H16+
197.1325	80	C15H17+
198.1398	5	C15H18+
199.1116	6	C14H15O+
199.148	53	C15H19+
201.1271	15	C14H17O+
201.1638	9	C15H21+
203.1429	9	C14H19O+
205.1587	18	C14H21O+
207.1164	8	C16H15+
209.1326	20	C16H17+
211.1481	84	C16H19+
212.1554	9	C16H20+
213.1275	18	C15H17O+
213.1638	95	C16H21+
215.1431	9	C15H19O+
217.1588	6	C15H21O+
221.1326	12	C17H17+
223.1478	13	C17H19+
225.1274	6	C16H17O+
225.1643	18	C17H21+
227.1431	5	C16H19O+
227.1794	12	C17H23+
228.077	27	C14H12O3+
229.1583	13	C16H21O+
235.1475	16	C18H19+
237.1638	43	C18H21+
239.1429	13	C17H19O+
241.1582	12	C17H21O+
243.1744	5	C17H23O+
249.1639	5	C19H21+
251.179	35	C19H23+
252.1871	37	C19H24+
253.1951	137	C19H25+
255.1739	31	C18H23O+
269.1899	30	C19H25O+
270.1978	24	C19H26O+
271.2056	139	C19H27O+
277.1948	14	C21H25+
295.2051	35	C21H27O+
313.2154	16	C21H29O2+
