Mass spectrum: Ilepatril; LC-ESI-QFT; MS2; CE: 15; R=17500; [M+H]+
Name: Ilepatril
Name: (4S,7S,12bR)-7-[[(2S)-2-acetylsulfanyl-3-methylbutanoyl]amino]-6-oxo-2,3,4,7,8,12b-hexahydro-1H-pyrido[2,1-a][2]benzazepine-4-carboxylic acid
Formula: C22H28N2O5S
Exact mass: 432.1719
SMILES: CC(C)[C@H](SC(C)=O)C(=O)N[C@H]1CC2=C(C=CC=C2)[C@H]2CCC[C@H](N2C1=O)C(O)=O
InChI: InChI=1S/C22H28N2O5S/c1-12(2)19(30-13(3)25)20(26)23-16-11-14-7-4-5-8-15(14)17-9-6-10-18(22(28)29)24(17)21(16)27/h4-5,7-8,12,16-19H,6,9-11H2,1-3H3,(H,23,26)(H,28,29)/t16-,17+,18-,19-/m0/s1
Instrument: Q Exactive Orbitrap (Thermo Scientific)
Instrument type: LC-ESI-QFT
Ms type: MS2
Ion mode: POSITIVE
Ionization: ESI
Fragmentation mode: HCD
Collision energy: 15
Resolution: 17500
Column name: Acquity BEH C18 1.7um, 2.1x150mm (Waters)
Retention time: 16.899 min
Base peak: 79.0212
Precursor m/z: 433.1792
Precursor type: [M+H]+
Precursor intensity: 9908412.625
m/z	relative intensity	assigned
89.042	1	C4H9S+
131.0526	23	C6H11OS+
159.0475	35	C7H11O2S+
184.1121	4	C13H14N+
201.1383	2	C13H17N2+
229.1338	7	C14H17N2O+
230.1177	32	C14H16NO2+
257.1284	18	C15H17N2O2+
258.1127	1	C15H16NO3+
275.1391	91	C15H19N2O3+
299.1388	8	C17H19N2O3+
311.1753	1	C19H23N2O2+
317.1678	1	C18H25N2OS+
345.1634	61	C19H25N2O2S+
357.1815	7	C20H25N2O4+
359.1792	8	C20H27N2O2S+
373.1583	194	C20H25N2O3S+
387.1739	251	C21H27N2O3S+
391.1688	145	C20H27N2O4S+
415.1688	999	C22H27N2O4S+
