Mass spectrum: Propiconazole; LC-ESI-QFT; MS2; CE: 45; R=17500; [M+H]+
Name: Propiconazole
Name: 1-[[2-(2,4-dichlorophenyl)-4-propyl-1,3-dioxolan-2-yl]methyl]-1,2,4-triazole
Formula: C15H17Cl2N3O2
Exact mass: 341.0698
SMILES: CCCC1COC(CN2C=NC=N2)(O1)C1=C(Cl)C=C(Cl)C=C1
InChI: InChI=1S/C15H17Cl2N3O2/c1-2-3-12-7-21-15(22-12,8-20-10-18-9-19-20)13-5-4-11(16)6-14(13)17/h4-6,9-10,12H,2-3,7-8H2,1H3
Instrument: Q Exactive Orbitrap (Thermo Scientific)
Instrument type: LC-ESI-QFT
Ms type: MS2
Ion mode: POSITIVE
Ionization: ESI
Fragmentation mode: HCD
Collision energy: 45
Resolution: 17500
Column name: Acquity BEH C18 1.7um, 2.1x150mm (Waters)
Retention time: 18.657 min
Base peak: 79.0212
Precursor m/z: 342.0771
Precursor type: [M+H]+
Precursor intensity: 10895081.78125
m/z	relative intensity	assigned
53.0022	25	C3HO+
53.9974	3	C2NO+
55.0542	1	C4H7+
67.0542	13	C5H7+
69.0698	455	C5H9+
70.0399	44	C2H4N3+
84.0557	1	C3H6N3+
87.0805	1	C5H11O+
122.9995	1	C7H4Cl+
152.0023	1	C8H5ClO+
158.9763	999	C7H5Cl2+
169.0051	1	C8H6ClO2+
172.9555	31	C7H3Cl2O+
172.9921	5	C8H7Cl2+
186.9712	54	C8H5Cl2O+
190.9661	24	C7H5Cl2O2+
204.9818	11	C8H7Cl2O2+
220.0271	1	C10H7ClN3O+
259.0287	7	C12H13Cl2O2+
342.0777	4	C15H18Cl2N3O2+
