Mass spectrum: Nordihydroguaiaretic acid; LC-ESI-QFT; MS2; CE: 90; R=17500; [M-H]-
Name: Nordihydroguaiaretic acid
Name: 4-[4-(3,4-dihydroxyphenyl)-2,3-dimethylbutyl]benzene-1,2-diol
Formula: C18H22O4
Exact mass: 302.1518
SMILES: CC(CC1=CC(O)=C(O)C=C1)C(C)CC1=CC=C(O)C(O)=C1
InChI: InChI=1S/C18H22O4/c1-11(7-13-3-5-15(19)17(21)9-13)12(2)8-14-4-6-16(20)18(22)10-14/h3-6,9-12,19-22H,7-8H2,1-2H3
Instrument: Q Exactive Orbitrap (Thermo Scientific)
Instrument type: LC-ESI-QFT
Ms type: MS2
Ion mode: NEGATIVE
Ionization: ESI
Fragmentation mode: HCD
Collision energy: 90
Resolution: 17500
Column name: Acquity BEH C18 1.7um, 2.1x150mm (Waters)
Retention time: 17.121 min
Base peak: 141.0113
Precursor m/z: 301.1445
Precursor type: [M-H]-
Precursor intensity: 2858008.723633
m/z	relative intensity	assigned
65.0032	67	C4HO-
81.0346	60	C5H5O-
93.0346	104	C6H5O-
95.0502	70	C6H7O-
108.0217	870	C6H4O2-
109.0295	999	C6H5O2-
121.0294	168	C7H5O2-
122.0373	676	C7H6O2-
123.0451	283	C7H7O2-
124.0164	90	C6H4O3-
135.0453	613	C8H7O2-
137.0243	133	C7H5O3-
149.0609	355	C9H9O2-
154.0272	155	C7H6O4-
