Mass spectrum: Indinavir; LC-ESI-QFT; MS2; CE: 30; R=17500; [M-H]-
Name: Indinavir
Formula: C36H47N5O4
Exact mass: 613.3628
SMILES: CC(C)(C)NC(=O)[C@@H]1CN(Cc2cccnc2)CCN1C[C@@H](O)C[C@@H](Cc1ccccc1)C(=O)N[C@H]1c2ccccc2C[C@H]1O
InChI: InChI=1S/C36H47N5O4/c1-36(2,3)39-35(45)31-24-40(22-26-12-9-15-37-21-26)16-17-41(31)23-29(42)19-28(18-25-10-5-4-6-11-25)34(44)38-33-30-14-8-7-13-27(30)20-32(33)43/h4-15,21,28-29,31-33,42-43H,16-20,22-24H2,1-3H3,(H,38,44)(H,39,45)/t28-,29+,31+,32-,33+/m1/s1
Instrument: Q Exactive Orbitrap (Thermo Scientific)
Instrument type: LC-ESI-QFT
Ms type: MS2
Ion mode: NEGATIVE
Ionization: ESI
Fragmentation mode: HCD
Collision energy: 30
Resolution: 17500
Column name: Acquity BEH C18 1.7um, 2.1x150mm (Waters)
Retention time: 15.252 min
Base peak: 112.9857
Precursor m/z: 612.3555
Precursor type: [M-H]-
Precursor intensity: 711023.109375
m/z	relative intensity	assigned
68.0504	1	C4H6N-
83.0614	2	C4H7N2-
92.0505	20	C6H6N-
94.0298	1	C5H4NO-
114.0924	5	C6H12NO-
117.0709	2	C9H9-
118.0662	4	C8H8N-
119.0503	2	C8H7O-
119.0614	16	C7H7N2-
126.0924	6	C7H12NO-
130.0661	94	C9H8N-
133.0767	2	C8H9N2-
142.0872	10	C7H12NO2-
143.0865	6	C11H11-
143.1188	8	C7H15N2O-
144.0455	6	C9H6NO-
146.0609	2	C9H8NO-
148.0768	76	C9H10NO-
149.0605	2	C9H9O2-
155.119	40	C8H15N2O-
157.1344	1	C8H17N2O-
162.0925	10	C10H12NO-
167.1191	14	C9H15N2O-
174.0561	2	C10H8NO2-
180.114	3	C9H14N3O-
202.088	3	C12H12NO2-
202.0985	2	C11H12N3O-
214.1239	8	C14H16NO-
219.1251	3	C11H15N4O-
234.1609	5	C13H20N3O-
250.1236	6	C17H16NO-
252.1392	8	C17H18NO-
266.1547	13	C18H20NO-
275.1878	999	C15H23N4O-
276.1394	4	C19H18NO-
419.2816	34	C26H35N4O-
463.2714	299	C27H35N4O3-
566.3507	9	C35H44N5O2-
584.3603	49	C35H46N5O3-
594.3465	5	C36H44N5O3-
612.3565	7	C36H46N5O4-
