Mass spectrum: SSR 240612; LC-ESI-QFT; MS2; CE: 45; R=17500; [M+H]+
Name: SSR 240612
Name: Ssr-240612 free base
Name: (2R)-2-[[(3R)-3-(1,3-benzodioxol-5-yl)-3-[(6-methoxynaphthalen-2-yl)sulfonylamino]propanoyl]amino]-3-[4-[[(2S,6R)-2,6-dimethylpiperidin-1-yl]methyl]phenyl]-N-methyl-N-propan-2-ylpropanamide
Formula: C42H52N4O7S
Exact mass: 756.3557
SMILES: COc1ccc2cc(S(=O)(=O)N[C@H](CC(=O)N[C@H](Cc3ccc(CN4[C@@H](C)CCC[C@H]4C)cc3)C(=O)N(C)C(C)C)c3ccc4c(c3)OCO4)ccc2c1
InChI: InChI=1S/C42H52N4O7S/c1-27(2)45(5)42(48)38(20-30-10-12-31(13-11-30)25-46-28(3)8-7-9-29(46)4)43-41(47)24-37(34-16-19-39-40(23-34)53-26-52-39)44-54(49,50)36-18-15-32-21-35(51-6)17-14-33(32)22-36/h10-19,21-23,27-29,37-38,44H,7-9,20,24-26H2,1-6H3,(H,43,47)/t28-,29+,37-,38-/m1/s1
Instrument: Q Exactive Orbitrap (Thermo Scientific)
Instrument type: LC-ESI-QFT
Ms type: MS2
Ion mode: POSITIVE
Ionization: ESI
Fragmentation mode: HCD
Collision energy: 45
Resolution: 17500
Column name: Acquity BEH C18 1.7um, 2.1x150mm (Waters)
Retention time: 15.712 min
Base peak: 79.0211
Precursor m/z: 757.3629
Precursor type: [M+H]+
Precursor intensity: 9113245
m/z	relative intensity	assigned
56.0494	2	C3H6N+
57.0573	5	C3H7N+
58.0287	11	C2H4NO+
58.065	1	C3H8N+
70.0651	7	C4H8N+
72.0807	999	C4H10N+
74.0964	52	C4H12N+
87.0552	3	C3H7N2O+
89.0381	2	C7H5+
91.0542	18	C7H7+
100.0756	5	C5H10NO+
103.0542	1	C8H7+
105.0699	9	C8H9+
110.0963	1	C7H12N+
112.1121	41	C7H14N+
113.0346	1	C4H5N2O2+
114.1277	1	C7H16N+
115.0542	19	C9H7+
117.0699	335	C9H9+
119.0491	4	C8H7O+
124.0758	12	C7H10NO+
125.0835	37	C7H11NO+
129.1022	6	C6H13N2O+
131.0493	5	C9H7O+
131.0855	2	C10H11+
132.0808	33	C9H10N+
133.0648	11	C9H9O+
134.0965	1	C9H12N+
135.0439	7	C8H7O2+
137.0598	1	C8H9O2+
143.0491	6	C10H7O+
143.0855	2	C11H11+
144.057	1	C10H8O+
145.0284	24	C9H5O2+
145.0648	26	C10H9O+
146.0964	6	C10H12N+
147.044	3	C9H7O2+
149.0597	28	C9H9O2+
150.055	26	C8H8NO2+
155.0813	1	C7H11N2O2+
157.0648	7	C11H9O+
157.1011	1	C12H13+
158.0601	114	C10H8NO+
159.0678	1	C10H9NO+
159.1169	9	C12H15+
160.0755	3	C10H10NO+
161.0597	16	C10H9O2+
163.039	12	C9H7O3+
169.0646	1	C12H9O+
171.0805	3	C12H11O+
173.0598	20	C11H9O2+
174.0914	45	C11H12NO+
175.039	240	C10H7O3+
177.0548	3	C10H9O3+
184.0757	3	C12H10NO+
185.071	18	C11H9N2O+
186.055	4	C11H8NO2+
188.1434	79	C13H18N+
192.0657	2	C10H10NO3+
216.1383	242	C14H18NO+
221.0267	38	C11H9O3S+
230.045	4	C12H8NO4+
231.1491	16	C14H19N2O+
237.0909	4	C16H13O2+
242.1541	1	C16H20NO+
245.2011	1	C16H25N2+
247.0752	10	C17H11O2+
249.0908	6	C17H13O2+
254.1175	1	C16H16NO2+
259.1442	7	C15H19N2O2+
261.0916	3	C18H13O2+
263.1069	2	C18H15O2+
264.1018	3	C17H14NO2+
271.1803	2	C17H23N2O+
275.0702	4	C18H11O3+
277.0862	2	C18H13O3+
278.1181	1	C12H22O5S+
289.0856	9	C19H13O3+
306.1126	23	C19H16NO3+
346.1803	5	C23H24NO2+
348.1593	4	C22H22NO3+
370.0746	4	C19H16NO5S+
407.1968	1	C24H27N2O4+
