Mass spectrum: Isoxathion; LC-ESI-QFT; MS2; CE: 75; R=17500; [M+H]+
Name: Isoxathion
Name: diethoxy-[(5-phenyl-1,2-oxazol-3-yl)oxy]-sulfanylidene-lambda5-phosphane
Formula: C13H16NO4PS
Exact mass: 313.0538
SMILES: CCOP(=S)(OCC)OC1=NOC(=C1)C1=CC=CC=C1
InChI: InChI=1S/C13H16NO4PS/c1-3-15-19(20,16-4-2)18-13-10-12(17-14-13)11-8-6-5-7-9-11/h5-10H,3-4H2,1-2H3
Instrument: Q Exactive Orbitrap (Thermo Scientific)
Instrument type: LC-ESI-QFT
Ms type: MS2
Ion mode: POSITIVE
Ionization: ESI
Fragmentation mode: HCD
Collision energy: 75
Resolution: 17500
Column name: Acquity BEH C18 1.7um, 2.1x150mm (Waters)
Retention time: 18.742 min
Base peak: 79.0212
Precursor m/z: 314.061
Precursor type: [M+H]+
Precursor intensity: 17490583.15625
m/z	relative intensity	assigned
50.0151	1	C4H2+
51.0228	2	C4H3+
53.0386	94	C4H5+
55.0179	5	C3H3O+
58.995	3	C2H3S+
61.0106	33	C2H5S+
62.9452	1	PS+
64.9787	300	H2O2P+
68.013	8	C3H2NO+
68.9971	3	C3HO2+
74.0962	1	C4H12N+
77.0385	32	C6H5+
78.9402	2	OPS+
78.9943	13	CH4O2P+
79.0542	26	C6H7+
81.0335	12	C5H5O+
81.0699	1	C6H9+
81.9812	2	H3O3P+
82.9892	4	H4O3P+
89.0385	18	C7H5+
91.0542	156	C7H7+
93.01	37	C2H6O2P+
94.0413	11	C6H6O+
95.0491	307	C6H7O+
96.9507	22	H2O2PS+
98.9842	305	H4O4P+
103.0543	2	C8H7+
104.0495	5	C7H6N+
105.0335	672	C7H5O+
105.0445	115	H11NO3S+
106.0651	27	C7H8N+
107.049	3	C7H7O+
109.0049	22	C2H6O3P+
109.0105	18	C6H5S+
109.0647	5	C7H9O+
110.9664	1	CH4O2PS+
112.9458	1	H2O3PS+
113	6	CH6O4P+
113.9536	277	H3O3PS+
114.9613	999	H4O3PS+
116.0494	82	C8H6N+
116.9657	1	C3HO3S+
117.0572	20	C8H7N+
118.0411	4	C8H6O+
118.065	1	C8H8N+
121.0106	4	C7H5S+
121.0284	2	C7H5O2+
123.0262	14	C7H7S+
123.9795	12	CH3NO4P+
127.021	1	C6H7OS+
127.0415	1	C9H5N+
128.9769	27	CH6O3PS+
130.9562	224	H4O4PS+
131.964	4	H5O4PS+
132.0568	2	C9H8O+
132.972	11	H6O4PS+
133.0107	9	C8H5S+
133.0519	4	C8H7NO+
134.0186	2	C8H6S+
134.0599	8	C8H8NO+
135.0263	3	C8H7S+
135.9977	1	C7H4OS+
137.0056	22	C7H5OS+
140.9771	1	C2H6O3PS+
142.9927	6	C2H8O3PS+
144.0443	2	C9H6NO+
144.972	3	CH6O4PS+
145.0523	24	C9H7NO+
145.9797	3	CH7O4PS+
146.06	23	C9H8NO+
146.9874	9	CH8O4PS+
148.0215	2	C8H6NS+
148.9664	3	C6NO2P+
149.0053	1	C8H5OS+
150.037	3	C8H8NS+
151.0212	14	C8H7OS+
159.014	1	C9H5NS+
160.0216	4	C9H6NS+
161.0169	1	C6H10OPS+
162.0549	29	C9H8NO2+
162.9823	2	C7H2NO2P+
176.0166	2	C9H6NOS+
178.0322	24	C9H8NOS+
