Mass spectrum: Florasulam; LC-ESI-QFT; MS2; CE: 75; R=17500; [M+H]+
Name: Florasulam
Name: N-(2,6-difluorophenyl)-8-fluoro-5-methoxy-[1,2,4]triazolo[1,5-c]pyrimidine-2-sulfonamide
Formula: C12H8F3N5O3S
Exact mass: 359.0300
SMILES: COC1=NC=C(F)C2=NC(=NN12)S(=O)(=O)NC1=C(F)C=CC=C1F
InChI: InChI=1S/C12H8F3N5O3S/c1-23-12-16-5-8(15)10-17-11(18-20(10)12)24(21,22)19-9-6(13)3-2-4-7(9)14/h2-5,19H,1H3
Instrument: Q Exactive Orbitrap (Thermo Scientific)
Instrument type: LC-ESI-QFT
Ms type: MS2
Ion mode: POSITIVE
Ionization: ESI
Fragmentation mode: HCD
Collision energy: 75
Resolution: 17500
Column name: Acquity BEH C18 1.7um, 2.1x150mm (Waters)
Retention time: 13.974 min
Base peak: 79.0211
Precursor m/z: 360.0373
Precursor type: [M+H]+
Precursor intensity: 4605055.5
m/z	relative intensity	assigned
52.0183	1	C3H2N+
53.0023	1	C3HO+
57.0135	4	C3H2F+
62.0151	4	C5H2+
63.0229	3	C5H3+
72.0243	1	C3H3FN+
72.0369	1	C4H5F+
74.0036	2	C2HFNO+
74.04	1	C3H5FN+
78.0338	1	C5H4N+
79.0417	1	C5H5N+
81.0134	3	F2HN3+
82.0213	8	C5H3F+
84.0244	3	C4H3FN+
89.0261	8	C6H3N+
98.0362	1	C5H6O2+
99.024	1	C5H4FO+
99.0353	1	C4H4FN2+
101.0198	9	C5H3F2+
102.0276	19	C5H4F2+
108.0244	12	C6H3FN+
109.0323	95	C6H4FN+
114.0463	1	C4H5FN3+
115.0304	1	C4H4FN2O+
116.0307	2	C5H4F2N+
124.0194	3	C6H3FNO+
126.0351	7	C6H5FNO+
127.0429	1	C6H6FNO+
128.0308	8	C6H4F2N+
129.0384	999	C6H5F2N+
144.0256	18	C6H4F2NO+
145.0333	3	C6H5F2NO+
146.0414	3	C6H6F2NO+
148.0304	1	C7H3FN3+
154.0337	1	C7H4F2N2+
155.0415	1	C7H5F2N2+
168.0367	2	C7H4F2N3+
170.0235	1	C5H3FN4O2+
