Mass spectrum: 2,7-Acetylaminofluorene; LC-ESI-QFT; MS2; CE: 60; R=17500; [M+H]+
Name: 2,7-Acetylaminofluorene
Name: 2,7-Diacetamidofluorene
Name: N-(7-acetamido-9H-fluoren-2-yl)acetamide
Formula: C17H16N2O2
Exact mass: 280.1212
SMILES: CC(=O)NC1=CC=C2C(CC3=C2C=CC(NC(C)=O)=C3)=C1
InChI: InChI=1S/C17H16N2O2/c1-10(20)18-14-3-5-16-12(8-14)7-13-9-15(19-11(2)21)4-6-17(13)16/h3-6,8-9H,7H2,1-2H3,(H,18,20)(H,19,21)
Instrument: Q Exactive Orbitrap (Thermo Scientific)
Instrument type: LC-ESI-QFT
Ms type: MS2
Ion mode: POSITIVE
Ionization: ESI
Fragmentation mode: HCD
Collision energy: 60
Resolution: 17500
Column name: Acquity BEH C18 1.7um, 2.1x150mm (Waters)
Retention time: 14.586 min
Base peak: 79.0211
Precursor m/z: 281.1285
Precursor type: [M+H]+
Precursor intensity: 12226009.75
m/z	relative intensity	assigned
80.0493	1	C5H6N+
130.065	7	C9H8N+
131.0729	1	C9H9N+
139.0541	1	C11H7+
144.0811	3	C10H10N+
152.0622	2	C12H8+
153.0698	14	C12H9+
154.065	1	C11H8N+
156.0808	32	C11H10N+
157.0646	2	C11H9O+
157.0887	1	C11H11N+
166.0653	1	C12H8N+
167.0491	19	C12H7O+
167.0854	1	C13H11+
168.0807	22	C12H10N+
170.0964	14	C12H12N+
171.0802	1	C12H11O+
180.0808	396	C13H10N+
181.0649	32	C13H9O+
181.0885	286	C13H11N+
182.0727	4	C13H10O+
182.0837	26	C12H10N2+
183.0677	8	C12H9NO+
184.0757	105	C12H10NO+
185.0605	2	C12H9O2+
194.0966	10	C14H12N+
195.0918	37	C13H11N2+
196.0997	174	C13H12N2+
197.1073	999	C13H13N2+
198.0912	147	C13H12NO+
199.0754	5	C13H11O2+
206.0837	3	C14H10N2+
212.0705	12	C13H10NO2+
212.1071	1	C14H14NO+
221.1073	56	C15H13N2+
222.0913	16	C15H12NO+
223.0988	3	C15H13NO+
226.0862	2	C14H12NO2+
237.1026	5	C15H13N2O+
238.1101	14	C15H14N2O+
239.1178	161	C15H15N2O+
240.102	9	C15H14NO2+
263.1178	13	C17H15N2O+
281.1285	6	C17H17N2O2+
