Mass spectrum: MK-547; LC-ESI-QFT; MS2; CE: 60; R=17500; [M-H]-
Name: MK-547
Name: J-104132
Name: (5S,6R,7R)-5-(1,3-benzodioxol-5-yl)-2-butyl-7-[2-[(2S)-2-carboxypropyl]-4-methoxyphenyl]-6,7-dihydro-5H-cyclopenta[b]pyridine-6-carboxylic acid
Formula: C31H33NO7
Exact mass: 531.2257
SMILES: CCCCc1ccc2c(n1)[C@@H](c1ccc(OC)cc1C[C@H](C)C(O)=O)[C@H](C(O)=O)[C@H]2c1ccc2c(c1)OCO2
InChI: InChI=1S/C31H33NO7/c1-4-5-6-20-8-10-23-26(18-7-12-24-25(15-18)39-16-38-24)28(31(35)36)27(29(23)32-20)22-11-9-21(37-3)14-19(22)13-17(2)30(33)34/h7-12,14-15,17,26-28H,4-6,13,16H2,1-3H3,(H,33,34)(H,35,36)/t17-,26-,27-,28+/m0/s1
Instrument: Q Exactive Orbitrap (Thermo Scientific)
Instrument type: LC-ESI-QFT
Ms type: MS2
Ion mode: NEGATIVE
Ionization: ESI
Fragmentation mode: HCD
Collision energy: 60
Resolution: 17500
Column name: Acquity BEH C18 1.7um, 2.1x150mm (Waters)
Retention time: 18.559 min
Base peak: 112.9856
Precursor m/z: 530.2184
Precursor type: [M-H]-
Precursor intensity: 1106970.15332
m/z	relative intensity	assigned
65.0033	263	C4HO-
91.0189	711	C6H3O-
93.0346	999	C6H5O-
107.0504	189	C7H7O-
121.0295	462	C7H5O2-
133.0658	151	C9H9O-
135.0814	333	C9H11O-
220.0762	209	C15H10NO-
221.0845	205	C15H11NO-
250.1244	317	C17H16NO-
263.1315	558	C18H17NO-
264.1402	292	C18H18NO-
274.1255	158	C19H16NO-
354.1509	468	C24H20NO2-
355.158	566	C24H21NO2-
356.1656	416	C24H22NO2-
368.1671	246	C25H22NO2-
378.154	174	C26H20NO2-
382.1447	169	C25H20NO3-
383.153	187	C25H21NO3-
396.1973	514	C27H26NO2-
398.2135	343	C27H28NO2-
406.1803	284	C28H24NO2-
408.1609	184	C27H22NO3-
424.193	264	C28H26NO3-
434.176	262	C29H24NO3-
