Mass spectrum: Azacyclotridecan-2-one; LC-ESI-QFT; MS2; CE: 15; R=17500; [M+H]+
Name: Azacyclotridecan-2-one
Formula: C12H23NO
Exact mass: 197.1780
SMILES: O=C1CCCCCCCCCCCN1
InChI: InChI=1S/C12H23NO/c14-12-10-8-6-4-2-1-3-5-7-9-11-13-12/h1-11H2,(H,13,14)
Instrument: Q Exactive Orbitrap (Thermo Scientific)
Instrument type: LC-ESI-QFT
Ms type: MS2
Ion mode: POSITIVE
Ionization: ESI
Fragmentation mode: HCD
Collision energy: 15
Resolution: 17500
Column name: Acquity BEH C18 1.7um, 2.1x150mm (Waters)
Retention time: 17.456 min
Base peak: 79.0211
Precursor m/z: 198.1852
Precursor type: [M+H]+
Precursor intensity: 47437967
m/z	relative intensity	assigned
83.0855	1	C6H11+
97.1012	1	C7H13+
198.1852	999	C12H24NO+
