Mass spectrum: Mefenamic acid; LC-ESI-QFT; MS2; CE: 45; R=17500; [M+H]+
Name: Mefenamic acid
Name: 2-(2,3-dimethylanilino)benzoic acid
Formula: C15H15NO2
Exact mass: 241.1103
SMILES: CC1=C(C)C(NC2=C(C=CC=C2)C(O)=O)=CC=C1
InChI: InChI=1S/C15H15NO2/c1-10-6-5-9-13(11(10)2)16-14-8-4-3-7-12(14)15(17)18/h3-9,16H,1-2H3,(H,17,18)
Instrument: Q Exactive Orbitrap (Thermo Scientific)
Instrument type: LC-ESI-QFT
Ms type: MS2
Ion mode: POSITIVE
Ionization: ESI
Fragmentation mode: HCD
Collision energy: 45
Resolution: 17500
Column name: Acquity BEH C18 1.7um, 2.1x150mm (Waters)
Retention time: 19.468 min
Base peak: 79.0211
Precursor m/z: 242.1176
Precursor type: [M+H]+
Precursor intensity: 1008023.9375
m/z	relative intensity	assigned
60.0807	3	C3H10N+
95.0128	2	C5H3O2+
180.0812	2	C13H10N+
181.0887	2	C13H11N+
196.0753	1	C13H10NO+
208.0763	2	C14H10NO+
209.0837	112	C14H11NO+
222.092	4	C15H12NO+
223.0992	3	C15H13NO+
224.1071	999	C15H14NO+
