Mass spectrum: Propranolol; LC-ESI-QFT; MS2; CE: 45; R=17500; [M+H]+
Name: Propranolol
Name: 1-naphthalen-1-yloxy-3-(propan-2-ylamino)propan-2-ol
Formula: C16H21NO2
Exact mass: 259.1572
SMILES: CC(C)NCC(O)COC1=C2C=CC=CC2=CC=C1
InChI: InChI=1S/C16H21NO2/c1-12(2)17-10-14(18)11-19-16-9-5-7-13-6-3-4-8-15(13)16/h3-9,12,14,17-18H,10-11H2,1-2H3
Instrument: Q Exactive Orbitrap (Thermo Scientific)
Instrument type: LC-ESI-QFT
Ms type: MS2
Ion mode: POSITIVE
Ionization: ESI
Fragmentation mode: HCD
Collision energy: 45
Resolution: 17500
Column name: Acquity BEH C18 1.7um, 2.1x150mm (Waters)
Retention time: 14.293 min
Base peak: 79.0212
Precursor m/z: 260.1645
Precursor type: [M+H]+
Precursor intensity: 21347138.9375
m/z	relative intensity	assigned
53.0022	3	C3HO+
55.0178	7	C3H3O+
56.0494	648	C3H6N+
57.0334	2	C3H5O+
57.0573	2	C3H7N+
58.0651	614	C3H8N+
60.0443	4	C2H6NO+
60.0807	36	C3H10N+
70.0651	2	C4H8N+
71.0728	3	C4H9N+
72.0807	780	C4H10N+
74.0599	859	C3H8NO+
81.0698	3	C6H9+
84.0808	23	C5H10N+
86.0964	79	C5H12N+
90.0548	8	C3H8NO2+
91.0541	3	C7H7+
98.0964	484	C6H12N+
100.112	87	C6H14N+
102.0912	5	C5H12NO+
115.054	9	C9H7+
116.1069	999	C6H14NO+
117.0699	2	C9H9+
127.0541	2	C10H7+
128.0618	3	C10H8+
129.0697	81	C10H9+
132.1019	8	C6H14NO2+
141.0697	75	C11H9+
143.0491	24	C10H7O+
143.0852	2	C11H11+
144.0568	3	C10H8O+
145.0647	69	C10H9O+
153.0698	50	C12H9+
154.0775	3	C12H10+
155.0854	403	C12H11+
157.0647	432	C11H9O+
165.0698	130	C13H9+
168.0568	28	C12H8O+
169.0647	3	C12H9O+
171.0804	20	C12H11O+
181.0645	6	C13H9O+
182.0728	4	C13H10O+
183.0804	643	C13H11O+
185.0955	1	C13H13O+
199.1106	2	C14H15O+
218.1173	38	C13H16NO2+
242.1539	2	C16H20NO+
260.1643	185	C16H22NO2+
