Mass spectrum: 4,4`-Sulfonylbis[2-(prop-2-en-1-yl)phenol]; LC-ESI-QFT; MS2; CE: 45; R=17500; [M-H]-
Name: 4,4'-Sulfonylbis[2-(prop-2-en-1-yl)phenol]
Name: Phenol, 4,4'-sulfonylbis[2-(2-propenyl)-
Name: 4-(4-hydroxy-3-prop-2-enylphenyl)sulfonyl-2-prop-2-enylphenol
Formula: C18H18O4S
Exact mass: 330.0926
SMILES: OC1=C(CC=C)C=C(C=C1)S(=O)(=O)C1=CC(CC=C)=C(O)C=C1
InChI: InChI=1S/C18H18O4S/c1-3-5-13-11-15(7-9-17(13)19)23(21,22)16-8-10-18(20)14(12-16)6-4-2/h3-4,7-12,19-20H,1-2,5-6H2
Instrument: Q Exactive Orbitrap (Thermo Scientific)
Instrument type: LC-ESI-QFT
Ms type: MS2
Ion mode: NEGATIVE
Ionization: ESI
Fragmentation mode: HCD
Collision energy: 45
Resolution: 17500
Column name: Acquity BEH C18 1.7um, 2.1x150mm (Waters)
Retention time: 17.057 min
Base peak: 329.0853
Precursor m/z: 329.0853
Precursor type: [M-H]-
Precursor intensity: 48346874.51563
m/z	relative intensity	assigned
63.9624	10	O2S-
68.9982	5	C3HO2-
79.9574	58	O3S-
81.0346	12	C5H5O-
82.006	1	C4H2O2-
91.0553	2	C7H7-
93.0346	15	C6H5O-
94.0424	5	C6H6O-
95.0139	27	C5H3O2-
98.001	8	C4H2O3-
103.0552	1	C8H7-
105.0345	2	C7H5O-
106.0423	1	C7H6O-
107.0503	4	C7H7O-
108.0217	7	C6H4O2-
109.0295	7	C6H5O2-
110.0373	2	C6H6O2-
117.0347	3	C8H5O-
119.0501	5	C8H7O-
121.0295	56	C7H5O2-
122.0374	3	C7H6O2-
123.0088	22	C6H3O3-
130.0424	2	C9H6O-
131.0503	7	C9H7O-
132.058	102	C9H8O-
133.0296	3	C8H5O2-
133.0659	55	C9H9O-
134.0373	8	C8H6O2-
135.0452	360	C8H7O2-
137.0244	5	C7H5O3-
138.0322	4	C7H6O3-
145.0294	5	C9H5O2-
146.0374	3	C9H6O2-
147.0452	13	C9H7O2-
148.053	999	C9H8O2-
149.0243	15	C8H5O3-
149.0607	5	C9H9O2-
150.0686	3	C9H10O2-
156.9962	1	C6H5O3S-
163.04	33	C9H7O3-
165.0021	1	C8H5O2S-
166.0095	2	C8H6O2S-
168.9964	2	C7H5O3S-
176.0483	1	C10H8O3-
179.0176	1	C9H7O2S-
180.025	12	C9H8O2S-
180.9963	3	C8H5O3S-
183.0121	2	C8H7O3S-
183.0819	2	C13H11O-
195.0121	7	C9H7O3S-
195.0456	1	C13H7O2-
196.0199	62	C9H8O3S-
197.0277	48	C9H9O3S-
207.0815	1	C15H11O-
209.0606	7	C14H9O2-
209.0973	4	C15H13O-
221.061	3	C15H9O2-
222.1055	1	C16H14O-
223.0767	2	C15H11O2-
224.0844	19	C15H12O2-
235.0764	53	C16H11O2-
236.0845	2	C16H12O2-
237.0922	25	C16H13O2-
237.1287	2	C17H17O-
249.0922	16	C17H13O2-
250.0999	91	C17H14O2-
263.1077	1	C18H15O2-
264.1159	11	C18H16O2-
265.1234	24	C18H17O2-
273.0228	40	C14H9O4S-
273.0584	4	C15H13O3S-
287.0383	5	C15H11O4S-
288.0463	6	C15H12O4S-
299.0383	120	C16H11O4S-
301.0541	7	C16H13O4S-
311.0754	3	C18H15O3S-
313.0541	24	C17H13O4S-
314.0622	4	C17H14O4S-
329.0853	808	C18H17O4S-
