Mass spectrum: 1-Amino-2-methylanthraquinone; LC-ESI-QFT; MS2; CE: 30; R=17500; [M+H]+
Name: 1-Amino-2-methylanthraquinone
Name: 1-amino-2-methylanthracene-9,10-dione
Formula: C15H11NO2
Exact mass: 237.0790
SMILES: CC1=CC=C2C(=O)C3=C(C=CC=C3)C(=O)C2=C1N
InChI: InChI=1S/C15H11NO2/c1-8-6-7-11-12(13(8)16)15(18)10-5-3-2-4-9(10)14(11)17/h2-7H,16H2,1H3
Instrument: Q Exactive Orbitrap (Thermo Scientific)
Instrument type: LC-ESI-QFT
Ms type: MS2
Ion mode: POSITIVE
Ionization: ESI
Fragmentation mode: HCD
Collision energy: 30
Resolution: 17500
Column name: Acquity BEH C18 1.7um, 2.1x150mm (Waters)
Retention time: 18.494 min
Base peak: 79.0212
Precursor m/z: 238.0863
Precursor type: [M+H]+
Precursor intensity: 1793036.75
m/z	relative intensity	assigned
105.0334	1	C7H5O+
160.0392	1	C9H6NO2+
223.0627	4	C14H9NO2+
238.0863	999	C15H12NO2+
