Mass spectrum: 4-Methoxyaniline; LC-ESI-QFT; MS2; CE: 75; R=17500; [M+H]+
Name: 4-Methoxyaniline
Name: p-Anisidine
Formula: C7H9NO
Exact mass: 123.0684
SMILES: COC1=CC=C(N)C=C1
InChI: InChI=1S/C7H9NO/c1-9-7-4-2-6(8)3-5-7/h2-5H,8H2,1H3
Instrument: Q Exactive Orbitrap (Thermo Scientific)
Instrument type: LC-ESI-QFT
Ms type: MS2
Ion mode: POSITIVE
Ionization: ESI
Fragmentation mode: HCD
Collision energy: 75
Resolution: 17500
Column name: Acquity BEH C18 1.7um, 2.1x150mm (Waters)
Retention time: 3.938 min
Base peak: 79.0211
Precursor m/z: 124.0757
Precursor type: [M+H]+
Precursor intensity: 5932913.953125
m/z	relative intensity	assigned
50.0152	2	C4H2+
53.0386	36	C4H5+
55.0179	3	C3H3O+
63.023	4	C5H3+
64.0307	5	C5H4+
65.0385	96	C5H5+
66.0464	15	C5H6+
67.0543	4	C5H7+
68.0495	2	C4H6N+
77.0384	13	C6H5+
78.0338	1	C5H4N+
78.0465	1	C6H6+
79.0542	19	C6H7+
80.0495	73	C5H6N+
81.0573	261	C5H7N+
82.0413	1	C5H6O+
92.0257	151	C6H4O+
92.0495	293	C6H6N+
93.0573	999	C6H7N+
94.0651	15	C6H8N+
95.0491	128	C6H7O+
96.0443	15	C5H6NO+
96.0808	1	C6H10N+
97.0648	7	C6H9O+
107.0492	3	C7H7O+
108.0444	39	C6H6NO+
108.0569	2	C7H8O+
109.0522	299	C6H7NO+
110.0601	26	C6H8NO+
123.0679	38	C7H9NO+
124.0757	243	C7H10NO+
