Mass spectrum: Chlorbromuron; LC-ESI-QFT; MS2; CE: 60; R=17500; [M-H]-
Name: Chlorbromuron
Name: 3-(4-bromo-3-chlorophenyl)-1-methoxy-1-methylurea
Formula: C9H10BrClN2O2
Exact mass: 291.9614
SMILES: CON(C)C(=O)NC1=CC(Cl)=C(Br)C=C1
InChI: InChI=1S/C9H10BrClN2O2/c1-13(15-2)9(14)12-6-3-4-7(10)8(11)5-6/h3-5H,1-2H3,(H,12,14)
Instrument: Q Exactive Orbitrap (Thermo Scientific)
Instrument type: LC-ESI-QFT
Ms type: MS2
Ion mode: NEGATIVE
Ionization: ESI
Fragmentation mode: HCD
Collision energy: 60
Resolution: 17500
Column name: Acquity BEH C18 1.7um, 2.1x150mm (Waters)
Retention time: 17.618 min
Base peak: 269.0544
Precursor m/z: 290.9541
Precursor type: [M-H]-
Precursor intensity: 2430553.421875
m/z	relative intensity	assigned
78.9189	999	Br-
203.9222	21	C6H4BrClN-
243.9053	1	C7H2BrClN2O-
258.9278	19	C8H5BrClN2O-
