Mass spectrum: Tolazamide; LC-ESI-QFT; MS2; CE: 75; R=17500; [M-H]-
Name: Tolazamide
Name: 1-(azepan-1-yl)-3-(4-methylphenyl)sulfonylurea
Formula: C14H21N3O3S
Exact mass: 311.1304
SMILES: CC1=CC=C(C=C1)S(=O)(=O)NC(=O)NN1CCCCCC1
InChI: InChI=1S/C14H21N3O3S/c1-12-6-8-13(9-7-12)21(19,20)16-14(18)15-17-10-4-2-3-5-11-17/h6-9H,2-5,10-11H2,1H3,(H2,15,16,18)
Instrument: Q Exactive Orbitrap (Thermo Scientific)
Instrument type: LC-ESI-QFT
Ms type: MS2
Ion mode: NEGATIVE
Ionization: ESI
Fragmentation mode: HCD
Collision energy: 75
Resolution: 17500
Column name: Acquity BEH C18 1.7um, 2.1x150mm (Waters)
Retention time: 16.140 min
Base peak: 112.9857
Precursor m/z: 310.1231
Precursor type: [M-H]-
Precursor intensity: 6518150.049805
m/z	relative intensity	assigned
61.9706	95	NOS-
63.9624	54	O2S-
77.9655	42	NO2S-
78.9733	151	HNO2S-
79.9812	312	H2NO2S-
80.9652	11	HO3S-
93.9604	84	NO3S-
104.0505	2	C7H6N-
105.0584	1	C7H7N-
106.0662	999	C7H8N-
107.0502	32	C7H7O-
122.0611	46	C7H8NO-
150.0561	9	C8H8NO2-
170.0281	407	C7H8NO2S-
