Mass spectrum: Clothianidin; LC-ESI-QFT; MS2; CE: 45; R=17500; [M-H]-
Name: Clothianidin
Name: 1-[(2-chloro-1,3-thiazol-5-yl)methyl]-2-methyl-3-nitroguanidine
Formula: C6H8ClN5O2S
Exact mass: 249.0087
SMILES: CN\C(NCC1=CN=C(Cl)S1)=N/[N+]([O-])=O
InChI: InChI=1S/C6H8ClN5O2S/c1-8-6(11-12(13)14)10-3-4-2-9-5(7)15-4/h2H,3H2,1H3,(H2,8,10,11)
Instrument: Q Exactive Orbitrap (Thermo Scientific)
Instrument type: LC-ESI-QFT
Ms type: MS2
Ion mode: NEGATIVE
Ionization: ESI
Fragmentation mode: HCD
Collision energy: 45
Resolution: 17500
Column name: Acquity BEH C18 1.7um, 2.1x150mm (Waters)
Retention time: 12.515 min
Base peak: 248.0015
Precursor m/z: 248.0014
Precursor type: [M-H]-
Precursor intensity: 1088650.273682
m/z	relative intensity	assigned
55.0302	39	C2H3N2-
57.9757	999	CNS-
61.0044	66	HN2O2-
95.0252	15	C4H3N2O-
111.0023	45	C4H3N2S-
117.9525	22	C3HClNS-
150.0007	80	C5H2N4S-
151.0084	16	C5H3N4S-
165.024	119	C6H5N4S-
