Mass spectrum: Sulfisoxazole; LC-ESI-QFT; MS2; CE: 90; R=17500; [M-H]-
Name: Sulfisoxazole
Name: 4-amino-N-(3,4-dimethyl-1,2-oxazol-5-yl)benzenesulfonamide
Formula: C11H13N3O3S
Exact mass: 267.0678
SMILES: CC1=NOC(NS(=O)(=O)C2=CC=C(N)C=C2)=C1C
InChI: InChI=1S/C11H13N3O3S/c1-7-8(2)13-17-11(7)14-18(15,16)10-5-3-9(12)4-6-10/h3-6,14H,12H2,1-2H3
Instrument: Q Exactive Orbitrap (Thermo Scientific)
Instrument type: LC-ESI-QFT
Ms type: MS2
Ion mode: NEGATIVE
Ionization: ESI
Fragmentation mode: HCD
Collision energy: 90
Resolution: 17500
Column name: Acquity BEH C18 1.7um, 2.1x150mm (Waters)
Retention time: 12.443 min
Base peak: 266.0605
Precursor m/z: 266.0605
Precursor type: [M-H]-
Precursor intensity: 4431523.079102
m/z	relative intensity	assigned
55.0189	14	C3H3O-
61.9706	237	NOS-
63.9624	999	O2S-
65.9985	6	C3NO-
70.0298	2	C3H4NO-
77.9655	88	NO2S-
78.9734	259	HNO2S-
79.9574	22	O3S-
79.9812	412	H2NO2S-
80.9653	20	HO3S-
82.0299	8	C4H4NO-
84.0454	28	C4H6NO-
90.035	5	C6H4N-
91.0427	25	C6H5N-
92.0506	88	C6H6N-
93.0345	3	C6H5O-
93.9604	134	NO3S-
107.0377	82	C6H5NO-
108.0455	46	C6H6NO-
109.0407	4	C5H5N2O-
122.0247	2	C6H4NO2-
156.0125	67	C6H6NO2S-
157.0776	3	C10H9N2-
171.0234	120	C6H7N2O2S-
172.0076	8	C6H6NO3S-
