Mass spectrum: Enterolactone; LC-ESI-QFT; MS2; CE: 60; R=17500; [M-H]-
Name: Enterolactone
Name: (-)-Enterolactone
Name: (3R,4R)-3,4-bis[(3-hydroxyphenyl)methyl]oxolan-2-one
Formula: C18H18O4
Exact mass: 298.1205
SMILES: OC1=CC(C[C@H]2COC(=O)[C@@H]2CC2=CC(O)=CC=C2)=CC=C1
InChI: InChI=1S/C18H18O4/c19-15-5-1-3-12(8-15)7-14-11-22-18(21)17(14)10-13-4-2-6-16(20)9-13/h1-6,8-9,14,17,19-20H,7,10-11H2/t14-,17+/m0/s1
Instrument: Q Exactive Orbitrap (Thermo Scientific)
Instrument type: LC-ESI-QFT
Ms type: MS2
Ion mode: NEGATIVE
Ionization: ESI
Fragmentation mode: HCD
Collision energy: 60
Resolution: 17500
Column name: Acquity BEH C18 1.7um, 2.1x150mm (Waters)
Retention time: 15.387 min
Base peak: 297.1133
Precursor m/z: 297.1132
Precursor type: [M-H]-
Precursor intensity: 11272736.00391
m/z	relative intensity	assigned
65.0397	43	C5H5-
67.019	3	C4H3O-
79.0553	22	C6H7-
80.0268	3	C5H4O-
82.0058	1	C4H2O2-
91.0553	2	C7H7-
92.0269	5	C6H4O-
93.0346	30	C6H5O-
93.071	3	C7H9-
95.0139	11	C5H3O2-
95.0503	3	C6H7O-
103.0554	4	C8H7-
105.071	2	C8H9-
106.0424	26	C7H6O-
107.0502	999	C7H7O-
108.0217	28	C6H4O2-
109.0296	6	C6H5O2-
109.0658	11	C7H9O-
115.0555	3	C9H7-
119.0502	270	C8H7O-
120.058	4	C8H8O-
121.0295	243	C7H5O2-
121.0658	308	C8H9O-
123.0086	1	C6H3O3-
130.0424	64	C9H6O-
131.0502	141	C9H7O-
132.058	15	C9H8O-
133.0658	162	C9H9O-
135.0452	2	C8H7O2-
136.0165	2	C7H4O3-
137.0244	15	C7H5O3-
143.0502	69	C10H7O-
144.058	8	C10H8O-
145.0295	14	C9H5O2-
145.0659	198	C10H9O-
146.0375	6	C9H6O2-
146.0738	26	C10H10O-
147.0451	43	C9H7O2-
149.0611	1	C9H9O2-
152.0478	3	C8H8O3-
157.066	6	C11H9O-
158.0374	7	C10H6O2-
159.0452	18	C10H7O2-
159.0816	10	C11H11O-
161.0607	10	C10H9O2-
165.0553	6	C9H9O3-
171.0453	4	C11H7O2-
173.0609	3	C11H9O2-
178.0268	2	C9H6O4-
183.0813	1	C13H11O-
185.061	2	C12H9O2-
187.0398	1	C11H7O3-
189.0557	108	C11H9O3-
195.0824	1	C14H11O-
211.1134	3	C15H15O-
225.1288	2	C16H17O-
235.1124	1	C17H15O-
237.0916	2	C16H13O2-
249.0928	2	C17H13O2-
251.1076	30	C17H15O2-
253.1234	86	C17H17O2-
