Mass spectrum: PharmaGSID_48521; LC-ESI-QFT; MS2; CE: 75; R=17500; [M+H]+
Name: PharmaGSID_48521
Name: (5S)-5-butyl-9-[1-(4,6-dimethylpyrimidine-5-carbonyl)-4-methylpiperidin-4-yl]-3-(oxan-4-ylmethyl)-1-oxa-3,9-diazaspiro[5.5]undecan-2-one
Formula: C31H49N5O4
Exact mass: 555.3785
SMILES: CCCC[C@H]1CN(CC2CCOCC2)C(=O)OC11CCN(CC1)C1(C)CCN(CC1)C(=O)C1=C(C)N=CN=C1C
InChI: InChI=1S/C31H49N5O4/c1-5-6-7-26-21-35(20-25-8-18-39-19-9-25)29(38)40-31(26)12-16-36(17-13-31)30(4)10-14-34(15-11-30)28(37)27-23(2)32-22-33-24(27)3/h22,25-26H,5-21H2,1-4H3/t26-/m0/s1
Instrument: Q Exactive Orbitrap (Thermo Scientific)
Instrument type: LC-ESI-QFT
Ms type: MS2
Ion mode: POSITIVE
Ionization: ESI
Fragmentation mode: HCD
Collision energy: 75
Resolution: 17500
Column name: Acquity BEH C18 1.7um, 2.1x150mm (Waters)
Retention time: 13.096 min
Base peak: 79.0211
Precursor m/z: 556.3857
Precursor type: [M+H]+
Precursor intensity: 11524722.25
m/z	relative intensity	assigned
53.0022	17	C3HO+
53.0386	34	C4H5+
53.9975	3	C2NO+
55.0178	11	C3H3O+
55.0542	74	C4H7+
56.0495	55	C3H6N+
57.0335	15	C3H5O+
57.0699	10	C4H9+
58.0652	12	C3H8N+
65.0385	15	C5H5+
66.0338	684	C4H4N+
67.0178	49	C4H3O+
67.0542	290	C5H7+
68.0494	28	C4H6N+
69.0698	340	C5H9+
70.0651	135	C4H8N+
71.0491	17	C4H7O+
71.0855	3	C5H11+
74.0964	1	C4H12N+
77.0385	1	C6H5+
79.0542	258	C6H7+
80.0494	89	C5H6N+
81.0699	326	C6H9+
82.0651	183	C5H8N+
83.0729	20	C5H9N+
83.0855	39	C6H11+
84.0808	134	C5H10N+
86.0965	2	C5H12N+
91.0541	6	C7H7+
93.0699	14	C7H9+
94.0651	21	C6H8N+
95.0492	14	C6H7O+
95.073	29	C6H9N+
95.0855	40	C7H11+
96.0808	41	C6H10N+
97.0648	449	C6H9O+
98.0964	51	C6H12N+
99.0804	104	C6H11O+
100.0758	1	C5H10NO+
105.0446	5	C6H5N2+
105.0697	1	C8H9+
107.0603	32	C6H7N2+
107.0857	2	C8H11+
108.0443	11	C6H6NO+
108.0807	36	C7H10N+
109.0761	8	C6H9N2+
109.0886	22	C7H11N+
109.1011	2	C8H13+
110.06	6	C6H8NO+
110.0964	100	C7H12N+
112.1121	124	C7H14N+
122.0963	8	C8H12N+
123.1041	5	C8H13N+
123.1168	1	C9H15+
124.1121	31	C8H14N+
125.0709	58	C6H9N2O+
126.0911	1	C7H12NO+
126.1278	1	C8H16N+
128.107	255	C7H14NO+
134.0714	1	C7H8N3+
135.0552	999	C7H7N2O+
137.0704	1	C7H9N2O+
138.1274	1	C9H16N+
139.0865	3	C7H11N2O+
140.1434	2	C9H18N+
147.0552	3	C8H7N2O+
150.128	2	C10H16N+
152.0817	13	C7H10N3O+
152.1435	8	C10H18N+
154.159	87	C10H20N+
164.0819	1	C8H10N3O+
164.1433	3	C11H18N+
166.159	38	C11H20N+
232.1443	1	C13H18N3O+
238.216	1	C15H28NO+
