Mass spectrum: Bis[2-(2-butoxyethoxy)ethyl] hexandioate; LC-ESI-QFT; MS2; CE: 45; R=17500; [M+H]+
Name: Bis[2-(2-butoxyethoxy)ethyl] hexandioate
Name: Bis[2-(2-butoxyethoxy)ethyl] adipate
Name: bis[2-(2-butoxyethoxy)ethyl] hexanedioate
Formula: C22H42O8
Exact mass: 434.2880
SMILES: CCCCOCCOCCOC(=O)CCCCC(=O)OCCOCCOCCCC
InChI: InChI=1S/C22H42O8/c1-3-5-11-25-13-15-27-17-19-29-21(23)9-7-8-10-22(24)30-20-18-28-16-14-26-12-6-4-2/h3-20H2,1-2H3
Instrument: Q Exactive Orbitrap (Thermo Scientific)
Instrument type: LC-ESI-QFT
Ms type: MS2
Ion mode: POSITIVE
Ionization: ESI
Fragmentation mode: HCD
Collision energy: 45
Resolution: 17500
Column name: Acquity BEH C18 1.7um, 2.1x150mm (Waters)
Retention time: 18.791 min
Base peak: 79.0212
Precursor m/z: 435.2952
Precursor type: [M+H]+
Precursor intensity: 3734649.25
m/z	relative intensity	assigned
53.0021	4	C3HO+
55.0542	201	C4H7+
57.0699	407	C4H9+
59.0492	19	C3H7O+
67.0542	87	C5H7+
69.0335	6	C4H5O+
69.0697	8	C5H9+
73.0284	32	C3H5O2+
73.0648	42	C4H9O+
83.0492	140	C5H7O+
83.0855	60	C6H11+
85.0649	31	C5H9O+
87.0442	12	C4H7O2+
89.0597	999	C4H9O2+
95.0492	15	C6H7O+
99.044	10	C5H7O2+
101.0597	29	C5H9O2+
101.0961	179	C6H13O+
107.0703	126	C4H11O3+
111.044	356	C6H7O2+
113.0597	76	C6H9O2+
121.0861	11	C5H13O3+
127.0753	100	C7H11O2+
129.0546	58	C6H9O3+
137.0596	21	C8H9O2+
139.0754	33	C8H11O2+
143.0702	13	C7H11O3+
145.1223	33	C8H17O2+
155.0703	983	C8H11O3+
157.0859	110	C8H13O3+
163.1326	31	C8H19O3+
173.0809	88	C8H13O4+
217.1073	22	C10H17O5+
