Mass spectrum: Fluometuron; LC-ESI-QFT; MS2; CE: 75; R=17500; [M+H]+
Name: Fluometuron
Name: 1,1-dimethyl-3-[3-(trifluoromethyl)phenyl]urea
Formula: C10H11F3N2O
Exact mass: 232.0823
SMILES: CN(C)C(=O)NC1=CC=CC(=C1)C(F)(F)F
InChI: InChI=1S/C10H11F3N2O/c1-15(2)9(16)14-8-5-3-4-7(6-8)10(11,12)13/h3-6H,1-2H3,(H,14,16)
Instrument: Q Exactive Orbitrap (Thermo Scientific)
Instrument type: LC-ESI-QFT
Ms type: MS2
Ion mode: POSITIVE
Ionization: ESI
Fragmentation mode: HCD
Collision energy: 75
Resolution: 17500
Column name: Acquity BEH C18 1.7um, 2.1x150mm (Waters)
Retention time: 16.075 min
Base peak: 79.0211
Precursor m/z: 233.0896
Precursor type: [M+H]+
Precursor intensity: 12854003.5
m/z	relative intensity	assigned
56.0131	13	C2H2NO+
72.0443	999	C3H6NO+
133.0259	2	C6H4F3+
140.0306	15	C7H4F2N+
145.0259	35	C7H4F3+
148.0305	1	C9H5FO+
159.0555	1	C9H7N2O+
160.0367	36	C7H5F3N+
163.0367	1	C7H6F3O+
168.0254	15	C8H4F2NO+
173.032	7	C7H4F3N2+
178.0471	3	C7H7F3NO+
188.0318	1	C8H5F3NO+
192.0631	4	C8H9F3NO+
205.0608	2	C8H8F3N2O+
