Mass spectrum: Biotin; LC-ESI-QFT; MS2; CE: 45; R=17500; [M-H]-
Name: Biotin
Name: 5-[(3aS,4S,6aR)-2-oxo-1,3,3a,4,6,6a-hexahydrothieno[3,4-d]imidazol-4-yl]pentanoic acid
Formula: C10H16N2O3S
Exact mass: 244.0882
SMILES: OC(=O)CCCC[C@@H]1SC[C@@H]2NC(=O)N[C@H]12
InChI: InChI=1S/C10H16N2O3S/c13-8(14)4-2-1-3-7-9-6(5-16-7)11-10(15)12-9/h6-7,9H,1-5H2,(H,13,14)(H2,11,12,15)/t6-,7-,9-/m0/s1
Instrument: Q Exactive Orbitrap (Thermo Scientific)
Instrument type: LC-ESI-QFT
Ms type: MS2
Ion mode: NEGATIVE
Ionization: ESI
Fragmentation mode: HCD
Collision energy: 45
Resolution: 17500
Column name: Acquity BEH C18 1.7um, 2.1x150mm (Waters)
Retention time: 11.886 min
Base peak: 243.0807
Precursor m/z: 243.0809
Precursor type: [M-H]-
Precursor intensity: 9386816.826416
m/z	relative intensity	assigned
52.0192	13	C3H2N-
59.0139	18	C2H3O2-
59.025	28	CH3N2O-
63.9624	5	O2S-
66.0349	5	C4H4N-
68.0506	295	C4H6N-
71.9913	43	C2H2NS-
74.007	230	C2H4NS-
83.0252	7	C3H3N2O-
83.0503	9	C5H7O-
85.0117	7	C4H5S-
92.0506	6	C6H6N-
94.0662	17	C6H8N-
95.0251	147	C4H3N2O-
97.0408	43	C4H5N2O-
97.0659	18	C6H9O-
103.0588	83	C5H11S-
109.0407	13	C5H5N2O-
110.0976	6	C7H12N-
111.0452	12	C6H7O2-
111.0563	53	C5H7N2O-
120.0819	158	C8H10N-
122.0975	463	C8H12N-
123.0565	10	C6H7N2O-
124.0769	9	C7H10NO-
130.0697	47	C6H12NS-
136.0767	18	C8H10NO-
139.0588	285	C8H11S-
140.0718	8	C7H10NO2-
148.077	19	C9H10NO-
152.072	15	C8H10NO2-
153.1035	99	C8H13N2O-
154.0875	75	C8H12NO2-
156.0853	530	C8H14NS-
165.1034	121	C9H13N2O-
166.0874	999	C9H12NO2-
179.0827	40	C9H11N2O2-
183.0483	8	C9H11O2S-
191.0828	27	C10H11N2O2-
197.0932	88	C9H13N2O3-
199.0911	43	C9H15N2OS-
200.0751	705	C9H14NO2S-
209.0935	28	C10H13N2O3-
225.0701	6	C10H13N2O2S-
243.0809	229	C10H15N2O3S-
