Mass spectrum: Biochanin A; LC-ESI-QFT; MS2; CE: 90; R=17500; [M-H]-
Name: Biochanin A
Name: 5,7-dihydroxy-3-(4-methoxyphenyl)chromen-4-one
Formula: C16H12O5
Exact mass: 284.0685
SMILES: COC1=CC=C(C=C1)C1=COC2=C(C(O)=CC(O)=C2)C1=O
InChI: InChI=1S/C16H12O5/c1-20-11-4-2-9(3-5-11)12-8-21-14-7-10(17)6-13(18)15(14)16(12)19/h2-8,17-18H,1H3
Instrument: Q Exactive Orbitrap (Thermo Scientific)
Instrument type: LC-ESI-QFT
Ms type: MS2
Ion mode: NEGATIVE
Ionization: ESI
Fragmentation mode: HCD
Collision energy: 90
Resolution: 17500
Column name: Acquity BEH C18 1.7um, 2.1x150mm (Waters)
Retention time: 17.739 min
Base peak: 283.0612
Precursor m/z: 283.0612
Precursor type: [M-H]-
Precursor intensity: 61226249.89453
m/z	relative intensity	assigned
63.024	167	C5H3-
65.0033	142	C4HO-
68.9983	2	C3HO2-
83.0139	55	C4H3O2-
89.0034	6	C6HO-
91.019	147	C6H3O-
93.0346	11	C6H5O-
95.0139	4	C5H3O2-
104.0268	29	C7H4O-
106.006	4	C6H2O2-
107.0139	60	C6H3O2-
108.0218	19	C6H4O2-
116.027	7	C8H4O-
117.0346	32	C8H5O-
119.0139	9	C7H3O2-
120.0215	1	C7H4O2-
121.0296	15	C7H5O2-
123.009	5	C6H3O3-
123.0452	26	C7H7O2-
126.0475	2	C10H6-
130.0424	25	C9H6O-
132.0217	491	C8H4O2-
133.0297	6	C8H5O2-
134.0374	49	C8H6O2-
135.0088	26	C7H3O3-
139.0554	30	C11H7-
141.0347	57	C10H5O-
142.0425	7	C10H6O-
143.0502	45	C10H7O-
145.0293	11	C9H5O2-
145.0659	5	C10H9O-
147.0089	17	C8H3O3-
151.0038	19	C7H3O4-
151.0555	10	C12H7-
153.0194	5	C7H5O4-
153.0346	18	C11H5O-
154.0425	86	C11H6O-
155.0503	85	C11H7O-
156.0218	2	C10H4O2-
156.0581	17	C11H8O-
158.0373	7	C10H6O2-
160.0171	2	C9H4O3-
165.0347	14	C12H5O-
166.0426	4	C12H6O-
167.0503	523	C12H7O-
168.0582	6	C12H8O-
169.0296	44	C11H5O2-
169.0657	9	C12H9O-
170.0375	10	C11H6O2-
171.0453	19	C11H7O2-
172.0529	2	C11H8O2-
173.061	11	C11H9O2-
178.0425	15	C13H6O-
179.0503	51	C13H7O-
180.0589	3	C13H8O-
182.0375	59	C12H6O2-
183.0452	325	C12H7O2-
184.053	57	C12H8O2-
185.0609	3	C12H9O2-
194.0376	5	C13H6O2-
195.0452	382	C13H7O2-
196.0534	11	C13H8O2-
197.0245	16	C12H5O3-
198.0323	7	C12H6O3-
199.0405	9	C12H7O3-
210.0323	111	C13H6O3-
211.0401	999	C13H7O3-
212.048	16	C13H8O3-
222.0326	6	C14H6O3-
223.0402	131	C14H7O3-
224.0482	6	C14H8O3-
225.0195	3	C13H5O4-
226.027	8	C13H6O4-
238.0272	5	C14H6O4-
239.0351	307	C14H7O4-
240.043	10	C14H8O4-
251.036	1	C15H7O4-
266.0235	1	C15H6O5-
267.03	220	C15H7O5-
268.0382	6	C15H8O5-
