Mass spectrum: Coumatetralyl; LC-ESI-QFT; MS2; CE: 45; R=17500; [M+H]+
Name: Coumatetralyl
Name: 4-hydroxy-3-(1,2,3,4-tetrahydronaphthalen-1-yl)chromen-2-one
Formula: C19H16O3
Exact mass: 292.1099
SMILES: OC1=C(C2CCCC3=C2C=CC=C3)C(=O)OC2=C1C=CC=C2
InChI: InChI=1S/C19H16O3/c20-18-15-9-3-4-11-16(15)22-19(21)17(18)14-10-5-7-12-6-1-2-8-13(12)14/h1-4,6,8-9,11,14,20H,5,7,10H2
Instrument: Q Exactive Orbitrap (Thermo Scientific)
Instrument type: LC-ESI-QFT
Ms type: MS2
Ion mode: POSITIVE
Ionization: ESI
Fragmentation mode: HCD
Collision energy: 45
Resolution: 17500
Column name: Acquity BEH C18 1.7um, 2.1x150mm (Waters)
Retention time: 18.147 min
Base peak: 79.0211
Precursor m/z: 293.1172
Precursor type: [M+H]+
Precursor intensity: 16114162.375
m/z	relative intensity	assigned
65.0384	4	C5H5+
69.0334	1	C4H5O+
77.0387	1	C6H5+
79.0541	7	C6H7+
91.0542	442	C7H7+
95.0491	36	C6H7O+
103.0543	2	C8H7+
105.0698	33	C8H9+
107.0491	63	C7H7O+
115.0541	1	C9H7+
116.0621	2	C9H8+
117.0698	1	C9H9+
119.0855	5	C9H11+
121.0283	33	C7H5O2+
128.0619	6	C10H8+
129.0698	15	C10H9+
131.0855	164	C10H11+
143.0855	4	C11H11+
147.0438	6	C9H7O2+
153.0697	1	C12H9+
159.0441	2	C10H7O2+
159.0802	1	C11H11O+
163.0389	67	C9H7O3+
169.0647	1	C12H9O+
171.0797	1	C12H11O+
175.0388	999	C10H7O3+
177.0546	1	C10H9O3+
187.0751	4	C12H11O2+
189.0545	41	C11H9O3+
197.0597	1	C13H9O2+
201.0546	3	C12H9O3+
215.0701	23	C13H11O3+
293.117	40	C19H17O3+
