Mass spectrum: N-Phenyldiethanolamine; LC-ESI-QFT; MS2; CE: 60; R=17500; [M+H]+
Name: N-Phenyldiethanolamine
Name: 2-[N-(2-hydroxyethyl)anilino]ethanol
Formula: C10H15NO2
Exact mass: 181.1103
SMILES: OCCN(CCO)C1=CC=CC=C1
InChI: InChI=1S/C10H15NO2/c12-8-6-11(7-9-13)10-4-2-1-3-5-10/h1-5,12-13H,6-9H2
Instrument: Q Exactive Orbitrap (Thermo Scientific)
Instrument type: LC-ESI-QFT
Ms type: MS2
Ion mode: POSITIVE
Ionization: ESI
Fragmentation mode: HCD
Collision energy: 60
Resolution: 17500
Column name: Acquity BEH C18 1.7um, 2.1x150mm (Waters)
Retention time: 6.737 min
Base peak: 79.0212
Precursor m/z: 182.1176
Precursor type: [M+H]+
Precursor intensity: 8561214.3125
m/z	relative intensity	assigned
51.023	1	C4H3+
53.0386	5	C4H5+
65.0386	1	C5H5+
67.0542	1	C5H7+
77.0382	3	C6H5+
78.0464	2	C6H6+
79.0542	23	C6H7+
80.0494	3	C5H6N+
91.0542	21	C7H7+
92.0494	9	C6H6N+
93.0573	13	C6H7N+
93.0699	22	C7H9+
94.0651	39	C6H8N+
95.0492	15	C6H7O+
103.0542	45	C8H7+
104.0495	26	C7H6N+
105.0574	1	C7H7N+
105.07	11	C8H9+
106.0651	342	C7H8N+
110.0599	1	C6H8NO+
117.0573	14	C8H7N+
118.0651	161	C8H8N+
119.073	186	C8H9N+
120.0808	999	C8H10N+
121.0885	6	C8H11N+
128.0621	2	C10H8+
129.0698	4	C10H9+
130.0651	15	C9H8N+
131.073	44	C9H9N+
132.0808	2	C9H10N+
133.0884	1	C9H11N+
136.0759	1	C8H10NO+
137.0835	47	C8H11NO+
138.0913	31	C8H12NO+
144.0808	9	C10H10N+
145.0882	1	C10H11N+
146.0964	73	C10H12N+
164.107	112	C10H14NO+
182.1176	38	C10H16NO2+
