Mass spectrum: 2-Norbornene-5,6-dicarboxylic anhydride; LC-ESI-QFT; MS2; CE: 90; R=17500; [M+H]+
Name: 2-Norbornene-5,6-dicarboxylic anhydride
Name: 5-Norbornene-2,3-dicarboxylic anhydride
Name: 4-oxatricyclo[5.2.1.02,6]dec-8-ene-3,5-dione
Formula: C9H8O3
Exact mass: 164.0473
SMILES: O=C1OC(=O)C2C3CC(C=C3)C12
InChI: InChI=1S/C9H8O3/c10-8-6-4-1-2-5(3-4)7(6)9(11)12-8/h1-2,4-7H,3H2
Instrument: Q Exactive Orbitrap (Thermo Scientific)
Instrument type: LC-ESI-QFT
Ms type: MS2
Ion mode: POSITIVE
Ionization: ESI
Fragmentation mode: HCD
Collision energy: 90
Resolution: 17500
Column name: Acquity BEH C18 1.7um, 2.1x150mm (Waters)
Retention time: 17.413 min
Base peak: 79.0212
Precursor m/z: 165.0546
Precursor type: [M+H]+
Precursor intensity: 3206190.625
m/z	relative intensity	assigned
50.0152	3	C4H2+
51.0229	7	C4H3+
53.0021	6	C3HO+
53.0386	26	C4H5+
55.0178	22	C3H3O+
63.0229	6	C5H3+
64.0307	6	C5H4+
65.0386	18	C5H5+
66.0464	15	C5H6+
67.0542	1	C5H7+
68.997	5	C3HO2+
75.0229	31	C6H3+
77.0385	29	C6H5+
78.0463	1	C6H6+
79.0178	39	C5H3O+
79.0542	14	C6H7+
81.0334	6	C5H5O+
81.0698	2	C6H9+
91.0542	2	C7H7+
92.0257	87	C6H4O+
94.0413	10	C6H6O+
95.0492	75	C6H7O+
105.0336	2	C7H5O+
107.0127	999	C6H3O2+
109.0285	1	C6H5O2+
109.0648	3	C7H9O+
119.0129	5	C7H3O2+
120.0206	14	C7H4O2+
121.0283	7	C7H5O2+
122.0362	298	C7H6O2+
125.0233	53	C6H5O3+
135.0439	5	C8H7O2+
138.0312	1	C7H6O3+
139.0389	30	C7H7O3+
150.0312	29	C8H6O3+
165.0548	5	C9H9O3+
