Mass spectrum: N,N`-Dibutylthiourea; LC-ESI-QFT; MS2; CE: 90; R=17500; [M+H]+
Name: N,N'-Dibutylthiourea
Name: N,N'-dibutylcarbamimidothioic acid
Formula: C9H20N2S
Exact mass: 188.1347
SMILES: CCCCNC(=S)NCCCC
InChI: InChI=1S/C9H20N2S/c1-3-5-7-10-9(12)11-8-6-4-2/h3-8H2,1-2H3,(H2,10,11,12)
Instrument: Q Exactive Orbitrap (Thermo Scientific)
Instrument type: LC-ESI-QFT
Ms type: MS2
Ion mode: POSITIVE
Ionization: ESI
Fragmentation mode: HCD
Collision energy: 90
Resolution: 17500
Column name: Acquity BEH C18 1.7um, 2.1x150mm (Waters)
Retention time: 16.407 min
Base peak: 79.0211
Precursor m/z: 189.142
Precursor type: [M+H]+
Precursor intensity: 7879671.3125
m/z	relative intensity	assigned
55.0542	8	C4H7+
56.0495	59	C3H6N+
57.0699	999	C4H9+
58.0651	19	C3H8N+
59.9903	345	CH2NS+
65.0386	7	C5H5+
69.0572	2	C4H7N+
74.0964	60	C4H12N+
79.0542	5	C6H7+
81.0448	3	C4H5N2+
91.0543	11	C7H7+
95.0604	3	C5H7N2+
96.0682	3	C5H8N2+
103.0541	3	C8H7+
104.0495	18	C7H6N+
105.0448	10	C6H5N2+
106.0651	20	C7H8N+
115.0543	7	C9H7+
117.0576	4	C8H7N+
117.07	4	C9H9+
118.0653	4	C8H8N+
130.065	9	C9H8N+
131.0606	5	C8H7N2+
131.0731	5	C9H9N+
132.0684	5	C8H8N2+
132.0809	3	C9H10N+
145.0762	5	C9H9N2+
147.0917	5	C9H11N2+
