Mass spectrum: Carbamazepine; LC-ESI-QFT; MS2; CE: 15; R=17500; [M+H]+
Name: Carbamazepine
Formula: C15H12N2O
Exact mass: 236.0950
SMILES: NC(=O)N1C2=CC=CC=C2C=CC2=C1C=CC=C2
InChI: InChI=1S/C15H12N2O/c16-15(18)17-13-7-3-1-5-11(13)9-10-12-6-2-4-8-14(12)17/h1-10H,(H2,16,18)
Instrument: Q Exactive Orbitrap (Thermo Scientific)
Instrument type: LC-ESI-QFT
Ms type: MS2
Ion mode: POSITIVE
Ionization: ESI
Fragmentation mode: HCD
Collision energy: 15
Resolution: 17500
Column name: Acquity BEH C18 1.7um, 2.1x150mm (Waters)
Retention time: 15.734 min
Base peak: 79.0212
Precursor m/z: 237.1022
Precursor type: [M+H]+
Precursor intensity: 21884381.25
m/z	relative intensity	assigned
192.0808	23	C14H10N+
193.0887	2	C14H11N+
194.0965	286	C14H12N+
220.0758	20	C15H10NO+
237.1022	999	C15H13N2O+
