Mass spectrum: Clodinafop-propargyl; LC-ESI-QFT; MS2; CE: 30; R=17500; [M+H]+
Name: Clodinafop-propargyl
Name: prop-2-ynyl (2R)-2-[4-(5-chloro-3-fluoropyridin-2-yl)oxyphenoxy]propanoate
Formula: C17H13ClFNO4
Exact mass: 349.0517
SMILES: C[C@@H](OC1=CC=C(OC2=NC=C(Cl)C=C2F)C=C1)C(=O)OCC#C
InChI: InChI=1S/C17H13ClFNO4/c1-3-8-22-17(21)11(2)23-13-4-6-14(7-5-13)24-16-15(19)9-12(18)10-20-16/h1,4-7,9-11H,8H2,2H3/t11-/m1/s1
Instrument: Q Exactive Orbitrap (Thermo Scientific)
Instrument type: LC-ESI-QFT
Ms type: MS2
Ion mode: POSITIVE
Ionization: ESI
Fragmentation mode: HCD
Collision energy: 30
Resolution: 17500
Column name: Acquity BEH C18 1.7um, 2.1x150mm (Waters)
Retention time: 18.291 min
Base peak: 79.0212
Precursor m/z: 350.059
Precursor type: [M+H]+
Precursor intensity: 12329365.375
m/z	relative intensity	assigned
55.0179	2	C3H3O+
65.0386	1	C5H5+
91.0542	281	C7H7+
92.062	1	C7H8+
102.0464	1	C8H6+
103.0542	1	C8H7+
111.044	1	C6H7O2+
112.0517	2	C6H8O2+
119.0492	55	C8H7O+
120.057	8	C8H8O+
121.0284	19	C7H5O2+
121.0648	6	C8H9O+
123.044	1	C7H7O2+
129.0697	5	C10H9+
130.0413	2	C9H6O+
131.0492	17	C9H7O+
132.057	5	C9H8O+
147.0441	2	C3H11ClFNO2+
147.9959	12	C5H4ClFNO+
157.0648	3	C11H9O+
158.0167	2	C7H6ClFN+
158.0726	4	C11H10O+
203.0739	3	C15H9N+
204.0781	3	C12H12O3+
210.048	11	C11H10ClFN+
214.066	1	C13H9FNO+
222.0116	20	C11H6ClFNO+
224.0273	1	C11H8ClFNO+
230.0609	2	C13H9FNO2+
231.0688	5	C13H10FNO2+
238.0069	17	C11H6ClFNO2+
238.0429	247	C12H10ClFNO+
239.0143	37	C11H7ClFNO2+
240.0223	6	C11H8ClFNO2+
248.027	2	C16H5FO2+
249.0356	1	C13H9ClFNO+
252.0224	3	C12H8ClFNO2+
260.0281	3	C14H8ClFNO+
266.0378	999	C13H10ClFNO2+
268.0766	1	C16H11FNO2+
269.0842	1	C16H12FNO2+
276.022	15	C14H8ClFNO2+
277.0299	15	C14H9ClFNO2+
278.0379	4	C14H10ClFNO2+
292.0174	1	C14H8ClFNO3+
294.0327	4	C14H10ClFNO3+
304.0536	3	C16H12ClFNO2+
311.0354	14	C14H11ClFNO4+
350.059	8	C17H14ClFNO4+
