Mass spectrum: 4-Chlorobenzoic acid; LC-ESI-QFT; MS2; CE: 45; R=17500; [M-H]-
Name: 4-Chlorobenzoic acid
Formula: C7H5ClO2
Exact mass: 155.9978
SMILES: OC(=O)C1=CC=C(Cl)C=C1
InChI: InChI=1S/C7H5ClO2/c8-6-3-1-5(2-4-6)7(9)10/h1-4H,(H,9,10)
Instrument: Q Exactive Orbitrap (Thermo Scientific)
Instrument type: LC-ESI-QFT
Ms type: MS2
Ion mode: NEGATIVE
Ionization: ESI
Fragmentation mode: HCD
Collision energy: 45
Resolution: 17500
Column name: Acquity BEH C18 1.7um, 2.1x150mm (Waters)
Retention time: 16.528 min
Base peak: 206.007
Precursor m/z: 154.9905
Precursor type: [M-H]-
Precursor intensity: 843357.2001953
m/z	relative intensity	assigned
111.0007	999	C6H4Cl-
154.9905	124	C7H4ClO2-
