Mass spectrum: PharmaGSID_48516; LC-ESI-QFT; MS2; CE: 60; R=17500; [M+H]+
Name: 2-chloro-4-fluoro-N-[(E)-2-phenylethenyl]sulfonylbenzamide
Name: 2-Chloro-4-fluoro-N-{[(E)-2-phenylethenyl]sulfonyl}benzamide
Name: PharmaGSID_48516
Formula: C15H11ClFNO3S
Exact mass: 339.0132
SMILES: O=C(NS(=O)(=O)/C=C/c1ccccc1)c1ccc(F)cc1Cl
InChI: InChI=1S/C15H11ClFNO3S/c16-14-10-12(17)6-7-13(14)15(19)18-22(20,21)9-8-11-4-2-1-3-5-11/h1-10H,(H,18,19)/b9-8+
Instrument: Q Exactive Orbitrap (Thermo Scientific)
Instrument type: LC-ESI-QFT
Ms type: MS2
Ion mode: POSITIVE
Ionization: ESI
Fragmentation mode: HCD
Collision energy: 60
Resolution: 17500
Column name: Acquity BEH C18 1.7um, 2.1x150mm (Waters)
Retention time: 16.772 min
Base peak: 79.0211
Precursor m/z: 340.0205
Precursor type: [M+H]+
Precursor intensity: 2297504.25
m/z	relative intensity	assigned
50.0151	1	C4H2+
51.023	2	C4H3+
53.0386	21	C4H5+
55.0178	1	C3H3O+
77.0385	8	C6H5+
84.9839	4	C4H2Cl+
94.0414	2	C6H6O+
95.0492	63	C6H7O+
102.0464	10	C8H6+
103.0543	999	C8H7+
105.0448	27	H11NO3S+
109.0649	1	C7H9O+
111.0241	4	C6H4FO+
112.0318	3	C6H5FO+
118.0412	1	C8H6O+
128.99	2	C6H3ClF+
143.0502	1	C7H8FO2+
147.0003	4	C6H5ClFO+
148.0305	2	C12H4+
156.0009	9	C7H4ClFN+
156.9852	340	C7H3ClFO+
165.0701	3	C13H9+
