Mass spectrum: Triamcinolone; LC-ESI-QFT; MS2; CE: 30; R=17500; [M+H]+
Name: Triamcinolone
Name: (8S,9R,10S,11S,13S,14S,16R,17S)-9-fluoro-11,16,17-trihydroxy-17-(2-hydroxyacetyl)-10,13-dimethyl-6,7,8,11,12,14,15,16-octahydrocyclopenta[a]phenanthren-3-one
Formula: C21H27FO6
Exact mass: 394.1792
SMILES: C[C@]12C[C@H](O)[C@@]3(F)[C@@H](CCC4=CC(=O)C=C[C@]34C)[C@@H]1C[C@@H](O)[C@]2(O)C(=O)CO
InChI: InChI=1S/C21H27FO6/c1-18-6-5-12(24)7-11(18)3-4-13-14-8-15(25)21(28,17(27)10-23)19(14,2)9-16(26)20(13,18)22/h5-7,13-16,23,25-26,28H,3-4,8-10H2,1-2H3/t13-,14-,15+,16-,18-,19-,20-,21-/m0/s1
Instrument: Q Exactive Orbitrap (Thermo Scientific)
Instrument type: LC-ESI-QFT
Ms type: MS2
Ion mode: POSITIVE
Ionization: ESI
Fragmentation mode: HCD
Collision energy: 30
Resolution: 17500
Column name: Acquity BEH C18 1.7um, 2.1x150mm (Waters)
Retention time: 14.647 min
Base peak: 79.0211
Precursor m/z: 395.1864
Precursor type: [M+H]+
Precursor intensity: 2145089
m/z	relative intensity	assigned
55.0178	61	C3H3O+
65.0384	29	C5H5+
81.0698	53	C6H9+
87.0441	96	C4H7O2+
93.07	77	C7H9+
95.0492	76	C6H7O+
95.0853	32	C7H11+
97.0648	35	C6H9O+
101.0234	64	C4H5O3+
105.0699	77	C8H9+
109.0645	68	C7H9O+
115.0391	99	C5H7O3+
121.0648	160	C8H9O+
123.0443	38	C7H7O2+
123.0809	41	C8H11O+
125.0599	106	C7H9O2+
131.0857	65	C10H11+
133.0647	90	C9H9O+
135.0803	174	C9H11O+
137.0599	115	C8H9O2+
143.0858	77	C11H11+
145.0646	41	C10H9O+
145.1011	34	C11H13+
147.0805	622	C10H11O+
155.07	73	C8H11O3+
155.0859	36	C12H11+
159.0806	118	C11H11O+
161.0961	117	C11H13O+
169.0651	49	C12H9O+
171.0805	289	C12H11O+
171.1171	73	C13H15+
173.0961	133	C12H13O+
181.1013	61	C14H13+
183.0807	53	C13H11O+
185.0964	198	C13H13O+
187.0757	158	C12H11O2+
197.0964	165	C14H13O+
197.1322	52	C15H17+
199.1119	109	C14H15O+
207.1169	55	C16H15+
209.0962	102	C15H13O+
211.1121	171	C15H15O+
213.1274	364	C15H17O+
221.0952	55	C16H13O+
221.1323	43	C17H17+
222.1038	31	C16H14O+
223.112	317	C16H15O+
224.1198	137	C16H16O+
225.1276	999	C16H17O+
235.112	199	C17H15O+
237.1275	595	C17H17O+
239.1432	305	C17H19O+
241.1221	165	C16H17O2+
249.1276	157	C18H17O+
251.1435	193	C18H19O+
253.1227	82	C17H17O2+
255.1376	39	C17H19O2+
260.1197	84	C19H16O+
261.1278	173	C19H17O+
262.1355	131	C19H18O+
263.1434	377	C19H19O+
265.1588	89	C19H21O+
267.1382	73	C18H19O2+
275.1428	230	C20H19O+
277.1218	66	C19H17O2+
279.1387	206	C16H20FO3+
280.1462	63	C19H20O2+
281.1539	182	C19H21O2+
291.1379	127	C20H19O2+
293.1533	251	C20H21O2+
303.1379	128	C21H19O2+
339.1595	342	C21H23O4+
357.1701	409	C21H25O5+
