Mass spectrum: Norflurazon; LC-ESI-QFT; MS2; CE: 45; R=17500; [M+H]+
Name: Norflurazon
Name: 4-chloro-5-(methylamino)-2-[3-(trifluoromethyl)phenyl]pyridazin-3-one
Formula: C12H9ClF3N3O
Exact mass: 303.0386
SMILES: CNC1=C(Cl)C(=O)N(N=C1)C1=CC=CC(=C1)C(F)(F)F
InChI: InChI=1S/C12H9ClF3N3O/c1-17-9-6-18-19(11(20)10(9)13)8-4-2-3-7(5-8)12(14,15)16/h2-6,17H,1H3
Instrument: Q Exactive Orbitrap (Thermo Scientific)
Instrument type: LC-ESI-QFT
Ms type: MS2
Ion mode: POSITIVE
Ionization: ESI
Fragmentation mode: HCD
Collision energy: 45
Resolution: 17500
Column name: Acquity BEH C18 1.7um, 2.1x150mm (Waters)
Retention time: 16.641 min
Base peak: 79.0212
Precursor m/z: 304.0459
Precursor type: [M+H]+
Precursor intensity: 18045171.75
m/z	relative intensity	assigned
54.0339	3	C3H4N+
58.0287	7	C2H4NO+
63.9948	2	CH3ClN+
69.0446	16	C3H5N2+
70.0525	1	C3H6N2+
75.9948	3	C2H3ClN+
81.0447	7	C4H5N2+
82.0288	2	C4H4NO+
87.9948	25	C3H3ClN+
89.0025	5	C3H4ClN+
90.0104	4	C3H5ClN+
97.0396	33	C4H5N2O+
99.9948	3	C4H3ClN+
102.0104	12	C4H5ClN+
102.0274	1	F3H3N3+
109.0397	1	C5H5N2O+
115.0057	14	C4H4ClN2+
115.0354	1	C6H5F2+
115.9897	16	C4H3ClNO+
116.0135	2	C4H5ClN2+
118.0053	7	C4H5ClNO+
126.028	2	C7H4F2+
130.0053	2	C5H5ClNO+
131.0132	19	C5H6ClNO+
133.0162	2	C4H6ClN2O+
133.0259	1	C6H4F3+
139.0355	1	C8H5F2+
140.0306	27	C7H4F2N+
142.0461	2	C7H6F2N+
143.0006	33	C5H4ClN2O+
144.0084	16	C5H5ClN2O+
145.0258	6	C7H4F3+
148.0304	1	C7H3FN3+
151.0354	3	C9H5F2+
156.0613	1	C8H8F2N+
158.0175	1	C4H7ClF2NO+
160.0368	109	C7H5F3N+
161.0447	12	C7H6F3N+
162.0525	4	C7H7F3N+
163.0362	2	C7H6F3O+
164.0432	14	C10H6F2+
165.051	3	C10H7F2+
167.0057	2	C9H5ClF+
167.0303	5	C9H5F2O+
167.0413	3	C8H5F2N2+
168.0255	9	C8H4F2NO+
172.0366	7	C8H5F3N+
172.0553	3	C11H7FN+
173.0322	9	C7H4F3N2+
173.0509	3	C10H6FN2+
173.0633	2	C11H8FN+
174.0523	6	C8H7F3N+
178.0475	11	C7H7F3NO+
179.0301	1	C5H4F3N3O+
181.0325	1	C12H4FN+
185.0525	1	C5H10ClF2N3+
187.0121	1	C9H6ClF2+
187.0474	3	C8H6F3N2+
188.0316	1	C8H5F3NO+
191.0413	1	C10H5F2N2+
192.0625	23	C11H8F2N+
193.0697	48	C11H9F2N+
195.0009	2	C10H5ClFO+
195.0112	1	C12H2FNO+
199.0119	2	C5H5ClF3N3+
199.0478	3	C9H6F3N2+
200.0621	1	C11H7FN3+
201.0461	1	C11H6FN2O+
201.0702	1	C11H8FN3+
202.0535	1	C11H7FN2O+
206.0407	1	C11H6F2NO+
207.0359	1	C10H5F2N2O+
208.0321	1	C11H8ClFN+
213.0151	1	C10H6ClF2N+
213.0632	1	C10H8F3N2+
214.0716	1	C10H9F3N2+
216.0023	2	C9H5ClF2NO+
217.9979	2	C9H4ClF3N+
220.0567	2	C12H8F2NO+
220.0677	2	C11H8F2N3+
221.0518	3	C11H7F2N2O+
221.0644	1	C12H9F2NO+
223.0067	2	C10H5ClFN2O+
225.003	1	C10H4ClF2N2+
227.0425	1	C10H6F3N2O+
228.0383	1	C11H9ClF2N+
228.057	2	C12H7FN3O+
229.0642	1	C12H8FN3O+
233.9923	1	C9H4ClF3NO+
236.0271	1	C12H8ClFNO+
237.0223	4	C11H7ClFN2O+
241.0584	1	C11H8F3N2O+
242.0041	3	C10H5ClF2N2O+
243.0131	3	C10H6ClF2N2O+
245.0091	1	C10H5ClF3N2+
245.993	1	C10H4ClF3NO+
248.0631	6	C12H8F2N3O+
249.0102	1	C11H5ClFN3O+
249.0714	2	C12H9F2N3O+
257.0286	11	C11H8ClF2N2O+
259.0247	2	C11H7ClF3N2+
262.0114	11	C10H6ClF3N2O+
264.0333	68	C12H8ClFN3O+
268.0688	5	C12H9F3N3O+
269.0165	1	C11H6ClF2N3O+
273.0039	3	C11H5ClF3N2O+
275.0318	1	C12H9ClF3NO+
277.0354	2	C11H9ClF3N2O+
283.0318	12	C12H8ClF2N3O+
284.0395	999	C12H9ClF2N3O+
304.0457	783	C12H10ClF3N3O+
