Mass spectrum: PharmaGSID_47261; LC-ESI-QFT; MS2; CE: 60; R=17500; [M-H]-
Name: PharmaGSID_47261
Name: (2S,3S)-3-methyl-2-(3-oxo-1,2-benzothiazol-2-yl)pentanoic acid
Formula: C13H15NO3S
Exact mass: 265.0773
SMILES: CC[C@H](C)[C@H](N1SC2=CC=CC=C2C1=O)C(O)=O
InChI: InChI=1S/C13H15NO3S/c1-3-8(2)11(13(16)17)14-12(15)9-6-4-5-7-10(9)18-14/h4-8,11H,3H2,1-2H3,(H,16,17)/t8-,11-/m0/s1
Instrument: Q Exactive Orbitrap (Thermo Scientific)
Instrument type: LC-ESI-QFT
Ms type: MS2
Ion mode: NEGATIVE
Ionization: ESI
Fragmentation mode: HCD
Collision energy: 60
Resolution: 17500
Column name: Acquity BEH C18 1.7um, 2.1x150mm (Waters)
Retention time: 16.593 min
Base peak: 179.0714
Precursor m/z: 264.07
Precursor type: [M-H]-
Precursor intensity: 16197975.70996
m/z	relative intensity	assigned
56.9804	1	C2HS-
63.9624	12	O2S-
80.0506	2	C5H6N-
82.0661	2	C5H8N-
106.9962	5	C6H3S-
108.004	3	C6H4S-
108.0218	4	C6H4O2-
109.0117	999	C6H5S-
110.9909	4	C5H3OS-
123.9989	1	C6H4OS-
134.007	12	C7H4NS-
137.0066	28	C7H5OS-
138.9857	1	C6H3O2S-
150.0018	61	C7H4NOS-
152.0175	16	C7H6NOS-
163.0096	1	C8H5NOS-
202.0696	1	C12H12NS-
205.0567	3	C11H11NOS-
211.0248	1	C12H5NO3-
218.0643	1	C12H12NOS-
220.0801	81	C12H14NOS-
