Mass spectrum: Monuron; LC-ESI-QFT; MS2; CE: 30; R=17500; [M-H]-
Name: Monuron
Name: 3-(4-chlorophenyl)-1,1-dimethylurea
Formula: C9H11ClN2O
Exact mass: 198.0560
SMILES: CN(C)C(=O)NC1=CC=C(Cl)C=C1
InChI: InChI=1S/C9H11ClN2O/c1-12(2)9(13)11-8-5-3-7(10)4-6-8/h3-6H,1-2H3,(H,11,13)
Instrument: Q Exactive Orbitrap (Thermo Scientific)
Instrument type: LC-ESI-QFT
Ms type: MS2
Ion mode: NEGATIVE
Ionization: ESI
Fragmentation mode: HCD
Collision energy: 30
Resolution: 17500
Column name: Acquity BEH C18 1.7um, 2.1x150mm (Waters)
Retention time: 15.120 min
Base peak: 112.9857
Precursor m/z: 197.0487
Precursor type: [M-H]-
Precursor intensity: 942251.4658203
m/z	relative intensity	assigned
116.0142	27	C7H2NO-
126.0115	40	C6H5ClN-
151.9909	858	C7H3ClNO-
197.0487	999	C9H10ClN2O-
