Mass spectrum: Diclosulam; LC-ESI-QFT; MS2; CE: 60; R=17500; [M-H]-
Name: Diclosulam
Name: N-(2,6-dichlorophenyl)-5-ethoxy-7-fluoro-[1,2,4]triazolo[1,5-c]pyrimidine-2-sulfonamide
Formula: C13H10Cl2FN5O3S
Exact mass: 404.9865
SMILES: CCOC1=NC(F)=CC2=NC(=NN12)S(=O)(=O)NC1=C(Cl)C=CC=C1Cl
InChI: InChI=1S/C13H10Cl2FN5O3S/c1-2-24-13-17-9(16)6-10-18-12(19-21(10)13)25(22,23)20-11-7(14)4-3-5-8(11)15/h3-6,20H,2H2,1H3
Instrument: Q Exactive Orbitrap (Thermo Scientific)
Instrument type: LC-ESI-QFT
Ms type: MS2
Ion mode: NEGATIVE
Ionization: ESI
Fragmentation mode: HCD
Collision energy: 60
Resolution: 17500
Column name: Acquity BEH C18 1.7um, 2.1x150mm (Waters)
Retention time: 15.732 min
Base peak: 403.9794
Precursor m/z: 403.9793
Precursor type: [M-H]-
Precursor intensity: 6142481.628906
m/z	relative intensity	assigned
64.0066	9	C3N2-
65.0145	248	C3HN2-
65.9984	2	C3NO-
66.0096	4	C2N3-
66.035	1	C4H4N-
69.0458	1	C3H5N2-
85.0208	3	C3H2FN2-
86.9999	1	C2FN2O-
90.0097	764	C4N3-
93.0458	11	C5H5N2-
110.0159	254	C4HFN3-
111.0001	2	C4FN2O-
132.0079	3	C5N4O-
133.0156	196	C5HN4O-
153.0218	999	C5H2FN4O-
181.0531	40	C7H6FN4O-
