Mass spectrum: Ifosfamide; LC-ESI-QFT; MS2; CE: 45; R=17500; [M+H]+
Name: Ifosfamide
Name: N,3-bis(2-chloroethyl)-2-oxo-1,3,2lambda5-oxazaphosphinan-2-amine
Formula: C7H15Cl2N2O2P
Exact mass: 260.0248
SMILES: ClCCNP1(=O)OCCCN1CCCl
InChI: InChI=1S/C7H15Cl2N2O2P/c8-2-4-10-14(12)11(6-3-9)5-1-7-13-14/h1-7H2,(H,10,12)
Instrument: Q Exactive Orbitrap (Thermo Scientific)
Instrument type: LC-ESI-QFT
Ms type: MS2
Ion mode: POSITIVE
Ionization: ESI
Fragmentation mode: HCD
Collision energy: 45
Resolution: 17500
Column name: Acquity BEH C18 1.7um, 2.1x150mm (Waters)
Retention time: 13.918 min
Base peak: 79.0211
Precursor m/z: 261.0321
Precursor type: [M+H]+
Precursor intensity: 9275464.09375
m/z	relative intensity	assigned
53.0022	1	C3HO+
54.0338	2	C3H4N+
55.0543	1	C4H7+
56.0495	26	C3H6N+
57.0699	1	C4H9+
58.0651	3	C3H8N+
62.9996	60	C2H4Cl+
63.9948	2	CH3ClN+
67.0542	13	C5H7+
68.0494	1	C4H6N+
72.0443	6	C3H6NO+
74.0965	1	C4H12N+
78.0105	467	C2H5ClN+
80.0261	12	C2H7ClN+
80.0494	1	C5H6N+
82.0651	14	C5H8N+
83.0729	3	C5H9N+
84.0808	10	C5H10N+
92.0261	999	C3H7ClN+
98.0001	1	CH5ClNO2+
115.9662	10	ClH4NO2P+
116.9503	38	CH3Cl2O2+
118.0418	15	C5H9ClN+
120.0575	152	C5H11ClN+
124.0159	9	C3H7ClNO2+
126.9711	7	C2H5ClO2P+
127.9662	27	CH4ClNO2P+
128.026	14	C5H7NOP+
130.9656	1	C2H5Cl2O2+
136.0157	12	C4H7ClNO2+
137.987	2	C3H6ClNOP+
138.0315	2	C4H9ClNO2+
139.9662	5	C2H4ClNO2P+
140.9867	3	C3H7ClO2P+
141.9819	29	C2H6ClNO2P+
143.9612	2	C2H4Cl2NO2+
146.0365	58	C5H9NO2P+
153.9818	747	C3H6ClNO2P+
154.9469	8	C3H4Cl2NP+
155.9973	3	C7H5ClO2+
156.9626	2	C3H6Cl2NP+
159.9924	2	C3H8Cl2NO2+
160.0519	1	C6H11NO2P+
164.047	9	C6H11ClNO2+
164.9866	2	C5H7ClO2P+
168.9627	2	C4H6Cl2NP+
171.0085	1	C3H9ClN2O2P+
171.9922	2	C4H8Cl2NO2+
172.9572	5	C3H6Cl2NOP+
174.0081	2	C4H10Cl2NO2+
182.0131	160	C5H10ClNO2P+
182.9973	1	C6H9Cl2O2+
185.024	2	C4H11ClN2O2P+
186.0083	1	C5H10Cl2NO2+
189.9586	2	C3H7Cl2NO2P+
199.0399	1	C6H13Cl2N2O+
200.0238	42	C6H12Cl2NO2+
217.9895	2	C5H11Cl2NO2P+
233.0008	173	C5H12Cl2N2O2P+
261.032	96	C7H16Cl2N2O2P+
