Mass spectrum: Pyraclostrobin; LC-ESI-QFT; MS2; CE: 60; R=17500; [M+H]+
Name: Pyraclostrobin
Name: methyl N-[2-[[1-(4-chlorophenyl)pyrazol-3-yl]oxymethyl]phenyl]-N-methoxycarbamate
Formula: C19H18ClN3O4
Exact mass: 387.0986
SMILES: CON(C(=O)OC)C1=C(COC2=NN(C=C2)C2=CC=C(Cl)C=C2)C=CC=C1
InChI: InChI=1S/C19H18ClN3O4/c1-25-19(24)23(26-2)17-6-4-3-5-14(17)13-27-18-11-12-22(21-18)16-9-7-15(20)8-10-16/h3-12H,13H2,1-2H3
Instrument: Q Exactive Orbitrap (Thermo Scientific)
Instrument type: LC-ESI-QFT
Ms type: MS2
Ion mode: POSITIVE
Ionization: ESI
Fragmentation mode: HCD
Collision energy: 60
Resolution: 17500
Column name: Acquity BEH C18 1.7um, 2.1x150mm (Waters)
Retention time: 18.708 min
Base peak: 79.0211
Precursor m/z: 388.1059
Precursor type: [M+H]+
Precursor intensity: 15193597.5
m/z	relative intensity	assigned
51.0231	3	C4H3+
53.0387	10	C4H5+
59.0128	2	C2H3O2+
65.0385	14	C5H5+
66.0464	14	C5H6+
75.0441	10	C3H7O2+
77.0386	3	C6H5+
78.0464	19	C6H6+
79.0542	30	C6H7+
80.0494	5	C5H6N+
81.0572	3	C5H7N+
89.0386	8	C7H5+
91.0417	9	C6H5N+
91.0542	105	C7H7+
92.0256	10	C6H4O+
92.0495	10	C6H6N+
93.0335	4	C6H5O+
93.0575	4	C6H7N+
94.0415	17	C6H6O+
95.0491	30	C6H7O+
96.0444	3	C5H6NO+
98.9996	8	C5H4Cl+
103.0416	7	C7H5N+
104.0495	284	C7H6N+
105.0574	718	C7H7N+
106.0652	102	C7H8N+
107.0492	9	C7H7O+
107.073	35	C7H9N+
108.0445	23	C6H6NO+
109.0523	3	C6H7NO+
109.0648	17	C7H9O+
110.06	2	C6H8NO+
111.0441	3	C6H7O2+
116.0495	27	C8H6N+
117.0574	38	C8H7N+
118.0651	84	C8H8N+
119.0366	265	C7H5NO+
120.0444	391	C7H6NO+
121.0523	12	C7H7NO+
121.0648	107	C8H9O+
122.06	6	C7H8NO+
123.0679	139	C7H9NO+
125.0155	2	C7H6Cl+
126.0111	3	C6H5ClN+
128.0495	22	C9H6N+
129.0104	11	C6H6ClO+
129.0575	6	C9H7N+
130.0288	47	C8H4NO+
130.04	5	C7H4N3+
130.0651	5	C9H8N+
131.0604	3	C8H7N2+
132.0445	464	C8H6NO+
133.0523	999	C8H7NO+
134.0237	36	C7H4NO2+
134.06	117	C8H8NO+
135.044	3	C8H7O2+
135.0678	10	C8H9NO+
136.0756	3	C8H10NO+
137.0473	5	C7H7NO2+
137.0835	6	C8H11NO+
138.0105	11	C7H5ClN+
139.0058	24	C6H4ClN2+
142.0525	3	C9H6N2+
143.0603	3	C9H7N2+
144.0444	10	C9H6NO+
144.0812	3	C10H10N+
146.0237	3	C8H4NO2+
146.0601	62	C9H8NO+
147.0318	4	C5H8ClN2O+
148.0393	57	C8H6NO2+
149.0472	738	C8H7NO2+
150.0108	3	C8H5ClN+
151.0182	5	C8H6ClN+
151.0629	11	C8H9NO2+
153.0219	3	C7H6ClN2+
159.0551	3	C9H7N2O+
160.0757	3	C10H10NO+
161.0472	6	C9H7NO2+
162.055	245	C9H8NO2+
163.0628	779	C9H9NO2+
164.0705	32	C9H10NO2+
178.0496	3	C9H8NO3+
179.0578	7	C9H9NO3+
180.0209	3	C9H7ClNO+
193.0164	2	C9H6ClN2O+
204.0811	14	C15H10N+
218.084	34	C15H10N2+
219.0917	9	C15H11N2+
232.0756	13	C16H10NO+
232.0868	4	C15H10N3+
233.0945	7	C15H11N3+
234.0786	3	C15H10N2O+
241.0525	7	C14H10ClN2+
243.0788	25	C16H9N3+
253.0527	35	C15H10ClN2+
260.0821	2	C16H10N3O+
261.0896	11	C16H11N3O+
267.056	8	C15H10ClN3+
268.0635	4	C15H11ClN3+
296.0588	4	C16H11ClN3O+
