Mass spectrum: 4-Aminoazobenzene; LC-ESI-QFT; MS2; CE: 75; R=17500; [M+H]+
Name: 4-Aminoazobenzene
Name: 4-phenyldiazenylaniline
Formula: C12H11N3
Exact mass: 197.0953
SMILES: C1=CC=C(C=C1)N=NC2=CC=C(C=C2)N
InChI: InChI=1S/C12H11N3/c13-10-6-8-12(9-7-10)15-14-11-4-2-1-3-5-11/h1-9H,13H2
Instrument: Q Exactive Orbitrap (Thermo Scientific)
Instrument type: LC-ESI-QFT
Ms type: MS2
Ion mode: POSITIVE
Ionization: ESI
Fragmentation mode: HCD
Collision energy: 75
Resolution: 17500
Column name: Acquity BEH C18 1.7um, 2.1x150mm (Waters)
Retention time: 17.237 min
Base peak: 79.0212
Precursor m/z: 198.1026
Precursor type: [M+H]+
Precursor intensity: 17268489.125
m/z	relative intensity	assigned
50.0151	4	C4H2+
51.0229	4	C4H3+
53.0386	334	C4H5+
65.0386	53	C5H5+
66.0464	3	C5H6+
67.0542	4	C5H7+
68.0494	1	C4H6N+
77.0386	206	C6H5+
79.0417	4	C5H5N+
79.0542	3	C6H7+
80.0493	1	C5H6N+
81.0699	4	C6H9+
91.0542	1	C7H7+
92.0495	38	C6H6N+
93.0574	55	C6H7N+
95.0491	999	C4H5N3+
105.0448	392	C6H5N2+
106.0526	26	C6H6N2+
106.065	4	C7H8N+
107.0491	1	C5H5N3+
107.0602	2	C6H7N2+
107.0726	1	C7H9N+
109.0648	11	C5H7N3+
128.0618	2	C10H8+
152.0621	10	C12H8+
154.0651	1	C11H8N+
168.0806	1	C12H10N+
169.0888	3	C12H11N+
181.0759	2	C12H9N2+
198.1024	1	C12H12N3+
