Mass spectrum: Fluconazole; LC-ESI-QFT; MS2; CE: 30; R=17500; [M+H]+
Name: Fluconazole
Name: 2-(2,4-difluorophenyl)-1,3-bis(1,2,4-triazol-1-yl)propan-2-ol
Formula: C13H12F2N6O
Exact mass: 306.1041
SMILES: OC(CN1C=NC=N1)(CN1C=NC=N1)C1=C(F)C=C(F)C=C1
InChI: InChI=1S/C13H12F2N6O/c14-10-1-2-11(12(15)3-10)13(22,4-20-8-16-6-18-20)5-21-9-17-7-19-21/h1-3,6-9,22H,4-5H2
Instrument: Q Exactive Orbitrap (Thermo Scientific)
Instrument type: LC-ESI-QFT
Ms type: MS2
Ion mode: POSITIVE
Ionization: ESI
Fragmentation mode: HCD
Collision energy: 30
Resolution: 17500
Column name: Acquity BEH C18 1.7um, 2.1x150mm (Waters)
Retention time: 13.017 min
Base peak: 79.0211
Precursor m/z: 307.1113
Precursor type: [M+H]+
Precursor intensity: 7762332.375
m/z	relative intensity	assigned
70.0399	202	C2H4N3+
82.0401	1	C3H4N3+
124.051	1	C5H6N3O+
127.0352	22	C7H5F2+
139.0351	8	C8H5F2+
141.0148	2	C7H3F2O+
141.0509	17	C8H7F2+
149.0403	1	C9H6FO+
151.0352	10	C9H5F2+
166.0465	2	C9H6F2N+
168.0623	1	C9H8F2N+
169.0459	340	C9H7F2O+
187.0565	16	C12H8FO+
193.0573	2	C10H7F2N2+
200.0621	8	C11H7FN3+
201.0717	4	C13H10FO+
208.0682	1	C10H8F2N3+
220.068	999	C11H8F2N3+
238.0786	968	C11H10F2N3O+
289.1007	45	C13H11F2N6+
307.1113	134	C13H13F2N6O+
