Mass spectrum: Oxycarboxin; LC-ESI-QFT; MS2; CE: 60; R=17500; [M-H]-
Name: Oxycarboxin
Name: 6-methyl-4,4-dioxo-N-phenyl-2,3-dihydro-1,4-oxathiine-5-carboxamide
Formula: C12H13NO4S
Exact mass: 267.0565
SMILES: CC1=C(C(=O)NC2=CC=CC=C2)S(=O)(=O)CCO1
InChI: InChI=1S/C12H13NO4S/c1-9-11(18(15,16)8-7-17-9)12(14)13-10-5-3-2-4-6-10/h2-6H,7-8H2,1H3,(H,13,14)
Instrument: Q Exactive Orbitrap (Thermo Scientific)
Instrument type: LC-ESI-QFT
Ms type: MS2
Ion mode: NEGATIVE
Ionization: ESI
Fragmentation mode: HCD
Collision energy: 60
Resolution: 17500
Column name: Acquity BEH C18 1.7um, 2.1x150mm (Waters)
Retention time: 13.600 min
Base peak: 112.9857
Precursor m/z: 266.0493
Precursor type: [M-H]-
Precursor intensity: 469426.1679688
m/z	relative intensity	assigned
57.0345	981	C3H5O-
60.9753	37	CHOS-
63.9624	105	O2S-
78.986	101	CH3O2S-
83.0138	78	C4H3O2-
83.0503	999	C5H7O-
92.0476	25	C3H8O3-
92.0506	381	C6H6N-
105.0015	31	C3H5O2S-
120.9965	288	C3H5O3S-
130.9806	51	C4H3O3S-
147.0122	188	C5H7O3S-
