Mass spectrum: 2-Amino-6-nitrobenzothiazole; LC-ESI-QFT; MS2; CE: 30; R=17500; [M-H]-
Name: 2-Amino-6-nitrobenzothiazole
Name: 6-nitro-1,3-benzothiazol-2-amine
Formula: C7H5N3O2S
Exact mass: 195.0102
SMILES: NC1=NC2=CC=C(C=C2S1)[N+]([O-])=O
InChI: InChI=1S/C7H5N3O2S/c8-7-9-5-2-1-4(10(11)12)3-6(5)13-7/h1-3H,(H2,8,9)
Instrument: Q Exactive Orbitrap (Thermo Scientific)
Instrument type: LC-ESI-QFT
Ms type: MS2
Ion mode: NEGATIVE
Ionization: ESI
Fragmentation mode: HCD
Collision energy: 30
Resolution: 17500
Column name: Acquity BEH C18 1.7um, 2.1x150mm (Waters)
Retention time: 14.420 min
Base peak: 194.0029
Precursor m/z: 194.003
Precursor type: [M-H]-
Precursor intensity: 12106738.63574
m/z	relative intensity	assigned
57.9756	15	CNS-
60.9754	1	CHOS-
88.9702	3	C2HO2S-
115.0299	1	C7H3N2-
130.0173	2	C7H2N2O-
135.0023	1	C6H3N2S-
136.0102	1	C6H4N2S-
136.994	1	C6H3NOS-
147.0022	1	C7H3N2S-
147.0197	1	C7H3N2O2-
148.0101	58	C7H4N2S-
150.9971	1	C6H3N2OS-
162.0309	37	C7H4N3O2-
162.9972	6	C7H3N2OS-
164.005	37	C7H4N2OS-
166.992	14	C6H3N2O2S-
177.0002	16	C7H3N3OS-
194.0028	999	C7H4N3O2S-
