Mass spectrum: CP-642931; LC-ESI-QFT; MS2; CE: 45; R=17500; [M+H]+
Name: CP-642931
Name: (1R)-1-[4-[(2R,6S)-4-(4,6-dimethyl-1,3,5-triazin-2-yl)-2,6-dimethylpiperazin-1-yl]pyrimidin-2-yl]ethanol
Formula: C17H25N7O
Exact mass: 343.2121
SMILES: C[C@@H](O)C1=NC(=CC=N1)N1[C@@H](C)CN(C[C@H]1C)C1=NC(C)=NC(C)=N1
InChI: InChI=1S/C17H25N7O/c1-10-8-23(17-20-13(4)19-14(5)21-17)9-11(2)24(10)15-6-7-18-16(22-15)12(3)25/h6-7,10-12,25H,8-9H2,1-5H3/t10-,11+,12-/m1/s1
Instrument: Q Exactive Orbitrap (Thermo Scientific)
Instrument type: LC-ESI-QFT
Ms type: MS2
Ion mode: POSITIVE
Ionization: ESI
Fragmentation mode: HCD
Collision energy: 45
Resolution: 17500
Column name: Acquity BEH C18 1.7um, 2.1x150mm (Waters)
Retention time: 10.435 min
Base peak: 79.0211
Precursor m/z: 344.2193
Precursor type: [M+H]+
Precursor intensity: 22879286.3125
m/z	relative intensity	assigned
55.0292	1	C2H3N2+
56.0495	15	C3H6N+
67.0291	2	C3H3N2+
68.0494	3	C4H6N+
69.0447	2	C3H5N2+
79.0542	3	C6H7+
80.0495	2	C5H6N+
81.0446	2	C4H5N2+
81.0699	15	C6H9+
82.0651	12	C5H8N+
83.0603	48	C4H7N2+
84.0558	1	C3H6N3+
84.0808	1	C5H10N+
94.065	2	C6H8N+
95.0603	1	C5H7N2+
96.0808	5	C6H10N+
97.0761	5	C5H9N2+
98.0964	16	C6H12N+
105.0448	4	C6H5N2+
106.0652	2	C7H8N+
107.0604	3	C6H7N2+
108.0556	11	C5H6N3+
108.0808	2	C7H10N+
109.0761	8	C6H9N2+
110.0712	2	C5H8N3+
111.0916	2	C6H11N2+
121.0761	15	C7H9N2+
122.0712	21	C6H8N3+
123.0916	37	C7H11N2+
124.076	5	C7H10NO+
124.0869	42	C6H10N3+
125.071	2	C6H9N2O+
125.0822	13	C5H9N4+
133.0633	2	C7H7N3+
134.0712	7	C7H8N3+
135.0917	37	C8H11N2+
136.0869	36	C7H10N3+
136.0996	3	C8H12N2+
137.0822	14	C6H9N4+
137.0945	1	C7H11N3+
137.1074	4	C8H13N2+
138.1026	5	C7H12N3+
140.082	1	C6H10N3O+
140.1182	5	C7H14N3+
142.0976	7	C6H12N3O+
146.0712	2	C8H8N3+
147.0664	7	C7H7N4+
147.079	7	C8H9N3+
147.0916	6	C9H11N2+
148.0869	1	C8H10N3+
149.0818	3	C7H9N4+
149.095	4	C8H11N3+
150.1025	4	C8H12N3+
151.0979	1	C7H11N4+
160.0868	2	C9H10N3+
161.1071	1	C10H13N2+
162.1026	615	C9H12N3+
163.0976	6	C8H11N4+
164.1183	90	C9H14N3+
165.1135	458	C8H13N4+
176.1182	17	C10H14N3+
177.1136	4	C9H13N4+
180.1131	75	C9H14N3O+
187.098	1	C10H11N4+
189.1134	2	C10H13N4+
191.1291	4	C10H15N4+
192.1244	18	C9H14N5+
202.1339	144	C12H16N3+
203.1292	10	C11H15N4+
205.1448	999	C11H17N4+
206.1401	3	C10H16N5+
217.1447	6	C12H17N4+
220.1444	26	C12H18N3O+
221.1401	1	C11H17N4O+
229.1195	24	C11H13N6+
243.1351	1	C12H15N6+
244.1556	22	C13H18N5+
247.13	2	C11H15N6O+
262.1659	3	C13H20N5O+
268.1555	10	C15H18N5+
269.1508	16	C14H17N6+
285.182	3	C15H21N6+
287.1613	3	C14H19N6O+
300.1932	1	C15H22N7+
309.1822	1	C17H21N6+
326.2087	365	C17H24N7+
344.2194	160	C17H26N7O+
