Mass spectrum: AVE6324; LC-ESI-QFT; MS2; CE: 30; R=17500; [M-H]-
Name: AVE6324
Name: [(1R)-1-ethoxycarbonyloxyethyl] 1-[[5-(5-chlorothiophen-2-yl)-1,2-oxazol-3-yl]methyl]-2-[(1-propan-2-ylpiperidin-4-yl)carbamoyl]indole-5-carboxylate
Formula: C31H35ClN4O7S
Exact mass: 642.1915
SMILES: CCOC(=O)O[C@H](C)OC(=O)c1ccc2c(c1)cc(C(=O)NC1CCN(C(C)C)CC1)n2Cc1cc(-c2ccc(Cl)s2)on1
InChI: InChI=1S/C31H35ClN4O7S/c1-5-40-31(39)42-19(4)41-30(38)20-6-7-24-21(14-20)15-25(29(37)33-22-10-12-35(13-11-22)18(2)3)36(24)17-23-16-26(43-34-23)27-8-9-28(32)44-27/h6-9,14-16,18-19,22H,5,10-13,17H2,1-4H3,(H,33,37)/t19-/m1/s1
Instrument: Q Exactive Orbitrap (Thermo Scientific)
Instrument type: LC-ESI-QFT
Ms type: MS2
Ion mode: NEGATIVE
Ionization: ESI
Fragmentation mode: HCD
Collision energy: 30
Resolution: 17500
Column name: Acquity BEH C18 1.7um, 2.1x150mm (Waters)
Retention time: 17.265 min
Base peak: 112.9857
Precursor m/z: 641.1842
Precursor type: [M-H]-
Precursor intensity: 767844.578125
m/z	relative intensity	assigned
80.9804	1	C4HS-
89.0245	54	C3H5O3-
108.9754	4	C5HOS-
116.0503	1	C8H6N-
116.9571	4	C4H2ClS-
132.9755	8	C7HOS-
159.9863	95	C8H2NOS-
160.0406	7	C9H6NO2-
183.9629	4	C7H3ClNOS-
186.0562	1	C11H8NO2-
188.0717	71	C11H10NO2-
276.0872	1	C6H18N3O7S-
354.1825	61	C20H24N3O3-
356.1981	999	C20H26N3O3-
385.0422	5	C19H14ClN2O3S-
