Mass spectrum: CP-671305; LC-ESI-QFT; MS2; CE: 60; R=17500; [M-H]-
Name: CP-671305
Name: (2R)-2-[4-[[[2-(1,3-benzodioxol-5-yloxy)pyridine-3-carbonyl]amino]methyl]-3-fluorophenoxy]propanoic acid
Formula: C23H19FN2O7
Exact mass: 454.1176
SMILES: C[C@@H](OC1=CC=C(CNC(=O)C2=CC=CN=C2OC2=CC=C3OCOC3=C2)C(F)=C1)C(O)=O
InChI: InChI=1S/C23H19FN2O7/c1-13(23(28)29)32-15-5-4-14(18(24)9-15)11-26-21(27)17-3-2-8-25-22(17)33-16-6-7-19-20(10-16)31-12-30-19/h2-10,13H,11-12H2,1H3,(H,26,27)(H,28,29)/t13-/m1/s1
Instrument: Q Exactive Orbitrap (Thermo Scientific)
Instrument type: LC-ESI-QFT
Ms type: MS2
Ion mode: NEGATIVE
Ionization: ESI
Fragmentation mode: HCD
Collision energy: 60
Resolution: 17500
Column name: Acquity BEH C18 1.7um, 2.1x150mm (Waters)
Retention time: 16.733 min
Base peak: 316.055
Precursor m/z: 453.1104
Precursor type: [M-H]-
Precursor intensity: 14499600.48926
m/z	relative intensity	assigned
65.0397	2	C5H5-
65.9986	18	C3NO-
66.0349	40	C4H4N-
67.0189	9	C4H3O-
68.0142	16	C3H2NO-
69.0344	1	C4H5O-
71.0139	15	C3H3O2-
76.0194	3	C5H2N-
78.0349	31	C5H4N-
81.0221	27	C4H3NO-
90.0349	7	C6H4N-
91.0191	9	C6H3O-
91.0302	33	C5H3N2-
92.0142	26	C5H2NO-
93.0347	6	C6H5O-
93.0461	3	C5H5N2-
94.0299	999	C5H4NO-
95.0138	11	C5H3O2-
96.0092	4	C4H2NO2-
106.0298	65	C6H4NO-
107.0377	647	C6H5NO-
108.0455	619	C6H6NO-
109.0168	16	C5H3NO2-
109.0295	4	C6H5O2-
116.0505	2	C8H6N-
117.046	10	C7H5N2-
118.0299	893	C7H4NO-
119.025	110	C6H3N2O-
120.0091	4	C6H2NO2-
121.0299	1	C7H5O2-
122.0248	16	C6H4NO2-
132.0093	5	C7H2NO2-
134.0248	564	C7H4NO2-
135.0326	29	C7H5NO2-
136.0404	428	C7H6NO2-
137.0354	2	C6H5N2O2-
142.0661	2	C10H8N-
143.0614	3	C9H7N2-
144.0453	5	C9H6NO-
146.0248	19	C8H4NO2-
152.0355	18	C7H6NO3-
154.0535	1	C10H6N2-
155.0613	8	C10H7N2-
157.0532	6	C10H7NO-
158.0611	33	C10H8NO-
162.0197	27	C8H4NO3-
167.0614	3	C11H7N2-
168.0454	4	C11H6NO-
170.0485	2	C10H6N2O-
171.0566	4	C10H7N2O-
172.0408	1	C10H6NO2-
182.0485	9	C11H6N2O-
183.0563	93	C11H7N2O-
184.0402	6	C11H6NO2-
184.0641	29	C11H8N2O-
185.072	107	C11H9N2O-
186.0562	9	C11H8NO2-
195.0567	4	C12H7N2O-
198.0432	2	C11H6N2O2-
199.0511	5	C11H7N2O2-
210.0436	8	C12H6N2O2-
211.0513	739	C12H7N2O2-
213.067	4	C12H9N2O2-
227.0463	26	C12H7N2O3-
228.0541	303	C12H8N2O3-
229.0618	253	C12H9N2O3-
239.0463	24	C13H7N2O3-
255.0419	3	C10H8FN2O5-
256.0483	3	C13H8N2O4-
257.0568	49	C13H9N2O4-
