Mass spectrum: 6-Ethoxy-2,3,4-trimethyl-1,2,3,4-tetrahydroquinoline; LC-ESI-QFT; MS2; CE: 45; R=17500; [M+H]+
Name: 6-Ethoxy-2,3,4-trimethyl-1,2,3,4-tetrahydroquinoline
Name: 6-Ethoxy-2,2,4-trimethyl-1,2,3,4-tetrahydroquinoline
Name: 6-ethoxy-2,2,4-trimethyl-3,4-dihydro-1H-quinoline
Formula: C14H21NO
Exact mass: 219.1623
SMILES: CCOC1=CC=C2NC(C)(C)CC(C)C2=C1
InChI: InChI=1S/C14H21NO/c1-5-16-11-6-7-13-12(8-11)10(2)9-14(3,4)15-13/h6-8,10,15H,5,9H2,1-4H3
Instrument: Q Exactive Orbitrap (Thermo Scientific)
Instrument type: LC-ESI-QFT
Ms type: MS2
Ion mode: POSITIVE
Ionization: ESI
Fragmentation mode: HCD
Collision energy: 45
Resolution: 17500
Column name: Acquity BEH C18 1.7um, 2.1x150mm (Waters)
Retention time: 13.808 min
Base peak: 79.0211
Precursor m/z: 220.1696
Precursor type: [M+H]+
Precursor intensity: 12791322.96875
m/z	relative intensity	assigned
91.0541	2	C7H7+
108.0807	3	C7H10N+
118.065	1	C8H8N+
119.0492	1	C8H7O+
119.0729	4	C8H9N+
120.0807	4	C8H10N+
122.06	3	C7H8NO+
134.06	1	C8H8NO+
135.0678	46	C8H9NO+
136.0757	57	C8H10NO+
150.0913	8	C9H12NO+
164.1069	999	C10H14NO+
220.1695	26	C14H22NO+
