Mass spectrum: Resmethrin; LC-ESI-QFT; MS2; CE: 90; R=17500; [M+H]+
Name: Resmethrin
Formula: C22H26O3
Exact mass: 338.1882
SMILES: CC(C)=CC1C(C(=O)OCC2=COC(CC3=CC=CC=C3)=C2)C1(C)C
InChI: InChI=1S/C22H26O3/c1-15(2)10-19-20(22(19,3)4)21(23)25-14-17-12-18(24-13-17)11-16-8-6-5-7-9-16/h5-10,12-13,19-20H,11,14H2,1-4H3
Instrument: Q Exactive Orbitrap (Thermo Scientific)
Instrument type: LC-ESI-QFT
Ms type: MS2
Ion mode: POSITIVE
Ionization: ESI
Fragmentation mode: HCD
Collision energy: 90
Resolution: 17500
Column name: Acquity BEH C18 1.7um, 2.1x150mm (Waters)
Retention time: 20.591 min
Base peak: 79.0211
Precursor m/z: 339.1955
Precursor type: [M+H]+
Precursor intensity: 1142199.25
m/z	relative intensity	assigned
53.0386	36	C4H5+
55.0543	47	C4H7+
59.0492	16	C3H7O+
65.0386	115	C5H5+
67.0542	71	C5H7+
69.0699	20	C5H9+
79.0542	121	C6H7+
81.0699	50	C6H9+
91.0543	999	C7H7+
93.07	63	C7H9+
95.0492	98	C6H7O+
95.0858	10	C7H11+
103.0543	51	C8H7+
105.0336	91	C7H5O+
105.07	117	C8H9+
107.0489	10	C7H7O+
107.0856	15	C8H11+
109.0647	26	C7H9O+
115.0543	133	C9H7+
117.07	73	C9H9+
119.0855	59	C9H11+
121.0647	18	C8H9O+
121.1012	17	C9H13+
127.0542	14	C10H7+
128.0621	562	C10H8+
129.07	32	C10H9+
131.0856	29	C10H11+
133.1009	10	C10H13+
135.0808	8	C9H11O+
141.0701	57	C11H9+
142.078	18	C11H10+
143.0855	20	C11H11+
144.0935	12	C11H12+
145.0647	52	C10H9O+
145.1009	15	C11H13+
152.0622	27	C12H8+
153.0699	15	C12H9+
167.0858	11	C13H11+
178.0776	10	C14H10+
179.0855	11	C14H11+
