Mass spectrum: Labetalol; LC-ESI-QFT; MS2; CE: 75; R=17500; [M+H]+
Name: Labetalol
Name: 2-hydroxy-5-[1-hydroxy-2-(4-phenylbutan-2-ylamino)ethyl]benzamide
Formula: C19H24N2O3
Exact mass: 328.1787
SMILES: CC(CCC1=CC=CC=C1)NCC(O)C1=CC=C(O)C(=C1)C(N)=O
InChI: InChI=1S/C19H24N2O3/c1-13(7-8-14-5-3-2-4-6-14)21-12-18(23)15-9-10-17(22)16(11-15)19(20)24/h2-6,9-11,13,18,21-23H,7-8,12H2,1H3,(H2,20,24)
Instrument: Q Exactive Orbitrap (Thermo Scientific)
Instrument type: LC-ESI-QFT
Ms type: MS2
Ion mode: POSITIVE
Ionization: ESI
Fragmentation mode: HCD
Collision energy: 75
Resolution: 17500
Column name: Acquity BEH C18 1.7um, 2.1x150mm (Waters)
Retention time: 13.584 min
Base peak: 79.0211
Precursor m/z: 329.186
Precursor type: [M+H]+
Precursor intensity: 15610607.25
m/z	relative intensity	assigned
53.0386	2	C4H5+
55.0179	1	C3H3O+
55.0543	1	C4H7+
63.023	1	C5H3+
65.0385	43	C5H5+
67.0542	1	C5H7+
68.9971	1	C3HO2+
77.0384	2	C6H5+
79.0542	77	C6H7+
80.0495	6	C5H6N+
89.0386	9	C7H5+
91.0542	999	C7H7+
92.0494	12	C6H6N+
93.0335	2	C6H5O+
94.0651	10	C6H8N+
95.0491	11	C6H7O+
96.0444	1	C5H6NO+
105.0445	2	C6H5N2+
105.0698	3	C8H9+
106.0651	138	C7H8N+
107.0491	50	C7H7O+
110.0601	1	C6H8NO+
116.0494	31	C8H6N+
117.0334	5	C8H5O+
117.0572	10	C8H7N+
118.0651	3	C8H8N+
119.0492	14	C8H7O+
120.0444	17	C7H6NO+
133.0522	17	C8H7NO+
134.06	181	C8H8NO+
135.044	32	C8H7O2+
136.0757	1	C8H10NO+
144.0444	27	C9H6NO+
144.0554	1	C10H8O+
145.0286	5	C9H5O2+
146.0601	1	C9H8NO+
147.044	4	C9H7O2+
151.0391	1	C8H7O3+
162.0549	168	C9H8NO2+
163.039	2	C9H7O3+
164.0706	1	C9H10NO2+
165.0546	49	C9H9O3+
172.0756	1	C11H10NO+
180.0655	11	C9H10NO3+
194.0816	2	C10H12NO3+
