Mass spectrum: Famphur; LC-ESI-QFT; MS2; CE: 15; R=17500; [M+H]+
Name: Famphur
Name: 4-dimethoxyphosphinothioyloxy-N,N-dimethylbenzenesulfonamide
Formula: C10H16NO5PS2
Exact mass: 325.0208
SMILES: COP(=S)(OC)OC1=CC=C(C=C1)S(=O)(=O)N(C)C
InChI: InChI=1S/C10H16NO5PS2/c1-11(2)19(12,13)10-7-5-9(6-8-10)16-17(18,14-3)15-4/h5-8H,1-4H3
Instrument: Q Exactive Orbitrap (Thermo Scientific)
Instrument type: LC-ESI-QFT
Ms type: MS2
Ion mode: POSITIVE
Ionization: ESI
Fragmentation mode: HCD
Collision energy: 15
Resolution: 17500
Column name: Acquity BEH C18 1.7um, 2.1x150mm (Waters)
Retention time: 16.184 min
Base peak: 79.0211
Precursor m/z: 326.028
Precursor type: [M+H]+
Precursor intensity: 640143.875
m/z	relative intensity	assigned
124.9824	94	C2H6O2PS+
233.0031	478	C8H10O4PS+
235.0187	99	C8H12O4PS+
245.0144	999	C9H11NO3S2+
