Mass spectrum: Propoxycarbazone; LC-ESI-QFT; MS2; CE: 30; R=17500; [M+H]+
Name: Propoxycarbazone
Name: methyl 2-[(4-methyl-5-oxo-3-propoxy-1,2,4-triazole-1-carbonyl)sulfamoyl]benzoate
Formula: C15H18N4O7S
Exact mass: 398.0896
SMILES: CCCOC1=NN(C(=O)NS(=O)(=O)C2=C(C=CC=C2)C(=O)OC)C(=O)N1C
InChI: InChI=1S/C15H18N4O7S/c1-4-9-26-14-16-19(15(22)18(14)2)13(21)17-27(23,24)11-8-6-5-7-10(11)12(20)25-3/h5-8H,4,9H2,1-3H3,(H,17,21)
Instrument: Q Exactive Orbitrap (Thermo Scientific)
Instrument type: LC-ESI-QFT
Ms type: MS2
Ion mode: POSITIVE
Ionization: ESI
Fragmentation mode: HCD
Collision energy: 30
Resolution: 17500
Column name: Acquity BEH C18 1.7um, 2.1x150mm (Waters)
Retention time: 15.573 min
Base peak: 79.0211
Precursor m/z: 399.0969
Precursor type: [M+H]+
Precursor intensity: 3493092.875
m/z	relative intensity	assigned
58.0287	11	C2H4NO+
99.0552	26	C4H7N2O+
114.0299	51	C3H4N3O2+
116.0455	878	C3H6N3O2+
135.0441	171	C8H7O2+
146.0237	14	C8H4NO2+
158.0925	429	C6H12N3O2+
168.9954	57	C7H5O3S+
199.0061	999	C8H7O4S+
209.9857	363	C8H4NO4S+
227.9964	14	C8H6NO5S+
282.0179	50	C10H8N3O5S+
