Mass spectrum: Chloroxuron; LC-ESI-QFT; MS2; CE: 45; R=17500; [M-H]-
Name: Chloroxuron
Name: 3-[4-(4-chlorophenoxy)phenyl]-1,1-dimethylurea
Formula: C15H15ClN2O2
Exact mass: 290.0822
SMILES: CN(C)C(=O)NC1=CC=C(OC2=CC=C(Cl)C=C2)C=C1
InChI: InChI=1S/C15H15ClN2O2/c1-18(2)15(19)17-12-5-9-14(10-6-12)20-13-7-3-11(16)4-8-13/h3-10H,1-2H3,(H,17,19)
Instrument: Q Exactive Orbitrap (Thermo Scientific)
Instrument type: LC-ESI-QFT
Ms type: MS2
Ion mode: NEGATIVE
Ionization: ESI
Fragmentation mode: HCD
Collision energy: 45
Resolution: 17500
Column name: Acquity BEH C18 1.7um, 2.1x150mm (Waters)
Retention time: 17.931 min
Base peak: 112.9856
Precursor m/z: 289.0749
Precursor type: [M-H]-
Precursor intensity: 4113686.89209
m/z	relative intensity	assigned
59.0139	12	C2H3O2-
78.0349	5	C5H4N-
106.0298	11	C6H4NO-
116.0143	9	C7H2NO-
118.03	8	C7H4NO-
120.0454	635	C7H6NO-
126.9955	75	C6H4ClO-
133.017	153	C7H3NO2-
134.0248	999	C7H4NO2-
134.0611	455	C8H8NO-
135.0326	18	C7H5NO2-
135.0689	16	C8H9NO-
158.0247	10	C9H4NO2-
163.0513	892	C8H7N2O2-
177.0674	5	C9H9N2O2-
178.0748	722	C9H10N2O2-
182.0607	7	C12H8NO-
188.0272	76	C11H7ClN-
208.0404	61	C13H6NO2-
217.0298	36	C12H8ClNO-
218.0381	6	C12H9ClNO-
244.017	888	C13H7ClNO2-
246.033	8	C13H9ClNO2-
289.0749	213	C15H14ClN2O2-
