Mass spectrum: 6-Chlorothymol; LC-ESI-QFT; MS2; CE: 90; R=17500; [M-H]-
Name: 6-Chlorothymol
Name: Chlorothymol
Name: 4-chloro-5-methyl-2-propan-2-ylphenol
Formula: C10H13ClO
Exact mass: 184.0655
SMILES: CC(C)C1=CC(Cl)=C(C)C=C1O
InChI: InChI=1S/C10H13ClO/c1-6(2)8-5-9(11)7(3)4-10(8)12/h4-6,12H,1-3H3
Instrument: Q Exactive Orbitrap (Thermo Scientific)
Instrument type: LC-ESI-QFT
Ms type: MS2
Ion mode: NEGATIVE
Ionization: ESI
Fragmentation mode: HCD
Collision energy: 90
Resolution: 17500
Column name: Acquity BEH C18 1.7um, 2.1x150mm (Waters)
Retention time: 18.966 min
Base peak: 239.0673
Precursor m/z: 183.0582
Precursor type: [M-H]-
Precursor intensity: 17920830.42578
m/z	relative intensity	assigned
107.0502	173	C7H7O-
147.0816	999	C10H11O-
167.0269	244	C9H8ClO-
183.0582	979	C10H12ClO-
