Mass spectrum: 5-Methoxypsoralen; LC-ESI-QFT; MS2; CE: 30; R=17500; [M+H]+
Name: 5-Methoxypsoralen
Name: Bergapten
Name: 4-methoxyfuro[3,2-g]chromen-7-one
Formula: C12H8O4
Exact mass: 216.0423
SMILES: COC1=C2C=COC2=CC2=C1C=CC(=O)O2
InChI: InChI=1S/C12H8O4/c1-14-12-7-2-3-11(13)16-10(7)6-9-8(12)4-5-15-9/h2-6H,1H3
Instrument: Q Exactive Orbitrap (Thermo Scientific)
Instrument type: LC-ESI-QFT
Ms type: MS2
Ion mode: POSITIVE
Ionization: ESI
Fragmentation mode: HCD
Collision energy: 30
Resolution: 17500
Column name: Acquity BEH C18 1.7um, 2.1x150mm (Waters)
Retention time: 16.127 min
Base peak: 79.0212
Precursor m/z: 217.0495
Precursor type: [M+H]+
Precursor intensity: 7210277
m/z	relative intensity	assigned
111.0442	1	C6H7O2+
115.0543	1	C9H7+
117.0699	2	C9H9+
145.0647	1	C10H9O+
161.0595	3	C10H9O2+
173.0597	15	C11H9O2+
174.0309	1	C10H6O3+
189.0546	2	C11H9O3+
202.0261	131	C11H6O4+
217.0495	999	C12H9O4+
