Mass spectrum: Tolnaftate; LC-ESI-QFT; MS2; CE: 60; R=17500; [M+H]+
Name: Tolnaftate
Name: O-naphthalen-2-yl N-methyl-N-(3-methylphenyl)carbamothioate
Formula: C19H17NOS
Exact mass: 307.1031
SMILES: CN(C(=S)OC1=CC2=CC=CC=C2C=C1)C1=CC=CC(C)=C1
InChI: InChI=1S/C19H17NOS/c1-14-6-5-9-17(12-14)20(2)19(22)21-18-11-10-15-7-3-4-8-16(15)13-18/h3-13H,1-2H3
Instrument: Q Exactive Orbitrap (Thermo Scientific)
Instrument type: LC-ESI-QFT
Ms type: MS2
Ion mode: POSITIVE
Ionization: ESI
Fragmentation mode: HCD
Collision energy: 60
Resolution: 17500
Column name: Acquity BEH C18 1.7um, 2.1x150mm (Waters)
Retention time: 19.422 min
Base peak: 79.0211
Precursor m/z: 308.1104
Precursor type: [M+H]+
Precursor intensity: 23227979.25
m/z	relative intensity	assigned
53.0386	2	C4H5+
55.0178	2	C3H3O+
65.0385	24	C5H5+
67.0542	7	C5H7+
77.0386	1	C6H5+
79.0542	22	C6H7+
80.0494	1	C5H6N+
91.0542	225	C7H7+
92.062	17	C7H8+
93.0699	47	C7H9+
94.0652	1	C6H8N+
95.0491	8	C6H7O+
103.0543	4	C8H7+
104.0495	1	C7H6N+
105.0574	3	C7H7N+
106.0653	1	C7H8N+
106.0778	1	C8H10+
107.0491	40	C7H7O+
108.057	1	C7H8O+
108.0808	11	C7H10N+
109.0648	103	C7H9O+
111.0262	4	C6H7S+
115.0542	5	C9H7+
118.0652	10	C8H8N+
120.0807	999	C8H10N+
121.0883	4	C8H11N+
123.0262	44	C7H7S+
125.0419	3	C7H9S+
128.0618	1	C10H8+
133.0522	18	C8H7NO+
136.0217	2	C7H6NS+
148.0756	223	C9H10NO+
149.0293	17	C8H7NS+
152.0528	8	C8H10NS+
159.0262	9	C10H7S+
164.0527	39	C9H10NS+
165.0242	15	C8H7NOS+
180.0477	11	C9H10NOS+
