Mass spectrum: Pyriproxyfen; LC-ESI-QFT; MS2; CE: 15; R=17500; [M+H]+
Name: Pyriproxyfen
Name: 2-[1-(4-phenoxyphenoxy)propan-2-yloxy]pyridine
Formula: C20H19NO3
Exact mass: 321.1365
SMILES: CC(COC1=CC=C(OC2=CC=CC=C2)C=C1)OC1=NC=CC=C1
InChI: InChI=1S/C20H19NO3/c1-16(23-20-9-5-6-14-21-20)15-22-17-10-12-19(13-11-17)24-18-7-3-2-4-8-18/h2-14,16H,15H2,1H3
Instrument: Q Exactive Orbitrap (Thermo Scientific)
Instrument type: LC-ESI-QFT
Ms type: MS2
Ion mode: POSITIVE
Ionization: ESI
Fragmentation mode: HCD
Collision energy: 15
Resolution: 17500
Column name: Acquity BEH C18 1.7um, 2.1x150mm (Waters)
Retention time: 19.691 min
Base peak: 79.0211
Precursor m/z: 322.1438
Precursor type: [M+H]+
Precursor intensity: 23507463.75
m/z	relative intensity	assigned
78.0338	1	C5H4N+
96.0443	999	C5H6NO+
105.0699	1	C8H9+
133.0647	3	C9H9O+
134.0726	9	C9H10O+
136.0757	25	C8H10NO+
185.0597	15	C12H9O2+
199.0752	3	C13H11O2+
209.0962	1	C15H13O+
227.1066	213	C15H15O2+
322.1437	510	C20H20NO3+
