Mass spectrum: Triadimefon; LC-ESI-QFT; MS2; CE: 60; R=17500; [M+H]+
Name: Triadimefon
Name: 1-(4-chlorophenoxy)-3,3-dimethyl-1-(1,2,4-triazol-1-yl)butan-2-one
Formula: C14H16ClN3O2
Exact mass: 293.0931
SMILES: CC(C)(C)C(=O)C(OC1=CC=C(Cl)C=C1)N1C=NC=N1
InChI: InChI=1S/C14H16ClN3O2/c1-14(2,3)12(19)13(18-9-16-8-17-18)20-11-6-4-10(15)5-7-11/h4-9,13H,1-3H3
Instrument: Q Exactive Orbitrap (Thermo Scientific)
Instrument type: LC-ESI-QFT
Ms type: MS2
Ion mode: POSITIVE
Ionization: ESI
Fragmentation mode: HCD
Collision energy: 60
Resolution: 17500
Column name: Acquity BEH C18 1.7um, 2.1x150mm (Waters)
Retention time: 17.637 min
Base peak: 79.0211
Precursor m/z: 294.1004
Precursor type: [M+H]+
Precursor intensity: 8617286.6875
m/z	relative intensity	assigned
53.0022	63	C3HO+
53.0386	8	C4H5+
53.9975	9	C2NO+
55.0543	62	C4H7+
57.0699	630	C4H9+
65.0386	5	C5H5+
67.0542	24	C5H7+
67.9892	2	C3O2+
69.0699	999	C5H9+
70.0777	191	C5H10+
74.9996	3	C3H4Cl+
75.0227	2	C6H3+
77.0385	1	C6H5+
79.0177	1	C5H3O+
83.0478	5	C3H5N3+
85.0649	1	C5H9O+
86.9996	7	C4H4Cl+
91.0543	12	C7H7+
93.0336	3	C6H5O+
94.0413	10	C6H6O+
95.0493	13	C6H7O+
98.9997	113	C5H4Cl+
103.0309	5	C5H8Cl+
105.0335	3	C7H5O+
105.0448	5	C6H5N2+
107.0491	4	C7H7O+
110.0349	5	C4H4N3O+
110.9998	2	C6H4Cl+
111.0442	14	C6H7O2+
113.0153	68	C6H6Cl+
119.0493	6	C8H7O+
119.0601	2	C7H7N2+
119.0856	1	C9H11+
120.0567	7	C8H8O+
121.0396	4	C6H5N2O+
125.0154	5	C7H6Cl+
125.0597	2	C7H9O2+
126.9946	235	C6H4ClO+
128.0023	2	C6H5ClO+
129.0102	177	C6H6ClO+
133.0646	2	C9H9O+
139.0058	50	C6H4ClN2+
141.0102	243	C7H6ClO+
146.0728	1	C10H10O+
147.0805	7	C10H11O+
155.0259	91	C8H8ClO+
159.0209	24	C7H8ClO2+
161.0962	5	C11H13O+
162.1038	1	C11H14O+
175.0754	4	C11H11O2+
190.0989	4	C12H14O2+
197.0726	8	C11H14ClO+
