Mass spectrum: SSR126768; LC-ESI-QFT; MS2; CE: 90; R=17500; [M+H]+
Name: SSR126768
Name: 3-chloro-2-[(3R)-5-chloro-1-[(2,4-dimethoxyphenyl)methyl]-3-methyl-2-oxoindol-3-yl]-N-ethyl-N-(pyridin-3-ylmethyl)benzamide
Formula: C33H31Cl2N3O4
Exact mass: 603.1692
SMILES: CCN(Cc1cccnc1)C(=O)c1cccc(Cl)c1[C@]1(C)C(=O)N(Cc2ccc(OC)cc2OC)c2ccc(Cl)cc21
InChI: InChI=1S/C33H31Cl2N3O4/c1-5-37(19-21-8-7-15-36-18-21)31(39)25-9-6-10-27(35)30(25)33(2)26-16-23(34)12-14-28(26)38(32(33)40)20-22-11-13-24(41-3)17-29(22)42-4/h6-18H,5,19-20H2,1-4H3/t33-/m1/s1
Instrument: Q Exactive Orbitrap (Thermo Scientific)
Instrument type: LC-ESI-QFT
Ms type: MS2
Ion mode: POSITIVE
Ionization: ESI
Fragmentation mode: HCD
Collision energy: 90
Resolution: 17500
Column name: Acquity BEH C18 1.7um, 2.1x150mm (Waters)
Retention time: 18.525 min
Base peak: 79.0211
Precursor m/z: 604.1764
Precursor type: [M+H]+
Precursor intensity: 7703668.125
m/z	relative intensity	assigned
50.0153	1	C4H2+
51.023	2	C4H3+
52.0308	1	C4H4+
53.0386	81	C4H5+
55.0178	24	C3H3O+
63.0228	4	C5H3+
65.0385	276	C5H5+
67.0542	26	C5H7+
77.0385	38	C6H5+
78.0463	249	C6H6+
79.0178	2	C5H3O+
79.0541	7	C6H7+
80.0494	7	C5H6N+
81.0335	9	C5H5O+
81.0698	1	C6H9+
86.9996	1	C4H4Cl+
89.0385	9	C7H5+
91.0542	999	C7H7+
92.0494	87	C6H6N+
93.0573	43	C6H7N+
93.0698	14	C7H9+
94.0651	80	C6H8N+
95.0491	245	C6H7O+
96.0443	5	C5H6NO+
103.0542	10	C8H7+
105.0336	9	C7H5O+
105.0447	98	C6H5N2+
106.0413	99	C7H6O+
107.0491	6	C7H7O+
107.0604	8	C6H7N2+
108.0571	5	C7H8O+
108.0807	1	C7H10N+
109.0649	6	C7H9O+
110.06	9	C6H8NO+
118.0651	2	C8H8N+
119.0489	1	C8H7O+
119.0605	3	C7H7N2+
121.0647	620	C8H9O+
123.0804	3	C8H11O+
125.0152	3	C7H6Cl+
128.0494	3	C9H6N+
129.0098	5	C6H6ClO+
129.057	1	C9H7N+
130.0649	4	C9H8N+
136.0516	1	C8H8O2+
138.0107	1	C7H5ClN+
138.9946	2	C7H4ClO+
139.0057	8	C6H4ClN2+
139.0753	30	C8H11O2+
140.0261	3	C7H7ClN+
149.0708	7	C8H9N2O+
151.0753	41	C9H11O2+
159.068	3	C10H9NO+
164.026	96	C9H7ClN+
167.0729	1	C12H9N+
176.0621	5	C14H8+
190.0651	5	C14H8N+
194.0365	4	C10H9ClNO+
201.057	5	C15H7N+
202.0649	21	C15H8N+
203.0729	90	C15H9N+
204.0807	57	C15H10N+
205.0887	7	C15H11N+
206.0598	1	C14H8NO+
206.0963	2	C15H12N+
219.0677	1	C15H9NO+
220.0754	4	C15H10NO+
224.0266	1	C14H7ClN+
225.0337	6	C14H8ClN+
226.0414	1	C17H6O+
229.076	6	C16H9N2+
232.0758	1	C16H10NO+
234.091	1	C16H12NO+
235.0626	67	C15H9NO2+
237.0342	13	C15H8ClN+
238.0416	76	C15H9ClN+
239.0495	5	C15H10ClN+
240.057	4	C18H8O+
242.0365	1	C14H9ClNO+
247.0863	2	C9H21Cl2O3+
254.0367	2	C15H9ClNO+
265.0523	3	C19H7NO+
268.0516	1	C19H8O2+
270.0319	2	C15H9ClNO2+
271.0388	9	C18H7O3+
272.0031	2	C15H8Cl2N+
274.0183	2	C15H10Cl2N+
275.1171	1	C11H25Cl2O3+
293.1072	1	C21H13N2+
295.0639	1	C14H15Cl2N3+
299.0138	2	C16H9Cl2N2+
305.0002	14	C15H9Cl2NO2+
317.0241	2	C16H11Cl2N2O+
