Mass spectrum: Flumetsulam; LC-ESI-QFT; MS2; CE: 75; R=17500; [M+H]+
Name: Flumetsulam
Name: N-(2,6-difluorophenyl)-5-methyl-[1,2,4]triazolo[1,5-a]pyrimidine-2-sulfonamide
Formula: C12H9F2N5O2S
Exact mass: 325.0445
SMILES: CC1=NC2=NC(=NN2C=C1)S(=O)(=O)NC1=C(F)C=CC=C1F
InChI: InChI=1S/C12H9F2N5O2S/c1-7-5-6-19-11(15-7)16-12(17-19)22(20,21)18-10-8(13)3-2-4-9(10)14/h2-6,18H,1H3
Instrument: Q Exactive Orbitrap (Thermo Scientific)
Instrument type: LC-ESI-QFT
Ms type: MS2
Ion mode: POSITIVE
Ionization: ESI
Fragmentation mode: HCD
Collision energy: 75
Resolution: 17500
Column name: Acquity BEH C18 1.7um, 2.1x150mm (Waters)
Retention time: 12.583 min
Base peak: 79.0211
Precursor m/z: 326.0518
Precursor type: [M+H]+
Precursor intensity: 11643704.75
m/z	relative intensity	assigned
52.0182	3	C3H2N+
53.0022	1	C3HO+
54.0338	1	C3H4N+
55.0291	1	C2H3N2+
56.0494	2	C3H6N+
57.0135	4	C3H2F+
62.0151	3	C5H2+
63.0229	1	C5H3+
65.026	3	C4H3N+
66.0338	11	C4H4N+
67.0291	2	C3H3N2+
68.0494	7	C4H6N+
69.0447	1	C3H5N2+
77.0197	1	C3H3F2+
78.0338	4	C5H4N+
79.0291	3	C4H3N2+
79.0416	1	C5H5N+
80.0368	3	C4H4N2+
81.0134	3	C5H2F+
81.0447	2	C4H5N2+
82.0213	5	C5H3F+
82.0526	11	C4H6N2+
84.0244	3	C4H3FN+
89.026	6	C6H3N+
92.0369	2	C5H4N2+
93.0447	9	C5H5N2+
94.04	3	C4H4N3+
97.0397	13	C4H5N2O+
98.0363	1	C5H6O2+
100.0193	1	C4H3FNO+
101.0197	27	C5H3F2+
102.0276	14	C5H4F2+
106.0399	7	C5H4N3+
107.0478	25	C5H5N3+
108.0244	18	C6H3FN+
108.0318	1	C5H4N2O+
109.0323	74	C6H4FN+
110.0476	1	C5H6N2O+
111.0553	38	C5H7N2O+
116.0306	2	C5H4F2N+
124.0193	4	C6H3FNO+
124.0507	1	C5H6N3O+
126.0351	19	C6H5FNO+
128.0308	25	C6H4F2N+
129.0384	999	C6H5F2N+
134.0587	26	C6H6N4+
135.0426	4	C6H5N3O+
135.0665	2	C6H7N4+
143.0418	2	C6H5F2N2+
144.0255	27	C6H4F2NO+
145.0331	1	C6H5F2NO+
146.0412	4	C6H6F2NO+
153.0227	3	C5H5N4S+
200.0617	1	C11H7FN3+
201.0697	2	C11H8FN3+
