Mass spectrum: Bioresmethrin; LC-ESI-QFT; MS2; CE: 45; R=17500; [M+H]+
Name: Bioresmethrin
Name: (5-benzylfuran-3-yl)methyl (1R,3R)-2,2-dimethyl-3-(2-methylprop-1-enyl)cyclopropane-1-carboxylate
Formula: C22H26O3
Exact mass: 338.1882
SMILES: CC(C)=C[C@@H]1[C@@H](C(=O)OCC2=COC(CC3=CC=CC=C3)=C2)C1(C)C
InChI: InChI=1S/C22H26O3/c1-15(2)10-19-20(22(19,3)4)21(23)25-14-17-12-18(24-13-17)11-16-8-6-5-7-9-16/h5-10,12-13,19-20H,11,14H2,1-4H3/t19-,20+/m1/s1
Instrument: Q Exactive Orbitrap (Thermo Scientific)
Instrument type: LC-ESI-QFT
Ms type: MS2
Ion mode: POSITIVE
Ionization: ESI
Fragmentation mode: HCD
Collision energy: 45
Resolution: 17500
Column name: Acquity BEH C18 1.7um, 2.1x150mm (Waters)
Retention time: 20.626 min
Base peak: 79.0211
Precursor m/z: 339.1955
Precursor type: [M+H]+
Precursor intensity: 1568476.4375
m/z	relative intensity	assigned
55.0542	25	C4H7+
57.0699	15	C4H9+
59.0492	26	C3H7O+
65.0384	14	C5H5+
67.0541	28	C5H7+
69.0335	13	C4H5O+
69.0699	68	C5H9+
79.0542	26	C6H7+
81.0699	91	C6H9+
83.049	22	C5H7O+
91.0543	999	C7H7+
93.0698	88	C7H9+
95.0491	27	C6H7O+
95.0856	82	C7H11+
97.0649	24	C6H9O+
103.0542	16	C8H7+
105.0336	198	C7H5O+
105.0701	69	C8H9+
107.0856	66	C8H11+
109.0649	51	C7H9O+
111.0442	12	C6H7O2+
115.0543	60	C9H7+
117.0699	48	C9H9+
119.0855	81	C9H11+
121.0649	92	C8H9O+
121.1012	264	C9H13+
123.1169	27	C9H15+
125.0596	15	C7H9O2+
128.0621	250	C10H8+
129.0699	35	C10H9+
131.0855	54	C10H11+
133.0648	16	C9H9O+
133.1013	50	C10H13+
135.0804	68	C9H11O+
135.117	56	C10H15+
139.1118	22	C9H15O+
141.0698	26	C11H9+
143.0856	636	C11H11+
145.065	22	C10H9O+
145.1016	15	C11H13+
147.0804	55	C10H11O+
149.0962	86	C10H13O+
155.0855	41	C12H11+
157.1013	22	C12H13+
159.0804	36	C11H11O+
159.1169	70	C12H15+
161.0962	34	C11H13O+
161.1322	21	C12H17+
169.1009	20	C13H13+
171.0805	329	C12H11O+
173.096	16	C12H13O+
173.1323	74	C13H17+
175.148	20	C13H19+
187.1119	22	C13H15O+
197.1323	44	C15H17+
199.1119	47	C14H15O+
201.1278	26	C14H17O+
203.143	19	C14H19O+
209.133	12	C16H17+
219.1174	15	C17H15+
225.1269	19	C16H17O+
226.1355	15	C16H18O+
237.1276	16	C17H17O+
239.1427	18	C17H19O+
247.1326	32	C15H19O3+
251.1435	12	C18H19O+
293.191	22	C21H25O+
