Mass spectrum: Chloramphenicol; LC-ESI-QFT; MS2; CE: 15; R=17500; [M-H]-
Name: Chloramphenicol
Name: 2,2-dichloro-N-[(1R,2R)-1,3-dihydroxy-1-(4-nitrophenyl)propan-2-yl]acetamide
Formula: C11H12Cl2N2O5
Exact mass: 322.0123
SMILES: OC[C@@H](NC(=O)C(Cl)Cl)[C@H](O)C1=CC=C(C=C1)[N+]([O-])=O
InChI: InChI=1S/C11H12Cl2N2O5/c12-10(13)11(18)14-8(5-16)9(17)6-1-3-7(4-2-6)15(19)20/h1-4,8-10,16-17H,5H2,(H,14,18)/t8-,9-/m1/s1
Instrument: Q Exactive Orbitrap (Thermo Scientific)
Instrument type: LC-ESI-QFT
Ms type: MS2
Ion mode: NEGATIVE
Ionization: ESI
Fragmentation mode: HCD
Collision energy: 15
Resolution: 17500
Column name: Acquity BEH C18 1.7um, 2.1x150mm (Waters)
Retention time: 13.753 min
Base peak: 321.005
Precursor m/z: 321.0051
Precursor type: [M-H]-
Precursor intensity: 14760940.21094
m/z	relative intensity	assigned
61.9884	12	NO3-
70.946	8	Cl2H-
82.9461	5	CHCl2-
84.0091	18	C3H2NO2-
86.0249	3	C3H4NO2-
93.0345	2	C6H5O-
98.0248	3	C4H4NO2-
108.0217	9	C6H4O2-
109.0294	2	C6H5O2-
119.0138	2	C7H3O2-
121.0295	118	C7H5O2-
122.0248	41	C6H4NO2-
125.9519	56	C2H2Cl2NO-
126.9359	62	C2HCl2O2-
136.0406	1	C7H6NO2-
137.0243	2	C7H5O3-
146.0374	1	C9H6O2-
148.0404	17	C8H6NO2-
150.0196	31	C7H4NO3-
151.0275	267	C7H5NO3-
152.0353	846	C7H6NO3-
159.0327	3	C9H5NO2-
160.0404	5	C9H6NO2-
164.0353	6	C8H6NO3-
166.0145	25	C7H4NO4-
166.051	4	C8H8NO3-
175.0513	4	C9H7N2O2-
176.0353	277	C9H6NO3-
179.0469	3	C8H7N2O3-
192.0298	2	C9H6NO4-
194.0458	520	C9H8NO4-
207.0411	19	C9H7N2O4-
219.0411	41	C10H7N2O4-
249.0517	128	C11H9N2O5-
257.0335	827	C10H10ClN2O4-
321.005	999	C11H11Cl2N2O5-
