Mass spectrum: CP-544439; LC-ESI-QFT; MS2; CE: 45; R=17500; [M+H]+
Name: CP-544439
Name: 2H-Pyran-4-carboxamide, 4-(((4-(4-fluorophenoxy)phenyl)sulfonyl)amino)tetrahydro-N-hydroxy-
Name: 4-[[4-(4-fluorophenoxy)phenyl]sulfonylamino]-N-hydroxyoxane-4-carboxamide
Formula: C18H19FN2O6S
Exact mass: 410.0948
SMILES: ONC(=O)C1(CCOCC1)NS(=O)(=O)C1=CC=C(OC2=CC=C(F)C=C2)C=C1
InChI: InChI=1S/C18H19FN2O6S/c19-13-1-3-14(4-2-13)27-15-5-7-16(8-6-15)28(24,25)21-18(17(22)20-23)9-11-26-12-10-18/h1-8,21,23H,9-12H2,(H,20,22)
Instrument: Q Exactive Orbitrap (Thermo Scientific)
Instrument type: LC-ESI-QFT
Ms type: MS2
Ion mode: POSITIVE
Ionization: ESI
Fragmentation mode: HCD
Collision energy: 45
Resolution: 17500
Column name: Acquity BEH C18 1.7um, 2.1x150mm (Waters)
Retention time: 16.003 min
Base peak: 79.0211
Precursor m/z: 411.1021
Precursor type: [M+H]+
Precursor intensity: 2131489.375
m/z	relative intensity	assigned
53.0387	50	C4H5+
70.0651	119	C4H8N+
82.065	67	C5H8N+
99.0442	61	C5H7O2+
100.0758	999	C5H10NO+
114.055	653	C5H8NO2+
127.0629	108	C6H9NO2+
144.0655	130	C6H10NO3+
159.0604	243	C11H8F+
203.0505	81	C12H8FO2+
