Mass spectrum: Econazole; LC-ESI-QFT; MS2; CE: 60; R=17500; [M+H]+
Name: Econazole
Name: 1-[2-[(4-chlorophenyl)methoxy]-2-(2,4-dichlorophenyl)ethyl]imidazole
Formula: C18H15Cl3N2O
Exact mass: 380.0250
SMILES: ClC1=CC=C(COC(CN2C=CN=C2)C2=C(Cl)C=C(Cl)C=C2)C=C1
InChI: InChI=1S/C18H15Cl3N2O/c19-14-3-1-13(2-4-14)11-24-18(10-23-8-7-22-12-23)16-6-5-15(20)9-17(16)21/h1-9,12,18H,10-11H2
Instrument: Q Exactive Orbitrap (Thermo Scientific)
Instrument type: LC-ESI-QFT
Ms type: MS2
Ion mode: POSITIVE
Ionization: ESI
Fragmentation mode: HCD
Collision energy: 60
Resolution: 17500
Column name: Acquity BEH C18 1.7um, 2.1x150mm (Waters)
Retention time: 16.818 min
Base peak: 79.0211
Precursor m/z: 381.0323
Precursor type: [M+H]+
Precursor intensity: 16880581.75
m/z	relative intensity	assigned
63.0227	1	C5H3+
69.0447	40	C3H5N2+
81.0447	2	C4H5N2+
82.0526	3	C4H6N2+
89.0385	27	C7H5+
90.0463	3	C7H6+
98.9996	9	C5H4Cl+
125.0151	999	C7H6Cl+
137.0153	1	C8H6Cl+
158.9765	1	C7H5Cl2+
170.9759	1	C8H5Cl2+
171.9837	1	C8H6Cl2+
212.0383	1	C14H9Cl+
248.0151	1	C14H10Cl2+
