Mass spectrum: Ingliforib; LC-ESI-QFT; MS2; CE: 15; R=17500; [M-H]-
Name: Ingliforib
Name: 5-chloro-N-[(2S,3R)-4-[(3R,4S)-3,4-dihydroxypyrrolidin-1-yl]-3-hydroxy-4-oxo-1-phenylbutan-2-yl]-1H-indole-2-carboxamide
Formula: C23H24ClN3O5
Exact mass: 457.1404
SMILES: O[C@H]([C@H](CC1=CC=CC=C1)NC(=O)C1=CC2=CC(Cl)=CC=C2N1)C(=O)N1C[C@H](O)[C@H](O)C1
InChI: InChI=1S/C23H24ClN3O5/c24-15-6-7-16-14(9-15)10-18(25-16)22(31)26-17(8-13-4-2-1-3-5-13)21(30)23(32)27-11-19(28)20(29)12-27/h1-7,9-10,17,19-21,25,28-30H,8,11-12H2,(H,26,31)/t17-,19-,20+,21+/m0/s1
Instrument: Q Exactive Orbitrap (Thermo Scientific)
Instrument type: LC-ESI-QFT
Ms type: MS2
Ion mode: NEGATIVE
Ionization: ESI
Fragmentation mode: HCD
Collision energy: 15
Resolution: 17500
Column name: Acquity BEH C18 1.7um, 2.1x150mm (Waters)
Retention time: 17.367 min
Base peak: 329.1063
Precursor m/z: 456.1332
Precursor type: [M-H]-
Precursor intensity: 16547404.53516
m/z	relative intensity	assigned
193.0174	55	C9H6ClN2O-
194.0014	1	C9H5ClNO2-
262.1085	2	C14H16NO4-
295.0646	1	C17H12ClN2O-
325.075	131	C18H14ClN2O2-
353.0699	14	C19H14ClN2O3-
438.123	5	C23H21ClN3O4-
456.1331	999	C23H23ClN3O5-
