Mass spectrum: Nonivamide; LC-ESI-QFT; MS2; CE: 30; R=17500; [M-H]-
Name: Nonivamide
Name: N-[(4-hydroxy-3-methoxyphenyl)methyl]nonanamide
Formula: C17H27NO3
Exact mass: 293.1991
SMILES: CCCCCCCCC(=O)NCC1=CC(OC)=C(O)C=C1
InChI: InChI=1S/C17H27NO3/c1-3-4-5-6-7-8-9-17(20)18-13-14-10-11-15(19)16(12-14)21-2/h10-12,19H,3-9,13H2,1-2H3,(H,18,20)
Instrument: Q Exactive Orbitrap (Thermo Scientific)
Instrument type: LC-ESI-QFT
Ms type: MS2
Ion mode: NEGATIVE
Ionization: ESI
Fragmentation mode: HCD
Collision energy: 30
Resolution: 17500
Column name: Acquity BEH C18 1.7um, 2.1x150mm (Waters)
Retention time: 17.915 min
Base peak: 406.0997
Precursor m/z: 292.1918
Precursor type: [M-H]-
Precursor intensity: 2763317.59375
m/z	relative intensity	assigned
58.0297	2	C2H4NO-
152.0355	4	C7H6NO3-
156.1394	999	C9H18NO-
200.1293	6	C10H18NO3-
