Mass spectrum: Bicalutamide; LC-ESI-QFT; MS2; CE: 60; R=17500; [M-H]-
Name: Bicalutamide
Name: N-[4-cyano-3-(trifluoromethyl)phenyl]-3-(4-fluorophenyl)sulfonyl-2-hydroxy-2-methylpropanamide
Formula: C18H14F4N2O4S
Exact mass: 430.0610
SMILES: CC(O)(CS(=O)(=O)C1=CC=C(F)C=C1)C(=O)NC1=CC(=C(C=C1)C#N)C(F)(F)F
InChI: InChI=1S/C18H14F4N2O4S/c1-17(26,10-29(27,28)14-6-3-12(19)4-7-14)16(25)24-13-5-2-11(9-23)15(8-13)18(20,21)22/h2-8,26H,10H2,1H3,(H,24,25)
Instrument: Q Exactive Orbitrap (Thermo Scientific)
Instrument type: LC-ESI-QFT
Ms type: MS2
Ion mode: NEGATIVE
Ionization: ESI
Fragmentation mode: HCD
Collision energy: 60
Resolution: 17500
Column name: Acquity BEH C18 1.7um, 2.1x150mm (Waters)
Retention time: 16.682 min
Base peak: 429.0536
Precursor m/z: 429.0538
Precursor type: [M-H]-
Precursor intensity: 62056320.91406
m/z	relative intensity	assigned
59.0138	6	C2H3O2-
63.9624	53	O2S-
78.9859	67	CH3O2S-
95.0302	26	C6H4F-
111.0251	16	C6H4FO-
115.03	1	C7H3N2-
125.0143	1	C8HN2-
157.9844	3	C6H3FO2S-
158.0222	3	C7H3F3N-
158.9921	14	C6H4FO2S-
173.0077	18	C7H6FO2S-
183.0175	1	C8H2F3N2-
184.038	110	C9H5F3N-
185.033	999	C8H4F3N2-
186.0167	2	C5H8F2O3S-
212.0329	1	C10H5F3NO-
227.0439	5	C10H6F3N2O-
251.0443	1	C6H12F3NO4S-
255.0389	5	C11H6F3N2O2-
