Mass spectrum: Phenethyl anthranilate; LC-ESI-QFT; MS2; CE: 15; R=17500; [M+H]+
Name: Phenethyl anthranilate
Name: 2-phenylethyl 2-aminobenzoate
Formula: C15H15NO2
Exact mass: 241.1103
SMILES: NC1=CC=CC=C1C(=O)OCCC1=CC=CC=C1
InChI: InChI=1S/C15H15NO2/c16-14-9-5-4-8-13(14)15(17)18-11-10-12-6-2-1-3-7-12/h1-9H,10-11,16H2
Instrument: Q Exactive Orbitrap (Thermo Scientific)
Instrument type: LC-ESI-QFT
Ms type: MS2
Ion mode: POSITIVE
Ionization: ESI
Fragmentation mode: HCD
Collision energy: 15
Resolution: 17500
Column name: Acquity BEH C18 1.7um, 2.1x150mm (Waters)
Retention time: 18.603 min
Base peak: 79.0211
Precursor m/z: 242.1176
Precursor type: [M+H]+
Precursor intensity: 10479695.76562
m/z	relative intensity	assigned
105.0699	999	C8H9+
118.0652	10	C8H8N+
120.0444	203	C7H6NO+
146.06	6	C9H8NO+
196.1122	8	C14H14N+
206.0965	37	C15H12N+
224.107	525	C15H14NO+
