Mass spectrum: Phenolphthalin; LC-ESI-QFT; MS2; CE: 75; R=17500; [M-H]-
Name: Phenolphthalin
Name: 2-[bis(4-hydroxyphenyl)methyl]benzoic acid
Formula: C20H16O4
Exact mass: 320.1049
SMILES: OC(=O)C1=C(C=CC=C1)C(C1=CC=C(O)C=C1)C1=CC=C(O)C=C1
InChI: InChI=1S/C20H16O4/c21-15-9-5-13(6-10-15)19(14-7-11-16(22)12-8-14)17-3-1-2-4-18(17)20(23)24/h1-12,19,21-22H,(H,23,24)
Instrument: Q Exactive Orbitrap (Thermo Scientific)
Instrument type: LC-ESI-QFT
Ms type: MS2
Ion mode: NEGATIVE
Ionization: ESI
Fragmentation mode: HCD
Collision energy: 75
Resolution: 17500
Column name: Acquity BEH C18 1.7um, 2.1x150mm (Waters)
Retention time: 15.574 min
Base peak: 319.0974
Precursor m/z: 319.0976
Precursor type: [M-H]-
Precursor intensity: 12496515.47217
m/z	relative intensity	assigned
65.0396	12	C5H5-
93.0346	391	C6H5O-
151.0553	13	C12H7-
152.0633	23	C12H8-
153.0707	18	C12H9-
167.0501	56	C12H7O-
169.0659	35	C12H9O-
180.0581	328	C13H8O-
181.0658	43	C13H9O-
185.0602	7	C12H9O2-
195.0451	147	C13H7O2-
196.053	178	C13H8O2-
197.0607	139	C13H9O2-
204.0584	17	C15H8O-
205.0659	106	C15H9O-
213.0557	117	C13H9O3-
215.0867	10	C17H11-
217.0657	17	C16H9O-
217.1022	12	C17H13-
219.0815	11	C16H11O-
223.04	13	C14H7O3-
226.0791	6	C18H10-
227.0868	10	C18H11-
230.0736	50	C17H10O-
231.0814	49	C17H11O-
243.0815	355	C18H11O-
244.0893	80	C18H12O-
245.0971	119	C18H13O-
256.0889	11	C19H12O-
258.0685	10	C18H10O2-
259.0764	5	C18H11O2-
271.0766	436	C19H11O2-
272.0844	999	C19H12O2-
273.0921	366	C19H13O2-
