Mass spectrum: CP-122721; LC-ESI-QFT; MS2; CE: 45; R=17500; [M+H]+
Name: CP-122721
Name: (2S,3S)-N-[[2-methoxy-5-(trifluoromethoxy)phenyl]methyl]-2-phenylpiperidin-3-amine
Formula: C20H23F3N2O2
Exact mass: 380.1712
SMILES: COC1=C(CN[C@H]2CCCN[C@H]2C2=CC=CC=C2)C=C(OC(F)(F)F)C=C1
InChI: InChI=1S/C20H23F3N2O2/c1-26-18-10-9-16(27-20(21,22)23)12-15(18)13-25-17-8-5-11-24-19(17)14-6-3-2-4-7-14/h2-4,6-7,9-10,12,17,19,24-25H,5,8,11,13H2,1H3/t17-,19-/m0/s1
Instrument: Q Exactive Orbitrap (Thermo Scientific)
Instrument type: LC-ESI-QFT
Ms type: MS2
Ion mode: POSITIVE
Ionization: ESI
Fragmentation mode: HCD
Collision energy: 45
Resolution: 17500
Column name: Acquity BEH C18 1.7um, 2.1x150mm (Waters)
Retention time: 15.712 min
Base peak: 79.0211
Precursor m/z: 381.1784
Precursor type: [M+H]+
Precursor intensity: 59712404.25
m/z	relative intensity	assigned
55.0543	1	C4H7+
56.0495	1	C3H6N+
68.0494	2	C4H6N+
82.0651	22	C5H8N+
91.0542	22	C7H7+
103.0541	1	C8H7+
109.0448	3	C7H6F+
111.0604	1	C7H8F+
115.0542	6	C9H7+
117.0573	3	C8H7N+
117.0698	9	C9H9+
118.0649	1	C8H8N+
119.0731	2	C8H9N+
128.062	5	C10H8+
130.0651	6	C9H8N+
131.0856	13	C10H11+
132.0808	83	C9H10N+
143.0856	5	C11H11+
158.0966	2	C11H12N+
160.112	999	C11H14N+
175.0365	12	C8H6F3O+
177.0521	6	C8H8F3O+
193.0468	1	C8H8F3O2+
203.0424	4	C8H6F3N2O+
205.0471	54	C9H8F3O2+
