Mass spectrum: Cloquintocet-mexyl; LC-ESI-QFT; MS2; CE: 90; R=17500; [M+H]+
Name: Cloquintocet-mexyl
Name: heptan-2-yl 2-(5-chloroquinolin-8-yl)oxyacetate
Formula: C18H22ClNO3
Exact mass: 335.1288
SMILES: CCCCCC(C)OC(=O)COC1=CC=C(Cl)C2=CC=CN=C12
InChI: InChI=1S/C18H22ClNO3/c1-3-4-5-7-13(2)23-17(21)12-22-16-10-9-15(19)14-8-6-11-20-18(14)16/h6,8-11,13H,3-5,7,12H2,1-2H3
Instrument: Q Exactive Orbitrap (Thermo Scientific)
Instrument type: LC-ESI-QFT
Ms type: MS2
Ion mode: POSITIVE
Ionization: ESI
Fragmentation mode: HCD
Collision energy: 90
Resolution: 17500
Column name: Acquity BEH C18 1.7um, 2.1x150mm (Waters)
Retention time: 19.582 min
Base peak: 79.0211
Precursor m/z: 336.1361
Precursor type: [M+H]+
Precursor intensity: 45586174
m/z	relative intensity	assigned
53.0022	5	C3HO+
55.0541	1	C4H7+
57.0699	68	C4H9+
89.0386	11	C7H5+
104.0494	2	C7H6N+
116.0495	23	C8H6N+
126.0338	23	C9H4N+
127.0417	133	C9H5N+
128.0495	42	C9H6N+
129.0448	7	C7H10Cl+
129.0573	16	C9H7N+
134.06	82	C8H8NO+
137.0152	3	C8H6Cl+
144.0444	71	C9H6NO+
145.0523	5	C9H7NO+
146.06	15	C9H8NO+
150.0106	2	C8H5ClN+
151.0183	999	C8H6ClN+
154.0399	32	C5H11ClO3+
156.0443	2	C10H6NO+
157.0523	1	C10H7NO+
158.0602	2	C10H8NO+
162.0105	278	C9H5ClN+
163.0066	5	C11HNO+
163.0183	40	C9H6ClN+
164.0261	48	C9H7ClN+
165.0103	3	C9H6ClO+
178.0055	40	C9H5ClNO+
179.0132	697	C9H6ClNO+
180.021	155	C9H7ClNO+
190.0057	4	C10H5ClNO+
190.0168	4	C11H7ClO+
191.0131	10	C10H6ClNO+
192.0211	376	C10H7ClNO+
194.0367	17	C10H9ClNO+
208.0163	3	C10H7ClNO2+
