Mass spectrum: SR125047; LC-ESI-QFT; MS2; CE: 90; R=17500; [M+H]+
Name: SR125047
Name: 1-[(2Z)-3-(2-Chloro-3'-methoxybiphenyl-4-yl)prop-2-en-1-yl]azepane
Name: 1-[(Z)-3-[3-chloro-4-(3-methoxyphenyl)phenyl]prop-2-enyl]azepane
Formula: C22H26ClNO
Exact mass: 355.1703
SMILES: COc1cccc(-c2ccc(/C=C\CN3CCCCCC3)cc2Cl)c1
InChI: InChI=1S/C22H26ClNO/c1-25-20-10-6-9-19(17-20)21-12-11-18(16-22(21)23)8-7-15-24-13-4-2-3-5-14-24/h6-12,16-17H,2-5,13-15H2,1H3/b8-7-
Instrument: Q Exactive Orbitrap (Thermo Scientific)
Instrument type: LC-ESI-QFT
Ms type: MS2
Ion mode: POSITIVE
Ionization: ESI
Fragmentation mode: HCD
Collision energy: 90
Resolution: 17500
Column name: Acquity BEH C18 1.7um, 2.1x150mm (Waters)
Retention time: 15.993 min
Base peak: 79.0212
Precursor m/z: 356.1776
Precursor type: [M+H]+
Precursor intensity: 26963671.5
m/z	relative intensity	assigned
55.0178	8	C3H3O+
55.0542	3	C4H7+
56.0495	2	C3H6N+
79.0542	2	C6H7+
91.0542	3	C7H7+
95.0492	1	C6H7O+
98.0964	6	C6H12N+
100.1121	1	C6H14N+
102.0466	1	C8H6+
103.0541	1	C8H7+
104.0622	1	C8H8+
107.0491	6	C7H7O+
115.0542	11	C9H7+
116.0619	1	C9H8+
125.015	1	C7H6Cl+
128.0618	4	C10H8+
129.0698	2	C10H9+
131.049	2	C9H7O+
139.0542	2	C11H7+
149.0152	6	C9H6Cl+
151.0542	1	C12H7+
152.062	55	C12H8+
153.0698	17	C12H9+
154.0775	2	C12H10+
163.0541	6	C13H7+
164.0621	8	C13H8+
165.0699	130	C13H9+
166.0777	23	C13H10+
167.0858	3	C13H11+
168.0569	9	C12H8O+
176.0621	16	C14H8+
177.0701	56	C14H9+
178.0777	943	C14H10+
179.0854	999	C14H11+
180.0567	3	C13H8O+
181.0645	15	C13H9O+
186.0231	107	C12H7Cl+
189.0698	171	C15H9+
190.0777	71	C15H10+
191.0855	171	C15H11+
192.0569	8	C14H8O+
192.0934	13	C15H12+
193.0648	5	C14H9O+
193.1012	24	C15H13+
194.0726	20	C14H10O+
194.1088	2	C15H14+
195.0804	13	C14H11O+
199.0309	191	C13H8Cl+
201.0464	6	C13H10Cl+
202.0777	19	C16H10+
203.0855	15	C16H11+
204.0934	1	C16H12+
205.0648	67	C15H9O+
206.0726	50	C15H10O+
207.0804	402	C15H11O+
209.0963	1	C15H13O+
212.0385	8	C14H9Cl+
213.0469	3	C14H10Cl+
214.0179	18	C13H7ClO+
214.0538	2	C14H11Cl+
215.0256	4	C13H8ClO+
217.0759	1	C14H14Cl+
219.0805	7	C16H11O+
220.0883	1	C16H12O+
221.096	118	C16H13O+
222.1038	19	C16H14O+
225.0461	3	C15H10Cl+
227.0258	10	C14H8ClO+
229.0412	6	C14H10ClO+
241.0416	8	C15H10ClO+
242.0492	2	C15H11ClO+
