Mass spectrum: {4-[({2-[3-Fluoro-4-(trifluoromethyl)phenyl]-4-methyl-1,3-thiazol-5-yl}methyl)sulfanyl]-2-methylphenoxy}acetic acid; LC-ESI-QFT; MS2; CE: 75; R=17500; [M+H]+
Name: {4-[({2-[3-Fluoro-4-(trifluoromethyl)phenyl]-4-methyl-1,3-thiazol-5-yl}methyl)sulfanyl]-2-methylphenoxy}acetic acid
Name: GW0742
Name: 2-[4-[[2-[3-fluoro-4-(trifluoromethyl)phenyl]-4-methyl-1,3-thiazol-5-yl]methylsulfanyl]-2-methylphenoxy]acetic acid
Formula: C21H17F4NO3S2
Exact mass: 471.0586
SMILES: CC1=C(CSC2=CC(C)=C(OCC(O)=O)C=C2)SC(=N1)C1=CC=C(C(F)=C1)C(F)(F)F
InChI: InChI=1S/C21H17F4NO3S2/c1-11-7-14(4-6-17(11)29-9-19(27)28)30-10-18-12(2)26-20(31-18)13-3-5-15(16(22)8-13)21(23,24)25/h3-8H,9-10H2,1-2H3,(H,27,28)
Instrument: Q Exactive Orbitrap (Thermo Scientific)
Instrument type: LC-ESI-QFT
Ms type: MS2
Ion mode: POSITIVE
Ionization: ESI
Fragmentation mode: HCD
Collision energy: 75
Resolution: 17500
Column name: Acquity BEH C18 1.7um, 2.1x150mm (Waters)
Retention time: 20.126 min
Base peak: 79.0211
Precursor m/z: 472.0659
Precursor type: [M+H]+
Precursor intensity: 5160676.875
m/z	relative intensity	assigned
53.0022	3	C3HO+
53.0386	15	C4H5+
57.9872	6	C2H2S+
58.995	32	C2H3S+
59.9665	5	COS+
65.0597	1	C2H9O2+
67.0543	2	C5H7+
68.0494	3	C4H6N+
68.9793	4	C3HS+
69.9872	18	C3H2S+
70.995	843	C3H3S+
84.0029	4	C4H4S+
85.0107	682	C4H5S+
86.0185	99	C4H6S+
91.0543	2	C7H7+
98.0061	2	C4H4NS+
111.026	3	C6H7S+
112.0215	9	C5H6NS+
121.0449	7	C8H6F+
122.0401	13	C7H5FN+
139.0212	15	C7H7OS+
146.0526	5	C10H7F+
151.0354	6	C9H5F2+
162.0714	4	C10H9FN+
163.0166	5	C7H3F4+
165.0169	142	C3H5F4O3+
169.0258	1	C9H4F3+
172.0556	9	C11H7FN+
173.0636	13	C11H8FN+
176.0242	8	C8H4F4+
177.0321	4	C8H5F4+
189.0171	5	C5H5F4O3+
189.0319	5	C9H5F4+
190.0275	152	C8H4F4N+
190.0398	49	C9H6F4+
195.0417	6	C11H6F3+
201.0323	90	C10H5F4+
202.0462	2	C12H6F2N+
204.0274	2	C8H12O2S2+
205.0356	4	C11H8FNS+
206.0435	672	C5H8F4NO3+
206.9886	120	C8H3F4S+
208.0381	44	C8H6F4NO+
214.0403	2	C11H6F4+
215.0133	8	C10H6F3S+
216.0431	57	C10H6F4N+
217.0512	10	C10H7F4N+
222.0535	44	C9H8F4NO+
230.059	4	C11H8F4N+
233.0042	66	C10H5F4S+
242.0588	70	C12H8F4N+
247.0194	2	C16H4FO2+
255.0323	1	C12H8F3NS+
256.0405	24	C14H7FNO3+
257.0043	1	C12H5F4S+
260.015	14	C11H6F4NS+
274.0308	999	C12H8F4NS+
275.0385	201	C12H9F4NS+
