Mass spectrum: Dazomet; LC-ESI-QFT; MS2; CE: 60; R=17500; [M+H]+
Name: Dazomet
Name: 3,5-dimethyl-1,3,5-thiadiazinane-2-thione
Formula: C5H10N2S2
Exact mass: 162.0285
SMILES: CN1CSC(=S)N(C)C1
InChI: InChI=1S/C5H10N2S2/c1-6-3-7(2)5(8)9-4-6/h3-4H2,1-2H3
Instrument: Q Exactive Orbitrap (Thermo Scientific)
Instrument type: LC-ESI-QFT
Ms type: MS2
Ion mode: POSITIVE
Ionization: ESI
Fragmentation mode: HCD
Collision energy: 60
Resolution: 17500
Column name: Acquity BEH C18 1.7um, 2.1x150mm (Waters)
Retention time: 9.859 min
Base peak: 79.0211
Precursor m/z: 163.0358
Precursor type: [M+H]+
Precursor intensity: 1174643.5
m/z	relative intensity	assigned
51.0229	122	C4H3+
53.0387	999	C4H5+
63.0263	122	C2H7S+
88.9524	130	C2HS2+
