Mass spectrum: (4-Aminophenyl)arsonic acid; LC-ESI-QFT; MS2; CE: 15; R=17500; [M+H]+
Name: (4-Aminophenyl)arsonic acid
Name: Arsanilic acid
Formula: C6H8AsNO3
Exact mass: 216.9720
SMILES: NC1=CC=C(C=C1)[As](O)(O)=O
InChI: InChI=1S/C6H8AsNO3/c8-6-3-1-5(2-4-6)7(9,10)11/h1-4H,8H2,(H2,9,10,11)
Instrument: Q Exactive Orbitrap (Thermo Scientific)
Instrument type: LC-ESI-QFT
Ms type: MS2
Ion mode: POSITIVE
Ionization: ESI
Fragmentation mode: HCD
Collision energy: 15
Resolution: 17500
Column name: Acquity BEH C18 1.7um, 2.1x150mm (Waters)
Retention time: 2.487 min
Base peak: 79.0211
Precursor m/z: 217.9793
Precursor type: [M+H]+
Precursor intensity: 7262647.625
m/z	relative intensity	assigned
65.0385	1	C5H5+
68.0494	1	C4H6N+
92.0494	9	C6H6N+
108.0444	64	C6H6NO+
109.0523	595	C6H7NO+
110.0601	11	C6H8NO+
129.9857	6	AsH9NO2+
171.9735	2	C5H7AsNO+
181.9582	14	C6H5AsNO+
199.9689	45	C6H7AsNO2+
217.9794	999	C6H9AsNO3+
