Mass spectrum: Terbutylazine; LC-ESI-QFT; MS2; CE: 90; R=17500; [M+H]+
Name: Terbutylazine
Name: Terbuthylazine
Name: 2-N-tert-butyl-6-chloro-4-N-ethyl-1,3,5-triazine-2,4-diamine
Formula: C9H16ClN5
Exact mass: 229.1094
SMILES: CCNC1=NC(NC(C)(C)C)=NC(Cl)=N1
InChI: InChI=1S/C9H16ClN5/c1-5-11-7-12-6(10)13-8(14-7)15-9(2,3)4/h5H2,1-4H3,(H2,11,12,13,14,15)
Instrument: Q Exactive Orbitrap (Thermo Scientific)
Instrument type: LC-ESI-QFT
Ms type: MS2
Ion mode: POSITIVE
Ionization: ESI
Fragmentation mode: HCD
Collision energy: 90
Resolution: 17500
Column name: Acquity BEH C18 1.7um, 2.1x150mm (Waters)
Retention time: 17.408 min
Base peak: 79.0211
Precursor m/z: 230.1167
Precursor type: [M+H]+
Precursor intensity: 28794896.15625
m/z	relative intensity	assigned
53.0022	2	ClH4N+
53.0135	1	C2HN2+
57.0699	66	C4H9+
61.9792	114	CHClN+
68.0243	999	C2H2N3+
71.0603	266	C3H7N2+
74.0963	1	C4H12N+
79.0057	458	CH4ClN2+
90.0105	17	C3H5ClN+
96.0556	345	C4H6N3+
104.001	705	C2H3ClN3+
107.0372	1	C3H8ClN2+
110.0461	64	C3H4N5+
132.0323	122	C4H7ClN3+
138.0774	35	C5H8N5+
146.0228	98	C3H5ClN5+
172.0387	1	C5H7ClN5+
174.0541	50	C5H9ClN5+
