Mass spectrum: N-Dodecanoyl-N-methylglycine; LC-ESI-QFT; MS2; CE: 45; R=17500; [M-H]-
Name: N-Dodecanoyl-N-methylglycine
Name: N-Lauroylsarcosine
Name: 2-[dodecanoyl(methyl)amino]acetic acid
Formula: C15H29NO3
Exact mass: 271.2147
SMILES: CCCCCCCCCCCC(=O)N(C)CC(O)=O
InChI: InChI=1S/C15H29NO3/c1-3-4-5-6-7-8-9-10-11-12-14(17)16(2)13-15(18)19/h3-13H2,1-2H3,(H,18,19)
Instrument: Q Exactive Orbitrap (Thermo Scientific)
Instrument type: LC-ESI-QFT
Ms type: MS2
Ion mode: NEGATIVE
Ionization: ESI
Fragmentation mode: HCD
Collision energy: 45
Resolution: 17500
Column name: Acquity BEH C18 1.7um, 2.1x150mm (Waters)
Retention time: 19.716 min
Base peak: 249.1496
Precursor m/z: 270.2075
Precursor type: [M-H]-
Precursor intensity: 57182791.01367
m/z	relative intensity	assigned
70.0298	1	C3H4NO-
86.0612	2	C4H8NO-
88.0404	999	C3H6NO2-
179.1443	1	C12H19O-
181.1598	15	C12H21O-
183.1754	34	C12H23O-
208.2072	1	C14H26N-
224.2018	3	C14H26NO-
226.2177	14	C14H28NO-
