Mass spectrum: Oxadixyl; LC-ESI-QFT; MS2; CE: 60; R=17500; [M+H]+
Name: Oxadixyl
Name: N-(2,6-dimethylphenyl)-2-methoxy-N-(2-oxo-1,3-oxazolidin-3-yl)acetamide
Formula: C14H18N2O4
Exact mass: 278.1267
SMILES: COCC(=O)N(N1CCOC1=O)C1=C(C)C=CC=C1C
InChI: InChI=1S/C14H18N2O4/c1-10-5-4-6-11(2)13(10)16(12(17)9-19-3)15-7-8-20-14(15)18/h4-6H,7-9H2,1-3H3
Instrument: Q Exactive Orbitrap (Thermo Scientific)
Instrument type: LC-ESI-QFT
Ms type: MS2
Ion mode: POSITIVE
Ionization: ESI
Fragmentation mode: HCD
Collision energy: 60
Resolution: 17500
Column name: Acquity BEH C18 1.7um, 2.1x150mm (Waters)
Retention time: 14.470 min
Base peak: 79.0211
Precursor m/z: 279.1339
Precursor type: [M+H]+
Precursor intensity: 2609358
m/z	relative intensity	assigned
58.0652	621	C3H8N+
86.0965	592	C5H12N+
91.0543	48	C7H7+
102.055	77	C4H8NO2+
105.07	108	C8H9+
117.0574	210	C8H7N+
118.0653	120	C8H8N+
119.0857	160	C9H11+
120.0809	95	C8H10N+
121.0648	58	C8H9O+
132.0808	999	C9H10N+
133.0886	399	C9H11N+
149.0234	73	C8H5O3+
219.0576	150	C14H7N2O+
