Mass spectrum: N-Benzyladenine; LC-ESI-QFT; MS2; CE: 90; R=17500; [M+H]+
Name: N-Benzyladenine
Name: 6-Benzylaminopurine
Name: N-benzyl-7H-purin-6-amine
Formula: C12H11N5
Exact mass: 225.1014
SMILES: C(NC1=C2N=CN=C2N=CN1)C1=CC=CC=C1
InChI: InChI=1S/C12H11N5/c1-2-4-9(5-3-1)6-13-11-10-12(15-7-14-10)17-8-16-11/h1-5,7-8H,6H2,(H2,13,14,15,16,17)
Instrument: Q Exactive Orbitrap (Thermo Scientific)
Instrument type: LC-ESI-QFT
Ms type: MS2
Ion mode: POSITIVE
Ionization: ESI
Fragmentation mode: HCD
Collision energy: 90
Resolution: 17500
Column name: Acquity BEH C18 1.7um, 2.1x150mm (Waters)
Retention time: 13.340 min
Base peak: 79.0211
Precursor m/z: 226.1087
Precursor type: [M+H]+
Precursor intensity: 22169396.71875
m/z	relative intensity	assigned
63.0229	3	C5H3+
65.0386	115	C5H5+
91.0542	999	C7H7+
119.0354	2	C5H3N4+
121.0507	1	C5H5N4+
148.0617	2	C6H6N5+
