Mass spectrum: Indinavir; LC-ESI-QFT; MS2; CE: 75; R=17500; [M-H]-
Name: Indinavir
Formula: C36H47N5O4
Exact mass: 613.3628
SMILES: CC(C)(C)NC(=O)[C@@H]1CN(Cc2cccnc2)CCN1C[C@@H](O)C[C@@H](Cc1ccccc1)C(=O)N[C@H]1c2ccccc2C[C@H]1O
InChI: InChI=1S/C36H47N5O4/c1-36(2,3)39-35(45)31-24-40(22-26-12-9-15-37-21-26)16-17-41(31)23-29(42)19-28(18-25-10-5-4-6-11-25)34(44)38-33-30-14-8-7-13-27(30)20-32(33)43/h4-15,21,28-29,31-33,42-43H,16-20,22-24H2,1-3H3,(H,38,44)(H,39,45)/t28-,29+,31+,32-,33+/m1/s1
Instrument: Q Exactive Orbitrap (Thermo Scientific)
Instrument type: LC-ESI-QFT
Ms type: MS2
Ion mode: NEGATIVE
Ionization: ESI
Fragmentation mode: HCD
Collision energy: 75
Resolution: 17500
Column name: Acquity BEH C18 1.7um, 2.1x150mm (Waters)
Retention time: 15.252 min
Base peak: 112.9857
Precursor m/z: 612.3555
Precursor type: [M-H]-
Precursor intensity: 748952.078125
m/z	relative intensity	assigned
52.0192	37	C3H2N-
56.0505	174	C3H6N-
57.0345	28	C3H5O-
58.0298	102	C2H4NO-
68.0505	83	C4H6N-
70.0298	118	C3H4NO-
81.022	44	C4H3NO-
84.0456	61	C4H6NO-
87.0564	72	C3H7N2O-
91.0555	32	C7H7-
92.0506	999	C6H6N-
94.0299	72	C5H4NO-
100.0768	25	C5H10NO-
109.0408	30	C5H5N2O-
115.0553	44	C9H7-
117.0459	604	C7H5N2-
117.0711	40	C9H9-
119.0504	42	C8H7O-
119.0614	400	C7H7N2-
126.0924	98	C7H12NO-
128.0505	127	C9H6N-
130.0663	203	C9H8N-
131.0503	42	C9H7O-
131.0617	50	C8H7N2-
143.1188	60	C7H15N2O-
145.0659	34	C10H9O-
145.0772	33	C9H9N2-
146.0611	35	C9H8NO-
147.0564	41	C8H7N2O-
148.077	46	C9H10NO-
162.0926	40	C10H12NO-
