Mass spectrum: Celecoxib; LC-ESI-QFT; MS2; CE: 60; R=17500; [M-H]-
Name: Celecoxib
Name: 4-[5-(4-methylphenyl)-3-(trifluoromethyl)pyrazol-1-yl]benzenesulfonamide
Formula: C17H14F3N3O2S
Exact mass: 381.0759
SMILES: CC1=CC=C(C=C1)C1=CC(=NN1C1=CC=C(C=C1)S(N)(=O)=O)C(F)(F)F
InChI: InChI=1S/C17H14F3N3O2S/c1-11-2-4-12(5-3-11)15-10-16(17(18,19)20)22-23(15)13-6-8-14(9-7-13)26(21,24)25/h2-10H,1H3,(H2,21,24,25)
Instrument: Q Exactive Orbitrap (Thermo Scientific)
Instrument type: LC-ESI-QFT
Ms type: MS2
Ion mode: NEGATIVE
Ionization: ESI
Fragmentation mode: HCD
Collision energy: 60
Resolution: 17500
Column name: Acquity BEH C18 1.7um, 2.1x150mm (Waters)
Retention time: 17.965 min
Base peak: 203.0131
Precursor m/z: 380.0686
Precursor type: [M-H]-
Precursor intensity: 26441450.63477
m/z	relative intensity	assigned
61.9706	99	NOS-
63.9624	31	O2S-
65.0145	3	C3HN2-
68.9958	999	CF3-
77.0146	1	C4HN2-
77.9655	136	NO2S-
78.9733	31	HNO2S-
79.9812	154	H2NO2S-
88.0004	48	C3F2N-
88.0193	5	C6H2N-
105.0458	1	C6H5N2-
106.0536	9	C6H6N2-
108.0066	9	C3HF3N-
108.0255	3	C6H3FN-
112.0194	3	C8H2N-
115.0301	4	C7H3N2-
116.0505	5	C8H6N-
117.046	3	C7H5N2-
129.0458	6	C8H5N2-
130.0536	47	C8H6N2-
131.0377	5	C8H5NO-
132.0256	4	C8H3FN-
139.0302	99	C9H3N2-
142.0411	2	C8H4N3-
155.0424	2	C7H5F2N2-
155.0491	5	C9H5N3-
156.0569	8	C9H6N3-
157.046	5	C11H6F-
159.0364	164	C9H4FN2-
160.0205	4	C9H3FNO-
166.0406	1	C10H4N3-
177.052	8	C11H7F2-
178.0665	1	C13H8N-
179.0426	60	C9H5F2N2-
180.0266	5	C9H4F2NO-
183.0122	1	C11H2FNO-
184.0153	1	C9H2N3O2-
198.0409	19	C9H5F3N2-
198.0723	3	C13H9FN-
205.0769	1	C14H9N2-
207.0929	4	C14H11N2-
218.0977	2	C16H12N-
219.0931	2	C15H11N2-
220.0881	4	C14H10N3-
220.1008	5	C15H12N2-
221.096	28	C14H11N3-
221.1083	4	C15H13N2-
222.0814	4	C11H11FN2O2-
222.0921	1	C15H12NO-
222.1041	2	C14H12N3-
224.0566	9	C11H7F3N2-
227.0744	1	C17H9N-
229.077	18	C16H9N2-
232.0881	2	C15H10N3-
245.0958	6	C16H11N3-
246.1036	9	C16H12N3-
247.1114	67	C16H13N3-
248.0749	4	C16H9FN2-
249.0833	48	C16H10FN2-
251.099	4	C16H12FN2-
254.073	2	C14H9FN3O-
255.0803	13	C17H9N3-
256.0881	38	C17H10N3-
257.0721	2	C17H9N2O-
267.0862	1	C17H11F2N-
268.0947	3	C17H12F2N-
269.0903	7	C13H12F3N2O-
274.0789	3	C17H9FN3-
275.0866	20	C17H10FN3-
276.0942	110	C17H11FN3-
277.0779	13	C17H10FN2O-
295.0918	2	C17H11F2N3-
296.1005	12	C17H12F2N3-
297.084	1	C17H11F2N2O-
307.0766	2	C17H10FN3O2-
315.0986	3	C17H12F3N3-
316.1057	5	C17H13F3N3-
317.0903	3	C17H12F3N2O-
