Mass spectrum: Cloquintocet-mexyl; LC-ESI-QFT; MS2; CE: 45; R=17500; [M+H]+
Name: Cloquintocet-mexyl
Name: heptan-2-yl 2-(5-chloroquinolin-8-yl)oxyacetate
Formula: C18H22ClNO3
Exact mass: 335.1288
SMILES: CCCCCC(C)OC(=O)COC1=CC=C(Cl)C2=CC=CN=C12
InChI: InChI=1S/C18H22ClNO3/c1-3-4-5-7-13(2)23-17(21)12-22-16-10-9-15(19)14-8-6-11-20-18(14)16/h6,8-11,13H,3-5,7,12H2,1-2H3
Instrument: Q Exactive Orbitrap (Thermo Scientific)
Instrument type: LC-ESI-QFT
Ms type: MS2
Ion mode: POSITIVE
Ionization: ESI
Fragmentation mode: HCD
Collision energy: 45
Resolution: 17500
Column name: Acquity BEH C18 1.7um, 2.1x150mm (Waters)
Retention time: 19.582 min
Base peak: 79.0211
Precursor m/z: 336.1361
Precursor type: [M+H]+
Precursor intensity: 48696780.25
m/z	relative intensity	assigned
57.0699	87	C4H9+
151.0183	1	C8H6ClN+
179.0132	764	C9H6ClNO+
180.021	6	C9H7ClNO+
191.0134	1	C10H6ClNO+
192.021	999	C10H7ClNO+
220.016	42	C11H7ClNO2+
238.0265	415	C11H9ClNO3+
