Mass spectrum: 3-Thiatetradecanoic acid; LC-ESI-QFT; MS2; CE: 15; R=17500; [M-H]-
Name: 3-Thiatetradecanoic acid
Name: 2-undecylsulfanylacetic acid
Formula: C13H26O2S
Exact mass: 246.1654
SMILES: CCCCCCCCCCCSCC(O)=O
InChI: InChI=1S/C13H26O2S/c1-2-3-4-5-6-7-8-9-10-11-16-12-13(14)15/h2-12H2,1H3,(H,14,15)
Instrument: Q Exactive Orbitrap (Thermo Scientific)
Instrument type: LC-ESI-QFT
Ms type: MS2
Ion mode: NEGATIVE
Ionization: ESI
Fragmentation mode: HCD
Collision energy: 15
Resolution: 17500
Column name: Acquity BEH C18 1.7um, 2.1x150mm (Waters)
Retention time: 20.706 min
Base peak: 245.1581
Precursor m/z: 245.1581
Precursor type: [M-H]-
Precursor intensity: 20344203.69092
m/z	relative intensity	assigned
59.0138	8	C2H3O2-
60.9753	13	CHOS-
63.9624	7	O2S-
90.9859	6	C2H3O2S-
185.137	6	C11H21S-
201.1681	21	C12H25S-
245.1581	999	C13H25O2S-
