Mass spectrum: Prometryn; LC-ESI-QFT; MS2; CE: 45; R=17500; [M+H]+
Name: Prometryn
Name: 6-methylsulfanyl-2-N,4-N-di(propan-2-yl)-1,3,5-triazine-2,4-diamine
Formula: C10H19N5S
Exact mass: 241.1361
SMILES: CSC1=NC(NC(C)C)=NC(NC(C)C)=N1
InChI: InChI=1S/C10H19N5S/c1-6(2)11-8-13-9(12-7(3)4)15-10(14-8)16-5/h6-7H,1-5H3,(H2,11,12,13,14,15)
Instrument: Q Exactive Orbitrap (Thermo Scientific)
Instrument type: LC-ESI-QFT
Ms type: MS2
Ion mode: POSITIVE
Ionization: ESI
Fragmentation mode: HCD
Collision energy: 45
Resolution: 17500
Column name: Acquity BEH C18 1.7um, 2.1x150mm (Waters)
Retention time: 16.449 min
Base peak: 79.0211
Precursor m/z: 242.1434
Precursor type: [M+H]+
Precursor intensity: 68799937.1875
m/z	relative intensity	assigned
68.0243	60	C2H2N3+
74.0057	5	C2H4NS+
85.0509	20	C2H5N4+
85.076	15	C4H9N2+
91.0325	18	C2H7N2S+
110.0461	12	C3H4N5+
110.0713	65	C5H8N3+
116.0277	66	C3H6N3S+
127.0979	3	C5H11N4+
143.026	1	C3H5N5S+
152.0931	16	C6H10N5+
152.1182	31	C8H14N3+
158.0495	999	C4H8N5S+
185.0727	1	C6H11N5S+
194.14	3	C9H16N5+
200.0964	700	C7H14N5S+
242.1433	353	C10H20N5S+
