Mass spectrum: Sulfasalazine; LC-ESI-QFT; MS2; CE: 15; R=17500; [M+H]+
Name: Sulfasalazine
Name: 2-hydroxy-5-[[4-(pyridin-2-ylsulfamoyl)phenyl]diazenyl]benzoic acid
Formula: C18H14N4O5S
Exact mass: 398.0685
SMILES: C1=CC=NC(=C1)NS(=O)(=O)C2=CC=C(C=C2)N=NC3=CC(=C(C=C3)O)C(=O)O
InChI: InChI=1S/C18H14N4O5S/c23-16-9-6-13(11-15(16)18(24)25)21-20-12-4-7-14(8-5-12)28(26,27)22-17-3-1-2-10-19-17/h1-11,23H,(H,19,22)(H,24,25)
Instrument: Q Exactive Orbitrap (Thermo Scientific)
Instrument type: LC-ESI-QFT
Ms type: MS2
Ion mode: POSITIVE
Ionization: ESI
Fragmentation mode: HCD
Collision energy: 15
Resolution: 17500
Column name: Acquity BEH C18 1.7um, 2.1x150mm (Waters)
Retention time: 16.988 min
Base peak: 79.0211
Precursor m/z: 399.0758
Precursor type: [M+H]+
Precursor intensity: 1512402.25
m/z	relative intensity	assigned
94.0532	1	C5H6N2+
273.0501	1	C13H9N2O5+
305.0231	5	C13H9N2O5S+
317.1038	4	C18H13N4O2+
332.0902	2	C18H12N4O3+
381.0658	127	C18H13N4O4S+
399.0765	999	C18H15N4O5S+
