Mass spectrum: Butam; LC-ESI-QFT; MS2; CE: 75; R=17500; [M+H]+
Name: Butam
Name: Tebutam
Name: N-benzyl-2,2-dimethyl-N-propan-2-ylpropanamide
Formula: C15H23NO
Exact mass: 233.1780
SMILES: CC(C)N(CC1=CC=CC=C1)C(=O)C(C)(C)C
InChI: InChI=1S/C15H23NO/c1-12(2)16(14(17)15(3,4)5)11-13-9-7-6-8-10-13/h6-10,12H,11H2,1-5H3
Instrument: Q Exactive Orbitrap (Thermo Scientific)
Instrument type: LC-ESI-QFT
Ms type: MS2
Ion mode: POSITIVE
Ionization: ESI
Fragmentation mode: HCD
Collision energy: 75
Resolution: 17500
Column name: Acquity BEH C18 1.7um, 2.1x150mm (Waters)
Retention time: 18.091 min
Base peak: 79.0212
Precursor m/z: 234.1852
Precursor type: [M+H]+
Precursor intensity: 64574296.875
m/z	relative intensity	assigned
57.0699	37	C4H9+
58.0651	3	C3H8N+
63.0229	1	C5H3+
65.0386	38	C5H5+
84.0808	5	C5H10N+
91.0542	999	C7H7+
105.0699	7	C8H9+
133.1011	3	C10H13+
