Mass spectrum: 3-Amino-4-methylbenzamide; LC-ESI-QFT; MS2; CE: 75; R=17500; [M+H]+
Name: 3-Amino-4-methylbenzamide
Formula: C8H10N2O
Exact mass: 150.0793
SMILES: CC1=C(N)C=C(C=C1)C(N)=O
InChI: InChI=1S/C8H10N2O/c1-5-2-3-6(8(10)11)4-7(5)9/h2-4H,9H2,1H3,(H2,10,11)
Instrument: Q Exactive Orbitrap (Thermo Scientific)
Instrument type: LC-ESI-QFT
Ms type: MS2
Ion mode: POSITIVE
Ionization: ESI
Fragmentation mode: HCD
Collision energy: 75
Resolution: 17500
Column name: Acquity BEH C18 1.7um, 2.1x150mm (Waters)
Retention time: 3.845 min
Base peak: 79.0211
Precursor m/z: 151.0866
Precursor type: [M+H]+
Precursor intensity: 3992345.25
m/z	relative intensity	assigned
53.0386	1	C4H5+
65.0385	15	C5H5+
66.0464	3	C5H6+
67.0543	2	C5H7+
79.0542	39	C6H7+
80.0497	2	C5H6N+
81.0699	5	C6H9+
91.0542	181	C7H7+
92.0495	4	C6H6N+
93.0573	999	C6H7N+
95.0491	8	C6H7O+
105.0447	2	C6H5N2+
106.0652	73	C7H8N+
107.049	1	C7H7O+
107.073	7	C7H9N+
108.0808	822	C7H10N+
109.0648	27	C7H9O+
110.0601	2	C6H8NO+
119.0604	14	C7H7N2+
124.0757	37	C7H10NO+
134.06	32	C8H8NO+
151.0862	1	C8H11N2O+
