Mass spectrum: Isoxaben; LC-ESI-QFT; MS2; CE: 75; R=17500; [M+H]+
Name: Isoxaben
Name: 2,6-dimethoxy-N-[3-(3-methylpentan-3-yl)-1,2-oxazol-5-yl]benzamide
Formula: C18H24N2O4
Exact mass: 332.1736
SMILES: CCC(C)(CC)C1=NOC(NC(=O)C2=C(OC)C=CC=C2OC)=C1
InChI: InChI=1S/C18H24N2O4/c1-6-18(3,7-2)14-11-15(24-20-14)19-17(21)16-12(22-4)9-8-10-13(16)23-5/h8-11H,6-7H2,1-5H3,(H,19,21)
Instrument: Q Exactive Orbitrap (Thermo Scientific)
Instrument type: LC-ESI-QFT
Ms type: MS2
Ion mode: POSITIVE
Ionization: ESI
Fragmentation mode: HCD
Collision energy: 75
Resolution: 17500
Column name: Acquity BEH C18 1.7um, 2.1x150mm (Waters)
Retention time: 17.390 min
Base peak: 79.0212
Precursor m/z: 333.1809
Precursor type: [M+H]+
Precursor intensity: 23366285.5
m/z	relative intensity	assigned
51.0229	1	C4H3+
53.0023	2	C3HO+
53.0386	28	C4H5+
55.0178	3	C3H3O+
57.07	1	C4H9+
63.0229	1	C5H3+
65.0385	5	C5H5+
66.0464	4	C5H6+
67.0541	2	C5H7+
75.0229	11	C6H3+
77.0385	27	C6H5+
78.0465	1	C6H6+
79.0542	95	C6H7+
81.0334	8	C5H5O+
81.0698	8	C6H9+
82.0413	2	C5H6O+
91.0541	6	C7H7+
92.0256	36	C6H4O+
93.0334	1	C6H5O+
94.0413	17	C6H6O+
95.0491	86	C6H7O+
105.0335	26	C7H5O+
105.0447	33	C6H5N2+
107.0127	315	C6H3O2+
107.049	52	C7H7O+
109.0647	38	C7H9O+
120.0205	15	C7H4O2+
121.0285	9	C7H5O2+
122.0361	689	C7H6O2+
123.0439	4	C7H7O2+
125.0232	11	C6H5O3+
125.0596	27	C7H9O2+
133.0285	2	C8H5O2+
135.0439	71	C8H7O2+
135.0549	11	C7H7N2O+
137.0596	12	C8H9O2+
138.0309	2	C7H6O3+
139.0388	8	C7H7O3+
150.0311	559	C8H6O3+
151.0387	1	C8H7O3+
165.0545	999	C9H9O3+
168.0416	539	C8H8O4+
182.0573	48	C9H10O4+
