Mass spectrum: Fluometuron; LC-ESI-QFT; MS2; CE: 45; R=17500; [M+H]+
Name: Fluometuron
Name: 1,1-dimethyl-3-[3-(trifluoromethyl)phenyl]urea
Formula: C10H11F3N2O
Exact mass: 232.0823
SMILES: CN(C)C(=O)NC1=CC=CC(=C1)C(F)(F)F
InChI: InChI=1S/C10H11F3N2O/c1-15(2)9(16)14-8-5-3-4-7(6-8)10(11,12)13/h3-6H,1-2H3,(H,14,16)
Instrument: Q Exactive Orbitrap (Thermo Scientific)
Instrument type: LC-ESI-QFT
Ms type: MS2
Ion mode: POSITIVE
Ionization: ESI
Fragmentation mode: HCD
Collision energy: 45
Resolution: 17500
Column name: Acquity BEH C18 1.7um, 2.1x150mm (Waters)
Retention time: 16.075 min
Base peak: 79.0211
Precursor m/z: 233.0896
Precursor type: [M+H]+
Precursor intensity: 14548944.875
m/z	relative intensity	assigned
56.0132	3	C2H2NO+
72.0444	999	C3H6NO+
160.0369	14	C7H5F3N+
168.0256	18	C8H4F2NO+
173.0321	1	C7H4F3N2+
178.0475	1	C7H7F3NO+
188.0318	12	C8H5F3NO+
192.0632	1	C8H9F3NO+
213.0837	1	C10H11F2N2O+
233.0899	38	C10H12F3N2O+
