Mass spectrum: Pyriproxyfen; LC-ESI-QFT; MS2; CE: 90; R=17500; [M+H]+
Name: Pyriproxyfen
Name: 2-[1-(4-phenoxyphenoxy)propan-2-yloxy]pyridine
Formula: C20H19NO3
Exact mass: 321.1365
SMILES: CC(COC1=CC=C(OC2=CC=CC=C2)C=C1)OC1=NC=CC=C1
InChI: InChI=1S/C20H19NO3/c1-16(23-20-9-5-6-14-21-20)15-22-17-10-12-19(13-11-17)24-18-7-3-2-4-8-18/h2-14,16H,15H2,1H3
Instrument: Q Exactive Orbitrap (Thermo Scientific)
Instrument type: LC-ESI-QFT
Ms type: MS2
Ion mode: POSITIVE
Ionization: ESI
Fragmentation mode: HCD
Collision energy: 90
Resolution: 17500
Column name: Acquity BEH C18 1.7um, 2.1x150mm (Waters)
Retention time: 19.691 min
Base peak: 79.0211
Precursor m/z: 322.1438
Precursor type: [M+H]+
Precursor intensity: 30205170.5
m/z	relative intensity	assigned
50.0152	1	C4H2+
51.023	1	C4H3+
53.0386	45	C4H5+
55.0178	5	C3H3O+
63.0229	1	C5H3+
65.0386	8	C5H5+
77.0385	29	C6H5+
78.0338	104	C5H4N+
79.0542	12	C6H7+
81.0334	5	C5H5O+
91.0542	177	C7H7+
94.0414	10	C6H6O+
95.0492	143	C6H7O+
96.0443	999	C5H6NO+
103.0542	13	C8H7+
105.0699	25	C8H9+
107.0491	6	C7H7O+
109.0648	1	C7H9O+
110.06	15	C6H8NO+
115.0542	148	C9H7+
116.0622	2	C9H8+
117.0699	4	C9H9+
119.0492	88	C8H7O+
127.0542	5	C10H7+
128.062	124	C10H8+
129.0698	77	C10H9+
131.049	3	C9H7O+
133.0648	18	C9H9O+
134.0727	2	C9H10O+
139.0541	2	C11H7+
140.0621	1	C11H8+
141.0698	35	C11H9+
142.0777	2	C11H10+
145.0648	13	C10H9O+
152.0622	8	C12H8+
153.0698	2	C12H9+
157.0649	7	C11H9O+
165.0699	9	C13H9+
166.0775	1	C13H10+
168.0571	4	C12H8O+
169.0649	3	C12H9O+
170.0724	1	C12H10O+
181.0645	3	C13H9O+
184.052	1	C12H8O2+
185.0595	2	C12H9O2+
194.072	1	C14H10O+
197.0594	1	C13H9O2+
