Mass spectrum: CP-532623; LC-ESI-QFT; MS2; CE: 15; R=17500; [M-H]-
Name: CP-532623
Name: propan-2-yl (2R,4S)-4-[acetyl-[[3,5-bis(trifluoromethyl)phenyl]methyl]amino]-2-ethyl-6-(trifluoromethyl)-3,4-dihydro-2H-quinoline-1-carboxylate
Formula: C27H27F9N2O3
Exact mass: 598.1878
SMILES: CC[C@@H]1C[C@H](N(CC2=CC(=CC(=C2)C(F)(F)F)C(F)(F)F)C(C)=O)C2=C(C=CC(=C2)C(F)(F)F)N1C(=O)OC(C)C
InChI: InChI=1S/C27H27F9N2O3/c1-5-20-12-23(21-11-17(25(28,29)30)6-7-22(21)38(20)24(40)41-14(2)3)37(15(4)39)13-16-8-18(26(31,32)33)10-19(9-16)27(34,35)36/h6-11,14,20,23H,5,12-13H2,1-4H3/t20-,23+/m1/s1
Instrument: Q Exactive Orbitrap (Thermo Scientific)
Instrument type: LC-ESI-QFT
Ms type: MS2
Ion mode: NEGATIVE
Ionization: ESI
Fragmentation mode: HCD
Collision energy: 15
Resolution: 17500
Column name: Acquity BEH C18 1.7um, 2.1x150mm (Waters)
Retention time: 19.739 min
Base peak: 249.1496
Precursor m/z: 597.1805
Precursor type: [M-H]-
Precursor intensity: 1527351.941406
m/z	relative intensity	assigned
58.0298	3	C2H4NO-
213.0146	2	C16H2F-
227.0301	999	C9H5F6-
241.0453	7	C10H7F6-
254.0797	46	C5H12F8NO-
271.0196	2	C10H5F6O2-
283.0438	621	C11H7F6NO-
284.0517	77	C19H7FNO-
309.0857	13	C15H12F3N2O2-
310.0311	5	C20H5FNO2-
314.1375	215	C16H19F3NO2-
369.1433	49	C18H20F3N2O3-
415.073	3	C21H11F8-
435.0796	2	C21H12F9-
436.0744	3	C20H11F9N-
