Mass spectrum: CP-544439; LC-ESI-QFT; MS2; CE: 90; R=17500; [M-H]-
Name: CP-544439
Name: 2H-Pyran-4-carboxamide, 4-(((4-(4-fluorophenoxy)phenyl)sulfonyl)amino)tetrahydro-N-hydroxy-
Name: 4-[[4-(4-fluorophenoxy)phenyl]sulfonylamino]-N-hydroxyoxane-4-carboxamide
Formula: C18H19FN2O6S
Exact mass: 410.0948
SMILES: ONC(=O)C1(CCOCC1)NS(=O)(=O)C1=CC=C(OC2=CC=C(F)C=C2)C=C1
InChI: InChI=1S/C18H19FN2O6S/c19-13-1-3-14(4-2-13)27-15-5-7-16(8-6-15)28(24,25)21-18(17(22)20-23)9-11-26-12-10-18/h1-8,21,23H,9-12H2,(H,20,22)
Instrument: Q Exactive Orbitrap (Thermo Scientific)
Instrument type: LC-ESI-QFT
Ms type: MS2
Ion mode: NEGATIVE
Ionization: ESI
Fragmentation mode: HCD
Collision energy: 90
Resolution: 17500
Column name: Acquity BEH C18 1.7um, 2.1x150mm (Waters)
Retention time: 15.940 min
Base peak: 409.0876
Precursor m/z: 409.0875
Precursor type: [M-H]-
Precursor intensity: 3883646.390137
m/z	relative intensity	assigned
57.9934	44	CNO2-
61.9706	839	NOS-
63.9625	339	O2S-
77.9656	458	NO2S-
78.035	129	C5H4N-
78.9734	215	HNO2S-
79.9812	746	H2NO2S-
80.9652	12	HO3S-
93.0347	20	C6H5O-
93.9605	131	NO3S-
94.03	10	C5H4NO-
95.0303	59	C6H4F-
107.0377	999	C6H5NO-
108.0217	164	C6H4O2-
111.0252	343	C6H4FO-
112.0405	13	C5H6NO2-
147.0618	7	C10H8F-
266.0303	7	C12H9FNO3S-
