Mass spectrum: Dulcin; LC-ESI-QFT; MS2; CE: 15; R=17500; [M+H]+
Name: Dulcin
Name: (4-ethoxyphenyl)urea
Formula: C9H12N2O2
Exact mass: 180.0899
SMILES: CCOC1=CC=C(NC(N)=O)C=C1
InChI: InChI=1S/C9H12N2O2/c1-2-13-8-5-3-7(4-6-8)11-9(10)12/h3-6H,2H2,1H3,(H3,10,11,12)
Instrument: Q Exactive Orbitrap (Thermo Scientific)
Instrument type: LC-ESI-QFT
Ms type: MS2
Ion mode: POSITIVE
Ionization: ESI
Fragmentation mode: HCD
Collision energy: 15
Resolution: 17500
Column name: Acquity BEH C18 1.7um, 2.1x150mm (Waters)
Retention time: 13.186 min
Base peak: 79.0211
Precursor m/z: 181.0972
Precursor type: [M+H]+
Precursor intensity: 14420774.125
m/z	relative intensity	assigned
108.0443	19	C6H6NO+
109.0523	5	C6H7NO+
110.06	47	C6H8NO+
135.0682	9	C8H9NO+
136.0758	197	C8H10NO+
137.0835	1	C8H11NO+
138.0913	269	C8H12NO+
153.0786	1	C8H11NO2+
164.0705	46	C9H10NO2+
167.0944	1	C9H13NO2+
181.0971	999	C9H13N2O2+
