Mass spectrum: CP-532623; LC-ESI-QFT; MS2; CE: 90; R=17500; [M-H]-
Name: CP-532623
Name: propan-2-yl (2R,4S)-4-[acetyl-[[3,5-bis(trifluoromethyl)phenyl]methyl]amino]-2-ethyl-6-(trifluoromethyl)-3,4-dihydro-2H-quinoline-1-carboxylate
Formula: C27H27F9N2O3
Exact mass: 598.1878
SMILES: CC[C@@H]1C[C@H](N(CC2=CC(=CC(=C2)C(F)(F)F)C(F)(F)F)C(C)=O)C2=C(C=CC(=C2)C(F)(F)F)N1C(=O)OC(C)C
InChI: InChI=1S/C27H27F9N2O3/c1-5-20-12-23(21-11-17(25(28,29)30)6-7-22(21)38(20)24(40)41-14(2)3)37(15(4)39)13-16-8-18(26(31,32)33)10-19(9-16)27(34,35)36/h6-11,14,20,23H,5,12-13H2,1-4H3/t20-,23+/m1/s1
Instrument: Q Exactive Orbitrap (Thermo Scientific)
Instrument type: LC-ESI-QFT
Ms type: MS2
Ion mode: NEGATIVE
Ionization: ESI
Fragmentation mode: HCD
Collision energy: 90
Resolution: 17500
Column name: Acquity BEH C18 1.7um, 2.1x150mm (Waters)
Retention time: 19.739 min
Base peak: 249.1496
Precursor m/z: 597.1805
Precursor type: [M-H]-
Precursor intensity: 1359730.40625
m/z	relative intensity	assigned
57.0347	545	C3H5O-
58.0298	138	C2H4NO-
68.9959	230	CF3-
167.0116	784	C9H2F3-
173.002	999	C8HF4-
193.0085	549	C16H-
200.0127	669	CH3F9N-
213.0141	787	C8H3F6-
222.0175	477	C11H3F3NO-
