Mass spectrum: Atraton; LC-ESI-QFT; MS2; CE: 45; R=17500; [M+H]+
Name: Atraton
Name: 4-N-ethyl-6-methoxy-2-N-propan-2-yl-1,3,5-triazine-2,4-diamine
Formula: C9H17N5O
Exact mass: 211.1433
SMILES: CCNC1=NC(NC(C)C)=NC(OC)=N1
InChI: InChI=1S/C9H17N5O/c1-5-10-7-12-8(11-6(2)3)14-9(13-7)15-4/h6H,5H2,1-4H3,(H2,10,11,12,13,14)
Instrument: Q Exactive Orbitrap (Thermo Scientific)
Instrument type: LC-ESI-QFT
Ms type: MS2
Ion mode: POSITIVE
Ionization: ESI
Fragmentation mode: HCD
Collision energy: 45
Resolution: 17500
Column name: Acquity BEH C18 1.7um, 2.1x150mm (Waters)
Retention time: 13.594 min
Base peak: 79.0211
Precursor m/z: 212.1506
Precursor type: [M+H]+
Precursor intensity: 42565367.375
m/z	relative intensity	assigned
57.0447	12	C2H5N2+
58.0288	1	C2H4NO+
68.0242	7	C2H2N3+
69.0083	7	C2HN2O+
71.0603	17	C3H7N2+
75.0552	30	C2H7N2O+
82.0399	1	C3H4N3+
83.0239	2	C3H3N2O+
85.076	32	C4H9N2+
86.0348	29	C2H4N3O+
96.0556	75	C4H6N3+
97.0396	24	C4H5N2O+
99.0666	1	C3H7N4+
100.0505	87	C3H6N3O+
110.0713	2	C5H8N3+
113.0821	4	C4H9N4+
114.0661	82	C4H8N3O+
127.0978	2	C5H11N4+
128.0818	36	C5H10N3O+
138.0773	7	C5H8N5+
138.1025	30	C7H12N3+
142.0723	70	C4H8N5O+
142.0973	7	C6H12N3O+
153.0771	1	C6H9N4O+
168.0878	2	C6H10N5O+
170.1035	999	C6H12N5O+
180.1243	2	C8H14N5+
184.1193	4	C7H14N5O+
212.1505	468	C9H18N5O+
