Mass spectrum: 6-Nitrobenzimidazole; LC-ESI-QFT; MS2; CE: 60; R=17500; [M-H]-
Name: 6-Nitrobenzimidazole
Name: 5-Nitrobenzimidazole
Formula: C7H5N3O2
Exact mass: 163.0382
SMILES: [O-][N+](=O)C1=CC2=C(NC=N2)C=C1
InChI: InChI=1S/C7H5N3O2/c11-10(12)5-1-2-6-7(3-5)9-4-8-6/h1-4H,(H,8,9)
Instrument: Q Exactive Orbitrap (Thermo Scientific)
Instrument type: LC-ESI-QFT
Ms type: MS2
Ion mode: NEGATIVE
Ionization: ESI
Fragmentation mode: HCD
Collision energy: 60
Resolution: 17500
Column name: Acquity BEH C18 1.7um, 2.1x150mm (Waters)
Retention time: 10.075 min
Base peak: 162.0308
Precursor m/z: 162.0309
Precursor type: [M-H]-
Precursor intensity: 24904178.50098
m/z	relative intensity	assigned
65.0146	1	C3HN2-
65.9985	1	C3NO-
67.0302	2	C3H3N2-
68.0142	1	C3H2NO-
91.0302	48	C5H3N2-
92.038	26	C5H4N2-
93.0221	2	C5H3NO-
95.0251	7	C4H3N2O-
104.038	42	C6H4N2-
105.0217	1	C6H3NO-
107.0252	1	C5H3N2O-
108.0329	24	C5H4N2O-
115.0301	21	C7H3N2-
116.038	49	C7H4N2-
118.0409	2	C6H4N3-
119.0251	43	C6H3N2O-
132.0329	999	C7H4N2O-
147.0201	3	C7H3N2O2-
162.0309	602	C7H4N3O2-
