Mass spectrum: Fluridone; LC-ESI-QFT; MS2; CE: 75; R=17500; [M+H]+
Name: Fluridone
Name: 1-methyl-3-phenyl-5-[3-(trifluoromethyl)phenyl]pyridin-4-one
Formula: C19H14F3NO
Exact mass: 329.1027
SMILES: CN1C=C(C(=O)C(=C1)C1=CC(=CC=C1)C(F)(F)F)C1=CC=CC=C1
InChI: InChI=1S/C19H14F3NO/c1-23-11-16(13-6-3-2-4-7-13)18(24)17(12-23)14-8-5-9-15(10-14)19(20,21)22/h2-12H,1H3
Instrument: Q Exactive Orbitrap (Thermo Scientific)
Instrument type: LC-ESI-QFT
Ms type: MS2
Ion mode: POSITIVE
Ionization: ESI
Fragmentation mode: HCD
Collision energy: 75
Resolution: 17500
Column name: Acquity BEH C18 1.7um, 2.1x150mm (Waters)
Retention time: 16.806 min
Base peak: 79.0211
Precursor m/z: 330.11
Precursor type: [M+H]+
Precursor intensity: 51392317.375
m/z	relative intensity	assigned
53.0386	9	C4H5+
65.0385	4	C5H5+
77.0385	3	C6H5+
79.0541	1	C6H7+
89.0385	3	C7H5+
90.0464	1	C7H6+
91.0543	104	C7H7+
95.0492	22	C6H7O+
102.0463	5	C8H6+
103.0542	75	C8H7+
104.0495	10	C7H6N+
105.0335	10	C7H5O+
105.07	6	C8H9+
109.0448	10	C7H6F+
113.0386	1	C9H5+
115.0543	116	C9H7+
116.0494	3	C8H6N+
116.0621	27	C9H8+
117.0573	19	C8H7N+
117.0699	11	C9H9+
118.0651	28	C8H8N+
121.0448	1	C8H6F+
125.0198	1	C7H3F2+
127.0353	3	C7H5F2+
127.0543	2	C10H7+
128.062	16	C10H8+
129.0333	1	C9H5O+
129.0699	24	C10H9+
130.0651	9	C9H8N+
130.0773	1	C10H10+
131.049	1	C9H7O+
131.0732	6	C9H9N+
132.0808	2	C9H10N+
133.0448	16	C9H6F+
139.0541	3	C11H7+
140.0494	3	C10H6N+
140.0621	1	C11H8+
141.0696	3	C11H9+
143.0731	7	C10H9N+
144.0568	3	C10H8O+
144.0809	2	C10H10N+
145.026	11	C7H4F3+
145.0447	1	C10H6F+
145.0646	2	C10H9O+
146.0526	1	C10H7F+
151.0355	64	C9H5F2+
153.0572	1	C11H7N+
154.0651	5	C11H8N+
155.0728	1	C11H9N+
156.0808	8	C11H10N+
157.0261	1	C8H4F3+
157.0449	3	C11H6F+
157.0886	7	C11H11N+
158.04	4	C10H5FN+
159.0417	37	C8H6F3+
159.0603	7	C11H8F+
163.0357	1	C10H5F2+
163.0553	1	C10H8FO+
164.0433	9	C10H6F2+
165.0511	17	C10H7F2+
165.0698	6	C13H9+
166.0463	3	C9H6F2N+
166.0651	1	C12H8N+
167.0729	4	C12H9N+
168.0807	3	C12H10N+
169.0455	2	C9H7F2O+
170.0338	3	C9H5F3+
171.0416	28	C9H6F3+
172.0369	4	C8H5F3N+
173.0214	5	C8H4F3O+
177.0512	9	C11H7F2+
178.0461	2	C10H6F2N+
178.0776	1	C14H10+
180.0623	1	C10H8F2N+
182.0339	1	C10H5F3+
182.0595	1	C12H8NO+
183.0416	40	C10H6F3+
184.0476	1	C10H7F3+
184.0758	1	C12H10NO+
185.0449	1	C9H6F3N+
185.0639	4	C12H8FN+
186.0532	7	C9H7F3N+
189.0697	8	C15H9+
190.0776	3	C15H10+
191.0855	30	C15H11+
192.0931	11	C15H12+
197.0568	8	C11H8F3+
198.0526	2	C10H7F3N+
200.0619	3	C16H8+
201.0596	1	C12H8FNO+
201.0698	5	C16H9+
202.0777	64	C16H10+
203.0855	5	C16H11+
204.0622	3	C12H8F2N+
204.0934	6	C16H12+
205.0648	2	C15H9O+
205.0887	1	C15H11N+
206.0961	1	C15H12N+
208.0368	1	C11H5F3N+
208.1119	3	C15H14N+
209.0759	3	C15H10F+
209.1154	5	C13H15F2+
212.0513	1	C13H7FNO+
214.078	2	C17H10+
215.0855	55	C17H11+
216.0807	10	C16H10N+
216.0932	5	C17H12+
217.0887	29	C16H11N+
218.072	4	C16H10O+
218.0966	16	C16H12N+
219.0804	6	C16H11O+
220.0683	72	C16H9F+
221.0761	39	C16H10F+
223.0555	1	C15H8FO+
224.0682	2	C12H9F3N+
225.0757	1	C12H10F3N+
226.0782	1	C18H10+
227.0732	20	C17H9N+
228.0808	3	C17H10N+
229.0655	1	C17H9O+
230.0613	1	C16H8NO+
230.0959	4	C17H12N+
231.0809	1	C17H11O+
231.1043	6	C17H13N+
232.0568	2	C13H8F2NO+
232.1124	12	C17H14N+
233.0576	2	C14H8F3+
233.0761	27	C17H10F+
233.1199	6	C17H15N+
234.0715	2	C16H9FN+
234.0828	2	C17H11F+
235.0796	2	C16H10FN+
235.0918	3	C17H12F+
236.0858	1	C16H11FN+
238.0588	1	C16H8F2+
241.089	48	C18H11N+
242.0964	135	C18H12N+
243.0676	3	C17H9NO+
243.08	1	C18H11O+
243.1033	2	C18H13N+
244.0765	4	C17H10NO+
245.0634	3	C17H8FN+
245.084	17	C17H11NO+
246.0701	22	C17H9FN+
246.0923	6	C17H12NO+
247.0792	49	C17H10FN+
248.0632	8	C17H9FO+
248.0868	3	C17H11FN+
249.071	28	C17H10FO+
251.0665	16	C17H9F2+
252.0624	1	C16H8F2N+
253.0824	1	C17H11F2+
255.068	3	C18H9NO+
256.0749	1	C18H10NO+
257.0843	1	C18H11NO+
258.0721	3	C15H10F2NO+
258.0915	18	C18H12NO+
259.0757	17	C16H10F3+
259.0992	184	C18H13NO+
260.087	26	C18H11FN+
260.107	50	C18H14NO+
261.0718	7	C18H10FO+
261.0949	62	C18H12FN+
262.0793	24	C18H11FO+
262.1027	85	C18H13FN+
263.0865	3	C18H12FO+
266.0778	16	C17H10F2N+
267.0621	2	C17H9F2O+
267.0854	9	C17H11F2N+
268.0746	1	C19H10NO+
269.0839	7	C19H11NO+
270.0662	10	C17H9F3+
270.0913	50	C19H12NO+
271.0781	4	C19H10FN+
272.0683	2	C16H9F3N+
272.087	10	C19H11FN+
273.0949	9	C19H12FN+
274.0663	45	C18H9FNO+
275.0742	54	C18H10FNO+
276.0821	6	C18H11FNO+
277.073	3	C15H10F3NO+
280.0933	15	C18H12F2N+
281.1012	3	C18H13F2N+
282.1089	6	C18H14F2N+
283.0729	2	C18H10F3+
285.0754	7	C17H10F3N+
286.0839	61	C17H11F3N+
287.0918	118	C17H12F3N+
288.082	26	C19H11FNO+
289.0899	49	C19H12FNO+
290.0977	125	C19H13FNO+
291.0891	175	C16H12F3NO+
292.0936	5	C19H12F2N+
293.0655	2	C18H9F2NO+
294.0726	371	C18H10F2NO+
295.0805	14	C18H11F2NO+
298.0843	2	C18H11F3N+
300.0993	8	C18H13F3N+
301.1073	3	C18H14F3N+
302.1149	6	C18H15F3N+
307.0807	1	C19H11F2NO+
308.0884	33	C19H12F2NO+
309.0961	999	C19H13F2NO+
310.1038	172	C19H14F2NO+
311.0912	1	C19H12F3N+
312.0995	1	C19H13F3N+
314.0787	39	C18H11F3NO+
315.0858	5	C18H12F3NO+
328.0948	10	C19H13F3NO+
330.1101	65	C19H15F3NO+
