Mass spectrum: Metronidazole; LC-ESI-QFT; MS2; CE: 60; R=17500; [M+H]+
Name: Metronidazole
Name: 2-(2-methyl-5-nitroimidazol-1-yl)ethanol
Formula: C6H9N3O3
Exact mass: 171.0644
SMILES: CC1=NC=C(N1CCO)[N+]([O-])=O
InChI: InChI=1S/C6H9N3O3/c1-5-7-4-6(9(11)12)8(5)2-3-10/h4,10H,2-3H2,1H3
Instrument: Q Exactive Orbitrap (Thermo Scientific)
Instrument type: LC-ESI-QFT
Ms type: MS2
Ion mode: POSITIVE
Ionization: ESI
Fragmentation mode: HCD
Collision energy: 60
Resolution: 17500
Column name: Acquity BEH C18 1.7um, 2.1x150mm (Waters)
Retention time: 6.904 min
Base peak: 79.0211
Precursor m/z: 172.0717
Precursor type: [M+H]+
Precursor intensity: 5037881.921875
m/z	relative intensity	assigned
56.0369	118	C2H4N2+
57.0209	13	C2H3NO+
57.0699	2	C4H9+
60.0443	3	C2H6NO+
69.0448	3	C3H5N2+
70.0527	1	C3H6N2+
72.0444	5	C3H6NO+
81.0447	2	C4H5N2+
82.0526	72	C4H6N2+
83.0603	6	C4H7N2+
97.0396	10	C4H5N2O+
98.0475	81	C4H6N2O+
111.0427	85	C4H5N3O+
128.0455	999	C4H6N3O2+
172.0717	12	C6H10N3O3+
