Mass spectrum: 2-Norbornene-5,6-dicarboxylic anhydride; LC-ESI-QFT; MS2; CE: 15; R=17500; [M+H]+
Name: 2-Norbornene-5,6-dicarboxylic anhydride
Name: 5-Norbornene-2,3-dicarboxylic anhydride
Name: 4-oxatricyclo[5.2.1.02,6]dec-8-ene-3,5-dione
Formula: C9H8O3
Exact mass: 164.0473
SMILES: O=C1OC(=O)C2C3CC(C=C3)C12
InChI: InChI=1S/C9H8O3/c10-8-6-4-1-2-5(3-4)7(6)9(11)12-8/h1-2,4-7H,3H2
Instrument: Q Exactive Orbitrap (Thermo Scientific)
Instrument type: LC-ESI-QFT
Ms type: MS2
Ion mode: POSITIVE
Ionization: ESI
Fragmentation mode: HCD
Collision energy: 15
Resolution: 17500
Column name: Acquity BEH C18 1.7um, 2.1x150mm (Waters)
Retention time: 17.413 min
Base peak: 79.0212
Precursor m/z: 165.0546
Precursor type: [M+H]+
Precursor intensity: 3537519.5
m/z	relative intensity	assigned
79.0542	6	C6H7+
95.0492	1	C6H7O+
105.0335	1	C7H5O+
107.013	2	C6H3O2+
107.0492	9	C7H7O+
109.0648	3	C7H9O+
122.0363	7	C7H6O2+
125.0597	2	C7H9O2+
135.0441	4	C8H7O2+
137.06	2	C8H9O2+
150.0313	34	C8H6O3+
165.0547	999	C9H9O3+
