Mass spectrum: MK-274; LC-ESI-QFT; MS2; CE: 60; R=17500; [M-H]-
Name: MK-274
Name: 3-[5'-Fluoro-2'-(2,2,3,3,3-pentafluoropropoxy)biphenyl-3-yl]-1H-1,2,4-triazole-5-carboxamide
Name: 3-[3-[5-fluoro-2-(2,2,3,3,3-pentafluoropropoxy)phenyl]phenyl]-1H-1,2,4-triazole-5-carboxamide
Formula: C18H12F6N4O2
Exact mass: 430.0864
SMILES: NC(=O)C1=NC(=NN1)C1=CC=CC(=C1)C1=CC(F)=CC=C1OCC(F)(F)C(F)(F)F
InChI: InChI=1S/C18H12F6N4O2/c19-11-4-5-13(30-8-17(20,21)18(22,23)24)12(7-11)9-2-1-3-10(6-9)15-26-16(14(25)29)28-27-15/h1-7H,8H2,(H2,25,29)(H,26,27,28)
Instrument: Q Exactive Orbitrap (Thermo Scientific)
Instrument type: LC-ESI-QFT
Ms type: MS2
Ion mode: NEGATIVE
Ionization: ESI
Fragmentation mode: HCD
Collision energy: 60
Resolution: 17500
Column name: Acquity BEH C18 1.7um, 2.1x150mm (Waters)
Retention time: 17.743 min
Base peak: 317.1618
Precursor m/z: 429.0792
Precursor type: [M-H]-
Precursor intensity: 3920758.519531
m/z	relative intensity	assigned
68.9958	102	CF3-
92.0254	7	C4H2N3-
92.9958	34	C3F3-
108.9907	133	C3F3O-
128.9968	16	C3HF4O-
212.0514	26	C8H6F2N4O-
223.036	26	C10H4F3N3-
224.0513	6	C9H6F2N4O-
226.0673	11	C14H9FNO-
230.0411	141	C16H5FN-
231.0367	28	C15H4FN2-
233.0522	5	C15H6FN2-
236.0633	35	C11H9F5-
238.0416	10	C13H6F4-
248.0516	16	C8H8F6NO-
250.0473	81	C16H6F2N-
251.0314	999	C16H5F2O-
252.058	110	C11H9F5O-
256.0519	13	C13H8F4O-
258.0344	57	C7H4F6N4-
259.0312	30	C8H5F6N2O-
260.0629	17	C16H7FN3-
269.0421	13	C16H7F2O2-
276.0583	31	C13H9F5O-
278.0407	106	C15H4F2N4-
279.0372	15	C16H5F2N2O-
286.042	28	C9H6F6N3O-
304.0389	29	C11H5F5N4O-
306.0486	247	C14H8F6O-
320.0454	10	C15H6F4N3O-
326.0547	332	C17H7F3N3O-
346.0602	18	C17H8F4N3O-
