Mass spectrum: AVE9423; LC-ESI-QFT; MS2; CE: 75; R=17500; [M-H]-
Name: AVE9423
Name: 1-(2-carboxyphenyl)-7-chloro-6-(2-chloro-4,6-difluoroanilino)-4-oxoquinoline-3-carboxylic acid
Formula: C23H12Cl2F2N2O5
Exact mass: 504.0091
SMILES: OC(=O)C1=CC=CC=C1N1C=C(C(O)=O)C(=O)C2=C1C=C(Cl)C(NC1=C(F)C=C(F)C=C1Cl)=C2
InChI: InChI=1S/C23H12Cl2F2N2O5/c24-14-8-19-12(7-17(14)28-20-15(25)5-10(26)6-16(20)27)21(30)13(23(33)34)9-29(19)18-4-2-1-3-11(18)22(31)32/h1-9,28H,(H,31,32)(H,33,34)
Instrument: Q Exactive Orbitrap (Thermo Scientific)
Instrument type: LC-ESI-QFT
Ms type: MS2
Ion mode: NEGATIVE
Ionization: ESI
Fragmentation mode: HCD
Collision energy: 75
Resolution: 17500
Column name: Acquity BEH C18 1.7um, 2.1x150mm (Waters)
Retention time: 17.443 min
Base peak: 112.9857
Precursor m/z: 503.0019
Precursor type: [M-H]-
Precursor intensity: 1477795.587891
m/z	relative intensity	assigned
156.0333	221	C9H4N2O-
247.0318	278	C17H8Cl-
249.0463	321	C18H5N2-
274.0114	414	C14H5ClF2N2-
275.0622	432	C17H8FN2O-
288.0512	278	C18H6F2N2-
294.0601	299	C20H7FN2-
314.0669	389	C20H8F2N2-
323.0629	999	C21H8FN2O-
377.0314	265	C21H8ClF2N2O-
