Mass spectrum: Fabesetron; LC-ESI-QFT; MS2; CE: 15; R=17500; [M-H]-
Name: Fabesetron
Name: (7R)-10-methyl-7-[(5-methyl-1H-imidazol-4-yl)methyl]-8,9-dihydro-7H-pyrido[1,2-a]indol-6-one
Formula: C18H19N3O
Exact mass: 293.1528
SMILES: Cc1[nH]cnc1C[C@H]1CCc2c(C)c3ccccc3n2C1=O
InChI: InChI=1S/C18H19N3O/c1-11-14-5-3-4-6-17(14)21-16(11)8-7-13(18(21)22)9-15-12(2)19-10-20-15/h3-6,10,13H,7-9H2,1-2H3,(H,19,20)/t13-/m1/s1
Instrument: Q Exactive Orbitrap (Thermo Scientific)
Instrument type: LC-ESI-QFT
Ms type: MS2
Ion mode: NEGATIVE
Ionization: ESI
Fragmentation mode: HCD
Collision energy: 15
Resolution: 17500
Column name: Acquity BEH C18 1.7um, 2.1x150mm (Waters)
Retention time: 15.349 min
Base peak: 229.0506
Precursor m/z: 292.1455
Precursor type: [M-H]-
Precursor intensity: 2424888.062012
m/z	relative intensity	assigned
81.0459	999	C4H5N2-
144.0819	3	C10H10N-
156.082	3	C11H10N-
198.0925	480	C13H12NO-
292.1457	141	C18H18N3O-
