Mass spectrum: PharmaGSID_48506; LC-ESI-QFT; MS2; CE: 45; R=17500; [M-H]-
Name: PharmaGSID_48506
Name: (2R)-2-(3-chloro-4-methylsulfonylphenyl)-3-cyclopentyl-N-pyrazin-2-ylpropanamide
Formula: C19H22ClN3O3S
Exact mass: 407.1070
SMILES: CS(=O)(=O)C1=CC=C(C=C1Cl)[C@@H](CC1CCCC1)C(=O)NC1=NC=CN=C1
InChI: InChI=1S/C19H22ClN3O3S/c1-27(25,26)17-7-6-14(11-16(17)20)15(10-13-4-2-3-5-13)19(24)23-18-12-21-8-9-22-18/h6-9,11-13,15H,2-5,10H2,1H3,(H,22,23,24)/t15-/m1/s1
Instrument: Q Exactive Orbitrap (Thermo Scientific)
Instrument type: LC-ESI-QFT
Ms type: MS2
Ion mode: NEGATIVE
Ionization: ESI
Fragmentation mode: HCD
Collision energy: 45
Resolution: 17500
Column name: Acquity BEH C18 1.7um, 2.1x150mm (Waters)
Retention time: 17.888 min
Base peak: 406.0997
Precursor m/z: 406.0998
Precursor type: [M-H]-
Precursor intensity: 14579300.99756
m/z	relative intensity	assigned
63.9624	712	O2S-
67.0301	3	C3H3N2-
78.9859	25	CH3O2S-
94.0411	199	C4H4N3-
98.9312	2	ClO2S-
137.0163	4	C8H6Cl-
185.1335	999	C14H17-
200.9782	87	C8H6ClO2S-
229.1234	32	C15H17O2-
249.0954	69	C14H17O2S-
270.0487	6	C13H15ClO2S-
285.0721	229	C14H18ClO2S-
