Mass spectrum: 1-Phenylurea; LC-ESI-QFT; MS2; CE: 75; R=17500; [M+H]+
Name: 1-Phenylurea
Name: phenylurea
Formula: C7H8N2O
Exact mass: 136.0637
SMILES: NC(=O)NC1=CC=CC=C1
InChI: InChI=1S/C7H8N2O/c8-7(10)9-6-4-2-1-3-5-6/h1-5H,(H3,8,9,10)
Instrument: Q Exactive Orbitrap (Thermo Scientific)
Instrument type: LC-ESI-QFT
Ms type: MS2
Ion mode: POSITIVE
Ionization: ESI
Fragmentation mode: HCD
Collision energy: 75
Resolution: 17500
Column name: Acquity BEH C18 1.7um, 2.1x150mm (Waters)
Retention time: 11.084 min
Base peak: 79.0211
Precursor m/z: 137.0709
Precursor type: [M+H]+
Precursor intensity: 6529301.28125
m/z	relative intensity	assigned
50.0151	1	C4H2+
53.0022	1	C3HO+
53.0386	23	C4H5+
54.0339	3	C3H4N+
55.0179	3	C3H3O+
65.0386	197	C5H5+
67.0542	2	C5H7+
68.0494	46	C4H6N+
69.0335	4	C4H5O+
77.0386	7	C6H5+
78.0339	5	C5H4N+
79.0178	8	C5H3O+
81.0335	1	C5H5O+
82.0287	2	C4H4NO+
86.0036	83	C6N+
91.0542	3	C7H7+
92.0495	412	C6H6N+
93.0572	7	C6H7N+
94.0651	288	C6H8N+
95.0491	65	C6H7O+
96.0443	6	C5H6NO+
104.014	1	C6H2NO+
105.0447	27	C6H5N2+
108.0445	8	C6H6NO+
110.0601	138	C6H8NO+
119.0604	4	C7H7N2+
120.0444	999	C7H6NO+
137.0711	6	C7H9N2O+
