Mass spectrum: 2-[4-(Diethylamino)-2-hydroxybenzoyl]benzoic acid; LC-ESI-QFT; MS2; CE: 90; R=17500; [M-H]-
Name: 2-[4-(Diethylamino)-2-hydroxybenzoyl]benzoic acid
Name: 2-(4-(Diethylamino)-2-hydroxybenzoyl)benzoic acid
Formula: C18H19NO4
Exact mass: 313.1314
SMILES: CCN(CC)C1=CC(O)=C(C=C1)C(=O)C1=C(C=CC=C1)C(O)=O
InChI: InChI=1S/C18H19NO4/c1-3-19(4-2)12-9-10-15(16(20)11-12)17(21)13-7-5-6-8-14(13)18(22)23/h5-11,20H,3-4H2,1-2H3,(H,22,23)
Instrument: Q Exactive Orbitrap (Thermo Scientific)
Instrument type: LC-ESI-QFT
Ms type: MS2
Ion mode: NEGATIVE
Ionization: ESI
Fragmentation mode: HCD
Collision energy: 90
Resolution: 17500
Column name: Acquity BEH C18 1.7um, 2.1x150mm (Waters)
Retention time: 17.516 min
Base peak: 322.1059
Precursor m/z: 312.1241
Precursor type: [M-H]-
Precursor intensity: 20881655.24707
m/z	relative intensity	assigned
65.0397	1	C5H5-
65.9985	10	C3NO-
66.0349	3	C4H4N-
68.0141	2	C3H2NO-
71.0138	3	C3H3O2-
75.024	5	C6H3-
92.0142	11	C5H2NO-
93.0346	16	C6H5O-
94.03	8	C5H4NO-
105.0223	1	C6H3NO-
107.0377	5	C6H5NO-
108.0217	2	C6H4O2-
108.0455	4	C6H6NO-
118.0299	15	C7H4NO-
119.0503	13	C8H7O-
120.0456	340	C7H6NO-
121.0295	999	C7H5O2-
132.0454	3	C8H6NO-
133.0297	2	C8H5O2-
134.025	1	C7H4NO2-
134.0613	12	C8H8NO-
135.0691	11	C8H9NO-
136.0769	3	C8H10NO-
141.0711	5	C11H9-
143.0505	6	C10H7O-
144.0457	5	C9H6NO-
145.0298	6	C9H5O2-
145.0658	1	C10H9O-
160.0404	1	C9H6NO2-
164.1082	1	C10H14NO-
166.0665	2	C12H8N-
167.0502	7	C12H7O-
168.0454	3	C11H6NO-
169.0661	35	C12H9O-
170.0612	8	C11H8NO-
181.0536	2	C12H7NO-
182.0377	10	C12H6O2-
182.0613	3	C12H8NO-
183.0122	7	C14HN-
183.0452	2	C12H7O2-
184.016	5	C11H4O3-
184.0527	3	C12H8O2-
184.0769	1	C12H10NO-
194.0615	15	C13H8NO-
195.0454	16	C13H7O2-
196.0769	106	C13H10NO-
197.061	20	C13H9O2-
205.0533	10	C14H7NO-
206.0616	6	C14H8NO-
207.0689	4	C14H9NO-
208.0405	3	C13H6NO2-
209.0484	7	C13H7NO2-
210.0563	30	C13H8NO2-
210.0678	2	C14H10O2-
210.0926	3	C14H12NO-
211.0766	7	C14H11O2-
212.0718	5	C13H10NO2-
222.0562	20	C14H8NO2-
223.0642	10	C14H9NO2-
223.0769	10	C15H11O2-
224.072	641	C14H10NO2-
236.0728	1	C15H10NO2-
238.0876	35	C15H12NO2-
