Mass spectrum: Hydroxyflutamide; LC-ESI-QFT; MS2; CE: 60; R=17500; [M-H]-
Name: Hydroxyflutamide
Name: 2-hydroxy-2-methyl-N-[4-nitro-3-(trifluoromethyl)phenyl]propanamide
Formula: C11H11F3N2O4
Exact mass: 292.0671
SMILES: CC(C)(O)C(=O)NC1=CC(=C(C=C1)[N+]([O-])=O)C(F)(F)F
InChI: InChI=1S/C11H11F3N2O4/c1-10(2,18)9(17)15-6-3-4-8(16(19)20)7(5-6)11(12,13)14/h3-5,18H,1-2H3,(H,15,17)
Instrument: Q Exactive Orbitrap (Thermo Scientific)
Instrument type: LC-ESI-QFT
Ms type: MS2
Ion mode: NEGATIVE
Ionization: ESI
Fragmentation mode: HCD
Collision energy: 60
Resolution: 17500
Column name: Acquity BEH C18 1.7um, 2.1x150mm (Waters)
Retention time: 16.807 min
Base peak: 291.0599
Precursor m/z: 291.0598
Precursor type: [M-H]-
Precursor intensity: 131295403.959
m/z	relative intensity	assigned
50.0036	5	C3N-
62.9888	1	CFO2-
63.0114	6	C4HN-
63.9955	2	C4O-
64.0067	1	C3N2-
65.0145	5	C3HN2-
65.9985	96	C3NO-
68.0142	5	C3H2NO-
70.0098	1	C3HFN-
70.9939	33	C3FO-
74.0037	27	C5N-
76.0192	1	C5H2N-
77.0145	16	C4HN2-
79.0063	1	C4HNO-
84.0017	1	C4HFO-
84.9969	2	C3FNO-
86.9888	60	C3FO2-
87.0115	8	C6HN-
89.0145	6	C5HN2-
89.9985	11	C5NO-
91.0064	7	C5HNO-
92.0143	3	C5H2NO-
93.0094	19	C4HN2O-
94.0099	1	C5HFN-
95.0051	5	C4FN2-
96.997	2	C4FNO-
101.0145	16	C6HN2-
103.0063	3	C6HNO-
106.995	2	C3HF2O2-
107.0177	10	C6H2FN-
110.0048	3	C5HFNO-
110.9999	9	C4FN2O-
113.9988	10	C7NO-
115.0063	10	C7HNO-
117.0095	4	C6HN2O-
119.025	12	C6H3N2O-
120.0092	1	C6H2NO2-
121.0208	2	C6H2FN2-
122.0048	1	C6HFNO-
123.0126	11	C6H2FNO-
129.0158	1	C6H3F2O-
131.001	1	C7HNO2-
134.0047	2	C7HFNO-
135.0126	19	C7H2FNO-
137.0043	1	C7H2FO2-
137.0155	3	C6H2FN2O-
137.9996	3	C6HFNO2-
138.9949	4	C5FN2O2-
139.0239	1	C7H3F2N-
148.0076	2	C7HFN2O-
151.0075	6	C7H2FNO2-
154.011	10	C7H2F2NO-
155.0189	45	C7H3F2NO-
159.0301	15	C7H4F3N-
160.0377	1	C7H5F3N-
162.017	3	C6H3F3NO-
165.0105	35	C7H2FN2O2-
175.025	278	C7H4F3NO-
176.009	8	C7H3F3O2-
202.0125	1	C8H3F3NO2-
205.023	999	C7H4F3N2O2-
206.0069	24	C7H3F3NO3-
