Mass spectrum: Propyzamide; LC-ESI-QFT; MS2; CE: 15; R=17500; [M-H]-
Name: Propyzamide
Name: 3,5-dichloro-N-(2-methylbut-3-yn-2-yl)benzamide
Formula: C12H11Cl2NO
Exact mass: 255.0218
SMILES: CC(C)(NC(=O)C1=CC(Cl)=CC(Cl)=C1)C#C
InChI: InChI=1S/C12H11Cl2NO/c1-4-12(2,3)15-11(16)8-5-9(13)7-10(14)6-8/h1,5-7H,2-3H3,(H,15,16)
Instrument: Q Exactive Orbitrap (Thermo Scientific)
Instrument type: LC-ESI-QFT
Ms type: MS2
Ion mode: NEGATIVE
Ionization: ESI
Fragmentation mode: HCD
Collision energy: 15
Resolution: 17500
Column name: Acquity BEH C18 1.7um, 2.1x150mm (Waters)
Retention time: 17.756 min
Base peak: 112.9856
Precursor m/z: 254.0145
Precursor type: [M-H]-
Precursor intensity: 10593610.09961
m/z	relative intensity	assigned
144.9617	98	C6H3Cl2-
186.9723	17	C8H5Cl2O-
212.9752	10	C9H5Cl2NO-
227.9989	999	C10H8Cl2NO-
254.0147	586	C12H10Cl2NO-
