Mass spectrum: 1-Phenyl-2-thiourea; LC-ESI-QFT; MS2; CE: 90; R=17500; [M-H]-
Name: 1-Phenyl-2-thiourea
Name: N'-phenylcarbamimidothioic acid
Formula: C7H8N2S
Exact mass: 152.0408
SMILES: NC(=S)NC1=CC=CC=C1
InChI: InChI=1S/C7H8N2S/c8-7(10)9-6-4-2-1-3-5-6/h1-5H,(H3,8,9,10)
Instrument: Q Exactive Orbitrap (Thermo Scientific)
Instrument type: LC-ESI-QFT
Ms type: MS2
Ion mode: NEGATIVE
Ionization: ESI
Fragmentation mode: HCD
Collision energy: 90
Resolution: 17500
Column name: Acquity BEH C18 1.7um, 2.1x150mm (Waters)
Retention time: 10.322 min
Base peak: 116.9285
Precursor m/z: 151.0335
Precursor type: [M-H]-
Precursor intensity: 821563.8869629
m/z	relative intensity	assigned
57.9756	704	CNS-
92.0506	181	C6H6N-
117.0458	999	C7H5N2-
