Mass spectrum: Raloxifene; LC-ESI-QFT; MS2; CE: 75; R=17500; [M+H]+
Name: Raloxifene
Name: [6-hydroxy-2-(4-hydroxyphenyl)-1-benzothiophen-3-yl]-[4-(2-piperidin-1-ylethoxy)phenyl]methanone
Formula: C28H27NO4S
Exact mass: 473.1661
SMILES: OC1=CC=C(C=C1)C1=C(C(=O)C2=CC=C(OCCN3CCCCC3)C=C2)C2=CC=C(O)C=C2S1
InChI: InChI=1S/C28H27NO4S/c30-21-8-4-20(5-9-21)28-26(24-13-10-22(31)18-25(24)34-28)27(32)19-6-11-23(12-7-19)33-17-16-29-14-2-1-3-15-29/h4-13,18,30-31H,1-3,14-17H2
Instrument: Q Exactive Orbitrap (Thermo Scientific)
Instrument type: LC-ESI-QFT
Ms type: MS2
Ion mode: POSITIVE
Ionization: ESI
Fragmentation mode: HCD
Collision energy: 75
Resolution: 17500
Column name: Acquity BEH C18 1.7um, 2.1x150mm (Waters)
Retention time: 14.280 min
Base peak: 79.0211
Precursor m/z: 474.1734
Precursor type: [M+H]+
Precursor intensity: 12765857.75
m/z	relative intensity	assigned
53.0022	17	C3HO+
53.0386	3	C4H5+
53.9974	3	C2NO+
54.0338	1	C3H4N+
55.0542	84	C4H7+
56.0495	191	C3H6N+
57.0573	9	C3H7N+
57.0698	2	C4H9+
58.0651	54	C3H8N+
65.0385	14	C5H5+
67.0542	16	C5H7+
68.0495	1	C4H6N+
69.0698	114	C5H9+
70.0651	86	C4H8N+
75.0229	2	C6H3+
82.0651	15	C5H8N+
83.073	2	C5H9N+
83.0855	1	C6H11+
84.0808	999	C5H10N+
85.0886	87	C5H11N+
86.0964	12	C5H12N+
91.0542	14	C7H7+
96.0807	1	C6H10N+
97.0885	5	C6H11N+
98.0964	8	C6H12N+
103.0178	10	C7H3O+
110.0964	14	C7H12N+
112.112	169	C7H14N+
117.0783	1	C5H11NO2+
119.049	1	C8H7O+
121.0284	9	C7H5O2+
121.0395	1	H11NO4S+
137.0054	1	C7H5OS+
137.0598	1	C8H9O2+
141.0697	3	C11H9+
147.0441	10	C9H7O2+
147.0554	2	C2H13NO4S+
152.0619	3	C12H8+
169.0647	4	C12H9O+
181.0649	2	C13H9O+
184.0341	3	C12H8S+
185.042	2	C12H9S+
187.0213	1	C11H7OS+
195.0262	2	C13H7S+
197.0597	53	C13H9O2+
213.0367	26	C13H9OS+
223.0212	1	C14H7OS+
224.0291	2	C14H8OS+
240.0239	2	C14H8O2S+
241.0321	5	C14H9O2S+
252.0233	2	C15H8O2S+
255.0801	2	C19H11O+
258.0496	2	C18H10S+
259.0577	1	C18H11S+
263.0527	1	C17H11OS+
268.0187	2	C15H8O3S+
269.0268	10	C15H9O3S+
271.0577	1	C19H11S+
274.0441	3	C18H10OS+
275.0523	1	C18H11OS+
287.0523	8	C19H11OS+
288.0603	1	C19H12OS+
290.0395	1	C18H10O2S+
298.0446	1	C20H10OS+
300.0601	1	C20H12OS+
300.0776	1	C20H12O3+
303.0475	2	C19H11O2S+
305.0629	1	C19H13O2S+
315.0468	1	C20H11O2S+
316.0551	2	C20H12O2S+
327.0476	4	C21H11O2S+
343.0423	2	C21H11O3S+
345.058	1	C21H13O3S+
361.0529	4	C21H13O4S+
