Mass spectrum: Nootkatone; LC-ESI-QFT; MS2; CE: 15; R=17500; [M+H]+
Name: Nootkatone
Name: (4R,4aS,6R)-4,4a-dimethyl-6-prop-1-en-2-yl-3,4,5,6,7,8-hexahydronaphthalen-2-one
Formula: C15H22O
Exact mass: 218.1671
SMILES: C[C@@H]1CC(=O)C=C2CC[C@H](C[C@@]12C)C(C)=C
InChI: InChI=1S/C15H22O/c1-10(2)12-5-6-13-8-14(16)7-11(3)15(13,4)9-12/h8,11-12H,1,5-7,9H2,2-4H3/t11-,12-,15+/m1/s1
Instrument: Q Exactive Orbitrap (Thermo Scientific)
Instrument type: LC-ESI-QFT
Ms type: MS2
Ion mode: POSITIVE
Ionization: ESI
Fragmentation mode: HCD
Collision energy: 15
Resolution: 17500
Column name: Acquity BEH C18 1.7um, 2.1x150mm (Waters)
Retention time: 19.073 min
Base peak: 79.0211
Precursor m/z: 219.1743
Precursor type: [M+H]+
Precursor intensity: 6382569.625
m/z	relative intensity	assigned
55.0543	1	C4H7+
57.0699	1	C4H9+
67.0542	2	C5H7+
69.0334	4	C4H5O+
69.0698	4	C5H9+
79.0541	1	C6H7+
81.0698	45	C6H9+
83.049	1	C5H7O+
83.0854	6	C6H11+
93.0698	8	C7H9+
95.0855	27	C7H11+
97.0648	18	C6H9O+
97.1011	1	C7H13+
105.0698	5	C8H9+
107.0855	16	C8H11+
109.0647	5	C7H9O+
109.1011	38	C8H13+
111.0804	33	C7H11O+
119.0855	12	C9H11+
121.0648	5	C8H9O+
121.1011	17	C9H13+
123.0804	10	C8H11O+
123.1167	33	C9H15+
125.096	7	C8H13O+
131.0854	4	C10H11+
133.1011	5	C10H13+
135.0804	32	C9H11O+
135.1168	20	C10H15+
137.096	9	C9H13O+
139.1116	3	C9H15O+
145.1012	21	C11H13+
147.1168	4	C11H15+
149.0961	36	C10H13O+
149.1324	8	C11H17+
151.1119	2	C10H15O+
159.1168	22	C12H15+
161.1324	29	C12H17+
163.1116	90	C11H15O+
173.1324	9	C13H17+
175.1481	9	C13H19+
176.1194	1	C12H16O+
177.1273	14	C12H17O+
177.1636	10	C13H21+
191.1791	4	C14H23+
201.1637	55	C15H21+
219.1742	999	C15H23O+
