Mass spectrum: SB243213A; LC-ESI-QFT; MS2; CE: 90; R=17500; [M+H]+
Name: SB243213A
Name: SB 243213
Name: 5-methyl-N-[6-(2-methylpyridin-3-yl)oxypyridin-3-yl]-6-(trifluoromethyl)-2,3-dihydroindole-1-carboxamide
Formula: C22H19F3N4O2
Exact mass: 428.1460
SMILES: CC1=CC2=C(C=C1C(F)(F)F)N(CC2)C(=O)NC1=CC=C(OC2=CC=CN=C2C)N=C1
InChI: InChI=1S/C22H19F3N4O2/c1-13-10-15-7-9-29(18(15)11-17(13)22(23,24)25)21(30)28-16-5-6-20(27-12-16)31-19-4-3-8-26-14(19)2/h3-6,8,10-12H,7,9H2,1-2H3,(H,28,30)
Instrument: Q Exactive Orbitrap (Thermo Scientific)
Instrument type: LC-ESI-QFT
Ms type: MS2
Ion mode: POSITIVE
Ionization: ESI
Fragmentation mode: HCD
Collision energy: 90
Resolution: 17500
Column name: Acquity BEH C18 1.7um, 2.1x150mm (Waters)
Retention time: 18.000 min
Base peak: 79.0211
Precursor m/z: 429.1533
Precursor type: [M+H]+
Precursor intensity: 26010289.5
m/z	relative intensity	assigned
51.023	2	C4H3+
52.0181	2	C3H2N+
53.0022	10	C3HO+
53.0386	25	C4H5+
53.9975	1	C2NO+
54.0338	7	C3H4N+
55.0178	5	C3H3O+
55.0542	3	C4H7+
56.0131	7	C2H2NO+
56.0495	3	C3H6N+
64.0181	7	C4H2N+
65.0385	564	C5H5+
66.0463	93	C5H6+
67.0177	2	C4H3O+
67.0416	42	C4H5N+
68.0493	3	C4H6N+
70.0288	1	C3H4NO+
74.0963	1	C4H12N+
76.0181	17	C5H2N+
78.0338	295	C5H4N+
79.0416	7	C5H5N+
80.0494	152	C5H6N+
81.0446	4	C4H5N2+
81.0573	25	C5H7N+
82.0287	59	C4H4NO+
83.0491	2	C5H7O+
89.0385	3	C2H4FN3+
90.0338	23	C6H4N+
91.0289	3	C5H3N2+
91.0415	3	CH4FN4+
92.0495	419	C6H6N+
93.0573	999	C6H7N+
95.0364	3	FH4N4O+
96.0443	51	C5H6NO+
104.0494	19	C7H6N+
105.0447	195	C6H5N2+
106.0287	46	C6H4NO+
106.0525	60	C6H6N2+
107.0603	2	C6H7N2+
108.0443	92	C6H6NO+
109.0522	43	C6H7NO+
110.06	399	C6H8NO+
117.0572	33	C8H7N+
118.0525	8	C7H6N2+
118.0649	9	C3H7FN4+
119.0239	29	C6H3N2O+
119.0604	67	C7H7N2+
120.0443	4	C2H5FN4O+
121.0396	65	C6H5N2O+
122.0599	1	C2H7FN4O+
124.0757	11	C7H10NO+
126.0549	36	C6H8NO2+
128.0494	16	C4H5FN4+
129.0447	13	C8H5N2+
130.0526	12	C8H6N2+
130.065	28	C9H8N+
131.0604	24	C8H7N2+
131.0728	7	C4H8FN4+
132.0681	15	C8H8N2+
133.0396	150	C7H5N2O+
134.0474	109	C7H6N2O+
135.0552	11	C7H7N2O+
137.0345	94	C6H5N2O2+
140.0705	1	C2H9FN4O2+
141.0572	29	C5H6FN4+
142.0525	12	C9H6N2+
143.0603	14	C9H7N2+
143.0732	1	C10H9N+
144.0443	2	C9H6NO+
144.0555	4	C8H6N3+
144.0681	4	C9H8N2+
145.0396	11	C8H5N2O+
145.076	36	C9H9N2+
146.0469	1	C8H6N2O+
147.0552	111	C8H7N2O+
151.0501	553	C7H7N2O2+
155.0602	132	C10H7N2+
156.0681	90	C10H8N2+
157.0759	35	C10H9N2+
158.0474	43	C9H6N2O+
158.0586	5	C8H6N4+
158.0713	5	C9H8N3+
158.0837	11	C10H10N2+
159.0552	18	C9H7N2O+
160.0504	11	C8H6N3O+
160.0623	1	C9H8N2O+
161.0341	1	C8H5N2O2+
165.0658	35	C8H9N2O2+
166.0523	3	C11H6N2+
167.0604	9	C11H7N2+
168.0681	95	C11H8N2+
169.0758	8	C11H9N2+
170.0713	9	C10H8N3+
171.0552	27	C10H7N2O+
171.079	16	C10H9N3+
172.0629	4	C10H8N2O+
172.0868	39	C10H10N3+
173.0582	3	C9H7N3O+
173.0708	18	C10H9N2O+
175.0503	2	C9H7N2O2+
181.0633	17	C11H7N3+
182.0477	7	C11H6N2O+
182.0711	18	C11H8N3+
183.0552	60	C11H7N2O+
184.0631	11	C11H8N2O+
185.0582	16	C10H7N3O+
185.0707	18	C11H9N2O+
186.0663	5	C10H8N3O+
187.0498	1	C10H7N2O2+
198.066	8	C11H8N3O+
199.0741	7	C11H9N3O+
200.0815	19	C11H10N3O+
201.0655	3	C11H9N2O2+
209.0583	18	C12H7N3O+
210.0661	89	C12H8N3O+
211.0501	18	C12H7N2O2+
211.0736	4	C12H9N3O+
226.0609	2	C12H8N3O2+
227.0685	1	C12H9N3O2+
228.0766	39	C12H10N3O2+
