Mass spectrum: Buspirone; LC-ESI-QFT; MS2; CE: 45; R=17500; [M+H]+
Name: Buspirone
Name: 8-[4-(4-pyrimidin-2-ylpiperazin-1-yl)butyl]-8-azaspiro[4.5]decane-7,9-dione
Formula: C21H31N5O2
Exact mass: 385.2478
SMILES: O=C1CC2(CCCC2)CC(=O)N1CCCCN1CCN(CC1)C1=NC=CC=N1
InChI: InChI=1S/C21H31N5O2/c27-18-16-21(6-1-2-7-21)17-19(28)26(18)11-4-3-10-24-12-14-25(15-13-24)20-22-8-5-9-23-20/h5,8-9H,1-4,6-7,10-17H2
Instrument: Q Exactive Orbitrap (Thermo Scientific)
Instrument type: LC-ESI-QFT
Ms type: MS2
Ion mode: POSITIVE
Ionization: ESI
Fragmentation mode: HCD
Collision energy: 45
Resolution: 17500
Column name: Acquity BEH C18 1.7um, 2.1x150mm (Waters)
Retention time: 13.245 min
Base peak: 79.0211
Precursor m/z: 386.2551
Precursor type: [M+H]+
Precursor intensity: 39776191.125
m/z	relative intensity	assigned
67.0541	2	C5H7+
72.0807	5	C4H10N+
80.0494	5	C5H6N+
81.0447	1	C4H5N2+
81.0698	4	C6H9+
95.0603	7	C5H7N2+
95.0855	7	C7H11+
96.0555	1	C4H6N3+
97.0396	1	C4H5N2O+
98.0964	24	C6H12N+
109.0648	12	C7H9O+
109.1012	22	C8H13+
110.0964	1	C7H12N+
120.0554	1	C6H6N3+
122.0712	999	C6H8N3+
123.0802	8	C8H11O+
124.112	3	C8H14N+
136.087	1	C7H10N3+
140.1069	14	C8H14NO+
148.0868	99	C8H10N3+
150.1025	123	C8H12N3+
152.1069	89	C9H14NO+
164.1058	1	C8H12N4+
165.1135	3	C8H13N4+
168.1018	53	C9H14NO2+
180.1018	43	C10H14NO2+
194.1537	1	C12H20NO+
198.1124	18	C8H14N4O2+
212.128	1	C9H16N4O2+
219.1603	2	C12H19N4+
222.1487	96	C13H20NO2+
265.1909	82	C15H25N2O2+
291.2064	5	C17H27N2O2+
343.213	7	C19H27N4O2+
386.255	114	C21H32N5O2+
