Mass spectrum: Chloranocryl; LC-ESI-QFT; MS2; CE: 15; R=17500; [M-H]-
Name: Chloranocryl
Name: N-(3,4-dichlorophenyl)-2-methylprop-2-enamide
Formula: C10H9Cl2NO
Exact mass: 229.0061
SMILES: CC(=C)C(=O)NC1=CC=C(Cl)C(Cl)=C1
InChI: InChI=1S/C10H9Cl2NO/c1-6(2)10(14)13-7-3-4-8(11)9(12)5-7/h3-5H,1H2,2H3,(H,13,14)
Instrument: Q Exactive Orbitrap (Thermo Scientific)
Instrument type: LC-ESI-QFT
Ms type: MS2
Ion mode: NEGATIVE
Ionization: ESI
Fragmentation mode: HCD
Collision energy: 15
Resolution: 17500
Column name: Acquity BEH C18 1.7um, 2.1x150mm (Waters)
Retention time: 17.863 min
Base peak: 227.999
Precursor m/z: 227.9988
Precursor type: [M-H]-
Precursor intensity: 39543709.12012
m/z	relative intensity	assigned
55.0189	11	C3H3O-
156.0455	8	C10H6NO-
159.9726	1	C6H4Cl2N-
160.9567	1	C6H3Cl2O-
185.9518	4	C7H2Cl2NO-
190.0071	1	C10H5ClNO-
192.0221	2	C10H7ClNO-
212.975	1	C9H5Cl2NO-
225.9834	7	C10H6Cl2NO-
227.9988	999	C10H8Cl2NO-
