Mass spectrum: SB236057A; LC-ESI-QFT; MS2; CE: 45; R=17500; [M+H]+
Name: SB236057A
Name: (1'-ethylspiro[6,7-dihydro-2H-furo[2,3-f]indole-3,4'-piperidine]-5-yl)-[4-[2-methyl-4-(5-methyl-1,3,4-oxadiazol-2-yl)phenyl]phenyl]methanone
Formula: C33H34N4O3
Exact mass: 534.2631
SMILES: CCN1CCC2(COC3=C2C=C2N(CCC2=C3)C(=O)C2=CC=C(C=C2)C2=CC=C(C=C2C)C2=NN=C(C)O2)CC1
InChI: InChI=1S/C33H34N4O3/c1-4-36-15-12-33(13-16-36)20-39-30-18-25-11-14-37(29(25)19-28(30)33)32(38)24-7-5-23(6-8-24)27-10-9-26(17-21(27)2)31-35-34-22(3)40-31/h5-10,17-19H,4,11-16,20H2,1-3H3
Instrument: Q Exactive Orbitrap (Thermo Scientific)
Instrument type: LC-ESI-QFT
Ms type: MS2
Ion mode: POSITIVE
Ionization: ESI
Fragmentation mode: HCD
Collision energy: 45
Resolution: 17500
Column name: Acquity BEH C18 1.7um, 2.1x150mm (Waters)
Retention time: 15.538 min
Base peak: 79.0211
Precursor m/z: 535.2704
Precursor type: [M+H]+
Precursor intensity: 13844728.5
m/z	relative intensity	assigned
55.0542	2	C4H7+
56.0494	37	C3H6N+
58.0651	203	C3H8N+
67.0541	4	C5H7+
68.0494	4	C4H6N+
69.0572	5	C4H7N+
70.065	3	C4H8N+
72.0806	10	C4H10N+
79.0542	5	C6H7+
80.0494	1	C5H6N+
81.0572	1	C5H7N+
81.0697	4	C6H9+
82.0651	18	C5H8N+
83.0239	2	C3H3N2O+
84.0807	567	C5H10N+
85.0886	6	C5H11N+
86.0964	30	C5H12N+
93.0698	1	C7H9+
94.0651	7	C6H8N+
95.0728	4	C6H9N+
96.0807	92	C6H10N+
97.0885	30	C6H11N+
98.0964	1	C6H12N+
105.0699	1	C8H9+
107.0854	2	C8H11+
108.0807	13	C7H10N+
109.0885	3	C7H11N+
110.0964	368	C7H12N+
112.112	1	C7H14N+
120.0806	3	C8H10N+
122.0964	28	C8H12N+
123.1042	26	C8H13N+
124.112	109	C8H14N+
125.1199	8	C8H15N+
134.06	1	C8H8NO+
150.1278	4	C10H16N+
158.0966	1	C11H12N+
165.0695	7	C13H9+
166.0776	2	C13H10+
171.0806	1	C12H11O+
172.0755	16	C11H10NO+
173.0835	2	C11H11NO+
174.0911	3	C11H12NO+
180.0806	3	C13H10N+
184.112	2	C13H14N+
185.0835	2	C12H11NO+
186.0912	8	C12H12NO+
187.0991	5	C12H13NO+
191.0726	3	C14H9N+
193.0647	17	C14H9O+
194.0733	1	C14H10O+
199.0059	1	C14HNO+
200.1071	7	C13H14NO+
201.1035	1	C12H13N2O+
201.1148	4	C13H15NO+
206.0963	4	C15H12N+
208.0755	6	C14H10NO+
220.0755	8	C15H10NO+
229.1335	15	C14H17N2O+
230.1414	4	C14H18N2O+
236.0704	100	C15H10NO2+
249.1022	7	C16H13N2O+
257.1646	25	C16H21N2O+
258.1724	12	C16H22N2O+
275.0808	3	C17H11N2O2+
277.097	999	C17H13N2O2+
305.1281	7	C19H17N2O2+
393.1585	2	C26H21N2O2+
409.1548	15	C26H21N2O3+
412.1647	3	C25H22N3O3+
450.1812	140	C28H24N3O3+
462.1815	11	C29H24N3O3+
476.2334	2	C31H30N3O2+
478.2113	10	C30H28N3O3+
478.2481	49	C31H32N3O2+
494.2438	19	C31H32N3O3+
507.2394	7	C31H31N4O3+
533.2548	57	C33H33N4O3+
535.2705	344	C33H35N4O3+
