Mass spectrum: Chlormezanone; LC-ESI-QFT; MS2; CE: 15; R=17500; [M-H]-
Name: Chlormezanone
Name: 2-(4-chlorophenyl)-3-methyl-1,1-dioxo-1,3-thiazinan-4-one
Formula: C11H12ClNO3S
Exact mass: 273.0226
SMILES: CN1C(C2=CC=C(Cl)C=C2)S(=O)(=O)CCC1=O
InChI: InChI=1S/C11H12ClNO3S/c1-13-10(14)6-7-17(15,16)11(13)8-2-4-9(12)5-3-8/h2-5,11H,6-7H2,1H3
Instrument: Q Exactive Orbitrap (Thermo Scientific)
Instrument type: LC-ESI-QFT
Ms type: MS2
Ion mode: NEGATIVE
Ionization: ESI
Fragmentation mode: HCD
Collision energy: 15
Resolution: 17500
Column name: Acquity BEH C18 1.7um, 2.1x150mm (Waters)
Retention time: 14.287 min
Base peak: 112.9857
Precursor m/z: 272.0154
Precursor type: [M-H]-
Precursor intensity: 300121.0439453
m/z	relative intensity	assigned
71.0503	65	C4H7O-
151.0323	32	C9H8Cl-
152.027	62	C8H7ClN-
178.0071	27	C9H5ClNO-
180.0222	914	C9H7ClNO-
208.0534	999	C11H11ClNO-
