Mass spectrum: Phenazone; LC-ESI-QFT; MS2; CE: 45; R=17500; [M+H]+
Name: Phenazone
Name: Antipyrine
Name: 1,5-dimethyl-2-phenylpyrazol-3-one
Formula: C11H12N2O
Exact mass: 188.0950
SMILES: CN1N(C(=O)C=C1C)C1=CC=CC=C1
InChI: InChI=1S/C11H12N2O/c1-9-8-11(14)13(12(9)2)10-6-4-3-5-7-10/h3-8H,1-2H3
Instrument: Q Exactive Orbitrap (Thermo Scientific)
Instrument type: LC-ESI-QFT
Ms type: MS2
Ion mode: POSITIVE
Ionization: ESI
Fragmentation mode: HCD
Collision energy: 45
Resolution: 17500
Column name: Acquity BEH C18 1.7um, 2.1x150mm (Waters)
Retention time: 12.178 min
Base peak: 79.0211
Precursor m/z: 189.1022
Precursor type: [M+H]+
Precursor intensity: 4930572.8125
m/z	relative intensity	assigned
55.0178	1	C3H3O+
55.0542	2	C4H7+
56.0495	63	C3H6N+
58.0651	62	C3H8N+
65.0385	2	C5H5+
68.0494	1	C4H6N+
69.0571	1	C4H7N+
70.0651	4	C4H8N+
77.0387	1	C6H5+
81.0447	1	C4H5N2+
86.0598	1	C4H8NO+
91.0542	12	C7H7+
92.0495	1	C6H6N+
93.0574	1	C6H7N+
94.0652	1	C6H8N+
95.049	1	C6H7O+
95.0602	2	C5H7N2+
96.0443	5	C5H6NO+
96.0682	23	C5H8N2+
98.06	6	C5H8NO+
103.0542	2	C8H7+
104.0494	39	C7H6N+
105.0334	1	C7H5O+
105.0699	3	C8H9+
106.0651	15	C7H8N+
111.0552	3	C5H7N2O+
115.0543	1	C9H7+
117.0572	4	C8H7N+
117.0699	8	C9H9+
118.0651	24	C8H8N+
120.0808	22	C8H10N+
129.0699	1	C10H9+
130.0651	26	C9H8N+
131.073	48	C9H9N+
132.0682	1	C8H8N2+
132.0808	20	C9H10N+
133.0521	4	C8H7NO+
133.076	5	C8H9N2+
134.0963	4	C9H12N+
135.0551	2	C7H7N2O+
144.0808	43	C10H10N+
145.0648	14	C10H9O+
145.075	2	C9H9N2+
145.0885	1	C10H11N+
146.0838	42	C9H10N2+
146.0963	15	C10H12N+
147.0916	61	C9H11N2+
148.0757	7	C9H10NO+
149.0711	4	C8H9N2O+
157.0523	2	C10H7NO+
158.0603	3	C10H8NO+
159.0916	1	C10H11N2+
160.0993	2	C10H12N2+
161.1073	55	C10H13N2+
172.0756	12	C11H10NO+
174.0788	32	C10H10N2O+
189.1022	999	C11H13N2O+
