Mass spectrum: Atorvastatin; LC-ESI-QFT; MS2; CE: 75; R=17500; [M+H]+
Name: Atorvastatin
Name: (3R,5R)-7-[2-(4-fluorophenyl)-3-phenyl-4-(phenylcarbamoyl)-5-propan-2-ylpyrrol-1-yl]-3,5-dihydroxyheptanoic acid
Formula: C33H35FN2O5
Exact mass: 558.2530
SMILES: CC(C)C1=C(C(=O)NC2=CC=CC=C2)C(=C(N1CC[C@@H](O)C[C@@H](O)CC(O)=O)C1=CC=C(F)C=C1)C1=CC=CC=C1
InChI: InChI=1S/C33H35FN2O5/c1-21(2)31-30(33(41)35-25-11-7-4-8-12-25)29(22-9-5-3-6-10-22)32(23-13-15-24(34)16-14-23)36(31)18-17-26(37)19-27(38)20-28(39)40/h3-16,21,26-27,37-38H,17-20H2,1-2H3,(H,35,41)(H,39,40)/t26-,27-/m1/s1
Instrument: Q Exactive Orbitrap (Thermo Scientific)
Instrument type: LC-ESI-QFT
Ms type: MS2
Ion mode: POSITIVE
Ionization: ESI
Fragmentation mode: HCD
Collision energy: 75
Resolution: 17500
Column name: Acquity BEH C18 1.7um, 2.1x150mm (Waters)
Retention time: 17.818 min
Base peak: 79.0211
Precursor m/z: 559.2603
Precursor type: [M+H]+
Precursor intensity: 5868571.875
m/z	relative intensity	assigned
51.023	3	C4H3+
53.0023	8	C3HO+
53.0386	54	C4H5+
55.0178	14	C3H3O+
55.0542	67	C4H7+
57.0335	42	C3H5O+
59.0492	13	C3H7O+
61.0285	6	C2H5O2+
65.0386	40	C5H5+
67.0543	17	C5H7+
68.9972	6	C3HO2+
69.0335	41	C4H5O+
69.0698	9	C5H9+
71.0127	41	C3H3O2+
71.0491	40	C4H7O+
73.0284	11	C3H5O2+
77.0386	16	C6H5+
79.0542	112	C6H7+
80.0495	11	C5H6N+
81.0337	8	C5H5O+
81.0699	5	C6H9+
83.0491	96	C5H7O+
89.0234	9	C3H5O3+
89.0387	2	C7H5+
91.0543	60	C7H7+
92.0495	181	C6H6N+
94.0414	4	C6H6O+
94.065	6	C6H8N+
95.0492	152	C6H7O+
97.0285	24	C5H5O2+
97.0648	11	C6H9O+
101.0598	19	C5H9O2+
103.0542	45	C8H7+
104.0495	116	C7H6N+
105.0448	59	C6H5N2+
105.0696	5	C8H9+
106.0651	15	C7H8N+
109.0448	76	C7H6F+
115.0542	174	C9H7+
116.0495	14	C8H6N+
116.0624	6	C9H8+
117.0573	75	C8H7N+
117.07	8	C9H9+
120.0445	35	C7H6NO+
121.0448	31	C8H6F+
122.0401	123	C7H5FN+
124.0565	3	C7H7FN+
124.0759	6	C7H10NO+
127.0541	16	C10H7+
128.0495	14	C9H6N+
128.062	68	C10H8+
129.0449	4	C8H5N2+
129.0699	82	C10H9+
130.0651	31	C9H8N+
132.0446	12	C8H6NO+
133.0448	140	C9H6F+
134.0402	10	C8H5FN+
134.0528	5	C9H7F+
134.06	3	C8H8NO+
135.0479	37	C8H6FN+
135.0606	5	C9H8F+
136.0559	4	C8H7FN+
140.05	7	C10H6N+
141.0701	15	C11H9+
142.0652	13	C10H8N+
142.0779	4	C11H10+
143.0493	4	C10H7O+
143.0727	20	C10H9N+
143.0858	4	C11H11+
145.0447	4	C10H6F+
145.0648	56	C10H9O+
146.0527	32	C10H7F+
146.0601	23	C9H8NO+
147.0605	41	C10H8F+
148.0559	30	C9H7FN+
152.0499	5	C11H6N+
152.0622	16	C12H8+
153.0571	5	C11H7N+
153.0699	42	C12H9+
154.0652	165	C11H8N+
155.0604	89	C10H7N2+
155.073	7	C11H9N+
155.0854	10	C12H11+
156.0809	13	C11H10N+
159.0607	12	C11H8F+
160.056	13	C10H7FN+
160.0685	2	C11H9F+
160.0756	6	C10H10NO+
161.0634	12	C10H8FN+
163.055	17	C10H8FO+
164.0507	11	C9H7FNO+
165.0696	18	C13H9+
166.0652	9	C12H8N+
167.0729	29	C12H9N+
168.0811	7	C12H10N+
169.0647	3	C12H9O+
170.053	4	C12H7F+
170.0598	14	C11H8NO+
171.0481	6	C11H6FN+
171.0607	14	C12H8F+
172.0557	107	C11H7FN+
172.0755	30	C11H10NO+
173.051	36	C10H6FN2+
173.0639	7	C11H8FN+
174.0713	12	C11H9FN+
177.0704	7	C14H9+
178.0656	9	C13H8N+
178.0777	4	C14H10+
179.0854	5	C14H11+
180.0563	6	C13H8O+
180.0808	39	C13H10N+
181.0887	6	C13H11N+
182.0964	8	C13H12N+
183.0607	26	C13H8F+
184.0557	3	C12H7FN+
185.0633	21	C12H8FN+
185.0763	4	C13H10F+
186.0709	3	C12H9FN+
189.0702	12	C15H9+
190.0663	18	C11H9FNO+
191.0734	2	C14H9N+
191.0857	4	C15H11+
192.0808	7	C14H10N+
194.0967	5	C14H12N+
196.0685	25	C14H9F+
197.0764	7	C14H10F+
198.0715	31	C13H9FN+
199.0798	5	C13H10FN+
200.0874	13	C13H11FN+
202.0777	113	C16H10+
203.0856	146	C16H11+
204.0806	6	C15H10N+
206.097	5	C15H12N+
207.0607	10	C15H8F+
208.0679	21	C15H9F+
209.0762	178	C15H10F+
210.0714	4	C14H9FN+
210.0834	4	C15H11F+
211.0798	13	C14H10FN+
211.0906	3	C15H12F+
212.0871	3	C14H11FN+
213.0701	2	C17H9+
215.0855	9	C17H11+
217.0888	37	C16H11N+
218.0964	27	C16H12N+
219.0807	5	C16H11O+
220.0681	49	C16H9F+
221.0761	73	C16H10F+
222.0714	65	C15H9FN+
222.084	52	C16H11F+
223.0794	16	C15H10FN+
223.0918	46	C16H12F+
224.0875	9	C15H11FN+
226.0783	3	C18H10+
227.0734	5	C17H9N+
227.0856	4	C18H11+
228.081	21	C17H10N+
229.0765	5	C16H9N2+
229.0886	14	C17H11N+
229.1005	5	C18H13+
230.0966	149	C17H12N+
233.0762	382	C17H10F+
234.0714	14	C16H9FN+
234.0841	31	C17H11F+
235.0793	433	C16H10FN+
236.087	74	C16H11FN+
237.0714	12	C16H10FO+
237.095	87	C16H12FN+
238.1027	80	C16H13FN+
239.0854	10	C19H11+
241.0886	10	C18H11N+
242.0963	11	C18H12N+
243.1047	4	C18H13N+
246.0726	14	C17H9FN+
246.0836	17	C18H11F+
247.0666	3	C16H8FN2+
247.0793	9	C17H10FN+
247.0915	13	C18H12F+
248.0871	655	C17H11FN+
249.0949	326	C17H12FN+
250.1027	999	C17H13FN+
251.1109	5	C17H14FN+
252.1188	13	C17H15FN+
254.0962	6	C19H12N+
255.104	4	C19H13N+
256.1125	9	C19H14N+
257.0763	8	C19H10F+
258.0843	8	C19H11F+
259.0789	11	C18H10FN+
259.0921	27	C19H12F+
260.0869	47	C18H11FN+
260.1007	4	C19H13F+
261.0949	177	C18H12FN+
262.1027	186	C18H13FN+
263.0743	6	C17H10FNO+
263.1103	38	C18H14FN+
264.0821	65	C17H11FNO+
264.1184	69	C18H15FN+
270.0843	5	C20H11F+
272.0866	18	C19H11FN+
274.1026	140	C19H13FN+
275.0745	5	C18H10FNO+
275.1106	43	C19H14FN+
276.0825	71	C18H11FNO+
276.1183	478	C19H15FN+
277.0885	4	C21H11N+
277.1264	10	C19H16FN+
278.0979	5	C18H13FNO+
278.1344	7	C19H17FN+
281.0844	3	C17H12FNO2+
285.0939	4	C20H12FN+
285.109	3	C21H14F+
286.1026	22	C20H13FN+
287.1107	19	C20H14FN+
288.1185	66	C20H15FN+
289.1264	15	C20H16FN+
290.0982	12	C19H13FNO+
290.1339	38	C20H17FN+
291.1049	5	C19H14FNO+
292.1498	5	C20H19FN+
298.102	3	C21H13FN+
299.1106	3	C21H14FN+
300.118	38	C21H15FN+
301.1264	10	C21H16FN+
302.0986	16	C20H13FNO+
302.1342	66	C21H17FN+
303.1425	9	C21H18FN+
304.1129	8	C20H15FNO+
304.1495	6	C21H19FN+
306.129	5	C20H17FNO+
316.1499	4	C22H19FN+
318.1289	8	C21H17FNO+
318.1649	3	C22H21FN+
320.108	10	C20H15FNO2+
362.1555	6	C23H21FNO2+
