Mass spectrum: Ethiofencarb; LC-ESI-QFT; MS2; CE: 60; R=17500; [M+H]+
Name: Ethiofencarb
Name: [2-(ethylsulfanylmethyl)phenyl] N-methylcarbamate
Formula: C11H15NO2S
Exact mass: 225.0823
SMILES: CCSCC1=C(OC(=O)NC)C=CC=C1
InChI: InChI=1S/C11H15NO2S/c1-3-15-8-9-6-4-5-7-10(9)14-11(13)12-2/h4-7H,3,8H2,1-2H3,(H,12,13)
Instrument: Q Exactive Orbitrap (Thermo Scientific)
Instrument type: LC-ESI-QFT
Ms type: MS2
Ion mode: POSITIVE
Ionization: ESI
Fragmentation mode: HCD
Collision energy: 60
Resolution: 17500
Column name: Acquity BEH C18 1.7um, 2.1x150mm (Waters)
Retention time: 15.974 min
Base peak: 79.0212
Precursor m/z: 226.0896
Precursor type: [M+H]+
Precursor intensity: 2198762.3125
m/z	relative intensity	assigned
57.07	70	C4H9+
86.0349	999	C4H6O2+
91.0541	85	C7H7+
92.0496	28	C6H6N+
93.0573	41	C6H7N+
96.0556	214	C6H8O+
99.0665	112	C5H9NO+
100.0506	774	C5H8O2+
106.0652	55	C7H8N+
107.0494	37	C7H7O+
108.081	51	C7H10N+
110.0713	90	C7H10O+
114.0663	262	C6H10O2+
120.0021	44	C7H4S+
120.0809	56	C8H10N+
128.0817	110	C7H12O2+
138.0124	527	C7H6OS+
152.0282	127	C8H8OS+
156.023	455	C7H8O2S+
166.0078	112	C8H6O2S+
170.0389	84	C8H10O2S+
