Mass spectrum: Probenecid; LC-ESI-QFT; MS2; CE: 90; R=17500; [M-H]-
Name: Probenecid
Name: 4-(dipropylsulfamoyl)benzoic acid
Formula: C13H19NO4S
Exact mass: 285.1035
SMILES: CCCN(CCC)S(=O)(=O)C1=CC=C(C=C1)C(O)=O
InChI: InChI=1S/C13H19NO4S/c1-3-9-14(10-4-2)19(17,18)12-7-5-11(6-8-12)13(15)16/h5-8H,3-4,9-10H2,1-2H3,(H,15,16)
Instrument: Q Exactive Orbitrap (Thermo Scientific)
Instrument type: LC-ESI-QFT
Ms type: MS2
Ion mode: NEGATIVE
Ionization: ESI
Fragmentation mode: HCD
Collision energy: 90
Resolution: 17500
Column name: Acquity BEH C18 1.7um, 2.1x150mm (Waters)
Retention time: 17.130 min
Base peak: 284.0962
Precursor m/z: 284.0962
Precursor type: [M-H]-
Precursor intensity: 29002645.34961
m/z	relative intensity	assigned
62.0162	4	C5H2-
63.024	13	C5H3-
63.9624	999	O2S-
64.9703	698	HO2S-
66.0111	1	C4H2O-
67.019	9	C4H3O-
69.0347	1	C4H5O-
79.019	4	C5H3O-
79.9574	17	O3S-
82.0061	1	C4H2O2-
89.0033	8	C6HO-
90.0111	1	C6H2O-
91.0189	157	C6H3O-
92.0268	2	C6H4O-
93.0346	2	C6H5O-
95.0139	13	C5H3O2-
108.0217	13	C6H4O2-
123.0087	1	C6H3O3-
139.9938	11	C6H4O2S-
155.989	2	C6H4O3S-
164.0753	1	C6H14NO2S-
