Mass spectrum: Mepanipyrim; LC-ESI-QFT; MS2; CE: 30; R=17500; [M+H]+
Name: Mepanipyrim
Name: 4-methyl-N-phenyl-6-prop-1-ynylpyrimidin-2-amine
Formula: C14H13N3
Exact mass: 223.1109
SMILES: CC#CC1=CC(C)=NC(NC2=CC=CC=C2)=N1
InChI: InChI=1S/C14H13N3/c1-3-7-13-10-11(2)15-14(17-13)16-12-8-5-4-6-9-12/h4-6,8-10H,1-2H3,(H,15,16,17)
Instrument: Q Exactive Orbitrap (Thermo Scientific)
Instrument type: LC-ESI-QFT
Ms type: MS2
Ion mode: POSITIVE
Ionization: ESI
Fragmentation mode: HCD
Collision energy: 30
Resolution: 17500
Column name: Acquity BEH C18 1.7um, 2.1x150mm (Waters)
Retention time: 17.957 min
Base peak: 79.0211
Precursor m/z: 224.1182
Precursor type: [M+H]+
Precursor intensity: 52935210.3125
m/z	relative intensity	assigned
106.0651	2	C7H8N+
131.0602	2	C8H7N2+
148.112	2	C10H14N+
183.0918	2	C12H11N2+
207.0916	1	C14H11N2+
208.0871	1	C13H10N3+
209.0949	3	C13H11N3+
224.1181	999	C14H14N3+
