Mass spectrum: Decanedioic acid; LC-ESI-QFT; MS2; CE: 60; R=17500; [M-H]-
Name: Decanedioic acid
Name: Sebacic acid
Formula: C10H18O4
Exact mass: 202.1205
SMILES: OC(=O)CCCCCCCCC(O)=O
InChI: InChI=1S/C10H18O4/c11-9(12)7-5-3-1-2-4-6-8-10(13)14/h1-8H2,(H,11,12)(H,13,14)
Instrument: Q Exactive Orbitrap (Thermo Scientific)
Instrument type: LC-ESI-QFT
Ms type: MS2
Ion mode: NEGATIVE
Ionization: ESI
Fragmentation mode: HCD
Collision energy: 60
Resolution: 17500
Column name: Acquity BEH C18 1.7um, 2.1x150mm (Waters)
Retention time: 15.858 min
Base peak: 201.1133
Precursor m/z: 201.1132
Precursor type: [M-H]-
Precursor intensity: 31375866.20068
m/z	relative intensity	assigned
55.0189	5	C3H3O-
57.0345	259	C3H5O-
59.0137	2	C2H3O2-
69.0346	21	C4H5O-
71.0503	29	C4H7O-
80.0267	17	C5H4O-
81.0345	6	C5H5O-
83.0502	30	C5H7O-
85.0658	4	C5H9O-
97.0658	5	C6H9O-
109.0659	5	C7H9O-
111.0815	204	C7H11O-
123.0814	7	C8H11O-
137.0972	131	C9H13O-
139.1128	999	C9H15O-
141.0919	2	C8H13O2-
157.1233	13	C9H17O2-
183.1026	162	C10H15O3-
201.1132	41	C10H17O4-
