Mass spectrum: 1-(2-Hydroxyethyl)pyrrolidin-2-one; LC-ESI-QFT; MS2; CE: 45; R=17500; [M+H]+
Name: 1-(2-Hydroxyethyl)pyrrolidin-2-one
Formula: C6H11NO2
Exact mass: 129.0790
SMILES: OCCN1CCCC1=O
InChI: InChI=1S/C6H11NO2/c8-5-4-7-3-1-2-6(7)9/h8H,1-5H2
Instrument: Q Exactive Orbitrap (Thermo Scientific)
Instrument type: LC-ESI-QFT
Ms type: MS2
Ion mode: POSITIVE
Ionization: ESI
Fragmentation mode: HCD
Collision energy: 45
Resolution: 17500
Column name: Acquity BEH C18 1.7um, 2.1x150mm (Waters)
Retention time: 4.089 min
Base peak: 79.0211
Precursor m/z: 130.0863
Precursor type: [M+H]+
Precursor intensity: 2845450
m/z	relative intensity	assigned
53.0024	2	C3HO+
56.0496	4	C3H6N+
57.07	1	C4H9+
67.0542	5	C5H7+
69.0335	250	C4H5O+
69.0698	40	C5H9+
71.0491	6	C4H7O+
72.0443	1	C3H6NO+
82.0651	12	C5H8N+
84.0808	142	C5H10N+
94.0653	7	C6H8N+
95.049	1	C6H7O+
112.0757	999	C6H10NO+
130.0863	297	C6H12NO2+
