Mass spectrum: PharmaGSID_47261; LC-ESI-QFT; MS2; CE: 90; R=17500; [M+H]+
Name: PharmaGSID_47261
Name: (2S,3S)-3-methyl-2-(3-oxo-1,2-benzothiazol-2-yl)pentanoic acid
Formula: C13H15NO3S
Exact mass: 265.0773
SMILES: CC[C@H](C)[C@H](N1SC2=CC=CC=C2C1=O)C(O)=O
InChI: InChI=1S/C13H15NO3S/c1-3-8(2)11(13(16)17)14-12(15)9-6-4-5-7-10(9)18-14/h4-8,11H,3H2,1-2H3,(H,16,17)/t8-,11-/m0/s1
Instrument: Q Exactive Orbitrap (Thermo Scientific)
Instrument type: LC-ESI-QFT
Ms type: MS2
Ion mode: POSITIVE
Ionization: ESI
Fragmentation mode: HCD
Collision energy: 90
Resolution: 17500
Column name: Acquity BEH C18 1.7um, 2.1x150mm (Waters)
Retention time: 16.648 min
Base peak: 79.0211
Precursor m/z: 266.0845
Precursor type: [M+H]+
Precursor intensity: 9695838.5625
m/z	relative intensity	assigned
53.0022	136	C3HO+
53.0387	15	C4H5+
53.9975	21	C2NO+
55.0179	5	C3H3O+
55.0543	27	C4H7+
59.0492	15	C3H7O+
65.0385	22	C5H5+
67.0542	20	C5H7+
67.9892	2	C3O2+
69.0699	339	C5H9+
73.0648	22	C4H9O+
80.0495	55	C5H6N+
90.0339	20	C6H4N+
95.0492	13	C6H7O+
105.0336	168	C7H5O+
108.0029	25	C6H4S+
109.0107	447	C6H5S+
111.0264	23	C6H7S+
124.0215	9	C6H6NS+
134.0059	137	C7H4NS+
135.9978	126	C7H4OS+
137.0056	29	C7H5OS+
151.0089	2	C7H5NOS+
152.0165	999	C7H6NOS+
154.0085	2	C7H6O2S+
159.0427	10	C10H7O2+
164.0165	28	C8H6NOS+
166.0321	5	C8H8NOS+
191.0146	12	C10H7O2S+
192.0223	1	C10H8O2S+
