Mass spectrum: Prednisone; LC-ESI-QFT; MS2; CE: 15; R=17500; [M+H]+
Name: Prednisone
Name: (8S,9S,10R,13S,14S,17R)-17-hydroxy-17-(2-hydroxyacetyl)-10,13-dimethyl-6,7,8,9,12,14,15,16-octahydrocyclopenta[a]phenanthrene-3,11-dione
Formula: C21H26O5
Exact mass: 358.1780
SMILES: C[C@]12CC(=O)[C@H]3[C@@H](CCC4=CC(=O)C=C[C@]34C)[C@@H]1CC[C@]2(O)C(=O)CO
InChI: InChI=1S/C21H26O5/c1-19-7-5-13(23)9-12(19)3-4-14-15-6-8-21(26,17(25)11-22)20(15,2)10-16(24)18(14)19/h5,7,9,14-15,18,22,26H,3-4,6,8,10-11H2,1-2H3/t14-,15-,18+,19-,20-,21-/m0/s1
Instrument: Q Exactive Orbitrap (Thermo Scientific)
Instrument type: LC-ESI-QFT
Ms type: MS2
Ion mode: POSITIVE
Ionization: ESI
Fragmentation mode: HCD
Collision energy: 15
Resolution: 17500
Column name: Acquity BEH C18 1.7um, 2.1x150mm (Waters)
Retention time: 15.437 min
Base peak: 79.0211
Precursor m/z: 359.1853
Precursor type: [M+H]+
Precursor intensity: 5770998.25
m/z	relative intensity	assigned
93.0699	27	C7H9+
95.0491	6	C6H7O+
95.0857	4	C7H11+
97.0646	3	C6H9O+
101.0597	14	C5H9O2+
107.0855	12	C8H11+
109.0647	13	C7H9O+
111.0802	7	C7H11O+
119.0855	6	C9H11+
121.0649	9	C8H9O+
123.0804	8	C8H11O+
125.096	3	C8H13O+
135.0804	28	C9H11O+
137.0595	3	C8H9O2+
137.0962	33	C9H13O+
139.0754	12	C8H11O2+
147.0804	160	C10H11O+
153.0911	24	C9H13O2+
155.0702	4	C8H11O3+
159.0804	32	C11H11O+
161.0961	37	C11H13O+
163.0753	14	C10H11O2+
165.0914	13	C10H13O2+
171.0804	58	C12H11O+
173.0961	26	C12H13O+
177.091	6	C11H13O2+
181.086	35	C10H13O3+
183.1016	50	C10H15O3+
185.0599	3	C12H9O2+
185.0962	7	C13H13O+
187.0754	26	C12H11O2+
187.1117	6	C13H15O+
189.0912	4	C12H13O2+
197.0962	43	C14H13O+
199.1119	15	C14H15O+
203.1068	3	C13H15O2+
209.0966	17	C15H13O+
211.1119	13	C15H15O+
213.0911	5	C14H13O2+
213.1275	71	C15H17O+
215.1068	7	C14H15O2+
221.0961	9	C16H13O+
223.1124	18	C16H15O+
225.091	5	C15H13O2+
225.1275	16	C16H17O+
227.1061	5	C15H15O2+
227.1425	3	C16H19O+
235.1117	14	C17H15O+
237.1275	139	C17H17O+
239.1068	44	C16H15O2+
239.1428	15	C17H19O+
241.1223	6	C16H17O2+
249.1275	6	C18H17O+
251.1434	7	C18H19O+
253.1224	63	C17H17O2+
253.1588	12	C18H21O+
255.1382	38	C17H19O2+
255.1739	7	C18H23O+
261.1274	51	C19H17O+
263.1432	65	C19H19O+
264.1507	6	C19H20O+
265.1224	9	C18H17O2+
265.1588	130	C19H21O+
267.138	197	C18H19O2+
267.1732	17	C19H23O+
275.143	12	C20H19O+
277.1589	73	C20H21O+
279.1378	18	C19H19O2+
281.1537	46	C19H21O2+
283.1696	52	C19H23O2+
287.1434	42	C21H19O+
293.154	40	C20H21O2+
295.1694	291	C20H23O2+
297.1484	21	C19H21O3+
305.1537	194	C21H21O2+
311.1642	61	C20H23O3+
313.1799	387	C20H25O3+
323.1643	379	C21H23O3+
341.1749	923	C21H25O4+
359.1855	999	C21H27O5+
