Mass spectrum: 4-Chlorophenylurea; LC-ESI-QFT; MS2; CE: 30; R=17500; [M+H]+
Name: 4-Chlorophenylurea
Name: (4-chlorophenyl)urea
Formula: C7H7ClN2O
Exact mass: 170.0247
SMILES: NC(=O)NC1=CC=C(Cl)C=C1
InChI: InChI=1S/C7H7ClN2O/c8-5-1-3-6(4-2-5)10-7(9)11/h1-4H,(H3,9,10,11)
Instrument: Q Exactive Orbitrap (Thermo Scientific)
Instrument type: LC-ESI-QFT
Ms type: MS2
Ion mode: POSITIVE
Ionization: ESI
Fragmentation mode: HCD
Collision energy: 30
Resolution: 17500
Column name: Acquity BEH C18 1.7um, 2.1x150mm (Waters)
Retention time: 1.016 min
Base peak: 79.0212
Precursor m/z: 171.032
Precursor type: [M+H]+
Precursor intensity: 2230584.15625
m/z	relative intensity	assigned
55.0543	15	C4H7+
72.0444	351	C3H6NO+
73.0284	16	ClH8NO+
114.971	63	C3ClN2O+
128.9866	85	C4H2ClN2O+
139.007	10	C6H4ClN2+
143.0024	94	C5H4ClN2O+
152.9867	8	C6H2ClN2O+
155.0024	54	C6H4ClN2O+
157.0179	999	C6H6ClN2O+
