Mass spectrum: Isazofos; LC-ESI-QFT; MS2; CE: 75; R=17500; [M+H]+
Name: Isazofos
Name: (5-chloro-1-propan-2-yl-1,2,4-triazol-3-yl)oxy-diethoxy-sulfanylidene-lambda5-phosphane
Formula: C9H17ClN3O3PS
Exact mass: 313.0417
SMILES: CCOP(=S)(OCC)OC1=NN(C(C)C)C(Cl)=N1
InChI: InChI=1S/C9H17ClN3O3PS/c1-5-14-17(18,15-6-2)16-9-11-8(10)13(12-9)7(3)4/h7H,5-6H2,1-4H3
Instrument: Q Exactive Orbitrap (Thermo Scientific)
Instrument type: LC-ESI-QFT
Ms type: MS2
Ion mode: POSITIVE
Ionization: ESI
Fragmentation mode: HCD
Collision energy: 75
Resolution: 17500
Column name: Acquity BEH C18 1.7um, 2.1x150mm (Waters)
Retention time: 17.724 min
Base peak: 79.0211
Precursor m/z: 314.049
Precursor type: [M+H]+
Precursor intensity: 15245750.5
m/z	relative intensity	assigned
53.0023	3	C3HO+
59.024	1	CH3N2O+
61.9791	2	HNOP+
64.9786	26	H2O2P+
75.0011	7	CH3N2S+
76.99	46	CH2ClN2+
77.9979	3	CH3ClN2+
78.9401	2	OPS+
78.9943	1	CH4O2P+
84.0192	29	C2H2N3O+
92.001	18	CH3ClN3+
96.9508	22	H2O2PS+
98.9842	2	CH4ClO3+
102.9693	51	C2ClN2O+
109.0048	1	C2H6O3P+
110.9663	1	CH4O2PS+
112.9997	2	C2H6ClO3+
114.9613	832	H4O3PS+
116.9657	2	C4H3ClP+
119.9959	999	C2H3ClN3O+
120.9795	3	CH2N2O3P+
124.9819	1	C2H6O2PS+
128.9769	29	CH6O3PS+
132.9718	7	C3H3ClN2P+
134.9956	2	C3H4ClN2O2+
135.973	76	C2H3ClN3S+
146.9874	7	C4H5ClN2P+
148.0272	4	C4H7ClN3O+
162.043	1	C5H9ClN3O+
215.9387	1	C6HClN2O3S+
