Mass spectrum: Difenoconazole; LC-ESI-QFT; MS2; CE: 60; R=17500; [M+H]+
Name: Difenoconazole
Formula: C19H17Cl2N3O3
Exact mass: 405.0647
SMILES: CC1COC(CN2C=NC=N2)(O1)C1=C(Cl)C=C(OC2=CC=C(Cl)C=C2)C=C1
InChI: InChI=1S/C19H17Cl2N3O3/c1-13-9-25-19(27-13,10-24-12-22-11-23-24)17-7-6-16(8-18(17)21)26-15-4-2-14(20)3-5-15/h2-8,11-13H,9-10H2,1H3
Instrument: Q Exactive Orbitrap (Thermo Scientific)
Instrument type: LC-ESI-QFT
Ms type: MS2
Ion mode: POSITIVE
Ionization: ESI
Fragmentation mode: HCD
Collision energy: 60
Resolution: 17500
Column name: Acquity BEH C18 1.7um, 2.1x150mm (Waters)
Retention time: 18.993 min
Base peak: 79.0211
Precursor m/z: 406.072
Precursor type: [M+H]+
Precursor intensity: 9166818.125
m/z	relative intensity	assigned
51.023	1	C4H3+
53.0022	3	C3HO+
70.0399	9	C2H4N3+
72.0808	1	C4H10N+
75.0229	7	C6H3+
77.0386	1	C6H5+
79.0179	2	C5H3O+
84.0556	1	C3H6N3+
86.9996	12	C4H4Cl+
88.9788	2	C3H2ClO+
93.0335	1	C6H5O+
98.9996	4	C5H4Cl+
103.0541	2	C8H7+
105.0334	1	C7H5O+
110.9992	7	C6H4Cl+
111.044	4	C6H7O2+
115.0543	2	C9H7+
116.0621	1	C9H8+
117.0699	2	C9H9+
125.0154	2	C7H6Cl+
126.9947	4	C6H4ClO+
128.0618	3	C10H8+
129.0102	38	C6H6ClO+
129.0699	39	C10H9+
139.0058	70	C6H4ClN2+
140.0027	1	C4H8Cl2N+
141.0102	81	C7H6ClO+
149.0154	3	C9H6Cl+
151.0313	1	C9H8Cl+
152.0621	169	C12H8+
153.0699	100	C12H9+
163.0309	2	C10H8Cl+
164.0386	7	C10H9Cl+
169.0649	6	C12H9O+
173.0154	1	C11H6Cl+
179.0256	1	C10H8ClO+
179.0607	4	C12H7N2+
180.0568	2	C13H8O+
181.0648	95	C13H9O+
182.9765	5	C9H5Cl2+
187.031	127	C12H8Cl+
188.0388	465	C12H9Cl+
202.0182	11	C12H7ClO+
208.9921	6	C11H7Cl2+
215.026	52	C13H8ClO+
215.0368	4	C12H8ClN2+
216.0337	33	C13H9ClO+
221.0957	1	C16H13O+
223.0077	223	C12H9Cl2+
228.0336	2	C14H9ClO+
232.9921	1	C13H7Cl2+
236.9868	1	C12H7Cl2O+
251.0025	999	C13H9Cl2O+
261.9954	4	C14H8Cl2O+
263.0026	2	C14H9Cl2O+
264.9818	134	C13H7Cl2O2+
273.032	3	C19H3N3+
291.0343	2	C16H13Cl2O+
