Mass spectrum: Lauryldiethanolamine; LC-ESI-QFT; MS2; CE: 60; R=17500; [M+H]+
Name: Lauryldiethanolamine
Name: 2-[dodecyl(2-hydroxyethyl)amino]ethanol
Formula: C16H35NO2
Exact mass: 273.2668
SMILES: CCCCCCCCCCCCN(CCO)CCO
InChI: InChI=1S/C16H35NO2/c1-2-3-4-5-6-7-8-9-10-11-12-17(13-15-18)14-16-19/h18-19H,2-16H2,1H3
Instrument: Q Exactive Orbitrap (Thermo Scientific)
Instrument type: LC-ESI-QFT
Ms type: MS2
Ion mode: POSITIVE
Ionization: ESI
Fragmentation mode: HCD
Collision energy: 60
Resolution: 17500
Column name: Acquity BEH C18 1.7um, 2.1x150mm (Waters)
Retention time: 17.298 min
Base peak: 79.0211
Precursor m/z: 274.2741
Precursor type: [M+H]+
Precursor intensity: 40345777
m/z	relative intensity	assigned
53.0022	45	C3HO+
53.9975	7	C2NO+
55.0417	1	C3H5N+
55.0543	16	C4H7+
56.0495	4	C3H6N+
57.0699	652	C4H9+
58.0651	50	C3H8N+
60.0444	10	C2H6NO+
62.06	33	C2H8NO+
67.9893	5	C3O2+
68.0495	18	C4H6N+
69.0698	8	C5H9+
70.0651	999	C4H8N+
71.0855	218	C5H11+
72.0807	5	C4H10N+
74.0601	7	C3H8NO+
83.0854	1	C6H11+
84.0808	3	C5H10N+
85.1012	47	C6H13+
86.0601	13	C4H8NO+
88.0757	960	C4H10NO+
102.0914	231	C5H12NO+
104.0706	2	C4H10NO2+
106.0863	293	C4H12NO2+
212.2373	14	C14H30N+
230.2479	21	C14H32NO+
256.2635	64	C16H34NO+
274.2741	109	C16H36NO2+
