Mass spectrum: Etoxazole; LC-ESI-QFT; MS2; CE: 75; R=17500; [M+H]+
Name: Etoxazole
Name: 4-(4-tert-butyl-2-ethoxyphenyl)-2-(2,6-difluorophenyl)-4,5-dihydro-1,3-oxazole
Formula: C21H23F2NO2
Exact mass: 359.1697
SMILES: CCOC1=C(C=CC(=C1)C(C)(C)C)C1COC(=N1)C1=C(F)C=CC=C1F
InChI: InChI=1S/C21H23F2NO2/c1-5-25-18-11-13(21(2,3)4)9-10-14(18)17-12-26-20(24-17)19-15(22)7-6-8-16(19)23/h6-11,17H,5,12H2,1-4H3
Instrument: Q Exactive Orbitrap (Thermo Scientific)
Instrument type: LC-ESI-QFT
Ms type: MS2
Ion mode: POSITIVE
Ionization: ESI
Fragmentation mode: HCD
Collision energy: 75
Resolution: 17500
Column name: Acquity BEH C18 1.7um, 2.1x150mm (Waters)
Retention time: 19.911 min
Base peak: 79.0212
Precursor m/z: 360.177
Precursor type: [M+H]+
Precursor intensity: 138902027.5313
m/z	relative intensity	assigned
53.0022	4	C3HO+
56.0494	2	C3H6N+
57.0699	96	C4H9+
63.0229	19	C5H3+
69.0135	1	C4H2F+
79.0542	1	C6H7+
83.0291	2	C5H4F+
89.0197	2	C4H3F2+
91.0542	47	C7H7+
93.0134	1	C6H2F+
93.0698	1	C7H9+
95.0491	1	C6H7O+
97.0084	4	C5H2FO+
103.0541	2	C8H7+
105.0698	1	C8H9+
107.0492	2	C7H7O+
109.0283	1	C6H5O2+
111.0241	13	C6H4FO+
113.0196	13	C6H3F2+
117.0146	1	C5H3F2O+
117.07	2	C9H9+
119.0491	5	C8H7O+
119.0855	3	C9H11+
121.0649	3	C8H9O+
127.0353	2	C7H5F2+
129.0699	2	C10H9+
131.0303	14	C6H5F2O+
131.049	3	C9H7O+
131.0856	3	C10H11+
133.0649	1	C9H9O+
134.0599	1	C8H8NO+
140.0308	6	C7H4F2N+
141.0148	999	C7H3F2O+
144.0929	2	C11H12+
145.0647	1	C10H9O+
147.0803	5	C10H11O+
148.0303	2	C12H4+
158.041	3	C7H6F2NO+
159.0805	10	C11H11O+
159.1164	1	C12H15+
161.0957	1	C11H13O+
162.1039	3	C11H14O+
173.096	3	C12H13O+
177.1274	1	C12H17O+
204.1382	3	C13H18NO+
