Mass spectrum: Indole-3-acetic acid; LC-ESI-QFT; MS2; CE: 45; R=17500; [M-H]-
Name: Indole-3-acetic acid
Name: 2-(1H-indol-3-yl)acetic acid
Formula: C10H9NO2
Exact mass: 175.0633
SMILES: OC(=O)CC1=CNC2=C1C=CC=C2
InChI: InChI=1S/C10H9NO2/c12-10(13)5-7-6-11-9-4-2-1-3-8(7)9/h1-4,6,11H,5H2,(H,12,13)
Instrument: Q Exactive Orbitrap (Thermo Scientific)
Instrument type: LC-ESI-QFT
Ms type: MS2
Ion mode: NEGATIVE
Ionization: ESI
Fragmentation mode: HCD
Collision energy: 45
Resolution: 17500
Column name: Acquity BEH C18 1.7um, 2.1x150mm (Waters)
Retention time: 14.046 min
Base peak: 175.04
Precursor m/z: 174.0561
Precursor type: [M-H]-
Precursor intensity: 34083810.19482
m/z	relative intensity	assigned
89.0397	20	C7H5-
95.0502	16	C6H7O-
103.0552	22	C8H7-
105.0345	11	C7H5O-
107.0502	24	C7H7O-
109.0295	30	C6H5O2-
119.0503	113	C8H7O-
123.0452	88	C7H7O2-
130.0423	49	C9H6O-
130.0662	32	C9H8N-
131.0502	999	C9H7O-
133.0295	888	C8H5O2-
147.0452	570	C9H7O2-
