Mass spectrum: 4-Methylphthalic anhydride; LC-ESI-QFT; MS2; CE: 15; R=17500; [M+H]+
Name: 4-Methylphthalic anhydride
Name: 5-methyl-2-benzofuran-1,3-dione
Formula: C9H6O3
Exact mass: 162.0317
SMILES: CC1=CC2=C(C=C1)C(=O)OC2=O
InChI: InChI=1S/C9H6O3/c1-5-2-3-6-7(4-5)9(11)12-8(6)10/h2-4H,1H3
Instrument: Q Exactive Orbitrap (Thermo Scientific)
Instrument type: LC-ESI-QFT
Ms type: MS2
Ion mode: POSITIVE
Ionization: ESI
Fragmentation mode: HCD
Collision energy: 15
Resolution: 17500
Column name: Acquity BEH C18 1.7um, 2.1x150mm (Waters)
Retention time: 16.611 min
Base peak: 79.0212
Precursor m/z: 163.039
Precursor type: [M+H]+
Precursor intensity: 2017065
m/z	relative intensity	assigned
53.0386	2	C4H5+
77.0387	1	C6H5+
79.0542	4	C6H7+
92.0256	1	C6H4O+
95.0492	6	C6H7O+
105.0335	20	C7H5O+
107.049	1	C7H7O+
133.0284	65	C8H5O2+
135.0441	50	C8H7O2+
163.039	999	C9H7O3+
