Mass spectrum: N-(4-Methoxyphenyl)-3-oxobutanamide; LC-ESI-QFT; MS2; CE: 60; R=17500; [M+H]+
Name: N-(4-Methoxyphenyl)-3-oxobutanamide
Name: 4'-Methoxyacetoacetanilide
Formula: C11H13NO3
Exact mass: 207.0895
SMILES: COC1=CC=C(NC(=O)CC(C)=O)C=C1
InChI: InChI=1S/C11H13NO3/c1-8(13)7-11(14)12-9-3-5-10(15-2)6-4-9/h3-6H,7H2,1-2H3,(H,12,14)
Instrument: Q Exactive Orbitrap (Thermo Scientific)
Instrument type: LC-ESI-QFT
Ms type: MS2
Ion mode: POSITIVE
Ionization: ESI
Fragmentation mode: HCD
Collision energy: 60
Resolution: 17500
Column name: Acquity BEH C18 1.7um, 2.1x150mm (Waters)
Retention time: 12.857 min
Base peak: 79.0211
Precursor m/z: 208.0968
Precursor type: [M+H]+
Precursor intensity: 1989522.375
m/z	relative intensity	assigned
59.0492	115	C3H7O+
65.0385	4	C5H5+
81.0574	10	C5H7N+
85.0285	151	C4H5O2+
92.0495	139	C6H6N+
93.0574	177	C6H7N+
94.0652	10	C6H8N+
95.0492	21	C6H7O+
108.044	3	C6H6NO+
109.0523	86	C6H7NO+
110.0601	10	C6H8NO+
121.0649	31	C8H9O+
122.0601	337	C7H8NO+
123.0678	16	C7H9NO+
124.0758	999	C7H10NO+
125.0599	4	C7H9O2+
148.0758	57	C9H10NO+
150.055	49	C8H8NO2+
