Mass spectrum: PharmaGSID_47263; LC-ESI-QFT; MS2; CE: 15; R=17500; [M+H]+
Name: PharmaGSID_47263
Name: 1-Ethyl-5-(4-hydroxyphenyl)-3-methyl-6,7-dihydropyrazolo(4,3-E)(1,4)diazepin-8(1H)-one
Name: 1-ethyl-5-(4-hydroxyphenyl)-3-methyl-6,7-dihydropyrazolo[4,3-e][1,4]diazepin-8-one
Formula: C15H16N4O2
Exact mass: 284.1273
SMILES: CCN1N=C(C)C2=C1C(=O)NCC(=N2)C1=CC=C(O)C=C1
InChI: InChI=1S/C15H16N4O2/c1-3-19-14-13(9(2)18-19)17-12(8-16-15(14)21)10-4-6-11(20)7-5-10/h4-7,20H,3,8H2,1-2H3,(H,16,21)
Instrument: Q Exactive Orbitrap (Thermo Scientific)
Instrument type: LC-ESI-QFT
Ms type: MS2
Ion mode: POSITIVE
Ionization: ESI
Fragmentation mode: HCD
Collision energy: 15
Resolution: 17500
Column name: Acquity BEH C18 1.7um, 2.1x150mm (Waters)
Retention time: 15.033 min
Base peak: 79.0212
Precursor m/z: 285.1346
Precursor type: [M+H]+
Precursor intensity: 7116863.5625
m/z	relative intensity	assigned
111.0916	2	C6H11N2+
137.071	7	C7H9N2O+
175.0504	2	C9H7N2O2+
191.0928	6	C9H11N4O+
242.1288	30	C14H16N3O+
257.1035	1	C13H13N4O2+
257.1396	2	C14H17N4O+
285.1346	999	C15H17N4O2+
