Mass spectrum: Buspirone; LC-ESI-QFT; MS2; CE: 15; R=17500; [M+H]+
Name: Buspirone
Name: 8-[4-(4-pyrimidin-2-ylpiperazin-1-yl)butyl]-8-azaspiro[4.5]decane-7,9-dione
Formula: C21H31N5O2
Exact mass: 385.2478
SMILES: O=C1CC2(CCCC2)CC(=O)N1CCCCN1CCN(CC1)C1=NC=CC=N1
InChI: InChI=1S/C21H31N5O2/c27-18-16-21(6-1-2-7-21)17-19(28)26(18)11-4-3-10-24-12-14-25(15-13-24)20-22-8-5-9-23-20/h5,8-9H,1-4,6-7,10-17H2
Instrument: Q Exactive Orbitrap (Thermo Scientific)
Instrument type: LC-ESI-QFT
Ms type: MS2
Ion mode: POSITIVE
Ionization: ESI
Fragmentation mode: HCD
Collision energy: 15
Resolution: 17500
Column name: Acquity BEH C18 1.7um, 2.1x150mm (Waters)
Retention time: 13.245 min
Base peak: 79.0211
Precursor m/z: 386.2551
Precursor type: [M+H]+
Precursor intensity: 36690577.1875
m/z	relative intensity	assigned
122.071	1	C6H8N3+
386.2547	999	C21H32N5O2+
