Mass spectrum: Aziprotryne; LC-ESI-QFT; MS2; CE: 75; R=17500; [M-H]-
Name: Aziprotryne
Name: 4-azido-6-methylsulfanyl-N-propan-2-yl-1,3,5-triazin-2-amine
Formula: C7H11N7S
Exact mass: 225.0797
SMILES: CSC1=NC(NC(C)C)=NC(N=[N+]=[N-])=N1
InChI: InChI=1S/C7H11N7S/c1-4(2)9-5-10-6(13-14-8)12-7(11-5)15-3/h4H,1-3H3,(H,9,10,11,12)
Instrument: Q Exactive Orbitrap (Thermo Scientific)
Instrument type: LC-ESI-QFT
Ms type: MS2
Ion mode: NEGATIVE
Ionization: ESI
Fragmentation mode: HCD
Collision energy: 75
Resolution: 17500
Column name: Acquity BEH C18 1.7um, 2.1x150mm (Waters)
Retention time: 17.621 min
Base peak: 193.0869
Precursor m/z: 224.0724
Precursor type: [M-H]-
Precursor intensity: 703446
m/z	relative intensity	assigned
57.9757	144	CNS-
66.0098	999	C2N3-
67.0303	33	C3H3N2-
71.9789	19	CN2S-
80.0128	110	C2N4-
83.0614	161	C4H7N2-
134.0476	20	C5H4N5-
