Mass spectrum: Surinabant; LC-ESI-QFT; MS2; CE: 30; R=17500; [M+H]+
Name: Surinabant
Name: 5-(4-bromophenyl)-1-(2,4-dichlorophenyl)-4-ethyl-N-piperidin-1-ylpyrazole-3-carboxamide
Formula: C23H23BrCl2N4O
Exact mass: 520.0432
SMILES: CCC1=C(N(N=C1C(=O)NN1CCCCC1)C1=CC=C(Cl)C=C1Cl)C1=CC=C(Br)C=C1
InChI: InChI=1S/C23H23BrCl2N4O/c1-2-18-21(23(31)28-29-12-4-3-5-13-29)27-30(20-11-10-17(25)14-19(20)26)22(18)15-6-8-16(24)9-7-15/h6-11,14H,2-5,12-13H2,1H3,(H,28,31)
Instrument: Q Exactive Orbitrap (Thermo Scientific)
Instrument type: LC-ESI-QFT
Ms type: MS2
Ion mode: POSITIVE
Ionization: ESI
Fragmentation mode: HCD
Collision energy: 30
Resolution: 17500
Column name: Acquity BEH C18 1.7um, 2.1x150mm (Waters)
Retention time: 20.203 min
Base peak: 79.0211
Precursor m/z: 521.0505
Precursor type: [M+H]+
Precursor intensity: 12052961.5
m/z	relative intensity	assigned
55.0542	3	C4H7+
56.0495	4	C3H6N+
82.0652	2	C5H8N+
84.0808	164	C5H10N+
99.0917	24	C5H11N2+
279.0681	2	C17H12ClN2+
313.0296	3	C17H11Cl2N2+
325.9132	2	C13H7BrCl2N+
342.0321	2	C18H12Cl2N2O+
392.9567	2	C17H12BrCl2N2+
394.9715	20	C17H14BrCl2N2+
420.9505	70	C18H12BrCl2N2O+
438.9613	999	C23H14BrCl2+
440.9654	1	C23H9BrClN3+
521.051	119	C23H24BrCl2N4O+
