Mass spectrum: Phosfolan; LC-ESI-QFT; MS2; CE: 45; R=17500; [M+H]+
Name: Phosfolan
Name: N-diethoxyphosphoryl-1,3-dithiolan-2-imine
Formula: C7H14NO3PS2
Exact mass: 255.0153
SMILES: CCOP(=O)(OCC)N=C1SCCS1
InChI: InChI=1S/C7H14NO3PS2/c1-3-10-12(9,11-4-2)8-7-13-5-6-14-7/h3-6H2,1-2H3
Instrument: Q Exactive Orbitrap (Thermo Scientific)
Instrument type: LC-ESI-QFT
Ms type: MS2
Ion mode: POSITIVE
Ionization: ESI
Fragmentation mode: HCD
Collision energy: 45
Resolution: 17500
Column name: Acquity BEH C18 1.7um, 2.1x150mm (Waters)
Retention time: 14.046 min
Base peak: 79.0211
Precursor m/z: 256.0225
Precursor type: [M+H]+
Precursor intensity: 30253866.96875
m/z	relative intensity	assigned
59.9902	9	CH2NS+
61.0106	470	C2H5S+
64.9788	1	H2O2P+
80.9738	1	H2O3P+
81.9815	1	H3O3P+
109.005	6	C2H6O3P+
114.9613	1	H4O3PS+
119.9938	1	C3H6NS2+
133.9591	1	C3H3O2PS+
139.9565	999	CH3NO3PS+
167.9878	230	C3H7NO3PS+
196.0192	31	C5H11NO3PS+
199.9599	118	C3H7NO3PS2+
227.9912	31	C5H11NO3PS2+
256.0227	3	C7H15NO3PS2+
