Mass spectrum: Dapsone; LC-ESI-QFT; MS2; CE: 45; R=17500; [M+H]+
Name: Dapsone
Name: 4-(4-aminophenyl)sulfonylaniline
Formula: C12H12N2O2S
Exact mass: 248.0619
SMILES: NC1=CC=C(C=C1)S(=O)(=O)C1=CC=C(N)C=C1
InChI: InChI=1S/C12H12N2O2S/c13-9-1-5-11(6-2-9)17(15,16)12-7-3-10(14)4-8-12/h1-8H,13-14H2
Instrument: Q Exactive Orbitrap (Thermo Scientific)
Instrument type: LC-ESI-QFT
Ms type: MS2
Ion mode: POSITIVE
Ionization: ESI
Fragmentation mode: HCD
Collision energy: 45
Resolution: 17500
Column name: Acquity BEH C18 1.7um, 2.1x150mm (Waters)
Retention time: 10.889 min
Base peak: 79.0212
Precursor m/z: 249.0692
Precursor type: [M+H]+
Precursor intensity: 5566744.65625
m/z	relative intensity	assigned
53.0022	3	C3HO+
53.0386	8	C4H5+
54.0338	6	C3H4N+
55.0179	7	C3H3O+
61.0107	1	C2H5S+
65.0385	46	C5H5+
67.0178	2	C4H3O+
67.0416	1	C4H5N+
68.0494	152	C4H6N+
69.0335	11	C4H5O+
70.0286	1	C3H4NO+
78.0338	18	C5H4N+
79.0178	25	C5H3O+
80.0494	9	C5H6N+
81.0335	1	C5H5O+
82.0287	4	C4H4NO+
92.0495	390	C6H6N+
93.0573	147	C6H7N+
95.0365	4	C5H5NO+
96.0444	23	C5H6NO+
107.0366	1	C6H5NO+
108.0443	999	C6H6NO+
109.0521	1	C6H7NO+
110.06	122	C6H8NO+
120.0556	22	C8H8O+
140.0167	3	C6H6NOS+
156.0113	470	C6H6NO2S+
161.0959	1	C11H13O+
249.0692	9	C12H13N2O2S+
