Mass spectrum: 2,2`-(3-Chlorophenylimino)diethanol; LC-ESI-QFT; MS2; CE: 45; R=17500; [M+H]+
Name: 2,2'-(3-Chlorophenylimino)diethanol
Name: 3-Chloro-N,N-bis(2-hydroxyethyl)aniline
Name: 2-[3-chloro-N-(2-hydroxyethyl)anilino]ethanol
Formula: C10H14ClNO2
Exact mass: 215.0713
SMILES: OCCN(CCO)C1=CC(Cl)=CC=C1
InChI: InChI=1S/C10H14ClNO2/c11-9-2-1-3-10(8-9)12(4-6-13)5-7-14/h1-3,8,13-14H,4-7H2
Instrument: Q Exactive Orbitrap (Thermo Scientific)
Instrument type: LC-ESI-QFT
Ms type: MS2
Ion mode: POSITIVE
Ionization: ESI
Fragmentation mode: HCD
Collision energy: 45
Resolution: 17500
Column name: Acquity BEH C18 1.7um, 2.1x150mm (Waters)
Retention time: 15.559 min
Base peak: 79.0212
Precursor m/z: 216.0786
Precursor type: [M+H]+
Precursor intensity: 6865013.6875
m/z	relative intensity	assigned
75.0227	1	C6H3+
91.0541	5	C7H7+
93.0572	2	C6H7N+
103.0542	2	C8H7+
113.0153	1	C6H6Cl+
117.0572	15	C8H7N+
118.065	27	C8H8N+
119.0729	140	C8H9N+
128.0261	15	C6H7ClN+
130.0651	17	C9H8N+
132.0807	104	C9H10N+
138.0104	31	C7H5ClN+
139.0049	1	C9HNO+
140.0261	59	C7H7ClN+
144.0807	34	C10H10N+
145.0885	79	C10H11N+
151.0185	3	C8H6ClN+
152.0262	24	C8H7ClN+
153.034	116	C8H8ClN+
154.0417	999	C8H9ClN+
155.0492	4	C8H10ClN+
162.0914	3	C10H12NO+
163.099	23	C10H13NO+
164.0263	4	C9H7ClN+
165.0338	2	C9H8ClN+
170.0367	1	C8H9ClNO+
171.0445	27	C8H10ClNO+
172.0523	61	C8H11ClNO+
174.0541	4	C10H8NO2+
178.0416	2	C10H9ClN+
180.0574	146	C10H11ClN+
198.0679	389	C10H13ClNO+
216.0785	197	C10H15ClNO2+
