Mass spectrum: Dulcin; LC-ESI-QFT; MS2; CE: 45; R=17500; [M+H]+
Name: Dulcin
Name: (4-ethoxyphenyl)urea
Formula: C9H12N2O2
Exact mass: 180.0899
SMILES: CCOC1=CC=C(NC(N)=O)C=C1
InChI: InChI=1S/C9H12N2O2/c1-2-13-8-5-3-7(4-6-8)11-9(10)12/h3-6H,2H2,1H3,(H3,10,11,12)
Instrument: Q Exactive Orbitrap (Thermo Scientific)
Instrument type: LC-ESI-QFT
Ms type: MS2
Ion mode: POSITIVE
Ionization: ESI
Fragmentation mode: HCD
Collision energy: 45
Resolution: 17500
Column name: Acquity BEH C18 1.7um, 2.1x150mm (Waters)
Retention time: 13.186 min
Base peak: 79.0211
Precursor m/z: 181.0972
Precursor type: [M+H]+
Precursor intensity: 11456936.375
m/z	relative intensity	assigned
65.0385	13	C5H5+
67.0542	2	C5H7+
81.0336	4	C5H5O+
82.0651	11	C5H8N+
92.0495	36	C6H6N+
93.0335	18	C6H5O+
93.0573	27	C6H7N+
94.0651	5	C6H8N+
108.0444	664	C6H6NO+
109.0522	33	C6H7NO+
110.0601	781	C6H8NO+
111.0441	46	C6H7O2+
121.0285	3	C7H5O2+
121.1011	1	C9H13+
124.0508	1	C7H8O2+
125.0596	3	C7H9O2+
133.0286	2	C8H5O2+
135.0442	1	C8H7O2+
135.0683	35	C8H9NO+
136.0758	999	C8H10NO+
137.0835	11	C8H11NO+
138.0914	843	C8H12NO+
153.066	5	C7H9N2O2+
153.079	7	C8H11NO2+
164.0707	40	C9H10NO2+
167.0946	3	C9H13NO2+
181.0972	312	C9H13N2O2+
