Mass spectrum: Phenethyl anthranilate; LC-ESI-QFT; MS2; CE: 30; R=17500; [M+H]+
Name: Phenethyl anthranilate
Name: 2-phenylethyl 2-aminobenzoate
Formula: C15H15NO2
Exact mass: 241.1103
SMILES: NC1=CC=CC=C1C(=O)OCCC1=CC=CC=C1
InChI: InChI=1S/C15H15NO2/c16-14-9-5-4-8-13(14)15(17)18-11-10-12-6-2-1-3-7-12/h1-9H,10-11,16H2
Instrument: Q Exactive Orbitrap (Thermo Scientific)
Instrument type: LC-ESI-QFT
Ms type: MS2
Ion mode: POSITIVE
Ionization: ESI
Fragmentation mode: HCD
Collision energy: 30
Resolution: 17500
Column name: Acquity BEH C18 1.7um, 2.1x150mm (Waters)
Retention time: 18.603 min
Base peak: 79.0211
Precursor m/z: 242.1176
Precursor type: [M+H]+
Precursor intensity: 4375429.875
m/z	relative intensity	assigned
79.0542	6	C6H7+
91.0542	13	C7H7+
103.0545	4	C8H7+
105.0699	999	C8H9+
107.0492	7	C7H7O+
118.0651	34	C8H8N+
120.0444	152	C7H6NO+
146.06	14	C9H8NO+
194.0962	6	C14H12N+
196.1122	20	C14H14N+
206.0964	100	C15H12N+
224.1069	268	C15H14NO+
