Mass spectrum: Bispyribac; LC-ESI-QFT; MS2; CE: 30; R=17500; [M+H]+
Name: Bispyribac
Formula: C19H18N4O8
Exact mass: 430.1125
SMILES: COC1=CC(OC)=NC(OC2=CC=CC(OC3=NC(OC)=CC(OC)=N3)=C2C(O)=O)=N1
InChI: InChI=1S/C19H18N4O8/c1-26-12-8-13(27-2)21-18(20-12)30-10-6-5-7-11(16(10)17(24)25)31-19-22-14(28-3)9-15(23-19)29-4/h5-9H,1-4H3,(H,24,25)
Instrument: Q Exactive Orbitrap (Thermo Scientific)
Instrument type: LC-ESI-QFT
Ms type: MS2
Ion mode: POSITIVE
Ionization: ESI
Fragmentation mode: HCD
Collision energy: 30
Resolution: 17500
Column name: Acquity BEH C18 1.7um, 2.1x150mm (Waters)
Retention time: 17.331 min
Base peak: 79.0211
Precursor m/z: 431.1197
Precursor type: [M+H]+
Precursor intensity: 10728198.25
m/z	relative intensity	assigned
72.0443	3	C3H6NO+
114.055	1	C5H8NO2+
116.0343	5	C4H6NO3+
119.0128	10	C7H3O2+
125.0353	1	C5H5N2O2+
126.0185	2	C5H4NO3+
137.0234	1	C7H5O3+
139.0502	21	C6H7N2O2+
140.0342	8	C6H6NO3+
157.0608	33	C6H9N2O3+
171.0761	2	C7H11N2O3+
176.0339	2	C9H6NO3+
201.0248	1	C7H7NO6+
216.0531	1	C11H8N2O3+
218.045	1	C11H8NO4+
231.0758	3	C12H11N2O3+
243.0401	32	C12H7N2O4+
249.0872	1	C12H13N2O4+
256.0714	1	C13H10N3O3+
257.056	2	C13H9N2O4+
260.0422	2	C12H8N2O5+
261.0506	19	C12H9N2O5+
263.1027	3	C13H15N2O4+
267.0402	1	C14H7N2O4+
274.0818	2	C13H12N3O4+
275.0662	999	C13H11N2O5+
280.0714	3	C15H10N3O3+
288.098	11	C14H14N3O4+
289.0818	37	C14H13N2O5+
300.0616	15	C14H10N3O5+
312.0979	8	C16H14N3O4+
314.0769	7	C15H12N3O5+
321.1095	1	C15H17N2O6+
324.0615	16	C16H10N3O5+
330.1081	1	C16H16N3O5+
337.093	12	C17H13N4O4+
342.0731	1	C18H14O7+
343.1167	2	C17H17N3O5+
345.1201	1	C18H19NO6+
355.1036	2	C17H15N4O5+
356.088	7	C17H14N3O6+
366.0597	2	C17H10N4O6+
369.1194	6	C18H17N4O5+
370.1035	13	C18H16N3O6+
381.0831	75	C18H13N4O6+
387.1295	6	C18H19N4O6+
413.1094	273	C19H17N4O7+
