Mass spectrum: Tamoxifen; LC-ESI-QFT; MS2; CE: 75; R=17500; [M+H]+
Name: Tamoxifen
Name: 2-[4-[(Z)-1,2-diphenylbut-1-enyl]phenoxy]-N,N-dimethylethanamine
Formula: C26H29NO
Exact mass: 371.2249
SMILES: CC\C(=C(/C1=CC=CC=C1)C1=CC=C(OCCN(C)C)C=C1)C1=CC=CC=C1
InChI: InChI=1S/C26H29NO/c1-4-25(21-11-7-5-8-12-21)26(22-13-9-6-10-14-22)23-15-17-24(18-16-23)28-20-19-27(2)3/h5-18H,4,19-20H2,1-3H3/b26-25-
Instrument: Q Exactive Orbitrap (Thermo Scientific)
Instrument type: LC-ESI-QFT
Ms type: MS2
Ion mode: POSITIVE
Ionization: ESI
Fragmentation mode: HCD
Collision energy: 75
Resolution: 17500
Column name: Acquity BEH C18 1.7um, 2.1x150mm (Waters)
Retention time: 17.455 min
Base peak: 79.0212
Precursor m/z: 372.2322
Precursor type: [M+H]+
Precursor intensity: 34139910.5
m/z	relative intensity	assigned
56.0495	55	C3H6N+
57.0573	64	C3H7N+
58.0651	22	C3H8N+
65.0385	2	C5H5+
70.0651	187	C4H8N+
71.0729	4	C4H9N+
72.0807	999	C4H10N+
79.054	2	C6H7+
91.0543	46	C7H7+
95.0491	1	C6H7O+
103.0542	5	C8H7+
105.0699	8	C8H9+
107.0492	4	C7H7O+
115.0541	5	C9H7+
117.0699	1	C9H9+
128.062	31	C10H8+
129.0698	28	C10H9+
131.0491	1	C9H7O+
141.0699	2	C11H9+
145.0648	3	C10H9O+
152.062	3	C12H8+
153.0698	1	C12H9+
165.07	9	C13H9+
166.0775	2	C13H10+
167.0853	2	C13H11+
178.0777	30	C14H10+
179.0854	5	C14H11+
183.0805	2	C13H11O+
189.0698	1	C15H9+
190.0778	2	C15H10+
191.0855	14	C15H11+
192.0935	3	C15H12+
193.1015	2	C15H13+
194.0727	4	C14H10O+
202.0778	3	C16H10+
203.085	3	C16H11+
204.0935	2	C16H12+
205.1013	2	C16H13+
207.0805	9	C15H11O+
215.0857	4	C17H11+
219.0795	1	C16H11O+
221.0961	1	C16H13O+
228.0933	5	C18H12+
229.1009	1	C18H13+
239.0856	5	C19H11+
240.0937	2	C19H12+
241.1014	4	C19H13+
242.1088	1	C19H14+
252.0933	7	C20H12+
253.1013	10	C20H13+
254.1089	2	C20H14+
255.1169	1	C20H15+
265.1008	3	C21H13+
267.1166	1	C21H15+
269.0951	1	C20H13O+
283.1116	1	C21H15O+
