Mass spectrum: Amiloride; LC-ESI-QFT; MS2; CE: 45; R=17500; [M-H]-
Name: Amiloride
Name: 3,5-diamino-6-chloro-N-(diaminomethylidene)pyrazine-2-carboxamide
Formula: C6H8ClN7O
Exact mass: 229.0479
SMILES: NC(=N)NC(=O)C1=NC(Cl)=C(N)N=C1N
InChI: InChI=1S/C6H8ClN7O/c7-2-4(9)13-3(8)1(12-2)5(15)14-6(10)11/h(H4,8,9,13)(H4,10,11,14,15)
Instrument: Q Exactive Orbitrap (Thermo Scientific)
Instrument type: LC-ESI-QFT
Ms type: MS2
Ion mode: NEGATIVE
Ionization: ESI
Fragmentation mode: HCD
Collision energy: 45
Resolution: 17500
Column name: Acquity BEH C18 1.7um, 2.1x150mm (Waters)
Retention time: 9.296 min
Base peak: 228.0407
Precursor m/z: 228.0406
Precursor type: [M-H]-
Precursor intensity: 2490644.974121
m/z	relative intensity	assigned
64.0066	3	C3N2-
65.0145	540	C3HN2-
66.0098	136	C2N3-
90.0098	43	C4N3-
106.0047	37	C4N3O-
107.0363	125	C4H3N4-
108.0203	996	C4H2N3O-
133.0155	17	C5HN4O-
143.013	999	C4H4ClN4-
150.0421	92	C5H4N5O-
168.008	29	C5H3ClN5-
168.9922	197	C5H2ClN4O-
186.0188	509	C5H5ClN5O-
187.0021	7	C3H2ClN7O-
211.0138	13	C6H4ClN6O-
228.0404	7	C6H7ClN7O-
