Mass spectrum: N-(2,4-Dimethylphenyl)acetamide; LC-ESI-QFT; MS2; CE: 15; R=17500; [M+H]+
Name: N-(2,4-Dimethylphenyl)acetamide
Formula: C10H13NO
Exact mass: 163.0997
SMILES: CC(=O)NC1=CC=C(C)C=C1C
InChI: InChI=1S/C10H13NO/c1-7-4-5-10(8(2)6-7)11-9(3)12/h4-6H,1-3H3,(H,11,12)
Instrument: Q Exactive Orbitrap (Thermo Scientific)
Instrument type: LC-ESI-QFT
Ms type: MS2
Ion mode: POSITIVE
Ionization: ESI
Fragmentation mode: HCD
Collision energy: 15
Resolution: 17500
Column name: Acquity BEH C18 1.7um, 2.1x150mm (Waters)
Retention time: 14.390 min
Base peak: 79.0211
Precursor m/z: 164.107
Precursor type: [M+H]+
Precursor intensity: 16580955.125
m/z	relative intensity	assigned
105.0699	22	C8H9+
107.0729	10	C7H9N+
122.0964	528	C8H12N+
123.0803	29	C8H11O+
146.0964	13	C10H12N+
164.1069	999	C10H14NO+
