Mass spectrum: 2,2`,6,6`-Tetrachlorobisphenol A; LC-ESI-QFT; MS2; CE: 30; R=17500; [M-H]-
Name: 2,2',6,6'-Tetrachlorobisphenol A
Name: Tetrachlorobisphenol A
Name: 2,6-dichloro-4-[2-(3,5-dichloro-4-hydroxyphenyl)propan-2-yl]phenol
Formula: C15H12Cl4O2
Exact mass: 363.9591
SMILES: CC(C)(C1=CC(Cl)=C(O)C(Cl)=C1)C1=CC(Cl)=C(O)C(Cl)=C1
InChI: InChI=1S/C15H12Cl4O2/c1-15(2,7-3-9(16)13(20)10(17)4-7)8-5-11(18)14(21)12(19)6-8/h3-6,20-21H,1-2H3
Instrument: Q Exactive Orbitrap (Thermo Scientific)
Instrument type: LC-ESI-QFT
Ms type: MS2
Ion mode: NEGATIVE
Ionization: ESI
Fragmentation mode: HCD
Collision energy: 30
Resolution: 17500
Column name: Acquity BEH C18 1.7um, 2.1x150mm (Waters)
Retention time: 19.009 min
Base peak: 221.1183
Precursor m/z: 362.9519
Precursor type: [M-H]-
Precursor intensity: 6382602.921875
m/z	relative intensity	assigned
124.98	4	C6H2ClO-
158.9786	6	C7H5Cl2-
160.9567	7	C6H3Cl2O-
175.9436	1	C6H2Cl2O2-
184.9561	2	C8H3Cl2O-
200.988	84	C9H7Cl2O-
210.9723	2	C10H5Cl2O-
211.9808	3	C10H6Cl2O-
212.9515	2	C9H3Cl2O2-
215.9985	5	C12H5ClO2-
223.9801	4	C11H6Cl2O-
226.9669	2	C10H5Cl2O2-
235.9799	4	C12H6Cl2O-
238.9671	3	C11H5Cl2O2-
246.8919	2	C6H3Cl4O2-
251.975	28	C12H6Cl2O2-
262.9673	14	C13H5Cl2O2-
263.9749	10	C13H6Cl2O2-
270.9488	2	C12H6Cl3O-
271.958	1	C12H7Cl3O-
283.9568	1	C13H7Cl3O-
284.9282	1	C12H4Cl3O2-
286.9441	22	C12H6Cl3O2-
287.9518	1	C12H7Cl3O2-
298.944	15	C13H6Cl3O2-
299.9516	17	C13H7Cl3O2-
311.9518	49	C14H7Cl3O2-
326.9754	10	C15H10Cl3O2-
347.9283	38	C14H8Cl4O2-
362.952	999	C15H11Cl4O2-
