Mass spectrum: Ethion; LC-ESI-QFT; MS2; CE: 30; R=17500; [M+H]+
Name: Ethion
Name: diethoxyphosphinothioylsulfanylmethylsulfanyl-diethoxy-sulfanylidene-lambda5-phosphane
Formula: C9H22O4P2S4
Exact mass: 383.9876
SMILES: CCOP(=S)(OCC)SCSP(=S)(OCC)OCC
InChI: InChI=1S/C9H22O4P2S4/c1-5-10-14(16,11-6-2)18-9-19-15(17,12-7-3)13-8-4/h5-9H2,1-4H3
Instrument: Q Exactive Orbitrap (Thermo Scientific)
Instrument type: LC-ESI-QFT
Ms type: MS2
Ion mode: POSITIVE
Ionization: ESI
Fragmentation mode: HCD
Collision energy: 30
Resolution: 17500
Column name: Acquity BEH C18 1.7um, 2.1x150mm (Waters)
Retention time: 19.676 min
Base peak: 79.0211
Precursor m/z: 384.9949
Precursor type: [M+H]+
Precursor intensity: 3148429.53125
m/z	relative intensity	assigned
114.9613	685	H4O3PS+
142.9386	999	CH4O2PS2+
170.9699	445	C3H8O2PS2+
199.0014	70	C5H12O2PS2+
215.0325	210	C6H16O2PS2+
