Mass spectrum: 2,4,6-Trimethylbenzoic acid; LC-ESI-QFT; MS2; CE: 15; R=17500; [M-H]-
Name: 2,4,6-Trimethylbenzoic acid
Formula: C10H12O2
Exact mass: 164.0837
SMILES: CC1=CC(C)=C(C(O)=O)C(C)=C1
InChI: InChI=1S/C10H12O2/c1-6-4-7(2)9(10(11)12)8(3)5-6/h4-5H,1-3H3,(H,11,12)
Instrument: Q Exactive Orbitrap (Thermo Scientific)
Instrument type: LC-ESI-QFT
Ms type: MS2
Ion mode: NEGATIVE
Ionization: ESI
Fragmentation mode: HCD
Collision energy: 15
Resolution: 17500
Column name: Acquity BEH C18 1.7um, 2.1x150mm (Waters)
Retention time: 16.564 min
Base peak: 206.007
Precursor m/z: 163.0765
Precursor type: [M-H]-
Precursor intensity: 7905600.238281
m/z	relative intensity	assigned
106.0425	2	C7H6O-
119.0866	999	C9H11-
121.0661	4	C8H9O-
163.0765	456	C10H11O2-
