Mass spectrum: Chloranocryl; LC-ESI-QFT; MS2; CE: 75; R=17500; [M-H]-
Name: Chloranocryl
Name: N-(3,4-dichlorophenyl)-2-methylprop-2-enamide
Formula: C10H9Cl2NO
Exact mass: 229.0061
SMILES: CC(=C)C(=O)NC1=CC=C(Cl)C(Cl)=C1
InChI: InChI=1S/C10H9Cl2NO/c1-6(2)10(14)13-7-3-4-8(11)9(12)5-7/h3-5H,1H2,2H3,(H,13,14)
Instrument: Q Exactive Orbitrap (Thermo Scientific)
Instrument type: LC-ESI-QFT
Ms type: MS2
Ion mode: NEGATIVE
Ionization: ESI
Fragmentation mode: HCD
Collision energy: 75
Resolution: 17500
Column name: Acquity BEH C18 1.7um, 2.1x150mm (Waters)
Retention time: 17.863 min
Base peak: 227.999
Precursor m/z: 227.9988
Precursor type: [M-H]-
Precursor intensity: 38170260.37793
m/z	relative intensity	assigned
55.0189	999	C3H3O-
70.9461	4	Cl2H-
86.0036	12	C6N-
89.0035	3	C6HO-
98.9643	27	C4ClO-
100.0193	16	C7H2N-
113.9985	25	C7NO-
114.0351	3	C8H4N-
121.9803	67	C6HClN-
123.996	6	C6H3ClN-
124.9799	53	C6H2ClO-
128.0505	8	C9H6N-
149.9752	230	C7HClNO-
155.0376	25	C10H5NO-
156.0455	117	C10H6NO-
159.9726	30	C6H4Cl2N-
160.9567	68	C6H3Cl2O-
183.9727	7	C8H4Cl2N-
185.9519	72	C7H2Cl2NO-
190.0067	34	C10H5ClNO-
197.9884	5	C9H6Cl2N-
211.9674	3	C9H4Cl2NO-
225.9832	38	C10H6Cl2NO-
227.9987	9	C10H8Cl2NO-
