Mass spectrum: SB281832; LC-ESI-QFT; MS2; CE: 75; R=17500; [M+H]+
Name: SB281832
Name: 2-[4-(4-fluorophenyl)-5-(2-phenoxypyrimidin-4-yl)imidazol-1-yl]propane-1,3-diol
Formula: C22H19FN4O3
Exact mass: 406.1441
SMILES: OCC(CO)N1C=NC(=C1C1=CC=NC(OC2=CC=CC=C2)=N1)C1=CC=C(F)C=C1
InChI: InChI=1S/C22H19FN4O3/c23-16-8-6-15(7-9-16)20-21(27(14-25-20)17(12-28)13-29)19-10-11-24-22(26-19)30-18-4-2-1-3-5-18/h1-11,14,17,28-29H,12-13H2
Instrument: Q Exactive Orbitrap (Thermo Scientific)
Instrument type: LC-ESI-QFT
Ms type: MS2
Ion mode: POSITIVE
Ionization: ESI
Fragmentation mode: HCD
Collision energy: 75
Resolution: 17500
Column name: Acquity BEH C18 1.7um, 2.1x150mm (Waters)
Retention time: 15.246 min
Base peak: 79.0212
Precursor m/z: 407.1514
Precursor type: [M+H]+
Precursor intensity: 14010097.25
m/z	relative intensity	assigned
50.0151	1	C4H2+
51.0228	6	C4H3+
52.0183	1	C3H2N+
53.0022	28	C3HO+
53.0386	174	C4H5+
54.0339	3	C3H4N+
55.0178	9	C3H3O+
57.0335	3	C3H5O+
63.0229	1	C5H3+
64.018	2	C4H2N+
65.0385	3	C5H5+
66.0337	3	C4H4N+
67.0542	1	C5H7+
68.9971	1	C3HO2+
70.0287	1	C3H4NO+
74.0964	2	C4H12N+
77.0385	66	C6H5+
79.0289	1	C4H3N2+
79.0541	1	CH6FN3+
81.0334	16	C5H5O+
81.0447	22	C4H5N2+
81.0699	1	C6H9+
82.0288	6	C4H4NO+
89.0386	3	C7H5+
91.0542	51	C7H7+
92.0494	4	C6H6N+
93.0447	7	C5H5N2+
93.0573	2	C6H7N+
94.0413	15	C6H6O+
95.0491	530	C6H7O+
97.0448	14	C6H6F+
103.0542	1	C8H7+
104.0494	620	C7H6N+
105.0447	190	C6H5N2+
106.0401	2	C5H4N3+
107.0292	4	C7H4F+
109.0397	30	C5H5N2O+
109.0448	26	C7H6F+
111.0441	1	C6H7O2+
113.0392	1	C6H6FO+
114.0338	9	C8H4N+
115.0542	103	C9H7+
116.0494	25	C8H6N+
117.0573	14	C8H7N+
118.04	11	C6H4N3+
118.0651	57	C8H8N+
119.0487	1	C3H6FN3O+
120.0444	14	C7H6NO+
121.0449	1	C8H6F+
122.04	45	C7H5FN+
123.0355	1	C6H4FN2+
124.0557	35	C7H7FN+
127.0501	3	C5H7N2O2+
128.0494	46	C9H6N+
129.0446	3	C8H5N2+
130.0651	33	C9H8N+
132.0367	2	C9H5F+
133.0448	999	C9H6F+
134.0349	2	C6H4N3O+
134.0399	40	C8H5FN+
135.0425	3	C6H5N3O+
135.0478	6	C8H6FN+
136.0505	34	C6H6N3O+
136.0558	17	C8H7FN+
140.0494	51	C10H6N+
141.0446	18	C9H5N2+
141.0573	1	C10H7N+
142.0651	99	C10H8N+
143.0604	12	C9H7N2+
143.0729	2	C10H9N+
145.0762	5	C9H9N2+
146.0406	5	C9H5FN+
146.06	95	C9H8NO+
147.0484	2	C9H6FN+
147.0551	10	C8H7N2O+
148.0557	2	C9H7FN+
152.0506	8	C8H7FNO+
153.0448	1	C10H5N2+
155.0604	25	C10H7N2+
156.0318	1	C9H4N2O+
156.0557	3	C9H6N3+
156.0681	9	C10H8N2+
157.076	42	C10H9N2+
158.0401	179	C10H5FN+
159.0356	5	C9H4FN2+
159.0478	3	C10H6FN+
159.0553	10	C9H7N2O+
160.0557	520	C10H7FN+
160.0755	119	C5H9FN4O+
161.0397	48	C10H6FO+
161.0508	50	C9H6FN2+
162.0348	1	C9H5FNO+
163.0664	14	C9H8FN2+
164.0506	3	C9H7FNO+
165.0445	9	C11H5N2+
167.0603	37	C11H7N2+
168.0562	9	C10H6N3+
168.0681	55	C11H8N2+
169.076	288	C11H9N2+
170.0402	5	C11H5FN+
171.0477	3	C11H6FN+
171.0552	26	C10H7N2O+
172.0555	3	C11H7FN+
173.0509	19	C10H6FN2+
173.0708	1	C10H9N2O+
174.0588	2	C10H7FN2+
175.0667	4	C10H8FN2+
176.0504	9	C10H7FNO+
177.0455	2	C9H6FN2O+
178.0662	127	C10H9FNO+
182.0713	13	C11H8N3+
183.0539	1	C11H7N2O+
183.0793	4	C11H9N3+
184.063	1	C11H8N2O+
184.087	16	C11H10N3+
185.051	127	C11H6FN2+
185.0706	15	C11H9N2O+
186.0587	131	C11H7FN2+
187.0666	546	C11H8FN2+
188.0618	360	C10H7FN3+
189.0458	4	C10H6FN2O+
190.0657	3	C14H8N+
192.0554	5	C12H6N3+
192.0817	14	C11H11FNO+
193.0631	1	C12H7N3+
194.0713	26	C12H8N3+
195.055	3	C12H7N2O+
197.0508	28	C12H6FN2+
198.0461	3	C11H5FN3+
202.041	1	C10H5FN3O+
203.0614	29	C11H8FN2O+
204.0568	7	C10H7FN3O+
204.0673	1	C14H8N2+
207.0565	14	C10H8FN2O2+
209.0758	1	C15H10F+
210.0651	5	C12H8N3O+
212.0618	219	C12H7FN3+
212.0815	26	C12H10N3O+
213.0468	18	C12H6FN2O+
213.0578	8	C16H7N+
213.0695	121	C12H8FN3+
214.0408	1	C11H5FN3O+
214.0774	32	C12H9FN3+
215.0614	4	C12H8FN2O+
216.0809	4	C16H10N+
217.0767	5	C12H10FN2O+
219.0666	1	C13H7N4+
222.0461	5	C13H5FN3+
222.0712	1	C15H9FN+
230.0724	21	C12H9FN3O+
234.0711	3	C16H9FN+
235.0793	22	C16H10FN+
236.0743	2	C15H9FN2+
236.0868	22	C16H11FN+
237.0803	4	C12H12FNO3+
239.0727	38	C13H8FN4+
240.0567	38	C13H7FN3O+
242.0829	5	C17H10N2+
243.092	5	C17H11N2+
246.0715	2	C17H9FN+
247.067	2	C16H8FN2+
249.0828	1	C16H10FN2+
257.0832	59	C13H10FN4O+
260.0738	2	C17H9FN2+
261.0823	6	C17H10FN2+
262.0898	7	C17H11FN2+
263.0979	43	C17H12FN2+
264.093	41	C16H11FN3+
270.1024	6	C18H12N3+
273.0823	4	C18H10FN2+
288.0932	23	C18H11FN3+
289.101	1	C18H12FN3+
290.1087	171	C18H13FN3+
305.1199	1	C18H14FN4+
306.1035	7	C18H13FN3O+
333.1145	6	C19H14FN4O+
