Mass spectrum: Zearalenone; LC-ESI-QFT; MS2; CE: 30; R=17500; [M-H]-
Name: Zearalenone
Name: (4S,12E)-16,18-dihydroxy-4-methyl-3-oxabicyclo[12.4.0]octadeca-1(14),12,15,17-tetraene-2,8-dione
Formula: C18H22O5
Exact mass: 318.1467
SMILES: C[C@H]1CCCC(=O)CCC\C=C\C2=C(C(O)=CC(O)=C2)C(=O)O1
InChI: InChI=1S/C18H22O5/c1-12-6-5-9-14(19)8-4-2-3-7-13-10-15(20)11-16(21)17(13)18(22)23-12/h3,7,10-12,20-21H,2,4-6,8-9H2,1H3/b7-3+/t12-/m0/s1
Instrument: Q Exactive Orbitrap (Thermo Scientific)
Instrument type: LC-ESI-QFT
Ms type: MS2
Ion mode: NEGATIVE
Ionization: ESI
Fragmentation mode: HCD
Collision energy: 30
Resolution: 17500
Column name: Acquity BEH C18 1.7um, 2.1x150mm (Waters)
Retention time: 17.846 min
Base peak: 317.1395
Precursor m/z: 317.1394
Precursor type: [M-H]-
Precursor intensity: 43058958.83984
m/z	relative intensity	assigned
57.0345	10	C3H5O-
65.0396	1	C5H5-
69.0345	1	C4H5O-
81.0346	2	C5H5O-
83.0502	1	C5H7O-
93.0344	1	C6H5O-
95.0502	1	C6H7O-
103.0552	1	C8H7-
105.0345	3	C7H5O-
105.0708	1	C8H9-
107.0501	5	C7H7O-
111.0815	4	C7H11O-
113.0608	2	C6H9O2-
119.0502	2	C8H7O-
123.0451	8	C7H7O2-
129.0921	18	C7H13O2-
130.0424	3	C9H6O-
131.0502	53	C9H7O-
133.0294	2	C8H5O2-
133.066	2	C9H9O-
135.045	3	C8H7O2-
135.0814	2	C9H11O-
143.0502	3	C10H7O-
145.0659	1	C10H9O-
147.0452	15	C9H7O2-
148.0528	2	C9H8O2-
149.0244	26	C8H5O3-
149.0607	78	C9H9O2-
151.0402	1	C8H7O3-
155.0713	4	C8H11O3-
159.045	4	C10H7O2-
159.0814	8	C11H11O-
160.0166	20	C9H4O3-
161.0242	3	C9H5O3-
161.0608	44	C10H9O2-
163.0401	3	C9H7O3-
167.035	2	C8H7O4-
174.0322	8	C10H6O3-
175.04	199	C10H7O3-
177.0919	1	C11H13O2-
181.1233	2	C11H17O2-
185.0604	1	C12H9O2-
187.04	61	C11H7O3-
188.0477	2	C11H8O3-
193.0509	3	C10H9O4-
193.0869	10	C11H13O3-
200.0843	1	C13H12O2-
201.0921	1	C13H13O2-
201.1284	2	C14H17O-
203.0713	22	C12H11O3-
203.1078	3	C13H15O2-
206.0216	1	C10H6O5-
213.1283	1	C15H17O-
215.1078	2	C14H15O2-
220.037	1	C11H8O5-
229.0869	1	C14H13O3-
229.1231	2	C15H17O2-
231.1026	3	C14H15O3-
231.1389	7	C15H19O2-
233.1182	1	C14H17O3-
245.1185	1	C15H17O3-
246.1264	2	C15H18O3-
247.0971	1	C14H15O4-
247.1339	8	C15H19O3-
255.1389	5	C17H19O2-
257.0815	1	C15H13O4-
257.1173	1	C16H17O3-
261.1132	12	C15H17O4-
271.1343	3	C17H19O3-
273.1496	216	C17H21O3-
275.0926	4	C15H15O5-
275.1288	1	C16H19O4-
289.1446	23	C17H21O4-
299.1288	68	C18H19O4-
317.1392	999	C18H21O5-
