Mass spectrum: Theobromine; LC-ESI-QFT; MS2; CE: 45; R=17500; [M+H]+
Name: Theobromine
Name: 3,7-dimethylpurine-2,6-dione
Formula: C7H8N4O2
Exact mass: 180.0647
SMILES: CN1C=NC2=C1C(=O)NC(=O)N2C
InChI: InChI=1S/C7H8N4O2/c1-10-3-8-5-4(10)6(12)9-7(13)11(5)2/h3H,1-2H3,(H,9,12,13)
Instrument: Q Exactive Orbitrap (Thermo Scientific)
Instrument type: LC-ESI-QFT
Ms type: MS2
Ion mode: POSITIVE
Ionization: ESI
Fragmentation mode: HCD
Collision energy: 45
Resolution: 17500
Column name: Acquity BEH C18 1.7um, 2.1x150mm (Waters)
Retention time: 8.350 min
Base peak: 79.0211
Precursor m/z: 181.072
Precursor type: [M+H]+
Precursor intensity: 244081.953125
m/z	relative intensity	assigned
67.0291	12	C3H3N2+
69.0447	20	C3H5N2+
83.0604	9	C4H7N2+
93.0699	5	C7H9+
96.0557	19	C4H6N3+
108.0557	37	C5H6N3+
110.0713	59	C5H8N3+
113.0347	4	C4H5N2O2+
121.0284	13	C7H5O2+
122.0587	14	C5H6N4+
124.0507	6	C5H6N3O+
135.0666	65	C6H7N4+
137.0823	111	C6H9N4+
138.0663	203	C6H8N3O+
149.0234	113	C6H3N3O2+
163.0389	50	C7H5N3O2+
163.0616	38	C7H7N4O+
167.0556	19	C6H7N4O2+
181.0721	999	C7H9N4O2+
