Mass spectrum: Diniconazole; LC-ESI-QFT; MS2; CE: 90; R=17500; [M+H]+
Name: Diniconazole
Name: (E)-1-(2,4-dichlorophenyl)-4,4-dimethyl-2-(1,2,4-triazol-1-yl)pent-1-en-3-ol
Formula: C15H17Cl2N3O
Exact mass: 325.0749
SMILES: CC(C)(C)C(O)C(=C/C1=C(Cl)C=C(Cl)C=C1)\N1C=NC=N1
InChI: InChI=1S/C15H17Cl2N3O/c1-15(2,3)14(21)13(20-9-18-8-19-20)6-10-4-5-11(16)7-12(10)17/h4-9,14,21H,1-3H3/b13-6+
Instrument: Q Exactive Orbitrap (Thermo Scientific)
Instrument type: LC-ESI-QFT
Ms type: MS2
Ion mode: POSITIVE
Ionization: ESI
Fragmentation mode: HCD
Collision energy: 90
Resolution: 17500
Column name: Acquity BEH C18 1.7um, 2.1x150mm (Waters)
Retention time: 19.160 min
Base peak: 79.0211
Precursor m/z: 326.0821
Precursor type: [M+H]+
Precursor intensity: 18901407.75
m/z	relative intensity	assigned
53.0022	1	C3HO+
55.0543	1	C4H7+
57.0699	8	C4H9+
59.0491	1	C3H7O+
69.0698	7	C5H9+
70.0399	999	C2H4N3+
84.9839	1	C4H2Cl+
89.0385	4	C7H5+
91.0542	1	C7H7+
98.9996	4	C5H4Cl+
102.0464	5	C8H6+
108.9841	2	C6H2Cl+
115.0542	4	C9H7+
116.062	1	C9H8+
122.9996	18	C7H4Cl+
124.0074	5	C7H5Cl+
125.0152	1	C7H6Cl+
126.0465	1	C10H6+
128.0619	3	C10H8+
129.0447	1	C8H5N2+
129.0697	3	C10H9+
131.0492	2	C9H7O+
132.9604	1	C5H3Cl2+
136.0074	6	C8H5Cl+
137.0153	2	C8H6Cl+
141.0698	9	C11H9+
143.0855	1	C11H11+
144.9604	1	C6H3Cl2+
145.0647	2	C10H9O+
149.015	1	C9H6Cl+
150.0231	1	C9H7Cl+
152.0621	1	C12H8+
153.0699	6	C12H9+
154.0776	8	C12H10+
155.0602	3	C10H7N2+
158.0723	1	C11H10O+
158.9762	59	C7H5Cl2+
162.0229	5	C10H7Cl+
162.9712	1	C6H5Cl2O+
163.0057	1	C8H4ClN2+
165.01	3	C9H6ClO+
169.1014	1	C13H13+
172.0877	1	C12H12O+
172.9556	3	C7H3Cl2O+
172.9668	8	C6H3Cl2N2+
175.0308	2	C11H8Cl+
176.0389	1	C11H9Cl+
182.0714	1	C11H8N3+
182.9762	2	C9H5Cl2+
189.0465	4	C12H10Cl+
208.9917	1	C11H7Cl2+
