Mass spectrum: Spirotetramat; LC-ESI-QFT; MS2; CE: 60; R=17500; [M+H]+
Name: Spirotetramat
Formula: C21H27NO5
Exact mass: 373.1889
SMILES: CCOC(=O)OC1=C(C(=O)N[C@@]11CC[C@@H](CC1)OC)C1=C(C)C=CC(C)=C1
InChI: InChI=1S/C21H27NO5/c1-5-26-20(24)27-18-17(16-12-13(2)6-7-14(16)3)19(23)22-21(18)10-8-15(25-4)9-11-21/h6-7,12,15H,5,8-11H2,1-4H3,(H,22,23)/t15-,21+
Instrument: Q Exactive Orbitrap (Thermo Scientific)
Instrument type: LC-ESI-QFT
Ms type: MS2
Ion mode: POSITIVE
Ionization: ESI
Fragmentation mode: HCD
Collision energy: 60
Resolution: 17500
Column name: Acquity BEH C18 1.7um, 2.1x150mm (Waters)
Retention time: 17.784 min
Base peak: 79.0211
Precursor m/z: 374.1962
Precursor type: [M+H]+
Precursor intensity: 20254041.0625
m/z	relative intensity	assigned
53.0386	1	C4H5+
55.0179	4	C3H3O+
55.0542	4	C4H7+
57.0699	7	C4H9+
65.0386	1	C5H5+
67.0542	19	C5H7+
68.0494	1	C4H6N+
69.0335	7	C4H5O+
69.0699	2	C5H9+
79.0542	16	C6H7+
80.0495	1	C5H6N+
81.0334	2	C5H5O+
81.0573	1	C5H7N+
81.0699	9	C6H9+
82.0651	1	C5H8N+
91.0543	32	C7H7+
93.0699	6	C7H9+
94.0652	2	C6H8N+
95.0492	3	C6H7O+
95.0856	3	C7H11+
96.0808	20	C6H10N+
103.0543	2	C8H7+
105.0699	42	C8H9+
107.049	3	C7H7O+
107.0855	3	C8H11+
108.0808	2	C7H10N+
115.0543	17	C9H7+
116.062	2	C9H8+
117.0699	202	C9H9+
118.0777	1	C9H10+
119.0856	113	C9H11+
121.1012	1	C9H13+
124.0393	5	C6H6NO2+
124.0758	6	C7H10NO+
128.062	8	C10H8+
129.0699	16	C10H9+
130.0778	26	C10H10+
131.0856	31	C10H11+
132.0936	1	C10H12+
133.0648	9	C9H9O+
133.1013	6	C10H13+
136.0758	7	C8H10NO+
138.055	1	C7H8NO2+
141.0698	3	C11H9+
142.05	1	C6H8NO3+
142.0779	6	C11H10+
143.0856	67	C11H11+
144.0809	2	C10H10N+
144.0932	1	C11H12+
145.065	29	C10H9O+
145.089	22	C10H11N+
145.1012	189	C11H13+
146.06	1	C9H8NO+
146.0727	3	C10H10O+
146.0966	3	C10H12N+
147.0805	35	C10H11O+
147.1169	16	C11H15+
153.0701	3	C12H9+
154.0776	1	C12H10+
155.0856	77	C12H11+
156.0934	9	C12H12+
157.0649	2	C11H9O+
157.089	6	C11H11N+
157.1013	14	C12H13+
158.0727	16	C11H10O+
158.0966	2	C11H12N+
159.0805	7	C11H11O+
159.1045	1	C11H13N+
159.1168	3	C12H15+
160.1121	33	C11H14N+
161.0961	2	C11H13O+
164.0704	1	C9H10NO2+
165.07	3	C13H9+
166.0779	3	C13H10+
167.0855	6	C13H11+
168.0809	1	C12H10N+
168.0936	7	C13H12+
169.1013	23	C13H13+
170.0965	9	C12H12N+
171.0805	12	C12H11O+
171.1042	1	C12H13N+
171.1169	11	C13H15+
172.088	1	C12H12O+
172.1122	8	C12H14N+
173.0598	38	C11H9O2+
173.0835	11	C11H11NO+
173.0961	37	C12H13O+
174.0914	1	C11H12NO+
175.0752	1	C11H11O2+
176.0457	1	C10H8O3+
179.0857	8	C14H11+
180.0934	3	C14H12+
181.1014	13	C14H13+
182.0961	1	C13H12N+
182.1091	18	C14H14+
183.0679	4	C12H9NO+
183.0805	4	C13H11O+
183.117	20	C14H15+
184.1123	1	C13H14N+
185.0963	2	C13H13O+
187.0756	2	C12H11O2+
187.0991	1	C12H13NO+
188.1071	51	C12H14NO+
190.0862	1	C11H12NO2+
191.086	1	C15H11+
192.0934	15	C15H12+
193.1014	2	C15H13+
194.0564	2	C10H10O4+
194.109	4	C15H14+
195.081	2	C14H11O+
195.117	4	C15H15+
196.0759	5	C13H10NO+
196.112	1	C14H14N+
196.1249	4	C15H16+
197.0958	2	C14H13O+
197.1327	20	C15H17+
198.0914	7	C13H12NO+
199.0754	4	C13H11O2+
199.1484	1	C15H19+
200.0699	1	C12H10NO2+
200.1071	8	C13H14NO+
201.0784	3	C12H11NO2+
201.0912	1	C13H13O2+
206.1091	2	C16H14+
207.1168	12	C16H15+
209.0958	1	C15H13O+
209.12	1	C15H15N+
209.1327	2	C16H17+
210.0916	1	C14H12NO+
210.104	5	C15H14O+
211.0753	1	C14H11O2+
211.112	1	C15H15O+
212.1068	1	C14H14NO+
213.0787	1	C13H11NO2+
214.0865	9	C13H12NO2+
214.1589	3	C15H20N+
215.0947	2	C13H13NO2+
216.102	999	C13H14NO2+
219.1044	1	C16H13N+
224.1069	2	C15H14NO+
224.1191	1	C16H16O+
224.1433	1	C16H18N+
225.1273	7	C16H17O+
225.1635	1	C17H21+
228.1018	3	C14H14NO2+
228.1383	1	C15H18NO+
229.1097	1	C14H15NO2+
236.1067	1	C16H14NO+
237.1149	5	C16H15NO+
242.0809	1	C14H12NO3+
242.1178	1	C15H16NO2+
242.1542	1	C16H20NO+
244.1333	57	C15H18NO2+
250.1225	1	C17H16NO+
251.1304	1	C17H17NO+
252.1381	4	C17H18NO+
253.122	4	C17H17O2+
254.117	1	C16H16NO2+
268.1335	2	C17H18NO2+
270.1489	35	C17H20NO2+
286.1443	1	C17H20NO3+
298.181	1	C19H24NO2+
302.1749	1	C18H24NO3+
