Mass spectrum: 4-Methylumbelliferone; LC-ESI-QFT; MS2; CE: 45; R=17500; [M+H]+
Name: 4-Methylumbelliferone
Name: 7-hydroxy-4-methylchromen-2-one
Formula: C10H8O3
Exact mass: 176.0473
SMILES: CC1=CC(=O)OC2=C1C=CC(O)=C2
InChI: InChI=1S/C10H8O3/c1-6-4-10(12)13-9-5-7(11)2-3-8(6)9/h2-5,11H,1H3
Instrument: Q Exactive Orbitrap (Thermo Scientific)
Instrument type: LC-ESI-QFT
Ms type: MS2
Ion mode: POSITIVE
Ionization: ESI
Fragmentation mode: HCD
Collision energy: 45
Resolution: 17500
Column name: Acquity BEH C18 1.7um, 2.1x150mm (Waters)
Retention time: 14.061 min
Base peak: 79.0211
Precursor m/z: 177.0546
Precursor type: [M+H]+
Precursor intensity: 4558404.8125
m/z	relative intensity	assigned
53.0386	1	C4H5+
55.0179	12	C3H3O+
68.9971	12	C3HO2+
77.0385	1	C6H5+
79.0542	31	C6H7+
81.0699	12	C6H9+
91.0543	9	C7H7+
93.0699	15	C7H9+
95.0492	3	C6H7O+
103.0543	25	C8H7+
105.0699	186	C8H9+
107.0492	5	C7H7O+
109.0651	1	C7H9O+
115.0543	12	C9H7+
121.0648	114	C8H9O+
131.0492	7	C9H7O+
132.0571	1	C9H8O+
133.0648	33	C9H9O+
149.0599	19	C9H9O2+
177.0547	999	C10H9O3+
