Mass spectrum: Buspirone; LC-ESI-QFT; MS2; CE: 90; R=17500; [M+H]+
Name: Buspirone
Name: 8-[4-(4-pyrimidin-2-ylpiperazin-1-yl)butyl]-8-azaspiro[4.5]decane-7,9-dione
Formula: C21H31N5O2
Exact mass: 385.2478
SMILES: O=C1CC2(CCCC2)CC(=O)N1CCCCN1CCN(CC1)C1=NC=CC=N1
InChI: InChI=1S/C21H31N5O2/c27-18-16-21(6-1-2-7-21)17-19(28)26(18)11-4-3-10-24-12-14-25(15-13-24)20-22-8-5-9-23-20/h5,8-9H,1-4,6-7,10-17H2
Instrument: Q Exactive Orbitrap (Thermo Scientific)
Instrument type: LC-ESI-QFT
Ms type: MS2
Ion mode: POSITIVE
Ionization: ESI
Fragmentation mode: HCD
Collision energy: 90
Resolution: 17500
Column name: Acquity BEH C18 1.7um, 2.1x150mm (Waters)
Retention time: 13.245 min
Base peak: 79.0211
Precursor m/z: 386.2551
Precursor type: [M+H]+
Precursor intensity: 33529373.53125
m/z	relative intensity	assigned
52.0182	4	C3H2N+
53.0022	4	C3HO+
53.0135	3	C2HN2+
53.0386	28	C4H5+
54.0338	21	C3H4N+
55.0179	17	C3H3O+
55.0542	90	C4H7+
56.0495	69	C3H6N+
58.0651	2	C3H8N+
60.0444	12	C2H6NO+
65.0385	10	C5H5+
67.0542	246	C5H7+
68.0494	40	C4H6N+
68.997	4	C3HO2+
69.0447	16	C3H5N2+
69.0572	1	C4H7N+
69.0698	12	C5H9+
70.0287	4	C3H4NO+
70.0651	16	C4H8N+
71.0128	1	C3H3O2+
72.0807	52	C4H10N+
78.0338	22	C5H4N+
79.029	10	C4H3N2+
79.0542	135	C6H7+
80.0494	367	C5H6N+
81.0448	89	C4H5N2+
81.0698	508	C6H9+
82.0524	1	C4H6N2+
82.065	4	C5H8N+
83.0855	14	C6H11+
84.0443	8	C4H6NO+
84.0808	29	C5H10N+
86.0237	1	C3H4NO2+
91.0542	10	C7H7+
93.0448	3	C5H5N2+
93.0699	21	C7H9+
94.0651	4	C6H8N+
95.0604	332	C5H7N2+
95.0855	355	C7H11+
96.0444	104	C5H6NO+
96.0556	121	C4H6N3+
96.0808	8	C6H10N+
97.0396	314	C4H5N2O+
98.06	13	C5H8NO+
98.0964	121	C6H12N+
104.0495	2	C7H6N+
105.0447	18	C6H5N2+
105.0698	15	C8H9+
106.04	25	C5H4N3+
106.0652	3	C7H8N+
107.0603	6	C6H7N2+
107.0855	21	C8H11+
108.0556	25	C5H6N3+
108.0808	5	C7H10N+
109.0648	381	C7H9O+
109.1011	121	C8H13+
110.0599	2	C6H8NO+
110.0965	13	C7H12N+
111.0553	4	C5H7N2O+
114.0917	1	C6H12NO+
117.0696	5	C9H9+
119.0604	11	C7H7N2+
120.0556	46	C6H6N3+
121.064	1	C6H7N3+
121.076	9	C7H9N2+
122.0712	999	C6H8N3+
123.0803	85	C8H11O+
124.0505	1	C5H6N3O+
124.1121	13	C8H14N+
126.0914	16	C7H12NO+
131.0604	13	C8H7N2+
132.0555	14	C7H6N3+
133.0634	63	C7H7N3+
134.0711	2	C7H8N3+
134.0964	7	C9H12N+
135.0801	4	C9H11O+
136.0867	3	C7H10N3+
140.1069	36	C8H14NO+
146.0712	6	C8H8N3+
147.0666	2	C7H7N4+
148.0869	128	C8H10N3+
149.0822	1	C7H9N4+
150.0918	1	C9H12NO+
150.1026	31	C8H12N3+
151.0751	4	C9H11O2+
152.1069	31	C9H14NO+
162.0898	2	C8H10N4+
168.1019	10	C9H14NO2+
