Mass spectrum: Oxazepam; LC-ESI-QFT; MS2; CE: 60; R=17500; [M+H]+
Name: Oxazepam
Name: 7-chloro-3-hydroxy-5-phenyl-1,3-dihydro-1,4-benzodiazepin-2-one
Formula: C15H11ClN2O2
Exact mass: 286.0509
SMILES: OC1N=C(C2=CC=CC=C2)C2=CC(Cl)=CC=C2NC1=O
InChI: InChI=1S/C15H11ClN2O2/c16-10-6-7-12-11(8-10)13(9-4-2-1-3-5-9)18-15(20)14(19)17-12/h1-8,15,20H,(H,17,19)
Instrument: Q Exactive Orbitrap (Thermo Scientific)
Instrument type: LC-ESI-QFT
Ms type: MS2
Ion mode: POSITIVE
Ionization: ESI
Fragmentation mode: HCD
Collision energy: 60
Resolution: 17500
Column name: Acquity BEH C18 1.7um, 2.1x150mm (Waters)
Retention time: 16.615 min
Base peak: 79.0211
Precursor m/z: 287.0582
Precursor type: [M+H]+
Precursor intensity: 11762132.6875
m/z	relative intensity	assigned
53.0386	4	C4H5+
77.0386	2	C6H5+
79.0542	6	C6H7+
92.0495	1	C6H6N+
93.0573	104	C6H7N+
95.0491	14	C6H7O+
98.9994	1	C5H4Cl+
104.0494	527	C7H6N+
105.0336	1	C7H5O+
105.0448	5	C6H5N2+
110.9995	1	C6H4Cl+
117.0447	2	C7H5N2+
118.0525	17	C7H6N2+
122.06	3	C7H8NO+
126.0105	8	C6H5ClN+
128.0261	157	C6H7ClN+
129.0103	2	C6H6ClO+
129.0448	3	C8H5N2+
135.0552	1	C7H7N2O+
136.0757	5	C8H10NO+
138.0105	47	C7H5ClN+
139.0056	8	C6H4ClN2+
145.0509	4	C9H7NO+
152.0136	3	C7H5ClN2+
152.0622	2	C12H8+
153.0213	116	C7H6ClN2+
154.0054	2	C7H5ClNO+
156.0209	6	C7H7ClNO+
163.0056	140	C8H4ClN2+
164.0008	5	C10N2O+
166.0054	32	C8H5ClNO+
169.0647	1	C12H9O+
178.065	4	C13H8N+
179.0006	1	C8H4ClN2O+
179.0726	3	C13H9N+
180.0083	1	C8H5ClN2O+
180.0806	1	C13H10N+
181.0162	27	C8H6ClN2O+
181.0886	1	C13H11N+
195.0319	15	C9H8ClN2O+
195.0917	17	C13H11N2+
196.0756	1	C13H10NO+
199.0269	2	C8H8ClN2O2+
205.0759	13	C14H9N2+
206.084	6	C14H10N2+
207.0678	18	C14H9NO+
214.0417	18	C13H9ClN+
216.0455	1	C12H9ClN2+
216.0575	2	C13H11ClN+
224.0261	1	C14H7ClN+
229.0527	14	C13H10ClN2+
231.0683	84	C13H12ClN2+
239.0374	2	C14H8ClN2+
240.0452	2	C14H9ClN2+
241.0526	999	C14H10ClN2+
242.0367	3	C14H9ClNO+
257.0475	23	C14H10ClN2O+
258.055	1	C14H11ClN2O+
269.0476	15	C15H10ClN2O+
