Mass spectrum: Haloxyfop; LC-ESI-QFT; MS2; CE: 60; R=17500; [M+H]+
Name: Haloxyfop
Name: 2-[4-[3-chloro-5-(trifluoromethyl)pyridin-2-yl]oxyphenoxy]propanoic acid
Formula: C15H11ClF3NO4
Exact mass: 361.0329
SMILES: CC(OC1=CC=C(OC2=NC=C(C=C2Cl)C(F)(F)F)C=C1)C(O)=O
InChI: InChI=1S/C15H11ClF3NO4/c1-8(14(21)22)23-10-2-4-11(5-3-10)24-13-12(16)6-9(7-20-13)15(17,18)19/h2-8H,1H3,(H,21,22)
Instrument: Q Exactive Orbitrap (Thermo Scientific)
Instrument type: LC-ESI-QFT
Ms type: MS2
Ion mode: POSITIVE
Ionization: ESI
Fragmentation mode: HCD
Collision energy: 60
Resolution: 17500
Column name: Acquity BEH C18 1.7um, 2.1x150mm (Waters)
Retention time: 18.650 min
Base peak: 79.0211
Precursor m/z: 362.0401
Precursor type: [M+H]+
Precursor intensity: 6973508.21875
m/z	relative intensity	assigned
55.0179	11	C3H3O+
63.023	4	C5H3+
65.0386	212	C5H5+
67.0544	4	C5H7+
73.0283	3	C3H5O2+
75.0229	11	C6H3+
81.0335	6	C5H5O+
91.0543	999	C7H7+
92.0258	22	C6H4O+
92.0622	7	C7H8+
93.0336	9	C6H5O+
94.0414	11	C6H6O+
95.0493	7	C6H7O+
98.9842	290	CH4ClO3+
109.0052	4	C3H6ClO2+
109.0286	14	C6H5O2+
109.0649	13	C7H9O+
111.0443	20	C6H7O2+
116.9948	4	CH6ClO4+
119.0494	44	C8H7O+
119.0605	11	CH10FNO4+
120.057	18	C8H8O+
121.0285	55	C7H5O2+
121.065	12	C8H9O+
127.0156	3	C3H8ClO3+
131.0104	8	C2H8ClO4+
170.9718	41	C6H2ClNO3+
172.969	81	C3H2ClF2NO3+
192.0211	11	C10H7ClNO+
197.993	49	C6H4ClF3NO+
199.0371	8	C7H9ClF3N+
206.0414	5	C11H6F2NO+
208.0371	5	C7H11ClNO4+
216.0254	28	C12H4F2NO+
219.0058	10	C9H5ClF3N+
220.0141	6	C9H6ClF3N+
226.0476	48	C11H7F3NO+
232.0134	18	C10H6ClF3N+
235.0611	7	C13H8F3N+
237.04	23	C12H6F3NO+
245.0218	7	C11H7ClF3N+
246.031	12	C13H9ClNO2+
252.0022	27	C12H5ClF2NO+
252.0631	7	C13H9F3NO+
254.0422	15	C12H7F3NO2+
260.0457	9	C12H10ClF3N+
261.0164	35	C11H7ClF3NO+
270.0293	8	C13H8ClF3N+
272.0086	467	C12H6ClF3NO+
288.0035	340	C12H6ClF3NO2+
288.0397	33	C13H10ClF3NO+
289.0118	11	C12H7ClF3NO2+
290.0195	12	C12H8ClF3NO2+
298.0236	3	C14H8ClF3NO+
316.0344	11	C14H10ClF3NO2+
