Mass spectrum: Tebufenpyrad; LC-ESI-QFT; MS2; CE: 75; R=17500; [M+H]+
Name: Tebufenpyrad
Name: N-[(4-tert-butylphenyl)methyl]-4-chloro-5-ethyl-2-methylpyrazole-3-carboxamide
Formula: C18H24ClN3O
Exact mass: 333.1608
SMILES: CCC1=NN(C)C(C(=O)NCC2=CC=C(C=C2)C(C)(C)C)=C1Cl
InChI: InChI=1S/C18H24ClN3O/c1-6-14-15(19)16(22(5)21-14)17(23)20-11-12-7-9-13(10-8-12)18(2,3)4/h7-10H,6,11H2,1-5H3,(H,20,23)
Instrument: Q Exactive Orbitrap (Thermo Scientific)
Instrument type: LC-ESI-QFT
Ms type: MS2
Ion mode: POSITIVE
Ionization: ESI
Fragmentation mode: HCD
Collision energy: 75
Resolution: 17500
Column name: Acquity BEH C18 1.7um, 2.1x150mm (Waters)
Retention time: 19.491 min
Base peak: 79.0211
Precursor m/z: 334.1681
Precursor type: [M+H]+
Precursor intensity: 20128131
m/z	relative intensity	assigned
53.0022	2	C3HO+
53.0386	2	C4H5+
54.0338	38	C3H4N+
55.0416	3	C3H5N+
55.0542	21	C4H7+
56.0131	6	C2H2NO+
56.0495	18	C3H6N+
57.0699	4	C4H9+
61.9791	3	CHClN+
62.9995	19	C2H4Cl+
63.9949	2	CH3ClN+
65.0385	3	C5H5+
66.0338	1	C4H4N+
67.0417	1	C4H5N+
67.0542	3	C5H7+
68.0494	11	C4H6N+
69.0697	4	C5H9+
70.065	1	C4H8N+
74.9869	2	C2H2ClN+
75.9948	280	C2H3ClN+
77.0152	2	C3H6Cl+
77.0384	1	C6H5+
78.0104	6	C2H5ClN+
78.0463	1	C6H6+
79.0542	19	C6H7+
80.0494	2	C5H6N+
81.0447	45	C4H5N2+
82.0525	16	C4H6N2+
82.0651	7	C5H8N+
87.9948	3	C3H3ClN+
90.0105	128	C3H5ClN+
91.0542	110	C7H7+
93.0699	12	C7H9+
95.0491	4	C6H7O+
95.0603	10	C5H7N2+
101.9979	1	C3H3ClN2+
102.0105	4	C4H5ClN+
103.0541	12	C8H7+
104.0261	7	C4H7ClN+
104.062	24	C8H8+
105.0699	243	C8H9+
107.0855	41	C8H11+
109.0648	2	C7H9O+
109.0759	5	C6H9N2+
110.0838	1	C6H10N2+
115.0058	10	C4H4ClN2+
115.0542	9	C9H7+
116.062	2	C9H8+
117.0214	999	C4H6ClN2+
117.0697	309	C9H9+
119.0855	298	C9H11+
129.0214	6	C5H6ClN2+
129.0697	1	C10H9+
130.0292	28	C5H7ClN2+
130.0775	1	C10H10+
131.0855	28	C10H11+
132.0933	399	C10H12+
133.0164	1	C4H6ClN2O+
143.0004	1	C5H4ClN2O+
143.0371	4	C6H8ClN2+
145.0526	213	C6H10ClN2+
145.1011	13	C11H13+
147.1167	127	C11H15+
157.0526	2	C7H10ClN2+
158.0595	1	C10H8NO+
162.1273	1	C11H16N+
171.0318	30	C7H8ClN2O+
188.0587	5	C7H11ClN3O+
189.0429	1	C13H5N2+
200.0584	1	C8H11ClN3O+
275.13	1	C16H20ClN2+
