Mass spectrum: Fomesafen; LC-ESI-QFT; MS2; CE: 60; R=17500; [M-H]-
Name: Fomesafen
Name: 5-[2-chloro-4-(trifluoromethyl)phenoxy]-N-methylsulfonyl-2-nitrobenzamide
Formula: C15H10ClF3N2O6S
Exact mass: 437.9900
SMILES: CS(=O)(=O)NC(=O)C1=CC(OC2=CC=C(C=C2Cl)C(F)(F)F)=CC=C1[N+]([O-])=O
InChI: InChI=1S/C15H10ClF3N2O6S/c1-28(25,26)20-14(22)10-7-9(3-4-12(10)21(23)24)27-13-5-2-8(6-11(13)16)15(17,18)19/h2-7H,1H3,(H,20,22)
Instrument: Q Exactive Orbitrap (Thermo Scientific)
Instrument type: LC-ESI-QFT
Ms type: MS2
Ion mode: NEGATIVE
Ionization: ESI
Fragmentation mode: HCD
Collision energy: 60
Resolution: 17500
Column name: Acquity BEH C18 1.7um, 2.1x150mm (Waters)
Retention time: 17.863 min
Base peak: 227.999
Precursor m/z: 436.9827
Precursor type: [M-H]-
Precursor intensity: 20414323.09961
m/z	relative intensity	assigned
59.0138	42	C2H3O2-
61.9704	1	NOS-
63.9625	43	O2S-
65.0033	1	C4HO-
65.9986	2	C3NO-
69.0346	32	C4H5O-
72.0091	119	C2H2NO2-
75.9863	2	CH2NOS-
79.0189	5	C5H3O-
80.9653	7	HO3S-
81.0346	1	C5H5O-
85.0268	1	C2H4F3-
85.0294	3	C4H5O2-
93.9971	1	CH4NO2S-
95.0138	5	C5H3O2-
97.0295	21	C5H5O2-
101.0608	45	C5H9O2-
107.0138	14	C6H3O2-
110.016	1	C9H2-
119.976	3	C2H2NO3S-
123.0089	5	C6H3O3-
125.0244	23	C6H5O3-
130.0224	1	C9H3F-
133.017	1	C7H3NO2-
137.0118	47	C6H3NO3-
148.0191	1	C11H2N-
158.0172	2	C10H3FO-
159.0063	11	C7H2F3O-
172.9812	1	C7H3ClFO2-
174.0286	2	C11H4F2-
174.9768	73	C7H2ClF2O-
182.0173	5	C12H3FO-
194.983	999	C7H3ClF3O-
195.9862	10	C11H2NOS-
198.0297	24	C10H5F3O-
202.0238	8	C12H4F2O-
206.022	2	C11H7FOS-
209.022	3	C11H4F3O-
210.0175	1	C4H8ClF3NO3-
222.0298	206	C12H5F3O-
238.0246	1	C12H5F3O2-
240.0402	2	C12H7F3O2-
