Mass spectrum: PharmaGSID_48518; LC-ESI-QFT; MS2; CE: 45; R=17500; [M+H]+
Name: PharmaGSID_48518
Name: 2-bromo-4-fluoro-N-[(E)-2-thiophen-2-ylethenyl]sulfonylbenzamide
Formula: C13H9BrFNO3S2
Exact mass: 388.9191
SMILES: FC1=CC(Br)=C(C=C1)C(=O)NS(=O)(=O)\C=C\C1=CC=CS1
InChI: InChI=1S/C13H9BrFNO3S2/c14-12-8-9(15)3-4-11(12)13(17)16-21(18,19)7-5-10-2-1-6-20-10/h1-8H,(H,16,17)/b7-5+
Instrument: Q Exactive Orbitrap (Thermo Scientific)
Instrument type: LC-ESI-QFT
Ms type: MS2
Ion mode: POSITIVE
Ionization: ESI
Fragmentation mode: HCD
Collision energy: 45
Resolution: 17500
Column name: Acquity BEH C18 1.7um, 2.1x150mm (Waters)
Retention time: 16.424 min
Base peak: 79.0212
Precursor m/z: 389.9264
Precursor type: [M+H]+
Precursor intensity: 2140325
m/z	relative intensity	assigned
65.0385	39	C5H5+
68.9791	4	C3HS+
81.0335	9	C5H5O+
83.0127	11	C4H3O2+
84.0028	9	C4H4S+
85.0107	3	C4H5S+
86.9899	7	C3H3OS+
97.0108	24	C5H5S+
102.9671	28	C3H3S2+
109.0107	999	C6H5S+
116.9827	7	C4H5S2+
123.9978	2	C6H4OS+
125.0055	5	C6H5OS+
126.9673	9	C5H3S2+
127.0215	2	C6H7OS+
144.9775	26	C5H5OS2+
154.9619	78	C6H3OS2+
172.9726	86	C6H5O2S2+
200.9347	172	C7H3BrFO+
