Mass spectrum: SB243213A; LC-ESI-QFT; MS2; CE: 45; R=17500; [M-H]-
Name: SB243213A
Name: SB 243213
Name: 5-methyl-N-[6-(2-methylpyridin-3-yl)oxypyridin-3-yl]-6-(trifluoromethyl)-2,3-dihydroindole-1-carboxamide
Formula: C22H19F3N4O2
Exact mass: 428.1460
SMILES: CC1=CC2=C(C=C1C(F)(F)F)N(CC2)C(=O)NC1=CC=C(OC2=CC=CN=C2C)N=C1
InChI: InChI=1S/C22H19F3N4O2/c1-13-10-15-7-9-29(18(15)11-17(13)22(23,24)25)21(30)28-16-5-6-20(27-12-16)31-19-4-3-8-26-14(19)2/h3-6,8,10-12H,7,9H2,1-2H3,(H,28,30)
Instrument: Q Exactive Orbitrap (Thermo Scientific)
Instrument type: LC-ESI-QFT
Ms type: MS2
Ion mode: NEGATIVE
Ionization: ESI
Fragmentation mode: HCD
Collision energy: 45
Resolution: 17500
Column name: Acquity BEH C18 1.7um, 2.1x150mm (Waters)
Retention time: 17.974 min
Base peak: 203.0131
Precursor m/z: 427.1387
Precursor type: [M-H]-
Precursor intensity: 13472231.91602
m/z	relative intensity	assigned
116.0506	1	C8H6N-
140.0505	51	C10H6N-
158.0411	4	C10H5FN-
160.0568	57	C10H7FN-
173.0583	9	C9H8F3-
180.063	63	C10H8F2N-
198.0537	291	C10H7F3N-
200.0691	999	C10H9F3N-
244.0589	15	C11H9F3NO2-
