Mass spectrum: 17-Methyltestosterone; LC-ESI-QFT; MS2; CE: 90; R=17500; [M+H]+
Name: 17-Methyltestosterone
Name: Methyltestosterone
Name: (8R,9S,10R,13S,14S,17S)-17-hydroxy-10,13,17-trimethyl-2,6,7,8,9,11,12,14,15,16-decahydro-1H-cyclopenta[a]phenanthren-3-one
Formula: C20H30O2
Exact mass: 302.2246
SMILES: C[C@]1(O)CC[C@H]2[C@@H]3CCC4=CC(=O)CC[C@]4(C)[C@H]3CC[C@]12C
InChI: InChI=1S/C20H30O2/c1-18-9-6-14(21)12-13(18)4-5-15-16(18)7-10-19(2)17(15)8-11-20(19,3)22/h12,15-17,22H,4-11H2,1-3H3/t15-,16+,17+,18+,19+,20+/m1/s1
Instrument: Q Exactive Orbitrap (Thermo Scientific)
Instrument type: LC-ESI-QFT
Ms type: MS2
Ion mode: POSITIVE
Ionization: ESI
Fragmentation mode: HCD
Collision energy: 90
Resolution: 17500
Column name: Acquity BEH C18 1.7um, 2.1x150mm (Waters)
Retention time: 18.150 min
Base peak: 79.0212
Precursor m/z: 303.2319
Precursor type: [M+H]+
Precursor intensity: 5449342.5625
m/z	relative intensity	assigned
51.0229	2	C4H3+
53.0022	23	C3HO+
53.0386	66	C4H5+
55.0179	90	C3H3O+
55.0542	101	C4H7+
57.0334	11	C3H5O+
57.0699	3	C4H9+
65.0386	43	C5H5+
66.0464	7	C5H6+
67.0542	262	C5H7+
69.0334	21	C4H5O+
69.0698	118	C5H9+
71.0491	8	C4H7O+
77.0385	11	C6H5+
79.0542	664	C6H7+
81.0699	481	C6H9+
82.0414	4	C5H6O+
83.0491	93	C5H7O+
91.0542	343	C7H7+
92.0621	5	C7H8+
93.0699	213	C7H9+
94.0413	23	C6H6O+
95.0491	131	C6H7O+
95.0855	164	C7H11+
97.0648	999	C6H9O+
103.0543	18	C8H7+
105.0699	216	C8H9+
107.0492	30	C7H7O+
107.0855	89	C8H11+
108.057	5	C7H8O+
109.0648	830	C7H9O+
111.0805	5	C7H11O+
115.0542	18	C9H7+
116.0621	10	C9H8+
117.0699	47	C9H9+
119.0856	115	C9H11+
121.0648	49	C8H9O+
121.1012	28	C9H13+
123.0804	116	C8H11O+
128.0619	21	C10H8+
129.0699	38	C10H9+
130.0776	11	C10H10+
131.0856	48	C10H11+
133.1011	36	C10H13+
135.0803	2	C9H11O+
135.1166	5	C10H15+
137.0961	2	C9H13O+
141.0698	15	C11H9+
142.0778	25	C11H10+
143.0854	28	C11H11+
144.0935	13	C11H12+
145.1013	31	C11H13+
146.109	2	C11H14+
147.0805	3	C10H11O+
147.1168	7	C11H15+
148.0881	5	C10H12O+
149.0961	7	C10H13O+
154.0779	2	C12H10+
155.0856	17	C12H11+
156.0934	12	C12H12+
157.1014	17	C12H13+
158.1093	2	C12H14+
159.1167	13	C12H15+
161.0962	3	C11H13O+
167.0855	7	C13H11+
169.1014	10	C13H13+
170.1092	3	C13H14+
171.1169	7	C13H15+
181.1012	5	C14H13+
182.1091	4	C14H14+
183.1168	5	C14H15+
185.132	4	C14H17+
195.1171	2	C15H15+
197.1323	4	C15H17+
200.1198	2	C14H16O+
