Mass spectrum: Flutriafol; LC-ESI-QFT; MS2; CE: 45; R=17500; [M+H]+
Name: Flutriafol
Name: 1-(2-fluorophenyl)-1-(4-fluorophenyl)-2-(1,2,4-triazol-1-yl)ethanol
Formula: C16H13F2N3O
Exact mass: 301.1027
SMILES: OC(CN1C=NC=N1)(C1=CC=C(F)C=C1)C1=C(F)C=CC=C1
InChI: InChI=1S/C16H13F2N3O/c17-13-7-5-12(6-8-13)16(22,9-21-11-19-10-20-21)14-3-1-2-4-15(14)18/h1-8,10-11,22H,9H2
Instrument: Q Exactive Orbitrap (Thermo Scientific)
Instrument type: LC-ESI-QFT
Ms type: MS2
Ion mode: POSITIVE
Ionization: ESI
Fragmentation mode: HCD
Collision energy: 45
Resolution: 17500
Column name: Acquity BEH C18 1.7um, 2.1x150mm (Waters)
Retention time: 16.275 min
Base peak: 79.0211
Precursor m/z: 302.1099
Precursor type: [M+H]+
Precursor intensity: 8551138
m/z	relative intensity	assigned
70.0399	999	C2H4N3+
91.0543	1	C7H7+
109.0448	121	C7H6F+
113.0397	1	C6H6FO+
123.024	302	C7H4FO+
137.0397	24	C8H6FO+
185.0762	1	C13H10F+
195.0605	3	C14H8F+
215.0666	11	C14H9F2+
233.0771	11	C14H11F2O+
