Mass spectrum: Imazalil; LC-ESI-QFT; MS2; CE: 60; R=17500; [M+H]+
Name: Imazalil
Name: Enilconazole
Name: 1-[2-(2,4-dichlorophenyl)-2-prop-2-enoxyethyl]imidazole
Formula: C14H14Cl2N2O
Exact mass: 296.0483
SMILES: ClC1=CC(Cl)=C(C=C1)C(CN1C=CN=C1)OCC=C
InChI: InChI=1S/C14H14Cl2N2O/c1-2-7-19-14(9-18-6-5-17-10-18)12-4-3-11(15)8-13(12)16/h2-6,8,10,14H,1,7,9H2
Instrument: Q Exactive Orbitrap (Thermo Scientific)
Instrument type: LC-ESI-QFT
Ms type: MS2
Ion mode: POSITIVE
Ionization: ESI
Fragmentation mode: HCD
Collision energy: 60
Resolution: 17500
Column name: Acquity BEH C18 1.7um, 2.1x150mm (Waters)
Retention time: 15.271 min
Base peak: 79.0211
Precursor m/z: 297.0556
Precursor type: [M+H]+
Precursor intensity: 33255032.5
m/z	relative intensity	assigned
52.0182	1	C3H2N+
53.0022	128	C3HO+
53.9974	23	C2NO+
54.01	2	C3H2O+
54.0338	7	C3H4N+
55.0179	2	C3H3O+
55.0542	9	C4H7+
56.0494	1	C3H6N+
65.0385	5	C5H5+
67.0416	18	C4H5N+
67.9893	7	ClH3NO+
68.0494	7	C4H6N+
69.0447	547	C3H5N2+
80.0494	11	C5H6N+
81.0447	230	C4H5N2+
82.0525	39	C4H6N2+
82.0651	41	C5H8N+
89.0386	1	C7H5+
92.0495	1	C6H6N+
98.9998	1	C5H4Cl+
99.0553	1	C4H7N2O+
102.0464	12	C8H6+
103.0543	1	C8H7+
108.0688	1	C6H8N2+
109.0761	87	C6H9N2+
113.071	3	C5H9N2O+
115.0542	8	C9H7+
122.9996	11	C7H4Cl+
124.0075	1	C7H5Cl+
125.0152	7	C7H6Cl+
128.062	5	C10H8+
129.0447	2	C8H5N2+
129.0698	24	C10H9+
130.0777	1	C10H10+
132.9605	1	C5H3Cl2+
137.0153	21	C8H6Cl+
138.0231	16	C8H7Cl+
139.0542	3	C11H7+
140.0621	3	C11H8+
141.0699	88	C11H9+
149.0154	14	C9H6Cl+
150.0231	29	C9H7Cl+
155.0609	1	C10H7N2+
158.9763	999	C7H5Cl2+
163.0309	5	C10H8Cl+
164.0388	27	C10H9Cl+
165.01	4	C9H6ClO+
170.9765	2	C8H5Cl2+
171.9841	3	C8H6Cl2+
172.992	238	C8H7Cl2+
175.031	15	C11H8Cl+
176.0387	123	C11H9Cl+
177.0345	1	C10H8ClN+
182.9763	7	C9H5Cl2+
184.9919	8	C9H7Cl2+
186.9712	21	C8H5Cl2O+
193.0421	1	C8H13Cl2N+
194.0486	1	C11H11ClO+
195.9841	2	C10H6Cl2+
199.0077	4	C10H9Cl2+
200.9868	24	C9H7Cl2O+
203.0372	7	C11H8ClN2+
211.0072	1	C11H9Cl2+
239.0137	1	C11H9Cl2N2+
255.0086	41	C11H9Cl2N2O+
