Mass spectrum: Iprovalicarb; LC-ESI-QFT; MS2; CE: 60; R=17500; [M+H]+
Name: Iprovalicarb
Name: propan-2-yl N-[(2S)-3-methyl-1-[1-(4-methylphenyl)ethylamino]-1-oxobutan-2-yl]carbamate
Formula: C18H28N2O3
Exact mass: 320.2100
SMILES: CC(C)OC(=O)N[C@@H](C(C)C)C(=O)NC(C)C1=CC=C(C)C=C1
InChI: InChI=1S/C18H28N2O3/c1-11(2)16(20-18(22)23-12(3)4)17(21)19-14(6)15-9-7-13(5)8-10-15/h7-12,14,16H,1-6H3,(H,19,21)(H,20,22)/t14?,16-/m0/s1
Instrument: Q Exactive Orbitrap (Thermo Scientific)
Instrument type: LC-ESI-QFT
Ms type: MS2
Ion mode: POSITIVE
Ionization: ESI
Fragmentation mode: HCD
Collision energy: 60
Resolution: 17500
Column name: Acquity BEH C18 1.7um, 2.1x150mm (Waters)
Retention time: 17.761 min
Base peak: 79.0211
Precursor m/z: 321.2173
Precursor type: [M+H]+
Precursor intensity: 7711514.25
m/z	relative intensity	assigned
55.0542	18	C4H7+
57.0699	7	C4H9+
72.0808	80	C4H10N+
79.0542	12	C6H7+
91.0543	171	C7H7+
93.07	11	C7H9+
98.0601	74	C5H8NO+
103.0541	12	C8H7+
104.0622	13	C8H8+
116.0707	106	C5H10NO2+
117.07	134	C9H9+
117.1022	8	C5H13N2O+
119.0856	999	C9H11+
126.0185	8	C5H4NO3+
