Mass spectrum: AVE9423; LC-ESI-QFT; MS2; CE: 45; R=17500; [M-H]-
Name: AVE9423
Name: 1-(2-carboxyphenyl)-7-chloro-6-(2-chloro-4,6-difluoroanilino)-4-oxoquinoline-3-carboxylic acid
Formula: C23H12Cl2F2N2O5
Exact mass: 504.0091
SMILES: OC(=O)C1=CC=CC=C1N1C=C(C(O)=O)C(=O)C2=C1C=C(Cl)C(NC1=C(F)C=C(F)C=C1Cl)=C2
InChI: InChI=1S/C23H12Cl2F2N2O5/c24-14-8-19-12(7-17(14)28-20-15(25)5-10(26)6-16(20)27)21(30)13(23(33)34)9-29(19)18-4-2-1-3-11(18)22(31)32/h1-9,28H,(H,31,32)(H,33,34)
Instrument: Q Exactive Orbitrap (Thermo Scientific)
Instrument type: LC-ESI-QFT
Ms type: MS2
Ion mode: NEGATIVE
Ionization: ESI
Fragmentation mode: HCD
Collision energy: 45
Resolution: 17500
Column name: Acquity BEH C18 1.7um, 2.1x150mm (Waters)
Retention time: 17.443 min
Base peak: 112.9857
Precursor m/z: 503.0019
Precursor type: [M-H]-
Precursor intensity: 1623974.648438
m/z	relative intensity	assigned
146.9819	37	C6H2ClF2-
289.0587	51	C18H7F2N2-
295.0674	53	C20H8FN2-
302.0068	235	C17H9Cl2F-
303.0562	41	C21H7N2O-
305.0285	93	C18H7ClFN2-
306.0365	39	C18H8ClFN2-
314.0658	135	C20H8F2N2-
315.0744	151	C20H9F2N2-
323.0625	254	C21H8FN2O-
330.0373	133	C20H6F2NO2-
331.0444	473	C20H9ClFN2-
338.9906	144	C18H4ClF2NO2-
342.0611	65	C21H8F2N2O-
343.0687	509	C21H9F2N2O-
351.0501	119	C23H7F2NO-
359.0395	999	C21H9ClFN2O-
374.05	31	C21H8F2N2O3-
377.0292	134	C21H8ClF2N2O-
382.9818	25	C16H7Cl2F2N2O3-
