Mass spectrum: Tebuconazole; LC-ESI-QFT; MS2; CE: 90; R=17500; [M+H]+
Name: Tebuconazole
Name: 1-(4-chlorophenyl)-4,4-dimethyl-3-(1,2,4-triazol-1-ylmethyl)pentan-3-ol
Formula: C16H22ClN3O
Exact mass: 307.1451
SMILES: CC(C)(C)C(O)(CCC1=CC=C(Cl)C=C1)CN1C=NC=N1
InChI: InChI=1S/C16H22ClN3O/c1-15(2,3)16(21,10-20-12-18-11-19-20)9-8-13-4-6-14(17)7-5-13/h4-7,11-12,21H,8-10H2,1-3H3
Instrument: Q Exactive Orbitrap (Thermo Scientific)
Instrument type: LC-ESI-QFT
Ms type: MS2
Ion mode: POSITIVE
Ionization: ESI
Fragmentation mode: HCD
Collision energy: 90
Resolution: 17500
Column name: Acquity BEH C18 1.7um, 2.1x150mm (Waters)
Retention time: 18.582 min
Base peak: 79.0212
Precursor m/z: 308.1524
Precursor type: [M+H]+
Precursor intensity: 25433618.34375
m/z	relative intensity	assigned
53.0022	1	C3HO+
55.0542	7	C4H7+
57.0699	12	C4H9+
59.0491	32	C3H7O+
69.0698	1	C5H9+
70.0399	999	C2H4N3+
83.0856	1	C6H11+
89.0385	15	C7H5+
90.0463	2	C7H6+
91.0543	1	C7H7+
95.0492	1	C6H7O+
98.9996	5	C5H4Cl+
102.0465	1	C8H6+
103.0542	7	C8H7+
115.0542	27	C9H7+
116.062	36	C9H8+
125.0152	126	C7H6Cl+
128.0619	1	C10H8+
129.0698	6	C10H9+
130.0777	5	C10H10+
137.0154	1	C8H6Cl+
139.031	1	C8H8Cl+
143.0604	1	C9H7N2+
151.0309	2	C9H8Cl+
