Mass spectrum: Sulfasalazine; LC-ESI-QFT; MS2; CE: 75; R=17500; [M+H]+
Name: Sulfasalazine
Name: 2-hydroxy-5-[[4-(pyridin-2-ylsulfamoyl)phenyl]diazenyl]benzoic acid
Formula: C18H14N4O5S
Exact mass: 398.0685
SMILES: C1=CC=NC(=C1)NS(=O)(=O)C2=CC=C(C=C2)N=NC3=CC(=C(C=C3)O)C(=O)O
InChI: InChI=1S/C18H14N4O5S/c23-16-9-6-13(11-15(16)18(24)25)21-20-12-4-7-14(8-5-12)28(26,27)22-17-3-1-2-10-19-17/h1-11,23H,(H,19,22)(H,24,25)
Instrument: Q Exactive Orbitrap (Thermo Scientific)
Instrument type: LC-ESI-QFT
Ms type: MS2
Ion mode: POSITIVE
Ionization: ESI
Fragmentation mode: HCD
Collision energy: 75
Resolution: 17500
Column name: Acquity BEH C18 1.7um, 2.1x150mm (Waters)
Retention time: 16.988 min
Base peak: 79.0211
Precursor m/z: 399.0758
Precursor type: [M+H]+
Precursor intensity: 1822358.5
m/z	relative intensity	assigned
51.0231	8	C4H3+
53.0023	21	C3HO+
53.0386	21	C4H5+
55.0178	4	C3H3O+
62.0151	4	C5H2+
63.0229	70	C5H3+
66.0337	5	C4H4N+
67.0417	574	C4H5N+
68.997	9	C3HO2+
76.0309	23	C6H4+
79.018	6	C5H3O+
80.0132	26	C4H2NO+
81.0336	148	C5H5O+
89.0385	6	C7H5+
91.0179	731	C6H3O+
92.026	5	C6H4O+
93.0448	39	C5H5N2+
94.0526	684	C5H6N2+
95.0492	27	C6H7O+
95.0604	11	C5H7N2+
96.0444	17	C5H6NO+
105.0448	11	C6H5N2+
107.0127	14	C6H3O2+
109.0283	42	C6H5O2+
111.044	5	C6H7O2+
113.0387	6	C9H5+
119.0129	999	C7H3O2+
127.0544	12	C10H7+
128.0495	12	C9H6N+
129.0447	9	C8H5N2+
136.0267	4	C6H4N2O2+
137.0234	202	C7H5O3+
139.0543	126	C11H7+
140.0495	32	C10H6N+
143.0606	7	C9H7N2+
152.0343	8	C7H6NO3+
155.0337	6	C7H7O4+
155.0494	20	C11H7O+
155.0603	52	C10H7N2+
156.0446	4	C10H6NO+
156.0681	18	C10H8N2+
157.0068	4	C5H5N2O2S+
157.076	49	C10H9N2+
158.0603	8	C10H8NO+
165.0296	121	C7H5N2O3+
166.0524	9	C11H6N2+
167.0603	13	C11H7N2+
168.0683	31	C11H8N2+
169.0762	44	C11H9N2+
171.0555	4	C10H7N2O+
172.9887	10	C4H3N3O3S+
180.0552	6	C11H6N3+
181.0634	4	C11H7N3+
182.0718	6	C5H14N2O3S+
185.0346	32	C10H5N2O2+
185.071	18	C11H9N2O+
200.0582	10	C11H8N2O2+
202.0736	7	C11H10N2O2+
257.0557	13	C13H9N2O4+
