Mass spectrum: Nuarimol; LC-ESI-QFT; MS2; CE: 45; R=17500; [M+H]+
Name: Nuarimol
Name: (2-chlorophenyl)-(4-fluorophenyl)-pyrimidin-5-ylmethanol
Formula: C17H12ClFN2O
Exact mass: 314.0622
SMILES: OC(C1=CC=C(F)C=C1)(C1=CN=CN=C1)C1=CC=CC=C1Cl
InChI: InChI=1S/C17H12ClFN2O/c18-16-4-2-1-3-15(16)17(22,13-9-20-11-21-10-13)12-5-7-14(19)8-6-12/h1-11,22H
Instrument: Q Exactive Orbitrap (Thermo Scientific)
Instrument type: LC-ESI-QFT
Ms type: MS2
Ion mode: POSITIVE
Ionization: ESI
Fragmentation mode: HCD
Collision energy: 45
Resolution: 17500
Column name: Acquity BEH C18 1.7um, 2.1x150mm (Waters)
Retention time: 17.248 min
Base peak: 79.0212
Precursor m/z: 315.0695
Precursor type: [M+H]+
Precursor intensity: 5036726.125
m/z	relative intensity	assigned
54.0338	55	C3H4N+
81.0447	999	C4H5N2+
109.045	2	C7H6F+
123.0241	132	C7H4FO+
124.0556	3	C7H7FN+
125.0153	2	C7H6Cl+
130.065	2	C9H8N+
133.0448	9	C9H6F+
138.9945	215	C7H4ClO+
140.0264	5	C7H7ClN+
146.0596	1	C9H8NO+
148.0557	5	C9H7FN+
149.0154	2	C9H6Cl+
155.0604	5	C10H7N2+
156.0682	32	C10H8N2+
157.0761	12	C10H9N2+
164.0263	2	C9H7ClN+
175.0669	10	C10H8FN2+
176.0508	7	C10H7FNO+
176.0745	10	C10H9FN2+
177.0697	1	C14H9+
183.0545	21	C11H7N2O+
184.0633	8	C11H8N2O+
184.0702	2	C13H9F+
191.0373	7	C10H8ClN2+
192.0208	2	C10H7ClNO+
192.0449	9	C10H9ClN2+
194.0615	4	C7H12ClFN2O+
196.0681	3	C14H9F+
197.0762	7	C14H10F+
203.0612	9	C11H8FN2O+
204.0693	5	C11H9FN2O+
204.0799	2	C15H10N+
205.0652	2	C12H12ClN+
207.0605	36	C15H8F+
208.0683	43	C15H9F+
209.0655	2	C14H8FN+
209.0756	9	C15H10F+
210.084	4	C15H11F+
212.063	2	C14H9FO+
217.0213	7	C13H7ClF+
219.0379	37	C13H9ClF+
222.0714	38	C15H9FN+
223.079	3	C15H10FN+
224.0871	54	C15H11FN+
225.0712	13	C15H10FO+
225.0952	3	C15H12FN+
231.0374	2	C14H9ClF+
232.076	9	C13H13ClN2+
234.0715	32	C16H9FN+
235.0321	153	C13H9ClFO+
235.0793	45	C16H10FN+
236.0632	131	C16H9FO+
240.0575	1	C15H11ClN+
240.0829	3	C15H11FNO+
242.0843	1	C17H10N2+
243.0372	451	C15H9ClF+
250.0662	17	C16H9FNO+
251.0744	14	C13H13ClFN2+
251.0978	35	C16H12FN2+
252.082	979	C16H11FNO+
259.0323	6	C15H9ClFO+
260.0634	36	C15H12ClFN+
261.0477	2	C15H11ClFO+
261.0825	13	C17H10FN2+
262.0902	39	C17H11FN2+
263.0981	6	C17H12FN2+
269.0403	3	C16H9ClFN+
270.048	16	C16H10ClFN+
271.032	22	C16H9ClFO+
279.0929	13	C17H12FN2O+
286.0439	3	C16H10ClFNO+
286.0669	9	C16H12ClFN2+
288.0587	52	C16H12ClFNO+
295.0636	3	C17H12ClN2O+
297.0592	19	C17H11ClFN2+
315.0696	116	C17H13ClFN2O+
