Mass spectrum: Caffeine; LC-ESI-QFT; MS2; CE: 45; R=17500; [M+H]+
Name: Caffeine
Name: 1,3,7-trimethylpurine-2,6-dione
Formula: C8H10N4O2
Exact mass: 194.0804
SMILES: CN1C=NC2=C1C(=O)N(C)C(=O)N2C
InChI: InChI=1S/C8H10N4O2/c1-10-4-9-6-5(10)7(13)12(3)8(14)11(6)2/h4H,1-3H3
Instrument: Q Exactive Orbitrap (Thermo Scientific)
Instrument type: LC-ESI-QFT
Ms type: MS2
Ion mode: POSITIVE
Ionization: ESI
Fragmentation mode: HCD
Collision energy: 45
Resolution: 17500
Column name: Acquity BEH C18 1.7um, 2.1x150mm (Waters)
Retention time: 11.252 min
Base peak: 79.0212
Precursor m/z: 195.0877
Precursor type: [M+H]+
Precursor intensity: 3395537.28125
m/z	relative intensity	assigned
56.0496	2	C3H6N+
69.0447	18	C3H5N2+
83.0603	10	C4H7N2+
97.0076	2	C8H+
97.0395	1	C4H5N2O+
109.0397	3	C5H5N2O+
110.0713	101	C5H8N3+
111.0554	5	C5H7N2O+
112.0873	1	C5H10N3+
122.0711	1	C6H8N3+
123.0428	3	C5H5N3O+
135.0668	1	C6H7N4+
136.0747	1	C6H8N4+
138.0663	999	C6H8N3O+
151.0978	5	C7H11N4+
156.0768	2	C6H10N3O2+
180.0642	2	C7H8N4O2+
181.0719	3	C7H9N4O2+
195.0878	847	C8H11N4O2+
