Mass spectrum: Chloralose; LC-ESI-QFT; MS2; CE: 15; R=17500; [M-H]-
Name: Chloralose
Formula: C8H11Cl3O6
Exact mass: 307.9621
SMILES: OC[C@@H](O)[C@H]1O[C@@H]2O[C@@H](O[C@@H]2[C@H]1O)C(Cl)(Cl)Cl
InChI: InChI=1S/C8H11Cl3O6/c9-8(10,11)7-16-5-3(14)4(2(13)1-12)15-6(5)17-7/h2-7,12-14H,1H2/t2-,3+,4-,5-,6-,7-/m1/s1
Instrument: Q Exactive Orbitrap (Thermo Scientific)
Instrument type: LC-ESI-QFT
Ms type: MS2
Ion mode: NEGATIVE
Ionization: ESI
Fragmentation mode: HCD
Collision energy: 15
Resolution: 17500
Column name: Acquity BEH C18 1.7um, 2.1x150mm (Waters)
Retention time: 13.543 min
Base peak: 249.0227
Precursor m/z: 306.9548
Precursor type: [M-H]-
Precursor intensity: 2880786.158203
m/z	relative intensity	assigned
55.0189	6	C3H3O-
59.0139	96	C2H3O2-
71.0139	414	C3H3O2-
73.0296	130	C3H5O2-
83.0138	18	C4H3O2-
85.0296	106	C4H5O2-
87.0089	20	C3H3O3-
89.0245	48	C3H5O3-
95.0139	11	C5H3O2-
97.0297	15	C5H5O2-
99.0089	74	C4H3O3-
101.0245	450	C4H5O3-
113.0245	320	C5H5O3-
116.9071	259	CCl3-
125.0247	22	C6H5O3-
129.0194	8	C5H5O4-
143.035	81	C6H7O4-
159.0299	139	C6H7O5-
161.0456	999	C6H9O5-
189.0406	200	C7H9O6-
242.9743	7	C8H10Cl3O2-
