Mass spectrum: Kinetin; LC-ESI-QFT; MS2; CE: 75; R=17500; [M-H]-
Name: Kinetin
Name: N-(furan-2-ylmethyl)-7H-purin-6-amine
Formula: C10H9N5O
Exact mass: 215.0807
SMILES: C(NC1=C2N=CN=C2N=CN1)C1=CC=CO1
InChI: InChI=1S/C10H9N5O/c1-2-7(16-3-1)4-11-9-8-10(13-5-12-8)15-6-14-9/h1-3,5-6H,4H2,(H2,11,12,13,14,15)
Instrument: Q Exactive Orbitrap (Thermo Scientific)
Instrument type: LC-ESI-QFT
Ms type: MS2
Ion mode: NEGATIVE
Ionization: ESI
Fragmentation mode: HCD
Collision energy: 75
Resolution: 17500
Column name: Acquity BEH C18 1.7um, 2.1x150mm (Waters)
Retention time: 11.237 min
Base peak: 214.0735
Precursor m/z: 214.0734
Precursor type: [M-H]-
Precursor intensity: 7183906.608398
m/z	relative intensity	assigned
64.0066	3	C3N2-
65.0145	22	C3HN2-
66.0098	38	C2N3-
67.019	1	C4H3O-
68.0256	2	C2H2N3-
69.0346	6	C4H5O-
78.0098	1	C3N3-
79.0176	40	C3HN3-
80.0255	2	C3H2N3-
90.0098	17	C4N3-
91.0302	2	C5H3N2-
92.0254	107	C4H2N3-
93.0457	1	C5H5N2-
105.0208	5	C4HN4-
106.0285	185	C4H2N4-
107.0363	238	C4H3N4-
115.0303	2	C7H3N2-
117.0207	167	C5HN4-
119.0364	14	C5H3N4-
121.0407	4	C6H5N2O-
132.0316	631	C5H2N5-
133.0394	999	C5H3N5-
134.0472	479	C5H4N5-
142.0411	25	C8H4N3-
143.0365	13	C7H3N4-
144.0315	25	C6H2N5-
146.0472	18	C6H4N5-
158.047	7	C7H4N5-
159.0681	1	C8H7N4-
160.0265	6	C6H2N5O-
160.0628	7	C7H6N5-
169.0522	8	C9H5N4-
170.0473	20	C8H4N5-
172.0627	1	C8H6N5-
184.0632	9	C9H6N5-
186.0788	5	C9H8N5-
187.0627	2	C9H7N4O-
195.0549	2	C10H5N5-
196.063	6	C10H6N5-
