Mass spectrum: N,N`-Dibutylthiourea; LC-ESI-QFT; MS2; CE: 60; R=17500; [M+H]+
Name: N,N'-Dibutylthiourea
Name: N,N'-dibutylcarbamimidothioic acid
Formula: C9H20N2S
Exact mass: 188.1347
SMILES: CCCCNC(=S)NCCCC
InChI: InChI=1S/C9H20N2S/c1-3-5-7-10-9(12)11-8-6-4-2/h3-8H2,1-2H3,(H2,10,11,12)
Instrument: Q Exactive Orbitrap (Thermo Scientific)
Instrument type: LC-ESI-QFT
Ms type: MS2
Ion mode: POSITIVE
Ionization: ESI
Fragmentation mode: HCD
Collision energy: 60
Resolution: 17500
Column name: Acquity BEH C18 1.7um, 2.1x150mm (Waters)
Retention time: 16.407 min
Base peak: 79.0211
Precursor m/z: 189.142
Precursor type: [M+H]+
Precursor intensity: 9365710.28125
m/z	relative intensity	assigned
55.0543	1	C4H7+
56.0495	17	C3H6N+
57.0699	999	C4H9+
58.0651	15	C3H8N+
59.9902	188	CH2NS+
65.0387	1	C5H5+
74.0964	437	C4H12N+
91.0542	3	C7H7+
95.0603	2	C5H7N2+
96.0683	4	C5H8N2+
103.0543	1	C8H7+
104.0495	12	C7H6N+
106.0651	7	C7H8N+
116.0529	30	C5H10NS+
117.0573	1	C8H7N+
117.0699	3	C9H9+
118.0653	6	C8H8N+
120.0808	5	C8H10N+
130.0651	7	C9H8N+
131.0728	8	C9H9N+
132.0809	3	C9H10N+
145.0759	1	C9H9N2+
146.0839	8	C9H10N2+
147.0917	12	C9H11N2+
