Mass spectrum: Biochanin A; LC-ESI-QFT; MS2; CE: 60; R=17500; [M-H]-
Name: Biochanin A
Name: 5,7-dihydroxy-3-(4-methoxyphenyl)chromen-4-one
Formula: C16H12O5
Exact mass: 284.0685
SMILES: COC1=CC=C(C=C1)C1=COC2=C(C(O)=CC(O)=C2)C1=O
InChI: InChI=1S/C16H12O5/c1-20-11-4-2-9(3-5-11)12-8-21-14-7-10(17)6-13(18)15(14)16(12)19/h2-8,17-18H,1H3
Instrument: Q Exactive Orbitrap (Thermo Scientific)
Instrument type: LC-ESI-QFT
Ms type: MS2
Ion mode: NEGATIVE
Ionization: ESI
Fragmentation mode: HCD
Collision energy: 60
Resolution: 17500
Column name: Acquity BEH C18 1.7um, 2.1x150mm (Waters)
Retention time: 17.739 min
Base peak: 283.0612
Precursor m/z: 283.0612
Precursor type: [M-H]-
Precursor intensity: 64615569.44043
m/z	relative intensity	assigned
63.024	9	C5H3-
65.0032	6	C4HO-
83.0139	6	C4H3O2-
91.019	38	C6H3O-
104.0268	3	C7H4O-
107.0138	17	C6H3O2-
108.0216	2	C6H4O2-
117.0347	3	C8H5O-
119.0136	1	C7H3O2-
120.0216	1	C7H4O2-
121.0296	3	C7H5O2-
130.0427	2	C9H6O-
132.0217	344	C8H4O2-
133.029	1	C8H5O2-
134.0374	22	C8H6O2-
135.0088	91	C7H3O3-
141.0344	1	C10H5O-
142.0421	2	C10H6O-
143.0502	4	C10H7O-
145.0297	2	C9H5O2-
147.0089	11	C8H3O3-
149.9958	1	C7H2O4-
151.0036	34	C7H3O4-
153.0192	19	C7H5O4-
154.0425	33	C11H6O-
155.0502	3	C11H7O-
156.058	7	C11H8O-
158.0373	3	C10H6O2-
166.0425	2	C12H6O-
167.0502	33	C12H7O-
168.058	12	C12H8O-
169.0145	2	C7H5O5-
170.0375	8	C11H6O2-
171.045	9	C11H7O2-
172.0533	4	C11H8O2-
173.0616	1	C11H9O2-
178.0427	2	C13H6O-
179.0504	6	C13H7O-
180.0581	22	C13H8O-
182.0372	8	C12H6O2-
183.0451	21	C12H7O2-
184.053	57	C12H8O2-
194.0372	2	C13H6O2-
195.0451	123	C13H7O2-
196.0529	74	C13H8O2-
197.025	5	C12H5O3-
198.0322	21	C12H6O3-
199.0401	11	C12H7O3-
200.0477	8	C12H8O3-
210.0323	3	C13H6O3-
211.04	395	C13H7O3-
212.0479	105	C13H8O3-
222.0323	11	C14H6O3-
223.0401	190	C14H7O3-
224.0479	128	C14H8O3-
225.0193	4	C13H5O4-
226.0271	111	C13H6O4-
227.0354	5	C13H7O4-
238.0269	2	C14H6O4-
239.0349	760	C14H7O4-
240.0427	206	C14H8O4-
244.0375	1	C13H8O5-
250.0268	15	C15H6O4-
251.035	6	C15H7O4-
267.0299	776	C15H7O5-
268.0376	999	C15H8O5-
283.0604	7	C16H11O5-
