Mass spectrum: Vincamine; LC-ESI-QFT; MS2; CE: 75; R=17500; [M+H]+
Name: Vincamine
Name: methyl (15S,17S,19S)-15-ethyl-17-hydroxy-1,11-diazapentacyclo[9.6.2.02,7.08,18.015,19]nonadeca-2,4,6,8(18)-tetraene-17-carboxylate
Formula: C21H26N2O3
Exact mass: 354.1943
SMILES: CC[C@@]12CCCN3CCC4=C([C@H]13)N(C1=C4C=CC=C1)[C@](O)(C2)C(=O)OC
InChI: InChI=1S/C21H26N2O3/c1-3-20-10-6-11-22-12-9-15-14-7-4-5-8-16(14)23(17(15)18(20)22)21(25,13-20)19(24)26-2/h4-5,7-8,18,25H,3,6,9-13H2,1-2H3/t18-,20+,21+/m1/s1
Instrument: Q Exactive Orbitrap (Thermo Scientific)
Instrument type: LC-ESI-QFT
Ms type: MS2
Ion mode: POSITIVE
Ionization: ESI
Fragmentation mode: HCD
Collision energy: 75
Resolution: 17500
Column name: Acquity BEH C18 1.7um, 2.1x150mm (Waters)
Retention time: 12.617 min
Base peak: 79.0211
Precursor m/z: 355.2016
Precursor type: [M+H]+
Precursor intensity: 32618903
m/z	relative intensity	assigned
53.0022	3	C3HO+
53.0386	15	C4H5+
55.0178	13	C3H3O+
55.0542	46	C4H7+
56.0495	48	C3H6N+
57.0698	2	C4H9+
58.0651	13	C3H8N+
59.0491	4	C3H7O+
65.0385	11	C5H5+
67.0541	138	C5H7+
68.0494	41	C4H6N+
69.0334	5	C4H5O+
69.0573	3	C4H7N+
69.0698	10	C5H9+
70.065	162	C4H8N+
72.0442	2	C3H6NO+
72.0808	1	C4H10N+
77.0386	5	C6H5+
79.0541	95	C6H7+
80.0494	29	C5H6N+
81.0335	10	C5H5O+
81.0573	4	C5H7N+
81.0698	47	C6H9+
82.0651	29	C5H8N+
83.0491	113	C5H7O+
83.0728	6	C5H9N+
84.0807	25	C5H10N+
85.0648	3	C5H9O+
91.0542	145	C7H7+
92.0494	5	C6H6N+
93.0573	8	C6H7N+
93.0699	89	C7H9+
94.0651	37	C6H8N+
95.0491	39	C6H7O+
95.073	18	C6H9N+
95.0855	166	C7H11+
96.0443	5	C5H6NO+
96.0807	48	C6H10N+
97.0886	6	C6H11N+
98.0964	26	C6H12N+
100.0757	2	C5H10NO+
103.0541	31	C8H7+
104.0495	4	C7H6N+
105.0447	8	C6H5N2+
105.0699	90	C8H9+
106.0651	23	C7H8N+
107.049	7	C7H7O+
107.0728	5	C7H9N+
107.0855	57	C8H11+
108.0442	3	C6H6NO+
108.0807	46	C7H10N+
109.0648	17	C7H9O+
109.0885	12	C7H11N+
109.1012	6	C8H13+
110.0964	140	C7H12N+
111.1042	17	C7H13N+
112.112	23	C7H14N+
115.0542	62	C9H7+
116.0493	4	C8H6N+
117.0573	23	C8H7N+
117.0698	167	C9H9+
118.065	22	C8H8N+
119.0492	2	C8H7O+
119.0602	3	C7H7N2+
119.0728	17	C8H9N+
119.0855	7	C9H11+
120.0808	21	C8H10N+
121.0648	28	C8H9O+
121.0885	3	C8H11N+
122.0601	25	C7H8NO+
122.0964	23	C8H12N+
123.0677	7	C7H9NO+
123.0804	51	C8H11O+
123.1043	15	C8H13N+
124.0757	29	C7H10NO+
124.112	130	C8H14N+
127.0542	3	C10H7+
128.0495	10	C9H6N+
128.062	16	C10H8+
129.0573	2	C9H7N+
129.0698	41	C10H9+
130.065	96	C9H8N+
131.0729	32	C9H9N+
131.0855	3	C10H11+
132.057	4	C9H8O+
132.0807	42	C9H10N+
133.0648	11	C9H9O+
133.0884	3	C9H11N+
134.0963	111	C9H12N+
135.0803	28	C9H11O+
135.1042	4	C9H13N+
136.0757	24	C8H10NO+
136.112	8	C9H14N+
137.0962	3	C9H13O+
138.1276	8	C9H16N+
140.0491	2	C10H6N+
141.07	6	C11H9+
142.0651	19	C10H8N+
143.0729	129	C10H9N+
144.0807	999	C10H10N+
145.0647	25	C10H9O+
145.0885	6	C10H11N+
146.06	11	C9H8NO+
146.0964	17	C10H12N+
147.0811	2	C10H11O+
148.0759	4	C9H10NO+
148.1121	3	C10H14N+
150.0914	6	C9H12NO+
150.1277	2	C10H16N+
151.0753	5	C9H11O2+
152.1069	154	C9H14NO+
153.0699	8	C12H9+
153.1147	4	C9H15NO+
154.0649	23	C11H8N+
154.0861	3	C8H12NO2+
155.0604	28	C10H7N2+
155.0727	20	C11H9N+
155.0856	1	C12H11+
156.0807	55	C11H10N+
157.076	2	C10H9N2+
157.0885	21	C11H11N+
158.0603	4	C10H8NO+
158.0963	44	C11H12N+
160.0754	7	C10H10NO+
160.112	6	C11H14N+
162.0912	26	C10H12NO+
163.075	2	C10H11O2+
164.1071	6	C10H14NO+
165.0697	26	C13H9+
166.0654	4	C12H8N+
166.0775	10	C13H10+
166.1227	2	C10H16NO+
167.0729	46	C12H9N+
167.0857	5	C13H11+
168.0806	72	C12H10N+
169.0758	7	C11H9N2+
169.0884	17	C12H11N+
170.06	37	C11H8NO+
170.0835	3	C11H10N2+
170.0962	34	C12H12N+
171.0915	13	C11H11N2+
172.0754	2	C11H10NO+
172.1121	8	C12H14N+
174.0911	7	C11H12NO+
178.0647	2	C13H8N+
178.0776	29	C14H10+
179.073	5	C13H9N+
179.0854	23	C14H11+
180.0806	116	C13H10N+
181.0761	6	C12H9N2+
181.0884	63	C13H11N+
181.1005	11	C14H13+
182.0837	3	C12H10N2+
182.0964	48	C13H12N+
183.0918	7	C12H11N2+
183.1042	9	C13H13N+
184.0754	11	C12H10NO+
184.0997	2	C12H12N2+
184.1118	10	C13H14N+
186.0917	4	C12H12NO+
186.1273	3	C13H16N+
188.071	3	C11H10NO2+
189.0706	2	C15H9+
190.065	11	C14H8N+
190.0776	2	C15H10+
191.0729	53	C14H9N+
191.0853	9	C15H11+
192.0807	52	C14H10N+
192.0931	22	C15H12+
193.0886	95	C14H11N+
193.101	19	C15H13+
194.0598	4	C13H8NO+
194.0964	97	C14H12N+
194.1176	6	C11H16NO2+
195.0919	7	C13H11N2+
195.1041	31	C14H13N+
196.0758	9	C13H10NO+
196.099	3	C13H12N2+
196.1119	23	C14H14N+
197.0835	6	C13H11NO+
197.1068	9	C13H13N2+
197.119	1	C14H15N+
198.0911	2	C13H12NO+
198.1273	9	C14H16N+
202.0775	6	C16H10+
202.0869	3	C12H12NO2+
203.0734	3	C15H9N+
203.0852	3	C16H11+
204.0807	150	C15H10N+
205.0885	134	C15H11N+
206.0963	184	C15H12N+
207.1042	74	C15H13N+
207.1163	7	C16H15+
208.0757	10	C14H10NO+
208.1119	165	C15H14N+
209.0837	4	C14H11NO+
209.1073	15	C14H13N2+
209.1198	50	C15H15N+
210.0912	9	C14H12NO+
210.1167	3	C14H14N2+
210.1276	23	C15H16N+
211.0988	2	C14H13NO+
211.1229	6	C14H15N2+
212.1065	5	C14H14NO+
212.128	6	C11H18NO3+
214.0852	2	C13H12NO2+
215.0851	5	C17H11+
216.0808	4	C16H10N+
217.0885	52	C16H11N+
218.0963	118	C16H12N+
219.0925	9	C15H11N2+
219.104	159	C16H13N+
220.1118	196	C16H14N+
221.0834	4	C15H11NO+
221.1073	13	C15H13N2+
221.1197	55	C16H15N+
222.0915	15	C15H12NO+
222.1158	6	C15H14N2+
222.1275	102	C16H16N+
223.0991	6	C15H13NO+
223.1229	22	C15H15N2+
223.1354	5	C16H17N+
224.0704	3	C14H10NO2+
224.1074	9	C15H14NO+
224.1305	18	C15H16N2+
224.1433	16	C16H18N+
225.0783	5	C14H11NO2+
225.1389	4	C15H17N2+
226.0867	1	C14H12NO2+
226.1225	15	C15H16NO+
230.0965	12	C17H12N+
231.1044	17	C17H13N+
232.0756	7	C16H10NO+
232.0996	3	C16H12N2+
232.1118	56	C17H14N+
233.0836	8	C16H11NO+
233.1071	15	C16H13N2+
233.1198	24	C17H15N+
234.0916	8	C16H12NO+
234.1275	152	C17H16N+
235.1225	8	C16H15N2+
235.1355	18	C17H17N+
236.0701	3	C15H10NO2+
236.1069	15	C16H14NO+
236.1434	20	C17H18N+
237.0784	25	C15H11NO2+
237.1016	2	C15H13N2O+
237.1152	4	C16H15NO+
237.1383	29	C16H17N2+
237.1511	2	C17H19N+
238.0861	79	C15H12NO2+
238.1222	9	C16H16NO+
239.0939	66	C15H13NO2+
239.1542	7	C16H19N2+
244.1117	5	C18H14N+
245.1198	4	C18H15N+
246.0913	4	C17H12NO+
246.1273	10	C18H16N+
247.0991	7	C17H13NO+
247.1227	45	C17H15N2+
247.136	4	C18H17N+
248.0709	2	C16H10NO2+
248.1067	8	C17H14NO+
248.1303	11	C17H16N2+
248.1433	36	C18H18N+
249.0784	4	C16H11NO2+
249.1017	2	C16H13N2O+
249.1383	22	C17H17N2+
249.1515	7	C18H19N+
250.086	86	C16H12NO2+
250.1224	8	C17H16NO+
250.1581	8	C18H20N+
251.0939	96	C16H13NO2+
252.1017	131	C16H14NO2+
253.1096	57	C16H15NO2+
253.1695	5	C17H21N2+
254.1174	6	C16H16NO2+
260.1429	4	C19H18N+
261.1389	6	C18H17N2+
262.086	6	C17H12NO2+
262.123	8	C18H16NO+
262.1465	4	C18H18N2+
263.0944	12	C17H13NO2+
263.1537	3	C18H19N2+
264.1017	462	C17H14NO2+
265.1095	285	C17H15NO2+
266.1174	251	C17H16NO2+
267.1251	84	C17H17NO2+
268.133	35	C17H18NO2+
275.0942	4	C18H13NO2+
275.1173	13	C18H15N2O+
276.1019	19	C18H14NO2+
277.1098	8	C18H15NO2+
277.1693	12	C19H21N2+
278.1173	246	C18H16NO2+
279.1255	123	C18H17NO2+
280.133	271	C18H18NO2+
281.1411	3	C18H19NO2+
290.1172	39	C19H16NO2+
291.1261	12	C19H17NO2+
292.1339	101	C19H18NO2+
293.1429	15	C19H19NO2+
294.1488	94	C19H20NO2+
295.1808	6	C19H23N2O+
304.1333	4	C20H18NO2+
307.1439	57	C19H19N2O2+
308.1666	11	C20H22NO2+
