Mass spectrum: Flutriafol; LC-ESI-QFT; MS2; CE: 75; R=17500; [M-H]-
Name: Flutriafol
Name: 1-(2-fluorophenyl)-1-(4-fluorophenyl)-2-(1,2,4-triazol-1-yl)ethanol
Formula: C16H13F2N3O
Exact mass: 301.1027
SMILES: OC(CN1C=NC=N1)(C1=CC=C(F)C=C1)C1=C(F)C=CC=C1
InChI: InChI=1S/C16H13F2N3O/c17-13-7-5-12(6-8-13)16(22,9-21-11-19-10-20-21)14-3-1-2-4-15(14)18/h1-8,10-11,22H,9H2
Instrument: Q Exactive Orbitrap (Thermo Scientific)
Instrument type: LC-ESI-QFT
Ms type: MS2
Ion mode: NEGATIVE
Ionization: ESI
Fragmentation mode: HCD
Collision energy: 75
Resolution: 17500
Column name: Acquity BEH C18 1.7um, 2.1x150mm (Waters)
Retention time: 16.244 min
Base peak: 112.9857
Precursor m/z: 300.0954
Precursor type: [M-H]-
Precursor intensity: 878473.2490234
m/z	relative intensity	assigned
65.9986	999	C3NO-
68.0255	643	C2H2N3-
75.024	258	C6H3-
81.0332	329	C3H3N3-
95.0303	404	C6H4F-
108.0205	626	C4H2N3O-
120.0257	986	C7H3FN-
145.0663	292	C10H9O-
162.0365	406	C9H5FNO-
