Mass spectrum: Brucine; LC-ESI-QFT; MS2; CE: 45; R=17500; [M+H]+
Name: Brucine
Name: (4aR,5aS,8aR,13aS,15aS,15bR)-10,11-dimethoxy-4a,5,5a,7,8,13a,15,15a,15b,16-decahydro-2H-4,6-methanoindolo[3,2,1-ij]oxepino[2,3,4-de]pyrrolo[2,3-h]quinolin-14-one
Formula: C23H26N2O4
Exact mass: 394.1893
SMILES: COC1=CC2=C(C=C1OC)[C@@]13CCN4CC5=CCO[C@H]6CC(=O)N2[C@H]1[C@H]6[C@H]5C[C@@H]34
InChI: InChI=1S/C23H26N2O4/c1-27-16-8-14-15(9-17(16)28-2)25-20(26)10-18-21-13-7-19-23(14,22(21)25)4-5-24(19)11-12(13)3-6-29-18/h3,8-9,13,18-19,21-22H,4-7,10-11H2,1-2H3/t13-,18-,19-,21-,22-,23+/m0/s1
Instrument: Q Exactive Orbitrap (Thermo Scientific)
Instrument type: LC-ESI-QFT
Ms type: MS2
Ion mode: POSITIVE
Ionization: ESI
Fragmentation mode: HCD
Collision energy: 45
Resolution: 17500
Column name: Acquity BEH C18 1.7um, 2.1x150mm (Waters)
Retention time: 11.177 min
Base peak: 79.0211
Precursor m/z: 395.1965
Precursor type: [M+H]+
Precursor intensity: 9985318.625
m/z	relative intensity	assigned
55.0543	1	C4H7+
56.0495	7	C3H6N+
67.0544	1	C5H7+
68.0495	3	C4H6N+
69.0333	2	C4H5O+
70.0651	8	C4H8N+
79.0542	2	C6H7+
80.0494	3	C5H6N+
81.07	3	C6H9+
82.065	1	C5H8N+
84.0443	1	C4H6NO+
86.06	1	C4H8NO+
91.0543	2	C7H7+
93.0573	2	C6H7N+
93.0698	5	C7H9+
94.0653	3	C6H8N+
95.0492	6	C6H7O+
95.0854	1	C7H11+
96.0808	4	C6H10N+
98.06	2	C5H8NO+
105.0699	1	C8H9+
106.0652	9	C7H8N+
107.0728	1	C7H9N+
108.0808	22	C7H10N+
109.065	1	C7H9O+
110.06	1	C6H8NO+
120.0806	1	C8H10N+
121.0646	1	C8H9O+
122.0601	14	C7H8NO+
122.0964	1	C8H12N+
124.0757	16	C7H10NO+
136.0757	1	C8H10NO+
138.0915	1	C8H12NO+
144.0808	2	C10H10N+
148.0759	4	C9H10NO+
162.0914	1	C10H12NO+
176.0703	1	C10H10NO2+
177.0783	1	C10H11NO2+
178.0863	9	C10H12NO2+
184.0757	1	C12H10NO+
185.0838	1	C12H11NO+
190.0862	7	C11H12NO2+
192.0652	3	C10H10NO3+
192.1017	1	C11H14NO2+
197.0839	1	C13H11NO+
204.066	1	C11H10NO3+
204.102	5	C12H14NO2+
211.0981	1	C14H13NO+
212.0712	1	C13H10NO2+
213.0783	21	C13H11NO2+
216.1019	9	C13H14NO2+
218.0812	1	C12H12NO3+
220.0967	2	C12H14NO3+
226.0856	1	C14H12NO2+
227.0943	7	C14H13NO2+
228.1013	4	C14H14NO2+
229.0735	33	C13H11NO3+
230.0813	2	C13H12NO3+
230.1178	2	C14H16NO2+
231.1133	1	C13H15N2O2+
240.1017	2	C15H14NO2+
242.081	2	C14H12NO3+
243.0892	5	C14H13NO3+
244.0969	236	C14H14NO3+
245.1048	2	C14H15NO3+
246.1128	5	C14H16NO3+
249.1155	1	C17H15NO+
251.0942	17	C16H13NO2+
252.0664	1	C15H10NO3+
252.1022	1	C16H14NO2+
254.081	1	C15H12NO3+
254.1178	14	C16H16NO2+
256.0968	19	C15H14NO3+
257.1053	2	C15H15NO3+
258.1126	12	C15H16NO3+
260.0923	3	C14H14NO4+
262.0863	4	C17H12NO2+
263.0942	32	C17H13NO2+
264.102	2	C17H14NO2+
265.0737	2	C16H11NO3+
265.109	1	C17H15NO2+
266.1181	2	C17H16NO2+
267.089	43	C16H13NO3+
268.0965	1	C16H14NO3+
270.1119	3	C16H16NO3+
272.0915	6	C15H14NO4+
274.1075	1	C15H16NO4+
277.1105	1	C18H15NO2+
278.1176	3	C18H16NO2+
279.0892	3	C17H13NO3+
279.1254	1	C18H17NO2+
280.097	30	C17H14NO3+
280.133	4	C18H18NO2+
281.1046	7	C17H15NO3+
282.1126	128	C17H16NO3+
283.0833	1	C16H13NO4+
283.1204	1	C17H17NO3+
284.0918	3	C16H14NO4+
284.1287	2	C17H18NO3+
286.1076	2	C16H16NO4+
289.1099	2	C19H15NO2+
290.1177	1	C19H16NO2+
291.1259	7	C19H17NO2+
292.0969	1	C18H14NO3+
293.1041	2	C18H15NO3+
294.1125	26	C18H16NO3+
294.1494	1	C19H20NO2+
295.1208	1	C18H17NO3+
296.0917	2	C17H14NO4+
296.1273	3	C18H18NO3+
296.1636	1	C19H22NO2+
297.0999	3	C17H15NO4+
298.1074	8	C17H16NO4+
301.1098	12	C20H15NO2+
303.1254	3	C20H17NO2+
304.0974	1	C19H14NO3+
304.1337	1	C20H18NO2+
305.1039	1	C19H15NO3+
306.1124	10	C19H16NO3+
307.1208	7	C19H17NO3+
307.1423	1	C19H19N2O2+
308.1289	7	C19H18NO3+
310.1073	2	C18H16NO4+
310.1438	1	C19H20NO3+
312.1226	3	C18H18NO4+
316.098	1	C20H14NO3+
317.1049	7	C20H15NO3+
318.1365	4	C20H18N2O2+
319.1207	9	C20H17NO3+
319.1422	1	C20H19N2O2+
320.1292	5	C20H18NO3+
321.1365	17	C20H19NO3+
322.1441	49	C20H20NO3+
323.1385	6	C19H19N2O3+
324.1232	399	C19H18NO4+
326.1411	6	C22H18N2O+
331.1211	1	C21H17NO3+
332.1281	31	C21H18NO3+
334.1273	1	C20H18N2O3+
335.1155	6	C20H17NO4+
336.1447	4	C20H20N2O3+
337.1543	1	C20H21N2O3+
338.1392	9	C20H20NO4+
339.1691	3	C20H23N2O3+
340.1546	3	C20H22NO4+
349.1545	22	C21H21N2O3+
350.1389	115	C21H20NO4+
351.1711	5	C21H23N2O3+
352.1413	9	C20H20N2O4+
365.1504	1	C21H21N2O4+
366.1707	7	C22H24NO4+
367.1655	188	C21H23N2O4+
379.1657	14	C22H23N2O4+
380.1725	20	C22H24N2O4+
395.1968	999	C23H27N2O4+
