Mass spectrum: Ancymidol; LC-ESI-QFT; MS2; CE: 30; R=17500; [M+H]+
Name: Ancymidol
Name: cyclopropyl-(4-methoxyphenyl)-pyrimidin-5-ylmethanol
Formula: C15H16N2O2
Exact mass: 256.1212
SMILES: COC1=CC=C(C=C1)C(O)(C1CC1)C1=CN=CN=C1
InChI: InChI=1S/C15H16N2O2/c1-19-14-6-4-12(5-7-14)15(18,11-2-3-11)13-8-16-10-17-9-13/h4-11,18H,2-3H2,1H3
Instrument: Q Exactive Orbitrap (Thermo Scientific)
Instrument type: LC-ESI-QFT
Ms type: MS2
Ion mode: POSITIVE
Ionization: ESI
Fragmentation mode: HCD
Collision energy: 30
Resolution: 17500
Column name: Acquity BEH C18 1.7um, 2.1x150mm (Waters)
Retention time: 15.425 min
Base peak: 79.0211
Precursor m/z: 257.1285
Precursor type: [M+H]+
Precursor intensity: 7579461.59375
m/z	relative intensity	assigned
54.0339	2	C3H4N+
55.0178	2	C3H3O+
69.0334	9	C4H5O+
70.0286	1	C3H4NO+
79.0543	6	C6H7+
80.0494	1	C5H6N+
81.0447	299	C4H5N2+
94.0651	7	C6H8N+
95.0491	19	C6H7O+
95.0604	1	C5H7N2+
105.0334	2	C7H5O+
107.0605	3	C6H7N2+
109.0646	1	C7H9O+
121.0648	18	C8H9O+
121.0758	9	C7H9N2+
122.06	43	C7H8NO+
131.0603	2	C8H7N2+
135.0439	205	C8H7O2+
136.0756	2	C8H10NO+
144.0568	1	C10H8O+
145.0646	2	C10H9O+
147.0805	1	C10H11O+
149.0709	37	C8H9N2O+
149.096	16	C10H13O+
153.0696	3	C12H9+
154.0776	2	C12H10+
155.0856	3	C12H11+
159.0802	7	C11H11O+
161.0961	15	C11H13O+
165.0066	9	C10HN2O+
170.0725	16	C12H10O+
171.0803	19	C12H11O+
172.0517	1	C11H8O2+
177.0909	85	C11H13O2+
181.0645	1	C13H9O+
181.0883	1	C13H11N+
182.0724	1	C13H10O+
185.096	103	C13H13O+
186.0912	2	C12H12NO+
188.0707	3	C11H10NO2+
195.0804	39	C14H11O+
196.0992	1	C13H12N2+
197.0835	4	C13H11NO+
198.0675	1	C13H10O2+
198.0786	11	C12H10N2O+
202.0862	2	C12H12NO2+
202.1226	15	C13H16NO+
207.0917	3	C14H11N2+
208.0995	1	C14H12N2+
211.0865	3	C13H11N2O+
212.1069	25	C14H14NO+
213.0911	33	C14H13O2+
213.1018	3	C13H13N2O+
215.0815	30	C12H11N2O2+
216.0893	8	C12H12N2O2+
224.0944	11	C14H12N2O+
225.0108	1	C15HN2O+
229.0973	3	C13H13N2O2+
230.1174	14	C14H16NO2+
239.1178	84	C15H15N2O+
240.1021	5	C15H14NO2+
242.1048	1	C14H14N2O2+
257.1283	999	C15H17N2O2+
