Mass spectrum: Dimethametryn; LC-ESI-QFT; MS2; CE: 30; R=17500; [M+H]+
Name: Dimethametryn
Name: 4-N-ethyl-2-N-(3-methylbutan-2-yl)-6-methylsulfanyl-1,3,5-triazine-2,4-diamine
Formula: C11H21N5S
Exact mass: 255.1518
SMILES: CCNC1=NC(SC)=NC(NC(C)C(C)C)=N1
InChI: InChI=1S/C11H21N5S/c1-6-12-9-14-10(13-8(4)7(2)3)16-11(15-9)17-5/h7-8H,6H2,1-5H3,(H2,12,13,14,15,16)
Instrument: Q Exactive Orbitrap (Thermo Scientific)
Instrument type: LC-ESI-QFT
Ms type: MS2
Ion mode: POSITIVE
Ionization: ESI
Fragmentation mode: HCD
Collision energy: 30
Resolution: 17500
Column name: Acquity BEH C18 1.7um, 2.1x150mm (Waters)
Retention time: 17.321 min
Base peak: 79.0211
Precursor m/z: 256.159
Precursor type: [M+H]+
Precursor intensity: 18404586.1875
m/z	relative intensity	assigned
71.0601	1	C3H7N2+
71.0855	18	C5H11+
91.0324	2	C2H7N2S+
96.0556	8	C4H6N3+
116.0277	2	C3H6N3S+
138.0774	2	C5H8N5+
144.059	1	C5H10N3S+
158.0496	2	C4H8N5S+
166.1339	3	C9H16N3+
186.0808	427	C6H12N5S+
241.1348	1	C10H19N5S+
256.1589	999	C11H22N5S+
