Mass spectrum: Flamprop-isopropyl; LC-ESI-QFT; MS2; CE: 90; R=17500; [M+H]+
Name: Flamprop-isopropyl
Name: propan-2-yl 2-(N-benzoyl-3-chloro-4-fluoroanilino)propanoate
Formula: C19H19ClFNO3
Exact mass: 363.1037
SMILES: CC(C)OC(=O)C(C)N(C(=O)C1=CC=CC=C1)C1=CC(Cl)=C(F)C=C1
InChI: InChI=1S/C19H19ClFNO3/c1-12(2)25-19(24)13(3)22(15-9-10-17(21)16(20)11-15)18(23)14-7-5-4-6-8-14/h4-13H,1-3H3
Instrument: Q Exactive Orbitrap (Thermo Scientific)
Instrument type: LC-ESI-QFT
Ms type: MS2
Ion mode: POSITIVE
Ionization: ESI
Fragmentation mode: HCD
Collision energy: 90
Resolution: 17500
Column name: Acquity BEH C18 1.7um, 2.1x150mm (Waters)
Retention time: 18.490 min
Base peak: 79.0211
Precursor m/z: 364.111
Precursor type: [M+H]+
Precursor intensity: 16698296
m/z	relative intensity	assigned
50.0151	24	C4H2+
51.023	60	C4H3+
53.0386	344	C4H5+
55.0179	13	C3H3O+
77.0386	134	C6H5+
81.0334	37	C5H5O+
81.0698	6	C6H9+
94.0413	33	C6H6O+
95.0492	999	C6H7O+
105.0336	478	C7H5O+
109.065	12	C7H9O+
136.0557	5	C8H7FN+
