Mass spectrum: 4,4`-Sulfonylbis[2-(prop-2-en-1-yl)phenol]; LC-ESI-QFT; MS2; CE: 90; R=17500; [M+H]+
Name: 4,4'-Sulfonylbis[2-(prop-2-en-1-yl)phenol]
Name: Phenol, 4,4'-sulfonylbis[2-(2-propenyl)-
Name: 4-(4-hydroxy-3-prop-2-enylphenyl)sulfonyl-2-prop-2-enylphenol
Formula: C18H18O4S
Exact mass: 330.0926
SMILES: OC1=C(CC=C)C=C(C=C1)S(=O)(=O)C1=CC(CC=C)=C(O)C=C1
InChI: InChI=1S/C18H18O4S/c1-3-5-13-11-15(7-9-17(13)19)23(21,22)16-8-10-18(20)14(12-16)6-4-2/h3-4,7-12,19-20H,1-2,5-6H2
Instrument: Q Exactive Orbitrap (Thermo Scientific)
Instrument type: LC-ESI-QFT
Ms type: MS2
Ion mode: POSITIVE
Ionization: ESI
Fragmentation mode: HCD
Collision energy: 90
Resolution: 17500
Column name: Acquity BEH C18 1.7um, 2.1x150mm (Waters)
Retention time: 17.082 min
Base peak: 79.0211
Precursor m/z: 331.0999
Precursor type: [M+H]+
Precursor intensity: 4403032.9375
m/z	relative intensity	assigned
50.0151	7	C4H2+
51.023	9	C4H3+
53.0022	14	C3HO+
53.0386	244	C4H5+
55.0179	195	C3H3O+
63.0228	6	C5H3+
65.0385	162	C5H5+
66.0463	14	C5H6+
67.0541	11	C5H7+
68.997	6	C3HO2+
77.0385	114	C6H5+
78.0463	25	C6H6+
79.0542	999	C6H7+
81.0335	36	C5H5O+
81.0698	4	C6H9+
89.0385	46	C7H5+
90.0464	13	C7H6+
91.0542	192	C7H7+
93.0698	16	C7H9+
94.0413	39	C6H6O+
95.0491	748	C6H7O+
97.0106	13	C5H5S+
102.0465	17	C8H6+
103.0542	597	C8H7+
104.062	24	C8H8+
105.0698	119	C8H9+
107.0491	76	C7H7O+
109.0284	9	C6H5O2+
109.0648	6	C7H9O+
110.0363	3	C6H6O2+
111.0441	11	C6H7O2+
115.0542	300	C9H7+
116.0621	10	C9H8+
117.0699	10	C9H9+
118.0413	27	C8H6O+
119.0493	12	C8H7O+
121.0647	21	C8H9O+
122.0365	2	C7H6O2+
128.0619	5	C10H8+
131.0491	68	C9H7O+
132.0569	17	C9H8O+
133.0648	18	C9H9O+
135.0442	2	C8H7O2+
141.0697	11	C11H9+
144.0564	2	C10H8O+
145.0647	3	C10H9O+
149.0595	12	C9H9O2+
151.0753	2	C9H11O2+
152.0617	14	C12H8+
153.0701	7	C12H9+
165.0697	2	C13H9+
169.0645	10	C12H9O+
170.0725	2	C12H10O+
181.0648	4	C13H9O+
197.0595	3	C13H9O2+
