Mass spectrum: Aplaviroc; LC-ESI-QFT; MS2; CE: 45; R=17500; [M-H]-
Name: Aplaviroc
Name: 4-[4-[[(3R)-1-butyl-3-[(R)-cyclohexyl(hydroxy)methyl]-2,5-dioxo-1,4,9-triazaspiro[5.5]undecan-9-yl]methyl]phenoxy]benzoic acid
Formula: C33H43N3O6
Exact mass: 577.3152
SMILES: CCCCN1C(=O)[C@@H]([C@H](O)C2CCCCC2)NC(=O)C12CCN(Cc1ccc(Oc3ccc(C(=O)O)cc3)cc1)CC2
InChI: InChI=1S/C33H43N3O6/c1-2-3-19-36-30(38)28(29(37)24-7-5-4-6-8-24)34-32(41)33(36)17-20-35(21-18-33)22-23-9-13-26(14-10-23)42-27-15-11-25(12-16-27)31(39)40/h9-16,24,28-29,37H,2-8,17-22H2,1H3,(H,34,41)(H,39,40)/t28-,29-/m1/s1
Instrument: Q Exactive Orbitrap (Thermo Scientific)
Instrument type: LC-ESI-QFT
Ms type: MS2
Ion mode: NEGATIVE
Ionization: ESI
Fragmentation mode: HCD
Collision energy: 45
Resolution: 17500
Column name: Acquity BEH C18 1.7um, 2.1x150mm (Waters)
Retention time: 15.958 min
Base peak: 229.0506
Precursor m/z: 576.3079
Precursor type: [M-H]-
Precursor intensity: 3767160.187012
m/z	relative intensity	assigned
67.019	40	C4H3O-
73.0408	28	C2H5N2O-
84.0091	260	C3H2NO2-
92.0505	29	C6H6N-
93.0346	70	C6H5O-
97.0044	104	C3HN2O2-
98.0974	17	C6H12N-
100.0768	30	C5H10NO-
106.0424	128	C7H6O-
108.0217	52	C6H4O2-
108.0455	67	C6H6NO-
110.0612	73	C6H8NO-
118.03	30	C7H4NO-
122.061	41	C7H8NO-
123.0451	70	C7H7O2-
124.1133	55	C8H14N-
127.0877	368	C6H11N2O-
129.1034	975	C6H13N2O-
133.0533	71	C8H7NO-
136.0404	582	C7H6NO2-
137.0721	53	C7H9N2O-
138.0323	28	C7H6O3-
139.088	19	C7H11N2O-
148.0404	28	C8H6NO2-
154.0748	526	C7H10N2O2-
155.0826	999	C7H11N2O2-
163.0514	53	C8H7N2O2-
165.043	30	C8H7NO3-
169.0659	55	C12H9O-
172.077	16	C11H10NO-
182.0734	40	C13H10O-
183.0816	509	C13H11O-
197.1293	37	C10H17N2O2-
208.0767	40	C14H10NO-
209.1297	323	C11H17N2O2-
210.0924	122	C14H12NO-
221.1293	33	C12H17N2O2-
234.1251	23	C12H16N3O2-
236.1407	137	C12H18N3O2-
238.1564	38	C12H20N3O2-
264.1392	25	C18H18NO-
319.1443	30	C20H19N2O2-
321.161	69	C20H21N2O2-
334.1557	74	C20H20N3O2-
347.1395	28	C21H19N2O3-
420.2294	247	C25H30N3O3-
464.2197	56	C26H30N3O5-
