Mass spectrum: Thiodicarb; LC-ESI-QFT; MS2; CE: 15; R=17500; [M+H]+
Name: Thiodicarb
Name: methyl (1E)-N-[methyl-[methyl-[(E)-1-methylsulfanylethylideneamino]oxycarbonylamino]sulfanylcarbamoyl]oxyethanimidothioate
Formula: C10H18N4O4S3
Exact mass: 354.049
SMILES: CS\C(C)=N\OC(=O)N(C)SN(C)C(=O)O\N=C(/C)SC
InChI: InChI=1S/C10H18N4O4S3/c1-7(19-5)11-17-9(15)13(3)21-14(4)10(16)18-12-8(2)20-6/h1-6H3/b11-7+,12-8+
Instrument: Q Exactive Orbitrap (Thermo Scientific)
Instrument type: LC-ESI-QFT
Ms type: MS2
Ion mode: POSITIVE
Ionization: ESI
Fragmentation mode: HCD
Collision energy: 15
Resolution: 17500
Column name: Acquity BEH C18 1.7um, 2.1x150mm (Waters)
Retention time: 15.765 min
Base peak: 79.0211
Precursor m/z: 355.0563
Precursor type: [M+H]+
Precursor intensity: 2001172.625
m/z	relative intensity	assigned
88.0216	999	C3H6NS+
107.9936	349	C2H6NS2+
