Mass spectrum: AVE3295; LC-ESI-QFT; MS2; CE: 75; R=17500; [M+H]+
Name: AVE3295
Name: 5-Fluoro-N-[(1S)-1-phenylpropyl]-2-[(quinolin-8-ylsulfonyl)amino]benzamide
Name: 5-fluoro-N-[(1S)-1-phenylpropyl]-2-(quinolin-8-ylsulfonylamino)benzamide
Formula: C25H22FN3O3S
Exact mass: 463.1366
SMILES: CC[C@H](NC(=O)c1cc(F)ccc1NS(=O)(=O)c1cccc2cccnc12)c1ccccc1
InChI: InChI=1S/C25H22FN3O3S/c1-2-21(17-8-4-3-5-9-17)28-25(30)20-16-19(26)13-14-22(20)29-33(31,32)23-12-6-10-18-11-7-15-27-24(18)23/h3-16,21,29H,2H2,1H3,(H,28,30)/t21-/m0/s1
Instrument: Q Exactive Orbitrap (Thermo Scientific)
Instrument type: LC-ESI-QFT
Ms type: MS2
Ion mode: POSITIVE
Ionization: ESI
Fragmentation mode: HCD
Collision energy: 75
Resolution: 17500
Column name: Acquity BEH C18 1.7um, 2.1x150mm (Waters)
Retention time: 17.503 min
Base peak: 79.0211
Precursor m/z: 464.1439
Precursor type: [M+H]+
Precursor intensity: 15250548.5
m/z	relative intensity	assigned
53.0386	1	C4H5+
56.0495	4	C3H6N+
65.0385	31	C5H5+
75.0229	1	C6H3+
77.0385	2	CH4FN3+
79.0541	2	CH6FN3+
83.0291	4	C5H4F+
89.0383	1	C2H4FN3+
91.0542	999	C7H7+
95.049	5	CH6FN3O+
102.0464	1	C8H6+
105.0446	1	C6H5N2+
105.0573	7	C7H7N+
106.065	5	C7H8N+
108.0444	1	C6H6NO+
109.0322	8	C6H4FN+
110.016	3	C6H3FO+
110.04	24	C6H5FN+
117.0572	6	C8H7N+
117.0697	9	C4H8FN3+
119.0491	4	C8H7O+
119.0856	1	C9H11+
127.0425	1	C3H11O3S+
128.0494	102	C9H6N+
129.0446	10	C8H5N2+
129.0571	9	C9H7N+
132.0443	2	C8H6NO+
134.0599	6	C8H8NO+
134.0963	31	C9H12N+
137.027	4	C7H4FNO+
138.0349	74	C7H5FNO+
142.0523	1	C9H6N2+
144.0443	10	C9H6NO+
145.0524	1	C9H7NO+
146.0599	78	C9H8NO+
148.0215	3	C8H6NS+
154.0535	2	C7H7FN2O+
155.0376	45	C7H6FNO2+
156.0445	1	C10H6NO+
156.0552	2	C9H6N3+
160.0215	9	C9H6NS+
160.0755	10	C10H10NO+
161.0292	5	C9H7NS+
161.0472	1	C9H7NO2+
166.0651	1	C12H8N+
169.0535	1	C8H8FNO2+
170.0609	2	C8H9FNO2+
174.0547	2	C10H8NO2+
176.0165	1	C9H6NOS+
177.0241	1	C9H7NOS+
183.0604	3	C13H8F+
190.0649	13	C14H8N+
191.0728	2	C14H9N+
192.0113	2	C9H6NO2S+
194.0602	1	C13H8NO+
197.0635	1	C13H8FN+
208.0557	1	C14H7FN+
208.0755	1	C14H10NO+
209.0633	14	C14H8FN+
210.0217	1	C9H8NO3S+
216.0681	43	C15H8N2+
217.0759	42	C15H9N2+
218.0838	2	C15H10N2+
221.0708	1	C14H9N2O+
222.0713	1	C15H9FN+
227.0595	1	C16H7N2+
235.0667	4	C15H8FN2+
236.0743	157	C15H9FN2+
237.0821	28	C15H10FN2+
238.0661	6	C15H9FNO+
244.063	1	C16H8N2O+
245.0708	7	C16H9N2O+
246.0783	1	C16H10N2O+
247.0664	19	C16H8FN2+
263.0615	2	C16H8FN2O+
264.0692	142	C16H9FN2O+
265.077	187	C16H10FN2O+
