Mass spectrum: Isopropalin; LC-ESI-QFT; MS2; CE: 45; R=17500; [M+H]+
Name: Isopropalin
Name: 2,6-dinitro-4-propan-2-yl-N,N-dipropylaniline
Formula: C15H23N3O4
Exact mass: 309.1689
SMILES: CCCN(CCC)C1=C(C=C(C=C1[N+]([O-])=O)C(C)C)[N+]([O-])=O
InChI: InChI=1S/C15H23N3O4/c1-5-7-16(8-6-2)15-13(17(19)20)9-12(11(3)4)10-14(15)18(21)22/h9-11H,5-8H2,1-4H3
Instrument: Q Exactive Orbitrap (Thermo Scientific)
Instrument type: LC-ESI-QFT
Ms type: MS2
Ion mode: POSITIVE
Ionization: ESI
Fragmentation mode: HCD
Collision energy: 45
Resolution: 17500
Column name: Acquity BEH C18 1.7um, 2.1x150mm (Waters)
Retention time: 20.379 min
Base peak: 79.0211
Precursor m/z: 310.1761
Precursor type: [M+H]+
Precursor intensity: 908983.9375
m/z	relative intensity	assigned
53.0023	49	C3HO+
57.0336	174	C3H5O+
58.0652	71	C3H8N+
69.0699	44	C5H9+
70.0401	72	C2H4N3+
79.0541	31	C6H7+
91.0543	45	C7H7+
104.0495	36	C7H6N+
105.0333	61	C7H5O+
106.0652	33	C7H8N+
117.0579	34	C8H7N+
118.0653	162	C8H8N+
130.065	58	C9H8N+
131.0605	195	C8H7N2+
132.0683	28	C8H8N2+
133.0763	140	C8H9N2+
133.089	27	C9H11N+
134.0966	56	C9H12N+
135.0554	64	C7H7N2O+
145.0762	159	C9H9N2+
147.0555	84	C8H7N2O+
147.0917	73	C9H11N2+
148.0999	134	C9H12N2+
149.0223	108	C6H3N3O2+
149.0709	40	C8H9N2O+
159.0917	35	C10H11N2+
160.0632	32	C9H8N2O+
160.0869	41	C9H10N3+
160.1001	25	C10H12N2+
161.0709	237	C9H9N2O+
163.0868	63	C9H11N2O+
172.0995	25	C11H12N2+
173.1077	33	C11H13N2+
175.0867	120	C10H11N2O+
176.0946	87	C10H12N2O+
177.0662	100	C9H9N2O2+
179.0817	83	C9H11N2O2+
187.123	48	C12H15N2+
188.131	53	C12H16N2+
189.1026	85	C11H13N2O+
190.0612	58	C9H8N3O2+
191.0816	264	C10H11N2O2+
193.0975	79	C10H13N2O2+
194.0927	179	C9H12N3O2+
195.0764	153	C9H11N2O3+
203.0935	39	C12H13NO2+
203.1183	128	C12H15N2O+
205.0849	92	C10H11N3O2+
205.0973	27	C11H13N2O2+
206.0927	470	C10H12N3O2+
208.0719	999	C9H10N3O3+
209.0798	223	C9H11N3O3+
210.0877	172	C9H12N3O3+
218.0927	330	C11H12N3O2+
219.113	147	C12H15N2O2+
222.0875	532	C10H12N3O3+
226.0825	622	C9H12N3O4+
233.1164	43	C12H15N3O2+
234.124	406	C12H16N3O2+
264.1344	141	C13H18N3O3+
276.1716	86	C15H22N3O2+
