Mass spectrum: Vincamine; LC-ESI-QFT; MS2; CE: 45; R=17500; [M+H]+
Name: Vincamine
Name: methyl (15S,17S,19S)-15-ethyl-17-hydroxy-1,11-diazapentacyclo[9.6.2.02,7.08,18.015,19]nonadeca-2,4,6,8(18)-tetraene-17-carboxylate
Formula: C21H26N2O3
Exact mass: 354.1943
SMILES: CC[C@@]12CCCN3CCC4=C([C@H]13)N(C1=C4C=CC=C1)[C@](O)(C2)C(=O)OC
InChI: InChI=1S/C21H26N2O3/c1-3-20-10-6-11-22-12-9-15-14-7-4-5-8-16(14)23(17(15)18(20)22)21(25,13-20)19(24)26-2/h4-5,7-8,18,25H,3,6,9-13H2,1-2H3/t18-,20+,21+/m1/s1
Instrument: Q Exactive Orbitrap (Thermo Scientific)
Instrument type: LC-ESI-QFT
Ms type: MS2
Ion mode: POSITIVE
Ionization: ESI
Fragmentation mode: HCD
Collision energy: 45
Resolution: 17500
Column name: Acquity BEH C18 1.7um, 2.1x150mm (Waters)
Retention time: 12.617 min
Base peak: 79.0211
Precursor m/z: 355.2016
Precursor type: [M+H]+
Precursor intensity: 14848716
m/z	relative intensity	assigned
56.0495	15	C3H6N+
58.0651	6	C3H8N+
67.0541	1	C5H7+
68.0494	6	C4H6N+
70.0651	53	C4H8N+
79.0542	1	C6H7+
81.0698	2	C6H9+
82.0653	2	C5H8N+
83.0492	13	C5H7O+
84.0807	8	C5H10N+
91.0541	4	C7H7+
93.0699	9	C7H9+
94.0649	1	C6H8N+
95.0854	6	C7H11+
96.0808	4	C6H10N+
98.0964	8	C6H12N+
105.0696	2	C8H9+
106.0651	2	C7H8N+
107.0854	8	C8H11+
108.0808	5	C7H10N+
109.0649	5	C7H9O+
109.101	1	C8H13+
110.0599	2	C6H8NO+
110.0965	39	C7H12N+
111.1042	8	C7H13N+
112.1122	14	C7H14N+
117.0699	4	C9H9+
118.0648	2	C8H8N+
119.0856	2	C9H11+
120.0804	1	C8H10N+
121.0649	5	C8H9O+
122.0599	5	C7H8NO+
122.0965	8	C8H12N+
123.0805	9	C8H11O+
124.0758	2	C7H10NO+
124.1121	28	C8H14N+
129.0703	1	C10H9+
130.0652	18	C9H8N+
132.0808	6	C9H10N+
133.0648	2	C9H9O+
134.0965	19	C9H12N+
135.0805	10	C9H11O+
136.0755	3	C8H10NO+
136.1122	2	C9H14N+
138.0913	1	C8H12NO+
138.1278	5	C9H16N+
143.0725	2	C10H9N+
144.0808	530	C10H10N+
146.0965	6	C10H12N+
150.0914	5	C9H12NO+
151.0755	6	C9H11O2+
152.107	157	C9H14NO+
154.0652	1	C11H8N+
154.0862	4	C8H12NO2+
156.081	11	C11H10N+
158.0965	27	C11H12N+
159.0918	2	C10H11N2+
160.0756	1	C10H10NO+
160.1119	3	C11H14N+
162.0913	25	C10H12NO+
163.0754	2	C10H11O2+
164.1069	7	C10H14NO+
165.091	5	C10H13O2+
167.071	1	C12H9N+
168.0807	3	C12H10N+
169.0771	1	C11H9N2+
169.0863	4	C12H11N+
170.0601	5	C11H8NO+
170.0967	11	C12H12N+
171.0915	5	C11H11N2+
172.0994	2	C11H12N2+
172.1123	5	C12H14N+
174.0914	3	C11H12NO+
177.0916	3	C11H13O2+
180.081	5	C13H10N+
180.1017	6	C10H14NO2+
181.0883	10	C13H11N+
182.0813	4	C12H10N2+
182.0964	8	C13H12N+
184.0758	4	C12H10NO+
184.0996	2	C12H12N2+
184.1121	4	C13H14N+
185.1076	3	C12H13N2+
186.091	3	C12H12NO+
192.1019	5	C11H14NO2+
193.0886	2	C14H11N+
194.0965	6	C14H12N+
194.1177	46	C11H16NO2+
195.1034	3	C14H13N+
196.0972	5	C13H12N2+
196.1118	5	C14H14N+
197.1073	5	C13H13N2+
197.1197	2	C14H15N+
198.0921	7	C13H12NO+
198.1276	5	C14H16N+
199.0869	1	C12H11N2O+
202.0865	4	C12H12NO2+
204.0811	2	C15H10N+
204.1012	1	C12H14NO2+
205.0887	3	C15H11N+
206.0964	11	C15H12N+
206.1175	3	C12H16NO2+
207.1044	4	C15H13N+
207.1164	1	C16H15+
208.0759	4	C14H10NO+
208.1121	14	C15H14N+
209.1199	15	C15H15N+
210.1159	2	C14H14N2+
210.1278	14	C15H16N+
212.1282	224	C11H18NO3+
216.1019	5	C13H14NO2+
217.0889	2	C16H11N+
218.0963	3	C16H12N+
218.1172	3	C13H16NO2+
219.104	7	C16H13N+
220.112	13	C16H14N+
221.1084	2	C15H13N2+
221.1199	17	C16H15N+
222.1277	36	C16H16N+
223.1351	7	C16H17N+
224.1086	1	C15H14NO+
224.1299	12	C15H16N2+
224.1433	25	C16H18N+
225.1381	2	C15H17N2+
226.0857	2	C14H12NO2+
226.1228	4	C15H16NO+
228.103	1	C14H14NO2+
232.1126	3	C17H14N+
233.084	2	C16H11NO+
233.1195	2	C17H15N+
234.1148	2	C16H14N2+
234.1278	37	C17H16N+
235.1231	2	C16H15N2+
235.1355	19	C17H17N+
236.1072	6	C16H14NO+
236.1434	43	C17H18N+
237.077	1	C15H11NO2+
237.1389	2	C16H17N2+
237.1505	9	C17H19N+
238.0864	4	C15H12NO2+
238.1227	6	C16H16NO+
238.159	4	C17H20N+
239.0939	21	C15H13NO2+
239.155	2	C16H19N2+
240.102	9	C15H14NO2+
242.1173	3	C15H16NO2+
246.1278	18	C18H16N+
247.0997	1	C17H13NO+
247.1355	3	C18H17N+
248.1067	2	C17H14NO+
248.1303	7	C17H16N2+
248.1434	28	C18H18N+
249.1148	2	C17H15NO+
249.1383	9	C17H17N2+
249.1514	17	C18H19N+
250.123	3	C17H16NO+
250.159	43	C18H20N+
251.0944	3	C16H13NO2+
251.1539	2	C17H19N2+
252.102	20	C16H14NO2+
252.1385	8	C17H18NO+
253.11	15	C16H15NO2+
253.1699	21	C17H21N2+
254.1175	12	C16H16NO2+
258.1122	2	C15H16NO3+
260.1428	9	C19H18N+
262.1232	10	C18H16NO+
264.1018	7	C17H14NO2+
265.1099	40	C17H15NO2+
266.1176	40	C17H16NO2+
266.1539	17	C18H20NO+
267.1254	62	C17H17NO2+
268.1332	164	C17H18NO2+
274.1228	6	C19H16NO+
275.1174	2	C18H15N2O+
276.1023	3	C18H14NO2+
276.1256	14	C18H16N2O+
276.1395	4	C19H18NO+
277.1093	3	C18H15NO2+
277.1337	6	C18H17N2O+
277.1698	61	C19H21N2+
278.1174	10	C18H16NO2+
278.1543	8	C19H20NO+
278.1777	16	C19H22N2+
279.1087	2	C17H15N2O2+
279.1255	44	C18H17NO2+
280.1332	556	C18H18NO2+
281.1419	4	C18H19NO2+
282.149	37	C18H20NO2+
290.1175	9	C19H16NO2+
291.1253	24	C19H17NO2+
292.1333	31	C19H18NO2+
293.1417	29	C19H19NO2+
294.1489	665	C19H20NO2+
295.1806	127	C19H23N2O+
305.1649	19	C20H21N2O+
306.1491	29	C20H20NO2+
307.1435	43	C19H19N2O2+
308.1663	325	C20H22NO2+
309.1597	22	C19H21N2O2+
309.1948	2	C20H25N2O+
310.1802	33	C20H24NO2+
320.1645	29	C21H22NO2+
322.1674	3	C20H22N2O2+
324.1597	3	C20H22NO3+
325.1908	3	C20H25N2O2+
326.1763	10	C20H24NO3+
337.1911	999	C21H25N2O2+
338.1754	9	C21H24NO3+
355.2017	151	C21H27N2O3+
