Mass spectrum: 4,4`-Sulfonylbis[2-(prop-2-en-1-yl)phenol]; LC-ESI-QFT; MS2; CE: 30; R=17500; [M+H]+
Name: 4,4'-Sulfonylbis[2-(prop-2-en-1-yl)phenol]
Name: Phenol, 4,4'-sulfonylbis[2-(2-propenyl)-
Name: 4-(4-hydroxy-3-prop-2-enylphenyl)sulfonyl-2-prop-2-enylphenol
Formula: C18H18O4S
Exact mass: 330.0926
SMILES: OC1=C(CC=C)C=C(C=C1)S(=O)(=O)C1=CC(CC=C)=C(O)C=C1
InChI: InChI=1S/C18H18O4S/c1-3-5-13-11-15(7-9-17(13)19)23(21,22)16-8-10-18(20)14(12-16)6-4-2/h3-4,7-12,19-20H,1-2,5-6H2
Instrument: Q Exactive Orbitrap (Thermo Scientific)
Instrument type: LC-ESI-QFT
Ms type: MS2
Ion mode: POSITIVE
Ionization: ESI
Fragmentation mode: HCD
Collision energy: 30
Resolution: 17500
Column name: Acquity BEH C18 1.7um, 2.1x150mm (Waters)
Retention time: 17.082 min
Base peak: 79.0211
Precursor m/z: 331.0999
Precursor type: [M+H]+
Precursor intensity: 4344809.6875
m/z	relative intensity	assigned
53.0022	1	C3HO+
53.0386	3	C4H5+
55.0179	29	C3H3O+
65.0386	5	C5H5+
67.0542	7	C5H7+
68.9971	4	C3HO2+
71.0127	5	C3H3O2+
77.0386	3	C6H5+
79.0542	77	C6H7+
81.0335	2	C5H5O+
81.0699	5	C6H9+
83.0128	1	C4H3O2+
91.0542	12	C7H7+
93.0337	2	C6H5O+
93.0697	1	C7H9+
94.0415	1	C6H6O+
95.0494	6	C6H7O+
103.0542	42	C8H7+
105.0699	129	C8H9+
107.0492	16	C7H7O+
109.0284	17	C6H5O2+
110.0364	5	C6H6O2+
111.0441	8	C6H7O2+
115.0542	18	C9H7+
118.0412	2	C8H6O+
119.0492	2	C8H7O+
121.065	3	C8H9O+
123.0439	14	C7H7O2+
125.0597	2	C7H9O2+
131.0494	10	C9H7O+
132.057	13	C9H8O+
133.0648	154	C9H9O+
134.0726	12	C9H10O+
145.0648	32	C10H9O+
149.0598	551	C9H9O2+
150.0675	17	C9H10O2+
151.0754	164	C9H11O2+
156.9954	131	C6H5O3S+
159.0804	3	C11H11O+
162.0679	7	C10H10O2+
171.0111	19	C7H7O3S+
173.0962	10	C12H13O+
174.1038	15	C12H14O+
181.0319	1	C9H9O2S+
183.0114	3	C8H7O3S+
197.0268	999	C9H9O3S+
198.0672	2	C13H10O2+
263.0373	16	C13H11O4S+
275.0368	2	C14H11O4S+
303.0686	65	C16H15O4S+
331.0999	394	C18H19O4S+
