Mass spectrum: Sulfisoxazole; LC-ESI-QFT; MS2; CE: 30; R=17500; [M-H]-
Name: Sulfisoxazole
Name: 4-amino-N-(3,4-dimethyl-1,2-oxazol-5-yl)benzenesulfonamide
Formula: C11H13N3O3S
Exact mass: 267.0678
SMILES: CC1=NOC(NS(=O)(=O)C2=CC=C(N)C=C2)=C1C
InChI: InChI=1S/C11H13N3O3S/c1-7-8(2)13-17-11(7)14-18(15,16)10-5-3-9(12)4-6-10/h3-6,14H,12H2,1-2H3
Instrument: Q Exactive Orbitrap (Thermo Scientific)
Instrument type: LC-ESI-QFT
Ms type: MS2
Ion mode: NEGATIVE
Ionization: ESI
Fragmentation mode: HCD
Collision energy: 30
Resolution: 17500
Column name: Acquity BEH C18 1.7um, 2.1x150mm (Waters)
Retention time: 12.443 min
Base peak: 266.0605
Precursor m/z: 266.0605
Precursor type: [M-H]-
Precursor intensity: 4079098.560059
m/z	relative intensity	assigned
61.9706	1	NOS-
63.9624	32	O2S-
66.0349	21	C4H4N-
77.9655	14	NO2S-
78.9733	7	HNO2S-
79.9574	4	O3S-
79.981	1	H2NO2S-
82.03	8	C4H4NO-
92.0505	17	C6H6N-
93.9604	2	NO3S-
94.03	1	C5H4NO-
95.0251	7	C4H3N2O-
105.9605	2	CNO3S-
107.0377	23	C6H5NO-
108.0456	23	C6H6NO-
109.0407	27	C5H5N2O-
110.0485	4	C5H6N2O-
111.0564	1	C5H7N2O-
117.0458	2	C7H5N2-
119.0612	1	C7H7N2-
133.0407	6	C7H5N2O-
140.0176	3	C6H6NOS-
144.0694	9	C9H8N2-
155.0046	30	C6H5NO2S-
156.0125	312	C6H6NO2S-
157.0767	2	C10H9N2-
171.0234	999	C6H7N2O2S-
172.0075	3	C6H6NO3S-
183.0233	7	C7H7N2O2S-
197.0026	4	C7H5N2O3S-
197.0385	1	C8H9N2O2S-
221.039	8	C10H9N2O2S-
239.0496	579	C10H11N2O3S-
248.0501	3	C11H10N3O2S-
266.0605	363	C11H12N3O3S-
