Mass spectrum: (9Z,12R)-12-Hydroxyoctadec-9-enoic acid; LC-ESI-QFT; MS2; CE: 90; R=17500; [M-H]-
Name: (9Z,12R)-12-Hydroxyoctadec-9-enoic acid
Name: Ricinoleic acid
Name: (Z,12R)-12-hydroxyoctadec-9-enoic acid
Formula: C18H34O3
Exact mass: 298.2508
SMILES: CCCCCC[C@@H](O)C\C=C/CCCCCCCC(O)=O
InChI: InChI=1S/C18H34O3/c1-2-3-4-11-14-17(19)15-12-9-7-5-6-8-10-13-16-18(20)21/h9,12,17,19H,2-8,10-11,13-16H2,1H3,(H,20,21)/b12-9-/t17-/m1/s1
Instrument: Q Exactive Orbitrap (Thermo Scientific)
Instrument type: LC-ESI-QFT
Ms type: MS2
Ion mode: NEGATIVE
Ionization: ESI
Fragmentation mode: HCD
Collision energy: 90
Resolution: 17500
Column name: Acquity BEH C18 1.7um, 2.1x150mm (Waters)
Retention time: 19.824 min
Base peak: 297.2435
Precursor m/z: 297.2435
Precursor type: [M-H]-
Precursor intensity: 18142334.73486
m/z	relative intensity	assigned
71.0138	999	C3H3O2-
93.0344	652	C6H5O-
