Mass spectrum: N-(2,4-Dimethylphenyl)acetamide; LC-ESI-QFT; MS2; CE: 60; R=17500; [M+H]+
Name: N-(2,4-Dimethylphenyl)acetamide
Formula: C10H13NO
Exact mass: 163.0997
SMILES: CC(=O)NC1=CC=C(C)C=C1C
InChI: InChI=1S/C10H13NO/c1-7-4-5-10(8(2)6-7)11-9(3)12/h4-6H,1-3H3,(H,11,12)
Instrument: Q Exactive Orbitrap (Thermo Scientific)
Instrument type: LC-ESI-QFT
Ms type: MS2
Ion mode: POSITIVE
Ionization: ESI
Fragmentation mode: HCD
Collision energy: 60
Resolution: 17500
Column name: Acquity BEH C18 1.7um, 2.1x150mm (Waters)
Retention time: 14.390 min
Base peak: 79.0211
Precursor m/z: 164.107
Precursor type: [M+H]+
Precursor intensity: 16172380.8125
m/z	relative intensity	assigned
79.0542	4	C6H7+
91.0542	1	C7H7+
95.0856	4	C7H11+
103.0542	2	C8H7+
105.0699	66	C8H9+
106.0651	8	C7H8N+
107.0729	482	C7H9N+
108.0569	1	C7H8O+
120.0809	1	C8H10N+
121.0888	1	C8H11N+
122.0964	999	C8H12N+
123.0803	22	C8H11O+
131.073	3	C9H9N+
146.0964	9	C10H12N+
164.107	49	C10H14NO+
