Mass spectrum: Progesterone; LC-ESI-QFT; MS2; CE: 60; R=17500; [M+H]+
Name: Progesterone
Name: (8S,9S,10R,13S,14S,17S)-17-acetyl-10,13-dimethyl-1,2,6,7,8,9,11,12,14,15,16,17-dodecahydrocyclopenta[a]phenanthren-3-one
Formula: C21H30O2
Exact mass: 314.2246
SMILES: CC(=O)[C@H]1CC[C@H]2[C@@H]3CCC4=CC(=O)CC[C@]4(C)[C@H]3CC[C@]12C
InChI: InChI=1S/C21H30O2/c1-13(22)17-6-7-18-16-5-4-14-12-15(23)8-10-20(14,2)19(16)9-11-21(17,18)3/h12,16-19H,4-11H2,1-3H3/t16-,17+,18-,19-,20-,21+/m0/s1
Instrument: Q Exactive Orbitrap (Thermo Scientific)
Instrument type: LC-ESI-QFT
Ms type: MS2
Ion mode: POSITIVE
Ionization: ESI
Fragmentation mode: HCD
Collision energy: 60
Resolution: 17500
Column name: Acquity BEH C18 1.7um, 2.1x150mm (Waters)
Retention time: 18.764 min
Base peak: 79.0211
Precursor m/z: 315.2319
Precursor type: [M+H]+
Precursor intensity: 6470471.25
m/z	relative intensity	assigned
53.0022	2	C3HO+
53.0386	5	C4H5+
55.0179	13	C3H3O+
55.0542	9	C4H7+
57.0337	1	C3H5O+
65.0386	4	C5H5+
67.0542	36	C5H7+
69.0334	4	C4H5O+
69.0698	30	C5H9+
71.0492	11	C4H7O+
79.0542	127	C6H7+
81.0699	132	C6H9+
83.0491	45	C5H7O+
83.0856	3	C6H11+
85.0648	17	C5H9O+
91.0542	36	C7H7+
93.0699	53	C7H9+
94.0413	3	C6H6O+
95.0492	12	C6H7O+
95.0856	62	C7H11+
97.0648	999	C6H9O+
103.0541	1	C8H7+
105.0699	47	C8H9+
107.049	7	C7H7O+
107.0856	34	C8H11+
109.0648	986	C7H9O+
111.0804	5	C7H11O+
117.07	10	C9H9+
119.0856	41	C9H11+
121.0648	10	C8H9O+
121.1012	23	C9H13+
123.0805	99	C8H11O+
128.0618	1	C10H8+
129.0699	8	C10H9+
131.0856	31	C10H11+
133.1012	30	C10H13+
135.0804	1	C9H11O+
135.1169	10	C10H15+
137.0961	6	C9H13O+
142.0778	2	C11H10+
143.0856	14	C11H11+
144.0933	2	C11H12+
145.1012	35	C11H13+
147.0802	2	C10H11O+
147.1168	19	C11H15+
149.0965	6	C10H13O+
149.1324	7	C11H17+
155.0854	4	C12H11+
156.0933	3	C12H12+
157.1012	18	C12H13+
158.1088	2	C12H14+
159.1168	32	C12H15+
161.096	2	C11H13O+
161.1323	9	C12H17+
163.1118	11	C11H15O+
163.1481	2	C12H19+
168.0928	1	C13H12+
169.1014	5	C13H13+
171.1168	14	C13H15+
173.1326	16	C13H17+
175.1124	1	C12H15O+
175.148	2	C13H19+
177.1271	3	C12H17O+
181.1009	2	C14H13+
182.1093	1	C14H14+
183.1172	6	C14H15+
185.1329	7	C14H17+
187.1482	5	C14H19+
189.1272	2	C13H17O+
189.1638	1	C14H21+
195.1169	3	C15H15+
197.1323	3	C15H17+
199.1479	6	C15H19+
201.1635	3	C15H21+
209.1323	3	C16H17+
211.1477	2	C16H19+
213.1633	4	C16H21+
215.1795	1	C16H23+
223.1481	1	C17H19+
237.1637	1	C18H21+
239.1788	3	C18H23+
253.1942	1	C19H25+
255.21	1	C19H27+
