Mass spectrum: Penoxsulam; LC-ESI-QFT; MS2; CE: 30; R=17500; [M+H]+
Name: Penoxsulam
Name: 2-(2,2-difluoroethoxy)-N-(5,8-dimethoxy-[1,2,4]triazolo[1,5-c]pyrimidin-2-yl)-6-(trifluoromethyl)benzenesulfonamide
Formula: C16H14F5N5O5S
Exact mass: 483.0636
SMILES: COC1=CN=C(OC)N2N=C(NS(=O)(=O)C3=C(C=CC=C3OCC(F)F)C(F)(F)F)N=C12
InChI: InChI=1S/C16H14F5N5O5S/c1-29-10-6-22-15(30-2)26-13(10)23-14(24-26)25-32(27,28)12-8(16(19,20)21)4-3-5-9(12)31-7-11(17)18/h3-6,11H,7H2,1-2H3,(H,24,25)
Instrument: Q Exactive Orbitrap (Thermo Scientific)
Instrument type: LC-ESI-QFT
Ms type: MS2
Ion mode: POSITIVE
Ionization: ESI
Fragmentation mode: HCD
Collision energy: 30
Resolution: 17500
Column name: Acquity BEH C18 1.7um, 2.1x150mm (Waters)
Retention time: 15.597 min
Base peak: 79.0211
Precursor m/z: 484.0709
Precursor type: [M+H]+
Precursor intensity: 13231526.5
m/z	relative intensity	assigned
56.0495	1	C3H6N+
70.0286	2	C3H4NO+
83.0603	2	C4H7N2+
84.0443	1	C4H6NO+
96.0318	1	C4H4N2O+
97.0396	1	C4H5N2O+
111.0552	2	C5H7N2O+
124.0267	20	C5H4N2O2+
124.0505	4	C5H6N3O+
127.0503	2	C5H7N2O2+
135.0439	2	C3H6FN3O2+
136.0617	5	C5H6N5+
137.0458	1	C2H7F4NO+
139.0501	176	C6H7N2O2+
140.0452	2	C5H6N3O2+
144.9915	2	CH2F3N3S+
149.0458	1	C6H5N4O+
150.0296	1	C6H4N3O2+
150.0535	1	C6H6N4O+
152.0454	12	C6H6N3O2+
153.0532	12	C6H7N3O2+
164.0566	98	C6H6N5O+
165.0645	2	C6H7N5O+
166.0723	19	C6H8N5O+
172.9864	2	C2H2F3N3OS+
177.0158	3	C7H4F3O2+
177.0321	1	C11H3N3+
177.0644	2	C7H7N5O+
178.0726	2	C4H10F4N2O+
180.0515	16	C6H6N5O2+
194.0674	129	C4H10F4N2O2+
195.075	999	C7H9N5O2+
199.006	1	C8H7O4S+
202.0237	1	C9H5F3O2+
205.0273	1	CH8FN5O4S+
240.0185	2	C7H6N5O3S+
250.9985	16	C9H6F3O3S+
258.029	10	C7H8N5O4S+
297.0861	1	C11H13F4N2O3+
298.0936	2	C11H14F4N2O3+
308.0771	1	C15H11F3N2O2+
311.0651	1	C11H11F4N2O4+
312.0727	5	C14H10N5O4+
315.0758	2	C11H15N4O5S+
324.0705	1	C13H9F3N5O2+
326.0883	97	C15H12N5O4+
335.0826	7	C14H11F2N5O3+
348.07	3	C12H14F2N4O4S+
365.0734	1	C15H10F3N5O3+
380.0965	10	C16H13F3N5O3+
400.1027	9	C16H14F4N5O3+
420.109	1	C16H15F5N5O3+
444.0585	168	C16H13F3N5O5S+
464.0648	14	C16H14F4N5O5S+
484.071	298	C16H15F5N5O5S+
