Mass spectrum: (-)-Epigallocatechin gallate; LC-ESI-QFT; MS2; CE: 30; R=17500; [M-H]-
Name: (-)-Epigallocatechin gallate
Name: [(2R,3R)-5,7-dihydroxy-2-(3,4,5-trihydroxyphenyl)-3,4-dihydro-2H-chromen-3-yl] 3,4,5-trihydroxybenzoate
Formula: C22H18O11
Exact mass: 458.0849
SMILES: OC1=CC(O)=C2C[C@@H](OC(=O)C3=CC(O)=C(O)C(O)=C3)[C@H](OC2=C1)C1=CC(O)=C(O)C(O)=C1
InChI: InChI=1S/C22H18O11/c23-10-5-12(24)11-7-18(33-22(31)9-3-15(27)20(30)16(28)4-9)21(32-17(11)6-10)8-1-13(25)19(29)14(26)2-8/h1-6,18,21,23-30H,7H2/t18-,21-/m1/s1
Instrument: Q Exactive Orbitrap (Thermo Scientific)
Instrument type: LC-ESI-QFT
Ms type: MS2
Ion mode: NEGATIVE
Ionization: ESI
Fragmentation mode: HCD
Collision energy: 30
Resolution: 17500
Column name: Acquity BEH C18 1.7um, 2.1x150mm (Waters)
Retention time: 11.181 min
Base peak: 266.1186
Precursor m/z: 457.0776
Precursor type: [M-H]-
Precursor intensity: 1315483.905273
m/z	relative intensity	assigned
123.0086	7	C6H3O3-
125.0244	241	C6H5O3-
137.0243	15	C7H5O3-
139.0401	7	C7H7O3-
149.0245	2	C8H5O3-
161.0243	40	C9H5O3-
165.0191	11	C8H5O4-
167.035	9	C8H7O4-
169.0143	999	C7H5O5-
177.0554	2	C10H9O3-
179.0351	15	C9H7O4-
193.014	29	C9H5O5-
201.0565	2	C12H9O3-
205.0143	3	C10H5O5-
219.0661	13	C12H11O4-
221.0458	4	C11H9O5-
269.0454	5	C15H9O5-
287.0565	5	C15H11O6-
305.0668	59	C15H13O7-
331.0465	5	C16H11O8-
