Mass spectrum: CI-959; LC-ESI-QFT; MS2; CE: 60; R=17500; [M-H]-
Name: CI-959
Name: CI-959 free acid
Name: 5-methoxy-3-propan-2-yloxy-N-(2H-tetrazol-5-yl)-1-benzothiophene-2-carboxamide
Formula: C14H15N5O3S
Exact mass: 333.0896
SMILES: COC1=CC2=C(SC(C(=O)NC3=NN=NN3)=C2OC(C)C)C=C1
InChI: InChI=1S/C14H15N5O3S/c1-7(2)22-11-9-6-8(21-3)4-5-10(9)23-12(11)13(20)15-14-16-18-19-17-14/h4-7H,1-3H3,(H2,15,16,17,18,19,20)
Instrument: Q Exactive Orbitrap (Thermo Scientific)
Instrument type: LC-ESI-QFT
Ms type: MS2
Ion mode: NEGATIVE
Ionization: ESI
Fragmentation mode: HCD
Collision energy: 60
Resolution: 17500
Column name: Acquity BEH C18 1.7um, 2.1x150mm (Waters)
Retention time: 17.310 min
Base peak: 329.1061
Precursor m/z: 332.0823
Precursor type: [M-H]-
Precursor intensity: 35897307.76758
m/z	relative intensity	assigned
53.9985	37	C2NO-
56.9805	10	C2HS-
82.0047	9	C2N3O-
82.9961	133	C4H3S-
93.0345	8	C6H5O-
95.0139	15	C5H3O2-
110.0108	333	C2N5O-
110.991	100	C5H3OS-
112.9979	21	C3HN2O3-
114.0012	10	C2H2N4S-
121.0295	753	C7H5O2-
122.0329	414	H4N5O3-
122.991	73	C6H3OS-
123.0334	7	C6H5NO2-
124.037	5	C7H8S-
134.9911	18	C7H3OS-
138.0145	55	C7H6OS-
138.9859	37	C6H3O2S-
147.999	11	C8H4OS-
148.9941	67	C7H3NOS-
150.986	7	C7H3O2S-
154.0093	13	C7H6O2S-
154.9809	149	C6H3O3S-
156.988	18	C8HN2S-
157.991	14	C3H2N4O2S-
160.9943	4	C8H3NOS-
161.0359	4	C8H5N2O2-
162.0384	4	C9H8NS-
162.986	542	C8H3O2S-
163.9938	999	C8H4O2S-
172.9941	9	C9H3NOS-
178.0096	95	C9H6O2S-
179.0173	911	C9H7O2S-
188.005	18	C9H4N2OS-
188.9891	259	C9H3NO2S-
190.981	9	C9H3O3S-
191.0175	19	C10H7O2S-
194.0044	151	C9H6O3S-
196.9934	3	C9HN4S-
202.992	17	C9H3N2O2S-
204.0125	97	C10H6NO2S-
206.0408	27	C11H10O2S-
221.0642	3	C12H13O2S-
228.9954	7	C10H3N3O2S-
230.9869	25	C10H3N2O3S-
231.9948	159	C10H4N2O3S-
246.0105	273	C11H6N2O3S-
247.0184	111	C11H7N2O3S-
274.0418	6	C13H10N2O3S-
289.0653	4	C14H13N2O3S-
