Mass spectrum: PharmaGSID_48505; LC-ESI-QFT; MS2; CE: 75; R=17500; [M+H]+
Name: PharmaGSID_48505
Name: 5-(2-chlorophenyl)-3-methyl-7-nitro-1,2-dihydropyrazolo[3,4-b][1,4]benzodiazepine
Formula: C17H12ClN5O2
Exact mass: 353.0680
SMILES: CC1=C2N=C(C3=CC=CC=C3Cl)C3=C(NC2=NN1)C=CC(=C3)[N+]([O-])=O
InChI: InChI=1S/C17H12ClN5O2/c1-9-15-17(22-21-9)19-14-7-6-10(23(24)25)8-12(14)16(20-15)11-4-2-3-5-13(11)18/h2-8H,1H3,(H2,19,21,22)
Instrument: Q Exactive Orbitrap (Thermo Scientific)
Instrument type: LC-ESI-QFT
Ms type: MS2
Ion mode: POSITIVE
Ionization: ESI
Fragmentation mode: HCD
Collision energy: 75
Resolution: 17500
Column name: Acquity BEH C18 1.7um, 2.1x150mm (Waters)
Retention time: 17.626 min
Base peak: 79.0212
Precursor m/z: 354.0752
Precursor type: [M+H]+
Precursor intensity: 6190749.3125
m/z	relative intensity	assigned
55.0291	21	C2H3N2+
69.0449	9	C3H5N2+
70.0526	6	C3H6N2+
90.0339	4	C6H4N+
90.0465	4	C7H6+
91.0418	6	C6H5N+
95.0493	4	C6H7O+
103.0418	8	C7H5N+
104.0499	4	C7H6N+
105.0449	8	C6H5N2+
115.0419	6	C8H5N+
115.0543	10	C9H7+
116.0499	3	C8H6N+
117.0574	7	C8H7N+
118.0527	11	C7H6N2+
123.0242	14	C10H3+
125.0154	20	C7H6Cl+
128.037	11	C8H4N2+
128.0497	6	C9H6N+
129.0447	29	C8H5N2+
130.0527	6	C8H6N2+
132.0569	5	C9H8O+
139.0544	17	C11H7+
140.0497	24	C10H6N+
141.0453	6	C9H5N2+
141.0576	16	C10H7N+
142.0526	62	C9H6N2+
142.0656	4	C10H8N+
143.0481	6	C8H5N3+
143.0605	19	C9H7N2+
152.0369	11	C10H4N2+
152.0619	18	C12H8+
153.0701	11	C12H9+
154.0402	6	C11H6O+
154.0526	8	C10H6N2+
154.0654	6	C11H8N+
155.0482	13	C9H5N3+
155.0607	14	C10H7N2+
156.0559	21	C9H6N3+
157.0637	8	C9H7N3+
163.0542	40	C13H7+
164.0486	4	C12H6N+
165.0699	21	C13H9+
166.0652	61	C12H8N+
167.049	10	C12H7O+
167.0608	19	C11H7N2+
167.0732	12	C12H9N+
168.056	54	C10H6N3+
168.0686	9	C11H8N2+
169.0643	80	C12H9O+
170.0601	4	C11H8NO+
170.0715	23	C10H8N3+
171.0549	20	C10H7N2O+
174.0232	28	C11H7Cl+
176.0622	7	C14H8+
177.0574	103	C13H7N+
178.0652	152	C13H8N+
179.0477	7	C11H5N3+
179.0607	31	C12H7N2+
179.0729	40	C13H9N+
180.0442	5	C12H6NO+
180.0563	7	C11H6N3+
180.0809	15	C13H10N+
183.0668	21	C10H7N4+
183.0798	8	C11H9N3+
185.0709	4	C11H9N2O+
186.0232	56	C12H7Cl+
188.0495	6	C14H6N+
189.07	3	C15H9+
190.0653	106	C14H8N+
191.0607	8	C13H7N2+
191.073	14	C14H9N+
192.0684	23	C13H8N2+
192.0797	4	C14H10N+
193.0529	5	C10H10ClN2+
193.0764	34	C13H9N2+
194.0602	56	C13H8NO+
195.0667	240	C11H7N4+
196.0512	5	C8H9ClN4+
196.0751	61	C13H10NO+
197.0825	7	C11H9N4+
198.0232	44	C13H7Cl+
199.031	33	C13H8Cl+
200.026	18	C12H7ClN+
201.0339	5	C12H8ClN+
201.0549	12	C9H12ClNO2+
202.0182	119	C12H7ClO+
202.0528	13	C14H6N2+
202.0653	21	C15H8N+
203.0606	84	C14H7N2+
203.0731	37	C15H9N+
204.0562	22	C13H6N3+
204.0685	223	C14H8N2+
204.0807	39	C15H10N+
205.0762	926	C14H9N2+
206.0836	5	C14H10N2+
207.0679	7	C14H9NO+
211.0181	4	C13H6ClN+
211.0381	6	C8H8ClN4O+
212.0262	38	C13H7ClN+
213.0341	204	C13H8ClN+
213.0547	13	C10H12ClNO2+
214.0419	38	C13H9ClN+
215.0259	9	C13H8ClO+
215.0599	28	C15H7N2+
215.0705	9	C8H12ClN4O+
216.0333	7	C13H9ClO+
216.0683	31	C9H13ClN2O2+
216.0812	13	C16H10N+
217.0639	12	C14H7N3+
217.0762	51	C15H9N2+
217.0887	34	C16H11N+
218.084	24	C15H10N2+
218.0966	16	C16H12N+
219.0552	11	C14H7N2O+
219.0803	6	C16H11O+
219.0916	107	C15H11N2+
220.0639	7	C11H11ClN3+
220.0758	23	C15H10NO+
220.0873	9	C14H10N3+
221.0711	132	C14H9N2O+
223.0867	9	C14H11N2O+
224.0263	63	C14H7ClN+
225.0343	5	C14H8ClN+
227.0608	4	C16H7N2+
227.0731	14	C17H9N+
228.065	48	C8H11ClN5O+
228.0814	12	C17H10N+
229.0761	131	C16H9N2+
230.0135	20	C13H7ClO2+
230.0369	12	C13H9ClNO+
230.0715	141	C15H8N3+
230.0838	17	C16H10N2+
231.0794	48	C15H9N3+
231.0919	14	C16H11N2+
232.0873	50	C15H10N3+
234.1026	5	C15H12N3+
235.0632	8	C12H12ClN2O+
235.0865	14	C15H11N2O+
236.0582	30	C14H8N2O2+
237.0217	11	C14H6ClN2+
238.0292	20	C14H7ClN2+
238.042	28	C15H9ClN+
239.0371	999	C14H8ClN2+
240.0443	8	C17H6NO+
241.0528	11	C14H10ClN2+
242.0838	31	C17H10N2+
243.0917	136	C17H11N2+
244.0869	31	C16H10N3+
244.0998	37	C17H12N2+
245.0239	8	C13H8ClNO2+
245.0708	6	C16H9N2O+
245.0949	13	C16H11N3+
245.1078	30	C17H13N2+
246.1026	52	C16H12N3+
249.0217	7	C15H6ClN2+
251.0371	45	C15H8ClN2+
251.0496	6	C16H10ClN+
252.045	17	C15H9ClN2+
252.0579	12	C16H11ClN+
253.0528	195	C15H10ClN2+
254.0368	12	C15H9ClNO+
254.0718	54	C17H8N3+
255.0321	85	C14H8ClN2O+
255.0794	33	C17H9N3+
256.0869	87	C17H10N3+
257.0822	15	C16H9N4+
257.0953	23	C17H11N3+
258.0901	74	C16H10N4+
259.0981	8	C16H11N4+
260.1059	28	C16H12N4+
261.1136	39	C16H13N4+
262.0425	8	C17H9ClN+
263.0372	122	C16H8ClN2+
264.0323	70	C15H7ClN3+
264.0468	4	C16H9ClN2+
265.053	24	C16H10ClN2+
266.0482	58	C15H9ClN3+
269.0475	9	C15H10ClN2O+
270.0193	8	C14H7ClN2O2+
271.0979	78	C17H11N4+
272.0348	11	C14H9ClN2O2+
272.1058	197	C17H12N4+
273.1136	93	C17H13N4+
276.1012	26	C16H12N4O+
277.0537	28	C17H10ClN2+
278.0479	16	C16H9ClN3+
279.0685	131	C17H12ClN2+
280.0637	177	C16H11ClN3+
281.0591	6	C15H10ClN4+
282.0791	4	C16H13ClN3+
290.048	159	C17H9ClN3+
291.0565	15	C17H10ClN3+
292.0509	42	C16H9ClN4+
293.0585	7	C16H10ClN4+
295.0746	9	C16H12ClN4+
303.0881	10	C17H11N4O2+
304.0964	4	C17H12N4O2+
305.061	4	C17H10ClN4+
306.0674	33	C17H11ClN4+
307.0747	296	C17H12ClN4+
308.0819	12	C17H13ClN4+
313.0609	5	C16H12ClN3O2+
340.0725	21	C17H13ClN4O2+
