Mass spectrum: CP-457920; LC-ESI-QFT; MS2; CE: 60; R=17500; [M+H]+
Name: CP-457920
Name: 1,5-Naphthyridine-3-carboxamide, 6-ethoxy-1,4-dihydro-4-oxo-N-(phenylmethyl)-
Name: N-benzyl-6-ethoxy-4-oxo-1H-1,5-naphthyridine-3-carboxamide
Formula: C18H17N3O3
Exact mass: 323.1270
SMILES: CCOC1=NC2=C(NC=C(C(=O)NCC3=CC=CC=C3)C2=O)C=C1
InChI: InChI=1S/C18H17N3O3/c1-2-24-15-9-8-14-16(21-15)17(22)13(11-19-14)18(23)20-10-12-6-4-3-5-7-12/h3-9,11H,2,10H2,1H3,(H,19,22)(H,20,23)
Instrument: Q Exactive Orbitrap (Thermo Scientific)
Instrument type: LC-ESI-QFT
Ms type: MS2
Ion mode: POSITIVE
Ionization: ESI
Fragmentation mode: HCD
Collision energy: 60
Resolution: 17500
Column name: Acquity BEH C18 1.7um, 2.1x150mm (Waters)
Retention time: 16.966 min
Base peak: 79.0212
Precursor m/z: 324.1343
Precursor type: [M+H]+
Precursor intensity: 10669239.90625
m/z	relative intensity	assigned
63.0229	1	C5H3+
65.0385	33	C5H5+
78.0336	1	C5H4N+
91.0542	999	C7H7+
93.0447	1	C5H5N2+
105.0446	5	C6H5N2+
108.0809	1	C7H10N+
121.0394	1	C6H5N2O+
133.0396	18	C7H5N2O+
143.0239	8	C8H3N2O+
145.0396	35	C8H5N2O+
147.0552	1	C8H7N2O+
161.0345	226	C8H5N2O2+
163.0502	8	C8H7N2O2+
171.0188	2	C9H3N2O2+
173.071	3	C10H9N2O+
175.0502	19	C9H7N2O2+
177.0658	3	C9H9N2O2+
179.0451	23	C8H7N2O3+
189.0294	81	C9H5N2O3+
207.04	901	C12H5N3O+
217.0607	6	C11H9N2O3+
221.0557	27	C13H7N3O+
233.0558	1	C14H7N3O+
235.0713	163	C14H9N3O+
249.0872	6	C15H11N3O+
253.0967	3	C15H13N2O2+
