Mass spectrum: Picoxystrobin; LC-ESI-QFT; MS2; CE: 90; R=17500; [M+H]+
Name: Picoxystrobin
Name: methyl (E)-3-methoxy-2-[2-[[6-(trifluoromethyl)pyridin-2-yl]oxymethyl]phenyl]prop-2-enoate
Formula: C18H16F3NO4
Exact mass: 367.1031
SMILES: CO\C=C(\C(=O)OC)C1=C(COC2=NC(=CC=C2)C(F)(F)F)C=CC=C1
InChI: InChI=1S/C18H16F3NO4/c1-24-11-14(17(23)25-2)13-7-4-3-6-12(13)10-26-16-9-5-8-15(22-16)18(19,20)21/h3-9,11H,10H2,1-2H3/b14-11+
Instrument: Q Exactive Orbitrap (Thermo Scientific)
Instrument type: LC-ESI-QFT
Ms type: MS2
Ion mode: POSITIVE
Ionization: ESI
Fragmentation mode: HCD
Collision energy: 90
Resolution: 17500
Column name: Acquity BEH C18 1.7um, 2.1x150mm (Waters)
Retention time: 18.171 min
Base peak: 79.0211
Precursor m/z: 368.1104
Precursor type: [M+H]+
Precursor intensity: 7350638.875
m/z	relative intensity	assigned
91.0544	431	C7H7+
102.0465	928	C8H6+
103.0543	375	C8H7+
115.0544	999	C9H7+
117.07	260	C9H9+
130.0415	238	C9H6O+
131.0492	108	C9H7O+
145.0651	104	C10H9O+
