Mass spectrum: Fluoxastrobin; LC-ESI-QFT; MS2; CE: 60; R=17500; [M+H]+
Name: Fluoxastrobin
Name: (E)-1-[2-[6-(2-chlorophenoxy)-5-fluoropyrimidin-4-yl]oxyphenyl]-1-(5,6-dihydro-1,4,2-dioxazin-3-yl)-N-methoxymethanimine
Formula: C21H16ClFN4O5
Exact mass: 458.0793
SMILES: CO\N=C(\C1=NOCCO1)C1=C(OC2=C(F)C(OC3=C(Cl)C=CC=C3)=NC=N2)C=CC=C1
InChI: InChI=1S/C21H16ClFN4O5/c1-28-26-18(21-27-30-11-10-29-21)13-6-2-4-8-15(13)31-19-17(23)20(25-12-24-19)32-16-9-5-3-7-14(16)22/h2-9,12H,10-11H2,1H3/b26-18+
Instrument: Q Exactive Orbitrap (Thermo Scientific)
Instrument type: LC-ESI-QFT
Ms type: MS2
Ion mode: POSITIVE
Ionization: ESI
Fragmentation mode: HCD
Collision energy: 60
Resolution: 17500
Column name: Acquity BEH C18 1.7um, 2.1x150mm (Waters)
Retention time: 17.699 min
Base peak: 79.0212
Precursor m/z: 459.0866
Precursor type: [M+H]+
Precursor intensity: 15182167.25
m/z	relative intensity	assigned
50.015	2	C4H2+
51.023	6	C4H3+
52.0182	1	C3H2N+
52.0307	1	C4H4+
53.0022	6	C3HO+
53.0386	15	C4H5+
53.9975	1	C2NO+
55.0178	4	C3H3O+
56.0131	2	C2H2NO+
63.0229	19	C5H3+
64.0181	6	C4H2N+
64.0307	3	C5H4+
65.0385	88	C5H5+
66.0463	4	C5H6+
68.0496	1	C4H6N+
68.9971	1	C3HO2+
69.0083	5	C2HN2O+
69.9923	21	C2NO2+
70.0086	2	C3HFN+
71.029	1	C4H4F+
72.0243	1	C3H3FN+
73.0196	10	C2H2FN2+
73.0283	3	C3H5O2+
74.0035	2	C2HFNO+
74.0151	4	C6H2+
75.0228	59	CH2FN3+
76.0307	1	C6H4+
77.026	1	C5H3N+
77.0384	10	CH4FN3+
78.0337	42	C5H4N+
79.0178	6	C5H3O+
79.0416	11	C5H5N+
79.0541	9	CH6FN3+
80.0494	11	C5H6N+
81.0334	34	C5H5O+
82.0286	3	C4H4NO+
83.0289	2	C5H4F+
84.9838	1	C4H2Cl+
86.0036	3	C3HFNO+
86.0235	5	C3H4NO2+
86.9877	12	C3FO2+
86.9996	36	C4H4Cl+
89.0386	5	C7H5+
90.0338	128	C6H4N+
91.0542	10	C7H7+
92.0256	22	C6H4O+
92.0367	2	C5H4N2+
92.0494	22	C6H6N+
93.0334	23	C6H5O+
94.0412	12	C6H6O+
95.0491	47	C6H7O+
96.0372	1	C6H5F+
96.0444	15	C5H6NO+
97.0033	2	C3HN2O2+
97.0522	8	C5H7NO+
98.0365	2	C5H6O2+
98.9995	34	ClFH3N3+
100.0188	1	C4H3FNO+
102.0338	38	C7H4N+
103.0416	4	C7H5N+
103.0541	1	C3H6FN3+
104.0141	4	C3H3FNO2+
104.0494	29	C2H5FN4+
105.0335	46	C7H5O+
105.0447	31	C6H5N2+
106.0287	39	C6H4NO+
106.0525	5	C6H6N2+
106.0648	2	C2H7FN4+
107.0291	24	C7H4F+
108.0241	1	C6H3FN+
109.0285	1	C6H5O2+
109.032	6	C6H4FN+
110.0163	1	C6H3FO+
110.9994	19	CH3ClFN3+
111.044	75	C6H7O2+
112.0075	12	C6H5Cl+
113.0397	8	C6H6FO+
114.9944	2	C5H4ClO+
115.0295	2	C7H3N2+
116.0368	13	C7H4N2+
116.0496	4	C8H6N+
116.9894	1	C5H3ClF+
117.0447	18	C7H5N2+
118.0286	7	C7H4NO+
118.0525	5	CH9FNO4+
119.0366	23	C7H5NO+
119.0602	1	C7H7N2+
120.0443	124	C7H6NO+
121.0324	11	C7H4FN+
121.0395	14	C6H5N2O+
122.04	76	C7H5FN+
122.9994	5	C2H3ClFN3+
123.0241	3	C7H4FO+
123.0352	24	C6H4FN2+
124.0391	1	CH5FN4O2+
125.0597	5	C7H9O2+
126.0105	3	C6H5ClN+
127.0184	1	C6H6ClN+
127.0293	4	C8H3N2+
128.0023	26	C6H5ClO+
128.0369	3	C8H4N2+
129.0099	121	CH5ClFN3O+
129.0446	141	C8H5N2+
130.0288	82	C8H4NO+
130.0399	212	C7H4N3+
131.0369	1	C5H8ClN2+
131.049	1	C4H6FN3O+
131.0602	7	C8H7N2+
132.0243	12	C8H3FN+
132.0443	20	C3H5FN4O+
132.0554	10	C7H6N3+
133.0322	30	C8H4FN+
133.0395	13	C7H5N2O+
133.0521	4	C3H6FN4O+
134.0234	6	C2H3FN4O2+
134.04	28	C8H5FN+
134.0472	8	C7H6N2O+
134.0599	8	C3H7FN4O+
135.024	5	C8H4FO+
135.0311	3	C2H4FN4O2+
135.0359	2	C7H4FN2+
135.0477	1	C8H6FN+
135.0551	6	C7H7N2O+
136.0391	5	C2H5FN4O2+
137.0027	8	C7H4ClN+
137.0272	2	C7H4FNO+
137.047	4	C7H7NO2+
138.0105	385	C7H5ClN+
138.9949	54	C7H4ClO+
139.0056	255	C6H4ClN2+
140.0026	1	C7H5ClO+
140.0366	3	C9H4N2+
140.9901	18	C7H3ClF+
141.0098	2	C2H5ClFN3O+
141.0449	1	C9H5N2+
142.0399	16	C8H4N3+
142.0523	1	C9H6N2+
143.006	7	C7H5ClF+
143.0478	3	C8H5N3+
144.0317	25	C8H4N2O+
144.0445	2	C9H6NO+
144.0555	12	C8H6N3+
145.0395	143	C8H5N2O+
146.0234	13	C3H3FN4O2+
146.0469	1	C8H6N2O+
147.0355	17	C8H4FN2+
147.055	12	C8H7N2O+
147.9948	7	C8H3ClN+
148.0305	2	C7H3FN3+
148.0436	2	C8H5FN2+
149.0272	3	C8H4FNO+
149.0513	7	C8H6FN2+
150.0349	317	C8H5FNO+
151.0057	27	C7H4ClN2+
151.0425	9	C8H6FNO+
152.0506	3	C8H7FNO+
153.0456	1	C7H6FN2O+
154.0398	31	C9H4N3+
154.9894	9	C7H4ClO2+
155.024	2	C9H3N2O+
156.0557	4	C9H6N3+
157.0396	16	C9H5N2O+
158.0167	3	C7H6ClFN+
158.0235	1	C3H8ClFN2O2+
158.0472	3	C9H6N2O+
159.0353	30	C9H4FN2+
159.0426	2	C8H5N3O+
159.0553	6	C9H7N2O+
160.0267	27	C8H4N2O2+
160.0432	44	C9H5FN2+
160.0504	6	C8H6N3O+
161.027	19	C9H4FNO+
161.0345	39	C8H5N2O2+
161.0705	9	C9H9N2O+
162.0348	20	C9H5FNO+
162.0424	29	C8H6N2O2+
162.0544	28	C4H7FN4O2+
163.0057	23	C8H4ClN2+
163.0303	2	C8H4FN2O+
163.0424	4	C9H6FNO+
163.0498	21	C8H7N2O2+
164.0009	5	C7H3ClN3+
164.034	87	C3H5FN4O3+
165.0218	3	C8H4FNO2+
165.0459	13	C8H6FN2O+
166.0054	10	C8H5ClNO+
166.0299	4	C8H5FNO2+
167.0377	2	C8H6FNO2+
167.0477	2	C10H5N3+
168.001	90	C8H4ClFN+
168.0318	4	C10H4N2O+
168.0453	16	C8H7FNO2+
169.0394	16	C10H5N2O+
170.0348	20	C9H4N3O+
171.019	2	C9H3N2O2+
171.0553	1	C10H7N2O+
172.0431	1	C10H5FN2+
172.0504	5	C9H6N3O+
173.0388	3	C8H10ClO2+
173.0508	3	C10H6FN2+
174.0465	11	C14H6+
174.0664	1	C2H16ClFO5+
175.0301	57	C9H4FN2O+
176.0379	12	C9H5FN2O+
177.0217	2	C9H6ClN2+
177.0457	7	C9H6FN2O+
178.0298	179	C9H5FNO2+
179.0005	31	C8H4ClN2O+
179.0609	2	C12H7N2+
182.0349	10	C10H4N3O+
182.061	19	C9H9FNO2+
183.0121	2	C8H5ClFN2+
183.9959	15	C8H4ClFNO+
185.039	6	C9H10ClO2+
186.0299	2	C9H4N3O2+
186.0459	5	C10H5FN3+
187.0302	4	C10H4FN2O+
187.0409	1	C5H11ClFNO3+
187.0534	4	C6H13ClFO3+
188.0379	999	C10H5FN2O+
189.0458	17	C10H6FN2O+
190.0308	2	C7H8ClFN2O+
190.0409	12	C9H5FN3O+
191.0249	21	C9H4FN2O2+
192.0679	3	C13H8N2+
193.041	2	C9H6FN2O2+
194.0601	1	C13H8NO+
195.0122	1	C9H5ClFN2+
195.0326	5	C9H6FNO3+
195.0567	1	C9H8FN2O2+
195.9957	2	C12HFO2+
196.0506	4	C11H6N3O+
197.0634	5	C13H8FN+
198.0296	4	C10H4N3O2+
199.0409	2	C6H11ClFNO3+
200.0465	2	C7H7FN3O3+
201.0332	4	C10H4FN3O+
202.0528	3	C14H6N2+
203.0248	6	C10H4FN2O2+
203.0494	1	C6H13ClFO4+
203.0602	2	C14H7N2+
204.0329	4	C10H5FN2O2+
204.0561	5	C6H14ClFO4+
205.0406	26	C10H6FN2O2+
205.0605	8	C10H9N2O3+
207.0562	3	C10H8FN2O2+
213.0334	5	C11H4FN3O+
213.0567	3	C7H13ClFNO3+
214.041	10	C11H5FN3O+
215.049	1	C16H7O+
215.0599	2	C15H7N2+
216.0565	8	C11H7FN3O+
217.0405	2	C11H6FN2O2+
218.036	4	C10H5FN3O2+
218.0716	1	C7H16ClFO4+
219.0553	1	C14H7N2O+
220.0277	40	C10H5FN2O3+
221.0459	5	C12H5N4O+
222.0588	1	C14H7FN2+
223.0665	8	C14H8FN2+
223.9908	7	C10H4ClFNO2+
225.0583	18	C14H8FNO+
226.0532	2	C13H7FN2O+
228.044	7	C11H5FN4O+
229.0284	13	C16H5O2+
229.0516	2	C11H6FN4O+
230.0359	64	C11H5FN3O2+
230.0709	7	C15H8N3+
232.0632	5	C15H8N2O+
239.0013	2	C13H2FNO3+
239.037	4	C14H8ClN2+
239.0563	1	C12H7N4O2+
239.9854	3	C13HFO4+
240.0439	6	C12H5FN4O+
241.0516	11	C8H13ClFNO4+
243.0667	1	C8H15ClFNO4+
248.0619	3	C15H7FN3+
249.0694	4	C15H8FN3+
250.0533	3	C15H7FN2O+
250.0772	2	C15H9FN3+
251.0613	22	C15H8FN2O+
252.0691	9	C15H9FN2O+
255.0313	5	C12H4FN4O2+
257.0467	4	C12H6FN4O2+
257.0595	1	C13H8FN3O2+
261.0671	4	C13H10FN2O3+
262.0536	3	C16H7FN2O+
263.0601	6	C19H7N2+
264.032	4	C18H4N2O+
266.0125	7	C11H6ClFN3O2+
277.0643	9	C16H8FN3O+
278.0721	16	C16H9FN3O+
279.0563	21	C16H8FN2O2+
280.0642	18	C16H9FN2O2+
298.0611	5	C18H8N3O2+
301.0719	3	C17H9N4O2+
304.0514	7	C17H7FN3O2+
306.0671	124	C17H9FN3O2+
313.0717	2	C18H9N4O2+
315.0329	5	C16H9ClFN2O2+
318.0672	13	C18H9FN3O2+
320.0229	2	C17H5FN2O4+
331.0622	16	C18H8FN4O2+
339.0445	2	C17H9ClFN4O+
340.0283	10	C17H8ClFN3O2+
342.0441	3	C17H10ClFN3O2+
367.0394	2	C18H9ClFN4O2+
