Mass spectrum: MK-547; LC-ESI-QFT; MS2; CE: 75; R=17500; [M+H]+
Name: MK-547
Name: J-104132
Name: (5S,6R,7R)-5-(1,3-benzodioxol-5-yl)-2-butyl-7-[2-[(2S)-2-carboxypropyl]-4-methoxyphenyl]-6,7-dihydro-5H-cyclopenta[b]pyridine-6-carboxylic acid
Formula: C31H33NO7
Exact mass: 531.2257
SMILES: CCCCc1ccc2c(n1)[C@@H](c1ccc(OC)cc1C[C@H](C)C(O)=O)[C@H](C(O)=O)[C@H]2c1ccc2c(c1)OCO2
InChI: InChI=1S/C31H33NO7/c1-4-5-6-20-8-10-23-26(18-7-12-24-25(15-18)39-16-38-24)28(31(35)36)27(29(23)32-20)22-11-9-21(37-3)14-19(22)13-17(2)30(33)34/h7-12,14-15,17,26-28H,4-6,13,16H2,1-3H3,(H,33,34)(H,35,36)/t17-,26-,27-,28+/m0/s1
Instrument: Q Exactive Orbitrap (Thermo Scientific)
Instrument type: LC-ESI-QFT
Ms type: MS2
Ion mode: POSITIVE
Ionization: ESI
Fragmentation mode: HCD
Collision energy: 75
Resolution: 17500
Column name: Acquity BEH C18 1.7um, 2.1x150mm (Waters)
Retention time: 18.582 min
Base peak: 79.0212
Precursor m/z: 532.233
Precursor type: [M+H]+
Precursor intensity: 18338119.5
m/z	relative intensity	assigned
53.0021	7	C3HO+
53.0386	6	C4H5+
57.0699	7	C4H9+
63.0228	2	C5H3+
65.0385	40	C5H5+
67.0541	2	C5H7+
68.997	6	C3HO2+
69.0334	4	C4H5O+
77.0385	4	C6H5+
78.0464	6	C6H6+
79.0541	11	C6H7+
80.0495	6	C5H6N+
81.0334	2	C5H5O+
89.0386	4	C7H5+
91.0542	97	C7H7+
93.0575	2	C6H7N+
93.0699	5	C7H9+
94.0414	2	C6H6O+
94.0652	1	C6H8N+
95.0127	5	C5H3O2+
95.0491	17	C6H7O+
102.0463	8	C8H6+
103.0542	67	C8H7+
104.0494	23	C7H6N+
104.0619	3	C8H8+
105.0335	4	C7H5O+
105.0572	3	C7H7N+
105.0697	4	C8H9+
106.065	6	C7H8N+
107.0491	7	C7H7O+
109.0285	5	C6H5O2+
109.0648	6	C7H9O+
111.0439	7	C6H7O2+
115.0542	20	C9H7+
116.0494	7	C8H6N+
116.062	14	C9H8+
117.0572	26	C8H7N+
117.0699	15	C9H9+
118.065	33	C8H8N+
119.0491	4	C8H7O+
119.0731	2	C8H9N+
119.0857	9	C9H11+
121.0283	52	C7H5O2+
121.0648	86	C8H9O+
122.0362	53	C7H6O2+
123.0439	2	C7H7O2+
125.0236	2	C6H5O3+
126.0459	1	C10H6+
127.0542	2	C10H7+
128.0494	12	C9H6N+
128.062	29	C10H8+
129.0572	245	C9H7N+
130.0651	419	C9H8N+
131.0493	5	C9H7O+
131.0729	30	C9H9N+
131.0852	1	C10H11+
132.0445	4	C8H6NO+
132.057	7	C9H8O+
133.0522	10	C8H7NO+
133.0648	5	C9H9O+
134.06	18	C8H8NO+
134.0725	6	C9H10O+
135.044	87	C8H7O2+
136.0755	1	C8H10NO+
137.0597	2	C8H9O2+
139.039	10	C7H7O3+
139.0544	5	C11H7+
140.049	1	C10H6N+
141.0572	2	C10H7N+
141.07	6	C11H9+
142.065	15	C10H8N+
143.0729	56	C10H9N+
143.0854	3	C11H11+
144.0569	111	C10H8O+
144.0808	23	C10H10N+
145.0524	7	C9H7NO+
145.0647	15	C10H9O+
145.0886	4	C10H11N+
146.06	140	C9H8NO+
147.0438	19	C9H7O2+
147.0678	5	C9H9NO+
147.0804	20	C10H11O+
148.0756	5	C9H10NO+
149.0233	162	C8H5O3+
149.096	27	C10H13O+
151.0542	1	C12H7+
152.062	68	C12H8+
153.0577	2	C11H7N+
153.0698	36	C12H9+
154.0651	29	C11H8N+
154.0775	2	C12H10+
155.0729	55	C11H9N+
156.0808	142	C11H10N+
157.0521	6	C10H7NO+
157.0885	54	C11H11N+
159.068	6	C10H9NO+
159.0804	91	C11H11O+
160.0757	2	C10H10NO+
160.1119	5	C11H14N+
161.047	3	C9H7NO2+
161.0596	3	C10H9O2+
161.0835	19	C10H11NO+
162.0675	28	C10H10O2+
163.0537	1	C13H7+
165.0698	108	C13H9+
166.0651	17	C12H8N+
166.0773	12	C13H10+
167.073	57	C12H9N+
167.0853	41	C13H11+
168.057	4	C12H8O+
168.0807	46	C12H10N+
169.0648	17	C12H9O+
169.0885	10	C12H11N+
170.0602	6	C11H8NO+
170.0963	37	C12H12N+
171.0679	2	C11H9NO+
171.1041	11	C12H13N+
172.112	43	C12H14N+
173.1201	8	C12H15N+
174.055	69	C10H8NO2+
175.0753	4	C11H11O2+
176.062	5	C14H8+
177.0573	13	C13H7N+
177.0702	11	C14H9+
177.0909	56	C11H13O2+
178.0651	60	C13H8N+
178.0772	9	C14H10+
179.0729	60	C13H9N+
180.0807	216	C13H10N+
181.0647	21	C13H9O+
181.0885	84	C13H11N+
182.0597	8	C12H8NO+
182.0964	27	C13H12N+
183.0681	5	C12H9NO+
183.0801	2	C13H11O+
184.0759	3	C12H10NO+
185.0471	1	C11H7NO2+
187.0626	10	C11H9NO2+
188.1071	5	C12H14NO+
190.0649	17	C14H8N+
191.0729	98	C14H9N+
192.0807	246	C14H10N+
193.0886	594	C14H11N+
194.0964	675	C14H12N+
195.0678	26	C13H9NO+
195.0803	8	C14H11O+
195.1041	25	C14H13N+
196.0756	41	C13H10NO+
197.0833	11	C13H11NO+
198.0552	3	C12H8NO2+
198.0906	7	C13H12NO+
199.0628	4	C12H9NO2+
202.0778	1	C16H10+
203.0729	2	C15H9N+
203.0851	2	C16H11+
204.0807	35	C15H10N+
205.0524	3	C14H7NO+
205.0646	2	C15H9O+
205.0884	27	C15H11N+
206.06	41	C14H8NO+
206.0964	120	C15H12N+
207.0678	46	C14H9NO+
207.1042	50	C15H13N+
208.0756	102	C14H10NO+
208.1118	17	C15H14N+
209.0595	8	C14H9O2+
209.0834	66	C14H11NO+
209.0949	3	C15H13O+
210.0547	3	C13H8NO2+
210.0912	47	C14H12NO+
211.0633	3	C13H9NO2+
211.0743	1	C14H11O2+
211.0994	2	C14H13NO+
212.0712	2	C13H10NO2+
217.0886	7	C16H11N+
218.0601	4	C15H8NO+
218.0963	21	C16H12N+
219.0678	49	C15H9NO+
219.1045	14	C16H13N+
219.1157	3	C17H15+
220.0756	303	C15H10NO+
220.1117	32	C16H14N+
221.0834	174	C15H11NO+
221.1195	16	C16H15N+
222.0912	292	C15H12NO+
223.0629	8	C14H9NO2+
223.0754	5	C15H11O2+
223.0991	91	C15H13NO+
223.1352	12	C16H17N+
224.0704	24	C14H10NO2+
224.1071	5	C15H14NO+
224.1431	20	C16H18N+
225.0781	11	C14H11NO2+
226.0864	2	C14H12NO2+
230.096	3	C17H12N+
231.104	4	C17H13N+
232.0757	8	C16H10NO+
232.1122	7	C17H14N+
233.0833	23	C16H11NO+
233.1199	4	C17H15N+
234.055	9	C15H8NO2+
234.0912	51	C16H12NO+
234.1275	48	C17H16N+
235.0634	10	C15H9NO2+
235.0757	2	C16H11O2+
235.0991	37	C16H13NO+
235.1358	5	C17H17N+
236.0705	45	C15H10NO2+
236.107	23	C16H14NO+
236.1432	139	C17H18N+
237.0783	108	C15H11NO2+
238.0861	41	C15H12NO2+
238.1227	3	C16H16NO+
238.1587	3	C17H20N+
239.0938	7	C15H13NO2+
244.1123	3	C18H14N+
246.0911	11	C17H12NO+
246.128	5	C18H16N+
247.0626	16	C16H9NO2+
247.099	14	C17H13NO+
247.1359	4	C18H17N+
248.0706	59	C16H10NO2+
248.1067	34	C17H14NO+
248.1432	3	C18H18N+
249.0784	70	C16H11NO2+
249.1146	11	C17H15NO+
250.0861	999	C16H12NO2+
251.0939	432	C16H13NO2+
252.0655	14	C15H10NO3+
252.1022	14	C16H14NO2+
252.1382	13	C17H18NO+
253.0731	88	C15H11NO3+
254.0815	1	C15H12NO3+
255.1046	1	C19H13N+
256.1121	2	C19H14N+
259.0985	1	C18H13NO+
260.1071	9	C18H14NO+
260.1432	4	C19H18N+
261.0779	6	C17H11NO2+
261.1144	7	C18H15NO+
261.1506	2	C19H19N+
262.0863	19	C17H12NO2+
262.1225	39	C18H16NO+
263.0578	16	C16H9NO3+
263.0938	83	C17H13NO2+
263.1296	4	C18H17NO+
264.0665	10	C16H10NO3+
264.1019	70	C17H14NO2+
264.1379	48	C18H18NO+
265.0735	3	C16H11NO3+
265.1099	5	C17H15NO2+
265.146	5	C18H19NO+
266.0809	33	C16H12NO3+
266.0974	1	C20H12N+
266.1539	12	C18H20NO+
267.0889	13	C16H13NO3+
267.1047	2	C20H13N+
267.1253	2	C17H17NO2+
268.112	3	C20H14N+
269.12	1	C20H15N+
270.0915	1	C19H12NO+
270.1273	1	C20H16N+
274.086	5	C18H12NO2+
274.1225	4	C19H16NO+
275.0939	5	C18H13NO2+
275.1313	2	C19H17NO+
276.0655	88	C17H10NO3+
276.1015	50	C18H14NO2+
276.1376	14	C19H18NO+
277.0731	94	C17H11NO3+
277.1089	20	C18H15NO2+
278.0809	7	C17H12NO3+
278.0979	1	C21H12N+
278.1174	10	C18H16NO2+
278.1535	2	C19H20NO+
280.0966	6	C17H14NO3+
280.1134	2	C21H14N+
280.1325	10	C18H18NO2+
281.0681	11	C16H11NO4+
283.0995	2	C20H13NO+
284.1062	4	C20H14NO+
290.0806	9	C18H12NO3+
290.1173	8	C19H16NO2+
290.1536	10	C20H20NO+
291.1251	3	C19H17NO2+
292.1329	26	C19H18NO2+
293.1406	21	C19H19NO2+
294.1486	68	C19H20NO2+
295.0996	2	C21H13NO+
296.107	5	C21H14NO+
297.1149	6	C21H15NO+
298.122	6	C21H16NO+
299.1301	12	C21H17NO+
304.1683	7	C21H22NO+
308.1071	2	C22H14NO+
308.1276	3	C19H18NO3+
310.1228	4	C22H16NO+
311.0941	3	C21H13NO2+
311.1312	3	C22H17NO+
312.1017	6	C21H14NO2+
312.1386	3	C22H18NO+
313.1098	2	C21H15NO2+
314.119	1	C21H16NO2+
320.1276	6	C20H18NO3+
324.1018	4	C22H14NO2+
325.1094	13	C22H15NO2+
326.117	13	C22H16NO2+
327.1249	17	C22H17NO2+
337.111	3	C23H15NO2+
338.1171	7	C23H16NO2+
339.1247	4	C23H17NO2+
340.0965	5	C22H14NO3+
340.1324	9	C23H18NO2+
340.17	3	C24H22NO+
341.1042	2	C22H15NO3+
350.1166	3	C24H16NO2+
352.1328	3	C24H18NO2+
353.1045	3	C23H15NO3+
354.1124	14	C23H16NO3+
355.1207	4	C23H17NO3+
356.1278	5	C23H18NO3+
364.1332	2	C25H18NO2+
365.1427	2	C25H19NO2+
368.1283	24	C24H18NO3+
368.1637	10	C25H22NO2+
369.136	6	C24H19NO3+
369.171	3	C25H23NO2+
370.1438	14	C24H20NO3+
370.1807	7	C25H24NO2+
380.1636	2	C26H22NO2+
382.1479	2	C25H20NO3+
382.1806	5	C26H24NO2+
384.1608	3	C25H22NO3+
396.1595	10	C26H22NO3+
398.1754	10	C26H24NO3+
410.1401	1	C26H20NO4+
410.1746	2	C27H24NO3+
412.1912	4	C27H26NO3+
424.1905	2	C28H26NO3+
