Mass spectrum: Sulfisoxazole; LC-ESI-QFT; MS2; CE: 45; R=17500; [M-H]-
Name: Sulfisoxazole
Name: 4-amino-N-(3,4-dimethyl-1,2-oxazol-5-yl)benzenesulfonamide
Formula: C11H13N3O3S
Exact mass: 267.0678
SMILES: CC1=NOC(NS(=O)(=O)C2=CC=C(N)C=C2)=C1C
InChI: InChI=1S/C11H13N3O3S/c1-7-8(2)13-17-11(7)14-18(15,16)10-5-3-9(12)4-6-10/h3-6,14H,12H2,1-2H3
Instrument: Q Exactive Orbitrap (Thermo Scientific)
Instrument type: LC-ESI-QFT
Ms type: MS2
Ion mode: NEGATIVE
Ionization: ESI
Fragmentation mode: HCD
Collision energy: 45
Resolution: 17500
Column name: Acquity BEH C18 1.7um, 2.1x150mm (Waters)
Retention time: 12.443 min
Base peak: 266.0605
Precursor m/z: 266.0605
Precursor type: [M-H]-
Precursor intensity: 1528301.116211
m/z	relative intensity	assigned
63.9624	120	O2S-
66.0349	15	C4H4N-
77.9655	25	NO2S-
78.9733	18	HNO2S-
79.9811	27	H2NO2S-
82.03	7	C4H4NO-
84.0454	6	C4H6NO-
91.0426	6	C6H5N-
92.0506	57	C6H6N-
93.9601	6	NO3S-
95.0251	12	C4H3N2O-
107.0376	55	C6H5NO-
108.0455	100	C6H6NO-
109.0406	17	C5H5N2O-
119.0613	9	C7H7N2-
133.0409	8	C7H5N2O-
144.0694	6	C9H8N2-
155.0046	29	C6H5NO2S-
156.0125	386	C6H6NO2S-
157.077	16	C10H9N2-
171.0234	999	C6H7N2O2S-
172.0073	12	C6H6NO3S-
221.0391	31	C10H9N2O2S-
239.0496	428	C10H11N2O3S-
266.0605	22	C11H12N3O3S-
