Mass spectrum: 1,1,2-Trimethyl-1H-benzo[e]indole; LC-ESI-QFT; MS2; CE: 75; R=17500; [M+H]+
Name: 1,1,2-Trimethyl-1H-benzo[e]indole
Name: 1,1,2-trimethylbenzo[e]indole
Formula: C15H15N
Exact mass: 209.1204
SMILES: CC1=NC2=C(C3=C(C=CC=C3)C=C2)C1(C)C
InChI: InChI=1S/C15H15N/c1-10-15(2,3)14-12-7-5-4-6-11(12)8-9-13(14)16-10/h4-9H,1-3H3
Instrument: Q Exactive Orbitrap (Thermo Scientific)
Instrument type: LC-ESI-QFT
Ms type: MS2
Ion mode: POSITIVE
Ionization: ESI
Fragmentation mode: HCD
Collision energy: 75
Resolution: 17500
Column name: Acquity BEH C18 1.7um, 2.1x150mm (Waters)
Retention time: 17.412 min
Base peak: 79.0211
Precursor m/z: 210.1277
Precursor type: [M+H]+
Precursor intensity: 3239349.375
m/z	relative intensity	assigned
153.07	5	C12H9+
167.0732	1	C12H9N+
178.0779	9	C14H10+
179.0726	1	C13H9N+
180.0808	478	C13H10N+
193.089	1	C14H11N+
193.1013	1	C15H13+
194.0966	999	C14H12N+
195.1043	967	C14H13N+
210.1279	15	C15H16N+
