Mass spectrum: Fabesetron; LC-ESI-QFT; MS2; CE: 60; R=17500; [M+H]+
Name: Fabesetron
Name: (7R)-10-methyl-7-[(5-methyl-1H-imidazol-4-yl)methyl]-8,9-dihydro-7H-pyrido[1,2-a]indol-6-one
Formula: C18H19N3O
Exact mass: 293.1528
SMILES: Cc1[nH]cnc1C[C@H]1CCc2c(C)c3ccccc3n2C1=O
InChI: InChI=1S/C18H19N3O/c1-11-14-5-3-4-6-17(14)21-16(11)8-7-13(18(21)22)9-15-12(2)19-10-20-15/h3-6,10,13H,7-9H2,1-2H3,(H,19,20)/t13-/m1/s1
Instrument: Q Exactive Orbitrap (Thermo Scientific)
Instrument type: LC-ESI-QFT
Ms type: MS2
Ion mode: POSITIVE
Ionization: ESI
Fragmentation mode: HCD
Collision energy: 60
Resolution: 17500
Column name: Acquity BEH C18 1.7um, 2.1x150mm (Waters)
Retention time: 15.393 min
Base peak: 79.0212
Precursor m/z: 294.1601
Precursor type: [M+H]+
Precursor intensity: 29946002.25
m/z	relative intensity	assigned
54.0338	12	C3H4N+
67.0542	4	C5H7+
68.0494	7	C4H6N+
80.0494	50	C5H6N+
81.0446	2	C4H5N2+
82.0651	1	C5H8N+
83.0602	2	C4H7N2+
91.0542	1	C7H7+
93.0573	2	C6H7N+
94.0651	56	C6H8N+
95.0603	659	C5H7N2+
96.0681	98	C5H8N2+
97.0759	3	C5H9N2+
104.0494	4	C7H6N+
106.065	1	C7H8N+
107.0602	3	C6H7N2+
108.0807	12	C7H10N+
109.076	6	C6H9N2+
117.0572	1	C8H7N+
117.0698	4	C9H9+
118.065	6	C8H8N+
119.0602	3	C7H7N2+
120.0681	5	C7H8N2+
121.0759	234	C7H9N2+
122.0837	12	C7H10N2+
123.0916	11	C7H11N2+
127.0866	2	C6H11N2O+
129.07	1	C10H9+
130.0649	3	C9H8N+
131.073	3	C9H9N+
132.0809	1	C9H10N+
133.0759	1	C8H9N2+
135.0916	49	C8H11N2+
137.0709	32	C7H9N2O+
143.0729	14	C10H9N+
144.0807	371	C10H10N+
145.0883	1	C10H11N+
146.0963	10	C10H12N+
149.0708	999	C8H9N2O+
151.0866	1	C8H11N2O+
156.0808	1	C11H10N+
157.0878	1	C11H11N+
158.0963	130	C11H12N+
163.0867	1	C9H11N2O+
167.0728	2	C12H9N+
169.0885	1	C12H11N+
170.0962	13	C12H12N+
172.112	2	C12H14N+
180.0806	7	C13H10N+
181.0885	18	C13H11N+
182.0964	16	C13H12N+
184.1119	5	C13H14N+
194.0968	1	C14H12N+
197.0836	1	C13H11NO+
198.0912	2	C13H12NO+
199.099	1	C13H13NO+
200.1069	14	C13H14NO+
212.1066	4	C14H14NO+
250.1227	1	C17H16NO+
261.1262	7	C17H15N3+
266.1647	3	C17H20N3+
276.1493	8	C18H18N3+
294.1599	58	C18H20N3O+
