Mass spectrum: PharmaGSID_48521; LC-ESI-QFT; MS2; CE: 30; R=17500; [M+H]+
Name: PharmaGSID_48521
Name: (5S)-5-butyl-9-[1-(4,6-dimethylpyrimidine-5-carbonyl)-4-methylpiperidin-4-yl]-3-(oxan-4-ylmethyl)-1-oxa-3,9-diazaspiro[5.5]undecan-2-one
Formula: C31H49N5O4
Exact mass: 555.3785
SMILES: CCCC[C@H]1CN(CC2CCOCC2)C(=O)OC11CCN(CC1)C1(C)CCN(CC1)C(=O)C1=C(C)N=CN=C1C
InChI: InChI=1S/C31H49N5O4/c1-5-6-7-26-21-35(20-25-8-18-39-19-9-25)29(38)40-31(26)12-16-36(17-13-31)30(4)10-14-34(15-11-30)28(37)27-23(2)32-22-33-24(27)3/h22,25-26H,5-21H2,1-4H3/t26-/m0/s1
Instrument: Q Exactive Orbitrap (Thermo Scientific)
Instrument type: LC-ESI-QFT
Ms type: MS2
Ion mode: POSITIVE
Ionization: ESI
Fragmentation mode: HCD
Collision energy: 30
Resolution: 17500
Column name: Acquity BEH C18 1.7um, 2.1x150mm (Waters)
Retention time: 13.096 min
Base peak: 79.0211
Precursor m/z: 556.3857
Precursor type: [M+H]+
Precursor intensity: 9278541.84375
m/z	relative intensity	assigned
55.0542	1	C4H7+
66.0338	1	C4H4N+
67.0541	4	C5H7+
69.0698	8	C5H9+
70.065	3	C4H8N+
79.0542	2	C6H7+
81.0698	30	C6H9+
82.0649	3	C5H8N+
83.0855	3	C6H11+
84.0808	155	C5H10N+
93.0698	1	C7H9+
95.0855	7	C7H11+
96.0808	5	C6H10N+
97.0648	54	C6H9O+
98.0964	9	C6H12N+
99.0804	8	C6H11O+
110.0964	23	C7H12N+
112.112	5	C7H14N+
116.1069	7	C6H14NO+
124.1121	20	C8H14N+
125.1325	5	C9H17+
128.1069	703	C7H14NO+
135.0552	121	C7H7N2O+
137.0708	2	C7H9N2O+
137.1325	40	C10H17+
142.1225	7	C8H16NO+
152.0818	7	C7H10N3O+
152.1434	9	C10H18N+
154.1589	999	C10H20N+
164.0819	3	C8H10N3O+
164.1433	3	C11H18N+
166.159	312	C11H20N+
168.1748	2	C11H22N+
178.159	2	C12H20N+
180.1745	1	C12H22N+
208.2062	3	C14H26N+
220.2062	4	C15H26N+
232.1443	269	C13H18N3O+
238.2164	61	C15H28NO+
250.2166	2	C16H28NO+
252.232	44	C16H30NO+
261.1708	108	C14H21N4O+
264.2323	5	C17H30NO+
281.2586	143	C17H33N2O+
296.2216	7	C17H30NO3+
325.2485	141	C18H33N2O3+
337.2484	88	C17H31N5O2+
379.2955	42	C22H39N2O3+
385.296	46	C23H37N4O+
397.2953	3	C24H37N4O+
512.3958	7	C30H50N5O2+
556.386	43	C31H50N5O4+
