Mass spectrum: Bithionol; LC-ESI-QFT; MS2; CE: 60; R=17500; [M-H]-
Name: Bithionol
Name: 2,4-dichloro-6-(3,5-dichloro-2-hydroxyphenyl)sulfanylphenol
Formula: C12H6Cl4O2S
Exact mass: 353.8843
SMILES: OC1=C(Cl)C=C(Cl)C=C1SC1=C(O)C(Cl)=CC(Cl)=C1
InChI: InChI=1S/C12H6Cl4O2S/c13-5-1-7(15)11(17)9(3-5)19-10-4-6(14)2-8(16)12(10)18/h1-4,17-18H
Instrument: Q Exactive Orbitrap (Thermo Scientific)
Instrument type: LC-ESI-QFT
Ms type: MS2
Ion mode: NEGATIVE
Ionization: ESI
Fragmentation mode: HCD
Collision energy: 60
Resolution: 17500
Column name: Acquity BEH C18 1.7um, 2.1x150mm (Waters)
Retention time: 20.232 min
Base peak: 354.874
Precursor m/z: 352.877
Precursor type: [M-H]-
Precursor intensity: 936695.8120117
m/z	relative intensity	assigned
89.0034	15	C6HO-
119.9674	28	C6OS-
124.98	168	C6H2ClO-
155.9443	15	C6HClOS-
160.9567	999	C6H3Cl2O-
191.921	788	C6H2Cl2OS-
194.9179	27	C6H2Cl3O-
