Mass spectrum: Todralazine; LC-ESI-QFT; MS2; CE: 45; R=17500; [M+H]+
Name: Todralazine
Name: ethyl N-(phthalazin-1-ylamino)carbamate
Formula: C11H12N4O2
Exact mass: 232.0960
SMILES: CCOC(=O)NNC1=NN=CC2=CC=CC=C12
InChI: InChI=1S/C11H12N4O2/c1-2-17-11(16)15-14-10-9-6-4-3-5-8(9)7-12-13-10/h3-7H,2H2,1H3,(H,13,14)(H,15,16)
Instrument: Q Exactive Orbitrap (Thermo Scientific)
Instrument type: LC-ESI-QFT
Ms type: MS2
Ion mode: POSITIVE
Ionization: ESI
Fragmentation mode: HCD
Collision energy: 45
Resolution: 17500
Column name: Acquity BEH C18 1.7um, 2.1x150mm (Waters)
Retention time: 9.110 min
Base peak: 79.0212
Precursor m/z: 233.1033
Precursor type: [M+H]+
Precursor intensity: 14906427
m/z	relative intensity	assigned
62.0237	1	CH4NO2+
89.0386	228	C7H5+
103.0418	1	C7H5N+
104.0494	14	C7H6N+
116.0495	53	C8H6N+
117.0572	3	C8H7N+
130.0525	4	C8H6N2+
131.0604	95	C8H7N2+
132.0682	148	C8H8N2+
134.06	32	C8H8NO+
144.0557	9	C8H6N3+
145.0634	146	C8H7N3+
146.0712	1	C8H8N3+
147.0551	1	C8H7N2O+
158.0476	5	C9H6N2O+
159.0666	248	C8H7N4+
160.0745	19	C8H8N4+
160.0994	9	C10H12N2+
161.0821	999	C8H9N4+
173.0224	1	C8H3N3O2+
173.0947	6	C10H11N3+
187.0614	481	C9H7N4O+
189.1134	4	C10H13N4+
205.072	216	C9H9N4O2+
233.1033	83	C11H13N4O2+
