Mass spectrum: Famoxadone; LC-ESI-QFT; MS2; CE: 15; R=17500; [M-H]-
Name: Famoxadone
Name: 3-anilino-5-methyl-5-(4-phenoxyphenyl)-1,3-oxazolidine-2,4-dione
Formula: C22H18N2O4
Exact mass: 374.1267
SMILES: CC1(OC(=O)N(NC2=CC=CC=C2)C1=O)C1=CC=C(OC2=CC=CC=C2)C=C1
InChI: InChI=1S/C22H18N2O4/c1-22(16-12-14-19(15-13-16)27-18-10-6-3-7-11-18)20(25)24(21(26)28-22)23-17-8-4-2-5-9-17/h2-15,23H,1H3
Instrument: Q Exactive Orbitrap (Thermo Scientific)
Instrument type: LC-ESI-QFT
Ms type: MS2
Ion mode: NEGATIVE
Ionization: ESI
Fragmentation mode: HCD
Collision energy: 15
Resolution: 17500
Column name: Acquity BEH C18 1.7um, 2.1x150mm (Waters)
Retention time: 18.575 min
Base peak: 112.9857
Precursor m/z: 373.1194
Precursor type: [M-H]-
Precursor intensity: 1127833.152832
m/z	relative intensity	assigned
133.0408	27	C7H5N2O-
282.0773	213	C16H12NO4-
329.1297	149	C21H17N2O2-
373.1195	999	C22H17N2O4-
