Mass spectrum: Pyraflufen-ethyl; LC-ESI-QFT; MS2; CE: 30; R=17500; [M+H]+
Name: Pyraflufen-ethyl
Name: ethyl 2-[2-chloro-5-[4-chloro-5-(difluoromethoxy)-1-methylpyrazol-3-yl]-4-fluorophenoxy]acetate
Formula: C15H13Cl2F3N2O4
Exact mass: 412.0204
SMILES: CCOC(=O)COC1=C(Cl)C=C(F)C(=C1)C1=NN(C)C(OC(F)F)=C1Cl
InChI: InChI=1S/C15H13Cl2F3N2O4/c1-3-24-11(23)6-25-10-4-7(9(18)5-8(10)16)13-12(17)14(22(2)21-13)26-15(19)20/h4-5,15H,3,6H2,1-2H3
Instrument: Q Exactive Orbitrap (Thermo Scientific)
Instrument type: LC-ESI-QFT
Ms type: MS2
Ion mode: POSITIVE
Ionization: ESI
Fragmentation mode: HCD
Collision energy: 30
Resolution: 17500
Column name: Acquity BEH C18 1.7um, 2.1x150mm (Waters)
Retention time: 18.455 min
Base peak: 79.0211
Precursor m/z: 413.0277
Precursor type: [M+H]+
Precursor intensity: 5800607.21875
m/z	relative intensity	assigned
62.9631	1	CClO+
212.082	1	C14H12O2+
223.9907	1	C10H4ClFNO2+
225.0227	4	C10H7ClFN2O+
226.0305	1	C10H8ClFN2O+
253.0175	89	C11H7ClFN2O2+
254.0253	2	C11H8ClFN2O2+
268.9878	4	C11H7Cl2N2O2+
275.0193	1	C11H7ClF3N2O+
281.0484	1	C13H11ClFN2O2+
288.9943	147	C11H8Cl2FN2O2+
303.0144	107	C12H7ClF3N2O2+
304.0222	173	C12H8ClF3N2O2+
310.9961	59	C11H8Cl2F3N2O+
316.9898	7	C9H9Cl2F2N2O4+
317.0248	5	C13H12Cl2FN2O2+
325.9833	16	C11H7Cl2F3N2O2+
334.9998	53	C12H10Cl2FN2O4+
338.9911	999	C12H8Cl2F3N2O2+
354.0146	3	C13H11Cl2F3N2O2+
357.0017	28	C12H10Cl2F3N2O3+
363.0314	16	C14H14Cl2FN2O4+
366.986	13	C13H8Cl2F3N2O3+
367.0221	9	C14H12Cl2F3N2O2+
371.0181	1	C13H12Cl2F3N2O3+
384.9967	153	C13H10Cl2F3N2O4+
413.028	62	C15H14Cl2F3N2O4+
