Mass spectrum: Flusilazole; LC-ESI-QFT; MS2; CE: 90; R=17500; [M+H]+
Name: Flusilazole
Name: bis(4-fluorophenyl)-methyl-(1,2,4-triazol-1-ylmethyl)silane
Formula: C16H15F2N3Si
Exact mass: 315.1003
SMILES: C[Si](CN1C=NC=N1)(C1=CC=C(F)C=C1)C1=CC=C(F)C=C1
InChI: InChI=1S/C16H15F2N3Si/c1-22(12-21-11-19-10-20-21,15-6-2-13(17)3-7-15)16-8-4-14(18)5-9-16/h2-11H,12H2,1H3
Instrument: Q Exactive Orbitrap (Thermo Scientific)
Instrument type: LC-ESI-QFT
Ms type: MS2
Ion mode: POSITIVE
Ionization: ESI
Fragmentation mode: HCD
Collision energy: 90
Resolution: 17500
Column name: Acquity BEH C18 1.7um, 2.1x150mm (Waters)
Retention time: 18.340 min
Base peak: 79.0211
Precursor m/z: 316.1076
Precursor type: [M+H]+
Precursor intensity: 38743794.5625
m/z	relative intensity	assigned
51.0231	2	C4H3+
53.0386	91	C4H5+
55.0543	6	C4H7+
63.0064	2	CH4FSi+
65.0386	129	C5H5+
67.0542	1	C5H7+
70.04	1	C2H4N3+
77.0385	50	C6H5+
79.0542	118	C6H7+
81.0003	30	C4FN+
89.0386	31	C7H5+
90.0465	4	C7H6+
91.0543	367	C7H7+
94.0414	10	C4H4N3+
95.0159	89	C5H2FN+
95.0492	257	C4H5N3+
97.045	2	C6H6F+
102.0465	10	C8H6+
103.0543	81	C8H7+
105.0448	102	C6H5N2+
105.0699	73	C8H9+
109.0317	21	C6H4FN+
109.0448	371	C7H6F+
111.0109	7	C8HN+
115.0543	139	C9H7+
119.0493	3	C6H5N3+
121.0229	3	C5H5N2Si+
121.0449	1	C8H6F+
123.0605	14	C8H8F+
128.0621	20	C10H8+
129.0445	4	C8H5N2+
129.0699	9	C10H9+
131.0603	1	C8H7N2+
139.0543	78	C11H7+
140.0621	7	C11H8+
141.0697	8	C6H8FN3+
145.0649	13	C8H7N3+
146.0527	11	C10H7F+
150.0464	24	C12H6+
152.0621	262	C12H8+
153.0699	27	C12H9+
154.0779	1	C12H10+
155.0123	5	C7H5F2Si+
155.0604	18	C10H7N2+
155.0859	2	C12H11+
157.0318	2	C10H4FN+
159.0605	24	C11H8F+
163.0543	66	C13H7+
164.0621	75	C13H8+
165.0699	999	C13H9+
166.0776	1	C13H10+
167.0323	15	C11H7Si+
168.057	81	C10H6N3+
169.0648	71	C10H7N3+
170.0526	78	C12H7F+
171.0437	1	C8H9F2Si+
171.0809	1	C10H9N3+
173.0428	4	C8H7N3Si+
173.0762	3	C12H10F+
175.0222	30	C10H3F2N+
177.0701	6	C14H9+
178.0777	57	C14H10+
179.0604	17	C12H7N2+
181.0763	1	C12H9N2+
183.0605	224	C13H8F+
184.0683	23	C13H9F+
185.0428	24	C9H7N3Si+
185.0761	22	C13H10F+
187.0586	27	C9H9N3Si+
189.0381	1	C11H5F2N+
191.0324	4	C13H7Si+
196.052	27	C10H10F2Si+
197.0765	2	C14H10F+
199.038	5	C12H8FSi+
199.0584	2	C10H9N3Si+
201.0743	3	C10H11N3Si+
203.0339	6	C14H7Si+
203.0535	1	C12H7F2N+
217.0479	8	C15H9Si+
229.0484	1	C16H9Si+
231.0435	1	C13H9F2Si+
235.0386	10	C15H8FSi+
235.0587	8	C13H9N3Si+
237.054	4	C15H10FSi+
249.0739	2	C14H11N3Si+
253.0492	20	C13H8FN3Si+
267.0651	5	C14H10FN3Si+
