Mass spectrum: Aziprotryne; LC-ESI-QFT; MS2; CE: 45; R=17500; [M+H]+
Name: Aziprotryne
Name: 4-azido-6-methylsulfanyl-N-propan-2-yl-1,3,5-triazin-2-amine
Formula: C7H11N7S
Exact mass: 225.0797
SMILES: CSC1=NC(NC(C)C)=NC(N=[N+]=[N-])=N1
InChI: InChI=1S/C7H11N7S/c1-4(2)9-5-10-6(13-14-8)12-7(11-5)15-3/h4H,1-3H3,(H,9,10,11,12)
Instrument: Q Exactive Orbitrap (Thermo Scientific)
Instrument type: LC-ESI-QFT
Ms type: MS2
Ion mode: POSITIVE
Ionization: ESI
Fragmentation mode: HCD
Collision energy: 45
Resolution: 17500
Column name: Acquity BEH C18 1.7um, 2.1x150mm (Waters)
Retention time: 17.808 min
Base peak: 79.0212
Precursor m/z: 226.0869
Precursor type: [M+H]+
Precursor intensity: 9806046.3125
m/z	relative intensity	assigned
55.0291	30	C2H3N2+
56.0495	69	C3H6N+
57.0448	2	C2H5N2+
58.0651	585	C3H8N+
61.0106	7	C2H5S+
62.0059	54	CH4NS+
67.0291	2	C3H3N2+
68.0243	808	C2H2N3+
69.0447	10	C3H5N2+
71.0604	5	C3H7N2+
74.0059	128	C2H4NS+
81.0448	5	C4H5N2+
82.04	2	C3H4N3+
83.0353	44	C2H3N4+
83.0604	421	C4H7N2+
84.0555	2	C3H6N3+
85.0509	3	C2H5N4+
85.076	12	C4H9N2+
89.0168	779	C2H5N2S+
91.0325	14	C2H7N2S+
91.0539	2	C7H7+
93.0196	12	C3HN4+
94.04	4	C4H4N3+
96.0557	6	C4H6N3+
98.0712	2	C4H8N3+
99.0012	318	C3H3N2S+
101.0169	7	C3H5N2S+
108.0305	88	C3H2N5+
108.0556	36	C5H6N3+
109.051	6	C4H5N4+
110.0462	88	C3H4N5+
110.0712	7	C5H8N3+
112.0868	10	C5H10N3+
114.0121	498	C3H4N3S+
116.0276	29	C3H6N3S+
123.0664	9	C5H7N4+
125.0822	321	C5H9N4+
131.0275	3	C2H5N5S+
136.0618	33	C5H6N5+
138.0123	19	C5H4N3S+
139.0074	5	C4H3N4S+
141.0104	119	C3H3N5S+
141.0229	53	C4H5N4S+
147.9969	6	C6H2N3S+
150.0775	85	C6H8N5+
152.0282	5	C6H6N3S+
152.093	14	C6H10N5+
155.0219	5	C7HN5+
156.0339	999	C4H6N5S+
158.0493	5	C4H8N5S+
166.0074	22	C4H2N6S+
168.0339	69	C5H6N5S+
170.0388	2	C4H6N6S+
171.0698	3	C6H11N4S+
180.0233	6	C5H4N6S+
182.0495	13	C6H8N5S+
183.0575	18	C6H9N5S+
198.0808	16	C7H12N5S+
226.0868	3	C7H12N7S+
