Mass spectrum: Fenchlorazole-ethyl; LC-ESI-QFT; MS2; CE: 45; R=17500; [M+H]+
Name: Fenchlorazole-ethyl
Name: ethyl 1-(2,4-dichlorophenyl)-5-(trichloromethyl)-1,2,4-triazole-3-carboxylate
Formula: C12H8Cl5N3O2
Exact mass: 400.9059
SMILES: CCOC(=O)C1=NN(C(=N1)C(Cl)(Cl)Cl)C1=C(Cl)C=C(Cl)C=C1
InChI: InChI=1S/C12H8Cl5N3O2/c1-2-22-10(21)9-18-11(12(15,16)17)20(19-9)8-4-3-6(13)5-7(8)14/h3-5H,2H2,1H3
Instrument: Q Exactive Orbitrap (Thermo Scientific)
Instrument type: LC-ESI-QFT
Ms type: MS2
Ion mode: POSITIVE
Ionization: ESI
Fragmentation mode: HCD
Collision energy: 45
Resolution: 17500
Column name: Acquity BEH C18 1.7um, 2.1x150mm (Waters)
Retention time: 18.831 min
Base peak: 79.0211
Precursor m/z: 401.9132
Precursor type: [M+H]+
Precursor intensity: 42315354.59375
m/z	relative intensity	assigned
53.0022	1	C3HO+
55.0542	5	C4H7+
57.0699	41	C4H9+
67.0541	9	C5H7+
69.0699	11	C5H9+
73.0283	9	C3H5O2+
77.0468	2	C2H7NO2+
81.0699	11	C6H9+
84.9837	2	C4H2Cl+
116.9059	27	CCl3+
119.0621	3	C7H7N2+
128.0023	1	C6H5ClO+
132.9605	8	C5H3Cl2+
133.078	2	C8H9N2+
170.9637	10	C7H3Cl2N+
172.9668	67	C6H3Cl2N2+
184.9668	95	C7H3Cl2N2+
209.9262	4	C9Cl2O2+
212.9616	5	C8H3Cl2N2O+
230.928	4	C8H2Cl3N2+
251.8938	7	C8H2Cl4N+
257.9388	36	C9H3Cl3N3+
267.9677	1	C10H4Cl2N3O2+
268.9755	10	C10H5Cl2N3O2+
285.9326	11	C10H3Cl3N3O+
291.9	8	C9H2Cl4N3+
301.9289	15	C10H3Cl3N3O2+
302.9364	23	C10H4Cl3N3O2+
303.9442	418	C10H5Cl3N3O2+
317.9598	7	C11H7Cl3N3O2+
319.8948	11	C10H2Cl4N3O+
338.9132	363	C10H5Cl4N3O2+
355.8695	10	C10H3Cl5N3O+
373.882	999	C10H5Cl5N3O2+
387.8977	16	C11H7Cl5N3O2+
