Mass spectrum: Glipizide; LC-ESI-QFT; MS2; CE: 75; R=17500; [M+H]+
Name: Glipizide
Name: N-[2-[4-(cyclohexylcarbamoylsulfamoyl)phenyl]ethyl]-5-methylpyrazine-2-carboxamide
Formula: C21H27N5O4S
Exact mass: 445.1784
SMILES: CC1=NC=C(N=C1)C(=O)NCCC1=CC=C(C=C1)S(=O)(=O)NC(=O)NC1CCCCC1
InChI: InChI=1S/C21H27N5O4S/c1-15-13-24-19(14-23-15)20(27)22-12-11-16-7-9-18(10-8-16)31(29,30)26-21(28)25-17-5-3-2-4-6-17/h7-10,13-14,17H,2-6,11-12H2,1H3,(H,22,27)(H2,25,26,28)
Instrument: Q Exactive Orbitrap (Thermo Scientific)
Instrument type: LC-ESI-QFT
Ms type: MS2
Ion mode: POSITIVE
Ionization: ESI
Fragmentation mode: HCD
Collision energy: 75
Resolution: 17500
Column name: Acquity BEH C18 1.7um, 2.1x150mm (Waters)
Retention time: 16.353 min
Base peak: 79.0211
Precursor m/z: 446.1857
Precursor type: [M+H]+
Precursor intensity: 2989646.75
m/z	relative intensity	assigned
52.0182	44	C3H2N+
53.0386	99	C4H5+
55.0179	6	C3H3O+
55.0543	80	C4H7+
65.0386	10	C5H5+
66.0338	187	C4H4N+
68.0495	8	C4H6N+
77.0385	31	C6H5+
78.0464	9	C6H6+
79.0544	8	C6H7+
81.0336	15	C5H5O+
83.0856	68	C6H11+
91.0543	88	C7H7+
92.062	5	C7H8+
93.0448	19	C5H5N2+
93.07	12	C7H9+
94.0413	7	C6H6O+
94.0526	13	C5H6N2+
95.0492	236	C6H7O+
95.0604	25	C5H7N2+
100.1121	17	C6H14N+
102.0465	39	C8H6+
103.0543	883	C8H7+
104.0496	9	C7H6N+
104.062	60	C8H8+
105.0448	98	C6H5N2+
107.0492	63	C7H7O+
111.0554	999	C5H7N2O+
115.0543	8	C9H7+
118.041	11	C8H6O+
119.0492	51	C8H7O+
119.0729	58	C8H9N+
120.0808	34	C8H10N+
121.0649	107	C8H9O+
125.071	12	C6H9N2O+
126.0424	19	C5H6N2O2+
131.0604	174	C8H7N2+
134.0598	12	C8H8NO+
139.0212	25	C7H7OS+
139.0504	102	C6H7N2O2+
148.0216	13	C8H6NS+
150.0663	77	C7H8N3O+
165.0699	12	C13H9+
166.032	8	C8H8NOS+
167.0162	6	C8H7O2S+
167.0808	9	H15N4O4S+
182.0838	10	C12H10N2+
183.092	63	C6H17NO3S+
184.0996	9	C12H12N2+
195.0918	16	C13H11N2+
222.1027	10	C14H12N3+
238.0974	9	C14H12N3O+
