Mass spectrum: Bis(2-carboxyethyl) sulfide; LC-ESI-QFT; MS2; CE: 60; R=17500; [M-H]-
Name: Bis(2-carboxyethyl) sulfide
Name: 3,3'-Thiodipropionic acid
Name: 3-(2-carboxyethylsulfanyl)propanoic acid
Formula: C6H10O4S
Exact mass: 178.0300
SMILES: OC(=O)CCSCCC(O)=O
InChI: InChI=1S/C6H10O4S/c7-5(8)1-3-11-4-2-6(9)10/h1-4H2,(H,7,8)(H,9,10)
Instrument: Q Exactive Orbitrap (Thermo Scientific)
Instrument type: LC-ESI-QFT
Ms type: MS2
Ion mode: NEGATIVE
Ionization: ESI
Fragmentation mode: HCD
Collision energy: 60
Resolution: 17500
Column name: Acquity BEH C18 1.7um, 2.1x150mm (Waters)
Retention time: 10.410 min
Base peak: 116.9285
Precursor m/z: 177.0227
Precursor type: [M-H]-
Precursor intensity: 1037552.24292
m/z	relative intensity	assigned
105.0015	999	C3H5O2S-
