Mass spectrum: Tolbutamide; LC-ESI-QFT; MS2; CE: 45; R=17500; [M-H]-
Name: Tolbutamide
Name: 1-butyl-3-(4-methylphenyl)sulfonylurea
Formula: C12H18N2O3S
Exact mass: 270.1038
SMILES: CCCCNC(=O)NS(=O)(=O)C1=CC=C(C)C=C1
InChI: InChI=1S/C12H18N2O3S/c1-3-4-9-13-12(15)14-18(16,17)11-7-5-10(2)6-8-11/h5-8H,3-4,9H2,1-2H3,(H2,13,14,15)
Instrument: Q Exactive Orbitrap (Thermo Scientific)
Instrument type: LC-ESI-QFT
Ms type: MS2
Ion mode: NEGATIVE
Ionization: ESI
Fragmentation mode: HCD
Collision energy: 45
Resolution: 17500
Column name: Acquity BEH C18 1.7um, 2.1x150mm (Waters)
Retention time: 16.151 min
Base peak: 112.9857
Precursor m/z: 269.0965
Precursor type: [M-H]-
Precursor intensity: 7585448.437012
m/z	relative intensity	assigned
61.9705	3	NOS-
63.9624	4	O2S-
77.9653	2	NO2S-
78.973	10	HNO2S-
79.9812	26	H2NO2S-
93.9604	2	NO3S-
106.0662	260	C7H8N-
107.0502	3	C7H7O-
122.0611	1	C7H8NO-
150.0562	2	C8H8NO2-
170.0281	999	C7H8NO2S-
174.9721	8	C8HNO2S-
