Mass spectrum: Chloralose; LC-ESI-QFT; MS2; CE: 75; R=17500; [M-H]-
Name: Chloralose
Formula: C8H11Cl3O6
Exact mass: 307.9621
SMILES: OC[C@@H](O)[C@H]1O[C@@H]2O[C@@H](O[C@@H]2[C@H]1O)C(Cl)(Cl)Cl
InChI: InChI=1S/C8H11Cl3O6/c9-8(10,11)7-16-5-3(14)4(2(13)1-12)15-6(5)17-7/h2-7,12-14H,1H2/t2-,3+,4-,5-,6-,7-/m1/s1
Instrument: Q Exactive Orbitrap (Thermo Scientific)
Instrument type: LC-ESI-QFT
Ms type: MS2
Ion mode: NEGATIVE
Ionization: ESI
Fragmentation mode: HCD
Collision energy: 75
Resolution: 17500
Column name: Acquity BEH C18 1.7um, 2.1x150mm (Waters)
Retention time: 13.543 min
Base peak: 249.0227
Precursor m/z: 306.9548
Precursor type: [M-H]-
Precursor intensity: 2499898.561523
m/z	relative intensity	assigned
55.0189	408	C3H3O-
57.0345	188	C3H5O-
58.0061	28	C2H2O2-
59.0138	637	C2H3O2-
71.0139	999	C3H3O2-
72.9931	64	C2HO3-
73.0295	228	C3H5O2-
83.0138	114	C4H3O2-
84.0216	44	C4H4O2-
85.0295	433	C4H5O2-
87.0087	39	C3H3O3-
95.0139	56	C5H3O2-
99.0088	34	C4H3O3-
101.0244	77	C4H5O3-
108.0217	47	C6H4O2-
116.9072	61	CCl3-
