Mass spectrum: (9Z,12R)-12-Hydroxyoctadec-9-enoic acid; LC-ESI-QFT; MS2; CE: 60; R=17500; [M-H]-
Name: (9Z,12R)-12-Hydroxyoctadec-9-enoic acid
Name: Ricinoleic acid
Name: (Z,12R)-12-hydroxyoctadec-9-enoic acid
Formula: C18H34O3
Exact mass: 298.2508
SMILES: CCCCCC[C@@H](O)C\C=C/CCCCCCCC(O)=O
InChI: InChI=1S/C18H34O3/c1-2-3-4-11-14-17(19)15-12-9-7-5-6-8-10-13-16-18(20)21/h9,12,17,19H,2-8,10-11,13-16H2,1H3,(H,20,21)/b12-9-/t17-/m1/s1
Instrument: Q Exactive Orbitrap (Thermo Scientific)
Instrument type: LC-ESI-QFT
Ms type: MS2
Ion mode: NEGATIVE
Ionization: ESI
Fragmentation mode: HCD
Collision energy: 60
Resolution: 17500
Column name: Acquity BEH C18 1.7um, 2.1x150mm (Waters)
Retention time: 19.824 min
Base peak: 297.2435
Precursor m/z: 297.2435
Precursor type: [M-H]-
Precursor intensity: 22215217.04004
m/z	relative intensity	assigned
59.0138	9	C2H3O2-
71.0139	8	C3H3O2-
83.0502	19	C5H7O-
93.0346	26	C6H5O-
97.0659	20	C6H9O-
111.0817	31	C7H11O-
113.0973	94	C7H13O-
127.1125	11	C8H15O-
149.0971	16	C10H13O-
163.113	8	C11H15O-
165.1279	13	C11H17O-
183.139	999	C11H19O2-
279.2328	73	C18H31O2-
295.2289	10	C18H31O3-
297.2438	15	C18H33O3-
