Mass spectrum: SSR 240612; LC-ESI-QFT; MS2; CE: 60; R=17500; [M+H]+
Name: SSR 240612
Name: Ssr-240612 free base
Name: (2R)-2-[[(3R)-3-(1,3-benzodioxol-5-yl)-3-[(6-methoxynaphthalen-2-yl)sulfonylamino]propanoyl]amino]-3-[4-[[(2S,6R)-2,6-dimethylpiperidin-1-yl]methyl]phenyl]-N-methyl-N-propan-2-ylpropanamide
Formula: C42H52N4O7S
Exact mass: 756.3557
SMILES: COc1ccc2cc(S(=O)(=O)N[C@H](CC(=O)N[C@H](Cc3ccc(CN4[C@@H](C)CCC[C@H]4C)cc3)C(=O)N(C)C(C)C)c3ccc4c(c3)OCO4)ccc2c1
InChI: InChI=1S/C42H52N4O7S/c1-27(2)45(5)42(48)38(20-30-10-12-31(13-11-30)25-46-28(3)8-7-9-29(46)4)43-41(47)24-37(34-16-19-39-40(23-34)53-26-52-39)44-54(49,50)36-18-15-32-21-35(51-6)17-14-33(32)22-36/h10-19,21-23,27-29,37-38,44H,7-9,20,24-26H2,1-6H3,(H,43,47)/t28-,29+,37-,38-/m1/s1
Instrument: Q Exactive Orbitrap (Thermo Scientific)
Instrument type: LC-ESI-QFT
Ms type: MS2
Ion mode: POSITIVE
Ionization: ESI
Fragmentation mode: HCD
Collision energy: 60
Resolution: 17500
Column name: Acquity BEH C18 1.7um, 2.1x150mm (Waters)
Retention time: 15.712 min
Base peak: 79.0211
Precursor m/z: 757.3629
Precursor type: [M+H]+
Precursor intensity: 6674497.75
m/z	relative intensity	assigned
55.0543	2	C4H7+
56.0494	5	C3H6N+
57.0573	8	C3H7N+
58.0287	16	C2H4NO+
58.0652	1	C3H8N+
63.0229	1	C5H3+
65.0385	2	C5H5+
70.065	16	C4H8N+
72.0807	999	C4H10N+
74.0963	43	C4H12N+
79.054	2	C6H7+
83.0365	2	C4H5NO+
87.0552	5	C3H7N2O+
89.0384	17	C7H5+
91.0542	65	C7H7+
95.049	1	C6H7O+
103.0543	6	C8H7+
104.0619	1	C8H8+
105.0698	27	C8H9+
110.0601	1	C6H8NO+
110.0963	2	C7H12N+
112.112	33	C7H14N+
113.0345	2	C4H5N2O2+
114.1279	1	C7H16N+
115.0542	108	C9H7+
116.0619	5	C9H8+
117.0698	706	C9H9+
118.0413	2	C8H6O+
118.0649	1	C8H8N+
119.0491	12	C8H7O+
123.0441	1	C7H7O2+
124.0756	19	C7H10NO+
125.0834	45	C7H11NO+
128.0621	2	C10H8+
129.0697	4	C10H9+
129.1021	2	C6H13N2O+
130.0651	8	C9H8N+
131.0492	12	C9H7O+
131.0728	2	C9H9N+
131.0855	7	C10H11+
132.0807	40	C9H10N+
133.0647	20	C9H9O+
134.0967	1	C9H12N+
135.0439	23	C8H7O2+
137.0597	2	C8H9O2+
142.0411	4	C10H6O+
142.0653	2	C10H8N+
142.0778	1	C11H10+
143.049	11	C10H7O+
143.0853	1	C11H11+
144.057	4	C10H8O+
144.0806	1	C10H10N+
144.0934	4	C11H12+
145.0283	84	C9H5O2+
145.0647	30	C10H9O+
146.0963	46	C10H12N+
147.0439	14	C9H7O2+
148.0393	1	C8H6NO2+
149.0596	19	C9H9O2+
150.0548	21	C8H8NO2+
152.0101	1	C7H4O4+
155.0602	1	C10H7N2+
157.0647	13	C11H9O+
157.0884	1	C11H11N+
157.1012	2	C12H13+
158.06	123	C10H8NO+
159.0676	3	C10H9NO+
159.1167	6	C12H15+
160.0755	3	C10H10NO+
161.0596	17	C10H9O2+
163.0389	50	C9H7O3+
169.0648	1	C12H9O+
171.0803	5	C12H11O+
173.0597	37	C11H9O2+
173.0833	2	C11H11NO+
174.0913	42	C11H12NO+
175.0389	157	C10H7O3+
175.0753	26	C11H11O2+
177.0546	9	C10H9O3+
178.0781	1	C14H10+
184.0759	2	C12H10NO+
185.0708	42	C11H9N2O+
186.0551	2	C11H8NO2+
188.1433	82	C13H18N+
189.0697	1	C15H9+
189.102	2	C11H13N2O+
191.0858	1	C15H11+
193.1012	1	C15H13+
203.0855	2	C16H11+
216.1381	14	C14H18NO+
219.0804	1	C16H11O+
221.0267	3	C11H9O3S+
231.0799	4	C9H15N2O3S+
237.0907	4	C16H13O2+
247.0752	6	C17H11O2+
248.0831	2	C17H12O2+
249.0909	7	C17H13O2+
259.0757	1	C18H11O2+
261.091	6	C18H13O2+
263.0932	1	C9H17N3O4S+
263.1072	1	C18H15O2+
275.0696	3	C10H15N2O5S+
289.0862	2	C19H13O3+
290.0812	1	C18H12NO3+
306.1122	3	C19H16NO3+
