Mass spectrum: Diisobutyl phthalate; LC-ESI-QFT; MS2; CE: 90; R=17500; [M+H]+
Name: Diisobutyl phthalate
Formula: C16H22O4
Exact mass: 278.1518
SMILES: CC(C)COC(=O)C1=C(C=CC=C1)C(=O)OCC(C)C
InChI: InChI=1S/C16H22O4/c1-11(2)9-19-15(17)13-7-5-6-8-14(13)16(18)20-10-12(3)4/h5-8,11-12H,9-10H2,1-4H3
Instrument: Q Exactive Orbitrap (Thermo Scientific)
Instrument type: LC-ESI-QFT
Ms type: MS2
Ion mode: POSITIVE
Ionization: ESI
Fragmentation mode: HCD
Collision energy: 90
Resolution: 17500
Column name: Acquity BEH C18 1.7um, 2.1x150mm (Waters)
Retention time: 19.141 min
Base peak: 79.0212
Precursor m/z: 279.1591
Precursor type: [M+H]+
Precursor intensity: 12059715.5
m/z	relative intensity	assigned
57.0699	455	C4H9+
65.0385	952	C5H5+
109.065	999	C7H9O+
121.0287	398	C7H5O2+
149.0233	613	C8H5O3+
165.0704	626	C13H9+
178.0779	411	C14H10+
