Mass spectrum: Octylphosphonic acid; LC-ESI-QFT; MS2; CE: 45; R=17500; [M-H]-
Name: Octylphosphonic acid
Formula: C8H19O3P
Exact mass: 194.1072
SMILES: CCCCCCCCP(O)(O)=O
InChI: InChI=1S/C8H19O3P/c1-2-3-4-5-6-7-8-12(9,10)11/h2-8H2,1H3,(H2,9,10,11)
Instrument: Q Exactive Orbitrap (Thermo Scientific)
Instrument type: LC-ESI-QFT
Ms type: MS2
Ion mode: NEGATIVE
Ionization: ESI
Fragmentation mode: HCD
Collision energy: 45
Resolution: 17500
Column name: Acquity BEH C18 1.7um, 2.1x150mm (Waters)
Retention time: 17.709 min
Base peak: 317.1618
Precursor m/z: 193.0999
Precursor type: [M-H]-
Precursor intensity: 21387996.95703
m/z	relative intensity	assigned
57.0345	8	C3H5O-
59.0139	9	C2H3O2-
65.0397	20	C5H5-
67.0188	34	C4H3O-
67.0553	6	C5H7-
69.0346	4	C4H5O-
78.959	860	O3P-
81.0346	13	C5H5O-
83.0502	110	C5H7O-
91.0552	10	C7H7-
93.0346	21	C6H5O-
104.0266	6	C7H4O-
105.0344	8	C7H5O-
105.071	16	C8H9-
106.0422	6	C7H6O-
107.0502	84	C7H7O-
107.0866	999	C8H11-
108.0216	22	C6H4O2-
109.0294	109	C6H5O2-
109.0656	5	C7H9O-
119.0503	31	C8H7O-
120.058	120	C8H8O-
121.0294	200	C7H5O2-
122.0374	46	C7H6O2-
125.0244	13	C6H5O3-
135.0451	148	C8H7O2-
136.0529	574	C8H8O2-
137.0244	15	C7H5O3-
150.0322	37	C8H6O3-
152.0481	40	C8H8O3-
193.0974	558	C8H18O3P-
