Mass spectrum: SB236057A; LC-ESI-QFT; MS2; CE: 75; R=17500; [M+H]+
Name: SB236057A
Name: (1'-ethylspiro[6,7-dihydro-2H-furo[2,3-f]indole-3,4'-piperidine]-5-yl)-[4-[2-methyl-4-(5-methyl-1,3,4-oxadiazol-2-yl)phenyl]phenyl]methanone
Formula: C33H34N4O3
Exact mass: 534.2631
SMILES: CCN1CCC2(COC3=C2C=C2N(CCC2=C3)C(=O)C2=CC=C(C=C2)C2=CC=C(C=C2C)C2=NN=C(C)O2)CC1
InChI: InChI=1S/C33H34N4O3/c1-4-36-15-12-33(13-16-36)20-39-30-18-25-11-14-37(29(25)19-28(30)33)32(38)24-7-5-23(6-8-24)27-10-9-26(17-21(27)2)31-35-34-22(3)40-31/h5-10,17-19H,4,11-16,20H2,1-3H3
Instrument: Q Exactive Orbitrap (Thermo Scientific)
Instrument type: LC-ESI-QFT
Ms type: MS2
Ion mode: POSITIVE
Ionization: ESI
Fragmentation mode: HCD
Collision energy: 75
Resolution: 17500
Column name: Acquity BEH C18 1.7um, 2.1x150mm (Waters)
Retention time: 15.538 min
Base peak: 79.0211
Precursor m/z: 535.2704
Precursor type: [M+H]+
Precursor intensity: 16104072
m/z	relative intensity	assigned
53.0386	9	C4H5+
54.0339	5	C3H4N+
55.0291	4	C2H3N2+
55.0542	19	C4H7+
56.0131	36	C2H2NO+
56.0495	179	C3H6N+
57.0573	4	C3H7N+
58.0651	672	C3H8N+
65.0386	7	C5H5+
67.0416	8	C4H5N+
67.0542	22	C5H7+
68.0494	30	C4H6N+
69.0573	10	C4H7N+
69.0698	3	C5H9+
70.0651	13	C4H8N+
71.0729	2	C4H9N+
72.0807	14	C4H10N+
77.0385	2	C6H5+
79.0542	57	C6H7+
80.0494	19	C5H6N+
81.0574	19	C5H7N+
81.0699	51	C6H9+
82.0651	114	C5H8N+
83.024	144	C3H3N2O+
84.0808	467	C5H10N+
85.0886	3	C5H11N+
86.0964	21	C5H12N+
91.0541	9	C7H7+
93.0574	6	C6H7N+
93.07	5	C7H9+
94.0652	49	C6H8N+
95.0491	12	C6H7O+
95.073	27	C6H9N+
95.0853	1	C7H11+
96.0808	131	C6H10N+
97.0886	24	C6H11N+
104.0493	2	C7H6N+
105.0448	3	C6H5N2+
105.0698	3	C8H9+
106.0651	2	C7H8N+
107.073	2	C7H9N+
107.0856	1	C8H11+
108.0808	94	C7H10N+
109.0886	9	C7H11N+
110.0964	952	C7H12N+
112.1122	2	C7H14N+
115.0542	11	C9H7+
117.0574	3	C8H7N+
117.0698	5	C9H9+
118.0653	2	C8H8N+
120.0807	8	C8H10N+
122.0964	18	C8H12N+
123.1043	11	C8H13N+
124.1121	73	C8H14N+
128.0622	4	C10H8+
129.07	8	C10H9+
130.0652	10	C9H8N+
131.0731	2	C9H9N+
132.0447	1	C8H6NO+
132.0811	2	C9H10N+
134.0601	7	C8H8NO+
139.0539	3	C11H7+
141.0698	61	C11H9+
143.0729	3	C10H9N+
144.0564	2	C10H8O+
144.0808	31	C10H10N+
145.0652	3	C10H9O+
146.0601	4	C9H8NO+
146.0959	3	C10H12N+
150.128	1	C10H16N+
151.0543	1	C12H7+
152.062	76	C12H8+
153.0698	222	C12H9+
154.0651	4	C11H8N+
155.0493	2	C11H7O+
155.0605	4	C10H7N2+
156.0811	5	C11H10N+
157.0649	2	C11H9O+
157.0886	4	C11H11N+
158.0602	2	C10H8NO+
158.073	2	C11H10O+
158.0966	19	C11H12N+
159.0804	3	C11H11O+
163.0544	3	C13H7+
164.0496	2	C12H6N+
164.0624	4	C13H8+
165.0699	999	C13H9+
166.0777	253	C13H10+
167.073	3	C12H9N+
167.0858	3	C13H11+
168.057	8	C12H8O+
168.0808	2	C12H10N+
169.0525	8	C11H7NO+
169.0648	38	C12H9O+
170.0601	3	C11H8NO+
171.0679	5	C11H9NO+
171.08	3	C12H11O+
172.0756	39	C11H10NO+
172.1122	3	C12H14N+
173.0832	12	C11H11NO+
174.0912	28	C11H12NO+
177.057	12	C13H7N+
177.0702	1	C14H9+
178.0651	8	C13H8N+
178.0777	13	C14H10+
179.0494	2	C13H7O+
179.0606	1	C12H7N2+
179.0731	11	C13H9N+
179.0856	3	C14H11+
180.0807	318	C13H10N+
181.0649	4	C13H9O+
181.0763	4	C12H9N2+
182.0601	3	C12H8NO+
183.0804	75	C13H11O+
184.0758	6	C12H10NO+
184.112	2	C13H14N+
185.0838	6	C12H11NO+
186.0914	32	C12H12NO+
187.0994	2	C12H13NO+
187.1226	2	C12H15N2+
190.0652	66	C14H8N+
191.073	229	C14H9N+
192.0808	29	C14H10N+
192.093	6	C15H12+
193.053	236	C13H7NO+
193.0649	970	C14H9O+
193.0754	107	C13H9N2+
194.0613	2	C13H8NO+
194.0725	18	C14H10O+
195.0806	2	C14H11O+
198.0913	3	C13H12NO+
200.1068	8	C13H14NO+
201.1025	3	C12H13N2O+
201.1152	2	C13H15NO+
201.1387	5	C13H17N2+
204.0809	6	C15H10N+
206.0602	42	C14H8NO+
206.0964	61	C15H12N+
207.0679	37	C14H9NO+
208.0757	139	C14H10NO+
210.0913	2	C14H12NO+
212.1068	2	C14H14NO+
213.1383	2	C14H17N2+
215.1179	1	C13H15N2O+
216.0692	2	C15H8N2+
218.0604	4	C15H8NO+
220.0757	192	C15H10NO+
220.0868	12	C14H10N3+
223.0756	2	C15H11O2+
226.0624	35	C14H10O3+
226.0866	4	C14H12NO2+
229.134	7	C14H17N2O+
231.092	3	C16H11N2+
234.0549	1	C15H8NO2+
234.0786	7	C15H10N2O+
236.0706	164	C15H10NO2+
239.0941	3	C15H13NO2+
248.0949	2	C16H12N2O+
249.1021	74	C16H13N2O+
257.1647	11	C16H21N2O+
267.113	2	C16H15N2O2+
275.0816	4	C17H11N2O2+
277.0971	382	C17H13N2O2+
393.1586	1	C26H21N2O2+
