Mass spectrum: PharmaGSID_48506; LC-ESI-QFT; MS2; CE: 30; R=17500; [M-H]-
Name: PharmaGSID_48506
Name: (2R)-2-(3-chloro-4-methylsulfonylphenyl)-3-cyclopentyl-N-pyrazin-2-ylpropanamide
Formula: C19H22ClN3O3S
Exact mass: 407.1070
SMILES: CS(=O)(=O)C1=CC=C(C=C1Cl)[C@@H](CC1CCCC1)C(=O)NC1=NC=CN=C1
InChI: InChI=1S/C19H22ClN3O3S/c1-27(25,26)17-7-6-14(11-16(17)20)15(10-13-4-2-3-5-13)19(24)23-18-12-21-8-9-22-18/h6-9,11-13,15H,2-5,10H2,1H3,(H,22,23,24)/t15-/m1/s1
Instrument: Q Exactive Orbitrap (Thermo Scientific)
Instrument type: LC-ESI-QFT
Ms type: MS2
Ion mode: NEGATIVE
Ionization: ESI
Fragmentation mode: HCD
Collision energy: 30
Resolution: 17500
Column name: Acquity BEH C18 1.7um, 2.1x150mm (Waters)
Retention time: 17.888 min
Base peak: 406.0997
Precursor m/z: 406.0998
Precursor type: [M-H]-
Precursor intensity: 17568752.29395
m/z	relative intensity	assigned
63.9625	72	O2S-
78.9861	1	CH3O2S-
94.0411	41	C4H4N3-
185.1336	132	C14H17-
200.9785	3	C8H6ClO2S-
229.1232	2	C15H17O2-
249.0955	79	C14H17O2S-
270.0483	4	C13H15ClO2S-
285.0722	999	C14H18ClO2S-
