Mass spectrum: Indoxacarb; LC-ESI-QFT; MS2; CE: 45; R=17500; [M+H]+
Name: Indoxacarb
Name: methyl (4aS)-7-chloro-2-[methoxycarbonyl-[4-(trifluoromethoxy)phenyl]carbamoyl]-3,5-dihydroindeno[1,2-e][1,3,4]oxadiazine-4a-carboxylate
Formula: C22H17ClF3N3O7
Exact mass: 527.0707
SMILES: COC(=O)N(C(=O)N1CO[C@]2(CC3=C(C=CC(Cl)=C3)C2=N1)C(=O)OC)C1=CC=C(OC(F)(F)F)C=C1
InChI: InChI=1S/C22H17ClF3N3O7/c1-33-18(30)21-10-12-9-13(23)3-8-16(12)17(21)27-28(11-35-21)19(31)29(20(32)34-2)14-4-6-15(7-5-14)36-22(24,25)26/h3-9H,10-11H2,1-2H3/t21-/m0/s1
Instrument: Q Exactive Orbitrap (Thermo Scientific)
Instrument type: LC-ESI-QFT
Ms type: MS2
Ion mode: POSITIVE
Ionization: ESI
Fragmentation mode: HCD
Collision energy: 45
Resolution: 17500
Column name: Acquity BEH C18 1.7um, 2.1x150mm (Waters)
Retention time: 18.917 min
Base peak: 79.0211
Precursor m/z: 528.078
Precursor type: [M+H]+
Precursor intensity: 5046305
m/z	relative intensity	assigned
56.0131	414	C2H2NO+
58.0287	8	C2H4NO+
68.9947	2	CF3+
69.9923	3	C2NO2+
74.0599	2	C3H8NO+
75.044	27	C3H7O2+
81.0147	10	C2H3F2O+
86.0236	5	C3H4NO2+
88.0393	3	C3H6NO2+
89.0385	2	C7H5+
90.0338	7	C6H4N+
95.0491	3	C6H7O+
96.0443	1	C5H6NO+
102.0464	2	C8H6+
102.0549	3	C4H8NO2+
104.0494	72	C7H6N+
105.0448	2	C6H5N2+
109.0448	2	C7H6F+
111.024	2	C6H4FO+
115.0542	8	C9H7+
116.062	6	C9H8+
122.9995	5	C7H4Cl+
125.0151	3	C2H5ClFN3+
126.0465	2	C10H6+
131.0494	1	C9H7O+
132.0444	58	C8H6NO+
134.0237	15	C7H4NO2+
137.0153	18	C8H6Cl+
139.0309	2	C8H8Cl+
140.0493	3	C10H6N+
141.0572	5	C10H7N+
142.0651	10	C10H8N+
143.0732	4	C10H9N+
145.0647	2	C10H9O+
146.035	8	C7H4N3O+
149.0153	31	C9H6Cl+
150.0105	112	C8H5ClN+
150.055	21	C8H8NO2+
151.0308	5	C9H8Cl+
154.0398	1	C9H4N3+
155.0603	41	C10H7N2+
156.0683	5	C10H8N2+
160.0505	41	C8H6N3O+
162.0105	240	C9H5ClN+
162.9942	2	CH4ClF2N3O2+
163.0057	6	C8H4ClN2+
163.0184	4	C9H6ClN+
163.0307	23	C5H7ClFN3+
164.0023	2	C9H5ClO+
164.0261	35	C9H7ClN+
165.0339	12	C9H8ClN+
166.0055	4	C8H5ClNO+
167.0258	57	C9H8ClO+
168.021	435	C8H7ClNO+
169.0761	2	C11H9N2+
175.0054	4	ClF2H8NO5+
176.0025	8	C10H5ClO+
176.0263	8	C10H7ClN+
177.0101	15	C10H6ClO+
177.0207	2	C3H7F2O6+
177.0339	31	C10H8ClN+
179.0258	63	C10H8ClO+
180.021	64	C9H7ClNO+
182.0367	26	C9H9ClNO+
182.0466	3	C2H12ClFN2O4+
189.0214	129	C10H6ClN2+
190.0054	295	C10H5ClNO+
190.0473	58	C8H7F3NO+
191.0369	5	C10H8ClN2+
192.0207	12	CH11ClF2O6+
194.0367	30	C10H9ClNO+
195.0208	96	C10H8ClO2+
203.0188	999	C8H4F3NO2+
204.0085	40	C10H5ClN2O+
207.021	39	C6H5F2N2O4+
207.0321	7	C10H8ClN2O+
208.0159	54	C10H7ClNO2+
215.0427	17	C9H6F3N2O+
217.0162	97	C11H6ClN2O+
218.0422	94	C9H7F3NO2+
219.032	68	C11H8ClN2O+
221.0477	2	C11H10ClN2O+
223.0156	22	C11H8ClO3+
225.0309	2	C6H9ClFN3O3+
230.9955	10	C11H4ClN2O2+
231.0319	2	C12H8ClN2O+
235.0267	3	C11H8ClN2O2+
249.0425	6	C12H10ClN2O2+
