Mass spectrum: Cyclopamine; LC-ESI-QFT; MS2; CE: 60; R=17500; [M+H]+
Name: Cyclopamine
Name: (3S,3'R,3'aS,6'S,6aS,6bS,7'aR,9R,11aS,11bR)-3',6',10,11b-tetramethylspiro[2,3,4,6,6a,6b,7,8,11,11a-decahydro-1H-benzo[a]fluorene-9,2'-3a,4,5,6,7,7a-hexahydro-3H-furo[3,2-b]pyridine]-3-ol
Formula: C27H41NO2
Exact mass: 411.3137
SMILES: C[C@@H]1[C@@H]2NC[C@@H](C)C[C@H]2O[C@]11CC[C@H]2[C@@H]3CC=C4C[C@@H](O)CC[C@]4(C)[C@H]3CC2=C1C
InChI: InChI=1S/C27H41NO2/c1-15-11-24-25(28-14-15)17(3)27(30-24)10-8-20-21-6-5-18-12-19(29)7-9-26(18,4)23(21)13-22(20)16(27)2/h5,15,17,19-21,23-25,28-29H,6-14H2,1-4H3/t15-,17+,19-,20-,21-,23-,24+,25-,26-,27-/m0/s1
Instrument: Q Exactive Orbitrap (Thermo Scientific)
Instrument type: LC-ESI-QFT
Ms type: MS2
Ion mode: POSITIVE
Ionization: ESI
Fragmentation mode: HCD
Collision energy: 60
Resolution: 17500
Column name: Acquity BEH C18 1.7um, 2.1x150mm (Waters)
Retention time: 15.350 min
Base peak: 79.0211
Precursor m/z: 412.321
Precursor type: [M+H]+
Precursor intensity: 8414066.875
m/z	relative intensity	assigned
53.0022	10	C3HO+
53.0385	10	C4H5+
53.9974	2	C2NO+
54.0338	2	C3H4N+
55.0542	74	C4H7+
56.0495	8	C3H6N+
57.0335	5	C3H5O+
57.0699	55	C4H9+
58.0288	6	C2H4NO+
58.0651	9	C3H8N+
65.0386	27	C5H5+
67.0542	999	C5H7+
68.0494	8	C4H6N+
69.0334	13	C4H5O+
69.0698	50	C5H9+
70.0651	85	C4H8N+
72.0444	16	C3H6NO+
74.0963	2	C4H12N+
77.0384	2	C6H5+
79.0542	110	C6H7+
80.0495	12	C5H6N+
81.0572	27	C5H7N+
81.0699	340	C6H9+
82.0651	20	C5H8N+
83.0491	49	C5H7O+
83.0855	6	C6H11+
84.0808	527	C5H10N+
85.0648	321	C5H9O+
91.0542	87	C7H7+
92.0617	2	C7H8+
93.0699	110	C7H9+
94.0651	12	C6H8N+
94.0777	4	C7H10+
95.0491	12	C6H7O+
95.0855	58	C7H11+
96.0808	109	C6H10N+
97.0648	7	C6H9O+
97.101	2	C7H13+
98.0964	37	C6H12N+
99.0804	5	C6H11O+
100.0757	13	C5H10NO+
102.0913	58	C5H12NO+
103.0542	4	C8H7+
105.0699	167	C8H9+
107.0855	131	C8H11+
109.1012	702	C8H13+
110.0964	20	C7H12N+
111.0804	3	C7H11O+
112.0757	58	C6H10NO+
112.112	7	C7H14N+
114.0914	684	C6H12NO+
115.0542	6	C9H7+
116.0619	2	C9H8+
117.0699	64	C9H9+
119.0856	113	C9H11+
121.0647	5	C8H9O+
121.1012	56	C9H13+
123.0805	10	C8H11O+
123.1167	4	C9H15+
124.1121	29	C8H14N+
125.0961	7	C8H13O+
126.1278	58	C8H16N+
128.0619	13	C10H8+
129.0698	32	C10H9+
130.0777	15	C10H10+
131.0855	86	C10H11+
132.0932	2	C10H12+
133.1012	192	C10H13+
135.0805	2	C9H11O+
135.1167	28	C10H15+
137.0961	4	C9H13O+
140.107	33	C8H14NO+
141.0698	14	C11H9+
142.0777	37	C11H10+
143.0856	85	C11H11+
144.0932	14	C11H12+
145.1012	212	C11H13+
146.1089	1	C11H14+
147.1168	39	C11H15+
148.1121	6	C10H14N+
149.0962	3	C10H13O+
149.1322	5	C11H17+
150.1276	6	C10H16N+
151.1116	6	C10H15O+
153.0705	2	C12H9+
154.0777	3	C12H10+
155.0855	42	C12H11+
156.0934	23	C12H12+
157.1012	258	C12H13+
158.1089	12	C12H14+
159.1168	158	C12H15+
161.0959	5	C11H13O+
161.1324	38	C12H17+
162.128	2	C11H16N+
163.1119	8	C11H15O+
164.1433	2	C11H18N+
165.0701	4	C13H9+
166.0772	2	C13H10+
167.0853	10	C13H11+
168.0936	10	C13H12+
169.1012	49	C13H13+
170.1088	11	C13H14+
171.1168	123	C13H15+
173.1325	50	C13H17+
175.1116	8	C12H15O+
175.148	3	C13H19+
176.1433	2	C12H18N+
177.1274	3	C12H17O+
179.0851	6	C14H11+
180.0933	5	C14H12+
181.1011	18	C14H13+
182.1089	14	C14H14+
183.1169	44	C14H15+
184.1247	11	C14H16+
185.1326	39	C14H17+
187.1479	9	C14H19+
189.1273	3	C13H17O+
193.1013	9	C15H13+
194.1088	7	C15H14+
195.1169	34	C15H15+
196.1246	12	C15H16+
197.1325	43	C15H17+
198.1401	5	C15H18+
199.1481	17	C15H19+
201.1634	3	C15H21+
206.1092	2	C16H14+
207.1168	8	C16H15+
208.1243	4	C16H16+
209.1325	26	C16H17+
210.1405	3	C16H18+
211.1481	31	C16H19+
213.1637	47	C16H21+
219.1173	2	C17H15+
221.1325	10	C17H17+
222.14	4	C17H18+
223.1483	13	C17H19+
224.1559	3	C17H20+
225.1636	7	C17H21+
227.142	3	C16H19O+
227.179	3	C17H23+
229.1594	2	C16H21O+
233.1327	4	C18H17+
235.1481	9	C18H19+
236.1554	4	C18H20+
237.164	11	C18H21+
239.1791	6	C18H23+
247.1481	4	C19H19+
249.1637	7	C19H21+
250.1709	2	C19H22+
251.1792	8	C19H23+
253.1949	8	C19H25+
264.1868	5	C20H24+
279.2111	8	C21H27+
281.1899	3	C20H25O+
281.2257	3	C21H29+
287.2011	2	C19H27O2+
289.1946	2	C22H25+
295.2048	4	C21H27O+
321.2212	10	C23H29O+
394.31	4	C27H40NO+
412.3223	3	C27H42NO2+
