Mass spectrum: Fenchlorazole-ethyl; LC-ESI-QFT; MS2; CE: 30; R=17500; [M+H]+
Name: Fenchlorazole-ethyl
Name: ethyl 1-(2,4-dichlorophenyl)-5-(trichloromethyl)-1,2,4-triazole-3-carboxylate
Formula: C12H8Cl5N3O2
Exact mass: 400.9059
SMILES: CCOC(=O)C1=NN(C(=N1)C(Cl)(Cl)Cl)C1=C(Cl)C=C(Cl)C=C1
InChI: InChI=1S/C12H8Cl5N3O2/c1-2-22-10(21)9-18-11(12(15,16)17)20(19-9)8-4-3-6(13)5-7(8)14/h3-5H,2H2,1H3
Instrument: Q Exactive Orbitrap (Thermo Scientific)
Instrument type: LC-ESI-QFT
Ms type: MS2
Ion mode: POSITIVE
Ionization: ESI
Fragmentation mode: HCD
Collision energy: 30
Resolution: 17500
Column name: Acquity BEH C18 1.7um, 2.1x150mm (Waters)
Retention time: 18.831 min
Base peak: 79.0211
Precursor m/z: 401.9132
Precursor type: [M+H]+
Precursor intensity: 39429412.21875
m/z	relative intensity	assigned
116.9063	3	CCl3+
251.8935	3	C8H2Cl4N+
257.9393	1	C9H3Cl3N3+
287.8704	6	C8H3Cl5N+
301.928	4	C10H3Cl3N3O2+
303.9443	2	C10H5Cl3N3O2+
338.9136	11	C10H5Cl4N3O2+
355.8702	9	C10H3Cl5N3O+
373.882	999	C10H5Cl5N3O2+
387.8981	14	C11H7Cl5N3O2+
