Mass spectrum: CI-1018; LC-ESI-QFT; MS2; CE: 90; R=17500; [M+H]+
Name: CI-1018
Name: N-[(11R)-6-methyl-12-oxo-9-phenyl-1,10-diazatricyclo[6.4.1.04,13]trideca-4(13),5,7,9-tetraen-11-yl]pyridine-4-carboxamide
Formula: C24H20N4O2
Exact mass: 396.1586
SMILES: CC1=CC2=C3N(CC2)C(=O)[C@H](NC(=O)C2=CC=NC=C2)N=C(C2=CC=CC=C2)C3=C1
InChI: InChI=1S/C24H20N4O2/c1-15-13-18-9-12-28-21(18)19(14-15)20(16-5-3-2-4-6-16)26-22(24(28)30)27-23(29)17-7-10-25-11-8-17/h2-8,10-11,13-14,22H,9,12H2,1H3,(H,27,29)/t22-/m0/s1
Instrument: Q Exactive Orbitrap (Thermo Scientific)
Instrument type: LC-ESI-QFT
Ms type: MS2
Ion mode: POSITIVE
Ionization: ESI
Fragmentation mode: HCD
Collision energy: 90
Resolution: 17500
Column name: Acquity BEH C18 1.7um, 2.1x150mm (Waters)
Retention time: 17.174 min
Base peak: 79.0212
Precursor m/z: 397.1659
Precursor type: [M+H]+
Precursor intensity: 21949929.5
m/z	relative intensity	assigned
53.0386	4	C4H5+
65.0386	3	C5H5+
77.0386	2	C6H5+
78.0338	18	C5H4N+
79.0416	3	C5H5N+
80.0495	23	C5H6N+
89.0385	5	C7H5+
91.0542	96	C7H7+
95.0492	6	C6H7O+
95.0604	6	C5H7N2+
96.0445	3	C5H6NO+
103.0542	7	C8H7+
104.0495	27	C7H6N+
105.0337	1	C7H5O+
105.0447	11	C6H5N2+
106.0287	3	C6H4NO+
111.0314	1	C5H5NO2+
115.0542	244	C9H7+
116.0494	18	C8H6N+
116.062	13	C9H8+
117.0573	14	C8H7N+
117.0699	56	C9H9+
118.065	4	C8H8N+
123.0552	17	C6H7N2O+
128.0495	19	C9H6N+
128.062	2	C10H8+
129.0573	24	C9H7N+
130.0652	15	C9H8N+
131.0729	10	C9H9N+
132.0808	2	C9H10N+
134.06	7	C8H8NO+
135.0804	28	C9H11O+
140.0494	5	C10H6N+
141.0574	8	C10H7N+
142.0652	78	C10H8N+
143.073	164	C10H9N+
144.0808	426	C10H10N+
145.0659	4	C10H9O+
145.0759	34	C9H9N2+
146.06	8	C9H8NO+
154.065	1	C11H8N+
155.0603	14	C10H7N2+
156.0808	1	C11H10N+
158.0601	2	C10H8NO+
159.0917	1	C10H11N2+
160.0757	27	C10H10NO+
165.0697	4	C13H9+
167.0729	5	C12H9N+
168.0681	14	C11H8N2+
169.076	70	C11H9N2+
174.0917	3	C11H12NO+
178.0778	14	C14H10+
180.0807	1	C13H10N+
185.071	2	C11H9N2O+
187.0866	1	C11H11N2O+
190.0652	4	C14H8N+
191.0731	1	C14H9N+
192.0807	2	C14H10N+
193.1012	2	C15H13+
201.1029	1	C12H13N2O+
202.0777	4	C16H10+
203.073	2	C15H9N+
203.0857	2	C16H11+
204.0807	58	C15H10N+
205.0761	9	C14H9N2+
205.0886	20	C15H11N+
206.0837	2	C14H10N2+
207.0919	1	C14H11N2+
215.0731	1	C16H9N+
217.0887	5	C16H11N+
218.0838	10	C15H10N2+
218.0964	13	C16H12N+
219.0916	8	C15H11N2+
219.1043	9	C16H13N+
220.0994	3	C15H12N2+
220.1121	11	C16H14N+
221.1072	2	C15H13N2+
228.0805	2	C17H10N+
229.0885	1	C17H11N+
230.0838	5	C16H10N2+
230.0963	4	C17H12N+
231.0917	208	C16H11N2+
232.0995	56	C16H12N2+
242.0835	3	C17H10N2+
245.1074	64	C17H13N2+
246.1152	23	C17H14N2+
247.1229	999	C17H15N2+
255.0919	5	C18H11N2+
256.0996	4	C18H12N2+
257.1073	1	C18H13N2+
258.0786	3	C17H10N2O+
259.0866	9	C17H11N2O+
260.0946	2	C17H12N2O+
263.1179	2	C17H15N2O+
273.1024	2	C18H13N2O+
