Mass spectrum: (4-Aminophenyl)arsonic acid; LC-ESI-QFT; MS2; CE: 75; R=17500; [M+H]+
Name: (4-Aminophenyl)arsonic acid
Name: Arsanilic acid
Formula: C6H8AsNO3
Exact mass: 216.9720
SMILES: NC1=CC=C(C=C1)[As](O)(O)=O
InChI: InChI=1S/C6H8AsNO3/c8-6-3-1-5(2-4-6)7(9,10)11/h1-4H,8H2,(H2,9,10,11)
Instrument: Q Exactive Orbitrap (Thermo Scientific)
Instrument type: LC-ESI-QFT
Ms type: MS2
Ion mode: POSITIVE
Ionization: ESI
Fragmentation mode: HCD
Collision energy: 75
Resolution: 17500
Column name: Acquity BEH C18 1.7um, 2.1x150mm (Waters)
Retention time: 2.514 min
Base peak: 79.0211
Precursor m/z: 217.9793
Precursor type: [M+H]+
Precursor intensity: 5550050.09375
m/z	relative intensity	assigned
53.0022	8	C3HO+
53.0385	8	C4H5+
55.0542	2	C4H7+
56.0495	3	C3H6N+
65.0385	929	C5H5+
66.0338	2	C4H4N+
68.0495	2	C4H6N+
80.0494	356	C5H6N+
81.0573	48	C5H7N+
82.0413	8	C5H6O+
82.065	4	C5H8N+
83.0491	5	C5H7O+
90.916	65	AsO+
92.0495	224	C6H6N+
93.0336	3	C6H5O+
93.0574	13	C6H7N+
100.9366	3	C2H2As+
108.0444	616	C6H6NO+
109.0522	999	C6H7NO+
110.06	53	C6H8NO+
111.044	17	C6H7O2+
111.975	2	AsH7NO+
129.9857	93	AsH9NO2+
141.986	5	CH9AsNO2+
143.9648	11	AsH7NO3+
144.963	3	C4H6AsO+
145.9806	7	AsH9NO3+
153.9632	6	C5H5AsN+
153.9859	2	C2H9AsNO2+
181.9581	4	C6H5AsNO+
