Mass spectrum: Pimozide; LC-ESI-QFT; MS2; CE: 90; R=17500; [M+H]+
Name: Pimozide
Name: 3-[1-[4,4-bis(4-fluorophenyl)butyl]piperidin-4-yl]-1H-benzimidazol-2-one
Formula: C28H29F2N3O
Exact mass: 461.2279
SMILES: FC1=CC=C(C=C1)C(CCCN1CCC(CC1)N1C(=O)NC2=C1C=CC=C2)C1=CC=C(F)C=C1
InChI: InChI=1S/C28H29F2N3O/c29-22-11-7-20(8-12-22)25(21-9-13-23(30)14-10-21)4-3-17-32-18-15-24(16-19-32)33-27-6-2-1-5-26(27)31-28(33)34/h1-2,5-14,24-25H,3-4,15-19H2,(H,31,34)
Instrument: Q Exactive Orbitrap (Thermo Scientific)
Instrument type: LC-ESI-QFT
Ms type: MS2
Ion mode: POSITIVE
Ionization: ESI
Fragmentation mode: HCD
Collision energy: 90
Resolution: 17500
Column name: Acquity BEH C18 1.7um, 2.1x150mm (Waters)
Retention time: 15.883 min
Base peak: 79.0212
Precursor m/z: 462.2351
Precursor type: [M+H]+
Precursor intensity: 24998914.5
m/z	relative intensity	assigned
53.0022	3	C3HO+
53.0386	11	C4H5+
54.0338	2	C3H4N+
55.0542	106	C4H7+
56.0495	24	C3H6N+
57.0134	6	C3H2F+
57.0699	1	C4H9+
58.0652	2	C3H8N+
59.0291	4	C3H4F+
63.0228	4	FH2N3+
65.0386	14	C5H5+
67.0416	4	C4H5N+
67.0542	30	C5H7+
68.0495	8	C4H6N+
69.0572	5	C4H7N+
69.0699	6	C5H9+
70.0651	48	C4H8N+
75.0228	3	CH2FN3+
79.0543	1	C6H7+
80.0495	15	C5H6N+
81.0572	2	C5H7N+
81.0698	1	C6H9+
82.0651	27	C5H8N+
83.0291	96	C5H4F+
83.0729	7	C5H9N+
84.0808	21	C5H10N+
89.0385	8	C7H5+
90.0338	2	C6H4N+
91.0542	8	C7H7+
92.0494	11	C6H6N+
93.0574	3	C6H7N+
94.065	4	C6H8N+
95.0492	16	C6H7O+
95.073	2	C6H9N+
96.0808	26	C6H10N+
97.0449	1	C6H6F+
97.0886	2	C6H11N+
98.0964	35	C6H12N+
101.0386	2	C8H5+
103.0542	111	C8H7+
104.0495	2	C7H6N+
105.0448	7	C6H5N2+
107.0604	17	C6H7N2+
108.0809	1	C7H10N+
109.0448	999	C7H6F+
110.0964	31	C7H12N+
115.0542	13	C9H7+
117.0572	2	C8H7N+
118.0651	13	C8H8N+
119.0492	5	C8H7O+
119.0604	16	C7H7N2+
121.0448	28	C8H6F+
122.0964	7	C8H12N+
123.0605	21	C8H8F+
124.1121	15	C8H14N+
127.0542	10	C10H7+
128.0494	9	C9H6N+
128.062	6	C10H8+
129.0447	14	C8H5N2+
129.0699	8	C10H9+
130.0651	84	C9H8N+
131.0611	3	C5H8FN2O+
131.0729	44	C9H9N+
133.0448	11	C9H6F+
134.0474	2	C7H6N2O+
134.0527	13	C9H7F+
135.0553	26	C7H7N2O+
135.0606	19	C9H8F+
144.0682	1	C9H8N2+
145.0651	29	C10H9O+
145.0759	53	C9H9N2+
146.0527	63	C10H7F+
146.0597	5	C9H8NO+
147.0605	43	C10H8F+
148.0756	1	C9H10NO+
149.0761	21	C10H10F+
155.0603	45	C10H7N2+
156.0442	2	C10H6NO+
158.0475	21	C9H6N2O+
159.0918	1	C10H11N2+
169.065	2	C12H9O+
170.0526	5	C12H7F+
171.0551	8	C10H7N2O+
172.0632	5	C10H8N2O+
173.0709	45	C10H9N2O+
176.0619	10	C9H7FN3+
177.0696	8	C9H8FN3+
183.0605	223	C13H8F+
185.0705	1	C11H9N2O+
187.0866	10	C11H11N2O+
188.0428	4	C12H6F2+
195.0608	2	C14H8F+
196.0683	20	C14H9F+
197.0761	5	C14H10F+
201.0511	66	C13H7F2+
202.0588	13	C13H8F2+
203.0667	23	C13H9F2+
214.0584	4	C14H8F2+
215.0671	1	C14H9F2+
