Mass spectrum: N-[3-(Dimethylamino)propyl]dodecanamide; LC-ESI-QFT; MS2; CE: 45; R=17500; [M+H]+
Name: N-[3-(Dimethylamino)propyl]dodecanamide
Formula: C17H36N2O
Exact mass: 284.2828
SMILES: CCCCCCCCCCCC(=O)NCCCN(C)C
InChI: InChI=1S/C17H36N2O/c1-4-5-6-7-8-9-10-11-12-14-17(20)18-15-13-16-19(2)3/h4-16H2,1-3H3,(H,18,20)
Instrument: Q Exactive Orbitrap (Thermo Scientific)
Instrument type: LC-ESI-QFT
Ms type: MS2
Ion mode: POSITIVE
Ionization: ESI
Fragmentation mode: HCD
Collision energy: 45
Resolution: 17500
Column name: Acquity BEH C18 1.7um, 2.1x150mm (Waters)
Retention time: 17.468 min
Base peak: 79.0211
Precursor m/z: 285.29
Precursor type: [M+H]+
Precursor intensity: 63448944.125
m/z	relative intensity	assigned
55.0542	2	C4H7+
57.0699	57	C4H9+
58.0651	40	C3H8N+
67.0542	8	C5H7+
69.0698	3	C5H9+
71.0855	43	C5H11+
81.0698	14	C6H9+
83.0855	20	C6H11+
85.1011	35	C6H13+
86.0964	47	C5H12N+
95.0855	52	C7H11+
97.1012	7	C7H13+
99.1168	3	C7H15+
103.1229	6	C5H15N2+
109.1012	40	C8H13+
123.1167	10	C9H15+
165.1638	7	C12H21+
183.1743	87	C12H23O+
239.2355	1	C16H31O+
240.2321	999	C15H30NO+
285.29	10	C17H37N2O+
