Mass spectrum: Cyprodinil; LC-ESI-QFT; MS2; CE: 75; R=17500; [M+H]+
Name: Cyprodinil
Name: 4-cyclopropyl-6-methyl-N-phenylpyrimidin-2-amine
Formula: C14H15N3
Exact mass: 225.1266
SMILES: CC1=NC(NC2=CC=CC=C2)=NC(=C1)C1CC1
InChI: InChI=1S/C14H15N3/c1-10-9-13(11-7-8-11)17-14(15-10)16-12-5-3-2-4-6-12/h2-6,9,11H,7-8H2,1H3,(H,15,16,17)
Instrument: Q Exactive Orbitrap (Thermo Scientific)
Instrument type: LC-ESI-QFT
Ms type: MS2
Ion mode: POSITIVE
Ionization: ESI
Fragmentation mode: HCD
Collision energy: 75
Resolution: 17500
Column name: Acquity BEH C18 1.7um, 2.1x150mm (Waters)
Retention time: 17.671 min
Base peak: 79.0211
Precursor m/z: 226.1339
Precursor type: [M+H]+
Precursor intensity: 54246535.0625
m/z	relative intensity	assigned
51.0231	2	C4H3+
53.0386	42	C4H5+
54.0339	5	C3H4N+
55.0542	4	C4H7+
56.0495	9	C3H6N+
58.0651	3	C3H8N+
65.0385	215	C5H5+
66.0337	7	C4H4N+
66.0464	18	C5H6+
67.029	12	C3H3N2+
67.0416	21	C4H5N+
67.0542	98	C5H7+
68.0494	69	C4H6N+
70.0651	4	C4H8N+
77.0384	20	C6H5+
78.0338	3	C5H4N+
78.0463	9	C6H6+
79.0542	226	C6H7+
80.0494	118	C5H6N+
81.0573	11	C5H7N+
81.0698	133	C6H9+
82.0651	67	C5H8N+
83.0604	11	C4H7N2+
84.0808	25	C5H10N+
89.0385	30	C7H5+
90.0339	2	C6H4N+
91.0542	393	C7H7+
92.0495	235	C6H6N+
92.062	39	C7H8+
93.0573	999	C6H7N+
94.0412	3	C4H4N3+
94.0651	64	C6H8N+
95.0491	113	C4H5N3+
96.0808	4	C6H10N+
103.0416	3	C7H5N+
103.0541	2	C8H7+
104.0495	59	C7H6N+
105.0447	60	C6H5N2+
106.0651	346	C7H8N+
107.0603	15	C6H7N2+
107.073	24	C7H9N+
108.0683	91	C6H8N2+
108.0807	503	C7H10N+
109.0648	7	C5H7N3+
109.076	45	C6H9N2+
109.0885	13	C7H11N+
115.0542	23	C9H7+
116.0494	93	C8H6N+
117.0446	12	C7H5N2+
117.0573	86	C8H7N+
117.0698	11	C9H9+
118.0525	274	C7H6N2+
118.065	98	C8H8N+
119.0603	274	C7H7N2+
120.0809	3	C8H10N+
121.0761	2	C7H9N2+
122.084	1	C7H10N2+
123.0916	24	C7H11N2+
128.0494	8	C9H6N+
128.0622	3	C10H8+
129.0696	2	C10H9+
130.0401	5	C7H4N3+
130.065	10	C9H8N+
131.0604	96	C8H7N2+
132.0682	137	C8H8N2+
133.076	193	C8H9N2+
134.0712	4	C7H8N3+
140.0494	12	C10H6N+
141.0698	7	C11H9+
142.0523	1	C9H6N2+
142.0651	33	C10H8N+
143.0604	99	C9H7N2+
143.0729	18	C10H9N+
144.0558	9	C8H6N3+
144.0807	107	C10H10N+
145.0655	3	C8H7N3+
145.0759	53	C9H9N2+
148.0868	6	C8H10N3+
150.1026	3	C8H12N3+
153.0573	2	C11H7N+
154.0649	9	C11H8N+
155.0605	5	C10H7N2+
156.0681	15	C10H8N2+
156.0808	5	C11H10N+
157.076	19	C10H9N2+
158.0843	7	C10H10N2+
158.0963	6	C11H12N+
159.0916	46	C10H11N2+
160.0865	2	C9H10N3+
165.07	14	C13H9+
166.0652	5	C12H8N+
167.0608	13	C11H7N2+
167.0729	59	C12H9N+
168.0683	27	C11H8N2+
168.0806	40	C12H10N+
169.0637	7	C10H7N3+
169.0759	30	C11H9N2+
169.0889	3	C12H11N+
170.0838	8	C11H10N2+
171.0916	10	C11H11N2+
179.0603	1	C12H7N2+
180.0809	7	C13H10N+
181.076	18	C12H9N2+
181.0887	4	C13H11N+
182.0715	4	C11H8N3+
182.0838	24	C12H10N2+
182.0961	10	C13H12N+
183.0792	29	C11H9N3+
183.0916	27	C12H11N2+
184.0869	70	C11H10N3+
184.0995	5	C12H12N2+
184.1123	3	C13H14N+
185.1073	44	C12H13N2+
190.0648	2	C14H8N+
191.0729	13	C14H9N+
192.0673	2	C13H8N2+
192.0808	7	C14H10N+
193.0761	53	C13H9N2+
193.0884	7	C14H11N+
194.0839	91	C13H10N2+
195.0917	3	C13H11N2+
196.0872	9	C12H10N3+
197.0948	17	C12H11N3+
197.1063	3	C13H13N2+
198.1025	30	C12H12N3+
199.1103	8	C12H13N3+
199.1229	5	C13H15N2+
200.1186	2	C12H14N3+
206.0839	2	C14H10N2+
207.0916	51	C14H11N2+
208.0878	2	C13H10N3+
208.0993	28	C14H12N2+
209.1073	58	C14H13N2+
210.1025	172	C13H12N3+
211.1103	32	C13H13N3+
224.1181	41	C14H14N3+
225.1264	3	C14H15N3+
226.1338	476	C14H16N3+
