Mass spectrum: 2-(Propan-2-yl)-9H-thioxanthen-9-one; LC-ESI-QFT; MS2; CE: 30; R=17500; [M+H]+
Name: 2-(Propan-2-yl)-9H-thioxanthen-9-one
Name: 2-Isopropylthioxanthone
Name: 2-propan-2-ylthioxanthen-9-one
Formula: C16H14OS
Exact mass: 254.0765
SMILES: CC(C)C1=CC2=C(SC3=C(C=CC=C3)C2=O)C=C1
InChI: InChI=1S/C16H14OS/c1-10(2)11-7-8-15-13(9-11)16(17)12-5-3-4-6-14(12)18-15/h3-10H,1-2H3
Instrument: Q Exactive Orbitrap (Thermo Scientific)
Instrument type: LC-ESI-QFT
Ms type: MS2
Ion mode: POSITIVE
Ionization: ESI
Fragmentation mode: HCD
Collision energy: 30
Resolution: 17500
Column name: Acquity BEH C18 1.7um, 2.1x150mm (Waters)
Retention time: 20.292 min
Base peak: 79.0211
Precursor m/z: 255.0838
Precursor type: [M+H]+
Precursor intensity: 4653973.125
m/z	relative intensity	assigned
184.0348	1	C12H8S+
213.0368	520	C13H9OS+
239.0523	1	C15H11OS+
240.06	1	C15H12OS+
255.0837	999	C16H15OS+
