Mass spectrum: Chloramphenicol; LC-ESI-QFT; MS2; CE: 60; R=17500; [M-H]-
Name: Chloramphenicol
Name: 2,2-dichloro-N-[(1R,2R)-1,3-dihydroxy-1-(4-nitrophenyl)propan-2-yl]acetamide
Formula: C11H12Cl2N2O5
Exact mass: 322.0123
SMILES: OC[C@@H](NC(=O)C(Cl)Cl)[C@H](O)C1=CC=C(C=C1)[N+]([O-])=O
InChI: InChI=1S/C11H12Cl2N2O5/c12-10(13)11(18)14-8(5-16)9(17)6-1-3-7(4-2-6)15(19)20/h1-4,8-10,16-17H,5H2,(H,14,18)/t8-,9-/m1/s1
Instrument: Q Exactive Orbitrap (Thermo Scientific)
Instrument type: LC-ESI-QFT
Ms type: MS2
Ion mode: NEGATIVE
Ionization: ESI
Fragmentation mode: HCD
Collision energy: 60
Resolution: 17500
Column name: Acquity BEH C18 1.7um, 2.1x150mm (Waters)
Retention time: 13.753 min
Base peak: 321.005
Precursor m/z: 321.0051
Precursor type: [M-H]-
Precursor intensity: 12186022.75391
m/z	relative intensity	assigned
50.0037	2	C3N-
65.9985	3	C3NO-
70.946	3	Cl2H-
71.0139	5	C3H3O2-
78.0349	109	C5H4N-
79.019	10	C5H3O-
82.9461	137	CHCl2-
84.009	24	C3H2NO2-
91.0189	2	C6H3O-
92.0266	2	C6H4O-
93.0346	9	C6H5O-
98.0247	3	C4H4NO2-
105.022	12	C6H3NO-
105.0346	3	C7H5O-
106.0298	22	C6H4NO-
108.0216	7	C6H4O2-
117.0346	22	C8H5O-
121.0295	999	C7H5O2-
122.0247	48	C6H4NO2-
123.0327	5	C6H5NO2-
124.0404	12	C6H6NO2-
126.9359	9	C2HCl2O2-
131.0377	4	C8H5NO-
133.0297	2	C8H5O2-
134.0375	2	C8H6O2-
135.0325	21	C7H5NO2-
136.0402	6	C7H6NO2-
145.0293	4	C9H5O2-
146.0375	3	C9H6O2-
148.0404	28	C8H6NO2-
150.0199	7	C7H4NO3-
151.0274	403	C7H5NO3-
152.0353	142	C7H6NO3-
159.0326	32	C9H5NO2-
161.0357	15	C8H5N2O2-
162.0198	19	C8H4NO3-
166.0147	5	C7H4NO4-
175.0276	3	C9H5NO3-
176.0352	4	C9H6NO3-
179.0462	6	C8H7N2O3-
