Mass spectrum: N,N`-Dicyclohexylthiourea; LC-ESI-QFT; MS2; CE: 60; R=17500; [M-H]-
Name: N,N'-Dicyclohexylthiourea
Name: N,N'-dicyclohexylcarbamimidothioic acid
Formula: C13H24N2S
Exact mass: 240.1660
SMILES: S=C(NC1CCCCC1)NC1CCCCC1
InChI: InChI=1S/C13H24N2S/c16-13(14-11-7-3-1-4-8-11)15-12-9-5-2-6-10-12/h11-12H,1-10H2,(H2,14,15,16)
Instrument: Q Exactive Orbitrap (Thermo Scientific)
Instrument type: LC-ESI-QFT
Ms type: MS2
Ion mode: NEGATIVE
Ionization: ESI
Fragmentation mode: HCD
Collision energy: 60
Resolution: 17500
Column name: Acquity BEH C18 1.7um, 2.1x150mm (Waters)
Retention time: 17.797 min
Base peak: 253.0506
Precursor m/z: 239.1587
Precursor type: [M-H]-
Precursor intensity: 8951732.375
m/z	relative intensity	assigned
57.9756	199	CNS-
106.0662	999	C7H8N-
123.0929	253	C7H11N2-
