Mass spectrum: Demeton-S-methylsulphon; LC-ESI-QFT; MS2; CE: 90; R=17500; [M+H]+
Name: Demeton-S-methylsulphon
Name: 1-dimethoxyphosphorylsulfanyl-2-ethylsulfonylethane
Formula: C6H15O5PS2
Exact mass: 262.0099
SMILES: CCS(=O)(=O)CCSP(=O)(OC)OC
InChI: InChI=1S/C6H15O5PS2/c1-4-14(8,9)6-5-13-12(7,10-2)11-3/h4-6H2,1-3H3
Instrument: Q Exactive Orbitrap (Thermo Scientific)
Instrument type: LC-ESI-QFT
Ms type: MS2
Ion mode: POSITIVE
Ionization: ESI
Fragmentation mode: HCD
Collision energy: 90
Resolution: 17500
Column name: Acquity BEH C18 1.7um, 2.1x150mm (Waters)
Retention time: 11.013 min
Base peak: 79.0212
Precursor m/z: 263.0171
Precursor type: [M+H]+
Precursor intensity: 6305201.5
m/z	relative intensity	assigned
53.0022	1	C3HO+
58.995	44	C2H3S+
59.9663	1	COS+
61.0106	25	C2H5S+
62.0185	20	C2H6S+
62.9899	4	CH3OS+
64.9787	9	H2O2P+
74.9899	30	C2H3OS+
75.0263	2	C3H7S+
77.0055	8	C2H5OS+
78.9943	539	CH4O2P+
80.9464	22	HOS2+
90.967	5	C2H3S2+
93.0005	30	C2H5O2S+
94.9716	2	CH4OPS+
96.9604	2	HO4S+
97.0049	29	CH6O3P+
98.9843	8	H4O4P+
108.9776	7	C2H5OS2+
112.9999	22	CH6O4P+
114.9709	31	H3O5S+
124.982	8	C2H6O2PS+
127.0155	999	C2H8O4P+
128.977	100	CH6O3PS+
141.0312	3	C3H10O4P+
142.9927	165	C2H8O3PS+
145.0265	2	C2H10O5P+
157.0081	3	C3H10O3PS+
174.974	2	C2H7O5S2+
