Mass spectrum: N-Benzyladenine; LC-ESI-QFT; MS2; CE: 45; R=17500; [M+H]+
Name: N-Benzyladenine
Name: 6-Benzylaminopurine
Name: N-benzyl-7H-purin-6-amine
Formula: C12H11N5
Exact mass: 225.1014
SMILES: C(NC1=C2N=CN=C2N=CN1)C1=CC=CC=C1
InChI: InChI=1S/C12H11N5/c1-2-4-9(5-3-1)6-13-11-10-12(15-7-14-10)17-8-16-11/h1-5,7-8H,6H2,(H2,13,14,15,16,17)
Instrument: Q Exactive Orbitrap (Thermo Scientific)
Instrument type: LC-ESI-QFT
Ms type: MS2
Ion mode: POSITIVE
Ionization: ESI
Fragmentation mode: HCD
Collision energy: 45
Resolution: 17500
Column name: Acquity BEH C18 1.7um, 2.1x150mm (Waters)
Retention time: 13.340 min
Base peak: 79.0211
Precursor m/z: 226.1087
Precursor type: [M+H]+
Precursor intensity: 24632626.25
m/z	relative intensity	assigned
65.0385	5	C5H5+
91.0541	999	C7H7+
109.0508	1	C4H5N4+
148.0616	19	C6H6N5+
157.0759	1	C10H9N2+
184.0867	2	C11H10N3+
199.0979	1	C11H11N4+
209.0818	1	C12H9N4+
226.1086	209	C12H12N5+
