Mass spectrum: 17-Methyltestosterone; LC-ESI-QFT; MS2; CE: 15; R=17500; [M+H]+
Name: 17-Methyltestosterone
Name: Methyltestosterone
Name: (8R,9S,10R,13S,14S,17S)-17-hydroxy-10,13,17-trimethyl-2,6,7,8,9,11,12,14,15,16-decahydro-1H-cyclopenta[a]phenanthren-3-one
Formula: C20H30O2
Exact mass: 302.2246
SMILES: C[C@]1(O)CC[C@H]2[C@@H]3CCC4=CC(=O)CC[C@]4(C)[C@H]3CC[C@]12C
InChI: InChI=1S/C20H30O2/c1-18-9-6-14(21)12-13(18)4-5-15-16(18)7-10-19(2)17(15)8-11-20(19,3)22/h12,15-17,22H,4-11H2,1-3H3/t15-,16+,17+,18+,19+,20+/m1/s1
Instrument: Q Exactive Orbitrap (Thermo Scientific)
Instrument type: LC-ESI-QFT
Ms type: MS2
Ion mode: POSITIVE
Ionization: ESI
Fragmentation mode: HCD
Collision energy: 15
Resolution: 17500
Column name: Acquity BEH C18 1.7um, 2.1x150mm (Waters)
Retention time: 18.150 min
Base peak: 79.0212
Precursor m/z: 303.2319
Precursor type: [M+H]+
Precursor intensity: 7519918.25
m/z	relative intensity	assigned
83.0491	1	C5H7O+
95.0855	1	C7H11+
97.0648	22	C6H9O+
109.0647	10	C7H9O+
123.0808	1	C8H11O+
177.1273	1	C12H17O+
177.1638	3	C13H21+
185.1325	1	C14H17+
189.1639	8	C14H21+
201.1637	1	C15H21+
203.1797	2	C15H23+
211.1478	1	C16H19+
227.1795	4	C17H23+
229.1588	1	C16H21O+
245.1896	2	C17H25O+
267.2109	10	C20H27+
285.2213	39	C20H29O+
303.2318	999	C20H31O2+
