Mass spectrum: Leflunomide; LC-ESI-QFT; MS2; CE: 75; R=17500; [M-H]-
Name: Leflunomide
Name: 5-methyl-N-[4-(trifluoromethyl)phenyl]-1,2-oxazole-4-carboxamide
Formula: C12H9F3N2O2
Exact mass: 270.0616
SMILES: CC1=C(C=NO1)C(=O)NC1=CC=C(C=C1)C(F)(F)F
InChI: InChI=1S/C12H9F3N2O2/c1-7-10(6-16-19-7)11(18)17-9-4-2-8(3-5-9)12(13,14)15/h2-6H,1H3,(H,17,18)
Instrument: Q Exactive Orbitrap (Thermo Scientific)
Instrument type: LC-ESI-QFT
Ms type: MS2
Ion mode: NEGATIVE
Ionization: ESI
Fragmentation mode: HCD
Collision energy: 75
Resolution: 17500
Column name: Acquity BEH C18 1.7um, 2.1x150mm (Waters)
Retention time: 17.631 min
Base peak: 269.0544
Precursor m/z: 269.0543
Precursor type: [M-H]-
Precursor intensity: 139470947.5039
m/z	relative intensity	assigned
50.0035	1	C3N-
64.0193	35	C4H2N-
65.0146	2	C3HN2-
65.9985	265	C3NO-
74.0037	1	C5N-
82.0298	999	C4H4NO-
100.0193	45	C7H2N-
107.0249	2	C5H3N2O-
120.0255	38	C7H3FN-
138.0361	20	C7H5FNO-
140.0316	14	C7H4F2N-
145.0206	3	C8H2FN2-
160.0379	202	C7H5F3N-
