Mass spectrum: Cotinine; LC-ESI-QFT; MS2; CE: 45; R=17500; [M+H]+
Name: Cotinine
Name: (5S)-1-methyl-5-pyridin-3-ylpyrrolidin-2-one
Formula: C10H12N2O
Exact mass: 176.0950
SMILES: CN1[C@@H](CCC1=O)C1=CN=CC=C1
InChI: InChI=1S/C10H12N2O/c1-12-9(4-5-10(12)13)8-3-2-6-11-7-8/h2-3,6-7,9H,4-5H2,1H3/t9-/m0/s1
Instrument: Q Exactive Orbitrap (Thermo Scientific)
Instrument type: LC-ESI-QFT
Ms type: MS2
Ion mode: POSITIVE
Ionization: ESI
Fragmentation mode: HCD
Collision energy: 45
Resolution: 17500
Column name: Acquity BEH C18 1.7um, 2.1x150mm (Waters)
Retention time: 2.480 min
Base peak: 79.0211
Precursor m/z: 177.1022
Precursor type: [M+H]+
Precursor intensity: 12261369.59375
m/z	relative intensity	assigned
58.0287	2	C2H4NO+
68.0495	1	C4H6N+
70.0651	8	C4H8N+
74.0964	1	C4H12N+
80.0494	613	C5H6N+
91.0543	1	C7H7+
94.0651	1	C6H8N+
98.06	229	C5H8NO+
106.0651	1	C7H8N+
118.065	23	C8H8N+
119.073	2	C8H9N+
120.0808	12	C8H10N+
134.0598	1	C8H8NO+
135.0917	1	C8H11N2+
146.06	71	C9H8NO+
148.0757	2	C9H10NO+
149.0709	12	C8H9N2O+
159.0914	4	C10H11N2+
160.0757	2	C10H10NO+
177.1021	999	C10H13N2O+
