Mass spectrum: PK 11195; LC-ESI-QFT; MS2; CE: 45; R=17500; [M+H]+
Name: PK 11195
Name: 1-(2-Chlorophenyl)-N-methyl-N-(1-methylpropyl)-3-isoquinolinecarboxamide
Name: N-butan-2-yl-1-(2-chlorophenyl)-N-methylisoquinoline-3-carboxamide
Formula: C21H21ClN2O
Exact mass: 352.1342
SMILES: CCC(C)N(C)C(=O)C1=CC2=C(C=CC=C2)C(=N1)C1=CC=CC=C1Cl
InChI: InChI=1S/C21H21ClN2O/c1-4-14(2)24(3)21(25)19-13-15-9-5-6-10-16(15)20(23-19)17-11-7-8-12-18(17)22/h5-14H,4H2,1-3H3
Instrument: Q Exactive Orbitrap (Thermo Scientific)
Instrument type: LC-ESI-QFT
Ms type: MS2
Ion mode: POSITIVE
Ionization: ESI
Fragmentation mode: HCD
Collision energy: 45
Resolution: 17500
Column name: Acquity BEH C18 1.7um, 2.1x150mm (Waters)
Retention time: 18.557 min
Base peak: 79.0211
Precursor m/z: 353.1415
Precursor type: [M+H]+
Precursor intensity: 25636122.5
m/z	relative intensity	assigned
57.0698	4	C4H9+
203.0727	16	C15H9N+
220.0753	5	C15H10NO+
238.0416	156	C15H9ClN+
252.0576	9	C16H11ClN+
256.0521	999	C15H11ClNO+
258.0563	2	C14H11ClN2O+
270.0678	19	C16H13ClNO+
279.0682	206	C17H12ClN2+
297.0788	89	C17H14ClN2O+
