Mass spectrum: Hexaconazole; LC-ESI-QFT; MS2; CE: 75; R=17500; [M+H]+
Name: Hexaconazole
Name: 2-(2,4-dichlorophenyl)-1-(1,2,4-triazol-1-yl)hexan-2-ol
Formula: C14H17Cl2N3O
Exact mass: 313.0749
SMILES: CCCCC(O)(CN1C=NC=N1)C1=CC=C(Cl)C=C1Cl
InChI: InChI=1S/C14H17Cl2N3O/c1-2-3-6-14(20,8-19-10-17-9-18-19)12-5-4-11(15)7-13(12)16/h4-5,7,9-10,20H,2-3,6,8H2,1H3
Instrument: Q Exactive Orbitrap (Thermo Scientific)
Instrument type: LC-ESI-QFT
Ms type: MS2
Ion mode: POSITIVE
Ionization: ESI
Fragmentation mode: HCD
Collision energy: 75
Resolution: 17500
Column name: Acquity BEH C18 1.7um, 2.1x150mm (Waters)
Retention time: 18.898 min
Base peak: 79.0211
Precursor m/z: 314.0821
Precursor type: [M+H]+
Precursor intensity: 18723771.25
m/z	relative intensity	assigned
53.0022	1	C3HO+
55.0543	7	C4H7+
57.0699	18	C4H9+
59.049	1	C3H7O+
70.0399	999	C2H4N3+
75.0229	1	C6H3+
86.9996	3	C4H4Cl+
89.0385	3	C7H5+
95.0491	1	C6H7O+
98.9996	1	C5H4Cl+
102.0465	1	C8H6+
105.0334	1	C7H5O+
115.0542	13	C9H7+
122.9995	9	C7H4Cl+
124.0073	2	C7H5Cl+
125.0152	47	C7H6Cl+
129.0101	8	C6H6ClO+
132.9605	1	C5H3Cl2+
136.0075	10	C8H5Cl+
137.0153	1	C8H6Cl+
139.0057	15	C6H4ClN2+
146.9762	8	C6H5Cl2+
149.0152	9	C9H6Cl+
150.023	22	C9H7Cl+
153.0102	2	C8H6ClO+
154.0179	1	C8H7ClO+
158.9762	159	C7H5Cl2+
163.0058	1	C8H4ClN2+
170.9762	8	C8H5Cl2+
174.9712	4	C7H5Cl2O+
184.9918	3	C9H7Cl2+
