Mass spectrum: Ilepatril; LC-ESI-QFT; MS2; CE: 15; R=17500; [M-H]-
Name: Ilepatril
Name: (4S,7S,12bR)-7-[[(2S)-2-acetylsulfanyl-3-methylbutanoyl]amino]-6-oxo-2,3,4,7,8,12b-hexahydro-1H-pyrido[2,1-a][2]benzazepine-4-carboxylic acid
Formula: C22H28N2O5S
Exact mass: 432.1719
SMILES: CC(C)[C@H](SC(C)=O)C(=O)N[C@H]1CC2=C(C=CC=C2)[C@H]2CCC[C@H](N2C1=O)C(O)=O
InChI: InChI=1S/C22H28N2O5S/c1-12(2)19(30-13(3)25)20(26)23-16-11-14-7-4-5-8-15(14)17-9-6-10-18(22(28)29)24(17)21(16)27/h4-5,7-8,12,16-19H,6,9-11H2,1-3H3,(H,23,26)(H,28,29)/t16-,17+,18-,19-/m0/s1
Instrument: Q Exactive Orbitrap (Thermo Scientific)
Instrument type: LC-ESI-QFT
Ms type: MS2
Ion mode: NEGATIVE
Ionization: ESI
Fragmentation mode: HCD
Collision energy: 15
Resolution: 17500
Column name: Acquity BEH C18 1.7um, 2.1x150mm (Waters)
Retention time: 16.862 min
Base peak: 231.0097
Precursor m/z: 431.1646
Precursor type: [M-H]-
Precursor intensity: 15074564.1748
m/z	relative intensity	assigned
59.0138	6	C2H3O2-
74.991	77	C2H3OS-
132.0488	18	C5H10NOS-
140.0717	25	C7H10NO2-
156.0489	3	C7H10NOS-
212.1081	3	C14H14NO-
214.0873	212	C13H12NO2-
225.1036	1	C14H13N2O-
227.119	1	C14H15N2O-
228.103	6	C14H14NO2-
255.1148	2	C9H21NO5S-
256.0979	32	C15H14NO3-
271.1087	10	C15H15N2O3-
272.0928	9	C15H14NO4-
273.1244	4	C15H17N2O3-
311.1765	10	C19H23N2O2-
312.1609	3	C19H22NO3-
315.1351	1	C17H19N2O4-
327.1536	16	C19H23N2OS-
345.164	4	C19H25N2O2S-
346.1493	3	C19H24NO3S-
355.1663	64	C20H23N2O4-
359.1801	1	C20H27N2O2S-
371.1436	14	C20H23N2O3S-
389.1541	999	C20H25N2O4S-
