Mass spectrum: Fluorescein; LC-ESI-QFT; MS2; CE: 45; R=17500; [M+H]+
Name: Fluorescein
Name: 3',6'-dihydroxyspiro[2-benzofuran-3,9'-xanthene]-1-one
Formula: C20H12O5
Exact mass: 332.0685
SMILES: OC1=CC2=C(C=C1)C1(OC(=O)C3=C1C=CC=C3)C1=C(O2)C=C(O)C=C1
InChI: InChI=1S/C20H12O5/c21-11-5-7-15-17(9-11)24-18-10-12(22)6-8-16(18)20(15)14-4-2-1-3-13(14)19(23)25-20/h1-10,21-22H
Instrument: Q Exactive Orbitrap (Thermo Scientific)
Instrument type: LC-ESI-QFT
Ms type: MS2
Ion mode: POSITIVE
Ionization: ESI
Fragmentation mode: HCD
Collision energy: 45
Resolution: 17500
Column name: Acquity BEH C18 1.7um, 2.1x150mm (Waters)
Retention time: 15.821 min
Base peak: 79.0211
Precursor m/z: 333.0757
Precursor type: [M+H]+
Precursor intensity: 18399140.375
m/z	relative intensity	assigned
231.0803	1	C17H11O+
259.0753	2	C18H11O2+
271.0753	19	C19H11O2+
287.0703	36	C19H11O3+
289.086	18	C19H13O3+
305.081	15	C19H13O4+
315.0655	5	C20H11O4+
316.0714	1	C20H12O4+
333.0758	999	C20H13O5+
