Mass spectrum: Clorophene; LC-ESI-QFT; MS2; CE: 75; R=17500; [M-H]-
Name: Clorophene
Name: 2-benzyl-4-chlorophenol
Formula: C13H11ClO
Exact mass: 218.0498
SMILES: OC1=C(CC2=CC=CC=C2)C=C(Cl)C=C1
InChI: InChI=1S/C13H11ClO/c14-12-6-7-13(15)11(9-12)8-10-4-2-1-3-5-10/h1-7,9,15H,8H2
Instrument: Q Exactive Orbitrap (Thermo Scientific)
Instrument type: LC-ESI-QFT
Ms type: MS2
Ion mode: NEGATIVE
Ionization: ESI
Fragmentation mode: HCD
Collision energy: 75
Resolution: 17500
Column name: Acquity BEH C18 1.7um, 2.1x150mm (Waters)
Retention time: 18.870 min
Base peak: 112.9856
Precursor m/z: 217.0426
Precursor type: [M-H]-
Precursor intensity: 42498523.03125
m/z	relative intensity	assigned
79.0189	67	C5H3O-
93.0345	22	C6H5O-
101.0397	999	C8H5-
127.0556	74	C10H7-
131.0502	66	C9H7O-
140.0036	45	C7H5ClO-
151.0554	70	C12H7-
152.0631	360	C12H8-
153.0711	218	C12H9-
169.0654	26	C12H9O-
180.058	198	C13H8O-
181.0661	65	C13H9O-
217.0425	707	C13H10ClO-
