Mass spectrum: N-(4-Methoxyphenyl)-3-oxobutanamide; LC-ESI-QFT; MS2; CE: 90; R=17500; [M+H]+
Name: N-(4-Methoxyphenyl)-3-oxobutanamide
Name: 4'-Methoxyacetoacetanilide
Formula: C11H13NO3
Exact mass: 207.0895
SMILES: COC1=CC=C(NC(=O)CC(C)=O)C=C1
InChI: InChI=1S/C11H13NO3/c1-8(13)7-11(14)12-9-3-5-10(15-2)6-4-9/h3-6H,7H2,1-2H3,(H,12,14)
Instrument: Q Exactive Orbitrap (Thermo Scientific)
Instrument type: LC-ESI-QFT
Ms type: MS2
Ion mode: POSITIVE
Ionization: ESI
Fragmentation mode: HCD
Collision energy: 90
Resolution: 17500
Column name: Acquity BEH C18 1.7um, 2.1x150mm (Waters)
Retention time: 12.857 min
Base peak: 79.0211
Precursor m/z: 208.0968
Precursor type: [M+H]+
Precursor intensity: 2433323.28125
m/z	relative intensity	assigned
53.0387	44	C4H5+
59.0492	139	C3H7O+
65.0386	118	C5H5+
67.0543	47	C5H7+
79.0542	18	C6H7+
80.0495	53	C5H6N+
81.0574	235	C5H7N+
85.0285	189	C4H5O2+
92.0258	101	C6H4O+
92.0496	386	C6H6N+
93.0574	999	C6H7N+
94.0653	39	C6H8N+
95.0492	423	C6H7O+
107.0367	39	C6H5NO+
108.0445	65	C6H6NO+
109.0523	347	C6H7NO+
110.0602	33	C6H8NO+
121.0649	61	C8H9O+
122.0602	706	C7H8NO+
123.068	45	C7H9NO+
124.0758	426	C7H10NO+
125.0598	31	C7H9O2+
148.0757	15	C9H10NO+
