Mass spectrum: Carbaryl; LC-ESI-QFT; MS2; CE: 45; R=17500; [M+H]+
Name: Carbaryl
Name: naphthalen-1-yl N-methylcarbamate
Formula: C12H11NO2
Exact mass: 201.079
SMILES: CNC(=O)OC1=C2C=CC=CC2=CC=C1
InChI: InChI=1S/C12H11NO2/c1-13-12(14)15-11-8-4-6-9-5-2-3-7-10(9)11/h2-8H,1H3,(H,13,14)
Instrument: Q Exactive Orbitrap (Thermo Scientific)
Instrument type: LC-ESI-QFT
Ms type: MS2
Ion mode: POSITIVE
Ionization: ESI
Fragmentation mode: HCD
Collision energy: 45
Resolution: 17500
Column name: Acquity BEH C18 1.7um, 2.1x150mm (Waters)
Retention time: 15.238 min
Base peak: 79.0211
Precursor m/z: 202.0863
Precursor type: [M+H]+
Precursor intensity: 7907474
m/z	relative intensity	assigned
74.0964	1	C4H12N+
79.0057	19	C4HNO+
90.0105	18	C6H2O+
96.0556	230	C6H8O+
107.0371	6	C6H5NO+
118.0413	2	C8H6O+
124.0869	674	C8H12O+
145.0283	1	C9H5O2+
146.0227	12	C8H4NO2+
146.0359	5	C9H6O2+
174.054	159	C10H8NO2+
187.0619	1	C11H9NO2+
200.0697	2	C12H10NO2+
202.0853	999	C12H12NO2+
