Mass spectrum: Thiophanate-methyl; LC-ESI-QFT; MS2; CE: 90; R=17500; [M+H]+
Name: Thiophanate-methyl
Name: N'-methoxycarbonyl-N-[2-[(N-methoxycarbonyl-C-sulfanylcarbonimidoyl)amino]phenyl]carbamimidothioic acid
Formula: C12H14N4O4S2
Exact mass: 342.0456
SMILES: COC(=O)NC(=S)NC1=C(NC(=S)NC(=O)OC)C=CC=C1
InChI: InChI=1S/C12H14N4O4S2/c1-19-11(17)15-9(21)13-7-5-3-4-6-8(7)14-10(22)16-12(18)20-2/h3-6H,1-2H3,(H2,13,15,17,21)(H2,14,16,18,22)
Instrument: Q Exactive Orbitrap (Thermo Scientific)
Instrument type: LC-ESI-QFT
Ms type: MS2
Ion mode: POSITIVE
Ionization: ESI
Fragmentation mode: HCD
Collision energy: 90
Resolution: 17500
Column name: Acquity BEH C18 1.7um, 2.1x150mm (Waters)
Retention time: 15.164 min
Base peak: 79.0211
Precursor m/z: 343.0529
Precursor type: [M+H]+
Precursor intensity: 8056370.6875
m/z	relative intensity	assigned
57.9746	13	CNS+
58.9824	11	CHNS+
59.9903	2	CH2NS+
65.0386	198	C5H5+
66.0464	15	C5H6+
74.0058	194	C2H4NS+
76.0393	41	C2H6NO2+
80.0495	32	C5H6N+
82.0652	4	C5H8N+
85.9695	398	C2NOS+
90.0339	27	C6H4N+
91.0416	18	C6H5N+
92.0495	388	C6H6N+
93.0573	999	C6H7N+
105.0448	42	C6H5N2+
107.0604	52	C6H7N2+
108.0681	6	C6H8N2+
109.076	57	C6H9N2+
110.06	8	C6H8NO+
117.0447	6	C7H5N2+
118.0525	543	C7H6N2+
119.0604	152	C7H7N2+
122.0059	84	C6H4NS+
124.0216	16	C6H6NS+
124.0757	7	C7H10NO+
132.0557	65	C7H6N3+
133.0635	8	C7H7N3+
134.0057	10	C7H4NS+
134.0715	15	C7H8N3+
135.0137	15	C7H5NS+
135.0553	15	C7H7N2O+
143.0475	2	C8H5N3+
149.0169	119	C7H5N2S+
150.0009	7	C7H4NOS+
150.0248	27	C7H6N2S+
151.0324	718	C7H7N2S+
160.0506	130	C8H6N3O+
174.0119	4	C8H4N3S+
175.0195	9	C8H5N3S+
177.0117	4	C8H5N2OS+
188.0452	2	C9H6N3O2+
192.9886	2	C8H5N2S2+
