Mass spectrum: Indomethacin; LC-ESI-QFT; MS2; CE: 60; R=17500; [M+H]+
Name: Indomethacin
Name: 2-[1-(4-chlorobenzoyl)-5-methoxy-2-methylindol-3-yl]acetic acid
Formula: C19H16ClNO4
Exact mass: 357.0768
SMILES: COC1=CC2=C(C=C1)N(C(=O)C1=CC=C(Cl)C=C1)C(C)=C2CC(O)=O
InChI: InChI=1S/C19H16ClNO4/c1-11-15(10-18(22)23)16-9-14(25-2)7-8-17(16)21(11)19(24)12-3-5-13(20)6-4-12/h3-9H,10H2,1-2H3,(H,22,23)
Instrument: Q Exactive Orbitrap (Thermo Scientific)
Instrument type: LC-ESI-QFT
Ms type: MS2
Ion mode: POSITIVE
Ionization: ESI
Fragmentation mode: HCD
Collision energy: 60
Resolution: 17500
Column name: Acquity BEH C18 1.7um, 2.1x150mm (Waters)
Retention time: 18.541 min
Base peak: 79.0211
Precursor m/z: 358.0841
Precursor type: [M+H]+
Precursor intensity: 6048585.40625
m/z	relative intensity	assigned
50.0151	2	C4H2+
51.023	3	C4H3+
53.0021	1	C3HO+
55.0178	1	C3H3O+
74.0149	1	C6H2+
75.0228	11	C6H3+
79.0178	5	C5H3O+
86.9996	35	C4H4Cl+
93.0335	5	C6H5O+
94.0413	4	C6H6O+
98.0359	1	C5H6O2+
110.9994	11	C6H4Cl+
111.0441	15	C6H7O2+
114.9945	3	C5H4ClO+
125.06	1	C4H12ClNO+
128.0025	2	C6H5ClO+
129.0101	119	C6H6ClO+
131.073	8	C9H9N+
138.9947	999	C7H4ClO+
139.0044	252	C9HNO+
140.0026	2	C7H5ClO+
159.0678	8	C10H9NO+
174.0913	15	C11H12NO+
