Mass spectrum: Pirimiphos-ethyl; LC-ESI-QFT; MS2; CE: 45; R=17500; [M+H]+
Name: Pirimiphos-ethyl
Formula: C13H24N3O3PS
Exact mass: 333.1276
SMILES: CCOP(=S)(OCC)OC1=CC(C)=NC(=N1)N(CC)CC
InChI: InChI=1S/C13H24N3O3PS/c1-6-16(7-2)13-14-11(5)10-12(15-13)19-20(21,17-8-3)18-9-4/h10H,6-9H2,1-5H3
Instrument: Q Exactive Orbitrap (Thermo Scientific)
Instrument type: LC-ESI-QFT
Ms type: MS2
Ion mode: POSITIVE
Ionization: ESI
Fragmentation mode: HCD
Collision energy: 45
Resolution: 17500
Column name: Acquity BEH C18 1.7um, 2.1x150mm (Waters)
Retention time: 19.447 min
Base peak: 79.0211
Precursor m/z: 334.1349
Precursor type: [M+H]+
Precursor intensity: 86493237.51563
m/z	relative intensity	assigned
67.029	4	C3H3N2+
71.0603	1	C3H7N2+
84.0443	5	C4H6NO+
88.0215	1	C3H6NS+
95.0603	8	C5H7N2+
96.9508	7	H2O2PS+
98.0963	2	C6H12N+
99.0916	25	C5H11N2+
100.0215	5	C4H6NS+
108.0555	22	C5H6N3+
109.0049	7	C2H6O3P+
109.0396	1	C5H5N2O+
109.076	2	C6H9N2+
114.9613	58	H4O3PS+
116.0527	6	C5H10NS+
123.0915	1	C7H11N2+
124.9821	2	C2H6O2PS+
126.0662	1	C5H8N3O+
127.0324	1	C5H7N2S+
128.9769	2	CH6O3PS+
136.0869	11	C7H10N3+
137.0707	1	C7H9N2O+
139.1229	6	C8H15N2+
142.0433	8	C5H8N3S+
153.048	3	C7H9N2S+
154.0974	38	C7H12N3O+
157.0794	20	C7H13N2S+
164.1182	41	C9H14N3+
168.0587	1	C7H10N3S+
170.0746	151	C7H12N3S+
180.1129	1	C9H14N3O+
182.1288	301	C9H16N3O+
196.0905	7	C9H14N3S+
198.1058	999	C9H16N3S+
210.1602	1	C11H20N3O+
226.1371	1	C11H20N3S+
260.0616	11	C9H15N3O2PS+
278.0723	4	C9H17N3O3PS+
306.1035	2	C11H21N3O3PS+
334.135	1	C13H25N3O3PS+
