Mass spectrum: Forskolin; LC-ESI-QFT; MS2; CE: 90; R=17500; [M-H]-
Name: Forskolin
Name: [(3R,4aR,5S,6S,6aS,10S,10aR,10bS)-3-ethenyl-6,10,10b-trihydroxy-3,4a,7,7,10a-pentamethyl-1-oxo-5,6,6a,8,9,10-hexahydro-2H-benzo[f]chromen-5-yl] acetate
Formula: C22H34O7
Exact mass: 410.2305
SMILES: CC(=O)O[C@H]1[C@@H](O)[C@H]2C(C)(C)CC[C@H](O)[C@]2(C)[C@@]2(O)C(=O)C[C@@](C)(O[C@]12C)C=C
InChI: InChI=1S/C22H34O7/c1-8-19(5)11-14(25)22(27)20(6)13(24)9-10-18(3,4)16(20)15(26)17(28-12(2)23)21(22,7)29-19/h8,13,15-17,24,26-27H,1,9-11H2,2-7H3/t13-,15-,16-,17-,19-,20-,21+,22-/m0/s1
Instrument: Q Exactive Orbitrap (Thermo Scientific)
Instrument type: LC-ESI-QFT
Ms type: MS2
Ion mode: NEGATIVE
Ionization: ESI
Fragmentation mode: HCD
Collision energy: 90
Resolution: 17500
Column name: Acquity BEH C18 1.7um, 2.1x150mm (Waters)
Retention time: 17.494 min
Base peak: 307.0977
Precursor m/z: 409.2232
Precursor type: [M-H]-
Precursor intensity: 6442335.259766
m/z	relative intensity	assigned
57.0346	11	C3H5O-
59.0138	999	C2H3O2-
73.0295	4	C3H5O2-
83.0508	4	C5H7O-
95.0502	6	C6H7O-
121.0658	4	C8H9O-
122.0374	3	C7H6O2-
135.0815	5	C9H11O-
