Mass spectrum: Enterolactone; LC-ESI-QFT; MS2; CE: 90; R=17500; [M-H]-
Name: Enterolactone
Name: (-)-Enterolactone
Name: (3R,4R)-3,4-bis[(3-hydroxyphenyl)methyl]oxolan-2-one
Formula: C18H18O4
Exact mass: 298.1205
SMILES: OC1=CC(C[C@H]2COC(=O)[C@@H]2CC2=CC(O)=CC=C2)=CC=C1
InChI: InChI=1S/C18H18O4/c19-15-5-1-3-12(8-15)7-14-11-22-18(21)17(14)10-13-4-2-6-16(20)9-13/h1-6,8-9,14,17,19-20H,7,10-11H2/t14-,17+/m0/s1
Instrument: Q Exactive Orbitrap (Thermo Scientific)
Instrument type: LC-ESI-QFT
Ms type: MS2
Ion mode: NEGATIVE
Ionization: ESI
Fragmentation mode: HCD
Collision energy: 90
Resolution: 17500
Column name: Acquity BEH C18 1.7um, 2.1x150mm (Waters)
Retention time: 15.387 min
Base peak: 297.1133
Precursor m/z: 297.1132
Precursor type: [M-H]-
Precursor intensity: 12151847.43506
m/z	relative intensity	assigned
65.0397	294	C5H5-
67.019	38	C4H3O-
79.0553	115	C6H7-
82.006	6	C4H2O2-
91.0554	23	C7H7-
92.0268	11	C6H4O-
93.0346	45	C6H5O-
93.0711	4	C7H9-
95.0138	30	C5H3O2-
95.0503	9	C6H7O-
102.0476	14	C8H6-
103.0553	22	C8H7-
106.0424	42	C7H6O-
107.0503	999	C7H7O-
108.0217	85	C6H4O2-
109.0295	8	C6H5O2-
115.0554	15	C9H7-
117.0346	12	C8H5O-
119.0502	485	C8H7O-
121.0295	552	C7H5O2-
121.0659	66	C8H9O-
123.0088	4	C6H3O3-
130.0424	177	C9H6O-
131.0502	221	C9H7O-
132.0581	4	C9H8O-
133.0659	106	C9H9O-
136.0166	11	C7H4O3-
137.0243	33	C7H5O3-
143.0502	240	C10H7O-
144.058	8	C10H8O-
145.0296	47	C9H5O2-
145.0659	112	C10H9O-
146.0374	5	C9H6O2-
147.0452	44	C9H7O2-
157.0659	14	C11H9O-
158.0375	12	C10H6O2-
159.0451	39	C10H7O2-
159.0813	4	C11H11O-
161.0609	6	C10H9O2-
171.0452	6	C11H7O2-
173.0611	8	C11H9O2-
178.0271	3	C9H6O4-
181.0656	5	C13H9O-
183.0817	3	C13H11O-
185.0608	3	C12H9O2-
189.0554	3	C11H9O3-
237.0927	4	C16H13O2-
251.1079	4	C17H15O2-
