Mass spectrum: 2,7-Acetylaminofluorene; LC-ESI-QFT; MS2; CE: 75; R=17500; [M+H]+
Name: 2,7-Acetylaminofluorene
Name: 2,7-Diacetamidofluorene
Name: N-(7-acetamido-9H-fluoren-2-yl)acetamide
Formula: C17H16N2O2
Exact mass: 280.1212
SMILES: CC(=O)NC1=CC=C2C(CC3=C2C=CC(NC(C)=O)=C3)=C1
InChI: InChI=1S/C17H16N2O2/c1-10(20)18-14-3-5-16-12(8-14)7-13-9-15(19-11(2)21)4-6-17(13)16/h3-6,8-9H,7H2,1-2H3,(H,18,20)(H,19,21)
Instrument: Q Exactive Orbitrap (Thermo Scientific)
Instrument type: LC-ESI-QFT
Ms type: MS2
Ion mode: POSITIVE
Ionization: ESI
Fragmentation mode: HCD
Collision energy: 75
Resolution: 17500
Column name: Acquity BEH C18 1.7um, 2.1x150mm (Waters)
Retention time: 14.586 min
Base peak: 79.0211
Precursor m/z: 281.1285
Precursor type: [M+H]+
Precursor intensity: 10762745.5
m/z	relative intensity	assigned
54.0339	3	C3H4N+
55.0179	1	C3H3O+
80.0494	4	C5H6N+
128.0623	1	C10H8+
129.0697	2	C10H9+
130.0652	28	C9H8N+
131.0492	1	C9H7O+
131.073	4	C9H9N+
132.0684	1	C8H8N2+
139.0542	1	C11H7+
143.073	3	C10H9N+
143.0856	2	C11H11+
144.0808	11	C10H10N+
151.0544	1	C12H7+
152.062	20	C12H8+
153.0699	84	C12H9+
154.065	7	C11H8N+
155.0605	1	C10H7N2+
155.0731	3	C11H9N+
156.0808	55	C11H10N+
157.0648	2	C11H9O+
157.0889	4	C11H11N+
163.0541	10	C13H7+
165.0699	3	C13H9+
166.0651	1	C12H8N+
167.0492	22	C12H7O+
167.0725	3	C12H9N+
168.0808	58	C12H10N+
169.0643	3	C12H9O+
169.0761	1	C11H9N2+
169.0887	2	C12H11N+
170.0964	28	C12H12N+
171.0802	2	C12H11O+
177.0697	1	C14H9+
178.0653	1	C13H8N+
179.0599	1	C12H7N2+
179.073	5	C13H9N+
180.0808	999	C13H10N+
181.065	42	C13H9O+
181.0885	621	C13H11N+
182.0729	8	C13H10O+
182.0838	93	C12H10N2+
183.0679	13	C12H9NO+
184.0757	128	C12H10NO+
185.0597	1	C12H9O2+
193.0882	3	C14H11N+
194.0965	8	C14H12N+
195.0918	126	C13H11N2+
196.0996	326	C13H12N2+
197.1073	538	C13H13N2+
198.0913	59	C13H12NO+
199.0754	3	C13H11O2+
206.0839	2	C14H10N2+
211.0632	2	C13H9NO2+
212.0706	11	C13H10NO2+
221.1071	11	C15H13N2+
222.0913	3	C15H12NO+
237.1019	2	C15H13N2O+
238.1096	4	C15H14N2O+
239.1177	11	C15H15N2O+
240.1019	1	C15H14NO2+
