Mass spectrum: Fluocinolone acetonide; LC-ESI-QFT; MS2; CE: 30; R=17500; [M+H]+
Name: Fluocinolone acetonide
Name: (1S,2S,4R,8S,9S,11S,12R,13S,19S)-12,19-difluoro-11-hydroxy-8-(2-hydroxyacetyl)-6,6,9,13-tetramethyl-5,7-dioxapentacyclo[10.8.0.02,9.04,8.013,18]icosa-14,17-dien-16-one
Formula: C24H30F2O6
Exact mass: 452.2010
SMILES: CC1(C)O[C@@H]2C[C@H]3[C@@H]4C[C@H](F)C5=CC(=O)C=C[C@]5(C)[C@@]4(F)[C@@H](O)C[C@]3(C)[C@@]2(O1)C(=O)CO
InChI: InChI=1S/C24H30F2O6/c1-20(2)31-19-9-13-14-8-16(25)15-7-12(28)5-6-21(15,3)23(14,26)17(29)10-22(13,4)24(19,32-20)18(30)11-27/h5-7,13-14,16-17,19,27,29H,8-11H2,1-4H3/t13-,14-,16-,17-,19+,21-,22-,23-,24+/m0/s1
Instrument: Q Exactive Orbitrap (Thermo Scientific)
Instrument type: LC-ESI-QFT
Ms type: MS2
Ion mode: POSITIVE
Ionization: ESI
Fragmentation mode: HCD
Collision energy: 30
Resolution: 17500
Column name: Acquity BEH C18 1.7um, 2.1x150mm (Waters)
Retention time: 16.806 min
Base peak: 79.0211
Precursor m/z: 453.2083
Precursor type: [M+H]+
Precursor intensity: 4345671.5625
m/z	relative intensity	assigned
55.0179	21	C3H3O+
59.0492	150	C3H7O+
67.0541	5	C5H7+
69.0335	23	C4H5O+
79.0541	5	C6H7+
81.0334	7	C5H5O+
81.0698	16	C6H9+
83.049	9	C5H7O+
87.0441	11	C4H7O2+
91.0543	9	C7H7+
93.07	45	C7H9+
95.0493	23	C6H7O+
95.0856	20	C7H11+
97.0285	33	C5H5O2+
97.0647	8	C6H9O+
99.0443	11	C5H7O2+
99.0602	5	C6H8F+
101.0233	8	C4H5O3+
105.07	33	C8H9+
107.0492	9	C7H7O+
107.0856	14	C8H11+
109.065	36	C7H9O+
111.0442	19	C6H7O2+
111.0805	8	C7H11O+
113.0596	9	C6H9O2+
115.0389	21	C5H7O3+
117.0699	7	C9H9+
119.0489	4	C8H7O+
119.0855	9	C9H11+
121.0648	999	C8H9O+
123.0805	14	C8H11O+
125.0598	26	C7H9O2+
127.0755	6	C7H11O2+
131.0851	9	C10H11+
133.0649	85	C9H9O+
135.0805	148	C9H11O+
137.0598	46	C8H9O2+
137.0759	28	C9H10F+
139.0553	18	C8H8FO+
139.0754	17	C8H11O2+
141.0545	11	C7H9O3+
143.0855	5	C11H11+
145.0649	59	C10H9O+
147.0804	89	C10H11O+
149.0599	15	C9H9O2+
149.0761	7	C10H10F+
151.0389	12	C8H7O3+
151.0558	7	C9H8FO+
151.0754	39	C9H11O2+
153.0547	14	C8H9O3+
153.071	11	C9H10FO+
155.0702	26	C8H11O3+
158.0724	7	C11H10O+
159.0805	104	C11H11O+
161.0599	39	C10H9O2+
161.0759	8	C11H10F+
161.0961	20	C11H13O+
163.0754	26	C10H11O2+
165.0713	42	C10H10FO+
169.0649	26	C12H9O+
171.0805	110	C12H11O+
173.0599	12	C11H9O2+
173.096	27	C12H13O+
175.0753	24	C11H11O2+
177.0549	5	C10H9O3+
177.0711	17	C11H10FO+
179.0701	16	C10H11O3+
179.0867	30	C11H12FO+
181.0662	36	C10H10FO2+
181.0856	4	C10H13O3+
185.0596	37	C12H9O2+
185.0963	48	C13H13O+
187.0755	56	C12H11O2+
189.0712	28	C12H10FO+
189.0912	7	C12H13O2+
191.0866	29	C12H12FO+
195.081	31	C11H12FO2+
195.1168	16	C15H15+
197.0961	67	C14H13O+
199.0756	12	C13H11O2+
199.1121	21	C14H15O+
201.0909	10	C13H13O2+
203.0708	6	C12H11O3+
203.0871	9	C13H12FO+
205.0661	74	C12H10FO2+
205.1015	7	C16H13+
208.0885	12	C15H12O+
209.0963	60	C15H13O+
211.0756	17	C14H11O2+
211.1118	123	C15H15O+
212.12	39	C15H16O+
213.0911	14	C14H13O2+
213.1273	37	C15H17O+
217.1021	6	C14H14FO+
219.0807	5	C16H11O+
219.1173	11	C17H15+
221.0963	57	C16H13O+
221.1323	8	C17H17+
223.0769	31	C12H12FO3+
223.1119	188	C16H15O+
225.0914	20	C15H13O2+
225.1273	42	C16H17O+
229.1023	6	C15H14FO+
231.1176	25	C15H16FO+
233.0966	17	C17H13O+
233.1325	15	C18H17+
234.1039	12	C17H14O+
235.1118	100	C17H15O+
236.1194	7	C17H16O+
237.1275	124	C17H17O+
238.0995	5	C13H15FO3+
239.1069	90	C16H15O2+
239.1433	14	C17H19O+
240.1147	18	C16H16O2+
241.1019	18	C16H14FO+
241.1223	128	C16H17O2+
243.1179	25	C16H16FO+
245.0964	8	C18H13O+
245.1327	21	C19H17+
246.1042	19	C18H14O+
247.112	62	C18H15O+
248.1199	17	C18H16O+
249.0913	19	C17H13O2+
249.1276	129	C18H17O+
250.1354	11	C18H18O+
251.1069	107	C17H15O2+
251.1432	95	C18H19O+
253.1224	219	C17H17O2+
255.1172	24	C20H15+
255.1379	19	C17H19O2+
257.1335	12	C17H18FO+
258.1039	22	C19H14O+
259.1119	74	C19H15O+
260.12	20	C19H16O+
261.1274	207	C19H17O+
262.0991	19	C18H14O2+
263.108	41	C15H16FO3+
263.1245	8	C16H17F2O+
263.143	124	C19H19O+
264.1157	6	C15H17FO3+
265.1223	38	C18H17O2+
267.1383	37	C18H19O2+
271.1128	20	C17H16FO2+
271.1497	7	C18H20FO+
273.1276	156	C20H17O+
275.1068	27	C19H15O2+
275.1434	7	C20H19O+
276.1146	33	C19H16O2+
277.1051	8	C16H15F2O2+
277.1224	163	C19H17O2+
279.1192	15	C16H17F2O2+
279.1379	222	C19H19O2+
281.1181	8	C15H18FO4+
281.1341	60	C19H18FO+
281.1539	21	C19H21O2+
283.1125	14	C18H16FO2+
283.1495	9	C19H20FO+
289.1225	60	C20H17O2+
291.138	215	C20H19O2+
293.1176	26	C19H17O3+
293.134	15	C20H18FO+
295.133	66	C19H19O3+
297.1291	26	C19H18FO2+
297.149	20	C19H21O3+
299.1444	46	C19H20FO2+
301.1225	76	C21H17O2+
301.1404	15	C19H19F2O+
304.1098	24	C20H16O3+
307.1332	54	C20H19O3+
309.1484	68	C20H21O3+
311.1447	30	C20H20FO2+
317.1349	11	C19H19F2O2+
319.1328	133	C21H19O3+
319.1512	13	C19H21F2O2+
329.1543	27	C20H22FO3+
331.1506	13	C20H21F2O2+
337.1433	123	C21H21O4+
339.1389	34	C21H20FO3+
347.1652	24	C20H24FO4+
349.1611	10	C20H23F2O3+
355.1541	64	C21H23O5+
357.1498	27	C21H22FO4+
359.1452	12	C21H21F2O3+
377.157	10	C21H23F2O4+
381.1528	6	C20H23F2O5+
413.1959	7	C24H29O6+
453.2106	8	C24H31F2O6+
