Mass spectrum: 4-(4-Hydroxyphenyl)butan-2-one; LC-ESI-QFT; MS2; CE: 45; R=17500; [M+H]+
Name: 4-(4-Hydroxyphenyl)butan-2-one
Name: 4-(4-Hydroxyphenyl)-2-butanone
Formula: C10H12O2
Exact mass: 164.0837
SMILES: CC(=O)CCC1=CC=C(O)C=C1
InChI: InChI=1S/C10H12O2/c1-8(11)2-3-9-4-6-10(12)7-5-9/h4-7,12H,2-3H2,1H3
Instrument: Q Exactive Orbitrap (Thermo Scientific)
Instrument type: LC-ESI-QFT
Ms type: MS2
Ion mode: POSITIVE
Ionization: ESI
Fragmentation mode: HCD
Collision energy: 45
Resolution: 17500
Column name: Acquity BEH C18 1.7um, 2.1x150mm (Waters)
Retention time: 15.236 min
Base peak: 79.0212
Precursor m/z: 165.091
Precursor type: [M+H]+
Precursor intensity: 2751148.25
m/z	relative intensity	assigned
51.0231	1	C4H3+
53.0022	1	C3HO+
53.0386	3	C4H5+
55.0543	127	C4H7+
65.0386	1	C5H5+
67.0542	5	C5H7+
77.0386	1	C6H5+
91.0542	24	C7H7+
95.0492	13	C6H7O+
105.0335	2	C7H5O+
107.0491	1	C7H7O+
109.0284	5	C6H5O2+
109.0648	1	C7H9O+
109.1012	1	C8H13+
111.0441	11	C6H7O2+
117.07	1	C9H9+
119.0493	5	C8H7O+
119.0856	23	C9H11+
123.0441	999	C7H7O2+
137.0598	58	C8H9O2+
137.0963	3	C9H13O+
147.0805	18	C10H11O+
150.0674	1	C9H10O2+
165.0911	68	C10H13O2+
