Mass spectrum: HC Red 3; LC-ESI-QFT; MS2; CE: 90; R=17500; [M+H]+
Name: HC Red 3
Name: 2-((4-Amino-2-nitrophenyl)amino)ethanol
Name: 2-(4-amino-2-nitroanilino)ethanol
Formula: C8H11N3O3
Exact mass: 197.0800
SMILES: NC1=CC(=C(NCCO)C=C1)[N+]([O-])=O
InChI: InChI=1S/C8H11N3O3/c9-6-1-2-7(10-3-4-12)8(5-6)11(13)14/h1-2,5,10,12H,3-4,9H2
Instrument: Q Exactive Orbitrap (Thermo Scientific)
Instrument type: LC-ESI-QFT
Ms type: MS2
Ion mode: POSITIVE
Ionization: ESI
Fragmentation mode: HCD
Collision energy: 90
Resolution: 17500
Column name: Acquity BEH C18 1.7um, 2.1x150mm (Waters)
Retention time: 3.132 min
Base peak: 79.0211
Precursor m/z: 198.0873
Precursor type: [M+H]+
Precursor intensity: 2895341.75
m/z	relative intensity	assigned
52.0183	4	C3H2N+
53.0022	4	C3HO+
53.0386	8	C4H5+
54.0338	48	C3H4N+
55.0179	4	C3H3O+
55.0542	9	C4H7+
57.0699	15	C4H9+
63.0229	4	C5H3+
64.0182	35	C4H2N+
65.0386	19	C5H5+
66.0338	9	C4H4N+
66.0463	9	C5H6+
67.0417	14	C4H5N+
68.0495	12	C4H6N+
69.0335	19	C4H5O+
69.0699	3	C5H9+
78.0339	17	C5H4N+
79.0291	11	C4H3N2+
79.0417	19	C5H5N+
80.0495	117	C5H6N+
81.0448	22	C4H5N2+
81.0574	16	C5H7N+
82.0287	22	C4H4NO+
82.0525	11	C4H6N2+
86.0601	76	C4H8NO+
89.0386	12	C7H5+
90.0339	8	C6H4N+
90.0464	20	C7H6+
91.0292	48	C5H3N2+
91.0417	29	C6H5N+
91.0542	7	C7H7+
92.0369	94	C5H4N2+
92.0494	29	C6H6N+
93.0447	13	C5H5N2+
93.0574	61	C6H7N+
94.0527	24	C5H6N2+
94.0652	20	C6H8N+
95.0604	170	C5H7N2+
96.0445	8	C5H6NO+
97.0523	8	C5H7NO+
104.0496	17	C7H6N+
105.0448	79	C6H5N2+
105.0575	7	C7H7N+
106.0526	162	C6H6N2+
106.0652	40	C7H8N+
107.0604	298	C6H7N2+
108.0682	84	C6H8N2+
109.0522	10	C6H7NO+
109.076	3	C6H9N2+
110.06	9	C6H8NO+
111.0554	5	C5H7N2O+
117.0447	13	C7H5N2+
117.0574	10	C8H7N+
118.0404	15	C6H4N3+
118.0526	10	C7H6N2+
118.0651	8	C8H8N+
119.0479	115	C6H5N3+
119.0604	37	C7H7N2+
120.0447	6	C7H6NO+
120.0557	14	C6H6N3+
120.0683	5	C7H8N2+
121.0398	7	C6H5N2O+
121.0761	29	C7H9N2+
122.0712	6	C6H8N3+
131.0604	10	C8H7N2+
132.0558	60	C7H6N3+
132.0682	7	C8H8N2+
133.0635	999	C7H7N3+
134.0713	91	C7H8N3+
135.0557	3	C7H7N2O+
136.0506	8	C6H6N3O+
137.0471	3	C7H7NO2+
137.071	37	C7H9N2O+
144.0558	13	C8H6N3+
145.0637	7	C8H7N3+
146.0714	16	C8H8N3+
153.0534	10	C6H7N3O2+
162.0663	14	C8H8N3O+
