Mass spectrum: PharmaGSID_47259; LC-ESI-QFT; MS2; CE: 30; R=17500; [M+H]+
Name: PharmaGSID_47259
Name: 1,3-Dichloro-6,7,8,9,10,12-hexahydroazepino(2,1-b)quinazoline
Name: 1,3-dichloro-6,7,8,9,10,12-hexahydroazepino[2,1-b]quinazoline
Formula: C13H14Cl2N2
Exact mass: 268.0534
SMILES: ClC1=CC2=C(CN3CCCCCC3=N2)C(Cl)=C1
InChI: InChI=1S/C13H14Cl2N2/c14-9-6-11(15)10-8-17-5-3-1-2-4-13(17)16-12(10)7-9/h6-7H,1-5,8H2
Instrument: Q Exactive Orbitrap (Thermo Scientific)
Instrument type: LC-ESI-QFT
Ms type: MS2
Ion mode: POSITIVE
Ionization: ESI
Fragmentation mode: HCD
Collision energy: 30
Resolution: 17500
Column name: Acquity BEH C18 1.7um, 2.1x150mm (Waters)
Retention time: 13.543 min
Base peak: 79.0211
Precursor m/z: 269.0607
Precursor type: [M+H]+
Precursor intensity: 24709115.84375
m/z	relative intensity	assigned
134.0964	1	C9H12N+
148.0757	2	C6H13ClN2+
234.0903	1	C13H15ClN2+
269.0603	999	C13H15Cl2N2+
