Mass spectrum: Nomifensine; LC-ESI-QFT; MS2; CE: 45; R=17500; [M+H]+
Name: Nomifensine
Name: 2-methyl-4-phenyl-3,4-dihydro-1H-isoquinolin-8-amine
Formula: C16H18N2
Exact mass: 238.1470
SMILES: CN1CC(C2=CC=CC=C2)C2=CC=CC(N)=C2C1
InChI: InChI=1S/C16H18N2/c1-18-10-14(12-6-3-2-4-7-12)13-8-5-9-16(17)15(13)11-18/h2-9,14H,10-11,17H2,1H3
Instrument: Q Exactive Orbitrap (Thermo Scientific)
Instrument type: LC-ESI-QFT
Ms type: MS2
Ion mode: POSITIVE
Ionization: ESI
Fragmentation mode: HCD
Collision energy: 45
Resolution: 17500
Column name: Acquity BEH C18 1.7um, 2.1x150mm (Waters)
Retention time: 13.050 min
Base peak: 79.0211
Precursor m/z: 239.1543
Precursor type: [M+H]+
Precursor intensity: 32504910.5
m/z	relative intensity	assigned
51.0229	1	C4H3+
65.0385	2	C5H5+
77.0384	2	C6H5+
79.0541	9	C6H7+
91.0542	729	C7H7+
93.0573	1	C6H7N+
93.0698	1	C7H9+
94.0651	2	C6H8N+
103.0542	4	C8H7+
105.0698	8	C8H9+
106.0651	59	C7H8N+
107.073	2	C7H9N+
108.0808	2	C7H10N+
115.0542	72	C9H7+
117.0573	33	C8H7N+
117.0698	8	C9H9+
118.0651	576	C8H8N+
120.0808	143	C8H10N+
122.0963	4	C8H12N+
128.0383	1	C8H4N2+
130.0652	237	C9H8N+
131.073	2	C9H9N+
132.0808	209	C9H10N+
133.0762	3	C8H9N2+
134.0964	6	C9H12N+
135.0917	1	C8H11N2+
144.0809	3	C10H10N+
146.0837	6	C9H10N2+
147.0917	38	C9H11N2+
148.0994	12	C9H12N2+
159.0917	14	C10H11N2+
161.1073	44	C10H13N2+
165.0694	2	C13H9+
167.0855	5	C13H11+
168.0808	1	C12H10N+
178.0778	8	C14H10+
179.0855	123	C14H11+
180.081	7	C13H10N+
181.0886	212	C13H11N+
182.0962	2	C13H12N+
191.0855	13	C15H11+
193.0886	33	C14H11N+
193.1012	7	C15H13+
194.0965	36	C14H12N+
195.1042	12	C14H13N+
196.1121	799	C14H14N+
198.1277	22	C14H16N+
206.096	1	C15H12N+
207.104	7	C15H13N+
208.1121	243	C15H14N+
209.1074	6	C14H13N2+
210.1277	154	C15H16N+
222.1277	22	C16H16N+
223.1232	2	C15H15N2+
223.1345	1	C16H17N+
224.1307	35	C15H16N2+
237.1387	24	C16H17N2+
239.1542	999	C16H19N2+
