Mass spectrum: Pimozide; LC-ESI-QFT; MS2; CE: 30; R=17500; [M+H]+
Name: Pimozide
Name: 3-[1-[4,4-bis(4-fluorophenyl)butyl]piperidin-4-yl]-1H-benzimidazol-2-one
Formula: C28H29F2N3O
Exact mass: 461.2279
SMILES: FC1=CC=C(C=C1)C(CCCN1CCC(CC1)N1C(=O)NC2=C1C=CC=C2)C1=CC=C(F)C=C1
InChI: InChI=1S/C28H29F2N3O/c29-22-11-7-20(8-12-22)25(21-9-13-23(30)14-10-21)4-3-17-32-18-15-24(16-19-32)33-27-6-2-1-5-26(27)31-28(33)34/h1-2,5-14,24-25H,3-4,15-19H2,(H,31,34)
Instrument: Q Exactive Orbitrap (Thermo Scientific)
Instrument type: LC-ESI-QFT
Ms type: MS2
Ion mode: POSITIVE
Ionization: ESI
Fragmentation mode: HCD
Collision energy: 30
Resolution: 17500
Column name: Acquity BEH C18 1.7um, 2.1x150mm (Waters)
Retention time: 15.883 min
Base peak: 79.0212
Precursor m/z: 462.2351
Precursor type: [M+H]+
Precursor intensity: 20905665.5
m/z	relative intensity	assigned
84.0808	4	C5H10N+
98.0964	15	C6H12N+
109.0448	15	C7H6F+
135.0552	2	C7H7N2O+
135.0605	1	C9H8F+
147.0605	16	C10H8F+
149.0761	9	C10H10F+
173.0709	8	C10H9N2O+
201.1022	74	C12H13N2O+
203.0665	2	C13H9F2+
218.1287	4	C12H16N3O+
230.1289	3	C13H16N3O+
243.0979	3	C16H13F2+
274.1401	6	C17H18F2N+
326.1714	27	C21H22F2N+
328.1871	154	C21H24F2N+
462.2351	999	C28H30F2N3O+
