Mass spectrum: SSR161421; LC-ESI-QFT; MS2; CE: 60; R=17500; [M-H]-
Name: SSR161421
Name: N-[4-(benzylamino)-3-cyanoquinolin-2-yl]-4-methoxybenzamide
Formula: C25H20N4O2
Exact mass: 408.1586
SMILES: COC1=CC=C(C=C1)C(=O)NC1=C(C#N)C(NCC2=CC=CC=C2)=C2C=CC=CC2=N1
InChI: InChI=1S/C25H20N4O2/c1-31-19-13-11-18(12-14-19)25(30)29-24-21(15-26)23(20-9-5-6-10-22(20)28-24)27-16-17-7-3-2-4-8-17/h2-14H,16H2,1H3,(H2,27,28,29,30)
Instrument: Q Exactive Orbitrap (Thermo Scientific)
Instrument type: LC-ESI-QFT
Ms type: MS2
Ion mode: NEGATIVE
Ionization: ESI
Fragmentation mode: HCD
Collision energy: 60
Resolution: 17500
Column name: Acquity BEH C18 1.7um, 2.1x150mm (Waters)
Retention time: 16.904 min
Base peak: 350.0275
Precursor m/z: 407.1513
Precursor type: [M-H]-
Precursor intensity: 17866446.7334
m/z	relative intensity	assigned
64.0066	41	C3N2-
65.0145	999	C3HN2-
65.9985	87	C3NO-
90.0096	26	C4N3-
93.0346	190	C6H5O-
95.0138	10	C5H3O2-
102.0349	12	C7H4N-
108.0216	19	C6H4O2-
117.0459	12	C7H5N2-
118.0298	104	C7H4NO-
128.0505	38	C9H6N-
130.0297	17	C8H4NO-
131.0375	12	C8H5NO-
131.0614	5	C8H7N2-
141.0458	54	C9H5N2-
142.0409	143	C8H4N3-
143.0613	5	C9H7N2-
153.0458	10	C10H5N2-
155.049	10	C9H5N3-
156.0329	410	C9H4N2O-
159.0325	41	C9H5NO2-
160.0279	17	C8H4N2O2-
166.041	268	C10H4N3-
167.0489	5	C10H5N3-
168.0567	441	C10H6N3-
169.0406	16	C10H5N2O-
170.0358	14	C9H4N3O-
171.0563	90	C10H7N2O-
174.056	12	C10H8NO2-
175.0509	7	C9H7N2O2-
179.0489	7	C11H5N3-
180.0441	446	C10H4N4-
180.0566	42	C11H6N3-
181.052	116	C10H5N4-
182.036	213	C10H4N3O-
183.0437	42	C10H5N3O-
184.0278	5	C10H4N2O2-
193.0515	8	C11H5N4-
194.0359	51	C11H4N3O-
194.0592	4	C11H6N4-
195.0675	55	C11H7N4-
199.0516	6	C11H7N2O2-
201.0178	8	C12HN4-
204.0691	10	C14H8N2-
207.0311	930	C11H3N4O-
208.0389	109	C11H4N4O-
209.0468	612	C11H5N4O-
217.0768	8	C15H9N2-
218.0729	4	C14H8N3-
219.0564	5	C14H7N2O-
228.0702	3	C16H8N2-
229.065	18	C15H7N3-
229.0763	5	C16H9N2-
230.0723	3	C15H8N3-
230.085	8	C16H10N2-
231.0563	10	C15H7N2O-
231.0803	23	C15H9N3-
232.0642	112	C15H8N2O-
232.0871	33	C15H10N3-
233.0479	14	C15H7NO2-
233.0717	13	C15H9N2O-
234.043	5	C14H6N2O2-
235.0512	42	C14H7N2O2-
235.0634	6	C15H9NO2-
236.0589	11	C14H8N2O2-
242.0723	4	C16H8N3-
244.0879	110	C16H10N3-
245.0595	4	C15H7N3O-
245.0715	6	C16H9N2O-
245.0833	9	C15H9N4-
245.0955	5	C16H11N3-
246.0671	27	C15H8N3O-
247.0507	9	C15H7N2O2-
249.0674	4	C15H9N2O2-
251.0828	10	C15H11N2O2-
255.0802	127	C17H9N3-
256.0883	15	C17H10N3-
257.0594	703	C16H7N3O-
258.067	24	C16H8N3O-
259.051	33	C16H7N2O2-
259.0745	19	C16H9N3O-
260.0589	194	C16H8N2O2-
260.0833	11	C16H10N3O-
261.0669	72	C16H9N2O2-
271.0989	465	C17H11N4-
272.07	127	C16H8N4O-
272.0832	141	C17H10N3O-
272.1067	50	C17H12N4-
273.0544	74	C16H7N3O2-
273.0781	235	C16H9N4O-
274.0622	67	C16H8N3O2-
275.0826	56	C17H11N2O2-
286.0621	179	C17H8N3O2-
287.0701	11	C17H9N3O2-
287.0939	21	C17H11N4O-
288.0779	144	C17H10N3O2-
298.0853	6	C18H10N4O-
299.0576	39	C17H7N4O2-
299.0937	97	C18H11N4O-
300.0651	500	C17H8N4O2-
301.0729	135	C17H9N4O2-
304.0964	10	C17H12N4O2-
315.0888	369	C18H11N4O2-
346.0983	10	C23H12N3O-
347.1056	6	C23H13N3O-
348.1137	6	C23H14N3O-
362.0932	30	C23H12N3O2-
364.1092	81	C23H14N3O2-
373.1092	40	C24H13N4O-
374.1168	8	C24H14N4O-
391.1216	4	C24H15N4O2-
