Mass spectrum: Imidacloprid; LC-ESI-QFT; MS2; CE: 45; R=17500; [M-H]-
Name: Imidacloprid
Name: N-[1-[(6-Chloro-3-pyridinyl)methyl]-4,5-dihydroimidazol-2-yl]nitramide
Name: N-[1-[(6-chloropyridin-3-yl)methyl]-4,5-dihydroimidazol-2-yl]nitramide
Formula: C9H10ClN5O2
Exact mass: 255.0523
SMILES: [O-][N+](=O)\N=C1/NCCN1CC1=CN=C(Cl)C=C1
InChI: InChI=1S/C9H10ClN5O2/c10-8-2-1-7(5-12-8)6-14-4-3-11-9(14)13-15(16)17/h1-2,5H,3-4,6H2,(H,11,13)
Instrument: Q Exactive Orbitrap (Thermo Scientific)
Instrument type: LC-ESI-QFT
Ms type: MS2
Ion mode: NEGATIVE
Ionization: ESI
Fragmentation mode: HCD
Collision energy: 45
Resolution: 17500
Column name: Acquity BEH C18 1.7um, 2.1x150mm (Waters)
Retention time: 12.320 min
Base peak: 112.9857
Precursor m/z: 254.045
Precursor type: [M-H]-
Precursor intensity: 2413547.341553
m/z	relative intensity	assigned
67.0302	50	C3H3N2-
69.0096	41	C2HN2O-
85.9996	999	CN3O2-
126.0121	29	C6H5ClN-
153.0225	638	C7H6ClN2-
254.0451	157	C9H9ClN5O2-
