Mass spectrum: 3-Hydroxy-2-naphthoic o-anisidide; LC-ESI-QFT; MS2; CE: 15; R=17500; [M-H]-
Name: 3-Hydroxy-2-naphthoic o-anisidide
Name: 3-Hydroxy-2'-methoxy-2-naphthanilide
Name: 3-hydroxy-N-(2-methoxyphenyl)naphthalene-2-carboxamide
Formula: C18H15NO3
Exact mass: 293.1052
SMILES: COC1=CC=CC=C1NC(=O)C1=CC2=C(C=CC=C2)C=C1O
InChI: InChI=1S/C18H15NO3/c1-22-17-9-5-4-8-15(17)19-18(21)14-10-12-6-2-3-7-13(12)11-16(14)20/h2-11,20H,1H3,(H,19,21)
Instrument: Q Exactive Orbitrap (Thermo Scientific)
Instrument type: LC-ESI-QFT
Ms type: MS2
Ion mode: NEGATIVE
Ionization: ESI
Fragmentation mode: HCD
Collision energy: 15
Resolution: 17500
Column name: Acquity BEH C18 1.7um, 2.1x150mm (Waters)
Retention time: 18.323 min
Base peak: 292.0981
Precursor m/z: 292.0979
Precursor type: [M-H]-
Precursor intensity: 44518802.61816
m/z	relative intensity	assigned
107.0381	1	C6H5NO-
134.0247	4	C7H4NO2-
143.0498	4	C10H7O-
260.0718	5	C17H10NO2-
277.0744	55	C17H11NO3-
291.0924	1	C18H13NO3-
292.098	999	C18H14NO3-
