Mass spectrum: Suxibuzone; LC-ESI-QFT; MS2; CE: 75; R=17500; [M+H]+
Name: Suxibuzone
Name: 4-[(4-butyl-3,5-dioxo-1,2-diphenylpyrazolidin-4-yl)methoxy]-4-oxobutanoic acid
Formula: C24H26N2O6
Exact mass: 438.1791
SMILES: CCCCC1(COC(=O)CCC(O)=O)C(=O)N(N(C1=O)C1=CC=CC=C1)C1=CC=CC=C1
InChI: InChI=1S/C24H26N2O6/c1-2-3-16-24(17-32-21(29)15-14-20(27)28)22(30)25(18-10-6-4-7-11-18)26(23(24)31)19-12-8-5-9-13-19/h4-13H,2-3,14-17H2,1H3,(H,27,28)
Instrument: Q Exactive Orbitrap (Thermo Scientific)
Instrument type: LC-ESI-QFT
Ms type: MS2
Ion mode: POSITIVE
Ionization: ESI
Fragmentation mode: HCD
Collision energy: 75
Resolution: 17500
Column name: Acquity BEH C18 1.7um, 2.1x150mm (Waters)
Retention time: 17.593 min
Base peak: 79.0211
Precursor m/z: 439.1864
Precursor type: [M+H]+
Precursor intensity: 12488939.5
m/z	relative intensity	assigned
51.0231	3	C4H3+
53.0023	20	C3HO+
53.0386	153	C4H5+
53.9975	2	C2NO+
55.0179	499	C3H3O+
55.0543	82	C4H7+
57.0699	140	C4H9+
65.0386	193	C5H5+
66.0465	3	C5H6+
67.0542	73	C5H7+
68.9972	4	C3HO2+
69.0334	4	C4H5O+
69.0699	39	C5H9+
71.0856	2	C5H11+
73.0284	430	C3H5O2+
77.0385	43	C6H5+
78.0464	6	C6H6+
79.0543	124	C6H7+
80.0494	3	C5H6N+
81.0335	14	C5H5O+
81.07	74	C6H9+
82.0651	2	C5H8N+
83.0127	4	C4H3O2+
84.0808	5	C5H10N+
87.0442	5	C4H7O2+
89.0386	2	C7H5+
91.0391	11	C3H7O3+
91.0543	62	C7H7+
92.0495	225	C6H6N+
93.0336	10	C6H5O+
93.0574	50	C6H7N+
93.07	4	C7H9+
94.0414	19	C6H6O+
94.0652	276	C6H8N+
95.0492	452	C6H7O+
97.0649	28	C6H9O+
101.0234	109	C4H5O3+
103.0543	25	C8H7+
104.0495	999	C7H6N+
105.0337	41	C7H5O+
105.0448	173	C6H5N2+
105.07	12	C8H9+
106.0652	439	C7H8N+
107.049	3	C7H7O+
109.0648	12	C7H9O+
110.0602	2	C6H8NO+
111.0441	39	C6H7O2+
115.0392	13	C5H7O3+
115.0543	16	C9H7+
116.0496	9	C8H6N+
116.0621	4	C9H8+
117.0573	47	C8H7N+
117.07	11	C9H9+
118.0652	349	C8H8N+
119.0731	52	C8H9N+
120.0445	110	C7H6NO+
120.0809	70	C8H10N+
122.06	2	C7H8NO+
124.0758	4	C7H10NO+
125.0598	3	C7H9O2+
128.0496	75	C9H6N+
128.0618	9	C10H8+
129.0449	3	C8H5N2+
129.0701	4	C10H9+
130.0653	289	C9H8N+
131.0608	16	C8H7N2+
131.073	82	C9H9N+
132.0445	138	C8H6NO+
132.0809	76	C9H10N+
133.0399	18	C7H5N2O+
133.0522	55	C8H7NO+
134.0477	2	C7H6N2O+
134.0601	54	C8H8NO+
142.0651	11	C10H8N+
143.073	26	C10H9N+
143.0857	4	C11H11+
144.0448	9	C9H6NO+
144.0809	61	C10H10N+
145.076	6	C9H9N2+
145.0887	58	C10H11N+
145.1015	3	C11H13+
146.0601	237	C9H8NO+
147.0682	3	C9H9NO+
148.0759	3	C9H10NO+
148.1123	7	C10H14N+
154.0652	4	C11H8N+
156.0444	10	C10H6NO+
156.081	7	C11H10N+
157.0887	7	C11H11N+
158.06	14	C10H8NO+
158.0967	13	C11H12N+
159.0681	9	C10H9NO+
160.076	34	C10H10NO+
160.1122	643	C11H14N+
162.0549	35	C9H8NO2+
162.1279	36	C11H16N+
165.07	2	C13H9+
166.0655	13	C12H8N+
167.073	29	C12H9N+
168.0809	25	C12H10N+
169.0888	4	C12H11N+
170.0603	3	C11H8NO+
170.0966	4	C12H12N+
172.076	12	C11H10NO+
172.1124	8	C12H14N+
173.0708	2	C10H9N2O+
173.0838	3	C11H11NO+
174.0551	49	C10H8NO2+
180.0811	14	C13H10N+
182.0841	30	C12H10N2+
182.0967	3	C13H12N+
183.0918	4	C12H11N2+
184.0757	6	C12H10NO+
186.0913	3	C12H12NO+
188.1065	4	C12H14NO+
190.1232	2	C12H16NO+
194.06	10	C13H8NO+
194.0839	2	C13H10N2+
195.0919	21	C13H11N2+
198.0917	2	C13H12NO+
204.0809	4	C15H10N+
205.0764	2	C14H9N2+
206.0838	8	C14H10N2+
207.0918	111	C14H11N2+
208.0998	47	C14H12N2+
209.1073	21	C14H13N2+
211.0868	37	C13H11N2O+
219.0919	8	C15H11N2+
221.1072	9	C15H13N2+
232.1001	4	C16H12N2+
233.1076	3	C16H13N2+
234.0789	7	C15H10N2O+
235.0869	5	C15H11N2O+
245.1074	8	C17H13N2+
247.0864	3	C16H11N2O+
251.1545	5	C17H19N2+
