Mass spectrum: Famotidine; LC-ESI-QFT; MS2; CE: 45; R=17500; [M+H]+
Name: Famotidine
Name: 3-[[2-(diaminomethylideneamino)-1,3-thiazol-4-yl]methylsulfanyl]-N'-sulfamoylpropanimidamide
Formula: C8H15N7O2S3
Exact mass: 337.0449
SMILES: NC(N)=NC1=NC(CSCCC(N)=NS(N)(=O)=O)=CS1
InChI: InChI=1S/C8H15N7O2S3/c9-6(15-20(12,16)17)1-2-18-3-5-4-19-8(13-5)14-7(10)11/h4H,1-3H2,(H2,9,15)(H2,12,16,17)(H4,10,11,13,14)
Instrument: Q Exactive Orbitrap (Thermo Scientific)
Instrument type: LC-ESI-QFT
Ms type: MS2
Ion mode: POSITIVE
Ionization: ESI
Fragmentation mode: HCD
Collision energy: 45
Resolution: 17500
Column name: Acquity BEH C18 1.7um, 2.1x150mm (Waters)
Retention time: 8.055 min
Base peak: 79.0212
Precursor m/z: 338.0522
Precursor type: [M+H]+
Precursor intensity: 6505543.8125
m/z	relative intensity	assigned
54.0338	21	C3H4N+
71.0603	341	C3H7N2+
86.0059	1	C3H4NS+
102.0119	8	C2H4N3S+
113.0168	44	C4H5N2S+
115.0326	1	C4H7N2S+
133.0068	2	C3H5N2O2S+
138.012	37	C5H4N3S+
147.0045	32	C4H7N2S2+
155.0386	661	C5H7N4S+
156.0461	2	C5H8N4S+
157.0543	2	C5H9N4S+
171.9999	16	C5H6N3S2+
189.0263	999	C5H9N4S2+
242.0531	4	C8H12N5S2+
