Mass spectrum: Z-Tetrachlorvinphos; LC-ESI-QFT; MS2; CE: 75; R=17500; [M+H]+
Name: Z-Tetrachlorvinphos
Name: Tetrachlorvinphos
Name: [(Z)-2-chloro-1-(2,4,5-trichlorophenyl)ethenyl] dimethyl phosphate
Formula: C10H9Cl4O4P
Exact mass: 363.8993
SMILES: COP(=O)(OC)O\C(=C/Cl)C1=C(Cl)C=C(Cl)C(Cl)=C1
InChI: InChI=1S/C10H9Cl4O4P/c1-16-19(15,17-2)18-10(5-11)6-3-8(13)9(14)4-7(6)12/h3-5H,1-2H3/b10-5-
Instrument: Q Exactive Orbitrap (Thermo Scientific)
Instrument type: LC-ESI-QFT
Ms type: MS2
Ion mode: POSITIVE
Ionization: ESI
Fragmentation mode: HCD
Collision energy: 75
Resolution: 17500
Column name: Acquity BEH C18 1.7um, 2.1x150mm (Waters)
Retention time: 18.351 min
Base peak: 79.0211
Precursor m/z: 364.9065
Precursor type: [M+H]+
Precursor intensity: 2127030.5
m/z	relative intensity	assigned
64.9787	3	H2O2P+
78.9944	35	CH4O2P+
86.9632	3	C3ClO+
110.9632	3	C5ClO+
112.9999	156	CH6O4P+
127.0155	741	C2H8O4P+
131.9762	12	C8HCl+
132.9839	4	C8H2Cl+
141.0311	6	C3H10O4P+
144.9609	2	C6H3Cl2+
145.0262	3	C3H10ClO4+
166.9451	17	C8HCl2+
168.9606	10	C8H3Cl2+
184.9556	2	C8H3Cl2O+
196.9667	2	C6H8Cl2OP+
202.922	10	C8H2Cl3+
203.9296	999	C8H3Cl3+
238.8983	3	C8H3Cl4+
