Mass spectrum: 3,3`-Dimethoxybenzidine; LC-ESI-QFT; MS2; CE: 60; R=17500; [M+H]+
Name: 3,3'-Dimethoxybenzidine
Name: 4-(4-amino-3-methoxyphenyl)-2-methoxyaniline
Formula: C14H16N2O2
Exact mass: 244.1212
SMILES: COC1=CC(=CC=C1N)C1=CC(OC)=C(N)C=C1
InChI: InChI=1S/C14H16N2O2/c1-17-13-7-9(3-5-11(13)15)10-4-6-12(16)14(8-10)18-2/h3-8H,15-16H2,1-2H3
Instrument: Q Exactive Orbitrap (Thermo Scientific)
Instrument type: LC-ESI-QFT
Ms type: MS2
Ion mode: POSITIVE
Ionization: ESI
Fragmentation mode: HCD
Collision energy: 60
Resolution: 17500
Column name: Acquity BEH C18 1.7um, 2.1x150mm (Waters)
Retention time: 8.573 min
Base peak: 79.0211
Precursor m/z: 245.1285
Precursor type: [M+H]+
Precursor intensity: 14304463.625
m/z	relative intensity	assigned
52.0182	1	C3H2N+
80.0494	1	C5H6N+
97.0078	1	C8H+
108.0444	1	C6H6NO+
115.0543	1	C9H7+
123.0676	4	C7H9NO+
130.0653	8	C9H8N+
131.0729	2	C9H9N+
139.0544	1	C11H7+
141.07	1	C11H9+
143.0729	14	C10H9N+
144.0809	1	C10H10N+
146.0601	1	C9H8NO+
147.0678	3	C9H9NO+
153.0575	7	C11H7N+
154.065	22	C11H8N+
155.0604	1	C10H7N2+
155.0732	2	C11H9N+
158.0839	4	C10H10N2+
162.0915	8	C10H12NO+
166.0652	4	C12H8N+
167.0733	4	C12H9N+
168.0809	2	C12H10N+
169.0759	23	C11H9N2+
170.0838	254	C11H10N2+
171.0679	9	C11H9NO+
171.0916	21	C11H11N2+
181.0522	2	C12H7NO+
181.076	30	C12H9N2+
182.0598	4	C12H8NO+
182.0839	64	C12H10N2+
183.0679	7	C12H9NO+
183.0918	2	C12H11N2+
184.0759	1	C12H10NO+
185.071	16	C11H9N2O+
185.0812	1	C12H11NO+
186.0789	16	C11H10N2O+
186.0915	13	C12H12NO+
186.106	1	C13H14O+
187.0864	999	C11H11N2O+
196.0757	5	C13H10NO+
197.071	12	C12H9N2O+
197.0834	2	C13H11NO+
198.0788	459	C12H10N2O+
199.0866	34	C12H11N2O+
201.1022	51	C12H13N2O+
212.0947	2	C13H12N2O+
213.066	13	C12H9N2O2+
213.1022	178	C13H13N2O+
214.11	14	C13H14N2O+
215.0815	466	C12H11N2O2+
228.0896	3	C13H12N2O2+
229.0978	4	C13H13N2O2+
230.1049	421	C13H14N2O2+
244.1207	3	C14H16N2O2+
245.128	5	C14H17N2O2+
