Mass spectrum: 7-Diethylamino-4-methylcoumarin; LC-ESI-QFT; MS2; CE: 15; R=17500; [M+H]+
Name: 7-Diethylamino-4-methylcoumarin
Name: 7-(diethylamino)-4-methylchromen-2-one
Formula: C14H17NO2
Exact mass: 231.1259
SMILES: CCN(CC)C1=CC=C2C(C)=CC(=O)OC2=C1
InChI: InChI=1S/C14H17NO2/c1-4-15(5-2)11-6-7-12-10(3)8-14(16)17-13(12)9-11/h6-9H,4-5H2,1-3H3
Instrument: Q Exactive Orbitrap (Thermo Scientific)
Instrument type: LC-ESI-QFT
Ms type: MS2
Ion mode: POSITIVE
Ionization: ESI
Fragmentation mode: HCD
Collision energy: 15
Resolution: 17500
Column name: Acquity BEH C18 1.7um, 2.1x150mm (Waters)
Retention time: 17.638 min
Base peak: 79.0211
Precursor m/z: 232.1332
Precursor type: [M+H]+
Precursor intensity: 36655616.5
m/z	relative intensity	assigned
188.0697	2	C11H10NO2+
203.094	51	C12H13NO2+
204.1019	36	C12H14NO2+
232.133	999	C14H18NO2+
