Mass spectrum: 2-Methyl-4`-(methylthio)-2-morpholinopropiophenone; LC-ESI-QFT; MS2; CE: 15; R=17500; [M+H]+
Name: 2-Methyl-4'-(methylthio)-2-morpholinopropiophenone
Name: 2-methyl-1-(4-methylsulfanylphenyl)-2-morpholin-4-ylpropan-1-one
Formula: C15H21NO2S
Exact mass: 279.1293
SMILES: CSC1=CC=C(C=C1)C(=O)C(C)(C)N1CCOCC1
InChI: InChI=1S/C15H21NO2S/c1-15(2,16-8-10-18-11-9-16)14(17)12-4-6-13(19-3)7-5-12/h4-7H,8-11H2,1-3H3
Instrument: Q Exactive Orbitrap (Thermo Scientific)
Instrument type: LC-ESI-QFT
Ms type: MS2
Ion mode: POSITIVE
Ionization: ESI
Fragmentation mode: HCD
Collision energy: 15
Resolution: 17500
Column name: Acquity BEH C18 1.7um, 2.1x150mm (Waters)
Retention time: 14.172 min
Base peak: 79.0211
Precursor m/z: 280.1366
Precursor type: [M+H]+
Precursor intensity: 14397695.625
m/z	relative intensity	assigned
88.0756	24	C4H10NO+
128.1069	29	C7H14NO+
146.0722	1	C10H10O+
165.0732	59	C10H13S+
193.0681	8	C11H13OS+
265.1127	2	C14H19NO2S+
280.1363	999	C15H22NO2S+
