Mass spectrum: Triazophos; LC-ESI-QFT; MS2; CE: 15; R=17500; [M+H]+
Name: Triazophos
Name: diethoxy-[(1-phenyl-1,2,4-triazol-3-yl)oxy]-sulfanylidene-lambda5-phosphane
Formula: C12H16N3O3PS
Exact mass: 313.0650
SMILES: CCOP(=S)(OCC)OC1=NN(C=N1)C1=CC=CC=C1
InChI: InChI=1S/C12H16N3O3PS/c1-3-16-19(20,17-4-2)18-12-13-10-15(14-12)11-8-6-5-7-9-11/h5-10H,3-4H2,1-2H3
Instrument: Q Exactive Orbitrap (Thermo Scientific)
Instrument type: LC-ESI-QFT
Ms type: MS2
Ion mode: POSITIVE
Ionization: ESI
Fragmentation mode: HCD
Collision energy: 15
Resolution: 17500
Column name: Acquity BEH C18 1.7um, 2.1x150mm (Waters)
Retention time: 17.774 min
Base peak: 79.0211
Precursor m/z: 314.0723
Precursor type: [M+H]+
Precursor intensity: 18337600.125
m/z	relative intensity	assigned
77.0388	1	C2H8NP+
96.9516	1	H2O2PS+
114.9613	3	H4O3PS+
124.983	1	C2H6O2PS+
153.0129	1	C4H10O2PS+
162.066	549	C8H8N3O+
171.0238	3	C4H12O3PS+
178.0433	12	C8H8N3S+
190.0974	8	C10H12N3O+
206.0749	1	C10H12N3S+
258.0097	14	C8H9N3O3PS+
286.0409	134	C10H13N3O3PS+
314.0722	999	C12H17N3O3PS+
