Mass spectrum: Aziprotryne; LC-ESI-QFT; MS2; CE: 15; R=17500; [M-H]-
Name: Aziprotryne
Name: 4-azido-6-methylsulfanyl-N-propan-2-yl-1,3,5-triazin-2-amine
Formula: C7H11N7S
Exact mass: 225.0797
SMILES: CSC1=NC(NC(C)C)=NC(N=[N+]=[N-])=N1
InChI: InChI=1S/C7H11N7S/c1-4(2)9-5-10-6(13-14-8)12-7(11-5)15-3/h4H,1-3H3,(H,9,10,11,12)
Instrument: Q Exactive Orbitrap (Thermo Scientific)
Instrument type: LC-ESI-QFT
Ms type: MS2
Ion mode: NEGATIVE
Ionization: ESI
Fragmentation mode: HCD
Collision energy: 15
Resolution: 17500
Column name: Acquity BEH C18 1.7um, 2.1x150mm (Waters)
Retention time: 17.621 min
Base peak: 193.0869
Precursor m/z: 224.0724
Precursor type: [M-H]-
Precursor intensity: 729781.0458984
m/z	relative intensity	assigned
57.9757	17	CNS-
66.0098	486	C2N3-
80.0128	23	C2N4-
87.0022	37	C2H3N2S-
96.0567	39	C4H6N3-
134.0472	36	C5H4N5-
151.0737	90	C5H7N6-
153.0114	268	C4H3N5S-
154.0194	91	C4H4N5S-
169.0551	110	C6H9N4S-
181.0427	57	C6H7N5S-
196.0663	389	C7H10N5S-
224.0725	999	C7H10N7S-
