Mass spectrum: Quinmerac; LC-ESI-QFT; MS2; CE: 60; R=17500; [M+H]+
Name: Quinmerac
Name: 7-chloro-3-methylquinoline-8-carboxylic acid
Formula: C11H8ClNO2
Exact mass: 221.0244
SMILES: CC1=CC2=C(N=C1)C(C(O)=O)=C(Cl)C=C2
InChI: InChI=1S/C11H8ClNO2/c1-6-4-7-2-3-8(12)9(11(14)15)10(7)13-5-6/h2-5H,1H3,(H,14,15)
Instrument: Q Exactive Orbitrap (Thermo Scientific)
Instrument type: LC-ESI-QFT
Ms type: MS2
Ion mode: POSITIVE
Ionization: ESI
Fragmentation mode: HCD
Collision energy: 60
Resolution: 17500
Column name: Acquity BEH C18 1.7um, 2.1x150mm (Waters)
Retention time: 13.186 min
Base peak: 79.0211
Precursor m/z: 222.0316
Precursor type: [M+H]+
Precursor intensity: 9953889.875
m/z	relative intensity	assigned
50.015	1	C4H2+
51.0231	2	C4H3+
53.0386	69	C4H5+
55.0179	3	C3H3O+
63.9948	21	CH3ClN+
65.0385	218	C5H5+
67.0542	1	C5H7+
73.9791	3	C2HClN+
74.0236	4	C2H4NO2+
75.9948	23	C2H3ClN+
77.0384	26	C6H5+
81.0335	5	C5H5O+
87.9948	38	C3H3ClN+
91.0058	4	C5HNO+
92.0494	798	C6H6N+
93.0573	42	C6H7N+
94.0651	216	C6H8N+
95.0491	210	C6H7O+
101.974	15	C3HClNO+
103.0057	4	C6HNO+
103.0541	6	C8H7+
104.0494	906	C7H6N+
106.0651	3	C7H8N+
110.0601	2	C6H8NO+
111.044	3	C6H7O2+
115.0542	2	C9H7+
116.0494	4	C8H6N+
116.9974	8	C4H4ClNO+
117.0572	3	C8H7N+
119.0008	9	C6HNO2+
120.0442	8	C7H6NO+
122.9998	2	C7H4Cl+
125.0153	3	C7H6Cl+
130.065	28	C9H8N+
132.0443	24	C8H6NO+
133.0521	2	C8H7NO+
134.0598	1	C8H8NO+
140.0494	90	C10H6N+
141.0572	194	C10H7N+
144.0555	2	C10H8O+
146.0115	162	C6H7ClO2+
149.0152	152	C9H6Cl+
150.0105	20	C8H5ClN+
152.0263	2	C8H7ClN+
158.0599	14	C10H8NO+
159.0675	3	C10H9NO+
166.0056	3	C8H5ClNO+
176.0261	167	C10H7ClN+
178.0053	5	C9H5ClNO+
193.0289	80	C10H8ClNO+
194.0367	223	C10H9ClNO+
204.0211	999	C11H7ClNO+
222.0319	372	C11H9ClNO2+
