Mass spectrum: Tolbutamide; LC-ESI-QFT; MS2; CE: 60; R=17500; [M-H]-
Name: Tolbutamide
Name: 1-butyl-3-(4-methylphenyl)sulfonylurea
Formula: C12H18N2O3S
Exact mass: 270.1038
SMILES: CCCCNC(=O)NS(=O)(=O)C1=CC=C(C)C=C1
InChI: InChI=1S/C12H18N2O3S/c1-3-4-9-13-12(15)14-18(16,17)11-7-5-10(2)6-8-11/h5-8H,3-4,9H2,1-2H3,(H2,13,14,15)
Instrument: Q Exactive Orbitrap (Thermo Scientific)
Instrument type: LC-ESI-QFT
Ms type: MS2
Ion mode: NEGATIVE
Ionization: ESI
Fragmentation mode: HCD
Collision energy: 60
Resolution: 17500
Column name: Acquity BEH C18 1.7um, 2.1x150mm (Waters)
Retention time: 16.151 min
Base peak: 112.9857
Precursor m/z: 269.0965
Precursor type: [M-H]-
Precursor intensity: 10278831.96143
m/z	relative intensity	assigned
61.9706	34	NOS-
63.9624	26	O2S-
77.9655	19	NO2S-
78.9733	73	HNO2S-
79.9811	195	H2NO2S-
80.9652	4	HO3S-
93.9604	37	NO3S-
106.0662	999	C7H8N-
107.0502	24	C7H7O-
122.0611	20	C7H8NO-
150.0561	6	C8H8NO2-
170.028	882	C7H8NO2S-
174.9719	5	C8HNO2S-
