Mass spectrum: Triallyl trimellitate; LC-ESI-QFT; MS2; CE: 60; R=17500; [M+H]+
Name: Triallyl trimellitate
Name: tris(prop-2-enyl) benzene-1,2,4-tricarboxylate
Formula: C18H18O6
Exact mass: 330.1103
SMILES: C=CCOC(=O)C1=CC=C(C(=O)OCC=C)C(=C1)C(=O)OCC=C
InChI: InChI=1S/C18H18O6/c1-4-9-22-16(19)13-7-8-14(17(20)23-10-5-2)15(12-13)18(21)24-11-6-3/h4-8,12H,1-3,9-11H2
Instrument: Q Exactive Orbitrap (Thermo Scientific)
Instrument type: LC-ESI-QFT
Ms type: MS2
Ion mode: POSITIVE
Ionization: ESI
Fragmentation mode: HCD
Collision energy: 60
Resolution: 17500
Column name: Acquity BEH C18 1.7um, 2.1x150mm (Waters)
Retention time: 18.683 min
Base peak: 79.0211
Precursor m/z: 331.1176
Precursor type: [M+H]+
Precursor intensity: 3280579.5625
m/z	relative intensity	assigned
97.0651	999	C6H9O+
