Mass spectrum: Fluometuron; LC-ESI-QFT; MS2; CE: 60; R=17500; [M+H]+
Name: Fluometuron
Name: 1,1-dimethyl-3-[3-(trifluoromethyl)phenyl]urea
Formula: C10H11F3N2O
Exact mass: 232.0823
SMILES: CN(C)C(=O)NC1=CC=CC(=C1)C(F)(F)F
InChI: InChI=1S/C10H11F3N2O/c1-15(2)9(16)14-8-5-3-4-7(6-8)10(11,12)13/h3-6H,1-2H3,(H,14,16)
Instrument: Q Exactive Orbitrap (Thermo Scientific)
Instrument type: LC-ESI-QFT
Ms type: MS2
Ion mode: POSITIVE
Ionization: ESI
Fragmentation mode: HCD
Collision energy: 60
Resolution: 17500
Column name: Acquity BEH C18 1.7um, 2.1x150mm (Waters)
Retention time: 16.075 min
Base peak: 79.0211
Precursor m/z: 233.0896
Precursor type: [M+H]+
Precursor intensity: 12870366.5
m/z	relative intensity	assigned
56.0131	7	C2H2NO+
72.0443	999	C3H6NO+
140.0306	3	C7H4F2N+
145.0259	9	C7H4F3+
160.0369	38	C7H5F3N+
163.0366	1	C7H6F3O+
168.0255	19	C8H4F2NO+
173.032	6	C7H4F3N2+
178.0474	3	C7H7F3NO+
187.0505	1	C8H6F3N2+
188.0317	6	C8H5F3NO+
192.063	5	C8H9F3NO+
205.061	2	C8H8F3N2O+
233.0913	1	C10H12F3N2O+
