Mass spectrum: PharmaGSID_48511; LC-ESI-QFT; MS2; CE: 60; R=17500; [M+H]+
Name: PharmaGSID_48511
Name: 4-[(9-cyclopentyl-7,7-difluoro-5-methyl-6-oxo-8H-pyrimido[4,5-b][1,4]diazepin-2-yl)amino]-3-methoxy-N-(1-methylpiperidin-4-yl)benzamide
Formula: C27H35F2N7O3
Exact mass: 543.2769
SMILES: COC1=C(NC2=NC3=C(C=N2)N(C)C(=O)C(F)(F)CN3C2CCCC2)C=CC(=C1)C(=O)NC1CCN(C)CC1
InChI: InChI=1S/C27H35F2N7O3/c1-34-12-10-18(11-13-34)31-24(37)17-8-9-20(22(14-17)39-3)32-26-30-15-21-23(33-26)36(19-6-4-5-7-19)16-27(28,29)25(38)35(21)2/h8-9,14-15,18-19H,4-7,10-13,16H2,1-3H3,(H,31,37)(H,30,32,33)
Instrument: Q Exactive Orbitrap (Thermo Scientific)
Instrument type: LC-ESI-QFT
Ms type: MS2
Ion mode: POSITIVE
Ionization: ESI
Fragmentation mode: HCD
Collision energy: 60
Resolution: 17500
Column name: Acquity BEH C18 1.7um, 2.1x150mm (Waters)
Retention time: 14.825 min
Base peak: 79.0211
Precursor m/z: 544.2842
Precursor type: [M+H]+
Precursor intensity: 9496405.46875
m/z	relative intensity	assigned
55.0542	7	C4H7+
67.0542	7	C5H7+
69.0698	6	C5H9+
70.0651	14	C4H8N+
80.0494	1	C5H6N+
96.0808	6	C6H10N+
98.0965	23	C6H12N+
104.0494	1	C7H6N+
105.0335	1	C7H5O+
119.0604	1	C7H7N2+
161.0519	1	C6H7F2N2O+
186.0714	1	C12H9FN+
201.0581	1	C7H7F2N4O+
212.0929	1	C11H10N5+
214.066	13	C8H8F2N4O+
223.0854	1	C12H9N5+
226.072	5	C11H8N5O+
227.0924	1	C7H10FN7O+
228.0681	1	C11H7FN5+
229.0532	55	C8H7F2N4O2+
231.0689	1	C13H10FNO2+
234.0715	1	C16H9FN+
240.0888	5	C9H11FN5O2+
242.0836	1	C12H9FN5+
242.1035	2	C12H12N5O+
246.0559	26	C8H8F2N4O3+
247.0793	1	C17H10FN+
248.0741	2	C11H8F2N5+
253.0899	1	C16H12FNO+
254.0676	2	C12H8N5O2+
254.0832	1	C13H9FN5+
255.0751	29	C12H9N5O2+
256.0628	1	C12H7FN5O+
256.1193	1	C13H14N5O+
257.0702	2	C12H8FN5O+
257.0836	3	C18H11NO+
262.0902	3	C17H11FN2+
263.0739	3	C12H9F2N4O+
263.0969	3	C12H11F2N5+
266.1034	2	C14H12N5O+
269.0903	1	C13H11N5O2+
270.0797	2	C10H10F2N5O2+
270.0984	18	C13H12N5O2+
271.0864	6	C13H10FN5O+
272.0945	4	C18H12N2O+
276.0831	5	C15H12F2NO2+
279.0925	21	C12H11F2N5O+
282.129	11	C18H17FNO+
283.0701	3	C13H9N5O3+
285.0781	4	C9H9F2N7O2+
286.0865	2	C19H12NO2+
290.0848	21	C13H10F2N5O+
291.0698	10	C15H11F2NO3+
291.0925	107	C13H11F2N5O+
292.1008	2	C18H13FN2O+
294.1347	1	C16H16N5O+
298.0747	54	C11H10F2N5O3+
303.0925	22	C14H11F2N5O+
304.1004	37	C14H12F2N5O+
306.0934	2	C19H12F2N2+
306.1164	15	C19H15FN2O+
316.1004	2	C15H12F2N5O+
319.0876	999	C14H11F2N5O2+
320.0944	3	C22H12N2O+
334.111	506	C15H14F2N5O2+
335.0824	52	C14H11F2N5O3+
342.1172	1	C19H16F2N2O2+
346.1112	8	C21H15FN2O2+
351.077	3	C22H11N2O3+
362.106	309	C16H14F2N5O3+
371.1558	8	C24H20FN2O+
419.1405	1	C25H16FN6+
430.1688	170	C26H23FN2O3+
