Mass spectrum: Suxibuzone; LC-ESI-QFT; MS2; CE: 45; R=17500; [M+H]+
Name: Suxibuzone
Name: 4-[(4-butyl-3,5-dioxo-1,2-diphenylpyrazolidin-4-yl)methoxy]-4-oxobutanoic acid
Formula: C24H26N2O6
Exact mass: 438.1791
SMILES: CCCCC1(COC(=O)CCC(O)=O)C(=O)N(N(C1=O)C1=CC=CC=C1)C1=CC=CC=C1
InChI: InChI=1S/C24H26N2O6/c1-2-3-16-24(17-32-21(29)15-14-20(27)28)22(30)25(18-10-6-4-7-11-18)26(23(24)31)19-12-8-5-9-13-19/h4-13H,2-3,14-17H2,1H3,(H,27,28)
Instrument: Q Exactive Orbitrap (Thermo Scientific)
Instrument type: LC-ESI-QFT
Ms type: MS2
Ion mode: POSITIVE
Ionization: ESI
Fragmentation mode: HCD
Collision energy: 45
Resolution: 17500
Column name: Acquity BEH C18 1.7um, 2.1x150mm (Waters)
Retention time: 17.593 min
Base peak: 79.0211
Precursor m/z: 439.1864
Precursor type: [M+H]+
Precursor intensity: 13342465.75
m/z	relative intensity	assigned
53.0386	3	C4H5+
55.0178	70	C3H3O+
55.0542	26	C4H7+
57.0698	7	C4H9+
65.0385	9	C5H5+
67.0542	5	C5H7+
69.0334	3	C4H5O+
69.0698	17	C5H9+
71.0854	7	C5H11+
73.0283	107	C3H5O2+
77.0387	4	C6H5+
79.0542	11	C6H7+
81.0698	27	C6H9+
83.0855	8	C6H11+
84.0808	3	C5H10N+
87.0441	1	C4H7O2+
91.0389	2	C3H7O3+
91.054	4	C7H7+
92.0494	13	C6H6N+
93.0334	4	C6H5O+
93.0573	7	C6H7N+
94.0651	69	C6H8N+
95.0491	27	C6H7O+
97.0648	26	C6H9O+
99.0806	1	C6H11O+
101.0233	171	C4H5O3+
104.0494	90	C7H6N+
105.0335	2	C7H5O+
105.0448	3	C6H5N2+
105.0545	1	C4H9O3+
105.0699	1	C8H9+
106.0651	64	C7H8N+
109.0648	17	C7H9O+
111.044	15	C6H7O2+
111.0805	1	C7H11O+
115.0389	22	C5H7O3+
117.0569	3	C8H7N+
117.0699	1	C9H9+
118.065	108	C8H8N+
119.034	2	C4H7O4+
119.0731	1	C8H9N+
120.0443	48	C7H6NO+
120.0807	35	C8H10N+
123.0439	4	C7H7O2+
125.0597	2	C7H9O2+
130.0651	37	C9H8N+
131.0729	29	C9H9N+
132.0443	45	C8H6NO+
132.0808	18	C9H10N+
133.0521	6	C8H7NO+
134.06	30	C8H8NO+
139.0754	5	C8H11O2+
143.073	2	C10H9N+
143.0855	2	C11H11+
144.0443	1	C9H6NO+
144.0807	10	C10H10N+
145.0886	6	C10H11N+
145.101	5	C11H13+
146.06	150	C9H8NO+
147.0678	3	C9H9NO+
148.0392	1	C8H6NO2+
148.0756	15	C9H10NO+
148.112	8	C10H14N+
150.0546	4	C8H8NO2+
158.0602	5	C10H8NO+
158.0962	4	C11H12N+
159.0681	3	C10H9NO+
159.104	1	C11H13N+
160.112	999	C11H14N+
162.0548	13	C9H8NO2+
162.1276	181	C11H16N+
164.0704	1	C9H10NO2+
168.0806	7	C12H10N+
170.0963	1	C12H12N+
172.0757	2	C11H10NO+
172.112	27	C12H14N+
173.0835	2	C11H11NO+
173.1193	3	C12H15N+
174.0549	44	C10H8NO2+
174.1275	12	C12H16N+
175.0626	2	C10H9NO2+
180.0806	1	C13H10N+
182.0958	1	C13H12N+
183.0916	1	C12H11N2+
184.0757	1	C12H10NO+
184.1116	3	C13H14N+
185.0838	1	C12H11NO+
185.1073	1	C12H13N2+
186.091	4	C12H12NO+
187.099	2	C12H13NO+
188.1069	46	C12H14NO+
190.1225	49	C12H16NO+
195.0918	7	C13H11N2+
198.0915	2	C13H12NO+
200.1069	23	C13H14NO+
202.1226	22	C13H16NO+
206.1178	6	C12H16NO2+
207.0918	5	C14H11N2+
208.0994	31	C14H12N2+
209.1072	13	C14H13N2+
211.0865	60	C13H11N2O+
216.1019	8	C13H14NO2+
218.1172	2	C13H16NO2+
219.0917	2	C15H11N2+
221.1069	3	C15H13N2+
223.0865	3	C14H11N2O+
223.1227	2	C15H15N2+
228.1018	2	C14H14NO2+
233.1073	1	C16H13N2+
234.0793	1	C15H10N2O+
235.0863	2	C15H11N2O+
236.0947	1	C15H12N2O+
237.102	19	C15H13N2O+
239.1186	2	C15H15N2O+
245.107	1	C17H13N2+
247.0862	1	C16H11N2O+
249.1016	1	C16H13N2O+
251.1542	40	C17H19N2+
253.0969	2	C15H13N2O2+
261.1017	2	C17H13N2O+
261.1385	1	C18H17N2+
265.1698	4	C18H21N2+
267.1127	23	C16H15N2O2+
275.1545	4	C19H19N2+
279.1491	7	C18H19N2O+
281.1648	5	C18H21N2O+
291.1491	1	C19H19N2O+
293.1649	5	C19H21N2O+
303.1503	2	C20H19N2O+
309.1597	149	C19H21N2O2+
321.1603	1	C20H21N2O2+
