Mass spectrum: 4,4`-Methylenebis(2,6-diethylaniline); LC-ESI-QFT; MS2; CE: 60; R=17500; [M+H]+
Name: 4,4'-Methylenebis(2,6-diethylaniline)
Name: 4-[(4-amino-3,5-diethylphenyl)methyl]-2,6-diethylaniline
Formula: C21H30N2
Exact mass: 310.2409
SMILES: CCC1=CC(CC2=CC(CC)=C(N)C(CC)=C2)=CC(CC)=C1N
InChI: InChI=1S/C21H30N2/c1-5-16-10-14(11-17(6-2)20(16)22)9-15-12-18(7-3)21(23)19(8-4)13-15/h10-13H,5-9,22-23H2,1-4H3
Instrument: Q Exactive Orbitrap (Thermo Scientific)
Instrument type: LC-ESI-QFT
Ms type: MS2
Ion mode: POSITIVE
Ionization: ESI
Fragmentation mode: HCD
Collision energy: 60
Resolution: 17500
Column name: Acquity BEH C18 1.7um, 2.1x150mm (Waters)
Retention time: 16.990 min
Base peak: 79.0211
Precursor m/z: 311.2482
Precursor type: [M+H]+
Precursor intensity: 39710450.46875
m/z	relative intensity	assigned
67.0542	2	C5H7+
79.0541	2	C6H7+
91.0542	17	C7H7+
93.0697	2	C7H9+
94.065	1	C6H8N+
103.0541	2	C8H7+
105.0699	28	C8H9+
106.0651	2	C7H8N+
107.0856	1	C8H11+
115.0541	18	C9H7+
116.062	6	C9H8+
117.0698	130	C9H9+
118.065	4	C8H8N+
119.0729	5	C8H9N+
119.0855	8	C9H11+
120.0808	2	C8H10N+
128.062	6	C10H8+
129.0697	8	C10H9+
130.0656	1	C9H8N+
130.0777	31	C10H10+
131.0731	3	C9H9N+
131.0856	2	C10H11+
132.0807	10	C9H10N+
133.0886	7	C9H11N+
133.1011	3	C10H13+
134.0963	19	C9H12N+
143.0855	9	C11H11+
144.0807	1	C10H10N+
145.1011	162	C11H13+
146.0963	33	C10H12N+
147.1042	91	C10H13N+
147.1162	12	C11H15+
148.1118	4	C10H14N+
149.1199	1	C10H15N+
158.0963	1	C11H12N+
159.1041	1	C11H13N+
160.1122	9	C11H14N+
161.1202	1	C11H15N+
162.1276	999	C11H16N+
172.1119	1	C12H14N+
174.128	1	C12H16N+
191.0854	1	C15H11+
193.0899	1	C14H11N+
193.1009	1	C15H13+
194.0965	1	C14H12N+
205.1008	2	C16H13+
206.0961	1	C15H12N+
206.1089	2	C16H14+
207.1043	9	C15H13N+
208.1119	6	C15H14N+
209.1195	2	C15H15N+
210.1279	1	C15H16N+
219.1167	2	C17H15+
220.1123	1	C16H14N+
220.1249	1	C17H16+
221.1197	27	C16H15N+
222.1276	7	C16H16N+
233.1317	2	C18H17+
234.1274	1	C17H16N+
235.1355	3	C17H17N+
236.1432	45	C17H18N+
237.1509	5	C17H19N+
238.1586	3	C17H20N+
250.1589	39	C18H20N+
253.1697	1	C17H21N2+
264.1745	30	C19H22N+
265.1824	30	C19H23N+
266.1909	1	C19H24N+
267.1855	2	C18H23N2+
278.1902	1	C20H24N+
281.2014	2	C19H25N2+
292.2051	1	C21H26N+
294.2214	3	C21H28N+
295.2172	2	C20H27N2+
309.2326	5	C21H29N2+
311.248	18	C21H31N2+
