Mass spectrum: 3-Methyl-1-phenyl-1H-pyrazol-5-amine; LC-ESI-QFT; MS2; CE: 75; R=17500; [M+H]+
Name: 3-Methyl-1-phenyl-1H-pyrazol-5-amine
Name: 5-methyl-2-phenylpyrazol-3-amine
Formula: C10H11N3
Exact mass: 173.0953
SMILES: CC1=NN(C(N)=C1)C1=CC=CC=C1
InChI: InChI=1S/C10H11N3/c1-8-7-10(11)13(12-8)9-5-3-2-4-6-9/h2-7H,11H2,1H3
Instrument: Q Exactive Orbitrap (Thermo Scientific)
Instrument type: LC-ESI-QFT
Ms type: MS2
Ion mode: POSITIVE
Ionization: ESI
Fragmentation mode: HCD
Collision energy: 75
Resolution: 17500
Column name: Acquity BEH C18 1.7um, 2.1x150mm (Waters)
Retention time: 9.555 min
Base peak: 79.0211
Precursor m/z: 174.1026
Precursor type: [M+H]+
Precursor intensity: 5141082.03125
m/z	relative intensity	assigned
51.023	2	C4H3+
53.0387	7	C4H5+
56.0495	2	C3H6N+
57.0448	3	C2H5N2+
65.0386	66	C5H5+
68.0243	4	C2H2N3+
68.0495	4	C4H6N+
71.0604	8	C3H7N2+
77.0386	2	C6H5+
79.0542	139	C6H7+
80.0494	2	C5H6N+
81.0448	6	C4H5N2+
82.0526	3	C4H6N2+
83.0603	5	C4H7N2+
89.0386	15	C7H5+
91.0541	11	C7H7+
92.0495	169	C6H6N+
93.0574	87	C6H7N+
95.0492	17	C4H5N3+
96.0558	2	C4H6N3+
97.0634	2	C4H7N3+
103.0542	13	C8H7+
104.0494	31	C7H6N+
105.0448	7	C6H5N2+
105.0701	4	C8H9+
106.0652	999	C7H8N+
107.0602	2	C6H7N2+
115.0541	8	C9H7+
116.0495	74	C8H6N+
117.0573	72	C8H7N+
118.0527	3	C7H6N2+
118.0651	26	C8H8N+
119.0604	8	C7H7N2+
120.0811	5	C8H10N+
128.0497	4	C9H6N+
130.0652	134	C9H8N+
131.0605	7	C8H7N2+
131.0731	5	C9H9N+
132.0683	81	C8H8N2+
132.0806	21	C9H10N+
133.0761	284	C8H9N2+
134.0713	88	C7H8N3+
140.0495	5	C10H6N+
142.0526	14	C9H6N2+
144.0807	19	C10H10N+
145.0759	5	C9H9N2+
145.0888	5	C10H11N+
146.0842	2	C9H10N2+
147.0917	14	C9H11N2+
156.0681	20	C10H8N2+
157.076	34	C10H9N2+
159.0793	8	C9H9N3+
174.1026	131	C10H12N3+
