Mass spectrum: MK-578; LC-ESI-QFT; MS2; CE: 90; R=17500; [M+H]+
Name: MK-578
Name: (2R)-2-[[(1R,3S,4S)-3-[[4-(5-benzyl-2-ethylpyrazol-3-yl)piperidin-1-yl]methyl]-4-(3-fluorophenyl)cyclopentyl]-methylamino]-3-methylbutanoic acid
Formula: C35H47FN4O2
Exact mass: 574.3683
SMILES: CCN1N=C(CC2=CC=CC=C2)C=C1C1CCN(C[C@H]2C[C@@H](C[C@@H]2C2=CC=CC(F)=C2)N(C)[C@H](C(C)C)C(O)=O)CC1
InChI: InChI=1S/C35H47FN4O2/c1-5-40-33(21-30(37-40)18-25-10-7-6-8-11-25)26-14-16-39(17-15-26)23-28-20-31(38(4)34(24(2)3)35(41)42)22-32(28)27-12-9-13-29(36)19-27/h6-13,19,21,24,26,28,31-32,34H,5,14-18,20,22-23H2,1-4H3,(H,41,42)/t28-,31+,32-,34-/m1/s1
Instrument: Q Exactive Orbitrap (Thermo Scientific)
Instrument type: LC-ESI-QFT
Ms type: MS2
Ion mode: POSITIVE
Ionization: ESI
Fragmentation mode: HCD
Collision energy: 90
Resolution: 17500
Column name: Acquity BEH C18 1.7um, 2.1x150mm (Waters)
Retention time: 14.569 min
Base peak: 79.0211
Precursor m/z: 575.3756
Precursor type: [M+H]+
Precursor intensity: 4471998.625
m/z	relative intensity	assigned
53.0022	2	C3HO+
53.0386	22	C4H5+
55.0543	83	C4H7+
56.0495	39	C3H6N+
57.0134	9	C3H2F+
58.0651	122	C3H8N+
59.0292	6	C3H4F+
65.0386	55	C5H5+
67.0416	5	C4H5N+
67.0543	8	C5H7+
68.0495	14	C4H6N+
69.0699	2	C5H9+
70.0651	96	C4H8N+
71.0729	17	C4H9N+
72.0807	4	C4H10N+
77.0386	5	C6H5+
79.0542	67	C6H7+
80.0495	14	C5H6N+
81.0447	16	C4H5N2+
81.0573	5	C5H7N+
81.0698	3	C6H9+
82.0652	13	C5H8N+
83.0292	125	C5H4F+
84.0808	15	C5H10N+
86.0964	69	C5H12N+
89.0386	13	C7H5+
91.0542	700	C7H7+
93.0574	2	C6H7N+
94.0651	23	C6H8N+
95.0491	46	C6H7O+
95.0603	4	C5H7N2+
95.0729	11	C6H9N+
96.0808	16	C6H10N+
97.0448	3	C6H6F+
98.0965	17	C6H12N+
99.0554	1	C4H7N2O+
103.0542	25	C8H7+
105.0447	22	C6H5N2+
105.0699	12	C8H9+
106.0651	6	C7H8N+
107.0289	2	C7H4F+
107.0604	18	C6H7N2+
107.073	2	C7H9N+
108.0808	6	C7H10N+
109.0448	999	C7H6F+
115.0542	25	C9H7+
119.0604	7	C7H7N2+
120.0808	4	C8H10N+
121.0449	3	C8H6F+
121.0759	9	C7H9N2+
122.0965	3	C8H12N+
123.0552	2	C6H7N2O+
123.0605	3	C8H8F+
123.0918	4	C7H11N2+
125.0711	4	C6H9N2O+
127.0542	21	C10H7+
128.0622	15	C10H8+
129.07	13	C10H9+
132.0684	5	C8H8N2+
133.0448	159	C9H6F+
133.0761	32	C8H9N2+
134.0526	20	C9H7F+
135.0605	14	C9H8F+
135.0917	24	C8H11N2+
137.1074	4	C8H13N2+
141.07	4	C11H9+
142.0779	1	C11H10+
144.0808	2	C10H10N+
145.0648	69	C10H9O+
146.0526	165	C10H7F+
147.0605	128	C10H8F+
147.0915	15	C9H11N2+
149.0763	14	C10H10F+
149.1072	7	C9H13N2+
152.0621	8	C12H8+
153.0699	11	C12H9+
155.0604	97	C10H7N2+
159.0605	98	C11H8F+
160.0683	94	C11H9F+
161.1074	9	C10H13N2+
163.0554	3	C10H8FO+
163.123	5	C10H15N2+
171.0916	6	C11H11N2+
172.0991	1	C11H12N2+
173.0509	7	C10H6FN2+
173.0764	2	C12H10F+
183.0918	1	C12H11N2+
185.1075	3	C12H13N2+
187.122	1	C12H15N2+
188.0872	2	C12H11FN+
197.1072	2	C13H13N2+
199.1226	2	C13H15N2+
209.1074	2	C14H13N2+
211.1231	5	C14H15N2+
213.1386	5	C14H17N2+
225.1387	6	C15H17N2+
239.1535	2	C16H19N2+
241.1691	1	C16H21N2+
