Mass spectrum: Oxyphenisatin; LC-ESI-QFT; MS2; CE: 60; R=17500; [M+H]+
Name: Oxyphenisatin
Name: Oxyphenisatine
Name: 3,3-bis(4-hydroxyphenyl)-1H-indol-2-one
Formula: C20H15NO3
Exact mass: 317.1052
SMILES: OC1=CC=C(C=C1)C1(C(=O)NC2=CC=CC=C12)C1=CC=C(O)C=C1
InChI: InChI=1S/C20H15NO3/c22-15-9-5-13(6-10-15)20(14-7-11-16(23)12-8-14)17-3-1-2-4-18(17)21-19(20)24/h1-12,22-23H,(H,21,24)
Instrument: Q Exactive Orbitrap (Thermo Scientific)
Instrument type: LC-ESI-QFT
Ms type: MS2
Ion mode: POSITIVE
Ionization: ESI
Fragmentation mode: HCD
Collision energy: 60
Resolution: 17500
Column name: Acquity BEH C18 1.7um, 2.1x150mm (Waters)
Retention time: 15.339 min
Base peak: 79.0211
Precursor m/z: 318.1125
Precursor type: [M+H]+
Precursor intensity: 3591563.0625
m/z	relative intensity	assigned
55.0178	3	C3H3O+
68.9971	6	C3HO2+
105.0335	3	C7H5O+
130.0285	2	C8H4NO+
141.0698	27	C11H9+
152.062	4	C12H8+
153.0702	9	C12H9+
154.0651	7	C11H8N+
155.0734	9	C11H9N+
167.0731	53	C12H9N+
168.0808	170	C12H10N+
169.0648	43	C12H9O+
177.0577	4	C13H7N+
178.0652	38	C13H8N+
179.0732	3	C13H9N+
180.0808	4	C13H10N+
181.0647	2	C13H9O+
181.0849	2	C10H13O3+
194.0965	3	C14H12N+
195.0676	6	C13H9NO+
195.1004	7	C11H15O3+
196.0758	999	C13H10NO+
197.0598	125	C13H9O2+
206.0595	5	C14H8NO+
207.0679	66	C14H9NO+
209.0833	12	C14H11NO+
211.0626	3	C13H9NO2+
223.0629	84	C14H9NO2+
224.0706	774	C14H10NO2+
227.0575	3	C13H9NO3+
