Mass spectrum: Quinmerac; LC-ESI-QFT; MS2; CE: 30; R=17500; [M+H]+
Name: Quinmerac
Name: 7-chloro-3-methylquinoline-8-carboxylic acid
Formula: C11H8ClNO2
Exact mass: 221.0244
SMILES: CC1=CC2=C(N=C1)C(C(O)=O)=C(Cl)C=C2
InChI: InChI=1S/C11H8ClNO2/c1-6-4-7-2-3-8(12)9(11(14)15)10(7)13-5-6/h2-5H,1H3,(H,14,15)
Instrument: Q Exactive Orbitrap (Thermo Scientific)
Instrument type: LC-ESI-QFT
Ms type: MS2
Ion mode: POSITIVE
Ionization: ESI
Fragmentation mode: HCD
Collision energy: 30
Resolution: 17500
Column name: Acquity BEH C18 1.7um, 2.1x150mm (Waters)
Retention time: 13.186 min
Base peak: 79.0211
Precursor m/z: 222.0316
Precursor type: [M+H]+
Precursor intensity: 9446461.1875
m/z	relative intensity	assigned
65.0387	1	C5H5+
77.0388	5	C6H5+
92.0494	12	C6H6N+
94.0651	9	C6H8N+
95.049	1	C6H7O+
104.0495	48	C7H6N+
146.0114	2	C6H7ClO2+
149.0152	1	C9H6Cl+
193.0292	3	C10H8ClNO+
204.0212	999	C11H7ClNO+
