Mass spectrum: Leflunomide; LC-ESI-QFT; MS2; CE: 60; R=17500; [M-H]-
Name: Leflunomide
Name: 5-methyl-N-[4-(trifluoromethyl)phenyl]-1,2-oxazole-4-carboxamide
Formula: C12H9F3N2O2
Exact mass: 270.0616
SMILES: CC1=C(C=NO1)C(=O)NC1=CC=C(C=C1)C(F)(F)F
InChI: InChI=1S/C12H9F3N2O2/c1-7-10(6-16-19-7)11(18)17-9-4-2-8(3-5-9)12(13,14)15/h2-6H,1H3,(H,17,18)
Instrument: Q Exactive Orbitrap (Thermo Scientific)
Instrument type: LC-ESI-QFT
Ms type: MS2
Ion mode: NEGATIVE
Ionization: ESI
Fragmentation mode: HCD
Collision energy: 60
Resolution: 17500
Column name: Acquity BEH C18 1.7um, 2.1x150mm (Waters)
Retention time: 17.631 min
Base peak: 269.0544
Precursor m/z: 269.0543
Precursor type: [M-H]-
Precursor intensity: 145486252.6777
m/z	relative intensity	assigned
64.0192	10	C4H2N-
65.9986	125	C3NO-
82.0298	999	C4H4NO-
90.0349	1	C6H4N-
100.0194	9	C7H2N-
107.0249	1	C5H3N2O-
120.0255	11	C7H3FN-
138.036	14	C7H5FNO-
140.0317	8	C7H4F2N-
160.0379	319	C7H5F3N-
185.0331	2	C8H4F3N2-
