Mass spectrum: Penoxsulam; LC-ESI-QFT; MS2; CE: 15; R=17500; [M-H]-
Name: Penoxsulam
Name: 2-(2,2-difluoroethoxy)-N-(5,8-dimethoxy-[1,2,4]triazolo[1,5-c]pyrimidin-2-yl)-6-(trifluoromethyl)benzenesulfonamide
Formula: C16H14F5N5O5S
Exact mass: 483.0636
SMILES: COC1=CN=C(OC)N2N=C(NS(=O)(=O)C3=C(C=CC=C3OCC(F)F)C(F)(F)F)N=C12
InChI: InChI=1S/C16H14F5N5O5S/c1-29-10-6-22-15(30-2)26-13(10)23-14(24-26)25-32(27,28)12-8(16(19,20)21)4-3-5-9(12)31-7-11(17)18/h3-6,11H,7H2,1-2H3,(H,24,25)
Instrument: Q Exactive Orbitrap (Thermo Scientific)
Instrument type: LC-ESI-QFT
Ms type: MS2
Ion mode: NEGATIVE
Ionization: ESI
Fragmentation mode: HCD
Collision energy: 15
Resolution: 17500
Column name: Acquity BEH C18 1.7um, 2.1x150mm (Waters)
Retention time: 15.561 min
Base peak: 99.9976
Precursor m/z: 482.0563
Precursor type: [M-H]-
Precursor intensity: 17216671.62207
m/z	relative intensity	assigned
61.0095	3	C2H2FO-
81.0158	6	C2H3F2O-
179.0575	20	C4H9F4NO2-
296.0527	3	C12H7F3N4O2-
311.0766	3	C13H10F3N4O2-
322.0556	8	C13H7F3N5O2-
353.0737	2	C12H12F5N5S-
386.0178	10	C13H7F3N5O4S-
418.0943	17	C16H13F5N5O3-
462.0492	3	C16H12F4N5O5S-
467.0319	4	C15H10F5N5O5S-
482.056	999	C16H13F5N5O5S-
