Mass spectrum: Florasulam; LC-ESI-QFT; MS2; CE: 15; R=17500; [M+H]+
Name: Florasulam
Name: N-(2,6-difluorophenyl)-8-fluoro-5-methoxy-[1,2,4]triazolo[1,5-c]pyrimidine-2-sulfonamide
Formula: C12H8F3N5O3S
Exact mass: 359.0300
SMILES: COC1=NC=C(F)C2=NC(=NN12)S(=O)(=O)NC1=C(F)C=CC=C1F
InChI: InChI=1S/C12H8F3N5O3S/c1-23-12-16-5-8(15)10-17-11(18-20(10)12)24(21,22)19-9-6(13)3-2-4-7(9)14/h2-5,19H,1H3
Instrument: Q Exactive Orbitrap (Thermo Scientific)
Instrument type: LC-ESI-QFT
Ms type: MS2
Ion mode: POSITIVE
Ionization: ESI
Fragmentation mode: HCD
Collision energy: 15
Resolution: 17500
Column name: Acquity BEH C18 1.7um, 2.1x150mm (Waters)
Retention time: 13.974 min
Base peak: 79.0211
Precursor m/z: 360.0373
Precursor type: [M+H]+
Precursor intensity: 7582476.9375
m/z	relative intensity	assigned
129.0384	280	C6H5F2N+
144.0256	3	C6H4F2NO+
145.0334	11	C6H5F2NO+
191.9925	33	C6H4F2NO2S+
296.0755	10	C12H9F3N5O+
360.0372	999	C12H9F3N5O3S+
