Mass spectrum: 4-Amino-2,5-dimethoxy-N-phenylbenzenesulfonamide; LC-ESI-QFT; MS2; CE: 75; R=17500; [M-H]-
Name: 4-Amino-2,5-dimethoxy-N-phenylbenzenesulfonamide
Formula: C14H16N2O4S
Exact mass: 308.0831
SMILES: COC1=CC(N)=C(OC)C=C1S(=O)(=O)NC1=CC=CC=C1
InChI: InChI=1S/C14H16N2O4S/c1-19-12-9-14(13(20-2)8-11(12)15)21(17,18)16-10-6-4-3-5-7-10/h3-9,16H,15H2,1-2H3
Instrument: Q Exactive Orbitrap (Thermo Scientific)
Instrument type: LC-ESI-QFT
Ms type: MS2
Ion mode: NEGATIVE
Ionization: ESI
Fragmentation mode: HCD
Collision energy: 75
Resolution: 17500
Column name: Acquity BEH C18 1.7um, 2.1x150mm (Waters)
Retention time: 14.546 min
Base peak: 112.9856
Precursor m/z: 307.0758
Precursor type: [M-H]-
Precursor intensity: 232945.5200195
m/z	relative intensity	assigned
68.014	73	C3H2NO-
91.0428	77	C6H5N-
92.0506	237	C6H6N-
110.0247	999	C5H4NO2-
116.0504	136	C8H6N-
136.0404	204	C7H6NO2-
138.0197	57	C6H4NO3-
144.0457	46	C9H6NO-
167.0616	83	C11H7N2-
168.0455	68	C11H6NO-
185.0722	182	C11H9N2O-
186.056	206	C11H8NO2-
195.0564	102	C12H7N2O-
196.0404	120	C12H6NO2-
197.0481	149	C12H7NO2-
213.0669	806	C12H9N2O2-
