Mass spectrum: Hydroxyprogesterone caproate; LC-ESI-QFT; MS2; CE: 60; R=17500; [M+H]+
Name: Hydroxyprogesterone caproate
Name: [(8R,9S,10R,13S,14S,17R)-17-acetyl-10,13-dimethyl-3-oxo-2,6,7,8,9,11,12,14,15,16-decahydro-1H-cyclopenta[a]phenanthren-17-yl] hexanoate
Formula: C27H40O4
Exact mass: 428.2927
SMILES: CCCCCC(=O)O[C@@]1(CC[C@H]2[C@@H]3CCC4=CC(=O)CC[C@]4(C)[C@H]3CC[C@]12C)C(C)=O
InChI: InChI=1S/C27H40O4/c1-5-6-7-8-24(30)31-27(18(2)28)16-13-23-21-10-9-19-17-20(29)11-14-25(19,3)22(21)12-15-26(23,27)4/h17,21-23H,5-16H2,1-4H3/t21-,22+,23+,25+,26+,27+/m1/s1
Instrument: Q Exactive Orbitrap (Thermo Scientific)
Instrument type: LC-ESI-QFT
Ms type: MS2
Ion mode: POSITIVE
Ionization: ESI
Fragmentation mode: HCD
Collision energy: 60
Resolution: 17500
Column name: Acquity BEH C18 1.7um, 2.1x150mm (Waters)
Retention time: 19.791 min
Base peak: 79.0211
Precursor m/z: 429.2999
Precursor type: [M+H]+
Precursor intensity: 2007681.828125
m/z	relative intensity	assigned
53.0023	18	C3HO+
53.0387	14	C4H5+
55.0179	22	C3H3O+
55.0543	34	C4H7+
57.0334	5	C3H5O+
59.0493	4	C3H7O+
67.0542	86	C5H7+
69.0335	6	C4H5O+
69.0699	54	C5H9+
71.0855	168	C5H11+
77.0387	5	C6H5+
79.0542	166	C6H7+
81.0699	214	C6H9+
83.0492	127	C5H7O+
83.0857	11	C6H11+
85.0649	6	C5H9O+
91.0543	109	C7H7+
93.07	166	C7H9+
95.0492	34	C6H7O+
95.0856	152	C7H11+
97.0649	999	C6H9O+
99.0803	25	C6H11O+
105.07	199	C8H9+
107.0492	19	C7H7O+
107.0856	95	C8H11+
109.0649	875	C7H9O+
111.0804	52	C7H11O+
117.0698	61	C9H9+
119.0856	176	C9H11+
121.0648	54	C8H9O+
121.1012	45	C9H13+
123.0805	190	C8H11O+
128.0621	20	C10H8+
129.0699	49	C10H9+
130.0777	16	C10H10+
131.0856	122	C10H11+
133.065	12	C9H9O+
133.1012	98	C10H13+
135.0806	8	C9H11O+
135.1167	28	C10H15+
137.0962	12	C9H13O+
141.0699	19	C11H9+
142.0779	22	C11H10+
143.0857	107	C11H11+
144.0934	12	C11H12+
145.1013	235	C11H13+
147.0808	19	C10H11O+
147.1169	170	C11H15+
149.0963	20	C10H13O+
149.1328	9	C11H17+
154.0776	5	C12H10+
155.0856	45	C12H11+
156.0934	29	C12H12+
157.1012	88	C12H13+
158.1093	12	C12H14+
159.0806	9	C11H11O+
159.1169	107	C12H15+
160.1251	8	C12H16+
161.096	18	C11H13O+
161.1327	41	C12H17+
163.1118	45	C11H15O+
163.148	14	C12H19+
167.0859	16	C13H11+
168.0936	17	C13H12+
169.1012	84	C13H13+
170.1091	13	C13H14+
171.1169	82	C13H15+
173.0964	9	C12H13O+
173.1325	61	C13H17+
175.1122	16	C12H15O+
175.1483	74	C13H19+
177.1281	13	C12H17O+
180.0936	6	C14H12+
181.1013	21	C14H13+
182.1092	13	C14H14+
183.1169	52	C14H15+
184.1246	21	C14H16+
185.1327	45	C14H17+
187.1122	5	C13H15O+
187.1485	24	C14H19+
193.1012	9	C15H13+
194.1096	5	C15H14+
195.117	31	C15H15+
196.1249	10	C15H16+
197.1327	58	C15H17+
198.1403	8	C15H18+
199.1482	26	C15H19+
205.1021	6	C16H13+
209.1327	17	C16H17+
211.1486	46	C16H19+
212.1558	6	C16H20+
213.1637	44	C16H21+
215.1427	8	C15H19O+
223.1481	18	C17H19+
225.1641	12	C17H21+
228.0763	14	C14H12O3+
237.164	37	C18H21+
251.1796	7	C19H23+
252.1874	15	C19H24+
253.1953	28	C19H25+
255.1745	16	C18H23O+
271.2063	6	C19H27O+
