Mass spectrum: Biotin; LC-ESI-QFT; MS2; CE: 15; R=17500; [M-H]-
Name: Biotin
Name: 5-[(3aS,4S,6aR)-2-oxo-1,3,3a,4,6,6a-hexahydrothieno[3,4-d]imidazol-4-yl]pentanoic acid
Formula: C10H16N2O3S
Exact mass: 244.0882
SMILES: OC(=O)CCCC[C@@H]1SC[C@@H]2NC(=O)N[C@H]12
InChI: InChI=1S/C10H16N2O3S/c13-8(14)4-2-1-3-7-9-6(5-16-7)11-10(15)12-9/h6-7,9H,1-5H2,(H,13,14)(H2,11,12,15)/t6-,7-,9-/m0/s1
Instrument: Q Exactive Orbitrap (Thermo Scientific)
Instrument type: LC-ESI-QFT
Ms type: MS2
Ion mode: NEGATIVE
Ionization: ESI
Fragmentation mode: HCD
Collision energy: 15
Resolution: 17500
Column name: Acquity BEH C18 1.7um, 2.1x150mm (Waters)
Retention time: 11.886 min
Base peak: 243.0807
Precursor m/z: 243.0809
Precursor type: [M-H]-
Precursor intensity: 9141383.375732
m/z	relative intensity	assigned
74.007	15	C2H4NS-
97.0408	2	C4H5N2O-
111.0453	2	C6H7O2-
111.0564	2	C5H7N2O-
120.082	4	C8H10N-
122.0975	10	C8H12N-
139.0587	1	C8H11S-
156.0852	19	C8H14NS-
165.1033	23	C9H13N2O-
166.0873	120	C9H12NO2-
191.0827	2	C10H11N2O2-
197.0932	7	C9H13N2O3-
199.0911	48	C9H15N2OS-
200.0751	267	C9H14NO2S-
209.0931	37	C10H13N2O3-
225.0709	1	C10H13N2O2S-
243.0808	999	C10H15N2O3S-
