Mass spectrum: Hydroxyflutamide; LC-ESI-QFT; MS2; CE: 30; R=17500; [M-H]-
Name: Hydroxyflutamide
Name: 2-hydroxy-2-methyl-N-[4-nitro-3-(trifluoromethyl)phenyl]propanamide
Formula: C11H11F3N2O4
Exact mass: 292.0671
SMILES: CC(C)(O)C(=O)NC1=CC(=C(C=C1)[N+]([O-])=O)C(F)(F)F
InChI: InChI=1S/C11H11F3N2O4/c1-10(2,18)9(17)15-6-3-4-8(16(19)20)7(5-6)11(12,13)14/h3-5,18H,1-2H3,(H,15,17)
Instrument: Q Exactive Orbitrap (Thermo Scientific)
Instrument type: LC-ESI-QFT
Ms type: MS2
Ion mode: NEGATIVE
Ionization: ESI
Fragmentation mode: HCD
Collision energy: 30
Resolution: 17500
Column name: Acquity BEH C18 1.7um, 2.1x150mm (Waters)
Retention time: 16.807 min
Base peak: 291.0599
Precursor m/z: 291.0598
Precursor type: [M-H]-
Precursor intensity: 145158598.8867
m/z	relative intensity	assigned
175.0255	1	C7H4F3NO-
205.0229	999	C7H4F3N2O2-
206.0068	14	C7H3F3NO3-
291.0599	207	C11H10F3N2O4-
