Mass spectrum: Clodinafop-propargyl; LC-ESI-QFT; MS2; CE: 75; R=17500; [M+H]+
Name: Clodinafop-propargyl
Name: prop-2-ynyl (2R)-2-[4-(5-chloro-3-fluoropyridin-2-yl)oxyphenoxy]propanoate
Formula: C17H13ClFNO4
Exact mass: 349.0517
SMILES: C[C@@H](OC1=CC=C(OC2=NC=C(Cl)C=C2F)C=C1)C(=O)OCC#C
InChI: InChI=1S/C17H13ClFNO4/c1-3-8-22-17(21)11(2)23-13-4-6-14(7-5-13)24-16-15(19)9-12(18)10-20-16/h1,4-7,9-11H,8H2,2H3/t11-/m1/s1
Instrument: Q Exactive Orbitrap (Thermo Scientific)
Instrument type: LC-ESI-QFT
Ms type: MS2
Ion mode: POSITIVE
Ionization: ESI
Fragmentation mode: HCD
Collision energy: 75
Resolution: 17500
Column name: Acquity BEH C18 1.7um, 2.1x150mm (Waters)
Retention time: 18.291 min
Base peak: 79.0212
Precursor m/z: 350.059
Precursor type: [M+H]+
Precursor intensity: 12083221.75
m/z	relative intensity	assigned
50.0151	1	C4H2+
51.023	1	C4H3+
53.0023	7	C3HO+
53.0386	15	C4H5+
53.9974	1	C2NO+
54.0465	3	C4H6+
55.0178	12	C3H3O+
56.0257	1	C3H4O+
57.0135	6	C3H2F+
62.0152	1	C5H2+
63.0229	26	C5H3+
64.0308	6	C5H4+
65.0386	259	C5H5+
66.0465	2	C5H6+
67.0542	1	C5H7+
69.0335	1	C4H5O+
72.984	3	C3H2Cl+
74.0151	3	C6H2+
75.0229	49	C6H3+
76.0308	2	C6H4+
77.0385	6	C6H5+
78.0463	2	C6H6+
79.0179	2	C5H3O+
79.0542	4	C6H7+
80.0621	1	C6H8+
81.0335	14	C5H5O+
84.984	1	C4H2Cl+
85.0324	1	C4H4FN+
89.0385	2	C7H5+
90.0339	4	C6H4N+
90.0464	2	C7H6+
91.0542	999	C7H7+
92.0257	72	C6H4O+
92.062	40	C7H8+
92.9901	2	C3H3ClF+
93.0336	1	C6H5O+
93.0699	14	C7H9+
94.0413	19	C6H6O+
95.0492	36	C6H7O+
97.0286	1	C5H5O2+
102.0464	20	C8H6+
103.0542	33	C8H7+
103.9824	3	C4H2ClF+
104.9902	1	C4H3ClF+
105.0335	3	C7H5O+
105.0447	12	FH8NO4+
107.0291	1	C7H4F+
107.0493	3	C7H7O+
108.0244	3	C6H3FN+
108.0372	2	C7H5F+
108.0443	1	C6H6NO+
108.0571	1	C7H8O+
109.0284	24	C6H5O2+
109.0324	1	C6H4FN+
109.0649	5	C7H9O+
109.9793	11	C5HClN+
111.044	4	C6H7O2+
113.039	1	C9H5+
114.0351	2	C5H5FNO+
115.0542	8	C9H7+
115.9896	1	C4H3ClNO+
116.9904	1	C5H3ClF+
118.0415	2	C8H6O+
118.9934	3	C4H3ClFN+
119.0492	35	C8H7O+
119.0605	3	CH10FNO4+
120.0012	6	C4H4ClFN+
120.0445	1	C7H6NO+
120.057	32	C8H8O+
121.0284	13	C7H5O2+
121.0445	1	C8H6F+
121.0648	18	C8H9O+
126.0351	1	C6H5FNO+
127.0415	1	C9H5N+
127.0544	1	C10H7+
128.0497	6	C9H6N+
128.062	15	C10H8+
129.0335	7	C9H5O+
129.0448	1	C2H8FNO4+
129.0699	4	C10H9+
129.9855	20	C5H2ClFN+
130.0303	1	C5H5FNO2+
130.0414	2	C9H6O+
131.0295	2	C9H4F+
131.0492	37	C9H7O+
132.001	7	C5H4ClFN+
132.0377	1	C9H5F+
132.057	2	C9H8O+
133.0448	5	C9H6F+
134.0402	3	C8H5FN+
135.048	2	C8H6FN+
136.0319	3	C8H5FO+
136.0519	1	C8H8O2+
139.0414	4	C10H5N+
140.0496	3	C10H6N+
140.9901	1	C7H3ClF+
143.9848	5	C5H3ClNO2+
144.0011	1	C6H4ClFN+
145.0089	2	C6H5ClFN+
145.0648	2	C10H9O+
146.0403	1	C9H5FN+
146.0596	1	C9H8NO+
146.9882	3	C5H3ClFNO+
146.9997	2	C9H4Cl+
147.0436	2	C3H11ClFNO2+
147.0605	6	C10H8F+
147.996	151	C5H4ClFNO+
148.0557	11	C9H7FN+
149.0153	4	C9H6Cl+
149.0398	24	C9H6FO+
150.0478	2	C9H7FO+
152.0509	5	C8H7FNO+
154.0652	8	C11H8N+
155.0602	4	C4H10FNO4+
155.0728	2	C11H9N+
156.0446	8	C10H6NO+
157.0449	3	C11H6F+
157.0525	6	C10H7NO+
157.0648	2	C11H9O+
158.0401	77	C10H5FN+
159.0479	313	C4H11ClFNO2+
160.0317	1	C10H5FO+
160.0558	7	C10H7FN+
162.0116	23	C6H6ClFNO+
162.0313	2	C9H6O3+
164.05	1	C12H6N+
166.0653	2	C12H8N+
167.0058	28	C9H5ClF+
167.0366	9	C11H5NO+
168.0012	15	C8H4ClFN+
168.0444	1	C11H6NO+
169.0088	15	C8H5ClFN+
170.0168	2	C8H6ClFN+
171.048	1	C11H6FN+
172.0554	1	C11H7FN+
174.0106	20	C10H5ClN+
174.0352	1	C10H5FNO+
174.0714	8	C11H9FN+
175.0186	3	C10H6ClN+
175.0427	4	C10H6FNO+
175.079	6	C11H10FN+
176.0506	132	C10H7FNO+
182.0168	25	C9H6ClFN+
182.06	1	C12H8NO+
183.0239	1	C12H4FO+
183.0675	1	C12H9NO+
183.9959	1	C8H4ClFNO+
184.0556	8	C12H7FN+
185.0636	19	C12H8FN+
186.0117	5	C8H6ClFNO+
186.0354	2	C11H5FNO+
186.0714	2	C12H9FN+
187.0428	78	C11H6FNO+
188.0506	5	C11H7FNO+
190.0414	1	C14H6O+
192.0011	1	C10H4ClFN+
192.0209	3	C10H7ClNO+
193.0091	19	C10H5ClFN+
194.0167	38	C10H6ClFN+
195.0246	12	C10H7ClFN+
196.0327	2	C10H8ClFN+
196.0559	2	C13H7FN+
200.0266	2	C12H5FO2+
201.0587	1	C12H8FNO+
202.0662	15	C12H9FNO+
203.0383	2	C11H6FNO2+
203.074	8	C15H9N+
204.0213	2	C11H7ClNO+
204.0458	12	C11H7FNO2+
206.0169	3	C11H6ClFN+
210.0118	16	C10H6ClFNO+
210.0479	2	C11H10ClFN+
211.0195	7	C10H7ClFNO+
213.0583	3	C13H8FNO+
214.0662	3	C13H9FNO+
216.0459	5	C12H7FNO2+
219.024	8	C15H4FO+
219.0344	18	C11H6FNO3+
219.9962	2	C11H4ClFNO+
220.0162	3	C11H7ClNO2+
220.0321	6	C12H8ClFN+
221.0041	1	C11H5ClFNO+
222.0117	270	C11H6ClFNO+
223.019	1	C14H4FO2+
224.0279	1	C11H8ClFNO+
230.0611	7	C13H9FNO2+
232.0324	1	C13H8ClFN+
238.0066	128	C11H6ClFNO2+
239.0149	4	C11H7ClFNO2+
276.0221	7	C14H8ClFNO2+
