Mass spectrum: 1H-Benzotriazol-1-ol; LC-ESI-QFT; MS2; CE: 30; R=17500; [M-H]-
Name: 1H-Benzotriazol-1-ol
Name: 1-hydroxybenzotriazole
Formula: C6H5N3O
Exact mass: 135.0433
SMILES: ON1N=NC2=C1C=CC=C2
InChI: InChI=1S/C6H5N3O/c10-9-6-4-2-1-3-5(6)7-8-9/h1-4,10H
Instrument: Q Exactive Orbitrap (Thermo Scientific)
Instrument type: LC-ESI-QFT
Ms type: MS2
Ion mode: NEGATIVE
Ionization: ESI
Fragmentation mode: HCD
Collision energy: 30
Resolution: 17500
Column name: Acquity BEH C18 1.7um, 2.1x150mm (Waters)
Retention time: 9.570 min
Base peak: 134.036
Precursor m/z: 134.036
Precursor type: [M-H]-
Precursor intensity: 3795702.562012
m/z	relative intensity	assigned
50.0034	9	C3N-
52.0192	37	C3H2N-
78.0349	445	C5H4N-
93.0345	24	C4H3N3-
105.022	33	C6H3NO-
106.0299	181	C6H4NO-
134.036	999	C6H4N3O-
