Mass spectrum: Cyclopamine; LC-ESI-QFT; MS2; CE: 90; R=17500; [M+H]+
Name: Cyclopamine
Name: (3S,3'R,3'aS,6'S,6aS,6bS,7'aR,9R,11aS,11bR)-3',6',10,11b-tetramethylspiro[2,3,4,6,6a,6b,7,8,11,11a-decahydro-1H-benzo[a]fluorene-9,2'-3a,4,5,6,7,7a-hexahydro-3H-furo[3,2-b]pyridine]-3-ol
Formula: C27H41NO2
Exact mass: 411.3137
SMILES: C[C@@H]1[C@@H]2NC[C@@H](C)C[C@H]2O[C@]11CC[C@H]2[C@@H]3CC=C4C[C@@H](O)CC[C@]4(C)[C@H]3CC2=C1C
InChI: InChI=1S/C27H41NO2/c1-15-11-24-25(28-14-15)17(3)27(30-24)10-8-20-21-6-5-18-12-19(29)7-9-26(18,4)23(21)13-22(20)16(27)2/h5,15,17,19-21,23-25,28-29H,6-14H2,1-4H3/t15-,17+,19-,20-,21-,23-,24+,25-,26-,27-/m0/s1
Instrument: Q Exactive Orbitrap (Thermo Scientific)
Instrument type: LC-ESI-QFT
Ms type: MS2
Ion mode: POSITIVE
Ionization: ESI
Fragmentation mode: HCD
Collision energy: 90
Resolution: 17500
Column name: Acquity BEH C18 1.7um, 2.1x150mm (Waters)
Retention time: 15.350 min
Base peak: 79.0211
Precursor m/z: 412.321
Precursor type: [M+H]+
Precursor intensity: 8544107.5
m/z	relative intensity	assigned
53.0022	42	C3HO+
53.0386	49	C4H5+
53.9975	6	C2NO+
54.0338	13	C3H4N+
55.0178	10	C3H3O+
55.0542	198	C4H7+
56.0495	16	C3H6N+
57.0335	12	C3H5O+
57.0699	95	C4H9+
58.0287	13	C2H4NO+
58.0651	10	C3H8N+
65.0385	103	C5H5+
67.0542	999	C5H7+
68.0494	29	C4H6N+
69.0335	7	C4H5O+
69.0574	10	C4H7N+
69.0698	72	C5H9+
70.0651	72	C4H8N+
72.0444	27	C3H6NO+
77.0385	9	C6H5+
79.0542	313	C6H7+
80.0494	75	C5H6N+
80.0619	8	C6H8+
81.0573	68	C5H7N+
81.0698	313	C6H9+
82.0651	25	C5H8N+
83.0491	26	C5H7O+
83.0858	2	C6H11+
84.0808	309	C5H10N+
85.0648	127	C5H9O+
91.0542	340	C7H7+
92.0621	3	C7H8+
93.0699	83	C7H9+
94.0651	24	C6H8N+
94.0777	9	C7H10+
95.0491	62	C6H7O+
95.0855	25	C7H11+
96.0807	87	C6H10N+
97.0649	5	C6H9O+
98.0965	12	C6H12N+
102.0911	2	C5H12NO+
103.0542	30	C8H7+
105.0699	329	C8H9+
107.0854	61	C8H11+
109.0648	15	C7H9O+
109.1012	67	C8H13+
110.0965	7	C7H12N+
112.0756	15	C6H10NO+
112.112	2	C7H14N+
114.0914	132	C6H12NO+
115.0542	59	C9H7+
116.062	19	C9H8+
117.0698	118	C9H9+
118.0776	9	C9H10+
119.0855	95	C9H11+
121.0648	5	C8H9O+
121.101	14	C9H13+
123.0802	9	C8H11O+
124.1121	6	C8H14N+
128.062	109	C10H8+
129.0698	122	C10H9+
130.0777	64	C10H10+
131.0855	91	C10H11+
132.0935	3	C10H12+
133.1011	43	C10H13+
140.1071	2	C8H14NO+
141.0698	94	C11H9+
142.0777	165	C11H10+
143.0856	97	C11H11+
144.0933	32	C11H12+
145.1011	64	C11H13+
147.1169	4	C11H15+
148.1121	5	C10H14N+
150.1277	2	C10H16N+
153.0698	29	C12H9+
154.0776	21	C12H10+
155.0855	69	C12H11+
156.0933	52	C12H12+
157.1011	69	C12H13+
158.1091	6	C12H14+
159.1168	23	C12H15+
165.0699	31	C13H9+
166.0776	18	C13H10+
167.0855	36	C13H11+
168.0934	19	C13H12+
169.1012	43	C13H13+
170.1091	11	C13H14+
171.1169	20	C13H15+
173.1322	4	C13H17+
178.0775	8	C14H10+
179.0855	28	C14H11+
180.0933	11	C14H12+
181.1012	32	C14H13+
182.1092	9	C14H14+
183.1167	18	C14H15+
184.1248	2	C14H16+
185.1331	3	C14H17+
191.0857	7	C15H11+
192.0933	7	C15H12+
193.1013	18	C15H13+
194.1088	8	C15H14+
195.117	14	C15H15+
197.1327	6	C15H17+
198.1403	1	C15H18+
205.1013	7	C16H13+
206.109	4	C16H14+
207.1172	8	C16H15+
208.1251	3	C16H16+
209.1326	7	C16H17+
211.1485	2	C16H19+
217.1014	3	C17H13+
219.1164	2	C17H15+
221.133	5	C17H17+
223.1478	2	C17H19+
235.1476	3	C18H19+
249.1643	2	C19H21+
