Mass spectrum: Piragliatin; LC-ESI-QFT; MS2; CE: 60; R=17500; [M-H]-
Name: Piragliatin
Name: (2R)-2-(3-chloro-4-methylsulfonylphenyl)-3-[(1R)-3-oxocyclopentyl]-N-pyrazin-2-ylpropanamide
Formula: C19H20ClN3O4S
Exact mass: 421.0863
SMILES: CS(=O)(=O)C1=CC=C(C=C1Cl)[C@@H](C[C@H]1CCC(=O)C1)C(=O)NC1=NC=CN=C1
InChI: InChI=1S/C19H20ClN3O4S/c1-28(26,27)17-5-3-13(10-16(17)20)15(9-12-2-4-14(24)8-12)19(25)23-18-11-21-6-7-22-18/h3,5-7,10-12,15H,2,4,8-9H2,1H3,(H,22,23,25)/t12-,15+/m0/s1
Instrument: Q Exactive Orbitrap (Thermo Scientific)
Instrument type: LC-ESI-QFT
Ms type: MS2
Ion mode: NEGATIVE
Ionization: ESI
Fragmentation mode: HCD
Collision energy: 60
Resolution: 17500
Column name: Acquity BEH C18 1.7um, 2.1x150mm (Waters)
Retention time: 14.467 min
Base peak: 112.9857
Precursor m/z: 420.079
Precursor type: [M-H]-
Precursor intensity: 3177488.264648
m/z	relative intensity	assigned
63.9624	999	O2S-
78.986	217	CH3O2S-
81.0345	222	C5H5O-
94.0411	647	C4H4N3-
95.0504	124	C6H7O-
109.0659	34	C7H9O-
117.071	56	C9H9-
131.0866	229	C10H11-
157.1023	957	C12H13-
199.113	63	C14H15O-
200.9785	61	C8H6ClO2S-
