Mass spectrum: Zoalene; LC-ESI-QFT; MS2; CE: 15; R=17500; [M-H]-
Name: Zoalene
Name: Dinitolmide
Name: 2-methyl-3,5-dinitrobenzamide
Formula: C8H7N3O5
Exact mass: 225.0386
SMILES: CC1=C(C=C(C=C1C(N)=O)[N+]([O-])=O)[N+]([O-])=O
InChI: InChI=1S/C8H7N3O5/c1-4-6(8(9)12)2-5(10(13)14)3-7(4)11(15)16/h2-3H,1H3,(H2,9,12)
Instrument: Q Exactive Orbitrap (Thermo Scientific)
Instrument type: LC-ESI-QFT
Ms type: MS2
Ion mode: NEGATIVE
Ionization: ESI
Fragmentation mode: HCD
Collision energy: 15
Resolution: 17500
Column name: Acquity BEH C18 1.7um, 2.1x150mm (Waters)
Retention time: 12.504 min
Base peak: 224.0313
Precursor m/z: 224.0313
Precursor type: [M-H]-
Precursor intensity: 6969270.873535
m/z	relative intensity	assigned
77.0397	45	C6H5-
109.0295	18	C6H5O2-
116.014	18	C7H2NO-
135.0199	6	C6H3N2O2-
137.0245	5	C7H5O3-
151.0275	13	C7H5NO3-
166.0147	110	C7H4NO4-
181.0256	999	C7H5N2O4-
224.0314	235	C8H6N3O5-
