Mass spectrum: Procyazine; LC-ESI-QFT; MS2; CE: 30; R=17500; [M+H]+
Name: Procyazine
Name: 2-[[4-chloro-6-(cyclopropylamino)-1,3,5-triazin-2-yl]amino]-2-methylpropanenitrile
Formula: C10H13ClN6
Exact mass: 252.0890
SMILES: CC(C)(NC1=NC(Cl)=NC(NC2CC2)=N1)C#N
InChI: InChI=1S/C10H13ClN6/c1-10(2,5-12)17-9-15-7(11)14-8(16-9)13-6-3-4-6/h6H,3-4H2,1-2H3,(H2,13,14,15,16,17)
Instrument: Q Exactive Orbitrap (Thermo Scientific)
Instrument type: LC-ESI-QFT
Ms type: MS2
Ion mode: POSITIVE
Ionization: ESI
Fragmentation mode: HCD
Collision energy: 30
Resolution: 17500
Column name: Acquity BEH C18 1.7um, 2.1x150mm (Waters)
Retention time: 15.117 min
Base peak: 79.0212
Precursor m/z: 253.0963
Precursor type: [M+H]+
Precursor intensity: 4761550.375
m/z	relative intensity	assigned
58.065	1	C3H8N+
61.9794	1	CHClN+
79.0058	1	CH4ClN2+
83.0602	4	C4H7N2+
85.076	2	C4H9N2+
102.0105	3	C4H5ClN+
104.001	1	C2H3ClN3+
108.0556	5	C5H6N3+
110.0712	7	C5H8N3+
119.0371	21	C4H8ClN2+
121.0509	4	C5H5N4+
123.0916	1	C7H11N2+
125.0822	1	C5H9N4+
144.0324	8	C5H7ClN3+
145.0275	1	C4H6ClN4+
148.087	10	C8H10N3+
150.0776	2	C6H8N5+
165.1137	1	C8H13N4+
175.098	2	C9H11N4+
185.0588	11	C7H10ClN4+
186.0542	316	C6H9ClN5+
190.1087	11	C9H12N5+
192.1243	1	C9H14N5+
198.055	1	C7H9ClN5+
217.1197	65	C10H13N6+
226.0854	999	C9H13ClN5+
236.0696	4	C10H11ClN5+
253.0964	271	C10H14ClN6+
