Mass spectrum: Brucine; LC-ESI-QFT; MS2; CE: 30; R=17500; [M+H]+
Name: Brucine
Name: (4aR,5aS,8aR,13aS,15aS,15bR)-10,11-dimethoxy-4a,5,5a,7,8,13a,15,15a,15b,16-decahydro-2H-4,6-methanoindolo[3,2,1-ij]oxepino[2,3,4-de]pyrrolo[2,3-h]quinolin-14-one
Formula: C23H26N2O4
Exact mass: 394.1893
SMILES: COC1=CC2=C(C=C1OC)[C@@]13CCN4CC5=CCO[C@H]6CC(=O)N2[C@H]1[C@H]6[C@H]5C[C@@H]34
InChI: InChI=1S/C23H26N2O4/c1-27-16-8-14-15(9-17(16)28-2)25-20(26)10-18-21-13-7-19-23(14,22(21)25)4-5-24(19)11-12(13)3-6-29-18/h3,8-9,13,18-19,21-22H,4-7,10-11H2,1-2H3/t13-,18-,19-,21-,22-,23+/m0/s1
Instrument: Q Exactive Orbitrap (Thermo Scientific)
Instrument type: LC-ESI-QFT
Ms type: MS2
Ion mode: POSITIVE
Ionization: ESI
Fragmentation mode: HCD
Collision energy: 30
Resolution: 17500
Column name: Acquity BEH C18 1.7um, 2.1x150mm (Waters)
Retention time: 11.177 min
Base peak: 79.0211
Precursor m/z: 395.1965
Precursor type: [M+H]+
Precursor intensity: 7612964
m/z	relative intensity	assigned
244.0968	3	C14H14NO3+
282.1122	6	C17H16NO3+
322.1449	1	C20H20NO3+
324.1229	22	C19H18NO4+
332.1285	1	C21H18NO3+
350.1385	6	C21H20NO4+
367.1653	25	C21H23N2O4+
380.1716	4	C22H24N2O4+
395.1964	999	C23H27N2O4+
