Mass spectrum: 8-Hydroxyquinoline; LC-ESI-QFT; MS2; CE: 30; R=17500; [M+H]+
Name: 8-Hydroxyquinoline
Name: quinolin-8-ol
Formula: C9H7NO
Exact mass: 145.0528
SMILES: OC1=CC=CC2=CC=CN=C12
InChI: InChI=1S/C9H7NO/c11-8-5-1-3-7-4-2-6-10-9(7)8/h1-6,11H
Instrument: Q Exactive Orbitrap (Thermo Scientific)
Instrument type: LC-ESI-QFT
Ms type: MS2
Ion mode: POSITIVE
Ionization: ESI
Fragmentation mode: HCD
Collision energy: 30
Resolution: 17500
Column name: Acquity BEH C18 1.7um, 2.1x150mm (Waters)
Retention time: 8.051 min
Base peak: 79.0211
Precursor m/z: 146.06
Precursor type: [M+H]+
Precursor intensity: 1875569.890625
m/z	relative intensity	assigned
118.065	15	C8H8N+
146.0601	999	C9H8NO+
