Mass spectrum: 2-(N-Ethyl-m-toluidino)ethanol; LC-ESI-QFT; MS2; CE: 45; R=17500; [M+H]+
Name: 2-(N-Ethyl-m-toluidino)ethanol
Name: 2-(N-ethyl-3-methylanilino)ethanol
Formula: C11H17NO
Exact mass: 179.1310
SMILES: CCN(CCO)C1=CC(C)=CC=C1
InChI: InChI=1S/C11H17NO/c1-3-12(7-8-13)11-6-4-5-10(2)9-11/h4-6,9,13H,3,7-8H2,1-2H3
Instrument: Q Exactive Orbitrap (Thermo Scientific)
Instrument type: LC-ESI-QFT
Ms type: MS2
Ion mode: POSITIVE
Ionization: ESI
Fragmentation mode: HCD
Collision energy: 45
Resolution: 17500
Column name: Acquity BEH C18 1.7um, 2.1x150mm (Waters)
Retention time: 10.199 min
Base peak: 79.0211
Precursor m/z: 180.1383
Precursor type: [M+H]+
Precursor intensity: 32412432.3125
m/z	relative intensity	assigned
91.054	8	C7H7+
93.0573	3	C6H7N+
93.07	8	C7H9+
105.0699	3	C8H9+
106.0649	7	C7H8N+
107.0729	35	C7H9N+
108.0807	88	C7H10N+
110.06	7	C6H8NO+
117.0698	4	C9H9+
118.0651	7	C8H8N+
119.0729	42	C8H9N+
120.0807	763	C8H10N+
121.0885	19	C8H11N+
132.0808	78	C9H10N+
133.0886	71	C9H11N+
134.0964	594	C9H12N+
135.1041	707	C9H13N+
136.112	332	C9H14N+
138.0911	6	C8H12NO+
146.0965	3	C10H12N+
147.1042	149	C10H13N+
150.0913	4	C9H12NO+
151.0991	323	C9H13NO+
152.1069	274	C9H14NO+
160.1121	36	C11H14N+
162.1276	615	C11H16N+
180.1382	999	C11H18NO+
