Mass spectrum: Bis[2-(2-butoxyethoxy)ethyl] hexandioate; LC-ESI-QFT; MS2; CE: 15; R=17500; [M+H]+
Name: Bis[2-(2-butoxyethoxy)ethyl] hexandioate
Name: Bis[2-(2-butoxyethoxy)ethyl] adipate
Name: bis[2-(2-butoxyethoxy)ethyl] hexanedioate
Formula: C22H42O8
Exact mass: 434.2880
SMILES: CCCCOCCOCCOC(=O)CCCCC(=O)OCCOCCOCCCC
InChI: InChI=1S/C22H42O8/c1-3-5-11-25-13-15-27-17-19-29-21(23)9-7-8-10-22(24)30-20-18-28-16-14-26-12-6-4-2/h3-20H2,1-2H3
Instrument: Q Exactive Orbitrap (Thermo Scientific)
Instrument type: LC-ESI-QFT
Ms type: MS2
Ion mode: POSITIVE
Ionization: ESI
Fragmentation mode: HCD
Collision energy: 15
Resolution: 17500
Column name: Acquity BEH C18 1.7um, 2.1x150mm (Waters)
Retention time: 18.791 min
Base peak: 79.0212
Precursor m/z: 435.2952
Precursor type: [M+H]+
Precursor intensity: 3510259.0625
m/z	relative intensity	assigned
55.0543	5	C4H7+
57.0698	19	C4H9+
73.0648	17	C4H9O+
89.0598	220	C4H9O2+
101.0962	32	C6H13O+
107.0704	24	C4H11O3+
111.0442	25	C6H7O2+
121.086	3	C5H13O3+
145.1224	822	C8H17O2+
155.0704	300	C8H11O3+
157.0861	85	C8H13O3+
163.133	999	C8H19O3+
173.0811	41	C8H13O4+
199.0969	7	C10H15O4+
201.1126	12	C10H17O4+
217.1073	359	C10H17O5+
229.144	5	C12H21O4+
255.1593	339	C14H23O4+
261.1335	64	C12H21O6+
273.1698	157	C14H25O5+
317.1961	690	C16H29O6+
