Mass spectrum: 6-Pentyl-2H-pyran-2-one; LC-ESI-QFT; MS2; CE: 45; R=17500; [M+H]+
Name: 6-Pentyl-2H-pyran-2-one
Name: 6-pentylpyran-2-one
Formula: C10H14O2
Exact mass: 166.0994
SMILES: CCCCCC1=CC=CC(=O)O1
InChI: InChI=1S/C10H14O2/c1-2-3-4-6-9-7-5-8-10(11)12-9/h5,7-8H,2-4,6H2,1H3
Instrument: Q Exactive Orbitrap (Thermo Scientific)
Instrument type: LC-ESI-QFT
Ms type: MS2
Ion mode: POSITIVE
Ionization: ESI
Fragmentation mode: HCD
Collision energy: 45
Resolution: 17500
Column name: Acquity BEH C18 1.7um, 2.1x150mm (Waters)
Retention time: 16.695 min
Base peak: 79.0211
Precursor m/z: 167.1067
Precursor type: [M+H]+
Precursor intensity: 765138.25
m/z	relative intensity	assigned
53.0386	7	C4H5+
55.0179	32	C3H3O+
55.0543	67	C4H7+
57.0335	9	C3H5O+
65.0386	41	C5H5+
67.0542	218	C5H7+
69.0334	20	C4H5O+
69.0698	49	C5H9+
71.0491	8	C4H7O+
73.0284	8	C3H5O2+
79.0542	143	C6H7+
81.0699	136	C6H9+
83.0491	116	C5H7O+
91.0543	16	C7H7+
93.0336	43	C6H5O+
93.07	113	C7H9+
95.0491	16	C6H7O+
95.0855	9	C7H11+
97.0285	303	C5H5O2+
97.065	27	C6H9O+
99.0442	12	C5H7O2+
105.0699	15	C8H9+
107.0492	69	C7H7O+
107.0855	24	C8H11+
110.0362	6	C6H6O2+
111.0442	42	C6H7O2+
121.0649	11	C8H9O+
121.1011	38	C9H13+
122.0367	9	C7H6O2+
131.0856	21	C10H11+
139.1113	6	C9H15O+
149.0967	8	C10H13O+
167.1068	999	C10H15O2+
