Mass spectrum: Betamethasone valerate; LC-ESI-QFT; MS2; CE: 45; R=17500; [M+H]+
Name: Betamethasone valerate
Name: [(8S,9R,10S,11S,13S,14S,16S,17R)-9-fluoro-11-hydroxy-17-(2-hydroxyacetyl)-10,13,16-trimethyl-3-oxo-6,7,8,11,12,14,15,16-octahydrocyclopenta[a]phenanthren-17-yl] pentanoate
Formula: C27H37FO6
Exact mass: 476.2574
SMILES: CCCCC(=O)O[C@@]1([C@@H](C)C[C@H]2[C@@H]3CCC4=CC(=O)C=C[C@]4(C)[C@@]3(F)[C@@H](O)C[C@]12C)C(=O)CO
InChI: InChI=1S/C27H37FO6/c1-5-6-7-23(33)34-27(22(32)15-29)16(2)12-20-19-9-8-17-13-18(30)10-11-24(17,3)26(19,28)21(31)14-25(20,27)4/h10-11,13,16,19-21,29,31H,5-9,12,14-15H2,1-4H3/t16-,19-,20-,21-,24-,25-,26-,27-/m0/s1
Instrument: Q Exactive Orbitrap (Thermo Scientific)
Instrument type: LC-ESI-QFT
Ms type: MS2
Ion mode: POSITIVE
Ionization: ESI
Fragmentation mode: HCD
Collision energy: 45
Resolution: 17500
Column name: Acquity BEH C18 1.7um, 2.1x150mm (Waters)
Retention time: 18.603 min
Base peak: 79.0211
Precursor m/z: 477.2647
Precursor type: [M+H]+
Precursor intensity: 4086270.8125
m/z	relative intensity	assigned
55.0543	48	C4H7+
57.0699	161	C4H9+
67.0542	84	C5H7+
69.0333	36	C4H5O+
69.0698	108	C5H9+
79.0542	69	C6H7+
81.0699	84	C6H9+
83.0855	51	C6H11+
85.0649	68	C5H9O+
91.0542	84	C7H7+
93.0699	206	C7H9+
95.0493	35	C6H7O+
95.0855	278	C7H11+
105.07	136	C8H9+
107.0856	348	C8H11+
109.065	26	C7H9O+
109.1013	184	C8H13+
117.0698	39	C9H9+
119.0856	390	C9H11+
121.0648	373	C8H9O+
121.1011	252	C9H13+
123.0804	270	C8H11O+
129.0703	39	C10H9+
131.0858	134	C10H11+
133.0645	27	C9H9O+
133.1012	133	C10H13+
135.0805	426	C9H11O+
137.0962	77	C9H13O+
141.0699	33	C11H9+
143.0855	126	C11H11+
145.0648	55	C10H9O+
145.1015	132	C11H13+
147.0804	999	C10H11O+
149.0962	96	C10H13O+
151.0759	30	C9H11O2+
153.0906	62	C9H13O2+
155.0853	52	C12H11+
157.101	55	C12H13+
158.0727	67	C11H10O+
159.0805	419	C11H11O+
161.0962	171	C11H13O+
169.0649	38	C12H9O+
171.0805	641	C12H11O+
171.1167	63	C13H15+
173.0962	313	C12H13O+
179.0858	33	C14H11+
181.1013	42	C14H13+
183.0805	41	C13H11O+
185.0962	302	C13H13O+
187.0755	194	C12H11O2+
187.1118	37	C13H15O+
193.1013	33	C15H13+
195.0805	35	C14H11O+
197.0963	111	C14H13O+
199.1115	34	C14H15O+
208.0887	57	C15H12O+
209.0965	124	C15H13O+
210.1033	42	C15H14O+
211.1118	94	C15H15O+
213.1273	64	C15H17O+
221.0965	161	C16H13O+
222.1041	85	C16H14O+
223.1119	317	C16H15O+
225.1276	43	C16H17O+
229.101	33	C18H13+
234.104	80	C17H14O+
235.1117	144	C17H15O+
236.1201	46	C17H16O+
237.1274	115	C17H17O+
239.106	67	C16H15O2+
239.1425	42	C17H19O+
243.1168	30	C19H15+
247.111	33	C18H15O+
248.1195	145	C18H16O+
249.1276	147	C18H17O+
251.143	34	C18H19O+
259.1109	40	C19H15O+
260.1192	43	C19H16O+
261.1274	113	C19H17O+
261.1639	55	C20H21+
262.1356	183	C19H18O+
263.1429	392	C19H19O+
264.1505	130	C19H20O+
271.1132	35	C17H16FO2+
273.1271	29	C20H17O+
274.1355	52	C20H18O+
275.1432	64	C20H19O+
276.1508	74	C20H20O+
277.1586	135	C20H21O+
278.1666	198	C20H22O+
279.1747	334	C20H23O+
286.1348	77	C21H18O+
289.159	52	C21H21O+
291.1746	83	C21H23O+
301.1589	34	C22H21O+
319.1695	52	C22H23O2+
