Mass spectrum: 4,4`-Sulfonylbis[2-(prop-2-en-1-yl)phenol]; LC-ESI-QFT; MS2; CE: 75; R=17500; [M+H]+
Name: 4,4'-Sulfonylbis[2-(prop-2-en-1-yl)phenol]
Name: Phenol, 4,4'-sulfonylbis[2-(2-propenyl)-
Name: 4-(4-hydroxy-3-prop-2-enylphenyl)sulfonyl-2-prop-2-enylphenol
Formula: C18H18O4S
Exact mass: 330.0926
SMILES: OC1=C(CC=C)C=C(C=C1)S(=O)(=O)C1=CC(CC=C)=C(O)C=C1
InChI: InChI=1S/C18H18O4S/c1-3-5-13-11-15(7-9-17(13)19)23(21,22)16-8-10-18(20)14(12-16)6-4-2/h3-4,7-12,19-20H,1-2,5-6H2
Instrument: Q Exactive Orbitrap (Thermo Scientific)
Instrument type: LC-ESI-QFT
Ms type: MS2
Ion mode: POSITIVE
Ionization: ESI
Fragmentation mode: HCD
Collision energy: 75
Resolution: 17500
Column name: Acquity BEH C18 1.7um, 2.1x150mm (Waters)
Retention time: 17.082 min
Base peak: 79.0211
Precursor m/z: 331.0999
Precursor type: [M+H]+
Precursor intensity: 4017739.8125
m/z	relative intensity	assigned
50.0151	3	C4H2+
51.023	4	C4H3+
53.0023	9	C3HO+
53.0386	124	C4H5+
55.0179	205	C3H3O+
63.0229	1	C5H3+
65.0386	90	C5H5+
66.0464	5	C5H6+
67.0541	4	C5H7+
68.997	4	C3HO2+
77.0385	44	C6H5+
78.0464	11	C6H6+
79.0542	999	C6H7+
81.0335	20	C5H5O+
81.0697	2	C6H9+
83.0127	1	C4H3O2+
89.0386	10	C7H5+
90.0464	5	C7H6+
91.0543	125	C7H7+
93.0336	4	C6H5O+
93.07	25	C7H9+
94.0413	20	C6H6O+
95.0492	419	C6H7O+
97.0107	8	C5H5S+
102.0462	7	C8H6+
103.0542	623	C8H7+
104.062	11	C8H8+
105.0699	238	C8H9+
107.0491	64	C7H7O+
109.0285	15	C6H5O2+
109.0648	2	C7H9O+
110.0362	2	C6H6O2+
111.0441	19	C6H7O2+
115.0542	235	C9H7+
116.0621	5	C9H8+
117.07	6	C9H9+
118.0413	20	C8H6O+
119.0493	15	C8H7O+
121.0648	37	C8H9O+
125.0056	2	C6H5OS+
128.062	2	C10H8+
131.0492	55	C9H7O+
132.057	23	C9H8O+
133.0648	28	C9H9O+
134.0727	2	C9H10O+
135.0439	4	C8H7O2+
141.0005	3	C6H5O2S+
141.0698	5	C11H9+
144.0568	2	C10H8O+
145.0649	6	C10H9O+
149.0598	34	C9H9O2+
150.0676	1	C9H10O2+
151.0753	14	C9H11O2+
152.0621	7	C12H8+
153.0697	5	C12H9+
154.0084	3	C7H6O2S+
169.0649	15	C12H9O+
170.0729	4	C12H10O+
181.0648	4	C13H9O+
197.0598	4	C13H9O2+
