Mass spectrum: Mifepristone; LC-ESI-QFT; MS2; CE: 90; R=17500; [M+H]+
Name: Mifepristone
Name: (8S,11R,13S,14S,17S)-11-[4-(dimethylamino)phenyl]-17-hydroxy-13-methyl-17-prop-1-ynyl-1,2,6,7,8,11,12,14,15,16-decahydrocyclopenta[a]phenanthren-3-one
Formula: C29H35NO2
Exact mass: 429.2668
SMILES: CC#C[C@]1(O)CC[C@H]2[C@@H]3CCC4=CC(=O)CCC4=C3[C@H](C[C@]12C)C1=CC=C(C=C1)N(C)C
InChI: InChI=1S/C29H35NO2/c1-5-15-29(32)16-14-26-24-12-8-20-17-22(31)11-13-23(20)27(24)25(18-28(26,29)2)19-6-9-21(10-7-19)30(3)4/h6-7,9-10,17,24-26,32H,8,11-14,16,18H2,1-4H3/t24-,25+,26-,28-,29-/m0/s1
Instrument: Q Exactive Orbitrap (Thermo Scientific)
Instrument type: LC-ESI-QFT
Ms type: MS2
Ion mode: POSITIVE
Ionization: ESI
Fragmentation mode: HCD
Collision energy: 90
Resolution: 17500
Column name: Acquity BEH C18 1.7um, 2.1x150mm (Waters)
Retention time: 16.426 min
Base peak: 79.0211
Precursor m/z: 430.2741
Precursor type: [M+H]+
Precursor intensity: 7792722.625
m/z	relative intensity	assigned
51.023	6	C4H3+
53.0022	14	C3HO+
53.0386	67	C4H5+
55.0178	69	C3H3O+
55.0543	45	C4H7+
56.0496	6	C3H6N+
57.0336	5	C3H5O+
58.0652	10	C3H8N+
65.0385	74	C5H5+
66.0464	11	C5H6+
67.0177	20	C4H3O+
67.0542	79	C5H7+
69.0335	12	C4H5O+
69.0698	9	C5H9+
70.065	11	C4H8N+
77.0383	19	C6H5+
78.0464	14	C6H6+
79.0542	287	C6H7+
81.0335	13	C5H5O+
81.0698	63	C6H9+
83.049	50	C5H7O+
91.0542	785	C7H7+
92.062	21	C7H8+
93.0699	68	C7H9+
94.0414	13	C6H6O+
94.0652	12	C6H8N+
95.0491	167	C6H7O+
95.0855	8	C7H11+
97.0647	25	C6H9O+
103.0542	117	C8H7+
104.0619	28	C8H8+
105.0699	324	C8H9+
106.065	52	C7H8N+
107.0491	147	C7H7O+
107.0729	123	C7H9N+
107.0855	16	C8H11+
108.0808	7	C7H10N+
109.0648	49	C7H9O+
115.0542	315	C9H7+
116.062	117	C9H8+
117.0573	29	C8H7N+
117.0698	229	C9H9+
118.065	192	C8H8N+
119.0493	7	C8H7O+
119.0729	82	C8H9N+
119.0855	45	C9H11+
120.0808	321	C8H10N+
121.0646	21	C8H9O+
121.0886	89	C8H11N+
122.0963	27	C8H12N+
127.0542	22	C10H7+
128.062	419	C10H8+
129.0698	244	C10H9+
130.0651	53	C9H8N+
130.0776	41	C10H10+
131.0491	55	C9H7O+
131.073	51	C9H9N+
131.0855	76	C10H11+
132.057	30	C9H8O+
132.0808	98	C9H10N+
133.0648	100	C9H9O+
133.0886	137	C9H11N+
133.1007	7	C10H13+
134.0963	999	C9H12N+
135.0803	43	C9H11O+
136.1119	3	C9H14N+
141.0698	229	C11H9+
142.065	24	C10H8N+
142.0777	85	C11H10+
143.0729	111	C10H9N+
143.0854	55	C11H11+
144.057	56	C10H8O+
144.0807	164	C10H10N+
145.0647	123	C10H9O+
145.0886	59	C10H11N+
145.1011	18	C11H13+
146.0726	38	C10H10O+
146.0964	158	C10H12N+
147.0806	14	C10H11O+
147.1042	48	C10H13N+
148.0757	12	C9H10NO+
148.1119	39	C10H14N+
151.0753	3	C9H11O2+
152.062	78	C12H8+
153.0699	153	C12H9+
154.0652	12	C11H8N+
154.0777	76	C12H10+
155.0734	22	C11H9N+
155.0855	105	C12H11+
156.0808	152	C11H10N+
156.0921	20	C12H12+
157.0647	45	C11H9O+
157.0886	158	C11H11N+
158.0964	242	C11H12N+
159.0804	56	C11H11O+
159.1043	42	C11H13N+
160.112	31	C11H14N+
161.0964	9	C11H13O+
165.0698	268	C13H9+
166.0777	84	C13H10+
167.073	12	C12H9N+
167.0854	100	C13H11+
168.0808	33	C12H10N+
168.0932	17	C13H12+
169.0647	20	C12H9O+
169.0885	26	C12H11N+
169.1007	26	C13H13+
170.0725	8	C12H10O+
170.0963	164	C12H12N+
171.0805	13	C12H11O+
171.1042	96	C12H13N+
172.112	137	C12H14N+
173.096	7	C12H13O+
173.12	9	C12H15N+
174.0915	4	C11H12NO+
174.1044	7	C12H14O+
174.1274	7	C12H16N+
177.0699	15	C14H9+
178.0777	177	C14H10+
179.0855	163	C14H11+
180.0805	27	C13H10N+
180.0932	36	C14H12+
181.0648	35	C13H9O+
181.0888	29	C13H11N+
181.101	32	C14H13+
182.0725	24	C13H10O+
182.0964	59	C13H12N+
182.1066	5	C14H14+
182.1092	5	C14H14+
183.0805	22	C13H11O+
183.1043	47	C13H13N+
183.1168	6	C14H15+
184.112	112	C13H14N+
185.0966	6	C13H13O+
185.1201	17	C13H15N+
186.1281	10	C13H16N+
189.0698	28	C15H9+
190.0777	37	C15H10+
191.0853	110	C15H11+
192.081	17	C14H10N+
192.0933	57	C15H12+
193.0887	56	C14H11N+
193.1011	45	C15H13+
194.073	16	C14H10O+
194.0964	113	C14H12N+
194.1072	5	C15H14+
195.0804	21	C14H11O+
195.1043	58	C14H13N+
195.1157	5	C15H15+
196.0885	11	C14H12O+
196.112	62	C14H14N+
197.0962	18	C14H13O+
197.1199	25	C14H15N+
198.1276	46	C14H16N+
199.1354	7	C14H17N+
202.0777	59	C16H10+
203.0854	83	C16H11+
204.0813	10	C15H10N+
204.0932	35	C16H12+
205.0887	16	C15H11N+
205.1011	43	C16H13+
206.0964	46	C15H12N+
206.1089	11	C16H14+
207.0808	17	C15H11O+
207.1043	89	C15H13N+
207.1165	14	C16H15+
208.0886	9	C15H12O+
208.112	131	C15H14N+
209.0961	8	C15H13O+
209.1199	63	C15H15N+
210.1277	57	C15H16N+
211.0995	6	C14H13NO+
211.1111	4	C15H15O+
211.1354	7	C15H17N+
212.1429	4	C15H18N+
215.0855	88	C17H11+
216.0933	44	C17H12+
217.0886	13	C16H11N+
217.1011	54	C17H13+
218.0961	27	C16H12N+
218.1088	17	C17H14+
219.0803	8	C16H11O+
219.1042	23	C16H13N+
219.1167	12	C17H15+
220.0879	5	C16H12O+
220.1119	71	C16H14N+
221.0963	9	C16H13O+
221.1198	54	C16H15N+
222.1276	78	C16H16N+
223.1002	3	C15H13NO+
223.1351	17	C16H17N+
224.1074	6	C15H14NO+
224.1433	18	C16H18N+
225.1148	7	C15H15NO+
227.0855	16	C18H11+
228.0933	45	C18H12+
229.1007	72	C18H13+
230.0963	15	C17H12N+
230.1091	28	C18H14+
231.1042	17	C17H13N+
231.117	17	C18H15+
232.1119	37	C17H14N+
232.1236	4	C18H16+
233.0955	4	C17H13O+
233.1201	27	C17H15N+
234.1275	61	C17H16N+
235.1357	20	C17H17N+
236.1435	16	C17H18N+
237.1153	3	C16H15NO+
238.1227	5	C16H16NO+
238.159	4	C17H20N+
239.085	17	C19H11+
241.101	21	C19H13+
242.1087	10	C19H14+
243.104	14	C18H13N+
243.1173	17	C19H15+
244.112	38	C18H14N+
244.1246	4	C19H16+
245.1199	31	C18H15N+
245.1324	7	C19H17+
246.1276	47	C18H16N+
247.1357	23	C18H17N+
248.1433	27	C18H18N+
250.1226	6	C17H16NO+
250.1591	3	C18H20N+
252.0931	7	C20H12+
253.101	14	C20H13+
254.1087	5	C20H14+
255.1167	14	C20H15+
256.1118	22	C19H14N+
256.1248	7	C20H16+
257.1199	18	C19H15N+
258.1276	85	C19H16N+
259.1357	22	C19H17N+
260.1433	40	C19H18N+
261.151	15	C19H19N+
262.1585	6	C19H20N+
263.1299	3	C18H17NO+
264.1378	3	C18H18NO+
265.101	6	C21H13+
269.1191	7	C20H15N+
270.1272	19	C20H16N+
271.1355	14	C20H17N+
272.143	68	C20H18N+
273.151	12	C20H19N+
274.1586	18	C20H20N+
282.1273	9	C21H16N+
283.1355	7	C21H17N+
284.1436	17	C21H18N+
285.1511	5	C21H19N+
286.1585	9	C21H20N+
296.1433	5	C22H18N+
298.1589	23	C22H20N+
310.1579	4	C23H20N+
