Mass spectrum: (4-Aminophenyl)arsonic acid; LC-ESI-QFT; MS2; CE: 60; R=17500; [M+H]+
Name: (4-Aminophenyl)arsonic acid
Name: Arsanilic acid
Formula: C6H8AsNO3
Exact mass: 216.9720
SMILES: NC1=CC=C(C=C1)[As](O)(O)=O
InChI: InChI=1S/C6H8AsNO3/c8-6-3-1-5(2-4-6)7(9,10)11/h1-4H,8H2,(H2,9,10,11)
Instrument: Q Exactive Orbitrap (Thermo Scientific)
Instrument type: LC-ESI-QFT
Ms type: MS2
Ion mode: POSITIVE
Ionization: ESI
Fragmentation mode: HCD
Collision energy: 60
Resolution: 17500
Column name: Acquity BEH C18 1.7um, 2.1x150mm (Waters)
Retention time: 2.514 min
Base peak: 79.0211
Precursor m/z: 217.9793
Precursor type: [M+H]+
Precursor intensity: 8795310.59375
m/z	relative intensity	assigned
53.0022	3	C3HO+
65.0385	406	C5H5+
68.0495	7	C4H6N+
79.0177	1	C5H3O+
80.0494	78	C5H6N+
81.0574	10	C5H7N+
82.0413	1	C5H6O+
82.0651	4	C5H8N+
83.049	3	C5H7O+
90.916	27	AsO+
92.0495	252	C6H6N+
93.0335	7	C6H5O+
93.0573	9	C6H7N+
96.0445	2	C5H6NO+
108.0444	581	C6H6NO+
109.0522	999	C6H7NO+
110.06	79	C6H8NO+
111.0441	17	C6H7O2+
125.991	1	CH9AsNO+
126.9522	1	C4H4As+
129.9857	88	AsH9NO2+
141.986	2	CH9AsNO2+
143.9652	7	AsH7NO3+
145.9804	3	AsH9NO3+
153.9632	9	C5H5AsN+
153.9856	2	C2H9AsNO2+
181.9584	9	C6H5AsNO+
217.9792	2	C6H9AsNO3+
