Mass spectrum: CP-863187; LC-ESI-QFT; MS2; CE: 90; R=17500; [M+H]+
Name: CP-863187
Name: 1,2,4-Triazolo(4,3-a)pyridine, 6-(4-(2,5-difluorophenyl)-5-oxazolyl)-3-(1-methylethyl)-
Name: 4-(2,5-difluorophenyl)-5-(3-propan-2-yl-[1,2,4]triazolo[4,3-a]pyridin-6-yl)-1,3-oxazole
Formula: C18H14F2N4O
Exact mass: 340.1136
SMILES: CC(C)C1=NN=C2C=CC(=CN12)C1=C(N=CO1)C1=CC(F)=CC=C1F
InChI: InChI=1S/C18H14F2N4O/c1-10(2)18-23-22-15-6-3-11(8-24(15)18)17-16(21-9-25-17)13-7-12(19)4-5-14(13)20/h3-10H,1-2H3
Instrument: Q Exactive Orbitrap (Thermo Scientific)
Instrument type: LC-ESI-QFT
Ms type: MS2
Ion mode: POSITIVE
Ionization: ESI
Fragmentation mode: HCD
Collision energy: 90
Resolution: 17500
Column name: Acquity BEH C18 1.7um, 2.1x150mm (Waters)
Retention time: 15.986 min
Base peak: 79.0211
Precursor m/z: 341.1208
Precursor type: [M+H]+
Precursor intensity: 32405441.5
m/z	relative intensity	assigned
64.0181	2	C4H2N+
66.0337	1	C4H4N+
67.0416	1	C4H5N+
76.0181	27	C5H2N+
78.0338	29	C5H4N+
79.0289	4	C4H3N2+
82.0287	1	C4H4NO+
93.0447	4	C5H5N2+
99.0229	1	C8H3+
100.0181	2	C7H2N+
101.0197	3	C5H3F2+
103.029	55	C6H3N2+
104.0369	1	C6H4N2+
105.0447	13	C6H5N2+
106.0526	1	C6H6N2+
107.0291	1	C7H4F+
115.0354	1	C6H5F2+
118.0399	2	C6H4N3+
119.0241	6	C6H3N2O+
121.0396	12	C6H5N2O+
121.0446	1	C3H5F2N3+
125.0197	21	C7H3F2+
127.0353	8	C7H5F2+
130.0399	4	C7H4N3+
133.0448	9	C9H6F+
135.0554	1	C7H7N2O+
139.0353	17	C8H5F2+
140.0306	31	C7H4F2N+
140.0494	19	C10H6N+
141.0147	4	C7H3F2O+
143.0292	29	C10H4F+
146.0401	8	C9H5FN+
147.024	8	C9H4FO+
147.035	5	C8H4FN2+
148.0305	12	C7H3FN3+
151.0352	6	C9H5F2+
152.0305	7	C8H4F2N+
153.0384	4	C8H5F2N+
154.0286	1	C5H3FN4O+
154.0401	2	C9H4N3+
158.0403	5	C10H5FN+
163.0353	47	C10H5F2+
163.0552	6	C5H7F2N3O+
164.0306	36	C9H4F2N+
164.0431	16	C10H6F2+
164.0506	6	C9H7FNO+
165.051	5	C10H7F2+
166.0461	1	C9H6F2N+
167.0301	3	C9H5F2O+
168.0444	26	C11H6NO+
170.04	87	C11H5FN+
171.0355	5	C10H4FN2+
172.056	3	C11H7FN+
173.0509	15	C10H6FN2+
175.0354	20	C11H5F2+
176.0307	11	C10H4F2N+
176.0432	2	C11H6F2+
177.0365	3	C10H5F2N+
177.0454	7	C9H6FN2O+
178.04	14	C11H4N3+
181.0459	36	C10H7F2O+
183.0354	3	C11H4FN2+
188.0507	196	C11H7FNO+
189.0382	33	C11H5F2N+
189.0456	3	C10H6FN2O+
190.0462	999	C11H6F2N+
191.0413	125	C10H5F2N2+
195.0553	16	C12H7N2O+
196.0426	4	C12H5FN2+
196.0567	1	C10H8F2NO+
197.0509	103	C12H6FN2+
198.0461	50	C11H5FN3+
200.0306	26	C12H4F2N+
201.0374	3	C12H5F2N+
202.0462	19	C12H6F2N+
203.054	7	C12H7F2N+
204.0564	3	C10H7FN3O+
205.0331	1	C11H5F2NO+
207.0352	5	C13H4FN2+
209.0507	9	C13H6FN2+
210.0591	3	C13H7FN2+
215.0416	7	C12H5F2N2+
215.0613	2	C12H8FN2O+
216.049	6	C12H6F2N2+
217.0571	63	C12H7F2N2+
218.0411	18	C12H6F2NO+
219.0491	1	C12H7F2NO+
222.0465	2	C18H6+
223.054	1	C13H6FN3+
224.0618	11	C13H7FN3+
225.0461	3	C13H6FN2O+
226.0538	1	C13H7FN2O+
227.0412	9	C13H5F2N2+
228.0493	30	C13H6F2N2+
229.0576	2	C13H7F2N2+
245.0519	1	C13H7F2N2O+
272.0631	2	C14H8F2N3O+
325.0893	1	C17H11F2N4O+
