Mass spectrum: Milrinone; LC-ESI-QFT; MS2; CE: 90; R=17500; [M-H]-
Name: Milrinone
Name: 6-methyl-2-oxo-5-pyridin-4-yl-1H-pyridine-3-carbonitrile
Formula: C12H9N3O
Exact mass: 211.0746
SMILES: CC1=C(C=C(C#N)C(=O)N1)C1=CC=NC=C1
InChI: InChI=1S/C12H9N3O/c1-8-11(9-2-4-14-5-3-9)6-10(7-13)12(16)15-8/h2-6H,1H3,(H,15,16)
Instrument: Q Exactive Orbitrap (Thermo Scientific)
Instrument type: LC-ESI-QFT
Ms type: MS2
Ion mode: NEGATIVE
Ionization: ESI
Fragmentation mode: HCD
Collision energy: 90
Resolution: 17500
Column name: Acquity BEH C18 1.7um, 2.1x150mm (Waters)
Retention time: 3.062 min
Base peak: 210.0672
Precursor m/z: 210.0673
Precursor type: [M-H]-
Precursor intensity: 3162916.568115
m/z	relative intensity	assigned
50.0035	19	C3N-
64.0193	69	C4H2N-
65.0145	254	C3HN2-
65.9985	157	C3NO-
90.0349	226	C6H4N-
91.0301	10	C5H3N2-
92.0506	24	C6H6N-
93.0093	13	C4HN2O-
102.0349	10	C7H4N-
107.0251	31	C5H3N2O-
116.0506	205	C8H6N-
117.0458	204	C7H5N2-
118.0298	57	C7H4NO-
133.0408	6	C7H5N2O-
140.038	8	C9H4N2-
140.0506	23	C10H6N-
141.0458	229	C9H5N2-
143.0614	54	C9H7N2-
165.0456	17	C11H5N2-
166.041	999	C10H4N3-
167.0614	248	C11H7N2-
168.0569	31	C10H6N3-
169.0409	5	C10H5N2O-
180.0567	18	C11H6N3-
182.0721	13	C11H8N3-
183.0564	9	C11H7N2O-
194.0359	80	C11H4N3O-
208.0519	25	C12H6N3O-
210.0673	48	C12H8N3O-
