Mass spectrum: CP-457920; LC-ESI-QFT; MS2; CE: 45; R=17500; [M-H]-
Name: CP-457920
Name: 1,5-Naphthyridine-3-carboxamide, 6-ethoxy-1,4-dihydro-4-oxo-N-(phenylmethyl)-
Name: N-benzyl-6-ethoxy-4-oxo-1H-1,5-naphthyridine-3-carboxamide
Formula: C18H17N3O3
Exact mass: 323.1270
SMILES: CCOC1=NC2=C(NC=C(C(=O)NCC3=CC=CC=C3)C2=O)C=C1
InChI: InChI=1S/C18H17N3O3/c1-2-24-15-9-8-14-16(21-15)17(22)13(11-19-14)18(23)20-10-12-6-4-3-5-7-12/h3-9,11H,2,10H2,1H3,(H,19,22)(H,20,23)
Instrument: Q Exactive Orbitrap (Thermo Scientific)
Instrument type: LC-ESI-QFT
Ms type: MS2
Ion mode: NEGATIVE
Ionization: ESI
Fragmentation mode: HCD
Collision energy: 45
Resolution: 17500
Column name: Acquity BEH C18 1.7um, 2.1x150mm (Waters)
Retention time: 16.923 min
Base peak: 360.1269
Precursor m/z: 322.1197
Precursor type: [M-H]-
Precursor intensity: 18585039.11328
m/z	relative intensity	assigned
91.0302	2	C5H3N2-
96.0093	3	C4H2NO2-
106.0172	1	C5H2N2O-
108.0329	44	C5H4N2O-
109.017	6	C5H3NO2-
119.0251	34	C6H3N2O-
121.017	3	C6H3NO2-
123.02	4	C5H3N2O2-
132.0328	22	C7H4N2O-
133.0406	2	C7H5N2O-
134.0248	3	C7H4NO2-
135.02	26	C6H3N2O2-
136.0278	7	C6H4N2O2-
137.012	3	C6H3NO3-
145.0409	1	C8H5N2O-
147.0201	17	C7H3N2O2-
148.0279	6	C7H4N2O2-
160.0279	105	C8H4N2O2-
161.0356	751	C8H5N2O2-
163.015	5	C7H3N2O3-
175.0149	4	C8H3N2O3-
176.0227	149	C8H4N2O3-
177.0302	1	C8H5N2O3-
186.031	1	C9H4N3O2-
187.015	7	C9H3N2O3-
188.0226	2	C9H4N2O3-
189.0307	13	C9H5N2O3-
189.067	16	C10H9N2O2-
217.0616	1	C11H9N2O3-
250.0749	8	C15H10N2O2-
275.0704	5	C16H9N3O2-
276.0777	16	C16H10N3O2-
292.0731	2	C16H10N3O3-
293.0808	73	C16H11N3O3-
294.0885	999	C16H12N3O3-
322.1198	37	C18H16N3O3-
