Mass spectrum: PharmaGSID_48507; LC-ESI-QFT; MS2; CE: 30; R=17500; [M-H]-
Name: PharmaGSID_48507
Name: 5-(2,4-Difluorophenoxy)-2-[(2-hydroxy-2-methylpropyl)amino]-8-methylpyrido[2,3-d]pyrimidin-7(8H)-one
Formula: C18H18F2N4O3
Exact mass: 376.1347
SMILES: CN1C(=O)C=C(OC2=C(F)C=C(F)C=C2)C2=C1N=C(NCC(C)(C)O)N=C2
InChI: InChI=1S/C18H18F2N4O3/c1-18(2,26)9-22-17-21-8-11-14(7-15(25)24(3)16(11)23-17)27-13-5-4-10(19)6-12(13)20/h4-8,26H,9H2,1-3H3,(H,21,22,23)
Instrument: Q Exactive Orbitrap (Thermo Scientific)
Instrument type: LC-ESI-QFT
Ms type: MS2
Ion mode: NEGATIVE
Ionization: ESI
Fragmentation mode: HCD
Collision energy: 30
Resolution: 17500
Column name: Acquity BEH C18 1.7um, 2.1x150mm (Waters)
Retention time: 16.608 min
Base peak: 206.007
Precursor m/z: 375.1274
Precursor type: [M-H]-
Precursor intensity: 5706126.314453
m/z	relative intensity	assigned
103.0302	13	C6H3N2-
113.021	2	C6H3F2-
118.0412	2	C6H4N3-
129.0158	456	C6H3F2O-
130.0411	1	C7H4N3-
135.0675	2	C6H7N4-
148.0516	1	C7H6N3O-
159.0674	1	C8H7N4-
175.0628	1	C8H7N4O-
176.0465	68	C8H6N3O2-
177.0546	1	C8H7N3O2-
185.052	1	C11H6FN2-
187.0623	8	C9H7N4O-
188.0704	10	C9H8N4O-
190.0499	4	C8H6N4O2-
191.0335	1	C8H5N3O3-
203.0574	17	C9H7N4O2-
204.0653	8	C9H8N4O2-
213.047	2	C12H6FN2O-
232.0691	1	C12H8F2N3-
236.0535	1	C12H8F2NO2-
241.0421	2	C13H6FN2O2-
242.0734	3	C13H9FN3O-
243.0579	2	C13H8FN2O2-
254.0371	15	C13H5FN3O2-
255.045	5	C13H6FN3O2-
261.0482	4	C13H7F2N2O2-
270.0685	49	C14H9FN3O2-
282.0559	1	C14H7FN4O2-
283.0639	2	C14H8FN4O2-
288.0592	3	C14H8F2N3O2-
290.0747	53	C14H10F2N3O2-
297.0792	30	C15H10FN4O2-
303.0698	72	C14H9F2N4O2-
317.0855	999	C15H11F2N4O2-
359.0963	6	C17H13F2N4O3-
375.1275	121	C18H17F2N4O3-
