Mass spectrum: AVE3247; LC-ESI-QFT; MS2; CE: 60; R=17500; [M+H]+
Name: AVE3247
Name: 1-[[5-(5-chlorothiophen-2-yl)-1,2-oxazol-3-yl]methyl]-2-[(1-cyclopropylpiperidin-4-yl)carbamoyl]benzimidazole-5-carboxylic acid
Formula: C25H24ClN5O4S
Exact mass: 525.1238
SMILES: OC(=O)C1=CC=C2N(CC3=NOC(=C3)C3=CC=C(Cl)S3)C(=NC2=C1)C(=O)NC1CCN(CC1)C1CC1
InChI: InChI=1S/C25H24ClN5O4S/c26-22-6-5-21(36-22)20-12-16(29-35-20)13-31-19-4-1-14(25(33)34)11-18(19)28-23(31)24(32)27-15-7-9-30(10-8-15)17-2-3-17/h1,4-6,11-12,15,17H,2-3,7-10,13H2,(H,27,32)(H,33,34)
Instrument: Q Exactive Orbitrap (Thermo Scientific)
Instrument type: LC-ESI-QFT
Ms type: MS2
Ion mode: POSITIVE
Ionization: ESI
Fragmentation mode: HCD
Collision energy: 60
Resolution: 17500
Column name: Acquity BEH C18 1.7um, 2.1x150mm (Waters)
Retention time: 15.907 min
Base peak: 79.0211
Precursor m/z: 526.131
Precursor type: [M+H]+
Precursor intensity: 1825187
m/z	relative intensity	assigned
53.0023	13	C3HO+
53.0386	12	C4H5+
55.0543	265	C4H7+
56.0495	87	C3H6N+
65.0385	3	C5H5+
67.0542	38	C5H7+
68.0495	68	C4H6N+
69.0698	19	C5H9+
70.0651	192	C4H8N+
72.0808	83	C4H10N+
79.0542	24	C6H7+
80.0131	10	C4H2NO+
80.0494	28	C5H6N+
81.0573	14	C5H7N+
81.0699	55	C6H9+
82.0652	159	C5H8N+
83.0729	12	C5H9N+
84.0445	9	C4H6NO+
84.0808	112	C5H10N+
91.0544	3	C7H7+
93.0699	4	C7H9+
94.0652	23	C6H8N+
95.0856	45	C7H11+
96.0444	10	C5H6NO+
96.0808	180	C6H10N+
98.0964	13	C6H12N+
108.0027	6	C6H4S+
109.0887	13	C7H11N+
114.055	3	C5H8NO2+
119.0604	9	C7H7N2+
122.0965	101	C8H12N+
124.1121	569	C8H14N+
125.071	159	C6H9N2O+
130.9715	6	C5H4ClS+
131.0604	9	C8H7N2+
134.006	16	C7H4NS+
135.0137	53	C7H5NS+
139.0866	33	C7H11N2O+
142.9717	113	C6H4ClS+
144.9509	106	C5H2ClOS+
145.0398	13	C8H5N2O+
163.0087	4	C8H5NOS+
163.0501	31	C8H7N2O2+
167.1179	999	C9H15N2O+
169.9826	96	C7H5ClNS+
170.9668	5	C7H4ClOS+
175.0503	136	C9H7N2O2+
176.0582	41	C9H8N2O2+
187.0506	4	C7H10ClN3O+
197.9775	39	C8H5ClNOS+
214.0605	16	C3H12N5O4S+
215.0692	13	C11H9N3O2+
333.0089	15	C21H4ClN3+
360.0205	8	C16H11ClN3O3S+
