Mass spectrum: 3-Amino-9-ethylcarbazole; LC-ESI-QFT; MS2; CE: 60; R=17500; [M+H]+
Name: 3-Amino-9-ethylcarbazole
Name: 9-ethylcarbazol-3-amine
Formula: C14H14N2
Exact mass: 210.1157
SMILES: CCN1C2=C(C=CC=C2)C2=C1C=CC(N)=C2
InChI: InChI=1S/C14H14N2/c1-2-16-13-6-4-3-5-11(13)12-9-10(15)7-8-14(12)16/h3-9H,2,15H2,1H3
Instrument: Q Exactive Orbitrap (Thermo Scientific)
Instrument type: LC-ESI-QFT
Ms type: MS2
Ion mode: POSITIVE
Ionization: ESI
Fragmentation mode: HCD
Collision energy: 60
Resolution: 17500
Column name: Acquity BEH C18 1.7um, 2.1x150mm (Waters)
Retention time: 14.120 min
Base peak: 79.0212
Precursor m/z: 211.123
Precursor type: [M+H]+
Precursor intensity: 6995387.15625
m/z	relative intensity	assigned
117.0573	1	C8H7N+
130.0651	2	C9H8N+
137.0119	3	C9HN2+
145.0888	3	C10H11N+
152.0622	1	C12H8+
154.0651	1	C11H8N+
155.073	2	C11H9N+
156.0812	2	C11H10N+
166.0652	52	C12H8N+
167.073	12	C12H9N+
167.0856	2	C13H11+
168.0808	1	C12H10N+
170.0963	1	C12H12N+
178.0656	2	C13H8N+
179.0731	48	C13H9N+
180.0809	39	C13H10N+
181.076	21	C12H9N2+
182.084	999	C12H10N2+
183.0917	66	C12H11N2+
184.1117	3	C13H14N+
192.081	1	C14H10N+
193.089	6	C14H11N+
194.0966	27	C14H12N+
195.0919	44	C13H11N2+
195.1043	22	C14H13N+
209.1076	5	C14H13N2+
210.1153	47	C14H14N2+
211.1231	145	C14H15N2+
