Mass spectrum: 2,2`,6,6`-Tetrachlorobisphenol A; LC-ESI-QFT; MS2; CE: 60; R=17500; [M-H]-
Name: 2,2',6,6'-Tetrachlorobisphenol A
Name: Tetrachlorobisphenol A
Name: 2,6-dichloro-4-[2-(3,5-dichloro-4-hydroxyphenyl)propan-2-yl]phenol
Formula: C15H12Cl4O2
Exact mass: 363.9591
SMILES: CC(C)(C1=CC(Cl)=C(O)C(Cl)=C1)C1=CC(Cl)=C(O)C(Cl)=C1
InChI: InChI=1S/C15H12Cl4O2/c1-15(2,7-3-9(16)13(20)10(17)4-7)8-5-11(18)14(21)12(19)6-8/h3-6,20-21H,1-2H3
Instrument: Q Exactive Orbitrap (Thermo Scientific)
Instrument type: LC-ESI-QFT
Ms type: MS2
Ion mode: NEGATIVE
Ionization: ESI
Fragmentation mode: HCD
Collision energy: 60
Resolution: 17500
Column name: Acquity BEH C18 1.7um, 2.1x150mm (Waters)
Retention time: 19.009 min
Base peak: 221.1183
Precursor m/z: 362.9519
Precursor type: [M-H]-
Precursor intensity: 6431093.410156
m/z	relative intensity	assigned
89.0033	47	C6HO-
124.9799	130	C6H2ClO-
151.9909	8	C10O2-
156.0219	2	C10H4O2-
160.9565	19	C6H3Cl2O-
165.0115	2	C9H6ClO-
175.9436	2	C6H2Cl2O2-
176.0267	6	C13H4O-
180.0213	2	C12H4O2-
184.9568	7	C8H3Cl2O-
188.0035	10	C11H5ClO-
191.9986	6	C10H5ClO2-
200.0036	4	C12H5ClO-
200.9879	366	C9H7Cl2O-
208.9564	1	C10H3Cl2O-
210.9724	6	C10H5Cl2O-
211.9801	73	C10H6Cl2O-
212.0034	37	C13H5ClO-
212.9516	6	C9H3Cl2O2-
215.9983	50	C12H5ClO2-
223.9801	60	C11H6Cl2O-
226.9671	11	C10H5Cl2O2-
232.9566	118	C12H3Cl2O-
234.9725	6	C12H5Cl2O-
235.98	32	C12H6Cl2O-
238.9672	2	C11H5Cl2O2-
239.9765	2	C11H6Cl2O2-
246.9714	2	C13H5Cl2O-
247.9801	999	C13H6Cl2O-
250.9675	18	C12H5Cl2O2-
251.975	88	C12H6Cl2O2-
262.9672	6	C13H5Cl2O2-
263.975	4	C13H6Cl2O2-
268.9339	14	C12H4Cl3O-
270.9491	5	C12H6Cl3O-
272.9282	2	C11H4Cl3O2-
275.9749	5	C14H6Cl2O2-
282.9489	32	C13H6Cl3O-
283.9567	63	C13H7Cl3O-
286.944	20	C12H6Cl3O2-
296.9283	21	C13H4Cl3O2-
298.9436	5	C13H6Cl3O2-
299.9518	45	C13H7Cl3O2-
310.9442	13	C14H6Cl3O2-
311.9512	16	C14H7Cl3O2-
362.9512	3	C15H11Cl4O2-
