Mass spectrum: Thiacloprid; LC-ESI-QFT; MS2; CE: 15; R=17500; [M+H]+
Name: Thiacloprid
Name: [3-[(6-chloropyridin-3-yl)methyl]-1,3-thiazolidin-2-ylidene]cyanamide
Formula: C10H9ClN4S
Exact mass: 252.0236
SMILES: C1CSC(=NC#N)N1CC2=CN=C(C=C2)Cl
InChI: InChI=1S/C10H9ClN4S/c11-9-2-1-8(5-13-9)6-15-3-4-16-10(15)14-7-12/h1-2,5H,3-4,6H2
Instrument: Q Exactive Orbitrap (Thermo Scientific)
Instrument type: LC-ESI-QFT
Ms type: MS2
Ion mode: POSITIVE
Ionization: ESI
Fragmentation mode: HCD
Collision energy: 15
Resolution: 17500
Column name: Acquity BEH C18 1.7um, 2.1x150mm (Waters)
Retention time: 13.720 min
Base peak: 79.0212
Precursor m/z: 253.0309
Precursor type: [M+H]+
Precursor intensity: 10148039.75
m/z	relative intensity	assigned
126.0105	248	C6H5ClN+
128.0261	1	C6H7ClN+
151.0057	1	C7H4ClN2+
186.0139	79	C8H9ClNS+
193.0274	1	C8H6ClN4+
211.0091	9	C9H8ClN2S+
217.0542	9	C10H9N4S+
226.02	14	C9H9ClN3S+
236.0043	4	C10H7ClN3S+
253.0309	999	C10H10ClN4S+
