Mass spectrum: 6-Ethoxy-2,3,4-trimethyl-1,2,3,4-tetrahydroquinoline; LC-ESI-QFT; MS2; CE: 90; R=17500; [M+H]+
Name: 6-Ethoxy-2,3,4-trimethyl-1,2,3,4-tetrahydroquinoline
Name: 6-Ethoxy-2,2,4-trimethyl-1,2,3,4-tetrahydroquinoline
Name: 6-ethoxy-2,2,4-trimethyl-3,4-dihydro-1H-quinoline
Formula: C14H21NO
Exact mass: 219.1623
SMILES: CCOC1=CC=C2NC(C)(C)CC(C)C2=C1
InChI: InChI=1S/C14H21NO/c1-5-16-11-6-7-13-12(8-11)10(2)9-14(3,4)15-13/h6-8,10,15H,5,9H2,1-4H3
Instrument: Q Exactive Orbitrap (Thermo Scientific)
Instrument type: LC-ESI-QFT
Ms type: MS2
Ion mode: POSITIVE
Ionization: ESI
Fragmentation mode: HCD
Collision energy: 90
Resolution: 17500
Column name: Acquity BEH C18 1.7um, 2.1x150mm (Waters)
Retention time: 13.808 min
Base peak: 79.0211
Precursor m/z: 220.1696
Precursor type: [M+H]+
Precursor intensity: 11272657.5625
m/z	relative intensity	assigned
53.0386	15	C4H5+
54.0339	2	C3H4N+
55.0179	10	C3H3O+
55.0542	3	C4H7+
65.0386	57	C5H5+
67.0542	17	C5H7+
68.0129	2	C3H2NO+
68.0495	7	C4H6N+
69.0334	2	C4H5O+
70.0652	3	C4H8N+
77.0385	5	C6H5+
78.0465	2	C6H6+
79.0542	30	C6H7+
80.0494	41	C5H6N+
81.0573	11	C5H7N+
81.0699	62	C6H9+
82.0652	2	C5H8N+
89.0382	1	C7H5+
91.0542	999	C7H7+
92.0494	30	C6H6N+
93.0573	363	C6H7N+
93.0699	47	C7H9+
94.0414	16	C6H6O+
94.0651	47	C6H8N+
95.0491	56	C6H7O+
96.0443	4	C5H6NO+
103.0542	47	C8H7+
105.0573	3	C7H7N+
106.0651	145	C7H8N+
107.0492	25	C7H7O+
107.073	199	C7H9N+
108.0444	35	C6H6NO+
108.0807	454	C7H10N+
109.0522	31	C6H7NO+
109.0648	42	C7H9O+
110.06	34	C6H8NO+
116.0494	8	C8H6N+
117.0573	109	C8H7N+
118.0651	333	C8H8N+
119.0492	131	C8H7O+
119.0729	129	C8H9N+
120.0808	45	C8H10N+
121.0645	1	C8H9O+
121.0886	4	C8H11N+
122.06	65	C7H8NO+
134.06	143	C8H8NO+
135.0678	665	C8H9NO+
136.0757	757	C8H10NO+
148.0757	4	C9H10NO+
150.0913	3	C9H12NO+
163.0991	6	C10H13NO+
164.107	158	C10H14NO+
