Mass spectrum: Cyclopamine; LC-ESI-QFT; MS2; CE: 75; R=17500; [M+H]+
Name: Cyclopamine
Name: (3S,3'R,3'aS,6'S,6aS,6bS,7'aR,9R,11aS,11bR)-3',6',10,11b-tetramethylspiro[2,3,4,6,6a,6b,7,8,11,11a-decahydro-1H-benzo[a]fluorene-9,2'-3a,4,5,6,7,7a-hexahydro-3H-furo[3,2-b]pyridine]-3-ol
Formula: C27H41NO2
Exact mass: 411.3137
SMILES: C[C@@H]1[C@@H]2NC[C@@H](C)C[C@H]2O[C@]11CC[C@H]2[C@@H]3CC=C4C[C@@H](O)CC[C@]4(C)[C@H]3CC2=C1C
InChI: InChI=1S/C27H41NO2/c1-15-11-24-25(28-14-15)17(3)27(30-24)10-8-20-21-6-5-18-12-19(29)7-9-26(18,4)23(21)13-22(20)16(27)2/h5,15,17,19-21,23-25,28-29H,6-14H2,1-4H3/t15-,17+,19-,20-,21-,23-,24+,25-,26-,27-/m0/s1
Instrument: Q Exactive Orbitrap (Thermo Scientific)
Instrument type: LC-ESI-QFT
Ms type: MS2
Ion mode: POSITIVE
Ionization: ESI
Fragmentation mode: HCD
Collision energy: 75
Resolution: 17500
Column name: Acquity BEH C18 1.7um, 2.1x150mm (Waters)
Retention time: 15.350 min
Base peak: 79.0211
Precursor m/z: 412.321
Precursor type: [M+H]+
Precursor intensity: 8210137.375
m/z	relative intensity	assigned
53.0022	23	C3HO+
53.0386	22	C4H5+
53.9974	1	C2NO+
54.0338	7	C3H4N+
55.0179	7	C3H3O+
55.0542	127	C4H7+
56.0495	11	C3H6N+
57.0335	8	C3H5O+
57.0699	77	C4H9+
58.0287	8	C2H4NO+
58.065	8	C3H8N+
65.0385	50	C5H5+
67.0542	999	C5H7+
68.0494	16	C4H6N+
69.0334	11	C4H5O+
69.0573	4	C4H7N+
69.0698	58	C5H9+
70.0651	75	C4H8N+
72.0444	22	C3H6NO+
74.0964	2	C4H12N+
77.0384	3	C6H5+
79.0542	187	C6H7+
80.0495	34	C5H6N+
80.062	4	C6H8+
81.0574	44	C5H7N+
81.0699	346	C6H9+
82.0651	21	C5H8N+
83.0491	36	C5H7O+
83.0854	5	C6H11+
84.0808	367	C5H10N+
85.0648	199	C5H9O+
91.0542	168	C7H7+
93.0699	94	C7H9+
94.0652	16	C6H8N+
94.0778	8	C7H10+
95.0491	28	C6H7O+
95.0855	39	C7H11+
96.0808	102	C6H10N+
97.0649	6	C6H9O+
98.0964	19	C6H12N+
100.0756	2	C5H10NO+
102.0914	11	C5H12NO+
103.0542	10	C8H7+
105.0699	260	C8H9+
107.0855	108	C8H11+
109.065	14	C7H9O+
109.1012	216	C8H13+
110.0963	12	C7H12N+
112.0757	28	C6H10NO+
112.112	4	C7H14N+
114.0913	310	C6H12NO+
115.0541	22	C9H7+
116.062	6	C9H8+
117.0699	96	C9H9+
118.0777	4	C9H10+
119.0856	106	C9H11+
121.0648	4	C8H9O+
121.1012	32	C9H13+
123.0805	7	C8H11O+
123.117	2	C9H15+
124.112	14	C8H14N+
125.0961	2	C8H13O+
126.1278	5	C8H16N+
128.062	41	C10H8+
129.0698	77	C10H9+
130.0777	43	C10H10+
131.0855	101	C10H11+
132.093	2	C10H12+
133.1012	100	C10H13+
135.0804	2	C9H11O+
135.1169	10	C10H15+
140.107	14	C8H14NO+
141.0698	38	C11H9+
142.0777	105	C11H10+
143.0855	97	C11H11+
144.0934	30	C11H12+
145.1012	122	C11H13+
146.1092	2	C11H14+
147.1168	14	C11H15+
148.1121	5	C10H14N+
150.1276	2	C10H16N+
153.0698	10	C12H9+
154.0777	10	C12H10+
155.0855	54	C12H11+
156.0934	51	C12H12+
157.1012	149	C12H13+
158.109	12	C12H14+
159.1168	65	C12H15+
161.0962	3	C11H13O+
161.1324	7	C12H17+
162.1279	3	C11H16N+
164.1436	1	C11H18N+
165.07	12	C13H9+
166.0778	5	C13H10+
167.0855	22	C13H11+
168.0934	21	C13H12+
169.1012	46	C13H13+
170.1091	15	C13H14+
171.1168	63	C13H15+
173.1324	18	C13H17+
176.1434	2	C12H18N+
178.0778	3	C14H10+
179.0855	13	C14H11+
180.0934	12	C14H12+
181.1011	28	C14H13+
182.1092	18	C14H14+
183.1169	28	C14H15+
184.1248	6	C14H16+
185.1326	17	C14H17+
187.1484	2	C14H19+
191.0853	2	C15H11+
192.0931	4	C15H12+
193.1011	14	C15H13+
194.1092	10	C15H14+
195.1169	22	C15H15+
196.1251	8	C15H16+
197.1325	17	C15H17+
198.1403	3	C15H18+
199.1481	3	C15H19+
205.1008	4	C16H13+
206.1092	3	C16H14+
207.1171	12	C16H15+
208.1246	6	C16H16+
209.1323	16	C16H17+
210.1406	3	C16H18+
211.1479	7	C16H19+
213.1637	4	C16H21+
217.1024	2	C17H13+
219.1165	3	C17H15+
221.1323	8	C17H17+
222.1405	5	C17H18+
223.148	7	C17H19+
224.1553	1	C17H20+
225.1644	3	C17H21+
233.1323	2	C18H17+
235.148	6	C18H19+
236.1557	1	C18H20+
237.164	3	C18H21+
249.1638	6	C19H21+
264.1869	2	C20H24+
275.1789	2	C21H23+
