Mass spectrum: Isoproturon; LC-ESI-QFT; MS2; CE: 60; R=17500; [M+H]+
Name: Isoproturon
Name: 1,1-dimethyl-3-(4-propan-2-ylphenyl)urea
Formula: C12H18N2O
Exact mass: 206.1419
SMILES: CC(C)C1=CC=C(NC(=O)N(C)C)C=C1
InChI: InChI=1S/C12H18N2O/c1-9(2)10-5-7-11(8-6-10)13-12(15)14(3)4/h5-9H,1-4H3,(H,13,15)
Instrument: Q Exactive Orbitrap (Thermo Scientific)
Instrument type: LC-ESI-QFT
Ms type: MS2
Ion mode: POSITIVE
Ionization: ESI
Fragmentation mode: HCD
Collision energy: 60
Resolution: 17500
Column name: Acquity BEH C18 1.7um, 2.1x150mm (Waters)
Retention time: 16.558 min
Base peak: 79.0211
Precursor m/z: 207.1492
Precursor type: [M+H]+
Precursor intensity: 22857939
m/z	relative intensity	assigned
53.0022	1	C3HO+
56.0131	4	C2H2NO+
72.0443	999	C3H6NO+
91.0542	7	C7H7+
92.0494	2	C6H6N+
93.0699	1	C7H9+
107.0855	8	C8H11+
117.0699	3	C9H9+
119.073	3	C8H9N+
120.0444	8	C7H6NO+
134.0964	59	C9H12N+
137.096	1	C9H13O+
147.0917	3	C9H11N2+
162.0913	5	C10H12NO+
165.1022	16	C9H13N2O+
207.1493	2	C12H19N2O+
