Mass spectrum: 4-Pentylaniline; LC-ESI-QFT; MS2; CE: 75; R=17500; [M+H]+
Name: 4-Pentylaniline
Formula: C11H17N
Exact mass: 163.1361
SMILES: CCCCCC1=CC=C(N)C=C1
InChI: InChI=1S/C11H17N/c1-2-3-4-5-10-6-8-11(12)9-7-10/h6-9H,2-5,12H2,1H3
Instrument: Q Exactive Orbitrap (Thermo Scientific)
Instrument type: LC-ESI-QFT
Ms type: MS2
Ion mode: POSITIVE
Ionization: ESI
Fragmentation mode: HCD
Collision energy: 75
Resolution: 17500
Column name: Acquity BEH C18 1.7um, 2.1x150mm (Waters)
Retention time: 15.630 min
Base peak: 79.0211
Precursor m/z: 164.1434
Precursor type: [M+H]+
Precursor intensity: 20238670.5
m/z	relative intensity	assigned
51.0229	1	C4H3+
53.0386	22	C4H5+
55.0542	44	C4H7+
63.0229	1	C5H3+
65.0386	52	C5H5+
66.0464	34	C5H6+
67.0542	6	C5H7+
69.07	4	C5H9+
71.0854	5	C5H11+
77.0385	5	C6H5+
78.0464	1	C6H6+
79.0542	34	C6H7+
81.0699	3	C6H9+
89.0386	6	C7H5+
90.0465	34	C7H6+
91.0543	999	C7H7+
93.0574	75	C6H7N+
94.0652	733	C6H8N+
103.0543	18	C8H7+
104.0621	5	C8H8+
105.0699	74	C8H9+
106.0652	190	C7H8N+
107.073	262	C7H9N+
108.0809	3	C7H10N+
117.0699	6	C9H9+
119.0856	3	C9H11+
120.0808	10	C8H10N+
121.0887	3	C8H11N+
163.1351	1	C11H17N+
164.1434	250	C11H18N+
