Mass spectrum: Bupropion; LC-ESI-QFT; MS2; CE: 90; R=17500; [M+H]+
Name: Bupropion
Name: 2-(tert-butylamino)-1-(3-chlorophenyl)propan-1-one
Formula: C13H18ClNO
Exact mass: 239.1077
SMILES: CC(NC(C)(C)C)C(=O)C1=CC=CC(Cl)=C1
InChI: InChI=1S/C13H18ClNO/c1-9(15-13(2,3)4)12(16)10-6-5-7-11(14)8-10/h5-9,15H,1-4H3
Instrument: Q Exactive Orbitrap (Thermo Scientific)
Instrument type: LC-ESI-QFT
Ms type: MS2
Ion mode: POSITIVE
Ionization: ESI
Fragmentation mode: HCD
Collision energy: 90
Resolution: 17500
Column name: Acquity BEH C18 1.7um, 2.1x150mm (Waters)
Retention time: 13.424 min
Base peak: 79.0211
Precursor m/z: 240.115
Precursor type: [M+H]+
Precursor intensity: 23613098.125
m/z	relative intensity	assigned
53.0022	8	C3HO+
53.0386	18	C4H5+
53.9975	1	C2NO+
55.0178	4	C3H3O+
57.0699	198	C4H9+
77.0385	8	C6H5+
89.0385	2	C7H5+
95.0492	50	C6H7O+
102.0464	8	C8H6+
103.0542	470	C8H7+
104.0621	31	C8H8+
129.0103	11	C6H6ClO+
130.0652	999	C9H8N+
131.073	874	C9H9N+
132.0569	13	C9H8O+
134.0964	6	C9H12N+
138.9947	26	C7H4ClO+
139.0309	156	C8H8Cl+
148.0756	2	C9H10NO+
151.0184	51	C8H6ClN+
152.062	1	C12H8+
166.042	8	C9H9ClN+
167.0258	4	C9H8ClO+
