Mass spectrum: Carbaryl; LC-ESI-QFT; MS2; CE: 30; R=17500; [M+H]+
Name: Carbaryl
Name: naphthalen-1-yl N-methylcarbamate
Formula: C12H11NO2
Exact mass: 201.079
SMILES: CNC(=O)OC1=C2C=CC=CC2=CC=C1
InChI: InChI=1S/C12H11NO2/c1-13-12(14)15-11-8-4-6-9-5-2-3-7-10(9)11/h2-8H,1H3,(H,13,14)
Instrument: Q Exactive Orbitrap (Thermo Scientific)
Instrument type: LC-ESI-QFT
Ms type: MS2
Ion mode: POSITIVE
Ionization: ESI
Fragmentation mode: HCD
Collision energy: 30
Resolution: 17500
Column name: Acquity BEH C18 1.7um, 2.1x150mm (Waters)
Retention time: 15.746 min
Base peak: 79.0211
Precursor m/z: 202.0863
Precursor type: [M+H]+
Precursor intensity: 671715.6875
m/z	relative intensity	assigned
146.0601	521	C9H8NO+
174.0915	999	C11H12NO+
