Mass spectrum: N,N`-Dibutylurea; LC-ESI-QFT; MS2; CE: 15; R=17500; [M+H]+
Name: N,N'-Dibutylurea
Name: 1,3-dibutylurea
Formula: C9H20N2O
Exact mass: 172.1576
SMILES: CCCCNC(=O)NCCCC
InChI: InChI=1S/C9H20N2O/c1-3-5-7-10-9(12)11-8-6-4-2/h3-8H2,1-2H3,(H2,10,11,12)
Instrument: Q Exactive Orbitrap (Thermo Scientific)
Instrument type: LC-ESI-QFT
Ms type: MS2
Ion mode: POSITIVE
Ionization: ESI
Fragmentation mode: HCD
Collision energy: 15
Resolution: 17500
Column name: Acquity BEH C18 1.7um, 2.1x150mm (Waters)
Retention time: 15.732 min
Base peak: 79.0212
Precursor m/z: 173.1648
Precursor type: [M+H]+
Precursor intensity: 25766283.25
m/z	relative intensity	assigned
57.0699	99	C4H9+
74.0964	999	C4H12N+
117.1024	1	C5H13N2O+
173.165	673	C9H21N2O+
