Mass spectrum: PharmaGSID_48506; LC-ESI-QFT; MS2; CE: 15; R=17500; [M+H]+
Name: PharmaGSID_48506
Name: (2R)-2-(3-chloro-4-methylsulfonylphenyl)-3-cyclopentyl-N-pyrazin-2-ylpropanamide
Formula: C19H22ClN3O3S
Exact mass: 407.1070
SMILES: CS(=O)(=O)C1=CC=C(C=C1Cl)[C@@H](CC1CCCC1)C(=O)NC1=NC=CN=C1
InChI: InChI=1S/C19H22ClN3O3S/c1-27(25,26)17-7-6-14(11-16(17)20)15(10-13-4-2-3-5-13)19(24)23-18-12-21-8-9-22-18/h6-9,11-13,15H,2-5,10H2,1H3,(H,22,23,24)/t15-/m1/s1
Instrument: Q Exactive Orbitrap (Thermo Scientific)
Instrument type: LC-ESI-QFT
Ms type: MS2
Ion mode: POSITIVE
Ionization: ESI
Fragmentation mode: HCD
Collision energy: 15
Resolution: 17500
Column name: Acquity BEH C18 1.7um, 2.1x150mm (Waters)
Retention time: 17.918 min
Base peak: 79.0211
Precursor m/z: 408.1143
Precursor type: [M+H]+
Precursor intensity: 7223001.375
m/z	relative intensity	assigned
96.0555	44	C4H6N3+
205.0781	1	C13H14Cl+
285.0705	2	C14H18ClO2S+
390.1045	4	C19H21ClN3O2S+
408.1142	999	C19H23ClN3O3S+
