Mass spectrum: 6-hydroxynaphthalene-2-sulfonate; LC-ESI-QFT; MS2; CE: 90; R=17500; [M-H]-
Name: 6-hydroxynaphthalene-2-sulfonate
Name: 2-Naphthol-6-sulfonic acid
Name: 6-hydroxynaphthalene-2-sulfonic acid
Formula: C10H8O4S
Exact mass: 224.0143
SMILES: OC1=CC2=C(C=C1)C=C(C=C2)S(O)(=O)=O
InChI: InChI=1S/C10H8O4S/c11-9-3-1-8-6-10(15(12,13)14)4-2-7(8)5-9/h1-6,11H,(H,12,13,14)
Instrument: Q Exactive Orbitrap (Thermo Scientific)
Instrument type: LC-ESI-QFT
Ms type: MS2
Ion mode: NEGATIVE
Ionization: ESI
Fragmentation mode: HCD
Collision energy: 90
Resolution: 17500
Column name: Acquity BEH C18 1.7um, 2.1x150mm (Waters)
Retention time: 7.768 min
Base peak: 75.0088
Precursor m/z: 223.0071
Precursor type: [M-H]-
Precursor intensity: 2139111.661865
m/z	relative intensity	assigned
79.9574	999	O3S-
80.9651	27	HO3S-
115.0552	10	C9H7-
130.0423	21	C9H6O-
131.0503	5	C9H7O-
141.0342	2	C10H5O-
143.0502	36	C10H7O-
158.0373	388	C10H6O2-
159.0451	32	C10H7O2-
223.0072	6	C10H7O4S-
