Mass spectrum: Ioxynil; LC-ESI-QFT; MS2; CE: 75; R=17500; [M-H]-
Name: Ioxynil
Name: 4-hydroxy-3,5-diiodobenzonitrile
Formula: C7H3I2NO
Exact mass: 370.8304
SMILES: OC1=C(I)C=C(C=C1I)C#N
InChI: InChI=1S/C7H3I2NO/c8-5-1-4(3-10)2-6(9)7(5)11/h1-2,11H
Instrument: Q Exactive Orbitrap (Thermo Scientific)
Instrument type: LC-ESI-QFT
Ms type: MS2
Ion mode: NEGATIVE
Ionization: ESI
Fragmentation mode: HCD
Collision energy: 75
Resolution: 17500
Column name: Acquity BEH C18 1.7um, 2.1x150mm (Waters)
Retention time: 17.202 min
Base peak: 369.8229
Precursor m/z: 369.8231
Precursor type: [M-H]-
Precursor intensity: 84548732.0332
m/z	relative intensity	assigned
65.0033	3	C4HO-
65.9985	2	C3NO-
88.0193	5	C6H2N-
89.0033	5	C6HO-
89.9985	1	C5NO-
116.0142	19	C7H2NO-
126.905	999	I-
214.9237	1	C6H2IN-
230.9186	2	C6H2INO-
