Mass spectrum: Dinotefuran; LC-ESI-QFT; MS2; CE: 45; R=17500; [M+H]+
Name: Dinotefuran
Name: Scorpion
Name: 2-methyl-1-nitro-3-(oxolan-3-ylmethyl)guanidine
Formula: C7H14N4O3
Exact mass: 202.1066
SMILES: CNC(NCC1CCOC1)=N[N+]([O-])=O
InChI: InChI=1S/C7H14N4O3/c1-8-7(10-11(12)13)9-4-6-2-3-14-5-6/h6H,2-5H2,1H3,(H2,8,9,10)
Instrument: Q Exactive Orbitrap (Thermo Scientific)
Instrument type: LC-ESI-QFT
Ms type: MS2
Ion mode: POSITIVE
Ionization: ESI
Fragmentation mode: HCD
Collision energy: 45
Resolution: 17500
Column name: Acquity BEH C18 1.7um, 2.1x150mm (Waters)
Retention time: 9.332 min
Base peak: 79.0212
Precursor m/z: 203.1139
Precursor type: [M+H]+
Precursor intensity: 2068741.1875
m/z	relative intensity	assigned
72.0444	201	C3H6NO+
73.0634	999	C2H7N3+
87.0791	992	C3H9N3+
100.0869	729	C4H10N3+
112.087	416	C5H10N3+
113.0947	217	C5H11N3+
114.1027	803	C5H12N3+
129.0898	888	C5H11N3O+
