Mass spectrum: Penoxsulam; LC-ESI-QFT; MS2; CE: 60; R=17500; [M-H]-
Name: Penoxsulam
Name: 2-(2,2-difluoroethoxy)-N-(5,8-dimethoxy-[1,2,4]triazolo[1,5-c]pyrimidin-2-yl)-6-(trifluoromethyl)benzenesulfonamide
Formula: C16H14F5N5O5S
Exact mass: 483.0636
SMILES: COC1=CN=C(OC)N2N=C(NS(=O)(=O)C3=C(C=CC=C3OCC(F)F)C(F)(F)F)N=C12
InChI: InChI=1S/C16H14F5N5O5S/c1-29-10-6-22-15(30-2)26-13(10)23-14(24-26)25-32(27,28)12-8(16(19,20)21)4-3-5-9(12)31-7-11(17)18/h3-6,11H,7H2,1-2H3,(H,24,25)
Instrument: Q Exactive Orbitrap (Thermo Scientific)
Instrument type: LC-ESI-QFT
Ms type: MS2
Ion mode: NEGATIVE
Ionization: ESI
Fragmentation mode: HCD
Collision energy: 60
Resolution: 17500
Column name: Acquity BEH C18 1.7um, 2.1x150mm (Waters)
Retention time: 15.561 min
Base peak: 99.9976
Precursor m/z: 482.0563
Precursor type: [M-H]-
Precursor intensity: 18016185.31934
m/z	relative intensity	assigned
53.9985	15	C2NO-
57.9757	5	CNS-
58.9938	26	C2FO-
61.0095	999	C2H2FO-
63.9625	3	O2S-
64.0067	9	C3N2-
65.0145	44	C3HN2-
65.9985	23	C3NO-
66.0098	251	C2N3-
68.0142	11	C3H2NO-
77.9656	3	NO2S-
78.0097	27	C3N3-
80.0016	9	C3N2O-
81.0157	85	C2H3F2O-
81.9935	431	C3NO2-
82.9609	14	FO2S-
88.0066	6	C5N2-
90.0098	40	C4N3-
92.0252	4	C4H2N3-
92.9958	65	C3F3-
93.0093	8	C4HN2O-
94.0047	26	F4H2O-
95.0252	25	C4H3N2O-
97.0085	14	C8H-
98.0361	8	F4H6O-
103.9685	4	CN2O2S-
107.0126	8	CH3F4O-
109.0043	833	C4HN2O2-
113.0033	3	C8HO-
113.0145	7	C7HN2-
114.0096	7	C6N3-
115.0303	5	C7H3N2-
116.0252	5	C6H2N3-
117.0147	20	C8H2F-
121.01	6	C7H2FO-
121.0155	80	C4HN4O-
122.0235	19	CH4F4NO-
123.0074	6	C4HN3O2-
124.0153	30	C4H2N3O2-
124.0516	3	C5H6N3O-
126.0309	9	C4H4N3O2-
133.9996	13	C2H2F4O2-
134.0048	4	C7HFNO-
137.0207	86	C8H3F2-
139.0385	3	C5H5N3O2-
145.0095	136	C9H2FO-
145.0206	7	C3HF2N5-
148.0141	55	C6H3F3O-
149.0105	303	C5HN4O2-
150.0183	26	C5H2N4O2-
150.0307	9	C6H4N3O2-
150.042	5	C5H4N5O-
151.0023	41	C8H4FS-
151.0115	5	C7HF2N2-
151.0259	26	C5H3N4O2-
154.0111	21	C7H2F2NO-
154.0285	8	C5H4F4N-
155.0315	7	C8H5F2O-
157.0206	11	C4HF2N5-
157.027	40	C8H4F3-
159.006	15	C2HF4N3O-
161.022	331	C7H4F3O-
162.0421	36	C6H4N5O-
163.012	5	C2H7F2NO3S-
163.0201	19	C9H4FO2-
164.034	547	C6H4N4O2-
165.0157	172	C9H3F2O-
165.0288	12	C5H3N5O2-
166.0257	43	C9H7FS-
170.0224	12	C8H3F3N-
171.0311	14	F5H4N4O-
173.0225	5	H7N5O4S-
175.0253	16	C7H4F3NO-
176.0091	88	C7H3F3O2-
177.0145	10	C8HF2N3-
177.0269	18	C9H3F2N2-
178.0221	10	C8H2F2N3-
179.0575	68	C4H9F4NO2-
181.0105	3	C7H4FN3S-
183.0178	86	C8H2F3N2-
183.0263	13	C9H5F2O2-
185.0219	526	C9H4F3O-
186.0172	86	C8H3F3NO-
193.0604	37	C7H7N5O2-
195.0178	17	C9H2F3N2-
195.0379	28	C3H11F2NO4S-
197.0206	139	C8H2F3N3-
200.0202	66	C8H3F3N2O-
201.0169	13	C9H4F3O2-
203.0169	9	C11H4FO3-
204.0252	4	C9H2F2N4-
205.0278	62	C4H7F4N3S-
208.0128	14	C9HF3N3-
209.0053	6	C11H3N3S-
210.0286	73	C14H4F2-
215.044	9	C9H6F3N2O-
220.0199	5	C11H8O3S-
223.0238	97	C3H5F4N3O4-
223.0358	5	C7H9F2N2O2S-
224.0315	803	C9H3F3N4-
225.0161	5	C3H8F3N2O4S-
225.0281	6	C2H7F4N5OS-
225.0394	24	C11H7F2O3-
226.0234	42	C9H3F3N3O-
240.0147	16	C7H8F2NO4S-
240.0268	12	C14H4F2NO-
249.0392	9	C7H9F4O5-
258.0233	8	C11H2F2N5O-
277.0213	6	C8H7F2N4O3S-
279.013	6	C8H7F2N3O4S-
281.0283	15	C14H3F2N4O-
282.0494	32	C12H7F3N3O2-
287.9935	98	C14H4F2NO2S-
289.0017	12	C11H3F4NO4-
289.0218	18	C12H2F3N5O-
290.0296	13	C12H3F3N5O-
293.0168	8	C16H3F2N2O2-
300.0134	25	C10H6F2N4O3S-
303.987	6	C12H2F2N4O2S-
306.0242	8	C14H9FNO4S-
308.0405	7	C6H11F3N4O5S-
321.048	4	C13H6F3N5O2-
370.9947	4	C12H4F3N5O4S-
