Mass spectrum: 8-Hydroxyquinoline; LC-ESI-QFT; MS2; CE: 75; R=17500; [M+H]+
Name: 8-Hydroxyquinoline
Name: quinolin-8-ol
Formula: C9H7NO
Exact mass: 145.0528
SMILES: OC1=CC=CC2=CC=CN=C12
InChI: InChI=1S/C9H7NO/c11-8-5-1-3-7-4-2-6-10-9(7)8/h1-6,11H
Instrument: Q Exactive Orbitrap (Thermo Scientific)
Instrument type: LC-ESI-QFT
Ms type: MS2
Ion mode: POSITIVE
Ionization: ESI
Fragmentation mode: HCD
Collision energy: 75
Resolution: 17500
Column name: Acquity BEH C18 1.7um, 2.1x150mm (Waters)
Retention time: 8.051 min
Base peak: 79.0211
Precursor m/z: 146.06
Precursor type: [M+H]+
Precursor intensity: 2580857.28125
m/z	relative intensity	assigned
86.0037	43	C6N+
91.0543	109	C7H7+
118.0652	362	C8H8N+
128.0496	199	C9H6N+
146.0601	999	C9H8NO+
