Mass spectrum: N-(2,4-Dimethylphenyl)acetamide; LC-ESI-QFT; MS2; CE: 75; R=17500; [M+H]+
Name: N-(2,4-Dimethylphenyl)acetamide
Formula: C10H13NO
Exact mass: 163.0997
SMILES: CC(=O)NC1=CC=C(C)C=C1C
InChI: InChI=1S/C10H13NO/c1-7-4-5-10(8(2)6-7)11-9(3)12/h4-6H,1-3H3,(H,11,12)
Instrument: Q Exactive Orbitrap (Thermo Scientific)
Instrument type: LC-ESI-QFT
Ms type: MS2
Ion mode: POSITIVE
Ionization: ESI
Fragmentation mode: HCD
Collision energy: 75
Resolution: 17500
Column name: Acquity BEH C18 1.7um, 2.1x150mm (Waters)
Retention time: 14.390 min
Base peak: 79.0211
Precursor m/z: 164.107
Precursor type: [M+H]+
Precursor intensity: 23271253.46875
m/z	relative intensity	assigned
53.0387	1	C4H5+
67.0541	2	C5H7+
79.0542	18	C6H7+
81.0699	1	C6H9+
91.0542	1	C7H7+
94.0651	1	C6H8N+
95.0491	3	C6H7O+
95.0855	6	C7H11+
103.0542	10	C8H7+
105.0699	104	C8H9+
106.0652	47	C7H8N+
107.0729	999	C7H9N+
108.0569	3	C7H8O+
120.0808	3	C8H10N+
121.065	1	C8H9O+
121.0887	2	C8H11N+
122.0964	571	C8H12N+
123.0803	13	C8H11O+
131.0728	2	C9H9N+
146.0963	2	C10H12N+
164.107	6	C10H14NO+
