Mass spectrum: Bromacil; LC-ESI-QFT; MS2; CE: 90; R=17500; [M-H]-
Name: Bromacil
Name: 5-bromo-3-butan-2-yl-6-methyl-1H-pyrimidine-2,4-dione
Formula: C9H13BrN2O2
Exact mass: 260.0160
SMILES: CCC(C)N1C(=O)NC(C)=C(Br)C1=O
InChI: InChI=1S/C9H13BrN2O2/c1-4-5(2)12-8(13)7(10)6(3)11-9(12)14/h5H,4H2,1-3H3,(H,11,14)
Instrument: Q Exactive Orbitrap (Thermo Scientific)
Instrument type: LC-ESI-QFT
Ms type: MS2
Ion mode: NEGATIVE
Ionization: ESI
Fragmentation mode: HCD
Collision energy: 90
Resolution: 17500
Column name: Acquity BEH C18 1.7um, 2.1x150mm (Waters)
Retention time: 15.371 min
Base peak: 259.0088
Precursor m/z: 259.0088
Precursor type: [M-H]-
Precursor intensity: 22763059.66309
m/z	relative intensity	assigned
78.9189	999	Br-
104.922	1	CBrN-
110.012	2	C4H2N2O2-
118.9138	2	C2BrO-
135.0564	26	C7H7N2O-
136.0641	5	C7H8N2O-
151.0876	11	C8H11N2O-
202.9463	2	C5H4BrN2O2-
