Mass spectrum: Phenothrin; LC-ESI-QFT; MS2; CE: 45; R=17500; [M-H]-
Name: Phenothrin
Name: (3-phenoxyphenyl)methyl 2,2-dimethyl-3-(2-methylprop-1-enyl)cyclopropane-1-carboxylate
Formula: C23H26O3
Exact mass: 350.1882
SMILES: CC(C)=CC1C(C(=O)OCC2=CC=CC(OC3=CC=CC=C3)=C2)C1(C)C
InChI: InChI=1S/C23H26O3/c1-16(2)13-20-21(23(20,3)4)22(24)25-15-17-9-8-12-19(14-17)26-18-10-6-5-7-11-18/h5-14,20-21H,15H2,1-4H3
Instrument: Q Exactive Orbitrap (Thermo Scientific)
Instrument type: LC-ESI-QFT
Ms type: MS2
Ion mode: NEGATIVE
Ionization: ESI
Fragmentation mode: HCD
Collision energy: 45
Resolution: 17500
Column name: Acquity BEH C18 1.7um, 2.1x150mm (Waters)
Retention time: 20.471 min
Base peak: 112.9857
Precursor m/z: 349.1809
Precursor type: [M-H]-
Precursor intensity: 511706.4345703
m/z	relative intensity	assigned
303.1755	17	C22H23O-
305.1911	999	C22H25O-
321.1848	11	C22H25O2-
349.1803	16	C23H25O3-
