Mass spectrum: 17-Methyltestosterone; LC-ESI-QFT; MS2; CE: 75; R=17500; [M+H]+
Name: 17-Methyltestosterone
Name: Methyltestosterone
Name: (8R,9S,10R,13S,14S,17S)-17-hydroxy-10,13,17-trimethyl-2,6,7,8,9,11,12,14,15,16-decahydro-1H-cyclopenta[a]phenanthren-3-one
Formula: C20H30O2
Exact mass: 302.2246
SMILES: C[C@]1(O)CC[C@H]2[C@@H]3CCC4=CC(=O)CC[C@]4(C)[C@H]3CC[C@]12C
InChI: InChI=1S/C20H30O2/c1-18-9-6-14(21)12-13(18)4-5-15-16(18)7-10-19(2)17(15)8-11-20(19,3)22/h12,15-17,22H,4-11H2,1-3H3/t15-,16+,17+,18+,19+,20+/m1/s1
Instrument: Q Exactive Orbitrap (Thermo Scientific)
Instrument type: LC-ESI-QFT
Ms type: MS2
Ion mode: POSITIVE
Ionization: ESI
Fragmentation mode: HCD
Collision energy: 75
Resolution: 17500
Column name: Acquity BEH C18 1.7um, 2.1x150mm (Waters)
Retention time: 18.150 min
Base peak: 79.0212
Precursor m/z: 303.2319
Precursor type: [M+H]+
Precursor intensity: 4530930.5625
m/z	relative intensity	assigned
53.0022	7	C3HO+
53.0386	19	C4H5+
55.0179	33	C3H3O+
55.0543	44	C4H7+
57.0335	3	C3H5O+
57.0699	3	C4H9+
65.0386	12	C5H5+
66.0464	3	C5H6+
67.0542	126	C5H7+
69.0336	10	C4H5O+
69.0699	67	C5H9+
71.0491	6	C4H7O+
77.0385	5	C6H5+
79.0542	296	C6H7+
81.0699	266	C6H9+
82.0412	1	C5H6O+
83.0491	76	C5H7O+
83.0855	5	C6H11+
85.0647	2	C5H9O+
91.0543	133	C7H7+
92.0621	1	C7H8+
93.0699	164	C7H9+
94.0413	7	C6H6O+
95.0492	41	C6H7O+
95.0856	145	C7H11+
97.0648	999	C6H9O+
103.0542	5	C8H7+
105.0699	140	C8H9+
107.0492	14	C7H7O+
107.0856	113	C8H11+
108.057	3	C7H8O+
109.0648	867	C7H9O+
111.0804	6	C7H11O+
115.0541	5	C9H7+
116.0617	1	C9H8+
117.0699	26	C9H9+
119.0856	99	C9H11+
121.0648	35	C8H9O+
121.1012	54	C9H13+
123.0805	124	C8H11O+
125.0961	3	C8H13O+
128.062	7	C10H8+
129.0698	16	C10H9+
130.0777	5	C10H10+
131.0856	38	C10H11+
133.1012	55	C10H13+
135.0803	3	C9H11O+
135.1169	13	C10H15+
137.0961	5	C9H13O+
141.07	7	C11H9+
142.0778	11	C11H10+
143.0855	21	C11H11+
144.0936	8	C11H12+
145.1012	33	C11H13+
146.1086	1	C11H14+
147.0803	3	C10H11O+
147.1169	17	C11H15+
148.0884	1	C10H12O+
149.0962	8	C10H13O+
149.1324	4	C11H17+
154.078	1	C12H10+
155.0854	12	C12H11+
156.0934	9	C12H12+
157.1013	21	C12H13+
158.1089	3	C12H14+
159.1168	25	C12H15+
161.0956	1	C11H13O+
161.1325	7	C12H17+
163.1115	4	C11H15O+
167.0858	1	C13H11+
169.1012	10	C13H13+
170.1086	2	C13H14+
171.117	12	C13H15+
173.0961	1	C12H13O+
173.1327	7	C13H17+
175.1483	3	C13H19+
177.1275	3	C12H17O+
181.1009	2	C14H13+
182.1095	1	C14H14+
183.1168	6	C14H15+
185.1321	6	C14H17+
187.1482	5	C14H19+
189.1274	2	C13H17O+
189.1636	1	C14H21+
195.1167	3	C15H15+
196.124	1	C15H16+
197.1322	4	C15H17+
199.1478	2	C15H19+
200.1195	1	C14H16O+
201.1637	2	C15H21+
211.1478	3	C16H19+
