Mass spectrum: Pioglitazone hydrochloride; LC-ESI-QFT; MS2; CE: 60; R=17500; [M+H]+
Name: Pioglitazone
Name: 5-[[4-[2-(5-ethylpyridin-2-yl)ethoxy]phenyl]methyl]-1,3-thiazolidine-2,4-dione
Formula: C19H20N2O3S
Exact mass: 356.1195
SMILES: CCC1=CN=C(CCOC2=CC=C(CC3SC(=O)NC3=O)C=C2)C=C1
InChI: InChI=1S/C19H20N2O3S/c1-2-13-3-6-15(20-12-13)9-10-24-16-7-4-14(5-8-16)11-17-18(22)21-19(23)25-17/h3-8,12,17H,2,9-11H2,1H3,(H,21,22,23)
Instrument: Q Exactive Orbitrap (Thermo Scientific)
Instrument type: LC-ESI-QFT
Ms type: MS2
Ion mode: POSITIVE
Ionization: ESI
Fragmentation mode: HCD
Collision energy: 60
Resolution: 17500
Column name: Acquity BEH C18 1.7um, 2.1x150mm (Waters)
Retention time: 13.642 min
Base peak: 79.0211
Precursor m/z: 357.1267
Precursor type: [M+H]+
Precursor intensity: 27048473
m/z	relative intensity	assigned
79.0542	15	C6H7+
80.0493	1	C5H6N+
91.054	3	C7H7+
92.0494	1	C6H6N+
93.0573	2	C6H7N+
95.0491	6	C6H7O+
96.0443	5	C5H6NO+
104.0493	4	C7H6N+
106.0651	33	C7H8N+
107.0729	3	C7H9N+
108.0807	2	C7H10N+
110.06	1	C6H8NO+
118.0651	10	C8H8N+
119.0729	394	C8H9N+
120.0807	35	C8H10N+
121.0886	21	C8H11N+
122.0599	2	C7H8NO+
123.0678	1	C7H9NO+
124.0757	14	C7H10NO+
132.0807	1	C9H10N+
134.0963	999	C9H12N+
135.104	110	C9H13N+
139.0625	2	C7H9NO2+
240.1379	1	C16H18NO+
