Mass spectrum: 5,7-Dimethoxy-2H-chromen-2-one; LC-ESI-QFT; MS2; CE: 90; R=17500; [M+H]+
Name: 5,7-Dimethoxy-2H-chromen-2-one
Name: 5,7-dimethoxychromen-2-one
Formula: C11H10O4
Exact mass: 206.0579
SMILES: COC1=CC2=C(C=CC(=O)O2)C(OC)=C1
InChI: InChI=1S/C11H10O4/c1-13-7-5-9(14-2)8-3-4-11(12)15-10(8)6-7/h3-6H,1-2H3
Instrument: Q Exactive Orbitrap (Thermo Scientific)
Instrument type: LC-ESI-QFT
Ms type: MS2
Ion mode: POSITIVE
Ionization: ESI
Fragmentation mode: HCD
Collision energy: 90
Resolution: 17500
Column name: Acquity BEH C18 1.7um, 2.1x150mm (Waters)
Retention time: 15.959 min
Base peak: 79.0211
Precursor m/z: 207.0652
Precursor type: [M+H]+
Precursor intensity: 12482157.25
m/z	relative intensity	assigned
51.023	3	C4H3+
52.0308	1	C4H4+
53.0022	7	C3HO+
53.0386	108	C4H5+
55.0179	50	C3H3O+
57.0336	1	C3H5O+
63.0229	7	C5H3+
65.0386	246	C5H5+
66.0464	40	C5H6+
67.0178	4	C4H3O+
67.0542	19	C5H7+
68.0256	6	C4H4O+
68.9971	45	C3HO2+
69.0334	3	C4H5O+
71.0128	2	C3H3O2+
77.0386	58	C6H5+
78.0464	367	C6H6+
79.0542	207	C6H7+
80.0621	20	C6H8+
81.0335	31	C5H5O+
81.0699	2	C6H9+
82.005	6	C4H2O2+
82.0414	12	C5H6O+
83.0128	1	C4H3O2+
85.0284	7	C4H5O2+
89.0386	98	C7H5+
90.0465	116	C7H6+
91.0543	904	C7H7+
92.0257	18	C6H4O+
92.062	10	C7H8+
93.0336	60	C6H5O+
93.07	14	C7H9+
94.0414	25	C6H6O+
95.0492	252	C6H7O+
96.0572	1	C6H8O+
97.0284	2	C5H5O2+
102.0465	9	C8H6+
103.0543	87	C8H7+
105.0336	78	C7H5O+
105.0698	9	C8H9+
106.0414	136	C7H6O+
107.0492	181	C7H7O+
108.0208	9	C6H4O2+
108.057	60	C7H8O+
109.0286	8	C6H5O2+
109.0648	10	C7H9O+
110.0363	12	C6H6O2+
111.0442	5	C6H7O2+
115.0542	2	C9H7+
117.0335	16	C8H5O+
118.0414	107	C8H6O+
119.0492	81	C8H7O+
120.057	31	C8H8O+
121.0285	246	C7H5O2+
121.0648	330	C8H9O+
122.0362	5	C7H6O2+
123.0442	7	C7H7O2+
123.0804	10	C8H11O+
124.052	1	C7H8O2+
125.0597	4	C7H9O2+
129.0339	1	C9H5O+
131.0128	15	C8H3O2+
131.0495	5	C9H7O+
132.0208	5	C8H4O2+
132.057	4	C9H8O+
133.0284	86	C8H5O2+
133.0648	20	C9H9O+
134.0363	99	C8H6O2+
135.0441	239	C8H7O2+
136.052	30	C8H8O2+
137.0233	6	C7H5O3+
138.0311	6	C7H6O3+
139.0755	14	C8H11O2+
145.0285	19	C9H5O2+
146.0363	126	C9H6O2+
147.0441	46	C9H7O2+
148.0519	50	C9H8O2+
149.0234	999	C8H5O3+
151.0754	31	C9H11O2+
153.0546	2	C8H9O3+
155.0339	1	C7H7O4+
162.0312	72	C9H6O3+
163.039	331	C9H7O3+
164.0468	329	C9H8O3+
165.0547	2	C9H9O3+
173.0232	4	C10H5O3+
174.0312	1	C10H6O3+
175.0392	6	C10H7O3+
177.0181	3	C9H5O4+
177.0544	2	C10H9O3+
191.0339	81	C10H7O4+
192.0418	78	C10H8O4+
207.0652	5	C11H11O4+
