Mass spectrum: Troglitazone; LC-ESI-QFT; MS2; CE: 30; R=17500; [M-H]-
Name: Troglitazone
Name: 5-[[4-[(6-hydroxy-2,5,7,8-tetramethyl-3,4-dihydrochromen-2-yl)methoxy]phenyl]methyl]-1,3-thiazolidine-2,4-dione
Formula: C24H27NO5S
Exact mass: 441.1610
SMILES: CC1=C(O)C(C)=C2CCC(C)(COC3=CC=C(CC4SC(=O)NC4=O)C=C3)OC2=C1C
InChI: InChI=1S/C24H27NO5S/c1-13-14(2)21-18(15(3)20(13)26)9-10-24(4,30-21)12-29-17-7-5-16(6-8-17)11-19-22(27)25-23(28)31-19/h5-8,19,26H,9-12H2,1-4H3,(H,25,27,28)
Instrument: Q Exactive Orbitrap (Thermo Scientific)
Instrument type: LC-ESI-QFT
Ms type: MS2
Ion mode: NEGATIVE
Ionization: ESI
Fragmentation mode: HCD
Collision energy: 30
Resolution: 17500
Column name: Acquity BEH C18 1.7um, 2.1x150mm (Waters)
Retention time: 18.741 min
Base peak: 357.026
Precursor m/z: 440.1537
Precursor type: [M-H]-
Precursor intensity: 9757565.099609
m/z	relative intensity	assigned
96.9602	121	HO4S-
114.9734	60	C3HNO2S-
115.9813	13	C3H2NO2S-
119.0501	19	C8H7O-
137.0068	8	C7H5OS-
145.0296	180	C9H5O2-
150.0144	67	C8H6OS-
151.0224	56	C8H7OS-
162.0563	9	C9H8NO2-
163.0766	14	C10H11O2-
167.0017	4	C4H7O5S-
178.0094	92	C9H6O2S-
179.0173	95	C9H7O2S-
193.0202	6	C9H7NO2S-
221.0159	4	C10H7NO3S-
369.1529	100	C22H25O3S-
397.148	717	C23H25O4S-
440.1539	999	C24H26NO5S-
