Mass spectrum: Fluorescein; LC-ESI-QFT; MS2; CE: 90; R=17500; [M-H]-
Name: Fluorescein
Name: 3',6'-dihydroxyspiro[2-benzofuran-3,9'-xanthene]-1-one
Formula: C20H12O5
Exact mass: 332.0685
SMILES: OC1=CC2=C(C=C1)C1(OC(=O)C3=C1C=CC=C3)C1=C(O2)C=C(O)C=C1
InChI: InChI=1S/C20H12O5/c21-11-5-7-15-17(9-11)24-18-10-12(22)6-8-16(18)20(15)14-4-2-1-3-13(14)19(23)25-20/h1-10,21-22H
Instrument: Q Exactive Orbitrap (Thermo Scientific)
Instrument type: LC-ESI-QFT
Ms type: MS2
Ion mode: NEGATIVE
Ionization: ESI
Fragmentation mode: HCD
Collision energy: 90
Resolution: 17500
Column name: Acquity BEH C18 1.7um, 2.1x150mm (Waters)
Retention time: 15.791 min
Base peak: 284.0451
Precursor m/z: 331.0612
Precursor type: [M-H]-
Precursor intensity: 12348375.06934
m/z	relative intensity	assigned
165.0709	7	C13H9-
167.0502	9	C12H7O-
175.0553	9	C14H7-
189.071	27	C15H9-
193.066	9	C14H9O-
195.0456	3	C13H7O2-
201.0707	9	C16H9-
202.079	2	C16H10-
203.0501	20	C15H7O-
204.0581	7	C15H8O-
213.0712	19	C17H9-
215.0506	17	C16H7O-
215.0866	6	C17H11-
217.0657	36	C16H9O-
219.0819	16	C16H11O-
228.0582	34	C17H8O-
229.0658	32	C17H9O-
230.0739	19	C17H10O-
232.0532	6	C16H8O2-
233.0611	3	C16H9O2-
241.066	108	C18H9O-
243.0451	8	C17H7O2-
245.0611	6	C17H9O2-
247.0764	10	C17H11O2-
256.053	61	C18H8O2-
257.0608	68	C18H9O2-
258.0686	9	C18H10O2-
284.0482	15	C19H8O3-
285.0558	999	C19H9O3-
