Mass spectrum: Pyridaben; LC-ESI-QFT; MS2; CE: 75; R=17500; [M+H]+
Name: Pyridaben
Formula: C19H25ClN2OS
Exact mass: 364.1376
SMILES: CC(C)(C)N1N=CC(SCC2=CC=C(C=C2)C(C)(C)C)=C(Cl)C1=O
InChI: InChI=1S/C19H25ClN2OS/c1-18(2,3)14-9-7-13(8-10-14)12-24-15-11-21-22(19(4,5)6)17(23)16(15)20/h7-11H,12H2,1-6H3
Instrument: Q Exactive Orbitrap (Thermo Scientific)
Instrument type: LC-ESI-QFT
Ms type: MS2
Ion mode: POSITIVE
Ionization: ESI
Fragmentation mode: HCD
Collision energy: 75
Resolution: 17500
Column name: Acquity BEH C18 1.7um, 2.1x150mm (Waters)
Retention time: 20.420 min
Base peak: 79.0212
Precursor m/z: 365.1449
Precursor type: [M+H]+
Precursor intensity: 20633312.75
m/z	relative intensity	assigned
53.0387	4	C4H5+
55.0543	46	C4H7+
57.07	3	C4H9+
65.0384	2	C5H5+
67.0543	3	C5H7+
69.0699	8	C5H9+
79.0543	18	C6H7+
91.0543	123	C7H7+
93.07	18	C7H9+
103.0543	10	C8H7+
104.0621	34	C8H8+
105.07	505	C8H9+
107.0856	85	C8H11+
109.0649	4	C7H9O+
115.0545	7	C9H7+
116.0624	3	C9H8+
117.07	486	C9H9+
119.0857	603	C9H11+
129.0704	2	C10H9+
131.0857	31	C10H11+
132.0935	999	C10H12+
145.1014	26	C11H13+
147.117	557	C11H15+
