Mass spectrum: Farglitazar; LC-ESI-QFT; MS2; CE: 90; R=17500; [M+H]+
Name: Farglitazar
Name: (2S)-2-(2-benzoylanilino)-3-[4-[2-(5-methyl-2-phenyl-1,3-oxazol-4-yl)ethoxy]phenyl]propanoic acid
Formula: C34H30N2O5
Exact mass: 546.2155
SMILES: CC1=C(CCOC2=CC=C(C[C@H](NC3=C(C=CC=C3)C(=O)C3=CC=CC=C3)C(O)=O)C=C2)N=C(O1)C1=CC=CC=C1
InChI: InChI=1S/C34H30N2O5/c1-23-29(36-33(41-23)26-12-6-3-7-13-26)20-21-40-27-18-16-24(17-19-27)22-31(34(38)39)35-30-15-9-8-14-28(30)32(37)25-10-4-2-5-11-25/h2-19,31,35H,20-22H2,1H3,(H,38,39)/t31-/m0/s1
Instrument: Q Exactive Orbitrap (Thermo Scientific)
Instrument type: LC-ESI-QFT
Ms type: MS2
Ion mode: POSITIVE
Ionization: ESI
Fragmentation mode: HCD
Collision energy: 90
Resolution: 17500
Column name: Acquity BEH C18 1.7um, 2.1x150mm (Waters)
Retention time: 20.146 min
Base peak: 79.0211
Precursor m/z: 547.2227
Precursor type: [M+H]+
Precursor intensity: 8728717
m/z	relative intensity	assigned
50.0152	6	C4H2+
51.0229	8	C4H3+
53.0386	97	C4H5+
55.018	8	C3H3O+
55.0542	22	C4H7+
65.0386	15	C5H5+
69.0335	31	C4H5O+
77.0385	39	C6H5+
78.0465	2	C6H6+
79.0542	8	C6H7+
81.0335	10	C5H5O+
83.0492	59	C5H7O+
91.0543	94	C7H7+
92.0495	5	C6H6N+
93.07	4	C7H9+
94.0414	14	C6H6O+
95.0492	301	C6H7O+
103.0543	26	C8H7+
104.0495	999	C7H6N+
105.0336	466	C7H5O+
105.0447	124	C6H5N2+
107.0492	17	C7H7O+
109.0648	3	C7H9O+
115.0543	42	C9H7+
116.0496	5	C8H6N+
116.062	8	C9H8+
117.0574	9	C8H7N+
117.0699	67	C9H9+
118.0653	3	C8H8N+
119.0491	4	C8H7O+
120.0446	3	C7H6NO+
121.0651	4	C8H9O+
122.0601	6	C7H8NO+
127.0541	5	C10H7+
128.0621	34	C10H8+
129.07	12	C10H9+
130.0289	15	C8H4NO+
130.0651	18	C9H8N+
131.0492	5	C9H7O+
131.0857	2	C10H11+
132.0446	2	C8H6NO+
134.06	2	C8H8NO+
136.0759	12	C8H10NO+
137.0597	1	C8H9O2+
141.0697	11	C11H9+
143.073	79	C10H9N+
144.0808	111	C10H10N+
145.0647	21	C10H9O+
146.0603	2	C9H8NO+
147.0553	1	C8H7N2O+
152.0621	26	C12H8+
153.0699	15	C12H9+
155.0605	27	C10H7N2+
158.0601	3	C10H8NO+
158.0965	21	C11H12N+
165.07	21	C13H9+
167.073	16	C12H9N+
167.0858	5	C13H11+
168.0807	9	C12H10N+
172.0757	72	C11H10NO+
178.0779	3	C14H10+
180.0807	29	C13H10N+
181.0649	3	C13H9O+
181.0881	2	C13H11N+
186.0914	68	C12H12NO+
192.0807	6	C14H10N+
193.0885	11	C14H11N+
194.0964	3	C14H12N+
196.0759	19	C13H10NO+
204.0811	8	C15H10N+
208.0761	17	C14H10NO+
209.0832	3	C14H11NO+
210.0916	1	C14H12NO+
220.0754	4	C15H10NO+
236.0708	1	C15H10NO2+
268.1121	5	C20H14N+
296.1059	2	C21H14NO+
