Mass spectrum: Cyclanilide; LC-ESI-QFT; MS2; CE: 45; R=17500; [M-H]-
Name: Cyclanilide
Name: 1-[(2,4-dichlorophenyl)carbamoyl]cyclopropane-1-carboxylic acid
Formula: C11H9Cl2NO3
Exact mass: 272.9959
SMILES: OC(=O)C1(CC1)C(=O)NC1=CC=C(Cl)C=C1Cl
InChI: InChI=1S/C11H9Cl2NO3/c12-6-1-2-8(7(13)5-6)14-9(15)11(3-4-11)10(16)17/h1-2,5H,3-4H2,(H,14,15)(H,16,17)
Instrument: Q Exactive Orbitrap (Thermo Scientific)
Instrument type: LC-ESI-QFT
Ms type: MS2
Ion mode: NEGATIVE
Ionization: ESI
Fragmentation mode: HCD
Collision energy: 45
Resolution: 17500
Column name: Acquity BEH C18 1.7um, 2.1x150mm (Waters)
Retention time: 19.046 min
Base peak: 271.9888
Precursor m/z: 271.9887
Precursor type: [M-H]-
Precursor intensity: 31892341.83203
m/z	relative intensity	assigned
123.9958	10	C6H3ClN-
156.0454	3	C10H6NO-
159.9726	999	C6H4Cl2N-
192.0223	12	C10H7ClNO-
225.9833	9	C10H6Cl2NO-
227.9988	11	C10H8Cl2NO-
