Mass spectrum: 1,4-Diaminoanthraquinone; LC-ESI-QFT; MS2; CE: 45; R=17500; [M+H]+
Name: 1,4-Diaminoanthraquinone
Name: 1,4-diaminoanthracene-9,10-dione
Formula: C14H10N2O2
Exact mass: 238.0742
SMILES: NC1=CC=C(N)C2=C1C(=O)C1=CC=CC=C1C2=O
InChI: InChI=1S/C14H10N2O2/c15-9-5-6-10(16)12-11(9)13(17)7-3-1-2-4-8(7)14(12)18/h1-6H,15-16H2
Instrument: Q Exactive Orbitrap (Thermo Scientific)
Instrument type: LC-ESI-QFT
Ms type: MS2
Ion mode: POSITIVE
Ionization: ESI
Fragmentation mode: HCD
Collision energy: 45
Resolution: 17500
Column name: Acquity BEH C18 1.7um, 2.1x150mm (Waters)
Retention time: 16.073 min
Base peak: 79.0211
Precursor m/z: 239.0815
Precursor type: [M+H]+
Precursor intensity: 3231147.09375
m/z	relative intensity	assigned
65.0385	1	C5H5+
72.0443	9	C3H6NO+
91.0541	1	C7H7+
92.0495	4	C6H6N+
105.0335	27	C7H5O+
110.0601	2	C6H8NO+
130.0287	3	C8H4NO+
161.0346	14	C8H5N2O2+
161.0596	2	C10H9O2+
166.0653	5	C12H8N+
182.0605	2	C12H8NO+
183.0918	2	C12H11N2+
184.0759	2	C12H10NO+
193.0761	11	C13H9N2+
194.0603	9	C13H8NO+
195.0919	2	C13H11N2+
196.0757	1	C13H10NO+
198.0552	1	C12H8NO2+
199.0627	3	C12H9NO2+
210.0552	4	C13H8NO2+
210.0786	4	C13H10N2O+
211.0867	27	C13H11N2O+
212.0707	16	C13H10NO2+
221.0709	53	C14H9N2O+
222.0551	13	C14H8NO2+
223.0629	13	C14H9NO2+
238.0738	45	C14H10N2O2+
239.081	999	C14H11N2O2+
