Mass spectrum: Sulfaquinoxaline; LC-ESI-QFT; MS2; CE: 15; R=17500; [M-H]-
Name: Sulfaquinoxaline
Name: 4-amino-N-quinoxalin-2-ylbenzenesulfonamide
Formula: C14H12N4O2S
Exact mass: 300.0681
SMILES: NC1=CC=C(C=C1)S(=O)(=O)NC1=CN=C2C=CC=CC2=N1
InChI: InChI=1S/C14H12N4O2S/c15-10-5-7-11(8-6-10)21(19,20)18-14-9-16-12-3-1-2-4-13(12)17-14/h1-9H,15H2,(H,17,18)
Instrument: Q Exactive Orbitrap (Thermo Scientific)
Instrument type: LC-ESI-QFT
Ms type: MS2
Ion mode: NEGATIVE
Ionization: ESI
Fragmentation mode: HCD
Collision energy: 15
Resolution: 17500
Column name: Acquity BEH C18 1.7um, 2.1x150mm (Waters)
Retention time: 13.928 min
Base peak: 358.0229
Precursor m/z: 299.0608
Precursor type: [M-H]-
Precursor intensity: 7337005.930176
m/z	relative intensity	assigned
207.012	1	C8H5N3O2S-
299.0608	999	C14H11N4O2S-
