Mass spectrum: Metribuzin; LC-ESI-QFT; MS2; CE: 90; R=17500; [M+H]+
Name: Metribuzin
Name: 4-amino-6-tert-butyl-3-methylsulfanyl-1,2,4-triazin-5-one
Formula: C8H14N4OS
Exact mass: 214.0888
SMILES: CSC1=NN=C(C(=O)N1N)C(C)(C)C
InChI: InChI=1S/C8H14N4OS/c1-8(2,3)5-6(13)12(9)7(14-4)11-10-5/h9H2,1-4H3
Instrument: Q Exactive Orbitrap (Thermo Scientific)
Instrument type: LC-ESI-QFT
Ms type: MS2
Ion mode: POSITIVE
Ionization: ESI
Fragmentation mode: HCD
Collision energy: 90
Resolution: 17500
Column name: Acquity BEH C18 1.7um, 2.1x150mm (Waters)
Retention time: 15.295 min
Base peak: 79.0211
Precursor m/z: 215.0961
Precursor type: [M+H]+
Precursor intensity: 13127466
m/z	relative intensity	assigned
53.0022	41	C3HO+
53.0386	13	C4H5+
53.9974	4	C2NO+
55.0291	15	C2H3N2+
55.0542	30	C4H7+
56.0495	22	C3H6N+
57.0699	697	C4H9+
58.04	786	CH4N3+
58.9823	6	CHNS+
58.9951	12	C2H3S+
59.024	5	CH3N2O+
59.9903	809	CH2NS+
60.9981	78	CH3NS+
61.0107	44	C2H5S+
62.0059	517	CH4NS+
63.0138	5	CH5NS+
63.9977	19	CH4OS+
65.0385	52	C5H5+
67.0416	101	C4H5N+
67.0542	54	C5H7+
68.0243	10	C2H2N3+
68.0495	175	C4H6N+
69.0083	58	C2HN2O+
69.0573	12	C4H7N+
69.0699	126	C5H9+
70.0399	14	C2H4N3+
70.0651	47	C4H8N+
72.998	5	C2H3NS+
74.0059	999	C2H4NS+
74.99	9	C2H3OS+
75.0011	8	CH3N2S+
75.0138	5	C2H5NS+
76.0215	21	C2H6NS+
77.0168	6	CH5N2S+
79.0212	73	C2H7OS+
80.0495	47	C5H6N+
81.0574	26	C5H7N+
82.0413	4	C5H6O+
82.0651	74	C5H8N+
83.0491	25	C5H7O+
83.0604	16	C4H7N2+
83.073	5	C5H9N+
84.0808	393	C5H10N+
85.0886	6	C5H11N+
86.99	4	C3H3OS+
87.0012	47	C2H3N2S+
88.009	32	C2H4N2S+
89.0168	138	C2H5N2S+
92.0495	10	C6H6N+
94.0652	14	C6H8N+
95.0493	9	C6H7O+
95.0604	36	C5H7N2+
96.0445	25	C5H6NO+
96.0684	6	C5H8N2+
97.0649	22	C6H9O+
97.0759	5	C5H9N2+
99.0667	5	C3H7N4+
99.0917	11	C5H11N2+
101.0168	4	C3H5N2S+
104.0276	7	C2H6N3S+
104.0495	14	C7H6N+
105.0448	5	C6H5N2+
107.0603	8	C6H7N2+
108.0682	24	C6H8N2+
109.0635	4	C5H7N3+
109.076	18	C6H9N2+
110.0602	15	C6H8NO+
111.0553	7	C5H7N2O+
111.0918	4	C6H11N2+
114.0372	21	C5H8NS+
114.996	17	C3H3N2OS+
115.0199	6	C3H5N3S+
116.0152	21	C2H4N4S+
122.0714	5	C6H8N3+
123.0553	15	C6H7N2O+
123.0793	7	C6H9N3+
124.0632	9	C6H8N2O+
125.0714	4	C6H9N2O+
125.0823	16	C5H9N4+
128.0275	5	C4H6N3S+
130.0308	35	C3H6N4S+
131.0386	92	C3H7N4S+
137.0583	4	C6H7N3O+
139.0326	10	C6H7N2S+
140.0403	21	C6H8N2S+
143.0639	10	C6H11N2S+
145.0542	25	C4H9N4S+
153.0771	9	C6H9N4O+
154.0434	9	C6H8N3S+
155.0513	6	C6H9N3S+
155.0638	7	C7H11N2S+
156.059	92	C6H10N3S+
157.0431	9	C6H9N2OS+
171.0587	39	C7H11N2OS+
172.078	8	C6H12N4S+
182.0381	5	C7H8N3OS+
184.0539	22	C7H10N3OS+
187.1016	20	C7H15N4S+
