Mass spectrum: Quinclorac; LC-ESI-QFT; MS2; CE: 60; R=17500; [M+H]+
Name: Quinclorac
Name: 3,7-dichloroquinoline-8-carboxylic acid
Formula: C10H5Cl2NO2
Exact mass: 240.9697
SMILES: OC(=O)C1=C(Cl)C=CC2=CC(Cl)=CN=C12
InChI: InChI=1S/C10H5Cl2NO2/c11-6-3-5-1-2-7(12)8(10(14)15)9(5)13-4-6/h1-4H,(H,14,15)
Instrument: Q Exactive Orbitrap (Thermo Scientific)
Instrument type: LC-ESI-QFT
Ms type: MS2
Ion mode: POSITIVE
Ionization: ESI
Fragmentation mode: HCD
Collision energy: 60
Resolution: 17500
Column name: Acquity BEH C18 1.7um, 2.1x150mm (Waters)
Retention time: 15.027 min
Base peak: 79.0211
Precursor m/z: 241.977
Precursor type: [M+H]+
Precursor intensity: 3140099.125
m/z	relative intensity	assigned
84.9599	34	CH3Cl2+
95.0127	3	C5H3O2+
153.9379	14	C7Cl2+
161.0028	316	C9H4ClN+
165.9382	4	C8Cl2+
168.9619	22	C8H3Cl2+
180.9619	19	C9H3Cl2+
182.9773	10	C9H5Cl2+
195.9718	112	C9H4Cl2N+
213.9823	544	C9H6Cl2NO+
223.9667	999	C10H4Cl2NO+
241.9773	539	C10H6Cl2NO2+
