Mass spectrum: Bisphenol AF; LC-ESI-QFT; MS2; CE: 75; R=17500; [M-H]-
Name: Bisphenol AF
Name: 4-[1,1,1,3,3,3-hexafluoro-2-(4-hydroxyphenyl)propan-2-yl]phenol
Formula: C15H10F6O2
Exact mass: 336.0585
SMILES: OC1=CC=C(C=C1)C(C1=CC=C(O)C=C1)(C(F)(F)F)C(F)(F)F
InChI: InChI=1S/C15H10F6O2/c16-14(17,18)13(15(19,20)21,9-1-5-11(22)6-2-9)10-3-7-12(23)8-4-10/h1-8,22-23H
Instrument: Q Exactive Orbitrap (Thermo Scientific)
Instrument type: LC-ESI-QFT
Ms type: MS2
Ion mode: NEGATIVE
Ionization: ESI
Fragmentation mode: HCD
Collision energy: 75
Resolution: 17500
Column name: Acquity BEH C18 1.7um, 2.1x150mm (Waters)
Retention time: 17.625 min
Base peak: 335.0513
Precursor m/z: 335.0512
Precursor type: [M-H]-
Precursor intensity: 2507699.964844
m/z	relative intensity	assigned
91.0189	197	C6H3O-
108.0216	17	C6H4O2-
167.0505	41	C12H7O-
195.0452	557	C13H7O2-
196.0529	18	C13H8O2-
223.0401	999	C9H7F4O2-
