Mass spectrum: 2-(Phenylsulfonyl)aniline; LC-ESI-QFT; MS2; CE: 90; R=17500; [M+H]+
Name: 2-(Phenylsulfonyl)aniline
Name: 2-(benzenesulfonyl)aniline
Formula: C12H11NO2S
Exact mass: 233.0510
SMILES: NC1=CC=CC=C1S(=O)(=O)C1=CC=CC=C1
InChI: InChI=1S/C12H11NO2S/c13-11-8-4-5-9-12(11)16(14,15)10-6-2-1-3-7-10/h1-9H,13H2
Instrument: Q Exactive Orbitrap (Thermo Scientific)
Instrument type: LC-ESI-QFT
Ms type: MS2
Ion mode: POSITIVE
Ionization: ESI
Fragmentation mode: HCD
Collision energy: 90
Resolution: 17500
Column name: Acquity BEH C18 1.7um, 2.1x150mm (Waters)
Retention time: 15.284 min
Base peak: 79.0211
Precursor m/z: 234.0583
Precursor type: [M+H]+
Precursor intensity: 3555061.03125
m/z	relative intensity	assigned
53.0023	7	C3HO+
53.0387	49	C4H5+
65.0386	999	C5H5+
66.0464	120	C5H6+
77.0385	9	C6H5+
80.0495	439	C5H6N+
91.0543	114	C7H7+
92.0495	710	C6H6N+
93.0574	724	C6H7N+
95.0492	43	C6H7O+
104.0496	92	C7H6N+
108.0445	129	C6H6NO+
110.0601	46	C6H8NO+
188.054	26	C11H10NS+
206.0646	75	C11H12NOS+
