Mass spectrum: Haloxyfop; LC-ESI-QFT; MS2; CE: 15; R=17500; [M+H]+
Name: Haloxyfop
Name: 2-[4-[3-chloro-5-(trifluoromethyl)pyridin-2-yl]oxyphenoxy]propanoic acid
Formula: C15H11ClF3NO4
Exact mass: 361.0329
SMILES: CC(OC1=CC=C(OC2=NC=C(C=C2Cl)C(F)(F)F)C=C1)C(O)=O
InChI: InChI=1S/C15H11ClF3NO4/c1-8(14(21)22)23-10-2-4-11(5-3-10)24-13-12(16)6-9(7-20-13)15(17,18)19/h2-8H,1H3,(H,21,22)
Instrument: Q Exactive Orbitrap (Thermo Scientific)
Instrument type: LC-ESI-QFT
Ms type: MS2
Ion mode: POSITIVE
Ionization: ESI
Fragmentation mode: HCD
Collision energy: 15
Resolution: 17500
Column name: Acquity BEH C18 1.7um, 2.1x150mm (Waters)
Retention time: 18.650 min
Base peak: 79.0211
Precursor m/z: 362.0401
Precursor type: [M+H]+
Precursor intensity: 6218495.21875
m/z	relative intensity	assigned
91.0543	1	C7H7+
98.9842	5	CH4ClO3+
121.0284	1	C7H5O2+
127.0155	22	C3H8ClO3+
128.0188	3	C4H7ClF2+
155.0468	62	C5H12ClO3+
156.0501	31	C6H11ClF2+
288.0041	1	C12H6ClF3NO2+
288.0398	1	C13H10ClF3NO+
316.0347	250	C14H10ClF3NO2+
362.0402	999	C15H12ClF3NO4+
