Mass spectrum: Buspirone; LC-ESI-QFT; MS2; CE: 60; R=17500; [M+H]+
Name: Buspirone
Name: 8-[4-(4-pyrimidin-2-ylpiperazin-1-yl)butyl]-8-azaspiro[4.5]decane-7,9-dione
Formula: C21H31N5O2
Exact mass: 385.2478
SMILES: O=C1CC2(CCCC2)CC(=O)N1CCCCN1CCN(CC1)C1=NC=CC=N1
InChI: InChI=1S/C21H31N5O2/c27-18-16-21(6-1-2-7-21)17-19(28)26(18)11-4-3-10-24-12-14-25(15-13-24)20-22-8-5-9-23-20/h5,8-9H,1-4,6-7,10-17H2
Instrument: Q Exactive Orbitrap (Thermo Scientific)
Instrument type: LC-ESI-QFT
Ms type: MS2
Ion mode: POSITIVE
Ionization: ESI
Fragmentation mode: HCD
Collision energy: 60
Resolution: 17500
Column name: Acquity BEH C18 1.7um, 2.1x150mm (Waters)
Retention time: 13.245 min
Base peak: 79.0211
Precursor m/z: 386.2551
Precursor type: [M+H]+
Precursor intensity: 37937287.375
m/z	relative intensity	assigned
53.0386	1	C4H5+
54.0339	1	C3H4N+
55.0542	7	C4H7+
56.0494	7	C3H6N+
58.0651	1	C3H8N+
60.0443	2	C2H6NO+
67.0542	17	C5H7+
68.0494	2	C4H6N+
69.0699	1	C5H9+
70.065	3	C4H8N+
72.0807	19	C4H10N+
78.0338	1	C5H4N+
79.029	1	C4H3N2+
79.0541	5	C6H7+
80.0494	41	C5H6N+
81.0447	9	C4H5N2+
81.0698	49	C6H9+
83.0856	1	C6H11+
84.0444	1	C4H6NO+
84.0807	3	C5H10N+
86.0237	1	C3H4NO2+
93.0699	1	C7H9+
95.0604	48	C5H7N2+
95.0855	60	C7H11+
96.0444	7	C5H6NO+
96.0555	10	C4H6N3+
96.0808	2	C6H10N+
97.0396	14	C4H5N2O+
97.1011	1	C7H13+
98.0601	5	C5H8NO+
98.0964	73	C6H12N+
105.0446	2	C6H5N2+
105.0698	1	C8H9+
106.04	5	C5H4N3+
107.0605	1	C6H7N2+
107.0855	7	C8H11+
108.0555	3	C5H6N3+
109.0648	67	C7H9O+
109.1011	86	C8H13+
110.0964	4	C7H12N+
119.0605	2	C7H7N2+
120.0556	7	C6H6N3+
121.076	2	C7H9N2+
122.0712	999	C6H8N3+
123.0803	44	C8H11O+
124.112	12	C8H14N+
126.0913	7	C7H12NO+
131.06	2	C8H7N2+
132.0556	1	C7H6N3+
133.0633	10	C7H7N3+
134.0963	4	C9H12N+
135.0802	4	C9H11O+
136.0869	2	C7H10N3+
140.1069	54	C8H14NO+
146.071	1	C8H8N3+
148.0869	163	C8H10N3+
149.0819	2	C7H9N4+
150.1025	98	C8H12N3+
151.0753	3	C9H11O2+
152.1069	151	C9H14NO+
162.09	3	C8H10N4+
165.1135	1	C8H13N4+
168.1018	75	C9H14NO2+
180.1018	34	C10H14NO2+
194.1539	2	C12H20NO+
198.1124	16	C8H14N4O2+
222.1487	42	C13H20NO2+
265.1909	22	C15H25N2O2+
343.2119	1	C19H27N4O2+
386.2543	1	C21H32N5O2+
