Mass spectrum: 2,7-Acetylaminofluorene; LC-ESI-QFT; MS2; CE: 30; R=17500; [M-H]-
Name: 2,7-Acetylaminofluorene
Name: 2,7-Diacetamidofluorene
Name: N-(7-acetamido-9H-fluoren-2-yl)acetamide
Formula: C17H16N2O2
Exact mass: 280.1212
SMILES: CC(=O)NC1=CC=C2C(CC3=C2C=CC(NC(C)=O)=C3)=C1
InChI: InChI=1S/C17H16N2O2/c1-10(20)18-14-3-5-16-12(8-14)7-13-9-15(19-11(2)21)4-6-17(13)16/h3-6,8-9H,7H2,1-2H3,(H,18,20)(H,19,21)
Instrument: Q Exactive Orbitrap (Thermo Scientific)
Instrument type: LC-ESI-QFT
Ms type: MS2
Ion mode: NEGATIVE
Ionization: ESI
Fragmentation mode: HCD
Collision energy: 30
Resolution: 17500
Column name: Acquity BEH C18 1.7um, 2.1x150mm (Waters)
Retention time: 14.559 min
Base peak: 112.9857
Precursor m/z: 279.1139
Precursor type: [M-H]-
Precursor intensity: 6693588.853027
m/z	relative intensity	assigned
194.0848	4	C13H10N2-
195.0931	6	C13H11N2-
210.0923	8	C14H12NO-
221.0714	1	C14H9N2O-
236.0954	20	C15H12N2O-
237.1033	300	C15H13N2O-
238.0881	1	C15H12NO2-
263.0824	4	C16H11N2O2-
279.1139	999	C17H15N2O2-
