Mass spectrum: Megestrol acetate; LC-ESI-QFT; MS2; CE: 30; R=17500; [M+H]+
Name: Megestrol acetate
Formula: C24H32O4
Exact mass: 384.2301
SMILES: CC(=O)O[C@@]1(CC[C@H]2[C@@H]3C=C(C)C4=CC(=O)CC[C@]4(C)[C@H]3CC[C@]12C)C(C)=O
InChI: InChI=1S/C24H32O4/c1-14-12-18-19(22(4)9-6-17(27)13-21(14)22)7-10-23(5)20(18)8-11-24(23,15(2)25)28-16(3)26/h12-13,18-20H,6-11H2,1-5H3/t18-,19+,20+,22-,23+,24+/m1/s1
Instrument: Q Exactive Orbitrap (Thermo Scientific)
Instrument type: LC-ESI-QFT
Ms type: MS2
Ion mode: POSITIVE
Ionization: ESI
Fragmentation mode: HCD
Collision energy: 30
Resolution: 17500
Column name: Acquity BEH C18 1.7um, 2.1x150mm (Waters)
Retention time: 18.444 min
Base peak: 79.0211
Precursor m/z: 385.2373
Precursor type: [M+H]+
Precursor intensity: 7632572.625
m/z	relative intensity	assigned
59.0492	8	C3H7O+
67.0543	2	C5H7+
69.0698	3	C5H9+
71.0489	3	C4H7O+
81.0699	8	C6H9+
83.0491	23	C5H7O+
83.0855	3	C6H11+
85.0647	13	C5H9O+
91.0543	3	C7H7+
93.0699	10	C7H9+
95.0855	16	C7H11+
97.0648	48	C6H9O+
99.0804	19	C6H11O+
105.0699	5	C8H9+
107.0855	31	C8H11+
109.0647	3	C7H9O+
109.1011	22	C8H13+
111.0803	13	C7H11O+
113.0596	5	C6H9O2+
119.0856	15	C9H11+
121.0647	48	C8H9O+
121.1011	14	C9H13+
123.0802	10	C8H11O+
123.1168	5	C9H15+
129.0698	2	C10H9+
131.0856	6	C10H11+
133.1011	59	C10H13+
135.0802	17	C9H11O+
135.1166	11	C10H15+
137.0962	16	C9H13O+
141.0698	2	C11H9+
143.0855	8	C11H11+
145.0646	2	C10H9O+
145.1011	40	C11H13+
147.0804	11	C10H11O+
147.1167	20	C11H15+
149.0961	21	C10H13O+
151.1118	36	C10H15O+
155.0852	5	C12H11+
157.1012	32	C12H13+
159.0805	5	C11H11O+
159.1167	32	C12H15+
161.0961	81	C11H13O+
161.1324	6	C12H17+
163.1117	20	C11H15O+
169.1011	57	C13H13+
171.0804	5	C12H11O+
171.1167	49	C13H15+
173.096	45	C12H13O+
173.1323	18	C13H17+
175.1117	145	C12H15O+
177.1276	13	C12H17O+
181.1011	5	C14H13+
183.1168	108	C14H15+
185.096	16	C13H13O+
185.1325	23	C14H17+
187.1117	145	C13H15O+
188.1193	2	C13H16O+
189.1273	57	C13H17O+
193.1016	5	C15H13+
195.1169	17	C15H15+
196.124	4	C15H16+
197.1324	36	C15H17+
198.1402	23	C15H18+
199.1118	8	C14H15O+
199.1481	27	C15H19+
200.1562	8	C15H20+
201.1277	19	C14H17O+
201.1639	5	C15H21+
207.1166	13	C16H15+
208.124	5	C16H16+
209.1324	56	C16H17+
210.1402	6	C16H18+
211.1113	6	C15H15O+
211.1481	82	C16H19+
212.1564	5	C16H20+
213.1275	19	C15H17O+
213.164	14	C16H21+
215.143	35	C15H19O+
219.1165	3	C17H15+
221.1323	10	C17H17+
222.1404	6	C17H18+
223.1481	173	C17H19+
224.1559	711	C17H20+
225.1636	201	C17H21+
227.1432	11	C16H19O+
229.1593	12	C16H21O+
231.1382	7	C15H19O2+
233.1319	6	C18H17+
234.1406	14	C18H18+
235.1481	16	C18H19+
236.1558	3	C18H20+
237.1273	8	C17H17O+
237.1636	63	C18H21+
239.1428	28	C17H19O+
239.1796	6	C18H23+
241.1586	130	C17H21O+
243.1743	28	C17H23O+
246.1393	2	C19H18+
247.148	27	C19H19+
248.1558	2	C19H20+
249.1637	121	C19H21+
250.1714	11	C19H22+
251.143	10	C18H19O+
253.1587	15	C18H21O+
255.1742	141	C18H23O+
260.1558	3	C20H20+
261.1643	2	C20H21+
263.1793	52	C20H23+
264.1872	21	C20H24+
265.1595	36	C19H21O+
265.195	332	C20H25+
266.1669	5	C19H22O+
267.1742	999	C19H23O+
274.1717	4	C21H22+
279.1738	4	C20H23O+
281.1899	143	C20H25O+
282.1977	482	C20H26O+
283.2055	164	C20H27O+
289.1948	38	C22H25+
292.182	3	C21H24O+
307.2056	139	C22H27O+
310.1927	4	C21H26O2+
325.2161	502	C22H29O2+
385.2377	48	C24H33O4+
