Mass spectrum: Fenarimol; LC-ESI-QFT; MS2; CE: 60; R=17500; [M+H]+
Name: Fenarimol
Name: (2-chlorophenyl)-(4-chlorophenyl)-pyrimidin-5-ylmethanol
Formula: C17H12Cl2N2O
Exact mass: 330.0327
SMILES: OC(C1=CC=C(Cl)C=C1)(C1=CN=CN=C1)C1=CC=CC=C1Cl
InChI: InChI=1S/C17H12Cl2N2O/c18-14-7-5-12(6-8-14)17(22,13-9-20-11-21-10-13)15-3-1-2-4-16(15)19/h1-11,22H
Instrument: Q Exactive Orbitrap (Thermo Scientific)
Instrument type: LC-ESI-QFT
Ms type: MS2
Ion mode: POSITIVE
Ionization: ESI
Fragmentation mode: HCD
Collision energy: 60
Resolution: 17500
Column name: Acquity BEH C18 1.7um, 2.1x150mm (Waters)
Retention time: 18.059 min
Base peak: 79.0212
Precursor m/z: 331.0399
Precursor type: [M+H]+
Precursor intensity: 5151512.875
m/z	relative intensity	assigned
52.0182	3	C3H2N+
54.0339	170	C3H4N+
81.0447	999	C4H5N2+
86.9996	3	C4H4Cl+
97.0647	6	C6H9O+
109.0648	4	C7H9O+
111.0439	3	C3H10ClNO+
125.0153	4	C7H6Cl+
128.0494	4	C9H6N+
129.0101	7	C6H6ClO+
129.0573	1	C9H7N+
130.0652	8	C9H8N+
137.0154	5	C8H6Cl+
138.0104	4	C7H5ClN+
138.9946	709	C7H4ClO+
140.0262	11	C7H7ClN+
146.0601	5	C9H8NO+
149.0152	15	C9H6Cl+
155.0604	4	C10H7N2+
156.0445	2	C10H6NO+
156.0682	21	C10H8N2+
157.0761	22	C10H9N2+
158.0602	8	C10H8NO+
164.0261	15	C9H7ClN+
165.0101	3	C9H6ClO+
165.0701	13	C13H9+
176.0621	2	C14H8+
177.0702	3	C14H9+
178.0778	18	C14H10+
180.0205	2	C9H7ClNO+
183.0552	9	C11H7N2O+
184.0632	7	C11H8N2O+
185.0708	6	C11H9N2O+
189.0699	289	C15H9+
190.0777	3	C15H10+
191.086	3	C15H11+
192.0213	9	C10H7ClNO+
192.0448	4	C10H9ClN2+
199.031	16	C13H8Cl+
200.0389	9	C13H9Cl+
203.0729	7	C15H9N+
204.0809	84	C15H10N+
205.065	30	C15H9O+
205.0767	2	C14H9N2+
205.0788	2	C14H9N2+
205.0886	23	C15H11N+
206.0726	9	C15H10O+
206.0966	4	C15H12N+
212.039	6	C14H9Cl+
214.0653	2	C16H8N+
215.0732	3	C16H9N+
216.0809	21	C16H10N+
217.0648	17	C16H9O+
219.032	9	C11H8ClN2O+
220.0399	3	C11H9ClN2O+
223.031	129	C15H8Cl+
224.0388	30	C15H9Cl+
225.0467	4	C15H10Cl+
226.0545	2	C15H11Cl+
231.0915	4	C16H11N2+
232.0758	32	C16H10NO+
232.0991	3	C16H12N2+
232.9922	23	C13H7Cl2+
233.0836	97	C16H11NO+
234.0903	2	C16H12NO+
235.0075	7	C13H9Cl2+
238.0419	78	C15H9ClN+
239.0493	3	C15H10ClN+
240.0575	65	C15H11ClN+
241.0417	54	C15H10ClO+
241.065	7	C15H12ClN+
242.084	12	C17H10N2+
243.0918	18	C17H11N2+
250.0418	31	C16H9ClN+
251.0026	33	C13H9Cl2O+
251.0259	4	C16H8ClO+
251.0497	50	C16H10ClN+
252.0337	128	C16H9ClO+
259.0077	175	C15H9Cl2+
266.0368	33	C16H9ClNO+
267.0686	19	C16H12ClN2+
268.0524	270	C16H11ClNO+
276.0336	3	C15H12Cl2N+
277.0528	11	C17H10ClN2+
278.0606	36	C17H11ClN2+
279.0686	7	C17H12ClN2+
286.0193	2	C16H10Cl2N+
331.0392	2	C17H13Cl2N2O+
