Mass spectrum: Fabesetron; LC-ESI-QFT; MS2; CE: 45; R=17500; [M-H]-
Name: Fabesetron
Name: (7R)-10-methyl-7-[(5-methyl-1H-imidazol-4-yl)methyl]-8,9-dihydro-7H-pyrido[1,2-a]indol-6-one
Formula: C18H19N3O
Exact mass: 293.1528
SMILES: Cc1[nH]cnc1C[C@H]1CCc2c(C)c3ccccc3n2C1=O
InChI: InChI=1S/C18H19N3O/c1-11-14-5-3-4-6-17(14)21-16(11)8-7-13(18(21)22)9-15-12(2)19-10-20-15/h3-6,10,13H,7-9H2,1-2H3,(H,19,20)/t13-/m1/s1
Instrument: Q Exactive Orbitrap (Thermo Scientific)
Instrument type: LC-ESI-QFT
Ms type: MS2
Ion mode: NEGATIVE
Ionization: ESI
Fragmentation mode: HCD
Collision energy: 45
Resolution: 17500
Column name: Acquity BEH C18 1.7um, 2.1x150mm (Waters)
Retention time: 15.358 min
Base peak: 112.9855
Precursor m/z: 292.1455
Precursor type: [M-H]-
Precursor intensity: 2777354.212646
m/z	relative intensity	assigned
81.0457	999	C4H5N2-
129.0584	3	C9H7N-
130.0663	21	C9H8N-
131.0376	3	C8H5NO-
142.066	26	C10H8N-
144.0817	281	C10H10N-
156.0817	911	C11H10N-
158.0613	7	C10H8NO-
170.0975	157	C12H12N-
180.0814	4	C13H10N-
196.0766	23	C13H10NO-
198.0924	696	C13H12NO-
