Mass spectrum: Fluometuron; LC-ESI-QFT; MS2; CE: 75; R=17500; [M-H]-
Name: Fluometuron
Name: 1,1-dimethyl-3-[3-(trifluoromethyl)phenyl]urea
Formula: C10H11F3N2O
Exact mass: 232.0823
SMILES: CN(C)C(=O)NC1=CC=CC(=C1)C(F)(F)F
InChI: InChI=1S/C10H11F3N2O/c1-15(2)9(16)14-8-5-3-4-7(6-8)10(11,12)13/h3-6H,1-2H3,(H,14,16)
Instrument: Q Exactive Orbitrap (Thermo Scientific)
Instrument type: LC-ESI-QFT
Ms type: MS2
Ion mode: NEGATIVE
Ionization: ESI
Fragmentation mode: HCD
Collision energy: 75
Resolution: 17500
Column name: Acquity BEH C18 1.7um, 2.1x150mm (Waters)
Retention time: 16.063 min
Base peak: 221.0818
Precursor m/z: 231.0751
Precursor type: [M-H]-
Precursor intensity: 17004119.03516
m/z	relative intensity	assigned
65.9986	5	C3NO-
68.9958	5	CF3-
92.9958	4	C3F3-
94.994	5	C5FO-
98.0037	535	C7N-
100.0193	4	C7H2N-
118.0099	273	C7HFN-
118.9939	12	C7FO-
120.0255	25	C7H3FN-
134.0413	6	C8H5FN-
136.0206	11	C7H3FNO-
138.0161	168	C7H2F2N-
140.0318	6	C7H4F2N-
142.0472	22	C7H6F2N-
143.0115	23	C7H2F3-
145.0272	12	C7H4F3-
146.0048	909	C8HFNO-
154.0474	16	C8H6F2N-
156.0265	6	C7H4F2NO-
157.0407	4	C9H5N2O-
158.0224	24	C7H3F3N-
159.0299	4	C7H4F3N-
160.038	407	C7H5F3N-
166.011	643	C8H2F2NO-
186.0173	999	C8H3F3NO-
188.0329	13	C8H5F3NO-
200.0207	7	C8H3F3N2O-
215.0436	24	C9H6F3N2O-
231.0749	12	C10H10F3N2O-
