Mass spectrum: PharmaGSID_47259; LC-ESI-QFT; MS2; CE: 60; R=17500; [M+H]+
Name: PharmaGSID_47259
Name: 1,3-Dichloro-6,7,8,9,10,12-hexahydroazepino(2,1-b)quinazoline
Name: 1,3-dichloro-6,7,8,9,10,12-hexahydroazepino[2,1-b]quinazoline
Formula: C13H14Cl2N2
Exact mass: 268.0534
SMILES: ClC1=CC2=C(CN3CCCCCC3=N2)C(Cl)=C1
InChI: InChI=1S/C13H14Cl2N2/c14-9-6-11(15)10-8-17-5-3-1-2-4-13(17)16-12(10)7-9/h6-7H,1-5,8H2
Instrument: Q Exactive Orbitrap (Thermo Scientific)
Instrument type: LC-ESI-QFT
Ms type: MS2
Ion mode: POSITIVE
Ionization: ESI
Fragmentation mode: HCD
Collision energy: 60
Resolution: 17500
Column name: Acquity BEH C18 1.7um, 2.1x150mm (Waters)
Retention time: 13.543 min
Base peak: 79.0211
Precursor m/z: 269.0607
Precursor type: [M+H]+
Precursor intensity: 24828698.5
m/z	relative intensity	assigned
53.0386	1	C4H5+
54.0338	5	C3H4N+
55.0542	21	C4H7+
67.0541	3	C5H7+
68.0495	3	C4H6N+
69.0698	56	C5H9+
79.0542	29	C6H7+
80.0494	1	C5H6N+
81.0573	7	C5H7N+
84.0807	1	C5H10N+
94.0651	3	C6H8N+
95.0491	2	C3H10ClN+
96.0808	213	C6H10N+
107.0489	1	C4H10ClN+
120.0808	1	C8H10N+
134.0963	2	C9H12N+
151.0184	2	C8H6ClN+
172.979	2	C7H5Cl2N+
173.9872	83	C7H6Cl2N+
177.0339	1	C10H8ClN+
179.037	3	C9H8ClN2+
183.9713	1	C8H4Cl2N+
185.9871	4	C8H6Cl2N+
193.0655	2	C11H12ClN+
197.9872	7	C9H6Cl2N+
198.9829	2	C8H5Cl2N2+
199.9902	1	C8H6Cl2N2+
200.0026	2	C9H8Cl2N+
200.9978	1	C8H7Cl2N2+
202.0421	2	C12H9ClN+
205.065	1	C12H12ClN+
209.987	2	C10H6Cl2N+
211.9902	3	C9H6Cl2N2+
212.0026	1	C10H8Cl2N+
212.998	30	C9H7Cl2N2+
214.0058	158	C9H8Cl2N2+
215.0136	20	C9H9Cl2N2+
216.0339	1	C10H12Cl2N+
217.0651	2	C13H12ClN+
224.9974	1	C10H7Cl2N2+
227.0137	145	C10H9Cl2N2+
228.0214	3	C10H10Cl2N2+
228.0339	4	C11H12Cl2N+
233.0841	1	C13H14ClN2+
234.0913	1	C13H15ClN2+
239.0136	9	C11H9Cl2N2+
240.0212	7	C11H10Cl2N2+
240.0343	2	C12H12Cl2N+
241.0296	4	C11H11Cl2N2+
252.0339	5	C13H12Cl2N+
253.0294	3	C12H11Cl2N2+
254.0373	4	C12H12Cl2N2+
267.0447	1	C13H13Cl2N2+
269.0605	999	C13H15Cl2N2+
