Mass spectrum: Imipramine; LC-ESI-QFT; MS2; CE: 60; R=17500; [M+H]+
Name: Imipramine
Name: 3-(5,6-dihydrobenzo[b][1]benzazepin-11-yl)-N,N-dimethylpropan-1-amine
Formula: C19H24N2
Exact mass: 280.1939
SMILES: CN(C)CCCN1C2=CC=CC=C2CCC2=CC=CC=C12
InChI: InChI=1S/C19H24N2/c1-20(2)14-7-15-21-18-10-5-3-8-16(18)12-13-17-9-4-6-11-19(17)21/h3-6,8-11H,7,12-15H2,1-2H3
Instrument: Q Exactive Orbitrap (Thermo Scientific)
Instrument type: LC-ESI-QFT
Ms type: MS2
Ion mode: POSITIVE
Ionization: ESI
Fragmentation mode: HCD
Collision energy: 60
Resolution: 17500
Column name: Acquity BEH C18 1.7um, 2.1x150mm (Waters)
Retention time: 15.455 min
Base peak: 79.0211
Precursor m/z: 281.2012
Precursor type: [M+H]+
Precursor intensity: 25518159.5
m/z	relative intensity	assigned
56.0495	7	C3H6N+
58.0651	999	C3H8N+
71.0729	8	C4H9N+
79.0542	1	C6H7+
84.0807	1	C5H10N+
86.0964	953	C5H12N+
91.0542	3	C7H7+
105.0699	10	C8H9+
158.0965	1	C11H12N+
180.081	1	C13H10N+
193.0887	71	C14H11N+
195.1046	1	C14H13N+
206.0962	2	C15H12N+
207.1042	1	C15H13N+
208.1121	105	C15H14N+
220.112	3	C16H14N+
236.1434	3	C17H18N+
