Mass spectrum: Furosemide; LC-ESI-QFT; MS2; CE: 75; R=17500; [M-H]-
Name: Furosemide
Name: 4-chloro-2-(furan-2-ylmethylamino)-5-sulfamoylbenzoic acid
Formula: C12H11ClN2O5S
Exact mass: 330.0077
SMILES: NS(=O)(=O)C1=C(Cl)C=C(NCC2=CC=CO2)C(=C1)C(O)=O
InChI: InChI=1S/C12H11ClN2O5S/c13-9-5-10(15-6-7-2-1-3-20-7)8(12(16)17)4-11(9)21(14,18)19/h1-5,15H,6H2,(H,16,17)(H2,14,18,19)
Instrument: Q Exactive Orbitrap (Thermo Scientific)
Instrument type: LC-ESI-QFT
Ms type: MS2
Ion mode: NEGATIVE
Ionization: ESI
Fragmentation mode: HCD
Collision energy: 75
Resolution: 17500
Column name: Acquity BEH C18 1.7um, 2.1x150mm (Waters)
Retention time: 14.699 min
Base peak: 329.0005
Precursor m/z: 329.0004
Precursor type: [M-H]-
Precursor intensity: 10995947.71484
m/z	relative intensity	assigned
61.9706	32	NOS-
63.9624	35	O2S-
64.0192	2	C4H2N-
64.9702	1	HO2S-
65.9985	2	C3NO-
66.0349	8	C4H4N-
67.019	3	C4H3O-
76.0193	22	C5H2N-
77.9655	999	NO2S-
78.9733	56	HNO2S-
79.0189	13	C5H3O-
79.9812	29	H2NO2S-
80.9652	3	HO3S-
88.0193	2	C6H2N-
90.0349	46	C6H4N-
92.0141	2	C5H2NO-
93.9604	34	NO3S-
94.0298	125	C5H4NO-
96.0455	1	C5H6NO-
104.038	68	C6H4N2-
105.022	1	C6H3NO-
105.0458	16	C6H5N2-
114.0349	1	C8H4N-
115.0301	23	C7H3N2-
116.0505	11	C8H6N-
117.0459	7	C7H5N2-
119.0251	3	C6H3N2O-
120.0454	6	C7H6NO-
121.0407	203	C6H5N2O-
125.0037	3	C6H4ClN-
126.0116	317	C6H5ClN-
129.0459	1	C8H5N2-
131.0376	3	C8H5NO-
131.0615	2	C8H7N2-
140.0505	21	C10H6N-
140.9988	6	C6H4ClNO-
141.0458	13	C9H5N2-
142.0662	6	C10H8N-
143.0615	1	C9H7N2-
144.0454	5	C9H6NO-
145.0406	1	C8H5N2O-
146.061	4	C9H8NO-
150.0115	1	C8H5ClN-
155.0614	14	C10H7N2-
156.0692	7	C10H8N2-
157.0533	13	C10H7NO-
157.0768	2	C10H9N2-
158.0486	2	C9H6N2O-
168.0455	2	C11H6NO-
169.0081	6	C6H5N2O2S-
170.0609	4	C11H8NO-
172.0407	3	C7H9ClN2O-
172.0639	5	C10H8N2O-
183.0562	4	C11H7N2O-
184.0643	2	C11H8N2O-
185.0478	2	C11H7NO2-
187.9578	2	C6H3ClNO2S-
188.9662	1	C6H4ClNO2S-
204.9843	21	C6H6ClN2O2S-
206.0377	1	C11H9ClNO-
