Mass spectrum: Dimethametryn; LC-ESI-QFT; MS2; CE: 15; R=17500; [M+H]+
Name: Dimethametryn
Name: 4-N-ethyl-2-N-(3-methylbutan-2-yl)-6-methylsulfanyl-1,3,5-triazine-2,4-diamine
Formula: C11H21N5S
Exact mass: 255.1518
SMILES: CCNC1=NC(SC)=NC(NC(C)C(C)C)=N1
InChI: InChI=1S/C11H21N5S/c1-6-12-9-14-10(13-8(4)7(2)3)16-11(15-9)17-5/h7-8H,6H2,1-5H3,(H2,12,13,14,15,16)
Instrument: Q Exactive Orbitrap (Thermo Scientific)
Instrument type: LC-ESI-QFT
Ms type: MS2
Ion mode: POSITIVE
Ionization: ESI
Fragmentation mode: HCD
Collision energy: 15
Resolution: 17500
Column name: Acquity BEH C18 1.7um, 2.1x150mm (Waters)
Retention time: 17.321 min
Base peak: 79.0211
Precursor m/z: 256.159
Precursor type: [M+H]+
Precursor intensity: 20405127
m/z	relative intensity	assigned
71.0854	1	C5H11+
186.0807	36	C6H12N5S+
241.1344	1	C10H19N5S+
256.1588	999	C11H22N5S+
