Mass spectrum: 3-(Octyloxy)propan-1-amine; LC-ESI-QFT; MS2; CE: 75; R=17500; [M+H]+
Name: 3-(Octyloxy)propan-1-amine
Name: 3-octoxypropan-1-amine
Formula: C11H25NO
Exact mass: 187.1936
SMILES: CCCCCCCCOCCCN
InChI: InChI=1S/C11H25NO/c1-2-3-4-5-6-7-10-13-11-8-9-12/h2-12H2,1H3
Instrument: Q Exactive Orbitrap (Thermo Scientific)
Instrument type: LC-ESI-QFT
Ms type: MS2
Ion mode: POSITIVE
Ionization: ESI
Fragmentation mode: HCD
Collision energy: 75
Resolution: 17500
Column name: Acquity BEH C18 1.7um, 2.1x150mm (Waters)
Retention time: 16.264 min
Base peak: 79.0211
Precursor m/z: 188.2009
Precursor type: [M+H]+
Precursor intensity: 33085203
m/z	relative intensity	assigned
53.0022	28	C3HO+
53.9975	5	C2NO+
55.0542	5	C4H7+
57.0699	181	C4H9+
58.0651	999	C3H8N+
59.0492	27	C3H7O+
69.0699	7	C5H9+
71.0855	54	C5H11+
74.0964	1	C4H12N+
76.0757	23	C3H10NO+
