Mass spectrum: Tacrine; LC-ESI-QFT; MS2; CE: 90; R=17500; [M+H]+
Name: Tacrine
Name: 1,2,3,4-tetrahydroacridin-9-amine
Formula: C13H14N2
Exact mass: 198.1157
SMILES: NC1=C2CCCCC2=NC2=C1C=CC=C2
InChI: InChI=1S/C13H14N2/c14-13-9-5-1-3-7-11(9)15-12-8-4-2-6-10(12)13/h1,3,5,7H,2,4,6,8H2,(H2,14,15)
Instrument: Q Exactive Orbitrap (Thermo Scientific)
Instrument type: LC-ESI-QFT
Ms type: MS2
Ion mode: POSITIVE
Ionization: ESI
Fragmentation mode: HCD
Collision energy: 90
Resolution: 17500
Column name: Acquity BEH C18 1.7um, 2.1x150mm (Waters)
Retention time: 12.075 min
Base peak: 79.0211
Precursor m/z: 199.123
Precursor type: [M+H]+
Precursor intensity: 46948194.3125
m/z	relative intensity	assigned
55.0542	2	C4H7+
74.0963	2	C4H12N+
77.0384	1	C6H5+
82.0651	2	C5H8N+
97.0076	3	C8H+
104.0494	2	C7H6N+
106.0651	1	C7H8N+
116.0494	15	C8H6N+
117.0572	5	C8H7N+
118.065	10	C8H8N+
130.0651	34	C9H8N+
131.0605	1	C8H7N2+
131.073	5	C9H9N+
140.0494	11	C10H6N+
142.0527	7	C9H6N2+
143.073	12	C10H9N+
144.0807	467	C10H10N+
145.0759	2	C9H9N2+
154.065	9	C11H8N+
155.0604	6	C10H7N2+
156.0681	12	C10H8N2+
156.0808	2	C11H10N+
157.076	73	C10H9N2+
158.0838	102	C10H10N2+
167.073	32	C12H9N+
168.0809	7	C12H10N+
169.0763	11	C11H9N2+
170.0838	16	C11H10N2+
170.0963	8	C12H12N+
171.0916	979	C11H11N2+
172.0995	10	C11H12N2+
172.1113	3	C12H14N+
180.0808	13	C13H10N+
181.0761	8	C12H9N2+
181.0875	2	C13H11N+
182.084	62	C12H10N2+
182.0964	14	C13H12N+
183.0917	154	C12H11N2+
184.0995	13	C12H12N2+
195.0918	26	C13H11N2+
197.1074	144	C13H13N2+
198.1151	8	C13H14N2+
199.1229	999	C13H15N2+
