Mass spectrum: AM580; LC-ESI-QFT; MS2; CE: 75; R=17500; [M-H]-
Name: AM580
Name: 4-{[(5,5,8,8-Tetramethyl-5,6,7,8-tetrahydronaphthalen-2-yl)carbonyl]amino}benzoic acid
Name: 4-[(5,5,8,8-tetramethyl-6,7-dihydronaphthalene-2-carbonyl)amino]benzoic acid
Formula: C22H25NO3
Exact mass: 351.1834
SMILES: CC1(C)CCC(C)(C)C2=C1C=CC(=C2)C(=O)NC1=CC=C(C=C1)C(O)=O
InChI: InChI=1S/C22H25NO3/c1-21(2)11-12-22(3,4)18-13-15(7-10-17(18)21)19(24)23-16-8-5-14(6-9-16)20(25)26/h5-10,13H,11-12H2,1-4H3,(H,23,24)(H,25,26)
Instrument: Q Exactive Orbitrap (Thermo Scientific)
Instrument type: LC-ESI-QFT
Ms type: MS2
Ion mode: NEGATIVE
Ionization: ESI
Fragmentation mode: HCD
Collision energy: 75
Resolution: 17500
Column name: Acquity BEH C18 1.7um, 2.1x150mm (Waters)
Retention time: 19.353 min
Base peak: 350.1762
Precursor m/z: 350.1762
Precursor type: [M-H]-
Precursor intensity: 14935118.95605
m/z	relative intensity	assigned
75.024	100	C6H3-
90.0349	5	C6H4N-
92.0506	325	C6H6N-
93.0346	79	C6H5O-
115.0554	5	C9H7-
118.0299	219	C7H4NO-
119.0138	62	C7H3O2-
122.0248	8	C6H4NO2-
129.071	30	C10H9-
136.0405	9	C7H6NO2-
137.0246	7	C7H5O3-
141.0711	8	C11H9-
143.0863	6	C11H11-
155.0866	18	C12H11-
157.1023	34	C12H13-
159.0817	15	C11H11O-
162.0197	71	C8H4NO3-
171.118	45	C13H15-
173.0972	6	C12H13O-
185.0972	9	C13H13O-
222.092	7	C15H12NO-
223.1003	3	C15H13NO-
234.0925	18	C16H12NO-
236.1081	31	C16H14NO-
246.0928	9	C17H12NO-
247.1004	4	C17H13NO-
248.1081	120	C17H14NO-
260.1084	33	C18H14NO-
261.1158	22	C18H15NO-
262.1236	49	C18H16NO-
262.1604	11	C19H20N-
266.0825	4	C16H12NO3-
274.1239	119	C19H16NO-
275.1324	5	C19H17NO-
276.1394	498	C19H18NO-
278.0822	15	C17H12NO3-
278.1917	5	C20H24N-
280.0981	9	C17H14NO3-
288.139	10	C20H18NO-
290.1552	999	C20H20NO-
291.0909	3	C18H13NO3-
291.1634	5	C20H21NO-
292.0981	114	C18H14NO3-
304.0977	43	C19H14NO3-
305.1061	20	C19H15NO3-
306.1135	51	C19H16NO3-
306.1863	53	C21H24NO-
318.1135	143	C20H16NO3-
320.1291	261	C20H18NO3-
323.1524	6	C20H21NO3-
334.1449	558	C21H20NO3-
350.1775	6	C22H24NO3-
