Mass spectrum: Nicardipine; LC-ESI-QFT; MS2; CE: 90; R=17500; [M-H]-
Name: Nicardipine
Name: 5-O-[2-[benzyl(methyl)amino]ethyl] 3-O-methyl 2,6-dimethyl-4-(3-nitrophenyl)-1,4-dihydropyridine-3,5-dicarboxylate
Formula: C26H29N3O6
Exact mass: 479.2056
SMILES: COC(=O)C1=C(C)NC(C)=C(C1C1=CC(=CC=C1)[N+]([O-])=O)C(=O)OCCN(C)CC1=CC=CC=C1
InChI: InChI=1S/C26H29N3O6/c1-17-22(25(30)34-4)24(20-11-8-12-21(15-20)29(32)33)23(18(2)27-17)26(31)35-14-13-28(3)16-19-9-6-5-7-10-19/h5-12,15,24,27H,13-14,16H2,1-4H3
Instrument: Q Exactive Orbitrap (Thermo Scientific)
Instrument type: LC-ESI-QFT
Ms type: MS2
Ion mode: NEGATIVE
Ionization: ESI
Fragmentation mode: HCD
Collision energy: 90
Resolution: 17500
Column name: Acquity BEH C18 1.7um, 2.1x150mm (Waters)
Retention time: 14.882 min
Base peak: 307.0283
Precursor m/z: 478.1984
Precursor type: [M-H]-
Precursor intensity: 13829220.19238
m/z	relative intensity	assigned
65.9986	206	C3NO-
79.019	551	C5H3O-
82.006	58	C4H2O2-
95.0139	461	C5H3O2-
103.0428	98	C7H5N-
104.0507	496	C7H6N-
106.0663	305	C7H8N-
108.0218	999	C6H4O2-
108.0456	339	C6H6NO-
118.0662	50	C8H8N-
120.0455	369	C7H6NO-
123.0087	60	C6H3O3-
132.0457	132	C8H6NO-
136.0403	77	C7H6NO2-
148.0403	163	C8H6NO2-
149.0476	52	C8H7NO2-
162.0197	100	C8H4NO3-
162.0563	561	C9H8NO2-
181.0532	170	C12H7NO-
182.0375	262	C12H6O2-
183.0451	59	C12H7O2-
193.0405	79	C12H5N2O-
194.0613	125	C13H8NO-
195.069	83	C13H9NO-
196.0404	130	C12H6NO2-
196.0764	221	C13H10NO-
205.0531	214	C14H7NO-
206.0612	102	C14H8NO-
208.0405	451	C13H6NO2-
209.048	224	C13H7NO2-
221.0361	63	C13H5N2O2-
222.0559	154	C14H8NO2-
223.0639	179	C14H9NO2-
224.0718	483	C14H10NO2-
