Mass spectrum: Thalidomide; LC-ESI-QFT; MS2; CE: 90; R=17500; [M-H]-
Name: Thalidomide
Formula: C13H10N2O4
Exact mass: 258.0641
SMILES: O=C1N(C2CCC(=O)NC2=O)C(=O)C2=CC=CC=C12
InChI: InChI=1S/C13H10N2O4/c16-10-6-5-9(11(17)14-10)15-12(18)7-3-1-2-4-8(7)13(15)19/h1-4,9H,5-6H2,(H,14,16,17)
Instrument: Q Exactive Orbitrap (Thermo Scientific)
Instrument type: LC-ESI-QFT
Ms type: MS2
Ion mode: NEGATIVE
Ionization: ESI
Fragmentation mode: HCD
Collision energy: 90
Resolution: 17500
Column name: Acquity BEH C18 1.7um, 2.1x150mm (Waters)
Retention time: 16.757 min
Base peak: 291.0599
Precursor m/z: 257.0568
Precursor type: [M-H]-
Precursor intensity: 550823.9228516
m/z	relative intensity	assigned
65.9986	169	C3NO-
66.0349	237	C4H4N-
67.019	103	C4H3O-
68.0143	39	C3H2NO-
78.035	144	C5H4N-
90.035	136	C6H4N-
91.0302	126	C5H3N2-
92.0142	141	C5H2NO-
94.0299	953	C5H4NO-
95.0139	82	C5H3O2-
106.0299	81	C6H4NO-
107.0377	999	C6H5NO-
108.0455	353	C6H6NO-
118.0299	922	C7H4NO-
119.025	358	C6H3N2O-
134.0249	133	C7H4NO2-
136.0403	45	C7H6NO2-
182.0486	50	C11H6N2O-
