Mass spectrum: N2-(4-Nitrophenyl)-L-glutamine; LC-ESI-QFT; MS2; CE: 30; R=17500; [M+H]+
Name: N2-(4-Nitrophenyl)-L-glutamine
Name: (2S)-5-amino-2-(4-nitroanilino)-5-oxopentanoic acid
Formula: C11H13N3O5
Exact mass: 267.0855
SMILES: NC(=O)CC[C@H](NC1=CC=C(C=C1)[N+]([O-])=O)C(O)=O
InChI: InChI=1S/C11H13N3O5/c12-10(15)6-5-9(11(16)17)13-7-1-3-8(4-2-7)14(18)19/h1-4,9,13H,5-6H2,(H2,12,15)(H,16,17)/t9-/m0/s1
Instrument: Q Exactive Orbitrap (Thermo Scientific)
Instrument type: LC-ESI-QFT
Ms type: MS2
Ion mode: POSITIVE
Ionization: ESI
Fragmentation mode: HCD
Collision energy: 30
Resolution: 17500
Column name: Acquity BEH C18 1.7um, 2.1x150mm (Waters)
Retention time: 11.272 min
Base peak: 79.0211
Precursor m/z: 268.0928
Precursor type: [M+H]+
Precursor intensity: 3968753.0625
m/z	relative intensity	assigned
56.0496	7	C3H6N+
72.0807	1	C4H10N+
84.0445	999	C4H6NO+
85.0284	8	C4H5O2+
102.055	37	C4H8NO2+
122.0476	30	C6H6N2O+
130.05	752	C5H8NO3+
139.0503	294	C6H7N2O2+
148.061	2	C5H10NO4+
165.0296	2	C7H5N2O3+
204.077	4	C10H10N3O2+
205.0613	8	C10H9N2O3+
205.0707	1	C11H11NO3+
222.0874	56	C10H12N3O3+
223.072	2	C10H11N2O4+
250.0824	2	C11H12N3O4+
251.0664	238	C11H11N2O5+
268.093	17	C11H14N3O5+
