Mass spectrum: 3-Hydroxy-N-(3-nitrophenyl)naphthalene-2-carboxamide; LC-ESI-QFT; MS2; CE: 45; R=17500; [M-H]-
Name: 3-Hydroxy-N-(3-nitrophenyl)naphthalene-2-carboxamide
Name: 3-Hydroxy-3'-nitro-2-naphthanilide
Formula: C17H12N2O4
Exact mass: 308.0797
SMILES: OC1=CC2=C(C=CC=C2)C=C1C(=O)NC1=CC=CC(=C1)[N+]([O-])=O
InChI: InChI=1S/C17H12N2O4/c20-16-9-12-5-2-1-4-11(12)8-15(16)17(21)18-13-6-3-7-14(10-13)19(22)23/h1-10,20H,(H,18,21)
Instrument: Q Exactive Orbitrap (Thermo Scientific)
Instrument type: LC-ESI-QFT
Ms type: MS2
Ion mode: NEGATIVE
Ionization: ESI
Fragmentation mode: HCD
Collision energy: 45
Resolution: 17500
Column name: Acquity BEH C18 1.7um, 2.1x150mm (Waters)
Retention time: 18.710 min
Base peak: 307.0723
Precursor m/z: 307.0724
Precursor type: [M-H]-
Precursor intensity: 98996452.09277
m/z	relative intensity	assigned
65.9985	4	C3NO-
80.0269	1	C5H4O-
90.0349	7	C6H4N-
92.0143	1	C5H2NO-
105.022	3	C6H3NO-
107.0377	29	C6H5NO-
108.0218	1	C6H4O2-
115.0553	12	C9H7-
122.0248	2	C6H4NO2-
123.0325	2	C6H5NO2-
130.0424	3	C9H6O-
133.017	12	C7H3NO2-
134.0248	27	C7H4NO2-
137.0357	408	C6H5N2O2-
138.0197	30	C6H4NO3-
141.0348	2	C10H5O-
142.0423	3	C10H6O-
143.0502	999	C10H7O-
149.0118	1	C7H3NO3-
158.0374	1	C10H6O2-
159.0452	6	C10H7O2-
163.015	31	C7H3N2O3-
168.0455	38	C11H6NO-
183.0451	1	C12H7O2-
206.0613	4	C14H8NO-
206.0728	1	C15H10O-
216.0819	1	C16H10N-
218.0617	1	C15H8NO-
231.069	8	C16H9NO-
232.0767	8	C16H10NO-
233.0608	17	C16H9O2-
234.0688	5	C16H10O2-
248.0717	27	C16H10NO2-
249.0797	18	C16H11NO2-
258.0555	3	C17H8NO2-
259.0639	2	C17H9NO2-
260.0717	20	C17H10NO2-
261.0668	2	C16H9N2O2-
261.0796	35	C17H11NO2-
264.0666	11	C16H10NO3-
276.0668	19	C17H10NO3-
277.075	1	C17H11NO3-
279.0773	1	C16H11N2O3-
289.062	13	C17H9N2O3-
293.0695	88	C17H11NO4-
307.0725	411	C17H11N2O4-
