Mass spectrum: Heptylparaben; LC-ESI-QFT; MS2; CE: 15; R=17500; [M-H]-
Name: Heptylparaben
Name: heptyl 4-hydroxybenzoate
Formula: C14H20O3
Exact mass: 236.1412
SMILES: CCCCCCCOC(=O)C1=CC=C(O)C=C1
InChI: InChI=1S/C14H20O3/c1-2-3-4-5-6-11-17-14(16)12-7-9-13(15)10-8-12/h7-10,15H,2-6,11H2,1H3
Instrument: Q Exactive Orbitrap (Thermo Scientific)
Instrument type: LC-ESI-QFT
Ms type: MS2
Ion mode: NEGATIVE
Ionization: ESI
Fragmentation mode: HCD
Collision energy: 15
Resolution: 17500
Column name: Acquity BEH C18 1.7um, 2.1x150mm (Waters)
Retention time: 19.502 min
Base peak: 235.1339
Precursor m/z: 235.134
Precursor type: [M-H]-
Precursor intensity: 90306441.67285
m/z	relative intensity	assigned
92.027	5	C6H4O-
93.0346	10	C6H5O-
108.0217	1	C6H4O2-
120.022	1	C7H4O2-
136.0166	35	C7H4O3-
137.0245	46	C7H5O3-
235.1339	999	C14H19O3-
