Mass spectrum: Propyl gallate; LC-ESI-QFT; MS2; CE: 15; R=17500; [M-H]-
Name: Propyl gallate
Name: propyl 3,4,5-trihydroxybenzoate
Formula: C10H12O5
Exact mass: 212.0685
SMILES: CCCOC(=O)C1=CC(O)=C(O)C(O)=C1
InChI: InChI=1S/C10H12O5/c1-2-3-15-10(14)6-4-7(11)9(13)8(12)5-6/h4-5,11-13H,2-3H2,1H3
Instrument: Q Exactive Orbitrap (Thermo Scientific)
Instrument type: LC-ESI-QFT
Ms type: MS2
Ion mode: NEGATIVE
Ionization: ESI
Fragmentation mode: HCD
Collision energy: 15
Resolution: 17500
Column name: Acquity BEH C18 1.7um, 2.1x150mm (Waters)
Retention time: 14.149 min
Base peak: 211.0612
Precursor m/z: 211.0612
Precursor type: [M-H]-
Precursor intensity: 31523950.77832
m/z	relative intensity	assigned
111.0088	4	C5H3O3-
124.0169	9	C6H4O3-
125.0244	20	C6H5O3-
127.0038	1	C5H3O4-
136.9879	2	C6HO4-
139.0037	4	C6H3O4-
140.0116	6	C6H4O4-
151.0035	1	C7H3O4-
168.0065	42	C7H4O5-
169.0143	88	C7H5O5-
211.0611	999	C10H11O5-
