Mass spectrum: 2-Amino-5-azotoluene; LC-ESI-QFT; MS2; CE: 90; R=17500; [M+H]+
Name: 2-Amino-5-azotoluene
Name: o-Aminoazotoluene
Name: 2-methyl-4-[(2-methylphenyl)diazenyl]aniline
Formula: C14H15N3
Exact mass: 225.1266
SMILES: CC1=C(N)C=CC(=C1)N=NC1=C(C)C=CC=C1
InChI: InChI=1S/C14H15N3/c1-10-5-3-4-6-14(10)17-16-12-7-8-13(15)11(2)9-12/h3-9H,15H2,1-2H3
Instrument: Q Exactive Orbitrap (Thermo Scientific)
Instrument type: LC-ESI-QFT
Ms type: MS2
Ion mode: POSITIVE
Ionization: ESI
Fragmentation mode: HCD
Collision energy: 90
Resolution: 17500
Column name: Acquity BEH C18 1.7um, 2.1x150mm (Waters)
Retention time: 18.780 min
Base peak: 79.0212
Precursor m/z: 226.1339
Precursor type: [M+H]+
Precursor intensity: 32901412
m/z	relative intensity	assigned
51.023	1	C4H3+
53.0386	83	C4H5+
54.0338	5	C3H4N+
63.0229	13	C5H3+
65.0386	537	C5H5+
66.0464	13	C5H6+
67.0417	6	C4H5N+
67.0542	26	C5H7+
68.0495	3	C4H6N+
77.0385	43	C6H5+
78.0338	8	C5H4N+
78.0465	5	C6H6+
79.0542	389	C6H7+
80.0495	28	C5H6N+
81.0573	10	C5H7N+
89.0386	8	C7H5+
90.0464	2	C7H6+
91.0542	999	C7H7+
92.0494	15	C6H6N+
93.0574	29	C6H7N+
94.0652	312	C6H8N+
95.0492	247	C4H5N3+
104.0495	39	C7H6N+
105.0448	112	C6H5N2+
106.0651	267	C7H8N+
107.0491	2	C5H5N3+
107.073	39	C7H9N+
108.081	1	C7H10N+
109.0648	7	C5H7N3+
116.0497	2	C8H6N+
118.0527	17	C7H6N2+
119.0604	25	C7H7N2+
120.0683	5	C7H8N2+
120.0808	24	C8H10N+
121.076	448	C7H9N2+
122.0839	8	C7H10N2+
130.0653	1	C9H8N+
132.0683	2	C8H8N2+
133.076	13	C8H9N2+
137.0118	1	C9HN2+
165.07	8	C13H9+
166.065	2	C12H8N+
167.073	19	C12H9N+
168.081	1	C12H10N+
180.081	4	C13H10N+
181.0886	2	C13H11N+
182.0965	2	C13H12N+
183.0921	1	C12H11N2+
184.0996	2	C12H12N2+
191.0731	3	C14H9N+
192.0806	2	C14H10N+
193.0762	6	C13H9N2+
194.0841	15	C13H10N2+
195.0918	5	C13H11N2+
196.0871	3	C12H10N3+
196.1123	1	C14H14N+
209.1076	4	C14H13N2+
210.1027	10	C13H12N3+
