Mass spectrum: Novaluron; LC-ESI-QFT; MS2; CE: 90; R=17500; [M-H]-
Name: Novaluron
Name: N-[[3-chloro-4-[1,1,2-trifluoro-2-(trifluoromethoxy)ethoxy]phenyl]carbamoyl]-2,6-difluorobenzamide
Formula: C17H9ClF8N2O4
Exact mass: 492.0123
SMILES: FC(OC(F)(F)F)C(F)(F)OC1=C(Cl)C=C(NC(=O)NC(=O)C2=C(F)C=CC=C2F)C=C1
InChI: InChI=1S/C17H9ClF8N2O4/c18-8-6-7(4-5-11(8)31-16(22,23)14(21)32-17(24,25)26)27-15(30)28-13(29)12-9(19)2-1-3-10(12)20/h1-6,14H,(H2,27,28,29,30)
Instrument: Q Exactive Orbitrap (Thermo Scientific)
Instrument type: LC-ESI-QFT
Ms type: MS2
Ion mode: NEGATIVE
Ionization: ESI
Fragmentation mode: HCD
Collision energy: 90
Resolution: 17500
Column name: Acquity BEH C18 1.7um, 2.1x150mm (Waters)
Retention time: 18.982 min
Base peak: 183.0582
Precursor m/z: 491.005
Precursor type: [M-H]-
Precursor intensity: 16484552.11133
m/z	relative intensity	assigned
65.9985	3	C3NO-
68.9958	99	CF3-
73.0084	76	C6H-
82.9693	3	C4Cl-
84.9907	999	CF3O-
93.0146	602	C6H2F-
98.0038	2	C7N-
113.0209	96	C6H3F2-
130.017	2	C7H2N2O-
140.9985	12	C6H4ClNO-
150.0237	2	C7H3FN2O-
162.9821	2	C3F5O2-
165.9939	15	C7H3ClN2O-
