Mass spectrum: Salicylanilide; LC-ESI-QFT; MS2; CE: 15; R=17500; [M+H]+
Name: Salicylanilide
Name: 2-hydroxy-N-phenylbenzamide
Formula: C13H11NO2
Exact mass: 213.079
SMILES: OC1=C(C=CC=C1)C(=O)NC1=CC=CC=C1
InChI: InChI=1S/C13H11NO2/c15-12-9-5-4-8-11(12)13(16)14-10-6-2-1-3-7-10/h1-9,15H,(H,14,16)
Instrument: Q Exactive Orbitrap (Thermo Scientific)
Instrument type: LC-ESI-QFT
Ms type: MS2
Ion mode: POSITIVE
Ionization: ESI
Fragmentation mode: HCD
Collision energy: 15
Resolution: 17500
Column name: Acquity BEH C18 1.7um, 2.1x150mm (Waters)
Retention time: 16.933 min
Base peak: 79.0211
Precursor m/z: 214.0863
Precursor type: [M+H]+
Precursor intensity: 1171007
m/z	relative intensity	assigned
94.0652	699	C6H8N+
95.0491	20	C6H7O+
121.0284	999	C7H5O2+
