Mass spectrum: 2-(3-Phenylpropyl)pyridine; LC-ESI-QFT; MS2; CE: 75; R=17500; [M+H]+
Name: 2-(3-Phenylpropyl)pyridine
Formula: C14H15N
Exact mass: 197.1204
SMILES: C(CC1=CC=CC=C1)CC1=CC=CC=N1
InChI: InChI=1S/C14H15N/c1-2-7-13(8-3-1)9-6-11-14-10-4-5-12-15-14/h1-5,7-8,10,12H,6,9,11H2
Instrument: Q Exactive Orbitrap (Thermo Scientific)
Instrument type: LC-ESI-QFT
Ms type: MS2
Ion mode: POSITIVE
Ionization: ESI
Fragmentation mode: HCD
Collision energy: 75
Resolution: 17500
Column name: Acquity BEH C18 1.7um, 2.1x150mm (Waters)
Retention time: 13.113 min
Base peak: 79.0211
Precursor m/z: 198.1277
Precursor type: [M+H]+
Precursor intensity: 39431120.53125
m/z	relative intensity	assigned
53.0385	3	C4H5+
65.0385	4	C5H5+
66.0463	6	C5H6+
67.0416	9	C4H5N+
67.0541	2	C5H7+
77.0384	2	C6H5+
79.0416	44	C5H5N+
79.0542	41	C6H7+
80.0494	99	C5H6N+
91.0542	12	C7H7+
92.0495	30	C6H6N+
93.0573	896	C6H7N+
94.0651	52	C6H8N+
103.0542	27	C8H7+
105.0699	223	C8H9+
106.0651	999	C7H8N+
107.0728	218	C7H9N+
118.065	2	C8H8N+
119.0733	1	C8H9N+
120.0807	32	C8H10N+
198.1276	141	C14H16N+
