Mass spectrum: Butralin; LC-ESI-QFT; MS2; CE: 75; R=17500; [M+H]+
Name: Butralin
Formula: C14H21N3O4
Exact mass: 295.1532
SMILES: CCC(C)NC1=C(C=C(C=C1[N+]([O-])=O)C(C)(C)C)[N+]([O-])=O
InChI: InChI=1S/C14H21N3O4/c1-6-9(2)15-13-11(16(18)19)7-10(14(3,4)5)8-12(13)17(20)21/h7-9,15H,6H2,1-5H3
Instrument: Q Exactive Orbitrap (Thermo Scientific)
Instrument type: LC-ESI-QFT
Ms type: MS2
Ion mode: POSITIVE
Ionization: ESI
Fragmentation mode: HCD
Collision energy: 75
Resolution: 17500
Column name: Acquity BEH C18 1.7um, 2.1x150mm (Waters)
Retention time: 20.167 min
Base peak: 79.0211
Precursor m/z: 296.1605
Precursor type: [M+H]+
Precursor intensity: 1023146.1875
m/z	relative intensity	assigned
57.07	308	C4H9+
79.0542	124	C6H7+
91.0543	515	C7H7+
93.0574	88	C6H7N+
105.0701	427	C8H9+
115.0544	115	C9H7+
117.07	443	C9H9+
119.0607	87	C7H7N2+
119.0856	377	C9H11+
130.0653	91	C9H8N+
132.0811	165	C9H10N+
147.1169	999	C11H15+
208.0723	227	C9H10N3O3+
