Mass spectrum: Megestrol acetate; LC-ESI-QFT; MS2; CE: 45; R=17500; [M+H]+
Name: Megestrol acetate
Formula: C24H32O4
Exact mass: 384.2301
SMILES: CC(=O)O[C@@]1(CC[C@H]2[C@@H]3C=C(C)C4=CC(=O)CC[C@]4(C)[C@H]3CC[C@]12C)C(C)=O
InChI: InChI=1S/C24H32O4/c1-14-12-18-19(22(4)9-6-17(27)13-21(14)22)7-10-23(5)20(18)8-11-24(23,15(2)25)28-16(3)26/h12-13,18-20H,6-11H2,1-5H3/t18-,19+,20+,22-,23+,24+/m1/s1
Instrument: Q Exactive Orbitrap (Thermo Scientific)
Instrument type: LC-ESI-QFT
Ms type: MS2
Ion mode: POSITIVE
Ionization: ESI
Fragmentation mode: HCD
Collision energy: 45
Resolution: 17500
Column name: Acquity BEH C18 1.7um, 2.1x150mm (Waters)
Retention time: 18.444 min
Base peak: 79.0211
Precursor m/z: 385.2373
Precursor type: [M+H]+
Precursor intensity: 6871586.125
m/z	relative intensity	assigned
53.0386	3	C4H5+
55.0178	2	C3H3O+
55.0542	8	C4H7+
57.0697	3	C4H9+
59.0491	10	C3H7O+
67.0543	17	C5H7+
69.0335	3	C4H5O+
69.0698	9	C5H9+
71.0491	6	C4H7O+
79.0542	12	C6H7+
81.0699	30	C6H9+
83.0491	56	C5H7O+
83.0855	3	C6H11+
85.0647	16	C5H9O+
91.0542	17	C7H7+
93.0699	41	C7H9+
95.0491	3	C6H7O+
95.0855	34	C7H11+
97.0648	110	C6H9O+
99.0805	17	C6H11O+
103.0542	2	C8H7+
105.0698	29	C8H9+
107.0491	5	C7H7O+
107.0855	56	C8H11+
109.0648	10	C7H9O+
109.1012	32	C8H13+
111.0805	23	C7H11O+
113.0597	3	C6H9O2+
117.0698	7	C9H9+
119.0855	49	C9H11+
121.0648	47	C8H9O+
121.1012	43	C9H13+
123.0803	22	C8H11O+
123.1167	5	C9H15+
128.0621	3	C10H8+
129.0697	7	C10H9+
131.0855	37	C10H11+
133.1012	110	C10H13+
135.0805	17	C9H11O+
135.1167	17	C10H15+
137.0962	22	C9H13O+
141.0699	5	C11H9+
142.0778	7	C11H10+
143.0856	25	C11H11+
144.093	2	C11H12+
145.0648	6	C10H9O+
145.1012	83	C11H13+
147.0805	13	C10H11O+
147.1168	43	C11H15+
149.0959	18	C10H13O+
151.1117	15	C10H15O+
154.0778	2	C12H10+
155.0855	24	C12H11+
156.0934	8	C12H12+
157.1013	89	C12H13+
158.0727	2	C11H10O+
159.0805	14	C11H11O+
159.1168	65	C12H15+
160.0883	2	C11H12O+
160.124	2	C12H16+
161.0961	97	C11H13O+
161.1328	10	C12H17+
162.104	5	C11H14O+
163.1117	18	C11H15O+
165.0704	3	C13H9+
167.0856	13	C13H11+
168.0935	6	C13H12+
169.1012	99	C13H13+
170.1088	4	C13H14+
171.0806	12	C12H11O+
171.1168	82	C13H15+
172.0881	2	C12H12O+
173.0962	55	C12H13O+
173.1326	35	C13H17+
174.1039	8	C12H14O+
175.1118	196	C12H15O+
177.1277	5	C12H17O+
179.0855	6	C14H11+
180.0937	3	C14H12+
181.1013	26	C14H13+
182.1092	7	C14H14+
183.1169	174	C14H15+
184.1248	5	C14H16+
185.096	24	C13H13O+
185.1326	38	C14H17+
186.1404	4	C14H18+
187.1118	152	C13H15O+
188.1196	7	C13H16O+
189.1274	37	C13H17O+
193.1012	17	C15H13+
194.1088	16	C15H14+
195.1169	54	C15H15+
196.1244	11	C15H16+
197.1325	92	C15H17+
198.1404	89	C15H18+
199.1118	9	C14H15O+
199.1483	57	C15H19+
200.1197	5	C14H16O+
200.1562	12	C15H20+
201.1275	12	C14H17O+
201.1638	7	C15H21+
205.1014	3	C16H13+
206.1087	5	C16H14+
207.117	28	C16H15+
208.1249	21	C16H16+
209.1325	295	C16H17+
210.1405	39	C16H18+
211.1481	208	C16H19+
212.1559	15	C16H20+
213.1275	16	C15H17O+
213.1639	12	C16H21+
215.1429	20	C15H19O+
219.1169	13	C17H15+
220.1244	8	C17H16+
221.1327	21	C17H17+
222.1403	32	C17H18+
223.1482	169	C17H19+
224.156	999	C17H20+
225.1284	13	C16H17O+
225.1637	214	C17H21+
226.1351	4	C16H18O+
227.1431	9	C16H19O+
228.1519	2	C16H20O+
229.1591	3	C16H21O+
231.1185	2	C18H15+
232.1247	5	C18H16+
233.1328	6	C18H17+
234.1403	47	C18H18+
235.1481	26	C18H19+
236.1559	11	C18H20+
237.1269	8	C17H17O+
237.1638	47	C18H21+
238.1345	3	C17H18O+
238.1716	3	C18H22+
239.1429	22	C17H19O+
239.1797	14	C18H23+
240.1509	4	C17H20O+
241.1586	50	C17H21O+
243.1747	5	C17H23O+
245.1315	3	C19H17+
246.1398	3	C19H18+
247.148	13	C19H19+
248.156	7	C19H20+
249.1638	104	C19H21+
250.1715	19	C19H22+
251.1428	12	C18H19O+
252.1514	7	C18H20O+
253.1592	13	C18H21O+
255.1743	17	C18H23O+
260.1556	2	C20H20+
261.1629	2	C20H21+
263.1794	19	C20H23+
264.1871	22	C20H24+
265.1594	19	C19H21O+
265.1951	83	C20H25+
266.1662	15	C19H22O+
267.1743	428	C19H23O+
274.1713	5	C21H22+
277.1594	2	C20H21O+
279.1741	3	C20H23O+
281.19	68	C20H25O+
282.1978	318	C20H26O+
283.2056	37	C20H27O+
289.1947	6	C22H25+
292.1821	5	C21H24O+
295.1688	4	C20H23O2+
307.2062	18	C22H27O+
310.1924	12	C21H26O2+
325.2167	26	C22H29O2+
