Mass spectrum: Metribuzin; LC-ESI-QFT; MS2; CE: 60; R=17500; [M+H]+
Name: Metribuzin
Name: 4-amino-6-tert-butyl-3-methylsulfanyl-1,2,4-triazin-5-one
Formula: C8H14N4OS
Exact mass: 214.0888
SMILES: CSC1=NN=C(C(=O)N1N)C(C)(C)C
InChI: InChI=1S/C8H14N4OS/c1-8(2,3)5-6(13)12(9)7(14-4)11-10-5/h9H2,1-4H3
Instrument: Q Exactive Orbitrap (Thermo Scientific)
Instrument type: LC-ESI-QFT
Ms type: MS2
Ion mode: POSITIVE
Ionization: ESI
Fragmentation mode: HCD
Collision energy: 60
Resolution: 17500
Column name: Acquity BEH C18 1.7um, 2.1x150mm (Waters)
Retention time: 15.295 min
Base peak: 79.0211
Precursor m/z: 215.0961
Precursor type: [M+H]+
Precursor intensity: 12432647.625
m/z	relative intensity	assigned
53.0022	11	C3HO+
53.0386	3	C4H5+
55.0291	3	C2H3N2+
55.0542	13	C4H7+
56.0495	11	C3H6N+
57.0699	429	C4H9+
58.04	627	CH4N3+
58.995	9	C2H3S+
59.024	3	CH3N2O+
59.9665	9	COS+
59.9902	156	CH2NS+
60.9981	34	CH3NS+
61.0106	33	C2H5S+
62.0059	355	CH4NS+
65.0386	21	C5H5+
67.0416	38	C4H5N+
67.0542	28	C5H7+
68.0242	2	C2H2N3+
68.0494	30	C4H6N+
69.0083	42	C2HN2O+
69.0698	145	C5H9+
70.0397	11	C2H4N3+
70.0651	19	C4H8N+
72.9982	3	C2H3NS+
73.076	4	C3H9N2+
74.0059	417	C2H4NS+
74.99	8	C2H3OS+
75.0012	5	CH3N2S+
75.0138	7	C2H5NS+
76.0215	80	C2H6NS+
77.0168	5	CH5N2S+
79.0212	62	C2H7OS+
79.0542	17	C6H7+
80.0495	16	C5H6N+
81.0574	7	C5H7N+
82.0651	151	C5H8N+
83.024	17	C3H3N2O+
83.049	8	C5H7O+
83.0604	8	C4H7N2+
83.073	9	C5H9N+
84.0808	777	C5H10N+
85.0885	13	C5H11N+
86.0965	7	C5H12N+
86.9902	4	C3H3OS+
87.0012	81	C2H3N2S+
88.009	24	C2H4N2S+
89.0168	199	C2H5N2S+
89.0419	27	C4H9S+
92.0494	6	C6H6N+
94.0653	12	C6H8N+
95.0492	9	C6H7O+
95.0604	9	C5H7N2+
95.0728	5	C6H9N+
96.0445	9	C5H6NO+
96.0683	3	C5H8N2+
97.0648	147	C6H9O+
98.0586	4	C3H6N4+
99.0666	5	C3H7N4+
99.0917	52	C5H11N2+
104.0277	98	C2H6N3S+
105.0449	3	C6H5N2+
107.0603	3	C6H7N2+
108.0681	45	C6H8N2+
109.0638	3	C5H7N3+
109.0761	28	C6H9N2+
110.06	43	C6H8NO+
110.084	5	C6H10N2+
111.0556	4	C5H7N2O+
111.0678	15	C6H9NO+
111.0916	11	C6H11N2+
112.0758	18	C6H10NO+
114.0373	11	C5H8NS+
114.9961	106	C3H3N2OS+
115.0451	7	C5H9NS+
116.0041	3	C3H4N2OS+
116.0151	4	C2H4N4S+
123.0554	8	C6H7N2O+
123.0792	11	C6H9N3+
124.0868	15	C6H10N3+
125.0711	8	C6H9N2O+
125.0821	19	C5H9N4+
126.0665	5	C5H8N3O+
126.1027	5	C6H12N3+
127.0866	16	C6H11N2O+
128.0281	3	C4H6N3S+
129.0482	4	C5H9N2S+
130.0309	17	C3H6N4S+
130.0685	13	C6H12NS+
131.0386	374	C3H7N4S+
136.0506	7	C6H6N3O+
138.0663	4	C6H8N3O+
139.0326	3	C6H7N2S+
139.0867	10	C7H11N2O+
139.098	10	C6H11N4+
140.0403	24	C6H8N2S+
140.1059	10	C6H12N4+
143.0639	17	C6H11N2S+
144.0352	8	C5H8N2OS+
145.0543	160	C4H9N4S+
150.0665	8	C7H8N3O+
152.082	6	C7H10N3O+
153.0771	30	C6H9N4O+
153.0898	3	C7H11N3O+
154.0434	6	C6H8N3S+
154.0849	5	C6H10N4O+
154.0975	5	C7H12N3O+
155.0514	23	C6H9N3S+
155.0637	23	C7H11N2S+
156.059	41	C6H10N3S+
157.0429	19	C6H9N2OS+
159.0337	10	C4H7N4OS+
167.0928	5	C7H11N4O+
170.0749	6	C7H12N3S+
171.0587	178	C7H11N2OS+
171.0826	9	C7H13N3S+
172.0687	4	C7H12N2OS+
172.0776	43	C6H12N4S+
182.0385	7	C7H8N3OS+
183.0462	25	C7H9N3OS+
184.054	106	C7H10N3OS+
185.0742	3	C8H13N2OS+
186.0823	42	C8H14N2OS+
187.1012	999	C7H15N4S+
200.0726	10	C7H12N4OS+
215.0962	262	C8H15N4OS+
