Mass spectrum: Indapamide; LC-ESI-QFT; MS2; CE: 30; R=17500; [M-H]-
Name: Indapamide
Name: 4-chloro-N-(2-methyl-2,3-dihydroindol-1-yl)-3-sulfamoylbenzamide
Formula: C16H16ClN3O3S
Exact mass: 365.0601
SMILES: CC1CC2=C(C=CC=C2)N1NC(=O)C1=CC(=C(Cl)C=C1)S(N)(=O)=O
InChI: InChI=1S/C16H16ClN3O3S/c1-10-8-11-4-2-3-5-14(11)20(10)19-16(21)12-6-7-13(17)15(9-12)24(18,22)23/h2-7,9-10H,8H2,1H3,(H,19,21)(H2,18,22,23)
Instrument: Q Exactive Orbitrap (Thermo Scientific)
Instrument type: LC-ESI-QFT
Ms type: MS2
Ion mode: NEGATIVE
Ionization: ESI
Fragmentation mode: HCD
Collision energy: 30
Resolution: 17500
Column name: Acquity BEH C18 1.7um, 2.1x150mm (Waters)
Retention time: 14.992 min
Base peak: 112.9857
Precursor m/z: 364.0528
Precursor type: [M-H]-
Precursor intensity: 2825781.685791
m/z	relative intensity	assigned
53.0032	14	C3HO-
61.9706	9	NOS-
63.9624	81	O2S-
65.0034	2	C4HO-
65.9985	7	C3NO-
68.0142	19	C3H2NO-
77.0033	34	C5HO-
77.9655	82	NO2S-
78.9733	60	HNO2S-
79.9812	95	H2NO2S-
81.022	14	C4H3NO-
90.0349	4	C6H4N-
91.0303	2	C5H3N2-
92.0142	40	C5H2NO-
92.9981	12	C5HO2-
93.0219	6	C5H3NO-
93.9604	27	NO3S-
96.0091	4	C4H2NO2-
98.9313	14	ClO2S-
103.9904	8	C6O2-
105.022	51	C6H3NO-
106.006	63	C6H2O2-
109.017	6	C5H3NO2-
112.98	10	C5H2ClO-
113.9423	7	ClHNO2S-
114.9499	6	ClH2NO2S-
120.009	11	C6H2NO2-
120.0331	3	C6H4N2O-
120.9931	65	C6HO3-
123.0087	3	C6H3O3-
126.0116	64	C6H5ClN-
127.9909	2	C5H3ClNO-
130.0662	8	C9H8N-
131.0252	7	C7H3N2O-
132.0329	371	C7H4N2O-
141.9826	53	C6H3ClO2-
148.0278	88	C7H4N2O2-
151.007	7	C7H4ClN2-
151.9907	9	C7H3ClNO-
152.989	5	C6H3NO2S-
153.9969	6	C6H4NO2S-
164.0228	13	C7H4N2O3-
167.0017	33	C7H4ClN2O-
168.0095	52	C7H5ClN2O-
168.984	5	C6H3NO3S-
169.0174	40	C7H6ClN2O-
173.072	33	C10H9N2O-
178.9918	5	C7H3N2O2S-
188.9657	125	C6H4ClNO2S-
189.9735	161	C6H5ClNO2S-
195.9947	41	C7H4N2O3S-
197.0027	15	C7H5N2O3S-
204.9606	30	C6H4ClNO3S-
214.9688	81	C7H4ClN2O2S-
215.9527	209	C7H3ClNO3S-
230.9636	18	C7H4ClN2O3S-
231.9718	5	C7H5ClN2O3S-
232.9792	218	C7H6ClN2O3S-
328.0762	19	C16H14N3O3S-
364.0529	999	C16H15ClN3O3S-
