Mass spectrum: PharmaGSID_47333; LC-ESI-QFT; MS2; CE: 75; R=17500; [M+H]+
Name: (3S)-3-(2-methylpyrimidin-5-yl)-9-(5,6,7,8-tetrahydro-1,8-naphthyridin-2-yl)nonanoic acid
Name: PharmaGSID_47333
Formula: C22H30N4O2
Exact mass: 382.2369
SMILES: CC1=NC=C(C=N1)[C@@H](CCCCCCC1=NC2=C(CCCN2)C=C1)CC(O)=O
InChI: InChI=1S/C22H30N4O2/c1-16-24-14-19(15-25-16)18(13-21(27)28)7-4-2-3-5-9-20-11-10-17-8-6-12-23-22(17)26-20/h10-11,14-15,18H,2-9,12-13H2,1H3,(H,23,26)(H,27,28)/t18-/m0/s1
Instrument: Q Exactive Orbitrap (Thermo Scientific)
Instrument type: LC-ESI-QFT
Ms type: MS2
Ion mode: POSITIVE
Ionization: ESI
Fragmentation mode: HCD
Collision energy: 75
Resolution: 17500
Column name: Acquity BEH C18 1.7um, 2.1x150mm (Waters)
Retention time: 13.643 min
Base peak: 79.0212
Precursor m/z: 383.2442
Precursor type: [M+H]+
Precursor intensity: 22782932
m/z	relative intensity	assigned
65.0386	1	C5H5+
67.0541	1	C5H7+
68.0494	1	C4H6N+
70.0651	1	C4H8N+
79.0542	3	C6H7+
80.0494	10	C5H6N+
82.0652	2	C5H8N+
91.0542	3	C7H7+
92.0496	1	C6H6N+
93.0574	2	C6H7N+
93.0697	2	C7H9+
94.0651	5	C6H8N+
95.0604	1	C5H7N2+
103.0542	1	C8H7+
104.0495	1	C7H6N+
105.0448	1	C6H5N2+
105.07	3	C8H9+
106.0651	5	C7H8N+
107.0603	9	C6H7N2+
107.0729	1	C7H9N+
108.0442	2	C6H6NO+
108.0681	5	C6H8N2+
108.0807	1	C7H10N+
109.076	1	C6H9N2+
110.0599	2	C6H8NO+
116.0496	1	C8H6N+
117.0573	1	C8H7N+
117.0698	1	C9H9+
118.0649	2	C8H8N+
119.0604	5	C7H7N2+
119.0854	1	C9H11+
120.0682	17	C7H8N2+
120.0807	8	C8H10N+
121.076	35	C7H9N2+
122.0838	10	C7H10N2+
123.0551	4	C6H7N2O+
123.0918	1	C7H11N2+
125.0709	1	C6H9N2O+
130.065	4	C9H8N+
131.0604	1	C8H7N2+
132.0681	10	C8H8N2+
132.0807	1	C9H10N+
133.076	63	C8H9N2+
134.0602	1	C8H8NO+
134.0838	10	C8H10N2+
134.0961	3	C9H12N+
135.0916	13	C8H11N2+
135.1042	3	C9H13N+
144.0684	3	C9H8N2+
144.0807	2	C10H10N+
145.0761	10	C9H9N2+
146.0839	9	C9H10N2+
146.0962	1	C10H12N+
147.0917	223	C9H11N2+
148.0994	514	C9H12N2+
149.1073	5	C9H13N2+
151.0867	1	C8H11N2O+
157.0759	4	C10H9N2+
159.0918	9	C10H11N2+
160.0992	2	C10H12N2+
161.1072	999	C10H13N2+
162.115	43	C10H14N2+
165.102	2	C9H13N2O+
169.0759	1	C11H9N2+
171.0917	3	C11H11N2+
172.0994	3	C11H12N2+
173.1073	21	C11H13N2+
174.115	5	C11H14N2+
175.1229	146	C11H15N2+
179.1178	1	C10H15N2O+
183.0917	1	C12H11N2+
185.1072	3	C12H13N2+
186.1152	1	C12H14N2+
187.1229	11	C12H15N2+
188.1304	1	C12H16N2+
189.1386	13	C12H17N2+
197.1074	1	C13H13N2+
199.1228	1	C13H15N2+
201.1387	1	C13H17N2+
203.1542	10	C13H19N2+
211.1231	1	C14H15N2+
213.1384	1	C14H17N2+
215.1544	1	C14H19N2+
216.1495	1	C13H18N3+
217.1699	7	C14H21N2+
225.1385	1	C15H17N2+
237.1382	1	C16H17N2+
265.1697	2	C18H21N2+
295.1924	2	C18H23N4+
323.2229	9	C20H27N4+
