Mass spectrum: Strychnine; LC-ESI-QFT; MS2; CE: 60; R=17500; [M+H]+
Name: Strychnine
Name: (4aR,5aS,8aR,13aS,15aS,15bR)-4a,5,5a,7,8,13a,15,15a,15b,16-decahydro-2H-4,6-methanoindolo[3,2,1-ij]oxepino[2,3,4-de]pyrrolo[2,3-h]quinolin-14-one
Formula: C21H22N2O2
Exact mass: 334.1681
SMILES: O=C1C[C@@H]2OCC=C3CN4CC[C@]56c7ccccc7N1[C@H]5[C@H]2[C@H]3C[C@H]46
InChI: InChI=1S/C21H22N2O2/c24-18-10-16-19-13-9-17-21(6-7-22(17)11-12(13)5-8-25-16)14-3-1-2-4-15(14)23(18)20(19)21/h1-5,13,16-17,19-20H,6-11H2/t13-,16-,17-,19-,20-,21+/m0/s1
Instrument: Q Exactive Orbitrap (Thermo Scientific)
Instrument type: LC-ESI-QFT
Ms type: MS2
Ion mode: POSITIVE
Ionization: ESI
Fragmentation mode: HCD
Collision energy: 60
Resolution: 17500
Column name: Acquity BEH C18 1.7um, 2.1x150mm (Waters)
Retention time: 10.965 min
Base peak: 79.0211
Precursor m/z: 335.1754
Precursor type: [M+H]+
Precursor intensity: 19589969.90625
m/z	relative intensity	assigned
53.0385	3	C4H5+
55.0178	25	C3H3O+
55.0542	6	C4H7+
56.0495	18	C3H6N+
58.0651	1	C3H8N+
65.0385	1	C5H5+
67.0541	8	C5H7+
68.0495	9	C4H6N+
69.0334	7	C4H5O+
69.0698	1	C5H9+
70.0651	7	C4H8N+
71.0491	3	C4H7O+
79.0542	20	C6H7+
80.0494	10	C5H6N+
81.0334	2	C5H5O+
81.0699	25	C6H9+
82.0651	4	C5H8N+
83.0491	4	C5H7O+
84.0443	3	C4H6NO+
86.06	1	C4H8NO+
91.0542	17	C7H7+
92.0495	1	C6H6N+
93.0573	9	C6H7N+
93.0699	20	C7H9+
94.0651	14	C6H8N+
95.0491	22	C6H7O+
95.0729	1	C6H9N+
95.0855	4	C7H11+
96.0808	10	C6H10N+
97.0647	2	C6H9O+
98.0602	1	C5H8NO+
103.0541	2	C8H7+
105.0699	10	C8H9+
106.0651	19	C7H8N+
107.0491	2	C7H7O+
107.073	2	C7H9N+
107.0855	3	C8H11+
108.0807	39	C7H10N+
109.0648	7	C7H9O+
109.0885	1	C7H11N+
110.0598	1	C6H8NO+
110.0964	3	C7H12N+
115.0544	1	C9H7+
117.0572	1	C8H7N+
117.0699	4	C9H9+
118.0651	10	C8H8N+
119.0856	6	C9H11+
120.0444	1	C7H6NO+
120.0807	5	C8H10N+
121.0647	14	C8H9O+
121.1013	1	C9H13+
122.06	26	C7H8NO+
122.0963	5	C8H12N+
123.0803	1	C8H11O+
124.0757	20	C7H10NO+
128.062	1	C10H8+
129.0698	14	C10H9+
130.0651	20	C9H8N+
131.0728	1	C9H9N+
131.0856	3	C10H11+
132.0444	2	C8H6NO+
132.0808	7	C9H10N+
133.0647	1	C9H9O+
134.0965	4	C9H12N+
135.0802	2	C9H11O+
136.0757	3	C8H10NO+
136.112	1	C9H14N+
138.0913	4	C8H12NO+
142.0651	2	C10H8N+
143.0731	1	C10H9N+
143.0854	1	C11H11+
144.0808	69	C10H10N+
145.0648	1	C10H9O+
146.06	3	C9H8NO+
146.0966	1	C10H12N+
147.0803	4	C10H11O+
148.0756	3	C9H10NO+
149.0597	2	C9H9O2+
150.0911	1	C9H12NO+
152.107	1	C9H14NO+
154.0649	8	C11H8N+
156.0808	126	C11H10N+
158.0599	4	C10H8NO+
158.0837	1	C10H10N2+
158.0964	3	C11H12N+
159.0919	2	C10H11N2+
160.0757	3	C10H10NO+
162.0911	1	C10H12NO+
162.1274	1	C11H16N+
166.0649	1	C12H8N+
167.0729	6	C12H9N+
168.0807	26	C12H10N+
169.0761	10	C11H9N2+
169.0884	3	C12H11N+
170.06	5	C11H8NO+
170.0964	14	C12H12N+
171.0915	14	C11H11N2+
172.0756	3	C11H10NO+
176.0706	2	C10H10NO2+
180.0807	13	C13H10N+
181.0884	5	C13H11N+
182.06	8	C12H8NO+
182.0964	17	C13H12N+
183.0679	6	C12H9NO+
183.0917	1	C12H11N2+
184.0757	517	C12H10NO+
185.0711	1	C11H9N2O+
185.1071	1	C12H13N2+
186.0787	3	C11H10N2O+
186.0914	6	C12H12NO+
187.0865	1	C11H11N2O+
191.0731	1	C14H9N+
192.0807	2	C14H10N+
193.089	2	C14H11N+
194.0601	13	C13H8NO+
194.0965	49	C14H12N+
196.0757	34	C13H10NO+
196.112	2	C14H14N+
197.0712	2	C12H9N2O+
197.0833	4	C13H11NO+
197.1071	1	C13H13N2+
198.0548	3	C12H8NO2+
198.0913	44	C13H12NO+
199.0869	1	C12H11N2O+
200.0705	8	C12H10NO2+
204.0807	8	C15H10N+
205.0886	3	C15H11N+
206.0964	19	C15H12N+
207.1039	4	C15H13N+
208.0754	4	C14H10NO+
208.1118	6	C15H14N+
209.0834	2	C14H11NO+
209.1073	1	C14H13N2+
210.0914	19	C14H12NO+
210.1274	1	C15H16N+
212.0705	8	C13H10NO2+
212.1071	8	C14H14NO+
213.1021	1	C13H13N2O+
214.0859	5	C13H12NO2+
216.0815	1	C16H10N+
217.0885	6	C16H11N+
218.0964	12	C16H12N+
219.104	5	C16H13N+
220.0757	60	C15H10NO+
220.1119	21	C16H14N+
221.0836	8	C15H11NO+
221.1198	2	C16H15N+
222.0913	119	C15H12NO+
222.1273	12	C16H16N+
223.0989	1	C15H13NO+
224.1067	5	C15H14NO+
226.0861	4	C14H12NO2+
230.0966	5	C17H12N+
231.1043	4	C17H13N+
232.0759	3	C16H10NO+
232.112	11	C17H14N+
233.0832	3	C16H11NO+
233.1199	2	C17H15N+
234.0913	57	C16H12NO+
234.1275	12	C17H16N+
235.0992	2	C16H13NO+
235.1226	2	C16H15N2+
235.1354	2	C17H17N+
236.0707	2	C15H10NO2+
236.107	9	C16H14NO+
236.1432	9	C17H18N+
237.1025	4	C15H13N2O+
237.1382	1	C16H17N2+
238.0864	8	C15H12NO2+
238.122	3	C16H16NO+
239.1176	1	C15H15N2O+
243.1035	1	C18H13N+
244.1118	9	C18H14N+
245.1072	1	C17H13N2+
245.1201	2	C18H15N+
246.0914	19	C17H12NO+
246.1144	1	C17H14N2+
246.1277	11	C18H16N+
247.0995	3	C17H13NO+
247.1223	1	C17H15N2+
248.1069	34	C17H14NO+
248.1433	4	C18H18N+
249.1148	2	C17H15NO+
250.0865	1	C16H12NO2+
250.1226	7	C17H16NO+
255.1046	1	C19H13N+
257.0837	6	C18H11NO+
257.1193	1	C19H15N+
258.0913	1	C18H12NO+
258.1273	1	C19H16N+
259.0992	5	C18H13NO+
260.1071	7	C18H14NO+
260.1426	4	C19H18N+
261.1151	10	C18H15NO+
262.1227	52	C18H16NO+
263.1178	2	C17H15N2O+
263.1315	1	C18H17NO+
264.1019	164	C17H14NO2+
265.1334	1	C17H17N2O+
266.1044	1	C16H14N2O2+
266.1176	19	C17H16NO2+
271.0985	1	C19H13NO+
272.107	32	C19H14NO+
273.1141	3	C19H15NO+
274.1226	19	C19H16NO+
276.1386	2	C19H18NO+
277.133	1	C18H17N2O+
278.1182	4	C18H16NO2+
278.1532	5	C19H20NO+
279.1487	1	C18H19N2O+
280.1339	4	C18H18NO2+
288.1377	5	C20H18NO+
289.1339	9	C19H17N2O+
290.1175	24	C19H16NO2+
290.154	2	C20H20NO+
291.149	2	C19H19N2O+
292.1333	13	C19H18NO2+
306.1489	12	C20H20NO2+
307.1441	44	C19H19N2O2+
317.1642	2	C21H21N2O+
335.1753	999	C21H23N2O2+
