Mass spectrum: Fenbuconazole; LC-ESI-QFT; MS2; CE: 15; R=17500; [M+H]+
Name: Fenbuconazole
Name: 4-(4-chlorophenyl)-2-phenyl-2-(1,2,4-triazol-1-ylmethyl)butanenitrile
Formula: C19H17ClN4
Exact mass: 336.1142
SMILES: ClC1=CC=C(CCC(CN2C=NC=N2)(C#N)C2=CC=CC=C2)C=C1
InChI: InChI=1S/C19H17ClN4/c20-18-8-6-16(7-9-18)10-11-19(12-21,13-24-15-22-14-23-24)17-4-2-1-3-5-17/h1-9,14-15H,10-11,13H2
Instrument: Q Exactive Orbitrap (Thermo Scientific)
Instrument type: LC-ESI-QFT
Ms type: MS2
Ion mode: POSITIVE
Ionization: ESI
Fragmentation mode: HCD
Collision energy: 15
Resolution: 17500
Column name: Acquity BEH C18 1.7um, 2.1x150mm (Waters)
Retention time: 18.181 min
Base peak: 79.0211
Precursor m/z: 337.1215
Precursor type: [M+H]+
Precursor intensity: 12371279.6875
m/z	relative intensity	assigned
70.0399	135	C2H4N3+
125.0149	17	C7H6Cl+
190.0419	1	C11H9ClN+
194.048	14	C9H9ClN3+
241.0774	2	C16H14Cl+
337.1213	999	C19H18ClN4+
