Mass spectrum: Quercetin; LC-ESI-QFT; MS2; CE: 90; R=17500; [M-H]-
Name: Quercetin
Name: 2-(3,4-dihydroxyphenyl)-3,5,7-trihydroxychromen-4-one
Formula: C15H10O7
Exact mass: 302.0427
SMILES: OC1=CC2=C(C(O)=C1)C(=O)C(O)=C(O2)C1=CC(O)=C(O)C=C1
InChI: InChI=1S/C15H10O7/c16-7-4-10(19)12-11(5-7)22-15(14(21)13(12)20)6-1-2-8(17)9(18)3-6/h1-5,16-19,21H
Instrument: Q Exactive Orbitrap (Thermo Scientific)
Instrument type: LC-ESI-QFT
Ms type: MS2
Ion mode: NEGATIVE
Ionization: ESI
Fragmentation mode: HCD
Collision energy: 90
Resolution: 17500
Column name: Acquity BEH C18 1.7um, 2.1x150mm (Waters)
Retention time: 15.510 min
Base peak: 112.9856
Precursor m/z: 301.0354
Precursor type: [M-H]-
Precursor intensity: 1550356.48584
m/z	relative intensity	assigned
63.024	480	C5H3-
65.0033	999	C4HO-
83.0138	215	C4H3O2-
93.0346	353	C6H5O-
95.014	17	C5H3O2-
107.0139	133	C6H3O2-
108.0217	29	C6H4O2-
109.0295	62	C6H5O2-
117.0348	17	C8H5O-
121.0295	163	C7H5O2-
124.0165	9	C6H4O3-
133.0295	55	C8H5O2-
135.0088	9	C7H3O3-
135.0454	15	C8H7O2-
139.04	42	C7H7O3-
145.0298	14	C9H5O2-
147.0453	9	C9H7O2-
149.0249	12	C8H5O3-
151.0038	28	C7H3O4-
159.0457	13	C10H7O2-
161.0246	26	C9H5O3-
163.0039	11	C8H3O4-
171.0451	12	C11H7O2-
187.0398	11	C11H7O3-
