Mass spectrum: Nilutamide; LC-ESI-QFT; MS2; CE: 15; R=17500; [M-H]-
Name: Nilutamide
Name: 5,5-dimethyl-3-[4-nitro-3-(trifluoromethyl)phenyl]imidazolidine-2,4-dione
Formula: C12H10F3N3O4
Exact mass: 317.0623
SMILES: CC1(C)NC(=O)N(C1=O)C1=CC(=C(C=C1)[N+]([O-])=O)C(F)(F)F
InChI: InChI=1S/C12H10F3N3O4/c1-11(2)9(19)17(10(20)16-11)6-3-4-8(18(21)22)7(5-6)12(13,14)15/h3-5H,1-2H3,(H,16,20)
Instrument: Q Exactive Orbitrap (Thermo Scientific)
Instrument type: LC-ESI-QFT
Ms type: MS2
Ion mode: NEGATIVE
Ionization: ESI
Fragmentation mode: HCD
Collision energy: 15
Resolution: 17500
Column name: Acquity BEH C18 1.7um, 2.1x150mm (Waters)
Retention time: 16.669 min
Base peak: 316.0549
Precursor m/z: 316.0551
Precursor type: [M-H]-
Precursor intensity: 71828476.0498
m/z	relative intensity	assigned
84.0456	1	C4H6NO-
205.0231	68	C7H4F3N2O2-
273.0495	44	C11H8F3N2O3-
301.0316	4	C11H6F3N3O4-
316.055	999	C12H9F3N3O4-
