Mass spectrum: Biochanin A; LC-ESI-QFT; MS2; CE: 30; R=17500; [M-H]-
Name: Biochanin A
Name: 5,7-dihydroxy-3-(4-methoxyphenyl)chromen-4-one
Formula: C16H12O5
Exact mass: 284.0685
SMILES: COC1=CC=C(C=C1)C1=COC2=C(C(O)=CC(O)=C2)C1=O
InChI: InChI=1S/C16H12O5/c1-20-11-4-2-9(3-5-11)12-8-21-14-7-10(17)6-13(18)15(14)16(12)19/h2-8,17-18H,1H3
Instrument: Q Exactive Orbitrap (Thermo Scientific)
Instrument type: LC-ESI-QFT
Ms type: MS2
Ion mode: NEGATIVE
Ionization: ESI
Fragmentation mode: HCD
Collision energy: 30
Resolution: 17500
Column name: Acquity BEH C18 1.7um, 2.1x150mm (Waters)
Retention time: 17.739 min
Base peak: 283.0612
Precursor m/z: 283.0612
Precursor type: [M-H]-
Precursor intensity: 69111894.9375
m/z	relative intensity	assigned
132.0219	1	C8H4O2-
223.0396	1	C14H7O3-
224.0477	3	C14H8O3-
239.0344	2	C14H7O4-
240.0432	2	C14H8O4-
267.0302	6	C15H7O5-
268.0377	916	C15H8O5-
283.0612	999	C16H11O5-
