Mass spectrum: Imazaquin; LC-ESI-QFT; MS2; CE: 60; R=17500; [M-H]-
Name: Imazaquin
Name: 2-(4-methyl-5-oxo-4-propan-2-yl-1H-imidazol-2-yl)quinoline-3-carboxylic acid
Formula: C17H17N3O3
Exact mass: 311.1270
SMILES: CC(C)C1(C)N=C(NC1=O)C1=NC2=C(C=CC=C2)C=C1C(O)=O
InChI: InChI=1S/C17H17N3O3/c1-9(2)17(3)16(23)19-14(20-17)13-11(15(21)22)8-10-6-4-5-7-12(10)18-13/h4-9H,1-3H3,(H,21,22)(H,19,20,23)
Instrument: Q Exactive Orbitrap (Thermo Scientific)
Instrument type: LC-ESI-QFT
Ms type: MS2
Ion mode: NEGATIVE
Ionization: ESI
Fragmentation mode: HCD
Collision energy: 60
Resolution: 17500
Column name: Acquity BEH C18 1.7um, 2.1x150mm (Waters)
Retention time: 15.331 min
Base peak: 259.0088
Precursor m/z: 310.1197
Precursor type: [M-H]-
Precursor intensity: 3424691.740723
m/z	relative intensity	assigned
183.0563	5	C11H7N2O-
208.0517	187	C12H6N3O-
222.0673	213	C13H8N3O-
223.0751	999	C13H9N3O-
224.0826	4	C13H10N3O-
236.083	114	C14H10N3O-
251.1064	11	C15H13N3O-
