Mass spectrum: Sulfasalazine; LC-ESI-QFT; MS2; CE: 45; R=17500; [M+H]+
Name: Sulfasalazine
Name: 2-hydroxy-5-[[4-(pyridin-2-ylsulfamoyl)phenyl]diazenyl]benzoic acid
Formula: C18H14N4O5S
Exact mass: 398.0685
SMILES: C1=CC=NC(=C1)NS(=O)(=O)C2=CC=C(C=C2)N=NC3=CC(=C(C=C3)O)C(=O)O
InChI: InChI=1S/C18H14N4O5S/c23-16-9-6-13(11-15(16)18(24)25)21-20-12-4-7-14(8-5-12)28(26,27)22-17-3-1-2-10-19-17/h1-11,23H,(H,19,22)(H,24,25)
Instrument: Q Exactive Orbitrap (Thermo Scientific)
Instrument type: LC-ESI-QFT
Ms type: MS2
Ion mode: POSITIVE
Ionization: ESI
Fragmentation mode: HCD
Collision energy: 45
Resolution: 17500
Column name: Acquity BEH C18 1.7um, 2.1x150mm (Waters)
Retention time: 16.948 min
Base peak: 79.0211
Precursor m/z: 399.0758
Precursor type: [M+H]+
Precursor intensity: 1223138.125
m/z	relative intensity	assigned
53.0023	18	C3HO+
53.0386	8	C4H5+
67.0417	90	C4H5N+
68.9971	8	C3HO2+
81.0336	41	C5H5O+
91.0179	133	C6H3O+
93.0448	16	C5H5N2+
94.0527	719	C5H6N2+
95.0491	11	C6H7O+
95.0604	55	C5H7N2+
105.0449	15	C6H5N2+
106.029	9	C6H4NO+
107.0128	13	C6H3O2+
109.0285	22	C6H5O2+
111.0441	21	C6H7O2+
111.0557	9	C5H7N2O+
115.0543	21	C9H7+
119.0129	740	C7H3O2+
121.0399	42	C6H5N2O+
122.0238	51	C6H4NO2+
134.0237	24	C7H4NO2+
137.0235	144	C7H5O3+
139.0544	179	C11H7+
140.062	7	C11H8+
143.0606	10	C9H7N2+
147.019	17	C7H3N2O2+
152.0344	101	C7H6NO3+
155.0342	58	C7H7O4+
157.0069	37	C5H5N2O2S+
158.06	6	C10H8NO+
165.0297	999	C7H5N2O3+
167.0498	14	C12H7O+
167.0604	28	C11H7N2+
168.0573	16	C12H8O+
168.0683	21	C11H8N2+
169.0761	75	C11H9N2+
171.0553	24	C10H7N2O+
177.0343	10	C13H5O+
179.0453	22	C8H7N2O3+
183.0553	13	C11H7N2O+
185.0712	66	C11H9N2O+
186.0552	25	C11H8NO2+
195.0552	11	C12H7N2O+
197.0716	11	C6H15NO4S+
199.0504	29	C11H7N2O2+
202.0734	9	C11H10N2O2+
213.066	422	C12H9N2O2+
223.0501	45	C13H7N2O2+
226.0612	31	C12H8N3O2+
241.0609	415	C13H9N2O3+
242.0689	81	C13H10N2O3+
256.0483	21	C13H8N2O4+
257.0559	370	C13H9N2O4+
259.0718	162	C13H11N2O4+
261.1023	11	C17H13N2O+
269.0675	32	C13H9N4O3+
273.0509	330	C13H9N2O5+
287.0799	40	C10H15N4O4S+
289.1092	15	C17H13N4O+
305.0226	17	C13H9N2O5S+
315.088	62	C18H11N4O2+
317.1039	124	C18H13N4O2+
332.0911	23	C18H12N4O3+
333.0983	60	C18H13N4O3+
335.1143	9	C18H15N4O3+
349.0935	22	C18H13N4O4+
381.0659	140	C18H13N4O4S+
399.0761	12	C18H15N4O5S+
