Mass spectrum: Coumaphos; LC-ESI-QFT; MS2; CE: 45; R=17500; [M+H]+
Name: Coumaphos
Formula: C14H16ClO5PS
Exact mass: 362.0145
SMILES: CCOP(=S)(OCC)OC1=CC2=C(C=C1)C(C)=C(Cl)C(=O)O2
InChI: InChI=1S/C14H16ClO5PS/c1-4-17-21(22,18-5-2)20-10-6-7-11-9(3)13(15)14(16)19-12(11)8-10/h6-8H,4-5H2,1-3H3
Instrument: Q Exactive Orbitrap (Thermo Scientific)
Instrument type: LC-ESI-QFT
Ms type: MS2
Ion mode: POSITIVE
Ionization: ESI
Fragmentation mode: HCD
Collision energy: 45
Resolution: 17500
Column name: Acquity BEH C18 1.7um, 2.1x150mm (Waters)
Retention time: 18.628 min
Base peak: 79.0212
Precursor m/z: 363.0217
Precursor type: [M+H]+
Precursor intensity: 5855411.21875
m/z	relative intensity	assigned
65.0386	3	C5H5+
91.0542	80	C7H7+
98.9841	999	H4O4P+
100.9883	24	C3HO4+
103.0542	5	C8H7+
109.0049	15	C2H6O3P+
114.9613	94	H4O3PS+
115.0542	11	C9H7+
116.9947	15	H6O5P+
119.0491	10	C8H7O+
121.0286	5	C7H5O2+
122.0317	7	C4H11PS+
127.0154	186	C2H8O4P+
131.0104	16	CH8O5P+
131.0492	11	C9H7O+
131.0856	7	C10H11+
132.057	10	C9H8O+
147.0262	27	C9H7S+
148.0339	5	C9H8S+
155.0467	25	C4H12O4P+
163.0212	16	C9H7OS+
164.029	12	C9H8OS+
169.9683	7	C7H4ClOP+
171.0024	3	C7H8OPS+
173.9625	109	C6H4ClO2P+
191.0161	20	C10H7O2S+
193.0048	5	C9H6O3P+
194.0131	34	C10H7ClO2+
196.9822	10	C9H6ClOS+
198.9972	4	C8H8O2PS+
207.9377	3	C8HO3PS+
208.9314	296	C5H2ClO5S+
210.008	7	C10H7ClO3+
211.0156	400	C10H8ClO3+
224.9773	49	C10H6ClO2S+
225.985	93	C10H7ClO2S+
242.9877	3	C10H8ClO3S+
255.0235	6	C11H12O3PS+
256.9754	3	C10H7ClO4P+
270.938	9	C10H5ClO3PS+
272.0083	13	C14H9O2PS+
273.0118	27	C8H15ClO4PS+
288.0029	3	C14H9O3PS+
288.9484	330	C10H7ClO4PS+
289.007	22	C8H15ClO5PS+
289.0431	26	C12H15ClO4P+
290.982	55	C14H9ClOPS+
306.959	111	C10H9ClO5PS+
317.0378	28	C13H15ClO5P+
320.9747	56	C11H11ClO5PS+
334.9906	21	C12H13ClO5PS+
