Mass spectrum: 3-Trifluoromethyl-4-nitrophenol; LC-ESI-QFT; MS2; CE: 15; R=17500; [M-H]-
Name: 3-Trifluoromethyl-4-nitrophenol
Name: 4-nitro-3-(trifluoromethyl)phenol
Formula: C7H4F3NO3
Exact mass: 207.0143
SMILES: OC1=CC(=C(C=C1)[N+]([O-])=O)C(F)(F)F
InChI: InChI=1S/C7H4F3NO3/c8-7(9,10)5-3-4(12)1-2-6(5)11(13)14/h1-3,12H
Instrument: Q Exactive Orbitrap (Thermo Scientific)
Instrument type: LC-ESI-QFT
Ms type: MS2
Ion mode: NEGATIVE
Ionization: ESI
Fragmentation mode: HCD
Collision energy: 15
Resolution: 17500
Column name: Acquity BEH C18 1.7um, 2.1x150mm (Waters)
Retention time: 16.544 min
Base peak: 206.0069
Precursor m/z: 206.0071
Precursor type: [M-H]-
Precursor intensity: 167123884.627
m/z	relative intensity	assigned
65.9985	1	C3NO-
74.0036	1	C5N-
120.009	3	C6H2NO2-
160.0138	1	C7H3F3O-
176.009	50	C7H3F3O2-
206.0069	999	C7H3F3NO3-
