Mass spectrum: 4-Nitro-N-phenylaniline; LC-ESI-QFT; MS2; CE: 30; R=17500; [M-H]-
Name: 4-Nitro-N-phenylaniline
Name: 4-Nitrodiphenylamine
Formula: C12H10N2O2
Exact mass: 214.0742
SMILES: [O-][N+](=O)C1=CC=C(NC2=CC=CC=C2)C=C1
InChI: InChI=1S/C12H10N2O2/c15-14(16)12-8-6-11(7-9-12)13-10-4-2-1-3-5-10/h1-9,13H
Instrument: Q Exactive Orbitrap (Thermo Scientific)
Instrument type: LC-ESI-QFT
Ms type: MS2
Ion mode: NEGATIVE
Ionization: ESI
Fragmentation mode: HCD
Collision energy: 30
Resolution: 17500
Column name: Acquity BEH C18 1.7um, 2.1x150mm (Waters)
Retention time: 17.870 min
Base peak: 213.067
Precursor m/z: 213.067
Precursor type: [M-H]-
Precursor intensity: 31984289.66602
m/z	relative intensity	assigned
93.0346	2	C6H5O-
182.061	2	C12H8NO-
183.0689	50	C12H9NO-
211.0515	7	C12H7N2O2-
213.0669	999	C12H9N2O2-
