Mass spectrum: AVE6324; LC-ESI-QFT; MS2; CE: 45; R=17500; [M-H]-
Name: AVE6324
Name: [(1R)-1-ethoxycarbonyloxyethyl] 1-[[5-(5-chlorothiophen-2-yl)-1,2-oxazol-3-yl]methyl]-2-[(1-propan-2-ylpiperidin-4-yl)carbamoyl]indole-5-carboxylate
Formula: C31H35ClN4O7S
Exact mass: 642.1915
SMILES: CCOC(=O)O[C@H](C)OC(=O)c1ccc2c(c1)cc(C(=O)NC1CCN(C(C)C)CC1)n2Cc1cc(-c2ccc(Cl)s2)on1
InChI: InChI=1S/C31H35ClN4O7S/c1-5-40-31(39)42-19(4)41-30(38)20-6-7-24-21(14-20)15-25(29(37)33-22-10-12-35(13-11-22)18(2)3)36(24)17-23-16-26(43-34-23)27-8-9-28(32)44-27/h6-9,14-16,18-19,22H,5,10-13,17H2,1-4H3,(H,33,37)/t19-/m1/s1
Instrument: Q Exactive Orbitrap (Thermo Scientific)
Instrument type: LC-ESI-QFT
Ms type: MS2
Ion mode: NEGATIVE
Ionization: ESI
Fragmentation mode: HCD
Collision energy: 45
Resolution: 17500
Column name: Acquity BEH C18 1.7um, 2.1x150mm (Waters)
Retention time: 17.265 min
Base peak: 112.9857
Precursor m/z: 641.1842
Precursor type: [M-H]-
Precursor intensity: 799756.296875
m/z	relative intensity	assigned
56.9806	2	C2HS-
65.9985	9	C3NO-
74.0036	3	C5N-
80.9805	19	C4HS-
89.0244	127	C3H5O3-
90.035	7	C6H4N-
104.9804	7	C6HS-
108.9713	4	HN2O3S-
108.9754	47	C5HOS-
114.0347	2	C8H4N-
115.0426	5	C8H5N-
116.0506	263	C8H6N-
116.9571	7	C4H2ClS-
118.03	12	C7H4NO-
131.0375	7	C8H5NO-
131.9914	12	C7H2NS-
132.9754	68	C7HOS-
140.0505	4	C10H6N-
146.0248	3	C8H4NO2-
158.0613	15	C10H8NO-
159.0327	14	C9H5NO2-
159.9863	109	C8H2NOS-
160.0404	470	C9H6NO2-
186.0561	24	C11H8NO2-
188.0717	999	C11H10NO2-
284.1769	15	C17H22N3O-
354.1822	42	C20H24N3O3-
356.1981	587	C20H26N3O3-
