Mass spectrum: Biotin; LC-ESI-QFT; MS2; CE: 60; R=17500; [M+H]+
Name: Biotin
Name: 5-[(3aS,4S,6aR)-2-oxo-1,3,3a,4,6,6a-hexahydrothieno[3,4-d]imidazol-4-yl]pentanoic acid
Formula: C10H16N2O3S
Exact mass: 244.0882
SMILES: OC(=O)CCCC[C@@H]1SC[C@@H]2NC(=O)N[C@H]12
InChI: InChI=1S/C10H16N2O3S/c13-8(14)4-2-1-3-7-9-6(5-16-7)11-10(15)12-9/h6-7,9H,1-5H2,(H,13,14)(H2,11,12,15)/t6-,7-,9-/m0/s1
Instrument: Q Exactive Orbitrap (Thermo Scientific)
Instrument type: LC-ESI-QFT
Ms type: MS2
Ion mode: POSITIVE
Ionization: ESI
Fragmentation mode: HCD
Collision energy: 60
Resolution: 17500
Column name: Acquity BEH C18 1.7um, 2.1x150mm (Waters)
Retention time: 11.913 min
Base peak: 79.0212
Precursor m/z: 245.0954
Precursor type: [M+H]+
Precursor intensity: 5084131.75
m/z	relative intensity	assigned
54.0338	11	C3H4N+
55.0179	8	C3H3O+
55.0542	129	C4H7+
56.0495	34	C3H6N+
57.0699	12	C4H9+
58.0652	7	C3H8N+
58.995	53	C2H3S+
59.0491	16	C3H7O+
61.0106	72	C2H5S+
61.0396	98	CH5N2O+
65.0386	8	C5H5+
67.0542	185	C5H7+
68.0494	25	C4H6N+
69.0447	5	C3H5N2+
69.0698	51	C5H9+
70.0286	15	C3H4NO+
70.0651	6	C4H8N+
71.0491	30	C4H7O+
73.0106	34	C3H5S+
74.0059	46	C2H4NS+
76.0215	133	C2H6NS+
79.0212	15	C2H7OS+
79.0542	181	C6H7+
80.0494	22	C5H6N+
81.0698	138	C6H9+
82.0287	109	C4H4NO+
82.0651	17	C5H8N+
83.0492	60	C5H7O+
84.0443	15	C4H6NO+
85.0106	99	C4H5S+
85.0396	18	C3H5N2O+
85.0648	17	C5H9O+
86.0059	23	C3H4NS+
87.0263	44	C4H7S+
89.0421	6	C4H9S+
91.0542	78	C7H7+
93.0699	50	C7H9+
94.0653	24	C6H8N+
95.049	15	C6H7O+
95.0855	73	C7H11+
96.0444	13	C5H6NO+
96.0807	21	C6H10N+
97.0107	389	C5H5S+
97.0396	999	C4H5N2O+
98.0964	48	C6H12N+
99.0262	61	C5H7S+
99.0553	24	C4H7N2O+
100.0215	106	C4H6NS+
101.0054	8	C4H5OS+
101.0419	56	C5H9S+
102.0007	41	C3H4NOS+
103.054	7	C8H7+
105.0699	388	C8H9+
106.0649	23	C7H8N+
107.0855	58	C8H11+
108.0443	10	C6H6NO+
108.0807	106	C7H10N+
109.0649	23	C7H9O+
110.0965	9	C7H12N+
110.9898	9	C5H3OS+
111.0263	107	C6H7S+
111.0552	19	C5H7N2O+
112.0215	73	C5H6NS+
113.0419	95	C6H9S+
114.0008	9	C4H4NOS+
114.0371	11	C5H8NS+
115.0581	49	C6H11S+
116.0621	6	C9H8+
118.0649	7	C8H8N+
120.0808	52	C8H10N+
121.0648	65	C8H9O+
122.06	5	C7H8NO+
122.0964	81	C8H12N+
123.0263	804	C7H7S+
124.0758	22	C7H10NO+
125.0295	28	C6H7NS+
125.042	120	C7H9S+
126.0007	15	C5H4NOS+
126.0368	4	C6H8NS+
126.0912	6	C7H12NO+
128.0163	14	C5H6NOS+
131.0272	31	C4H7N2OS+
132.0808	50	C9H10N+
133.0649	55	C9H9O+
133.0885	93	C9H11N+
134.0183	15	C8H6S+
134.0595	11	C8H8NO+
136.0758	17	C8H10NO+
137.0418	29	C8H9S+
137.071	11	C7H9N2O+
138.0006	54	C6H4NOS+
138.0372	60	C7H8NS+
139.0576	464	C8H11S+
140.0164	21	C6H6NOS+
140.053	15	C7H10NS+
141.0116	13	C5H5N2OS+
142.0324	15	C6H8NOS+
142.0685	8	C7H12NS+
143.0273	64	C5H7N2OS+
148.0757	34	C9H10NO+
149.042	150	C9H9S+
150.0913	53	C9H12NO+
151.0757	7	C9H11O2+
151.0865	131	C8H11N2O+
152.0942	19	C8H12N2O+
153.1021	63	C8H13N2O+
153.9593	12	C5NO3S+
154.0684	37	C8H12NS+
155.0271	27	C6H7N2OS+
156.0478	22	C7H10NOS+
156.0843	54	C8H14NS+
157.0111	66	C10H5S+
163.0864	30	C9H11N2O+
164.0165	17	C8H6NOS+
164.0529	46	C9H10NS+
165.1024	46	C9H13N2O+
166.0685	460	C9H12NS+
167.0525	286	C9H11OS+
175.0865	15	C10H11N2O+
181.097	13	C9H13N2O2+
182.0634	59	C9H12NOS+
184.0426	14	C8H10NO2S+
184.0791	243	C9H14NOS+
185.0744	79	C8H13N2OS+
192.0477	114	C10H10NOS+
193.0977	13	C10H13N2O2+
199.09	278	C9H15N2OS+
209.0743	154	C10H13N2OS+
210.0585	14	C10H12NO2S+
227.0848	783	C10H15N2O2S+
