Mass spectrum: Indinavir; LC-ESI-QFT; MS2; CE: 15; R=17500; [M+H]+
Name: Indinavir
Formula: C36H47N5O4
Exact mass: 613.3628
SMILES: CC(C)(C)NC(=O)[C@@H]1CN(Cc2cccnc2)CCN1C[C@@H](O)C[C@@H](Cc1ccccc1)C(=O)N[C@H]1c2ccccc2C[C@H]1O
InChI: InChI=1S/C36H47N5O4/c1-36(2,3)39-35(45)31-24-40(22-26-12-9-15-37-21-26)16-17-41(31)23-29(42)19-28(18-25-10-5-4-6-11-25)34(44)38-33-30-14-8-7-13-27(30)20-32(33)43/h4-15,21,28-29,31-33,42-43H,16-20,22-24H2,1-3H3,(H,38,44)(H,39,45)/t28-,29+,31+,32-,33+/m1/s1
Instrument: Q Exactive Orbitrap (Thermo Scientific)
Instrument type: LC-ESI-QFT
Ms type: MS2
Ion mode: POSITIVE
Ionization: ESI
Fragmentation mode: HCD
Collision energy: 15
Resolution: 17500
Column name: Acquity BEH C18 1.7um, 2.1x150mm (Waters)
Retention time: 15.300 min
Base peak: 79.0212
Precursor m/z: 614.3701
Precursor type: [M+H]+
Precursor intensity: 8444334.5
m/z	relative intensity	assigned
188.1068	1	C12H14NO+
277.2024	7	C15H25N4O+
320.1655	2	C21H22NO2+
364.2021	3	C22H26N3O2+
421.2364	6	C25H31N3O3+
465.2864	117	C27H37N4O3+
495.2749	1	C31H35N4O2+
513.2865	22	C31H37N4O3+
596.3601	79	C36H46N5O3+
614.3704	999	C36H48N5O4+
