Mass spectrum: Fluconazole; LC-ESI-QFT; MS2; CE: 15; R=17500; [M+H]+
Name: Fluconazole
Name: 2-(2,4-difluorophenyl)-1,3-bis(1,2,4-triazol-1-yl)propan-2-ol
Formula: C13H12F2N6O
Exact mass: 306.1041
SMILES: OC(CN1C=NC=N1)(CN1C=NC=N1)C1=C(F)C=C(F)C=C1
InChI: InChI=1S/C13H12F2N6O/c14-10-1-2-11(12(15)3-10)13(22,4-20-8-16-6-18-20)5-21-9-17-7-19-21/h1-3,6-9,22H,4-5H2
Instrument: Q Exactive Orbitrap (Thermo Scientific)
Instrument type: LC-ESI-QFT
Ms type: MS2
Ion mode: POSITIVE
Ionization: ESI
Fragmentation mode: HCD
Collision energy: 15
Resolution: 17500
Column name: Acquity BEH C18 1.7um, 2.1x150mm (Waters)
Retention time: 13.017 min
Base peak: 79.0211
Precursor m/z: 307.1113
Precursor type: [M+H]+
Precursor intensity: 6474226.4375
m/z	relative intensity	assigned
70.0399	13	C2H4N3+
169.0458	9	C9H7F2O+
220.068	197	C11H8F2N3+
238.0785	292	C11H10F2N3O+
289.1007	58	C13H11F2N6+
307.1112	999	C13H13F2N6O+
