Mass spectrum: Phenazopyridine; LC-ESI-QFT; MS2; CE: 60; R=17500; [M+H]+
Name: Phenazopyridine
Name: 3-phenyldiazenylpyridine-2,6-diamine
Formula: C11H11N5
Exact mass: 213.1014
SMILES: NC1=CC=C(N=NC2=CC=CC=C2)C(N)=N1
InChI: InChI=1S/C11H11N5/c12-10-7-6-9(11(13)14-10)16-15-8-4-2-1-3-5-8/h1-7H,(H4,12,13,14)
Instrument: Q Exactive Orbitrap (Thermo Scientific)
Instrument type: LC-ESI-QFT
Ms type: MS2
Ion mode: POSITIVE
Ionization: ESI
Fragmentation mode: HCD
Collision energy: 60
Resolution: 17500
Column name: Acquity BEH C18 1.7um, 2.1x150mm (Waters)
Retention time: 14.298 min
Base peak: 79.0211
Precursor m/z: 214.1087
Precursor type: [M+H]+
Precursor intensity: 37429817.375
m/z	relative intensity	assigned
52.0182	4	C3H2N+
53.0261	3	C3H3N+
53.0386	22	C4H5+
54.0338	7	C3H4N+
65.0386	2	C5H5+
66.0466	1	C5H6+
68.0243	499	C2H2N3+
69.0448	1	C3H5N2+
70.0398	1	C2H4N3+
71.0603	658	C3H7N2+
77.0385	13	C6H5+
79.029	4	C4H3N2+
79.0541	1	C6H7+
80.0369	241	C4H4N2+
81.0334	1	C3H3N3+
81.0447	30	C4H5N2+
82.0525	25	C4H6N2+
85.0509	3	C2H5N4+
92.0495	14	C6H6N+
93.0573	164	C6H7N+
94.0653	10	C6H8N+
95.0491	67	C4H5N3+
96.0556	999	C4H6N3+
99.0917	2	C5H11N2+
105.0448	29	C6H5N2+
107.0604	18	C6H7N2+
108.0556	27	C5H6N3+
109.0635	55	C5H7N3+
110.0461	3	C3H4N5+
110.0713	8	C5H8N3+
113.0822	20	C4H9N4+
115.0543	4	C9H7+
121.0509	89	C5H5N4+
122.0587	483	C5H6N4+
123.0664	15	C5H7N4+
124.0869	822	C6H10N3+
138.0774	29	C5H8N5+
142.0651	1	C10H8N+
153.0447	1	C10H5N2+
166.1087	130	C7H12N5+
168.0679	1	C11H8N2+
169.0758	1	C11H9N2+
170.0711	18	C10H8N3+
180.0557	4	C11H6N3+
184.0869	2	C11H10N3+
187.0978	2	C10H11N4+
197.0821	35	C11H9N4+
198.0802	1	C10H8N5+
198.09	15	C11H10N4+
199.0878	1	C10H9N5+
212.0954	3	C11H10N5+
213.101	2	C11H11N5+
214.1118	222	C11H12N5+
