Mass spectrum: 1-naphthalenesulfonate; LC-ESI-QFT; MS2; CE: 90; R=17500; [M-H]-
Name: 1-naphthalenesulfonate
Name: 1-Naphthalenesulfonic acid
Name: naphthalene-1-sulfonic acid
Formula: C10H8O3S
Exact mass: 208.0194
SMILES: OS(=O)(=O)C1=CC=CC2=C1C=CC=C2
InChI: InChI=1S/C10H8O3S/c11-14(12,13)10-7-3-5-8-4-1-2-6-9(8)10/h1-7H,(H,11,12,13)
Instrument: Q Exactive Orbitrap (Thermo Scientific)
Instrument type: LC-ESI-QFT
Ms type: MS2
Ion mode: NEGATIVE
Ionization: ESI
Fragmentation mode: HCD
Collision energy: 90
Resolution: 17500
Column name: Acquity BEH C18 1.7um, 2.1x150mm (Waters)
Retention time: 13.038 min
Base peak: 207.0121
Precursor m/z: 207.0121
Precursor type: [M-H]-
Precursor intensity: 20429097.61475
m/z	relative intensity	assigned
79.9574	999	O3S-
80.9651	8	HO3S-
115.0553	36	C9H7-
143.0502	366	C10H7O-
207.0122	6	C10H7O3S-
