Mass spectrum: Ipconazole; LC-ESI-QFT; MS2; CE: 90; R=17500; [M+H]+
Name: Ipconazole
Name: 2-[(4-chlorophenyl)methyl]-5-propan-2-yl-1-(1,2,4-triazol-1-ylmethyl)cyclopentan-1-ol
Formula: C18H24ClN3O
Exact mass: 333.1608
SMILES: CC(C)C1CCC(CC2=CC=C(Cl)C=C2)C1(O)CN1C=NC=N1
InChI: InChI=1S/C18H24ClN3O/c1-13(2)17-8-5-15(9-14-3-6-16(19)7-4-14)18(17,23)10-22-12-20-11-21-22/h3-4,6-7,11-13,15,17,23H,5,8-10H2,1-2H3
Instrument: Q Exactive Orbitrap (Thermo Scientific)
Instrument type: LC-ESI-QFT
Ms type: MS2
Ion mode: POSITIVE
Ionization: ESI
Fragmentation mode: HCD
Collision energy: 90
Resolution: 17500
Column name: Acquity BEH C18 1.7um, 2.1x150mm (Waters)
Retention time: 19.299 min
Base peak: 79.0211
Precursor m/z: 334.1681
Precursor type: [M+H]+
Precursor intensity: 27726841.1875
m/z	relative intensity	assigned
55.0543	3	C4H7+
59.0491	2	C3H7O+
63.023	1	C5H3+
65.0385	1	C5H5+
67.0542	8	C5H7+
69.07	1	C5H9+
70.0399	999	C2H4N3+
79.0542	3	C6H7+
81.0699	2	C6H9+
83.0492	1	C5H7O+
89.0386	20	C7H5+
90.0464	4	C7H6+
91.0543	1	C7H7+
93.07	1	C7H9+
95.0491	1	C6H7O+
95.0855	1	C7H11+
98.9996	9	C5H4Cl+
103.0541	2	C8H7+
115.0542	6	C9H7+
116.062	8	C9H8+
125.0153	151	C7H6Cl+
128.062	7	C10H8+
129.0697	1	C10H9+
130.0777	2	C10H10+
141.0699	4	C11H9+
142.0777	3	C11H10+
145.0649	1	C10H9O+
149.0156	1	C9H6Cl+
151.0312	1	C9H8Cl+
155.0605	1	C10H7N2+
163.0309	1	C10H8Cl+
