Mass spectrum: AVE5638; LC-ESI-QFT; MS2; CE: 45; R=17500; [M+H]+
Name: AVE5638
Name: 1-{3-[1-({5-[(2-Fluorophenyl)ethynyl]furan-2-yl}carbonyl)piperidin-4-yl]phenyl}methanamine
Name: [4-[3-(aminomethyl)phenyl]piperidin-1-yl]-[5-[2-(2-fluorophenyl)ethynyl]furan-2-yl]methanone
Formula: C25H23FN2O2
Exact mass: 402.1744
SMILES: NCC1=CC=CC(=C1)C1CCN(CC1)C(=O)C1=CC=C(O1)C#CC1=CC=CC=C1F
InChI: InChI=1S/C25H23FN2O2/c26-23-7-2-1-5-20(23)8-9-22-10-11-24(30-22)25(29)28-14-12-19(13-15-28)21-6-3-4-18(16-21)17-27/h1-7,10-11,16,19H,12-15,17,27H2
Instrument: Q Exactive Orbitrap (Thermo Scientific)
Instrument type: LC-ESI-QFT
Ms type: MS2
Ion mode: POSITIVE
Ionization: ESI
Fragmentation mode: HCD
Collision energy: 45
Resolution: 17500
Column name: Acquity BEH C18 1.7um, 2.1x150mm (Waters)
Retention time: 16.173 min
Base peak: 79.0211
Precursor m/z: 403.1816
Precursor type: [M+H]+
Precursor intensity: 14199278.5
m/z	relative intensity	assigned
53.0385	3	C4H5+
55.0178	22	C3H3O+
55.0542	48	C4H7+
56.0494	691	C3H6N+
58.0651	4	C3H8N+
65.0386	2	C5H5+
67.0541	16	C5H7+
68.0494	2	C4H6N+
70.0651	1	C4H8N+
79.0178	1	C5H3O+
79.0542	2	C6H7+
80.0494	5	C5H6N+
81.0335	9	C5H5O+
82.0651	73	C5H8N+
84.0807	63	C5H10N+
91.0542	52	C7H7+
95.0127	17	C5H3O2+
98.0599	4	C5H8NO+
105.0334	1	C7H5O+
105.0699	3	C8H9+
109.0447	47	C7H6F+
110.06	12	C6H8NO+
115.0541	7	C9H7+
116.062	6	C9H8+
117.0697	19	C9H9+
118.0648	7	C8H8N+
119.0854	3	C9H11+
121.0446	3	C8H6F+
123.024	14	C7H4FO+
123.0602	3	C8H8F+
124.0756	3	C7H10NO+
128.062	5	C10H8+
129.0697	35	C10H9+
130.0649	5	C9H8N+
131.0855	202	C10H11+
133.0447	22	C9H6F+
135.0602	6	C9H8F+
141.0698	10	C11H9+
142.0776	16	C11H10+
143.0731	4	C10H9N+
143.0855	23	C11H11+
144.0806	12	C10H10N+
144.0933	2	C11H12+
145.0643	1	C10H9O+
145.1011	2	C11H13+
146.0598	2	C9H8NO+
147.0238	9	C9H4FO+
147.0603	5	C10H8F+
149.0394	2	C9H6FO+
153.0698	6	C12H9+
154.0777	2	C12H10+
155.0488	2	C11H7O+
155.0854	29	C12H11+
157.0447	301	C11H6F+
157.101	45	C12H13+
158.0965	1	C11H12N+
159.0604	4	C11H8F+
165.0697	11	C13H9+
166.0777	4	C13H10+
167.0856	7	C13H11+
168.0567	1	C12H8O+
169.0646	10	C12H9O+
169.1013	1	C13H13+
170.0525	68	C12H7F+
171.0603	265	C12H8F+
172.0755	16	C11H10NO+
172.1119	111	C12H14N+
174.0712	3	C11H9FN+
174.1277	30	C12H16N+
178.0775	2	C14H10+
179.0603	4	C12H7N2+
179.0856	11	C14H11+
181.064	2	C13H9O+
181.1011	4	C14H13+
183.0604	3	C13H8F+
183.0807	1	C13H11O+
186.071	5	C12H9FN+
187.0551	3	C12H8FO+
190.1223	11	C12H16NO+
191.0853	4	C15H11+
193.101	7	C15H13+
194.0719	1	C14H10O+
199.0553	261	C13H8FO+
200.1069	31	C13H14NO+
201.0711	2	C13H10FO+
202.0777	1	C16H10+
203.0858	2	C16H11+
204.1377	1	C13H18NO+
207.0802	2	C15H11O+
209.0762	5	C15H10F+
210.1276	3	C15H16N+
213.0345	999	C13H6FO2+
214.066	4	C13H9FNO+
215.0507	2	C13H8FO2+
215.0853	2	C17H11+
217.1331	4	C13H17N2O+
218.1175	2	C13H16NO2+
219.0805	1	C16H11O+
220.0684	5	C16H9F+
221.0757	5	C16H10F+
222.0844	3	C16H11F+
225.07	1	C18H9+
226.0774	37	C18H10+
227.0503	29	C14H8FO2+
227.0853	107	C18H11+
228.0933	1	C18H12+
230.061	3	C13H9FNO2+
233.0759	51	C17H10F+
234.0835	7	C17H11F+
235.0915	33	C17H12F+
238.1221	6	C16H16NO+
239.0855	3	C19H11+
241.1013	6	C19H13+
242.0608	15	C14H9FNO2+
244.0685	2	C18H9F+
245.0605	3	C17H9O2+
245.0762	4	C18H10F+
246.0838	114	C18H11F+
247.0916	807	C18H12F+
248.0992	10	C18H13F+
249.1073	5	C18H14F+
252.0931	7	C20H12+
253.101	8	C20H13+
255.0803	29	C19H11O+
255.1159	3	C20H15+
256.1341	1	C16H18NO2+
257.0758	18	C19H10F+
258.0838	22	C19H11F+
259.0915	48	C19H12F+
260.0995	21	C19H13F+
261.1072	55	C19H14F+
262.1024	1	C18H13FN+
265.1015	4	C21H13+
266.1084	2	C21H14+
270.0837	18	C20H11F+
271.0915	32	C20H12F+
272.0991	26	C20H13F+
273.0709	4	C19H10FO+
273.1071	32	C20H14F+
274.0789	18	C19H11FO+
274.1148	12	C20H15F+
275.0865	147	C19H12FO+
275.1222	19	C20H16F+
276.0939	5	C22H12+
283.0914	8	C21H12F+
283.1098	2	C21H15O+
284.0998	9	C21H13F+
285.1072	50	C21H14F+
286.0771	2	C23H10+
286.1159	11	C21H15F+
287.0873	8	C20H12FO+
287.1234	16	C21H16F+
288.0942	5	C20H13FO+
289.1022	42	C20H14FO+
290.0974	8	C19H13FNO+
292.148	1	C20H19FN+
295.0918	4	C22H12F+
296.0993	6	C22H13F+
297.1068	11	C22H14F+
299.0871	3	C21H12FO+
299.1233	8	C22H16F+
300.0949	1	C21H13FO+
300.1305	5	C22H17F+
301.103	8	C21H14FO+
301.1399	2	C22H18F+
302.1102	5	C21H15FO+
303.0814	501	C20H12FO2+
308.0992	2	C23H13F+
310.1148	1	C23H15F+
311.124	3	C23H16F+
313.1393	2	C23H18F+
314.1099	3	C22H15FO+
314.1331	2	C22H17FN+
315.1187	6	C22H16FO+
316.149	5	C22H19FN+
317.1346	1	C22H18FO+
318.1285	4	C21H17FNO+
325.1036	2	C23H14FO+
329.133	4	C23H18FO+
330.1636	6	C23H21FN+
331.1128	57	C22H16FO2+
338.154	8	C24H20NO+
339.1176	1	C24H16FO+
340.1492	4	C24H19FN+
341.1322	1	C24H18FO+
344.1441	9	C23H19FNO+
349.1236	3	C25H17O2+
358.1601	51	C24H21FNO+
366.1495	1	C25H20NO2+
386.1547	13	C25H21FNO2+
