Mass spectrum: Bisphenol AF; LC-ESI-QFT; MS2; CE: 45; R=17500; [M-H]-
Name: Bisphenol AF
Name: 4-[1,1,1,3,3,3-hexafluoro-2-(4-hydroxyphenyl)propan-2-yl]phenol
Formula: C15H10F6O2
Exact mass: 336.0585
SMILES: OC1=CC=C(C=C1)C(C1=CC=C(O)C=C1)(C(F)(F)F)C(F)(F)F
InChI: InChI=1S/C15H10F6O2/c16-14(17,18)13(15(19,20)21,9-1-5-11(22)6-2-9)10-3-7-12(23)8-4-10/h1-8,22-23H
Instrument: Q Exactive Orbitrap (Thermo Scientific)
Instrument type: LC-ESI-QFT
Ms type: MS2
Ion mode: NEGATIVE
Ionization: ESI
Fragmentation mode: HCD
Collision energy: 45
Resolution: 17500
Column name: Acquity BEH C18 1.7um, 2.1x150mm (Waters)
Retention time: 17.625 min
Base peak: 335.0513
Precursor m/z: 335.0512
Precursor type: [M-H]-
Precursor intensity: 51122623.20117
m/z	relative intensity	assigned
68.9957	144	CF3-
108.9906	1	C3F3O-
111.0251	9	C6H4FO-
161.0219	15	C7H4F3O-
195.045	7	C5H8F5O2-
198.0485	1	C5H8F6O-
205.0294	2	C14H5O2-
215.0514	7	C13H8FO2-
217.0469	1	C13H7F2O-
225.0357	17	C14H6FO2-
227.0311	3	C14H5F2O-
244.034	11	C14H6F2O2-
245.0418	32	C14H7F2O2-
246.0493	5	C14H8F2O2-
247.0366	1	C14H6F3O-
255.0268	4	C15H5F2O2-
265.048	999	C14H8F3O2-
266.0555	1	C14H9F3O2-
275.0324	5	C15H6F3O2-
295.0386	14	C15H7F4O2-
315.0453	6	C15H8F5O2-
335.0507	1	C15H9F6O2-
