Mass spectrum: Decanedioic acid; LC-ESI-QFT; MS2; CE: 45; R=17500; [M-H]-
Name: Decanedioic acid
Name: Sebacic acid
Formula: C10H18O4
Exact mass: 202.1205
SMILES: OC(=O)CCCCCCCCC(O)=O
InChI: InChI=1S/C10H18O4/c11-9(12)7-5-3-1-2-4-6-8-10(13)14/h1-8H2,(H,11,12)(H,13,14)
Instrument: Q Exactive Orbitrap (Thermo Scientific)
Instrument type: LC-ESI-QFT
Ms type: MS2
Ion mode: NEGATIVE
Ionization: ESI
Fragmentation mode: HCD
Collision energy: 45
Resolution: 17500
Column name: Acquity BEH C18 1.7um, 2.1x150mm (Waters)
Retention time: 15.858 min
Base peak: 201.1133
Precursor m/z: 201.1132
Precursor type: [M-H]-
Precursor intensity: 30318550.9873
m/z	relative intensity	assigned
57.0346	104	C3H5O-
69.0346	7	C4H5O-
71.0503	7	C4H7O-
83.0503	6	C5H7O-
85.0659	1	C5H9O-
97.0659	1	C6H9O-
109.0657	1	C7H9O-
111.0815	86	C7H11O-
123.0812	3	C8H11O-
137.0973	33	C9H13O-
139.1128	999	C9H15O-
157.1234	17	C9H17O2-
183.1026	277	C10H15O3-
201.1132	110	C10H17O4-
