Mass spectrum: UK-373911; LC-ESI-QFT; MS2; CE: 30; R=17500; [M-H]-
Name: UK-373911
Name: (5S,8S)-5-(3,4-dichlorophenyl)-8-(methylamino)-5,6,7,8-tetrahydronaphthalene-2-sulfonamide
Formula: C17H18Cl2N2O2S
Exact mass: 384.0466
SMILES: CN[C@H]1CC[C@@H](C2=CC=C(Cl)C(Cl)=C2)C2=CC=C(C=C12)S(N)(=O)=O
InChI: InChI=1S/C17H18Cl2N2O2S/c1-21-17-7-5-12(10-2-6-15(18)16(19)8-10)13-4-3-11(9-14(13)17)24(20,22)23/h2-4,6,8-9,12,17,21H,5,7H2,1H3,(H2,20,22,23)/t12-,17-/m0/s1
Instrument: Q Exactive Orbitrap (Thermo Scientific)
Instrument type: LC-ESI-QFT
Ms type: MS2
Ion mode: NEGATIVE
Ionization: ESI
Fragmentation mode: HCD
Collision energy: 30
Resolution: 17500
Column name: Acquity BEH C18 1.7um, 2.1x150mm (Waters)
Retention time: 14.654 min
Base peak: 112.9857
Precursor m/z: 383.0393
Precursor type: [M-H]-
Precursor intensity: 2588632.870605
m/z	relative intensity	assigned
77.9655	2	NO2S-
78.9734	2	HNO2S-
79.9812	6	H2NO2S-
142.0661	1	C10H8N-
144.082	6	C10H10N-
144.9618	15	C6H3Cl2-
173.1084	53	C11H13N2-
173.9883	26	C7H6Cl2N-
194.0282	3	C9H8NO2S-
206.0282	1	C10H8NO2S-
208.0438	42	C10H10NO2S-
283.0997	2	C17H16ClN2-
311.0859	3	C17H15N2O2S-
313.9816	30	C13H10Cl2NO2S-
319.0774	33	C17H17Cl2N2-
320.0613	2	C17H16Cl2NO-
323.9654	1	C14H8Cl2NO2S-
325.9816	1	C14H10Cl2NO2S-
337.982	1	C15H10Cl2NO2S-
347.0629	9	C17H16ClN2O2S-
351.9975	11	C16H12Cl2NO2S-
353.005	17	C16H13Cl2NO2S-
355.0089	4	C15H13Cl2N2O2S-
381.0241	5	C17H15Cl2N2O2S-
383.0394	999	C17H17Cl2N2O2S-
