Mass spectrum: 4,4`-Sulfonylbis[2-(prop-2-en-1-yl)phenol]; LC-ESI-QFT; MS2; CE: 75; R=17500; [M-H]-
Name: 4,4'-Sulfonylbis[2-(prop-2-en-1-yl)phenol]
Name: Phenol, 4,4'-sulfonylbis[2-(2-propenyl)-
Name: 4-(4-hydroxy-3-prop-2-enylphenyl)sulfonyl-2-prop-2-enylphenol
Formula: C18H18O4S
Exact mass: 330.0926
SMILES: OC1=C(CC=C)C=C(C=C1)S(=O)(=O)C1=CC(CC=C)=C(O)C=C1
InChI: InChI=1S/C18H18O4S/c1-3-5-13-11-15(7-9-17(13)19)23(21,22)16-8-10-18(20)14(12-16)6-4-2/h3-4,7-12,19-20H,1-2,5-6H2
Instrument: Q Exactive Orbitrap (Thermo Scientific)
Instrument type: LC-ESI-QFT
Ms type: MS2
Ion mode: NEGATIVE
Ionization: ESI
Fragmentation mode: HCD
Collision energy: 75
Resolution: 17500
Column name: Acquity BEH C18 1.7um, 2.1x150mm (Waters)
Retention time: 17.057 min
Base peak: 329.0853
Precursor m/z: 329.0853
Precursor type: [M-H]-
Precursor intensity: 50872314.65234
m/z	relative intensity	assigned
63.9625	119	O2S-
65.0033	2	C4HO-
65.0397	5	C5H5-
67.019	6	C4H3O-
68.9982	13	C3HO2-
79.0192	2	C5H3O-
79.9574	13	O3S-
79.9905	2	C4O2-
80.9983	4	C4HO2-
81.0346	36	C5H5O-
82.0061	1	C4H2O2-
91.0191	5	C6H3O-
91.0553	7	C7H7-
93.0346	59	C6H5O-
94.0425	14	C6H6O-
95.0139	88	C5H3O2-
98.0009	24	C4H2O3-
102.0474	2	C8H6-
103.0554	15	C8H7-
105.0346	7	C7H5O-
106.0424	4	C7H6O-
107.0503	16	C7H7O-
108.0217	53	C6H4O2-
109.0294	25	C6H5O2-
110.0374	4	C6H6O2-
117.0346	89	C8H5O-
118.0424	3	C8H6O-
119.0503	21	C8H7O-
121.0295	198	C7H5O2-
122.0373	13	C7H6O2-
123.0088	62	C6H3O3-
123.0453	5	C7H7O2-
130.0426	21	C9H6O-
131.0503	132	C9H7O-
132.0581	292	C9H8O-
133.0295	60	C8H5O2-
133.0659	168	C9H9O-
134.0373	117	C8H6O2-
135.0452	996	C8H7O2-
137.0245	14	C7H5O3-
138.0322	12	C7H6O3-
145.0296	17	C9H5O2-
146.0373	6	C9H6O2-
147.0452	44	C9H7O2-
148.053	999	C9H8O2-
149.0244	54	C8H5O3-
149.0608	11	C9H9O2-
153.0016	2	C7H5O2S-
155.9886	2	C6H4O3S-
157.066	2	C11H9O-
163.0401	91	C9H7O3-
165.0015	5	C8H5O2S-
166.0093	15	C8H6O2S-
167.0503	2	C12H7O-
176.048	3	C10H8O3-
180.0252	2	C9H8O2S-
180.0582	4	C13H8O-
180.9968	5	C8H5O3S-
181.0657	2	C13H9O-
182.0043	6	C8H6O3S-
183.0115	2	C8H7O3S-
193.066	1	C14H9O-
195.0451	4	C13H7O2-
195.0812	3	C14H11O-
196.0195	2	C9H8O3S-
197.0276	10	C9H9O3S-
206.0736	7	C15H10O-
207.0815	10	C15H11O-
209.0607	20	C14H9O2-
209.0975	3	C15H13O-
221.0604	5	C15H9O2-
221.097	5	C16H13O-
223.077	10	C15H11O2-
231.0812	4	C17H11O-
233.0603	6	C16H9O2-
233.0967	2	C17H13O-
234.0692	4	C16H10O2-
235.0764	147	C16H11O2-
237.0926	2	C16H13O2-
248.0845	2	C17H12O2-
249.092	57	C17H13O2-
263.1074	3	C18H15O2-
273.0235	12	C14H9O4S-
287.0385	5	C15H11O4S-
299.0383	51	C16H11O4S-
313.0544	17	C17H13O4S-
