Mass spectrum: 2,2-Dimethyl-2,3-dihydro-1-benzofuran-7-amine; LC-ESI-QFT; MS2; CE: 45; R=17500; [M+H]+
Name: 2,2-Dimethyl-2,3-dihydro-1-benzofuran-7-amine
Name: 2,2-dimethyl-3H-1-benzofuran-7-amine
Formula: C10H13NO
Exact mass: 163.0997
SMILES: CC1(C)CC2=C(O1)C(N)=CC=C2
InChI: InChI=1S/C10H13NO/c1-10(2)6-7-4-3-5-8(11)9(7)12-10/h3-5H,6,11H2,1-2H3
Instrument: Q Exactive Orbitrap (Thermo Scientific)
Instrument type: LC-ESI-QFT
Ms type: MS2
Ion mode: POSITIVE
Ionization: ESI
Fragmentation mode: HCD
Collision energy: 45
Resolution: 17500
Column name: Acquity BEH C18 1.7um, 2.1x150mm (Waters)
Retention time: 12.296 min
Base peak: 79.0212
Precursor m/z: 164.107
Precursor type: [M+H]+
Precursor intensity: 17068885.875
m/z	relative intensity	assigned
53.0386	1	C4H5+
55.0179	5	C3H3O+
55.0542	20	C4H7+
79.0542	1	C6H7+
80.0494	2	C5H6N+
91.0542	65	C7H7+
92.0493	1	C6H6N+
93.0573	1	C6H7N+
94.0651	119	C6H8N+
95.049	2	C6H7O+
103.0543	1	C8H7+
105.0697	2	C8H9+
107.0491	6	C7H7O+
108.0444	20	C6H6NO+
109.0522	386	C6H7NO+
110.06	22	C6H8NO+
117.0699	7	C9H9+
119.0493	7	C8H7O+
119.0856	88	C9H11+
122.06	999	C7H8NO+
129.0698	4	C10H9+
131.0728	1	C9H9N+
132.0569	4	C9H8O+
136.0757	67	C8H10NO+
146.0964	3	C10H12N+
147.0804	267	C10H11O+
149.0836	14	C9H11NO+
164.107	393	C10H14NO+
