Mass spectrum: Amiodarone hydrochloride; LC-ESI-QFT; MS2; CE: 45; R=17500; [M+H]+
Name: Amiodarone
Name: (2-butyl-1-benzofuran-3-yl)-[4-[2-(diethylamino)ethoxy]-3,5-diiodophenyl]methanone
Formula: C25H29I2NO3
Exact mass: 645.0237
SMILES: CCCCC1=C(C(=O)C2=CC(I)=C(OCCN(CC)CC)C(I)=C2)C2=CC=CC=C2O1
InChI: InChI=1S/C25H29I2NO3/c1-4-7-11-22-23(18-10-8-9-12-21(18)31-22)24(29)17-15-19(26)25(20(27)16-17)30-14-13-28(5-2)6-3/h8-10,12,15-16H,4-7,11,13-14H2,1-3H3
Instrument: Q Exactive Orbitrap (Thermo Scientific)
Instrument type: LC-ESI-QFT
Ms type: MS2
Ion mode: POSITIVE
Ionization: ESI
Fragmentation mode: HCD
Collision energy: 45
Resolution: 17500
Column name: Acquity BEH C18 1.7um, 2.1x150mm (Waters)
Retention time: 18.103 min
Base peak: 79.0211
Precursor m/z: 646.031
Precursor type: [M+H]+
Precursor intensity: 18719789.5
m/z	relative intensity	assigned
56.0494	1	C3H6N+
58.0651	999	C3H8N+
70.065	2	C4H8N+
72.0807	191	C4H10N+
73.0885	22	C4H11N+
74.0964	6	C4H12N+
86.0964	193	C5H12N+
100.112	138	C6H14N+
131.0492	3	C9H7O+
159.044	17	C10H7O2+
171.044	2	C11H7O2+
201.091	22	C13H13O2+
205.0645	1	C15H9O+
221.0596	4	C15H9O2+
231.08	1	C17H11O+
233.0595	3	C16H9O2+
234.0676	2	C16H10O2+
235.0754	2	C16H11O2+
245.9538	1	C8H7IO+
247.0753	2	C17H11O2+
248.0833	4	C17H12O2+
249.0548	1	C16H9O3+
249.0908	1	C17H13O2+
259.0753	1	C18H11O2+
263.0703	1	C17H11O3+
263.1065	1	C18H15O2+
272.9406	1	C9H6IO2+
275.0703	7	C18H11O3+
276.078	18	C18H12O3+
277.0858	3	C18H13O3+
289.0854	1	C19H13O3+
290.0938	4	C19H14O3+
346.9567	3	C15H8IO2+
372.8215	3	C7H3I2O2+
372.9715	1	C17H10IO2+
374.951	1	C16H8IO3+
398.8362	1	C9H5I2O2+
476.0727	1	C22H23INO3+
516.9141	1	C18H15I2O2+
