Mass spectrum: Napropamide; LC-ESI-QFT; MS2; CE: 30; R=17500; [M+H]+
Name: Napropamide
Name: N,N-diethyl-2-naphthalen-1-yloxypropanamide
Formula: C17H21NO2
Exact mass: 271.1572
SMILES: CCN(CC)C(=O)C(C)OC1=C2C=CC=CC2=CC=C1
InChI: InChI=1S/C17H21NO2/c1-4-18(5-2)17(19)13(3)20-16-12-8-10-14-9-6-7-11-15(14)16/h6-13H,4-5H2,1-3H3
Instrument: Q Exactive Orbitrap (Thermo Scientific)
Instrument type: LC-ESI-QFT
Ms type: MS2
Ion mode: POSITIVE
Ionization: ESI
Fragmentation mode: HCD
Collision energy: 30
Resolution: 17500
Column name: Acquity BEH C18 1.7um, 2.1x150mm (Waters)
Retention time: 18.023 min
Base peak: 79.0211
Precursor m/z: 272.1645
Precursor type: [M+H]+
Precursor intensity: 34814987
m/z	relative intensity	assigned
55.0179	1	C3H3O+
57.0334	6	C3H5O+
58.0651	128	C3H8N+
72.0807	291	C4H10N+
73.0885	1	C4H11N+
74.0963	539	C4H12N+
86.06	2	C4H8NO+
100.0757	74	C5H10NO+
100.112	42	C6H14N+
101.0835	27	C5H11NO+
114.0913	181	C6H12NO+
115.0541	1	C9H7+
128.107	177	C7H14NO+
129.1147	999	C7H15NO+
143.0854	9	C11H11+
144.0569	2	C10H8O+
153.0697	6	C12H9+
171.0804	993	C12H11O+
189.0912	2	C12H13O2+
199.0753	656	C13H11O2+
272.1643	124	C17H22NO2+
