Mass spectrum: 1-Hydroxypyrene; LC-ESI-QFT; MS2; CE: 60; R=17500; [M-H]-
Name: 1-Hydroxypyrene
Name: pyren-1-ol
Formula: C16H10O
Exact mass: 218.0732
SMILES: OC1=C2C=CC3=CC=CC4=CC=C(C=C1)C2=C34
InChI: InChI=1S/C16H10O/c17-14-9-7-12-5-4-10-2-1-3-11-6-8-13(14)16(12)15(10)11/h1-9,17H
Instrument: Q Exactive Orbitrap (Thermo Scientific)
Instrument type: LC-ESI-QFT
Ms type: MS2
Ion mode: NEGATIVE
Ionization: ESI
Fragmentation mode: HCD
Collision energy: 60
Resolution: 17500
Column name: Acquity BEH C18 1.7um, 2.1x150mm (Waters)
Retention time: 19.046 min
Base peak: 271.9888
Precursor m/z: 217.0659
Precursor type: [M-H]-
Precursor intensity: 20624447.3125
m/z	relative intensity	assigned
189.0709	15	C15H9-
216.0582	1	C16H8O-
217.0657	999	C16H9O-
