Mass spectrum: Besonprodil; LC-ESI-QFT; MS2; CE: 30; R=17500; [M-H]-
Name: Besonprodil
Name: 6-[2-[4-[(4-fluorophenyl)methyl]piperidin-1-yl]ethylsulfinyl]-3H-1,3-benzoxazol-2-one
Formula: C21H23FN2O3S
Exact mass: 402.1413
SMILES: FC1=CC=C(CC2CCN(CCS(=O)C3=CC=C4NC(=O)OC4=C3)CC2)C=C1
InChI: InChI=1S/C21H23FN2O3S/c22-17-3-1-15(2-4-17)13-16-7-9-24(10-8-16)11-12-28(26)18-5-6-19-20(14-18)27-21(25)23-19/h1-6,14,16H,7-13H2,(H,23,25)
Instrument: Q Exactive Orbitrap (Thermo Scientific)
Instrument type: LC-ESI-QFT
Ms type: MS2
Ion mode: NEGATIVE
Ionization: ESI
Fragmentation mode: HCD
Collision energy: 30
Resolution: 17500
Column name: Acquity BEH C18 1.7um, 2.1x150mm (Waters)
Retention time: 13.201 min
Base peak: 118.0299
Precursor m/z: 401.1341
Precursor type: [M-H]-
Precursor intensity: 10242582.02441
m/z	relative intensity	assigned
57.9757	1	CNS-
122.0248	1	C6H4NO2-
133.0165	1	C7H3NO2-
138.0018	1	C6H4NOS-
138.986	3	C6H3O2S-
149.0117	7	C7H3NO3-
152.9888	1	C6H3NO2S-
164.989	31	C7H3NO2S-
180.9839	999	C7H3NO3S-
181.9917	158	C7H4NO3S-
401.1343	2	C21H22FN2O3S-
