Mass spectrum: Methyl trans-styryl ketone; LC-ESI-QFT; MS2; CE: 90; R=17500; [M+H]+
Name: Methyl trans-styryl ketone
Name: Benzylideneacetone
Name: (E)-4-phenylbut-3-en-2-one
Formula: C10H10O
Exact mass: 146.0732
SMILES: CC(=O)\C=C\C1=CC=CC=C1
InChI: InChI=1S/C10H10O/c1-9(11)7-8-10-5-3-2-4-6-10/h2-8H,1H3/b8-7+
Instrument: Q Exactive Orbitrap (Thermo Scientific)
Instrument type: LC-ESI-QFT
Ms type: MS2
Ion mode: POSITIVE
Ionization: ESI
Fragmentation mode: HCD
Collision energy: 90
Resolution: 17500
Column name: Acquity BEH C18 1.7um, 2.1x150mm (Waters)
Retention time: 19.670 min
Base peak: 79.0211
Precursor m/z: 147.0804
Precursor type: [M+H]+
Precursor intensity: 1652640.390625
m/z	relative intensity	assigned
53.0023	9	C3HO+
53.0386	64	C4H5+
55.0178	16	C3H3O+
65.0386	132	C5H5+
67.0542	10	C5H7+
77.0386	20	C6H5+
78.0464	59	C6H6+
79.0542	90	C6H7+
91.0543	999	C7H7+
93.07	46	C7H9+
95.0491	138	C6H7O+
102.0465	12	C8H6+
103.0543	162	C8H7+
104.062	141	C8H8+
107.0492	116	C7H7O+
115.0543	116	C9H7+
117.0699	254	C9H9+
119.0856	161	C9H11+
128.062	89	C10H8+
129.0698	32	C10H9+
131.0492	74	C9H7O+
132.0571	88	C9H8O+
145.065	11	C10H9O+
147.0804	22	C10H11O+
