Mass spectrum: Formononetin; LC-ESI-QFT; MS2; CE: 30; R=17500; [M+H]+
Name: Formononetin
Name: 7-hydroxy-3-(4-methoxyphenyl)chromen-4-one
Formula: C16H12O4
Exact mass: 268.0736
SMILES: COC1=CC=C(C=C1)C1=COC2=C(C=CC(O)=C2)C1=O
InChI: InChI=1S/C16H12O4/c1-19-12-5-2-10(3-6-12)14-9-20-15-8-11(17)4-7-13(15)16(14)18/h2-9,17H,1H3
Instrument: Q Exactive Orbitrap (Thermo Scientific)
Instrument type: LC-ESI-QFT
Ms type: MS2
Ion mode: POSITIVE
Ionization: ESI
Fragmentation mode: HCD
Collision energy: 30
Resolution: 17500
Column name: Acquity BEH C18 1.7um, 2.1x150mm (Waters)
Retention time: 16.857 min
Base peak: 79.0211
Precursor m/z: 269.0808
Precursor type: [M+H]+
Precursor intensity: 12995625.375
m/z	relative intensity	assigned
107.0491	2	C7H7O+
118.0411	1	C8H6O+
213.091	8	C14H13O2+
237.0546	4	C15H9O3+
241.0862	1	C15H13O3+
253.0489	1	C15H9O4+
254.0573	14	C15H10O4+
269.0807	999	C16H13O4+
