Mass spectrum: N-Phenyldiethanolamine; LC-ESI-QFT; MS2; CE: 90; R=17500; [M+H]+
Name: N-Phenyldiethanolamine
Name: 2-[N-(2-hydroxyethyl)anilino]ethanol
Formula: C10H15NO2
Exact mass: 181.1103
SMILES: OCCN(CCO)C1=CC=CC=C1
InChI: InChI=1S/C10H15NO2/c12-8-6-11(7-9-13)10-4-2-1-3-5-10/h1-5,12-13H,6-9H2
Instrument: Q Exactive Orbitrap (Thermo Scientific)
Instrument type: LC-ESI-QFT
Ms type: MS2
Ion mode: POSITIVE
Ionization: ESI
Fragmentation mode: HCD
Collision energy: 90
Resolution: 17500
Column name: Acquity BEH C18 1.7um, 2.1x150mm (Waters)
Retention time: 6.737 min
Base peak: 79.0212
Precursor m/z: 182.1176
Precursor type: [M+H]+
Precursor intensity: 4768750.6875
m/z	relative intensity	assigned
51.0229	3	C4H3+
53.0386	68	C4H5+
54.0338	2	C3H4N+
55.0178	2	C3H3O+
65.0386	15	C5H5+
67.0543	2	C5H7+
77.0385	29	C6H5+
78.0464	35	C6H6+
79.0542	100	C6H7+
80.0494	12	C5H6N+
81.0335	7	C5H5O+
91.0542	123	C7H7+
92.0495	45	C6H6N+
92.0619	4	C7H8+
93.0573	82	C6H7N+
93.0699	48	C7H9+
94.0651	72	C6H8N+
95.0492	194	C6H7O+
103.0542	181	C8H7+
104.0494	23	C7H6N+
105.0574	7	C7H7N+
105.0698	7	C8H9+
106.0651	999	C7H8N+
110.0599	5	C6H8NO+
117.0573	30	C8H7N+
117.0694	2	C9H9+
118.0651	420	C8H8N+
119.073	121	C8H9N+
120.0808	503	C8H10N+
128.062	3	C10H8+
130.0652	42	C9H8N+
131.073	20	C9H9N+
132.0808	12	C9H10N+
137.0836	3	C8H11NO+
144.0807	6	C10H10N+
146.0964	4	C10H12N+
164.107	2	C10H14NO+
