Mass spectrum: Ethionamide; LC-ESI-QFT; MS2; CE: 60; R=17500; [M-H]-
Name: Ethionamide
Name: 2-ethylpyridine-4-carboximidothioic acid
Formula: C8H10N2S
Exact mass: 166.0565
SMILES: CCC1=NC=CC(=C1)C(N)=S
InChI: InChI=1S/C8H10N2S/c1-2-7-5-6(8(9)11)3-4-10-7/h3-5H,2H2,1H3,(H2,9,11)
Instrument: Q Exactive Orbitrap (Thermo Scientific)
Instrument type: LC-ESI-QFT
Ms type: MS2
Ion mode: NEGATIVE
Ionization: ESI
Fragmentation mode: HCD
Collision energy: 60
Resolution: 17500
Column name: Acquity BEH C18 1.7um, 2.1x150mm (Waters)
Retention time: 6.556 min
Base peak: 75.0087
Precursor m/z: 165.0492
Precursor type: [M-H]-
Precursor intensity: 875541.2210693
m/z	relative intensity	assigned
57.9757	999	CNS-
106.0662	52	C7H8N-
165.0494	67	C8H9N2S-
