Mass spectrum: Fluorescein; LC-ESI-QFT; MS2; CE: 45; R=17500; [M-H]-
Name: Fluorescein
Name: 3',6'-dihydroxyspiro[2-benzofuran-3,9'-xanthene]-1-one
Formula: C20H12O5
Exact mass: 332.0685
SMILES: OC1=CC2=C(C=C1)C1(OC(=O)C3=C1C=CC=C3)C1=C(O2)C=C(O)C=C1
InChI: InChI=1S/C20H12O5/c21-11-5-7-15-17(9-11)24-18-10-12(22)6-8-16(18)20(15)14-4-2-1-3-13(14)19(23)25-20/h1-10,21-22H
Instrument: Q Exactive Orbitrap (Thermo Scientific)
Instrument type: LC-ESI-QFT
Ms type: MS2
Ion mode: NEGATIVE
Ionization: ESI
Fragmentation mode: HCD
Collision energy: 45
Resolution: 17500
Column name: Acquity BEH C18 1.7um, 2.1x150mm (Waters)
Retention time: 15.791 min
Base peak: 284.0451
Precursor m/z: 331.0612
Precursor type: [M-H]-
Precursor intensity: 10330719.51367
m/z	relative intensity	assigned
189.0713	2	C15H9-
193.0656	5	C14H9O-
195.0451	1	C13H7O2-
203.0502	1	C15H7O-
203.0864	2	C16H11-
204.0584	8	C15H8O-
215.0865	39	C17H11-
217.0658	24	C16H9O-
219.0814	6	C16H11O-
230.0736	10	C17H10O-
231.0817	15	C17H11O-
232.0528	1	C16H8O2-
233.0605	1	C16H9O2-
241.0657	7	C18H9O-
242.0731	6	C18H10O-
243.0814	242	C18H11O-
245.0607	36	C17H9O2-
246.0685	32	C17H10O2-
257.061	3	C18H9O2-
258.0686	18	C18H10O2-
259.0764	138	C18H11O2-
269.0615	5	C19H9O2-
270.0689	2	C19H10O2-
272.048	2	C18H8O3-
285.0558	331	C19H9O3-
286.0635	999	C19H10O3-
287.0714	211	C19H11O3-
331.0605	1	C20H11O5-
