Mass spectrum: Difenoconazole; LC-ESI-QFT; MS2; CE: 90; R=17500; [M+H]+
Name: Difenoconazole
Formula: C19H17Cl2N3O3
Exact mass: 405.0647
SMILES: CC1COC(CN2C=NC=N2)(O1)C1=C(Cl)C=C(OC2=CC=C(Cl)C=C2)C=C1
InChI: InChI=1S/C19H17Cl2N3O3/c1-13-9-25-19(27-13,10-24-12-22-11-23-24)17-7-6-16(8-18(17)21)26-15-4-2-14(20)3-5-15/h2-8,11-13H,9-10H2,1H3
Instrument: Q Exactive Orbitrap (Thermo Scientific)
Instrument type: LC-ESI-QFT
Ms type: MS2
Ion mode: POSITIVE
Ionization: ESI
Fragmentation mode: HCD
Collision energy: 90
Resolution: 17500
Column name: Acquity BEH C18 1.7um, 2.1x150mm (Waters)
Retention time: 18.993 min
Base peak: 79.0211
Precursor m/z: 406.072
Precursor type: [M+H]+
Precursor intensity: 8321010.625
m/z	relative intensity	assigned
50.0152	7	C4H2+
51.023	7	C4H3+
53.0022	68	C3HO+
53.0387	10	C4H5+
55.0178	12	C3H3O+
60.9839	3	C2H2Cl+
65.0386	21	C5H5+
70.04	26	C2H4N3+
72.0807	3	C4H10N+
72.9839	8	C3H2Cl+
74.0151	69	C6H2+
75.0229	762	C6H3+
77.0386	18	C6H5+
79.0178	22	C5H3O+
80.0256	4	C5H4O+
84.0557	3	C3H6N3+
84.9839	37	C4H2Cl+
86.9997	186	C4H4Cl+
88.9788	16	C3H2ClO+
89.0386	30	C7H5+
93.0335	25	C6H5O+
94.0414	16	C6H6O+
95.0492	37	C6H7O+
98.0364	3	C5H6O2+
98.9997	27	C5H4Cl+
103.0541	5	C8H7+
105.0336	5	C7H5O+
105.0447	14	C6H5N2+
110.9996	225	C6H4Cl+
111.0441	57	C6H7O2+
113.0151	10	C6H6Cl+
114.9945	16	C5H4ClO+
115.0543	19	C9H7+
116.0622	7	C9H8+
117.0699	8	C9H9+
121.0395	11	C6H5N2O+
124.0075	6	C7H5Cl+
125.0152	8	C7H6Cl+
126.0464	4	C10H6+
126.9947	2	C6H4ClO+
128.0024	18	C6H5ClO+
128.0621	50	C10H8+
129.0102	597	C6H6ClO+
129.0698	59	C10H9+
134.9577	2	C2ClN2O3+
139.0058	962	C6H4ClN2+
140.0027	5	C4H8Cl2N+
141.0102	722	C7H6ClO+
145.0647	6	C10H9O+
149.0154	51	C9H6Cl+
151.0539	11	C12H7+
152.0621	999	C12H8+
153.0699	916	C12H9+
154.9895	20	C7H4ClO2+
155.0603	6	C10H7N2+
155.9974	4	C7H5ClO2+
158.9767	3	C7H5Cl2+
162.0231	41	C10H7Cl+
165.0701	4	C13H9+
168.0569	3	C12H8O+
169.0648	65	C12H9O+
169.9766	8	C7H3ClO3+
173.0153	75	C11H6Cl+
174.0232	23	C11H7Cl+
175.0309	2	C11H8Cl+
179.0604	26	C12H7N2+
180.0568	8	C13H8O+
181.0648	328	C13H9O+
182.9764	44	C9H5Cl2+
186.0232	11	C12H7Cl+
187.0309	74	C12H8Cl+
188.0388	795	C12H9Cl+
191.0853	3	C15H11+
199.0309	3	C13H8Cl+
202.0181	170	C12H7ClO+
208.992	57	C11H7Cl2+
215.0258	126	C13H8ClO+
223.0076	82	C12H9Cl2+
227.0259	6	C14H8ClO+
236.9865	7	C12H7Cl2O+
251.0026	45	C13H9Cl2O+
261.9949	2	C14H8Cl2O+
264.9817	36	C13H7Cl2O2+
