Mass spectrum: Ranitidine; LC-ESI-QFT; MS2; CE: 45; R=17500; [M+H]+
Name: Ranitidine
Name: Ranitidine Base
Name: 1-N'-[2-[[5-[(dimethylamino)methyl]furan-2-yl]methylsulfanyl]ethyl]-1-N-methyl-2-nitroethene-1,1-diamine
Formula: C13H22N4O3S
Exact mass: 314.1413
SMILES: CNC(NCCSCC1=CC=C(CN(C)C)O1)=C[N+]([O-])=O
InChI: InChI=1S/C13H22N4O3S/c1-14-13(9-17(18)19)15-6-7-21-10-12-5-4-11(20-12)8-16(2)3/h4-5,9,14-15H,6-8,10H2,1-3H3
Instrument: Q Exactive Orbitrap (Thermo Scientific)
Instrument type: LC-ESI-QFT
Ms type: MS2
Ion mode: POSITIVE
Ionization: ESI
Fragmentation mode: HCD
Collision energy: 45
Resolution: 17500
Column name: Acquity BEH C18 1.7um, 2.1x150mm (Waters)
Retention time: 7.821 min
Base peak: 79.0211
Precursor m/z: 315.1485
Precursor type: [M+H]+
Precursor intensity: 4058169.796875
m/z	relative intensity	assigned
55.0417	4	C3H5N+
56.0495	10	C3H6N+
57.0447	3	C2H5N2+
58.0652	3	C3H8N+
60.9981	3	CH3NS+
61.0107	9	C2H5S+
69.0571	3	C4H7N+
71.0604	4	C3H7N2+
81.0335	29	C5H5O+
83.0604	14	C4H7N2+
84.0681	19	C4H8N2+
85.076	7	C4H9N2+
88.0216	41	C3H6NS+
94.0415	3	C6H6O+
95.0492	45	C6H7O+
97.0761	90	C5H9N2+
98.0839	447	C5H10N2+
99.0914	5	C5H11N2+
101.0295	16	C4H7NS+
102.0372	411	C4H8NS+
107.0492	16	C7H7O+
110.0601	25	C6H8NO+
110.0964	53	C7H12N+
113.0707	9	C5H9N2O+
114.0787	14	C5H10N2O+
115.0323	6	C4H7N2S+
117.0481	13	C4H9N2S+
118.0321	23	C4H8NOS+
121.0761	14	C7H9N2+
124.0757	97	C7H10NO+
125.0056	636	C6H5OS+
129.048	17	C5H9N2S+
130.056	999	C5H10N2S+
133.0523	4	C8H7NO+
135.0263	10	C8H7S+
135.0918	30	C8H11N2+
136.0757	4	C8H10NO+
138.0914	35	C8H12NO+
144.0766	16	C5H10N3O2+
145.0429	11	C5H9N2OS+
146.0507	7	C5H10N2OS+
147.068	4	C9H9NO+
148.0757	42	C9H10NO+
149.0709	8	C8H9N2O+
151.0211	3	C8H7OS+
152.0291	3	C8H8OS+
153.037	28	C8H9OS+
154.0559	8	C7H10N2S+
163.0865	20	C9H11N2O+
164.0946	29	C9H12N2O+
165.1023	88	C9H13N2O+
167.0637	31	C8H11N2S+
170.0632	37	C8H12NOS+
176.0489	435	C5H10N3O2S+
177.1023	55	C10H13N2O+
178.0322	9	C9H8NOS+
181.0795	69	C9H13N2S+
191.1179	114	C11H15N2O+
192.0476	32	C10H10NOS+
193.0556	30	C10H11NOS+
195.071	3	C10H13NOS+
209.0742	8	C10H13N2OS+
223.09	9	C11H15N2OS+
224.0981	28	C11H16N2OS+
