Mass spectrum: 1,3-Dipropan-2-ylurea; LC-ESI-QFT; MS2; CE: 75; R=17500; [M+H]+
Name: 1,3-Dipropan-2-ylurea
Name: 1,3-Diisopropylurea
Name: 1,3-di(propan-2-yl)urea
Formula: C7H16N2O
Exact mass: 144.1263
SMILES: CC(C)NC(=O)NC(C)C
InChI: InChI=1S/C7H16N2O/c1-5(2)8-7(10)9-6(3)4/h5-6H,1-4H3,(H2,8,9,10)
Instrument: Q Exactive Orbitrap (Thermo Scientific)
Instrument type: LC-ESI-QFT
Ms type: MS2
Ion mode: POSITIVE
Ionization: ESI
Fragmentation mode: HCD
Collision energy: 75
Resolution: 17500
Column name: Acquity BEH C18 1.7um, 2.1x150mm (Waters)
Retention time: 11.908 min
Base peak: 79.0211
Precursor m/z: 145.1335
Precursor type: [M+H]+
Precursor intensity: 25587009.5625
m/z	relative intensity	assigned
53.0022	59	C3HO+
53.9974	6	C2NO+
60.0808	318	C3H10N+
61.0397	999	CH5N2O+
86.0601	13	C4H8NO+
103.0866	68	C4H11N2O+
145.1335	5	C7H17N2O+
