Mass spectrum: AVE9423; LC-ESI-QFT; MS2; CE: 45; R=17500; [M+H]+
Name: AVE9423
Name: 1-(2-carboxyphenyl)-7-chloro-6-(2-chloro-4,6-difluoroanilino)-4-oxoquinoline-3-carboxylic acid
Formula: C23H12Cl2F2N2O5
Exact mass: 504.0091
SMILES: OC(=O)C1=CC=CC=C1N1C=C(C(O)=O)C(=O)C2=C1C=C(Cl)C(NC1=C(F)C=C(F)C=C1Cl)=C2
InChI: InChI=1S/C23H12Cl2F2N2O5/c24-14-8-19-12(7-17(14)28-20-15(25)5-10(26)6-16(20)27)21(30)13(23(33)34)9-29(19)18-4-2-1-3-11(18)22(31)32/h1-9,28H,(H,31,32)(H,33,34)
Instrument: Q Exactive Orbitrap (Thermo Scientific)
Instrument type: LC-ESI-QFT
Ms type: MS2
Ion mode: POSITIVE
Ionization: ESI
Fragmentation mode: HCD
Collision energy: 45
Resolution: 17500
Column name: Acquity BEH C18 1.7um, 2.1x150mm (Waters)
Retention time: 17.513 min
Base peak: 79.0211
Precursor m/z: 505.0164
Precursor type: [M+H]+
Precursor intensity: 2156320.28125
m/z	relative intensity	assigned
161.9917	60	C6H3ClF2N+
224.0263	5	C14H7ClN+
225.0341	58	C14H8ClN+
229.0292	8	C10H11Cl2N2+
241.0574	3	C14H7F2N2+
253.029	59	C15H8ClNO+
269.0243	6	C12H11Cl2N2O+
311.9789	3	C14H6Cl2F2NO+
315.0726	4	C20H9F2N2+
316.0809	26	C20H10F2N2+
317.0886	16	C20H11F2N2+
343.0677	64	C21H9F2N2O+
344.0761	12	C21H10F2N2O+
345.0831	20	C21H11F2N2O+
349.0339	4	C20H8ClF2N2+
350.0428	3	C20H9ClF2N2+
351.0495	13	C20H10ClF2N2+
352.0575	45	C20H11ClF2N2+
354.036	2	C22H6F2NO2+
356.0538	3	C19H11ClF2N2O+
360.0457	5	C21H10ClFN2O+
361.0114	4	C18H9Cl2F2N2+
361.0791	3	C21H11F2N2O2+
372.0716	8	C22H10F2N2O2+
373.0786	17	C22H11F2N2O2+
375.0271	7	C19H11Cl2F2N2+
377.0287	19	C21H8ClF2N2O+
380.052	14	C21H11ClF2N2O+
385.0112	16	C20H9Cl2F2N2+
386.0184	3	C20H10Cl2F2N2+
387.0266	26	C20H11Cl2F2N2+
388.0421	7	C19H11ClF2N2O3+
391.0211	9	C19H11Cl2F2N2O+
392.9986	3	C21H8Cl2FN2O+
396.0478	5	C21H11ClF2N2O2+
397.0118	11	C21H9Cl2F2N2+
403.0225	6	C20H11Cl2F2N2O+
406.0319	118	C22H9ClF2N2O2+
407.0398	5	C22H10ClF2N2O2+
408.0468	15	C22H11ClF2N2O2+
413.0058	37	C21H9Cl2F2N2O+
417.0015	16	C20H9Cl2F2N2O2+
441.0009	49	C22H9Cl2F2N2O2+
443.0164	246	C22H11Cl2F2N2O2+
444.9959	42	C21H9Cl2F2N2O3+
459.0113	199	C22H11Cl2F2N2O3+
468.9956	45	C23H9Cl2F2N2O3+
487.0063	190	C23H11Cl2F2N2O4+
505.017	999	C23H13Cl2F2N2O5+
