Mass spectrum: Metconazole; LC-ESI-QFT; MS2; CE: 90; R=17500; [M+H]+
Name: Metconazole
Name: 5-[(4-chlorophenyl)methyl]-2,2-dimethyl-1-(1,2,4-triazol-1-ylmethyl)cyclopentan-1-ol
Formula: C17H22ClN3O
Exact mass: 319.1451
SMILES: CC1(C)CCC(CC2=CC=C(Cl)C=C2)C1(O)CN1C=NC=N1
InChI: InChI=1S/C17H22ClN3O/c1-16(2)8-7-14(9-13-3-5-15(18)6-4-13)17(16,22)10-21-12-19-11-20-21/h3-6,11-12,14,22H,7-10H2,1-2H3
Instrument: Q Exactive Orbitrap (Thermo Scientific)
Instrument type: LC-ESI-QFT
Ms type: MS2
Ion mode: POSITIVE
Ionization: ESI
Fragmentation mode: HCD
Collision energy: 90
Resolution: 17500
Column name: Acquity BEH C18 1.7um, 2.1x150mm (Waters)
Retention time: 18.878 min
Base peak: 79.0211
Precursor m/z: 320.1524
Precursor type: [M+H]+
Precursor intensity: 20772498.28125
m/z	relative intensity	assigned
55.0543	3	C4H7+
59.0491	7	C3H7O+
63.023	1	C5H3+
65.0384	1	C5H5+
67.0542	6	C5H7+
69.0698	1	C5H9+
70.0399	999	C2H4N3+
79.0541	2	C6H7+
81.0699	1	C6H9+
89.0385	20	C7H5+
90.0464	3	C7H6+
91.0543	3	C7H7+
93.0699	1	C7H9+
95.0491	1	C6H7O+
95.0855	4	C7H11+
98.9996	8	C5H4Cl+
103.0542	5	C8H7+
105.0698	1	C8H9+
115.0541	4	C9H7+
116.062	6	C9H8+
125.0152	154	C7H6Cl+
128.062	5	C10H8+
129.0696	1	C10H9+
139.0311	1	C8H8Cl+
141.0698	6	C11H9+
142.0777	7	C11H10+
149.0153	1	C9H6Cl+
151.0308	1	C9H8Cl+
155.0599	1	C10H7N2+
162.0231	1	C10H7Cl+
