Mass spectrum: Carbetamide; LC-ESI-QFT; MS2; CE: 90; R=17500; [M+H]+
Name: Carbetamide
Name: [1-(ethylamino)-1-oxopropan-2-yl] N-phenylcarbamate
Formula: C12H16N2O3
Exact mass: 236.1161
SMILES: CCNC(=O)C(C)OC(=O)NC1=CC=CC=C1
InChI: InChI=1S/C12H16N2O3/c1-3-13-11(15)9(2)17-12(16)14-10-7-5-4-6-8-10/h4-9H,3H2,1-2H3,(H,13,15)(H,14,16)
Instrument: Q Exactive Orbitrap (Thermo Scientific)
Instrument type: LC-ESI-QFT
Ms type: MS2
Ion mode: POSITIVE
Ionization: ESI
Fragmentation mode: HCD
Collision energy: 90
Resolution: 17500
Column name: Acquity BEH C18 1.7um, 2.1x150mm (Waters)
Retention time: 14.852 min
Base peak: 79.0211
Precursor m/z: 237.1234
Precursor type: [M+H]+
Precursor intensity: 3790074.90625
m/z	relative intensity	assigned
55.0179	18	C3H3O+
67.0542	13	C5H7+
71.0603	58	C3H7N2+
72.0807	61	C4H10N+
79.0542	59	C6H7+
81.0448	352	C4H5N2+
81.0701	26	C6H9+
82.0652	91	C5H8N+
84.0808	143	C5H10N+
92.0496	41	C6H6N+
95.0492	32	C6H7O+
96.0809	65	C6H10N+
109.0761	597	C6H9N2+
110.0965	52	C7H12N+
120.0443	15	C7H6NO+
122.0713	434	C8H10O+
123.0792	71	C8H11O+
123.0917	93	C7H11N2+
124.087	92	C8H12O+
126.1279	49	C8H16N+
136.087	999	C9H12O+
137.0948	75	C9H13O+
150.1027	572	C10H14O+
151.0978	193	C9H13NO+
151.1105	125	C10H15O+
152.1183	24	C10H16O+
165.1135	120	C10H15NO+
165.1259	69	C11H17O+
166.0979	33	C10H14O2+
179.1293	638	C11H17NO+
