Mass spectrum: 1,2,3-Benzotriazole; LC-ESI-QFT; MS2; CE: 45; R=17500; [M-H]-
Name: 1,2,3-Benzotriazole
Name: 1H-Benzotriazole
Name: 2H-benzotriazole
Formula: C6H5N3
Exact mass: 119.0483
SMILES: N1N=NC2=C1C=CC=C2
InChI: InChI=1S/C6H5N3/c1-2-4-6-5(3-1)7-9-8-6/h1-4H,(H,7,8,9)
Instrument: Q Exactive Orbitrap (Thermo Scientific)
Instrument type: LC-ESI-QFT
Ms type: MS2
Ion mode: NEGATIVE
Ionization: ESI
Fragmentation mode: HCD
Collision energy: 45
Resolution: 17500
Column name: Acquity BEH C18 1.7um, 2.1x150mm (Waters)
Retention time: 11.955 min
Base peak: 116.9286
Precursor m/z: 118.0411
Precursor type: [M-H]-
Precursor intensity: 11904206.82544
m/z	relative intensity	assigned
50.0036	6	C3N-
64.0192	3	C4H2N-
90.0349	252	C6H4N-
118.0411	999	C6H4N3-
