Mass spectrum: Triphenyl phosphate; LC-ESI-QFT; MS2; CE: 30; R=17500; [M+H]+
Name: Triphenyl phosphate
Formula: C18H15O4P
Exact mass: 326.0708
SMILES: O=P(OC1=CC=CC=C1)(OC1=CC=CC=C1)OC1=CC=CC=C1
InChI: InChI=1S/C18H15O4P/c19-23(20-16-10-4-1-5-11-16,21-17-12-6-2-7-13-17)22-18-14-8-3-9-15-18/h1-15H
Instrument: Q Exactive Orbitrap (Thermo Scientific)
Instrument type: LC-ESI-QFT
Ms type: MS2
Ion mode: POSITIVE
Ionization: ESI
Fragmentation mode: HCD
Collision energy: 30
Resolution: 17500
Column name: Acquity BEH C18 1.7um, 2.1x150mm (Waters)
Retention time: 18.547 min
Base peak: 79.0211
Precursor m/z: 327.0781
Precursor type: [M+H]+
Precursor intensity: 80094471.25
m/z	relative intensity	assigned
53.0386	3	C4H5+
77.039	1	C6H5+
91.0542	9	C7H7+
95.0491	11	C6H7O+
98.9839	1	H4O4P+
152.0619	13	C12H8+
153.0698	69	C12H9+
169.0646	1	C12H9O+
171.0803	18	C12H11O+
175.0153	5	C6H8O4P+
181.0759	1	C10H14OP+
202.0782	1	C16H10+
215.0254	6	C12H8O2P+
227.0859	1	C18H11+
228.0932	15	C18H12+
229.101	27	C18H13+
233.0361	109	C12H10O3P+
247.0518	1	C13H12O3P+
251.0466	44	C12H12O4P+
291.0566	1	C18H12O2P+
309.0675	9	C18H14O3P+
327.0779	999	C18H16O4P+
