Mass spectrum: Haloxyfop; LC-ESI-QFT; MS2; CE: 75; R=17500; [M+H]+
Name: Haloxyfop
Name: 2-[4-[3-chloro-5-(trifluoromethyl)pyridin-2-yl]oxyphenoxy]propanoic acid
Formula: C15H11ClF3NO4
Exact mass: 361.0329
SMILES: CC(OC1=CC=C(OC2=NC=C(C=C2Cl)C(F)(F)F)C=C1)C(O)=O
InChI: InChI=1S/C15H11ClF3NO4/c1-8(14(21)22)23-10-2-4-11(5-3-10)24-13-12(16)6-9(7-20-13)15(17,18)19/h2-8H,1H3,(H,21,22)
Instrument: Q Exactive Orbitrap (Thermo Scientific)
Instrument type: LC-ESI-QFT
Ms type: MS2
Ion mode: POSITIVE
Ionization: ESI
Fragmentation mode: HCD
Collision energy: 75
Resolution: 17500
Column name: Acquity BEH C18 1.7um, 2.1x150mm (Waters)
Retention time: 18.650 min
Base peak: 79.0211
Precursor m/z: 362.0401
Precursor type: [M+H]+
Precursor intensity: 6180852.53125
m/z	relative intensity	assigned
53.0023	8	C3HO+
53.0386	13	C4H5+
54.0465	4	C4H6+
55.0179	17	C3H3O+
63.0229	45	C5H3+
64.0308	15	C5H4+
65.0386	564	C5H5+
67.0543	4	C5H7+
73.0284	6	C3H5O2+
74.015	8	C6H2+
75.0229	78	C6H3+
77.0386	5	C6H5+
79.0543	6	C6H7+
81.0335	37	C5H5O+
90.0338	9	C6H4N+
91.0542	999	C7H7+
92.0257	80	C6H4O+
92.062	10	C7H8+
93.0335	3	C6H5O+
93.0699	5	C7H9+
94.0413	32	C6H6O+
95.0493	20	C6H7O+
98.9842	340	CH4ClO3+
109.0284	54	C6H5O2+
109.065	7	C7H9O+
111.0441	15	C6H7O2+
119.0368	10	C7H5NO+
119.0491	21	C8H7O+
120.0444	9	C7H6NO+
120.0572	10	C8H8O+
121.0284	41	C7H5O2+
121.0397	10	C5H10ClO+
121.0648	9	C8H9O+
131.0105	5	C2H8ClO4+
133.9873	5	C6NO3+
140.0497	13	C10H6N+
141.9791	6	C4H2ClF3+
151.0356	5	C9H5F2+
156.0446	7	C10H6NO+
157.0522	8	C10H7NO+
157.9804	5	C6H2ClFNO+
158.0401	16	C10H5FN+
159.0479	6	C10H6FN+
159.976	5	C6HClF2N+
165.0097	4	C9H6ClO+
166.0653	5	C12H8N+
168.0443	17	C11H6NO+
170.9717	69	C6H2ClNO3+
171.0413	7	C9H6F3+
172.9689	113	C3H2ClF2NO3+
174.9638	5	C3HClF3NO2+
175.0183	29	C10H6ClN+
178.0461	18	C10H6F2N+
179.9823	18	C6H2ClF3N+
181.9981	6	C6H4ClF3N+
182.0338	7	C10H5F3+
185.0453	8	C5H12ClNO4+
187.0428	9	C11H6FNO+
188.0308	6	C11H4F2N+
189.0381	24	C11H5F2N+
190.0464	15	C11H6F2N+
192.0209	27	C10H7ClNO+
197.9929	106	C6H4ClF3NO+
198.0525	13	C10H7F3N+
199.0368	41	C7H9ClF3N+
203.0132	16	C11H6ClNO+
206.0415	44	C11H6F2NO+
208.0372	20	C7H11ClNO4+
209.0448	176	C11H6F3N+
216.0256	107	C12H4F2NO+
217.0335	9	C12H5F2NO+
218.0408	14	C12H6F2NO+
219.006	15	C9H5ClF3N+
222.0117	9	C11H6ClFNO+
224.0073	13	C11H5ClF2N+
226.0476	70	C11H7F3NO+
232.0135	27	C10H6ClF3N+
235.0032	7	C11H6ClNO3+
235.0601	9	C13H8F3N+
237.0399	49	C12H6F3NO+
243.0058	10	C11H5ClF3N+
244.0134	9	C11H6ClF3N+
245.0212	13	C11H7ClF3N+
246.0312	8	C13H9ClNO2+
252.0021	25	C12H5ClF2NO+
252.0633	6	C13H9F3NO+
254.042	20	C12H7F3NO2+
260.0084	11	C11H6ClF3NO+
261.0167	13	C11H7ClF3NO+
269.0296	12	C12H6F3NO3+
272.0085	241	C12H6ClF3NO+
288.0034	405	C12H6ClF3NO2+
