Mass spectrum: Sulfisoxazole; LC-ESI-QFT; MS2; CE: 60; R=17500; [M+H]+
Name: Sulfisoxazole
Name: 4-amino-N-(3,4-dimethyl-1,2-oxazol-5-yl)benzenesulfonamide
Formula: C11H13N3O3S
Exact mass: 267.0678
SMILES: CC1=NOC(NS(=O)(=O)C2=CC=C(N)C=C2)=C1C
InChI: InChI=1S/C11H13N3O3S/c1-7-8(2)13-17-11(7)14-18(15,16)10-5-3-9(12)4-6-10/h3-6,14H,12H2,1-2H3
Instrument: Q Exactive Orbitrap (Thermo Scientific)
Instrument type: LC-ESI-QFT
Ms type: MS2
Ion mode: POSITIVE
Ionization: ESI
Fragmentation mode: HCD
Collision energy: 60
Resolution: 17500
Column name: Acquity BEH C18 1.7um, 2.1x150mm (Waters)
Retention time: 12.458 min
Base peak: 79.0211
Precursor m/z: 268.075
Precursor type: [M+H]+
Precursor intensity: 16537660.375
m/z	relative intensity	assigned
53.0022	4	C3HO+
53.0386	10	C4H5+
54.0338	10	C3H4N+
55.0178	72	C3H3O+
58.0651	7	C3H8N+
61.0106	1	C2H5S+
62.0184	11	C2H6S+
65.0386	275	C5H5+
67.0178	3	C4H3O+
67.0417	2	C4H5N+
68.0494	264	C4H6N+
69.0335	9	C4H5O+
70.065	5	C4H8N+
71.0603	126	C3H7N2+
72.0443	19	C3H6NO+
78.0338	17	C5H4N+
79.0178	26	C5H3O+
79.0542	5	C6H7+
80.0494	50	C5H6N+
80.0576	2	CH8N2O2+
82.0287	4	C4H4NO+
83.0493	1	C5H7O+
85.076	12	C4H9N2+
86.06	8	C4H8NO+
92.0495	744	C6H6N+
93.0574	4	C6H7N+
94.0651	1	C6H8N+
95.0366	6	C5H5NO+
95.0604	4	C5H7N2+
96.0444	125	C5H6NO+
106.0652	360	C7H8N+
107.0685	256	C2H9N3O2+
108.0443	999	C6H6NO+
109.0522	8	C6H7NO+
110.06	263	C6H8NO+
112.0633	3	C5H8N2O+
113.0709	368	C5H9N2O+
120.0556	26	C6H6N3+
124.0758	5	C7H10NO+
134.0602	4	C8H8NO+
135.063	3	C3H9N3O3+
140.0162	7	C6H6NOS+
156.0113	88	C6H6NO2S+
162.0549	11	C9H8NO2+
163.0581	13	C10H11S+
173.0143	1	C6H7NO3S+
180.0655	106	C9H10NO3+
181.0689	129	C10H13OS+
194.0814	1	C10H12NO3+
195.085	2	C9H13N3S+
