Mass spectrum: Tolclofos-methyl; LC-ESI-QFT; MS2; CE: 75; R=17500; [M+H]+
Name: Tolclofos-methyl
Name: (2,6-dichloro-4-methylphenoxy)-dimethoxy-sulfanylidene-lambda5-phosphane
Formula: C9H11Cl2O3PS
Exact mass: 299.9544
SMILES: COP(=S)(OC)OC1=C(Cl)C=C(C)C=C1Cl
InChI: InChI=1S/C9H11Cl2O3PS/c1-6-4-7(10)9(8(11)5-6)14-15(16,12-2)13-3/h4-5H,1-3H3
Instrument: Q Exactive Orbitrap (Thermo Scientific)
Instrument type: LC-ESI-QFT
Ms type: MS2
Ion mode: POSITIVE
Ionization: ESI
Fragmentation mode: HCD
Collision energy: 75
Resolution: 17500
Column name: Acquity BEH C18 1.7um, 2.1x150mm (Waters)
Retention time: 17.784 min
Base peak: 79.0211
Precursor m/z: 300.9616
Precursor type: [M+H]+
Precursor intensity: 1577992.6875
m/z	relative intensity	assigned
51.023	16	C4H3+
53.0386	13	C4H5+
62.0185	23	C2H6S+
65.0386	78	C5H5+
75.0229	11	C6H3+
76.9609	30	CH2PS+
77.0386	11	C6H5+
78.9944	226	CH4O2P+
79.0542	23	C6H7+
86.9998	22	C4H4Cl+
91.0543	34	C7H7+
93.0101	35	C3H6ClO+
93.0335	37	C6H5O+
95.0494	15	C6H7O+
96.9605	899	CH3ClOP+
107.0492	12	C7H7O+
108.0571	17	C7H8O+
110.9996	14	C6H4Cl+
112.0075	86	C6H5Cl+
112.9378	14	CH3ClPS+
117.0698	10	C9H9+
121.0285	15	C7H5O2+
128.0024	13	C6H5ClO+
129.0102	60	C6H6ClO+
139.0059	142	C4H9ClOP+
139.0391	9	C7H7O3+
141.0104	16	C7H6ClO+
142.9927	202	C2H8O3PS+
146.9764	107	C6H5Cl2+
157.0085	10	C4H10ClO2S+
158.9766	9	C7H5Cl2+
174.9713	118	C7H5Cl2O+
202.9661	999	C8H5Cl2O2+
216.9819	14	C9H7Cl2O2+
220.9769	18	C8H7Cl2O3+
236.9271	88	C7H4Cl2O3P+
237.9348	144	C7H5Cl2O3P+
