Mass spectrum: Benodanil; LC-ESI-QFT; MS2; CE: 30; R=17500; [M+H]+
Name: Benodanil
Name: 2-iodo-N-phenylbenzamide
Formula: C13H10INO
Exact mass: 322.9807
SMILES: IC1=C(C=CC=C1)C(=O)NC1=CC=CC=C1
InChI: InChI=1S/C13H10INO/c14-12-9-5-4-8-11(12)13(16)15-10-6-2-1-3-7-10/h1-9H,(H,15,16)
Instrument: Q Exactive Orbitrap (Thermo Scientific)
Instrument type: LC-ESI-QFT
Ms type: MS2
Ion mode: POSITIVE
Ionization: ESI
Fragmentation mode: HCD
Collision energy: 30
Resolution: 17500
Column name: Acquity BEH C18 1.7um, 2.1x150mm (Waters)
Retention time: 16.272 min
Base peak: 79.0211
Precursor m/z: 323.988
Precursor type: [M+H]+
Precursor intensity: 10381444.0625
m/z	relative intensity	assigned
76.0312	1	C6H4+
78.0465	1	C6H6+
92.0495	12	C6H6N+
94.0413	5	C6H6O+
95.0491	4	C6H7O+
105.0336	130	C7H5O+
120.0444	67	C7H6NO+
197.0837	30	C13H11NO+
202.9347	2	C6H4I+
229.9462	1	C7H5IN+
230.9302	999	C7H4IO+
305.9778	5	C13H9IN+
323.9881	462	C13H11INO+
