Mass spectrum: Imidacloprid; LC-ESI-QFT; MS2; CE: 15; R=17500; [M+H]+
Name: Imidacloprid
Name: N-[1-[(6-Chloro-3-pyridinyl)methyl]-4,5-dihydroimidazol-2-yl]nitramide
Name: N-[1-[(6-chloropyridin-3-yl)methyl]-4,5-dihydroimidazol-2-yl]nitramide
Formula: C9H10ClN5O2
Exact mass: 255.0523
SMILES: [O-][N+](=O)\N=C1/NCCN1CC1=CN=C(Cl)C=C1
InChI: InChI=1S/C9H10ClN5O2/c10-8-2-1-7(5-12-8)6-14-4-3-11-9(14)13-15(16)17/h1-2,5H,3-4,6H2,(H,11,13)
Instrument: Q Exactive Orbitrap (Thermo Scientific)
Instrument type: LC-ESI-QFT
Ms type: MS2
Ion mode: POSITIVE
Ionization: ESI
Fragmentation mode: HCD
Collision energy: 15
Resolution: 17500
Column name: Acquity BEH C18 1.7um, 2.1x150mm (Waters)
Retention time: 12.341 min
Base peak: 79.0211
Precursor m/z: 256.0596
Precursor type: [M+H]+
Precursor intensity: 3993387.0625
m/z	relative intensity	assigned
56.0495	38	C3H6N+
72.0682	2	C3H8N2+
84.0556	254	C3H6N3+
97.0634	7	C4H7N3+
98.0712	3	C4H8N3+
99.0551	18	C4H7N2O+
126.0106	8	C6H5ClN+
127.0185	2	C6H6ClN+
128.0261	88	C6H7ClN+
151.0185	9	C8H6ClN+
167.0245	2	C7H6ClN3+
168.032	2	C7H7ClN3+
173.0828	3	C9H9N4+
174.09	114	C9H10N4+
175.0978	764	C9H11N4+
181.0276	2	C7H6ClN4+
194.0476	5	C9H9ClN3+
195.0319	2	C9H8ClN2O+
209.0589	999	C9H10ClN4+
210.0667	479	C9H11ClN4+
212.0585	393	C9H11ClN3O+
226.0614	10	C9H11ClN4O+
256.0595	760	C9H11ClN5O2+
