Mass spectrum: 3-Hydroxy-2-naphthoic o-anisidide; LC-ESI-QFT; MS2; CE: 90; R=17500; [M-H]-
Name: 3-Hydroxy-2-naphthoic o-anisidide
Name: 3-Hydroxy-2'-methoxy-2-naphthanilide
Name: 3-hydroxy-N-(2-methoxyphenyl)naphthalene-2-carboxamide
Formula: C18H15NO3
Exact mass: 293.1052
SMILES: COC1=CC=CC=C1NC(=O)C1=CC2=C(C=CC=C2)C=C1O
InChI: InChI=1S/C18H15NO3/c1-22-17-9-5-4-8-15(17)19-18(21)14-10-12-6-2-3-7-13(12)11-16(14)20/h2-11,20H,1H3,(H,19,21)
Instrument: Q Exactive Orbitrap (Thermo Scientific)
Instrument type: LC-ESI-QFT
Ms type: MS2
Ion mode: NEGATIVE
Ionization: ESI
Fragmentation mode: HCD
Collision energy: 90
Resolution: 17500
Column name: Acquity BEH C18 1.7um, 2.1x150mm (Waters)
Retention time: 18.323 min
Base peak: 292.0981
Precursor m/z: 292.0979
Precursor type: [M-H]-
Precursor intensity: 43082133.28027
m/z	relative intensity	assigned
78.0349	13	C5H4N-
89.0397	1	C7H5-
90.035	4	C6H4N-
91.019	7	C6H3O-
93.0346	5	C6H5O-
107.0377	988	C6H5NO-
108.0218	3	C6H4O2-
114.0476	2	C9H6-
115.0553	367	C9H7-
117.0347	10	C8H5O-
118.03	8	C7H4NO-
119.0503	1	C8H7O-
130.0424	24	C9H6O-
134.0248	999	C7H4NO2-
141.0709	2	C11H9-
142.0426	1	C10H6O-
143.0502	407	C10H7O-
145.0294	10	C9H5O2-
158.0375	1	C10H6O2-
159.0451	7	C10H7O2-
168.0455	32	C11H6NO-
205.066	2	C15H9O-
216.0821	2	C16H10N-
231.0689	5	C16H9NO-
232.0767	6	C16H10NO-
233.061	11	C16H9O2-
247.0637	5	C16H9NO2-
248.0719	5	C16H10NO2-
260.0714	2	C17H10NO2-
276.0665	20	C17H10NO3-
