Mass spectrum: 3-Oxo-N-(2-oxo-2,3-dihydro-1H-benzimidazol-5-yl)butanamide; LC-ESI-QFT; MS2; CE: 45; R=17500; [M-H]-
Name: 3-Oxo-N-(2-oxo-2,3-dihydro-1H-benzimidazol-5-yl)butanamide
Name: 3-oxo-N-(2-oxo-1,3-dihydrobenzimidazol-5-yl)butanamide
Formula: C11H11N3O3
Exact mass: 233.0800
SMILES: CC(=O)CC(=O)NC1=CC2=C(NC(=O)N2)C=C1
InChI: InChI=1S/C11H11N3O3/c1-6(15)4-10(16)12-7-2-3-8-9(5-7)14-11(17)13-8/h2-3,5H,4H2,1H3,(H,12,16)(H2,13,14,17)
Instrument: Q Exactive Orbitrap (Thermo Scientific)
Instrument type: LC-ESI-QFT
Ms type: MS2
Ion mode: NEGATIVE
Ionization: ESI
Fragmentation mode: HCD
Collision energy: 45
Resolution: 17500
Column name: Acquity BEH C18 1.7um, 2.1x150mm (Waters)
Retention time: 9.570 min
Base peak: 134.036
Precursor m/z: 232.0728
Precursor type: [M-H]-
Precursor intensity: 583339.1425781
m/z	relative intensity	assigned
83.0139	893	C4H3O2-
120.0565	21	C6H6N3-
121.0407	21	C6H5N2O-
134.0363	13	C6H4N3O-
146.0361	132	C7H4N3O-
147.0438	21	C7H5N3O-
148.0517	999	C7H6N3O-
174.0308	125	C8H4N3O2-
190.0617	12	C9H8N3O2-
