Mass spectrum: PharmaGSID_48519; LC-ESI-QFT; MS2; CE: 60; R=17500; [M+H]+
Name: PharmaGSID_48519
Name: 3-(2-bromophenyl)-7-[[2-(hydroxymethyl)-2,3-dihydro-1,4-benzodioxin-6-yl]amino]-1-methyl-4H-pyrimido[4,5-d]pyrimidin-2-one
Formula: C22H20BrN5O4
Exact mass: 497.0699
SMILES: CN1C(=O)N(CC2=CN=C(NC3=CC4=C(OC(CO)CO4)C=C3)N=C12)C1=CC=CC=C1Br
InChI: InChI=1S/C22H20BrN5O4/c1-27-20-13(10-28(22(27)30)17-5-3-2-4-16(17)23)9-24-21(26-20)25-14-6-7-18-19(8-14)31-12-15(11-29)32-18/h2-9,15,29H,10-12H2,1H3,(H,24,25,26)
Instrument: Q Exactive Orbitrap (Thermo Scientific)
Instrument type: LC-ESI-QFT
Ms type: MS2
Ion mode: POSITIVE
Ionization: ESI
Fragmentation mode: HCD
Collision energy: 60
Resolution: 17500
Column name: Acquity BEH C18 1.7um, 2.1x150mm (Waters)
Retention time: 16.353 min
Base peak: 79.0211
Precursor m/z: 498.0771
Precursor type: [M+H]+
Precursor intensity: 4133155.5625
m/z	relative intensity	assigned
52.0183	1	C3H2N+
53.0023	1	C3HO+
53.0259	1	C3H3N+
54.0339	46	C3H4N+
57.0335	18	C3H5O+
66.0338	185	C4H4N+
68.0495	261	C4H6N+
70.0651	3	C4H8N+
80.0496	2	C5H6N+
81.0448	5	C4H5N2+
91.0542	3	C7H7+
93.0448	5	C5H5N2+
95.0604	999	C5H7N2+
96.0445	3	C5H6NO+
96.0681	3	C5H8N2+
107.0128	2	C6H3O2+
107.0491	1	C7H7O+
108.0443	2	C6H6NO+
108.0557	10	C5H6N3+
110.0362	4	C6H6O2+
110.0715	7	C5H8N3+
118.0655	1	C8H8N+
119.0493	1	C8H7O+
119.0605	2	C7H7N2+
120.0557	12	C6H6N3+
124.0395	7	C6H6NO2+
125.047	2	C6H7NO2+
126.0663	11	C5H8N3O+
131.0605	1	C8H7N2+
135.044	3	C8H7O2+
135.0555	4	C7H7N2O+
136.0395	3	C7H6NO2+
137.0823	4	C6H9N4+
138.0663	6	C6H8N3O+
143.0604	1	C9H7N2+
145.0763	2	C9H9N2+
146.0716	1	C8H8N3+
147.0437	1	C9H7O2+
147.0552	2	C8H7N2O+
149.0345	3	C7H5N2O2+
149.0821	1	C7H9N4+
155.0606	1	C10H7N2+
158.0714	11	C9H8N3+
159.0555	8	C9H7N2O+
160.0871	5	C9H10N3+
161.0349	2	C8H5N2O2+
161.0706	2	C9H9N2O+
161.0821	2	C8H9N4+
162.0554	1	C9H8NO2+
163.0503	3	C8H7N2O2+
166.0626	12	C9H10O3+
169.0636	1	C10H7N3+
170.0714	40	C10H8N3+
171.0554	2	C10H7N2O+
171.0789	2	C10H9N3+
172.0746	4	C9H8N4+
172.0871	11	C10H10N3+
173.0712	3	C10H9N2O+
173.0823	7	C9H9N4+
174.0661	6	C9H8N3O+
175.0513	1	C9H7N2O2+
180.0655	6	C9H10NO3+
181.0738	6	C9H11NO3+
182.0715	5	C11H8N3+
184.0871	8	C11H10N3+
185.082	2	C10H9N4+
185.0958	1	C13H13O+
186.0663	37	C10H8N3O+
186.0901	5	C10H10N4+
187.0979	208	C10H11N4+
188.0818	12	C10H10N3O+
189.0661	2	C10H9N2O2+
192.0658	2	C10H10NO3+
193.061	5	C9H9N2O3+
194.0814	3	C10H12NO3+
196.087	20	C12H10N3+
197.0825	3	C11H9N4+
198.0664	19	C11H8N3O+
198.1027	12	C12H12N3+
199.0742	5	C11H9N3O+
199.0979	24	C11H11N4+
200.071	2	C12H10NO2+
200.0819	25	C11H10N3O+
201.0535	2	C10H7N3O2+
201.0667	1	C11H9N2O2+
201.0773	6	C10H9N4O+
207.0766	43	C10H11N2O3+
208.0871	3	C13H10N3+
211.098	4	C12H11N4+
212.082	8	C12H10N3O+
213.0777	1	C11H9N4O+
214.0612	30	C11H8N3O2+
214.0855	2	C11H10N4O+
214.0976	7	C12H12N3O+
215.0695	16	C11H9N3O2+
215.0929	282	C11H11N4O+
216.0768	73	C11H10N3O2+
217.1085	3	C11H13N4O+
219.0765	16	C11H11N2O3+
221.0928	2	C11H13N2O3+
224.082	21	C13H10N3O+
226.0614	16	C12H8N3O2+
226.0854	2	C12H10N4O+
226.0976	7	C13H12N3O+
227.093	26	C12H11N4O+
227.129	9	C13H15N4+
228.0772	7	C12H10N3O2+
228.1011	2	C12H12N4O+
229.1086	5	C12H13N4O+
234.0874	2	C11H12N3O3+
241.1086	10	C13H13N4O+
242.0924	7	C13H12N3O2+
243.0878	68	C12H11N4O2+
244.0957	7	C12H12N4O2+
245.1038	10	C12H13N4O2+
253.1087	9	C14H13N4O+
254.0928	5	C14H12N3O2+
255.0877	3	C13H11N4O2+
255.1243	4	C14H15N4O+
271.1186	3	C14H15N4O2+
272.1032	9	C14H14N3O3+
301.1298	178	C15H17N4O3+
384.0456	2	C17H15BrN5O+
