Mass spectrum: Nilutamide; LC-ESI-QFT; MS2; CE: 90; R=17500; [M-H]-
Name: Nilutamide
Name: 5,5-dimethyl-3-[4-nitro-3-(trifluoromethyl)phenyl]imidazolidine-2,4-dione
Formula: C12H10F3N3O4
Exact mass: 317.0623
SMILES: CC1(C)NC(=O)N(C1=O)C1=CC(=C(C=C1)[N+]([O-])=O)C(F)(F)F
InChI: InChI=1S/C12H10F3N3O4/c1-11(2)9(19)17(10(20)16-11)6-3-4-8(18(21)22)7(5-6)12(13,14)15/h3-5H,1-2H3,(H,16,20)
Instrument: Q Exactive Orbitrap (Thermo Scientific)
Instrument type: LC-ESI-QFT
Ms type: MS2
Ion mode: NEGATIVE
Ionization: ESI
Fragmentation mode: HCD
Collision energy: 90
Resolution: 17500
Column name: Acquity BEH C18 1.7um, 2.1x150mm (Waters)
Retention time: 16.669 min
Base peak: 316.0549
Precursor m/z: 316.0551
Precursor type: [M-H]-
Precursor intensity: 80285928.96094
m/z	relative intensity	assigned
50.0035	62	C3N-
55.0189	536	C3H3O-
65.9986	238	C3NO-
68.9958	67	CF3-
70.9939	40	C3FO-
74.0037	68	C5N-
76.0193	30	C5H2N-
86.9887	34	C3FO2-
87.0114	98	C6HN-
89.9985	36	C5NO-
92.9957	18	C3F3-
93.0095	14	C4HN2O-
98.0037	90	C7N-
100.0194	18	C7H2N-
106.0099	94	C6HFN-
107.0176	28	C6H2FN-
108.9908	16	C3F3O-
110.0047	12	C5HFNO-
111.0002	11	C4FN2O-
113.9985	141	C7NO-
114.0161	22	C5H2F2N-
114.0346	11	C8H4N-
116.0141	17	C7H2NO-
118.0099	274	C7HFN-
118.0302	14	C7H4NO-
123.0124	20	C6H2FNO-
126.0161	214	C6H2F2N-
131.0009	9	C7HNO2-
131.0302	99	C9H4F-
132.0255	20	C8H3FN-
134.0048	291	C7HFNO-
134.0412	24	C8H5FN-
135.0249	15	C3H3F2N3O-
136.0201	10	C7H3FNO-
138.0161	133	C7H2F2N-
138.0349	105	C10H4N-
142.0301	10	C9H4NO-
143.011	86	C7HN3O-
145.0293	19	C4H4FN3O2-
146.0222	20	C6H3F3N-
154.011	264	C7H2F2NO-
155.0191	25	C7H3F2NO-
155.0378	15	C10H5NO-
156.0455	78	C10H6NO-
158.0224	29	C7H3F3N-
158.0411	75	C10H5FN-
159.0245	62	C5H3F2N3O-
160.038	994	C7H5F3N-
161.9997	204	C8HFNO2-
162.0169	10	C6H3F3NO-
163.0365	56	C10H5F2-
166.0109	47	C8H2F2NO-
166.0299	89	C11H4NO-
173.0093	27	C7H2F3NO-
173.0484	12	C10H7NO2-
174.0179	12	C7H3F3NO-
174.036	51	C10H5FNO-
175.0251	96	C7H4F3NO-
176.009	147	C7H3F3O2-
178.0476	14	C10H6F2N-
179.0314	238	C10H5F2O-
180.0268	30	C9H4F2NO-
182.006	999	C8H2F2NO2-
183.0427	277	C10H6F3-
184.0378	12	C9H5F3N-
185.0094	9	C8H2F3NO-
185.0218	93	C9H4F3O-
186.0172	307	C8H3F3NO-
186.036	641	C11H5FNO-
187.0439	28	C11H6FNO-
190.012	35	C7H3F3NO2-
192.0265	46	C10H4F2NO-
194.0418	13	C10H6F2NO-
198.0533	53	C10H7F3N-
199.0269	20	C11H5NO3-
199.0376	398	C10H6F3O-
202.0122	861	C8H3F3NO2-
204.0278	13	C8H5F3NO2-
205.0233	60	C7H4F3N2O2-
206.007	82	C7H3F3NO3-
206.0424	326	C11H6F2NO-
211.0374	19	C11H6F3O-
212.0326	34	C10H5F3NO-
222.0376	76	C11H6F2NO2-
225.0403	17	C11H6F3NO-
226.0486	488	C11H7F3NO-
227.0564	31	C11H8F3NO-
228.0285	15	C10H5F3NO2-
230.0436	16	C10H7F3NO2-
242.0437	20	C11H7F3NO2-
