Mass spectrum: FR130739; LC-ESI-QFT; MS2; CE: 15; R=17500; [M+H]+
Name: FR130739
Name: FK-739 free acid
Name: 2-butyl-3-[[4-[2-(2H-tetrazol-5-yl)phenyl]phenyl]methyl]imidazo[4,5-b]pyridine
Formula: C24H23N7
Exact mass: 409.2015
SMILES: CCCCC1=NC2=C(N=CC=C2)N1CC1=CC=C(C=C1)C1=CC=CC=C1C1=NN=NN1
InChI: InChI=1S/C24H23N7/c1-2-3-10-22-26-21-9-6-15-25-24(21)31(22)16-17-11-13-18(14-12-17)19-7-4-5-8-20(19)23-27-29-30-28-23/h4-9,11-15H,2-3,10,16H2,1H3,(H,27,28,29,30)
Instrument: Q Exactive Orbitrap (Thermo Scientific)
Instrument type: LC-ESI-QFT
Ms type: MS2
Ion mode: POSITIVE
Ionization: ESI
Fragmentation mode: HCD
Collision energy: 15
Resolution: 17500
Column name: Acquity BEH C18 1.7um, 2.1x150mm (Waters)
Retention time: 16.703 min
Base peak: 79.0212
Precursor m/z: 410.2088
Precursor type: [M+H]+
Precursor intensity: 18910414.75
m/z	relative intensity	assigned
176.1183	92	C10H14N3+
178.0771	2	C14H10+
179.0855	2	C14H11+
207.0917	475	C14H11N2+
235.0967	1	C14H11N4+
353.1888	7	C24H23N3+
367.1918	17	C24H23N4+
382.2027	93	C24H24N5+
410.2088	999	C24H24N7+
