Mass spectrum: Prodiamine; LC-ESI-QFT; MS2; CE: 30; R=17500; [M-H]-
Name: Prodiamine
Name: 2,4-dinitro-3-N,3-N-dipropyl-6-(trifluoromethyl)benzene-1,3-diamine
Formula: C13H17F3N4O4
Exact mass: 350.1202
SMILES: CCCN(CCC)C1=C(C(N)=C(C=C1[N+]([O-])=O)C(F)(F)F)[N+]([O-])=O
InChI: InChI=1S/C13H17F3N4O4/c1-3-5-18(6-4-2)11-9(19(21)22)7-8(13(14,15)16)10(17)12(11)20(23)24/h7H,3-6,17H2,1-2H3
Instrument: Q Exactive Orbitrap (Thermo Scientific)
Instrument type: LC-ESI-QFT
Ms type: MS2
Ion mode: NEGATIVE
Ionization: ESI
Fragmentation mode: HCD
Collision energy: 30
Resolution: 17500
Column name: Acquity BEH C18 1.7um, 2.1x150mm (Waters)
Retention time: 19.704 min
Base peak: 349.1128
Precursor m/z: 349.1129
Precursor type: [M-H]-
Precursor intensity: 71903538.23633
m/z	relative intensity	assigned
64.0067	2	C3N2-
65.0146	2	C3HN2-
65.9985	12	C3NO-
68.9957	1	CF3-
73.0294	3	C3H5O2-
88.0004	13	C3F2N-
88.0067	3	C5N2-
89.0146	1	C5HN2-
90.0097	1	C4N3-
92.9957	1	C3F3-
93.0095	1	C4HN2O-
95.0051	2	C4FN2-
100.0006	1	C4F2N-
102.0098	1	C5N3-
103.9954	7	C3F2NO-
108.9909	4	C3F3O-
108.9969	1	C5FNO-
110.9999	3	C4FN2O-
112.0003	3	C5F2N-
115.0175	2	C6HN3-
119.0251	1	C6H3N2O-
120.0068	2	C4HF3N-
123.0005	1	C5FN2O-
126.0036	1	C5F2N2-
127.0114	3	C5HF2N2-
127.9955	1	C5F2NO-
130.9989	1	C5F3N-
132.0204	1	C6H2N3O-
133.0019	2	C4F3N2-
134.016	6	C6HFN3-
135	1	C6FN2O-
136.0016	11	C4HF3NO-
143.0362	1	C7H3N4-
144.0067	2	C6HF3N-
145.0019	9	C5F3N2-
145.052	2	C7H5N4-
146.0099	8	C5HF3N2-
147.0239	1	C7H2FN3-
148.008	1	C7HFN2O-
149.0092	1	C5H2F3NO-
151.0438	2	C8H6FNO-
155.0065	1	C6HF2N2O-
157.002	6	C6F3N2-
158.0097	1	C6HF3N2-
159.0112	1	C7FN4-
159.0177	5	C6H2F3N2-
160.0016	6	C6HF3NO-
160.0318	1	C13H4-
160.9964	3	C5F3N2O-
162.011	4	C7HFN3O-
162.0799	2	C9H10N2O-
166.0409	2	C10H4N3-
171.0177	2	C7H2F3N2-
173.0207	1	C6H2F3N3-
174.0042	2	C6HF3N2O-
175.0123	2	C6H2F3N2O-
175.0548	1	C9H6FN3-
176.0203	2	C6H3F3N2O-
176.0397	1	C9H5FN2O-
177.0469	2	C9H6FN2O-
178.0219	1	C8H2F2N3-
182.0171	1	C7H2F2N3O-
182.0361	2	C10H4N3O-
183.044	1	C10H5N3O-
184.0125	3	C7HF3N3-
184.0513	4	C10H6N3O-
184.9968	21	C7F3N2O-
186.0287	3	C12H4F2-
187.0127	3	C7H2F3N2O-
188.0077	6	C6HF3N3O-
190.012	1	C7H3F3NO2-
191.0073	1	C6H2F3N2O2-
196.0328	2	C8H4F2N3O-
199.0489	7	C9H6F3N2-
200.0078	3	C7HF3N3O-
201.0651	3	C9H8F3N2-
201.9997	3	C7HF3N2O2-
202.0233	1	C7H3F3N3O-
202.0422	1	C10H5FN3O-
203.0501	3	C10H6FN3O-
204.0029	2	C11H2F2O2-
204.0579	6	C10H7FN3O-
206.0534	2	C10H6F2N3-
208.0327	2	C9H4F2N3O-
208.0879	1	C13H10N3-
209.0286	1	C13H4FNO-
210.0286	1	C9H3F3N3-
212.0443	1	C9H5F3N3-
214.0234	11	C8H3F3N3O-
215.0308	7	C8H4F3N3O-
216.114	11	C12H14N3O-
217.0103	4	C7H2F3N3O2-
217.0526	1	C10H6FN4O-
217.9944	6	C7HF3N2O3-
218.0182	11	C7H3F3N3O2-
219.0259	2	C7H4F3N3O2-
220.0104	1	C7H3F3N2O3-
222.0483	2	C10H6F2N3O-
223.056	2	C10H7F2N3O-
224.064	7	C10H8F2N3O-
225.0232	3	C13H4FNO2-
226.0436	1	C9H6F2N3O2-
226.0595	3	C10H7F3N3-
228.0389	6	C9H5F3N3O-
228.0946	1	C13H11FN3-
229.0341	1	C8H4F3N4O-
230.0022	4	C12H3FO4-
230.0174	3	C11H2F2N3O-
230.0546	1	C9H7F3N3O-
231.0137	8	C12H3F2NO2-
231.0751	1	C10H10F3N2O-
231.9975	144	C7HF3N3O3-
233.0478	7	C10H6FN4O2-
235.0212	1	C12H5F2O3-
235.0433	1	C10H5F2N4O-
237.0391	3	C10H4F3N4-
238.0466	2	C10H5F3N4-
238.0591	1	C11H7F3N3-
239.0545	3	C10H6F3N4-
240.0393	2	C10H5F3N3O-
240.061	1	C9H11F3O4-
240.0748	1	C11H9F3N3-
242.055	7	C10H7F3N3O-
243.0626	2	C10H8F3N3O-
244.0213	4	C8H3F3N4O2-
244.0345	1	C9H5F3N3O2-
244.0703	8	C10H9F3N3O-
245.0288	3	C8H4F3N4O2-
246.0862	1	C10H11F3N3O-
249.0003	32	C7H2F3N3O4-
250.0082	12	C7H3F3N3O4-
253.0544	2	C10H7F2N4O2-
253.0832	1	C12H10F3N3-
255.0499	6	C10H6F3N4O-
256.0578	6	C10H7F3N4O-
257.0658	4	C10H8F3N4O-
258.049	1	C10H7F3N3O2-
259.1061	12	C12H14F3N2O-
260.0168	1	C13H4F2NO3-
260.0651	1	C10H9F3N3O2-
266.1111	29	C13H14F2N3O-
268.107	5	C13H13F3N3-
270.0367	2	C10H5F3N4O2-
271.045	4	C10H6F3N4O2-
272.0519	2	C13H6F2N4O-
285.0602	1	C11H8F3N4O2-
286.1174	69	C13H15F3N3O-
287.0763	6	C11H10F3N4O2-
288.0478	2	C10H7F3N4O3-
289.0558	6	C10H8F3N4O3-
289.1167	2	C13H16F3N2O2-
302.1121	37	C13H15F3N3O2-
306.1071	34	C12H15F3N3O3-
313.0922	3	C13H12F3N4O2-
349.1128	999	C13H16F3N4O4-
