Mass spectrum: Imazaquin; LC-ESI-QFT; MS2; CE: 90; R=17500; [M+H]+
Name: Imazaquin
Name: 2-(4-methyl-5-oxo-4-propan-2-yl-1H-imidazol-2-yl)quinoline-3-carboxylic acid
Formula: C17H17N3O3
Exact mass: 311.1270
SMILES: CC(C)C1(C)N=C(NC1=O)C1=NC2=C(C=CC=C2)C=C1C(O)=O
InChI: InChI=1S/C17H17N3O3/c1-9(2)17(3)16(23)19-14(20-17)13-11(15(21)22)8-10-6-4-5-7-12(10)18-13/h4-9H,1-3H3,(H,21,22)(H,19,20,23)
Instrument: Q Exactive Orbitrap (Thermo Scientific)
Instrument type: LC-ESI-QFT
Ms type: MS2
Ion mode: POSITIVE
Ionization: ESI
Fragmentation mode: HCD
Collision energy: 90
Resolution: 17500
Column name: Acquity BEH C18 1.7um, 2.1x150mm (Waters)
Retention time: 15.221 min
Base peak: 79.0212
Precursor m/z: 312.1343
Precursor type: [M+H]+
Precursor intensity: 21624598
m/z	relative intensity	assigned
52.0183	1	C3H2N+
53.0022	114	C3HO+
53.9975	16	C2NO+
55.0179	4	C3H3O+
56.0495	43	C3H6N+
58.0652	21	C3H8N+
65.0386	3	C5H5+
67.0542	31	C5H7+
67.9894	5	C3O2+
69.0699	635	C5H9+
70.0651	61	C4H8N+
71.073	147	C4H9N+
72.0444	2	C3H6NO+
72.0809	1	C4H10N+
75.0229	11	C6H3+
84.0808	1	C5H10N+
86.0965	368	C5H12N+
89.0387	6	C7H5+
91.0417	13	C6H5N+
91.0543	24	C7H7+
95.0492	7	C6H7O+
101.0385	14	C8H5+
105.0574	4	C7H7N+
115.0418	10	C8H5N+
115.0543	19	C9H7+
116.0495	54	C8H6N+
127.0417	46	C9H5N+
128.0495	229	C9H6N+
129.0447	99	C8H5N2+
129.0571	21	C9H7N+
130.0289	9	C8H4NO+
130.0527	45	C8H6N2+
130.0652	32	C9H8N+
133.0525	3	C8H7NO+
134.0604	2	C8H8NO+
142.0528	9	C9H6N2+
142.0653	21	C10H8N+
143.0367	40	C9H5NO+
143.0604	16	C9H7N2+
144.0445	38	C9H6NO+
145.0524	6	C9H7NO+
146.0601	999	C9H8NO+
153.0448	621	C10H5N2+
154.0526	74	C10H6N2+
154.0649	43	C11H8N+
155.0604	191	C10H7N2+
156.0445	5	C10H6NO+
156.0808	4	C11H10N+
157.0762	13	C10H9N2+
158.0476	39	C9H6N2O+
158.0595	10	C10H8NO+
159.0314	1	C9H5NO2+
160.0758	37	C10H10NO+
161.0473	34	C9H7NO2+
161.0712	2	C9H9N2O+
167.073	13	C12H9N+
168.0686	8	C11H8N2+
169.0398	10	C10H5N2O+
169.0762	17	C11H9N2+
170.06	4	C11H8NO+
171.0553	602	C10H7N2O+
174.0551	57	C10H8NO2+
179.0606	17	C12H7N2+
180.0448	1	C12H6NO+
180.0557	5	C11H6N3+
180.0809	21	C13H10N+
181.0398	854	C11H5N2O+
182.0712	2	C11H8N3+
182.0837	9	C12H10N2+
183.0553	100	C11H7N2O+
184.0761	2	C12H10NO+
185.0711	40	C11H9N2O+
186.055	1	C11H8NO2+
194.0971	2	C14H12N+
196.0869	10	C12H10N3+
197.0711	364	C12H9N2O+
198.0663	60	C11H8N3O+
199.0503	147	C11H7N2O2+
204.081	4	C15H10N+
205.0766	9	C14H9N2+
206.0841	12	C14H10N2+
207.0573	1	C13H7N2O+
207.0918	6	C14H11N2+
209.0585	2	C12H7N3O+
209.0707	2	C13H9N2O+
210.0791	14	C13H10N2O+
213.0661	22	C12H9N2O2+
220.0993	1	C15H12N2+
221.1082	2	C15H13N2+
222.0662	11	C13H8N3O+
224.0817	17	C13H10N3O+
225.1027	2	C14H13N2O+
233.0708	10	C15H9N2O+
234.0794	6	C15H10N2O+
249.1032	2	C16H13N2O+
252.0766	4	C14H10N3O2+
