Mass spectrum: Atorvastatin; LC-ESI-QFT; MS2; CE: 90; R=17500; [M+H]+
Name: Atorvastatin
Name: (3R,5R)-7-[2-(4-fluorophenyl)-3-phenyl-4-(phenylcarbamoyl)-5-propan-2-ylpyrrol-1-yl]-3,5-dihydroxyheptanoic acid
Formula: C33H35FN2O5
Exact mass: 558.2530
SMILES: CC(C)c1c(C(=O)Nc2ccccc2)c(-c2ccccc2)c(-c2ccc(F)cc2)n1CC[C@@H](O)C[C@@H](O)CC(O)=O
InChI: InChI=1S/C33H35FN2O5/c1-21(2)31-30(33(41)35-25-11-7-4-8-12-25)29(22-9-5-3-6-10-22)32(23-13-15-24(34)16-14-23)36(31)18-17-26(37)19-27(38)20-28(39)40/h3-16,21,26-27,37-38H,17-20H2,1-2H3,(H,35,41)(H,39,40)/t26-,27-/m1/s1
Instrument: Q Exactive Orbitrap (Thermo Scientific)
Instrument type: LC-ESI-QFT
Ms type: MS2
Ion mode: POSITIVE
Ionization: ESI
Fragmentation mode: HCD
Collision energy: 90
Resolution: 17500
Column name: Acquity BEH C18 1.7um, 2.1x150mm (Waters)
Retention time: 17.824 min
Base peak: 79.0211
Precursor m/z: 559.2603
Precursor type: [M+H]+
Precursor intensity: 8714304.25
m/z	relative intensity	assigned
51.023	8	C4H3+
53.0022	16	C3HO+
53.0386	102	C4H5+
54.0338	5	C3H4N+
55.0179	19	C3H3O+
55.0542	96	C4H7+
57.0335	44	C3H5O+
59.0491	13	C3H7O+
61.0282	4	C2H5O2+
65.0385	101	C5H5+
67.0542	28	C5H7+
68.997	11	C3HO2+
69.0334	69	C4H5O+
69.0698	9	C5H9+
71.0128	43	C3H3O2+
71.0491	39	C4H7O+
73.0284	11	C3H5O2+
77.0385	51	C6H5+
79.0542	111	C6H7+
80.0495	13	C5H6N+
81.0335	10	C5H5O+
81.0699	9	C6H9+
83.0491	103	C5H7O+
89.0235	4	C3H5O3+
91.0542	118	C7H7+
92.0495	249	C6H6N+
94.0415	8	C6H6O+
94.0653	5	C6H8N+
95.0491	380	C6H7O+
97.0284	11	C5H5O2+
97.0646	5	C6H9O+
101.0597	12	C5H9O2+
103.0542	115	C8H7+
104.0494	168	C7H6N+
105.0447	135	C6H5N2+
106.0653	6	C7H8N+
107.049	3	C7H7O+
109.0448	143	C7H6F+
115.0542	356	C9H7+
116.0494	30	C8H6N+
116.0622	24	C9H8+
117.0573	118	C8H7N+
117.0698	24	C9H9+
118.065	7	C8H8N+
120.0444	18	C7H6NO+
121.0448	63	C8H6F+
122.04	201	C7H5FN+
123.0353	20	C6H4FN2+
124.0758	9	C7H10NO+
127.0541	99	C10H7+
128.0497	54	C9H6N+
128.062	220	C10H8+
129.0448	30	C8H5N2+
129.0698	72	C10H9+
130.0651	51	C9H8N+
132.0444	8	C8H6NO+
133.0448	270	C9H6F+
134.0399	20	C8H5FN+
134.0526	11	C9H7F+
134.0601	10	C8H8NO+
135.0478	70	C8H6FN+
135.0607	8	C9H8F+
140.0497	13	C10H6N+
141.0699	40	C11H9+
142.0652	15	C10H8N+
142.0775	8	C11H10+
143.0491	11	C10H7O+
143.073	32	C10H9N+
145.0449	34	C10H6F+
145.0648	195	C10H9O+
146.0399	17	C9H5FN+
146.0526	115	C10H7F+
146.06	64	C9H8NO+
147.0603	29	C10H8F+
148.0557	31	C9H7FN+
152.062	68	C12H8+
153.0575	35	C11H7N+
153.0697	90	C12H9+
154.0651	258	C11H8N+
155.0603	240	C10H7N2+
155.0728	19	C11H9N+
156.0809	17	C11H10N+
159.0603	20	C11H8F+
160.0559	19	C10H7FN+
160.0755	7	C10H10NO+
161.0634	19	C10H8FN+
163.0553	59	C10H8FO+
164.0506	39	C9H7FNO+
165.0699	56	C13H9+
166.0651	31	C12H8N+
167.073	58	C12H9N+
167.0853	7	C13H11+
168.0809	14	C12H10N+
169.0649	19	C12H9O+
170.0524	19	C12H7F+
170.0601	47	C11H8NO+
171.0479	27	C11H6FN+
171.0602	33	C12H8F+
172.0556	188	C11H7FN+
172.075	28	C11H10NO+
173.051	127	C10H6FN2+
173.064	12	C11H8FN+
174.0712	15	C11H9FN+
177.0701	13	C14H9+
178.0777	13	C14H10+
179.0854	5	C14H11+
180.0556	18	C13H8O+
180.0807	62	C13H10N+
181.088	12	C13H11N+
182.0965	13	C13H12N+
183.0604	91	C13H8F+
184.0554	10	C12H7FN+
185.0637	39	C12H8FN+
186.0715	6	C12H9FN+
189.0698	54	C15H9+
190.0659	26	C11H9FNO+
191.0859	9	C15H11+
192.0808	11	C14H10N+
193.0888	11	C14H11N+
194.0963	6	C14H12N+
196.0679	63	C14H9F+
197.0768	8	C14H10F+
198.055	5	C12H8NO2+
198.0713	42	C13H9FN+
199.0795	5	C13H10FN+
200.0875	15	C13H11FN+
202.0776	353	C16H10+
203.0854	123	C16H11+
204.0805	21	C15H10N+
206.0963	6	C15H12N+
207.0602	71	C15H8F+
208.068	46	C15H9F+
209.0761	227	C15H10F+
210.0715	10	C14H9FN+
210.0832	6	C15H11F+
211.0792	33	C14H10FN+
212.0872	5	C14H11FN+
215.074	7	C13H10FNO+
215.0856	25	C17H11+
216.0811	34	C16H10N+
217.0886	66	C16H11N+
218.0963	19	C16H12N+
219.0803	18	C16H11O+
220.0681	211	C16H9F+
221.076	148	C16H10F+
222.0713	114	C15H9FN+
222.0839	86	C16H11F+
223.079	15	C15H10FN+
223.0919	19	C16H12F+
224.0873	13	C15H11FN+
226.0776	16	C18H10+
227.0731	25	C17H9N+
227.0854	9	C18H11+
228.0808	73	C17H10N+
229.0886	23	C17H11N+
229.1003	7	C18H13+
230.0963	125	C17H12N+
233.0761	520	C17H10F+
234.0713	91	C16H9FN+
234.0839	27	C17H11F+
235.0792	718	C16H10FN+
236.0871	92	C16H11FN+
237.071	13	C16H10FO+
237.0948	67	C16H12FN+
238.103	20	C16H13FN+
239.0853	23	C19H11+
241.0885	37	C18H11N+
242.0966	22	C18H12N+
243.1045	7	C18H13N+
245.0759	9	C18H10F+
246.0712	32	C17H9FN+
246.0839	50	C18H11F+
247.079	38	C17H10FN+
247.092	22	C18H12F+
248.087	999	C17H11FN+
249.0947	193	C17H12FN+
250.1026	394	C17H13FN+
254.0962	24	C19H12N+
255.1047	5	C19H13N+
256.1123	8	C19H14N+
257.0759	27	C19H10F+
258.0843	10	C19H11F+
259.079	47	C18H10FN+
259.0923	28	C19H12F+
260.0869	124	C18H11FN+
260.1018	7	C19H13F+
261.0947	260	C18H12FN+
262.1026	181	C18H13FN+
263.074	13	C17H10FNO+
263.1101	24	C18H14FN+
264.082	18	C17H11FNO+
264.1181	36	C18H15FN+
267.1045	7	C20H13N+
270.0839	13	C20H11F+
272.0866	65	C19H11FN+
273.0949	28	C19H12FN+
274.1025	175	C19H13FN+
275.0738	5	C18H10FNO+
275.1102	36	C19H14FN+
276.0825	47	C18H11FNO+
276.1182	254	C19H15FN+
283.0927	5	C21H12F+
285.0949	22	C20H12FN+
286.1031	44	C20H13FN+
287.1102	33	C20H14FN+
288.0822	4	C19H11FNO+
288.1185	48	C20H15FN+
289.1269	5	C20H16FN+
290.0974	11	C19H13FNO+
290.134	15	C20H17FN+
298.1032	9	C21H13FN+
300.1184	26	C21H15FN+
301.1261	5	C21H16FN+
302.1338	25	C21H17FN+
304.1131	6	C20H15FNO+
314.1341	4	C22H17FN+
318.1295	4	C21H17FNO+
