Mass spectrum: 4-Androstene-3,17-dione; LC-ESI-QFT; MS2; CE: 15; R=17500; [M+H]+
Name: 4-Androstene-3,17-dione
Name: Androstenedione
Name: (8R,9S,10R,13S,14S)-10,13-dimethyl-2,6,7,8,9,11,12,14,15,16-decahydro-1H-cyclopenta[a]phenanthrene-3,17-dione
Formula: C19H26O2
Exact mass: 286.1933
SMILES: [H][C@@]12CCC(=O)[C@@]1(C)CC[C@@]1([H])[C@@]2([H])CCC2=CC(=O)CC[C@]12C
InChI: InChI=1S/C19H26O2/c1-18-9-7-13(20)11-12(18)3-4-14-15-5-6-17(21)19(15,2)10-8-16(14)18/h11,14-16H,3-10H2,1-2H3/t14-,15-,16-,18-,19-/m0/s1
Instrument: Q Exactive Orbitrap (Thermo Scientific)
Instrument type: LC-ESI-QFT
Ms type: MS2
Ion mode: POSITIVE
Ionization: ESI
Fragmentation mode: HCD
Collision energy: 15
Resolution: 17500
Column name: Acquity BEH C18 1.7um, 2.1x150mm (Waters)
Retention time: 17.321 min
Base peak: 79.0211
Precursor m/z: 287.2006
Precursor type: [M+H]+
Precursor intensity: 1430096.875
m/z	relative intensity	assigned
83.0492	3	C5H7O+
97.0648	84	C6H9O+
109.0648	32	C7H9O+
123.0803	2	C8H11O+
173.1327	1	C13H17+
185.1325	1	C14H17+
187.1479	1	C14H19+
211.1478	1	C16H19+
251.1797	2	C19H23+
269.1901	11	C19H25O+
287.2005	999	C19H27O2+
