Mass spectrum: Florasulam; LC-ESI-QFT; MS2; CE: 45; R=17500; [M+H]+
Name: Florasulam
Name: N-(2,6-difluorophenyl)-8-fluoro-5-methoxy-[1,2,4]triazolo[1,5-c]pyrimidine-2-sulfonamide
Formula: C12H8F3N5O3S
Exact mass: 359.0300
SMILES: COC1=NC=C(F)C2=NC(=NN12)S(=O)(=O)NC1=C(F)C=CC=C1F
InChI: InChI=1S/C12H8F3N5O3S/c1-23-12-16-5-8(15)10-17-11(18-20(10)12)24(21,22)19-9-6(13)3-2-4-7(9)14/h2-5,19H,1H3
Instrument: Q Exactive Orbitrap (Thermo Scientific)
Instrument type: LC-ESI-QFT
Ms type: MS2
Ion mode: POSITIVE
Ionization: ESI
Fragmentation mode: HCD
Collision energy: 45
Resolution: 17500
Column name: Acquity BEH C18 1.7um, 2.1x150mm (Waters)
Retention time: 13.974 min
Base peak: 79.0211
Precursor m/z: 360.0373
Precursor type: [M+H]+
Precursor intensity: 5615608.0625
m/z	relative intensity	assigned
57.0134	2	C3H2F+
74.04	1	C3H5FN+
77.0197	1	C3H3F2+
82.0287	1	C4H4NO+
84.0244	10	C4H3FN+
99.0353	1	C4H4FN2+
101.051	1	C4H6FN2+
104.0306	2	C4H4F2N+
108.0245	1	C6H3FN+
109.0322	2	C6H4FN+
112.0194	1	C5H3FNO+
114.0463	1	C4H5FN3+
114.999	1	C5HF2O+
115.0303	4	C4H4FN2O+
126.0352	1	C6H5FNO+
127.0304	2	C5H4FN2O+
128.0308	12	C6H4F2N+
129.0384	999	C6H5F2N+
140.0306	1	C7H4F2N+
144.0256	35	C6H4F2NO+
145.0333	6	C6H5F2NO+
146.0413	3	C6H6F2NO+
155.0415	1	C7H5F2N2+
168.0369	2	C7H4F2N3+
191.9927	2	C6H4F2NO2S+
196.0319	2	C8H4F2N3O+
261.0462	1	C11H5F2N5O+
296.0754	1	C12H9F3N5O+
