Mass spectrum: Dipropyl 2,5-pyridinedicarboxylate; LC-ESI-QFT; MS2; CE: 90; R=17500; [M+H]+
Name: Dipropyl 2,5-pyridinedicarboxylate
Name: Dipropyl isocinchomeronate
Name: dipropyl pyridine-2,5-dicarboxylate
Formula: C13H17NO4
Exact mass: 251.1158
SMILES: CCCOC(=O)C1=CC=C(N=C1)C(=O)OCCC
InChI: InChI=1S/C13H17NO4/c1-3-7-17-12(15)10-5-6-11(14-9-10)13(16)18-8-4-2/h5-6,9H,3-4,7-8H2,1-2H3
Instrument: Q Exactive Orbitrap (Thermo Scientific)
Instrument type: LC-ESI-QFT
Ms type: MS2
Ion mode: POSITIVE
Ionization: ESI
Fragmentation mode: HCD
Collision energy: 90
Resolution: 17500
Column name: Acquity BEH C18 1.7um, 2.1x150mm (Waters)
Retention time: 17.731 min
Base peak: 79.0212
Precursor m/z: 252.123
Precursor type: [M+H]+
Precursor intensity: 37118608
m/z	relative intensity	assigned
51.023	17	C4H3+
52.0183	4	C3H2N+
53.0023	112	C3HO+
53.9975	23	C2NO+
54.0101	4	C3H2O+
55.0179	2	C3H3O+
56.0495	63	C3H6N+
66.0339	34	C4H4N+
67.0179	51	C4H3O+
67.9894	10	C3O2+
68.9971	3	C3HO2+
78.0339	287	C5H4N+
80.0131	19	C4H2NO+
84.0445	31	C4H6NO+
94.0288	32	C5H4NO+
95.0129	43	C5H3O2+
96.0445	10	C5H6NO+
109.0159	1	C5H3NO2+
111.0317	2	C5H5NO2+
112.0394	445	C5H6NO2+
122.0238	106	C6H4NO2+
126.0549	3	C6H8NO2+
140.0343	999	C6H6NO3+
154.05	14	C7H8NO3+
168.0293	8	C7H6NO4+
182.0814	111	C9H12NO3+
216.0807	8	C13H12O3+
217.0885	5	C13H13O3+
