Mass spectrum: 3-Thiatetradecanoic acid; LC-ESI-QFT; MS2; CE: 45; R=17500; [M-H]-
Name: 3-Thiatetradecanoic acid
Name: 2-undecylsulfanylacetic acid
Formula: C13H26O2S
Exact mass: 246.1654
SMILES: CCCCCCCCCCCSCC(O)=O
InChI: InChI=1S/C13H26O2S/c1-2-3-4-5-6-7-8-9-10-11-16-12-13(14)15/h2-12H2,1H3,(H,14,15)
Instrument: Q Exactive Orbitrap (Thermo Scientific)
Instrument type: LC-ESI-QFT
Ms type: MS2
Ion mode: NEGATIVE
Ionization: ESI
Fragmentation mode: HCD
Collision energy: 45
Resolution: 17500
Column name: Acquity BEH C18 1.7um, 2.1x150mm (Waters)
Retention time: 20.706 min
Base peak: 245.1581
Precursor m/z: 245.1581
Precursor type: [M-H]-
Precursor intensity: 2569167.57666
m/z	relative intensity	assigned
59.0139	504	C2H3O2-
60.9753	515	CHOS-
63.9623	369	O2S-
201.1681	999	C12H25S-
