Mass spectrum: Indinavir; LC-ESI-QFT; MS2; CE: 75; R=17500; [M+H]+
Name: Indinavir
Formula: C36H47N5O4
Exact mass: 613.3628
SMILES: CC(C)(C)NC(=O)[C@@H]1CN(Cc2cccnc2)CCN1C[C@@H](O)C[C@@H](Cc1ccccc1)C(=O)N[C@H]1c2ccccc2C[C@H]1O
InChI: InChI=1S/C36H47N5O4/c1-36(2,3)39-35(45)31-24-40(22-26-12-9-15-37-21-26)16-17-41(31)23-29(42)19-28(18-25-10-5-4-6-11-25)34(44)38-33-30-14-8-7-13-27(30)20-32(33)43/h4-15,21,28-29,31-33,42-43H,16-20,22-24H2,1-3H3,(H,38,44)(H,39,45)/t28-,29+,31+,32-,33+/m1/s1
Instrument: Q Exactive Orbitrap (Thermo Scientific)
Instrument type: LC-ESI-QFT
Ms type: MS2
Ion mode: POSITIVE
Ionization: ESI
Fragmentation mode: HCD
Collision energy: 75
Resolution: 17500
Column name: Acquity BEH C18 1.7um, 2.1x150mm (Waters)
Retention time: 15.300 min
Base peak: 79.0212
Precursor m/z: 614.3701
Precursor type: [M+H]+
Precursor intensity: 9526680
m/z	relative intensity	assigned
53.0022	1	C3HO+
53.0386	1	C4H5+
54.0339	3	C3H4N+
55.0178	5	C3H3O+
56.0495	47	C3H6N+
57.0573	1	C3H7N+
57.0699	1	C4H9+
65.0386	20	C5H5+
67.0542	4	C5H7+
68.0494	124	C4H6N+
69.0447	41	C3H5N2+
69.0572	4	C4H7N+
70.0651	16	C4H8N+
79.0542	12	C6H7+
80.0495	12	C5H6N+
81.0447	6	C4H5N2+
82.0525	15	C4H6N2+
82.0651	4	C5H8N+
83.0603	60	C4H7N2+
84.0683	9	C4H8N2+
85.0761	1	C4H9N2+
91.0542	66	C7H7+
92.0495	157	C6H6N+
93.0573	27	C6H7N+
94.0651	61	C6H8N+
95.0491	2	C6H7O+
95.0603	3	C5H7N2+
95.0728	1	C6H9N+
96.0443	3	C5H6NO+
96.0683	2	C5H8N2+
96.0809	2	C6H10N+
97.076	999	C5H9N2+
98.0838	21	C5H10N2+
103.0543	8	C8H7+
105.0699	44	C8H9+
106.0651	27	C7H8N+
107.0604	2	C6H7N2+
108.0683	1	C6H8N2+
108.0809	2	C7H10N+
109.076	7	C6H9N2+
110.06	6	C6H8NO+
110.0839	2	C6H10N2+
111.0917	1	C6H11N2+
115.0542	27	C9H7+
117.0571	3	C8H7N+
117.0699	43	C9H9+
118.0652	1	C8H8N+
119.0607	1	C7H7N2+
120.0808	1	C8H10N+
121.076	42	C7H9N2+
122.06	1	C7H8NO+
122.0838	3	C7H10N2+
123.0916	26	C7H11N2+
124.0997	5	C7H12N2+
128.062	12	C10H8+
129.0699	81	C10H9+
131.0855	15	C10H11+
132.0807	13	C9H10N+
133.0648	99	C9H9O+
135.0917	4	C8H11N2+
143.0856	9	C11H11+
145.0648	15	C10H9O+
145.0759	1	C9H9N2+
145.101	2	C11H13+
146.0968	1	C10H12N+
147.0917	4	C9H11N2+
153.0697	1	C12H9+
155.0604	1	C10H7N2+
156.0809	1	C11H10N+
157.0648	46	C11H9O+
163.0865	1	C9H11N2O+
171.0803	4	C12H11O+
171.0918	1	C11H11N2+
174.0914	4	C11H12NO+
174.1026	8	C10H12N3+
175.0753	9	C11H11O2+
175.1103	5	C10H13N3+
176.1182	7	C10H14N3+
188.1183	1	C11H14N3+
