Mass spectrum: Zamifenacin; LC-ESI-QFT; MS2; CE: 75; R=17500; [M+H]+
Name: Zamifenacin
Name: (3R)-3-benzhydryloxy-1-[2-(1,3-benzodioxol-5-yl)ethyl]piperidine
Formula: C27H29NO3
Exact mass: 415.2147
SMILES: C(CC1=CC2=C(OCO2)C=C1)N1CCC[C@H](C1)OC(C1=CC=CC=C1)C1=CC=CC=C1
InChI: InChI=1S/C27H29NO3/c1-3-8-22(9-4-1)27(23-10-5-2-6-11-23)31-24-12-7-16-28(19-24)17-15-21-13-14-25-26(18-21)30-20-29-25/h1-6,8-11,13-14,18,24,27H,7,12,15-17,19-20H2/t24-/m1/s1
Instrument: Q Exactive Orbitrap (Thermo Scientific)
Instrument type: LC-ESI-QFT
Ms type: MS2
Ion mode: POSITIVE
Ionization: ESI
Fragmentation mode: HCD
Collision energy: 75
Resolution: 17500
Column name: Acquity BEH C18 1.7um, 2.1x150mm (Waters)
Retention time: 16.040 min
Base peak: 79.0211
Precursor m/z: 416.222
Precursor type: [M+H]+
Precursor intensity: 37705206.5
m/z	relative intensity	assigned
63.0229	1	C5H3+
65.0385	46	C5H5+
70.065	1	C4H8N+
74.0151	1	C6H2+
89.0388	1	C7H5+
91.0542	506	C7H7+
95.0492	1	C6H7O+
103.0542	2	C8H7+
112.0758	1	C6H10NO+
114.0914	4	C6H12NO+
115.0541	4	C9H7+
119.0491	166	C8H7O+
128.062	22	C10H8+
131.0491	5	C9H7O+
137.0597	29	C8H9O2+
139.0542	1	C11H7+
141.0698	33	C11H9+
149.0598	73	C9H9O2+
151.0542	6	C12H7+
151.0756	1	C9H11O2+
152.062	999	C12H8+
163.0541	1	C13H7+
164.0621	2	C13H8+
165.0699	921	C13H9+
166.0777	302	C13H10+
167.0854	886	C13H11+
169.0646	50	C12H9O+
179.0603	14	C9H9NO3+
183.0804	2	C13H11O+
