Mass spectrum: PharmaGSID_47263; LC-ESI-QFT; MS2; CE: 75; R=17500; [M-H]-
Name: PharmaGSID_47263
Name: 1-Ethyl-5-(4-hydroxyphenyl)-3-methyl-6,7-dihydropyrazolo(4,3-E)(1,4)diazepin-8(1H)-one
Name: 1-ethyl-5-(4-hydroxyphenyl)-3-methyl-6,7-dihydropyrazolo[4,3-e][1,4]diazepin-8-one
Formula: C15H16N4O2
Exact mass: 284.1273
SMILES: CCN1N=C(C)C2=C1C(=O)NCC(=N2)C1=CC=C(O)C=C1
InChI: InChI=1S/C15H16N4O2/c1-3-19-14-13(9(2)18-19)17-12(8-16-15(14)21)10-4-6-11(20)7-5-10/h4-7,20H,3,8H2,1-2H3,(H,16,21)
Instrument: Q Exactive Orbitrap (Thermo Scientific)
Instrument type: LC-ESI-QFT
Ms type: MS2
Ion mode: NEGATIVE
Ionization: ESI
Fragmentation mode: HCD
Collision energy: 75
Resolution: 17500
Column name: Acquity BEH C18 1.7um, 2.1x150mm (Waters)
Retention time: 15.141 min
Base peak: 112.9857
Precursor m/z: 283.12
Precursor type: [M-H]-
Precursor intensity: 1650288.920898
m/z	relative intensity	assigned
64.0068	10	C3N2-
65.0145	36	C3HN2-
90.0097	19	C4N3-
93.0346	259	C6H5O-
106.0411	110	C5H4N3-
117.0346	30	C8H5O-
118.0299	213	C7H4NO-
120.0204	112	C5H2N3O-
130.0299	22	C8H4NO-
131.0377	369	C8H5NO-
132.0455	105	C8H6NO-
143.0251	177	C8H3N2O-
144.0457	54	C9H6NO-
145.0409	46	C8H5N2O-
155.0378	11	C10H5NO-
156.0331	72	C9H4N2O-
157.0409	64	C9H5N2O-
157.0533	21	C10H7NO-
158.0487	31	C9H6N2O-
158.0609	8	C10H8NO-
159.0326	20	C9H5NO2-
160.041	10	C9H6NO2-
163.0277	9	C6H3N4O2-
169.041	21	C10H5N2O-
170.0613	31	C11H8NO-
171.0564	27	C10H7N2O-
173.0355	22	C9H5N2O2-
175.0626	25	C8H7N4O-
182.0485	34	C11H6N2O-
183.0563	25	C11H7N2O-
183.0699	9	C12H9NO-
184.0519	22	C10H6N3O-
185.0357	25	C10H5N2O2-
186.0436	27	C10H6N2O2-
187.0514	8	C10H7N2O2-
195.0567	34	C12H7N2O-
196.0645	17	C12H8N2O-
197.0721	140	C12H9N2O-
198.0561	24	C12H8NO2-
198.0673	34	C11H8N3O-
198.08	28	C12H10N2O-
199.0754	42	C11H9N3O-
199.0859	7	C12H11N2O-
210.0433	12	C12H6N2O2-
211.0391	10	C11H5N3O2-
212.0465	22	C11H6N3O2-
222.0673	20	C13H8N3O-
223.051	13	C13H7N2O2-
224.0592	152	C13H8N2O2-
225.0671	999	C13H9N2O2-
237.0773	8	C13H9N4O-
238.0498	82	C12H6N4O2-
253.0732	691	C13H9N4O2-
255.0888	17	C13H11N4O2-
267.0896	12	C14H11N4O2-
