Mass spectrum: Strychnine; LC-ESI-QFT; MS2; CE: 90; R=17500; [M+H]+
Name: Strychnine
Name: (4aR,5aS,8aR,13aS,15aS,15bR)-4a,5,5a,7,8,13a,15,15a,15b,16-decahydro-2H-4,6-methanoindolo[3,2,1-ij]oxepino[2,3,4-de]pyrrolo[2,3-h]quinolin-14-one
Formula: C21H22N2O2
Exact mass: 334.1681
SMILES: O=C1C[C@@H]2OCC=C3CN4CC[C@]56c7ccccc7N1[C@H]5[C@H]2[C@H]3C[C@H]46
InChI: InChI=1S/C21H22N2O2/c24-18-10-16-19-13-9-17-21(6-7-22(17)11-12(13)5-8-25-16)14-3-1-2-4-15(14)23(18)20(19)21/h1-5,13,16-17,19-20H,6-11H2/t13-,16-,17-,19-,20-,21+/m0/s1
Instrument: Q Exactive Orbitrap (Thermo Scientific)
Instrument type: LC-ESI-QFT
Ms type: MS2
Ion mode: POSITIVE
Ionization: ESI
Fragmentation mode: HCD
Collision energy: 90
Resolution: 17500
Column name: Acquity BEH C18 1.7um, 2.1x150mm (Waters)
Retention time: 10.965 min
Base peak: 79.0211
Precursor m/z: 335.1754
Precursor type: [M+H]+
Precursor intensity: 19296759.1875
m/z	relative intensity	assigned
53.0022	5	C3HO+
53.0386	43	C4H5+
54.0338	4	C3H4N+
55.0178	118	C3H3O+
55.0542	19	C4H7+
56.0495	55	C3H6N+
57.0334	1	C3H5O+
63.0227	2	C5H3+
65.0385	27	C5H5+
66.0463	4	C5H6+
67.0416	6	C4H5N+
67.0542	55	C5H7+
68.0495	34	C4H6N+
69.0334	14	C4H5O+
69.0698	5	C5H9+
70.0651	10	C4H8N+
71.049	6	C4H7O+
77.0384	11	C6H5+
79.0542	160	C6H7+
80.0494	58	C5H6N+
81.0335	11	C5H5O+
81.0573	11	C5H7N+
81.0699	85	C6H9+
82.0651	13	C5H8N+
83.0492	10	C5H7O+
84.0443	3	C4H6NO+
91.0542	173	C7H7+
92.0495	7	C6H6N+
93.0573	97	C6H7N+
93.0699	55	C7H9+
94.0652	69	C6H8N+
95.0491	103	C6H7O+
95.0729	5	C6H9N+
95.0854	9	C7H11+
96.0444	10	C5H6NO+
96.0807	26	C6H10N+
97.0648	3	C6H9O+
98.06	2	C5H8NO+
103.0542	34	C8H7+
104.0495	6	C7H6N+
105.0447	26	C6H5N2+
105.0699	40	C8H9+
106.0651	105	C7H8N+
107.0493	8	C7H7O+
107.0729	11	C7H9N+
107.0852	6	C8H11+
108.0807	47	C7H10N+
109.0649	6	C7H9O+
109.0885	2	C7H11N+
110.0601	2	C6H8NO+
110.0964	3	C7H12N+
115.0542	62	C9H7+
116.0494	8	C8H6N+
116.0621	7	C9H8+
117.0573	32	C8H7N+
117.0698	50	C9H9+
118.0651	49	C8H8N+
119.0489	1	C8H7O+
119.073	2	C8H9N+
119.0855	11	C9H11+
120.0443	4	C7H6NO+
120.0808	14	C8H10N+
121.0647	19	C8H9O+
122.06	31	C7H8NO+
122.0963	4	C8H12N+
123.0807	2	C8H11O+
124.0757	14	C7H10NO+
128.0496	16	C9H6N+
128.062	88	C10H8+
129.0698	689	C10H9+
130.0651	137	C9H8N+
131.0492	2	C9H7O+
131.0731	7	C9H9N+
131.0856	4	C10H11+
132.0444	19	C8H6NO+
132.0808	22	C9H10N+
133.0647	3	C9H9O+
134.0599	3	C8H8NO+
134.0964	5	C9H12N+
135.0802	2	C9H11O+
138.0913	2	C8H12NO+
141.07	7	C11H9+
142.0651	35	C10H8N+
143.0729	54	C10H9N+
143.0852	9	C11H11+
144.0808	226	C10H10N+
145.0648	16	C10H9O+
146.06	21	C9H8NO+
146.0962	5	C10H12N+
147.0804	1	C10H11O+
148.0757	4	C9H10NO+
153.0698	15	C12H9+
154.0651	110	C11H8N+
155.0608	24	C10H7N2+
155.0729	66	C11H9N+
156.0808	999	C11H10N+
157.0761	9	C10H9N2+
157.0882	7	C11H11N+
158.0597	13	C10H8NO+
158.0838	11	C10H10N2+
158.0961	8	C11H12N+
159.0916	2	C10H11N2+
160.0754	11	C10H10NO+
162.0917	1	C10H12NO+
165.0699	18	C13H9+
166.0651	56	C12H8N+
167.073	155	C12H9N+
167.0849	21	C13H11+
168.0807	180	C12H10N+
169.076	36	C11H9N2+
169.0885	20	C12H11N+
170.06	34	C11H8NO+
170.0964	59	C12H12N+
171.0917	27	C11H11N2+
172.0756	11	C11H10NO+
172.0994	1	C11H12N2+
176.0706	1	C10H10NO2+
177.0702	5	C14H9+
178.0774	6	C14H10+
179.0731	14	C13H9N+
179.0856	4	C14H11+
180.0807	116	C13H10N+
181.0885	38	C13H11N+
182.0601	10	C12H8NO+
182.0833	6	C12H10N2+
182.0965	61	C13H12N+
183.0679	43	C12H9NO+
183.0918	5	C12H11N2+
184.0757	484	C12H10NO+
185.071	21	C11H9N2O+
186.0788	6	C11H10N2O+
186.0914	5	C12H12NO+
191.073	49	C14H9N+
192.0807	59	C14H10N+
193.0886	53	C14H11N+
194.0602	21	C13H8NO+
194.0964	173	C14H12N+
195.0918	8	C13H11N2+
195.1042	5	C14H13N+
196.0758	44	C13H10NO+
196.112	7	C14H14N+
197.071	5	C12H9N2O+
197.0829	7	C13H11NO+
197.1074	4	C13H13N2+
198.0548	1	C12H8NO2+
198.0912	30	C13H12NO+
199.0866	3	C12H11N2O+
200.0707	4	C12H10NO2+
202.0776	5	C16H10+
203.0854	3	C16H11+
204.0808	102	C15H10N+
205.0886	65	C15H11N+
206.0964	110	C15H12N+
207.0921	6	C14H11N2+
207.1043	26	C15H13N+
208.076	8	C14H10NO+
208.1004	2	C14H12N2+
208.1118	17	C15H14N+
209.0834	4	C14H11NO+
209.1076	5	C14H13N2+
210.0913	13	C14H12NO+
210.1278	2	C15H16N+
211.0867	2	C13H11N2O+
212.0702	2	C13H10NO2+
212.1075	3	C14H14NO+
216.0807	15	C16H10N+
217.0886	104	C16H11N+
218.0963	100	C16H12N+
219.0677	4	C15H9NO+
219.092	6	C15H11N2+
219.104	33	C16H13N+
220.0757	108	C15H10NO+
220.1118	62	C16H14N+
221.0836	14	C15H11NO+
221.1071	5	C15H13N2+
221.1199	12	C16H15N+
222.0912	45	C15H12NO+
222.1271	10	C16H16N+
223.0869	2	C14H11N2O+
224.1067	2	C15H14NO+
228.0805	10	C17H10N+
229.0887	12	C17H11N+
230.0965	44	C17H12N+
231.1041	27	C17H13N+
232.0755	10	C16H10NO+
232.1119	31	C17H14N+
233.0836	15	C16H11NO+
233.1077	2	C16H13N2+
233.1201	9	C17H15N+
234.0912	47	C16H12NO+
234.1276	19	C17H16N+
235.0994	2	C16H13NO+
235.1232	3	C16H15N2+
236.0704	2	C15H10NO2+
236.1059	6	C16H14NO+
236.1435	3	C17H18N+
237.1025	3	C15H13N2O+
238.0869	2	C15H12NO2+
238.1228	2	C16H16NO+
239.1175	1	C15H15N2O+
241.0886	6	C18H11N+
242.0962	10	C18H12N+
243.1038	11	C18H13N+
244.1122	24	C18H14N+
245.1073	3	C17H13N2+
245.12	4	C18H15N+
246.0914	32	C17H12NO+
246.128	13	C18H16N+
247.0993	8	C17H13NO+
247.1231	3	C17H15N2+
248.1067	19	C17H14NO+
249.1021	2	C16H13N2O+
249.1148	2	C17H15NO+
249.1386	1	C17H17N2+
250.1222	1	C17H16NO+
254.0966	4	C19H12N+
255.1046	3	C19H13N+
256.1116	2	C19H14N+
257.0836	15	C18H11NO+
257.1203	1	C19H15N+
258.0913	8	C18H12NO+
259.0989	4	C18H13NO+
259.1226	2	C18H15N2+
260.1068	11	C18H14NO+
260.1446	2	C19H18N+
261.1146	7	C18H15NO+
262.1224	11	C18H16NO+
263.1178	3	C17H15N2O+
264.1019	12	C17H14NO2+
264.1386	2	C18H18NO+
270.0913	3	C19H12NO+
272.1067	9	C19H14NO+
274.1223	7	C19H16NO+
275.1176	2	C18H15N2O+
289.1332	1	C19H17N2O+
290.1182	1	C19H16NO2+
291.1489	1	C19H19N2O+
307.1433	2	C19H19N2O2+
335.1757	12	C21H23N2O2+
