Mass spectrum: Fluconazole; LC-ESI-QFT; MS2; CE: 75; R=17500; [M-H]-
Name: Fluconazole
Name: 2-(2,4-difluorophenyl)-1,3-bis(1,2,4-triazol-1-yl)propan-2-ol
Formula: C13H12F2N6O
Exact mass: 306.1041
SMILES: OC(CN1C=NC=N1)(CN1C=NC=N1)C1=C(F)C=C(F)C=C1
InChI: InChI=1S/C13H12F2N6O/c14-10-1-2-11(12(15)3-10)13(22,4-20-8-16-6-18-20)5-21-9-17-7-19-21/h1-3,6-9,22H,4-5H2
Instrument: Q Exactive Orbitrap (Thermo Scientific)
Instrument type: LC-ESI-QFT
Ms type: MS2
Ion mode: NEGATIVE
Ionization: ESI
Fragmentation mode: HCD
Collision energy: 75
Resolution: 17500
Column name: Acquity BEH C18 1.7um, 2.1x150mm (Waters)
Retention time: 12.986 min
Base peak: 305.0967
Precursor m/z: 305.0968
Precursor type: [M-H]-
Precursor intensity: 9560552.254883
m/z	relative intensity	assigned
55.0301	1	C2H3N2-
65.0146	1	C3HN2-
65.9985	9	C3NO-
66.0099	1	C2N3-
67.0302	6	C3H3N2-
68.0254	999	C2H2N3-
73.0084	1	C6H-
80.0255	1	C3H2N3-
81.022	1	C4H3NO-
82.0174	1	C3H2N2O-
82.0411	3	C3H4N3-
93.0146	19	C6H2F-
94.0298	3	C5H4NO-
94.0411	33	C4H4N3-
95.0251	3	C4H3N2O-
108.0203	21	C4H2N3O-
113.0209	5	C6H3F2-
119.0302	1	C8H4F-
122.0361	4	C5H4N3O-
191.0687	1	C7H7N6O-
