Mass spectrum: Terbucarb; LC-ESI-QFT; MS2; CE: 30; R=17500; [M+H]+
Name: Terbucarb
Name: (2,6-ditert-butyl-4-methylphenyl) N-methylcarbamate
Formula: C17H27NO2
Exact mass: 277.2042
SMILES: CNC(=O)OC1=C(C=C(C)C=C1C(C)(C)C)C(C)(C)C
InChI: InChI=1S/C17H27NO2/c1-11-9-12(16(2,3)4)14(20-15(19)18-8)13(10-11)17(5,6)7/h9-10H,1-8H3,(H,18,19)
Instrument: Q Exactive Orbitrap (Thermo Scientific)
Instrument type: LC-ESI-QFT
Ms type: MS2
Ion mode: POSITIVE
Ionization: ESI
Fragmentation mode: HCD
Collision energy: 30
Resolution: 17500
Column name: Acquity BEH C18 1.7um, 2.1x150mm (Waters)
Retention time: 20.802 min
Base peak: 79.0211
Precursor m/z: 278.2115
Precursor type: [M+H]+
Precursor intensity: 35730529.78125
m/z	relative intensity	assigned
107.0729	1	C7H9N+
121.0892	3	C8H11N+
122.0964	3	C8H12N+
134.0605	1	C8H8NO+
150.0553	1	C8H8NO2+
151.0627	85	C8H9NO2+
166.0862	692	C9H12NO2+
263.1877	5	C16H25NO2+
278.2114	999	C17H28NO2+
