Mass spectrum: Tomelukast; LC-ESI-QFT; MS2; CE: 75; R=17500; [M+H]+
Name: Tomelukast
Name: 1-[2-hydroxy-3-propyl-4-[4-(2H-tetrazol-5-yl)butoxy]phenyl]ethanone
Formula: C16H22N4O3
Exact mass: 318.1692
SMILES: CCCC1=C(OCCCCC2=NN=NN2)C=CC(C(C)=O)=C1O
InChI: InChI=1S/C16H22N4O3/c1-3-6-13-14(9-8-12(11(2)21)16(13)22)23-10-5-4-7-15-17-19-20-18-15/h8-9,22H,3-7,10H2,1-2H3,(H,17,18,19,20)
Instrument: Q Exactive Orbitrap (Thermo Scientific)
Instrument type: LC-ESI-QFT
Ms type: MS2
Ion mode: POSITIVE
Ionization: ESI
Fragmentation mode: HCD
Collision energy: 75
Resolution: 17500
Column name: Acquity BEH C18 1.7um, 2.1x150mm (Waters)
Retention time: 17.710 min
Base peak: 79.0211
Precursor m/z: 319.1765
Precursor type: [M+H]+
Precursor intensity: 8983643.5625
m/z	relative intensity	assigned
53.0022	38	C3HO+
53.0386	208	C4H5+
54.0339	91	C3H4N+
55.0291	999	C2H3N2+
55.0543	392	C4H7+
56.0495	86	C3H6N+
57.0447	8	C2H5N2+
57.0572	14	C3H7N+
57.0699	19	C4H9+
65.0386	63	C5H5+
67.0542	267	C5H7+
68.0495	120	C4H6N+
69.0447	295	C3H5N2+
70.0651	37	C4H8N+
71.0604	16	C3H7N2+
77.0384	10	C6H5+
79.0542	105	C6H7+
80.0495	167	C5H6N+
81.0574	21	C5H7N+
81.07	16	C6H9+
82.0526	62	C4H6N2+
82.0652	240	C5H8N+
83.0604	8	C4H7N2+
89.0386	33	C7H5+
91.0543	237	C7H7+
93.0335	20	C6H5O+
93.0699	29	C7H9+
94.0415	8	C6H6O+
95.0492	66	C6H7O+
97.0761	93	C5H9N2+
99.0916	11	C5H11N2+
102.0466	10	C8H6+
103.0543	116	C8H7+
104.0495	31	C7H6N+
105.0334	20	C7H5O+
105.0448	30	C6H5N2+
105.07	54	C8H9+
107.0492	161	C7H7O+
109.0648	28	C7H9O+
111.0441	200	C6H7O2+
115.0542	44	C9H7+
116.0496	109	C8H6N+
116.062	13	C9H8+
117.0698	16	C9H9+
119.0492	57	C8H7O+
121.0397	12	C6H5N2O+
121.0649	47	C8H9O+
123.0441	147	C7H7O2+
125.0823	707	C5H9N4+
128.0496	36	C9H6N+
128.0621	29	C10H8+
129.0699	28	C10H9+
130.0652	19	C9H8N+
131.0493	144	C9H7O+
131.0856	14	C10H11+
132.0441	39	C8H6NO+
132.0566	14	C9H8O+
133.0648	33	C9H9O+
134.0362	8	C8H6O2+
134.0598	14	C8H8NO+
135.0441	72	C8H7O2+
135.0555	13	C7H7N2O+
137.0598	104	C8H9O2+
144.0444	34	C9H6NO+
145.0648	36	C10H9O+
146.0597	12	C9H8NO+
147.0441	276	C9H7O2+
148.0394	11	C8H6NO2+
149.0233	8	C8H5O3+
149.0598	87	C9H9O2+
150.0678	16	C9H10O2+
151.0391	12	C8H7O3+
153.0545	16	C8H9O3+
153.0911	9	C9H13O2+
155.0606	12	C10H7N2+
156.0444	81	C10H6NO+
158.0598	10	C10H8NO+
159.0441	28	C10H7O2+
160.0519	31	C10H8O2+
161.0597	90	C10H9O2+
162.055	33	C9H8NO2+
163.0751	24	C10H11O2+
165.0548	72	C9H9O3+
167.0336	9	C6H5N3O3+
171.044	10	C11H7O2+
172.0394	171	C10H6NO2+
173.0599	12	C11H9O2+
174.0552	23	C10H8NO2+
174.0676	21	C11H10O2+
175.0752	20	C11H11O2+
177.0548	92	C10H9O3+
177.091	53	C11H13O2+
179.0703	24	C10H11O3+
184.0395	17	C11H6NO2+
186.0552	53	C11H8NO2+
188.0708	18	C11H10NO2+
189.0907	43	C12H13O2+
190.0499	14	C10H8NO3+
195.102	13	C11H15O3+
202.0864	19	C12H12NO2+
212.0709	13	C13H10NO2+
