Mass spectrum: Tebufenozide; LC-ESI-QFT; MS2; CE: 75; R=17500; [M-H]-
Name: Tebufenozide
Name: N-tert-butyl-N'-(4-ethylbenzoyl)-3,5-dimethylbenzohydrazide
Formula: C22H28N2O2
Exact mass: 352.2151
SMILES: CCC1=CC=C(C=C1)C(=O)NN(C(=O)C1=CC(C)=CC(C)=C1)C(C)(C)C
InChI: InChI=1S/C22H28N2O2/c1-7-17-8-10-18(11-9-17)20(25)23-24(22(4,5)6)21(26)19-13-15(2)12-16(3)14-19/h8-14H,7H2,1-6H3,(H,23,25)
Instrument: Q Exactive Orbitrap (Thermo Scientific)
Instrument type: LC-ESI-QFT
Ms type: MS2
Ion mode: NEGATIVE
Ionization: ESI
Fragmentation mode: HCD
Collision energy: 75
Resolution: 17500
Column name: Acquity BEH C18 1.7um, 2.1x150mm (Waters)
Retention time: 18.217 min
Base peak: 246.0326
Precursor m/z: 351.2078
Precursor type: [M-H]-
Precursor intensity: 52115517.83203
m/z	relative intensity	assigned
94.0423	7	C6H6O-
105.071	999	C8H9-
107.0502	6	C7H7O-
121.0658	18	C8H9O-
122.0373	57	C7H6O2-
145.0773	10	C9H9N2-
148.0768	10	C9H10NO-
149.0608	885	C9H9O2-
160.0644	10	C9H8N2O-
189.0675	10	C10H9N2O2-
