Mass spectrum: Lamivudine; LC-ESI-QFT; MS2; CE: 45; R=17500; [M+H]+
Name: Lamivudine
Name: 4-Amino-1-[(2S,5R)-2-(hydroxymethyl)-1,3-oxathiolan-5-yl]pyrimidin-2(1H)-one
Name: 4-amino-1-[(2S,5R)-2-(hydroxymethyl)-1,3-oxathiolan-5-yl]pyrimidin-2-one
Formula: C8H11N3O3S
Exact mass: 229.0521
SMILES: NC1=NC(=O)N(C=C1)[C@H]1CS[C@@H](CO)O1
InChI: InChI=1S/C8H11N3O3S/c9-5-1-2-11(8(13)10-5)6-4-15-7(3-12)14-6/h1-2,6-7,12H,3-4H2,(H2,9,10,13)/t6-,7+/m1/s1
Instrument: Q Exactive Orbitrap (Thermo Scientific)
Instrument type: LC-ESI-QFT
Ms type: MS2
Ion mode: POSITIVE
Ionization: ESI
Fragmentation mode: HCD
Collision energy: 45
Resolution: 17500
Column name: Acquity BEH C18 1.7um, 2.1x150mm (Waters)
Retention time: 3.361 min
Base peak: 79.0211
Precursor m/z: 230.0594
Precursor type: [M+H]+
Precursor intensity: 2469518.21875
m/z	relative intensity	assigned
101.0058	18	C4H5OS+
112.0506	999	C4H6N3O+
