Mass spectrum: 2,2`-[(4-Methylphenyl)imino]diethanol; LC-ESI-QFT; MS2; CE: 60; R=17500; [M+H]+
Name: 2,2'-[(4-Methylphenyl)imino]diethanol
Name: N,N-Bis(2-hydroxyethyl)-p-toluidine
Name: 2-[N-(2-hydroxyethyl)-4-methylanilino]ethanol
Formula: C11H17NO2
Exact mass: 195.1259
SMILES: CC1=CC=C(C=C1)N(CCO)CCO
InChI: InChI=1S/C11H17NO2/c1-10-2-4-11(5-3-10)12(6-8-13)7-9-14/h2-5,13-14H,6-9H2,1H3
Instrument: Q Exactive Orbitrap (Thermo Scientific)
Instrument type: LC-ESI-QFT
Ms type: MS2
Ion mode: POSITIVE
Ionization: ESI
Fragmentation mode: HCD
Collision energy: 60
Resolution: 17500
Column name: Acquity BEH C18 1.7um, 2.1x150mm (Waters)
Retention time: 9.123 min
Base peak: 79.0211
Precursor m/z: 196.1332
Precursor type: [M+H]+
Precursor intensity: 18134265.28125
m/z	relative intensity	assigned
65.0385	1	C5H5+
79.0541	2	C6H7+
91.0541	29	C7H7+
92.0619	5	C7H8+
93.0572	6	C6H7N+
93.0699	13	C7H9+
94.0652	1	C6H8N+
103.0541	1	C8H7+
105.0699	11	C8H9+
106.0651	13	C7H8N+
106.0777	1	C8H10+
107.0729	46	C7H9N+
107.0854	6	C8H11+
108.0807	31	C7H10N+
109.0649	5	C7H9O+
115.0542	9	C9H7+
117.0573	13	C8H7N+
117.0698	22	C9H9+
118.0651	44	C8H8N+
119.073	133	C8H9N+
120.0807	999	C8H10N+
128.0619	1	C10H8+
130.0651	8	C9H8N+
131.0729	9	C9H9N+
132.0808	124	C9H10N+
133.0886	254	C9H11N+
134.0963	681	C9H12N+
135.104	8	C9H13N+
143.0857	1	C11H11+
144.0807	12	C10H10N+
145.0885	30	C10H11N+
146.0961	1	C10H12N+
150.0914	4	C9H12NO+
151.0991	145	C9H13NO+
152.1069	28	C9H14NO+
158.0963	3	C11H12N+
160.1119	39	C11H14N+
163.0992	1	C10H13NO+
178.1225	88	C11H16NO+
196.1331	31	C11H18NO2+
