Mass spectrum: Bupirimate; LC-ESI-QFT; MS2; CE: 30; R=17500; [M+H]+
Name: Bupirimate
Name: [5-butyl-2-(ethylamino)-6-methylpyrimidin-4-yl] N,N-dimethylsulfamate
Formula: C13H24N4O3S
Exact mass: 316.1569
SMILES: CCCCC1=C(OS(=O)(=O)N(C)C)N=C(NCC)N=C1C
InChI: InChI=1S/C13H24N4O3S/c1-6-8-9-11-10(3)15-13(14-7-2)16-12(11)20-21(18,19)17(4)5/h6-9H2,1-5H3,(H,14,15,16)
Instrument: Q Exactive Orbitrap (Thermo Scientific)
Instrument type: LC-ESI-QFT
Ms type: MS2
Ion mode: POSITIVE
Ionization: ESI
Fragmentation mode: HCD
Collision energy: 30
Resolution: 17500
Column name: Acquity BEH C18 1.7um, 2.1x150mm (Waters)
Retention time: 17.276 min
Base peak: 79.0211
Precursor m/z: 317.1642
Precursor type: [M+H]+
Precursor intensity: 25623678
m/z	relative intensity	assigned
96.0444	1	C5H6NO+
96.0809	1	C6H10N+
97.0398	3	C4H5N2O+
108.0114	189	C2H6NO2S+
110.0967	2	C7H12N+
112.112	5	C7H14N+
137.1075	1	C8H13N2+
138.0662	2	C6H8N3O+
138.0914	1	C8H12NO+
138.1029	1	C7H12N3+
139.0739	2	C6H9N3O+
140.0375	1	C3H10NO3S+
140.107	10	C8H14NO+
142.0974	3	C6H12N3O+
148.0869	4	C8H10N3+
150.1026	110	C8H12N3+
151.123	12	C9H15N2+
152.0819	1	C7H10N3O+
153.0895	6	C7H11N3O+
154.0976	3	C7H12N3O+
164.1188	1	C3H20N2O3S+
165.0898	2	C8H11N3O+
165.1024	5	C9H13N2O+
166.0975	328	C8H12N3O+
167.1053	39	C8H13N3O+
180.1132	4	C9H14N3O+
180.1496	21	C10H18N3+
181.121	8	C9H15N3O+
182.1287	1	C9H16N3O+
191.1179	1	C11H15N2O+
192.1496	44	C11H18N3+
193.1337	17	C11H17N2O+
194.1288	26	C10H16N3O+
196.1321	5	C9H16N4O+
208.1445	151	C11H18N3O+
209.1523	99	C11H19N3O+
210.1601	197	C11H20N3O+
224.1757	10	C12H22N3O+
228.08	1	C9H14N3O2S+
237.2074	200	C13H25N4+
253.2023	4	C13H25N4O+
254.0956	4	C11H16N3O2S+
262.0854	4	C12H14N4OS+
272.1063	270	C11H18N3O3S+
317.1642	999	C13H25N4O3S+
