Mass spectrum: Cetirizine dihydrochloride; LC-ESI-QFT; MS2; CE: 15; R=17500; [M+H]+
Name: Cetirizine
Name: 2-[2-[4-[(4-chlorophenyl)-phenylmethyl]piperazin-1-yl]ethoxy]acetic acid
Formula: C21H25ClN2O3
Exact mass: 388.1554
SMILES: OC(=O)COCCN1CCN(CC1)C(C1=CC=CC=C1)C1=CC=C(Cl)C=C1
InChI: InChI=1S/C21H25ClN2O3/c22-19-8-6-18(7-9-19)21(17-4-2-1-3-5-17)24-12-10-23(11-13-24)14-15-27-16-20(25)26/h1-9,21H,10-16H2,(H,25,26)
Instrument: Q Exactive Orbitrap (Thermo Scientific)
Instrument type: LC-ESI-QFT
Ms type: MS2
Ion mode: POSITIVE
Ionization: ESI
Fragmentation mode: HCD
Collision energy: 15
Resolution: 17500
Column name: Acquity BEH C18 1.7um, 2.1x150mm (Waters)
Retention time: 16.353 min
Base peak: 79.0211
Precursor m/z: 389.1626
Precursor type: [M+H]+
Precursor intensity: 14542424.21875
m/z	relative intensity	assigned
131.0855	4	C10H11+
132.0888	4	C5H12N2O2+
165.069	3	C13H9+
187.1077	36	C8H15N2O3+
201.0465	999	C13H10Cl+
389.1627	462	C21H26ClN2O3+
