Mass spectrum: 1-(4-Methoxyphenyl)-1-pentene-3-one; LC-ESI-QFT; MS2; CE: 90; R=17500; [M+H]+
Name: 1-(4-Methoxyphenyl)-1-pentene-3-one
Name: 1-Penten-3-one, 1-(4-methoxyphenyl)-, (1E)-
Name: 1-(4-methoxyphenyl)pent-1-en-3-one
Formula: C12H14O2
Exact mass: 190.0994
SMILES: CCC(=O)C=CC1=CC=C(OC)C=C1
InChI: InChI=1S/C12H14O2/c1-3-11(13)7-4-10-5-8-12(14-2)9-6-10/h4-9H,3H2,1-2H3
Instrument: Q Exactive Orbitrap (Thermo Scientific)
Instrument type: LC-ESI-QFT
Ms type: MS2
Ion mode: POSITIVE
Ionization: ESI
Fragmentation mode: HCD
Collision energy: 90
Resolution: 17500
Column name: Acquity BEH C18 1.7um, 2.1x150mm (Waters)
Retention time: 17.008 min
Base peak: 79.0211
Precursor m/z: 191.1067
Precursor type: [M+H]+
Precursor intensity: 5889811.75
m/z	relative intensity	assigned
53.0386	31	C4H5+
55.0178	11	C3H3O+
55.0542	18	C4H7+
57.0335	257	C3H5O+
59.0492	5	C3H7O+
65.0386	28	C5H5+
67.0542	5	C5H7+
77.0385	10	C6H5+
78.0464	67	C6H6+
79.0542	25	C6H7+
83.0489	4	C5H7O+
91.0543	266	C7H7+
92.0256	11	C6H4O+
93.0699	9	C7H9+
94.0413	22	C6H6O+
95.0491	95	C6H7O+
102.0465	14	C8H6+
103.0542	32	C8H7+
105.0336	5	C7H5O+
105.0699	39	C8H9+
106.0413	18	C7H6O+
107.0491	7	C7H7O+
108.0569	7	C7H8O+
109.0649	12	C7H9O+
115.0543	999	C9H7+
116.062	10	C9H8+
117.0699	19	C9H9+
118.0413	9	C8H6O+
119.0492	74	C8H7O+
120.0569	18	C8H8O+
121.0648	342	C8H9O+
125.0598	6	C7H9O2+
127.0542	4	C10H7+
128.0621	167	C10H8+
129.0699	299	C10H9+
130.0777	142	C10H10+
131.049	20	C9H7O+
132.0569	7	C9H8O+
133.0649	39	C9H9O+
134.0726	10	C9H10O+
135.0439	9	C8H7O2+
135.0806	6	C9H11O+
140.0621	9	C11H8+
141.0699	158	C11H9+
142.0413	8	C10H6O+
142.0778	46	C11H10+
143.0492	131	C10H7O+
144.0569	29	C10H8O+
145.0648	30	C10H9O+
147.0441	32	C9H7O2+
147.0803	8	C10H11O+
157.0649	92	C11H9O+
158.0727	337	C11H10O+
159.0805	14	C11H11O+
160.0519	19	C10H8O2+
161.0598	19	C10H9O2+
175.0753	20	C11H11O2+
