Mass spectrum: 4`-Sulfamylacetanilide; LC-ESI-QFT; MS2; CE: 75; R=17500; [M+H]+
Name: 4'-Sulfamylacetanilide
Name: 4-Acetamidobenzenesulfonamide
Name: N-(4-sulfamoylphenyl)acetamide
Formula: C8H10N2O3S
Exact mass: 214.0412
SMILES: CC(=O)NC1=CC=C(C=C1)S(N)(=O)=O
InChI: InChI=1S/C8H10N2O3S/c1-6(11)10-7-2-4-8(5-3-7)14(9,12)13/h2-5H,1H3,(H,10,11)(H2,9,12,13)
Instrument: Q Exactive Orbitrap (Thermo Scientific)
Instrument type: LC-ESI-QFT
Ms type: MS2
Ion mode: POSITIVE
Ionization: ESI
Fragmentation mode: HCD
Collision energy: 75
Resolution: 17500
Column name: Acquity BEH C18 1.7um, 2.1x150mm (Waters)
Retention time: 8.299 min
Base peak: 79.0212
Precursor m/z: 215.0485
Precursor type: [M+H]+
Precursor intensity: 1211738.375
m/z	relative intensity	assigned
53.0386	4	C4H5+
55.0542	3	C4H7+
61.0106	8	C2H5S+
63.9976	2	CH4OS+
65.0386	176	C5H5+
66.0463	11	C5H6+
79.0212	38	C2H7OS+
79.0542	8	C6H7+
79.9801	8	H2NO2S+
80.0494	4	C5H6N+
92.0495	37	C6H6N+
93.0573	999	C6H7N+
94.0651	199	C6H8N+
95.0492	10	C6H7O+
105.0446	4	C6H5N2+
106.0651	7	C7H8N+
108.0444	57	C6H6NO+
110.06	15	C6H8NO+
134.06	18	C8H8NO+
136.0757	10	C8H10NO+
153.9593	3	C5NO3S+
