Mass spectrum: Indole-3-butyric acid; LC-ESI-QFT; MS2; CE: 30; R=17500; [M-H]-
Name: Indole-3-butyric acid
Name: 4-(1H-indol-3-yl)butanoic acid
Formula: C12H13NO2
Exact mass: 203.0946
SMILES: OC(=O)CCCC1=CNC2=C1C=CC=C2
InChI: InChI=1S/C12H13NO2/c14-12(15)7-3-4-9-8-13-11-6-2-1-5-10(9)11/h1-2,5-6,8,13H,3-4,7H2,(H,14,15)
Instrument: Q Exactive Orbitrap (Thermo Scientific)
Instrument type: LC-ESI-QFT
Ms type: MS2
Ion mode: NEGATIVE
Ionization: ESI
Fragmentation mode: HCD
Collision energy: 30
Resolution: 17500
Column name: Acquity BEH C18 1.7um, 2.1x150mm (Waters)
Retention time: 15.810 min
Base peak: 112.9857
Precursor m/z: 202.0874
Precursor type: [M-H]-
Precursor intensity: 7493288.260254
m/z	relative intensity	assigned
57.0345	3	C3H5O-
59.0139	12	C2H3O2-
71.0139	4	C3H3O2-
73.0296	13	C3H5O2-
85.0295	4	C4H5O2-
116.0506	388	C8H6N-
129.0585	11	C9H7N-
130.0663	5	C9H8N-
135.0452	9	C8H7O2-
142.0662	14	C10H8N-
156.082	9	C11H10N-
158.0975	509	C11H12N-
161.0483	18	C9H7NO2-
184.0768	53	C12H10NO-
202.0874	999	C12H12NO2-
