Mass spectrum: Tolnaftate; LC-ESI-QFT; MS2; CE: 90; R=17500; [M+H]+
Name: Tolnaftate
Name: O-naphthalen-2-yl N-methyl-N-(3-methylphenyl)carbamothioate
Formula: C19H17NOS
Exact mass: 307.1031
SMILES: CN(C(=S)OC1=CC2=CC=CC=C2C=C1)C1=CC=CC(C)=C1
InChI: InChI=1S/C19H17NOS/c1-14-6-5-9-17(12-14)20(2)19(22)21-18-11-10-15-7-3-4-8-16(15)13-18/h3-13H,1-2H3
Instrument: Q Exactive Orbitrap (Thermo Scientific)
Instrument type: LC-ESI-QFT
Ms type: MS2
Ion mode: POSITIVE
Ionization: ESI
Fragmentation mode: HCD
Collision energy: 90
Resolution: 17500
Column name: Acquity BEH C18 1.7um, 2.1x150mm (Waters)
Retention time: 19.422 min
Base peak: 79.0211
Precursor m/z: 308.1104
Precursor type: [M+H]+
Precursor intensity: 17791153.5
m/z	relative intensity	assigned
53.0022	2	C3HO+
53.0386	12	C4H5+
55.0178	2	C3H3O+
56.013	1	C2H2NO+
63.0228	4	C5H3+
65.0385	245	C5H5+
67.0542	8	C5H7+
77.0384	4	C6H5+
78.0463	2	C6H6+
79.0542	52	C6H7+
80.0494	5	C5H6N+
91.0542	999	C7H7+
92.0494	5	C6H6N+
92.062	76	C7H8+
93.0699	89	C7H9+
94.0413	2	C6H6O+
94.0652	3	C6H8N+
95.0491	42	C6H7O+
103.0542	13	C8H7+
104.0494	21	C7H6N+
105.0573	17	C7H7N+
106.0651	1	C7H8N+
107.0491	14	C7H7O+
108.0568	2	C7H8O+
108.0807	5	C7H10N+
109.0648	88	C7H9O+
110.06	2	C6H8NO+
111.0261	2	C6H7S+
115.0542	23	C9H7+
117.0573	2	C8H7N+
118.0651	22	C8H8N+
120.0807	362	C8H10N+
123.0263	21	C7H7S+
123.0801	1	C8H11O+
125.0421	1	C7H9S+
128.0619	1	C10H8+
132.0445	4	C8H6NO+
133.0521	21	C8H7NO+
136.0215	18	C7H6NS+
137.0291	1	C7H7NS+
148.0757	4	C9H10NO+
149.0293	18	C8H7NS+
159.0262	2	C10H7S+
164.0526	2	C9H10NS+
165.0243	4	C8H7NOS+
