Mass spectrum: Imazalil; LC-ESI-QFT; MS2; CE: 90; R=17500; [M+H]+
Name: Imazalil
Name: Enilconazole
Name: 1-[2-(2,4-dichlorophenyl)-2-prop-2-enoxyethyl]imidazole
Formula: C14H14Cl2N2O
Exact mass: 296.0483
SMILES: ClC1=CC(Cl)=C(C=C1)C(CN1C=CN=C1)OCC=C
InChI: InChI=1S/C14H14Cl2N2O/c1-2-7-19-14(9-18-6-5-17-10-18)12-4-3-11(15)8-13(12)16/h2-6,8,10,14H,1,7,9H2
Instrument: Q Exactive Orbitrap (Thermo Scientific)
Instrument type: LC-ESI-QFT
Ms type: MS2
Ion mode: POSITIVE
Ionization: ESI
Fragmentation mode: HCD
Collision energy: 90
Resolution: 17500
Column name: Acquity BEH C18 1.7um, 2.1x150mm (Waters)
Retention time: 15.289 min
Base peak: 79.0212
Precursor m/z: 297.0556
Precursor type: [M+H]+
Precursor intensity: 35283886.90625
m/z	relative intensity	assigned
52.0183	4	C3H2N+
53.0022	270	C3HO+
53.9975	44	C2NO+
54.01	5	C3H2O+
54.0339	48	C3H4N+
55.0178	7	C3H3O+
55.0543	26	C4H7+
63.023	3	C5H3+
65.0385	17	C5H5+
67.0416	71	C4H5N+
67.9892	13	ClH3NO+
68.0494	19	C4H6N+
69.0447	719	C3H5N2+
80.0495	30	C5H6N+
81.0447	323	C4H5N2+
82.0526	71	C4H6N2+
82.0651	28	C5H8N+
83.0604	2	C4H7N2+
89.0386	61	C7H5+
91.0542	5	C7H7+
96.9839	3	C5H2Cl+
98.9996	58	C5H4Cl+
102.0464	83	C8H6+
103.0542	52	C8H7+
107.0603	2	C6H7N2+
108.0683	2	C6H8N2+
109.0761	10	C6H9N2+
113.0709	3	C5H9N2O+
115.0542	69	C9H7+
119.0491	7	C8H7O+
122.9996	281	C7H4Cl+
124.0075	87	C7H5Cl+
125.0152	16	C7H6Cl+
128.0621	20	C10H8+
129.0447	18	C8H5N2+
129.0699	52	C10H9+
131.0492	2	C9H7O+
132.9607	35	C5H3Cl2+
136.0076	12	C8H5Cl+
137.0153	44	C8H6Cl+
138.0231	66	C8H7Cl+
139.0543	16	C11H7+
140.0622	9	C11H8+
141.0699	204	C11H9+
145.0649	2	C10H9O+
149.0154	26	C9H6Cl+
150.0232	8	C9H7Cl+
155.0603	3	C10H7N2+
158.9763	999	C7H5Cl2+
164.0383	1	C10H9Cl+
165.0101	3	C9H6ClO+
170.9762	3	C8H5Cl2+
171.984	5	C8H6Cl2+
172.992	53	C8H7Cl2+
175.0309	14	C11H8Cl+
176.0387	12	C11H9Cl+
182.9764	9	C9H5Cl2+
195.9841	5	C10H6Cl2+
203.0376	2	C11H8ClN2+
