Mass spectrum: Fluorescein; LC-ESI-QFT; MS2; CE: 30; R=17500; [M-H]-
Name: Fluorescein
Name: 3',6'-dihydroxyspiro[2-benzofuran-3,9'-xanthene]-1-one
Formula: C20H12O5
Exact mass: 332.0685
SMILES: OC1=CC2=C(C=C1)C1(OC(=O)C3=C1C=CC=C3)C1=C(O2)C=C(O)C=C1
InChI: InChI=1S/C20H12O5/c21-11-5-7-15-17(9-11)24-18-10-12(22)6-8-16(18)20(15)14-4-2-1-3-13(14)19(23)25-20/h1-10,21-22H
Instrument: Q Exactive Orbitrap (Thermo Scientific)
Instrument type: LC-ESI-QFT
Ms type: MS2
Ion mode: NEGATIVE
Ionization: ESI
Fragmentation mode: HCD
Collision energy: 30
Resolution: 17500
Column name: Acquity BEH C18 1.7um, 2.1x150mm (Waters)
Retention time: 15.805 min
Base peak: 331.0612
Precursor m/z: 331.0612
Precursor type: [M-H]-
Precursor intensity: 10276706.63086
m/z	relative intensity	assigned
215.0867	4	C17H11-
217.0658	1	C16H9O-
231.0818	1	C17H11O-
242.0737	1	C18H10O-
243.0815	64	C18H11O-
245.0607	16	C17H9O2-
246.0683	4	C17H10O2-
259.0764	61	C18H11O2-
269.0607	2	C19H9O2-
285.0559	95	C19H9O3-
286.0636	999	C19H10O3-
287.0713	642	C19H11O3-
331.0612	108	C20H11O5-
