Mass spectrum: Thiophanate; LC-ESI-QFT; MS2; CE: 30; R=17500; [M+H]+
Name: Thiophanate
Name: N'-ethoxycarbonyl-N-[2-[(N-ethoxycarbonyl-C-sulfanylcarbonimidoyl)amino]phenyl]carbamimidothioic acid
Formula: C14H18N4O4S2
Exact mass: 370.0769
SMILES: CCOC(=O)NC(=S)NC1=C(NC(=S)NC(=O)OCC)C=CC=C1
InChI: InChI=1S/C14H18N4O4S2/c1-3-21-13(19)17-11(23)15-9-7-5-6-8-10(9)16-12(24)18-14(20)22-4-2/h5-8H,3-4H2,1-2H3,(H2,15,17,19,23)(H2,16,18,20,24)
Instrument: Q Exactive Orbitrap (Thermo Scientific)
Instrument type: LC-ESI-QFT
Ms type: MS2
Ion mode: POSITIVE
Ionization: ESI
Fragmentation mode: HCD
Collision energy: 30
Resolution: 17500
Column name: Acquity BEH C18 1.7um, 2.1x150mm (Waters)
Retention time: 16.519 min
Base peak: 79.0212
Precursor m/z: 371.0842
Precursor type: [M+H]+
Precursor intensity: 11600925.375
m/z	relative intensity	assigned
59.9902	33	CH2NS+
62.0236	11	CH4NO2+
85.9695	24	C2NOS+
88.0216	2	C3H6NS+
90.055	13	C3H8NO2+
93.0572	1	C6H7N+
103.9801	9	C2H2NO2S+
109.0761	13	C6H9N2+
132.0114	14	C4H6NO2S+
134.0713	8	C7H8N3+
135.0552	6	C7H7N2O+
149.017	7	C7H5N2S+
151.0324	999	C7H7N2S+
160.0505	25	C8H6N3O+
176.0278	6	C8H6N3S+
177.0116	3	C8H5N2OS+
178.0611	13	C8H8N3O2+
179.0637	1	C9H11N2S+
192.9893	3	C8H5N2S2+
194.0383	34	C8H8N3OS+
195.0223	1	C8H7N2O2S+
206.0924	34	C10H12N3O2+
219.0335	23	C9H7N4OS+
223.0539	2	C10H11N2O2S+
235.9948	41	C9H6N3OS2+
240.0802	2	C10H14N3O2S+
245.0128	4	C10H5N4O2S+
265.0752	9	C11H13N4O2S+
279.0005	6	C10H7N4O2S2+
282.0365	12	C11H12N3O2S2+
291.0545	6	C12H11N4O3S+
325.0423	5	C12H13N4O3S2+
