Mass spectrum: Phosfolan; LC-ESI-QFT; MS2; CE: 75; R=17500; [M+H]+
Name: Phosfolan
Name: N-diethoxyphosphoryl-1,3-dithiolan-2-imine
Formula: C7H14NO3PS2
Exact mass: 255.0153
SMILES: CCOP(=O)(OCC)N=C1SCCS1
InChI: InChI=1S/C7H14NO3PS2/c1-3-10-12(9,11-4-2)8-7-13-5-6-14-7/h3-6H2,1-2H3
Instrument: Q Exactive Orbitrap (Thermo Scientific)
Instrument type: LC-ESI-QFT
Ms type: MS2
Ion mode: POSITIVE
Ionization: ESI
Fragmentation mode: HCD
Collision energy: 75
Resolution: 17500
Column name: Acquity BEH C18 1.7um, 2.1x150mm (Waters)
Retention time: 14.046 min
Base peak: 79.0211
Precursor m/z: 256.0225
Precursor type: [M+H]+
Precursor intensity: 27512799.21875
m/z	relative intensity	assigned
58.995	5	C2H3S+
59.9902	327	CH2NS+
61.0106	731	C2H5S+
64.9787	2	H2O2P+
74.0964	1	C4H12N+
79.0212	1	C2H7OS+
80.9735	1	H2O3P+
86.0058	2	C3H4NS+
96.9506	3	H2O2PS+
109.0049	15	C2H6O3P+
114.9613	33	H4O3PS+
119.9937	4	C3H6NS2+
128.9766	1	CH6O3PS+
137.9233	1	CHNOPS2+
139.9565	999	CH3NO3PS+
140.9765	2	C2H6O3PS+
199.9599	3	C3H7NO3PS2+
