Mass spectrum: Tetraconazole; LC-ESI-QFT; MS2; CE: 15; R=17500; [M+H]+
Name: Tetraconazole
Name: 1-[2-(2,4-dichlorophenyl)-3-(1,1,2,2-tetrafluoroethoxy)propyl]-1,2,4-triazole
Formula: C13H11Cl2F4N3O
Exact mass: 371.0215
SMILES: FC(F)C(F)(F)OCC(CN1C=NC=N1)C1=C(Cl)C=C(Cl)C=C1
InChI: InChI=1S/C13H11Cl2F4N3O/c14-9-1-2-10(11(15)3-9)8(4-22-7-20-6-21-22)5-23-13(18,19)12(16)17/h1-3,6-8,12H,4-5H2
Instrument: Q Exactive Orbitrap (Thermo Scientific)
Instrument type: LC-ESI-QFT
Ms type: MS2
Ion mode: POSITIVE
Ionization: ESI
Fragmentation mode: HCD
Collision energy: 15
Resolution: 17500
Column name: Acquity BEH C18 1.7um, 2.1x150mm (Waters)
Retention time: 17.947 min
Base peak: 79.0212
Precursor m/z: 372.0288
Precursor type: [M+H]+
Precursor intensity: 15803802
m/z	relative intensity	assigned
70.04	36	C2H4N3+
158.9759	21	C2H4Cl2FN3+
184.9919	1	C9H7Cl2+
204.9979	1	C4H7Cl2F2N3+
302.9961	1	C11H9Cl2F4O+
372.0288	999	C13H12Cl2F4N3O+
