Mass spectrum: Dinotefuran; LC-ESI-QFT; MS2; CE: 30; R=17500; [M-H]-
Name: Dinotefuran
Name: Scorpion
Name: 2-methyl-1-nitro-3-(oxolan-3-ylmethyl)guanidine
Formula: C7H14N4O3
Exact mass: 202.1066
SMILES: CNC(NCC1CCOC1)=N[N+]([O-])=O
InChI: InChI=1S/C7H14N4O3/c1-8-7(10-11(12)13)9-4-6-2-3-14-5-6/h6H,2-5H2,1H3,(H2,8,9,10)
Instrument: Q Exactive Orbitrap (Thermo Scientific)
Instrument type: LC-ESI-QFT
Ms type: MS2
Ion mode: NEGATIVE
Ionization: ESI
Fragmentation mode: HCD
Collision energy: 30
Resolution: 17500
Column name: Acquity BEH C18 1.7um, 2.1x150mm (Waters)
Retention time: 9.295 min
Base peak: 201.0993
Precursor m/z: 201.0993
Precursor type: [M-H]-
Precursor intensity: 685667.3723145
m/z	relative intensity	assigned
55.03	34	C2H3N2-
61.0044	999	HN2O2-
68.0506	123	C4H6N-
73.0407	33	C2H5N2O-
109.0773	41	C6H9N2-
139.0875	33	C7H11N2O-
201.0994	389	C7H13N4O3-
