Mass spectrum: Indoxacarb; LC-ESI-QFT; MS2; CE: 90; R=17500; [M+H]+
Name: Indoxacarb
Name: methyl (4aS)-7-chloro-2-[methoxycarbonyl-[4-(trifluoromethoxy)phenyl]carbamoyl]-3,5-dihydroindeno[1,2-e][1,3,4]oxadiazine-4a-carboxylate
Formula: C22H17ClF3N3O7
Exact mass: 527.0707
SMILES: COC(=O)N(C(=O)N1CO[C@]2(CC3=C(C=CC(Cl)=C3)C2=N1)C(=O)OC)C1=CC=C(OC(F)(F)F)C=C1
InChI: InChI=1S/C22H17ClF3N3O7/c1-33-18(30)21-10-12-9-13(23)3-8-16(12)17(21)27-28(11-35-21)19(31)29(20(32)34-2)14-4-6-15(7-5-14)36-22(24,25)26/h3-9H,10-11H2,1-2H3/t21-/m0/s1
Instrument: Q Exactive Orbitrap (Thermo Scientific)
Instrument type: LC-ESI-QFT
Ms type: MS2
Ion mode: POSITIVE
Ionization: ESI
Fragmentation mode: HCD
Collision energy: 90
Resolution: 17500
Column name: Acquity BEH C18 1.7um, 2.1x150mm (Waters)
Retention time: 18.917 min
Base peak: 79.0211
Precursor m/z: 528.078
Precursor type: [M+H]+
Precursor intensity: 4686261.59375
m/z	relative intensity	assigned
51.023	11	C4H3+
53.0022	5	C3HO+
53.0386	36	C4H5+
56.0131	564	C2H2NO+
58.0287	6	C2H4NO+
63.0229	26	C5H3+
65.0385	13	C5H5+
68.9946	158	CF3+
69.9924	17	C2NO2+
75.0229	58	C6H3+
75.0441	12	C3H7O2+
77.0021	27	C5HO+
77.0385	23	C6H5+
78.0338	135	C5H4N+
81.0149	5	C2H3F2O+
81.0335	10	C5H5O+
83.0292	20	C5H4F+
89.0386	61	C7H5+
90.0338	39	C6H4N+
91.0542	8	C7H7+
93.0574	8	C6H7N+
94.0413	3	C6H6O+
95.0492	111	C6H7O+
96.0444	55	C5H6NO+
97.0449	5	C6H6F+
98.9996	13	C5H4Cl+
100.0182	28	C7H2N+
102.0338	16	C7H4N+
102.0464	62	C8H6+
103.0541	12	C8H7+
104.0494	80	C7H6N+
105.0447	50	C6H5N2+
105.0574	5	C7H7N+
106.0287	591	C6H4NO+
109.0449	11	C7H6F+
113.0386	64	C9H5+
114.0338	101	C8H4N+
115.0418	28	C8H5N+
115.0542	251	C9H7+
116.0494	19	C8H6N+
116.062	65	C9H8+
117.0572	5	C8H7N+
122.9996	302	C7H4Cl+
123.035	20	C6H4FN2+
123.9951	15	C6H3ClN+
124.0074	36	C7H5Cl+
125.0152	12	C2H5ClFN3+
126.0339	77	C9H4N+
126.0464	70	C10H6+
127.0417	445	C9H5N+
128.0496	32	C9H6N+
128.062	128	C10H8+
129.0447	31	C8H5N2+
129.0573	6	C9H7N+
130.0652	10	C9H8N+
131.0492	5	C9H7O+
132.0443	37	C8H6NO+
132.057	24	C9H8O+
133.0394	6	C7H5N2O+
134.0236	999	C7H4NO2+
134.9996	12	C8H4Cl+
136.0075	98	C8H5Cl+
137.0152	25	C8H6Cl+
137.0272	3	C7H4FNO+
139.0308	4	C3H7ClFN3+
140.0495	30	C10H6N+
141.0444	7	F2H9NO5+
142.041	4	C5H5FN3O+
142.0651	45	C10H8N+
144.0443	52	C9H6NO+
146.06	11	C9H8NO+
146.9996	39	C9H4Cl+
147.029	28	C6H4F3N+
149.0153	186	C9H6Cl+
150.0105	230	C8H5ClN+
151.0183	14	C8H6ClN+
152.0023	160	C8H5ClO+
153.0102	10	C8H6ClO+
154.04	165	C9H4N3+
155.0603	68	C10H7N2+
161.0026	58	C9H4ClN+
162.0105	219	C9H5ClN+
162.9942	7	CH4ClF2N3O2+
163.0058	66	C8H4ClN2+
164.0023	44	C9H5ClO+
164.0261	29	C9H7ClN+
165.0341	6	C9H8ClN+
167.0258	46	C9H8ClO+
168.0211	234	C8H7ClNO+
169.0759	4	C11H9N2+
175.0054	12	ClF2H8NO5+
175.024	59	C7H4F3NO+
175.0385	18	C5H6FN3O3+
176.0027	3	C5H2F2N2O3+
176.0135	17	C9H5ClN2+
176.026	33	C10H7ClN+
177.0339	10	C10H8ClN+
180.021	60	C9H7ClNO+
190.0473	9	C7H10O6+
194.0368	10	C10H9ClNO+
203.0188	229	C8H4F3NO2+
