Mass spectrum: Triazophos; LC-ESI-QFT; MS2; CE: 60; R=17500; [M+H]+
Name: Triazophos
Name: diethoxy-[(1-phenyl-1,2,4-triazol-3-yl)oxy]-sulfanylidene-lambda5-phosphane
Formula: C12H16N3O3PS
Exact mass: 313.0650
SMILES: CCOP(=S)(OCC)OC1=NN(C=N1)C1=CC=CC=C1
InChI: InChI=1S/C12H16N3O3PS/c1-3-16-19(20,17-4-2)18-12-13-10-15(14-12)11-8-6-5-7-9-11/h5-10H,3-4H2,1-2H3
Instrument: Q Exactive Orbitrap (Thermo Scientific)
Instrument type: LC-ESI-QFT
Ms type: MS2
Ion mode: POSITIVE
Ionization: ESI
Fragmentation mode: HCD
Collision energy: 60
Resolution: 17500
Column name: Acquity BEH C18 1.7um, 2.1x150mm (Waters)
Retention time: 17.778 min
Base peak: 79.0211
Precursor m/z: 314.0723
Precursor type: [M+H]+
Precursor intensity: 19681239
m/z	relative intensity	assigned
53.0386	7	C4H5+
59.9902	1	CH2NS+
64.9786	7	H2O2P+
65.0385	11	C5H5+
74.0963	1	C4H12N+
77.0386	5	C6H5+
91.0542	2	C7H7+
92.0494	108	C6H6N+
93.0572	4	C6H7N+
95.0491	20	C6H7O+
96.9508	27	H2O2PS+
104.0494	26	C7H6N+
105.0447	9	C6H5N2+
106.0652	1	C7H8N+
107.0601	1	C6H7N2+
110.0599	4	C6H8NO+
110.9664	1	CH4O2PS+
112.9998	2	C3HN2O3+
114.9613	603	H4O3PS+
116.0494	1	C8H6N+
116.9655	2	C3HO3S+
117.0446	2	C7H5N2+
118.0525	1	C7H6N2+
119.0604	739	C7H7N2+
120.0681	85	C7H8N2+
123.0549	1	C6H7N2O+
124.0216	1	C6H6NS+
124.0757	2	C7H10NO+
124.9822	4	C2H6O2PS+
128.9769	20	CH6O3PS+
132.9717	5	C6NOP+
135.0552	2	C7H7N2O+
136.0214	2	C7H6NS+
145.0396	64	C8H5N2O+
146.9876	3	C7H2NOP+
147.0914	1	C9H11N2+
151.0325	2	C7H7N2S+
162.0661	999	C8H8N3O+
178.0433	86	C8H8N3S+
190.0974	2	C10H12N3O+
