Mass spectrum: 4-[3-(4-Acetyl-3-hydroxy-2-propylphenoxy)propoxy]phenoxy-acetic acid; LC-ESI-QFT; MS2; CE: 90; R=17500; [M-H]-
Name: 4-[3-(4-Acetyl-3-hydroxy-2-propylphenoxy)propoxy]phenoxy-acetic acid
Name: 2-(4-(3-(4-Acetyl-3-hydroxy-2-propylphenoxy)propoxy)phenoxy)acetic acid
Name: 2-[4-[3-(4-acetyl-3-hydroxy-2-propylphenoxy)propoxy]phenoxy]acetic acid
Formula: C22H26O7
Exact mass: 402.1679
SMILES: CCCC1=C(OCCCOC2=CC=C(OCC(O)=O)C=C2)C=CC(C(C)=O)=C1O
InChI: InChI=1S/C22H26O7/c1-3-5-19-20(11-10-18(15(2)23)22(19)26)28-13-4-12-27-16-6-8-17(9-7-16)29-14-21(24)25/h6-11,26H,3-5,12-14H2,1-2H3,(H,24,25)
Instrument: Q Exactive Orbitrap (Thermo Scientific)
Instrument type: LC-ESI-QFT
Ms type: MS2
Ion mode: NEGATIVE
Ionization: ESI
Fragmentation mode: HCD
Collision energy: 90
Resolution: 17500
Column name: Acquity BEH C18 1.7um, 2.1x150mm (Waters)
Retention time: 19.176 min
Base peak: 401.1605
Precursor m/z: 401.1606
Precursor type: [M-H]-
Precursor intensity: 13753300.3291
m/z	relative intensity	assigned
59.0138	1	C2H3O2-
65.0397	8	C5H5-
67.019	25	C4H3O-
81.0347	16	C5H5O-
83.0503	11	C5H7O-
91.0554	38	C7H7-
93.0346	17	C6H5O-
95.0139	3	C5H3O2-
95.0504	6	C6H7O-
105.071	9	C8H9-
107.0501	2	C7H7O-
107.0867	25	C8H11-
108.0217	999	C6H4O2-
109.0294	21	C6H5O2-
117.0346	31	C8H5O-
119.0503	3	C8H7O-
119.0866	3	C9H11-
120.058	2	C8H8O-
121.0295	188	C7H5O2-
122.0373	23	C7H6O2-
123.009	4	C6H3O3-
123.0453	3	C7H7O2-
130.0423	6	C9H6O-
131.0503	4	C9H7O-
133.0659	56	C9H9O-
135.0452	63	C8H7O2-
136.0165	9	C7H4O3-
136.0529	22	C8H8O2-
145.0658	1	C10H9O-
146.0376	1	C9H6O2-
147.0816	4	C10H11O-
148.0529	2	C9H8O2-
149.0243	5	C8H5O3-
149.0608	8	C9H9O2-
149.0972	12	C10H13O-
151.0765	33	C9H11O2-
159.0452	9	C10H7O2-
161.0245	21	C9H5O3-
161.0969	1	C11H13O-
163.0401	320	C9H7O3-
164.0479	21	C9H8O3-
167.035	2	C8H7O4-
173.0606	2	C11H9O2-
175.0402	7	C10H7O3-
175.0764	3	C11H11O2-
176.0478	2	C10H8O3-
177.0557	91	C10H9O3-
178.0275	1	C9H6O4-
179.0348	2	C9H7O4-
189.0553	1	C11H9O3-
191.0716	11	C11H11O3-
193.087	17	C11H13O3-
195.0667	4	C10H11O4-
196.0376	2	C9H8O5-
205.087	4	C12H13O3-
208.0375	2	C10H8O5-
