Mass spectrum: N-Dodecanoyl-N-methylglycine; LC-ESI-QFT; MS2; CE: 75; R=17500; [M+H]+
Name: N-Dodecanoyl-N-methylglycine
Name: N-Lauroylsarcosine
Name: 2-[dodecanoyl(methyl)amino]acetic acid
Formula: C15H29NO3
Exact mass: 271.2147
SMILES: CCCCCCCCCCCC(=O)N(C)CC(O)=O
InChI: InChI=1S/C15H29NO3/c1-3-4-5-6-7-8-9-10-11-12-14(17)16(2)13-15(18)19/h3-13H2,1-2H3,(H,18,19)
Instrument: Q Exactive Orbitrap (Thermo Scientific)
Instrument type: LC-ESI-QFT
Ms type: MS2
Ion mode: POSITIVE
Ionization: ESI
Fragmentation mode: HCD
Collision energy: 75
Resolution: 17500
Column name: Acquity BEH C18 1.7um, 2.1x150mm (Waters)
Retention time: 19.710 min
Base peak: 79.0211
Precursor m/z: 272.222
Precursor type: [M+H]+
Precursor intensity: 10744765.75
m/z	relative intensity	assigned
53.0023	74	C3HO+
53.0386	8	C4H5+
53.9975	12	C2NO+
55.0543	149	C4H7+
57.0699	999	C4H9+
58.0651	29	C3H8N+
65.0386	11	C5H5+
67.0543	280	C5H7+
69.0698	27	C5H9+
71.0856	157	C5H11+
72.0807	7	C4H10N+
79.0542	26	C6H7+
81.0699	142	C6H9+
83.0855	12	C6H11+
85.1012	19	C6H13+
90.0551	558	C3H8NO2+
91.0541	4	C7H7+
93.0699	21	C7H9+
95.0856	160	C7H11+
97.1013	5	C7H13+
100.1122	5	C6H14N+
109.1013	18	C8H13+
117.0574	32	C8H7N+
128.0622	18	C10H8+
130.065	19	C9H8N+
131.0731	6	C9H9N+
143.0855	11	C11H11+
144.0809	27	C10H10N+
153.0699	6	C12H9+
157.0885	10	C11H11N+
158.0962	8	C11H12N+
167.0729	9	C12H9N+
171.0804	6	C12H11O+
172.0372	8	C10H6NO2+
174.0525	19	C10H8NO2+
185.0447	6	C11H7NO2+
186.0527	21	C11H8NO2+
198.0527	68	C12H8NO2+
199.0612	5	C12H9NO2+
200.0318	15	C11H6NO3+
200.0684	9	C12H10NO2+
211.0605	9	C13H9NO2+
212.0682	12	C13H10NO2+
