Mass spectrum: Cladribine; LC-ESI-QFT; MS2; CE: 60; R=17500; [M+H]+
Name: Cladribine
Formula: C10H12ClN5O3
Exact mass: 285.0629
SMILES: NC1=NC(Cl)=NC2=C1N=CN2[C@H]1C[C@H](O)[C@@H](CO)O1
InChI: InChI=1S/C10H12ClN5O3/c11-10-14-8(12)7-9(15-10)16(3-13-7)6-1-4(18)5(2-17)19-6/h3-6,17-18H,1-2H2,(H2,12,14,15)/t4-,5+,6+/m0/s1
Instrument: Q Exactive Orbitrap (Thermo Scientific)
Instrument type: LC-ESI-QFT
Ms type: MS2
Ion mode: POSITIVE
Ionization: ESI
Fragmentation mode: HCD
Collision energy: 60
Resolution: 17500
Column name: Acquity BEH C18 1.7um, 2.1x150mm (Waters)
Retention time: 10.837 min
Base peak: 79.0212
Precursor m/z: 286.0701
Precursor type: [M+H]+
Precursor intensity: 2661732.1875
m/z	relative intensity	assigned
53.0022	4	C3HO+
53.0386	10	C4H5+
55.0179	4	C3H3O+
57.0335	24	C3H5O+
69.0335	59	C4H5O+
70.0399	3	C2H4N3+
71.0491	73	C4H7O+
73.0284	115	C3H5O2+
75.0441	2	C3H7O2+
81.0336	31	C5H5O+
99.0441	67	C5H7O2+
107.0354	14	C4H3N4+
117.0547	42	C5H9O3+
134.0462	364	C5H4N5+
135.0302	33	C5H3N4O+
152.0568	151	C5H6N5O+
170.0229	999	C5H5ClN5+
