Mass spectrum: Pirinixic acid; LC-ESI-QFT; MS2; CE: 45; R=17500; [M-H]-
Name: Pirinixic acid
Name: 2-[4-chloro-6-(2,3-dimethylanilino)pyrimidin-2-yl]sulfanylacetic acid
Formula: C14H14ClN3O2S
Exact mass: 323.0495
SMILES: CC1=C(C)C(NC2=NC(SCC(O)=O)=NC(Cl)=C2)=CC=C1
InChI: InChI=1S/C14H14ClN3O2S/c1-8-4-3-5-10(9(8)2)16-12-6-11(15)17-14(18-12)21-7-13(19)20/h3-6H,7H2,1-2H3,(H,19,20)(H,16,17,18)
Instrument: Q Exactive Orbitrap (Thermo Scientific)
Instrument type: LC-ESI-QFT
Ms type: MS2
Ion mode: NEGATIVE
Ionization: ESI
Fragmentation mode: HCD
Collision energy: 45
Resolution: 17500
Column name: Acquity BEH C18 1.7um, 2.1x150mm (Waters)
Retention time: 17.832 min
Base peak: 317.1395
Precursor m/z: 322.0422
Precursor type: [M-H]-
Precursor intensity: 14883709.02344
m/z	relative intensity	assigned
57.9756	120	CNS-
64.0066	2	C3N2-
65.0145	611	C3HN2-
70.9836	3	C2HNS-
71.9913	22	C2H2NS-
90.0099	5	C4N3-
130.0661	36	C9H8N-
138.997	34	C5H3N2OS-
145.0269	10	C7H3N3O-
145.077	14	C9H9N2-
169.0771	453	C11H9N2-
188.0541	2	C11H10NS-
194.0724	51	C12H8N3-
196.088	50	C12H10N3-
199.0334	4	C11H7N2S-
208.088	2	C13H10N3-
209.0956	5	C13H11N3-
226.0446	5	C12H8N3S-
227.0522	111	C12H9N3S-
232.0646	9	C12H11ClN3-
242.0757	18	C13H12N3S-
248.0595	8	C12H11ClN3O-
262.021	140	C12H9ClN3S-
278.0523	999	C13H13ClN3S-
