Mass spectrum: Carfentrazone-ethyl; LC-ESI-QFT; MS2; CE: 60; R=17500; [M+H]+
Name: Carfentrazone-ethyl
Name: ethyl 2-chloro-3-[2-chloro-5-[4-(difluoromethyl)-3-methyl-5-oxo-1,2,4-triazol-1-yl]-4-fluorophenyl]propanoate
Formula: C15H14Cl2F3N3O3
Exact mass: 411.0364
SMILES: CCOC(=O)C(Cl)CC1=C(Cl)C=C(F)C(=C1)N1N=C(C)N(C(F)F)C1=O
InChI: InChI=1S/C15H14Cl2F3N3O3/c1-3-26-13(24)10(17)4-8-5-12(11(18)6-9(8)16)23-15(25)22(14(19)20)7(2)21-23/h5-6,10,14H,3-4H2,1-2H3
Instrument: Q Exactive Orbitrap (Thermo Scientific)
Instrument type: LC-ESI-QFT
Ms type: MS2
Ion mode: POSITIVE
Ionization: ESI
Fragmentation mode: HCD
Collision energy: 60
Resolution: 17500
Column name: Acquity BEH C18 1.7um, 2.1x150mm (Waters)
Retention time: 18.363 min
Base peak: 79.0212
Precursor m/z: 412.0437
Precursor type: [M+H]+
Precursor intensity: 3249710.5
m/z	relative intensity	assigned
57.0449	2	C2H5N2+
60.0244	21	C2H3FN+
60.9839	4	C2H2Cl+
62.9633	3	CClO+
66.9745	4	CHClF+
73.0196	6	C2H2FN2+
74.0037	240	C2HFNO+
85.0397	6	C3H5N2O+
87.0353	72	C3H4FN2+
88.9789	2	C3H2ClO+
92.0307	70	C3H4F2N+
107.0292	3	C7H4F+
116.9902	13	C5H3ClF+
120.0373	2	C8H5F+
132.0245	9	C8H3FN+
133.0322	6	C8H4FN+
133.0447	4	C9H6F+
134.0401	4	C8H5FN+
134.0526	6	C9H7F+
135.0481	5	C8H6FN+
140.9902	125	C7H3ClF+
141.9848	2	C6H2ClFN+
143.006	7	C7H5ClF+
144.9849	7	CH2ClF2N3O+
146.0526	8	C10H7F+
150.0351	5	C8H5FNO+
151.0427	10	C8H6FNO+
152.0508	21	C8H7FNO+
152.9737	16	C7H2ClO2+
153.9982	18	C8H4ClF+
155.0059	4	C8H5ClF+
156.0011	22	C7H4ClFN+
159.0008	11	C7H5ClFO+
161.0271	8	C9H4FNO+
165.9855	2	C8H2ClFN+
166.0056	3	C8H5ClNO+
167.0134	5	C8H6ClNO+
168.0012	180	C8H4ClFN+
168.9852	138	C8H3ClFO+
169.0089	173	C8H5ClFN+
169.993	87	C8H4ClFO+
171.0119	2	C7H5ClFN2+
174.0588	8	C10H7FN2+
175.0303	3	C9H4FN2O+
176.0382	54	C9H5FN2O+
176.9669	999	C7H4Cl2F+
178.034	10	C9H4F2N2+
179.0175	4	C9H3F2NO+
179.0417	3	C9H5F2N2+
182.0166	2	C9H6ClFN+
183.012	110	C8H5ClFN2+
183.9961	32	C8H4ClFNO+
189.0459	3	C10H6FN2O+
194.0043	16	C9H4ClFN2+
194.9883	96	C9H3ClFNO+
195.9962	142	C9H4ClFNO+
196.9805	10	C6H6Cl2FNO+
197.0037	23	C9H5ClFNO+
198.0118	37	C9H6ClFNO+
200.0271	6	C9H8ClFNO+
200.0374	3	C4H15Cl2FO3+
201.9622	74	C8H3Cl2FN+
203.9779	105	C8H5Cl2FN+
204.9619	396	C8H4Cl2FO+
206.0288	51	C10H4F2N2O+
207.0366	72	C10H5F2N2O+
209.0277	106	C10H7ClFN2+
209.9989	23	C9H4ClFN2O+
211.007	177	C9H5ClFN2O+
212.0148	43	C9H6ClFN2O+
213.0026	124	C9H4ClF2N2+
213.9866	18	C9H3ClF2NO+
214.0103	20	C9H5ClF2N2+
215.0252	23	C11H4FN2O2+
216.0569	8	C11H7FN3O+
217.0646	9	C11H8FN3O+
218.9887	4	C8H6Cl2FN2+
219.9725	3	C8H5Cl2FNO+
220.9913	31	C10H3ClFN2O+
221.999	53	C10H4ClFN2O+
222.9723	3	C8H6Cl2FO2+
222.9829	6	C10H3ClFNO2+
223.007	22	C10H5ClFN2O+
223.991	413	C10H4ClFNO2+
225.0228	3	C7H10Cl2FN3+
226.035	32	C10H5F3N2O+
226.9771	11	C9H5Cl2N2O+
227.9896	12	C9H3ClF2N2O+
228.0024	6	C10H5ClF2NO+
228.9737	31	C9H2ClF2NO2+
228.9976	177	C9H4ClF2N2O+
229.9571	50	C9H3Cl2FNO+
230.9651	128	C9H4Cl2FNO+
231.9727	44	C9H5Cl2FNO+
232.027	4	C11H7ClN3O+
232.9807	163	C9H6Cl2FNO+
233.0086	53	C9H5ClF3N2+
235.0068	6	C11H5ClFN2O+
236.0149	19	C11H6ClFN2O+
239.0018	30	C10H5ClFN2O2+
240.9975	838	C10H4ClF2N2O+
242.0054	293	C10H5ClF2N2O+
243.033	3	C10H9ClFN2O2+
246.9836	17	C9H6Cl2FN2O+
248.9812	7	C6H6Cl2F3N2O+
248.984	7	C8H7Cl2N2O3+
251.026	10	C11H5F2N2O3+
252.0335	198	C11H8ClFN3O+
253.0414	6	C11H9ClFN3O+
256.9679	68	C10H4Cl2FN2O+
257.9518	8	C10H3Cl2FNO2+
258.9599	46	C10H4Cl2FNO2+
261.0037	61	C10H5ClF3N2O+
267.0615	6	C12H8F3N3O+
268.0033	24	C14H5ClN2O2+
268.9923	6	C11H4ClF2N2O2+
270.0002	11	C11H5ClF2N2O2+
270.9837	66	C11H6Cl2FN2O+
274.9784	45	C10H6Cl2FN2O2+
276.9743	227	C10H5Cl2F2N2O+
282.0241	45	C12H7ClF2N3O+
288.0103	203	C11H9Cl2FN3O+
288.9945	4	C11H8Cl2FN2O2+
290.0305	40	C11H8ClF3N3O+
298.9786	6	C12H6Cl2FN2O2+
302.0304	146	C12H8ClF3N3O+
303.0379	17	C12H9ClF3N3O+
316.0049	9	C12H9Cl2FN3O2+
334.0563	7	C13H12ClF3N3O2+
338.0068	9	C12H9Cl2F3N3O+
345.9957	38	C13H8Cl2F2N3O2+
