Mass spectrum: Terbutylazine; LC-ESI-QFT; MS2; CE: 30; R=17500; [M+H]+
Name: Terbutylazine
Name: Terbuthylazine
Name: 2-N-tert-butyl-6-chloro-4-N-ethyl-1,3,5-triazine-2,4-diamine
Formula: C9H16ClN5
Exact mass: 229.1094
SMILES: CCNC1=NC(NC(C)(C)C)=NC(Cl)=N1
InChI: InChI=1S/C9H16ClN5/c1-5-11-7-12-6(10)13-8(14-7)15-9(2,3)4/h5H2,1-4H3,(H2,11,12,13,14,15)
Instrument: Q Exactive Orbitrap (Thermo Scientific)
Instrument type: LC-ESI-QFT
Ms type: MS2
Ion mode: POSITIVE
Ionization: ESI
Fragmentation mode: HCD
Collision energy: 30
Resolution: 17500
Column name: Acquity BEH C18 1.7um, 2.1x150mm (Waters)
Retention time: 17.408 min
Base peak: 79.0211
Precursor m/z: 230.1167
Precursor type: [M+H]+
Precursor intensity: 28891876.5
m/z	relative intensity	assigned
57.0699	6	C4H9+
79.0057	6	CH4ClN2+
96.0556	4	C4H6N3+
132.0323	5	C4H7ClN3+
138.0771	1	C5H8N5+
146.0226	4	C3H5ClN5+
174.054	999	C5H9ClN5+
230.1166	313	C9H17ClN5+
