Mass spectrum: CP-671305; LC-ESI-QFT; MS2; CE: 45; R=17500; [M+H]+
Name: CP-671305
Name: (2R)-2-[4-[[[2-(1,3-benzodioxol-5-yloxy)pyridine-3-carbonyl]amino]methyl]-3-fluorophenoxy]propanoic acid
Formula: C23H19FN2O7
Exact mass: 454.1176
SMILES: C[C@@H](OC1=CC=C(CNC(=O)C2=CC=CN=C2OC2=CC=C3OCOC3=C2)C(F)=C1)C(O)=O
InChI: InChI=1S/C23H19FN2O7/c1-13(23(28)29)32-15-5-4-14(18(24)9-15)11-26-21(27)17-3-2-8-25-22(17)33-16-6-7-19-20(10-16)31-12-30-19/h2-10,13H,11-12H2,1H3,(H,26,27)(H,28,29)/t13-/m1/s1
Instrument: Q Exactive Orbitrap (Thermo Scientific)
Instrument type: LC-ESI-QFT
Ms type: MS2
Ion mode: POSITIVE
Ionization: ESI
Fragmentation mode: HCD
Collision energy: 45
Resolution: 17500
Column name: Acquity BEH C18 1.7um, 2.1x150mm (Waters)
Retention time: 16.757 min
Base peak: 79.0211
Precursor m/z: 455.1249
Precursor type: [M+H]+
Precursor intensity: 11062094.25
m/z	relative intensity	assigned
95.0491	1	C6H7O+
97.0447	1	C6H6F+
125.0397	999	C7H6FO+
156.0447	2	C10H6NO+
184.0394	19	C11H6NO2+
197.0609	70	C10H10FO3+
202.0499	2	C11H8NO3+
212.0343	21	C12H6NO3+
214.0499	1	C12H8NO3+
216.0654	1	C12H10NO3+
230.0439	1	C12H8NO4+
242.0447	220	C13H8NO4+
244.0606	2	C13H10NO4+
260.0553	13	C13H10NO5+
