Mass spectrum: Quinclorac; LC-ESI-QFT; MS2; CE: 75; R=17500; [M+H]+
Name: Quinclorac
Name: 3,7-dichloroquinoline-8-carboxylic acid
Formula: C10H5Cl2NO2
Exact mass: 240.9697
SMILES: OC(=O)C1=C(Cl)C=CC2=CC(Cl)=CN=C12
InChI: InChI=1S/C10H5Cl2NO2/c11-6-3-5-1-2-7(12)8(10(14)15)9(5)13-4-6/h1-4H,(H,14,15)
Instrument: Q Exactive Orbitrap (Thermo Scientific)
Instrument type: LC-ESI-QFT
Ms type: MS2
Ion mode: POSITIVE
Ionization: ESI
Fragmentation mode: HCD
Collision energy: 75
Resolution: 17500
Column name: Acquity BEH C18 1.7um, 2.1x150mm (Waters)
Retention time: 15.027 min
Base peak: 79.0211
Precursor m/z: 241.977
Precursor type: [M+H]+
Precursor intensity: 2206510.1875
m/z	relative intensity	assigned
84.9597	33	CH3Cl2+
102.9703	7	CH5Cl2O+
124.0183	4	C9H2N+
142.029	4	C9H4NO+
153.9382	7	C7Cl2+
159.9949	10	C9H3ClN+
161.0028	999	C9H4ClN+
168.9614	18	C8H3Cl2+
178.0054	15	C9H5ClNO+
182.9777	5	C9H5Cl2+
195.9717	160	C9H4Cl2N+
213.9823	453	C9H6Cl2NO+
223.9667	240	C10H4Cl2NO+
241.9772	140	C10H6Cl2NO2+
