Mass spectrum: Fenbuconazole; LC-ESI-QFT; MS2; CE: 60; R=17500; [M+H]+
Name: Fenbuconazole
Name: 4-(4-chlorophenyl)-2-phenyl-2-(1,2,4-triazol-1-ylmethyl)butanenitrile
Formula: C19H17ClN4
Exact mass: 336.1142
SMILES: ClC1=CC=C(CCC(CN2C=NC=N2)(C#N)C2=CC=CC=C2)C=C1
InChI: InChI=1S/C19H17ClN4/c20-18-8-6-16(7-9-18)10-11-19(12-21,13-24-15-22-14-23-24)17-4-2-1-3-5-17/h1-9,14-15H,10-11,13H2
Instrument: Q Exactive Orbitrap (Thermo Scientific)
Instrument type: LC-ESI-QFT
Ms type: MS2
Ion mode: POSITIVE
Ionization: ESI
Fragmentation mode: HCD
Collision energy: 60
Resolution: 17500
Column name: Acquity BEH C18 1.7um, 2.1x150mm (Waters)
Retention time: 18.181 min
Base peak: 79.0211
Precursor m/z: 337.1215
Precursor type: [M+H]+
Precursor intensity: 10742082.84375
m/z	relative intensity	assigned
63.023	1	C5H3+
65.0385	2	C5H5+
70.0399	767	C2H4N3+
82.04	15	C3H4N3+
83.0478	12	C3H5N3+
89.0386	17	C7H5+
90.0463	2	C7H6+
91.0543	92	C7H7+
95.0491	1	C3H10ClN+
98.9996	5	C5H4Cl+
103.0542	35	C8H7+
104.0495	4	C7H6N+
104.0621	1	C8H8+
115.0543	8	C9H7+
116.0496	3	C8H6N+
116.0621	4	C9H8+
125.0153	999	C7H6Cl+
128.062	19	C10H8+
129.0577	4	C9H7N+
129.0698	30	C10H9+
139.0309	19	C8H8Cl+
143.0729	1	C10H9N+
145.0649	4	C7H12ClN+
149.0152	5	C9H6Cl+
150.0228	1	C9H7Cl+
151.0311	3	C9H8Cl+
155.0606	5	C10H7N2+
155.0727	1	C11H9N+
156.0808	1	C11H10N+
163.0309	17	C10H8Cl+
190.0418	1	C11H9ClN+
215.0854	5	C17H11+
216.0934	4	C17H12+
