Mass spectrum: MCPA; LC-ESI-QFT; MS2; CE: 90; R=17500; [M-H]-
Name: MCPA
Name: (4-Chloro-2-methylphenoxy)acetic acid
Name: 2-(4-chloro-2-methylphenoxy)acetic acid
Formula: C9H9ClO3
Exact mass: 200.0240
SMILES: CC1=C(OCC(O)=O)C=CC(Cl)=C1
InChI: InChI=1S/C9H9ClO3/c1-6-4-7(10)2-3-8(6)13-5-9(11)12/h2-4H,5H2,1H3,(H,11,12)
Instrument: Q Exactive Orbitrap (Thermo Scientific)
Instrument type: LC-ESI-QFT
Ms type: MS2
Ion mode: NEGATIVE
Ionization: ESI
Fragmentation mode: HCD
Collision energy: 90
Resolution: 17500
Column name: Acquity BEH C18 1.7um, 2.1x150mm (Waters)
Retention time: 17.121 min
Base peak: 141.0113
Precursor m/z: 199.0167
Precursor type: [M-H]-
Precursor intensity: 10508720.65332
m/z	relative intensity	assigned
55.0189	12	C3H3O-
77.0397	13	C6H5-
95.0502	9	C6H7O-
105.0346	79	C7H5O-
121.0295	113	C7H5O2-
123.0453	8	C7H7O2-
141.0113	999	C7H6ClO-
