Mass spectrum: CI-1029; LC-ESI-QFT; MS2; CE: 45; R=17500; [M-H]-
Name: CI-1029
Name: (2S)-2-[2-(4-aminophenyl)ethyl]-5-[2-tert-butyl-4-(hydroxymethyl)-5-methylphenyl]sulfanyl-4-hydroxy-2-propan-2-yl-3H-pyran-6-one
Formula: C28H37NO4S
Exact mass: 483.2443
SMILES: CC(C)[C@]1(CCC2=CC=C(N)C=C2)CC(O)=C(SC2=CC(C)=C(CO)C=C2C(C)(C)C)C(=O)O1
InChI: InChI=1S/C28H37NO4S/c1-17(2)28(12-11-19-7-9-21(29)10-8-19)15-23(31)25(26(32)33-28)34-24-13-18(3)20(16-30)14-22(24)27(4,5)6/h7-10,13-14,17,30-31H,11-12,15-16,29H2,1-6H3/t28-/m0/s1
Instrument: Q Exactive Orbitrap (Thermo Scientific)
Instrument type: LC-ESI-QFT
Ms type: MS2
Ion mode: NEGATIVE
Ionization: ESI
Fragmentation mode: HCD
Collision energy: 45
Resolution: 17500
Column name: Acquity BEH C18 1.7um, 2.1x150mm (Waters)
Retention time: 15.677 min
Base peak: 356.1305
Precursor m/z: 482.2371
Precursor type: [M-H]-
Precursor intensity: 2180604.668945
m/z	relative intensity	assigned
59.9675	17	COS-
63.9624	12	O2S-
70.9961	2	C3H3S-
71.9675	128	C2OS-
72.9754	2	C2HOS-
85.0659	2	C5H9O-
111.9987	2	C5H4OS-
113.9782	1	C4H2O2S-
138.0509	2	C8H10S-
141.0379	7	C7H9OS-
155.9887	1	C6H4O3S-
162.0924	5	C10H12NO-
169.102	2	C13H13-
188.0664	2	C12H12S-
191.09	12	C12H15S-
203.09	320	C13H15S-
204.062	1	C12H12OS-
205.0692	2	C12H13OS-
209.1005	25	C12H17OS-
218.0645	16	C12H12NOS-
219.0848	94	C13H15OS-
221.0275	4	C11H9O3S-
221.1006	49	C13H17OS-
231.0848	54	C14H15OS-
233.0631	1	C13H13O2S-
247.0799	3	C14H15O2S-
247.1161	9	C15H19OS-
249.0954	999	C14H17O2S-
251.0382	3	C12H11O4S-
261.1195	5	C15H19NOS-
291.1064	6	C16H19O3S-
305.109	137	C16H19NO3S-
482.2368	175	C28H36NO4S-
