Mass spectrum: Azathioprine; LC-ESI-QFT; MS2; CE: 60; R=17500; [M+H]+
Name: Azathioprine
Name: 6-(3-methyl-5-nitroimidazol-4-yl)sulfanyl-7H-purine
Formula: C9H7N7O2S
Exact mass: 277.0382
SMILES: CN1C=NC(=C1SC1=NC=NC2=C1NC=N2)[N+]([O-])=O
InChI: InChI=1S/C9H7N7O2S/c1-15-4-14-7(16(17)18)9(15)19-8-5-6(11-2-10-5)12-3-13-8/h2-4H,1H3,(H,10,11,12,13)
Instrument: Q Exactive Orbitrap (Thermo Scientific)
Instrument type: LC-ESI-QFT
Ms type: MS2
Ion mode: POSITIVE
Ionization: ESI
Fragmentation mode: HCD
Collision energy: 60
Resolution: 17500
Column name: Acquity BEH C18 1.7um, 2.1x150mm (Waters)
Retention time: 10.727 min
Base peak: 79.0212
Precursor m/z: 278.0455
Precursor type: [M+H]+
Precursor intensity: 4400378.875
m/z	relative intensity	assigned
54.0213	19	C2H2N2+
54.0338	19	C3H4N+
57.9746	258	CNS+
58.0287	36	C2H4NO+
58.9824	6	CHNS+
59.9902	10	CH2NS+
67.0291	853	C3H3N2+
69.0083	95	C2HN2O+
69.0447	106	C3H5N2+
71.9902	7	C2H2NS+
72.9855	7	CHN2S+
72.998	91	C2H3NS+
74.0059	431	C2H4NS+
81.0322	54	C3H3N3+
81.0447	347	C4H5N2+
84.9855	999	C2HN2S+
85.9696	21	C2NOS+
86.0059	87	C3H4NS+
90.0009	19	C2H4NOS+
92.0244	19	C4H2N3+
94.0399	12	C4H4N3+
100.9805	60	C2HN2OS+
106.0403	10	C5H4N3+
108.043	62	C4H4N4+
109.0271	15	C4H3N3O+
112.0092	14	C4H4N2S+
113.0168	342	C4H5N2S+
119.0353	325	C5H3N4+
120.043	90	C5H4N4+
121.0509	92	C5H5N4+
124.0508	26	C5H6N3O+
125.0042	21	C4H3N3S+
133.0511	13	C6H5N4+
134.0588	56	C6H6N4+
135.0301	9	C5H3N4O+
135.9967	12	C5H2N3S+
136.038	103	C5H4N4O+
137.0045	13	C5H3N3S+
137.0458	68	C5H5N4O+
138.0122	8	C5H4N3S+
142.007	338	C4H4N3OS+
145.0508	51	C7H5N4+
146.046	88	C6H4N5+
147.054	11	C6H5N5+
147.0666	26	C7H7N4+
148.0616	7	C6H6N5+
152.0152	435	C5H4N4S+
152.033	41	C5H4N4O2+
153.0229	55	C5H5N4S+
158.0587	52	C8H6N4+
159.0542	74	C7H5N5+
160.0619	49	C7H6N5+
164.0151	600	C6H4N4S+
165.023	494	C6H5N4S+
172.0618	383	C8H6N5+
173.0698	13	C8H7N5+
174.0776	148	C8H8N5+
176.0152	38	C7H4N4S+
177.023	252	C7H5N4S+
178.0309	14	C7H6N4S+
181.018	9	C6H5N4OS+
182.026	12	C6H6N4OS+
187.0727	23	C8H7N6+
188.015	14	C8H4N4S+
190.0182	29	C7H4N5S+
191.0258	37	C7H5N5S+
198.065	11	C9H6N6+
199.0727	667	C9H7N6+
200.0803	17	C9H8N6+
204.034	513	C8H6N5S+
205.0418	469	C8H7N5S+
214.0421	14	C6H8N5O2S+
215.0261	21	C9H5N5S+
217.0292	6	C8H5N6S+
231.0448	316	C9H7N6S+
232.0525	40	C9H8N6S+
