Mass spectrum: Pirimiphos-ethyl; LC-ESI-QFT; MS2; CE: 60; R=17500; [M+H]+
Name: Pirimiphos-ethyl
Formula: C13H24N3O3PS
Exact mass: 333.1276
SMILES: CCOP(=S)(OCC)OC1=CC(C)=NC(=N1)N(CC)CC
InChI: InChI=1S/C13H24N3O3PS/c1-6-16(7-2)13-14-11(5)10-12(15-13)19-20(21,17-8-3)18-9-4/h10H,6-9H2,1-5H3
Instrument: Q Exactive Orbitrap (Thermo Scientific)
Instrument type: LC-ESI-QFT
Ms type: MS2
Ion mode: POSITIVE
Ionization: ESI
Fragmentation mode: HCD
Collision energy: 60
Resolution: 17500
Column name: Acquity BEH C18 1.7um, 2.1x150mm (Waters)
Retention time: 19.447 min
Base peak: 79.0211
Precursor m/z: 334.1349
Precursor type: [M+H]+
Precursor intensity: 86138471.10938
m/z	relative intensity	assigned
58.9951	3	C2H3S+
59.9902	2	CH2NS+
64.9786	3	H2O2P+
66.0339	1	C4H4N+
67.029	73	C3H3N2+
68.0494	1	C4H6N+
69.0083	3	C2HN2O+
70.0651	11	C4H8N+
71.0603	39	C3H7N2+
72.0806	4	C4H10N+
74.0964	17	C4H12N+
78.9401	1	OPS+
83.0603	14	C4H7N2+
84.0444	100	C4H6NO+
84.9855	3	C2HN2S+
88.0216	16	C3H6NS+
94.065	5	C6H8N+
95.0604	61	C5H7N2+
96.9508	42	H2O2PS+
97.0396	8	C4H5N2O+
98.0965	17	C6H12N+
99.0917	347	C5H11N2+
100.0215	133	C4H6NS+
108.0556	198	C5H6N3+
109.0049	33	C2H6O3P+
109.0396	31	C5H5N2O+
109.0761	16	C6H9N2+
110.9664	3	CH4O2PS+
111.0263	1	C6H7S+
111.0916	4	C6H11N2+
112.0216	4	C5H6NS+
112.0758	5	C6H10NO+
112.9998	2	C3HN2O3+
113.0168	12	C4H5N2S+
114.9613	272	H4O3PS+
115.0324	30	C4H7N2S+
116.0528	38	C5H10NS+
119.0604	2	C7H7N2+
120.0679	1	C7H8N2+
123.0917	8	C7H11N2+
124.982	1	C2H6O2PS+
125.0168	22	C5H5N2S+
126.0373	2	C6H8NS+
126.0662	29	C5H8N3O+
127.0325	10	C5H7N2S+
128.0529	7	C6H10NS+
128.977	9	CH6O3PS+
136.087	64	C7H10N3+
137.071	44	C7H9N2O+
138.0663	1	C6H8N3O+
139.123	51	C8H15N2+
141.0355	5	C5H7N3S+
141.1023	4	C7H13N2O+
142.0434	152	C5H8N3S+
143.0637	3	C6H11N2S+
152.0818	3	C7H10N3O+
153.0482	71	C7H9N2S+
154.0975	267	C7H12N3O+
157.0794	85	C7H13N2S+
164.1183	143	C9H14N3+
166.0975	1	C8H12N3O+
168.059	18	C7H10N3S+
169.0668	4	C7H11N3S+
170.0746	875	C7H12N3S+
180.1132	6	C9H14N3O+
182.1288	391	C9H16N3O+
196.0904	23	C9H14N3S+
198.106	999	C9H16N3S+
232.0302	5	C11H8N2O2S+
260.0619	4	C9H15N3O2PS+
278.0725	1	C9H17N3O3PS+
