Mass spectrum: Thiophanate-methyl; LC-ESI-QFT; MS2; CE: 45; R=17500; [M+H]+
Name: Thiophanate-methyl
Name: N'-methoxycarbonyl-N-[2-[(N-methoxycarbonyl-C-sulfanylcarbonimidoyl)amino]phenyl]carbamimidothioic acid
Formula: C12H14N4O4S2
Exact mass: 342.0456
SMILES: COC(=O)NC(=S)NC1=C(NC(=S)NC(=O)OC)C=CC=C1
InChI: InChI=1S/C12H14N4O4S2/c1-19-11(17)15-9(21)13-7-5-3-4-6-8(7)14-10(22)16-12(18)20-2/h3-6H,1-2H3,(H2,13,15,17,21)(H2,14,16,18,22)
Instrument: Q Exactive Orbitrap (Thermo Scientific)
Instrument type: LC-ESI-QFT
Ms type: MS2
Ion mode: POSITIVE
Ionization: ESI
Fragmentation mode: HCD
Collision energy: 45
Resolution: 17500
Column name: Acquity BEH C18 1.7um, 2.1x150mm (Waters)
Retention time: 15.164 min
Base peak: 79.0211
Precursor m/z: 343.0529
Precursor type: [M+H]+
Precursor intensity: 7033121.8125
m/z	relative intensity	assigned
65.0385	1	C5H5+
74.0058	79	C2H4NS+
76.0393	29	C2H6NO2+
85.9695	80	C2NOS+
92.0495	3	C6H6N+
93.0573	20	C6H7N+
107.0603	3	C6H7N2+
109.0761	37	C6H9N2+
117.9957	29	C3H4NO2S+
118.0525	6	C7H6N2+
119.0604	4	C7H7N2+
134.0713	10	C7H8N3+
135.0553	12	C7H7N2O+
149.0169	22	C7H5N2S+
150.0245	1	C7H6N2S+
151.0324	999	C7H7N2S+
160.0505	69	C8H6N3O+
174.0662	1	C9H8N3O+
176.0276	3	C8H6N3S+
177.0116	9	C8H5N2OS+
190.0433	4	C9H8N3S+
192.0768	9	C9H10N3O2+
192.9889	10	C8H5N2S2+
194.0382	4	C8H8N3OS+
202.007	1	C9H4N3OS+
219.0334	4	C9H7N4OS+
235.9945	4	C9H6N3OS2+
245.0127	1	C10H5N4O2S+
253.0497	1	C10H11N3O3S+
