Mass spectrum: 3-Hydroxy-N-(3-nitrophenyl)naphthalene-2-carboxamide; LC-ESI-QFT; MS2; CE: 30; R=17500; [M-H]-
Name: 3-Hydroxy-N-(3-nitrophenyl)naphthalene-2-carboxamide
Name: 3-Hydroxy-3'-nitro-2-naphthanilide
Formula: C17H12N2O4
Exact mass: 308.0797
SMILES: OC1=CC2=C(C=CC=C2)C=C1C(=O)NC1=CC=CC(=C1)[N+]([O-])=O
InChI: InChI=1S/C17H12N2O4/c20-16-9-12-5-2-1-4-11(12)8-15(16)17(21)18-13-6-3-7-14(10-13)19(22)23/h1-10,20H,(H,18,21)
Instrument: Q Exactive Orbitrap (Thermo Scientific)
Instrument type: LC-ESI-QFT
Ms type: MS2
Ion mode: NEGATIVE
Ionization: ESI
Fragmentation mode: HCD
Collision energy: 30
Resolution: 17500
Column name: Acquity BEH C18 1.7um, 2.1x150mm (Waters)
Retention time: 18.710 min
Base peak: 307.0723
Precursor m/z: 307.0724
Precursor type: [M-H]-
Precursor intensity: 91803484.10254
m/z	relative intensity	assigned
134.0246	1	C7H4NO2-
137.0356	37	C6H5N2O2-
138.0196	7	C6H4NO3-
143.0502	112	C10H7O-
159.0453	1	C10H7O2-
163.015	7	C7H3N2O3-
168.0455	10	C11H6NO-
248.0716	3	C16H10NO2-
249.0797	6	C16H11NO2-
260.0716	2	C17H10NO2-
261.0794	5	C17H11NO2-
264.0669	2	C16H10NO3-
276.0666	4	C17H10NO3-
289.0618	4	C17H9N2O3-
293.0695	9	C17H11NO4-
306.0654	1	C17H10N2O4-
307.0724	999	C17H11N2O4-
