Mass spectrum: Carbamazepine; LC-ESI-QFT; MS2; CE: 90; R=17500; [M+H]+
Name: Carbamazepine
Formula: C15H12N2O
Exact mass: 236.0950
SMILES: NC(=O)N1C2=CC=CC=C2C=CC2=C1C=CC=C2
InChI: InChI=1S/C15H12N2O/c16-15(18)17-13-7-3-1-5-11(13)9-10-12-6-2-4-8-14(12)17/h1-10H,(H2,16,18)
Instrument: Q Exactive Orbitrap (Thermo Scientific)
Instrument type: LC-ESI-QFT
Ms type: MS2
Ion mode: POSITIVE
Ionization: ESI
Fragmentation mode: HCD
Collision energy: 90
Resolution: 17500
Column name: Acquity BEH C18 1.7um, 2.1x150mm (Waters)
Retention time: 15.734 min
Base peak: 79.0212
Precursor m/z: 237.1022
Precursor type: [M+H]+
Precursor intensity: 24467654.5
m/z	relative intensity	assigned
65.0385	14	C5H5+
89.0386	19	C7H5+
91.0542	36	C7H7+
115.0541	4	C9H7+
116.0495	31	C8H6N+
117.0573	40	C8H7N+
128.0495	8	C9H6N+
128.062	4	C10H8+
134.0599	11	C8H8NO+
139.0542	7	C11H7+
140.0493	4	C10H6N+
141.07	3	C11H9+
146.0603	1	C9H8NO+
152.0621	125	C12H8+
153.07	3	C12H9+
154.0652	1	C11H8N+
155.0731	1	C11H9N+
165.0699	367	C13H9+
166.0653	23	C12H8N+
166.0776	29	C13H10+
167.073	140	C12H9N+
167.0851	38	C13H11+
168.057	5	C12H8O+
168.0806	9	C12H10N+
169.0648	25	C12H9O+
176.062	33	C14H8+
177.0574	30	C13H7N+
177.0699	24	C14H9+
178.0652	76	C13H8N+
178.0777	24	C14H10+
179.0729	562	C13H9N+
180.0806	3	C13H10N+
183.068	3	C12H9NO+
183.0802	2	C13H11O+
184.0757	2	C12H10NO+
190.0653	77	C14H8N+
191.0731	252	C14H9N+
192.0809	449	C14H10N+
193.0886	999	C14H11N+
194.0963	446	C14H12N+
196.0752	5	C13H10NO+
210.0911	1	C14H12NO+
