Mass spectrum: 2,6-Dimethoxybenzoic acid; LC-ESI-QFT; MS2; CE: 75; R=17500; [M+H]+
Name: 2,6-Dimethoxybenzoic acid
Formula: C9H10O4
Exact mass: 182.0579
SMILES: COC1=CC=CC(OC)=C1C(O)=O
InChI: InChI=1S/C9H10O4/c1-12-6-4-3-5-7(13-2)8(6)9(10)11/h3-5H,1-2H3,(H,10,11)
Instrument: Q Exactive Orbitrap (Thermo Scientific)
Instrument type: LC-ESI-QFT
Ms type: MS2
Ion mode: POSITIVE
Ionization: ESI
Fragmentation mode: HCD
Collision energy: 75
Resolution: 17500
Column name: Acquity BEH C18 1.7um, 2.1x150mm (Waters)
Retention time: 12.301 min
Base peak: 79.0211
Precursor m/z: 183.0652
Precursor type: [M+H]+
Precursor intensity: 2041778.96875
m/z	relative intensity	assigned
53.0387	39	C4H5+
77.0387	39	C6H5+
79.0543	141	C6H7+
92.026	50	C6H4O+
95.0493	114	C6H7O+
107.0128	618	C6H3O2+
107.0493	60	C7H7O+
109.0648	57	C7H9O+
122.0363	999	C7H6O2+
125.0231	44	C6H5O3+
125.06	70	C7H9O2+
135.0445	64	C8H7O2+
150.0314	487	C8H6O3+
165.0548	609	C9H9O3+
168.0419	594	C8H8O4+
