Mass spectrum: Octylparaben; LC-ESI-QFT; MS2; CE: 30; R=17500; [M-H]-
Name: Octylparaben
Name: octyl 4-hydroxybenzoate
Formula: C15H22O3
Exact mass: 250.1569
SMILES: CCCCCCCCOC(=O)C1=CC=C(O)C=C1
InChI: InChI=1S/C15H22O3/c1-2-3-4-5-6-7-12-18-15(17)13-8-10-14(16)11-9-13/h8-11,16H,2-7,12H2,1H3
Instrument: Q Exactive Orbitrap (Thermo Scientific)
Instrument type: LC-ESI-QFT
Ms type: MS2
Ion mode: NEGATIVE
Ionization: ESI
Fragmentation mode: HCD
Collision energy: 30
Resolution: 17500
Column name: Acquity BEH C18 1.7um, 2.1x150mm (Waters)
Retention time: 19.955 min
Base peak: 249.1496
Precursor m/z: 249.1496
Precursor type: [M-H]-
Precursor intensity: 85065044.13086
m/z	relative intensity	assigned
82.0059	1	C4H2O2-
92.0264	13	C6H4O-
93.0346	80	C6H5O-
95.0139	14	C5H3O2-
108.0217	13	C6H4O2-
119.0138	3	C7H3O2-
120.022	1	C7H4O2-
121.0294	2	C7H5O2-
123.0088	1	C6H3O3-
136.0166	197	C7H4O3-
137.0244	209	C7H5O3-
205.1602	2	C14H21O-
249.1496	999	C15H21O3-
