Mass spectrum: Pyrimethanil; LC-ESI-QFT; MS2; CE: 15; R=17500; [M+H]+
Name: Pyrimethanil
Name: 4,6-dimethyl-N-phenylpyrimidin-2-amine
Formula: C12H13N3
Exact mass: 199.1109
SMILES: CC1=CC(C)=NC(NC2=CC=CC=C2)=N1
InChI: InChI=1S/C12H13N3/c1-9-8-10(2)14-12(13-9)15-11-6-4-3-5-7-11/h3-8H,1-2H3,(H,13,14,15)
Instrument: Q Exactive Orbitrap (Thermo Scientific)
Instrument type: LC-ESI-QFT
Ms type: MS2
Ion mode: POSITIVE
Ionization: ESI
Fragmentation mode: HCD
Collision energy: 15
Resolution: 17500
Column name: Acquity BEH C18 1.7um, 2.1x150mm (Waters)
Retention time: 16.235 min
Base peak: 79.0211
Precursor m/z: 200.1182
Precursor type: [M+H]+
Precursor intensity: 32082587.40625
m/z	relative intensity	assigned
200.1181	999	C12H14N3+
