Mass spectrum: Metconazole; LC-ESI-QFT; MS2; CE: 75; R=17500; [M+H]+
Name: Metconazole
Name: 5-[(4-chlorophenyl)methyl]-2,2-dimethyl-1-(1,2,4-triazol-1-ylmethyl)cyclopentan-1-ol
Formula: C17H22ClN3O
Exact mass: 319.1451
SMILES: CC1(C)CCC(CC2=CC=C(Cl)C=C2)C1(O)CN1C=NC=N1
InChI: InChI=1S/C17H22ClN3O/c1-16(2)8-7-14(9-13-3-5-15(18)6-4-13)17(16,22)10-21-12-19-11-20-21/h3-6,11-12,14,22H,7-10H2,1-2H3
Instrument: Q Exactive Orbitrap (Thermo Scientific)
Instrument type: LC-ESI-QFT
Ms type: MS2
Ion mode: POSITIVE
Ionization: ESI
Fragmentation mode: HCD
Collision energy: 75
Resolution: 17500
Column name: Acquity BEH C18 1.7um, 2.1x150mm (Waters)
Retention time: 18.878 min
Base peak: 79.0211
Precursor m/z: 320.1524
Precursor type: [M+H]+
Precursor intensity: 25896336.625
m/z	relative intensity	assigned
55.0542	3	C4H7+
59.0491	6	C3H7O+
67.0541	6	C5H7+
69.0698	2	C5H9+
70.0399	999	C2H4N3+
79.0541	2	C6H7+
81.07	1	C6H9+
89.0386	5	C7H5+
91.0543	1	C7H7+
93.0699	1	C7H9+
95.0491	1	C6H7O+
95.0855	9	C7H11+
98.9994	1	C5H4Cl+
103.0542	3	C8H7+
105.07	1	C8H9+
107.0852	1	C8H11+
115.0542	2	C9H7+
116.062	3	C9H8+
125.0152	146	C7H6Cl+
128.0619	2	C10H8+
129.0697	1	C10H9+
139.0309	3	C8H8Cl+
141.0698	2	C11H9+
142.0777	7	C11H10+
151.0309	3	C9H8Cl+
156.0933	1	C12H12+
163.0307	2	C10H8Cl+
177.0465	2	C11H10Cl+
