Mass spectrum: Fipronil; LC-ESI-QFT; MS2; CE: 30; R=17500; [M-H]-
Name: Fipronil
Name: 5-amino-1-[2,6-dichloro-4-(trifluoromethyl)phenyl]-4-(trifluoromethylsulfinyl)pyrazole-3-carbonitrile
Formula: C12H4Cl2F6N4OS
Exact mass: 435.9387
SMILES: NC1=C(C(=NN1C1=C(Cl)C=C(C=C1Cl)C(F)(F)F)C#N)S(=O)C(F)(F)F
InChI: InChI=1S/C12H4Cl2F6N4OS/c13-5-1-4(11(15,16)17)2-6(14)8(5)24-10(22)9(7(3-21)23-24)26(25)12(18,19)20/h1-2H,22H2
Instrument: Q Exactive Orbitrap (Thermo Scientific)
Instrument type: LC-ESI-QFT
Ms type: MS2
Ion mode: NEGATIVE
Ionization: ESI
Fragmentation mode: HCD
Collision energy: 30
Resolution: 17500
Column name: Acquity BEH C18 1.7um, 2.1x150mm (Waters)
Retention time: 18.222 min
Base peak: 434.9313
Precursor m/z: 434.9314
Precursor type: [M-H]-
Precursor intensity: 90078749.59375
m/z	relative intensity	assigned
57.9757	28	CNS-
84.9907	17	CF3O-
88.0067	7	C5N2-
150.0035	5	C7F2N2-
170.0098	105	C7HF3N2-
182.0096	3	C8HF3N2-
183.0175	27	C8H2F3N2-
208.9581	8	ClF5H3N2OS-
212.9495	1	C7H2Cl2F3-
216.9788	2	C8HClF3N2-
217.9863	38	C8H2ClF3N2-
233.9815	22	C8H2ClF3N2O-
235.9553	2	C8H2ClF3NS-
240.945	1	C9ClF2N2S-
242.9846	9	C9H2F3N2OS-
243.9896	65	C9H2ClF3N3-
244.921	2	C2HCl2F4N3S-
249.9585	886	C8H2ClF3N2S-
253.9868	5	C11H2ClF3N2-
267.9894	20	C11H2ClF3N3-
271.9846	1	C8H2F6N2S-
276.9458	1	C9HClF3N2OS-
277.9534	385	C9H2ClF3N2OS-
278.9959	2	C11H2F3N4S-
280.957	37	C9H2ClF4N2S-
281.9926	82	C11H2ClF3N4-
287.9617	40	C10H2ClF3N3S-
303.9565	2	C10H2ClF3N3OS-
329.9596	999	C11H2ClF3N4OS-
350.9881	14	C12H2ClF6N4-
364.9282	6	C11H2Cl2F3N4OS-
365.9365	19	C11H3Cl2F3N4OS-
