Mass spectrum: Hexamethylphosphoramide; LC-ESI-QFT; MS2; CE: 90; R=17500; [M+H]+
Name: Hexamethylphosphoramide
Name: N-[bis(dimethylamino)phosphoryl]-N-methylmethanamine
Formula: C6H18N3OP
Exact mass: 179.1187
SMILES: CN(C)P(=O)(N(C)C)N(C)C
InChI: InChI=1S/C6H18N3OP/c1-7(2)11(10,8(3)4)9(5)6/h1-6H3
Instrument: Q Exactive Orbitrap (Thermo Scientific)
Instrument type: LC-ESI-QFT
Ms type: MS2
Ion mode: POSITIVE
Ionization: ESI
Fragmentation mode: HCD
Collision energy: 90
Resolution: 17500
Column name: Acquity BEH C18 1.7um, 2.1x150mm (Waters)
Retention time: 13.053 min
Base peak: 79.0211
Precursor m/z: 180.126
Precursor type: [M+H]+
Precursor intensity: 28792975.6875
m/z	relative intensity	assigned
58.0651	7	C3H8N+
59.9998	53	CH3NP+
62.0155	2	CH5NP+
65.0386	5	C5H5+
73.076	95	C3H9N2+
75.9947	49	CH3NOP+
76.0311	4	C2H7NP+
78.0103	5	CH5NOP+
88.0995	41	C4H12N2+
90.0104	26	C2H5NOP+
91.0182	67	C2H6NOP+
92.026	458	C2H7NOP+
93.0339	5	C2H8NOP+
106.0417	42	C3H9NOP+
111.044	2	C4H5N3O+
124.0524	6	C5H6N3O+
135.0682	999	C4H12N2OP+
