Mass spectrum: Theophylline; LC-ESI-QFT; MS2; CE: 90; R=17500; [M+H]+
Name: Theophylline
Name: 1,3-dimethyl-7H-purine-2,6-dione
Formula: C7H8N4O2
Exact mass: 180.0647
SMILES: CN1C2=C(NC=N2)C(=O)N(C)C1=O
InChI: InChI=1S/C7H8N4O2/c1-10-5-4(8-3-9-5)6(12)11(2)7(10)13/h3H,1-2H3,(H,8,9)
Instrument: Q Exactive Orbitrap (Thermo Scientific)
Instrument type: LC-ESI-QFT
Ms type: MS2
Ion mode: POSITIVE
Ionization: ESI
Fragmentation mode: HCD
Collision energy: 90
Resolution: 17500
Column name: Acquity BEH C18 1.7um, 2.1x150mm (Waters)
Retention time: 10.150 min
Base peak: 79.0211
Precursor m/z: 181.072
Precursor type: [M+H]+
Precursor intensity: 3009690.78125
m/z	relative intensity	assigned
54.0339	8	C3H4N+
65.0386	89	C5H5+
67.0291	20	C3H3N2+
68.0369	16	C3H4N2+
69.0447	999	C3H5N2+
79.0542	11	C6H7+
81.0448	36	C4H5N2+
83.024	56	C3H3N2O+
83.0605	8	C4H7N2+
91.0544	4	C7H7+
93.0335	10	C6H5O+
93.0447	19	C5H5N2+
94.0401	59	C4H4N3+
95.024	12	C4H3N2O+
95.0492	38	C6H7O+
96.0557	620	C4H6N3+
97.0397	32	C4H5N2O+
105.0449	12	C6H5N2+
108.0556	13	C5H6N3+
109.0271	95	C4H3N3O+
110.0714	9	C5H8N3+
111.0442	10	C6H7O2+
112.0508	4	C4H6N3O+
113.0345	9	C4H5N2O2+
120.0556	4	C6H6N3+
121.0285	20	C7H5O2+
121.0397	16	C6H5N2O+
121.051	9	C5H5N4+
122.0591	9	C5H6N4+
124.0506	611	C5H6N3O+
126.0665	5	C5H8N3O+
133.0284	4	C6H3N3O+
135.0443	5	C6H5N3O+
139.0627	7	C7H9NO2+
140.0456	13	C5H6N3O2+
142.0611	90	C5H8N3O2+
149.0237	16	C6H3N3O2+
167.0555	9	C6H7N4O2+
181.0725	14	C7H9N4O2+
