Mass spectrum: Phosalone; LC-ESI-QFT; MS2; CE: 60; R=17500; [M+H]+
Name: Phosalone
Name: 6-chloro-3-(diethoxyphosphinothioylsulfanylmethyl)-1,3-benzoxazol-2-one
Formula: C12H15ClNO4PS2
Exact mass: 366.9869
SMILES: CCOP(=S)(OCC)SCN1C(=O)OC2=CC(Cl)=CC=C12
InChI: InChI=1S/C12H15ClNO4PS2/c1-3-16-19(20,17-4-2)21-8-14-10-6-5-9(13)7-11(10)18-12(14)15/h5-7H,3-4,8H2,1-2H3
Instrument: Q Exactive Orbitrap (Thermo Scientific)
Instrument type: LC-ESI-QFT
Ms type: MS2
Ion mode: POSITIVE
Ionization: ESI
Fragmentation mode: HCD
Collision energy: 60
Resolution: 17500
Column name: Acquity BEH C18 1.7um, 2.1x150mm (Waters)
Retention time: 18.842 min
Base peak: 79.0211
Precursor m/z: 367.9941
Precursor type: [M+H]+
Precursor intensity: 3617169.0625
m/z	relative intensity	assigned
51.023	17	C4H3+
53.0022	25	C3HO+
53.0386	28	C4H5+
53.9976	10	C2NO+
55.0543	999	C4H7+
56.0495	25	C3H6N+
57.0699	214	C4H9+
67.0542	286	C5H7+
69.0699	976	C5H9+
70.0651	30	C4H8N+
71.0491	20	C4H7O+
71.0855	62	C5H11+
75.0229	14	C6H3+
79.0542	86	C6H7+
81.0699	373	C6H9+
83.0493	30	C5H7O+
83.0855	489	C6H11+
85.065	18	CH12NOP+
85.1012	22	C6H13+
86.9997	19	C4H4Cl+
91.0543	84	C7H7+
93.0699	113	C7H9+
95.0856	284	C7H11+
97.0649	55	C6H9O+
97.1012	232	C7H13+
98.9842	21	H4O4P+
105.0698	72	C8H9+
107.0856	78	C8H11+
109.0048	12	C2H6O3P+
109.0647	16	C7H9O+
109.1014	107	C4H16NP+
111.0804	17	C7H11O+
111.1169	19	C8H15+
114.9614	290	H4O3PS+
119.0856	39	C9H11+
120.0446	23	C7H6NO+
121.1013	57	C9H13+
123.1168	33	C9H15+
125.0961	10	C8H13O+
129.0102	100	C6H6ClO+
130.0401	39	C3H11ClO3+
133.1011	47	C10H13+
135.1169	24	C10H15+
138.0107	71	C7H5ClN+
139.0058	143	C3H7O4S+
147.1167	14	C11H15+
170.0004	41	C7H5ClNO2+
182.0004	39	C8H5ClNO2+
