Mass spectrum: Diflufenzopyr; LC-ESI-QFT; MS2; CE: 60; R=17500; [M-H]-
Name: Diflufenzopyr
Name: 2-[(E)-N-[(3,5-difluorophenyl)carbamoylamino]-C-methylcarbonimidoyl]pyridine-3-carboxylic acid
Formula: C15H12F2N4O3
Exact mass: 334.0877
SMILES: C\C(=N/NC(=O)NC1=CC(F)=CC(F)=C1)C1=NC=CC=C1C(O)=O
InChI: InChI=1S/C15H12F2N4O3/c1-8(13-12(14(22)23)3-2-4-18-13)20-21-15(24)19-11-6-9(16)5-10(17)7-11/h2-7H,1H3,(H,22,23)(H2,19,21,24)/b20-8+
Instrument: Q Exactive Orbitrap (Thermo Scientific)
Instrument type: LC-ESI-QFT
Ms type: MS2
Ion mode: NEGATIVE
Ionization: ESI
Fragmentation mode: HCD
Collision energy: 60
Resolution: 17500
Column name: Acquity BEH C18 1.7um, 2.1x150mm (Waters)
Retention time: 16.368 min
Base peak: 112.9856
Precursor m/z: 333.0805
Precursor type: [M-H]-
Precursor intensity: 9265455.439453
m/z	relative intensity	assigned
76.0192	2	C5H2N-
79.0553	60	C6H7-
88.0193	38	C6H2N-
90.0349	6	C6H4N-
93.0458	2	C5H5N2-
102.035	10	C7H4N-
103.0302	6	C6H3N2-
104.0506	82	C7H6N-
106.0662	47	C7H8N-
108.0255	71	C6H3FN-
122.0612	8	C7H8NO-
128.0317	999	C6H4F2N-
132.0456	9	C8H6NO-
132.0567	35	C7H6N3-
134.0724	65	C7H8N3-
148.0406	7	C8H6NO2-
151.0039	4	C5HN3O3-
160.0517	262	C8H6N3O-
178.0621	26	C8H8N3O2-
227.0351	3	C14H3N4-
255.0301	9	C15H3N4O-
