Mass spectrum: 2,2`,4,4`-Tetrahydroxybenzophenone; LC-ESI-QFT; MS2; CE: 45; R=17500; [M-H]-
Name: 2,2',4,4'-Tetrahydroxybenzophenone
Name: bis(2,4-dihydroxyphenyl)methanone
Formula: C13H10O5
Exact mass: 246.0528
SMILES: OC1=CC(O)=C(C=C1)C(=O)C1=CC=C(O)C=C1O
InChI: InChI=1S/C13H10O5/c14-7-1-3-9(11(16)5-7)13(18)10-4-2-8(15)6-12(10)17/h1-6,14-17H
Instrument: Q Exactive Orbitrap (Thermo Scientific)
Instrument type: LC-ESI-QFT
Ms type: MS2
Ion mode: NEGATIVE
Ionization: ESI
Fragmentation mode: HCD
Collision energy: 45
Resolution: 17500
Column name: Acquity BEH C18 1.7um, 2.1x150mm (Waters)
Retention time: 14.968 min
Base peak: 245.0455
Precursor m/z: 245.0455
Precursor type: [M-H]-
Precursor intensity: 31319541.4585
m/z	relative intensity	assigned
65.0031	2	C4HO-
65.0397	40	C5H5-
67.0189	12	C4H3O-
89.0397	4	C7H5-
91.0189	339	C6H3O-
107.0139	1	C6H3O2-
108.0217	1	C6H4O2-
109.0294	999	C6H5O2-
115.0553	1	C9H7-
129.0709	2	C10H9-
131.0502	1	C9H7O-
133.0295	1	C8H5O2-
133.0658	1	C9H9O-
135.0088	524	C7H3O3-
153.0193	160	C7H5O4-
156.0581	2	C11H8O-
157.0659	11	C11H9O-
158.0373	1	C10H6O2-
159.0451	31	C10H7O2-
161.0244	3	C9H5O3-
173.0607	1	C11H9O2-
177.0557	7	C10H9O3-
183.0448	1	C12H7O2-
201.0558	18	C12H9O3-
227.0353	4	C13H7O4-
245.0457	3	C13H9O5-
