Mass spectrum: Prometryn; LC-ESI-QFT; MS2; CE: 75; R=17500; [M+H]+
Name: Prometryn
Name: 6-methylsulfanyl-2-N,4-N-di(propan-2-yl)-1,3,5-triazine-2,4-diamine
Formula: C10H19N5S
Exact mass: 241.1361
SMILES: CSC1=NC(NC(C)C)=NC(NC(C)C)=N1
InChI: InChI=1S/C10H19N5S/c1-6(2)11-8-13-9(12-7(3)4)15-10(14-8)16-5/h6-7H,1-5H3,(H2,11,12,13,14,15)
Instrument: Q Exactive Orbitrap (Thermo Scientific)
Instrument type: LC-ESI-QFT
Ms type: MS2
Ion mode: POSITIVE
Ionization: ESI
Fragmentation mode: HCD
Collision energy: 75
Resolution: 17500
Column name: Acquity BEH C18 1.7um, 2.1x150mm (Waters)
Retention time: 16.449 min
Base peak: 79.0211
Precursor m/z: 242.1434
Precursor type: [M+H]+
Precursor intensity: 72697072.9375
m/z	relative intensity	assigned
57.0447	2	C2H5N2+
58.0651	1	C3H8N+
59.9903	1	CH2NS+
61.0106	3	C2H5S+
68.0242	719	C2H2N3+
70.0399	1	C2H4N3+
74.0058	141	C2H4NS+
85.0508	428	C2H5N4+
85.0759	21	C4H9N2+
91.0324	120	C2H7N2S+
99.0011	1	C3H3N2S+
99.0664	2	C3H7N4+
102.0119	4	C2H4N3S+
110.0461	203	C3H4N5+
110.0712	25	C5H8N3+
112.0617	7	C3H6N5+
116.0276	367	C3H6N3S+
125.0694	3	C4H7N5+
127.0977	2	C5H11N4+
131.0384	1	C3H7N4S+
141.0228	1	C4H5N4S+
143.0258	5	C3H5N5S+
152.0928	6	C6H10N5+
158.0494	999	C4H8N5S+
200.0964	31	C7H14N5S+
