Mass spectrum: Ethoxyquin; LC-ESI-QFT; MS2; CE: 60; R=17500; [M+H]+
Name: Ethoxyquin
Name: 6-ethoxy-2,2,4-trimethyl-1H-quinoline
Formula: C14H19NO
Exact mass: 217.1467
SMILES: CCOC1=CC2=C(NC(C)(C)C=C2C)C=C1
InChI: InChI=1S/C14H19NO/c1-5-16-11-6-7-13-12(8-11)10(2)9-14(3,4)15-13/h6-9,15H,5H2,1-4H3
Instrument: Q Exactive Orbitrap (Thermo Scientific)
Instrument type: LC-ESI-QFT
Ms type: MS2
Ion mode: POSITIVE
Ionization: ESI
Fragmentation mode: HCD
Collision energy: 60
Resolution: 17500
Column name: Acquity BEH C18 1.7um, 2.1x150mm (Waters)
Retention time: 15.084 min
Base peak: 79.0211
Precursor m/z: 218.1539
Precursor type: [M+H]+
Precursor intensity: 13280263.6875
m/z	relative intensity	assigned
53.0022	2	C3HO+
53.0385	3	C4H5+
55.0542	17	C4H7+
56.0494	2	C3H6N+
57.0699	47	C4H9+
65.0386	8	C5H5+
67.0542	5	C5H7+
69.0697	3	C5H9+
71.0853	2	C5H11+
79.0542	32	C6H7+
80.0494	3	C5H6N+
81.0572	2	C5H7N+
81.0698	29	C6H9+
82.0287	9	C4H4NO+
83.0856	12	C6H11+
84.0443	3	C4H6NO+
91.0542	16	C7H7+
92.0495	3	C6H6N+
93.0571	2	C6H7N+
93.0699	8	C7H9+
94.0652	9	C6H8N+
95.0491	4	C6H7O+
96.0443	4	C5H6NO+
97.1012	2	C7H13+
98.014	2	C8H2+
103.0541	14	C8H7+
105.0577	2	C7H7N+
105.0698	16	C8H9+
106.0651	112	C7H8N+
107.0491	39	C7H7O+
107.0855	16	C8H11+
108.0444	13	C6H6NO+
108.0807	5	C7H10N+
109.0521	13	C6H7NO+
109.1011	4	C8H13+
110.06	8	C6H8NO+
115.0538	2	C9H7+
116.0493	3	C8H6N+
117.0574	4	C8H7N+
117.0697	17	C9H9+
118.065	14	C8H8N+
119.0492	1	C8H7O+
119.0729	10	C8H9N+
119.0856	8	C9H11+
120.0808	161	C8H10N+
121.0648	6	C8H9O+
121.1011	5	C9H13+
122.06	104	C7H8NO+
129.0699	6	C10H9+
130.0412	2	C9H6O+
130.0651	24	C9H8N+
130.0775	9	C10H10+
131.0492	16	C9H7O+
131.073	9	C9H9N+
131.0854	9	C10H11+
132.0807	30	C9H10N+
133.0522	135	C8H7NO+
133.0646	7	C9H9O+
134.06	445	C8H8NO+
134.0964	27	C9H12N+
135.0678	8	C8H9NO+
135.0807	9	C9H11O+
136.0757	37	C8H10NO+
137.0834	12	C8H11NO+
138.0912	7	C8H12NO+
143.0731	5	C10H9N+
143.0856	2	C11H11+
144.0012	7	C12+
144.0559	17	C10H8O+
144.0808	41	C10H10N+
145.0648	23	C10H9O+
145.089	10	C10H11N+
145.1011	71	C11H13+
146.06	198	C9H8NO+
146.0963	57	C10H12N+
147.0678	269	C9H9NO+
148.0756	999	C9H10NO+
149.0832	5	C9H11NO+
150.0914	33	C9H12NO+
155.0855	12	C12H11+
156.0808	2	C11H10N+
157.0645	2	C11H9O+
157.0887	39	C11H11N+
158.0169	9	C13H2+
158.0722	53	C11H10O+
158.0964	168	C11H12N+
159.068	13	C10H9NO+
159.0804	4	C11H11O+
159.1044	15	C11H13N+
160.0756	409	C10H10NO+
161.0834	189	C10H11NO+
161.1199	35	C11H15N+
162.0913	255	C10H12NO+
162.1276	54	C11H16N+
163.0989	6	C10H13NO+
164.1069	5	C10H14NO+
172.1121	72	C12H14N+
173.0832	6	C11H11NO+
173.0963	55	C12H13O+
173.1199	69	C12H15N+
174.0913	749	C11H12NO+
175.0991	220	C11H13NO+
176.1069	211	C11H14NO+
188.107	634	C12H14NO+
189.1148	211	C12H15NO+
190.1226	482	C12H16NO+
201.1269	6	C14H17O+
202.1226	544	C13H16NO+
203.1303	68	C13H17NO+
216.1375	2	C14H18NO+
218.1539	431	C14H20NO+
