Mass spectrum: Pyrimethamine; LC-ESI-QFT; MS2; CE: 75; R=17500; [M+H]+
Name: Pyrimethamine
Name: 5-(4-chlorophenyl)-6-ethylpyrimidine-2,4-diamine
Formula: C12H13ClN4
Exact mass: 248.0829
SMILES: CCC1=NC(N)=NC(N)=C1C1=CC=C(Cl)C=C1
InChI: InChI=1S/C12H13ClN4/c1-2-9-10(11(14)17-12(15)16-9)7-3-5-8(13)6-4-7/h3-6H,2H2,1H3,(H4,14,15,16,17)
Instrument: Q Exactive Orbitrap (Thermo Scientific)
Instrument type: LC-ESI-QFT
Ms type: MS2
Ion mode: POSITIVE
Ionization: ESI
Fragmentation mode: HCD
Collision energy: 75
Resolution: 17500
Column name: Acquity BEH C18 1.7um, 2.1x150mm (Waters)
Retention time: 13.596 min
Base peak: 79.0211
Precursor m/z: 249.0902
Precursor type: [M+H]+
Precursor intensity: 13842361.5
m/z	relative intensity	assigned
56.0495	29	C3H6N+
57.0574	1	C3H7N+
60.0556	7	CH6N3+
67.029	2	C3H3N2+
68.0243	1	C2H2N3+
68.0494	2	C4H6N+
78.0338	1	C5H4N+
81.0447	1	C4H5N2+
82.0525	4	C4H6N2+
85.0508	1	C2H5N4+
86.9996	3	C4H4Cl+
89.0386	1	C7H5+
103.0542	8	C8H7+
110.9996	1	C6H4Cl+
111.0442	1	CH8ClN4+
114.0337	1	C8H4N+
115.0542	11	C9H7+
116.0495	6	C8H6N+
117.0573	36	C8H7N+
122.9996	1	C7H4Cl+
125.0153	37	C7H6Cl+
127.0541	9	C10H7+
128.062	148	C10H8+
129.0101	16	C4H4ClN3+
129.0697	4	C10H9+
130.0652	6	C9H8N+
130.0776	5	C10H10+
131.0604	1	C8H7N2+
132.0682	1	C8H8N2+
137.0155	1	C8H6Cl+
137.0823	2	C6H9N4+
138.0105	4	C7H5ClN+
139.0057	33	C6H4ClN2+
140.0494	3	C10H6N+
142.0525	15	C9H6N2+
143.0605	5	C9H7N2+
143.0729	2	C10H9N+
144.0808	4	C10H10N+
145.0648	43	C7H12ClN+
145.0885	13	C10H11N+
149.0153	15	C9H6Cl+
150.0104	17	C8H5ClN+
150.0222	2	C9H7Cl+
151.0182	1	C8H6ClN+
152.0262	66	C8H7ClN+
153.0574	6	C11H7N+
154.0651	46	C11H8N+
155.0606	52	C10H7N2+
155.0728	65	C11H9N+
156.0681	4	C10H8N2+
157.0758	4	C10H9N2+
159.0794	1	C9H9N3+
161.0026	6	C9H4ClN+
162.0108	1	C9H5ClN+
162.0231	2	C10H7Cl+
163.0309	157	C10H8Cl+
164.0263	1	C9H7ClN+
165.0213	5	C8H6ClN2+
165.0465	1	C10H10Cl+
168.0216	1	C6H5ClN4+
169.0761	5	C11H9N2+
170.0602	2	C8H11ClN2+
170.0841	3	C11H10N2+
171.0916	3	C11H11N2+
172.0993	8	C11H12N2+
174.0106	1	C10H5ClN+
175.0181	1	C10H6ClN+
176.0138	1	C9H5ClN2+
177.0214	999	C9H6ClN2+
178.0298	1	C9H7ClN2+
178.0417	1	C10H9ClN+
179.0366	2	C9H8ClN2+
179.0604	8	C12H7N2+
180.0571	10	C10H11ClN+
180.0681	4	C12H8N2+
181.0637	1	C11H7N3+
181.0757	1	C12H9N2+
182.0719	3	C11H8N3+
188.0262	11	C11H7ClN+
189.0218	3	C10H6ClN2+
190.0418	38	C11H9ClN+
191.0371	5	C10H8ClN2+
191.0496	12	C11H10ClN+
192.0337	1	C9H7ClN3+
192.0447	12	C10H9ClN2+
194.0484	1	C9H9ClN3+
196.0869	41	C12H10N3+
197.0823	18	C11H9N4+
197.0948	17	C12H11N3+
198.09	194	C11H10N4+
199.0976	7	C11H11N4+
204.0319	1	C10H7ClN3+
205.0534	3	C11H10ClN2+
207.0683	41	C11H12ClN2+
213.1134	31	C12H13N4+
215.0371	8	C12H8ClN2+
216.0321	7	C11H7ClN3+
217.0399	6	C11H8ClN3+
232.0515	1	C11H9ClN4+
232.0637	6	C12H11ClN3+
233.0588	904	C11H10ClN4+
234.0665	13	C11H11ClN4+
247.0746	2	C12H12ClN4+
249.0901	166	C12H14ClN4+
