Mass spectrum: Tolnaftate; LC-ESI-QFT; MS2; CE: 45; R=17500; [M+H]+
Name: Tolnaftate
Name: O-naphthalen-2-yl N-methyl-N-(3-methylphenyl)carbamothioate
Formula: C19H17NOS
Exact mass: 307.1031
SMILES: CN(C(=S)OC1=CC2=CC=CC=C2C=C1)C1=CC=CC(C)=C1
InChI: InChI=1S/C19H17NOS/c1-14-6-5-9-17(12-14)20(2)19(22)21-18-11-10-15-7-3-4-8-16(15)13-18/h3-13H,1-2H3
Instrument: Q Exactive Orbitrap (Thermo Scientific)
Instrument type: LC-ESI-QFT
Ms type: MS2
Ion mode: POSITIVE
Ionization: ESI
Fragmentation mode: HCD
Collision energy: 45
Resolution: 17500
Column name: Acquity BEH C18 1.7um, 2.1x150mm (Waters)
Retention time: 19.422 min
Base peak: 79.0211
Precursor m/z: 308.1104
Precursor type: [M+H]+
Precursor intensity: 20920499.25
m/z	relative intensity	assigned
55.0179	1	C3H3O+
65.0385	8	C5H5+
67.0543	2	C5H7+
79.0542	5	C6H7+
91.0542	57	C7H7+
92.062	2	C7H8+
93.07	13	C7H9+
95.0492	2	C6H7O+
103.0544	1	C8H7+
106.0778	1	C8H10+
107.0492	36	C7H7O+
108.0808	9	C7H10N+
109.0649	48	C7H9O+
111.0264	1	C6H7S+
118.0651	3	C8H8N+
120.0808	937	C8H10N+
121.0885	7	C8H11N+
123.0263	33	C7H7S+
125.0421	2	C7H9S+
133.0521	8	C8H7NO+
137.0297	1	C7H7NS+
148.0757	999	C9H10NO+
149.0294	8	C8H7NS+
152.0529	21	C8H10NS+
159.0264	17	C10H7S+
164.0529	117	C9H10NS+
165.0243	16	C8H7NOS+
180.0478	83	C9H10NOS+
