Mass spectrum: Folic acid; LC-ESI-QFT; MS2; CE: 30; R=17500; [M-H]-
Name: Folic acid
Name: (2S)-2-[[4-[(2-amino-4-oxo-1H-pteridin-6-yl)methylamino]benzoyl]amino]pentanedioic acid
Formula: C19H19N7O6
Exact mass: 441.1397
SMILES: NC1=NC(=O)C2=C(N1)N=CC(CNC1=CC=C(C=C1)C(=O)N[C@@H](CCC(O)=O)C(O)=O)=N2
InChI: InChI=1S/C19H19N7O6/c20-19-25-15-14(17(30)26-19)23-11(8-22-15)7-21-10-3-1-9(2-4-10)16(29)24-12(18(31)32)5-6-13(27)28/h1-4,8,12,21H,5-7H2,(H,24,29)(H,27,28)(H,31,32)(H3,20,22,25,26,30)/t12-/m0/s1
Instrument: Q Exactive Orbitrap (Thermo Scientific)
Instrument type: LC-ESI-QFT
Ms type: MS2
Ion mode: NEGATIVE
Ionization: ESI
Fragmentation mode: HCD
Collision energy: 30
Resolution: 17500
Column name: Acquity BEH C18 1.7um, 2.1x150mm (Waters)
Retention time: 11.004 min
Base peak: 116.9285
Precursor m/z: 440.1324
Precursor type: [M-H]-
Precursor intensity: 517368.5371094
m/z	relative intensity	assigned
128.0353	173	C5H6NO3-
132.0444	25	C6H4N4-
136.0403	27	C7H6NO2-
146.0459	44	C5H8NO4-
162.042	41	C6H4N5O-
174.0423	28	C7H4N5O-
175.05	188	C7H5N5O-
176.0577	46	C7H6N5O-
177.1036	16	C10H13N2O-
203.0827	17	C11H11N2O2-
207.0394	70	C7H5N5O3-
221.0936	75	C11H13N2O3-
267.0998	53	C13H11N6O-
268.0844	45	C13H10N5O2-
293.0795	217	C14H9N6O2-
309.1463	15	C16H17N6O-
310.1065	24	C14H12N7O2-
311.0899	999	C14H11N6O3-
334.1423	38	C17H16N7O-
353.137	123	C17H17N6O3-
378.132	187	C18H16N7O3-
396.1424	644	C18H18N7O4-
422.1219	90	C19H16N7O5-
440.1325	303	C19H18N7O6-
