Mass spectrum: Indapamide; LC-ESI-QFT; MS2; CE: 90; R=17500; [M-H]-
Name: Indapamide
Name: 4-chloro-N-(2-methyl-2,3-dihydroindol-1-yl)-3-sulfamoylbenzamide
Formula: C16H16ClN3O3S
Exact mass: 365.0601
SMILES: CC1CC2=C(C=CC=C2)N1NC(=O)C1=CC(=C(Cl)C=C1)S(N)(=O)=O
InChI: InChI=1S/C16H16ClN3O3S/c1-10-8-11-4-2-3-5-14(11)20(10)19-16(21)12-6-7-13(17)15(9-12)24(18,22)23/h2-7,9-10H,8H2,1H3,(H,19,21)(H2,18,22,23)
Instrument: Q Exactive Orbitrap (Thermo Scientific)
Instrument type: LC-ESI-QFT
Ms type: MS2
Ion mode: NEGATIVE
Ionization: ESI
Fragmentation mode: HCD
Collision energy: 90
Resolution: 17500
Column name: Acquity BEH C18 1.7um, 2.1x150mm (Waters)
Retention time: 14.992 min
Base peak: 112.9857
Precursor m/z: 364.0528
Precursor type: [M-H]-
Precursor intensity: 2667705.891113
m/z	relative intensity	assigned
61.9706	176	NOS-
63.9625	174	O2S-
65.9986	12	C3NO-
77.9655	999	NO2S-
78.9734	365	HNO2S-
79.9812	98	H2NO2S-
80.9652	34	HO3S-
88.0193	81	C6H2N-
89.0271	11	C6H3N-
90.0348	22	C6H4N-
91.0302	18	C5H3N2-
92.0142	6	C5H2NO-
93.9604	220	NO3S-
103.0302	8	C6H3N2-
105.0219	45	C6H3NO-
107.9914	10	C5H2NS-
115.0302	68	C7H3N2-
116.0506	38	C8H6N-
120.0093	5	C6H2NO2-
123.9959	12	C6H3ClN-
130.0662	35	C9H8N-
131.0251	39	C7H3N2O-
151.007	12	C7H4ClN2-
178.9922	13	C7H3N2O2S-
