Mass spectrum: 3,3`-Dimethoxybenzidine; LC-ESI-QFT; MS2; CE: 45; R=17500; [M+H]+
Name: 3,3'-Dimethoxybenzidine
Name: 4-(4-amino-3-methoxyphenyl)-2-methoxyaniline
Formula: C14H16N2O2
Exact mass: 244.1212
SMILES: COC1=CC(=CC=C1N)C1=CC(OC)=C(N)C=C1
InChI: InChI=1S/C14H16N2O2/c1-17-13-7-9(3-5-11(13)15)10-4-6-12(16)14(8-10)18-2/h3-8H,15-16H2,1-2H3
Instrument: Q Exactive Orbitrap (Thermo Scientific)
Instrument type: LC-ESI-QFT
Ms type: MS2
Ion mode: POSITIVE
Ionization: ESI
Fragmentation mode: HCD
Collision energy: 45
Resolution: 17500
Column name: Acquity BEH C18 1.7um, 2.1x150mm (Waters)
Retention time: 8.573 min
Base peak: 79.0211
Precursor m/z: 245.1285
Precursor type: [M+H]+
Precursor intensity: 16535485.875
m/z	relative intensity	assigned
123.0679	3	C7H9NO+
130.0653	1	C9H8N+
154.0648	3	C11H8N+
162.0912	3	C10H12NO+
166.0652	2	C12H8N+
168.0812	1	C12H10N+
169.0761	1	C11H9N2+
170.0838	15	C11H10N2+
171.0916	2	C11H11N2+
181.0761	11	C12H9N2+
182.084	15	C12H10N2+
183.0677	1	C12H9NO+
183.0922	1	C12H11N2+
185.0713	1	C11H9N2O+
186.0913	5	C12H12NO+
186.1064	1	C13H14O+
187.0867	102	C11H11N2O+
196.0757	3	C13H10NO+
197.0706	1	C12H9N2O+
197.0835	1	C13H11NO+
198.0788	163	C12H10N2O+
199.0868	13	C12H11N2O+
200.0944	1	C12H12N2O+
201.1022	24	C12H13N2O+
213.1023	359	C13H13N2O+
214.1101	32	C13H14N2O+
215.0815	221	C12H11N2O2+
228.0895	32	C13H12N2O2+
229.0975	6	C13H13N2O2+
230.1046	999	C13H14N2O2+
244.1208	6	C14H16N2O2+
245.128	138	C14H17N2O2+
