Mass spectrum: Biotin; LC-ESI-QFT; MS2; CE: 90; R=17500; [M-H]-
Name: Biotin
Name: 5-[(3aS,4S,6aR)-2-oxo-1,3,3a,4,6,6a-hexahydrothieno[3,4-d]imidazol-4-yl]pentanoic acid
Formula: C10H16N2O3S
Exact mass: 244.0882
SMILES: OC(=O)CCCC[C@@H]1SC[C@@H]2NC(=O)N[C@H]12
InChI: InChI=1S/C10H16N2O3S/c13-8(14)4-2-1-3-7-9-6(5-16-7)11-10(15)12-9/h6-7,9H,1-5H2,(H,13,14)(H2,11,12,15)/t6-,7-,9-/m0/s1
Instrument: Q Exactive Orbitrap (Thermo Scientific)
Instrument type: LC-ESI-QFT
Ms type: MS2
Ion mode: NEGATIVE
Ionization: ESI
Fragmentation mode: HCD
Collision energy: 90
Resolution: 17500
Column name: Acquity BEH C18 1.7um, 2.1x150mm (Waters)
Retention time: 11.886 min
Base peak: 243.0807
Precursor m/z: 243.0809
Precursor type: [M-H]-
Precursor intensity: 9317842.869141
m/z	relative intensity	assigned
52.0192	113	C3H2N-
58.9962	76	C2H3S-
59.0138	316	C2H3O2-
59.0251	201	CH3N2O-
63.9624	46	O2S-
66.0349	170	C4H4N-
68.0142	575	C3H2NO-
68.0506	276	C4H6N-
71.9914	999	C2H2NS-
72.9992	546	C2H3NS-
74.007	826	C2H4NS-
82.0172	132	C3H2N2O-
82.0662	107	C5H8N-
83.0251	200	C3H3N2O-
85.0117	221	C4H5S-
94.0664	60	C6H8N-
95.0251	607	C4H3N2O-
95.0501	112	C6H7O-
97.0659	80	C6H9O-
99.0148	48	C4H5NS-
101.0432	64	C5H9S-
103.0587	405	C5H11S-
130.0695	55	C6H12NS-
139.0588	69	C8H11S-
