Mass spectrum: Tolcapone; LC-ESI-QFT; MS2; CE: 15; R=17500; [M-H]-
Name: Tolcapone
Name: (3,4-dihydroxy-5-nitrophenyl)-(4-methylphenyl)methanone
Formula: C14H11NO5
Exact mass: 273.0637
SMILES: CC1=CC=C(C=C1)C(=O)C1=CC(O)=C(O)C(=C1)[N+]([O-])=O
InChI: InChI=1S/C14H11NO5/c1-8-2-4-9(5-3-8)13(17)10-6-11(15(19)20)14(18)12(16)7-10/h2-7,16,18H,1H3
Instrument: Q Exactive Orbitrap (Thermo Scientific)
Instrument type: LC-ESI-QFT
Ms type: MS2
Ion mode: NEGATIVE
Ionization: ESI
Fragmentation mode: HCD
Collision energy: 15
Resolution: 17500
Column name: Acquity BEH C18 1.7um, 2.1x150mm (Waters)
Retention time: 17.494 min
Base peak: 307.0977
Precursor m/z: 272.0564
Precursor type: [M-H]-
Precursor intensity: 358472.6914063
m/z	relative intensity	assigned
242.0585	14	C14H10O4-
255.0538	5	C14H9NO4-
272.0566	999	C14H10NO5-
