Mass spectrum: Chlorendic acid; LC-ESI-QFT; MS2; CE: 45; R=17500; [M-H]-
Name: Chlorendic acid
Name: 1,4,5,6,7,7-hexachlorobicyclo[2.2.1]hept-5-ene-2,3-dicarboxylic acid
Formula: C9H4Cl6O4
Exact mass: 385.8241
SMILES: OC(=O)C1C(C(O)=O)C2(Cl)C(Cl)=C(Cl)C1(Cl)C2(Cl)Cl
InChI: InChI=1S/C9H4Cl6O4/c10-3-4(11)8(13)2(6(18)19)1(5(16)17)7(3,12)9(8,14)15/h1-2H,(H,16,17)(H,18,19)
Instrument: Q Exactive Orbitrap (Thermo Scientific)
Instrument type: LC-ESI-QFT
Ms type: MS2
Ion mode: NEGATIVE
Ionization: ESI
Fragmentation mode: HCD
Collision energy: 45
Resolution: 17500
Column name: Acquity BEH C18 1.7um, 2.1x150mm (Waters)
Retention time: 18.305 min
Base peak: 112.9857
Precursor m/z: 384.8168
Precursor type: [M-H]-
Precursor intensity: 1167299.31543
m/z	relative intensity	assigned
176.907	957	C6Cl3-
204.9019	999	C7Cl3O-
232.8969	452	C8Cl3O2-
248.8919	432	C8Cl3O3-
