Mass spectrum: Phenazone; LC-ESI-QFT; MS2; CE: 30; R=17500; [M+H]+
Name: Phenazone
Name: Antipyrine
Name: 1,5-dimethyl-2-phenylpyrazol-3-one
Formula: C11H12N2O
Exact mass: 188.0950
SMILES: CN1N(C(=O)C=C1C)C1=CC=CC=C1
InChI: InChI=1S/C11H12N2O/c1-9-8-11(14)13(12(9)2)10-6-4-3-5-7-10/h3-8H,1-2H3
Instrument: Q Exactive Orbitrap (Thermo Scientific)
Instrument type: LC-ESI-QFT
Ms type: MS2
Ion mode: POSITIVE
Ionization: ESI
Fragmentation mode: HCD
Collision energy: 30
Resolution: 17500
Column name: Acquity BEH C18 1.7um, 2.1x150mm (Waters)
Retention time: 12.178 min
Base peak: 79.0211
Precursor m/z: 189.1022
Precursor type: [M+H]+
Precursor intensity: 37064880
m/z	relative intensity	assigned
56.0494	6	C3H6N+
58.0651	4	C3H8N+
96.0682	1	C5H8N2+
104.0494	2	C7H6N+
118.065	1	C8H8N+
120.0809	1	C8H10N+
130.0649	2	C9H8N+
131.073	3	C9H9N+
132.0807	1	C9H10N+
144.0807	4	C10H10N+
146.084	4	C9H10N2+
146.0962	2	C10H12N+
147.0916	6	C9H11N2+
148.076	1	C9H10NO+
161.1074	11	C10H13N2+
172.0756	1	C11H10NO+
174.079	3	C10H10N2O+
189.1022	999	C11H13N2O+
