Mass spectrum: Epoxiconazole; LC-ESI-QFT; MS2; CE: 90; R=17500; [M+H]+
Name: Epoxiconazole
Name: 1-[[3-(2-chlorophenyl)-2-(4-fluorophenyl)oxiran-2-yl]methyl]-1,2,4-triazole
Formula: C17H13ClFN3O
Exact mass: 329.0731
SMILES: FC1=CC=C(C=C1)C1(CN2C=NC=N2)OC1C1=C(Cl)C=CC=C1
InChI: InChI=1S/C17H13ClFN3O/c18-15-4-2-1-3-14(15)16-17(23-16,9-22-11-20-10-21-22)12-5-7-13(19)8-6-12/h1-8,10-11,16H,9H2
Instrument: Q Exactive Orbitrap (Thermo Scientific)
Instrument type: LC-ESI-QFT
Ms type: MS2
Ion mode: POSITIVE
Ionization: ESI
Fragmentation mode: HCD
Collision energy: 90
Resolution: 17500
Column name: Acquity BEH C18 1.7um, 2.1x150mm (Waters)
Retention time: 18.034 min
Base peak: 79.0212
Precursor m/z: 330.0804
Precursor type: [M+H]+
Precursor intensity: 18074156.625
m/z	relative intensity	assigned
50.0152	3	C4H2+
51.0228	5	C4H3+
53.0022	9	C3HO+
53.0386	27	C4H5+
55.0178	8	C3H3O+
63.0229	1	C5H3+
65.0385	13	C5H5+
66.0462	1	FH5N3+
70.0399	352	C2H4N3+
71.0291	35	C4H4F+
74.015	26	CHFN3+
75.0229	504	C6H3+
76.0306	1	CH3FN3+
77.0385	120	C6H5+
79.0178	16	C5H3O+
79.0543	2	C6H7+
81.0336	5	C5H5O+
82.0398	1	C3H4N3+
83.0291	3	C5H4F+
86.9996	1	C4H4Cl+
91.0542	247	C7H7+
92.0257	1	C6H4O+
93.0335	4	C6H5O+
94.0415	4	C6H6O+
95.0291	45	C6H4F+
95.0491	98	C6H7O+
99.0241	7	C5H4FO+
101.0386	224	C8H5+
102.0465	3	C8H6+
103.0543	2	C8H7+
104.0256	1	C7H4O+
105.0335	13	C7H5O+
105.0447	36	C6H5N2+
105.0699	3	C8H9+
109.0448	12	C7H6F+
111.0441	10	C3H10ClNO+
112.0319	4	C6H5FO+
113.0152	18	C6H6Cl+
113.0397	213	C6H6FO+
118.0414	11	C8H6O+
119.0492	386	C8H7O+
120.0369	8	C8H5F+
121.0448	727	C8H6F+
123.0242	127	C7H4FO+
123.0352	337	C6H4FN2+
124.0324	2	C4H8ClFN+
125.0151	2	C2H5ClFN3+
129.0446	999	C8H5N2+
130.0415	7	C9H6O+
133.0649	3	C9H9O+
138.9948	7	C7H4ClO+
139.0056	19	C6H4ClN2+
141.01	4	C2H5ClFN3O+
178.0776	1	C14H10+
183.0604	8	C13H8F+
194.0526	1	C14H7F+
196.0682	15	C14H9F+
197.0761	3	C14H10F+
