Mass spectrum: Reserpine; LC-ESI-QFT; MS2; CE: 60; R=17500; [M+H]+
Name: Reserpine
Name: methyl (1R,15S,17R,18R,19S,20S)-6,18-dimethoxy-17-(3,4,5-trimethoxybenzoyl)oxy-1,3,11,12,14,15,16,17,18,19,20,21-dodecahydroyohimban-19-carboxylate
Formula: C33H40N2O9
Exact mass: 608.2734
SMILES: CO[C@H]1[C@@H](C[C@@H]2CN3CCC4=C(NC5=C4C=CC(OC)=C5)[C@H]3C[C@@H]2[C@@H]1C(=O)OC)OC(=O)C1=CC(OC)=C(OC)C(OC)=C1
InChI: InChI=1S/C33H40N2O9/c1-38-19-7-8-20-21-9-10-35-16-18-13-27(44-32(36)17-11-25(39-2)30(41-4)26(12-17)40-3)31(42-5)28(33(37)43-6)22(18)15-24(35)29(21)34-23(20)14-19/h7-8,11-12,14,18,22,24,27-28,31,34H,9-10,13,15-16H2,1-6H3/t18-,22+,24-,27-,28+,31+/m1/s1
Instrument: Q Exactive Orbitrap (Thermo Scientific)
Instrument type: LC-ESI-QFT
Ms type: MS2
Ion mode: POSITIVE
Ionization: ESI
Fragmentation mode: HCD
Collision energy: 60
Resolution: 17500
Column name: Acquity BEH C18 1.7um, 2.1x150mm (Waters)
Retention time: 15.330 min
Base peak: 79.0211
Precursor m/z: 609.2807
Precursor type: [M+H]+
Precursor intensity: 2265331.5
m/z	relative intensity	assigned
53.0386	26	C4H5+
55.0178	3	C3H3O+
55.0544	7	C4H7+
56.0495	10	C3H6N+
65.0385	15	C5H5+
66.0465	3	C5H6+
67.0542	15	C5H7+
68.0495	6	C4H6N+
69.0335	3	C4H5O+
70.0651	10	C4H8N+
71.049	19	C4H7O+
75.044	13	C3H7O2+
77.0385	3	C6H5+
78.0464	4	C6H6+
79.0542	92	C6H7+
80.0494	14	C5H6N+
81.0335	52	C5H5O+
81.0699	46	C6H9+
82.065	4	C5H8N+
83.0491	4	C5H7O+
85.0284	4	C4H5O2+
91.0542	65	C7H7+
92.0495	4	C6H6N+
93.0334	7	C6H5O+
93.0574	6	C6H7N+
93.0699	8	C7H9+
94.0414	16	C6H6O+
94.0652	33	C6H8N+
95.0492	50	C6H7O+
96.057	37	C6H8O+
97.0648	9	C6H9O+
99.044	3	C5H7O2+
101.0597	6	C5H9O2+
103.0542	13	C8H7+
105.0335	3	C7H5O+
105.0447	14	C6H5N2+
105.0698	11	C8H9+
106.0415	3	C7H6O+
106.0651	18	C7H8N+
107.0491	12	C7H7O+
107.0728	5	C7H9N+
108.0569	27	C7H8O+
108.0807	10	C7H10N+
109.0286	9	C6H5O2+
109.0648	70	C7H9O+
111.044	24	C6H7O2+
111.0805	13	C7H11O+
113.0233	4	C5H5O3+
113.0597	12	C6H9O2+
115.0542	41	C9H7+
116.0622	9	C9H8+
117.0572	14	C8H7N+
117.0699	24	C9H9+
118.0651	19	C8H8N+
119.0493	6	C8H7O+
119.0855	3	C9H11+
120.081	25	C8H10N+
121.0286	10	C7H5O2+
121.0649	21	C8H9O+
122.0363	51	C7H6O2+
122.0727	5	C8H10O+
123.0443	4	C7H7O2+
123.0804	6	C8H11O+
124.0519	93	C7H8O2+
125.0599	6	C7H9O2+
128.0471	7	C6H8O3+
128.0621	4	C10H8+
129.0698	13	C10H9+
130.0652	50	C9H8N+
131.049	7	C9H7O+
131.073	151	C9H9N+
132.0445	3	C8H6NO+
132.0571	10	C9H8O+
132.0809	47	C9H10N+
133.0649	6	C9H9O+
134.0602	4	C8H8NO+
135.044	6	C8H7O2+
135.0803	6	C9H11O+
136.0758	6	C8H10NO+
137.0232	16	C7H5O3+
137.0597	6	C8H9O2+
139.0754	155	C8H11O2+
141.0184	11	C6H5O4+
142.0652	30	C10H8N+
143.073	164	C10H9N+
144.0568	11	C10H8O+
144.0808	57	C10H10N+
145.0521	9	C9H7NO+
145.0649	11	C10H9O+
145.0886	14	C10H11N+
146.0601	24	C9H8NO+
146.0965	12	C10H12N+
147.068	19	C9H9NO+
147.0804	47	C10H11O+
148.0758	37	C9H10NO+
149.0598	15	C9H9O2+
150.0915	5	C9H12NO+
151.0391	21	C8H7O3+
152.0468	211	C8H8O3+
154.064	6	C11H8N+
156.0416	23	C7H8O4+
156.0808	8	C11H10N+
157.0886	10	C11H11N+
158.0601	15	C10H8NO+
158.0725	3	C11H10O+
159.0679	384	C10H9NO+
160.0757	95	C10H10NO+
161.0599	9	C10H9O2+
161.0836	35	C10H11NO+
162.0913	17	C10H12NO+
163.0756	4	C10H11O2+
164.1072	6	C10H14NO+
167.0704	30	C9H11O3+
168.0807	4	C12H10N+
169.0517	2	C11H7NO+
169.0885	8	C12H11N+
170.0594	9	C11H8NO+
171.0679	5	C11H9NO+
172.0758	23	C11H10NO+
173.0837	49	C11H11NO+
174.0914	999	C11H12NO+
175.075	7	C11H11O2+
176.107	10	C11H14NO+
178.0865	7	C10H12NO2+
179.0701	3	C10H11O3+
181.0878	8	C13H11N+
182.0598	4	C12H8NO+
183.0682	4	C12H9NO+
184.0368	12	C8H8O5+
184.0761	21	C12H10NO+
185.0814	61	C9H13O4+
186.0914	44	C12H12NO+
187.0993	17	C12H13NO+
188.1072	28	C12H14NO+
190.0862	11	C11H12NO2+
192.102	33	C11H14NO2+
193.0872	5	C11H13O3+
195.0653	666	C10H11O4+
196.0758	6	C13H10NO+
197.0834	13	C13H11NO+
198.0914	28	C13H12NO+
199.0867	23	C12H11N2O+
199.0992	12	C13H13NO+
200.1066	25	C13H14NO+
201.1023	6	C12H13N2O+
204.0814	3	C15H10N+
204.1019	16	C12H14NO2+
205.0883	5	C15H11N+
206.0965	6	C15H12N+
206.1181	5	C12H16NO2+
207.104	4	C15H13N+
210.0912	19	C14H12NO+
211.0995	7	C14H13NO+
212.0943	9	C13H12N2O+
212.1069	10	C14H14NO+
213.1025	6	C13H13N2O+
214.1094	6	C13H14N2O+
215.1176	7	C13H15N2O+
220.0753	3	C15H10NO+
221.0837	3	C15H11NO+
222.0913	15	C15H12NO+
223.0874	4	C14H11N2O+
223.0993	9	C15H13NO+
224.1071	21	C15H14NO+
225.1029	5	C14H13N2O+
225.1143	4	C15H15NO+
226.1224	3	C15H16NO+
227.1184	15	C14H15N2O+
231.1036	6	C17H13N+
234.0913	10	C16H12NO+
235.0868	2	C15H11N2O+
235.0995	7	C16H13NO+
236.095	4	C15H12N2O+
236.1069	14	C16H14NO+
236.1282	8	C13H18NO3+
237.1025	7	C15H13N2O+
237.1148	10	C16H15NO+
238.1108	3	C15H14N2O+
238.1226	17	C16H16NO+
239.1178	11	C15H15N2O+
245.1203	7	C18H15N+
246.0911	8	C17H12NO+
247.0991	11	C17H13NO+
248.1068	23	C17H14NO+
249.1023	8	C16H13N2O+
249.1149	6	C17H15NO+
250.1097	7	C16H14N2O+
250.1229	12	C17H16NO+
251.1179	35	C16H15N2O+
252.1251	3	C16H16N2O+
253.1337	10	C16H17N2O+
258.0917	7	C18H12NO+
259.0992	4	C18H13NO+
260.1069	16	C18H14NO+
261.1151	11	C18H15NO+
262.1228	17	C18H16NO+
264.1255	7	C17H16N2O+
264.1394	4	C18H18NO+
265.1336	29	C17H17N2O+
273.1147	6	C19H15NO+
274.1233	13	C19H16NO+
276.1018	3	C18H14NO2+
276.1375	18	C19H18NO+
288.1391	7	C20H18NO+
290.1173	5	C19H16NO2+
291.149	6	C19H19N2O+
304.1331	4	C20H18NO2+
305.1643	8	C20H21N2O+
336.1589	4	C21H22NO3+
350.1619	8	C21H22N2O3+
364.1739	3	C16H28O9+
365.1853	9	C22H25N2O3+
