Mass spectrum: Phenyl 1-hydroxy-2-naphthoate; LC-ESI-QFT; MS2; CE: 90; R=17500; [M-H]-
Name: Phenyl 1-hydroxy-2-naphthoate
Name: phenyl 1-hydroxynaphthalene-2-carboxylate
Formula: C17H12O3
Exact mass: 264.0786
SMILES: OC1=C(C=CC2=C1C=CC=C2)C(=O)OC1=CC=CC=C1
InChI: InChI=1S/C17H12O3/c18-16-14-9-5-4-6-12(14)10-11-15(16)17(19)20-13-7-2-1-3-8-13/h1-11,18H
Instrument: Q Exactive Orbitrap (Thermo Scientific)
Instrument type: LC-ESI-QFT
Ms type: MS2
Ion mode: NEGATIVE
Ionization: ESI
Fragmentation mode: HCD
Collision energy: 90
Resolution: 17500
Column name: Acquity BEH C18 1.7um, 2.1x150mm (Waters)
Retention time: 20.496 min
Base peak: 112.9855
Precursor m/z: 263.0714
Precursor type: [M-H]-
Precursor intensity: 359394.6552734
m/z	relative intensity	assigned
65.0397	29	C5H5-
93.0346	999	C6H5O-
143.0505	53	C10H7O-
