Mass spectrum: 2,5-Dimethoxy-4-chloroaniline; LC-ESI-QFT; MS2; CE: 15; R=17500; [M+H]+
Name: 2,5-Dimethoxy-4-chloroaniline
Name: 4-chloro-2,5-dimethoxyaniline
Formula: C8H10ClNO2
Exact mass: 187.0400
SMILES: COC1=CC(N)=C(OC)C=C1Cl
InChI: InChI=1S/C8H10ClNO2/c1-11-7-4-6(10)8(12-2)3-5(7)9/h3-4H,10H2,1-2H3
Instrument: Q Exactive Orbitrap (Thermo Scientific)
Instrument type: LC-ESI-QFT
Ms type: MS2
Ion mode: POSITIVE
Ionization: ESI
Fragmentation mode: HCD
Collision energy: 15
Resolution: 17500
Column name: Acquity BEH C18 1.7um, 2.1x150mm (Waters)
Retention time: 13.442 min
Base peak: 79.0211
Precursor m/z: 188.0473
Precursor type: [M+H]+
Precursor intensity: 2923637.25
m/z	relative intensity	assigned
124.0758	11	C7H10NO+
138.055	14	C7H8NO2+
152.0707	18	C8H10NO2+
153.0785	308	C8H11NO2+
156.0212	5	C7H7ClNO+
157.0294	1	C7H8ClNO+
158.0006	1	C6H5ClNO2+
172.0159	10	C7H7ClNO2+
173.0239	521	C7H8ClNO2+
188.0473	999	C8H11ClNO2+
