Mass spectrum: Dodecanedioic acid; LC-ESI-QFT; MS2; CE: 60; R=17500; [M-H]-
Name: Dodecanedioic acid
Formula: C12H22O4
Exact mass: 230.1518
SMILES: OC(=O)CCCCCCCCCCC(O)=O
InChI: InChI=1S/C12H22O4/c13-11(14)9-7-5-3-1-2-4-6-8-10-12(15)16/h1-10H2,(H,13,14)(H,15,16)
Instrument: Q Exactive Orbitrap (Thermo Scientific)
Instrument type: LC-ESI-QFT
Ms type: MS2
Ion mode: NEGATIVE
Ionization: ESI
Fragmentation mode: HCD
Collision energy: 60
Resolution: 17500
Column name: Acquity BEH C18 1.7um, 2.1x150mm (Waters)
Retention time: 17.454 min
Base peak: 307.0977
Precursor m/z: 229.1445
Precursor type: [M-H]-
Precursor intensity: 35072537.23242
m/z	relative intensity	assigned
57.0346	45	C3H5O-
69.0347	9	C4H5O-
71.0503	7	C4H7O-
80.0268	18	C5H4O-
81.0347	8	C5H5O-
83.0504	15	C5H7O-
99.0816	4	C6H11O-
139.1129	29	C9H15O-
165.1285	76	C11H17O-
167.1442	999	C11H19O-
183.1394	5	C11H19O2-
185.1549	18	C11H21O2-
211.134	642	C12H19O3-
229.1446	184	C12H21O4-
