Mass spectrum: 2,7-Acetylaminofluorene; LC-ESI-QFT; MS2; CE: 15; R=17500; [M+H]+
Name: 2,7-Acetylaminofluorene
Name: 2,7-Diacetamidofluorene
Name: N-(7-acetamido-9H-fluoren-2-yl)acetamide
Formula: C17H16N2O2
Exact mass: 280.1212
SMILES: CC(=O)NC1=CC=C2C(CC3=C2C=CC(NC(C)=O)=C3)=C1
InChI: InChI=1S/C17H16N2O2/c1-10(20)18-14-3-5-16-12(8-14)7-13-9-15(19-11(2)21)4-6-17(13)16/h3-6,8-9H,7H2,1-2H3,(H,18,20)(H,19,21)
Instrument: Q Exactive Orbitrap (Thermo Scientific)
Instrument type: LC-ESI-QFT
Ms type: MS2
Ion mode: POSITIVE
Ionization: ESI
Fragmentation mode: HCD
Collision energy: 15
Resolution: 17500
Column name: Acquity BEH C18 1.7um, 2.1x150mm (Waters)
Retention time: 14.586 min
Base peak: 79.0211
Precursor m/z: 281.1285
Precursor type: [M+H]+
Precursor intensity: 11337708.5
m/z	relative intensity	assigned
180.0818	1	C13H10N+
238.1092	2	C15H14N2O+
239.1179	12	C15H15N2O+
240.1013	1	C15H14NO2+
263.117	1	C17H15N2O+
281.1282	999	C17H17N2O2+
