Mass spectrum: Pirinixic acid; LC-ESI-QFT; MS2; CE: 15; R=17500; [M+H]+
Name: Pirinixic acid
Name: 2-[4-chloro-6-(2,3-dimethylanilino)pyrimidin-2-yl]sulfanylacetic acid
Formula: C14H14ClN3O2S
Exact mass: 323.0495
SMILES: CC1=C(C)C(NC2=NC(SCC(O)=O)=NC(Cl)=C2)=CC=C1
InChI: InChI=1S/C14H14ClN3O2S/c1-8-4-3-5-10(9(8)2)16-12-6-11(15)17-14(18-12)21-7-13(19)20/h3-6H,7H2,1-2H3,(H,19,20)(H,16,17,18)
Instrument: Q Exactive Orbitrap (Thermo Scientific)
Instrument type: LC-ESI-QFT
Ms type: MS2
Ion mode: POSITIVE
Ionization: ESI
Fragmentation mode: HCD
Collision energy: 15
Resolution: 17500
Column name: Acquity BEH C18 1.7um, 2.1x150mm (Waters)
Retention time: 17.863 min
Base peak: 79.0211
Precursor m/z: 324.0568
Precursor type: [M+H]+
Precursor intensity: 9292487.25
m/z	relative intensity	assigned
262.0676	1	C12H12N3O2S+
278.0513	17	C13H13ClN3S+
306.0463	178	C14H13ClN3OS+
324.0567	999	C14H15ClN3O2S+
