Mass spectrum: Octyl gallate; LC-ESI-QFT; MS2; CE: 45; R=17500; [M-H]-
Name: Octyl gallate
Name: octyl 3,4,5-trihydroxybenzoate
Formula: C15H22O5
Exact mass: 282.1467
SMILES: CCCCCCCCOC(=O)C1=CC(O)=C(O)C(O)=C1
InChI: InChI=1S/C15H22O5/c1-2-3-4-5-6-7-8-20-15(19)11-9-12(16)14(18)13(17)10-11/h9-10,16-18H,2-8H2,1H3
Instrument: Q Exactive Orbitrap (Thermo Scientific)
Instrument type: LC-ESI-QFT
Ms type: MS2
Ion mode: NEGATIVE
Ionization: ESI
Fragmentation mode: HCD
Collision energy: 45
Resolution: 17500
Column name: Acquity BEH C18 1.7um, 2.1x150mm (Waters)
Retention time: 18.717 min
Base peak: 357.026
Precursor m/z: 281.1394
Precursor type: [M-H]-
Precursor intensity: 4011816.0625
m/z	relative intensity	assigned
55.0189	4	C3H3O-
59.0139	4	C2H3O2-
65.0033	20	C4HO-
67.019	26	C4H3O-
68.9981	21	C3HO2-
69.0346	13	C4H5O-
71.0139	30	C3H3O2-
72.9931	28	C2HO3-
79.0189	6	C5H3O-
82.0059	12	C4H2O2-
83.0138	29	C4H3O2-
86.001	6	C3H2O3-
87.0088	15	C3H3O3-
95.0139	16	C5H3O2-
96.9932	12	C4HO3-
97.0296	10	C5H5O2-
99.0089	10	C4H3O3-
110.0009	46	C5H2O3-
111.0088	234	C5H3O3-
123.0088	66	C6H3O3-
124.0165	104	C6H4O3-
125.0244	999	C6H5O3-
127.0036	128	C5H3O4-
136.988	175	C6HO4-
139.0037	283	C6H3O4-
140.0115	398	C6H4O4-
141.9906	7	C5H2O5-
151.0037	32	C7H3O4-
154.9987	35	C6H3O5-
166.9987	6	C7H3O5-
168.0064	328	C7H4O5-
169.0142	799	C7H5O5-
237.1498	8	C14H21O3-
281.1394	896	C15H21O5-
