Mass spectrum: Dimethametryn; LC-ESI-QFT; MS2; CE: 45; R=17500; [M+H]+
Name: Dimethametryn
Name: 4-N-ethyl-2-N-(3-methylbutan-2-yl)-6-methylsulfanyl-1,3,5-triazine-2,4-diamine
Formula: C11H21N5S
Exact mass: 255.1518
SMILES: CCNC1=NC(SC)=NC(NC(C)C(C)C)=N1
InChI: InChI=1S/C11H21N5S/c1-6-12-9-14-10(13-8(4)7(2)3)16-11(15-9)17-5/h7-8H,6H2,1-5H3,(H2,12,13,14,15,16)
Instrument: Q Exactive Orbitrap (Thermo Scientific)
Instrument type: LC-ESI-QFT
Ms type: MS2
Ion mode: POSITIVE
Ionization: ESI
Fragmentation mode: HCD
Collision energy: 45
Resolution: 17500
Column name: Acquity BEH C18 1.7um, 2.1x150mm (Waters)
Retention time: 17.321 min
Base peak: 79.0211
Precursor m/z: 256.159
Precursor type: [M+H]+
Precursor intensity: 19364817.5
m/z	relative intensity	assigned
57.0699	1	C4H9+
68.0242	10	C2H2N3+
70.0651	1	C4H8N+
71.0603	36	C3H7N2+
71.0855	43	C5H11+
74.0057	2	C2H4NS+
85.0509	3	C2H5N4+
88.0756	3	C2H8N4+
91.0324	82	C2H7N2S+
96.0556	75	C4H6N3+
102.0372	5	C4H8NS+
102.0913	2	C3H10N4+
110.046	1	C3H4N5+
113.0821	10	C4H9N4+
116.0277	35	C3H6N3S+
138.0774	34	C5H8N5+
144.059	24	C5H10N3S+
158.0495	38	C4H8N5S+
166.1337	3	C9H16N3+
171.0574	1	C5H9N5S+
184.0651	1	C6H10N5S+
186.0808	999	C6H12N5S+
208.1557	1	C10H18N5+
256.1589	204	C11H22N5S+
