Mass spectrum: Megestrol acetate; LC-ESI-QFT; MS2; CE: 75; R=17500; [M+H]+
Name: Megestrol acetate
Formula: C24H32O4
Exact mass: 384.2301
SMILES: CC(=O)O[C@@]1(CC[C@H]2[C@@H]3C=C(C)C4=CC(=O)CC[C@]4(C)[C@H]3CC[C@]12C)C(C)=O
InChI: InChI=1S/C24H32O4/c1-14-12-18-19(22(4)9-6-17(27)13-21(14)22)7-10-23(5)20(18)8-11-24(23,15(2)25)28-16(3)26/h12-13,18-20H,6-11H2,1-5H3/t18-,19+,20+,22-,23+,24+/m1/s1
Instrument: Q Exactive Orbitrap (Thermo Scientific)
Instrument type: LC-ESI-QFT
Ms type: MS2
Ion mode: POSITIVE
Ionization: ESI
Fragmentation mode: HCD
Collision energy: 75
Resolution: 17500
Column name: Acquity BEH C18 1.7um, 2.1x150mm (Waters)
Retention time: 18.444 min
Base peak: 79.0211
Precursor m/z: 385.2373
Precursor type: [M+H]+
Precursor intensity: 6449846.5
m/z	relative intensity	assigned
53.0023	4	C3HO+
53.0386	19	C4H5+
55.0179	30	C3H3O+
55.0542	75	C4H7+
57.0698	17	C4H9+
59.0491	25	C3H7O+
65.0385	7	C5H5+
67.0542	96	C5H7+
69.0334	7	C4H5O+
69.0698	38	C5H9+
71.049	6	C4H7O+
79.0542	120	C6H7+
81.0699	90	C6H9+
83.0492	136	C5H7O+
85.0646	12	C5H9O+
91.0543	237	C7H7+
93.0699	147	C7H9+
95.0491	41	C6H7O+
95.0856	52	C7H11+
97.0648	211	C6H9O+
103.0542	22	C8H7+
105.0699	300	C8H9+
107.0491	40	C7H7O+
107.0855	85	C8H11+
109.0649	32	C7H9O+
109.1013	20	C8H13+
111.0804	16	C7H11O+
115.0541	42	C9H7+
116.062	11	C9H8+
117.0699	93	C9H9+
118.0776	4	C9H10+
119.0856	179	C9H11+
121.0648	56	C8H9O+
121.1011	35	C9H13+
123.0804	20	C8H11O+
128.062	80	C10H8+
129.0699	126	C10H9+
130.0777	42	C10H10+
131.0856	153	C10H11+
132.057	4	C9H8O+
132.0934	4	C10H12+
133.0649	23	C9H9O+
133.1012	156	C10H13+
135.0804	24	C9H11O+
135.117	10	C10H15+
137.096	8	C9H13O+
141.0699	85	C11H9+
142.0777	191	C11H10+
143.0856	150	C11H11+
144.0568	10	C10H8O+
144.0935	38	C11H12+
145.0648	43	C10H9O+
145.1013	154	C11H13+
146.073	9	C10H10O+
146.109	12	C11H14+
147.0806	32	C10H11O+
147.1169	38	C11H15+
149.0959	12	C10H13O+
152.0621	9	C12H8+
153.0699	58	C12H9+
154.0776	48	C12H10+
155.0855	208	C12H11+
156.0934	87	C12H12+
157.0649	20	C11H9O+
157.1012	128	C12H13+
158.0725	23	C11H10O+
158.1089	11	C12H14+
159.0805	43	C11H11O+
159.117	52	C12H15+
160.0883	69	C11H12O+
161.0961	51	C11H13O+
161.1324	7	C12H17+
162.104	4	C11H14O+
165.0699	80	C13H9+
166.0778	44	C13H10+
167.0856	236	C13H11+
168.0934	81	C13H12+
169.1012	239	C13H13+
170.0725	4	C12H10O+
170.1091	32	C13H14+
171.0807	39	C12H11O+
171.1168	85	C13H15+
172.0882	45	C12H12O+
172.125	4	C13H16+
173.0963	108	C12H13O+
173.1326	18	C13H17+
174.1038	8	C12H14O+
175.1118	89	C12H15O+
178.0776	31	C14H10+
179.0856	286	C14H11+
180.0933	76	C14H12+
181.1012	189	C14H13+
182.1092	63	C14H14+
183.1169	347	C14H15+
184.1246	18	C14H16+
185.0963	21	C13H13O+
185.1326	56	C14H17+
186.1035	4	C13H14O+
187.1117	77	C13H15O+
188.1196	6	C13H16O+
190.0781	6	C15H10+
191.0857	28	C15H11+
192.0934	44	C15H12+
193.1013	183	C15H13+
194.1091	414	C15H14+
195.1169	190	C15H15+
196.1248	60	C15H16+
197.0964	18	C14H13O+
197.1325	165	C15H17+
198.1045	7	C14H14O+
198.1405	28	C15H18+
199.112	13	C14H15O+
199.1481	35	C15H19+
203.0853	8	C16H11+
204.0936	14	C16H12+
205.1014	32	C16H13+
206.1089	27	C16H14+
207.1169	136	C16H15+
208.1247	110	C16H16+
209.1325	999	C16H17+
210.1037	9	C15H14O+
210.1403	66	C16H18+
211.1117	48	C15H15O+
211.1482	161	C16H19+
212.1189	18	C15H16O+
213.1276	11	C15H17O+
217.101	13	C17H13+
218.109	12	C17H14+
219.1168	87	C17H15+
220.1247	26	C17H16+
221.1326	49	C17H17+
222.104	4	C16H14O+
222.1404	17	C17H18+
223.1115	11	C16H15O+
223.1482	211	C17H19+
224.1201	7	C16H16O+
224.156	92	C17H20+
225.1276	31	C16H17O+
225.164	33	C17H21+
231.1172	5	C18H15+
233.1327	23	C18H17+
234.1404	45	C18H18+
235.148	42	C18H19+
236.1192	5	C17H16O+
237.1275	35	C17H17O+
237.1637	9	C18H21+
238.1354	17	C17H18O+
239.1437	22	C17H19O+
239.1795	9	C18H23+
244.1239	4	C19H16+
245.1328	5	C19H17+
247.1481	6	C19H19+
249.1637	85	C19H21+
251.1429	58	C18H19O+
252.1512	23	C18H20O+
253.1586	14	C18H21O+
263.18	5	C20H23+
265.1587	14	C19H21O+
265.1951	7	C20H25+
266.1677	6	C19H22O+
267.1744	202	C19H23O+
281.1914	8	C20H25O+
282.1973	6	C20H26O+
