Mass spectrum: Hydramethylnon; LC-ESI-QFT; MS2; CE: 60; R=17500; [M-H]-
Name: Hydramethylnon
Name: N-[[(1E,4E)-1,5-bis[4-(trifluoromethyl)phenyl]penta-1,4-dien-3-ylidene]amino]-5,5-dimethyl-4,6-dihydro-1H-pyrimidin-2-amine
Formula: C25H24F6N4
Exact mass: 494.1905
SMILES: CC1(C)CNC(NC1)=NN=C(\C=C\C1=CC=C(C=C1)C(F)(F)F)/C=C/C1=CC=C(C=C1)C(F)(F)F
InChI: InChI=1S/C25H24F6N4/c1-23(2)15-32-22(33-16-23)35-34-21(13-7-17-3-9-19(10-4-17)24(26,27)28)14-8-18-5-11-20(12-6-18)25(29,30)31/h3-14H,15-16H2,1-2H3,(H2,32,33,35)/b13-7+,14-8+
Instrument: Q Exactive Orbitrap (Thermo Scientific)
Instrument type: LC-ESI-QFT
Ms type: MS2
Ion mode: NEGATIVE
Ionization: ESI
Fragmentation mode: HCD
Collision energy: 60
Resolution: 17500
Column name: Acquity BEH C18 1.7um, 2.1x150mm (Waters)
Retention time: 17.721 min
Base peak: 317.1619
Precursor m/z: 493.1832
Precursor type: [M-H]-
Precursor intensity: 5228007.983398
m/z	relative intensity	assigned
65.0145	47	C3HN2-
67.0302	5	C3H3N2-
68.9958	7	CF3-
81.0459	8	C4H5N2-
95.0614	19	C5H7N2-
121.0771	14	C7H9N2-
125.0207	4	C7H3F2-
126.1036	40	C6H12N3-
145.0271	747	C7H4F3-
156.033	5	C4H4F4N2-
159.0428	34	C8H6F3-
164.0318	50	C9H4F2N-
169.0271	14	C9H4F3-
170.0225	7	C8H3F3N-
183.0427	16	C10H6F3-
185.0594	14	C10H8F3-
186.0536	3	C9H7F3N-
189.017	50	C14H2F-
189.0516	3	C7H6F3N3-
196.0943	20	C11H12F2N-
197.0522	7	C12H6FN2-
198.0408	8	C9H5F3N2-
209.0584	4	C12H8F3-
210.0539	14	C11H7F3N-
211.0486	15	C10H6F3N2-
215.063	4	C15H7N2-
217.0582	65	C12H7F2N2-
220.0691	62	C11H8F2N3-
222.0411	13	C11H5F3N2-
224.0566	9	C11H7F3N2-
235.0486	21	C12H6F3N2-
236.0441	35	C11H5F3N3-
237.0645	999	C12H8F3N2-
238.0598	155	C11H7F3N3-
255.1115	4	C13H14F3N2-
276.1317	67	C15H16F2N3-
293.0588	8	C19H8F3-
295.074	21	C19H10F3-
300.0769	19	C21H10F2-
323.0801	4	C19H10F3N2-
333.0696	3	C14H9F6N3-
353.0772	17	C19H11F6-
355.092	9	C22H11F2N3-
363.0924	11	C19H12F5N2-
381.0833	49	C19H11F6N2-
383.0979	7	C19H13F6N2-
