Mass spectrum: SSR180711; LC-ESI-QFT; MS2; CE: 45; R=17500; [M+H]+
Name: SSR180711
Name: 4-Bromophenyl 1,4-diazabicyclo(3.2.2)nonane-4-carboxylate
Name: (4-bromophenyl) 1,4-diazabicyclo[3.2.2]nonane-4-carboxylate
Formula: C14H17BrN2O2
Exact mass: 324.0473
SMILES: BrC1=CC=C(OC(=O)N2CCN3CCC2CC3)C=C1
InChI: InChI=1S/C14H17BrN2O2/c15-11-1-3-13(4-2-11)19-14(18)17-10-9-16-7-5-12(17)6-8-16/h1-4,12H,5-10H2
Instrument: Q Exactive Orbitrap (Thermo Scientific)
Instrument type: LC-ESI-QFT
Ms type: MS2
Ion mode: POSITIVE
Ionization: ESI
Fragmentation mode: HCD
Collision energy: 45
Resolution: 17500
Column name: Acquity BEH C18 1.7um, 2.1x150mm (Waters)
Retention time: 13.135 min
Base peak: 79.0211
Precursor m/z: 325.0546
Precursor type: [M+H]+
Precursor intensity: 7978329.5
m/z	relative intensity	assigned
53.0386	2	C4H5+
55.0543	60	C4H7+
56.0495	203	C3H6N+
57.0699	3	C4H9+
58.0653	1	C3H8N+
65.0387	1	C5H5+
67.0416	1	C4H5N+
67.0542	23	C5H7+
68.0494	2	C4H6N+
69.0447	1	C3H5N2+
69.0572	1	C4H7N+
70.0287	4	C3H4NO+
70.0651	1	C4H8N+
80.0496	4	C5H6N+
82.0651	151	C5H8N+
84.0808	999	C5H10N+
94.0413	4	C6H6O+
97.0396	3	C4H5N2O+
97.0761	13	C5H9N2+
99.0553	12	C4H7N2O+
120.0572	1	C8H8O+
125.071	81	C6H9N2O+
126.0788	2	C6H10N2O+
126.1155	1	C7H14N2+
153.1025	3	C8H13N2O+
154.9502	2	C6H4Br+
172.9597	31	C6H6BrO+
182.9551	2	C6H4BrN2+
184.9597	3	C7H6BrO+
198.9754	4	C8H8BrO+
210.9756	1	C9H8BrO+
241.9812	71	C9H9BrNO2+
253.9811	11	C10H9BrNO2+
255.997	2	C10H11BrNO2+
267.9968	56	C11H11BrNO2+
271.0078	2	C10H12BrN2O2+
297.0235	160	C12H14BrN2O2+
325.0547	584	C14H18BrN2O2+
