Mass spectrum: 2,4,6-Tris(allyloxy)-1,3,5-triazine; LC-ESI-QFT; MS2; CE: 75; R=17500; [M+H]+
Name: 2,4,6-Tris(allyloxy)-1,3,5-triazine
Name: Triallyl cyanurate
Name: 2,4,6-tris(prop-2-enoxy)-1,3,5-triazine
Formula: C12H15N3O3
Exact mass: 249.1113
SMILES: C=CCOC1=NC(OCC=C)=NC(OCC=C)=N1
InChI: InChI=1S/C12H15N3O3/c1-4-7-16-10-13-11(17-8-5-2)15-12(14-10)18-9-6-3/h4-6H,1-3,7-9H2
Instrument: Q Exactive Orbitrap (Thermo Scientific)
Instrument type: LC-ESI-QFT
Ms type: MS2
Ion mode: POSITIVE
Ionization: ESI
Fragmentation mode: HCD
Collision energy: 75
Resolution: 17500
Column name: Acquity BEH C18 1.7um, 2.1x150mm (Waters)
Retention time: 17.729 min
Base peak: 79.0211
Precursor m/z: 250.1186
Precursor type: [M+H]+
Precursor intensity: 18746697.75
m/z	relative intensity	assigned
51.023	11	C4H3+
53.0022	264	C3HO+
53.0386	295	C4H5+
53.9974	43	C2NO+
54.0339	66	C3H4N+
55.0179	8	C3H3O+
55.0543	33	C4H7+
56.0131	280	C2H2NO+
56.0495	24	C3H6N+
58.0651	42	C3H8N+
65.0386	67	C5H5+
66.0464	46	C5H6+
67.0543	7	C5H7+
68.0494	16	C4H6N+
68.9971	8	C3HO2+
69.9924	381	C2NO2+
77.0385	11	C6H5+
79.0543	999	C6H7+
81.0699	548	C6H9+
82.0288	142	C4H4NO+
84.0445	99	C4H6NO+
87.019	131	C2H3N2O2+
95.0492	97	C6H7O+
96.0445	12	C5H6NO+
99.019	20	C3H3N2O2+
105.045	29	C6H5N2+
