Mass spectrum: Leflunomide; LC-ESI-QFT; MS2; CE: 90; R=17500; [M-H]-
Name: Leflunomide
Name: 5-methyl-N-[4-(trifluoromethyl)phenyl]-1,2-oxazole-4-carboxamide
Formula: C12H9F3N2O2
Exact mass: 270.0616
SMILES: CC1=C(C=NO1)C(=O)NC1=CC=C(C=C1)C(F)(F)F
InChI: InChI=1S/C12H9F3N2O2/c1-7-10(6-16-19-7)11(18)17-9-4-2-8(3-5-9)12(13,14)15/h2-6H,1H3,(H,17,18)
Instrument: Q Exactive Orbitrap (Thermo Scientific)
Instrument type: LC-ESI-QFT
Ms type: MS2
Ion mode: NEGATIVE
Ionization: ESI
Fragmentation mode: HCD
Collision energy: 90
Resolution: 17500
Column name: Acquity BEH C18 1.7um, 2.1x150mm (Waters)
Retention time: 17.644 min
Base peak: 269.0543
Precursor m/z: 269.0543
Precursor type: [M-H]-
Precursor intensity: 133019269.2207
m/z	relative intensity	assigned
64.0193	101	C4H2N-
65.0033	1	C4HO-
65.0146	7	C3HN2-
65.9985	607	C3NO-
74.0036	18	C5N-
82.0298	999	C4H4NO-
83.0142	1	C4H3O2-
100.0194	165	C7H2N-
107.0254	1	C5H3N2O-
117.0346	7	C8H5O-
120.0255	94	C7H3FN-
138.0361	21	C7H5FNO-
140.0317	14	C7H4F2N-
145.021	5	C8H2FN2-
160.038	101	C7H5F3N-
