Mass spectrum: Aziprotryne; LC-ESI-QFT; MS2; CE: 90; R=17500; [M+H]+
Name: Aziprotryne
Name: 4-azido-6-methylsulfanyl-N-propan-2-yl-1,3,5-triazin-2-amine
Formula: C7H11N7S
Exact mass: 225.0797
SMILES: CSC1=NC(NC(C)C)=NC(N=[N+]=[N-])=N1
InChI: InChI=1S/C7H11N7S/c1-4(2)9-5-10-6(13-14-8)12-7(11-5)15-3/h4H,1-3H3,(H,9,10,11,12)
Instrument: Q Exactive Orbitrap (Thermo Scientific)
Instrument type: LC-ESI-QFT
Ms type: MS2
Ion mode: POSITIVE
Ionization: ESI
Fragmentation mode: HCD
Collision energy: 90
Resolution: 17500
Column name: Acquity BEH C18 1.7um, 2.1x150mm (Waters)
Retention time: 17.808 min
Base peak: 79.0212
Precursor m/z: 226.0869
Precursor type: [M+H]+
Precursor intensity: 11394294.875
m/z	relative intensity	assigned
55.0291	31	C2H3N2+
56.0495	20	C3H6N+
57.0322	1	CH3N3+
57.0448	2	C2H5N2+
58.0651	148	C3H8N+
58.995	6	C2H3S+
59.9903	4	CH2NS+
61.0107	2	C2H5S+
62.0059	60	CH4NS+
67.0166	3	C2HN3+
67.0291	7	C3H3N2+
68.0243	999	C2H2N3+
69.0447	21	C3H5N2+
71.9902	11	C2H2NS+
72.9981	23	C2H3NS+
73.9933	16	CH2N2S+
74.0059	59	C2H4NS+
81.0195	8	C2HN4+
81.0446	2	C4H5N2+
82.04	5	C3H4N3+
83.0352	21	C2H3N4+
83.0604	19	C4H7N2+
84.0557	2	C3H6N3+
84.9855	9	C2HN2S+
85.9934	1	C2H2N2S+
87.0011	2	C2H3N2S+
89.0168	72	C2H5N2S+
91.0542	1	C7H7+
93.0196	58	C3HN4+
94.0401	11	C4H4N3+
96.0559	3	C4H6N3+
99.0012	133	C3H3N2S+
101.0169	2	C3H5N2S+
108.0305	90	C3H2N5+
109.0509	16	C4H5N4+
110.0462	13	C3H4N5+
114.0121	27	C3H4N3S+
116.0276	1	C3H6N3S+
123.0666	6	C5H7N4+
125.0828	1	C5H9N4+
126.0122	1	C4H4N3S+
131.0274	1	C2H5N5S+
136.0619	2	C5H6N5+
138.0126	9	C5H4N3S+
141.0104	61	C3H3N5S+
141.023	4	C4H5N4S+
152.0284	1	C6H6N3S+
155.0222	2	C7HN5+
156.0229	6	C3H4N6S+
156.0339	3	C4H6N5S+
168.0338	3	C5H6N5S+
170.039	2	C4H6N6S+
