Mass spectrum: Candoxatril; LC-ESI-QFT; MS2; CE: 15; R=17500; [M+H]+
Name: Candoxatril
Formula: C29H41NO7
Exact mass: 515.2883
SMILES: COCCOC[C@H](CC1(CCCC1)C(=O)N[C@H]1CC[C@H](CC1)C(O)=O)C(=O)OC1=CC2=C(CCC2)C=C1
InChI: InChI=1S/C29H41NO7/c1-35-15-16-36-19-23(27(33)37-25-12-9-20-5-4-6-22(20)17-25)18-29(13-2-3-14-29)28(34)30-24-10-7-21(8-11-24)26(31)32/h9,12,17,21,23-24H,2-8,10-11,13-16,18-19H2,1H3,(H,30,34)(H,31,32)/t21-,23-,24+/m0/s1
Instrument: Q Exactive Orbitrap (Thermo Scientific)
Instrument type: LC-ESI-QFT
Ms type: MS2
Ion mode: POSITIVE
Ionization: ESI
Fragmentation mode: HCD
Collision energy: 15
Resolution: 17500
Column name: Acquity BEH C18 1.7um, 2.1x150mm (Waters)
Retention time: 18.625 min
Base peak: 79.0211
Precursor m/z: 516.2956
Precursor type: [M+H]+
Precursor intensity: 8241926.625
m/z	relative intensity	assigned
81.0702	1	C6H9+
126.0913	2	C7H12NO+
135.0805	2	C9H11O+
180.1019	8	C10H14NO2+
211.133	21	C12H19O3+
239.1278	50	C13H19O4+
256.1547	5	C13H22NO4+
260.1648	4	C16H22NO2+
269.1539	6	C18H21O2+
278.1752	5	C16H24NO3+
288.1596	27	C17H22NO3+
297.1489	18	C19H21O3+
306.1701	808	C17H24NO4+
336.2161	1	C19H30NO4+
354.2275	3	C19H32NO5+
364.2119	56	C20H30NO5+
373.2014	44	C22H29O5+
382.2226	999	C20H32NO6+
440.2435	56	C26H34NO5+
