Mass spectrum: Oxfendazole; LC-ESI-QFT; MS2; CE: 30; R=17500; [M+H]+
Name: Oxfendazole
Name: methyl N-[6-(benzenesulfinyl)-1H-benzimidazol-2-yl]carbamate
Formula: C15H13N3O3S
Exact mass: 315.0678
SMILES: COC(=O)NC1=NC2=C(N1)C=CC(=C2)S(=O)C1=CC=CC=C1
InChI: InChI=1S/C15H13N3O3S/c1-21-15(19)18-14-16-12-8-7-11(9-13(12)17-14)22(20)10-5-3-2-4-6-10/h2-9H,1H3,(H2,16,17,18,19)
Instrument: Q Exactive Orbitrap (Thermo Scientific)
Instrument type: LC-ESI-QFT
Ms type: MS2
Ion mode: POSITIVE
Ionization: ESI
Fragmentation mode: HCD
Collision energy: 30
Resolution: 17500
Column name: Acquity BEH C18 1.7um, 2.1x150mm (Waters)
Retention time: 14.495 min
Base peak: 79.0211
Precursor m/z: 316.075
Precursor type: [M+H]+
Precursor intensity: 2510801.5
m/z	relative intensity	assigned
125.0057	24	C6H5OS+
133.0633	4	C7H7N3+
159.0427	90	C8H5N3O+
174.0299	5	C8H4N3O2+
175.0377	29	C8H5N3O2+
191.0328	93	C8H5N3O3+
191.069	624	C9H9N3O2+
207.0097	20	C8H5N3O2S+
207.0639	67	C9H9N3O3+
223.0588	542	C15H11S+
236.0822	2	C14H10N3O+
239.0359	139	C9H9N3O3S+
266.0387	6	C14H8N3OS+
267.0462	12	C14H9N3OS+
284.0489	967	C14H10N3O2S+
298.0635	2	C15H12N3O2S+
299.0723	225	C15H13N3O2S+
316.0752	999	C15H14N3O3S+
