Mass spectrum: Azoxystrobin; LC-ESI-QFT; MS2; CE: 30; R=17500; [M+H]+
Name: Azoxystrobin
Formula: C22H17N3O5
Exact mass: 403.1168
SMILES: CO\C=C(\C(=O)OC)C1=CC=CC=C1OC1=CC(OC2=CC=CC=C2C#N)=NC=N1
InChI: InChI=1S/C22H17N3O5/c1-27-13-17(22(26)28-2)16-8-4-6-10-19(16)30-21-11-20(24-14-25-21)29-18-9-5-3-7-15(18)12-23/h3-11,13-14H,1-2H3/b17-13+
Instrument: Q Exactive Orbitrap (Thermo Scientific)
Instrument type: LC-ESI-QFT
Ms type: MS2
Ion mode: POSITIVE
Ionization: ESI
Fragmentation mode: HCD
Collision energy: 30
Resolution: 17500
Column name: Acquity BEH C18 1.7um, 2.1x150mm (Waters)
Retention time: 16.922 min
Base peak: 79.0212
Precursor m/z: 404.1241
Precursor type: [M+H]+
Precursor intensity: 20997589
m/z	relative intensity	assigned
107.049	1	C7H7O+
129.0449	2	C8H5N2+
134.06	16	C8H8NO+
143.0604	8	C9H7N2+
145.0284	7	C9H5O2+
156.0443	1	C10H6NO+
162.055	4	C9H8NO2+
171.0553	4	C10H7N2O+
172.0392	29	C10H6NO2+
174.0549	1	C10H8NO2+
177.0546	4	C10H9O3+
182.0715	1	C11H8N3+
183.0555	1	C11H7N2O+
185.0233	1	C11H5O3+
186.0662	2	C10H8N3O+
190.0498	1	C10H8NO3+
197.0711	2	C12H9N2O+
199.05	1	C11H7N2O2+
201.0659	19	C11H9N2O2+
202.0498	2	C11H8NO3+
210.0424	1	C12H6N2O2+
210.0662	13	C12H8N3O+
211.0502	1	C12H7N2O2+
216.0655	17	C12H10NO3+
259.0869	1	C17H11N2O+
274.086	2	C18H12NO2+
275.0817	1	C17H11N2O2+
286.0739	1	C18H10N2O2+
287.0814	18	C18H11N2O2+
288.0652	2	C18H10NO3+
288.0912	1	C18H12N2O2+
288.1133	4	C18H14N3O+
289.0969	7	C18H13N2O2+
299.0805	1	C19H11N2O2+
301.0834	4	C18H11N3O2+
303.0765	25	C18H11N2O3+
313.0617	3	C19H9N2O3+
315.0765	5	C19H11N2O3+
315.1001	9	C19H13N3O2+
316.1081	96	C19H14N3O2+
317.0921	14	C19H13N2O3+
326.0918	2	C20H12N3O2+
328.0721	2	C19H10N3O3+
329.0795	110	C19H11N3O3+
343.0941	1	C20H13N3O3+
344.103	621	C20H14N3O3+
345.0875	3	C20H13N2O4+
372.0979	999	C21H14N3O4+
