Mass spectrum: Octylphosphonic acid; LC-ESI-QFT; MS2; CE: 75; R=17500; [M-H]-
Name: Octylphosphonic acid
Formula: C8H19O3P
Exact mass: 194.1072
SMILES: CCCCCCCCP(O)(O)=O
InChI: InChI=1S/C8H19O3P/c1-2-3-4-5-6-7-8-12(9,10)11/h2-8H2,1H3,(H2,9,10,11)
Instrument: Q Exactive Orbitrap (Thermo Scientific)
Instrument type: LC-ESI-QFT
Ms type: MS2
Ion mode: NEGATIVE
Ionization: ESI
Fragmentation mode: HCD
Collision energy: 75
Resolution: 17500
Column name: Acquity BEH C18 1.7um, 2.1x150mm (Waters)
Retention time: 17.709 min
Base peak: 317.1618
Precursor m/z: 193.0999
Precursor type: [M-H]-
Precursor intensity: 28048109.36035
m/z	relative intensity	assigned
57.0346	18	C3H5O-
59.0138	23	C2H3O2-
62.9642	14	O2P-
65.0032	16	C4HO-
65.0397	41	C5H5-
67.0189	87	C4H3O-
69.0347	4	C4H5O-
77.0397	5	C6H5-
78.9591	917	O3P-
81.0346	106	C5H5O-
83.0503	502	C5H7O-
91.0189	13	C6H3O-
91.0553	52	C7H7-
93.0345	40	C6H5O-
94.0423	4	C6H6O-
95.0139	4	C5H3O2-
95.0503	11	C6H7O-
102.0476	4	C8H6-
103.0553	7	C8H7-
104.0268	124	C7H4O-
105.0346	220	C7H5O-
105.071	48	C8H9-
106.0425	8	C7H6O-
107.0503	58	C7H7O-
107.0866	631	C8H11-
108.0216	30	C6H4O2-
109.0295	93	C6H5O2-
109.0658	12	C7H9O-
117.0345	5	C8H5O-
119.0502	28	C8H7O-
120.0581	110	C8H8O-
121.0295	354	C7H5O2-
122.0373	164	C7H6O2-
123.0452	11	C7H7O2-
135.0452	558	C8H7O2-
136.053	999	C8H8O2-
137.0245	4	C7H5O3-
149.0244	266	C8H5O3-
150.032	11	C8H6O3-
152.0477	7	C8H8O3-
175.0897	9	C8H16O2P-
193.0995	11	C8H18O3P-
