Mass spectrum: Coumatetralyl; LC-ESI-QFT; MS2; CE: 60; R=17500; [M-H]-
Name: Coumatetralyl
Name: 4-hydroxy-3-(1,2,3,4-tetrahydronaphthalen-1-yl)chromen-2-one
Formula: C19H16O3
Exact mass: 292.1099
SMILES: OC1=C(C2CCCC3=C2C=CC=C3)C(=O)OC2=C1C=CC=C2
InChI: InChI=1S/C19H16O3/c20-18-15-9-3-4-11-16(15)22-19(21)17(18)14-10-5-7-12-6-1-2-8-13(12)14/h1-4,6,8-9,11,14,20H,5,7,10H2
Instrument: Q Exactive Orbitrap (Thermo Scientific)
Instrument type: LC-ESI-QFT
Ms type: MS2
Ion mode: NEGATIVE
Ionization: ESI
Fragmentation mode: HCD
Collision energy: 60
Resolution: 17500
Column name: Acquity BEH C18 1.7um, 2.1x150mm (Waters)
Retention time: 18.177 min
Base peak: 434.9314
Precursor m/z: 291.1027
Precursor type: [M-H]-
Precursor intensity: 77057940.12695
m/z	relative intensity	assigned
59.0138	9	C2H3O2-
65.0397	2	C5H5-
67.019	3	C4H3O-
91.0553	2	C7H7-
93.0346	226	C6H5O-
106.0424	286	C7H6O-
107.0502	1	C7H7O-
108.0216	5	C6H4O2-
115.0552	9	C9H7-
117.0346	30	C8H5O-
119.0502	141	C8H7O-
121.0297	4	C7H5O2-
129.0711	11	C10H9-
130.0423	1	C9H6O-
133.0293	3	C8H5O2-
135.0452	221	C8H7O2-
138.0323	57	C7H6O3-
141.071	999	C11H9-
143.0502	307	C10H7O-
153.0707	1	C12H9-
161.0242	3	C9H5O3-
165.0711	2	C13H9-
167.0866	19	C13H11-
169.0661	3	C12H9O-
171.0816	1	C12H11O-
185.061	4	C12H9O2-
187.0401	109	C11H7O3-
191.0867	6	C15H11-
203.086	1	C16H11-
217.066	4	C16H9O-
217.1025	1	C17H13-
218.0738	2	C16H10O-
218.1098	1	C17H14-
219.0815	109	C16H11O-
229.1024	3	C18H13-
230.0736	1	C17H10O-
231.0814	4	C17H11O-
232.0894	5	C17H12O-
243.0815	20	C18H11O-
245.0971	173	C18H13O-
246.1049	3	C18H14O-
247.1127	93	C18H15O-
263.1081	4	C18H15O2-
291.1028	61	C19H15O3-
