Mass spectrum: Lufenuron; LC-ESI-QFT; MS2; CE: 15; R=17500; [M-H]-
Name: Lufenuron
Formula: C17H8Cl2F8N2O3
Exact mass: 509.9784
SMILES: FC(C(F)(F)F)C(F)(F)OC1=CC(Cl)=C(NC(=O)NC(=O)C2=C(F)C=CC=C2F)C=C1Cl
InChI: InChI=1S/C17H8Cl2F8N2O3/c18-6-5-11(32-17(26,27)14(22)16(23,24)25)7(19)4-10(6)28-15(31)29-13(30)12-8(20)2-1-3-9(12)21/h1-5,14H,(H2,28,29,30,31)
Instrument: Q Exactive Orbitrap (Thermo Scientific)
Instrument type: LC-ESI-QFT
Ms type: MS2
Ion mode: NEGATIVE
Ionization: ESI
Fragmentation mode: HCD
Collision energy: 15
Resolution: 17500
Column name: Acquity BEH C18 1.7um, 2.1x150mm (Waters)
Retention time: 19.448 min
Base peak: 112.9856
Precursor m/z: 508.9711
Precursor type: [M-H]-
Precursor intensity: 7648528.976563
m/z	relative intensity	assigned
146.9873	22	C3F5O-
156.0267	86	C7H4F2NO-
201.9469	218	C7H2Cl2NO2-
285.9455	1	C9H2Cl2F4NO-
302.998	27	C14H5ClFN2O3-
325.958	999	C9H4Cl2F6NO-
350.9531	43	C10H3Cl2F6N2O-
408.9989	4	C16H3F8NO3-
452.9883	93	C17H5ClF7N2O3-
