Mass spectrum: Florasulam; LC-ESI-QFT; MS2; CE: 90; R=17500; [M+H]+
Name: Florasulam
Name: N-(2,6-difluorophenyl)-8-fluoro-5-methoxy-[1,2,4]triazolo[1,5-c]pyrimidine-2-sulfonamide
Formula: C12H8F3N5O3S
Exact mass: 359.0300
SMILES: COC1=NC=C(F)C2=NC(=NN12)S(=O)(=O)NC1=C(F)C=CC=C1F
InChI: InChI=1S/C12H8F3N5O3S/c1-23-12-16-5-8(15)10-17-11(18-20(10)12)24(21,22)19-9-6(13)3-2-4-7(9)14/h2-5,19H,1H3
Instrument: Q Exactive Orbitrap (Thermo Scientific)
Instrument type: LC-ESI-QFT
Ms type: MS2
Ion mode: POSITIVE
Ionization: ESI
Fragmentation mode: HCD
Collision energy: 90
Resolution: 17500
Column name: Acquity BEH C18 1.7um, 2.1x150mm (Waters)
Retention time: 13.974 min
Base peak: 79.0211
Precursor m/z: 360.0373
Precursor type: [M+H]+
Precursor intensity: 5412167.6875
m/z	relative intensity	assigned
52.0182	3	C3H2N+
52.0308	2	C4H4+
53.0022	4	C3HO+
54.0338	1	C3H4N+
57.0135	15	C3H2F+
62.0151	22	C5H2+
63.0229	18	C5H3+
65.0259	3	C4H3N+
72.0244	1	C3H3FN+
72.037	6	C4H5F+
74.0036	3	C2HFNO+
76.0182	1	C5H2N+
77.0197	1	C3H3F2+
78.0337	3	C5H4N+
79.0179	3	C5H3O+
79.0416	5	C5H5N+
80.0257	3	C5H4O+
82.0213	37	C5H3F+
84.0245	1	C4H3FN+
85.0322	1	C4H4FN+
89.026	37	C6H3N+
97.0197	1	C4H2FN2+
98.0363	8	C5H6O2+
98.0399	1	F2H4N4+
99.0241	4	C5H4FO+
100.032	5	C5H5FO+
101.0198	25	C5H3F2+
102.0276	56	C5H4F2+
104.0131	1	C6H2NO+
106.0289	1	C6H4NO+
107.0366	2	C6H5NO+
108.0244	22	C6H3FN+
109.0323	276	C6H4FN+
116.0306	4	C5H4F2N+
123.0353	1	C6H4FN2+
124.0194	7	C6H3FNO+
126.0352	11	C6H5FNO+
127.043	3	C6H6FNO+
128.0307	6	C6H4F2N+
129.0384	999	C6H5F2N+
139.0415	1	C5H4FN4+
141.0257	1	CH2F3N5+
141.0583	1	C2H7F2N4O+
144.0256	12	C6H4F2NO+
145.0334	2	C6H5F2NO+
146.0412	1	C6H6F2NO+
148.0305	1	C7H3FN3+
150.0458	1	C7H5FN3+
154.0339	1	C7H4F2N2+
161.038	1	C5H9N2O2S+
168.0367	1	C7H4F2N3+
