Mass spectrum: CP-728663; LC-ESI-QFT; MS2; CE: 75; R=17500; [M+H]+
Name: CP-728663
Name: (1aR,7bS)-5-[[[(2S,3S,6S)-6-ethyl-2-phenylpiperidin-3-yl]amino]methyl]-6-methoxy-3-methyl-1a,7b-dihydro-1H-cyclopropa[c]quinolin-2-one
Formula: C26H33N3O2
Exact mass: 419.2573
SMILES: CC[C@H]1CC[C@H](NCC2=CC3=C(C=C2OC)[C@H]2C[C@H]2C(=O)N3C)[C@@H](N1)C1=CC=CC=C1
InChI: InChI=1S/C26H33N3O2/c1-4-18-10-11-22(25(28-18)16-8-6-5-7-9-16)27-15-17-12-23-20(14-24(17)31-3)19-13-21(19)26(30)29(23)2/h5-9,12,14,18-19,21-22,25,27-28H,4,10-11,13,15H2,1-3H3/t18-,19+,21+,22-,25-/m0/s1
Instrument: Q Exactive Orbitrap (Thermo Scientific)
Instrument type: LC-ESI-QFT
Ms type: MS2
Ion mode: POSITIVE
Ionization: ESI
Fragmentation mode: HCD
Collision energy: 75
Resolution: 17500
Column name: Acquity BEH C18 1.7um, 2.1x150mm (Waters)
Retention time: 11.327 min
Base peak: 79.0211
Precursor m/z: 420.2646
Precursor type: [M+H]+
Precursor intensity: 22256413
m/z	relative intensity	assigned
51.023	1	C4H3+
53.0022	2	C3HO+
53.0386	5	C4H5+
54.0338	1	C3H4N+
55.0542	56	C4H7+
56.0495	11	C3H6N+
58.0287	2	C2H4NO+
58.0652	13	C3H8N+
65.0385	10	C5H5+
67.0416	1	C4H5N+
67.0542	4	C5H7+
68.0494	8	C4H6N+
69.0334	1	C4H5O+
69.0698	20	C5H9+
70.0651	1	C4H8N+
72.0806	1	C4H10N+
77.0385	2	C6H5+
79.0542	7	C6H7+
80.0494	6	C5H6N+
81.0573	1	C5H7N+
82.0651	48	C5H8N+
84.0808	6	C5H10N+
89.0382	1	C7H5+
91.0542	308	C7H7+
92.0494	3	C6H6N+
92.062	10	C7H8+
93.0572	5	C6H7N+
93.0698	4	C7H9+
94.0651	1	C6H8N+
95.0492	6	C6H7O+
96.0444	4	C5H6NO+
96.0808	12	C6H10N+
97.0886	20	C6H11N+
102.0465	1	C8H6+
103.0542	30	C8H7+
104.0494	9	C7H6N+
105.0447	2	C6H5N2+
105.0699	21	C8H9+
106.0652	9	C7H8N+
107.0491	3	C7H7O+
110.06	1	C6H8NO+
110.0964	1	C7H12N+
115.0542	139	C9H7+
116.0495	4	C8H6N+
116.0621	28	C9H8+
117.0573	48	C8H7N+
117.0699	130	C9H9+
118.0651	26	C8H8N+
119.073	34	C8H9N+
119.0855	10	C9H11+
120.0807	33	C8H10N+
127.0542	5	C10H7+
128.0502	5	C9H6N+
128.062	68	C10H8+
129.0699	90	C10H9+
130.0652	80	C9H8N+
130.0774	6	C10H10+
131.0489	6	C9H7O+
131.073	99	C9H9N+
131.0853	25	C10H11+
132.0445	5	C8H6NO+
132.0808	64	C9H10N+
133.0645	1	C9H9O+
133.1016	1	C10H13+
134.0964	37	C9H12N+
140.0495	10	C10H6N+
141.0699	54	C11H9+
142.0652	46	C10H8N+
142.078	3	C11H10+
143.073	371	C10H9N+
144.0808	439	C10H10N+
145.0648	50	C10H9O+
145.0886	248	C10H11N+
146.06	10	C9H8NO+
146.0964	85	C10H12N+
147.0677	2	C9H9NO+
147.0804	2	C10H11O+
148.0757	2	C9H10NO+
153.0574	33	C11H7N+
154.0649	5	C11H8N+
155.0492	2	C11H7O+
155.0604	17	C10H7N2+
155.0725	4	C11H9N+
156.0809	31	C11H10N+
157.065	11	C11H9O+
157.0887	197	C11H11N+
158.0964	999	C11H12N+
159.068	4	C10H9NO+
159.08	4	C11H11O+
159.104	5	C11H13N+
160.0757	27	C10H10NO+
160.112	130	C11H14N+
162.0914	19	C10H12NO+
166.0649	8	C12H8N+
167.073	104	C12H9N+
168.0808	51	C12H10N+
169.0647	6	C12H9O+
169.0763	2	C11H9N2+
170.06	39	C11H8NO+
170.0964	2	C12H12N+
171.0678	52	C11H9NO+
172.0756	22	C11H10NO+
172.0868	10	C10H10N3+
173.0835	122	C11H11NO+
174.0914	69	C11H12NO+
184.0757	6	C12H10NO+
185.0835	11	C12H11NO+
186.0914	456	C12H12NO+
187.0991	6	C12H13NO+
188.107	29	C12H14NO+
188.1433	41	C13H18N+
200.07	2	C12H10NO2+
201.0786	6	C12H11NO2+
204.1021	4	C12H14NO2+
214.0861	8	C13H12NO2+
216.102	12	C13H14NO2+
