Mass spectrum: Fenarimol; LC-ESI-QFT; MS2; CE: 30; R=17500; [M-H]-
Name: Fenarimol
Name: (2-chlorophenyl)-(4-chlorophenyl)-pyrimidin-5-ylmethanol
Formula: C17H12Cl2N2O
Exact mass: 330.0327
SMILES: OC(C1=CC=C(Cl)C=C1)(C1=CN=CN=C1)C1=CC=CC=C1Cl
InChI: InChI=1S/C17H12Cl2N2O/c18-14-7-5-12(6-8-14)17(22,13-9-20-11-21-10-13)15-3-1-2-4-16(15)19/h1-11,22H
Instrument: Q Exactive Orbitrap (Thermo Scientific)
Instrument type: LC-ESI-QFT
Ms type: MS2
Ion mode: NEGATIVE
Ionization: ESI
Fragmentation mode: HCD
Collision energy: 30
Resolution: 17500
Column name: Acquity BEH C18 1.7um, 2.1x150mm (Waters)
Retention time: 18.039 min
Base peak: 112.9855
Precursor m/z: 329.0254
Precursor type: [M-H]-
Precursor intensity: 1128501.63623
m/z	relative intensity	assigned
79.0301	274	C4H3N2-
111.0006	99	C6H4Cl-
216.0095	716	C11H5ClN2O-
217.0173	999	C11H6ClN2O-
293.0495	79	C17H10ClN2O-
329.0257	465	C17H11Cl2N2O-
