Mass spectrum: Reserpine; LC-ESI-QFT; MS2; CE: 75; R=17500; [M+H]+
Name: Reserpine
Name: methyl (1R,15S,17R,18R,19S,20S)-6,18-dimethoxy-17-(3,4,5-trimethoxybenzoyl)oxy-1,3,11,12,14,15,16,17,18,19,20,21-dodecahydroyohimban-19-carboxylate
Formula: C33H40N2O9
Exact mass: 608.2734
SMILES: CO[C@H]1[C@@H](C[C@@H]2CN3CCC4=C(NC5=C4C=CC(OC)=C5)[C@H]3C[C@@H]2[C@@H]1C(=O)OC)OC(=O)C1=CC(OC)=C(OC)C(OC)=C1
InChI: InChI=1S/C33H40N2O9/c1-38-19-7-8-20-21-9-10-35-16-18-13-27(44-32(36)17-11-25(39-2)30(41-4)26(12-17)40-3)31(42-5)28(33(37)43-6)22(18)15-24(35)29(21)34-23(20)14-19/h7-8,11-12,14,18,22,24,27-28,31,34H,9-10,13,15-16H2,1-6H3/t18-,22+,24-,27-,28+,31+/m1/s1
Instrument: Q Exactive Orbitrap (Thermo Scientific)
Instrument type: LC-ESI-QFT
Ms type: MS2
Ion mode: POSITIVE
Ionization: ESI
Fragmentation mode: HCD
Collision energy: 75
Resolution: 17500
Column name: Acquity BEH C18 1.7um, 2.1x150mm (Waters)
Retention time: 15.330 min
Base peak: 79.0211
Precursor m/z: 609.2807
Precursor type: [M+H]+
Precursor intensity: 2285460.5625
m/z	relative intensity	assigned
51.023	9	C4H3+
53.0386	178	C4H5+
55.0178	16	C3H3O+
55.0543	19	C4H7+
56.0494	11	C3H6N+
65.0386	73	C5H5+
66.0464	35	C5H6+
67.0542	53	C5H7+
68.0256	8	C4H4O+
68.0494	11	C4H6N+
68.9968	8	C3HO2+
69.0334	13	C4H5O+
70.065	9	C4H8N+
71.0491	32	C4H7O+
75.0441	17	C3H7O2+
77.0385	18	C6H5+
78.0465	36	C6H6+
79.0542	292	C6H7+
80.0494	40	C5H6N+
81.0335	336	C5H5O+
81.0699	105	C6H9+
82.0413	8	C5H6O+
82.0652	10	C5H8N+
83.0492	11	C5H7O+
85.0285	9	C4H5O2+
90.0465	8	C7H6+
91.0543	213	C7H7+
92.0257	24	C6H4O+
92.0495	14	C6H6N+
93.0334	38	C6H5O+
93.0573	30	C6H7N+
93.0699	10	C7H9+
94.0414	64	C6H6O+
94.0652	55	C6H8N+
95.0492	239	C6H7O+
96.057	181	C6H8O+
97.0649	28	C6H9O+
99.0441	9	C5H7O2+
101.0599	7	C5H9O2+
103.0543	49	C8H7+
104.0496	10	C7H6N+
104.0622	13	C8H8+
105.0336	28	C7H5O+
105.0448	74	C6H5N2+
105.0699	38	C8H9+
106.0413	14	C7H6O+
106.0653	36	C7H8N+
107.0128	28	C6H3O2+
107.0491	33	C7H7O+
107.0729	20	C7H9N+
108.057	86	C7H8O+
108.0806	12	C7H10N+
109.0284	61	C6H5O2+
109.0649	160	C7H9O+
111.0442	48	C6H7O2+
111.0805	35	C7H11O+
113.0597	33	C6H9O2+
115.0542	167	C9H7+
116.0621	40	C9H8+
117.0574	98	C8H7N+
117.0699	54	C9H9+
118.0413	7	C8H6O+
118.0651	61	C8H8N+
119.0493	19	C8H7O+
119.0732	13	C8H9N+
119.0856	18	C9H11+
120.0809	24	C8H10N+
121.0285	77	C7H5O2+
121.065	47	C8H9O+
122.0362	164	C7H6O2+
122.0728	12	C8H10O+
123.0443	21	C7H7O2+
123.0804	7	C8H11O+
124.0519	238	C7H8O2+
125.0601	6	C7H9O2+
128.0622	23	C10H8+
129.0699	39	C10H9+
130.0652	324	C9H8N+
131.073	899	C9H9N+
132.0444	26	C8H6NO+
132.057	31	C9H8O+
132.0808	84	C9H10N+
133.0523	22	C8H7NO+
133.0648	21	C9H9O+
134.0599	11	C8H8NO+
135.0805	20	C9H11O+
136.0754	16	C8H10NO+
137.0234	142	C7H5O3+
139.0754	227	C8H11O2+
141.0184	12	C6H5O4+
142.0652	63	C10H8N+
143.073	594	C10H9N+
144.057	28	C10H8O+
144.0808	141	C10H10N+
145.0522	46	C9H7NO+
145.065	27	C10H9O+
145.0886	46	C10H11N+
146.06	94	C9H8NO+
146.0964	17	C10H12N+
147.0681	49	C9H9NO+
147.0805	77	C10H11O+
148.0757	51	C9H10NO+
149.0598	17	C9H9O2+
150.0914	6	C9H12NO+
151.0391	152	C8H7O3+
152.0469	490	C8H8O3+
154.0653	29	C11H8N+
155.0604	17	C10H7N2+
155.0729	27	C11H9N+
156.0422	10	C7H8O4+
156.0806	32	C11H10N+
157.0887	37	C11H11N+
158.0601	98	C10H8NO+
158.0721	8	C11H10O+
159.068	999	C10H9NO+
160.0758	171	C10H10NO+
161.0598	10	C10H9O2+
161.0835	50	C10H11NO+
162.0914	23	C10H12NO+
164.107	7	C10H14NO+
167.072	28	C9H11O3+
168.0811	23	C12H10N+
169.0886	17	C12H11N+
170.0602	62	C11H8NO+
171.0681	14	C11H9NO+
172.0757	72	C11H10NO+
173.0837	147	C11H11NO+
174.0915	872	C11H12NO+
180.0807	13	C13H10N+
181.0884	15	C13H11N+
182.06	21	C12H8NO+
182.0962	15	C13H12N+
183.0681	31	C12H9NO+
184.0367	20	C8H8O5+
184.0634	9	C11H8N2O+
184.076	73	C12H10NO+
184.099	13	C12H12N2+
185.071	11	C11H9N2O+
185.0821	60	C9H13O4+
186.0916	73	C12H12NO+
187.099	14	C12H13NO+
188.1071	26	C12H14NO+
190.0864	10	C11H12NO2+
192.081	14	C14H10N+
192.1022	11	C11H14NO2+
193.0887	22	C14H11N+
194.0962	17	C14H12N+
195.0654	278	C10H11O4+
196.0761	25	C13H10NO+
197.0835	29	C13H11NO+
198.0917	50	C13H12NO+
199.0868	46	C12H11N2O+
199.0982	12	C13H13NO+
200.1072	19	C13H14NO+
201.1027	10	C12H13N2O+
204.0809	19	C15H10N+
205.0888	26	C15H11N+
206.0963	16	C15H12N+
207.0923	6	C14H11N2+
208.0759	25	C14H10NO+
209.0835	12	C14H11NO+
210.0913	50	C14H12NO+
211.0876	8	C13H11N2O+
211.0995	17	C14H13NO+
212.0946	14	C13H12N2O+
212.1063	10	C14H14NO+
213.1023	15	C13H13N2O+
217.0888	22	C16H11N+
218.0964	22	C16H12N+
219.1047	11	C16H13N+
220.0757	17	C15H10NO+
221.0839	15	C15H11NO+
222.0908	41	C15H12NO+
222.115	8	C15H14N2+
223.087	14	C14H11N2O+
223.0996	17	C15H13NO+
224.107	29	C15H14NO+
225.1021	9	C14H13N2O+
227.1182	14	C14H15N2O+
230.0965	22	C17H12N+
231.1045	16	C17H13N+
232.0757	18	C16H10NO+
232.1124	11	C17H14N+
233.0832	22	C16H11NO+
233.1197	10	C17H15N+
234.0916	25	C16H12NO+
235.0864	9	C15H11N2O+
235.0997	16	C16H13NO+
236.0945	23	C15H12N2O+
236.1073	29	C16H14NO+
237.1024	24	C15H13N2O+
237.1147	8	C16H15NO+
238.1105	11	C15H14N2O+
238.1226	9	C16H16NO+
239.1182	14	C15H15N2O+
244.1113	11	C18H14N+
245.12	9	C18H15N+
246.0911	41	C17H12NO+
247.0991	34	C17H13NO+
248.1074	30	C17H14NO+
249.1023	33	C16H13N2O+
249.1154	12	C17H15NO+
250.11	21	C16H14N2O+
250.1231	9	C17H16NO+
251.118	67	C16H15N2O+
253.1347	13	C16H17N2O+
258.0913	13	C18H12NO+
259.1002	12	C18H13NO+
260.1075	23	C18H14NO+
261.1149	19	C18H15NO+
262.123	22	C18H16NO+
263.118	8	C17H15N2O+
265.1337	28	C17H17N2O+
273.1149	11	C19H15NO+
274.1231	15	C19H16NO+
276.1011	7	C18H14NO2+
276.1395	9	C19H18NO+
290.119	8	C19H16NO2+
