Mass spectrum: Difenoconazole; LC-ESI-QFT; MS2; CE: 30; R=17500; [M+H]+
Name: Difenoconazole
Formula: C19H17Cl2N3O3
Exact mass: 405.0647
SMILES: CC1COC(CN2C=NC=N2)(O1)C1=C(Cl)C=C(OC2=CC=C(Cl)C=C2)C=C1
InChI: InChI=1S/C19H17Cl2N3O3/c1-13-9-25-19(27-13,10-24-12-22-11-23-24)17-7-6-16(8-18(17)21)26-15-4-2-14(20)3-5-15/h2-8,11-13H,9-10H2,1H3
Instrument: Q Exactive Orbitrap (Thermo Scientific)
Instrument type: LC-ESI-QFT
Ms type: MS2
Ion mode: POSITIVE
Ionization: ESI
Fragmentation mode: HCD
Collision energy: 30
Resolution: 17500
Column name: Acquity BEH C18 1.7um, 2.1x150mm (Waters)
Retention time: 18.993 min
Base peak: 79.0211
Precursor m/z: 406.072
Precursor type: [M+H]+
Precursor intensity: 7568363.375
m/z	relative intensity	assigned
70.0399	5	C2H4N3+
72.0806	1	C4H10N+
111.0002	3	C6H4Cl+
126.9943	2	C6H4ClO+
139.0307	3	C8H8Cl+
163.0308	2	C10H8Cl+
164.0386	11	C10H9Cl+
210.044	1	C11H11ClO2+
251.0023	999	C13H9Cl2O+
256.0646	1	C16H13ClO+
261.9944	1	C14H8Cl2O+
263.0026	2	C14H9Cl2O+
264.9816	5	C13H7Cl2O2+
279.0333	1	C15H13Cl2O+
291.0337	47	C16H13Cl2O+
323.0235	19	C16H13Cl2O3+
337.0392	100	C17H15Cl2O3+
406.0719	50	C19H18Cl2N3O3+
