Mass spectrum: C.I. Basic Red 9; LC-ESI-QFT; MS2; CE: 30; R=17500; [M+H]+
Name: C.I. Basic Red 9
Name: 4-[(4-aminophenyl)-(4-iminocyclohexa-2,5-dien-1-ylidene)methyl]aniline
Formula: C19H17N3
Exact mass: 287.1422
SMILES: NC1=CC=C(C=C1)C(C1=CC=C(N)C=C1)=C1C=CC(=N)C=C1
InChI: InChI=1S/C19H17N3/c20-16-7-1-13(2-8-16)19(14-3-9-17(21)10-4-14)15-5-11-18(22)12-6-15/h1-12,20H,21-22H2
Instrument: Q Exactive Orbitrap (Thermo Scientific)
Instrument type: LC-ESI-QFT
Ms type: MS2
Ion mode: POSITIVE
Ionization: ESI
Fragmentation mode: HCD
Collision energy: 30
Resolution: 17500
Column name: Acquity BEH C18 1.7um, 2.1x150mm (Waters)
Retention time: 13.053 min
Base peak: 79.0211
Precursor m/z: 288.1495
Precursor type: [M+H]+
Precursor intensity: 22450157.15625
m/z	relative intensity	assigned
195.0916	5	C13H11N2+
272.1295	1	C19H16N2+
287.1429	1	C19H17N3+
288.1493	999	C19H18N3+
