Mass spectrum: Todralazine; LC-ESI-QFT; MS2; CE: 15; R=17500; [M+H]+
Name: Todralazine
Name: ethyl N-(phthalazin-1-ylamino)carbamate
Formula: C11H12N4O2
Exact mass: 232.0960
SMILES: CCOC(=O)NNC1=NN=CC2=CC=CC=C12
InChI: InChI=1S/C11H12N4O2/c1-2-17-11(16)15-14-10-9-6-4-3-5-8(9)7-12-13-10/h3-7H,2H2,1H3,(H,13,14)(H,15,16)
Instrument: Q Exactive Orbitrap (Thermo Scientific)
Instrument type: LC-ESI-QFT
Ms type: MS2
Ion mode: POSITIVE
Ionization: ESI
Fragmentation mode: HCD
Collision energy: 15
Resolution: 17500
Column name: Acquity BEH C18 1.7um, 2.1x150mm (Waters)
Retention time: 9.110 min
Base peak: 79.0212
Precursor m/z: 233.1033
Precursor type: [M+H]+
Precursor intensity: 17139261.75
m/z	relative intensity	assigned
89.0384	3	C7H5+
116.0496	1	C8H6N+
131.0604	1	C8H7N2+
132.0682	3	C8H8N2+
145.0633	1	C8H7N3+
159.0666	8	C8H7N4+
160.0741	3	C8H8N4+
160.0997	2	C10H12N2+
161.0823	110	C8H9N4+
187.0616	90	C9H7N4O+
189.1135	7	C10H13N4+
205.0721	162	C9H9N4O2+
233.1034	999	C11H13N4O2+
