Mass spectrum: N-(4-Methoxyphenyl)-3-oxobutanamide; LC-ESI-QFT; MS2; CE: 75; R=17500; [M+H]+
Name: N-(4-Methoxyphenyl)-3-oxobutanamide
Name: 4'-Methoxyacetoacetanilide
Formula: C11H13NO3
Exact mass: 207.0895
SMILES: COC1=CC=C(NC(=O)CC(C)=O)C=C1
InChI: InChI=1S/C11H13NO3/c1-8(13)7-11(14)12-9-3-5-10(15-2)6-4-9/h3-6H,7H2,1-2H3,(H,12,14)
Instrument: Q Exactive Orbitrap (Thermo Scientific)
Instrument type: LC-ESI-QFT
Ms type: MS2
Ion mode: POSITIVE
Ionization: ESI
Fragmentation mode: HCD
Collision energy: 75
Resolution: 17500
Column name: Acquity BEH C18 1.7um, 2.1x150mm (Waters)
Retention time: 12.857 min
Base peak: 79.0211
Precursor m/z: 208.0968
Precursor type: [M+H]+
Precursor intensity: 2467069.75
m/z	relative intensity	assigned
53.0386	19	C4H5+
59.0492	165	C3H7O+
65.0386	45	C5H5+
67.0542	7	C5H7+
79.0542	13	C6H7+
80.0494	12	C5H6N+
81.0574	85	C5H7N+
85.0285	233	C4H5O2+
92.0257	24	C6H4O+
92.0495	374	C6H6N+
93.0574	663	C6H7N+
94.0651	22	C6H8N+
95.0492	173	C6H7O+
107.0367	15	C6H5NO+
108.0445	26	C6H6NO+
109.0523	277	C6H7NO+
110.0601	32	C6H8NO+
121.065	77	C8H9O+
122.0601	746	C7H8NO+
123.068	39	C7H9NO+
124.0758	999	C7H10NO+
125.0597	30	C7H9O2+
148.0758	37	C9H10NO+
150.055	17	C8H8NO2+
