Mass spectrum: Glybenclamide; LC-ESI-QFT; MS2; CE: 15; R=17500; [M+H]+
Name: Glybenclamide
Name: Glyburide
Name: 5-chloro-N-[2-[4-(cyclohexylcarbamoylsulfamoyl)phenyl]ethyl]-2-methoxybenzamide
Formula: C23H28ClN3O5S
Exact mass: 493.1438
SMILES: COC1=C(C=C(Cl)C=C1)C(=O)NCCC1=CC=C(C=C1)S(=O)(=O)NC(=O)NC1CCCCC1
InChI: InChI=1S/C23H28ClN3O5S/c1-32-21-12-9-17(24)15-20(21)22(28)25-14-13-16-7-10-19(11-8-16)33(30,31)27-23(29)26-18-5-3-2-4-6-18/h7-12,15,18H,2-6,13-14H2,1H3,(H,25,28)(H2,26,27,29)
Instrument: Q Exactive Orbitrap (Thermo Scientific)
Instrument type: LC-ESI-QFT
Ms type: MS2
Ion mode: POSITIVE
Ionization: ESI
Fragmentation mode: HCD
Collision energy: 15
Resolution: 17500
Column name: Acquity BEH C18 1.7um, 2.1x150mm (Waters)
Retention time: 17.866 min
Base peak: 79.0212
Precursor m/z: 494.1511
Precursor type: [M+H]+
Precursor intensity: 7739135.5
m/z	relative intensity	assigned
100.1121	38	C6H14N+
169.005	36	C8H6ClO2+
304.0736	4	C16H15ClNO3+
352.0403	2	C16H15ClNO4S+
369.0674	999	C16H18ClN2O4S+
370.0509	7	C16H17ClNO5S+
395.0468	68	C17H16ClN2O5S+
