Mass spectrum: Diniconazole; LC-ESI-QFT; MS2; CE: 15; R=17500; [M+H]+
Name: Diniconazole
Name: (E)-1-(2,4-dichlorophenyl)-4,4-dimethyl-2-(1,2,4-triazol-1-yl)pent-1-en-3-ol
Formula: C15H17Cl2N3O
Exact mass: 325.0749
SMILES: CC(C)(C)C(O)C(=C/C1=C(Cl)C=C(Cl)C=C1)\N1C=NC=N1
InChI: InChI=1S/C15H17Cl2N3O/c1-15(2,3)14(21)13(20-9-18-8-19-20)6-10-4-5-11(16)7-12(10)17/h4-9,14,21H,1-3H3/b13-6+
Instrument: Q Exactive Orbitrap (Thermo Scientific)
Instrument type: LC-ESI-QFT
Ms type: MS2
Ion mode: POSITIVE
Ionization: ESI
Fragmentation mode: HCD
Collision energy: 15
Resolution: 17500
Column name: Acquity BEH C18 1.7um, 2.1x150mm (Waters)
Retention time: 19.160 min
Base peak: 79.0211
Precursor m/z: 326.0821
Precursor type: [M+H]+
Precursor intensity: 26084344.75
m/z	relative intensity	assigned
70.0399	8	C2H4N3+
326.0822	999	C15H18Cl2N3O+
