Mass spectrum: Bispyribac; LC-ESI-QFT; MS2; CE: 75; R=17500; [M+H]+
Name: Bispyribac
Formula: C19H18N4O8
Exact mass: 430.1125
SMILES: COC1=CC(OC)=NC(OC2=CC=CC(OC3=NC(OC)=CC(OC)=N3)=C2C(O)=O)=N1
InChI: InChI=1S/C19H18N4O8/c1-26-12-8-13(27-2)21-18(20-12)30-10-6-5-7-11(16(10)17(24)25)31-19-22-14(28-3)9-15(23-19)29-4/h5-9H,1-4H3,(H,24,25)
Instrument: Q Exactive Orbitrap (Thermo Scientific)
Instrument type: LC-ESI-QFT
Ms type: MS2
Ion mode: POSITIVE
Ionization: ESI
Fragmentation mode: HCD
Collision energy: 75
Resolution: 17500
Column name: Acquity BEH C18 1.7um, 2.1x150mm (Waters)
Retention time: 17.331 min
Base peak: 79.0211
Precursor m/z: 431.1197
Precursor type: [M+H]+
Precursor intensity: 10597096.25
m/z	relative intensity	assigned
53.0022	6	C3HO+
53.0386	5	C4H5+
53.9975	1	C2NO+
54.0338	8	C3H4N+
55.0179	9	C3H3O+
55.0292	2	C2H3N2+
55.0417	2	C3H5N+
56.0131	8	C2H2NO+
57.0447	6	C2H5N2+
58.0287	8	C2H4NO+
62.0151	4	C5H2+
63.0229	55	C5H3+
65.0385	21	C5H5+
66.0336	1	C4H4N+
66.0463	1	C5H6+
67.0052	9	C3HNO+
67.0418	1	C4H5N+
68.013	28	C3H2NO+
68.0492	2	C4H6N+
68.997	92	C3HO2+
69.9923	68	C2NO2+
71.0603	164	C3H7N2+
72.0443	44	C3H6NO+
75.0229	15	C6H3+
77.0385	3	C6H5+
78.0464	2	C6H6+
79.0177	1	C5H3O+
79.029	8	C4H3N2+
79.0543	6	C6H7+
80.013	1	C4H2NO+
80.0367	2	C4H4N2+
80.0493	2	C5H6N+
81.0334	9	C5H5O+
81.0447	17	C4H5N2+
82.0287	53	C4H4NO+
83.0127	19	C4H3O2+
83.0239	235	C3H3N2O+
84.0444	3	C4H6NO+
89.0385	17	C7H5+
90.0338	16	C6H4N+
90.0464	1	C7H6+
91.0178	552	C6H3O+
92.0255	7	C6H4O+
92.0495	4	C6H6N+
93.0083	42	C4HN2O+
93.0334	4	C6H5O+
93.9923	1	C4NO2+
95.0492	26	C6H7O+
95.0602	2	C5H7N2+
96.0079	1	C4H2NO2+
96.0444	2	C5H6NO+
100.0392	30	C4H6NO2+
102.0338	2	C7H4N+
102.0463	3	C8H6+
103.0417	4	C7H5N+
103.0542	7	C8H7+
104.0493	14	C7H6N+
105.0335	3	C7H5O+
105.0448	6	C6H5N2+
105.0572	3	C7H7N+
106.0287	4	C6H4NO+
106.0651	3	C7H8N+
107.0127	15	C6H3O2+
107.0239	65	C5H3N2O+
108.0205	3	C6H4O2+
108.0442	15	C6H6NO+
109.0283	1	C6H5O2+
109.0396	26	C5H5N2O+
110.0237	4	C5H4NO2+
110.0599	1	C6H8NO+
111.044	5	C6H7O2+
112.0392	5	C5H6NO2+
114.0338	29	C8H4N+
114.0548	6	C5H8NO2+
115.0419	6	C8H5N+
115.0542	4	C9H7+
116.0342	5	C4H6NO3+
116.0495	33	C8H6N+
117.0209	2	C7H3NO+
117.0572	17	C8H7N+
118.0287	3	C7H4NO+
118.0416	2	C8H6O+
118.0526	2	C7H6N2+
118.0652	5	C8H8N+
119.0127	999	C7H3O2+
120.0208	1	C7H4O2+
120.0446	8	C7H6NO+
121.0285	4	C7H5O2+
121.0395	1	C6H5N2O+
122.0362	18	C7H6O2+
124.0395	2	C6H6NO2+
125.0345	54	C5H5N2O2+
126.0185	35	C5H4NO3+
127.0416	3	C9H5N+
127.0502	6	C5H7N2O2+
128.0368	4	C8H4N2+
128.0495	25	C9H6N+
129.0448	13	C8H5N2+
129.0572	12	C9H7N+
130.0286	8	C8H4NO+
130.0398	3	C7H4N3+
130.0526	5	C8H6N2+
130.065	12	C9H8N+
131.0362	1	C8H5NO+
131.0604	7	C8H7N2+
132.0443	27	C8H6NO+
133.0158	4	C7H3NO2+
133.0522	8	C8H7NO+
134.0599	14	C8H8NO+
135.0314	3	C7H5NO2+
135.0441	2	C8H7O2+
136.0395	1	C7H6NO2+
137.0233	31	C7H5O3+
139.0502	227	C6H7N2O2+
140.0338	10	C6H6NO3+
140.0494	3	C10H6N+
141.0446	17	C9H5N2+
142.0287	4	C9H4NO+
142.0373	3	C5H6N2O3+
142.0526	15	C9H6N2+
142.0651	2	C10H8N+
143.0365	10	C9H5NO+
143.0603	15	C9H7N2+
144.0319	3	C8H4N2O+
144.0443	29	C9H6NO+
145.0396	6	C8H5N2O+
145.052	12	C9H7NO+
145.0759	1	C9H9N2+
146.0235	5	C8H4NO2+
146.0476	4	C8H6N2O+
146.0599	18	C9H8NO+
147.0551	8	C8H7N2O+
148.0392	5	C8H6NO2+
148.063	3	C8H8N2O+
149.0469	2	C8H7NO2+
150.0308	2	C8H6O3+
150.0545	1	C8H8NO2+
151.0393	2	C8H7O3+
153.0446	34	C10H5N2+
154.0267	5	C7H6O4+
154.0397	8	C9H4N3+
154.0525	5	C10H6N2+
155.0239	6	C9H3N2O+
155.0602	18	C10H7N2+
156.0321	7	C9H4N2O+
156.0444	10	C10H6NO+
156.0681	4	C10H8N2+
157.0398	7	C9H5N2O+
157.0525	6	C10H7NO+
157.0607	77	C6H9N2O3+
158.0237	2	C9H4NO2+
158.0476	12	C9H6N2O+
158.0598	8	C10H8NO+
159.0315	3	C9H5NO2+
159.0553	21	C9H7N2O+
160.027	4	C8H4N2O2+
160.0393	6	C9H6NO2+
160.0628	1	C9H8N2O+
160.0753	1	C10H10NO+
161.0469	6	C9H7NO2+
161.0709	4	C9H9N2O+
162.0185	9	C8H4NO3+
162.0548	11	C9H8NO2+
165.0444	5	C11H5N2+
165.0542	1	C9H9O3+
166.0519	2	C11H6N2+
167.0476	3	C10H5N3+
167.0604	4	C11H7N2+
168.0328	2	C10H4N2O+
168.0419	6	C8H8O4+
168.0553	3	C10H6N3+
168.068	3	C11H8N2+
169.0394	9	C10H5N2O+
169.0628	1	C10H7N3+
169.0758	3	C11H9N2+
170.0237	6	C10H4NO2+
170.0346	1	C9H4N3O+
170.0474	13	C10H6N2O+
171.0552	37	C10H7N2O+
171.0763	69	C7H11N2O3+
172.0393	8	C10H6NO2+
172.0495	1	C6H8N2O4+
172.0629	2	C10H8N2O+
173.0345	6	C9H5N2O2+
173.0472	2	C10H7NO2+
173.0708	5	C10H9N2O+
174.0423	7	C9H6N2O2+
174.0549	11	C10H8NO2+
175.0502	6	C9H7N2O2+
176.0341	7	C9H6NO3+
176.0707	4	C10H10NO2+
177.0417	2	C9H7NO3+
178.0398	2	C11H4N3+
179.0213	5	C8H5NO4+
179.0474	3	C11H5N3+
179.0602	2	C12H7N2+
180.0555	11	C11H6N3+
181.0393	4	C11H5N2O+
181.0506	1	C10H5N4+
181.0634	3	C11H7N3+
182.0348	1	C10H4N3O+
182.0482	3	C11H6N2O+
182.0713	1	C11H8N3+
183.0553	6	C11H7N2O+
184.0268	8	C10H4N2O2+
184.0503	4	C10H6N3O+
184.0633	5	C11H8N2O+
185.0346	4	C10H5N2O2+
185.0585	3	C10H7N3O+
185.0707	12	C11H9N2O+
185.0917	1	C8H13N2O3+
186.0186	2	C10H4NO3+
186.0422	10	C10H6N2O2+
186.0548	7	C11H8NO2+
186.0661	2	C10H8N3O+
187.0501	19	C10H7N2O2+
188.0578	5	C10H8N2O2+
188.0704	2	C11H10NO2+
189.0421	5	C10H7NO3+
189.0663	3	C10H9N2O2+
190.0403	2	C12H4N3+
190.0498	5	C10H8NO3+
192.0557	4	C12H6N3+
193.0509	2	C11H5N4+
193.0635	2	C12H7N3+
194.0347	2	C11H4N3O+
194.0458	2	C9H8NO4+
194.0711	3	C12H8N3+
195.0428	5	C11H5N3O+
195.055	6	C12H7N2O+
196.0505	11	C11H6N3O+
197.0348	6	C11H5N2O2+
197.0706	2	C12H9N2O+
198.0422	7	C11H6N2O2+
198.066	3	C11H8N3O+
199.0501	30	C11H7N2O2+
200.0242	2	C13H2N3+
200.0341	13	C11H6NO3+
200.058	3	C11H8N2O2+
200.0814	3	C11H10N3O+
201.0295	1	C7H7NO6+
201.0656	10	C11H9N2O2+
202.0501	3	C11H8NO3+
202.0605	1	C10H8N3O2+
204.0652	1	C11H10NO3+
205.0511	1	C12H5N4+
206.035	3	C12H4N3O+
208.0503	4	C12H6N3O+
209.0581	7	C12H7N3O+
210.0423	4	C12H6N2O2+
210.066	7	C12H8N3O+
211.0135	4	C11H3N2O3+
211.0376	5	C11H5N3O2+
211.05	10	C12H7N2O2+
212.0453	8	C11H6N3O2+
212.0567	2	C9H10NO5+
212.0817	2	C12H10N3O+
213.0297	3	C11H5N2O3+
213.0538	2	C11H7N3O2+
213.0657	4	C12H9N2O2+
214.0371	2	C11H6N2O3+
214.0611	3	C11H8N3O2+
215.0451	25	C11H7N2O3+
216.0531	3	C11H8N2O3+
217.0606	13	C11H9N2O3+
218.0448	3	C11H8NO4+
219.0402	2	C10H7N2O4+
220.05	3	C13H6N3O+
222.066	4	C13H8N3O+
223.0495	2	C13H7N2O2+
224.0453	5	C12H6N3O2+
224.0813	3	C13H10N3O+
225.0533	4	C12H7N3O2+
225.0652	3	C13H9N2O2+
226.0607	6	C12H8N3O2+
227.0446	8	C12H7N2O3+
228.076	3	C12H10N3O2+
229.0609	12	C12H9N2O3+
230.0448	1	C12H8NO4+
231.0404	1	C11H7N2O4+
231.0761	1	C12H11N2O3+
232.048	3	C11H8N2O4+
234.0531	2	C13H6N4O+
235.0377	1	C13H5N3O2+
236.045	6	C13H6N3O2+
237.0293	5	C13H5N2O3+
237.053	6	C13H7N3O2+
238.0376	1	C13H6N2O3+
238.0609	3	C13H8N3O2+
239.0452	9	C13H7N2O3+
239.0679	2	C13H9N3O2+
240.0402	3	C12H6N3O3+
240.0531	4	C13H8N2O3+
240.0766	2	C13H10N3O2+
241.0478	5	C12H7N3O3+
241.0605	3	C13H9N2O3+
242.032	2	C12H6N2O4+
242.0566	2	C12H8N3O3+
243.0398	17	C12H7N2O4+
245.0565	1	C12H9N2O4+
250.0481	2	C13H6N4O2+
250.0612	2	C14H8N3O2+
251.0322	4	C13H5N3O3+
252.0399	2	C13H6N3O3+
252.077	4	C14H10N3O2+
253.0479	1	C13H7N3O3+
253.0606	13	C14H9N2O3+
254.0558	4	C13H8N3O3+
256.0715	2	C13H10N3O3+
257.0554	4	C13H9N2O4+
259.0713	1	C13H11N2O4+
261.0508	11	C12H9N2O5+
263.0563	1	C14H7N4O2+
264.0405	6	C14H6N3O3+
265.0479	5	C14H7N3O3+
266.0562	5	C14H8N3O3+
267.0393	14	C14H7N2O4+
268.0718	2	C14H10N3O3+
269.0794	1	C14H11N3O3+
275.0661	2	C13H11N2O5+
280.0714	5	C15H10N3O3+
281.0552	3	C15H9N2O4+
282.0504	1	C14H8N3O4+
283.0584	2	C14H9N3O4+
284.0425	2	C14H8N2O5+
284.0657	2	C14H10N3O4+
285.0505	11	C14H9N2O5+
294.051	3	C15H8N3O4+
296.0667	3	C15H10N3O4+
299.0654	2	C15H11N2O5+
324.0609	4	C16H10N3O5+
