Mass spectrum: 5HPP-33; LC-ESI-QFT; MS2; CE: 45; R=17500; [M+H]+
Name: 5HPP-33
Name: 2-(2,6-Diisopropylphenyl)-5-hydroxyisoindoline-1,3-dione
Name: 2-[2,6-di(propan-2-yl)phenyl]-5-hydroxyisoindole-1,3-dione
Formula: C20H21NO3
Exact mass: 323.1521
SMILES: CC(C)C1=CC=CC(C(C)C)=C1N1C(=O)C2=C(C=C(O)C=C2)C1=O
InChI: InChI=1S/C20H21NO3/c1-11(2)14-6-5-7-15(12(3)4)18(14)21-19(23)16-9-8-13(22)10-17(16)20(21)24/h5-12,22H,1-4H3
Instrument: Q Exactive Orbitrap (Thermo Scientific)
Instrument type: LC-ESI-QFT
Ms type: MS2
Ion mode: POSITIVE
Ionization: ESI
Fragmentation mode: HCD
Collision energy: 45
Resolution: 17500
Column name: Acquity BEH C18 1.7um, 2.1x150mm (Waters)
Retention time: 18.685 min
Base peak: 79.0211
Precursor m/z: 324.1594
Precursor type: [M+H]+
Precursor intensity: 2349191.84375
m/z	relative intensity	assigned
77.039	3	C6H5+
91.0542	3	C7H7+
111.044	1	C6H7O2+
120.0444	2	C7H6NO+
121.0284	14	C7H5O2+
128.0492	1	C9H6N+
130.0283	1	C8H4NO+
146.0236	18	C8H4NO2+
149.0236	1	C8H5O3+
173.0215	1	C10H5O3+
204.0812	1	C15H10N+
232.0759	4	C16H10NO+
240.0655	999	C14H10NO3+
242.061	23	C17H8NO+
249.0787	2	C16H11NO2+
262.0681	5	C20H8N+
264.1018	2	C17H14NO2+
281.0474	4	C19H7NO2+
282.1126	3	C17H16NO3+
