Mass spectrum: 4`-Sulfamylacetanilide; LC-ESI-QFT; MS2; CE: 60; R=17500; [M-H]-
Name: 4'-Sulfamylacetanilide
Name: 4-Acetamidobenzenesulfonamide
Name: N-(4-sulfamoylphenyl)acetamide
Formula: C8H10N2O3S
Exact mass: 214.0412
SMILES: CC(=O)NC1=CC=C(C=C1)S(N)(=O)=O
InChI: InChI=1S/C8H10N2O3S/c1-6(11)10-7-2-4-8(5-3-7)14(9,12)13/h2-5H,1H3,(H,10,11)(H2,9,12,13)
Instrument: Q Exactive Orbitrap (Thermo Scientific)
Instrument type: LC-ESI-QFT
Ms type: MS2
Ion mode: NEGATIVE
Ionization: ESI
Fragmentation mode: HCD
Collision energy: 60
Resolution: 17500
Column name: Acquity BEH C18 1.7um, 2.1x150mm (Waters)
Retention time: 8.223 min
Base peak: 213.0339
Precursor m/z: 213.0339
Precursor type: [M-H]-
Precursor intensity: 4362435.846558
m/z	relative intensity	assigned
61.9706	52	NOS-
63.9624	41	O2S-
68.0142	6	C3H2NO-
77.9655	999	NO2S-
78.9734	312	HNO2S-
79.9575	8	O3S-
79.9812	144	H2NO2S-
80.9652	26	HO3S-
90.035	4	C6H4N-
91.0427	10	C6H5N-
92.0506	865	C6H6N-
93.0345	6	C6H5O-
93.9604	170	NO3S-
94.0298	72	C5H4NO-
96.0091	14	C4H2NO2-
105.0457	4	C6H5N2-
106.0298	18	C6H4NO-
106.0536	215	C6H6N2-
107.0377	37	C6H5NO-
107.0614	20	C6H7N2-
118.0298	38	C7H4NO-
122.0247	191	C6H4NO2-
123.0325	9	C6H5NO2-
133.0409	10	C7H5N2O-
133.0533	31	C8H7NO-
134.0247	38	C7H4NO2-
134.0611	667	C8H8NO-
136.0404	49	C7H6NO2-
148.0643	10	C8H8N2O-
149.0482	122	C8H7NO2-
149.0719	135	C8H9N2O-
150.0195	13	C7H4NO3-
150.056	8	C8H8NO2-
153.9966	7	C6H4NO2S-
155.0042	15	C6H5NO2S-
164.0353	5	C8H6NO3-
171.0233	108	C6H7N2O2S-
181.9916	16	C7H4NO3S-
197.0025	6	C7H5N2O3S-
213.0339	67	C8H9N2O3S-
