Mass spectrum: Phenformin; LC-ESI-QFT; MS2; CE: 15; R=17500; [M+H]+
Name: Phenformin
Name: 1-(diaminomethylidene)-2-(2-phenylethyl)guanidine
Formula: C10H15N5
Exact mass: 205.1327
SMILES: NC(=N)NC(=N)NCCC1=CC=CC=C1
InChI: InChI=1S/C10H15N5/c11-9(12)15-10(13)14-7-6-8-4-2-1-3-5-8/h1-5H,6-7H2,(H6,11,12,13,14,15)
Instrument: Q Exactive Orbitrap (Thermo Scientific)
Instrument type: LC-ESI-QFT
Ms type: MS2
Ion mode: POSITIVE
Ionization: ESI
Fragmentation mode: HCD
Collision energy: 15
Resolution: 17500
Column name: Acquity BEH C18 1.7um, 2.1x150mm (Waters)
Retention time: 10.001 min
Base peak: 79.0211
Precursor m/z: 206.14
Precursor type: [M+H]+
Precursor intensity: 29798429.90625
m/z	relative intensity	assigned
60.0556	510	CH6N3+
85.0508	5	C2H5N4+
105.0698	12	C8H9+
122.0964	2	C8H12N+
147.0915	3	C9H11N2+
164.1183	16	C9H14N3+
189.1136	15	C10H13N4+
206.14	999	C10H16N5+
