Mass spectrum: Diclosulam; LC-ESI-QFT; MS2; CE: 45; R=17500; [M-H]-
Name: Diclosulam
Name: N-(2,6-dichlorophenyl)-5-ethoxy-7-fluoro-[1,2,4]triazolo[1,5-c]pyrimidine-2-sulfonamide
Formula: C13H10Cl2FN5O3S
Exact mass: 404.9865
SMILES: CCOC1=NC(F)=CC2=NC(=NN12)S(=O)(=O)NC1=C(Cl)C=CC=C1Cl
InChI: InChI=1S/C13H10Cl2FN5O3S/c1-2-24-13-17-9(16)6-10-18-12(19-21(10)13)25(22,23)20-11-7(14)4-3-5-8(11)15/h3-6,20H,2H2,1H3
Instrument: Q Exactive Orbitrap (Thermo Scientific)
Instrument type: LC-ESI-QFT
Ms type: MS2
Ion mode: NEGATIVE
Ionization: ESI
Fragmentation mode: HCD
Collision energy: 45
Resolution: 17500
Column name: Acquity BEH C18 1.7um, 2.1x150mm (Waters)
Retention time: 15.732 min
Base peak: 403.9794
Precursor m/z: 403.9793
Precursor type: [M-H]-
Precursor intensity: 5652004.101563
m/z	relative intensity	assigned
64.0067	2	C3N2-
65.0145	70	C3HN2-
65.9985	1	C3NO-
66.0098	2	C2N3-
69.0458	1	C3H5N2-
85.0208	1	C3H2FN2-
90.0098	132	C4N3-
93.0458	3	C5H5N2-
110.016	78	C4HFN3-
132.0076	2	C5N4O-
133.0156	67	C5HN4O-
153.0218	999	C5H2FN4O-
181.0532	226	C7H6FN4O-
276.0093	1	C11H4ClFN5O-
