Mass spectrum: Pyraflufen-ethyl; LC-ESI-QFT; MS2; CE: 45; R=17500; [M+H]+
Name: Pyraflufen-ethyl
Name: ethyl 2-[2-chloro-5-[4-chloro-5-(difluoromethoxy)-1-methylpyrazol-3-yl]-4-fluorophenoxy]acetate
Formula: C15H13Cl2F3N2O4
Exact mass: 412.0204
SMILES: CCOC(=O)COC1=C(Cl)C=C(F)C(=C1)C1=NN(C)C(OC(F)F)=C1Cl
InChI: InChI=1S/C15H13Cl2F3N2O4/c1-3-24-11(23)6-25-10-4-7(9(18)5-8(10)16)13-12(17)14(22(2)21-13)26-15(19)20/h4-5,15H,3,6H2,1-2H3
Instrument: Q Exactive Orbitrap (Thermo Scientific)
Instrument type: LC-ESI-QFT
Ms type: MS2
Ion mode: POSITIVE
Ionization: ESI
Fragmentation mode: HCD
Collision energy: 45
Resolution: 17500
Column name: Acquity BEH C18 1.7um, 2.1x150mm (Waters)
Retention time: 18.455 min
Base peak: 79.0211
Precursor m/z: 413.0277
Precursor type: [M+H]+
Precursor intensity: 6358081.25
m/z	relative intensity	assigned
58.0288	3	C2H4NO+
62.9633	15	CClO+
124.0215	6	F3H5NO3+
161.0398	2	C10H6FO+
161.0508	9	C9H6FN2+
168.001	6	C8H4ClFN+
183.996	12	C8H4ClFNO+
189.0457	19	C10H6FN2O+
190.0538	32	C10H7FN2O+
191.9781	4	C7H5Cl2FN+
195.996	9	C9H4ClFNO+
197.0276	53	C9H7ClFN2+
199.9669	2	C8H2ClFO3+
201.0456	12	C11H6FN2O+
201.9623	44	C8H3Cl2FN+
203.9777	20	C8H5Cl2FN+
208.0196	2	C10H6ClFN2+
212.0819	22	C12H11F3+
213.0227	3	C9H7ClFN2O+
218.0483	6	C11H7FN2O2+
219.0565	14	C11H8FN2O2+
223.991	94	C10H4ClFNO2+
225.0225	135	C10H7ClFN2O+
226.0304	79	C10H8ClFN2O+
233.9881	8	C7HF3N2O4+
235.0271	3	C11H8ClN2O2+
237.0228	7	C11H7ClFN2O+
241.0173	2	C10H7ClFN2O2+
242.0015	19	C10H6ClFNO3+
252.0096	11	C11H6ClFN2O2+
253.0175	957	C11H7ClFN2O2+
254.0253	304	C11H8ClFN2O2+
260.9993	890	C10H8Cl2FN2O+
268.9879	70	C11H7Cl2N2O2+
275.0193	24	C11H7ClF3N2O+
275.9864	192	C10H7Cl2FN2O2+
276.994	17	C10H8Cl2FN2O2+
281.049	7	C13H11ClFN2O2+
285.0238	11	C12H8ClF2N2O2+
288.9942	999	C11H8Cl2FN2O2+
303.0143	214	C12H7ClF3N2O2+
304.0221	463	C12H8ClF3N2O2+
305.0272	4	C6H14Cl2F3N2O4+
310.996	108	C11H8Cl2F3N2O+
317.0252	18	C13H12Cl2FN2O2+
318.9849	25	C12H7Cl2F2N2O2+
325.9832	77	C11H7Cl2F3N2O2+
334.9998	199	C12H10Cl2FN2O4+
338.9911	245	C12H8Cl2F3N2O2+
354.0148	4	C13H11Cl2F3N2O2+
363.0313	8	C14H14Cl2FN2O4+
384.9971	8	C13H10Cl2F3N2O4+
