Mass spectrum: N-Phenyldiethanolamine; LC-ESI-QFT; MS2; CE: 30; R=17500; [M+H]+
Name: N-Phenyldiethanolamine
Name: 2-[N-(2-hydroxyethyl)anilino]ethanol
Formula: C10H15NO2
Exact mass: 181.1103
SMILES: OCCN(CCO)C1=CC=CC=C1
InChI: InChI=1S/C10H15NO2/c12-8-6-11(7-9-13)10-4-2-1-3-5-10/h1-5,12-13H,6-9H2
Instrument: Q Exactive Orbitrap (Thermo Scientific)
Instrument type: LC-ESI-QFT
Ms type: MS2
Ion mode: POSITIVE
Ionization: ESI
Fragmentation mode: HCD
Collision energy: 30
Resolution: 17500
Column name: Acquity BEH C18 1.7um, 2.1x150mm (Waters)
Retention time: 6.737 min
Base peak: 79.0212
Precursor m/z: 182.1176
Precursor type: [M+H]+
Precursor intensity: 10748533
m/z	relative intensity	assigned
77.0386	1	C6H5+
91.0542	1	C7H7+
94.0652	3	C6H8N+
104.0493	3	C7H6N+
106.0649	12	C7H8N+
117.0573	1	C8H7N+
118.0651	14	C8H8N+
119.073	41	C8H9N+
120.0808	165	C8H10N+
121.0886	1	C8H11N+
129.0699	1	C10H9+
131.073	4	C9H9N+
137.0835	24	C8H11NO+
138.0914	54	C8H12NO+
146.0964	83	C10H12N+
164.107	315	C10H14NO+
182.1176	999	C10H16NO2+
