Mass spectrum: Imidacloprid; LC-ESI-QFT; MS2; CE: 45; R=17500; [M+H]+
Name: Imidacloprid
Name: N-[1-[(6-Chloro-3-pyridinyl)methyl]-4,5-dihydroimidazol-2-yl]nitramide
Name: N-[1-[(6-chloropyridin-3-yl)methyl]-4,5-dihydroimidazol-2-yl]nitramide
Formula: C9H10ClN5O2
Exact mass: 255.0523
SMILES: [O-][N+](=O)\N=C1/NCCN1CC1=CN=C(Cl)C=C1
InChI: InChI=1S/C9H10ClN5O2/c10-8-2-1-7(5-12-8)6-14-4-3-11-9(14)13-15(16)17/h1-2,5H,3-4,6H2,(H,11,13)
Instrument: Q Exactive Orbitrap (Thermo Scientific)
Instrument type: LC-ESI-QFT
Ms type: MS2
Ion mode: POSITIVE
Ionization: ESI
Fragmentation mode: HCD
Collision energy: 45
Resolution: 17500
Column name: Acquity BEH C18 1.7um, 2.1x150mm (Waters)
Retention time: 12.341 min
Base peak: 79.0211
Precursor m/z: 256.0596
Precursor type: [M+H]+
Precursor intensity: 4158896.6875
m/z	relative intensity	assigned
56.0495	46	C3H6N+
71.0603	8	C3H7N2+
72.0681	9	C3H8N2+
84.0557	273	C3H6N3+
92.0496	3	C6H6N+
97.0634	15	C4H7N3+
98.0713	17	C4H8N3+
99.0553	45	C4H7N2O+
126.0106	54	C6H5ClN+
127.0183	2	C6H6ClN+
128.0262	161	C6H7ClN+
133.0636	1	C7H7N3+
133.0761	6	C8H9N2+
140.0138	2	C6H5ClN2+
141.0215	7	C6H6ClN2+
146.0588	7	C7H6N4+
146.0714	18	C8H8N3+
147.0665	11	C7H7N4+
148.0869	6	C8H10N3+
151.0184	19	C8H6ClN+
152.0137	2	C7H5ClN2+
158.0716	6	C9H8N3+
159.0667	1	C8H7N4+
159.0792	3	C9H9N3+
167.0246	10	C7H6ClN3+
167.037	13	C8H8ClN2+
168.0324	2	C7H7ClN3+
173.0824	29	C9H9N4+
174.0902	116	C9H10N4+
175.0979	999	C9H11N4+
176.0817	3	C9H10N3O+
180.0324	5	C8H7ClN3+
181.0275	10	C7H6ClN4+
181.0403	4	C8H8ClN3+
192.0323	2	C9H7ClN3+
193.0404	8	C9H8ClN3+
194.0483	8	C9H9ClN3+
195.0326	2	C9H8ClN2O+
195.0433	4	C8H8ClN4+
209.059	895	C9H10ClN4+
210.0666	25	C9H11ClN4+
212.0587	29	C9H11ClN3O+
