Mass spectrum: Pantothenate; LC-ESI-QFT; MS2; CE: 75; R=17500; [M+H]+
Name: Pantothenate
Name: Pantothenic acid
Name: 3-[[(2R)-2,4-dihydroxy-3,3-dimethylbutanoyl]amino]propanoic acid
Formula: C9H17NO5
Exact mass: 219.1107
SMILES: CC(C)(CO)[C@@H](O)C(=O)NCCC(O)=O
InChI: InChI=1S/C9H17NO5/c1-9(2,5-11)7(14)8(15)10-4-3-6(12)13/h7,11,14H,3-5H2,1-2H3,(H,10,15)(H,12,13)/t7-/m0/s1
Instrument: Q Exactive Orbitrap (Thermo Scientific)
Instrument type: LC-ESI-QFT
Ms type: MS2
Ion mode: POSITIVE
Ionization: ESI
Fragmentation mode: HCD
Collision energy: 75
Resolution: 17500
Column name: Acquity BEH C18 1.7um, 2.1x150mm (Waters)
Retention time: 8.134 min
Base peak: 79.0211
Precursor m/z: 220.1179
Precursor type: [M+H]+
Precursor intensity: 8372996.03125
m/z	relative intensity	assigned
53.0022	34	C3HO+
55.0178	135	C3H3O+
55.0542	148	C4H7+
56.0131	127	C2H2NO+
57.0699	455	C4H9+
59.0491	271	C3H7O+
60.0444	45	C2H6NO+
65.0385	102	C5H5+
67.0542	703	C5H7+
68.0493	12	C4H6N+
69.0698	161	C5H9+
70.0287	999	C3H4NO+
72.0443	389	C3H6NO+
73.0284	135	C3H5O2+
73.0647	26	C4H9O+
74.0236	113	C2H4NO2+
79.0543	71	C6H7+
81.0574	22	C5H7N+
81.0699	86	C6H9+
82.065	13	C5H8N+
83.0491	59	C5H7O+
85.0648	268	C5H9O+
86.0964	25	C5H12N+
88.0393	28	C3H6NO2+
90.055	642	C3H8NO2+
92.0495	27	C6H6N+
93.0571	12	C6H7N+
94.0651	26	C6H8N+
95.0492	341	C6H7O+
96.0808	233	C6H10N+
98.0237	354	C4H4NO2+
100.0391	12	C4H6NO2+
103.0755	14	C5H11O2+
112.0757	31	C6H10NO+
113.0597	51	C6H9O2+
115.0546	17	C9H7+
116.0342	98	C4H6NO3+
124.0757	402	C7H10NO+
142.0862	46	C7H12NO2+
157.9976	20	C9H2O3+
