Mass spectrum: Todralazine; LC-ESI-QFT; MS2; CE: 30; R=17500; [M+H]+
Name: Todralazine
Name: ethyl N-(phthalazin-1-ylamino)carbamate
Formula: C11H12N4O2
Exact mass: 232.0960
SMILES: CCOC(=O)NNC1=NN=CC2=CC=CC=C12
InChI: InChI=1S/C11H12N4O2/c1-2-17-11(16)15-14-10-9-6-4-3-5-8(9)7-12-13-10/h3-7H,2H2,1H3,(H,13,14)(H,15,16)
Instrument: Q Exactive Orbitrap (Thermo Scientific)
Instrument type: LC-ESI-QFT
Ms type: MS2
Ion mode: POSITIVE
Ionization: ESI
Fragmentation mode: HCD
Collision energy: 30
Resolution: 17500
Column name: Acquity BEH C18 1.7um, 2.1x150mm (Waters)
Retention time: 9.110 min
Base peak: 79.0212
Precursor m/z: 233.1033
Precursor type: [M+H]+
Precursor intensity: 17339657
m/z	relative intensity	assigned
89.0385	36	C7H5+
103.0417	1	C7H5N+
104.0495	1	C7H6N+
116.0494	12	C8H6N+
131.0602	18	C8H7N2+
132.0681	39	C8H8N2+
134.0599	9	C8H8NO+
144.0554	2	C8H6N3+
145.0633	17	C8H7N3+
146.0715	1	C8H8N3+
158.0474	2	C9H6N2O+
159.0665	83	C8H7N4+
160.0743	9	C8H8N4+
160.0995	15	C10H12N2+
161.082	727	C8H9N4+
173.0948	4	C10H11N3+
187.0613	468	C9H7N4O+
189.1133	22	C10H13N4+
205.0719	578	C9H9N4O2+
233.1031	999	C11H13N4O2+
