Mass spectrum: Budesonide; LC-ESI-QFT; MS2; CE: 60; R=17500; [M+H]+
Name: Budesonide
Name: (1S,2S,4R,8S,9S,11S,12S,13R)-11-hydroxy-8-(2-hydroxyacetyl)-9,13-dimethyl-6-propyl-5,7-dioxapentacyclo[10.8.0.02,9.04,8.013,18]icosa-14,17-dien-16-one
Formula: C25H34O6
Exact mass: 430.2355
SMILES: CCCC1O[C@@H]2C[C@H]3[C@@H]4CCC5=CC(=O)C=C[C@]5(C)[C@H]4[C@@H](O)C[C@]3(C)[C@@]2(O1)C(=O)CO
InChI: InChI=1S/C25H34O6/c1-4-5-21-30-20-11-17-16-7-6-14-10-15(27)8-9-23(14,2)22(16)18(28)12-24(17,3)25(20,31-21)19(29)13-26/h8-10,16-18,20-22,26,28H,4-7,11-13H2,1-3H3/t16-,17-,18-,20+,21?,22+,23-,24-,25+/m0/s1
Instrument: Q Exactive Orbitrap (Thermo Scientific)
Instrument type: LC-ESI-QFT
Ms type: MS2
Ion mode: POSITIVE
Ionization: ESI
Fragmentation mode: HCD
Collision energy: 60
Resolution: 17500
Column name: Acquity BEH C18 1.7um, 2.1x150mm (Waters)
Retention time: 18.150 min
Base peak: 79.0212
Precursor m/z: 431.2428
Precursor type: [M+H]+
Precursor intensity: 5876956.5
m/z	relative intensity	assigned
53.0386	21	C4H5+
55.0179	47	C3H3O+
55.0542	52	C4H7+
67.0542	50	C5H7+
69.0334	49	C4H5O+
69.0698	18	C5H9+
71.0491	21	C4H7O+
79.0543	106	C6H7+
81.0337	18	C5H5O+
81.0699	138	C6H9+
83.0491	31	C5H7O+
91.0542	239	C7H7+
93.0699	125	C7H9+
95.0492	60	C6H7O+
95.0855	49	C7H11+
97.065	16	C6H9O+
101.0234	23	C4H5O3+
105.0699	190	C8H9+
107.0492	63	C7H7O+
107.0855	100	C8H11+
109.0649	99	C7H9O+
115.054	26	C9H7+
117.0698	69	C9H9+
119.0856	209	C9H11+
121.0648	543	C8H9O+
123.0803	28	C8H11O+
128.0621	76	C10H8+
129.0701	71	C10H9+
130.0777	21	C10H10+
131.0853	83	C10H11+
132.0569	52	C9H8O+
133.0647	34	C9H9O+
133.1013	16	C10H13+
135.0804	139	C9H11O+
137.0597	48	C8H9O2+
139.0752	20	C8H11O2+
141.0696	34	C11H9+
142.0777	32	C11H10+
143.0855	58	C11H11+
145.0648	142	C10H9O+
145.1012	104	C11H13+
146.0729	27	C10H10O+
147.0805	999	C10H11O+
149.0959	16	C10H13O+
153.0697	18	C12H9+
154.0776	21	C12H10+
155.0855	98	C12H11+
157.0653	17	C11H9O+
157.1012	21	C12H13+
158.0727	230	C11H10O+
159.0806	184	C11H11O+
161.0962	71	C11H13O+
163.0753	27	C10H11O2+
165.0695	29	C13H9+
167.0856	38	C13H11+
169.0651	21	C12H9O+
170.0731	35	C12H10O+
171.0805	485	C12H11O+
173.0962	391	C12H13O+
178.0784	23	C14H10+
179.0857	58	C14H11+
181.0644	40	C13H9O+
181.1011	39	C14H13+
182.0724	32	C13H10O+
183.0806	67	C13H11O+
184.0884	21	C13H12O+
185.096	99	C13H13O+
187.1116	30	C13H15O+
190.0769	26	C15H10+
191.0856	43	C15H11+
192.0935	70	C15H12+
193.1012	66	C15H13+
195.0808	93	C14H11O+
196.0885	85	C14H12O+
197.0963	137	C14H13O+
198.1041	32	C14H14O+
199.1115	47	C14H15O+
204.0935	23	C16H12+
205.1016	35	C16H13+
207.1167	61	C16H15+
208.0886	75	C15H12O+
209.0963	154	C15H13O+
210.1038	140	C15H14O+
211.1117	226	C15H15O+
215.086	15	C17H11+
217.1013	24	C17H13+
219.0804	29	C16H11O+
219.1169	31	C17H15+
220.0887	34	C16H12O+
221.0961	121	C16H13O+
222.1038	78	C16H14O+
223.1122	103	C16H15O+
224.1193	29	C16H16O+
225.1273	77	C16H17O+
226.1353	56	C16H18O+
227.1434	18	C16H19O+
229.1009	27	C18H13+
230.1087	24	C18H14+
231.0804	18	C17H11O+
232.0877	35	C17H12O+
233.0964	59	C17H13O+
234.1043	64	C17H14O+
235.1118	113	C17H15O+
236.1194	25	C17H16O+
237.1272	39	C17H17O+
239.1429	21	C17H19O+
245.0962	27	C18H13O+
247.1125	64	C18H15O+
248.1195	88	C18H16O+
249.1273	44	C18H17O+
251.1428	26	C18H19O+
259.1103	17	C19H15O+
261.1278	30	C19H17O+
262.1354	38	C19H18O+
263.1433	27	C19H19O+
272.1198	32	C20H16O+
