Mass spectrum: Butachlor; LC-ESI-QFT; MS2; CE: 15; R=17500; [M+H]+
Name: Butachlor
Name: N-(butoxymethyl)-2-chloro-N-(2,6-diethylphenyl)acetamide
Formula: C17H26ClNO2
Exact mass: 311.1652
SMILES: CCCCOCN(C(=O)CCl)C1=C(CC)C=CC=C1CC
InChI: InChI=1S/C17H26ClNO2/c1-4-7-11-21-13-19(16(20)12-18)17-14(5-2)9-8-10-15(17)6-3/h8-10H,4-7,11-13H2,1-3H3
Instrument: Q Exactive Orbitrap (Thermo Scientific)
Instrument type: LC-ESI-QFT
Ms type: MS2
Ion mode: POSITIVE
Ionization: ESI
Fragmentation mode: HCD
Collision energy: 15
Resolution: 17500
Column name: Acquity BEH C18 1.7um, 2.1x150mm (Waters)
Retention time: 19.583 min
Base peak: 79.0211
Precursor m/z: 312.1725
Precursor type: [M+H]+
Precursor intensity: 1535900.578125
m/z	relative intensity	assigned
57.0699	345	C4H9+
87.0804	202	C5H11O+
162.1278	61	C11H16N+
208.0888	7	C12H15ClN+
238.0994	999	C13H17ClNO+
