Mass spectrum: Octabenzone; LC-ESI-QFT; MS2; CE: 15; R=17500; [M+H]+
Name: Octabenzone
Name: (2-hydroxy-4-octoxyphenyl)-phenylmethanone
Formula: C21H26O3
Exact mass: 326.1882
SMILES: CCCCCCCCOC1=CC(O)=C(C=C1)C(=O)C1=CC=CC=C1
InChI: InChI=1S/C21H26O3/c1-2-3-4-5-6-10-15-24-18-13-14-19(20(22)16-18)21(23)17-11-8-7-9-12-17/h7-9,11-14,16,22H,2-6,10,15H2,1H3
Instrument: Q Exactive Orbitrap (Thermo Scientific)
Instrument type: LC-ESI-QFT
Ms type: MS2
Ion mode: POSITIVE
Ionization: ESI
Fragmentation mode: HCD
Collision energy: 15
Resolution: 17500
Column name: Acquity BEH C18 1.7um, 2.1x150mm (Waters)
Retention time: 18.891 min
Base peak: 79.0211
Precursor m/z: 327.1955
Precursor type: [M+H]+
Precursor intensity: 14892772.5625
m/z	relative intensity	assigned
114.0663	30	C6H10O2+
140.0816	9	C8H12O2+
150.102	17	C10H14O+
154.0969	17	C9H14O2+
160.0871	28	C11H12O+
162.1023	15	C11H14O+
164.0817	14	C10H12O2+
166.0975	345	C10H14O2+
167.1053	121	C10H15O2+
178.0972	17	C11H14O2+
178.1336	25	C12H18O+
180.113	38	C11H16O2+
180.1495	30	C12H20O+
186.1277	210	C10H18O3+
188.0815	9	C12H12O2+
192.1495	106	C13H20O+
194.1289	32	C12H18O2+
200.082	30	C13H12O2+
204.1493	14	C14H20O+
206.129	36	C13H18O2+
208.1445	124	C13H20O2+
212.082	29	C14H12O2+
212.1179	6	C15H16O+
214.1337	41	C15H18O+
226.134	6	C16H18O+
228.1493	22	C16H20O+
240.1494	17	C17H20O+
254.1289	83	C17H18O2+
254.1653	12	C18H22O+
256.1451	20	C17H20O2+
256.1808	89	C18H24O+
268.1808	105	C19H24O+
282.16	79	C19H22O2+
327.193	999	C21H27O3+
