Mass spectrum: CP-863187; LC-ESI-QFT; MS2; CE: 75; R=17500; [M+H]+
Name: CP-863187
Name: 1,2,4-Triazolo(4,3-a)pyridine, 6-(4-(2,5-difluorophenyl)-5-oxazolyl)-3-(1-methylethyl)-
Name: 4-(2,5-difluorophenyl)-5-(3-propan-2-yl-[1,2,4]triazolo[4,3-a]pyridin-6-yl)-1,3-oxazole
Formula: C18H14F2N4O
Exact mass: 340.1136
SMILES: CC(C)C1=NN=C2C=CC(=CN12)C1=C(N=CO1)C1=CC(F)=CC=C1F
InChI: InChI=1S/C18H14F2N4O/c1-10(2)18-23-22-15-6-3-11(8-24(15)18)17-16(21-9-25-17)13-7-12(19)4-5-14(13)20/h3-10H,1-2H3
Instrument: Q Exactive Orbitrap (Thermo Scientific)
Instrument type: LC-ESI-QFT
Ms type: MS2
Ion mode: POSITIVE
Ionization: ESI
Fragmentation mode: HCD
Collision energy: 75
Resolution: 17500
Column name: Acquity BEH C18 1.7um, 2.1x150mm (Waters)
Retention time: 15.986 min
Base peak: 79.0211
Precursor m/z: 341.1208
Precursor type: [M+H]+
Precursor intensity: 34040471.875
m/z	relative intensity	assigned
67.0416	1	C4H5N+
76.0181	3	C5H2N+
78.0338	15	C5H4N+
79.029	2	C4H3N2+
93.0447	3	C5H5N2+
96.0444	3	C5H6NO+
103.0291	27	C6H3N2+
105.0448	14	C6H5N2+
106.0526	2	C6H6N2+
118.0398	1	C6H4N3+
119.024	5	C6H3N2O+
121.0397	8	C6H5N2O+
125.0197	8	C7H3F2+
127.0354	7	C7H5F2+
130.04	6	C7H4N3+
131.024	1	C7H3N2O+
135.0553	1	C7H7N2O+
139.0352	5	C8H5F2+
140.0306	13	C7H4F2N+
140.0495	3	C10H6N+
141.0148	1	C7H3F2O+
143.0292	2	C10H4F+
146.0402	2	C9H5FN+
147.0241	1	C9H4FO+
147.0354	1	C8H4FN2+
148.0306	1	C7H3FN3+
150.0346	3	C3H4F2N4O+
151.0352	3	C9H5F2+
152.0308	5	C8H4F2N+
153.0385	2	C8H5F2N+
158.0405	1	C10H5FN+
163.0353	8	C10H5F2+
164.0306	5	C9H4F2N+
164.0431	5	C10H6F2+
164.0506	2	C9H7FNO+
165.0511	7	C10H7F2+
166.0463	1	C9H6F2N+
168.0444	2	C11H6NO+
170.0401	23	C11H5FN+
171.0353	1	C10H4FN2+
172.0559	3	C11H7FN+
173.051	8	C10H6FN2+
175.0354	9	C11H5F2+
176.0307	4	C10H4F2N+
177.0381	1	C10H5F2N+
177.0454	3	C9H6FN2O+
178.0398	1	C11H4N3+
181.046	9	C10H7F2O+
182.0405	36	C12H5FN+
183.0354	1	C11H4FN2+
188.0508	57	C11H7FNO+
189.0379	6	C11H5F2N+
189.046	1	C10H6FN2O+
190.0462	999	C11H6F2N+
191.0306	1	C11H5F2O+
191.0413	33	C10H5F2N2+
195.0551	8	C12H7N2O+
196.0432	1	C12H5FN2+
197.051	123	C12H6FN2+
198.0355	2	C12H5FNO+
198.0462	22	C11H5FN3+
200.0306	14	C12H4F2N+
202.0462	24	C12H6F2N+
203.0541	6	C12H7F2N+
204.0563	4	C10H7FN3O+
205.0333	1	C11H5F2NO+
205.0512	1	C12H5N4+
207.0352	3	C13H4FN2+
208.0569	1	C11H8F2NO+
209.0509	19	C13H6FN2+
210.0588	2	C13H7FN2+
215.0424	2	C12H5F2N2+
215.0618	3	C12H8FN2O+
216.0493	4	C12H6F2N2+
217.0572	167	C12H7F2N2+
218.0412	31	C12H6F2NO+
220.0566	1	C12H8F2NO+
224.0619	29	C13H7FN3+
225.046	6	C13H6FN2O+
225.0696	1	C13H8FN3+
226.0533	1	C13H7FN2O+
227.0414	13	C13H5F2N2+
227.0605	2	C16H7N2+
228.0493	37	C13H6F2N2+
229.0573	11	C13H7F2N2+
242.0528	2	C18H7F+
243.0603	12	C13H7F2N3+
244.0442	1	C13H6F2N2O+
244.0675	2	C13H8F2N3+
245.0519	4	C13H7F2N2O+
252.0571	2	C14H7FN3O+
272.0631	9	C14H8F2N3O+
325.0896	12	C17H11F2N4O+
