Mass spectrum: Methfuroxam; LC-ESI-QFT; MS2; CE: 15; R=17500; [M+H]+
Name: Methfuroxam
Name: 2,4,5-trimethyl-N-phenylfuran-3-carboxamide
Formula: C14H15NO2
Exact mass: 229.1103
SMILES: CC1=C(C)C(C(=O)NC2=CC=CC=C2)=C(C)O1
InChI: InChI=1S/C14H15NO2/c1-9-10(2)17-11(3)13(9)14(16)15-12-7-5-4-6-8-12/h4-8H,1-3H3,(H,15,16)
Instrument: Q Exactive Orbitrap (Thermo Scientific)
Instrument type: LC-ESI-QFT
Ms type: MS2
Ion mode: POSITIVE
Ionization: ESI
Fragmentation mode: HCD
Collision energy: 15
Resolution: 17500
Column name: Acquity BEH C18 1.7um, 2.1x150mm (Waters)
Retention time: 16.865 min
Base peak: 79.0211
Precursor m/z: 230.1176
Precursor type: [M+H]+
Precursor intensity: 8140959.28125
m/z	relative intensity	assigned
92.0494	1	C6H6N+
93.0701	2	C7H9+
111.0804	446	C7H11O+
120.0444	23	C7H6NO+
137.0597	279	C8H9O2+
174.054	1	C10H8NO2+
212.1068	1	C14H14NO+
230.1176	999	C14H16NO2+
