Mass spectrum: Thiophanate; LC-ESI-QFT; MS2; CE: 45; R=17500; [M+H]+
Name: Thiophanate
Name: N'-ethoxycarbonyl-N-[2-[(N-ethoxycarbonyl-C-sulfanylcarbonimidoyl)amino]phenyl]carbamimidothioic acid
Formula: C14H18N4O4S2
Exact mass: 370.0769
SMILES: CCOC(=O)NC(=S)NC1=C(NC(=S)NC(=O)OCC)C=CC=C1
InChI: InChI=1S/C14H18N4O4S2/c1-3-21-13(19)17-11(23)15-9-7-5-6-8-10(9)16-12(24)18-14(20)22-4-2/h5-8H,3-4H2,1-2H3,(H2,15,17,19,23)(H2,16,18,20,24)
Instrument: Q Exactive Orbitrap (Thermo Scientific)
Instrument type: LC-ESI-QFT
Ms type: MS2
Ion mode: POSITIVE
Ionization: ESI
Fragmentation mode: HCD
Collision energy: 45
Resolution: 17500
Column name: Acquity BEH C18 1.7um, 2.1x150mm (Waters)
Retention time: 16.519 min
Base peak: 79.0212
Precursor m/z: 371.0842
Precursor type: [M+H]+
Precursor intensity: 14468133.25
m/z	relative intensity	assigned
59.9902	96	CH2NS+
62.0236	39	CH4NO2+
85.9695	75	C2NOS+
88.0215	2	C3H6NS+
90.055	8	C3H8NO2+
92.0494	3	C6H6N+
93.0573	18	C6H7N+
103.9801	33	C2H2NO2S+
107.0604	2	C6H7N2+
109.076	34	C6H9N2+
118.0525	5	C7H6N2+
119.0604	3	C7H7N2+
132.0114	7	C4H6NO2S+
134.0713	28	C7H8N3+
135.0552	12	C7H7N2O+
149.0169	23	C7H5N2S+
150.0249	1	C7H6N2S+
151.0324	999	C7H7N2S+
160.0505	44	C8H6N3O+
176.0277	10	C8H6N3S+
177.0115	2	C8H5N2OS+
178.0611	21	C8H8N3O2+
179.0637	1	C9H11N2S+
192.9889	9	C8H5N2S2+
194.0383	3	C8H8N3OS+
195.022	1	C8H7N2O2S+
202.0062	1	C9H4N3OS+
206.0923	5	C10H12N3O2+
219.0333	6	C9H7N4OS+
235.9947	4	C9H6N3OS2+
245.0131	1	C10H5N4O2S+
