Mass spectrum: Imazethapyr; LC-ESI-QFT; MS2; CE: 45; R=17500; [M-H]-
Name: Imazethapyr
Name: 5-ethyl-2-(4-methyl-5-oxo-4-propan-2-yl-1H-imidazol-2-yl)pyridine-3-carboxylic acid
Formula: C15H19N3O3
Exact mass: 289.1426
SMILES: CCC1=CN=C(C2=NC(C)(C(C)C)C(=O)N2)C(=C1)C(O)=O
InChI: InChI=1S/C15H19N3O3/c1-5-9-6-10(13(19)20)11(16-7-9)12-17-14(21)15(4,18-12)8(2)3/h6-8H,5H2,1-4H3,(H,19,20)(H,17,18,21)
Instrument: Q Exactive Orbitrap (Thermo Scientific)
Instrument type: LC-ESI-QFT
Ms type: MS2
Ion mode: NEGATIVE
Ionization: ESI
Fragmentation mode: HCD
Collision energy: 45
Resolution: 17500
Column name: Acquity BEH C18 1.7um, 2.1x150mm (Waters)
Retention time: 14.748 min
Base peak: 112.9857
Precursor m/z: 288.1354
Precursor type: [M-H]-
Precursor intensity: 3077174.828613
m/z	relative intensity	assigned
161.072	2	C9H9N2O-
186.0673	31	C10H8N3O-
200.0831	10	C11H10N3O-
201.0908	999	C11H11N3O-
202.0987	12	C11H12N3O-
203.1193	2	C12H15N2O-
214.0986	16	C12H12N3O-
229.122	22	C13H15N3O-
244.1454	37	C14H18N3O-
