Mass spectrum: 1-Phenylurea; LC-ESI-QFT; MS2; CE: 30; R=17500; [M+H]+
Name: 1-Phenylurea
Name: phenylurea
Formula: C7H8N2O
Exact mass: 136.0637
SMILES: NC(=O)NC1=CC=CC=C1
InChI: InChI=1S/C7H8N2O/c8-7(10)9-6-4-2-1-3-5-6/h1-5H,(H3,8,9,10)
Instrument: Q Exactive Orbitrap (Thermo Scientific)
Instrument type: LC-ESI-QFT
Ms type: MS2
Ion mode: POSITIVE
Ionization: ESI
Fragmentation mode: HCD
Collision energy: 30
Resolution: 17500
Column name: Acquity BEH C18 1.7um, 2.1x150mm (Waters)
Retention time: 11.084 min
Base peak: 79.0211
Precursor m/z: 137.0709
Precursor type: [M+H]+
Precursor intensity: 5155442.9375
m/z	relative intensity	assigned
65.0386	2	C5H5+
68.0494	1	C4H6N+
86.0036	5	C6N+
92.0495	8	C6H6N+
94.0652	193	C6H8N+
95.049	2	C6H7O+
110.0601	3	C6H8NO+
120.0444	999	C7H6NO+
137.071	303	C7H9N2O+
