Mass spectrum: Lufenuron; LC-ESI-QFT; MS2; CE: 75; R=17500; [M-H]-
Name: Lufenuron
Formula: C17H8Cl2F8N2O3
Exact mass: 509.9784
SMILES: FC(C(F)(F)F)C(F)(F)OC1=CC(Cl)=C(NC(=O)NC(=O)C2=C(F)C=CC=C2F)C=C1Cl
InChI: InChI=1S/C17H8Cl2F8N2O3/c18-6-5-11(32-17(26,27)14(22)16(23,24)25)7(19)4-10(6)28-15(31)29-13(30)12-8(20)2-1-3-9(12)21/h1-5,14H,(H2,28,29,30,31)
Instrument: Q Exactive Orbitrap (Thermo Scientific)
Instrument type: LC-ESI-QFT
Ms type: MS2
Ion mode: NEGATIVE
Ionization: ESI
Fragmentation mode: HCD
Collision energy: 75
Resolution: 17500
Column name: Acquity BEH C18 1.7um, 2.1x150mm (Waters)
Retention time: 19.448 min
Base peak: 112.9856
Precursor m/z: 508.9711
Precursor type: [M-H]-
Precursor intensity: 6342101.69043
m/z	relative intensity	assigned
73.0083	27	C6H-
74.0036	10	C5N-
93.0147	383	C6H2F-
103.0063	15	C6HNO-
113.0209	170	C6H3F2-
130.9927	74	C3F5-
146.9876	238	C3F5O-
165.9701	68	C7HClNO2-
174.9598	999	C6H3Cl2NO-
185.9521	37	C7H2Cl2NO-
199.955	54	C7H2Cl2N2O-
201.9468	24	C7H2Cl2NO2-
201.968	41	C8ClF3N-
