Mass spectrum: Formononetin; LC-ESI-QFT; MS2; CE: 45; R=17500; [M+H]+
Name: Formononetin
Name: 7-hydroxy-3-(4-methoxyphenyl)chromen-4-one
Formula: C16H12O4
Exact mass: 268.0736
SMILES: COC1=CC=C(C=C1)C1=COC2=C(C=CC(O)=C2)C1=O
InChI: InChI=1S/C16H12O4/c1-19-12-5-2-10(3-6-12)14-9-20-15-8-11(17)4-7-13(15)16(14)18/h2-9,17H,1H3
Instrument: Q Exactive Orbitrap (Thermo Scientific)
Instrument type: LC-ESI-QFT
Ms type: MS2
Ion mode: POSITIVE
Ionization: ESI
Fragmentation mode: HCD
Collision energy: 45
Resolution: 17500
Column name: Acquity BEH C18 1.7um, 2.1x150mm (Waters)
Retention time: 16.857 min
Base peak: 79.0211
Precursor m/z: 269.0808
Precursor type: [M+H]+
Precursor intensity: 15527188
m/z	relative intensity	assigned
68.997	1	C3HO2+
103.0542	1	C8H7+
105.0699	2	C8H9+
107.0491	50	C7H7O+
108.0207	1	C6H4O2+
118.0413	70	C8H6O+
123.044	4	C7H7O2+
131.0491	1	C9H7O+
133.0284	6	C8H5O2+
133.0647	9	C9H9O+
135.0439	1	C8H7O2+
136.0155	6	C7H4O3+
137.0233	25	C7H5O3+
147.0439	3	C9H7O2+
151.0392	1	C8H7O3+
153.07	1	C12H9+
154.026	37	C7H6O4+
156.0569	1	C11H8O+
157.065	1	C11H9O+
163.0389	11	C9H7O3+
165.0699	1	C13H9+
167.0857	1	C13H11+
168.0416	1	C8H8O4+
170.0725	4	C12H10O+
171.0805	2	C12H11O+
176.0466	1	C10H8O3+
181.0648	7	C13H9O+
182.0727	6	C13H10O+
183.0807	2	C13H11O+
184.0522	1	C12H8O2+
185.0962	3	C13H13O+
195.0806	4	C14H11O+
197.0597	12	C13H9O2+
198.0674	12	C13H10O2+
199.0753	3	C13H11O2+
209.0602	1	C14H9O2+
210.0671	2	C14H10O2+
213.0909	172	C14H13O2+
223.0754	1	C15H11O2+
225.0544	7	C14H9O3+
226.0624	64	C14H10O3+
237.0545	130	C15H9O3+
239.0703	3	C15H11O3+
241.086	8	C15H13O3+
251.0708	1	C16H11O3+
253.0495	85	C15H9O4+
254.0573	220	C15H10O4+
269.0807	999	C16H13O4+
