Mass spectrum: PharmaGSID_48507; LC-ESI-QFT; MS2; CE: 45; R=17500; [M-H]-
Name: PharmaGSID_48507
Name: 5-(2,4-Difluorophenoxy)-2-[(2-hydroxy-2-methylpropyl)amino]-8-methylpyrido[2,3-d]pyrimidin-7(8H)-one
Formula: C18H18F2N4O3
Exact mass: 376.1347
SMILES: CN1C(=O)C=C(OC2=C(F)C=C(F)C=C2)C2=C1N=C(NCC(C)(C)O)N=C2
InChI: InChI=1S/C18H18F2N4O3/c1-18(2,26)9-22-17-21-8-11-14(7-15(25)24(3)16(11)23-17)27-13-5-4-10(19)6-12(13)20/h4-8,26H,9H2,1-3H3,(H,21,22,23)
Instrument: Q Exactive Orbitrap (Thermo Scientific)
Instrument type: LC-ESI-QFT
Ms type: MS2
Ion mode: NEGATIVE
Ionization: ESI
Fragmentation mode: HCD
Collision energy: 45
Resolution: 17500
Column name: Acquity BEH C18 1.7um, 2.1x150mm (Waters)
Retention time: 16.608 min
Base peak: 206.007
Precursor m/z: 375.1274
Precursor type: [M-H]-
Precursor intensity: 5809035.259766
m/z	relative intensity	assigned
76.0193	4	C5H2N-
89.0032	4	C6HO-
93.0147	2	C6H2F-
103.0302	34	C6H3N2-
108.0568	2	C5H6N3-
109.0096	4	C6H2FO-
111.025	2	CH3F2N3O-
113.0208	17	C6H3F2-
118.0411	10	C6H4N3-
119.0248	1	C6H3N2O-
127.0201	10	C6H4FO2-
129.0157	999	C6H3F2O-
130.0409	9	C7H4N3-
131.0493	1	C7H5N3-
132.0568	7	C7H6N3-
135.0676	8	C6H7N4-
136.0206	2	C7H3FNO-
138.036	4	C7H5FNO-
142.0473	2	C7H6F2N-
146.0361	1	C7H4N3O-
148.0516	20	C7H6N3O-
158.0359	8	C8H4N3O-
159.0677	2	C8H7N4-
160.0395	1	C7H4N4O-
173.0469	4	C8H5N4O-
175.0624	13	C8H7N4O-
176.0465	564	C8H6N3O2-
177.0543	22	C8H7N3O2-
185.0524	6	C11H6FN2-
186.0366	2	C11H5FNO-
187.0621	8	C9H7N4O-
188.0704	14	C9H8N4O-
190.0496	56	C8H6N4O2-
191.0339	1	C8H5N3O3-
203.0574	99	C9H7N4O2-
204.0653	11	C9H8N4O2-
213.0464	8	C12H6FN2O-
216.0466	14	C12H7FNO2-
228.0577	9	C12H7FN3O-
232.0688	2	C12H8F2N3-
236.0544	7	C12H8F2NO2-
241.0419	12	C13H6FN2O2-
242.0735	12	C13H9FN3O-
243.0574	5	C13H8FN2O2-
254.0372	99	C13H5FN3O2-
255.0449	28	C13H6FN3O2-
261.048	16	C13H7F2N2O2-
268.0535	10	C11H8F2N3O3-
270.0686	60	C14H9FN3O2-
281.0475	3	C14H6FN4O2-
282.0556	2	C14H7FN4O2-
283.0638	13	C14H8FN4O2-
288.0587	3	C14H8F2N3O2-
290.0745	27	C14H10F2N3O2-
297.0792	18	C15H10FN4O2-
303.07	51	C14H9F2N4O2-
317.0853	90	C15H11F2N4O2-
359.0964	3	C17H13F2N4O3-
