Mass spectrum: 4-Hexyloxyaniline; LC-ESI-QFT; MS2; CE: 75; R=17500; [M+H]+
Name: 4-Hexyloxyaniline
Name: 4-hexoxyaniline
Formula: C12H19NO
Exact mass: 193.1467
SMILES: CCCCCCOC1=CC=C(N)C=C1
InChI: InChI=1S/C12H19NO/c1-2-3-4-5-10-14-12-8-6-11(13)7-9-12/h6-9H,2-5,10,13H2,1H3
Instrument: Q Exactive Orbitrap (Thermo Scientific)
Instrument type: LC-ESI-QFT
Ms type: MS2
Ion mode: POSITIVE
Ionization: ESI
Fragmentation mode: HCD
Collision energy: 75
Resolution: 17500
Column name: Acquity BEH C18 1.7um, 2.1x150mm (Waters)
Retention time: 15.896 min
Base peak: 79.0211
Precursor m/z: 194.1539
Precursor type: [M+H]+
Precursor intensity: 17246421.375
m/z	relative intensity	assigned
53.0022	10	C3HO+
53.0386	1	C4H5+
53.9975	2	C2NO+
55.0178	3	C3H3O+
55.0542	8	C4H7+
57.0699	9	C4H9+
65.0386	779	C5H5+
67.0416	23	C4H5N+
67.0542	24	C5H7+
68.0494	3	C4H6N+
69.0335	2	C4H5O+
80.0495	28	C5H6N+
81.0573	20	C5H7N+
82.0651	150	C5H8N+
83.0491	6	C5H7O+
92.0495	337	C6H6N+
93.0335	230	C6H5O+
93.0573	39	C6H7N+
94.0415	1	C6H6O+
95.049	1	C6H7O+
108.0445	7	C6H6NO+
109.0523	109	C6H7NO+
110.0601	999	C6H8NO+
124.0758	5	C7H10NO+
194.1541	14	C12H20NO+
