Mass spectrum: Dicrotophos; LC-ESI-QFT; MS2; CE: 45; R=17500; [M+H]+
Name: Dicrotophos
Name: [(E)-4-(dimethylamino)-4-oxobut-2-en-2-yl] dimethyl phosphate
Formula: C8H16NO5P
Exact mass: 237.0766
SMILES: COP(=O)(OC)O\C(C)=C\C(=O)N(C)C
InChI: InChI=1S/C8H16NO5P/c1-7(6-8(10)9(2)3)14-15(11,12-4)13-5/h6H,1-5H3/b7-6+
Instrument: Q Exactive Orbitrap (Thermo Scientific)
Instrument type: LC-ESI-QFT
Ms type: MS2
Ion mode: POSITIVE
Ionization: ESI
Fragmentation mode: HCD
Collision energy: 45
Resolution: 17500
Column name: Acquity BEH C18 1.7um, 2.1x150mm (Waters)
Retention time: 11.813 min
Base peak: 79.0212
Precursor m/z: 238.0839
Precursor type: [M+H]+
Precursor intensity: 15452876.65625
m/z	relative intensity	assigned
53.0385	1	C4H5+
55.0178	7	C3H3O+
55.0416	2	C3H5N+
55.0542	4	C4H7+
56.013	1	C2H2NO+
56.0496	2	C3H6N+
58.0288	4	C2H4NO+
58.0651	18	C3H8N+
67.0178	118	C4H3O+
68.0494	2	C4H6N+
69.0335	5	C4H5O+
70.0651	71	C4H8N+
72.0443	999	C3H6NO+
81.0335	5	C5H5O+
84.0808	20	C5H10N+
94.0652	3	C6H8N+
110.0601	5	C6H8NO+
112.0757	600	C6H10NO+
112.9998	2	CH6O4P+
127.0155	709	C2H8O4P+
193.026	7	C6H10O5P+
