Mass spectrum: SSR 241586 HCl; LC-ESI-QFT; MS2; CE: 45; R=17500; [M+H]+
Name: SSR 241586 HCl
Name: 1-[2-[(2R)-4-benzoyl-2-(3,4-dichlorophenyl)morpholin-2-yl]ethyl]-N,N-dimethyl-4-piperidin-1-ylpiperidine-4-carboxamide
Formula: C32H42Cl2N4O3
Exact mass: 600.2634
SMILES: CN(C)C(=O)C1(N2CCCCC2)CCN(CC[C@@]2(c3ccc(Cl)c(Cl)c3)CN(C(=O)c3ccccc3)CCO2)CC1
InChI: InChI=1S/C32H42Cl2N4O3/c1-35(2)30(40)31(38-16-7-4-8-17-38)13-18-36(19-14-31)20-15-32(26-11-12-27(33)28(34)23-26)24-37(21-22-41-32)29(39)25-9-5-3-6-10-25/h3,5-6,9-12,23H,4,7-8,13-22,24H2,1-2H3/t32-/m0/s1
Instrument: Q Exactive Orbitrap (Thermo Scientific)
Instrument type: LC-ESI-QFT
Ms type: MS2
Ion mode: POSITIVE
Ionization: ESI
Fragmentation mode: HCD
Collision energy: 45
Resolution: 17500
Column name: Acquity BEH C18 1.7um, 2.1x150mm (Waters)
Retention time: 16.670 min
Base peak: 79.0211
Precursor m/z: 601.2707
Precursor type: [M+H]+
Precursor intensity: 10246118.25
m/z	relative intensity	assigned
53.0022	1	C3HO+
53.0385	6	C4H5+
55.0542	5	C4H7+
56.0495	6	C3H6N+
58.0651	299	C3H8N+
67.054	1	C5H7+
69.0698	19	C5H9+
70.0651	7	C4H8N+
72.0443	51	C3H6NO+
72.0808	10	C4H10N+
74.0599	7	C3H8NO+
77.0382	4	C6H5+
81.0334	2	C5H5O+
82.0649	3	C5H8N+
83.0491	4	C5H7O+
84.0808	25	C5H10N+
86.06	35	C4H8NO+
86.0963	3	C5H12N+
95.0491	13	C6H7O+
96.0807	5	C6H10N+
98.0964	18	C6H12N+
104.0494	64	C7H6N+
105.0335	638	C5H3N3+
108.0805	1	C7H10N+
110.0964	21	C7H12N+
112.112	1	C7H14N+
122.0598	2	C7H8NO+
124.1123	4	C8H14N+
126.0913	895	C7H12NO+
136.0758	1	C8H10NO+
136.1121	1	C9H14N+
138.1277	999	C9H16N+
148.0756	371	C9H10NO+
149.0597	90	C9H9O2+
150.1273	1	C10H16N+
152.1434	1	C10H18N+
158.9761	4	C7H5Cl2+
166.0857	1	C9H12NO2+
178.0861	10	C10H12NO2+
191.0496	1	C11H10ClN+
193.0652	1	C11H12ClN+
196.9918	2	C10H7Cl2+
199.0074	2	C10H9Cl2+
212.003	2	C10H8Cl2N+
214.0184	16	C10H10Cl2N+
224.003	1	C11H8Cl2N+
226.0184	60	C11H10Cl2N+
227.0262	2	C11H11Cl2N+
228.034	205	C11H12Cl2N+
240.0341	5	C12H12Cl2N+
244.029	16	C11H12Cl2NO+
252.0337	5	C16H9ClO+
256.0287	5	C15H9ClO2+
270.0446	19	C13H14Cl2NO+
318.0443	11	C20H11ClO2+
332.0603	8	C18H16Cl2NO+
334.0395	31	C17H14Cl2NO2+
362.0709	29	C19H18Cl2NO2+
373.0871	3	C20H19Cl2N2O+
391.0976	81	C20H21Cl2N2O2+
