Mass spectrum: Propamocarb; LC-ESI-QFT; MS2; CE: 90; R=17500; [M+H]+
Name: Propamocarb
Name: propyl N-[3-(dimethylamino)propyl]carbamate
Formula: C9H20N2O2
Exact mass: 188.1525
SMILES: CCCOC(=O)NCCCN(C)C
InChI: InChI=1S/C9H20N2O2/c1-4-8-13-9(12)10-6-5-7-11(2)3/h4-8H2,1-3H3,(H,10,12)
Instrument: Q Exactive Orbitrap (Thermo Scientific)
Instrument type: LC-ESI-QFT
Ms type: MS2
Ion mode: POSITIVE
Ionization: ESI
Fragmentation mode: HCD
Collision energy: 90
Resolution: 17500
Column name: Acquity BEH C18 1.7um, 2.1x150mm (Waters)
Retention time: 7.607 min
Base peak: 79.0212
Precursor m/z: 189.1598
Precursor type: [M+H]+
Precursor intensity: 11340582.5
m/z	relative intensity	assigned
53.0022	12	C3HO+
53.9974	1	C2NO+
56.0131	6	C2H2NO+
56.0494	5	C3H6N+
58.0651	318	C3H8N+
71.0728	3	C4H9N+
74.0236	999	C2H4NO2+
84.0444	4	C4H6NO+
84.0807	5	C5H10N+
86.0964	30	C5H12N+
102.0549	425	C4H8NO2+
106.0651	1	C7H8N+
129.1021	1	C6H13N2O+
