Mass spectrum: Pyrazophos; LC-ESI-QFT; MS2; CE: 45; R=17500; [M+H]+
Name: Pyrazophos
Name: ethyl 2-diethoxyphosphinothioyloxy-5-methylpyrazolo[1,5-a]pyrimidine-6-carboxylate
Formula: C14H20N3O5PS
Exact mass: 373.0861
SMILES: CCOC(=O)C1=CN2N=C(OP(=S)(OCC)OCC)C=C2N=C1C
InChI: InChI=1S/C14H20N3O5PS/c1-5-19-14(18)11-9-17-12(15-10(11)4)8-13(16-17)22-23(24,20-6-2)21-7-3/h8-9H,5-7H2,1-4H3
Instrument: Q Exactive Orbitrap (Thermo Scientific)
Instrument type: LC-ESI-QFT
Ms type: MS2
Ion mode: POSITIVE
Ionization: ESI
Fragmentation mode: HCD
Collision energy: 45
Resolution: 17500
Column name: Acquity BEH C18 1.7um, 2.1x150mm (Waters)
Retention time: 18.878 min
Base peak: 79.0211
Precursor m/z: 374.0934
Precursor type: [M+H]+
Precursor intensity: 13424923.625
m/z	relative intensity	assigned
61.0106	1	C2H5S+
64.9786	19	H2O2P+
82.9892	6	H4O3P+
93.01	40	C2H6O2P+
96.9506	3	H2O2PS+
98.9664	3	H4O2PS+
98.9841	7	H4O4P+
109.0048	3	C2H6O3P+
111.0205	1	C2H8O3P+
113.9535	100	H3O3PS+
114.9613	157	H4O3PS+
124.982	1	C2H6O2PS+
125.9899	4	C2H7O2PS+
128.9769	4	CH6O3PS+
130.9562	9	H4O4PS+
131.964	1	H5O4PS+
132.9717	1	H6O4PS+
139.0503	1	C6H7N2O2+
140.9767	2	C2H6O3PS+
141.9847	29	C2H7O3PS+
142.9925	20	C2H8O3PS+
146.9875	1	CH8O4PS+
148.0502	7	C7H6N3O+
149.0589	2	CH13N2O4S+
150.0658	1	C7H8N3O+
151.0501	2	C7H7N2O2+
159.0425	6	C8H5N3O+
165.0117	3	C7H5N2OS+
166.0611	9	C7H8N3O2+
170.0159	16	C4H11O3PS+
176.0454	175	C8H6N3O2+
177.0531	91	C8H7N3O2+
178.0612	6	C8H8N3O2+
180.0893	6	C9H12N2O2+
183.0222	71	C7H7N2O2S+
184.9668	2	C3H6O5PS+
190.0065	2	C8H4N3OS+
192.0226	33	C8H6N3OS+
194.0559	999	C8H8N3O3+
199.0173	8	C7H7N2O3S+
204.0768	2	C10H10N3O2+
205.0845	85	C10H11N3O2+
206.0924	10	C10H12N3O2+
208.0175	27	C8H6N3O2S+
208.0715	6	C9H10N3O3+
209.038	4	C9H9N2O2S+
210.0331	165	C8H8N3O2S+
211.0535	79	C9H11N2O2S+
222.0871	726	C10H12N3O3+
227.0482	5	C9H11N2O3S+
236.0487	36	C10H10N3O2S+
238.0643	152	C10H12N3O2S+
241.0636	1	C10H13N2O3S+
250.118	1	C12H16N3O3+
253.9776	4	C12H2N2O3S+
256.0113	4	C12H4N2O5+
274.0225	5	C14H11O2PS+
289.9995	6	C8H9N3O5PS+
300.0202	13	C10H11N3O4PS+
302.0538	2	C14H13N3OPS+
303.9443	7	C12H3NO5PS+
318.0307	9	C10H13N3O5PS+
328.0513	2	C12H15N3O4PS+
332.046	2	C11H15N3O5PS+
346.0616	3	C12H17N3O5PS+
