Mass spectrum: Acetyl tributyl citrate; LC-ESI-QFT; MS2; CE: 15; R=17500; [M+H]+
Name: Acetyl tributyl citrate
Name: tributyl 2-acetyloxypropane-1,2,3-tricarboxylate
Formula: C20H34O8
Exact mass: 402.2254
SMILES: CCCCOC(=O)CC(CC(=O)OCCCC)(OC(C)=O)C(=O)OCCCC
InChI: InChI=1S/C20H34O8/c1-5-8-11-25-17(22)14-20(28-16(4)21,19(24)27-13-10-7-3)15-18(23)26-12-9-6-2/h5-15H2,1-4H3
Instrument: Q Exactive Orbitrap (Thermo Scientific)
Instrument type: LC-ESI-QFT
Ms type: MS2
Ion mode: POSITIVE
Ionization: ESI
Fragmentation mode: HCD
Collision energy: 15
Resolution: 17500
Column name: Acquity BEH C18 1.7um, 2.1x150mm (Waters)
Retention time: 19.698 min
Base peak: 79.0211
Precursor m/z: 403.2326
Precursor type: [M+H]+
Precursor intensity: 8475221.375
m/z	relative intensity	assigned
129.0184	210	C5H5O4+
157.0131	911	C6H5O5+
185.0809	999	C9H13O4+
217.0344	913	C8H9O7+
