Mass spectrum: Indapamide; LC-ESI-QFT; MS2; CE: 45; R=17500; [M-H]-
Name: Indapamide
Name: 4-chloro-N-(2-methyl-2,3-dihydroindol-1-yl)-3-sulfamoylbenzamide
Formula: C16H16ClN3O3S
Exact mass: 365.0601
SMILES: CC1CC2=C(C=CC=C2)N1NC(=O)C1=CC(=C(Cl)C=C1)S(N)(=O)=O
InChI: InChI=1S/C16H16ClN3O3S/c1-10-8-11-4-2-3-5-14(11)20(10)19-16(21)12-6-7-13(17)15(9-12)24(18,22)23/h2-7,9-10H,8H2,1H3,(H,19,21)(H2,18,22,23)
Instrument: Q Exactive Orbitrap (Thermo Scientific)
Instrument type: LC-ESI-QFT
Ms type: MS2
Ion mode: NEGATIVE
Ionization: ESI
Fragmentation mode: HCD
Collision energy: 45
Resolution: 17500
Column name: Acquity BEH C18 1.7um, 2.1x150mm (Waters)
Retention time: 14.992 min
Base peak: 112.9857
Precursor m/z: 364.0528
Precursor type: [M-H]-
Precursor intensity: 3161014.345459
m/z	relative intensity	assigned
53.0033	64	C3HO-
61.9706	91	NOS-
63.9625	322	O2S-
65.0034	13	C4HO-
65.9986	53	C3NO-
68.0142	48	C3H2NO-
77.0033	166	C5HO-
77.9655	645	NO2S-
78.9734	272	HNO2S-
79.9812	471	H2NO2S-
80.9652	21	HO3S-
81.0219	43	C4H3NO-
90.035	52	C6H4N-
91.0303	22	C5H3N2-
92.0142	207	C5H2NO-
92.998	44	C5HO2-
93.0222	35	C5H3NO-
93.9605	169	NO3S-
96.009	10	C4H2NO2-
98.9312	70	ClO2S-
103.9904	35	C6O2-
105.022	556	C6H3NO-
106.006	303	C6H2O2-
107.9914	25	C5H2NS-
109.017	17	C5H3NO2-
112.98	35	C5H2ClO-
113.9423	40	ClHNO2S-
114.9501	18	ClH2NO2S-
116.0505	32	C8H6N-
120.0091	69	C6H2NO2-
120.033	120	C6H4N2O-
120.9931	253	C6HO3-
123.0086	22	C6H3O3-
125.0038	26	C6H4ClN-
126.0116	442	C6H5ClN-
127.9908	13	C5H3ClNO-
130.0663	76	C9H8N-
131.0251	105	C7H3N2O-
132.0329	999	C7H4N2O-
132.0817	70	C9H10N-
140.9988	19	C6H4ClNO-
141.9827	212	C6H3ClO2-
148.0279	252	C7H4N2O2-
151.0068	52	C7H4ClN2-
151.9909	69	C7H3ClNO-
152.989	14	C6H3NO2S-
153.997	45	C6H4NO2S-
164.0227	41	C7H4N2O3-
167.0018	80	C7H4ClN2O-
168.0098	48	C7H5ClN2O-
168.9839	20	C6H3NO3S-
169.0174	49	C7H6ClN2O-
173.0718	30	C10H9N2O-
178.992	83	C7H3N2O2S-
188.9657	404	C6H4ClNO2S-
189.9736	303	C6H5ClNO2S-
195.9945	13	C7H4N2O3S-
197.0027	44	C7H5N2O3S-
204.9606	134	C6H4ClNO3S-
214.9688	524	C7H4ClN2O2S-
215.9528	167	C7H3ClNO3S-
230.963	13	C7H4ClN2O3S-
232.9795	107	C7H6ClN2O3S-
364.0527	64	C16H15ClN3O3S-
