Mass spectrum: Carbetamide; LC-ESI-QFT; MS2; CE: 75; R=17500; [M+H]+
Name: Carbetamide
Name: [1-(ethylamino)-1-oxopropan-2-yl] N-phenylcarbamate
Formula: C12H16N2O3
Exact mass: 236.1161
SMILES: CCNC(=O)C(C)OC(=O)NC1=CC=CC=C1
InChI: InChI=1S/C12H16N2O3/c1-3-13-11(15)9(2)17-12(16)14-10-7-5-4-6-8-10/h4-9H,3H2,1-2H3,(H,13,15)(H,14,16)
Instrument: Q Exactive Orbitrap (Thermo Scientific)
Instrument type: LC-ESI-QFT
Ms type: MS2
Ion mode: POSITIVE
Ionization: ESI
Fragmentation mode: HCD
Collision energy: 75
Resolution: 17500
Column name: Acquity BEH C18 1.7um, 2.1x150mm (Waters)
Retention time: 14.852 min
Base peak: 79.0211
Precursor m/z: 237.1234
Precursor type: [M+H]+
Precursor intensity: 4187420
m/z	relative intensity	assigned
55.0179	45	C3H3O+
67.0543	23	C5H7+
71.0605	42	C3H7N2+
72.0445	40	C3H6NO+
72.0808	300	C4H10N+
79.0543	37	C6H7+
81.0448	83	C4H5N2+
81.0699	39	C6H9+
82.0652	28	C5H8N+
84.0809	146	C5H10N+
92.0497	99	C6H6N+
95.0492	53	C6H7O+
96.0809	46	C6H10N+
109.0762	226	C6H9N2+
110.0966	34	C7H12N+
120.0444	136	C7H6NO+
122.0714	359	C8H10O+
123.0793	31	C8H11O+
123.0919	46	C7H11N2+
124.0872	27	C8H12O+
126.1279	120	C8H16N+
136.0871	686	C9H12O+
137.0951	130	C9H13O+
138.0674	26	C8H10O2+
150.1028	972	C10H14O+
151.0983	104	C9H13NO+
151.1105	293	C10H15O+
151.1232	35	C9H15N2+
165.1139	140	C10H15NO+
165.1261	141	C11H17O+
166.0979	124	C10H14O2+
166.121	28	C10H16NO+
179.1293	999	C11H17NO+
