Mass spectrum: Fludioxonil; LC-ESI-QFT; MS2; CE: 60; R=17500; [M-H]-
Name: Fludioxonil
Name: 4-(2,2-difluoro-1,3-benzodioxol-4-yl)-1H-pyrrole-3-carbonitrile
Formula: C12H6F2N2O2
Exact mass: 248.0397
SMILES: FC1(F)OC2=CC=CC(=C2O1)C1=CNC=C1C#N
InChI: InChI=1S/C12H6F2N2O2/c13-12(14)17-10-3-1-2-8(11(10)18-12)9-6-16-5-7(9)4-15/h1-3,5-6,16H
Instrument: Q Exactive Orbitrap (Thermo Scientific)
Instrument type: LC-ESI-QFT
Ms type: MS2
Ion mode: NEGATIVE
Ionization: ESI
Fragmentation mode: HCD
Collision energy: 60
Resolution: 17500
Column name: Acquity BEH C18 1.7um, 2.1x150mm (Waters)
Retention time: 17.532 min
Base peak: 247.0324
Precursor m/z: 247.0325
Precursor type: [M-H]-
Precursor intensity: 165427631.3086
m/z	relative intensity	assigned
50.0034	6	C3N-
64.0067	2	C3N2-
65.0145	28	C3HN2-
65.9985	4	C3NO-
70.9939	20	C3FO-
89.0145	66	C5HN2-
89.0397	23	C7H5-
94.9939	15	C5FO-
100.019	1	C7H2N-
102.0349	1	C7H4N-
114.0349	9	C8H4N-
115.0301	5	C7H3N2-
117.046	1	C7H5N2-
124.0192	5	C9H2N-
126.0349	532	C9H4N-
127.0301	25	C8H3N2-
130.0299	4	C8H4NO-
139.03	10	C9H3N2-
141.046	14	C9H5N2-
142.0299	2	C9H4NO-
143.0247	1	C8H3N2O-
144.0255	6	C9H3FN-
145.0408	7	C8H5N2O-
151.0301	175	C10H3N2-
152.038	38	C10H4N2-
153.0458	90	C10H5N2-
154.0296	10	C10H4NO-
155.0252	7	C9H3N2O-
163.0302	3	C11H3N2-
167.0247	3	C10H3N2O-
169.0407	197	C10H5N2O-
170.0247	5	C10H4NO2-
171.0364	14	C10H4FN2-
172.0205	6	C10H3FNO-
179.0251	79	C11H3N2O-
180.0329	626	C11H4N2O-
181.0407	221	C11H5N2O-
183.0204	2	C10H3N2O2-
183.0363	15	C11H4FN2-
195.0199	13	C11H3N2O2-
197.0356	102	C11H5N2O2-
198.0236	5	C11H3FN2O-
199.0313	61	C11H4FN2O-
200.0393	4	C11H5FN2O-
207.0197	11	C12H3N2O2-
220.0216	3	C11H4F2NO2-
227.0262	13	C12H4FN2O2-
247.0324	999	C12H5F2N2O2-
