Mass spectrum: Hexamethylphosphoramide; LC-ESI-QFT; MS2; CE: 75; R=17500; [M+H]+
Name: Hexamethylphosphoramide
Name: N-[bis(dimethylamino)phosphoryl]-N-methylmethanamine
Formula: C6H18N3OP
Exact mass: 179.1187
SMILES: CN(C)P(=O)(N(C)C)N(C)C
InChI: InChI=1S/C6H18N3OP/c1-7(2)11(10,8(3)4)9(5)6/h1-6H3
Instrument: Q Exactive Orbitrap (Thermo Scientific)
Instrument type: LC-ESI-QFT
Ms type: MS2
Ion mode: POSITIVE
Ionization: ESI
Fragmentation mode: HCD
Collision energy: 75
Resolution: 17500
Column name: Acquity BEH C18 1.7um, 2.1x150mm (Waters)
Retention time: 13.053 min
Base peak: 79.0211
Precursor m/z: 180.126
Precursor type: [M+H]+
Precursor intensity: 30980862.125
m/z	relative intensity	assigned
58.0652	1	C3H8N+
59.9998	8	CH3NP+
73.076	18	C3H9N2+
75.9947	4	CH3NOP+
88.0995	11	C4H12N2+
90.0103	5	C2H5NOP+
91.0182	13	C2H6NOP+
92.026	165	C2H7NOP+
93.0338	1	C2H8NOP+
106.0417	11	C3H9NOP+
111.0442	1	C4H5N3O+
124.0523	1	C5H6N3O+
135.0682	999	C4H12N2OP+
