Mass spectrum: CI-1029; LC-ESI-QFT; MS2; CE: 60; R=17500; [M-H]-
Name: CI-1029
Name: (2S)-2-[2-(4-aminophenyl)ethyl]-5-[2-tert-butyl-4-(hydroxymethyl)-5-methylphenyl]sulfanyl-4-hydroxy-2-propan-2-yl-3H-pyran-6-one
Formula: C28H37NO4S
Exact mass: 483.2443
SMILES: CC(C)[C@]1(CCC2=CC=C(N)C=C2)CC(O)=C(SC2=CC(C)=C(CO)C=C2C(C)(C)C)C(=O)O1
InChI: InChI=1S/C28H37NO4S/c1-17(2)28(12-11-19-7-9-21(29)10-8-19)15-23(31)25(26(32)33-28)34-24-13-18(3)20(16-30)14-22(24)27(4,5)6/h7-10,13-14,17,30-31H,11-12,15-16,29H2,1-6H3/t28-/m0/s1
Instrument: Q Exactive Orbitrap (Thermo Scientific)
Instrument type: LC-ESI-QFT
Ms type: MS2
Ion mode: NEGATIVE
Ionization: ESI
Fragmentation mode: HCD
Collision energy: 60
Resolution: 17500
Column name: Acquity BEH C18 1.7um, 2.1x150mm (Waters)
Retention time: 15.677 min
Base peak: 356.1305
Precursor m/z: 482.2371
Precursor type: [M-H]-
Precursor intensity: 1914659.571777
m/z	relative intensity	assigned
59.9675	121	COS-
60.9753	5	CHOS-
63.9625	85	O2S-
70.9961	36	C3H3S-
71.9675	856	C2OS-
72.9753	27	C2HOS-
85.0659	21	C5H9O-
111.9988	35	C5H4OS-
113.0431	16	C6H9S-
113.9781	6	C4H2O2S-
135.0271	9	C8H7S-
138.051	10	C8H10S-
141.038	24	C7H9OS-
146.0608	6	C9H8NO-
155.9889	25	C6H4O3S-
162.0926	29	C10H12NO-
163.0223	23	C9H7OS-
169.1026	7	C13H13-
173.0429	11	C11H9S-
175.0584	5	C11H11S-
186.0513	10	C12H10S-
187.0589	11	C12H11S-
188.0664	40	C12H12S-
191.09	62	C12H15S-
203.09	999	C13H15S-
204.0615	14	C12H12OS-
205.0689	13	C12H13OS-
209.1003	19	C12H17OS-
215.0534	7	C13H11OS-
218.0645	28	C12H12NOS-
219.0849	288	C13H15OS-
221.028	38	C11H9O3S-
221.1006	45	C13H17OS-
231.0848	198	C14H15OS-
233.063	11	C13H13O2S-
247.0798	17	C14H15O2S-
249.0955	514	C14H17O2S-
251.0382	13	C12H11O4S-
305.1086	26	C16H19NO3S-
333.1177	6	C18H21O4S-
