Mass spectrum: Bupirimate; LC-ESI-QFT; MS2; CE: 15; R=17500; [M+H]+
Name: Bupirimate
Name: [5-butyl-2-(ethylamino)-6-methylpyrimidin-4-yl] N,N-dimethylsulfamate
Formula: C13H24N4O3S
Exact mass: 316.1569
SMILES: CCCCC1=C(OS(=O)(=O)N(C)C)N=C(NCC)N=C1C
InChI: InChI=1S/C13H24N4O3S/c1-6-8-9-11-10(3)15-13(14-7-2)16-12(11)20-21(18,19)17(4)5/h6-9H2,1-5H3,(H,14,15,16)
Instrument: Q Exactive Orbitrap (Thermo Scientific)
Instrument type: LC-ESI-QFT
Ms type: MS2
Ion mode: POSITIVE
Ionization: ESI
Fragmentation mode: HCD
Collision energy: 15
Resolution: 17500
Column name: Acquity BEH C18 1.7um, 2.1x150mm (Waters)
Retention time: 17.276 min
Base peak: 79.0211
Precursor m/z: 317.1642
Precursor type: [M+H]+
Precursor intensity: 30046232.75
m/z	relative intensity	assigned
108.0122	3	C2H6NO2S+
150.1021	1	C8H12N3+
166.097	2	C8H12N3O+
192.1492	1	C11H18N3+
208.1436	1	C11H18N3O+
209.1522	4	C11H19N3O+
210.1598	3	C11H20N3O+
237.2071	10	C13H25N4+
272.106	5	C11H18N3O3S+
317.1639	999	C13H25N4O3S+
