Mass spectrum: Trinexapac-ethyl; LC-ESI-QFT; MS2; CE: 45; R=17500; [M-H]-
Name: Trinexapac-ethyl
Name: ethyl 4-[cyclopropyl(hydroxy)methylidene]-3,5-dioxocyclohexane-1-carboxylate
Formula: C13H16O5
Exact mass: 252.0998
SMILES: CCOC(=O)C1CC(=O)C(=C(O)C2CC2)C(=O)C1
InChI: InChI=1S/C13H16O5/c1-2-18-13(17)8-5-9(14)11(10(15)6-8)12(16)7-3-4-7/h7-8,16H,2-6H2,1H3
Instrument: Q Exactive Orbitrap (Thermo Scientific)
Instrument type: LC-ESI-QFT
Ms type: MS2
Ion mode: NEGATIVE
Ionization: ESI
Fragmentation mode: HCD
Collision energy: 45
Resolution: 17500
Column name: Acquity BEH C18 1.7um, 2.1x150mm (Waters)
Retention time: 17.193 min
Base peak: 284.0962
Precursor m/z: 251.0925
Precursor type: [M-H]-
Precursor intensity: 388423.9350586
m/z	relative intensity	assigned
83.0502	174	C5H7O-
85.0296	51	C4H5O2-
95.0138	163	C5H3O2-
107.0502	62	C7H7O-
109.0295	310	C6H5O2-
122.0373	45	C7H6O2-
133.0658	503	C9H9O-
135.009	79	C7H3O3-
137.0608	999	C8H9O2-
161.0609	384	C10H9O2-
163.0399	180	C9H7O3-
177.0558	741	C10H9O3-
179.1074	48	C11H15O2-
183.0661	168	C9H11O4-
205.0504	129	C11H9O4-
251.0926	748	C13H15O5-
