Mass spectrum: Napropamide; LC-ESI-QFT; MS2; CE: 90; R=17500; [M+H]+
Name: Napropamide
Name: N,N-diethyl-2-naphthalen-1-yloxypropanamide
Formula: C17H21NO2
Exact mass: 271.1572
SMILES: CCN(CC)C(=O)C(C)OC1=C2C=CC=CC2=CC=C1
InChI: InChI=1S/C17H21NO2/c1-4-18(5-2)17(19)13(3)20-16-12-8-10-14-9-6-7-11-15(14)16/h6-13H,4-5H2,1-3H3
Instrument: Q Exactive Orbitrap (Thermo Scientific)
Instrument type: LC-ESI-QFT
Ms type: MS2
Ion mode: POSITIVE
Ionization: ESI
Fragmentation mode: HCD
Collision energy: 90
Resolution: 17500
Column name: Acquity BEH C18 1.7um, 2.1x150mm (Waters)
Retention time: 18.023 min
Base peak: 79.0211
Precursor m/z: 272.1645
Precursor type: [M+H]+
Precursor intensity: 37795745.96875
m/z	relative intensity	assigned
55.0179	51	C3H3O+
56.0495	4	C3H6N+
57.0335	217	C3H5O+
58.0651	830	C3H8N+
60.0809	3	C3H10N+
65.0386	7	C5H5+
72.0444	117	C3H6NO+
72.0807	234	C4H10N+
74.0964	86	C4H12N+
86.06	23	C4H8NO+
91.0542	28	C7H7+
100.0757	57	C5H10NO+
100.112	57	C6H14N+
101.0833	8	C5H11NO+
103.0542	30	C8H7+
114.0914	14	C6H12NO+
115.0542	137	C9H7+
116.062	17	C9H8+
117.0699	8	C9H9+
127.0542	43	C10H7+
128.062	999	C10H8+
129.0698	43	C10H9+
131.0489	2	C9H7O+
141.0699	45	C11H9+
142.0777	12	C11H10+
143.0492	17	C10H7O+
143.0856	158	C11H11+
144.057	20	C10H8O+
145.0648	122	C10H9O+
152.0621	397	C12H8+
153.0698	203	C12H9+
154.0776	6	C12H10+
156.057	3	C11H8O+
169.0648	40	C12H9O+
170.0724	9	C12H10O+
171.0804	73	C12H11O+
