Mass spectrum: Hexamethylphosphoramide; LC-ESI-QFT; MS2; CE: 15; R=17500; [M+H]+
Name: Hexamethylphosphoramide
Name: N-[bis(dimethylamino)phosphoryl]-N-methylmethanamine
Formula: C6H18N3OP
Exact mass: 179.1187
SMILES: CN(C)P(=O)(N(C)C)N(C)C
InChI: InChI=1S/C6H18N3OP/c1-7(2)11(10,8(3)4)9(5)6/h1-6H3
Instrument: Q Exactive Orbitrap (Thermo Scientific)
Instrument type: LC-ESI-QFT
Ms type: MS2
Ion mode: POSITIVE
Ionization: ESI
Fragmentation mode: HCD
Collision energy: 15
Resolution: 17500
Column name: Acquity BEH C18 1.7um, 2.1x150mm (Waters)
Retention time: 13.053 min
Base peak: 79.0211
Precursor m/z: 180.126
Precursor type: [M+H]+
Precursor intensity: 23461530.71875
m/z	relative intensity	assigned
135.0681	999	C4H12N2OP+
137.0837	16	C4H14N2OP+
180.1259	405	C6H19N3OP+
