Mass spectrum: Glipizide; LC-ESI-QFT; MS2; CE: 60; R=17500; [M+H]+
Name: Glipizide
Name: N-[2-[4-(cyclohexylcarbamoylsulfamoyl)phenyl]ethyl]-5-methylpyrazine-2-carboxamide
Formula: C21H27N5O4S
Exact mass: 445.1784
SMILES: CC1=NC=C(N=C1)C(=O)NCCC1=CC=C(C=C1)S(=O)(=O)NC(=O)NC1CCCCC1
InChI: InChI=1S/C21H27N5O4S/c1-15-13-24-19(14-23-15)20(27)22-12-11-16-7-9-18(10-8-16)31(29,30)26-21(28)25-17-5-3-2-4-6-17/h7-10,13-14,17H,2-6,11-12H2,1H3,(H,22,27)(H2,25,26,28)
Instrument: Q Exactive Orbitrap (Thermo Scientific)
Instrument type: LC-ESI-QFT
Ms type: MS2
Ion mode: POSITIVE
Ionization: ESI
Fragmentation mode: HCD
Collision energy: 60
Resolution: 17500
Column name: Acquity BEH C18 1.7um, 2.1x150mm (Waters)
Retention time: 16.353 min
Base peak: 79.0211
Precursor m/z: 446.1857
Precursor type: [M+H]+
Precursor intensity: 3662973.9375
m/z	relative intensity	assigned
52.0182	13	C3H2N+
53.0386	49	C4H5+
55.0179	7	C3H3O+
55.0543	52	C4H7+
66.0338	86	C4H4N+
77.0386	21	C6H5+
79.0543	13	C6H7+
83.0856	120	C6H11+
91.0543	29	C7H7+
93.0448	15	C5H5N2+
93.07	8	C7H9+
95.0493	128	C6H7O+
95.0604	24	C5H7N2+
100.1121	65	C6H14N+
102.0465	15	C8H6+
103.0543	824	C8H7+
104.0494	8	C7H6N+
104.0621	49	C8H8+
105.0448	60	C6H5N2+
107.0492	87	C7H7O+
111.0554	999	C5H7N2O+
118.0412	13	C8H6O+
119.0492	97	C8H7O+
119.0731	55	C8H9N+
120.0559	112	C6H6N3+
120.0809	33	C8H10N+
121.0649	298	C8H9O+
125.071	19	C6H9N2O+
131.0605	679	C8H7N2+
139.0213	53	C7H7OS+
139.0503	282	C6H7N2O2+
148.0217	58	C8H6NS+
149.0058	12	C8H5OS+
150.0663	177	C7H8N3O+
166.0323	32	C8H8NOS+
167.0162	117	C8H7O2S+
168.0809	10	C12H10N+
182.0839	7	C12H10N2+
183.0919	73	C12H11N2+
184.0428	9	C8H10NO2S+
184.0998	7	C12H12N2+
195.0919	18	C13H11N2+
201.0463	9	C8H11NO3S+
210.0225	10	C9H8NO3S+
211.0869	25	C13H11N2O+
220.0871	6	C14H10N3+
222.1029	58	C14H12N3+
223.0872	11	C8H17NO4S+
226.0977	13	C13H12N3O+
