Mass spectrum: Tamoxifen; LC-ESI-QFT; MS2; CE: 45; R=17500; [M+H]+
Name: Tamoxifen
Name: 2-[4-[(Z)-1,2-diphenylbut-1-enyl]phenoxy]-N,N-dimethylethanamine
Formula: C26H29NO
Exact mass: 371.2249
SMILES: CC\C(=C(/C1=CC=CC=C1)C1=CC=C(OCCN(C)C)C=C1)C1=CC=CC=C1
InChI: InChI=1S/C26H29NO/c1-4-25(21-11-7-5-8-12-21)26(22-13-9-6-10-14-22)23-15-17-24(18-16-23)28-20-19-27(2)3/h5-18H,4,19-20H2,1-3H3/b26-25-
Instrument: Q Exactive Orbitrap (Thermo Scientific)
Instrument type: LC-ESI-QFT
Ms type: MS2
Ion mode: POSITIVE
Ionization: ESI
Fragmentation mode: HCD
Collision energy: 45
Resolution: 17500
Column name: Acquity BEH C18 1.7um, 2.1x150mm (Waters)
Retention time: 17.455 min
Base peak: 79.0212
Precursor m/z: 372.2322
Precursor type: [M+H]+
Precursor intensity: 32767346
m/z	relative intensity	assigned
56.0495	11	C3H6N+
57.0573	12	C3H7N+
58.0651	20	C3H8N+
70.0651	60	C4H8N+
72.0807	999	C4H10N+
91.0542	23	C7H7+
105.0698	6	C8H9+
107.0491	3	C7H7O+
128.062	1	C10H8+
129.0698	38	C10H9+
147.0805	1	C10H11O+
165.0697	1	C13H9+
167.0854	3	C13H11+
171.0804	1	C12H11O+
178.0775	5	C14H10+
179.0855	3	C14H11+
191.0849	1	C15H11+
192.0935	1	C15H12+
193.1011	4	C15H13+
194.0726	1	C14H10O+
205.101	1	C16H13+
206.1087	2	C16H14+
207.0804	2	C15H11O+
207.1167	1	C16H15+
208.0882	1	C15H12O+
209.096	3	C15H13O+
221.0959	2	C16H13O+
222.1037	1	C16H14O+
234.1038	1	C17H14O+
243.1166	1	C19H15+
249.1275	1	C18H17O+
253.1015	1	C20H13+
254.1092	2	C20H14+
255.1165	1	C20H15+
271.1118	1	C20H15O+
283.1114	1	C21H15O+
285.1271	3	C21H17O+
298.135	2	C22H18O+
300.1512	1	C22H20O+
372.2322	1	C26H30NO+
