Mass spectrum: Coumatetralyl; LC-ESI-QFT; MS2; CE: 30; R=17500; [M+H]+
Name: Coumatetralyl
Name: 4-hydroxy-3-(1,2,3,4-tetrahydronaphthalen-1-yl)chromen-2-one
Formula: C19H16O3
Exact mass: 292.1099
SMILES: OC1=C(C2CCCC3=C2C=CC=C3)C(=O)OC2=C1C=CC=C2
InChI: InChI=1S/C19H16O3/c20-18-15-9-3-4-11-16(15)22-19(21)17(18)14-10-5-7-12-6-1-2-8-13(12)14/h1-4,6,8-9,11,14,20H,5,7,10H2
Instrument: Q Exactive Orbitrap (Thermo Scientific)
Instrument type: LC-ESI-QFT
Ms type: MS2
Ion mode: POSITIVE
Ionization: ESI
Fragmentation mode: HCD
Collision energy: 30
Resolution: 17500
Column name: Acquity BEH C18 1.7um, 2.1x150mm (Waters)
Retention time: 18.147 min
Base peak: 79.0211
Precursor m/z: 293.1172
Precursor type: [M+H]+
Precursor intensity: 17985776.57812
m/z	relative intensity	assigned
65.0384	1	C5H5+
77.0384	1	C6H5+
91.0542	279	C7H7+
95.0491	3	C6H7O+
105.0698	23	C8H9+
107.049	5	C7H7O+
117.0698	1	C9H9+
119.0855	12	C9H11+
121.0282	12	C7H5O2+
128.0619	1	C10H8+
129.0698	14	C10H9+
131.0855	207	C10H11+
147.0439	11	C9H7O2+
159.0442	3	C10H7O2+
163.0389	129	C9H7O3+
171.0802	1	C12H11O+
175.0389	999	C10H7O3+
177.0542	1	C10H9O3+
187.0752	6	C12H11O2+
189.0545	37	C11H9O3+
201.0542	3	C12H9O3+
215.0701	37	C13H11O3+
247.1117	1	C18H15O+
275.1066	2	C19H15O2+
291.1017	1	C19H15O3+
293.117	994	C19H17O3+
