Mass spectrum: 4,4`-Sulfonylbis[2-(prop-2-en-1-yl)phenol]; LC-ESI-QFT; MS2; CE: 30; R=17500; [M-H]-
Name: 4,4'-Sulfonylbis[2-(prop-2-en-1-yl)phenol]
Name: Phenol, 4,4'-sulfonylbis[2-(2-propenyl)-
Name: 4-(4-hydroxy-3-prop-2-enylphenyl)sulfonyl-2-prop-2-enylphenol
Formula: C18H18O4S
Exact mass: 330.0926
SMILES: OC1=C(CC=C)C=C(C=C1)S(=O)(=O)C1=CC(CC=C)=C(O)C=C1
InChI: InChI=1S/C18H18O4S/c1-3-5-13-11-15(7-9-17(13)19)23(21,22)16-8-10-18(20)14(12-16)6-4-2/h3-4,7-12,19-20H,1-2,5-6H2
Instrument: Q Exactive Orbitrap (Thermo Scientific)
Instrument type: LC-ESI-QFT
Ms type: MS2
Ion mode: NEGATIVE
Ionization: ESI
Fragmentation mode: HCD
Collision energy: 30
Resolution: 17500
Column name: Acquity BEH C18 1.7um, 2.1x150mm (Waters)
Retention time: 17.057 min
Base peak: 329.0853
Precursor m/z: 329.0853
Precursor type: [M-H]-
Precursor intensity: 47662743.00391
m/z	relative intensity	assigned
79.9574	11	O3S-
121.0295	1	C7H5O2-
132.0585	5	C9H8O-
133.0656	1	C9H9O-
135.0451	10	C8H7O2-
148.053	60	C9H8O2-
196.0199	14	C9H8O3S-
197.027	3	C9H9O3S-
224.0844	3	C15H12O2-
237.0931	1	C16H13O2-
250.0999	9	C17H14O2-
264.1165	1	C18H16O2-
265.1235	9	C18H17O2-
273.0225	3	C14H9O4S-
288.046	3	C15H12O4S-
299.0379	5	C16H11O4S-
301.0544	1	C16H13O4S-
313.0545	1	C17H13O4S-
314.0608	1	C17H14O4S-
329.0852	999	C18H17O4S-
