Mass spectrum: N,N-Dimethyl-4-nitrosoaniline; LC-ESI-QFT; MS2; CE: 90; R=17500; [M+H]+
Name: N,N-Dimethyl-4-nitrosoaniline
Formula: C8H10N2O
Exact mass: 150.0793
SMILES: CN(C)C1=CC=C(C=C1)N=O
InChI: InChI=1S/C8H10N2O/c1-10(2)8-5-3-7(9-11)4-6-8/h3-6H,1-2H3
Instrument: Q Exactive Orbitrap (Thermo Scientific)
Instrument type: LC-ESI-QFT
Ms type: MS2
Ion mode: POSITIVE
Ionization: ESI
Fragmentation mode: HCD
Collision energy: 90
Resolution: 17500
Column name: Acquity BEH C18 1.7um, 2.1x150mm (Waters)
Retention time: 4.494 min
Base peak: 79.0211
Precursor m/z: 151.0866
Precursor type: [M+H]+
Precursor intensity: 7866321
m/z	relative intensity	assigned
53.0387	2	C4H5+
54.0339	1	C3H4N+
55.0416	4	C3H5N+
65.0385	55	C5H5+
66.0338	19	C4H4N+
66.0464	8	C5H6+
67.0542	2	C5H7+
68.0494	149	C4H6N+
78.0338	9	C5H4N+
78.0465	3	C6H6+
79.0542	21	C6H7+
80.0494	8	C5H6N+
81.0573	18	C5H7N+
82.0651	34	C5H8N+
90.0339	1	C6H4N+
91.0417	10	C6H5N+
92.0495	207	C6H6N+
93.0448	254	C5H5N2+
93.0573	22	C6H7N+
94.0651	26	C6H8N+
95.049	4	C6H7O+
104.0496	3	C7H6N+
105.0446	5	C6H5N2+
105.0574	5	C7H7N+
106.0526	3	C6H6N2+
106.0651	68	C7H8N+
107.0604	14	C6H7N2+
107.0729	22	C7H9N+
108.0808	15	C7H10N+
110.06	14	C6H8NO+
117.0572	5	C8H7N+
118.0525	25	C7H6N2+
118.065	3	C8H8N+
119.0604	362	C7H7N2+
120.0808	159	C8H10N+
121.0886	14	C8H11N+
124.0759	5	C7H10NO+
132.0683	16	C8H8N2+
133.076	999	C8H9N2+
134.0838	294	C8H10N2+
135.0553	2	C7H7N2O+
136.0757	10	C8H10NO+
150.0786	1	C8H10N2O+
151.0866	52	C8H11N2O+
