Mass spectrum: Haloxyfop; LC-ESI-QFT; MS2; CE: 90; R=17500; [M+H]+
Name: Haloxyfop
Name: 2-[4-[3-chloro-5-(trifluoromethyl)pyridin-2-yl]oxyphenoxy]propanoic acid
Formula: C15H11ClF3NO4
Exact mass: 361.0329
SMILES: CC(OC1=CC=C(OC2=NC=C(C=C2Cl)C(F)(F)F)C=C1)C(O)=O
InChI: InChI=1S/C15H11ClF3NO4/c1-8(14(21)22)23-10-2-4-11(5-3-10)24-13-12(16)6-9(7-20-13)15(17,18)19/h2-8H,1H3,(H,21,22)
Instrument: Q Exactive Orbitrap (Thermo Scientific)
Instrument type: LC-ESI-QFT
Ms type: MS2
Ion mode: POSITIVE
Ionization: ESI
Fragmentation mode: HCD
Collision energy: 90
Resolution: 17500
Column name: Acquity BEH C18 1.7um, 2.1x150mm (Waters)
Retention time: 18.650 min
Base peak: 79.0211
Precursor m/z: 362.0401
Precursor type: [M+H]+
Precursor intensity: 8989125.84375
m/z	relative intensity	assigned
53.0022	30	C3HO+
53.0386	34	C4H5+
54.0464	17	C4H6+
55.0178	28	C3H3O+
63.0229	187	C5H3+
64.0308	49	C5H4+
65.0386	999	C5H5+
67.0543	5	C5H7+
74.0151	29	C6H2+
75.0229	197	C6H3+
77.0386	9	C6H5+
79.0541	11	C6H7+
81.0335	107	C5H5O+
90.0339	14	C6H4N+
91.0543	835	C7H7+
92.0257	111	C6H4O+
92.062	6	C7H8+
93.07	7	C7H9+
94.0414	54	C6H6O+
95.0492	44	C6H7O+
98.9842	441	CH4ClO3+
99.9887	8	C2H3ClF2+
109.0284	58	C6H5O2+
111.0442	18	C6H7O2+
116.9949	7	CH6ClO4+
119.0366	13	C7H5NO+
119.0492	7	C8H7O+
120.0446	20	C7H6NO+
121.0283	28	C7H5O2+
121.0397	15	C5H10ClO+
121.065	9	C8H9O+
131.0105	10	C2H8ClO4+
133.9872	11	C6NO3+
140.0495	55	C10H6N+
141.9793	8	C4H2ClF3+
151.0354	48	C9H5F2+
156.0443	23	C10H6NO+
157.0522	29	C10H7NO+
157.9804	25	C6H2ClFNO+
158.0402	43	C10H5FN+
159.0477	22	C10H6FN+
159.9762	19	C6HClF2N+
165.0103	10	C9H6ClO+
166.0653	6	C12H8N+
168.0445	48	C11H6NO+
170.9717	77	C6H2ClNO3+
171.0417	20	C9H6F3+
172.9689	147	C3H2ClF2NO3+
174.9643	5	C3HClF3NO2+
175.0185	45	C10H6ClN+
178.0465	44	C10H6F2N+
179.9823	40	C6H2ClF3N+
182.0337	21	C10H5F3+
185.0455	16	C5H12ClNO4+
187.0428	16	C11H6FNO+
188.0306	28	C11H4F2N+
189.0386	72	C11H5F2N+
190.0464	49	C11H6F2N+
192.0213	25	C10H7ClNO+
197.993	156	C6H4ClF3NO+
198.0527	33	C10H7F3N+
203.0133	11	C11H6ClNO+
206.0413	59	C11H6F2NO+
208.0372	52	C7H11ClNO4+
209.0447	153	C11H6F3N+
216.0257	101	C12H4F2NO+
217.0333	8	C12H5F2NO+
218.0411	21	C12H6F2NO+
219.0061	16	C9H5ClF3N+
222.0119	13	C11H6ClFNO+
224.0072	14	C11H5ClF2N+
226.0476	30	C11H7F3NO+
232.014	20	C10H6ClF3N+
235.0033	9	C11H6ClNO3+
237.0402	24	C12H6F3NO+
243.0059	15	C11H5ClF3N+
244.0138	11	C11H6ClF3N+
246.0319	9	C13H9ClNO2+
252.0025	16	C12H5ClF2NO+
254.0411	6	C15H6F2NO+
260.0086	37	C11H6ClF3NO+
269.0293	6	C12H6F3NO3+
272.0087	83	C12H6ClF3NO+
288.0034	273	C12H6ClF3NO2+
