Mass spectrum: AM580; LC-ESI-QFT; MS2; CE: 90; R=17500; [M+H]+
Name: AM580
Name: 4-{[(5,5,8,8-Tetramethyl-5,6,7,8-tetrahydronaphthalen-2-yl)carbonyl]amino}benzoic acid
Name: 4-[(5,5,8,8-tetramethyl-6,7-dihydronaphthalene-2-carbonyl)amino]benzoic acid
Formula: C22H25NO3
Exact mass: 351.1834
SMILES: CC1(C)CCC(C)(C)C2=C1C=CC(=C2)C(=O)NC1=CC=C(C=C1)C(O)=O
InChI: InChI=1S/C22H25NO3/c1-21(2)11-12-22(3,4)18-13-15(7-10-17(18)21)19(24)23-16-8-5-14(6-9-16)20(25)26/h5-10,13H,11-12H2,1-4H3,(H,23,24)(H,25,26)
Instrument: Q Exactive Orbitrap (Thermo Scientific)
Instrument type: LC-ESI-QFT
Ms type: MS2
Ion mode: POSITIVE
Ionization: ESI
Fragmentation mode: HCD
Collision energy: 90
Resolution: 17500
Column name: Acquity BEH C18 1.7um, 2.1x150mm (Waters)
Retention time: 19.378 min
Base peak: 79.0211
Precursor m/z: 352.1907
Precursor type: [M+H]+
Precursor intensity: 5230107.625
m/z	relative intensity	assigned
53.0022	11	C3HO+
53.0386	29	C4H5+
55.0179	3	C3H3O+
55.0542	22	C4H7+
57.0699	81	C4H9+
65.0385	269	C5H5+
66.0464	40	C5H6+
67.0542	34	C5H7+
69.0698	38	C5H9+
77.0386	7	C6H5+
78.0464	16	C6H6+
79.0542	78	C6H7+
80.0496	4	C5H6N+
81.0335	42	C5H5O+
81.0699	26	C6H9+
83.0855	5	C6H11+
89.0386	17	C7H5+
90.034	11	C6H4N+
90.0464	42	C7H6+
91.0542	999	C7H7+
92.0494	6	C6H6N+
93.0336	10	C6H5O+
93.0699	23	C7H9+
94.0414	8	C6H6O+
95.0491	60	C6H7O+
95.0855	18	C7H11+
103.0542	141	C8H7+
104.0619	16	C8H8+
105.0699	290	C8H9+
107.0491	11	C7H7O+
107.0855	19	C8H11+
108.0444	206	C6H6NO+
111.0441	8	C6H7O2+
115.0542	329	C9H7+
116.0621	389	C9H8+
117.0699	271	C9H9+
118.0414	45	C8H6O+
118.0777	18	C9H10+
119.0856	105	C9H11+
121.0284	30	C7H5O2+
121.0647	21	C8H9O+
121.1014	2	C9H13+
122.0362	19	C7H6O2+
124.076	8	C7H10NO+
128.062	90	C10H8+
129.0699	301	C10H9+
130.0778	193	C10H10+
131.0492	77	C9H7O+
131.0856	455	C10H11+
132.0571	6	C9H8O+
132.0935	9	C10H12+
133.0649	6	C9H9O+
133.1012	39	C10H13+
135.044	5	C8H7O2+
135.0804	29	C9H11O+
136.0394	59	C7H6NO2+
136.0519	34	C8H8O2+
139.0391	7	C7H7O3+
141.0699	14	C11H9+
142.0778	104	C11H10+
143.0856	235	C11H11+
144.0934	71	C11H12+
145.0649	114	C10H9O+
145.1012	252	C11H13+
146.0728	5	C10H10O+
146.1094	4	C11H14+
147.0807	2	C10H11O+
147.1174	2	C11H15+
148.0519	8	C9H8O2+
150.0676	74	C9H10O2+
155.0857	7	C12H11+
156.0936	10	C12H12+
157.1012	489	C12H13+
158.1089	24	C12H14+
159.0806	16	C11H11O+
159.1168	62	C12H15+
162.0677	24	C10H10O2+
164.0346	3	C8H6NO3+
165.0702	4	C13H9+
167.0731	6	C12H9N+
170.1091	6	C13H14+
171.1168	17	C13H15+
172.1246	156	C13H16+
173.0961	4	C12H13O+
176.0825	6	C11H12O2+
180.0808	4	C13H10N+
187.1481	2	C14H19+
200.1198	66	C14H16O+
204.1145	252	C13H16O2+
208.0756	9	C14H10NO+
215.1431	101	C15H19O+
226.0865	2	C14H12NO2+
