Mass spectrum: Methabenzthiazuron; LC-ESI-QFT; MS2; CE: 45; R=17500; [M+H]+
Name: Methabenzthiazuron
Name: 1-(1,3-benzothiazol-2-yl)-1,3-dimethylurea
Formula: C10H11N3OS
Exact mass: 221.0623
SMILES: CNC(=O)N(C)C1=NC2=C(S1)C=CC=C2
InChI: InChI=1S/C10H11N3OS/c1-11-9(14)13(2)10-12-7-5-3-4-6-8(7)15-10/h3-6H,1-2H3,(H,11,14)
Instrument: Q Exactive Orbitrap (Thermo Scientific)
Instrument type: LC-ESI-QFT
Ms type: MS2
Ion mode: POSITIVE
Ionization: ESI
Fragmentation mode: HCD
Collision energy: 45
Resolution: 17500
Column name: Acquity BEH C18 1.7um, 2.1x150mm (Waters)
Retention time: 16.489 min
Base peak: 79.0211
Precursor m/z: 222.0696
Precursor type: [M+H]+
Precursor intensity: 5788337.5
m/z	relative intensity	assigned
58.0288	2	C2H4NO+
71.0603	2	C3H7N2+
92.0495	3	C6H6N+
124.0216	28	C6H6NS+
150.0247	23	C7H6N2S+
165.0482	999	C8H9N2S+
222.0695	4	C10H12N3OS+
