Mass spectrum: Triamcinolone; LC-ESI-QFT; MS2; CE: 75; R=17500; [M-H]-
Name: Triamcinolone
Name: (8S,9R,10S,11S,13S,14S,16R,17S)-9-fluoro-11,16,17-trihydroxy-17-(2-hydroxyacetyl)-10,13-dimethyl-6,7,8,11,12,14,15,16-octahydrocyclopenta[a]phenanthren-3-one
Formula: C21H27FO6
Exact mass: 394.1792
SMILES: C[C@]12C[C@H](O)[C@@]3(F)[C@@H](CCC4=CC(=O)C=C[C@]34C)[C@@H]1C[C@@H](O)[C@]2(O)C(=O)CO
InChI: InChI=1S/C21H27FO6/c1-18-6-5-12(24)7-11(18)3-4-13-14-8-15(25)21(28,17(27)10-23)19(14,2)9-16(26)20(13,18)22/h5-7,13-16,23,25-26,28H,3-4,8-10H2,1-2H3/t13-,14-,15+,16-,18-,19-,20-,21-/m0/s1
Instrument: Q Exactive Orbitrap (Thermo Scientific)
Instrument type: LC-ESI-QFT
Ms type: MS2
Ion mode: NEGATIVE
Ionization: ESI
Fragmentation mode: HCD
Collision energy: 75
Resolution: 17500
Column name: Acquity BEH C18 1.7um, 2.1x150mm (Waters)
Retention time: 14.609 min
Base peak: 288.1355
Precursor m/z: 393.1719
Precursor type: [M-H]-
Precursor intensity: 5317829.495117
m/z	relative intensity	assigned
69.0346	78	C4H5O-
71.0139	288	C3H3O2-
73.0296	122	C3H5O2-
79.0552	60	C6H7-
81.0346	46	C5H5O-
83.0504	114	C5H7O-
85.0296	50	C4H5O2-
93.0347	184	C6H5O-
95.0503	148	C6H7O-
107.0503	416	C7H7O-
108.0218	105	C6H4O2-
111.0451	102	C6H7O2-
119.0503	334	C8H7O-
121.0295	219	C7H5O2-
121.0659	801	C8H9O-
122.0375	167	C7H6O2-
123.0452	540	C7H7O2-
130.0425	307	C9H6O-
131.0503	260	C9H7O-
133.0659	409	C9H9O-
135.0453	173	C8H7O2-
137.0607	69	C8H9O2-
143.0501	524	C10H7O-
144.0582	138	C10H8O-
145.0297	100	C9H5O2-
145.0659	589	C10H9O-
147.0452	352	C9H7O2-
147.0816	234	C10H11O-
148.0529	60	C9H8O2-
149.0606	264	C9H9O2-
157.0659	482	C11H9O-
159.0451	232	C10H7O2-
159.0816	133	C11H11O-
160.0534	125	C10H8O2-
161.0608	344	C10H9O2-
163.0763	50	C10H11O2-
167.0505	53	C12H7O-
169.0658	86	C12H9O-
171.0451	681	C11H7O2-
171.0817	153	C12H11O-
172.0532	105	C11H8O2-
173.0248	251	C10H5O3-
173.0607	568	C11H9O2-
173.0972	52	C12H13O-
174.0321	909	C10H6O3-
175.04	348	C10H7O3-
175.0764	97	C11H11O2-
178.0635	90	C10H10O3-
181.0659	90	C13H9O-
182.0735	71	C13H10O-
183.0815	147	C13H11O-
185.0609	542	C12H9O2-
186.0687	95	C12H10O2-
187.0404	147	C11H7O3-
187.0758	105	C12H11O2-
188.0476	63	C11H8O3-
189.0558	480	C11H9O3-
190.0633	81	C11H10O3-
193.0658	131	C14H9O-
195.0816	201	C14H11O-
197.0612	112	C13H9O2-
197.0975	246	C14H13O-
199.0761	74	C13H11O2-
207.0819	225	C15H11O-
208.0896	118	C15H12O-
209.0604	54	C14H9O2-
209.0972	378	C15H13O-
210.0686	60	C14H10O2-
211.0763	264	C14H11O2-
219.0817	150	C16H11O-
220.0892	181	C16H12O-
221.0972	276	C16H13O-
222.0688	131	C15H10O2-
223.0765	152	C15H11O2-
224.0846	274	C15H12O2-
225.092	262	C15H13O2-
226.1004	76	C15H14O2-
227.1081	185	C15H15O2-
231.082	102	C17H11O-
232.0896	119	C17H12O-
233.0969	206	C17H13O-
235.0768	183	C16H11O2-
235.1126	664	C17H15O-
236.0847	134	C16H12O2-
237.0922	630	C16H13O2-
238.0995	76	C16H14O2-
239.1077	167	C16H15O2-
245.0975	131	C18H13O-
247.0765	279	C17H11O2-
247.1132	79	C18H15O-
248.0848	195	C17H12O2-
249.0918	581	C17H13O2-
251.1082	120	C17H15O2-
253.1233	58	C17H17O2-
258.0688	169	C18H10O2-
259.0766	307	C18H11O2-
260.0846	364	C18H12O2-
261.0919	171	C18H13O2-
262.0996	52	C18H14O2-
263.1079	473	C18H15O2-
265.0876	156	C17H13O3-
267.1033	164	C14H16FO4-
273.0923	196	C19H13O2-
275.0714	392	C18H11O3-
275.1079	58	C19H15O2-
276.0794	561	C18H12O3-
277.0869	999	C18H13O3-
281.1185	147	C18H17O3-
292.1103	69	C19H16O3-
293.1183	65	C19H17O3-
295.0982	53	C18H15O4-
309.1124	222	C19H17O4-
