Mass spectrum: UK-373911; LC-ESI-QFT; MS2; CE: 60; R=17500; [M-H]-
Name: UK-373911
Name: (5S,8S)-5-(3,4-dichlorophenyl)-8-(methylamino)-5,6,7,8-tetrahydronaphthalene-2-sulfonamide
Formula: C17H18Cl2N2O2S
Exact mass: 384.0466
SMILES: CN[C@H]1CC[C@@H](C2=CC=C(Cl)C(Cl)=C2)C2=CC=C(C=C12)S(N)(=O)=O
InChI: InChI=1S/C17H18Cl2N2O2S/c1-21-17-7-5-12(10-2-6-15(18)16(19)8-10)13-4-3-11(9-14(13)17)24(20,22)23/h2-4,6,8-9,12,17,21H,5,7H2,1H3,(H2,20,22,23)/t12-,17-/m0/s1
Instrument: Q Exactive Orbitrap (Thermo Scientific)
Instrument type: LC-ESI-QFT
Ms type: MS2
Ion mode: NEGATIVE
Ionization: ESI
Fragmentation mode: HCD
Collision energy: 60
Resolution: 17500
Column name: Acquity BEH C18 1.7um, 2.1x150mm (Waters)
Retention time: 14.654 min
Base peak: 112.9857
Precursor m/z: 383.0393
Precursor type: [M-H]-
Precursor intensity: 2902357.353516
m/z	relative intensity	assigned
61.9706	347	NOS-
63.9624	159	O2S-
77.9655	214	NO2S-
78.9733	266	HNO2S-
79.9812	694	H2NO2S-
115.0554	45	C9H7-
129.0583	15	C9H7N-
130.0535	45	C8H6N2-
130.0662	103	C9H8N-
142.0662	467	C10H8N-
143.0614	18	C9H7N2-
144.0819	75	C10H10N-
144.9617	111	C6H3Cl2-
145.0771	48	C9H9N2-
173.1083	227	C11H13N2-
174.0924	27	C11H12NO-
194.028	267	C9H8NO2S-
206.028	139	C10H8NO2S-
208.0436	79	C10H10NO2S-
209.0386	16	C9H9N2O2S-
216.082	18	C16H10N-
235.0091	28	C13H9Cl2-
249.996	123	C13H8Cl2O-
260.004	124	C14H8Cl2N-
260.9881	13	C14H7Cl2O-
288.035	120	C16H12Cl2N-
297.9627	11	C13H8Cl2O2S-
313.981	16	C13H10Cl2NO2S-
323.9656	104	C14H8Cl2NO2S-
337.9814	162	C15H10Cl2NO2S-
351.9971	999	C16H12Cl2NO2S-
