Mass spectrum: Suxibuzone; LC-ESI-QFT; MS2; CE: 15; R=17500; [M+H]+
Name: Suxibuzone
Name: 4-[(4-butyl-3,5-dioxo-1,2-diphenylpyrazolidin-4-yl)methoxy]-4-oxobutanoic acid
Formula: C24H26N2O6
Exact mass: 438.1791
SMILES: CCCCC1(COC(=O)CCC(O)=O)C(=O)N(N(C1=O)C1=CC=CC=C1)C1=CC=CC=C1
InChI: InChI=1S/C24H26N2O6/c1-2-3-16-24(17-32-21(29)15-14-20(27)28)22(30)25(18-10-6-4-7-11-18)26(23(24)31)19-12-8-5-9-13-19/h4-13H,2-3,14-17H2,1H3,(H,27,28)
Instrument: Q Exactive Orbitrap (Thermo Scientific)
Instrument type: LC-ESI-QFT
Ms type: MS2
Ion mode: POSITIVE
Ionization: ESI
Fragmentation mode: HCD
Collision energy: 15
Resolution: 17500
Column name: Acquity BEH C18 1.7um, 2.1x150mm (Waters)
Retention time: 17.593 min
Base peak: 79.0211
Precursor m/z: 439.1864
Precursor type: [M+H]+
Precursor intensity: 16533293.25
m/z	relative intensity	assigned
73.0282	1	C3H5O2+
77.0388	1	C6H5+
83.0855	3	C6H11+
101.0233	25	C4H5O3+
109.0646	1	C7H9O+
111.0803	6	C7H11O+
115.0388	3	C5H7O3+
118.0653	1	C8H8N+
120.0448	1	C7H6NO+
146.0602	1	C9H8NO+
146.0963	2	C10H12N+
148.1122	1	C10H14N+
160.112	115	C11H14N+
174.1279	3	C12H16N+
200.1067	2	C13H14NO+
202.1225	465	C13H16NO+
211.0859	4	C13H11N2O+
218.1173	1	C13H16NO2+
223.0865	1	C14H11N2O+
228.1017	7	C14H14NO2+
237.1021	1	C15H13N2O+
253.0968	5	C15H13N2O2+
265.0977	3	C16H13N2O2+
267.1127	103	C16H15N2O2+
277.1699	1	C19H21N2+
279.149	21	C18H19N2O+
293.1648	64	C19H21N2O+
309.1598	650	C19H21N2O2+
321.1598	999	C20H21N2O2+
339.1704	369	C20H23N2O3+
