Mass spectrum: AVE2865; LC-ESI-QFT; MS2; CE: 90; R=17500; [M+H]+
Name: AVE2865
Name: 1-{2-[3-(2-Chloro-4,5-Difluoro-Benzoyl)-Ureido]-4-Fluoro-Phenyl}-Piperidine-4-Carboxylic Acid
Name: 1-[2-[(2-chloro-4,5-difluorobenzoyl)carbamoylamino]-4-fluorophenyl]piperidine-4-carboxylic acid
Formula: C20H17ClF3N3O4
Exact mass: 455.0860
SMILES: OC(=O)C1CCN(CC1)C1=C(NC(=O)NC(=O)C2=CC(F)=C(F)C=C2Cl)C=C(F)C=C1
InChI: InChI=1S/C20H17ClF3N3O4/c21-13-9-15(24)14(23)8-12(13)18(28)26-20(31)25-16-7-11(22)1-2-17(16)27-5-3-10(4-6-27)19(29)30/h1-2,7-10H,3-6H2,(H,29,30)(H2,25,26,28,31)
Instrument: Q Exactive Orbitrap (Thermo Scientific)
Instrument type: LC-ESI-QFT
Ms type: MS2
Ion mode: POSITIVE
Ionization: ESI
Fragmentation mode: HCD
Collision energy: 90
Resolution: 17500
Column name: Acquity BEH C18 1.7um, 2.1x150mm (Waters)
Retention time: 18.374 min
Base peak: 79.0211
Precursor m/z: 456.0932
Precursor type: [M+H]+
Precursor intensity: 3946674.8125
m/z	relative intensity	assigned
53.0022	13	C3HO+
53.0386	8	C4H5+
55.0543	97	C4H7+
57.0337	1	C3H5O+
65.0386	65	C5H5+
67.0542	220	C5H7+
69.0335	7	C4H5O+
69.0698	4	C5H9+
79.0542	4	C6H7+
80.0496	1	C5H6N+
83.0291	25	C5H4F+
92.0495	7	C6H6N+
93.0573	2	C6H7N+
95.0493	6	C6H7O+
98.04	7	C5H5FN+
108.0244	51	C6H3FN+
110.0401	105	C6H5FN+
110.06	10	C6H8NO+
124.0194	18	C6H3FNO+
125.0511	24	C6H6FN2+
126.0587	4	C6H7FN2+
135.0354	37	C7H4FN2+
136.0556	4	C8H7FN+
137.051	999	C7H6FN2+
140.0506	4	C7H7FNO+
145.051	10	ClFH13NO4+
146.04	2	C9H5FN+
147.0479	2	C9H6FN+
148.0557	37	C9H7FN+
149.0511	69	C8H6FN2+
149.0634	12	C9H8FN+
150.0589	22	C8H7FN2+
151.0302	20	C7H4FN2O+
151.0667	3	C8H8FN2+
152.0381	13	C7H5FN2O+
153.0459	38	C7H6FN2O+
154.0656	3	C11H8N+
161.0633	3	C10H8FN+
162.0591	2	C9H7FN2+
163.0303	42	C8H4FN2O+
163.0666	36	C9H8FN2+
165.046	203	C8H6FN2O+
172.0558	2	C11H7FN+
174.0714	2	C11H9FN+
174.9758	3	C7H2ClF2O+
175.0667	6	C10H8FN2+
176.0746	5	C10H9FN2+
177.0459	4	C9H6FN2O+
178.0539	4	C9H7FN2O+
179.0616	1	C9H8FN2O+
181.0759	1	C12H9N2+
184.056	8	ClF3H14NO4+
185.0508	2	C11H6FN2+
186.059	5	C11H7FN2+
187.0668	7	C11H8FN2+
189.046	19	C10H6FN2O+
189.0823	4	C11H10FN2+
190.0538	3	C10H7FN2O+
191.0615	20	C10H8FN2O+
191.0983	9	C11H12FN2+
201.0827	10	ClF3H17N2O4+
211.0668	3	CH15ClF3N2O4+
215.0616	1	C12H8FN2O+
217.0773	2	C12H10FN2O+
228.0694	3	C13H9FN2O+
