Mass spectrum: Propane-1,3-diyl bis(4-aminobenzoate); LC-ESI-QFT; MS2; CE: 75; R=17500; [M+H]+
Name: Propane-1,3-diyl bis(4-aminobenzoate)
Name: 3-(4-aminobenzoyl)oxypropyl 4-aminobenzoate
Formula: C17H18N2O4
Exact mass: 314.1267
SMILES: NC1=CC=C(C=C1)C(=O)OCCCOC(=O)C1=CC=C(N)C=C1
InChI: InChI=1S/C17H18N2O4/c18-14-6-2-12(3-7-14)16(20)22-10-1-11-23-17(21)13-4-8-15(19)9-5-13/h2-9H,1,10-11,18-19H2
Instrument: Q Exactive Orbitrap (Thermo Scientific)
Instrument type: LC-ESI-QFT
Ms type: MS2
Ion mode: POSITIVE
Ionization: ESI
Fragmentation mode: HCD
Collision energy: 75
Resolution: 17500
Column name: Acquity BEH C18 1.7um, 2.1x150mm (Waters)
Retention time: 15.029 min
Base peak: 79.0211
Precursor m/z: 315.1339
Precursor type: [M+H]+
Precursor intensity: 1068139.5
m/z	relative intensity	assigned
67.0178	999	C4H3O+
91.0543	161	C7H7+
92.0496	121	C6H6N+
115.0544	71	C9H7+
120.0445	347	C7H6NO+
128.0622	86	C10H8+
139.0545	111	C11H7+
141.0699	141	C11H9+
152.0625	110	C12H8+
153.0701	174	C12H9+
166.0654	86	C12H8N+
167.073	133	C12H9N+
168.0812	115	C12H10N+
180.0811	527	C13H10N+
181.0889	155	C13H11N+
182.0967	148	C13H12N+
196.0758	115	C13H10NO+
198.0915	141	C13H12NO+
208.0758	540	C14H10NO+
209.0838	126	C14H11NO+
210.0913	405	C14H12NO+
226.0866	377	C14H12NO2+
236.0709	132	C15H10NO2+
254.0818	63	C15H12NO3+
