Mass spectrum: 2-Amino-6-methoxybenzothiazole; LC-ESI-QFT; MS2; CE: 75; R=17500; [M+H]+
Name: 2-Amino-6-methoxybenzothiazole
Name: 6-methoxy-1,3-benzothiazol-2-amine
Formula: C8H8N2OS
Exact mass: 180.0357
SMILES: COC1=CC2=C(C=C1)N=C(N)S2
InChI: InChI=1S/C8H8N2OS/c1-11-5-2-3-6-7(4-5)12-8(9)10-6/h2-4H,1H3,(H2,9,10)
Instrument: Q Exactive Orbitrap (Thermo Scientific)
Instrument type: LC-ESI-QFT
Ms type: MS2
Ion mode: POSITIVE
Ionization: ESI
Fragmentation mode: HCD
Collision energy: 75
Resolution: 17500
Column name: Acquity BEH C18 1.7um, 2.1x150mm (Waters)
Retention time: 11.161 min
Base peak: 79.0212
Precursor m/z: 181.043
Precursor type: [M+H]+
Precursor intensity: 24094383.75
m/z	relative intensity	assigned
59.9904	2	CH2NS+
65.0386	3	C5H5+
67.0416	4	C4H5N+
67.0543	2	C5H7+
69.0448	1	C3H5N2+
69.0573	1	C4H7N+
79.0416	4	C5H5N+
80.0494	2	C5H6N+
81.0572	1	C5H7N+
83.9903	1	C3H2NS+
93.0574	4	C6H7N+
94.0651	3	C6H8N+
95.0492	21	C6H7O+
96.0028	24	C5H4S+
97.0523	3	C5H7NO+
98.006	1	C4H4NS+
105.0447	4	C6H5N2+
107.0366	4	C6H5NO+
108.0443	2	C6H6NO+
108.0556	1	C7H8O+
109.0107	1	C6H5S+
110.0059	4	C5H4NS+
110.0601	6	C6H8NO+
111.0138	55	C5H5NS+
111.0262	3	C6H7S+
120.9981	2	C6H3NS+
122.0059	5	C6H4NS+
122.0601	10	C7H8NO+
123.0136	3	C6H5NS+
123.0678	1	C7H9NO+
123.9978	13	C6H4OS+
126.0373	1	C6H8NS+
133.0397	8	C7H5N2O+
137.0169	3	C6H5N2S+
138.0246	569	C6H6N2S+
139.0086	8	C6H5NOS+
139.0212	25	C7H7OS+
148.0631	10	C8H8N2O+
149.0168	5	C7H5N2S+
150.0247	51	C7H6N2S+
151.0322	1	C7H7N2S+
152.0166	1	C7H6NOS+
154.0322	16	C7H8NOS+
165.0121	3	C7H5N2OS+
166.0196	999	C7H6N2OS+
180.035	1	C8H8N2OS+
181.043	183	C8H9N2OS+
