Mass spectrum: Chrysin; LC-ESI-QFT; MS2; CE: 60; R=17500; [M-H]-
Name: Chrysin
Name: 5,7-dihydroxy-2-phenylchromen-4-one
Formula: C15H10O4
Exact mass: 254.0579
SMILES: OC1=CC2=C(C(O)=C1)C(=O)C=C(O2)C1=CC=CC=C1
InChI: InChI=1S/C15H10O4/c16-10-6-11(17)15-12(18)8-13(19-14(15)7-10)9-4-2-1-3-5-9/h1-8,16-17H
Instrument: Q Exactive Orbitrap (Thermo Scientific)
Instrument type: LC-ESI-QFT
Ms type: MS2
Ion mode: NEGATIVE
Ionization: ESI
Fragmentation mode: HCD
Collision energy: 60
Resolution: 17500
Column name: Acquity BEH C18 1.7um, 2.1x150mm (Waters)
Retention time: 17.836 min
Base peak: 253.0506
Precursor m/z: 253.0506
Precursor type: [M-H]-
Precursor intensity: 55510573.08496
m/z	relative intensity	assigned
55.0189	2	C3H3O-
62.0162	1	C5H2-
63.024	999	C5H3-
63.9955	1	C4O-
65.0033	430	C4HO-
67.0189	2	C4H3O-
68.998	1	C3HO2-
69.0346	1	C4H5O-
77.0033	1	C5HO-
79.019	26	C5H3O-
83.0139	34	C4H3O2-
89.0033	75	C6HO-
91.019	1	C6H3O-
101.0397	98	C8H5-
103.0189	1	C7H3O-
104.0268	2	C7H4O-
107.0139	320	C6H3O2-
115.0553	54	C9H7-
117.0347	14	C8H5O-
119.0502	212	C8H7O-
121.0295	20	C7H5O2-
127.0553	4	C10H7-
129.0346	2	C9H5O-
129.0712	1	C10H9-
131.0139	3	C8H3O2-
135.0088	2	C7H3O3-
139.0553	46	C11H7-
141.0345	4	C10H5O-
141.0712	7	C11H9-
143.0502	606	C10H7O-
145.0295	241	C9H5O2-
148.0166	18	C8H4O3-
151.0037	82	C7H3O4-
151.055	6	C12H7-
152.0632	16	C12H8-
153.0709	25	C12H9-
155.0503	36	C11H7O-
157.0658	18	C11H9O-
165.0709	99	C13H9-
167.0502	93	C12H7O-
169.0294	3	C11H5O2-
169.0657	8	C12H9O-
175.004	2	C9H3O4-
180.0581	64	C13H8O-
181.0659	107	C13H9O-
183.045	29	C12H7O2-
185.0608	69	C12H9O2-
187.0399	13	C11H7O3-
191.0508	2	C14H7O-
195.0453	3	C13H7O2-
197.0608	21	C13H9O2-
208.0531	29	C14H8O2-
209.0608	163	C14H9O2-
211.04	51	C13H7O3-
224.0484	4	C14H8O3-
225.0558	19	C14H9O3-
253.0507	660	C15H9O4-
