Mass spectrum: Florasulam; LC-ESI-QFT; MS2; CE: 90; R=17500; [M-H]-
Name: Florasulam
Name: N-(2,6-difluorophenyl)-8-fluoro-5-methoxy-[1,2,4]triazolo[1,5-c]pyrimidine-2-sulfonamide
Formula: C12H8F3N5O3S
Exact mass: 359.0300
SMILES: COC1=NC=C(F)C2=NC(=NN12)S(=O)(=O)NC1=C(F)C=CC=C1F
InChI: InChI=1S/C12H8F3N5O3S/c1-23-12-16-5-8(15)10-17-11(18-20(10)12)24(21,22)19-9-6(13)3-2-4-7(9)14/h2-5,19H,1H3
Instrument: Q Exactive Orbitrap (Thermo Scientific)
Instrument type: LC-ESI-QFT
Ms type: MS2
Ion mode: NEGATIVE
Ionization: ESI
Fragmentation mode: HCD
Collision energy: 90
Resolution: 17500
Column name: Acquity BEH C18 1.7um, 2.1x150mm (Waters)
Retention time: 13.928 min
Base peak: 358.0229
Precursor m/z: 358.0227
Precursor type: [M-H]-
Precursor intensity: 8477565.027832
m/z	relative intensity	assigned
55.0301	62	C2H3N2-
58.0099	5	C2HFN-
58.9938	43	C2FO-
60.0255	5	C2H3FN-
64.0067	492	C3N2-
65.0146	7	C3HN2-
66.0098	999	C2N3-
77.0145	3	C4HN2-
80.0016	152	C3N2O-
83.0051	195	C3FN2-
85.0207	4	C3H2FN2-
87.0002	1	C2FN2O-
90.0098	444	C4N3-
92.0255	2	C4H2N3-
95.0052	5	C4FN2-
97.0082	20	C3FN3-
97.0208	2	C4H2FN2-
104.0129	600	C4N4-
107.0124	3	C4HN3O-
110.0159	47	C4HFN3-
110.9999	3	C4FN2O-
113.0155	2	C4H2FN2O-
120.0203	2	C5H2N3O-
124.019	73	C4HFN4-
132.0077	23	C5N4O-
140.0263	2	C5H3FN3O-
152.014	121	C5HFN4O-
153.0217	6	C5H2FN4O-
153.0276	4	C4H4F3N2O-
167.0374	76	C6H4FN4O-
