Mass spectrum: 2,2-Dimethyl-2,3-dihydro-1-benzofuran-7-amine; LC-ESI-QFT; MS2; CE: 30; R=17500; [M+H]+
Name: 2,2-Dimethyl-2,3-dihydro-1-benzofuran-7-amine
Name: 2,2-dimethyl-3H-1-benzofuran-7-amine
Formula: C10H13NO
Exact mass: 163.0997
SMILES: CC1(C)CC2=C(O1)C(N)=CC=C2
InChI: InChI=1S/C10H13NO/c1-10(2)6-7-4-3-5-8(11)9(7)12-10/h3-5H,6,11H2,1-2H3
Instrument: Q Exactive Orbitrap (Thermo Scientific)
Instrument type: LC-ESI-QFT
Ms type: MS2
Ion mode: POSITIVE
Ionization: ESI
Fragmentation mode: HCD
Collision energy: 30
Resolution: 17500
Column name: Acquity BEH C18 1.7um, 2.1x150mm (Waters)
Retention time: 12.296 min
Base peak: 79.0212
Precursor m/z: 164.107
Precursor type: [M+H]+
Precursor intensity: 21082465.125
m/z	relative intensity	assigned
55.0542	4	C4H7+
91.0542	10	C7H7+
94.0652	12	C6H8N+
108.0444	12	C6H6NO+
109.0522	140	C6H7NO+
110.06	9	C6H8NO+
119.0856	35	C9H11+
122.06	552	C7H8NO+
136.0758	38	C8H10NO+
146.0964	1	C10H12N+
147.0804	189	C10H11O+
149.0838	3	C9H11NO+
164.107	999	C10H14NO+
