Mass spectrum: Chlorpropamide; LC-ESI-QFT; MS2; CE: 60; R=17500; [M-H]-
Name: Chlorpropamide
Name: 1-(4-chlorophenyl)sulfonyl-3-propylurea
Formula: C10H13ClN2O3S
Exact mass: 276.0335
SMILES: CCCNC(=O)NS(=O)(=O)C1=CC=C(Cl)C=C1
InChI: InChI=1S/C10H13ClN2O3S/c1-2-7-12-10(14)13-17(15,16)9-5-3-8(11)4-6-9/h3-6H,2,7H2,1H3,(H2,12,13,14)
Instrument: Q Exactive Orbitrap (Thermo Scientific)
Instrument type: LC-ESI-QFT
Ms type: MS2
Ion mode: NEGATIVE
Ionization: ESI
Fragmentation mode: HCD
Collision energy: 60
Resolution: 17500
Column name: Acquity BEH C18 1.7um, 2.1x150mm (Waters)
Retention time: 15.720 min
Base peak: 356.1304
Precursor m/z: 275.0263
Precursor type: [M-H]-
Precursor intensity: 19534514.4707
m/z	relative intensity	assigned
61.9706	32	NOS-
63.9624	9	O2S-
77.9655	57	NO2S-
78.9733	34	HNO2S-
79.9812	155	H2NO2S-
80.9652	2	HO3S-
93.9605	15	NO3S-
111.0004	1	C6H4Cl-
126.0116	999	C6H5ClN-
126.9955	47	C6H4ClO-
189.9735	940	C6H5ClNO2S-
