Mass spectrum: Triazophos; LC-ESI-QFT; MS2; CE: 75; R=17500; [M+H]+
Name: Triazophos
Name: diethoxy-[(1-phenyl-1,2,4-triazol-3-yl)oxy]-sulfanylidene-lambda5-phosphane
Formula: C12H16N3O3PS
Exact mass: 313.0650
SMILES: CCOP(=S)(OCC)OC1=NN(C=N1)C1=CC=CC=C1
InChI: InChI=1S/C12H16N3O3PS/c1-3-16-19(20,17-4-2)18-12-13-10-15(14-12)11-8-6-5-7-9-11/h5-10H,3-4H2,1-2H3
Instrument: Q Exactive Orbitrap (Thermo Scientific)
Instrument type: LC-ESI-QFT
Ms type: MS2
Ion mode: POSITIVE
Ionization: ESI
Fragmentation mode: HCD
Collision energy: 75
Resolution: 17500
Column name: Acquity BEH C18 1.7um, 2.1x150mm (Waters)
Retention time: 17.778 min
Base peak: 79.0211
Precursor m/z: 314.0723
Precursor type: [M+H]+
Precursor intensity: 19540563.46875
m/z	relative intensity	assigned
53.0386	32	C4H5+
55.0178	1	C3H3O+
59.9902	3	CH2NS+
64.9786	29	H2O2P+
65.0385	80	C5H5+
74.0964	1	C4H12N+
75.0011	1	CH3N2S+
77.0384	13	C6H5+
78.9402	4	OPS+
79.0541	4	C6H7+
80.0495	1	C5H6N+
80.9735	1	H2O3P+
81.0335	2	C5H5O+
90.0338	1	C6H4N+
91.0542	7	C7H7+
92.0494	413	C6H6N+
93.0573	38	C6H7N+
94.0413	2	C6H6O+
95.0491	108	C6H7O+
96.9508	36	H2O2PS+
103.0416	7	C7H5N+
104.0494	81	C7H6N+
105.0335	2	C7H5O+
105.0447	42	C6H5N2+
106.065	3	C7H8N+
107.0602	6	C6H7N2+
109.0106	1	C6H5S+
109.0648	1	C7H9O+
110.06	18	C6H8NO+
110.9664	2	CH4O2PS+
111.0441	1	C6H7O2+
112.9997	3	C3HN2O3+
114.9613	810	H4O3PS+
116.0495	3	C8H6N+
116.9656	2	C3HO3S+
117.0447	10	C7H5N2+
118.0524	5	C7H6N2+
119.0604	999	C7H7N2+
120.0681	133	C7H8N2+
123.0552	2	C6H7N2O+
124.0214	3	C6H6NS+
124.0756	5	C7H10NO+
124.9823	1	C2H6O2PS+
128.9769	30	CH6O3PS+
130.0401	2	C7H4N3+
132.0442	1	C8H6NO+
132.9718	6	C6NOP+
134.06	2	C8H8NO+
135.0552	4	C7H7N2O+
136.0215	3	C7H6NS+
144.0557	2	C8H6N3+
145.0396	89	C8H5N2O+
146.9874	5	C7H2NOP+
151.0325	3	C7H7N2S+
161.0166	1	C8H5N2S+
162.0661	436	C8H8N3O+
178.0432	34	C8H8N3S+
