Mass spectrum: Theophylline; LC-ESI-QFT; MS2; CE: 15; R=17500; [M+H]+
Name: Theophylline
Name: 1,3-dimethyl-7H-purine-2,6-dione
Formula: C7H8N4O2
Exact mass: 180.0647
SMILES: CN1C2=C(NC=N2)C(=O)N(C)C1=O
InChI: InChI=1S/C7H8N4O2/c1-10-5-4(8-3-9-5)6(12)11(2)7(10)13/h3H,1-2H3,(H,8,9)
Instrument: Q Exactive Orbitrap (Thermo Scientific)
Instrument type: LC-ESI-QFT
Ms type: MS2
Ion mode: POSITIVE
Ionization: ESI
Fragmentation mode: HCD
Collision energy: 15
Resolution: 17500
Column name: Acquity BEH C18 1.7um, 2.1x150mm (Waters)
Retention time: 10.150 min
Base peak: 79.0211
Precursor m/z: 181.072
Precursor type: [M+H]+
Precursor intensity: 1756870.46875
m/z	relative intensity	assigned
96.0557	1	C4H6N3+
124.0506	77	C5H6N3O+
137.0821	4	C6H9N4+
142.0612	4	C5H8N3O2+
149.0234	43	C6H3N3O2+
163.039	18	C7H5N3O2+
163.0606	1	C7H7N4O+
167.0559	1	C6H7N4O2+
181.072	999	C7H9N4O2+
