Mass spectrum: Oleyl sarcosine; LC-ESI-QFT; MS2; CE: 30; R=17500; [M+H]+
Name: Oleyl sarcosine
Name: Oleoyl sarcosine
Name: 2-[methyl-[(Z)-octadec-9-enoyl]amino]acetic acid
Formula: C21H39NO3
Exact mass: 353.2930
SMILES: CCCCCCCC\C=C/CCCCCCCC(=O)N(C)CC(O)=O
InChI: InChI=1S/C21H39NO3/c1-3-4-5-6-7-8-9-10-11-12-13-14-15-16-17-18-20(23)22(2)19-21(24)25/h10-11H,3-9,12-19H2,1-2H3,(H,24,25)/b11-10-
Instrument: Q Exactive Orbitrap (Thermo Scientific)
Instrument type: LC-ESI-QFT
Ms type: MS2
Ion mode: POSITIVE
Ionization: ESI
Fragmentation mode: HCD
Collision energy: 30
Resolution: 17500
Column name: Acquity BEH C18 1.7um, 2.1x150mm (Waters)
Retention time: 21.843 min
Base peak: 79.0211
Precursor m/z: 354.3003
Precursor type: [M+H]+
Precursor intensity: 2252030.71875
m/z	relative intensity	assigned
55.0543	7	C4H7+
57.07	8	C4H9+
67.0543	10	C5H7+
69.0699	21	C5H9+
71.0855	4	C5H11+
79.0541	2	C6H7+
81.0699	17	C6H9+
83.0856	21	C6H11+
85.1013	3	C6H13+
90.0551	999	C3H8NO2+
93.07	5	C7H9+
95.0856	25	C7H11+
97.0649	5	C6H9O+
97.1013	20	C7H13+
107.0855	9	C8H11+
109.1013	13	C8H13+
111.0808	1	C7H11O+
111.117	8	C8H15+
121.1012	27	C9H13+
123.117	3	C9H15+
135.1169	22	C10H15+
149.1324	9	C11H17+
163.1483	3	C12H19+
247.2425	8	C18H31+
265.2531	5	C18H33O+
354.3009	22	C21H40NO3+
