Mass spectrum: CI-1029; LC-ESI-QFT; MS2; CE: 75; R=17500; [M+H]+
Name: CI-1029
Name: (2S)-2-[2-(4-aminophenyl)ethyl]-5-[2-tert-butyl-4-(hydroxymethyl)-5-methylphenyl]sulfanyl-4-hydroxy-2-propan-2-yl-3H-pyran-6-one
Formula: C28H37NO4S
Exact mass: 483.2443
SMILES: CC(C)[C@]1(CCC2=CC=C(N)C=C2)CC(O)=C(SC2=CC(C)=C(CO)C=C2C(C)(C)C)C(=O)O1
InChI: InChI=1S/C28H37NO4S/c1-17(2)28(12-11-19-7-9-21(29)10-8-19)15-23(31)25(26(32)33-28)34-24-13-18(3)20(16-30)14-22(24)27(4,5)6/h7-10,13-14,17,30-31H,11-12,15-16,29H2,1-6H3/t28-/m0/s1
Instrument: Q Exactive Orbitrap (Thermo Scientific)
Instrument type: LC-ESI-QFT
Ms type: MS2
Ion mode: POSITIVE
Ionization: ESI
Fragmentation mode: HCD
Collision energy: 75
Resolution: 17500
Column name: Acquity BEH C18 1.7um, 2.1x150mm (Waters)
Retention time: 15.723 min
Base peak: 79.0211
Precursor m/z: 484.2516
Precursor type: [M+H]+
Precursor intensity: 2050166.5
m/z	relative intensity	assigned
79.0542	43	C6H7+
91.0542	24	C7H7+
106.0652	999	C7H8N+
118.065	29	C8H8N+
120.0809	37	C8H10N+
132.0809	22	C9H10N+
157.0887	35	C11H11N+
