Mass spectrum: Famotidine; LC-ESI-QFT; MS2; CE: 15; R=17500; [M-H]-
Name: Famotidine
Name: 3-[[2-(diaminomethylideneamino)-1,3-thiazol-4-yl]methylsulfanyl]-N'-sulfamoylpropanimidamide
Formula: C8H15N7O2S3
Exact mass: 337.0449
SMILES: NC(N)=NC1=NC(CSCCC(N)=NS(N)(=O)=O)=CS1
InChI: InChI=1S/C8H15N7O2S3/c9-6(15-20(12,16)17)1-2-18-3-5-4-19-8(13-5)14-7(10)11/h4H,1-3H2,(H2,9,15)(H2,12,16,17)(H4,10,11,13,14)
Instrument: Q Exactive Orbitrap (Thermo Scientific)
Instrument type: LC-ESI-QFT
Ms type: MS2
Ion mode: NEGATIVE
Ionization: ESI
Fragmentation mode: HCD
Collision energy: 15
Resolution: 17500
Column name: Acquity BEH C18 1.7um, 2.1x150mm (Waters)
Retention time: 8.018 min
Base peak: 185.0456
Precursor m/z: 336.0377
Precursor type: [M-H]-
Precursor intensity: 1398098.343262
m/z	relative intensity	assigned
77.9656	160	NO2S-
94.9921	317	H3N2O2S-
111.0022	6	C4H3N2S-
148.0187	999	C3H6N3O2S-
187.0118	319	C5H7N4S2-
215.0426	4	C7H11N4S2-
240.0384	129	C8H10N5S2-
257.0646	24	C8H13N6S2-
