Mass spectrum: Phenformin; LC-ESI-QFT; MS2; CE: 90; R=17500; [M+H]+
Name: Phenformin
Name: 1-(diaminomethylidene)-2-(2-phenylethyl)guanidine
Formula: C10H15N5
Exact mass: 205.1327
SMILES: NC(=N)NC(=N)NCCC1=CC=CC=C1
InChI: InChI=1S/C10H15N5/c11-9(12)15-10(13)14-7-6-8-4-2-1-3-5-8/h1-5H,6-7H2,(H6,11,12,13,14,15)
Instrument: Q Exactive Orbitrap (Thermo Scientific)
Instrument type: LC-ESI-QFT
Ms type: MS2
Ion mode: POSITIVE
Ionization: ESI
Fragmentation mode: HCD
Collision energy: 90
Resolution: 17500
Column name: Acquity BEH C18 1.7um, 2.1x150mm (Waters)
Retention time: 10.001 min
Base peak: 79.0211
Precursor m/z: 206.14
Precursor type: [M+H]+
Precursor intensity: 33203640.0625
m/z	relative intensity	assigned
53.0386	21	C4H5+
60.0556	999	CH6N3+
68.0243	25	C2H2N3+
72.0553	1	C2H6N3+
77.0385	12	C6H5+
79.0542	214	C6H7+
85.0509	37	C2H5N4+
86.0587	4	C2H6N4+
95.0491	65	C4H5N3+
99.0667	1	C3H7N4+
103.0543	172	C8H7+
105.0699	861	C8H9+
130.0652	20	C9H8N+
