Mass spectrum: Thiophanate-methyl; LC-ESI-QFT; MS2; CE: 75; R=17500; [M+H]+
Name: Thiophanate-methyl
Name: N'-methoxycarbonyl-N-[2-[(N-methoxycarbonyl-C-sulfanylcarbonimidoyl)amino]phenyl]carbamimidothioic acid
Formula: C12H14N4O4S2
Exact mass: 342.0456
SMILES: COC(=O)NC(=S)NC1=C(NC(=S)NC(=O)OC)C=CC=C1
InChI: InChI=1S/C12H14N4O4S2/c1-19-11(17)15-9(21)13-7-5-3-4-6-8(7)14-10(22)16-12(18)20-2/h3-6H,1-2H3,(H2,13,15,17,21)(H2,14,16,18,22)
Instrument: Q Exactive Orbitrap (Thermo Scientific)
Instrument type: LC-ESI-QFT
Ms type: MS2
Ion mode: POSITIVE
Ionization: ESI
Fragmentation mode: HCD
Collision energy: 75
Resolution: 17500
Column name: Acquity BEH C18 1.7um, 2.1x150mm (Waters)
Retention time: 15.164 min
Base peak: 79.0211
Precursor m/z: 343.0529
Precursor type: [M+H]+
Precursor intensity: 6774014.75
m/z	relative intensity	assigned
57.9746	3	CNS+
58.9824	4	CHNS+
59.9902	1	CH2NS+
65.0385	31	C5H5+
66.0465	1	C5H6+
74.0058	166	C2H4NS+
76.0393	43	C2H6NO2+
80.0494	8	C5H6N+
82.0652	2	C5H8N+
85.9695	247	C2NOS+
90.0339	3	C6H4N+
91.0417	1	C6H5N+
92.0495	152	C6H6N+
93.0573	488	C6H7N+
105.0446	8	C6H5N2+
107.0604	34	C6H7N2+
108.0683	3	C6H8N2+
109.076	76	C6H9N2+
110.0601	4	C6H8NO+
117.0448	3	C7H5N2+
117.9957	13	C3H4NO2S+
118.0525	221	C7H6N2+
119.0604	78	C7H7N2+
122.0059	18	C6H4NS+
124.0217	7	C6H6NS+
124.0754	2	C7H10NO+
132.0555	22	C7H6N3+
133.0636	3	C7H7N3+
134.0058	3	C7H4NS+
134.0714	13	C7H8N3+
135.0135	9	C7H5NS+
135.0552	11	C7H7N2O+
143.0481	1	C8H5N3+
146.0716	1	C8H8N3+
149.0168	92	C7H5N2S+
150.0007	3	C7H4NOS+
150.0247	16	C7H6N2S+
151.0324	999	C7H7N2S+
160.0505	129	C8H6N3O+
174.0117	2	C8H4N3S+
175.02	8	C8H5N3S+
176.0277	2	C8H6N3S+
188.0458	2	C9H6N3O2+
192.9888	7	C8H5N2S2+
202.0069	2	C9H4N3OS+
253.0495	3	C10H11N3O3S+
