Mass spectrum: Tolclofos-methyl; LC-ESI-QFT; MS2; CE: 15; R=17500; [M+H]+
Name: Tolclofos-methyl
Name: (2,6-dichloro-4-methylphenoxy)-dimethoxy-sulfanylidene-lambda5-phosphane
Formula: C9H11Cl2O3PS
Exact mass: 299.9544
SMILES: COP(=S)(OC)OC1=C(Cl)C=C(C)C=C1Cl
InChI: InChI=1S/C9H11Cl2O3PS/c1-6-4-7(10)9(8(11)5-6)14-15(16,12-2)13-3/h4-5H,1-3H3
Instrument: Q Exactive Orbitrap (Thermo Scientific)
Instrument type: LC-ESI-QFT
Ms type: MS2
Ion mode: POSITIVE
Ionization: ESI
Fragmentation mode: HCD
Collision energy: 15
Resolution: 17500
Column name: Acquity BEH C18 1.7um, 2.1x150mm (Waters)
Retention time: 17.784 min
Base peak: 79.0211
Precursor m/z: 300.9616
Precursor type: [M+H]+
Precursor intensity: 2352043.75
m/z	relative intensity	assigned
124.9822	3	C3H6ClOS+
142.9927	41	C3H8ClO2S+
237.9353	2	C7H5Cl2O3P+
252.9583	14	C8H8Cl2O3P+
286.9463	9	C8H10Cl2O3PS+
300.9618	999	C9H12Cl2O3PS+
