Mass spectrum: Pyrithiobac; LC-ESI-QFT; MS2; CE: 60; R=17500; [M+H]+
Name: Pyrithiobac
Name: 2-chloro-6-(4,6-dimethoxypyrimidin-2-yl)sulfanylbenzoic acid
Formula: C13H11ClN2O4S
Exact mass: 326.0128
SMILES: COC1=CC(OC)=NC(SC2=C(C(O)=O)C(Cl)=CC=C2)=N1
InChI: InChI=1S/C13H11ClN2O4S/c1-19-9-6-10(20-2)16-13(15-9)21-8-5-3-4-7(14)11(8)12(17)18/h3-6H,1-2H3,(H,17,18)
Instrument: Q Exactive Orbitrap (Thermo Scientific)
Instrument type: LC-ESI-QFT
Ms type: MS2
Ion mode: POSITIVE
Ionization: ESI
Fragmentation mode: HCD
Collision energy: 60
Resolution: 17500
Column name: Acquity BEH C18 1.7um, 2.1x150mm (Waters)
Retention time: 17.367 min
Base peak: 79.0211
Precursor m/z: 327.0201
Precursor type: [M+H]+
Precursor intensity: 5840416.5625
m/z	relative intensity	assigned
53.0387	3	C4H5+
56.013	4	C2H2NO+
68.9971	87	C3HO2+
71.0604	258	C3H7N2+
71.9902	27	C2H2NS+
72.0442	14	C3H6NO+
74.9899	23	C2H3OS+
75.023	2	C6H3+
77.0386	2	C6H5+
81.0447	22	C4H5N2+
82.0288	42	C4H4NO+
83.0128	119	C4H3O2+
83.024	280	C3H3N2O+
85.9695	97	C2NOS+
88.0216	22	C3H6NS+
90.0339	13	C6H4N+
91.0543	22	C7H7+
93.0084	53	C4HN2O+
95.0492	10	C6H7O+
98.9841	33	CH4ClO3+
98.9996	11	C5H4Cl+
102.0464	4	C8H6+
105.0447	6	C6H5N2+
105.07	4	C8H9+
107.024	59	C5H3N2O+
108.0444	4	C6H6NO+
109.0398	46	C5H5N2O+
109.9695	7	C4NOS+
110.0236	6	C5H4NO2+
113.0152	5	C6H6Cl+
114.0337	4	C8H4N+
115.0544	13	C9H7+
117.0572	20	C8H7N+
119.0366	3	C7H5NO+
122.9996	63	C7H4Cl+
123.9949	8	C6H3ClN+
125.0151	6	C7H6Cl+
125.0342	3	C5H5N2O2+
125.9868	27	C6H3ClO+
126.0104	11	C6H5ClN+
127.0417	4	C9H5N+
127.0502	13	C5H7N2O2+
128.0495	90	C9H6N+
129.0101	6	C6H6ClO+
129.0449	6	C8H5N2+
129.0573	31	C9H7N+
130.0653	3	C9H8N+
132.0115	6	C4H6NO2S+
132.0446	3	C8H6NO+
132.081	22	C9H10N+
132.9983	4	C7H3NS+
133.0522	10	C8H7NO+
137.0153	7	C8H6Cl+
138.0107	6	C7H5ClN+
139.0503	999	C6H7N2O2+
141.9958	29	C5H4NO2S+
142.9718	7	C6H4ClS+
144.0443	4	C9H6NO+
146.006	3	C8H4NS+
146.0601	32	C9H8NO+
147.9949	33	C8H3ClN+
149.0028	4	C8H4ClN+
150.0106	28	C8H5ClN+
150.0914	3	C9H12NO+
151.0183	4	C8H6ClN+
152.0261	4	C8H7ClN+
152.0371	3	C10H4N2+
152.9517	3	C2H2ClN2O2S+
153.9816	8	C7H3ClO2+
154.9719	4	C7H4ClS+
156.0443	5	C10H6NO+
156.0557	4	C3H12N2O3S+
157.053	12	C7H10ClN2+
157.0608	247	C6H9N2O3+
161.0469	4	C9H7NO2+
162.0106	46	C9H5ClN+
163.0184	11	C9H6ClN+
163.99	54	C8H3ClNO+
164.0262	241	C9H7ClN+
164.9977	20	C8H4ClNO+
165.0212	18	C8H6ClN2+
166.0055	18	C8H5ClNO+
167.0132	7	C8H6ClNO+
167.9671	9	C7H3ClNS+
168.021	33	C8H7ClNO+
168.975	2	C7H4ClNS+
169.0052	33	C8H6ClO2+
169.9588	160	C7H3ClOS+
170.967	16	C7H4ClOS+
171.0012	31	C9H3N2S+
171.9922	22	C7H5ClO3+
173.0172	4	C9H5N2S+
173.0288	4	C10H7NS+
174.0247	9	C9H6N2S+
174.0551	7	C10H8NO2+
175.0058	21	C9H4ClN2+
175.9896	31	C9H3ClNO+
176.9976	66	C9H4ClNO+
178.0055	366	C9H5ClNO+
179.0007	10	C8H4ClN2O+
179.0137	3	C3H12ClO4S+
179.0348	3	C6H10ClNO3+
179.967	13	C8H3ClNS+
179.9847	126	C8H3ClNO2+
180.0212	60	C9H7ClNO+
180.9748	3	C8H4ClNS+
181.9825	29	C8H5ClNS+
183.0005	3	C10H3N2S+
183.0085	19	C8H6ClNO2+
183.9995	4	C8H7ClNS+
184.009	15	C10H4N2S+
184.9698	44	C7H4ClNOS+
184.9818	17	C8H6ClOS+
185.9774	8	C7H5ClNOS+
186.9278	5	C6ClO3S+
187.0059	99	C7H7O4S+
187.9899	186	C10H3ClNO+
189.0217	11	C7H9O4S+
190.0054	16	C10H5ClNO+
190.0863	2	C11H12NO2+
191.0133	14	C10H6ClNO+
191.9671	3	C9H3ClNS+
192.0213	12	C10H7ClNO+
193.0166	50	C9H6ClN2O+
193.9703	39	C8H3ClN2S+
194.9782	3	C8H4ClN2S+
195.962	46	C8H3ClNOS+
195.9986	5	C9H7ClNS+
196.0164	20	C9H7ClNO2+
198.0012	8	C8H7ClN2S+
198.9858	3	C8H6ClNOS+
199.9933	193	C8H7ClNOS+
200.9775	4	C8H6ClO2S+
201.0116	4	C10H5N2OS+
203.001	13	C10H4ClN2O+
203.9848	727	C10H3ClNO2+
205.0164	12	C10H6ClN2O+
206.0004	308	C10H5ClNO2+
206.978	10	C9H4ClN2S+
207.962	10	C9H3ClNOS+
208.0161	4	C10H7ClNO2+
208.9701	16	C9H4ClNOS+
208.9936	212	C9H6ClN2S+
209.9774	9	C9H5ClNOS+
210.032	27	C10H9ClNO2+
211.0269	20	C9H8ClN2O2+
211.9567	4	C8H3ClNO2S+
215.0278	6	C11H7N2OS+
218.9779	104	C10H4ClN2S+
219.008	5	C11H7O3S+
219.9624	21	C10H3ClNOS+
220.0161	28	C11H7ClNO2+
220.9936	34	C10H6ClN2S+
222.0017	30	C10H7ClN2S+
222.9736	4	C9H4ClN2OS+
223.9929	4	C10H7ClNOS+
224.0107	19	C10H7ClNO3+
224.0477	3	C11H11ClNO2+
226.9911	42	C11H3N2O2S+
227.0029	5	C12H5NO2S+
233.9649	20	C10H3ClN2OS+
236.011	87	C11H7ClNO3+
236.9883	40	C10H6ClN2OS+
237.9965	25	C10H7ClN2OS+
238.0255	13	C11H9ClNO3+
246.9728	101	C11H4ClN2OS+
248.9884	22	C11H6ClN2OS+
249.9966	15	C11H7ClN2OS+
250.0265	23	C12H9ClNO3+
250.9675	19	C10H4ClN2O2S+
251.0035	3	C8H10ClNO4S+
251.9879	6	C11H7ClNO2S+
252.9833	10	C10H6ClN2O2S+
259.0164	6	C12H7N2O3S+
261.9597	73	C11H3ClN2O2S+
264.9837	5	C11H6ClN2O2S+
265.9912	30	C11H7ClN2O2S+
266.9985	3	C11H8ClN2O2S+
267.983	87	C11H7ClNO3S+
276.9834	37	C12H6ClN2O2S+
277.0376	5	C13H10ClN2O3+
278.9617	6	C11H4ClN2O3S+
278.9987	8	C12H8ClN2O2S+
279.9703	65	C11H5ClN2O3S+
281.0145	11	C12H10ClN2O2S+
292.9783	40	C12H6ClN2O3S+
293.9868	13	C12H7ClN2O3S+
294.9972	3	C12H8ClN2O3S+
309.0096	161	C13H10ClN2O3S+
