Mass spectrum: Sulfisoxazole; LC-ESI-QFT; MS2; CE: 15; R=17500; [M+H]+
Name: Sulfisoxazole
Name: 4-amino-N-(3,4-dimethyl-1,2-oxazol-5-yl)benzenesulfonamide
Formula: C11H13N3O3S
Exact mass: 267.0678
SMILES: CC1=NOC(NS(=O)(=O)C2=CC=C(N)C=C2)=C1C
InChI: InChI=1S/C11H13N3O3S/c1-7-8(2)13-17-11(7)14-18(15,16)10-5-3-9(12)4-6-10/h3-6,14H,12H2,1-2H3
Instrument: Q Exactive Orbitrap (Thermo Scientific)
Instrument type: LC-ESI-QFT
Ms type: MS2
Ion mode: POSITIVE
Ionization: ESI
Fragmentation mode: HCD
Collision energy: 15
Resolution: 17500
Column name: Acquity BEH C18 1.7um, 2.1x150mm (Waters)
Retention time: 12.458 min
Base peak: 79.0211
Precursor m/z: 268.075
Precursor type: [M+H]+
Precursor intensity: 18257123.375
m/z	relative intensity	assigned
65.0386	1	C5H5+
68.0494	5	C4H6N+
70.065	1	C4H8N+
71.0603	1	C3H7N2+
86.06	22	C4H8NO+
92.0492	12	C6H6N+
94.0651	2	C6H8N+
95.0605	3	C5H7N2+
96.0443	2	C5H6NO+
106.0651	161	C7H8N+
107.0684	116	C2H9N3O2+
108.0443	38	C6H6NO+
110.0599	1	C6H8NO+
111.0552	1	C5H7N2O+
112.0634	1	C5H8N2O+
113.0709	563	C5H9N2O+
140.0163	6	C6H6NOS+
156.0113	999	C6H6NO2S+
162.0551	1	C9H8NO2+
163.0583	1	C10H11S+
173.0141	2	C6H7NO3S+
174.0219	4	C6H8NO3S+
175.017	1	C5H7N2O3S+
180.0652	7	C9H10NO3+
181.0689	9	C10H13OS+
251.0488	1	C11H11N2O3S+
268.075	590	C11H14N3O3S+
