Mass spectrum: Fluorescein; LC-ESI-QFT; MS2; CE: 60; R=17500; [M+H]+
Name: Fluorescein
Name: 3',6'-dihydroxyspiro[2-benzofuran-3,9'-xanthene]-1-one
Formula: C20H12O5
Exact mass: 332.0685
SMILES: OC1=CC2=C(C=C1)C1(OC(=O)C3=C1C=CC=C3)C1=C(O2)C=C(O)C=C1
InChI: InChI=1S/C20H12O5/c21-11-5-7-15-17(9-11)24-18-10-12(22)6-8-16(18)20(15)14-4-2-1-3-13(14)19(23)25-20/h1-10,21-22H
Instrument: Q Exactive Orbitrap (Thermo Scientific)
Instrument type: LC-ESI-QFT
Ms type: MS2
Ion mode: POSITIVE
Ionization: ESI
Fragmentation mode: HCD
Collision energy: 60
Resolution: 17500
Column name: Acquity BEH C18 1.7um, 2.1x150mm (Waters)
Retention time: 15.821 min
Base peak: 79.0211
Precursor m/z: 333.0757
Precursor type: [M+H]+
Precursor intensity: 14628625.5
m/z	relative intensity	assigned
55.0178	2	C3H3O+
65.0386	7	C5H5+
68.9971	5	C3HO2+
81.0335	1	C5H5O+
94.0413	1	C6H6O+
95.0127	1	C5H3O2+
95.0492	3	C6H7O+
105.0336	6	C7H5O+
115.0541	1	C9H7+
121.0284	1	C7H5O2+
131.049	1	C9H7O+
133.0284	5	C8H5O2+
137.0235	1	C7H5O3+
139.0542	1	C11H7+
165.0698	1	C13H9+
167.0488	2	C12H7O+
168.0571	5	C12H8O+
171.0439	1	C11H7O2+
178.0779	1	C14H10+
181.065	1	C13H9O+
183.0441	1	C12H7O2+
184.052	3	C12H8O2+
189.0695	4	C15H9+
190.0777	4	C15H10+
191.0856	8	C15H11+
195.0441	2	C13H7O2+
196.0521	5	C13H8O2+
197.06	1	C13H9O2+
199.0388	2	C12H7O3+
202.0776	23	C16H10+
203.0855	31	C16H11+
204.0936	1	C16H12+
205.065	2	C15H9O+
205.1012	2	C16H13+
207.0802	2	C15H11O+
213.0697	6	C17H9+
214.0777	1	C17H10+
215.0856	39	C17H11+
217.0646	1	C16H9O+
218.0727	9	C16H10O+
219.0804	4	C16H11O+
221.0595	2	C15H9O2+
224.0469	1	C14H8O3+
228.0414	1	C13H8O4+
229.0497	19	C13H9O4+
229.0636	1	C17H9O+
230.073	1	C17H10O+
231.0805	106	C17H11O+
232.0884	1	C17H12O+
233.0599	1	C16H9O2+
233.096	10	C17H13O+
234.0671	2	C16H10O2+
235.0755	1	C16H11O2+
241.0495	1	C14H9O4+
241.0648	4	C18H9O+
242.0727	9	C18H10O+
243.0806	20	C18H11O+
244.0886	1	C18H12O+
245.06	3	C17H9O2+
246.0679	2	C17H10O2+
247.0754	14	C17H11O2+
249.0546	3	C16H9O3+
255.029	2	C14H7O5+
258.0677	17	C18H10O2+
259.0754	89	C18H11O2+
260.0832	13	C18H12O2+
261.0911	33	C18H13O2+
262.0628	1	C17H10O3+
263.0704	7	C17H11O3+
269.0599	2	C19H9O2+
270.0678	3	C19H10O2+
271.0754	173	C19H11O2+
273.0546	2	C18H9O3+
274.0628	4	C18H10O3+
277.0858	1	C18H13O3+
286.0626	12	C19H10O3+
287.0704	509	C19H11O3+
288.0781	3	C19H12O3+
289.086	271	C19H13O3+
297.055	1	C20H9O3+
298.063	4	C20H10O3+
302.0576	1	C19H10O4+
303.065	1	C19H11O4+
304.0745	1	C19H12O4+
305.081	59	C19H13O4+
313.0489	1	C20H9O4+
314.0575	1	C20H10O4+
315.0654	52	C20H11O4+
316.0731	5	C20H12O4+
332.0675	1	C20H12O5+
333.076	999	C20H13O5+
