Mass spectrum: Propazine; LC-ESI-QFT; MS2; CE: 45; R=17500; [M+H]+
Name: Propazine
Name: 6-chloro-2-N,4-N-di(propan-2-yl)-1,3,5-triazine-2,4-diamine
Formula: C9H16ClN5
Exact mass: 229.1094
SMILES: CC(C)NC1=NC(NC(C)C)=NC(Cl)=N1
InChI: InChI=1S/C9H16ClN5/c1-5(2)11-8-13-7(10)14-9(15-8)12-6(3)4/h5-6H,1-4H3,(H2,11,12,13,14,15)
Instrument: Q Exactive Orbitrap (Thermo Scientific)
Instrument type: LC-ESI-QFT
Ms type: MS2
Ion mode: POSITIVE
Ionization: ESI
Fragmentation mode: HCD
Collision energy: 45
Resolution: 17500
Column name: Acquity BEH C18 1.7um, 2.1x150mm (Waters)
Retention time: 17.270 min
Base peak: 79.0212
Precursor m/z: 230.1167
Precursor type: [M+H]+
Precursor intensity: 22483881.15625
m/z	relative intensity	assigned
53.0022	2	ClH4N+
61.9793	1	CHClN+
68.0242	37	C2H2N3+
79.0057	47	CH4ClN2+
85.076	7	C4H9N2+
104.0009	111	C2H3ClN3+
110.0461	33	C3H4N5+
110.0713	32	C5H8N3+
146.0227	999	C3H5ClN5+
152.0931	5	C6H10N5+
152.1181	12	C8H14N3+
188.0697	977	C6H11ClN5+
230.1166	317	C9H17ClN5+
