Mass spectrum: Crufomate; LC-ESI-QFT; MS2; CE: 60; R=17500; [M+H]+
Name: Crufomate
Name: N-[(4-tert-butyl-2-chlorophenoxy)-methoxyphosphoryl]methanamine
Formula: C12H19ClNO3P
Exact mass: 291.0791
SMILES: CNP(=O)(OC)OC1=CC=C(C=C1Cl)C(C)(C)C
InChI: InChI=1S/C12H19ClNO3P/c1-12(2,3)9-6-7-11(10(13)8-9)17-18(15,14-4)16-5/h6-8H,1-5H3,(H,14,15)
Instrument: Q Exactive Orbitrap (Thermo Scientific)
Instrument type: LC-ESI-QFT
Ms type: MS2
Ion mode: POSITIVE
Ionization: ESI
Fragmentation mode: HCD
Collision energy: 60
Resolution: 17500
Column name: Acquity BEH C18 1.7um, 2.1x150mm (Waters)
Retention time: 18.298 min
Base peak: 79.0211
Precursor m/z: 292.0864
Precursor type: [M+H]+
Precursor intensity: 22462692.5
m/z	relative intensity	assigned
53.0022	10	C3HO+
53.9974	1	C2NO+
57.0699	342	C4H9+
59.9997	10	CH3NP+
78.0103	7	CH5NOP+
78.9943	6	CH4O2P+
91.0542	6	C7H7+
94.0651	1	C6H8N+
95.0491	1	C6H7O+
95.9764	203	CH4ClNP+
96.9604	15	CH3ClOP+
103.0542	1	C8H7+
107.049	1	C7H7O+
108.0208	6	C2H7NO2P+
108.057	1	C7H8O+
112.0158	4	CH7NO3P+
115.0541	1	C9H7+
116.0618	3	C9H8+
117.0699	4	C9H9+
119.0855	7	C9H11+
122.0601	6	C7H8NO+
123.0442	2	C7H7O2+
125.0597	1	C7H9O2+
126.0314	999	C2H9NO3P+
126.9943	1	C5H4O2P+
128.0023	1	C6H5ClO+
128.0356	2	ClH14O3P+
129.0697	1	C10H9+
129.9818	5	CH6ClNO2P+
131.0855	1	C10H11+
137.0962	5	C9H13O+
138.0101	6	C10H2O+
139.0058	5	C9HNO+
139.0311	2	C4H11ClNP+
140.047	25	C3H11NO3P+
141.0099	1	C6H6O2P+
143.0258	5	C7H8ClO+
147.0804	4	C10H11O+
152.0387	2	C9H9Cl+
153.0099	1	C7H6O2P+
155.0259	2	C8H8ClO+
163.0994	2	C10H13NO+
165.0909	2	C10H13O2+
169.0413	2	C8H10O2P+
172.9554	1	C6H3ClO2P+
172.9997	9	C7H6ClO3+
174.971	1	C6H5ClO2P+
178.1226	2	C11H16NO+
183.0572	1	C10H12ClO+
186.0314	4	C7H9NO3P+
187.0153	1	C8H8ClO3+
189.958	9	C6H4ClO3P+
190.9655	1	C6H5ClO3P+
192.9816	1	C6H7ClO3P+
202.9659	2	C7H5ClO3P+
203.9976	58	C7H8ClNO2P+
204.9816	18	C7H7ClO3P+
210.0673	4	C10H13NO2P+
211.0517	4	C10H12O3P+
215.0023	1	C9H9ClO2P+
222.0081	119	C7H10ClNO3P+
222.9919	8	C10H7ClNOP+
230.0131	4	C9H10ClNO2P+
230.9973	29	C9H9ClO3P+
236.0237	76	C8H12ClNO3P+
245.0364	1	C10H13ClNO2P+
260.0601	27	C11H16ClNO2P+
261.0443	7	C11H15ClO3P+
278.0709	1	C11H18ClNO3P+
