Mass spectrum: Tolbutamide; LC-ESI-QFT; MS2; CE: 15; R=17500; [M+H]+
Name: Tolbutamide
Name: 1-butyl-3-(4-methylphenyl)sulfonylurea
Formula: C12H18N2O3S
Exact mass: 270.1038
SMILES: CCCCNC(=O)NS(=O)(=O)C1=CC=C(C)C=C1
InChI: InChI=1S/C12H18N2O3S/c1-3-4-9-13-12(15)14-18(16,17)11-7-5-10(2)6-8-11/h5-8H,3-4,9H2,1-2H3,(H2,13,14,15)
Instrument: Q Exactive Orbitrap (Thermo Scientific)
Instrument type: LC-ESI-QFT
Ms type: MS2
Ion mode: POSITIVE
Ionization: ESI
Fragmentation mode: HCD
Collision energy: 15
Resolution: 17500
Column name: Acquity BEH C18 1.7um, 2.1x150mm (Waters)
Retention time: 16.050 min
Base peak: 79.0211
Precursor m/z: 271.1111
Precursor type: [M+H]+
Precursor intensity: 6632920.875
m/z	relative intensity	assigned
57.0699	33	C4H9+
74.0964	999	C4H12N+
91.0544	8	C7H7+
109.0648	3	C7H9O+
119.0604	8	C7H7N2+
154.0321	10	C7H8NOS+
155.0161	264	C7H7O2S+
172.0426	522	C7H10NO2S+
271.1111	384	C12H19N2O3S+
