Mass spectrum: PharmaGSID_48507; LC-ESI-QFT; MS2; CE: 90; R=17500; [M-H]-
Name: PharmaGSID_48507
Name: 5-(2,4-Difluorophenoxy)-2-[(2-hydroxy-2-methylpropyl)amino]-8-methylpyrido[2,3-d]pyrimidin-7(8H)-one
Formula: C18H18F2N4O3
Exact mass: 376.1347
SMILES: CN1C(=O)C=C(OC2=C(F)C=C(F)C=C2)C2=C1N=C(NCC(C)(C)O)N=C2
InChI: InChI=1S/C18H18F2N4O3/c1-18(2,26)9-22-17-21-8-11-14(7-15(25)24(3)16(11)23-17)27-13-5-4-10(19)6-12(13)20/h4-8,26H,9H2,1-3H3,(H,21,22,23)
Instrument: Q Exactive Orbitrap (Thermo Scientific)
Instrument type: LC-ESI-QFT
Ms type: MS2
Ion mode: NEGATIVE
Ionization: ESI
Fragmentation mode: HCD
Collision energy: 90
Resolution: 17500
Column name: Acquity BEH C18 1.7um, 2.1x150mm (Waters)
Retention time: 16.608 min
Base peak: 206.007
Precursor m/z: 375.1274
Precursor type: [M-H]-
Precursor intensity: 5668940.082031
m/z	relative intensity	assigned
64.0192	9	C4H2N-
74.0036	5	C5N-
76.0192	7	C5H2N-
83.0302	4	C5H4F-
89.0033	234	C6HO-
91.0303	12	C5H3N2-
93.0146	76	C6H2F-
95.0304	2	C6H4F-
103.0303	12	C6H3N2-
105.0333	15	C5H3N3-
105.0459	15	C6H5N2-
106.0173	68	C5H2N2O-
109.0095	140	C6H2FO-
111.0252	5	C6H4FO-
113.0209	9	C6H3F2-
117.0094	9	C6HN2O-
118.0411	78	C6H4N3-
119.0252	7	C6H3N2O-
121.0407	5	C6H5N2O-
127.02	8	C6H4FO2-
129.0158	525	C6H3F2O-
130.041	7	C7H4N3-
132.0204	9	C6H2N3O-
133.0282	369	C6H3N3O-
146.0359	11	C7H4N3O-
147.0314	14	C6H3N4O-
148.0517	999	C7H6N3O-
158.0352	5	C8H4N3O-
160.039	9	C7H4N4O-
162.0548	13	C7H6N4O-
173.0468	5	C8H5N4O-
175.0261	6	C7H3N4O2-
175.0625	86	C8H7N4O-
176.0466	291	C8H6N3O2-
177.0544	2	C8H7N3O2-
190.0496	32	C8H6N4O2-
198.0234	3	C11H3FN2O-
203.0576	39	C9H7N4O2-
206.0356	4	C12H4N3O-
227.0265	4	C12H4FN2O2-
254.0372	45	C13H5FN3O2-
