Mass spectrum: Fipexide; LC-ESI-QFT; MS2; CE: 90; R=17500; [M+H]+
Name: Fipexide
Name: 1-[4-(1,3-benzodioxol-5-ylmethyl)piperazin-1-yl]-2-(4-chlorophenoxy)ethanone
Formula: C20H21ClN2O4
Exact mass: 388.1190
SMILES: ClC1=CC=C(OCC(=O)N2CCN(CC3=CC4=C(OCO4)C=C3)CC2)C=C1
InChI: InChI=1S/C20H21ClN2O4/c21-16-2-4-17(5-3-16)25-13-20(24)23-9-7-22(8-10-23)12-15-1-6-18-19(11-15)27-14-26-18/h1-6,11H,7-10,12-14H2
Instrument: Q Exactive Orbitrap (Thermo Scientific)
Instrument type: LC-ESI-QFT
Ms type: MS2
Ion mode: POSITIVE
Ionization: ESI
Fragmentation mode: HCD
Collision energy: 90
Resolution: 17500
Column name: Acquity BEH C18 1.7um, 2.1x150mm (Waters)
Retention time: 13.929 min
Base peak: 79.0212
Precursor m/z: 389.1263
Precursor type: [M+H]+
Precursor intensity: 10804118.875
m/z	relative intensity	assigned
50.0151	17	C4H2+
51.0229	16	C4H3+
53.0386	156	C4H5+
55.0179	11	C3H3O+
65.0385	13	C5H5+
67.0542	48	C5H7+
68.997	1	C3HO2+
77.0385	257	C6H5+
79.0542	332	C6H7+
81.0335	15	C5H5O+
83.0606	1	C4H7N2+
84.0682	1	C4H8N2+
94.0412	9	C6H6O+
95.0491	447	C6H7O+
105.0336	280	C7H5O+
105.0447	167	C6H5N2+
106.0416	1	C4H9ClN+
107.0492	9	C7H7O+
109.0648	1	C7H9O+
135.044	999	C8H7O2+
