Mass spectrum: Myclobutanil; LC-ESI-QFT; MS2; CE: 45; R=17500; [M+H]+
Name: Myclobutanil
Name: 2-(4-chlorophenyl)-2-(1,2,4-triazol-1-ylmethyl)hexanenitrile
Formula: C15H17ClN4
Exact mass: 288.1142
SMILES: CCCCC(CN1C=NC=N1)(C#N)C1=CC=C(Cl)C=C1
InChI: InChI=1S/C15H17ClN4/c1-2-3-8-15(9-17,10-20-12-18-11-19-20)13-4-6-14(16)7-5-13/h4-7,11-12H,2-3,8,10H2,1H3
Instrument: Q Exactive Orbitrap (Thermo Scientific)
Instrument type: LC-ESI-QFT
Ms type: MS2
Ion mode: POSITIVE
Ionization: ESI
Fragmentation mode: HCD
Collision energy: 45
Resolution: 17500
Column name: Acquity BEH C18 1.7um, 2.1x150mm (Waters)
Retention time: 17.761 min
Base peak: 79.0211
Precursor m/z: 289.1215
Precursor type: [M+H]+
Precursor intensity: 9596777.1875
m/z	relative intensity	assigned
55.0542	5	C4H7+
57.0699	2	C4H9+
70.0399	999	C2H4N3+
81.0698	4	C6H9+
82.0399	2	C3H4N3+
82.0652	4	C5H8N+
83.0477	4	C3H5N3+
95.0729	3	C6H9N+
97.0646	1	C3H12ClN+
108.0806	1	C7H10N+
109.0648	1	C4H12ClN+
115.0542	1	C9H7+
125.0152	262	C7H6Cl+
130.0651	2	C9H8N+
139.0309	2	C8H8Cl+
143.073	1	C10H9N+
149.0153	2	C9H6Cl+
150.0104	3	C8H5ClN+
151.0309	73	C9H8Cl+
153.0698	1	C12H9+
163.0306	2	C10H8Cl+
164.0261	21	C9H7ClN+
165.0341	7	C9H8ClN+
165.0468	1	C10H10Cl+
166.0418	9	C9H9ClN+
167.0856	2	C13H11+
168.0935	8	C13H12+
175.0309	4	C11H8Cl+
178.0417	15	C10H9ClN+
184.1121	1	C13H14N+
185.12	1	C13H15N+
191.0494	1	C11H10ClN+
192.0576	3	C11H11ClN+
193.0779	5	C12H14Cl+
203.0621	6	C13H12Cl+
220.0887	7	C13H15ClN+
289.1217	1	C15H18ClN4+
