Mass spectrum: Cybutryne; LC-ESI-QFT; MS2; CE: 30; R=17500; [M+H]+
Name: Cybutryne
Name: 2-N-tert-butyl-4-N-cyclopropyl-6-methylsulfanyl-1,3,5-triazine-2,4-diamine
Formula: C11H19N5S
Exact mass: 253.1361
SMILES: CSC1=NC(NC(C)(C)C)=NC(NC2CC2)=N1
InChI: InChI=1S/C11H19N5S/c1-11(2,3)16-9-13-8(12-7-5-6-7)14-10(15-9)17-4/h7H,5-6H2,1-4H3,(H2,12,13,14,15,16)
Instrument: Q Exactive Orbitrap (Thermo Scientific)
Instrument type: LC-ESI-QFT
Ms type: MS2
Ion mode: POSITIVE
Ionization: ESI
Fragmentation mode: HCD
Collision energy: 30
Resolution: 17500
Column name: Acquity BEH C18 1.7um, 2.1x150mm (Waters)
Retention time: 17.005 min
Base peak: 79.0212
Precursor m/z: 254.1434
Precursor type: [M+H]+
Precursor intensity: 58571244.71875
m/z	relative intensity	assigned
57.0698	2	C4H9+
83.0602	4	C4H7N2+
91.0324	7	C2H7N2S+
108.0554	1	C5H6N3+
116.0276	1	C3H6N3S+
125.0821	4	C5H9N4+
150.0774	1	C6H8N5+
156.034	1	C4H6N5S+
156.0591	1	C6H10N3S+
170.0494	1	C5H8N5S+
183.0571	1	C6H9N5S+
198.0807	999	C7H12N5S+
254.1432	496	C11H20N5S+
