Mass spectrum: Fenchlorazole-ethyl; LC-ESI-QFT; MS2; CE: 90; R=17500; [M+H]+
Name: Fenchlorazole-ethyl
Name: ethyl 1-(2,4-dichlorophenyl)-5-(trichloromethyl)-1,2,4-triazole-3-carboxylate
Formula: C12H8Cl5N3O2
Exact mass: 400.9059
SMILES: CCOC(=O)C1=NN(C(=N1)C(Cl)(Cl)Cl)C1=C(Cl)C=C(Cl)C=C1
InChI: InChI=1S/C12H8Cl5N3O2/c1-2-22-10(21)9-18-11(12(15,16)17)20(19-9)8-4-3-6(13)5-7(8)14/h3-5H,2H2,1H3
Instrument: Q Exactive Orbitrap (Thermo Scientific)
Instrument type: LC-ESI-QFT
Ms type: MS2
Ion mode: POSITIVE
Ionization: ESI
Fragmentation mode: HCD
Collision energy: 90
Resolution: 17500
Column name: Acquity BEH C18 1.7um, 2.1x150mm (Waters)
Retention time: 18.831 min
Base peak: 79.0211
Precursor m/z: 401.9132
Precursor type: [M+H]+
Precursor intensity: 48933110.10938
m/z	relative intensity	assigned
53.0023	12	C3HO+
55.0542	36	C4H7+
57.0699	79	C4H9+
58.0652	4	C3H8N+
62.0236	35	CH4NO2+
62.9632	14	CClO+
62.9994	9	C2H4Cl+
63.0313	72	CH5NO2+
64.9786	4	CH2ClO+
67.0543	7	C5H7+
69.0699	16	C5H9+
72.9839	31	C3H2Cl+
73.0283	7	C3H5O2+
74.015	24	C6H2+
77.0469	156	C2H7NO2+
81.01	3	C2H6ClO+
81.0698	5	C6H9+
82.945	40	CHCl2+
84.9839	44	C4H2Cl+
86.9632	86	C3ClO+
86.9745	44	C2ClN2+
90.0549	19	C3H8NO2+
91.0307	50	C4H8Cl+
91.0627	49	C3H9NO2+
94.0178	16	C3H7ClO+
95.0256	6	C3H8ClO+
98.9996	7	C5H4Cl+
100.0181	23	C7H2N+
106.9449	14	C3HCl2+
108.0334	84	C4H9ClO+
108.984	224	C6H2Cl+
112.9788	6	C5H2ClO+
116.906	150	CCl3+
118.0287	10	C7H4NO+
119.062	21	C7H7N2+
120.9606	19	C4H3Cl2+
123.9947	13	C6H3ClN+
126.9944	30	C6H4ClO+
128.0023	39	C6H5ClO+
130.0054	4	C5H5ClNO+
132.9606	999	C5H3Cl2+
133.9791	7	C7HClN+
135.9948	19	C7H3ClN+
144.9606	78	C6H3Cl2+
145.0051	7	C6H6ClO2+
148.9901	2	C7H2ClN2+
149.9978	26	C7H3ClN2+
151.9897	9	C7H3ClNO+
154.0055	25	C7H5ClNO+
155.0009	5	C6H4ClN2O+
156.9603	4	C7H3Cl2+
157.9557	6	C6H2Cl2N+
159.0208	3	C7H8ClO2+
161.9636	5	C6H4Cl2O+
161.998	32	C8H3ClN2+
162.9712	58	C6H5Cl2O+
164.0009	154	C7H3ClN3+
169.9558	5	C7H2Cl2N+
170.9637	236	C7H3Cl2N+
172.9668	381	C6H3Cl2N2+
184.9668	36	C7H3Cl2N2+
188.001	131	C9H3ClN3+
194.9637	30	C9H3Cl2N+
195.959	33	C8H2Cl2N2+
196.9668	120	C8H3Cl2N2+
197.9619	12	C7H2Cl2N3+
205.9324	56	C7H3Cl3N+
210.9692	3	C11ClN2O+
221.9615	5	C9H2Cl2N3+
222.9698	213	C9H3Cl2N3+
230.9278	5	C8H2Cl3N2+
254.9955	17	C10H7Cl2N3O+
256.9307	3	C9H2Cl3N3+
257.9386	37	C9H3Cl3N3+
268.9752	173	C10H5Cl2N3O2+
303.944	4	C10H5Cl3N3O2+
