Mass spectrum: Imazethapyr; LC-ESI-QFT; MS2; CE: 90; R=17500; [M+H]+
Name: Imazethapyr
Name: 5-ethyl-2-(4-methyl-5-oxo-4-propan-2-yl-1H-imidazol-2-yl)pyridine-3-carboxylic acid
Formula: C15H19N3O3
Exact mass: 289.1426
SMILES: CCC1=CN=C(C2=NC(C)(C(C)C)C(=O)N2)C(=C1)C(O)=O
InChI: InChI=1S/C15H19N3O3/c1-5-9-6-10(13(19)20)11(16-7-9)12-17-14(21)15(4,18-12)8(2)3/h6-8H,5H2,1-4H3,(H,19,20)(H,17,18,21)
Instrument: Q Exactive Orbitrap (Thermo Scientific)
Instrument type: LC-ESI-QFT
Ms type: MS2
Ion mode: POSITIVE
Ionization: ESI
Fragmentation mode: HCD
Collision energy: 90
Resolution: 17500
Column name: Acquity BEH C18 1.7um, 2.1x150mm (Waters)
Retention time: 14.647 min
Base peak: 79.0211
Precursor m/z: 290.1499
Precursor type: [M+H]+
Precursor intensity: 22403801
m/z	relative intensity	assigned
52.0183	7	C3H2N+
53.0022	130	C3HO+
53.0386	29	C4H5+
53.9975	24	C2NO+
55.0179	5	C3H3O+
56.0495	56	C3H6N+
58.0651	29	C3H8N+
66.0463	15	C5H6+
67.0416	9	C4H5N+
67.0542	38	C5H7+
67.9893	3	C3O2+
69.0699	941	C5H9+
70.0651	83	C4H8N+
71.0729	217	C4H9N+
72.0445	4	C3H6NO+
72.0809	2	C4H10N+
77.0386	8	C6H5+
78.0087	2	C3N3+
78.0338	4	C5H4N+
79.0542	73	C6H7+
80.0495	29	C5H6N+
81.0335	9	C5H5O+
81.0574	6	C5H7N+
86.0964	588	C5H12N+
91.0418	11	C6H5N+
91.0543	10	C7H7+
93.0573	22	C6H7N+
93.0698	12	C7H9+
94.0651	20	C6H8N+
95.0492	85	C6H7O+
96.0444	40	C5H6NO+
97.0648	5	C6H9O+
104.0495	769	C7H6N+
105.0448	61	C6H5N2+
105.0573	17	C7H7N+
106.0651	52	C7H8N+
107.0605	5	C6H7N2+
107.0732	14	C7H9N+
108.0683	4	C6H8N2+
108.0807	10	C7H10N+
110.0601	8	C6H8NO+
118.0526	161	C7H6N2+
119.0605	3	C7H7N2+
120.0683	12	C7H8N2+
120.0809	3	C8H10N+
121.0397	111	C6H5N2O+
121.0522	13	C7H7NO+
121.076	16	C7H9N2+
122.0601	20	C7H8NO+
123.0679	9	C7H9NO+
124.0758	999	C7H10NO+
131.0604	82	C8H7N2+
132.0683	63	C8H8N2+
132.0807	27	C9H10N+
133.0761	250	C8H9N2+
134.0599	6	C8H8NO+
134.0837	3	C8H10N2+
135.0553	6	C7H7N2O+
135.0918	10	C8H11N2+
136.0757	16	C8H10NO+
138.0914	21	C8H12NO+
139.0629	32	C7H9NO2+
143.0731	9	C10H9N+
145.0885	7	C10H11N+
146.0475	54	C8H6N2O+
147.0553	9	C8H7N2O+
147.0916	8	C9H11N2+
149.0348	50	C7H5N2O2+
149.071	620	C8H9N2O+
152.0707	75	C8H10NO2+
157.076	7	C10H9N2+
158.0714	7	C9H8N3+
158.0965	9	C11H12N+
159.0554	837	C9H7N2O+
160.0632	178	C9H8N2O+
161.0709	148	C9H9N2O+
162.0424	82	C8H6N2O2+
163.05	4	C8H7N2O2+
163.0865	6	C9H11N2O+
164.0705	3	C9H10NO2+
169.0764	7	C11H9N2+
170.0839	4	C11H10N2+
171.0916	10	C11H11N2+
172.1121	3	C12H14N+
173.0713	9	C10H9N2O+
174.1028	6	C10H12N3+
175.0867	491	C10H11N2O+
176.0819	60	C9H10N3O+
177.0659	366	C9H9N2O2+
184.1001	10	C12H12N2+
185.0707	2	C11H9N2O+
186.1159	2	C12H14N2+
187.074	14	C10H9N3O+
188.0946	9	C11H12N2O+
191.0816	59	C10H11N2O2+
197.0709	9	C12H9N2O+
199.123	4	C13H15N2+
200.0821	6	C11H10N3O+
202.0977	41	C11H12N3O+
212.0943	5	C13H12N2O+
214.0974	7	C12H12N3O+
215.0694	6	C11H9N3O2+
230.0925	17	C12H12N3O2+
