Mass spectrum: AVE9423; LC-ESI-QFT; MS2; CE: 30; R=17500; [M-H]-
Name: AVE9423
Name: 1-(2-carboxyphenyl)-7-chloro-6-(2-chloro-4,6-difluoroanilino)-4-oxoquinoline-3-carboxylic acid
Formula: C23H12Cl2F2N2O5
Exact mass: 504.0091
SMILES: OC(=O)C1=CC=CC=C1N1C=C(C(O)=O)C(=O)C2=C1C=C(Cl)C(NC1=C(F)C=C(F)C=C1Cl)=C2
InChI: InChI=1S/C23H12Cl2F2N2O5/c24-14-8-19-12(7-17(14)28-20-15(25)5-10(26)6-16(20)27)21(30)13(23(33)34)9-29(19)18-4-2-1-3-11(18)22(31)32/h1-9,28H,(H,31,32)(H,33,34)
Instrument: Q Exactive Orbitrap (Thermo Scientific)
Instrument type: LC-ESI-QFT
Ms type: MS2
Ion mode: NEGATIVE
Ionization: ESI
Fragmentation mode: HCD
Collision energy: 30
Resolution: 17500
Column name: Acquity BEH C18 1.7um, 2.1x150mm (Waters)
Retention time: 17.443 min
Base peak: 112.9857
Precursor m/z: 503.0019
Precursor type: [M-H]-
Precursor intensity: 1381505.844727
m/z	relative intensity	assigned
315.0747	19	C20H9F2N2-
317.977	19	C18F2O4-
323.0621	44	C21H8FN2O-
330.0372	7	C20H6F2NO2-
331.0444	210	C20H9ClFN2-
338.9903	14	C18H4ClF2NO2-
342.0599	8	C21H8F2N2O-
343.0688	630	C21H9F2N2O-
359.0394	999	C21H9ClFN2O-
367.0205	43	C23H7ClFNO-
374.0515	11	C21H8F2N2O3-
377.0296	18	C21H8ClF2N2O-
379.0456	137	C21H10ClF2N2O-
382.9809	88	C16H7Cl2F2N2O3-
395.0156	79	C21H10Cl2FN2O-
