Mass spectrum: Ancymidol; LC-ESI-QFT; MS2; CE: 90; R=17500; [M+H]+
Name: Ancymidol
Name: cyclopropyl-(4-methoxyphenyl)-pyrimidin-5-ylmethanol
Formula: C15H16N2O2
Exact mass: 256.1212
SMILES: COC1=CC=C(C=C1)C(O)(C1CC1)C1=CN=CN=C1
InChI: InChI=1S/C15H16N2O2/c1-19-14-6-4-12(5-7-14)15(18,11-2-3-11)13-8-16-10-17-9-13/h4-11,18H,2-3H2,1H3
Instrument: Q Exactive Orbitrap (Thermo Scientific)
Instrument type: LC-ESI-QFT
Ms type: MS2
Ion mode: POSITIVE
Ionization: ESI
Fragmentation mode: HCD
Collision energy: 90
Resolution: 17500
Column name: Acquity BEH C18 1.7um, 2.1x150mm (Waters)
Retention time: 15.425 min
Base peak: 79.0211
Precursor m/z: 257.1285
Precursor type: [M+H]+
Precursor intensity: 8100884.875
m/z	relative intensity	assigned
51.023	1	C4H3+
52.0181	6	C3H2N+
53.0022	9	C3HO+
53.0386	70	C4H5+
54.0338	289	C3H4N+
55.0178	9	C3H3O+
56.0495	2	C3H6N+
57.0699	2	C4H9+
63.0229	2	C5H3+
65.0385	6	C5H5+
67.0542	17	C5H7+
68.0256	2	C4H4O+
68.0494	3	C4H6N+
69.0334	85	C4H5O+
71.0855	2	C5H11+
74.0965	1	C4H12N+
77.0385	17	C6H5+
78.0464	6	C6H6+
79.0542	46	C6H7+
80.0369	2	C4H4N2+
80.0494	5	C5H6N+
81.0447	999	C4H5N2+
91.0542	55	C7H7+
92.0256	101	C6H4O+
93.0573	1	C6H7N+
93.07	3	C7H9+
94.0413	11	C6H6O+
94.0652	7	C6H8N+
95.0491	211	C6H7O+
102.0465	4	C8H6+
103.0541	9	C8H7+
104.0496	2	C7H6N+
105.0447	82	C6H5N2+
105.0698	6	C8H9+
106.0413	2	C7H6O+
107.0491	16	C7H7O+
107.0605	1	C6H7N2+
108.0569	2	C7H8O+
109.0648	8	C7H9O+
112.0269	1	C4H4N2O2+
115.0542	35	C9H7+
116.0621	19	C9H8+
117.0572	1	C8H7N+
117.0696	2	C9H9+
118.0414	3	C8H6O+
119.049	2	C8H7O+
119.0605	3	C7H7N2+
120.0571	1	C8H8O+
121.0648	126	C8H9O+
125.0597	102	C7H9O2+
127.054	6	C10H7+
128.062	31	C10H8+
129.0698	9	C10H9+
130.0416	4	C9H6O+
130.0649	6	C9H8N+
131.049	9	C9H7O+
131.0604	3	C8H7N2+
133.0648	5	C9H9O+
134.0728	3	C9H10O+
135.044	483	C8H7O2+
135.0548	82	C7H7N2O+
137.0116	8	C9HN2+
140.0625	1	C11H8+
141.0698	86	C11H9+
142.0777	27	C11H10+
143.0728	5	C10H9N+
144.0569	24	C10H8O+
144.0809	2	C10H10N+
145.0523	3	C9H7NO+
145.0648	23	C10H9O+
146.0601	3	C9H8NO+
146.0727	4	C10H10O+
149.0959	1	C10H13O+
152.062	117	C12H8+
153.0698	49	C12H9+
154.0652	18	C11H8N+
154.0775	10	C12H10+
155.0223	4	C9H3N2O+
155.0495	9	C11H7O+
155.0603	36	C10H7N2+
155.0851	2	C12H11+
156.0575	1	C11H8O+
156.0683	1	C10H8N2+
157.065	1	C11H9O+
157.0759	1	C10H9N2+
158.0603	4	C10H8NO+
158.0725	2	C11H10O+
159.0682	1	C10H9NO+
159.0807	2	C11H11O+
160.0523	1	C10H8O2+
160.0757	2	C10H10NO+
165.07	7	C13H9+
167.0731	3	C12H9N+
168.0572	1	C12H8O+
168.0683	11	C11H8N2+
168.0807	20	C12H10N+
169.0647	46	C12H9O+
169.0758	3	C11H9N2+
169.0886	5	C12H11N+
170.0725	14	C12H10O+
171.0804	2	C12H11O+
172.0634	1	C10H8N2O+
172.076	3	C11H10NO+
173.0711	3	C10H9N2O+
179.0604	2	C12H7N2+
180.057	2	C13H8O+
180.0807	9	C13H10N+
181.0656	2	C13H9O+
181.076	9	C12H9N2+
182.0605	3	C12H8NO+
183.0551	2	C11H7N2O+
188.0708	2	C11H10NO2+
193.0759	1	C13H9N2+
195.0917	14	C13H11N2+
196.0756	4	C13H10NO+
196.0989	1	C13H12N2+
197.0835	2	C13H11NO+
207.0919	3	C14H11N2+
209.0709	2	C13H9N2O+
215.0811	1	C12H11N2O2+
