Mass spectrum: PharmaGSID_47333; LC-ESI-QFT; MS2; CE: 30; R=17500; [M-H]-
Name: (3S)-3-(2-methylpyrimidin-5-yl)-9-(5,6,7,8-tetrahydro-1,8-naphthyridin-2-yl)nonanoic acid
Name: PharmaGSID_47333
Formula: C22H30N4O2
Exact mass: 382.2369
SMILES: CC1=NC=C(C=N1)[C@@H](CCCCCCC1=NC2=C(CCCN2)C=C1)CC(O)=O
InChI: InChI=1S/C22H30N4O2/c1-16-24-14-19(15-25-16)18(13-21(27)28)7-4-2-3-5-9-20-11-10-17-8-6-12-23-22(17)26-20/h10-11,14-15,18H,2-9,12-13H2,1H3,(H,23,26)(H,27,28)/t18-/m0/s1
Instrument: Q Exactive Orbitrap (Thermo Scientific)
Instrument type: LC-ESI-QFT
Ms type: MS2
Ion mode: NEGATIVE
Ionization: ESI
Fragmentation mode: HCD
Collision energy: 30
Resolution: 17500
Column name: Acquity BEH C18 1.7um, 2.1x150mm (Waters)
Retention time: 13.608 min
Base peak: 112.9857
Precursor m/z: 381.2296
Precursor type: [M-H]-
Precursor intensity: 4096281.497559
m/z	relative intensity	assigned
68.0141	2	C3H2NO-
93.0458	103	C5H5N2-
107.0614	5	C6H7N2-
109.0407	25	C5H5N2O-
119.0614	2	C7H7N2-
121.0773	1	C7H9N2-
135.0451	1	C8H7O2-
135.0562	3	C7H7N2O-
137.0357	4	C6H5N2O2-
137.072	1	C7H9N2O-
146.0487	2	C8H6N2O-
147.0927	18	C9H11N2-
159.0929	2	C10H11N2-
175.1238	1	C11H15N2-
243.1864	4	C16H23N2-
296.2118	2	C19H26N3-
333.2088	3	C21H25N4-
335.2243	90	C21H27N4-
337.2398	999	C21H29N4-
381.2296	586	C22H29N4O2-
