Mass spectrum: Thiazopyr; LC-ESI-QFT; MS2; CE: 30; R=17500; [M+H]+
Name: Thiazopyr
Name: methyl 2-(difluoromethyl)-5-(4,5-dihydro-1,3-thiazol-2-yl)-4-(2-methylpropyl)-6-(trifluoromethyl)pyridine-3-carboxylate
Formula: C16H17F5N2O2S
Exact mass: 396.0931
SMILES: COC(=O)C1=C(CC(C)C)C(C2=NCCS2)=C(N=C1C(F)F)C(F)(F)F
InChI: InChI=1S/C16H17F5N2O2S/c1-7(2)6-8-9(15(24)25-3)11(13(17)18)23-12(16(19,20)21)10(8)14-22-4-5-26-14/h7,13H,4-6H2,1-3H3
Instrument: Q Exactive Orbitrap (Thermo Scientific)
Instrument type: LC-ESI-QFT
Ms type: MS2
Ion mode: POSITIVE
Ionization: ESI
Fragmentation mode: HCD
Collision energy: 30
Resolution: 17500
Column name: Acquity BEH C18 1.7um, 2.1x150mm (Waters)
Retention time: 18.344 min
Base peak: 79.0211
Precursor m/z: 397.1004
Precursor type: [M+H]+
Precursor intensity: 22619361.96875
m/z	relative intensity	assigned
61.0106	36	C2H5S+
75.0262	17	C3H7S+
76.0214	1	C2H6NS+
222.0726	6	C12H10F2NO+
249.0834	3	C13H11F2N2O+
250.0673	15	C13H10F2NO2+
265.058	7	C13H8F3N2O+
275.0435	1	C11H7F4N2O2+
276.0337	1	C11H8F4N2S+
277.0605	1	C14H11F2N2S+
277.0781	16	C14H11F2N2O2+
285.0645	26	C13H9F4N2O+
297.0667	5	C14H12F3N2S+
297.0843	39	C14H12F3N2O2+
300.0177	1	C12H7F3N2O2S+
300.0643	14	C14H10F4NO2+
303.0212	4	C12H7F4N2OS+
305.0556	1	C15H11F2N2OS+
306.0077	1	C11H6F4N2O2S+
309.0858	1	C15H15F2N2OS+
311.0995	1	C15H14F3N2O2+
315.0408	6	C13H10F3N2O2S+
315.0946	2	C12H16F5N2S+
317.0908	70	C14H13F4N2O2+
320.0701	3	C14H11F5NO2+
322.0578	2	C15H12F2N2O2S+
325.0617	20	C15H12F3N2OS+
329.093	1	C15H16F3N2OS+
334.0397	4	C13H10F4N2O2S+
335.0471	63	C13H11F4N2O2S+
337.0814	21	C16H15F2N2O2S+
342.0642	1	C15H13F3N2O2S+
345.0681	3	C15H13F4N2OS+
355.0536	1	C13H12F5N2O2S+
357.0879	36	C16H16F3N2O2S+
377.0941	476	C16H17F4N2O2S+
397.1003	999	C16H18F5N2O2S+
