Mass spectrum: N-(3-Chloro-4-methylphenyl)acetamide; LC-ESI-QFT; MS2; CE: 45; R=17500; [M+H]+
Name: N-(3-Chloro-4-methylphenyl)acetamide
Formula: C9H10ClNO
Exact mass: 183.0451
SMILES: CC(=O)NC1=CC(Cl)=C(C)C=C1
InChI: InChI=1S/C9H10ClNO/c1-6-3-4-8(5-9(6)10)11-7(2)12/h3-5H,1-2H3,(H,11,12)
Instrument: Q Exactive Orbitrap (Thermo Scientific)
Instrument type: LC-ESI-QFT
Ms type: MS2
Ion mode: POSITIVE
Ionization: ESI
Fragmentation mode: HCD
Collision energy: 45
Resolution: 17500
Column name: Acquity BEH C18 1.7um, 2.1x150mm (Waters)
Retention time: 16.482 min
Base peak: 79.0211
Precursor m/z: 184.0524
Precursor type: [M+H]+
Precursor intensity: 720048
m/z	relative intensity	assigned
106.0653	8	C7H8N+
107.073	368	C7H9N+
131.0729	6	C9H9N+
142.0419	999	C7H9ClN+
143.0259	7	C7H8ClO+
166.0418	7	C9H9ClN+
184.0526	202	C9H11ClNO+
