Mass spectrum: CP-642931; LC-ESI-QFT; MS2; CE: 60; R=17500; [M+H]+
Name: CP-642931
Name: (1R)-1-[4-[(2R,6S)-4-(4,6-dimethyl-1,3,5-triazin-2-yl)-2,6-dimethylpiperazin-1-yl]pyrimidin-2-yl]ethanol
Formula: C17H25N7O
Exact mass: 343.2121
SMILES: C[C@@H](O)C1=NC(=CC=N1)N1[C@@H](C)CN(C[C@H]1C)C1=NC(C)=NC(C)=N1
InChI: InChI=1S/C17H25N7O/c1-10-8-23(17-20-13(4)19-14(5)21-17)9-11(2)24(10)15-6-7-18-16(22-15)12(3)25/h6-7,10-12,25H,8-9H2,1-5H3/t10-,11+,12-/m1/s1
Instrument: Q Exactive Orbitrap (Thermo Scientific)
Instrument type: LC-ESI-QFT
Ms type: MS2
Ion mode: POSITIVE
Ionization: ESI
Fragmentation mode: HCD
Collision energy: 60
Resolution: 17500
Column name: Acquity BEH C18 1.7um, 2.1x150mm (Waters)
Retention time: 10.435 min
Base peak: 79.0211
Precursor m/z: 344.2193
Precursor type: [M+H]+
Precursor intensity: 23974339.25
m/z	relative intensity	assigned
52.0183	1	C3H2N+
53.0022	4	C3HO+
53.0386	3	C4H5+
54.0337	9	C3H4N+
55.029	18	C2H3N2+
55.0542	11	C4H7+
56.0495	160	C3H6N+
58.0651	9	C3H8N+
65.0385	2	C5H5+
67.029	24	C3H3N2+
67.0417	4	C4H5N+
67.0541	3	C5H7+
68.0494	40	C4H6N+
69.0447	44	C3H5N2+
69.0698	8	C5H9+
70.0651	11	C4H8N+
78.0338	3	C5H4N+
79.0541	56	C6H7+
80.0494	27	C5H6N+
81.0447	37	C4H5N2+
81.0698	101	C6H9+
82.0651	147	C5H8N+
83.0603	251	C4H7N2+
84.0556	6	C3H6N3+
84.0807	46	C5H10N+
91.0542	1	C7H7+
92.0494	5	C6H6N+
93.0448	1	C5H5N2+
93.0576	1	C6H7N+
93.0699	5	C7H9+
94.0651	41	C6H8N+
95.0491	3	C6H7O+
95.0603	21	C5H7N2+
95.073	3	C6H9N+
96.0555	8	C4H6N3+
96.0807	58	C6H10N+
97.076	29	C5H9N2+
97.0885	2	C6H11N+
98.0964	36	C6H12N+
103.054	1	C8H7+
105.0447	47	C6H5N2+
106.0651	42	C7H8N+
107.0603	31	C6H7N2+
108.0555	109	C5H6N3+
108.0682	12	C6H8N2+
108.0807	39	C7H10N+
109.076	91	C6H9N2+
110.06	2	C6H8NO+
110.0712	20	C5H8N3+
110.0837	7	C6H10N2+
110.0965	6	C7H12N+
111.0916	28	C6H11N2+
118.0651	13	C8H8N+
119.0604	6	C7H7N2+
120.0559	1	C6H6N3+
120.0683	4	C7H8N2+
120.0808	10	C8H10N+
121.076	116	C7H9N2+
122.0712	115	C6H8N3+
123.0916	212	C7H11N2+
124.0758	54	C7H10NO+
124.0869	140	C6H10N3+
125.0709	5	C6H9N2O+
125.0821	40	C5H9N4+
126.0423	1	C3H4N5O+
126.0662	3	C5H8N3O+
132.0682	4	C8H8N2+
133.0634	23	C7H7N3+
133.0759	6	C8H9N2+
134.0712	89	C7H8N3+
135.0916	261	C8H11N2+
136.0869	112	C7H10N3+
136.0994	26	C8H12N2+
137.0821	73	C6H9N4+
137.1073	36	C8H13N2+
138.1025	33	C7H12N3+
140.0819	4	C6H10N3O+
140.1181	7	C7H14N3+
142.0974	16	C6H12N3O+
145.0758	8	C9H9N2+
146.0712	13	C8H8N3+
146.0834	1	C9H10N2+
147.0665	50	C7H7N4+
147.0791	65	C8H9N3+
147.0916	46	C9H11N2+
148.0868	15	C8H10N3+
149.0822	36	C7H9N4+
149.0947	31	C8H11N3+
150.1026	5	C8H12N3+
151.0979	5	C7H11N4+
159.0915	1	C10H11N2+
160.0868	13	C9H10N3+
161.1072	8	C10H13N2+
162.1025	799	C9H12N3+
163.0978	27	C8H11N4+
164.1182	312	C9H14N3+
165.1134	343	C8H13N4+
172.0866	2	C10H10N3+
174.1026	1	C10H12N3+
175.0978	1	C9H11N4+
176.1181	43	C10H14N3+
177.1132	5	C9H13N4+
180.113	35	C9H14N3O+
186.1028	1	C11H12N3+
187.0977	4	C10H11N4+
187.1096	2	C11H13N3+
189.1134	3	C10H13N4+
191.129	3	C10H15N4+
192.1242	14	C9H14N5+
202.1338	119	C12H16N3+
203.129	6	C11H15N4+
205.1447	999	C11H17N4+
206.1398	2	C10H16N5+
217.1444	3	C12H17N4+
220.1439	9	C12H18N3O+
221.1402	1	C11H17N4O+
226.1081	1	C12H12N5+
229.1195	18	C11H13N6+
243.1356	1	C12H15N6+
244.1556	24	C13H18N5+
268.1557	7	C15H18N5+
269.1503	6	C14H17N6+
326.2085	31	C17H24N7+
344.2185	3	C17H26N7O+
