Mass spectrum: Diuron; LC-ESI-QFT; MS2; CE: 30; R=17500; [M-H]-
Name: Diuron
Name: 3-(3,4-dichlorophenyl)-1,1-dimethylurea
Formula: C9H10Cl2N2O
Exact mass: 232.0170
SMILES: CN(C)C(=O)NC1=CC(Cl)=C(Cl)C=C1
InChI: InChI=1S/C9H10Cl2N2O/c1-13(2)9(14)12-6-3-4-7(10)8(11)5-6/h3-5H,1-2H3,(H,12,14)
Instrument: Q Exactive Orbitrap (Thermo Scientific)
Instrument type: LC-ESI-QFT
Ms type: MS2
Ion mode: NEGATIVE
Ionization: ESI
Fragmentation mode: HCD
Collision energy: 30
Resolution: 17500
Column name: Acquity BEH C18 1.7um, 2.1x150mm (Waters)
Retention time: 16.791 min
Base peak: 231.0097
Precursor m/z: 231.0097
Precursor type: [M-H]-
Precursor intensity: 17696866.77051
m/z	relative intensity	assigned
149.9752	25	C7HClNO-
159.9726	218	C6H4Cl2N-
185.9519	653	C7H2Cl2NO-
187.9674	3	C7H4Cl2NO-
214.9783	1	C8H5Cl2N2O-
231.0097	999	C9H9Cl2N2O-
