Mass spectrum: 6-Acetyl-1,1,2,4,4,7-hexamethyltetralin; LC-ESI-QFT; MS2; CE: 90; R=17500; [M+H]+
Name: 6-Acetyl-1,1,2,4,4,7-hexamethyltetralin
Name: Tonalid
Name: 1-(3,5,5,6,8,8-hexamethyl-6,7-dihydronaphthalen-2-yl)ethanone
Formula: C18H26O
Exact mass: 258.1984
SMILES: CC1CC(C)(C)C2=C(C=C(C)C(=C2)C(C)=O)C1(C)C
InChI: InChI=1S/C18H26O/c1-11-8-16-15(9-14(11)13(3)19)17(4,5)10-12(2)18(16,6)7/h8-9,12H,10H2,1-7H3
Instrument: Q Exactive Orbitrap (Thermo Scientific)
Instrument type: LC-ESI-QFT
Ms type: MS2
Ion mode: POSITIVE
Ionization: ESI
Fragmentation mode: HCD
Collision energy: 90
Resolution: 17500
Column name: Acquity BEH C18 1.7um, 2.1x150mm (Waters)
Retention time: 20.652 min
Base peak: 79.0211
Precursor m/z: 259.2056
Precursor type: [M+H]+
Precursor intensity: 6566755.40625
m/z	relative intensity	assigned
53.0022	103	C3HO+
55.0542	220	C4H7+
57.0699	680	C4H9+
69.0699	71	C5H9+
83.0855	50	C6H11+
91.0543	366	C7H7+
93.0699	53	C7H9+
105.0699	538	C8H9+
117.0699	190	C9H9+
119.0856	999	C9H11+
128.062	200	C10H8+
129.0699	323	C10H9+
133.1012	178	C10H13+
142.0779	50	C11H10+
146.0724	32	C10H10O+
147.0805	433	C10H11O+
159.0809	22	C11H11O+
161.0964	29	C11H13O+
175.1116	107	C12H15O+
