Mass spectrum: Bioresmethrin; LC-ESI-QFT; MS2; CE: 75; R=17500; [M+H]+
Name: Bioresmethrin
Name: (5-benzylfuran-3-yl)methyl (1R,3R)-2,2-dimethyl-3-(2-methylprop-1-enyl)cyclopropane-1-carboxylate
Formula: C22H26O3
Exact mass: 338.1882
SMILES: CC(C)=C[C@@H]1[C@@H](C(=O)OCC2=COC(CC3=CC=CC=C3)=C2)C1(C)C
InChI: InChI=1S/C22H26O3/c1-15(2)10-19-20(22(19,3)4)21(23)25-14-17-12-18(24-13-17)11-16-8-6-5-7-9-16/h5-10,12-13,19-20H,11,14H2,1-4H3/t19-,20+/m1/s1
Instrument: Q Exactive Orbitrap (Thermo Scientific)
Instrument type: LC-ESI-QFT
Ms type: MS2
Ion mode: POSITIVE
Ionization: ESI
Fragmentation mode: HCD
Collision energy: 75
Resolution: 17500
Column name: Acquity BEH C18 1.7um, 2.1x150mm (Waters)
Retention time: 20.626 min
Base peak: 79.0211
Precursor m/z: 339.1955
Precursor type: [M+H]+
Precursor intensity: 1253977.171875
m/z	relative intensity	assigned
53.0386	28	C4H5+
55.018	16	C3H3O+
55.0543	53	C4H7+
57.07	13	C4H9+
59.0493	23	C3H7O+
65.0386	72	C5H5+
67.0542	61	C5H7+
69.0699	40	C5H9+
77.0383	10	C6H5+
79.0543	104	C6H7+
81.07	69	C6H9+
83.0492	17	C5H7O+
85.065	14	C5H9O+
91.0543	999	C7H7+
93.07	77	C7H9+
95.0493	59	C6H7O+
95.0856	33	C7H11+
103.0543	38	C8H7+
105.0336	176	C7H5O+
105.07	159	C8H9+
107.0856	39	C8H11+
109.065	41	C7H9O+
115.0543	134	C9H7+
116.0621	10	C9H8+
117.0698	95	C9H9+
119.0855	96	C9H11+
121.0649	56	C8H9O+
121.1014	43	C9H13+
128.0621	571	C10H8+
129.0699	50	C10H9+
131.0856	47	C10H11+
133.065	18	C9H9O+
133.1012	17	C10H13+
135.0809	20	C9H11O+
141.07	60	C11H9+
142.0781	26	C11H10+
143.0856	98	C11H11+
144.0934	11	C11H12+
145.0649	49	C10H9O+
145.1011	11	C11H13+
152.0622	25	C12H8+
153.0702	36	C12H9+
155.0854	25	C12H11+
159.0806	21	C11H11O+
159.1172	13	C12H15+
165.0704	14	C13H9+
169.1011	9	C13H13+
171.0805	13	C12H11O+
179.086	10	C14H11+
