Mass spectrum: 2,2`,4,4`-Tetrahydroxybenzophenone; LC-ESI-QFT; MS2; CE: 15; R=17500; [M-H]-
Name: 2,2',4,4'-Tetrahydroxybenzophenone
Name: bis(2,4-dihydroxyphenyl)methanone
Formula: C13H10O5
Exact mass: 246.0528
SMILES: OC1=CC(O)=C(C=C1)C(=O)C1=CC=C(O)C=C1O
InChI: InChI=1S/C13H10O5/c14-7-1-3-9(11(16)5-7)13(18)10-4-2-8(15)6-12(10)17/h1-6,14-17H
Instrument: Q Exactive Orbitrap (Thermo Scientific)
Instrument type: LC-ESI-QFT
Ms type: MS2
Ion mode: NEGATIVE
Ionization: ESI
Fragmentation mode: HCD
Collision energy: 15
Resolution: 17500
Column name: Acquity BEH C18 1.7um, 2.1x150mm (Waters)
Retention time: 14.968 min
Base peak: 245.0455
Precursor m/z: 245.0455
Precursor type: [M-H]-
Precursor intensity: 24287750.10254
m/z	relative intensity	assigned
91.0189	20	C6H3O-
109.0295	413	C6H5O2-
135.0088	999	C7H3O3-
153.0194	326	C7H5O4-
159.0449	1	C10H7O2-
177.0557	2	C10H9O3-
201.0557	9	C12H9O3-
227.035	7	C13H7O4-
245.0455	924	C13H9O5-
