Mass spectrum: Prednisone; LC-ESI-QFT; MS2; CE: 60; R=17500; [M+H]+
Name: Prednisone
Name: (8S,9S,10R,13S,14S,17R)-17-hydroxy-17-(2-hydroxyacetyl)-10,13-dimethyl-6,7,8,9,12,14,15,16-octahydrocyclopenta[a]phenanthrene-3,11-dione
Formula: C21H26O5
Exact mass: 358.1780
SMILES: C[C@]12CC(=O)[C@H]3[C@@H](CCC4=CC(=O)C=C[C@]34C)[C@@H]1CC[C@]2(O)C(=O)CO
InChI: InChI=1S/C21H26O5/c1-19-7-5-13(23)9-12(19)3-4-14-15-6-8-21(26,17(25)11-22)20(15,2)10-16(24)18(14)19/h5,7,9,14-15,18,22,26H,3-4,6,8,10-11H2,1-2H3/t14-,15-,18+,19-,20-,21-/m0/s1
Instrument: Q Exactive Orbitrap (Thermo Scientific)
Instrument type: LC-ESI-QFT
Ms type: MS2
Ion mode: POSITIVE
Ionization: ESI
Fragmentation mode: HCD
Collision energy: 60
Resolution: 17500
Column name: Acquity BEH C18 1.7um, 2.1x150mm (Waters)
Retention time: 15.437 min
Base peak: 79.0211
Precursor m/z: 359.1853
Precursor type: [M+H]+
Precursor intensity: 4972889
m/z	relative intensity	assigned
53.0386	35	C4H5+
55.0179	48	C3H3O+
55.0543	90	C4H7+
57.0335	17	C3H5O+
65.0386	17	C5H5+
67.0542	132	C5H7+
69.0335	73	C4H5O+
69.0698	33	C5H9+
71.0492	29	C4H7O+
73.0648	8	C4H9O+
75.0441	16	C3H7O2+
79.0543	217	C6H7+
81.0334	19	C5H5O+
81.0699	196	C6H9+
83.0493	40	C5H7O+
85.065	14	C5H9O+
91.0543	306	C7H7+
93.0699	276	C7H9+
95.0492	192	C6H7O+
95.0856	229	C7H11+
97.0649	51	C6H9O+
99.044	19	C5H7O2+
103.0542	21	C8H7+
105.0699	227	C8H9+
107.0491	44	C7H7O+
107.0856	181	C8H11+
109.0649	160	C7H9O+
109.1013	25	C8H13+
111.0441	24	C6H7O2+
111.0804	48	C7H11O+
115.0541	48	C9H7+
117.07	101	C9H9+
119.0856	217	C9H11+
121.0649	431	C8H9O+
123.0804	44	C8H11O+
125.0602	8	C7H9O2+
125.0962	9	C8H13O+
128.0622	64	C10H8+
129.0698	67	C10H9+
130.0774	9	C10H10+
131.0857	156	C10H11+
132.0572	40	C9H8O+
133.065	51	C9H9O+
133.101	37	C10H13+
135.0804	164	C9H11O+
137.0599	20	C8H9O2+
141.07	97	C11H9+
142.0777	15	C11H10+
143.0857	45	C11H11+
144.057	51	C10H8O+
145.0649	213	C10H9O+
145.1013	36	C11H13+
146.0727	107	C10H10O+
147.0805	999	C10H11O+
149.0959	16	C10H13O+
152.0622	13	C12H8+
153.07	59	C12H9+
154.078	14	C12H10+
155.0854	53	C12H11+
156.0931	10	C12H12+
157.0651	39	C11H9O+
157.1012	15	C12H13+
158.0727	168	C11H10O+
159.0805	467	C11H11O+
160.0883	32	C11H12O+
161.0962	132	C11H13O+
163.0755	34	C10H11O2+
165.0695	38	C13H9+
166.078	32	C13H10+
167.0858	67	C13H11+
168.0568	7	C12H8O+
168.0938	7	C13H12+
169.0648	58	C12H9O+
169.1014	44	C13H13+
170.0726	29	C12H10O+
171.0805	754	C12H11O+
172.0884	34	C12H12O+
173.0962	299	C12H13O+
178.0776	38	C14H10+
179.0856	179	C14H11+
180.0934	22	C14H12+
181.065	59	C13H9O+
181.1012	63	C14H13+
182.0727	74	C13H10O+
183.0807	159	C13H11O+
184.0884	62	C13H12O+
185.0599	21	C12H9O2+
185.0962	119	C13H13O+
186.104	28	C13H14O+
187.0754	56	C12H11O2+
187.1117	55	C13H15O+
189.0908	36	C12H13O2+
190.0779	19	C15H10+
191.0858	55	C15H11+
192.0933	19	C15H12+
193.1015	71	C15H13+
194.0725	40	C14H10O+
194.1093	23	C15H14+
195.0807	157	C14H11O+
195.1171	27	C15H15+
196.0885	112	C14H12O+
197.0962	190	C14H13O+
198.1041	25	C14H14O+
199.1119	64	C14H15O+
202.078	15	C16H10+
203.0856	30	C16H11+
204.0936	44	C16H12+
205.0653	14	C15H9O+
205.1015	29	C16H13+
206.0731	16	C15H10O+
206.1091	18	C16H14+
207.0807	56	C15H11O+
207.1174	43	C16H15+
208.0884	180	C15H12O+
209.0962	169	C15H13O+
209.1329	17	C16H17+
210.1041	83	C15H14O+
211.1118	104	C15H15O+
212.1197	59	C15H16O+
213.1274	40	C15H17O+
215.0855	20	C17H11+
215.107	19	C14H15O2+
216.0941	11	C17H12+
217.1013	26	C17H13+
218.073	8	C16H10O+
219.0804	40	C16H11O+
219.1169	37	C17H15+
220.0885	70	C16H12O+
221.0962	153	C16H13O+
221.1325	14	C17H17+
222.104	330	C16H14O+
223.1119	146	C16H15O+
224.0836	18	C15H12O2+
224.1197	42	C16H16O+
225.0908	16	C15H13O2+
225.1278	55	C16H17O+
227.1068	19	C15H15O2+
227.1438	34	C16H19O+
228.0942	11	C18H12+
229.1016	23	C18H13+
230.1094	16	C18H14+
231.081	33	C17H11O+
231.117	21	C18H15+
232.0884	25	C17H12O+
233.0962	73	C17H13O+
234.1039	81	C17H14O+
235.1121	97	C17H15O+
236.1194	38	C17H16O+
237.1275	154	C17H17O+
238.0991	33	C16H14O2+
238.1352	32	C17H18O+
239.1072	16	C16H15O2+
239.1427	38	C17H19O+
240.1154	8	C16H16O2+
243.1168	17	C19H15+
245.0964	52	C18H13O+
245.1324	8	C19H17+
246.1042	48	C18H14O+
247.1117	86	C18H15O+
247.1481	10	C19H19+
248.12	95	C18H16O+
249.1275	155	C18H17O+
250.1351	15	C18H18O+
251.107	8	C17H15O2+
252.1519	12	C18H20O+
253.1235	13	C17H17O2+
257.0963	23	C19H13O+
259.1117	26	C19H15O+
260.1197	22	C19H16O+
261.1272	25	C19H17O+
262.1352	45	C19H18O+
263.1427	44	C19H19O+
264.1504	11	C19H20O+
265.1582	35	C19H21O+
267.1385	8	C18H19O2+
272.1195	27	C20H16O+
275.1429	8	C20H19O+
292.1465	18	C20H20O2+
