Mass spectrum: Topramezone; LC-ESI-QFT; MS2; CE: 60; R=17500; [M-H]-
Name: Topramezone
Formula: C16H17N3O5S
Exact mass: 363.0889
SMILES: CN1N=CC(C(=O)C2=C(C)C(C3=NOCC3)=C(C=C2)S(C)(=O)=O)=C1O
InChI: InChI=1S/C16H17N3O5S/c1-9-10(15(20)11-8-17-19(2)16(11)21)4-5-13(25(3,22)23)14(9)12-6-7-24-18-12/h4-5,8,21H,6-7H2,1-3H3
Instrument: Q Exactive Orbitrap (Thermo Scientific)
Instrument type: LC-ESI-QFT
Ms type: MS2
Ion mode: NEGATIVE
Ionization: ESI
Fragmentation mode: HCD
Collision energy: 60
Resolution: 17500
Column name: Acquity BEH C18 1.7um, 2.1x150mm (Waters)
Retention time: 12.785 min
Base peak: 200.0387
Precursor m/z: 362.0816
Precursor type: [M-H]-
Precursor intensity: 460063.5874023
m/z	relative intensity	assigned
63.9624	627	O2S-
65.9985	141	C3NO-
78.9859	753	CH3O2S-
82.0173	66	C3H2N2O-
97.0408	999	C4H5N2O-
115.0551	95	C9H7-
116.0505	235	C8H6N-
130.0662	983	C9H8N-
131.0377	199	C8H5NO-
132.0453	58	C8H6NO-
133.0293	138	C8H5O2-
147.0327	294	C8H5NO2-
158.0612	92	C10H8NO-
168.0452	72	C11H6NO-
179.0047	212	C8H5NO2S-
179.0169	490	C9H7O2S-
181.0405	158	C11H5N2O-
194.028	693	C9H8NO2S-
210.023	225	C9H8NO3S-
238.062	192	C13H8N3O2-
240.078	175	C13H10N3O2-
254.0572	380	C13H8N3O3-
256.0734	103	C13H10N3O3-
334.0503	164	C14H12N3O5S-
