Mass spectrum: Amiloride; LC-ESI-QFT; MS2; CE: 75; R=17500; [M+H]+
Name: Amiloride
Name: 3,5-diamino-6-chloro-N-(diaminomethylidene)pyrazine-2-carboxamide
Formula: C6H8ClN7O
Exact mass: 229.0479
SMILES: NC(=N)NC(=O)C1=NC(Cl)=C(N)N=C1N
InChI: InChI=1S/C6H8ClN7O/c7-2-4(9)13-3(8)1(12-2)5(15)14-6(10)11/h(H4,8,9,13)(H4,10,11,14,15)
Instrument: Q Exactive Orbitrap (Thermo Scientific)
Instrument type: LC-ESI-QFT
Ms type: MS2
Ion mode: POSITIVE
Ionization: ESI
Fragmentation mode: HCD
Collision energy: 75
Resolution: 17500
Column name: Acquity BEH C18 1.7um, 2.1x150mm (Waters)
Retention time: 9.322 min
Base peak: 79.0211
Precursor m/z: 230.0552
Precursor type: [M+H]+
Precursor intensity: 19365966.5625
m/z	relative intensity	assigned
53.0134	1	C2HN2+
55.0291	8	C2H3N2+
60.0556	746	CH6N3+
61.0397	1	CH5N2O+
61.9792	26	CHClN+
62.9633	1	CClO+
63.9948	102	CH3ClN+
66.0212	2	C3H2N2+
69.0083	3	C2HN2O+
73.0395	1	C2H5N2O+
73.979	1	C2HClN+
80.0242	3	C3H2N3+
82.0399	1	C3H4N3+
86.0349	9	C2H4N3O+
88.9901	72	C2H2ClN2+
91.0058	12	C2H4ClN2+
100.9901	54	C3H2ClN2+
107.0006	1	C2H4ClN2O+
107.0352	7	C4H3N4+
108.043	115	C4H4N4+
116.001	999	C3H3ClN3+
125.0458	6	C4H5N4O+
140.9962	1	C4H2ClN4+
143.012	56	C4H4ClN4+
161.0225	434	C4H6ClN4O+
171.0068	43	C5H4ClN4O+
189.0174	161	C3H4ClN7O+
203.0324	1	C4H6ClN7O+
