Mass spectrum: Triazophos; LC-ESI-QFT; MS2; CE: 90; R=17500; [M+H]+
Name: Triazophos
Name: diethoxy-[(1-phenyl-1,2,4-triazol-3-yl)oxy]-sulfanylidene-lambda5-phosphane
Formula: C12H16N3O3PS
Exact mass: 313.0650
SMILES: CCOP(=S)(OCC)OC1=NN(C=N1)C1=CC=CC=C1
InChI: InChI=1S/C12H16N3O3PS/c1-3-16-19(20,17-4-2)18-12-13-10-15(14-12)11-8-6-5-7-9-11/h5-10H,3-4H2,1-2H3
Instrument: Q Exactive Orbitrap (Thermo Scientific)
Instrument type: LC-ESI-QFT
Ms type: MS2
Ion mode: POSITIVE
Ionization: ESI
Fragmentation mode: HCD
Collision energy: 90
Resolution: 17500
Column name: Acquity BEH C18 1.7um, 2.1x150mm (Waters)
Retention time: 17.778 min
Base peak: 79.0211
Precursor m/z: 314.0723
Precursor type: [M+H]+
Precursor intensity: 21294751.5
m/z	relative intensity	assigned
50.0151	1	C4H2+
51.0229	1	C4H3+
53.0386	85	C4H5+
55.0178	4	C3H3O+
59.0242	1	CH3N2O+
59.9903	6	CH2NS+
63.0228	1	C5H3+
64.9787	109	H2O2P+
65.0385	328	C5H5+
74.0963	1	C4H12N+
75.0011	1	CH3N2S+
77.0385	36	C6H5+
78.9402	10	OPS+
78.9943	3	CH4O2P+
79.0541	8	C6H7+
80.0493	4	C5H6N+
80.9735	1	H2O3P+
81.0335	10	C5H5O+
86.0348	3	C2H4N3O+
89.0385	4	C7H5+
90.0338	5	C6H4N+
91.0543	9	C7H7+
92.0494	751	C6H6N+
93.0573	132	C6H7N+
94.0413	9	C6H6O+
95.0491	262	C6H7O+
96.9507	43	H2O2PS+
103.0416	22	C7H5N+
104.0494	159	C7H6N+
105.0447	103	C6H5N2+
106.0651	4	C7H8N+
107.0603	9	C6H7N2+
109.0105	2	C6H5S+
109.0649	1	C7H9O+
110.06	36	C6H8NO+
110.9663	3	CH4O2PS+
111.0441	3	C6H7O2+
112.9997	4	C3HN2O3+
114.9613	999	H4O3PS+
116.0494	7	C8H6N+
116.9655	3	C3HO3S+
117.0446	12	C7H5N2+
118.0525	10	C7H6N2+
119.0604	899	C7H7N2+
120.0681	110	C7H8N2+
123.0554	1	C6H7N2O+
124.0215	3	C6H6NS+
124.0757	7	C7H10NO+
128.9769	36	CH6O3PS+
130.0399	6	C7H4N3+
132.0441	1	C8H6NO+
132.9718	8	C6NOP+
134.0599	1	C8H8NO+
135.0551	5	C7H7N2O+
136.0215	2	C7H6NS+
144.0555	2	C8H6N3+
145.0396	56	C8H5N2O+
146.9875	5	C7H2NOP+
151.0323	1	C7H7N2S+
162.0661	145	C8H8N3O+
178.0434	11	C8H8N3S+
