Mass spectrum: Forskolin; LC-ESI-QFT; MS2; CE: 30; R=17500; [M-H]-
Name: Forskolin
Name: [(3R,4aR,5S,6S,6aS,10S,10aR,10bS)-3-ethenyl-6,10,10b-trihydroxy-3,4a,7,7,10a-pentamethyl-1-oxo-5,6,6a,8,9,10-hexahydro-2H-benzo[f]chromen-5-yl] acetate
Formula: C22H34O7
Exact mass: 410.2305
SMILES: CC(=O)O[C@H]1[C@@H](O)[C@H]2C(C)(C)CC[C@H](O)[C@]2(C)[C@@]2(O)C(=O)C[C@@](C)(O[C@]12C)C=C
InChI: InChI=1S/C22H34O7/c1-8-19(5)11-14(25)22(27)20(6)13(24)9-10-18(3,4)16(20)15(26)17(28-12(2)23)21(22,7)29-19/h8,13,15-17,24,26-27H,1,9-11H2,2-7H3/t13-,15-,16-,17-,19-,20-,21+,22-/m0/s1
Instrument: Q Exactive Orbitrap (Thermo Scientific)
Instrument type: LC-ESI-QFT
Ms type: MS2
Ion mode: NEGATIVE
Ionization: ESI
Fragmentation mode: HCD
Collision energy: 30
Resolution: 17500
Column name: Acquity BEH C18 1.7um, 2.1x150mm (Waters)
Retention time: 17.494 min
Base peak: 307.0977
Precursor m/z: 409.2232
Precursor type: [M-H]-
Precursor intensity: 7536501.75
m/z	relative intensity	assigned
57.0346	7	C3H5O-
59.0138	999	C2H3O2-
71.0138	3	C3H3O2-
73.0295	4	C3H5O2-
83.0501	2	C5H7O-
85.0296	1	C4H5O2-
95.0502	10	C6H7O-
97.066	13	C6H9O-
107.0502	2	C7H7O-
109.0657	1	C7H9O-
111.0451	2	C6H7O2-
122.0373	3	C7H6O2-
123.0451	19	C7H7O2-
123.0816	3	C8H11O-
125.0608	4	C7H9O2-
135.0814	3	C9H11O-
137.0971	3	C9H13O-
139.0399	4	C7H7O3-
139.0764	6	C8H11O2-
151.0762	3	C9H11O2-
151.1126	2	C10H15O-
153.0921	6	C9H13O2-
163.1126	2	C11H15O-
165.0927	2	C10H13O2-
167.1077	2	C10H15O2-
173.097	2	C12H13O-
179.1078	7	C11H15O2-
180.0792	10	C10H12O3-
189.0914	1	C12H13O2-
189.128	2	C13H17O-
191.144	6	C13H19O-
192.0785	2	C11H12O3-
205.1233	4	C13H17O2-
207.1385	2	C13H19O2-
213.1129	5	C11H17O4-
215.1443	3	C15H19O-
217.1595	3	C15H21O-
232.1108	8	C14H16O3-
235.1337	5	C14H19O3-
257.1549	10	C17H21O2-
271.1701	8	C18H23O2-
273.1497	5	C17H21O3-
275.1648	10	C17H23O3-
281.1387	1	C15H21O5-
295.1693	2	C20H23O2-
313.181	19	C20H25O3-
331.1913	15	C20H27O4-
349.2018	10	C20H29O5-
367.2124	71	C20H31O6-
409.2231	6	C22H33O7-
