Mass spectrum: Triphenyl phosphate; LC-ESI-QFT; MS2; CE: 15; R=17500; [M+H]+
Name: Triphenyl phosphate
Formula: C18H15O4P
Exact mass: 326.0708
SMILES: O=P(OC1=CC=CC=C1)(OC1=CC=CC=C1)OC1=CC=CC=C1
InChI: InChI=1S/C18H15O4P/c19-23(20-16-10-4-1-5-11-16,21-17-12-6-2-7-13-17)22-18-14-8-3-9-15-18/h1-15H
Instrument: Q Exactive Orbitrap (Thermo Scientific)
Instrument type: LC-ESI-QFT
Ms type: MS2
Ion mode: POSITIVE
Ionization: ESI
Fragmentation mode: HCD
Collision energy: 15
Resolution: 17500
Column name: Acquity BEH C18 1.7um, 2.1x150mm (Waters)
Retention time: 18.547 min
Base peak: 79.0211
Precursor m/z: 327.0781
Precursor type: [M+H]+
Precursor intensity: 69400187.04687
m/z	relative intensity	assigned
77.0393	1	C6H5+
91.054	1	C7H7+
152.0631	1	C12H8+
327.0779	999	C18H16O4P+
