Mass spectrum: Propanil; LC-ESI-QFT; MS2; CE: 30; R=17500; [M-H]-
Name: Propanil
Name: N-(3,4-dichlorophenyl)propanamide
Formula: C9H9Cl2NO
Exact mass: 217.0061
SMILES: CCC(=O)NC1=CC=C(Cl)C(Cl)=C1
InChI: InChI=1S/C9H9Cl2NO/c1-2-9(13)12-6-3-4-7(10)8(11)5-6/h3-5H,2H2,1H3,(H,12,13)
Instrument: Q Exactive Orbitrap (Thermo Scientific)
Instrument type: LC-ESI-QFT
Ms type: MS2
Ion mode: NEGATIVE
Ionization: ESI
Fragmentation mode: HCD
Collision energy: 30
Resolution: 17500
Column name: Acquity BEH C18 1.7um, 2.1x150mm (Waters)
Retention time: 17.574 min
Base peak: 215.9988
Precursor m/z: 215.9988
Precursor type: [M-H]-
Precursor intensity: 74822007.78516
m/z	relative intensity	assigned
123.9959	3	C6H3ClN-
159.9726	774	C6H4Cl2N-
160.9565	4	C6H3Cl2O-
185.952	1	C7H2Cl2NO-
215.9987	999	C9H8Cl2NO-
