Mass spectrum: Labetalol; LC-ESI-QFT; MS2; CE: 60; R=17500; [M+H]+
Name: Labetalol
Name: 2-hydroxy-5-[1-hydroxy-2-(4-phenylbutan-2-ylamino)ethyl]benzamide
Formula: C19H24N2O3
Exact mass: 328.1787
SMILES: CC(CCC1=CC=CC=C1)NCC(O)C1=CC=C(O)C(=C1)C(N)=O
InChI: InChI=1S/C19H24N2O3/c1-13(7-8-14-5-3-2-4-6-14)21-12-18(23)15-9-10-17(22)16(11-15)19(20)24/h2-6,9-11,13,18,21-23H,7-8,12H2,1H3,(H2,20,24)
Instrument: Q Exactive Orbitrap (Thermo Scientific)
Instrument type: LC-ESI-QFT
Ms type: MS2
Ion mode: POSITIVE
Ionization: ESI
Fragmentation mode: HCD
Collision energy: 60
Resolution: 17500
Column name: Acquity BEH C18 1.7um, 2.1x150mm (Waters)
Retention time: 13.584 min
Base peak: 79.0211
Precursor m/z: 329.186
Precursor type: [M+H]+
Precursor intensity: 17898981.5
m/z	relative intensity	assigned
53.0385	1	C4H5+
55.0542	1	C4H7+
65.0385	17	C5H5+
77.0386	1	C6H5+
79.0541	20	C6H7+
80.0494	3	C5H6N+
89.0382	3	C7H5+
91.0542	999	C7H7+
92.0493	5	C6H6N+
93.0335	1	C6H5O+
94.0651	9	C6H8N+
95.0491	7	C6H7O+
105.0699	4	C8H9+
106.0651	70	C7H8N+
107.0491	29	C7H7O+
116.0494	12	C8H6N+
117.0335	2	C8H5O+
117.0572	3	C8H7N+
118.065	4	C8H8N+
119.0491	12	C8H7O+
120.0443	19	C7H6NO+
121.0523	1	C7H7NO+
121.0647	1	C8H9O+
133.0521	9	C8H7NO+
134.0599	152	C8H8NO+
135.0439	24	C8H7O2+
136.0756	3	C8H10NO+
144.0443	26	C9H6NO+
145.0284	5	C9H5O2+
146.06	1	C9H8NO+
147.0438	8	C9H7O2+
160.0394	1	C9H6NO2+
161.0598	2	C10H9O2+
162.0548	536	C9H8NO2+
163.0385	2	C9H7O3+
164.0705	15	C9H10NO2+
165.0545	98	C9H9O3+
172.0755	1	C11H10NO+
179.0703	1	C10H11O3+
180.0653	42	C9H10NO3+
190.0862	9	C11H12NO2+
194.0811	10	C10H12NO3+
208.0965	1	C11H14NO3+
294.1477	1	C19H20NO2+
