Mass spectrum: Troglitazone; LC-ESI-QFT; MS2; CE: 15; R=17500; [M-H]-
Name: Troglitazone
Name: 5-[[4-[(6-hydroxy-2,5,7,8-tetramethyl-3,4-dihydrochromen-2-yl)methoxy]phenyl]methyl]-1,3-thiazolidine-2,4-dione
Formula: C24H27NO5S
Exact mass: 441.1610
SMILES: CC1=C(O)C(C)=C2CCC(C)(COC3=CC=C(CC4SC(=O)NC4=O)C=C3)OC2=C1C
InChI: InChI=1S/C24H27NO5S/c1-13-14(2)21-18(15(3)20(13)26)9-10-24(4,30-21)12-29-17-7-5-16(6-8-17)11-19-22(27)25-23(28)31-19/h5-8,19,26H,9-12H2,1-4H3,(H,25,27,28)
Instrument: Q Exactive Orbitrap (Thermo Scientific)
Instrument type: LC-ESI-QFT
Ms type: MS2
Ion mode: NEGATIVE
Ionization: ESI
Fragmentation mode: HCD
Collision energy: 15
Resolution: 17500
Column name: Acquity BEH C18 1.7um, 2.1x150mm (Waters)
Retention time: 18.741 min
Base peak: 357.026
Precursor m/z: 440.1537
Precursor type: [M-H]-
Precursor intensity: 10457667.125
m/z	relative intensity	assigned
114.9734	1	C3HNO2S-
221.0153	1	C10H7NO3S-
397.1479	16	C23H25O4S-
440.1536	999	C24H26NO5S-
