Mass spectrum: Pantothenate; LC-ESI-QFT; MS2; CE: 60; R=17500; [M+H]+
Name: Pantothenate
Name: Pantothenic acid
Name: 3-[[(2R)-2,4-dihydroxy-3,3-dimethylbutanoyl]amino]propanoic acid
Formula: C9H17NO5
Exact mass: 219.1107
SMILES: CC(C)(CO)[C@@H](O)C(=O)NCCC(O)=O
InChI: InChI=1S/C9H17NO5/c1-9(2,5-11)7(14)8(15)10-4-3-6(12)13/h7,11,14H,3-5H2,1-2H3,(H,10,15)(H,12,13)/t7-/m0/s1
Instrument: Q Exactive Orbitrap (Thermo Scientific)
Instrument type: LC-ESI-QFT
Ms type: MS2
Ion mode: POSITIVE
Ionization: ESI
Fragmentation mode: HCD
Collision energy: 60
Resolution: 17500
Column name: Acquity BEH C18 1.7um, 2.1x150mm (Waters)
Retention time: 8.134 min
Base peak: 79.0211
Precursor m/z: 220.1179
Precursor type: [M+H]+
Precursor intensity: 8169072.28125
m/z	relative intensity	assigned
53.0022	8	C3HO+
55.0179	41	C3H3O+
55.0542	45	C4H7+
56.0132	21	C2H2NO+
57.0699	241	C4H9+
59.0492	176	C3H7O+
60.0443	11	C2H6NO+
61.0284	5	C2H5O2+
65.0386	10	C5H5+
67.0542	225	C5H7+
69.0698	111	C5H9+
70.0287	277	C3H4NO+
72.0443	386	C3H6NO+
73.0284	101	C3H5O2+
73.0648	15	C4H9O+
74.0236	61	C2H4NO2+
79.0542	11	C6H7+
81.0698	22	C6H9+
83.0491	42	C5H7O+
85.0648	256	C5H9O+
86.0964	24	C5H12N+
87.0806	8	C5H11O+
88.0394	22	C3H6NO2+
90.055	999	C3H8NO2+
92.0495	23	C6H6N+
95.0492	187	C6H7O+
96.0808	92	C6H10N+
98.0237	376	C4H4NO2+
99.0805	13	C6H11O+
100.0393	17	C4H6NO2+
103.0753	65	C5H11O2+
112.0758	20	C6H10NO+
113.0597	71	C6H9O2+
116.0343	142	C4H6NO3+
124.0757	444	C7H10NO+
130.0866	8	C6H12NO2+
131.0703	12	C6H11O3+
142.0863	102	C7H12NO2+
157.9982	22	C9H2O3+
184.0969	22	C9H14NO3+
202.1073	19	C9H16NO4+
