Mass spectrum: 2,2`-[(4-Methylphenyl)imino]diethanol; LC-ESI-QFT; MS2; CE: 45; R=17500; [M+H]+
Name: 2,2'-[(4-Methylphenyl)imino]diethanol
Name: N,N-Bis(2-hydroxyethyl)-p-toluidine
Name: 2-[N-(2-hydroxyethyl)-4-methylanilino]ethanol
Formula: C11H17NO2
Exact mass: 195.1259
SMILES: CC1=CC=C(C=C1)N(CCO)CCO
InChI: InChI=1S/C11H17NO2/c1-10-2-4-11(5-3-10)12(6-8-13)7-9-14/h2-5,13-14H,6-9H2,1H3
Instrument: Q Exactive Orbitrap (Thermo Scientific)
Instrument type: LC-ESI-QFT
Ms type: MS2
Ion mode: POSITIVE
Ionization: ESI
Fragmentation mode: HCD
Collision energy: 45
Resolution: 17500
Column name: Acquity BEH C18 1.7um, 2.1x150mm (Waters)
Retention time: 9.123 min
Base peak: 79.0211
Precursor m/z: 196.1332
Precursor type: [M+H]+
Precursor intensity: 19869012.5
m/z	relative intensity	assigned
65.0385	1	C5H5+
77.0385	1	C6H5+
91.054	10	C7H7+
92.0621	1	C7H8+
93.0573	1	C6H7N+
93.0699	9	C7H9+
105.0698	5	C8H9+
106.065	6	C7H8N+
107.0729	33	C7H9N+
107.0855	2	C8H11+
108.0808	34	C7H10N+
109.0646	1	C7H9O+
115.0544	2	C9H7+
117.0572	6	C8H7N+
117.0698	8	C9H9+
118.0651	30	C8H8N+
119.073	68	C8H9N+
120.0808	649	C8H10N+
128.062	1	C10H8+
130.0653	4	C9H8N+
131.073	10	C9H9N+
132.0808	112	C9H10N+
133.0886	465	C9H11N+
134.0963	999	C9H12N+
135.1041	16	C9H13N+
143.0856	2	C11H11+
144.0808	8	C10H10N+
145.0886	42	C10H11N+
147.1042	1	C10H13N+
148.112	1	C10H14N+
149.0833	1	C9H11NO+
150.0913	11	C9H12NO+
151.0991	569	C9H13NO+
152.1069	155	C9H14NO+
158.0963	4	C11H12N+
160.1121	169	C11H14N+
163.0991	7	C10H13NO+
176.107	1	C11H14NO+
178.1226	567	C11H16NO+
196.1332	571	C11H18NO2+
