Mass spectrum: Ouabain; LC-ESI-QFT; MS2; CE: 60; R=17500; [M+H]+
Name: Ouabain
Name: 3-[(1R,3S,5S,8R,9S,10R,11R,13R,14S,17R)-1,5,11,14-tetrahydroxy-10-(hydroxymethyl)-13-methyl-3-[(2R,3R,4R,5R,6S)-3,4,5-trihydroxy-6-methyloxan-2-yl]oxy-2,3,4,6,7,8,9,11,12,15,16,17-dodecahydro-1H-cyclopenta[a]phenanthren-17-yl]-2H-furan-5-one
Formula: C29H44O12
Exact mass: 584.2833
SMILES: C[C@@H]1O[C@@H](O[C@H]2C[C@@H](O)[C@]3(CO)[C@H]4[C@H](O)C[C@]5(C)[C@H](CC[C@]5(O)[C@@H]4CC[C@]3(O)C2)C2=CC(=O)OC2)[C@H](O)[C@H](O)[C@H]1O
InChI: InChI=1S/C29H44O12/c1-13-22(34)23(35)24(36)25(40-13)41-15-8-19(32)28(12-30)21-17(3-5-27(28,37)9-15)29(38)6-4-16(14-7-20(33)39-11-14)26(29,2)10-18(21)31/h7,13,15-19,21-25,30-32,34-38H,3-6,8-12H2,1-2H3/t13-,15-,16+,17+,18+,19+,21+,22-,23+,24+,25-,26+,27-,28+,29-/m0/s1
Instrument: Q Exactive Orbitrap (Thermo Scientific)
Instrument type: LC-ESI-QFT
Ms type: MS2
Ion mode: POSITIVE
Ionization: ESI
Fragmentation mode: HCD
Collision energy: 60
Resolution: 17500
Column name: Acquity BEH C18 1.7um, 2.1x150mm (Waters)
Retention time: 11.918 min
Base peak: 79.0211
Precursor m/z: 585.2906
Precursor type: [M+H]+
Precursor intensity: 1222076.875
m/z	relative intensity	assigned
55.0544	129	C4H7+
57.0336	140	C3H5O+
67.0543	109	C5H7+
71.0492	515	C4H7O+
79.0543	194	C6H7+
81.07	126	C6H9+
83.0493	248	C5H7O+
85.0285	645	C4H5O2+
91.0543	554	C7H7+
93.07	161	C7H9+
105.0701	335	C8H9+
107.0855	140	C8H11+
109.065	100	C7H9O+
111.0442	101	C6H7O2+
115.0543	162	C9H7+
117.0698	455	C9H9+
119.0857	185	C9H11+
121.0651	101	C8H9O+
125.0603	104	C7H9O2+
128.0623	186	C10H8+
129.07	958	C10H9+
131.0857	668	C10H11+
133.1017	116	C10H13+
141.07	595	C11H9+
142.0782	113	C11H10+
143.0858	739	C11H11+
145.1015	430	C11H13+
147.0808	172	C10H11O+
155.0859	275	C12H11+
157.1013	999	C12H13+
159.0812	156	C11H11O+
159.1171	167	C12H15+
163.0761	102	C10H11O2+
167.0861	227	C13H11+
169.1017	195	C13H13+
173.0964	155	C12H13O+
179.0855	86	C14H11+
180.0945	97	C14H12+
181.1015	241	C14H13+
183.1165	121	C14H15+
193.1015	157	C15H13+
195.1175	121	C15H15+
217.1015	106	C17H13+
219.1166	120	C17H15+
259.1479	102	C20H19+
273.1629	105	C21H21+
