Mass spectrum: Clodinafop-propargyl; LC-ESI-QFT; MS2; CE: 90; R=17500; [M+H]+
Name: Clodinafop-propargyl
Name: prop-2-ynyl (2R)-2-[4-(5-chloro-3-fluoropyridin-2-yl)oxyphenoxy]propanoate
Formula: C17H13ClFNO4
Exact mass: 349.0517
SMILES: C[C@@H](OC1=CC=C(OC2=NC=C(Cl)C=C2F)C=C1)C(=O)OCC#C
InChI: InChI=1S/C17H13ClFNO4/c1-3-8-22-17(21)11(2)23-13-4-6-14(7-5-13)24-16-15(19)9-12(18)10-20-16/h1,4-7,9-11H,8H2,2H3/t11-/m1/s1
Instrument: Q Exactive Orbitrap (Thermo Scientific)
Instrument type: LC-ESI-QFT
Ms type: MS2
Ion mode: POSITIVE
Ionization: ESI
Fragmentation mode: HCD
Collision energy: 90
Resolution: 17500
Column name: Acquity BEH C18 1.7um, 2.1x150mm (Waters)
Retention time: 18.291 min
Base peak: 79.0212
Precursor m/z: 350.059
Precursor type: [M+H]+
Precursor intensity: 11255650.625
m/z	relative intensity	assigned
50.0152	1	C4H2+
51.0229	2	C4H3+
53.0022	19	C3HO+
53.0386	41	C4H5+
53.9974	2	C2NO+
54.0464	12	C4H6+
55.0178	18	C3H3O+
55.0543	1	C4H7+
57.0135	24	C3H2F+
62.0151	5	C5H2+
63.0229	126	C5H3+
64.0307	37	C5H4+
65.0385	580	C5H5+
66.0464	12	C5H6+
67.0542	3	C5H7+
69.0334	2	C4H5O+
72.984	6	C3H2Cl+
74.015	18	C6H2+
75.0229	150	C6H3+
76.0307	9	C6H4+
77.0385	17	C6H5+
78.0463	6	C6H6+
79.0179	8	C5H3O+
79.0542	8	C6H7+
80.0619	1	C6H8+
81.0335	49	C5H5O+
82.029	1	C4H4NO+
84.9839	11	C4H2Cl+
85.0322	4	C4H4FN+
89.0385	9	C7H5+
90.0338	17	C6H4N+
90.0463	5	C7H6+
91.0542	999	C7H7+
92.0256	141	C6H4O+
92.062	31	C7H8+
93.0699	16	C7H9+
94.0413	36	C6H6O+
95.0491	89	C6H7O+
100.0188	1	C4H3FNO+
102.0463	28	C8H6+
103.0542	54	C8H7+
103.9823	17	C4H2ClF+
104.062	1	C8H8+
104.9903	2	C4H3ClF+
105.0334	4	C7H5O+
105.0447	33	FH8NO4+
107.0292	7	C7H4F+
107.0492	6	C7H7O+
108.0242	9	C6H3FN+
108.0369	17	C7H5F+
108.0443	6	C6H6NO+
108.0568	1	C7H8O+
109.0284	43	C6H5O2+
109.032	2	C6H4FN+
109.0649	2	C7H9O+
109.9792	73	C5HClN+
111.0441	6	C6H7O2+
113.0388	4	C9H5+
114.0348	6	C5H5FNO+
115.0542	18	C9H7+
115.9895	2	C4H3ClNO+
116.9901	5	C5H3ClF+
118.0412	3	C8H6O+
118.9934	6	C4H3ClFN+
119.0492	23	C8H7O+
120.0009	10	C4H4ClFN+
120.0445	4	C7H6NO+
120.057	14	C8H8O+
121.0284	11	C7H5O2+
121.0448	9	C8H6F+
121.0647	9	C8H9O+
126.0348	5	C6H5FNO+
127.0415	4	C9H5N+
127.0541	5	C10H7+
128.0495	27	C9H6N+
128.0621	23	C10H8+
129.0335	9	C9H5O+
129.0447	9	C2H8FNO4+
129.0698	5	C10H9+
129.9855	77	C5H2ClFN+
130.0298	5	C5H5FNO2+
130.0412	3	C9H6O+
130.9934	4	C5H3ClFN+
131.0292	17	C9H4F+
131.0491	36	C9H7O+
132.0012	8	C5H4ClFN+
132.037	17	C9H5F+
132.0569	4	C9H8O+
133.0448	15	C9H6F+
134.0402	7	C8H5FN+
135.0478	5	C8H6FN+
136.0319	12	C8H5FO+
138.034	3	C10H4N+
139.0416	23	C10H5N+
139.054	4	C11H7+
140.0495	9	C10H6N+
140.9901	7	C7H3ClF+
143.9849	7	C5H3ClNO2+
144.0009	3	C6H4ClFN+
145.0087	3	C6H5ClFN+
145.0648	5	C10H9O+
145.9799	1	C5H2ClFNO+
146.04	3	C9H5FN+
146.06	9	C9H8NO+
146.9881	1	C5H3ClFNO+
146.9994	7	C9H4Cl+
147.0477	6	C3H11ClFNO2+
147.0604	5	C10H8F+
147.996	246	C5H4ClFNO+
148.0557	31	C9H7FN+
149.0154	7	C9H6Cl+
149.0397	80	C9H6FO+
150.0475	10	C9H7FO+
152.0509	8	C8H7FNO+
154.0651	12	C11H8N+
155.0602	7	C4H10FNO4+
155.0726	2	C11H9N+
156.001	7	C7H4ClFN+
156.0446	21	C10H6NO+
157.0448	5	C11H6F+
157.0523	21	C10H7NO+
157.0646	4	C11H9O+
158.0401	176	C10H5FN+
159.0478	443	C4H11ClFNO2+
160.0319	2	C10H5FO+
160.0556	11	C10H7FN+
162.0115	39	C6H6ClFNO+
162.031	3	C9H6O3+
164.0499	5	C12H6N+
166.0651	2	C12H8N+
167.0058	40	C9H5ClF+
167.0366	16	C11H5NO+
168.0011	26	C8H4ClFN+
168.0446	7	C11H6NO+
169.0088	22	C8H5ClFN+
171.0484	1	C11H6FN+
172.0556	4	C11H7FN+
174.0105	28	C10H5ClN+
174.0352	4	C10H5FNO+
174.0712	11	C11H9FN+
175.0182	5	C10H6ClN+
175.0429	6	C10H6FNO+
175.0792	4	C11H10FN+
176.0506	145	C10H7FNO+
182.0167	28	C9H6ClFN+
184.0558	20	C12H7FN+
185.0635	18	C12H8FN+
186.0116	10	C8H6ClFNO+
186.0353	2	C11H5FNO+
186.0715	2	C12H9FN+
187.0428	61	C11H6FNO+
188.0505	8	C11H7FNO+
192.0011	3	C10H4ClFN+
193.0089	41	C10H5ClFN+
194.0166	27	C10H6ClFN+
195.0246	11	C10H7ClFN+
196.0558	3	C13H7FN+
200.0265	2	C12H5FO2+
200.0504	1	C12H7FNO+
202.0661	9	C12H9FNO+
203.0375	8	C11H6FNO2+
204.0455	14	C11H7FNO2+
206.0169	5	C11H6ClFN+
210.0117	16	C10H6ClFNO+
211.0192	2	C10H7ClFNO+
213.0584	3	C13H8FNO+
216.0454	2	C12H7FNO2+
219.0239	9	C15H4FO+
219.0344	16	C11H6FNO3+
219.996	7	C11H4ClFNO+
220.0158	2	C11H7ClNO2+
220.0322	4	C12H8ClFN+
221.0039	2	C11H5ClFNO+
222.0116	94	C11H6ClFNO+
230.0614	3	C13H9FNO2+
238.0065	116	C11H6ClFNO2+
248.0267	2	C16H5FO2+
276.0231	2	C14H8ClFNO2+
