Mass spectrum: 2,2`-(Oxydimethanediyl)bis(2-ethylpropane-1,3-diol); LC-ESI-QFT; MS2; CE: 30; R=17500; [M+H]+
Name: 2,2'-(Oxydimethanediyl)bis(2-ethylpropane-1,3-diol)
Name: Ditrimethylolpropane
Name: 2-[2,2-bis(hydroxymethyl)butoxymethyl]-2-ethylpropane-1,3-diol
Formula: C12H26O5
Exact mass: 250.1780
SMILES: CCC(CO)(CO)COCC(CC)(CO)CO
InChI: InChI=1S/C12H26O5/c1-3-11(5-13,6-14)9-17-10-12(4-2,7-15)8-16/h13-16H,3-10H2,1-2H3
Instrument: Q Exactive Orbitrap (Thermo Scientific)
Instrument type: LC-ESI-QFT
Ms type: MS2
Ion mode: POSITIVE
Ionization: ESI
Fragmentation mode: HCD
Collision energy: 30
Resolution: 17500
Column name: Acquity BEH C18 1.7um, 2.1x150mm (Waters)
Retention time: 13.467 min
Base peak: 79.0211
Precursor m/z: 251.1853
Precursor type: [M+H]+
Precursor intensity: 4482335.875
m/z	relative intensity	assigned
55.0543	22	C4H7+
57.0335	95	C3H5O+
57.0698	6	C4H9+
59.0492	12	C3H7O+
69.0699	254	C5H9+
71.0491	12	C4H7O+
71.0855	84	C5H11+
79.0542	18	C6H7+
81.0699	573	C6H9+
83.0855	64	C6H11+
85.0648	152	C5H9O+
87.0805	14	C5H11O+
97.0647	8	C6H9O+
99.0805	999	C6H11O+
101.0961	54	C6H13O+
115.0755	20	C6H11O2+
117.091	733	C6H13O2+
119.1067	14	C6H15O2+
129.0911	16	C7H13O2+
131.1068	42	C7H15O2+
135.1016	467	C6H15O3+
147.1015	31	C7H15O3+
167.1429	8	C11H19O+
173.1539	6	C10H21O2+
185.1536	17	C11H21O2+
203.1643	11	C11H23O3+
233.1747	78	C12H25O4+
251.1854	156	C12H27O5+
