Mass spectrum: Haloxyfop; LC-ESI-QFT; MS2; CE: 90; R=17500; [M-H]-
Name: Haloxyfop
Name: 2-[4-[3-chloro-5-(trifluoromethyl)pyridin-2-yl]oxyphenoxy]propanoic acid
Formula: C15H11ClF3NO4
Exact mass: 361.0329
SMILES: CC(OC1=CC=C(OC2=NC=C(C=C2Cl)C(F)(F)F)C=C1)C(O)=O
InChI: InChI=1S/C15H11ClF3NO4/c1-8(14(21)22)23-10-2-4-11(5-3-10)24-13-12(16)6-9(7-20-13)15(17,18)19/h2-8H,1H3,(H,21,22)
Instrument: Q Exactive Orbitrap (Thermo Scientific)
Instrument type: LC-ESI-QFT
Ms type: MS2
Ion mode: NEGATIVE
Ionization: ESI
Fragmentation mode: HCD
Collision energy: 90
Resolution: 17500
Column name: Acquity BEH C18 1.7um, 2.1x150mm (Waters)
Retention time: 18.614 min
Base peak: 360.0257
Precursor m/z: 360.0256
Precursor type: [M-H]-
Precursor intensity: 28933604.14063
m/z	relative intensity	assigned
67.019	13	C4H3O-
69.0347	25	C4H5O-
71.0139	225	C3H3O2-
95.0304	7	C6H4F-
97.0296	17	C5H5O2-
108.0217	999	C6H4O2-
117.0346	9	C8H5O-
126.035	22	C9H4N-
127.019	119	C9H3O-
136.0192	77	C10H2N-
142.0108	23	C6H2F2NO-
147.0251	8	C9H4FO-
150.0161	30	C8H2F2N-
156.0256	162	C10H3FN-
162.0169	10	C6H3F3NO-
164.0145	31	C11H2NO-
168.0251	13	C11H3FN-
170.0224	508	C8H3F3N-
175.972	138	C6HClF2NO-
176.0318	43	C10H4F2N-
177.0159	90	C10H3F2O-
182.0244	11	C11H4NO2-
184.0202	81	C11H3FNO-
195.9783	974	C6H2ClF3NO-
204.0266	54	C11H4F2NO-
212.0154	17	C12H3FNO2-
232.0213	10	C12H4F2NO2-
252.0279	10	C12H5F3NO2-
