Mass spectrum: Heptylparaben; LC-ESI-QFT; MS2; CE: 60; R=17500; [M-H]-
Name: Heptylparaben
Name: heptyl 4-hydroxybenzoate
Formula: C14H20O3
Exact mass: 236.1412
SMILES: CCCCCCCOC(=O)C1=CC=C(O)C=C1
InChI: InChI=1S/C14H20O3/c1-2-3-4-5-6-11-17-14(16)12-7-9-13(15)10-8-12/h7-10,15H,2-6,11H2,1H3
Instrument: Q Exactive Orbitrap (Thermo Scientific)
Instrument type: LC-ESI-QFT
Ms type: MS2
Ion mode: NEGATIVE
Ionization: ESI
Fragmentation mode: HCD
Collision energy: 60
Resolution: 17500
Column name: Acquity BEH C18 1.7um, 2.1x150mm (Waters)
Retention time: 19.502 min
Base peak: 235.1339
Precursor m/z: 235.134
Precursor type: [M-H]-
Precursor intensity: 89233375.11328
m/z	relative intensity	assigned
53.0033	1	C3HO-
65.0032	1	C4HO-
65.0397	3	C5H5-
67.019	3	C4H3O-
68.9982	9	C3HO2-
69.0346	8	C4H5O-
70.0061	4	C3H2O2-
71.0138	7	C3H3O2-
72.9932	4	C2HO3-
78.0111	1	C5H2O-
79.0189	7	C5H3O-
79.9904	3	C4O2-
80.9983	1	C4HO2-
82.006	26	C4H2O2-
91.019	72	C6H3O-
92.0268	153	C6H4O-
93.0346	999	C6H5O-
95.0138	394	C5H3O2-
97.0296	6	C5H5O2-
98.001	1	C4H2O3-
106.006	21	C6H2O2-
106.0424	1	C7H6O-
107.0138	3	C6H3O2-
108.0217	360	C6H4O2-
109.0295	1	C6H5O2-
111.0815	1	C7H11O-
113.0972	56	C7H13O-
119.0139	19	C7H3O2-
121.0295	38	C7H5O2-
123.0088	50	C6H3O3-
136.0165	263	C7H4O3-
137.0244	206	C7H5O3-
149.0246	1	C8H5O3-
235.134	37	C14H19O3-
