Mass spectrum: Tomelukast; LC-ESI-QFT; MS2; CE: 75; R=17500; [M-H]-
Name: Tomelukast
Name: 1-[2-hydroxy-3-propyl-4-[4-(2H-tetrazol-5-yl)butoxy]phenyl]ethanone
Formula: C16H22N4O3
Exact mass: 318.1692
SMILES: CCCC1=C(OCCCCC2=NN=NN2)C=CC(C(C)=O)=C1O
InChI: InChI=1S/C16H22N4O3/c1-3-6-13-14(9-8-12(11(2)21)16(13)22)23-10-5-4-7-15-17-19-20-18-15/h8-9,22H,3-7,10H2,1-2H3,(H,17,18,19,20)
Instrument: Q Exactive Orbitrap (Thermo Scientific)
Instrument type: LC-ESI-QFT
Ms type: MS2
Ion mode: NEGATIVE
Ionization: ESI
Fragmentation mode: HCD
Collision energy: 75
Resolution: 17500
Column name: Acquity BEH C18 1.7um, 2.1x150mm (Waters)
Retention time: 17.661 min
Base peak: 317.1618
Precursor m/z: 317.1619
Precursor type: [M-H]-
Precursor intensity: 32183651.06641
m/z	relative intensity	assigned
57.0345	3	C3H5O-
59.0139	8	C2H3O2-
65.0033	5	C4HO-
65.0397	15	C5H5-
67.019	35	C4H3O-
79.0553	5	C6H7-
81.0347	26	C5H5O-
83.0502	173	C5H7O-
91.0554	16	C7H7-
93.0346	5	C6H5O-
103.055	4	C8H7-
104.0268	19	C7H4O-
105.0345	31	C7H5O-
105.0709	13	C8H9-
106.0425	10	C7H6O-
107.0503	31	C7H7O-
107.0866	483	C8H11-
108.0217	12	C6H4O2-
109.0295	57	C6H5O2-
109.066	4	C7H9O-
119.0501	19	C8H7O-
119.0868	9	C9H11-
120.058	69	C8H8O-
121.0295	154	C7H5O2-
122.0373	56	C7H6O2-
123.0453	4	C7H7O2-
131.0503	4	C9H7O-
131.0867	17	C10H11-
133.0659	922	C9H9O-
135.0452	178	C8H7O2-
136.0529	499	C8H8O2-
146.0373	55	C9H6O2-
147.0817	17	C10H11O-
149.0244	98	C8H5O3-
149.0971	372	C10H13O-
150.0323	14	C8H6O3-
151.0764	999	C9H11O2-
152.0481	5	C8H8O3-
163.0401	429	C9H7O3-
164.0479	617	C9H8O3-
165.092	12	C10H13O2-
175.0765	118	C11H11O2-
177.0557	210	C10H9O3-
191.0716	41	C11H11O3-
193.087	642	C11H13O3-
195.0663	92	C8H9N3O3-
196.0376	63	C10H4N4O-
