Mass spectrum: Glipizide; LC-ESI-QFT; MS2; CE: 45; R=17500; [M-H]-
Name: Glipizide
Name: N-[2-[4-(cyclohexylcarbamoylsulfamoyl)phenyl]ethyl]-5-methylpyrazine-2-carboxamide
Formula: C21H27N5O4S
Exact mass: 445.1784
SMILES: CC1=NC=C(N=C1)C(=O)NCCC1=CC=C(C=C1)S(=O)(=O)NC(=O)NC1CCCCC1
InChI: InChI=1S/C21H27N5O4S/c1-15-13-24-19(14-23-15)20(27)22-12-11-16-7-9-18(10-8-16)31(29,30)26-21(28)25-17-5-3-2-4-6-17/h7-10,13-14,17H,2-6,11-12H2,1H3,(H,22,27)(H2,25,26,28)
Instrument: Q Exactive Orbitrap (Thermo Scientific)
Instrument type: LC-ESI-QFT
Ms type: MS2
Ion mode: NEGATIVE
Ionization: ESI
Fragmentation mode: HCD
Collision energy: 45
Resolution: 17500
Column name: Acquity BEH C18 1.7um, 2.1x150mm (Waters)
Retention time: 16.333 min
Base peak: 202.9785
Precursor m/z: 444.1711
Precursor type: [M-H]-
Precursor intensity: 5936526.158203
m/z	relative intensity	assigned
61.9705	3	NOS-
63.9624	22	O2S-
64.9703	30	HO2S-
77.9654	1	NO2S-
78.9734	229	HNO2S-
79.9573	2	O3S-
79.9812	6	H2NO2S-
80.9652	17	HO3S-
93.0459	5	C5H5N2-
93.9605	133	NO3S-
118.0663	5	C8H8N-
136.0516	24	C6H6N3O-
152.0175	3	C7H6NOS-
154.0094	18	C7H6O2S-
169.0205	3	C7H7NO2S-
170.0281	999	C7H8NO2S-
182.0282	27	C8H8NO2S-
185.9993	4	C7H6O4S-
196.0073	4	C8H6NO3S-
199.0545	4	C8H11N2O2S-
225.0338	17	C9H9N2O3S-
255.1247	3	C14H15N4O-
319.087	77	C14H15N4O3S-
