Mass spectrum: 4,4`-Sulfonylbis[2-(prop-2-en-1-yl)phenol]; LC-ESI-QFT; MS2; CE: 45; R=17500; [M+H]+
Name: 4,4'-Sulfonylbis[2-(prop-2-en-1-yl)phenol]
Name: Phenol, 4,4'-sulfonylbis[2-(2-propenyl)-
Name: 4-(4-hydroxy-3-prop-2-enylphenyl)sulfonyl-2-prop-2-enylphenol
Formula: C18H18O4S
Exact mass: 330.0926
SMILES: OC1=C(CC=C)C=C(C=C1)S(=O)(=O)C1=CC(CC=C)=C(O)C=C1
InChI: InChI=1S/C18H18O4S/c1-3-5-13-11-15(7-9-17(13)19)23(21,22)16-8-10-18(20)14(12-16)6-4-2/h3-4,7-12,19-20H,1-2,5-6H2
Instrument: Q Exactive Orbitrap (Thermo Scientific)
Instrument type: LC-ESI-QFT
Ms type: MS2
Ion mode: POSITIVE
Ionization: ESI
Fragmentation mode: HCD
Collision energy: 45
Resolution: 17500
Column name: Acquity BEH C18 1.7um, 2.1x150mm (Waters)
Retention time: 17.082 min
Base peak: 79.0211
Precursor m/z: 331.0999
Precursor type: [M+H]+
Precursor intensity: 3755856.5
m/z	relative intensity	assigned
51.023	3	C4H3+
53.0022	6	C3HO+
53.0386	31	C4H5+
55.0179	254	C3H3O+
65.0385	30	C5H5+
67.0542	14	C5H7+
68.9971	8	C3HO2+
71.0128	8	C3H3O2+
77.0384	17	C6H5+
79.0542	883	C6H7+
81.0335	7	C5H5O+
81.0699	10	C6H9+
91.0543	66	C7H7+
93.0337	5	C6H5O+
93.0699	18	C7H9+
94.0411	4	C6H6O+
95.0491	89	C6H7O+
103.0542	522	C8H7+
104.0622	4	C8H8+
105.0699	999	C8H9+
107.0491	83	C7H7O+
109.0285	56	C6H5O2+
110.0363	17	C6H6O2+
111.0441	41	C6H7O2+
115.0543	200	C9H7+
116.0621	3	C9H8+
117.0699	8	C9H9+
118.0414	19	C8H6O+
119.0491	26	C8H7O+
121.0648	43	C8H9O+
123.044	23	C7H7O2+
123.0805	3	C8H11O+
125.0055	2	C6H5OS+
125.0597	3	C7H9O2+
131.0493	50	C9H7O+
132.057	40	C9H8O+
133.0648	198	C9H9O+
134.0726	21	C9H10O+
135.0439	11	C8H7O2+
141.0005	5	C6H5O2S+
144.0566	2	C10H8O+
145.0648	28	C10H9O+
149.0598	738	C9H9O2+
150.0676	44	C9H10O2+
151.0754	363	C9H11O2+
153.0698	6	C12H9+
154.0084	9	C7H6O2S+
156.9954	82	C6H5O3S+
159.0806	15	C11H11O+
162.068	14	C10H10O2+
170.0728	5	C12H10O+
171.0113	4	C7H7O3S+
173.0963	5	C12H13O+
174.104	5	C12H14O+
181.0319	7	C9H9O2S+
181.065	9	C13H9O+
183.0119	3	C8H7O3S+
197.0268	156	C9H9O3S+
198.0675	16	C13H10O2+
263.0377	7	C13H11O4S+
275.0367	4	C14H11O4S+
303.0683	8	C16H15O4S+
331.1006	7	C18H19O4S+
