Mass spectrum: Indomethacin; LC-ESI-QFT; MS2; CE: 90; R=17500; [M+H]+
Name: Indomethacin
Name: 2-[1-(4-chlorobenzoyl)-5-methoxy-2-methylindol-3-yl]acetic acid
Formula: C19H16ClNO4
Exact mass: 357.0768
SMILES: COC1=CC2=C(C=C1)N(C(=O)C1=CC=C(Cl)C=C1)C(C)=C2CC(O)=O
InChI: InChI=1S/C19H16ClNO4/c1-11-15(10-18(22)23)16-9-14(25-2)7-8-17(16)21(11)19(24)12-3-5-13(20)6-4-12/h3-9H,10H2,1-2H3,(H,22,23)
Instrument: Q Exactive Orbitrap (Thermo Scientific)
Instrument type: LC-ESI-QFT
Ms type: MS2
Ion mode: POSITIVE
Ionization: ESI
Fragmentation mode: HCD
Collision energy: 90
Resolution: 17500
Column name: Acquity BEH C18 1.7um, 2.1x150mm (Waters)
Retention time: 18.541 min
Base peak: 79.0211
Precursor m/z: 358.0841
Precursor type: [M+H]+
Precursor intensity: 5744468.3125
m/z	relative intensity	assigned
50.0151	13	C4H2+
51.023	17	C4H3+
53.0022	29	C3HO+
55.0179	7	C3H3O+
62.9632	3	CClO+
65.0386	12	C5H5+
74.0151	25	C6H2+
75.0229	332	C6H3+
76.0307	1	C6H4+
79.0178	24	C5H3O+
80.0256	3	C5H4O+
84.984	17	C4H2Cl+
86.9996	174	C4H4Cl+
88.9788	2	C3H2ClO+
93.0336	18	C6H5O+
94.0414	18	C6H6O+
98.0364	6	C5H6O2+
107.0491	2	C7H7O+
108.0206	2	C6H4O2+
108.057	1	C7H8O+
110.9996	124	C6H4Cl+
111.0441	62	C6H7O2+
114.9946	15	C5H4ClO+
121.0398	7	C5H10ClO+
125.06	5	C4H12ClNO+
128.0025	17	C6H5ClO+
129.0102	559	C6H6ClO+
131.073	28	C9H9N+
138.9952	374	C7H4ClO+
139.0056	999	C9HNO+
140.0028	6	C7H5ClO+
159.0677	4	C10H9NO+
