Mass spectrum: Fluazifop-butyl; LC-ESI-QFT; MS2; CE: 60; R=17500; [M+H]+
Name: Fluazifop-butyl
Name: butyl 2-[4-[5-(trifluoromethyl)pyridin-2-yl]oxyphenoxy]propanoate
Formula: C19H20F3NO4
Exact mass: 383.1344
SMILES: CCCCOC(=O)C(C)OC1=CC=C(OC2=CC=C(C=N2)C(F)(F)F)C=C1
InChI: InChI=1S/C19H20F3NO4/c1-3-4-11-25-18(24)13(2)26-15-6-8-16(9-7-15)27-17-10-5-14(12-23-17)19(20,21)22/h5-10,12-13H,3-4,11H2,1-2H3
Instrument: Q Exactive Orbitrap (Thermo Scientific)
Instrument type: LC-ESI-QFT
Ms type: MS2
Ion mode: POSITIVE
Ionization: ESI
Fragmentation mode: HCD
Collision energy: 60
Resolution: 17500
Column name: Acquity BEH C18 1.7um, 2.1x150mm (Waters)
Retention time: 19.277 min
Base peak: 79.0212
Precursor m/z: 384.1417
Precursor type: [M+H]+
Precursor intensity: 27798035.5
m/z	relative intensity	assigned
53.0022	11	C3HO+
53.9975	1	C2NO+
55.0179	8	C3H3O+
55.0542	1	C4H7+
57.0699	57	C4H9+
63.0229	1	C5H3+
65.0386	134	C5H5+
67.0542	1	C5H7+
68.997	1	C3HO2+
73.0284	6	C3H5O2+
75.0229	2	C6H3+
79.0543	1	C6H7+
81.0335	1	C5H5O+
91.0542	999	C7H7+
92.0256	4	C6H4O+
92.0619	2	C7H8+
93.0335	18	C6H5O+
93.0699	1	C7H9+
94.0415	5	C6H6O+
95.049	4	C6H7O+
103.0542	2	C8H7+
105.0698	1	C8H9+
107.0491	4	C7H7O+
108.057	1	C7H8O+
109.0285	2	C6H5O2+
109.0648	14	C7H9O+
110.0361	1	C6H6O2+
111.0441	29	C6H7O2+
117.0148	1	C5H3F2O+
117.0573	1	C8H7N+
118.0651	6	C8H8N+
119.0492	86	C8H7O+
119.0599	8	CH10FNO4+
120.0443	2	C7H6NO+
120.057	8	C8H8O+
121.0284	27	C7H5O2+
121.0647	6	C8H9O+
125.0597	2	C7H9O2+
130.0653	1	C9H8N+
131.0492	1	C9H7O+
135.044	1	C8H7O2+
136.0519	1	C8H8O2+
137.0597	1	C8H9O2+
141.0573	15	C10H7N+
144.0255	2	C6H4F2NO+
146.0213	2	C6H3F3N+
146.0601	2	C9H8NO+
147.0291	2	C6H4F3N+
148.0367	5	C6H5F3N+
149.0209	1	C6H4F3O+
157.0885	4	C11H11N+
158.0602	5	C10H8NO+
161.0446	2	C7H6F3N+
162.0522	1	C7H7F3N+
163.0239	5	C6H4F3NO+
164.0318	89	C6H5F3NO+
167.073	12	C12H9N+
168.0443	1	C11H6NO+
169.052	3	C11H7NO+
170.0602	1	C11H8NO+
172.0368	3	C8H5F3N+
176.0316	2	C7H5F3NO+
178.0474	2	C7H7F3NO+
179.0188	39	C6H4F3NO2+
180.0379	1	C10H6F2O+
184.0758	1	C12H10NO+
185.0447	5	C9H6F3N+
185.0835	2	C12H11NO+
186.0527	11	C9H7F3N+
186.0714	4	C12H9FN+
188.0505	4	C11H7FNO+
190.0464	8	C11H6F2N+
196.0558	1	C13H7FN+
198.0527	19	C10H7F3N+
199.0609	2	C10H8F3N+
200.0321	2	C9H5F3NO+
200.0442	1	C10H7F3O+
201.0411	2	C11H7NO3+
206.0774	2	C12H10F2N+
207.0488	2	C11H7F2NO+
208.057	1	C11H8F2NO+
209.0446	1	C11H6F3N+
210.0525	8	C11H7F3N+
211.0605	15	C11H8F3N+
212.0321	1	C10H5F3NO+
212.069	7	C11H9F3N+
213.0784	10	C13H11NO2+
214.0476	3	C10H7F3NO+
214.066	4	C13H9FNO+
216.0456	1	C12H7FNO2+
216.0623	3	C13H8F2N+
218.0412	29	C12H6F2NO+
222.0533	1	C12H7F3N+
224.0682	1	C12H9F3N+
226.0477	10	C11H7F3NO+
226.0837	24	C12H11F3N+
227.0552	158	C11H8F3NO+
228.0635	3	C11H9F3NO+
235.0604	6	C13H8F3N+
236.0681	19	C13H9F3N+
238.0474	504	C12H7F3NO+
239.0548	4	C12H8F3NO+
240.063	6	C12H9F3NO+
253.0343	2	C12H6F3NO2+
253.0712	1	C13H10F3NO+
254.0424	208	C12H7F3NO2+
254.0785	126	C13H11F3NO+
255.0501	29	C12H8F3NO2+
256.0579	62	C12H9F3NO2+
264.0629	9	C14H9F3NO+
267.0501	3	C13H8F3NO2+
268.0577	1	C13H9F3NO2+
282.0736	70	C14H11F3NO2+
