Mass spectrum: AVE6324; LC-ESI-QFT; MS2; CE: 90; R=17500; [M+H]+
Name: AVE6324
Name: [(1R)-1-ethoxycarbonyloxyethyl] 1-[[5-(5-chlorothiophen-2-yl)-1,2-oxazol-3-yl]methyl]-2-[(1-propan-2-ylpiperidin-4-yl)carbamoyl]indole-5-carboxylate
Formula: C31H35ClN4O7S
Exact mass: 642.1915
SMILES: CCOC(=O)O[C@H](C)OC(=O)c1ccc2c(c1)cc(C(=O)NC1CCN(C(C)C)CC1)n2Cc1cc(-c2ccc(Cl)s2)on1
InChI: InChI=1S/C31H35ClN4O7S/c1-5-40-31(39)42-19(4)41-30(38)20-6-7-24-21(14-20)15-25(29(37)33-22-10-12-35(13-11-22)18(2)3)36(24)17-23-16-26(43-34-23)27-8-9-28(32)44-27/h6-9,14-16,18-19,22H,5,10-13,17H2,1-4H3,(H,33,37)/t19-/m1/s1
Instrument: Q Exactive Orbitrap (Thermo Scientific)
Instrument type: LC-ESI-QFT
Ms type: MS2
Ion mode: POSITIVE
Ionization: ESI
Fragmentation mode: HCD
Collision energy: 90
Resolution: 17500
Column name: Acquity BEH C18 1.7um, 2.1x150mm (Waters)
Retention time: 17.315 min
Base peak: 79.0212
Precursor m/z: 643.1988
Precursor type: [M+H]+
Precursor intensity: 8399112.5
m/z	relative intensity	assigned
53.0022	20	C3HO+
53.0386	20	C4H5+
53.9974	2	C2NO+
54.0339	6	C3H4N+
55.0543	384	C4H7+
56.0495	602	C3H6N+
57.0699	16	C4H9+
57.9872	6	C2H2S+
58.0651	37	C3H8N+
63.0229	9	C5H3+
65.0386	26	C5H5+
67.0417	47	C4H5N+
67.0542	79	C5H7+
68.0494	13	C4H6N+
68.9793	14	C3HS+
69.0572	10	C4H7N+
69.0699	15	C5H9+
69.9872	7	C3H2S+
70.0651	44	C4H8N+
70.9949	5	C3H3S+
71.0728	3	C4H9N+
72.0808	26	C4H10N+
72.9839	632	C3H2Cl+
77.0383	2	C6H5+
78.0463	4	C6H6+
78.9404	54	CClS+
79.0542	4	C6H7+
80.0131	15	C4H2NO+
80.0495	67	C5H6N+
81.0575	3	C5H7N+
81.0699	6	C6H9+
82.0652	433	C5H8N+
84.0808	336	C5H10N+
89.0385	32	C7H5+
90.0339	10	C6H4N+
91.0419	12	C6H5N+
91.0543	4	C7H7+
92.0256	5	C6H4O+
92.0496	4	C6H6N+
94.0652	5	C6H8N+
95.0492	10	C6H7O+
95.0604	8	C5H7N2+
96.0443	6	C5H6NO+
96.081	3	C6H10N+
98.0963	7	C6H12N+
98.9899	5	C4H3OS+
98.9996	28	C5H4Cl+
102.0465	25	C8H6+
103.0542	7	C8H7+
104.0495	44	C7H6N+
104.9561	6	C3H2ClS+
108.0029	155	C6H4S+
108.0445	13	C6H6NO+
108.0807	10	C7H10N+
110.0965	87	C7H12N+
112.112	5	C7H14N+
114.0339	149	C8H4N+
115.0417	16	C8H5N+
115.0542	15	C9H7+
116.0494	27	C8H6N+
116.956	88	C4H2ClS+
117.0572	7	C8H7N+
119.0365	7	C7H5NO+
121.0108	6	C7H5S+
124.1122	44	C8H14N+
126.1278	54	C8H16N+
127.0864	2	C6H11N2O+
128.0495	45	C9H6N+
129.0448	6	C8H5N2+
129.0573	33	C9H7N+
130.0287	21	C8H4NO+
130.0653	25	C9H8N+
130.9717	12	C5H4ClS+
132.0444	45	C8H6NO+
132.951	51	C4H2ClOS+
132.9982	26	C7H3NS+
133.0285	140	C8H5O2+
134.006	38	C7H4NS+
134.06	26	C8H8NO+
135.0138	134	C7H5NS+
136.0214	3	C7H6NS+
140.0495	80	C10H6N+
141.0572	9	C10H7N+
142.0288	80	C9H4NO+
142.9718	318	C6H4ClS+
143.0367	24	C9H5NO+
143.967	6	C5H3ClNS+
144.0445	22	C9H6NO+
144.0555	5	C8H6N3+
144.951	999	C5H2ClOS+
146.0601	17	C9H8NO+
150.0551	7	C8H8NO2+
152.0164	9	C7H6NOS+
153.1023	4	C8H13N2O+
154.0524	2	C10H6N2+
154.0651	13	C11H8N+
154.9718	5	C7H4ClS+
155.0604	15	C10H7N2+
156.0445	20	C10H6NO+
157.0521	5	C10H7NO+
158.0601	7	C10H8NO+
161.0471	64	C9H7NO2+
162.001	12	C8H4NOS+
162.0186	5	C8H4NO3+
163.0088	12	C8H5NOS+
165.045	15	C11H5N2+
166.0526	11	C11H6N2+
167.0605	14	C11H7N2+
167.0732	3	C12H9N+
167.9673	11	C7H3ClNS+
168.0685	10	C11H8N2+
168.9507	6	C7H2ClOS+
169.0397	7	C10H5N2O+
169.0509	7	C9H5N4+
169.076	4	C11H9N2+
169.9826	193	C7H5ClNS+
170.035	14	C9H4N3O+
170.9666	30	C7H4ClOS+
171.0551	5	C10H7N2O+
172.0393	9	C10H6NO2+
174.055	11	C10H8NO2+
175.0265	39	C9H5NO3+
177.042	8	C9H7NO3+
178.05	19	C9H8NO3+
183.0553	10	C11H7N2O+
184.0393	7	C11H6NO2+
186.0424	8	C10H6N2O2+
188.0344	154	C10H6NO3+
189.042	5	C10H7NO3+
190.0504	4	C7H11ClN2O2+
190.0652	13	C14H8N+
193.0379	4	ClH16NO6S+
195.0553	11	C12H7N2O+
195.9621	2	C8H3ClNOS+
197.9777	51	C8H5ClNOS+
199.0504	4	C11H7N2O2+
203.0606	13	C14H7N2+
205.0367	7	C10H7NO4+
205.0761	58	C14H9N2+
206.0836	5	C14H10N2+
210.0373	6	C13H8NS+
214.0501	4	C12H8NO3+
215.0451	6	C11H7N2O3+
215.0603	7	C15H7N2+
215.9883	2	C8H7ClNO2S+
216.0684	28	C15H8N2+
217.0763	13	C15H9N2+
222.037	28	C14H8NS+
230.0323	7	C11H6N2O4+
232.0633	9	C15H8N2O+
233.0711	25	C15H9N2O+
247.0324	29	C15H7N2S+
248.0404	66	C15H8N2S+
249.048	49	C15H9N2S+
250.0554	5	C15H10N2S+
259.0325	16	C16H7N2S+
260.0402	9	C16H8N2S+
261.048	35	C16H9N2S+
270.0132	2	C18H6OS+
275.0272	13	C16H7N2OS+
276.0354	23	C16H8N2OS+
277.0428	44	C16H9N2OS+
277.0607	18	C16H9N2O3+
278.0685	18	C16H10N2O3+
293.0381	12	C16H9N2O2S+
304.0289	2	C19H9ClO2+
305.0384	20	C14H12ClN3OS+
311.004	9	C16H8ClN2OS+
344.0028	2	C24H5ClO+
349.0269	3	C24H3N3O+
