Mass spectrum: CP-671305; LC-ESI-QFT; MS2; CE: 75; R=17500; [M+H]+
Name: CP-671305
Name: (2R)-2-[4-[[[2-(1,3-benzodioxol-5-yloxy)pyridine-3-carbonyl]amino]methyl]-3-fluorophenoxy]propanoic acid
Formula: C23H19FN2O7
Exact mass: 454.1176
SMILES: C[C@@H](OC1=CC=C(CNC(=O)C2=CC=CN=C2OC2=CC=C3OCOC3=C2)C(F)=C1)C(O)=O
InChI: InChI=1S/C23H19FN2O7/c1-13(23(28)29)32-15-5-4-14(18(24)9-15)11-26-21(27)17-3-2-8-25-22(17)33-16-6-7-19-20(10-16)31-12-30-19/h2-10,13H,11-12H2,1H3,(H,26,27)(H,28,29)/t13-/m1/s1
Instrument: Q Exactive Orbitrap (Thermo Scientific)
Instrument type: LC-ESI-QFT
Ms type: MS2
Ion mode: POSITIVE
Ionization: ESI
Fragmentation mode: HCD
Collision energy: 75
Resolution: 17500
Column name: Acquity BEH C18 1.7um, 2.1x150mm (Waters)
Retention time: 16.757 min
Base peak: 79.0211
Precursor m/z: 455.1249
Precursor type: [M+H]+
Precursor intensity: 11601461.0625
m/z	relative intensity	assigned
53.0386	9	C4H5+
55.0178	2	C3H3O+
71.0291	1	C4H4F+
75.0229	1	C6H3+
77.0385	6	C6H5+
94.0414	1	C6H6O+
95.0492	31	C6H7O+
96.0369	1	C6H5F+
97.0448	31	C6H6F+
105.0338	1	C7H5O+
105.0448	13	C6H5N2+
113.0397	5	C6H6FO+
123.0354	7	C6H4FN2+
125.0397	999	C7H6FO+
128.0494	11	C9H6N+
129.0334	1	C9H5O+
146.0598	2	C9H8NO+
156.0443	93	C10H6NO+
184.0394	49	C11H6NO2+
186.0549	2	C11H8NO2+
202.0499	8	C11H8NO3+
212.0343	13	C12H6NO3+
214.0497	2	C12H8NO3+
216.0653	3	C12H10NO3+
242.0446	10	C13H8NO4+
244.0609	1	C13H10NO4+
260.0552	1	C13H10NO5+
