Mass spectrum: Sulfisoxazole; LC-ESI-QFT; MS2; CE: 45; R=17500; [M+H]+
Name: Sulfisoxazole
Name: 4-amino-N-(3,4-dimethyl-1,2-oxazol-5-yl)benzenesulfonamide
Formula: C11H13N3O3S
Exact mass: 267.0678
SMILES: CC1=NOC(NS(=O)(=O)C2=CC=C(N)C=C2)=C1C
InChI: InChI=1S/C11H13N3O3S/c1-7-8(2)13-17-11(7)14-18(15,16)10-5-3-9(12)4-6-10/h3-6,14H,12H2,1-2H3
Instrument: Q Exactive Orbitrap (Thermo Scientific)
Instrument type: LC-ESI-QFT
Ms type: MS2
Ion mode: POSITIVE
Ionization: ESI
Fragmentation mode: HCD
Collision energy: 45
Resolution: 17500
Column name: Acquity BEH C18 1.7um, 2.1x150mm (Waters)
Retention time: 12.458 min
Base peak: 79.0211
Precursor m/z: 268.075
Precursor type: [M+H]+
Precursor intensity: 14962071.4375
m/z	relative intensity	assigned
53.0022	3	C3HO+
53.0385	9	C4H5+
54.0338	6	C3H4N+
55.0178	34	C3H3O+
58.0651	5	C3H8N+
61.0107	1	C2H5S+
62.0184	13	C2H6S+
65.0385	57	C5H5+
67.0178	2	C4H3O+
67.0416	1	C4H5N+
68.0494	225	C4H6N+
69.0334	14	C4H5O+
70.0287	1	C3H4NO+
70.0651	3	C4H8N+
71.0603	98	C3H7N2+
72.0443	15	C3H6NO+
78.0338	22	C5H4N+
79.0178	27	C5H3O+
79.0542	1	C6H7+
80.0494	9	C5H6N+
82.0287	5	C4H4NO+
85.076	8	C4H9N2+
86.06	21	C4H8NO+
92.0495	431	C6H6N+
93.0573	4	C6H7N+
94.0651	2	C6H8N+
95.0366	5	C5H5NO+
95.0603	4	C5H7N2+
96.0444	107	C5H6NO+
106.0651	330	C7H8N+
107.0685	242	C2H9N3O2+
108.0443	999	C6H6NO+
109.0522	3	C6H7NO+
110.06	131	C6H8NO+
112.0631	5	C5H8N2O+
113.0709	915	C5H9N2O+
120.0556	28	C6H6N3+
124.076	2	C7H10NO+
140.0164	11	C6H6NOS+
156.0113	554	C6H6NO2S+
162.0552	7	C9H8NO2+
163.0581	9	C10H11S+
173.0142	4	C6H7NO3S+
174.0217	2	C6H8NO3S+
175.0172	1	C5H7N2O3S+
180.0655	77	C9H10NO3+
181.069	88	C10H13OS+
194.0814	1	C10H12NO3+
195.0849	2	C9H13N3S+
