Mass spectrum: Triadimenol; LC-ESI-QFT; MS2; CE: 30; R=17500; [M+H]+
Name: Triadimenol
Name: 1-(4-chlorophenoxy)-3,3-dimethyl-1-(1,2,4-triazol-1-yl)butan-2-ol
Formula: C14H18ClN3O2
Exact mass: 295.1088
SMILES: CC(C)(C)C(O)C(OC1=CC=C(Cl)C=C1)N1C=NC=N1
InChI: InChI=1S/C14H18ClN3O2/c1-14(2,3)12(19)13(18-9-16-8-17-18)20-11-6-4-10(15)5-7-11/h4-9,12-13,19H,1-3H3
Instrument: Q Exactive Orbitrap (Thermo Scientific)
Instrument type: LC-ESI-QFT
Ms type: MS2
Ion mode: POSITIVE
Ionization: ESI
Fragmentation mode: HCD
Collision energy: 30
Resolution: 17500
Column name: Acquity BEH C18 1.7um, 2.1x150mm (Waters)
Retention time: 17.894 min
Base peak: 79.0211
Precursor m/z: 296.116
Precursor type: [M+H]+
Precursor intensity: 3607842.875
m/z	relative intensity	assigned
70.04	999	C2H4N3+
