Mass spectrum: Bithionol; LC-ESI-QFT; MS2; CE: 30; R=17500; [M-H]-
Name: Bithionol
Name: 2,4-dichloro-6-(3,5-dichloro-2-hydroxyphenyl)sulfanylphenol
Formula: C12H6Cl4O2S
Exact mass: 353.8843
SMILES: OC1=C(Cl)C=C(Cl)C=C1SC1=C(O)C(Cl)=CC(Cl)=C1
InChI: InChI=1S/C12H6Cl4O2S/c13-5-1-7(15)11(17)9(3-5)19-10-4-6(14)2-8(16)12(10)18/h1-4,17-18H
Instrument: Q Exactive Orbitrap (Thermo Scientific)
Instrument type: LC-ESI-QFT
Ms type: MS2
Ion mode: NEGATIVE
Ionization: ESI
Fragmentation mode: HCD
Collision energy: 30
Resolution: 17500
Column name: Acquity BEH C18 1.7um, 2.1x150mm (Waters)
Retention time: 20.232 min
Base peak: 354.874
Precursor m/z: 352.877
Precursor type: [M-H]-
Precursor intensity: 2323802.300781
m/z	relative intensity	assigned
160.9567	999	C6H3Cl2O-
191.921	713	C6H2Cl2OS-
194.9176	64	C6H2Cl3O-
316.9002	35	C12H4Cl3O2S-
352.8771	125	C12H5Cl4O2S-
