Mass spectrum: Todralazine; LC-ESI-QFT; MS2; CE: 75; R=17500; [M+H]+
Name: Todralazine
Name: ethyl N-(phthalazin-1-ylamino)carbamate
Formula: C11H12N4O2
Exact mass: 232.0960
SMILES: CCOC(=O)NNC1=NN=CC2=CC=CC=C12
InChI: InChI=1S/C11H12N4O2/c1-2-17-11(16)15-14-10-9-6-4-3-5-8(9)7-12-13-10/h3-7H,2H2,1H3,(H,13,14)(H,15,16)
Instrument: Q Exactive Orbitrap (Thermo Scientific)
Instrument type: LC-ESI-QFT
Ms type: MS2
Ion mode: POSITIVE
Ionization: ESI
Fragmentation mode: HCD
Collision energy: 75
Resolution: 17500
Column name: Acquity BEH C18 1.7um, 2.1x150mm (Waters)
Retention time: 9.110 min
Base peak: 79.0212
Precursor m/z: 233.1033
Precursor type: [M+H]+
Precursor intensity: 19577991.40625
m/z	relative intensity	assigned
52.0308	1	C4H4+
53.0385	3	C4H5+
54.0338	1	C3H4N+
54.0464	2	C4H6+
55.0417	1	C3H5N+
62.0236	2	CH4NO2+
63.0229	5	C5H3+
64.0308	2	C5H4+
66.0463	11	C5H6+
72.0443	1	C3H6NO+
77.0385	1	C6H5+
79.0416	22	C5H5N+
79.0542	2	C6H7+
81.0334	3	C5H5O+
89.0385	999	C7H5+
90.0338	5	C6H4N+
90.0464	21	C7H6+
91.0416	8	C6H5N+
92.0257	7	C6H4O+
92.0369	1	C5H4N2+
94.0412	3	C6H6O+
95.0365	3	C5H5NO+
95.0491	13	C6H7O+
97.0524	3	C5H7NO+
103.0416	23	C7H5N+
103.054	3	C8H7+
104.0494	132	C7H6N+
105.0447	6	C6H5N2+
105.0572	9	C7H7N+
108.0444	2	C6H6NO+
110.0362	1	C6H6O2+
111.0315	2	C5H5NO2+
114.0339	1	C8H4N+
115.0416	2	C8H5N+
116.0495	62	C8H6N+
117.0448	10	C7H5N2+
117.0572	203	C8H7N+
118.0525	5	C7H6N2+
120.0445	1	C7H6NO+
129.0446	6	C8H5N2+
130.0526	97	C8H6N2+
131.0604	163	C8H7N2+
132.0682	195	C8H8N2+
134.06	24	C8H8NO+
135.0551	2	C7H7N2O+
144.0556	31	C8H6N3+
145.0634	393	C8H7N3+
146.0709	1	C8H8N3+
147.0554	1	C8H7N2O+
148.0505	1	C7H6N3O+
158.0477	2	C9H6N2O+
158.0713	1	C9H8N3+
159.0665	173	C8H7N4+
160.0743	8	C8H8N4+
161.0821	157	C8H9N4+
187.0614	40	C9H7N4O+
205.072	1	C9H9N4O2+
