Mass spectrum: Simetryn; LC-ESI-QFT; MS2; CE: 90; R=17500; [M+H]+
Name: Simetryn
Name: 2-N,4-N-diethyl-6-methylsulfanyl-1,3,5-triazine-2,4-diamine
Formula: C8H15N5S
Exact mass: 213.1048
SMILES: CCNC1=NC(SC)=NC(NCC)=N1
InChI: InChI=1S/C8H15N5S/c1-4-9-6-11-7(10-5-2)13-8(12-6)14-3/h4-5H2,1-3H3,(H2,9,10,11,12,13)
Instrument: Q Exactive Orbitrap (Thermo Scientific)
Instrument type: LC-ESI-QFT
Ms type: MS2
Ion mode: POSITIVE
Ionization: ESI
Fragmentation mode: HCD
Collision energy: 90
Resolution: 17500
Column name: Acquity BEH C18 1.7um, 2.1x150mm (Waters)
Retention time: 14.314 min
Base peak: 79.0211
Precursor m/z: 214.1121
Precursor type: [M+H]+
Precursor intensity: 31022539.0625
m/z	relative intensity	assigned
68.0243	999	C2H2N3+
70.0399	1	C2H4N3+
71.0603	252	C3H7N2+
74.0058	164	C2H4NS+
85.0507	3	C2H5N4+
91.0325	7	C2H7N2S+
96.0556	264	C4H6N3+
99.0011	2	C3H3N2S+
102.0371	2	C4H8NS+
110.0459	2	C3H4N5+
113.0821	3	C4H9N4+
116.0277	107	C3H6N3S+
124.0869	28	C6H10N3+
138.0773	3	C5H8N5+
144.059	15	C5H10N3S+
158.0497	1	C4H8N5S+
166.1088	2	C7H12N5+
186.0812	1	C6H12N5S+
