Mass spectrum: 1-(4-Methoxyphenyl)-1-pentene-3-one; LC-ESI-QFT; MS2; CE: 30; R=17500; [M+H]+
Name: 1-(4-Methoxyphenyl)-1-pentene-3-one
Name: 1-Penten-3-one, 1-(4-methoxyphenyl)-, (1E)-
Name: 1-(4-methoxyphenyl)pent-1-en-3-one
Formula: C12H14O2
Exact mass: 190.0994
SMILES: CCC(=O)C=CC1=CC=C(OC)C=C1
InChI: InChI=1S/C12H14O2/c1-3-11(13)7-4-10-5-8-12(14-2)9-6-10/h4-9H,3H2,1-2H3
Instrument: Q Exactive Orbitrap (Thermo Scientific)
Instrument type: LC-ESI-QFT
Ms type: MS2
Ion mode: POSITIVE
Ionization: ESI
Fragmentation mode: HCD
Collision energy: 30
Resolution: 17500
Column name: Acquity BEH C18 1.7um, 2.1x150mm (Waters)
Retention time: 17.008 min
Base peak: 79.0211
Precursor m/z: 191.1067
Precursor type: [M+H]+
Precursor intensity: 5712350
m/z	relative intensity	assigned
57.0335	97	C3H5O+
83.0492	1	C5H7O+
115.0542	1	C9H7+
117.0698	1	C9H9+
121.0648	23	C8H9O+
131.0854	1	C10H11+
135.0441	14	C8H7O2+
135.0803	3	C9H11O+
141.0698	7	C11H9+
142.0777	6	C11H10+
143.0857	4	C11H11+
145.0648	1	C10H9O+
145.1007	1	C11H13+
147.0805	2	C10H11O+
149.0598	2	C9H9O2+
157.0648	2	C11H9O+
158.0727	309	C11H10O+
159.0805	6	C11H11O+
161.0958	1	C11H13O+
162.0675	1	C10H10O2+
163.1115	2	C11H15O+
173.0962	207	C12H13O+
176.0836	1	C11H12O2+
191.1067	999	C12H15O2+
