Mass spectrum: N-Dodecanoyl-N-methylglycine; LC-ESI-QFT; MS2; CE: 60; R=17500; [M-H]-
Name: N-Dodecanoyl-N-methylglycine
Name: N-Lauroylsarcosine
Name: 2-[dodecanoyl(methyl)amino]acetic acid
Formula: C15H29NO3
Exact mass: 271.2147
SMILES: CCCCCCCCCCCC(=O)N(C)CC(O)=O
InChI: InChI=1S/C15H29NO3/c1-3-4-5-6-7-8-9-10-11-12-14(17)16(2)13-15(18)19/h3-13H2,1-2H3,(H,18,19)
Instrument: Q Exactive Orbitrap (Thermo Scientific)
Instrument type: LC-ESI-QFT
Ms type: MS2
Ion mode: NEGATIVE
Ionization: ESI
Fragmentation mode: HCD
Collision energy: 60
Resolution: 17500
Column name: Acquity BEH C18 1.7um, 2.1x150mm (Waters)
Retention time: 19.716 min
Base peak: 249.1496
Precursor m/z: 270.2075
Precursor type: [M-H]-
Precursor intensity: 63538079.61719
m/z	relative intensity	assigned
57.0345	1	C3H5O-
66.0349	1	C4H4N-
70.0299	2	C3H4NO-
80.0268	1	C5H4O-
83.0503	2	C5H7O-
86.0248	1	C3H4NO2-
86.0612	2	C4H8NO-
88.0404	999	C3H6NO2-
96.0456	1	C5H6NO-
179.1442	5	C12H19O-
181.1599	18	C12H21O-
183.1754	21	C12H23O-
197.1913	1	C13H25O-
224.2028	1	C14H26NO-
