Mass spectrum: PharmaGSID_47330; LC-ESI-QFT; MS2; CE: 60; R=17500; [M+H]+
Name: PharmaGSID_47330
Name: Unii-gmy695BP6Q
Name: 3-fluoro-2-[2-fluoro-5-[3-(2-hydroxypropan-2-yl)imidazo[1,2-b][1,2,4]triazin-7-yl]phenyl]benzonitrile
Formula: C21H15F2N5O
Exact mass: 391.1245
SMILES: CC(C)(O)C1=NC2=NC=C(N2N=C1)C1=CC(=C(F)C=C1)C1=C(C=CC=C1F)C#N
InChI: InChI=1S/C21H15F2N5O/c1-21(2,29)18-11-26-28-17(10-25-20(28)27-18)12-6-7-15(22)14(8-12)19-13(9-24)4-3-5-16(19)23/h3-8,10-11,29H,1-2H3
Instrument: Q Exactive Orbitrap (Thermo Scientific)
Instrument type: LC-ESI-QFT
Ms type: MS2
Ion mode: POSITIVE
Ionization: ESI
Fragmentation mode: HCD
Collision energy: 60
Resolution: 17500
Column name: Acquity BEH C18 1.7um, 2.1x150mm (Waters)
Retention time: 17.091 min
Base peak: 79.0211
Precursor m/z: 392.1317
Precursor type: [M+H]+
Precursor intensity: 20737991.75
m/z	relative intensity	assigned
53.0022	5	C3HO+
54.0338	13	C3H4N+
55.029	3	C2H3N2+
55.0416	13	C3H5N+
56.0369	11	C2H4N2+
56.0494	5	C3H6N+
58.0651	2	C3H8N+
59.0491	67	C3H7O+
66.0337	1	C4H4N+
67.0291	3	C3H3N2+
67.0415	1	C4H5N+
68.0494	82	C4H6N+
69.0334	26	C4H5O+
69.0446	8	C3H5N2+
69.0574	1	C4H7N+
70.0651	10	C4H8N+
81.0447	13	C4H5N2+
82.0525	9	C4H6N2+
83.0603	30	C4H7N2+
84.0444	2	C4H6NO+
86.0599	1	C4H8NO+
95.0239	15	C4H3N2O+
95.0605	2	C5H7N2+
96.0556	25	C4H6N3+
97.0396	54	C4H5N2O+
97.0634	5	C4H7N3+
97.076	3	C5H9N2+
98.0474	110	C4H6N2O+
98.0599	9	FH7N4O+
108.0556	8	C5H6N3+
110.0711	1	C5H8N3+
111.0552	8	C5H7N2O+
125.0345	7	C3H3N5O+
126.0424	15	C3H4N5O+
126.0662	14	C5H8N3O+
135.0479	1	C8H6FN+
201.051	44	C13H7F2+
208.0556	92	C14H7FN+
212.0518	1	C13H7FNO+
215.053	25	C13H7F2N+
216.0618	11	C13H8F2N+
223.0662	3	C9H7F2N5+
226.0462	33	C14H6F2N+
227.0542	5	C14H7F2N+
228.0618	113	C14H8F2N+
229.0697	1	C14H9F2N+
233.0709	5	C15H9N2O+
234.0589	22	C15H7FN2+
235.0666	77	C15H8FN2+
238.0466	2	C15H6F2N+
239.054	999	C15H7F2N+
240.0494	1	C14H6F2N2+
240.062	13	C15H8F2N+
241.0571	42	C14H7F2N2+
242.0409	8	C14H6F2NO+
243.0727	89	C14H9F2N2+
244.0569	7	C14H8F2NO+
251.0652	1	C15H8FN2O+
252.0492	1	C15H6F2N2+
252.062	4	C16H8F2N+
253.057	33	C15H7F2N2+
253.0709	3	C16H9F2N+
254.0426	6	C15H6F2NO+
254.0648	58	C15H8F2N2+
254.0776	5	C16H10F2N+
255.0727	625	C15H9F2N2+
256.0566	92	C15H8F2NO+
256.0789	9	C15H10F2N2+
258.0725	4	C15H10F2NO+
259.0674	2	C14H9F2N2O+
260.0614	3	C16H7FN3+
261.0689	1	C16H8FN3+
264.0484	1	C16H6F2N2+
265.0569	15	C16H7F2N2+
266.052	2	C15H6F2N3+
266.0779	1	C17H10F2N+
267.0734	4	C16H9F2N2+
268.068	15	C15H8F2N3+
269.0518	6	C15H7F2N2O+
269.0747	5	C15H9F2N3+
269.0886	2	C16H11F2N2+
270.0691	1	C14H8F2N4+
271.0437	107	C18H6FNO+
278.0638	1	C17H8F2N2+
279.0603	1	C16H7F2N3+
279.0735	14	C17H9F2N2+
280.0678	130	C16H8F2N3+
281.0521	5	C16H7F2N2O+
281.0748	46	C16H9F2N3+
281.0882	5	C17H11F2N2+
282.0836	34	C16H10F2N3+
283.0974	6	C18H11N4+
286.0646	2	C17H7FN4+
287.0727	11	C17H8FN4+
290.053	1	C17H6F2N3+
293.0885	3	C18H11F2N2+
294.085	9	C19H12F2O+
295.0777	8	C16H9F2N4+
295.0922	13	C19H13F2O+
295.1054	4	C18H13F2N2+
296.0628	49	C16H8F2N3O+
296.0862	22	C16H10F2N4+
296.1006	5	C19H14F2O+
297.0709	6	C16H9F2N3O+
297.0943	30	C16H11F2N4+
298.0785	52	C16H10F2N3O+
301.0886	8	C18H10FN4+
303.1036	2	C18H12FN4+
305.0865	3	C19H11F2N2+
306.0836	20	C18H10F2N3+
307.0789	257	C17H9F2N4+
309.0947	16	C17H11F2N4+
320.1001	8	C21H14F2O+
321.0946	71	C18H11F2N4+
322.0793	2	C18H10F2N3O+
322.1019	3	C18H12F2N4+
323.1109	70	C18H13F2N4+
329.0846	1	C19H10FN4O+
330.0827	1	C20H10F2N3+
331.078	2	C19H9F2N4+
332.0862	2	C19H10F2N4+
333.0945	7	C19H11F2N4+
334.0897	19	C18H10F2N5+
335.0976	1	C18H11F2N5+
337.1258	99	C19H15F2N4+
338.1096	1	C19H14F2N3O+
347.1101	31	C20H13F2N4+
348.1058	46	C19H12F2N5+
349.0893	2	C19H11F2N4O+
350.1199	1	C19H14F2N5+
358.0887	1	C20H10F2N5+
360.105	2	C20H12F2N5+
365.1208	60	C20H15F2N4O+
377.107	1	C20H13F2N5O+
