Mass spectrum: Octylparaben; LC-ESI-QFT; MS2; CE: 45; R=17500; [M-H]-
Name: Octylparaben
Name: octyl 4-hydroxybenzoate
Formula: C15H22O3
Exact mass: 250.1569
SMILES: CCCCCCCCOC(=O)C1=CC=C(O)C=C1
InChI: InChI=1S/C15H22O3/c1-2-3-4-5-6-7-12-18-15(17)13-8-10-14(16)11-9-13/h8-11,16H,2-7,12H2,1H3
Instrument: Q Exactive Orbitrap (Thermo Scientific)
Instrument type: LC-ESI-QFT
Ms type: MS2
Ion mode: NEGATIVE
Ionization: ESI
Fragmentation mode: HCD
Collision energy: 45
Resolution: 17500
Column name: Acquity BEH C18 1.7um, 2.1x150mm (Waters)
Retention time: 19.726 min
Base peak: 249.1495
Precursor m/z: 249.1496
Precursor type: [M-H]-
Precursor intensity: 131564582.7754
m/z	relative intensity	assigned
65.0033	1	C4HO-
67.019	2	C4H3O-
68.9982	6	C3HO2-
69.0345	4	C4H5O-
70.006	8	C3H2O2-
71.0139	4	C3H3O2-
72.9931	3	C2HO3-
78.0112	2	C5H2O-
79.019	5	C5H3O-
79.9903	2	C4O2-
80.9982	1	C4HO2-
82.006	19	C4H2O2-
91.019	28	C6H3O-
92.0268	187	C6H4O-
93.0346	426	C6H5O-
95.0139	253	C5H3O2-
97.0295	2	C5H5O2-
98.0009	1	C4H2O3-
106.006	12	C6H2O2-
106.0426	5	C7H6O-
108.0217	229	C6H4O2-
109.0297	1	C6H5O2-
119.0138	33	C7H3O2-
121.0295	40	C7H5O2-
123.0088	34	C6H3O3-
127.1129	44	C8H15O-
129.1286	2	C8H17O-
136.0166	999	C7H4O3-
137.0244	337	C7H5O3-
149.0246	2	C8H5O3-
205.1596	4	C14H21O-
209.0977	3	C15H13O-
249.1496	761	C15H21O3-
