Mass spectrum: Bromacil; LC-ESI-QFT; MS2; CE: 60; R=17500; [M-H]-
Name: Bromacil
Name: 5-bromo-3-butan-2-yl-6-methyl-1H-pyrimidine-2,4-dione
Formula: C9H13BrN2O2
Exact mass: 260.0160
SMILES: CCC(C)N1C(=O)NC(C)=C(Br)C1=O
InChI: InChI=1S/C9H13BrN2O2/c1-4-5(2)12-8(13)7(10)6(3)11-9(12)14/h5H,4H2,1-3H3,(H,11,14)
Instrument: Q Exactive Orbitrap (Thermo Scientific)
Instrument type: LC-ESI-QFT
Ms type: MS2
Ion mode: NEGATIVE
Ionization: ESI
Fragmentation mode: HCD
Collision energy: 60
Resolution: 17500
Column name: Acquity BEH C18 1.7um, 2.1x150mm (Waters)
Retention time: 15.329 min
Base peak: 259.0087
Precursor m/z: 259.0088
Precursor type: [M-H]-
Precursor intensity: 23360257.50293
m/z	relative intensity	assigned
78.9189	999	Br-
116.9219	1	C2BrN-
117.9298	3	C2HBrN-
118.9138	4	C2BrO-
159.9403	10	C4H3BrNO-
173.9923	1	C6H9BrN-
202.9462	148	C5H4BrN2O2-
208.9232	1	C8H2BrO2-
259.0087	17	C9H12BrN2O2-
