Mass spectrum: Phenolphthalin; LC-ESI-QFT; MS2; CE: 60; R=17500; [M-H]-
Name: Phenolphthalin
Name: 2-[bis(4-hydroxyphenyl)methyl]benzoic acid
Formula: C20H16O4
Exact mass: 320.1049
SMILES: OC(=O)C1=C(C=CC=C1)C(C1=CC=C(O)C=C1)C1=CC=C(O)C=C1
InChI: InChI=1S/C20H16O4/c21-15-9-5-13(6-10-15)19(14-7-11-16(22)12-8-14)17-3-1-2-4-18(17)20(23)24/h1-12,19,21-22H,(H,23,24)
Instrument: Q Exactive Orbitrap (Thermo Scientific)
Instrument type: LC-ESI-QFT
Ms type: MS2
Ion mode: NEGATIVE
Ionization: ESI
Fragmentation mode: HCD
Collision energy: 60
Resolution: 17500
Column name: Acquity BEH C18 1.7um, 2.1x150mm (Waters)
Retention time: 15.574 min
Base peak: 319.0974
Precursor m/z: 319.0976
Precursor type: [M-H]-
Precursor intensity: 12121735.41357
m/z	relative intensity	assigned
93.0346	90	C6H5O-
152.0632	3	C12H8-
153.0713	7	C12H9-
167.0504	5	C12H7O-
169.0661	7	C12H9O-
180.0581	155	C13H8O-
181.0659	28	C13H9O-
195.0451	42	C13H7O2-
196.053	110	C13H8O2-
197.0608	42	C13H9O2-
205.0659	28	C15H9O-
213.0557	30	C13H9O3-
217.0658	4	C16H9O-
217.1024	1	C17H13-
219.0813	4	C16H11O-
223.0398	4	C14H7O3-
226.0791	1	C18H10-
227.0866	10	C18H11-
230.0737	5	C17H10O-
231.0815	19	C17H11O-
232.0899	2	C17H12O-
233.0974	2	C17H13O-
243.0815	85	C18H11O-
244.0893	22	C18H12O-
245.0971	93	C18H13O-
247.1117	1	C18H15O-
255.0814	2	C19H11O-
256.0893	4	C19H12O-
257.0968	1	C19H13O-
258.069	3	C18H10O2-
259.0773	2	C18H11O2-
271.0767	59	C19H11O2-
272.0845	852	C19H12O2-
273.0922	999	C19H13O2-
275.109	1	C19H15O2-
