Mass spectrum: Isoxathion; LC-ESI-QFT; MS2; CE: 90; R=17500; [M+H]+
Name: Isoxathion
Name: diethoxy-[(5-phenyl-1,2-oxazol-3-yl)oxy]-sulfanylidene-lambda5-phosphane
Formula: C13H16NO4PS
Exact mass: 313.0538
SMILES: CCOP(=S)(OCC)OC1=NOC(=C1)C1=CC=CC=C1
InChI: InChI=1S/C13H16NO4PS/c1-3-15-19(20,16-4-2)18-13-10-12(17-14-13)11-8-6-5-7-9-11/h5-10H,3-4H2,1-2H3
Instrument: Q Exactive Orbitrap (Thermo Scientific)
Instrument type: LC-ESI-QFT
Ms type: MS2
Ion mode: POSITIVE
Ionization: ESI
Fragmentation mode: HCD
Collision energy: 90
Resolution: 17500
Column name: Acquity BEH C18 1.7um, 2.1x150mm (Waters)
Retention time: 18.742 min
Base peak: 79.0212
Precursor m/z: 314.061
Precursor type: [M+H]+
Precursor intensity: 15607703.04688
m/z	relative intensity	assigned
50.0151	2	C4H2+
51.0229	2	C4H3+
53.0386	153	C4H5+
55.0178	8	C3H3O+
58.995	5	C2H3S+
61.0106	29	C2H5S+
62.9452	2	PS+
64.9786	433	H2O2P+
68.013	11	C3H2NO+
68.997	5	C3HO2+
77.0385	56	C6H5+
78.9401	5	OPS+
78.9943	21	CH4O2P+
79.0542	41	C6H7+
81.0335	16	C5H5O+
81.0698	2	C6H9+
81.9813	2	H3O3P+
82.9892	4	H4O3P+
89.0385	49	C7H5+
91.0542	188	C7H7+
93.01	13	C2H6O2P+
94.0413	18	C6H6O+
95.0491	476	C6H7O+
96.9507	21	H2O2PS+
98.9841	493	H4O4P+
103.0542	5	C8H7+
104.0494	8	C7H6N+
105.0335	423	C7H5O+
105.0446	172	H11NO3S+
106.0651	27	C7H8N+
107.0491	4	C7H7O+
107.9844	4	CH3NO3P+
109.0049	18	C2H6O3P+
109.0106	25	C6H5S+
109.0649	5	C7H9O+
110.9665	2	CH4O2PS+
112.9999	7	CH6O4P+
113.9535	160	H3O3PS+
114.9613	999	H4O3PS+
116.0494	80	C8H6N+
116.9655	1	C3HO3S+
117.0572	26	C8H7N+
118.0413	5	C8H6O+
118.065	2	C8H8N+
121.0105	10	C7H5S+
123.0261	7	C7H7S+
123.9794	9	CH3NO4P+
127.0211	2	C6H7OS+
127.0415	2	C9H5N+
128.9769	30	CH6O3PS+
130.9562	123	H4O4PS+
131.9641	2	H5O4PS+
132.057	1	C9H8O+
132.9718	10	H6O4PS+
133.0109	7	C4H8NPS+
133.0521	4	C8H7NO+
134.0182	3	C8H6S+
134.0602	7	C8H8NO+
135.9977	1	C7H4OS+
137.0055	13	C7H5OS+
142.9925	1	C2H8O3PS+
144.9719	1	CH6O4PS+
145.0523	20	C9H7NO+
145.9796	1	CH7O4PS+
146.0599	24	C9H8NO+
146.9874	9	CH8O4PS+
148.0214	3	C8H6NS+
149.0055	2	C8H5OS+
151.0212	3	C8H7OS+
159.0136	2	C9H5NS+
160.0216	2	C9H6NS+
162.0551	8	C9H8NO2+
162.9824	2	C7H2NO2P+
178.032	5	C9H8NOS+
