Mass spectrum: Dantrolene; LC-ESI-QFT; MS2; CE: 75; R=17500; [M-H]-
Name: Dantrolene
Name: 1-({[5-(4-Nitrophenyl)furan-2-yl]methylidene}amino)imidazolidine-2,4-dione
Name: 1-[[5-(4-nitrophenyl)furan-2-yl]methylideneamino]imidazolidine-2,4-dione
Formula: C14H10N4O5
Exact mass: 314.0651
SMILES: [O-][N+](=O)C1=CC=C(C=C1)C1=CC=C(O1)C=NN1CC(=O)NC1=O
InChI: InChI=1S/C14H10N4O5/c19-13-8-17(14(20)16-13)15-7-11-5-6-12(23-11)9-1-3-10(4-2-9)18(21)22/h1-7H,8H2,(H,16,19,20)
Instrument: Q Exactive Orbitrap (Thermo Scientific)
Instrument type: LC-ESI-QFT
Ms type: MS2
Ion mode: NEGATIVE
Ionization: ESI
Fragmentation mode: HCD
Collision energy: 75
Resolution: 17500
Column name: Acquity BEH C18 1.7um, 2.1x150mm (Waters)
Retention time: 15.460 min
Base peak: 165.0556
Precursor m/z: 313.0578
Precursor type: [M-H]-
Precursor intensity: 9740540.842773
m/z	relative intensity	assigned
63.0241	19	C5H3-
88.0319	13	C7H4-
91.0189	123	C6H3O-
99.0201	28	C3H3N2O2-
113.0398	40	C9H5-
116.0269	116	C8H4O-
122.0247	58	C6H4NO2-
141.0348	30	C10H5O-
145.0293	12	C9H5O2-
146.0248	999	C8H4NO2-
155.0508	19	C11H7O-
169.0294	19	C11H5O2-
200.0355	30	C11H6NO3-
