Mass spectrum: Nuarimol; LC-ESI-QFT; MS2; CE: 90; R=17500; [M+H]+
Name: Nuarimol
Name: (2-chlorophenyl)-(4-fluorophenyl)-pyrimidin-5-ylmethanol
Formula: C17H12ClFN2O
Exact mass: 314.0622
SMILES: OC(C1=CC=C(F)C=C1)(C1=CN=CN=C1)C1=CC=CC=C1Cl
InChI: InChI=1S/C17H12ClFN2O/c18-16-4-2-1-3-15(16)17(22,13-9-20-11-21-10-13)12-5-7-14(19)8-6-12/h1-11,22H
Instrument: Q Exactive Orbitrap (Thermo Scientific)
Instrument type: LC-ESI-QFT
Ms type: MS2
Ion mode: POSITIVE
Ionization: ESI
Fragmentation mode: HCD
Collision energy: 90
Resolution: 17500
Column name: Acquity BEH C18 1.7um, 2.1x150mm (Waters)
Retention time: 17.248 min
Base peak: 79.0212
Precursor m/z: 315.0695
Precursor type: [M+H]+
Precursor intensity: 5369053.8125
m/z	relative intensity	assigned
50.0152	6	C4H2+
51.023	10	C4H3+
52.0183	19	C3H2N+
54.0339	563	C3H4N+
71.0291	17	C4H4F+
75.0229	67	C6H3+
79.0179	11	C5H3O+
81.0448	999	C4H5N2+
86.9996	37	C4H4Cl+
93.0336	12	C6H5O+
94.0414	16	C6H6O+
95.0292	13	C6H4F+
95.0492	7	C6H7O+
97.0448	3	C6H6F+
103.0543	4	C8H7+
104.0496	6	C7H6N+
105.0447	5	C6H5N2+
109.045	3	C7H6F+
110.9997	23	C6H4Cl+
111.0441	46	C3H10ClNO+
113.0398	115	C6H6FO+
121.0397	8	C6H5N2O+
121.0449	8	C8H6F+
122.0402	7	C7H5FN+
123.0241	338	C7H4FO+
123.0352	192	C6H4FN2+
124.0557	3	C7H7FN+
125.0153	5	C7H6Cl+
128.0495	33	C9H6N+
129.0102	109	C6H6ClO+
129.0449	13	C8H5N2+
129.0574	9	C9H7N+
130.0651	14	C9H8N+
133.0449	17	C9H6F+
137.0154	5	C8H6Cl+
138.9946	558	C7H4ClO+
146.0402	8	C9H5FN+
146.0602	12	C9H8NO+
148.0558	24	C9H7FN+
155.0604	8	C10H7N2+
156.0683	10	C10H8N2+
157.076	6	C10H9N2+
158.0403	7	C10H5FN+
158.0603	11	C10H8NO+
164.0264	3	C9H7ClN+
164.0507	6	C9H7FNO+
169.0648	16	C12H9O+
170.0526	12	C12H7F+
171.0607	2	C12H8F+
175.0668	3	C10H8FN2+
176.0621	58	C14H8+
177.07	30	C14H9+
183.0607	81	C13H8F+
184.0689	11	C13H9F+
189.0698	17	C15H9+
194.0528	8	C14H7F+
195.0609	7	C14H8F+
196.0684	153	C14H9F+
197.0763	6	C14H10F+
203.0614	15	C11H8FN2O+
203.073	11	C15H9N+
204.0809	28	C15H10N+
205.0652	16	C12H12ClN+
207.0605	877	C15H8F+
208.0685	54	C15H9F+
209.0642	4	C14H8FN+
209.0763	6	C15H10F+
214.0651	15	C16H8N+
216.0807	6	C16H10N+
217.0216	97	C13H7ClF+
221.0636	6	C15H8FN+
222.0714	138	C15H9FN+
223.0308	13	C15H8Cl+
223.0557	9	C12H11ClFN+
223.0797	9	C15H10FN+
224.0871	41	C15H11FN+
225.071	40	C15H10FO+
232.0761	10	C13H13ClN2+
233.0636	5	C16H8FN+
234.0714	85	C16H9FN+
235.0563	12	C13H11ClFN+
235.0791	41	C16H10FN+
236.0634	40	C16H9FO+
243.0376	22	C15H9ClF+
250.0663	35	C16H9FNO+
251.0747	11	C13H13ClFN2+
252.0824	4	C16H11FNO+
260.0752	12	C17H9FN2+
261.0826	11	C17H10FN2+
