Mass spectrum: SAR115740; LC-ESI-QFT; MS2; CE: 15; R=17500; [M+H]+
Name: SAR115740
Name: 5-fluoro-1-[(3-fluorophenyl)methyl]-N-(1H-indol-5-yl)indole-2-carboxamide
Formula: C24H17F2N3O
Exact mass: 401.1340
SMILES: FC1=CC=C2N(CC3=CC(F)=CC=C3)C(=CC2=C1)C(=O)NC1=CC=C2NC=CC2=C1
InChI: InChI=1S/C24H17F2N3O/c25-18-3-1-2-15(10-18)14-29-22-7-4-19(26)11-17(22)13-23(29)24(30)28-20-5-6-21-16(12-20)8-9-27-21/h1-13,27H,14H2,(H,28,30)
Instrument: Q Exactive Orbitrap (Thermo Scientific)
Instrument type: LC-ESI-QFT
Ms type: MS2
Ion mode: POSITIVE
Ionization: ESI
Fragmentation mode: HCD
Collision energy: 15
Resolution: 17500
Column name: Acquity BEH C18 1.7um, 2.1x150mm (Waters)
Retention time: 18.363 min
Base peak: 79.0212
Precursor m/z: 402.1412
Precursor type: [M+H]+
Precursor intensity: 8030098.96875
m/z	relative intensity	assigned
131.0604	22	C8H7N2+
133.0758	4	C8H9N2+
136.0557	213	C8H7FN+
148.0556	6	C9H7FN+
159.0553	114	C9H7N2O+
162.0349	77	C9H5FNO+
171.0552	8	C10H7N2O+
239.0979	7	C15H12FN2+
241.1135	27	C15H14FN2+
242.0771	1	C15H10F2N+
244.0932	837	C15H12F2N+
267.0928	86	C16H12FN2O+
270.0723	8	C16H10F2NO+
293.096	14	C17H12FN3O+
374.1472	1	C23H18F2N3+
402.1414	999	C24H18F2N3O+
