Mass spectrum: Diphenylamine; LC-ESI-QFT; MS2; CE: 45; R=17500; [M+H]+
Name: Diphenylamine
Name: N-phenylaniline
Formula: C12H11N
Exact mass: 169.0891
SMILES: N(C1=CC=CC=C1)C1=CC=CC=C1
InChI: InChI=1S/C12H11N/c1-3-7-11(8-4-1)13-12-9-5-2-6-10-12/h1-10,13H
Instrument: Q Exactive Orbitrap (Thermo Scientific)
Instrument type: LC-ESI-QFT
Ms type: MS2
Ion mode: POSITIVE
Ionization: ESI
Fragmentation mode: HCD
Collision energy: 45
Resolution: 17500
Column name: Acquity BEH C18 1.7um, 2.1x150mm (Waters)
Retention time: 18.046 min
Base peak: 79.0211
Precursor m/z: 170.0964
Precursor type: [M+H]+
Precursor intensity: 5352338.1875
m/z	relative intensity	assigned
65.0386	9	C5H5+
92.0495	274	C6H6N+
93.0573	250	C6H7N+
128.062	4	C10H8+
129.07	1	C10H9+
143.0855	11	C11H11+
152.0621	4	C12H8+
153.07	20	C12H9+
154.0651	1	C11H8N+
155.0731	7	C11H9N+
168.0808	2	C12H10N+
169.0893	6	C12H11N+
170.0964	999	C12H12N+
