Mass spectrum: 2,6-Dimethoxybenzoic acid; LC-ESI-QFT; MS2; CE: 90; R=17500; [M+H]+
Name: 2,6-Dimethoxybenzoic acid
Formula: C9H10O4
Exact mass: 182.0579
SMILES: COC1=CC=CC(OC)=C1C(O)=O
InChI: InChI=1S/C9H10O4/c1-12-6-4-3-5-7(13-2)8(6)9(10)11/h3-5H,1-2H3,(H,10,11)
Instrument: Q Exactive Orbitrap (Thermo Scientific)
Instrument type: LC-ESI-QFT
Ms type: MS2
Ion mode: POSITIVE
Ionization: ESI
Fragmentation mode: HCD
Collision energy: 90
Resolution: 17500
Column name: Acquity BEH C18 1.7um, 2.1x150mm (Waters)
Retention time: 12.301 min
Base peak: 79.0211
Precursor m/z: 183.0652
Precursor type: [M+H]+
Precursor intensity: 2041456.53125
m/z	relative intensity	assigned
53.0387	41	C4H5+
77.0386	35	C6H5+
92.0257	94	C6H4O+
95.0492	124	C6H7O+
107.0128	999	C6H3O2+
122.0363	714	C7H6O2+
125.0234	58	C6H5O3+
150.0312	159	C8H6O3+
165.0546	113	C9H9O3+
168.0416	235	C8H8O4+
