Mass spectrum: 4-Nitrosodiphenylamine; LC-ESI-QFT; MS2; CE: 90; R=17500; [M+H]+
Name: 4-Nitrosodiphenylamine
Name: 4-nitroso-N-phenylaniline
Formula: C12H10N2O
Exact mass: 198.0793
SMILES: O=NC1=CC=C(NC2=CC=CC=C2)C=C1
InChI: InChI=1S/C12H10N2O/c15-14-12-8-6-11(7-9-12)13-10-4-2-1-3-5-10/h1-9,13H
Instrument: Q Exactive Orbitrap (Thermo Scientific)
Instrument type: LC-ESI-QFT
Ms type: MS2
Ion mode: POSITIVE
Ionization: ESI
Fragmentation mode: HCD
Collision energy: 90
Resolution: 17500
Column name: Acquity BEH C18 1.7um, 2.1x150mm (Waters)
Retention time: 16.721 min
Base peak: 79.0211
Precursor m/z: 199.0866
Precursor type: [M+H]+
Precursor intensity: 5866564.03125
m/z	relative intensity	assigned
53.0385	2	C4H5+
55.0542	2	C4H7+
65.0386	3	C5H5+
66.0463	15	C5H6+
77.0383	2	C6H5+
78.0464	8	C6H6+
79.0417	1	C5H5N+
92.0494	3	C6H6N+
95.0492	8	C6H7O+
97.0077	2	C8H+
102.0465	1	C8H6+
103.0416	1	C7H5N+
103.0541	4	C8H7+
104.0494	1	C7H6N+
105.0448	6	C6H5N2+
115.0542	2	C9H7+
117.0574	1	C8H7N+
127.0541	2	C10H7+
128.0495	86	C9H6N+
129.0573	4	C9H7N+
129.07	3	C10H9+
130.0651	29	C9H8N+
141.0698	5	C11H9+
142.0778	1	C11H10+
143.073	2	C10H9N+
144.0443	4	C9H6NO+
145.0647	3	C10H9O+
146.06	82	C9H8NO+
154.0651	82	C11H8N+
155.0604	9	C10H7N2+
155.0723	4	C11H9N+
156.0681	1	C10H8N2+
156.0807	2	C11H10N+
160.0757	2	C10H10NO+
165.0571	2	C12H7N+
167.073	29	C12H9N+
168.0808	85	C12H10N+
169.0886	10	C12H11N+
179.0603	2	C12H7N2+
180.0684	7	C12H8N2+
181.076	999	C12H9N2+
182.0838	7	C12H10N2+
183.068	1	C12H9NO+
184.0752	2	C12H10NO+
199.0862	2	C12H11N2O+
