Mass spectrum: CP-114271; LC-ESI-QFT; MS2; CE: 75; R=17500; [M-H]-
Name: CP-114271
Name: 2-[4-[2-[[2-hydroxy-2-[2-(trifluoromethyl)-1,3-thiazol-4-yl]ethyl]amino]propyl]phenoxy]acetic acid
Formula: C17H19F3N2O4S
Exact mass: 404.1018
SMILES: CC(CC1=CC=C(OCC(O)=O)C=C1)NCC(O)C1=CSC(=N1)C(F)(F)F
InChI: InChI=1S/C17H19F3N2O4S/c1-10(6-11-2-4-12(5-3-11)26-8-15(24)25)21-7-14(23)13-9-27-16(22-13)17(18,19)20/h2-5,9-10,14,21,23H,6-8H2,1H3,(H,24,25)
Instrument: Q Exactive Orbitrap (Thermo Scientific)
Instrument type: LC-ESI-QFT
Ms type: MS2
Ion mode: NEGATIVE
Ionization: ESI
Fragmentation mode: HCD
Collision energy: 75
Resolution: 17500
Column name: Acquity BEH C18 1.7um, 2.1x150mm (Waters)
Retention time: 13.754 min
Base peak: 403.0945
Precursor m/z: 403.0945
Precursor type: [M-H]-
Precursor intensity: 10606560.32031
m/z	relative intensity	assigned
56.9804	999	C2HS-
57.9756	14	CNS-
58.0299	1	C2H4NO-
66.0349	6	C4H4N-
68.0506	13	C4H6N-
68.9958	118	CF3-
81.9757	13	C3NS-
84.0455	19	C4H6NO-
84.9751	1	C3HOS-
93.0347	5	C6H5O-
95.0502	1	C6H7O-
98.0071	4	C4H4NS-
106.0424	56	C7H6O-
107.0503	34	C7H7O-
108.0217	18	C6H4O2-
114.9516	1	FO4S-
119.0502	45	C8H7O-
121.0293	1	C7H5O2-
121.0659	1	C8H9O-
123.0021	1	C5H3N2S-
123.0451	6	C7H7O2-
126.9835	2	C3H2F3S-
127.9785	1	C2HF3NS-
132.0579	3	C9H8O-
133.0659	84	C9H9O-
135.0451	3	C8H7O2-
135.0817	4	C9H11O-
138.0323	10	C7H6O3-
147.069	1	C9H9NO-
151.9787	160	C4HF3NS-
162.0924	1	C10H12NO-
174.0925	1	C11H12NO-
192.1033	11	C11H14NO2-
193.0049	1	C6H4F3N2S-
