Mass spectrum: 2-(Phenylsulfonyl)aniline; LC-ESI-QFT; MS2; CE: 30; R=17500; [M+H]+
Name: 2-(Phenylsulfonyl)aniline
Name: 2-(benzenesulfonyl)aniline
Formula: C12H11NO2S
Exact mass: 233.0510
SMILES: NC1=CC=CC=C1S(=O)(=O)C1=CC=CC=C1
InChI: InChI=1S/C12H11NO2S/c13-11-8-4-5-9-12(11)16(14,15)10-6-2-1-3-7-10/h1-9H,13H2
Instrument: Q Exactive Orbitrap (Thermo Scientific)
Instrument type: LC-ESI-QFT
Ms type: MS2
Ion mode: POSITIVE
Ionization: ESI
Fragmentation mode: HCD
Collision energy: 30
Resolution: 17500
Column name: Acquity BEH C18 1.7um, 2.1x150mm (Waters)
Retention time: 15.284 min
Base peak: 79.0211
Precursor m/z: 234.0583
Precursor type: [M+H]+
Precursor intensity: 4284494.90625
m/z	relative intensity	assigned
65.0386	16	C5H5+
68.0495	5	C4H6N+
79.0416	20	C5H5N+
80.0493	5	C5H6N+
91.0543	43	C7H7+
92.0495	999	C6H6N+
93.0573	271	C6H7N+
97.0522	21	C5H7NO+
106.0288	14	C6H4NO+
108.0444	465	C6H6NO+
110.06	17	C6H8NO+
156.0114	83	C6H6NO2S+
188.0525	4	C11H10NS+
206.0638	7	C11H12NOS+
234.0585	569	C12H12NO2S+
