Mass spectrum: Thalidomide; LC-ESI-QFT; MS2; CE: 45; R=17500; [M-H]-
Name: Thalidomide
Formula: C13H10N2O4
Exact mass: 258.0641
SMILES: O=C1N(C2CCC(=O)NC2=O)C(=O)C2=CC=CC=C12
InChI: InChI=1S/C13H10N2O4/c16-10-6-5-9(11(17)14-10)15-12(18)7-3-1-2-4-8(7)13(15)19/h1-4,9H,5-6H2,(H,14,16,17)
Instrument: Q Exactive Orbitrap (Thermo Scientific)
Instrument type: LC-ESI-QFT
Ms type: MS2
Ion mode: NEGATIVE
Ionization: ESI
Fragmentation mode: HCD
Collision energy: 45
Resolution: 17500
Column name: Acquity BEH C18 1.7um, 2.1x150mm (Waters)
Retention time: 16.757 min
Base peak: 291.0599
Precursor m/z: 257.0568
Precursor type: [M-H]-
Precursor intensity: 461878.7304688
m/z	relative intensity	assigned
66.0351	22	C4H4N-
91.0301	20	C5H3N2-
94.0299	787	C5H4NO-
106.0297	19	C6H4NO-
107.0377	399	C6H5NO-
108.0455	454	C6H6NO-
118.0298	557	C7H4NO-
119.0249	73	C6H3N2O-
134.0248	470	C7H4NO2-
135.0328	20	C7H5NO2-
136.0404	493	C7H6NO2-
158.0611	20	C10H8NO-
162.0195	42	C8H4NO3-
183.0563	82	C11H7N2O-
184.0639	25	C11H8N2O-
185.072	162	C11H9N2O-
211.0513	999	C12H7N2O2-
227.0461	31	C12H7N2O3-
228.0541	477	C12H8N2O3-
229.0618	594	C12H9N2O3-
239.0464	71	C13H7N2O3-
257.0567	294	C13H9N2O4-
