Mass spectrum: 2,5-Dimethoxy-4-chloroaniline; LC-ESI-QFT; MS2; CE: 30; R=17500; [M+H]+
Name: 2,5-Dimethoxy-4-chloroaniline
Name: 4-chloro-2,5-dimethoxyaniline
Formula: C8H10ClNO2
Exact mass: 187.0400
SMILES: COC1=CC(N)=C(OC)C=C1Cl
InChI: InChI=1S/C8H10ClNO2/c1-11-7-4-6(10)8(12-2)3-5(7)9/h3-4H,10H2,1-2H3
Instrument: Q Exactive Orbitrap (Thermo Scientific)
Instrument type: LC-ESI-QFT
Ms type: MS2
Ion mode: POSITIVE
Ionization: ESI
Fragmentation mode: HCD
Collision energy: 30
Resolution: 17500
Column name: Acquity BEH C18 1.7um, 2.1x150mm (Waters)
Retention time: 13.442 min
Base peak: 79.0211
Precursor m/z: 188.0473
Precursor type: [M+H]+
Precursor intensity: 2968807.25
m/z	relative intensity	assigned
92.0495	2	C6H6N+
109.0522	1	C6H7NO+
124.0758	19	C7H10NO+
130.0054	2	C5H5ClNO+
138.055	42	C7H8NO2+
152.0706	23	C8H10NO2+
153.0784	467	C8H11NO2+
156.0208	9	C7H7ClNO+
157.0286	3	C7H8ClNO+
158.0005	5	C6H5ClNO2+
172.0161	17	C7H7ClNO2+
173.0239	957	C7H8ClNO2+
188.0473	999	C8H11ClNO2+
