Mass spectrum: 4-Hydroxyacetophenone; LC-ESI-QFT; MS2; CE: 45; R=17500; [M-H]-
Name: 4-Hydroxyacetophenone
Name: 4'-Hydroxyacetophenone
Name: 1-(4-hydroxyphenyl)ethanone
Formula: C8H8O2
Exact mass: 136.0524
SMILES: CC(=O)C1=CC=C(O)C=C1
InChI: InChI=1S/C8H8O2/c1-6(9)7-2-4-8(10)5-3-7/h2-5,10H,1H3
Instrument: Q Exactive Orbitrap (Thermo Scientific)
Instrument type: LC-ESI-QFT
Ms type: MS2
Ion mode: NEGATIVE
Ionization: ESI
Fragmentation mode: HCD
Collision energy: 45
Resolution: 17500
Column name: Acquity BEH C18 1.7um, 2.1x150mm (Waters)
Retention time: 12.451 min
Base peak: 135.0451
Precursor m/z: 135.0452
Precursor type: [M-H]-
Precursor intensity: 26775473.58252
m/z	relative intensity	assigned
68.9982	1	C3HO2-
69.0347	1	C4H5O-
82.0061	2	C4H2O2-
92.0267	13	C6H4O-
93.0346	608	C6H5O-
95.0138	48	C5H3O2-
97.0297	1	C5H5O2-
106.0061	2	C6H2O2-
108.0217	250	C6H4O2-
117.0346	3	C8H5O-
120.0217	11	C7H4O2-
135.0451	999	C8H7O2-
