Mass spectrum: Fenuron; LC-ESI-QFT; MS2; CE: 75; R=17500; [M+H]+
Name: Fenuron
Name: 1,1-dimethyl-3-phenylurea
Formula: C9H12N2O
Exact mass: 164.0950
SMILES: CN(C)C(=O)NC1=CC=CC=C1
InChI: InChI=1S/C9H12N2O/c1-11(2)9(12)10-8-6-4-3-5-7-8/h3-7H,1-2H3,(H,10,12)
Instrument: Q Exactive Orbitrap (Thermo Scientific)
Instrument type: LC-ESI-QFT
Ms type: MS2
Ion mode: POSITIVE
Ionization: ESI
Fragmentation mode: HCD
Collision energy: 75
Resolution: 17500
Column name: Acquity BEH C18 1.7um, 2.1x150mm (Waters)
Retention time: 12.646 min
Base peak: 79.0212
Precursor m/z: 165.1022
Precursor type: [M+H]+
Precursor intensity: 16819587.625
m/z	relative intensity	assigned
53.0386	8	C4H5+
56.0131	11	C2H2NO+
65.0386	3	C5H5+
72.0443	999	C3H6NO+
77.0385	3	C6H5+
91.0543	1	C7H7+
92.0495	48	C6H6N+
94.0652	4	C6H8N+
95.0491	28	C6H7O+
105.0447	10	C6H5N2+
109.0522	4	C6H7NO+
120.0444	18	C7H6NO+
122.06	2	C7H8NO+
