Mass spectrum: Warfarin; LC-ESI-QFT; MS2; CE: 75; R=17500; [M-H]-
Name: Warfarin
Name: 4-hydroxy-3-(3-oxo-1-phenylbutyl)chromen-2-one
Formula: C19H16O4
Exact mass: 308.1049
SMILES: CC(=O)CC(C1=CC=CC=C1)C1=C(O)C2=CC=CC=C2OC1=O
InChI: InChI=1S/C19H16O4/c1-12(20)11-15(13-7-3-2-4-8-13)17-18(21)14-9-5-6-10-16(14)23-19(17)22/h2-10,15,21H,11H2,1H3
Instrument: Q Exactive Orbitrap (Thermo Scientific)
Instrument type: LC-ESI-QFT
Ms type: MS2
Ion mode: NEGATIVE
Ionization: ESI
Fragmentation mode: HCD
Collision energy: 75
Resolution: 17500
Column name: Acquity BEH C18 1.7um, 2.1x150mm (Waters)
Retention time: 17.443 min
Base peak: 307.0976
Precursor m/z: 307.0976
Precursor type: [M-H]-
Precursor intensity: 92424368.875
m/z	relative intensity	assigned
57.0345	737	C3H5O-
65.0398	1	C5H5-
83.0139	16	C4H3O2-
89.0396	2	C7H5-
91.055	1	C7H7-
93.0346	55	C6H5O-
95.0138	2	C5H3O2-
101.0397	18	C8H5-
108.0218	3	C6H4O2-
115.0556	8	C9H7-
117.0346	999	C8H5O-
119.0502	5	C8H7O-
129.0712	2	C10H9-
130.0422	4	C9H6O-
133.0298	1	C8H5O2-
133.0657	3	C9H9O-
135.0451	2	C8H7O2-
141.071	3	C11H9-
143.0503	3	C10H7O-
145.0294	2	C9H5O2-
145.066	3	C10H9O-
147.0452	2	C9H7O2-
157.0657	3	C11H9O-
161.0245	159	C9H5O3-
193.0659	15	C14H9O-
195.0814	14	C14H11O-
205.0657	12	C15H9O-
206.0737	24	C15H10O-
219.0815	7	C16H11O-
221.0606	6	C15H9O2-
223.0763	3	C15H11O2-
233.0956	1	C17H13O-
249.0558	9	C16H9O3-
250.0637	18	C16H10O3-
261.0913	1	C18H13O2-
