Mass spectrum: Fipronil; LC-ESI-QFT; MS2; CE: 15; R=17500; [M-H]-
Name: Fipronil
Name: 5-amino-1-[2,6-dichloro-4-(trifluoromethyl)phenyl]-4-(trifluoromethylsulfinyl)pyrazole-3-carbonitrile
Formula: C12H4Cl2F6N4OS
Exact mass: 435.9387
SMILES: NC1=C(C(=NN1C1=C(Cl)C=C(C=C1Cl)C(F)(F)F)C#N)S(=O)C(F)(F)F
InChI: InChI=1S/C12H4Cl2F6N4OS/c13-5-1-4(11(15,16)17)2-6(14)8(5)24-10(22)9(7(3-21)23-24)26(25)12(18,19)20/h1-2H,22H2
Instrument: Q Exactive Orbitrap (Thermo Scientific)
Instrument type: LC-ESI-QFT
Ms type: MS2
Ion mode: NEGATIVE
Ionization: ESI
Fragmentation mode: HCD
Collision energy: 15
Resolution: 17500
Column name: Acquity BEH C18 1.7um, 2.1x150mm (Waters)
Retention time: 18.222 min
Base peak: 434.9313
Precursor m/z: 434.9314
Precursor type: [M-H]-
Precursor intensity: 77608026.66797
m/z	relative intensity	assigned
84.9907	7	CF3O-
243.989	1	C9H2ClF3N3-
249.9584	16	C8H2ClF3N2S-
267.9888	1	C11H2ClF3N3-
277.9532	4	C9H2ClF3N2OS-
278.9952	1	C11H2F3N4S-
280.9569	12	C9H2ClF4N2S-
281.9924	3	C11H2ClF3N4-
287.9617	4	C10H2ClF3N3S-
317.9691	34	C12F6N2S-
329.9595	999	C11H2ClF3N4OS-
348.9335	4	C11H2Cl2F3N4S-
350.9885	4	C12H2ClF6N4-
364.9286	5	C11H2Cl2F3N4OS-
365.9362	78	C11H3Cl2F3N4OS-
