Mass spectrum: Fosthiazate; LC-ESI-QFT; MS2; CE: 30; R=17500; [M+H]+
Name: Fosthiazate
Name: 3-[butan-2-ylsulfanyl(ethoxy)phosphoryl]-1,3-thiazolidin-2-one
Formula: C9H18NO3PS2
Exact mass: 283.0466
SMILES: CCOP(=O)(SC(C)CC)N1CCSC1=O
InChI: InChI=1S/C9H18NO3PS2/c1-4-8(3)16-14(12,13-5-2)10-6-7-15-9(10)11/h8H,4-7H2,1-3H3
Instrument: Q Exactive Orbitrap (Thermo Scientific)
Instrument type: LC-ESI-QFT
Ms type: MS2
Ion mode: POSITIVE
Ionization: ESI
Fragmentation mode: HCD
Collision energy: 30
Resolution: 17500
Column name: Acquity BEH C18 1.7um, 2.1x150mm (Waters)
Retention time: 15.929 min
Base peak: 79.0211
Precursor m/z: 284.0538
Precursor type: [M+H]+
Precursor intensity: 8699106.4375
m/z	relative intensity	assigned
57.0699	13	C4H9+
61.0107	7	C2H5S+
104.0165	999	C3H6NOS+
114.9614	35	H4O3PS+
119.9938	10	C3H6NS2+
153.0134	20	C4H10O2PS+
167.9879	5	C3H7NO3PS+
181.0449	10	C6H14O2PS+
199.9601	142	C3H7NO3PS2+
227.9914	175	C5H11NO3PS2+
284.0533	3	C9H19NO3PS2+
