Mass spectrum: Ethyl 2-cyano-3,3-diphenylacrylate; LC-ESI-QFT; MS2; CE: 60; R=17500; [M+H]+
Name: Ethyl 2-cyano-3,3-diphenylacrylate
Name: ethyl 2-cyano-3,3-diphenylprop-2-enoate
Formula: C18H15NO2
Exact mass: 277.1103
SMILES: CCOC(=O)C(C#N)=C(C1=CC=CC=C1)C1=CC=CC=C1
InChI: InChI=1S/C18H15NO2/c1-2-21-18(20)16(13-19)17(14-9-5-3-6-10-14)15-11-7-4-8-12-15/h3-12H,2H2,1H3
Instrument: Q Exactive Orbitrap (Thermo Scientific)
Instrument type: LC-ESI-QFT
Ms type: MS2
Ion mode: POSITIVE
Ionization: ESI
Fragmentation mode: HCD
Collision energy: 60
Resolution: 17500
Column name: Acquity BEH C18 1.7um, 2.1x150mm (Waters)
Retention time: 17.863 min
Base peak: 79.0212
Precursor m/z: 278.1176
Precursor type: [M+H]+
Precursor intensity: 4708299.9375
m/z	relative intensity	assigned
53.0386	21	C4H5+
68.9972	14	C3HO2+
77.0386	10	C6H5+
95.0492	59	C6H7O+
103.0543	7	C8H7+
104.0496	96	C7H6N+
105.0336	793	C7H5O+
116.0495	2	C8H6N+
128.0494	17	C9H6N+
129.0335	36	C9H5O+
130.0288	6	C8H4NO+
147.0442	14	C9H7O2+
152.0618	2	C12H8+
153.0701	24	C12H9+
154.029	15	C10H4NO+
157.0286	10	C10H5O2+
165.0699	17	C13H9+
167.0858	7	C13H11+
169.0646	13	C12H9O+
176.0622	112	C14H8+
177.07	341	C14H9+
178.065	5	C13H8N+
178.0778	84	C14H10+
179.0857	27	C14H11+
181.0646	28	C13H9O+
182.0966	13	C13H12N+
186.1283	3	C13H16N+
190.0773	2	C15H10+
191.0858	4	C15H11+
195.0805	48	C14H11O+
196.0762	5	C13H10NO+
202.0652	13	C15H8N+
202.0769	3	C16H10+
203.0731	344	C15H9N+
204.0809	999	C15H10N+
205.0656	5	C15H9O+
206.0966	24	C15H12N+
207.0801	5	C15H11O+
215.0856	10	C17H11+
220.0757	11	C15H10NO+
222.0913	29	C15H12NO+
232.0759	516	C16H10NO+
234.1273	11	C17H16N+
236.1071	6	C16H14NO+
246.0535	4	C16H8NO2+
250.0862	37	C16H12NO2+
264.1023	3	C17H14NO2+
