Mass spectrum: 1-(4-Methoxyphenyl)-1-pentene-3-one; LC-ESI-QFT; MS2; CE: 15; R=17500; [M+H]+
Name: 1-(4-Methoxyphenyl)-1-pentene-3-one
Name: 1-Penten-3-one, 1-(4-methoxyphenyl)-, (1E)-
Name: 1-(4-methoxyphenyl)pent-1-en-3-one
Formula: C12H14O2
Exact mass: 190.0994
SMILES: CCC(=O)C=CC1=CC=C(OC)C=C1
InChI: InChI=1S/C12H14O2/c1-3-11(13)7-4-10-5-8-12(14-2)9-6-10/h4-9H,3H2,1-2H3
Instrument: Q Exactive Orbitrap (Thermo Scientific)
Instrument type: LC-ESI-QFT
Ms type: MS2
Ion mode: POSITIVE
Ionization: ESI
Fragmentation mode: HCD
Collision energy: 15
Resolution: 17500
Column name: Acquity BEH C18 1.7um, 2.1x150mm (Waters)
Retention time: 17.008 min
Base peak: 79.0211
Precursor m/z: 191.1067
Precursor type: [M+H]+
Precursor intensity: 7460897.3125
m/z	relative intensity	assigned
57.0335	53	C3H5O+
115.0541	1	C9H7+
121.0648	11	C8H9O+
135.044	8	C8H7O2+
135.0803	2	C9H11O+
141.0697	3	C11H9+
142.0776	2	C11H10+
143.0857	3	C11H11+
147.0798	1	C10H11O+
158.0726	159	C11H10O+
159.0806	2	C11H11O+
163.1113	1	C11H15O+
173.0961	145	C12H13O+
191.1066	999	C12H15O2+
