Mass spectrum: 3-((Ethylphenylamino)methyl)benzenesulfonic acid; LC-ESI-QFT; MS2; CE: 15; R=17500; [M+H]+
Name: 3-((Ethylphenylamino)methyl)benzenesulfonic acid
Name: 3-[(N-ethylanilino)methyl]benzenesulfonic acid
Formula: C15H17NO3S
Exact mass: 291.0929
SMILES: CCN(CC1=CC(=CC=C1)S(O)(=O)=O)C1=CC=CC=C1
InChI: InChI=1S/C15H17NO3S/c1-2-16(14-8-4-3-5-9-14)12-13-7-6-10-15(11-13)20(17,18)19/h3-11H,2,12H2,1H3,(H,17,18,19)
Instrument: Q Exactive Orbitrap (Thermo Scientific)
Instrument type: LC-ESI-QFT
Ms type: MS2
Ion mode: POSITIVE
Ionization: ESI
Fragmentation mode: HCD
Collision energy: 15
Resolution: 17500
Column name: Acquity BEH C18 1.7um, 2.1x150mm (Waters)
Retention time: 11.275 min
Base peak: 79.0212
Precursor m/z: 292.1002
Precursor type: [M+H]+
Precursor intensity: 3087040.5
m/z	relative intensity	assigned
106.065	11	C7H8N+
120.0808	33	C8H10N+
121.0886	345	C8H11N+
182.0966	1	C13H12N+
210.1268	1	C15H16N+
225.1147	1	C15H15NO+
264.0687	3	C13H14NO3S+
292.1003	999	C15H18NO3S+
