Mass spectrum: Trilostane; LC-ESI-QFT; MS2; CE: 30; R=17500; [M-H]-
Name: Trilostane
Name: (1S,2R,6R,8S,11S,12S,15S,16S)-5,15-dihydroxy-2,16-dimethyl-7-oxapentacyclo[9.7.0.02,8.06,8.012,16]octadec-4-ene-4-carbonitrile
Formula: C20H27NO3
Exact mass: 329.1991
SMILES: C[C@]12CC[C@H]3[C@@H](CC[C@@]45O[C@@H]4C(O)=C(C[C@]35C)C#N)[C@@H]1CC[C@@H]2O
InChI: InChI=1S/C20H27NO3/c1-18-7-6-14-12(13(18)3-4-15(18)22)5-8-20-17(24-20)16(23)11(10-21)9-19(14,20)2/h12-15,17,22-23H,3-9H2,1-2H3/t12-,13-,14-,15-,17+,18-,19+,20+/m0/s1
Instrument: Q Exactive Orbitrap (Thermo Scientific)
Instrument type: LC-ESI-QFT
Ms type: MS2
Ion mode: NEGATIVE
Ionization: ESI
Fragmentation mode: HCD
Collision energy: 30
Resolution: 17500
Column name: Acquity BEH C18 1.7um, 2.1x150mm (Waters)
Retention time: 16.712 min
Base peak: 429.0536
Precursor m/z: 328.1918
Precursor type: [M-H]-
Precursor intensity: 14532482.09375
m/z	relative intensity	assigned
65.0033	10	C4HO-
92.0142	180	C5H2NO-
207.1392	1	C13H19O2-
233.1547	3	C15H21O2-
235.1704	29	C15H23O2-
249.1494	1	C15H21O3-
266.1552	6	C18H20NO-
267.1598	2	C18H21NO-
268.1707	2	C18H22NO-
280.1707	16	C19H22NO-
282.1864	31	C19H24NO-
284.2023	1	C19H26NO-
287.1653	1	C18H23O3-
294.1498	1	C19H20NO2-
300.1966	6	C19H26NO2-
310.1813	14	C20H24NO2-
328.1918	999	C20H26NO3-
