Mass spectrum: Sulfaquinoxaline; LC-ESI-QFT; MS2; CE: 90; R=17500; [M-H]-
Name: Sulfaquinoxaline
Name: 4-amino-N-quinoxalin-2-ylbenzenesulfonamide
Formula: C14H12N4O2S
Exact mass: 300.0681
SMILES: NC1=CC=C(C=C1)S(=O)(=O)NC1=CN=C2C=CC=CC2=N1
InChI: InChI=1S/C14H12N4O2S/c15-10-5-7-11(8-6-10)21(19,20)18-14-9-16-12-3-1-2-4-13(12)17-14/h1-9H,15H2,(H,17,18)
Instrument: Q Exactive Orbitrap (Thermo Scientific)
Instrument type: LC-ESI-QFT
Ms type: MS2
Ion mode: NEGATIVE
Ionization: ESI
Fragmentation mode: HCD
Collision energy: 90
Resolution: 17500
Column name: Acquity BEH C18 1.7um, 2.1x150mm (Waters)
Retention time: 13.928 min
Base peak: 358.0229
Precursor m/z: 299.0608
Precursor type: [M-H]-
Precursor intensity: 5094929.174805
m/z	relative intensity	assigned
61.9706	60	NOS-
63.9624	173	O2S-
66.0098	20	C2N3-
77.9655	75	NO2S-
78.9734	14	HNO2S-
90.0349	36	C6H4N-
91.0428	11	C6H5N-
92.0505	27	C6H6N-
93.0346	343	C6H5O-
95.0502	49	C6H7O-
106.041	94	C5H4N3-
107.0377	57	C6H5NO-
115.0302	73	C7H3N2-
117.0459	410	C7H5N2-
118.0299	567	C7H4NO-
120.0455	136	C7H6NO-
121.0295	178	C7H5O2-
123.0453	35	C7H7O2-
131.0377	222	C8H5NO-
132.0215	21	C8H4O2-
132.0328	16	C7H4N2O-
142.0411	999	C8H4N3-
144.0567	817	C8H6N3-
145.0406	13	C8H5N2O-
158.049	17	C9H6N2O-
171.0563	34	C10H7N2O-
184.0513	17	C10H6N3O-
197.0593	31	C11H7N3O-
198.0676	77	C11H8N3O-
199.0753	11	C11H9N3O-
207.0798	14	C13H9N3-
208.0882	22	C13H10N3-
232.0755	30	C14H8N4-
233.083	36	C14H9N4-
