Mass spectrum: 2-Amino-N-cyclohexyl-N-methylbenzenesulfonamide; LC-ESI-QFT; MS2; CE: 60; R=17500; [M+H]+
Name: 2-Amino-N-cyclohexyl-N-methylbenzenesulfonamide
Formula: C13H20N2O2S
Exact mass: 268.1245
SMILES: CN(C1CCCCC1)S(=O)(=O)C1=CC=CC=C1N
InChI: InChI=1S/C13H20N2O2S/c1-15(11-7-3-2-4-8-11)18(16,17)13-10-6-5-9-12(13)14/h5-6,9-11H,2-4,7-8,14H2,1H3
Instrument: Q Exactive Orbitrap (Thermo Scientific)
Instrument type: LC-ESI-QFT
Ms type: MS2
Ion mode: POSITIVE
Ionization: ESI
Fragmentation mode: HCD
Collision energy: 60
Resolution: 17500
Column name: Acquity BEH C18 1.7um, 2.1x150mm (Waters)
Retention time: 17.468 min
Base peak: 79.0211
Precursor m/z: 269.1318
Precursor type: [M+H]+
Precursor intensity: 5293038.875
m/z	relative intensity	assigned
55.0543	110	C4H7+
57.07	36	C4H9+
65.0385	55	C5H5+
73.0648	13	C4H9O+
80.0496	15	C5H6N+
83.0855	56	C6H11+
92.0495	999	C6H6N+
95.0855	12	C7H11+
107.0857	18	C8H11+
108.0444	204	C6H6NO+
109.1014	41	C8H13+
110.0602	13	C6H8NO+
135.0806	21	C9H11O+
139.0757	12	C8H11O2+
167.1435	11	C11H19O+
174.0221	73	C12H2N2+
