Mass spectrum: Phenethyl anthranilate; LC-ESI-QFT; MS2; CE: 75; R=17500; [M+H]+
Name: Phenethyl anthranilate
Name: 2-phenylethyl 2-aminobenzoate
Formula: C15H15NO2
Exact mass: 241.1103
SMILES: NC1=CC=CC=C1C(=O)OCCC1=CC=CC=C1
InChI: InChI=1S/C15H15NO2/c16-14-9-5-4-8-13(14)15(17)18-11-10-12-6-2-1-3-7-12/h1-9H,10-11,16H2
Instrument: Q Exactive Orbitrap (Thermo Scientific)
Instrument type: LC-ESI-QFT
Ms type: MS2
Ion mode: POSITIVE
Ionization: ESI
Fragmentation mode: HCD
Collision energy: 75
Resolution: 17500
Column name: Acquity BEH C18 1.7um, 2.1x150mm (Waters)
Retention time: 18.603 min
Base peak: 79.0211
Precursor m/z: 242.1176
Precursor type: [M+H]+
Precursor intensity: 12509137.40625
m/z	relative intensity	assigned
51.023	4	C4H3+
53.0022	2	C3HO+
53.0386	31	C4H5+
57.0699	47	C4H9+
58.0651	154	C3H8N+
65.0386	22	C5H5+
72.0807	11	C4H10N+
74.0963	17	C4H12N+
77.0384	14	C6H5+
79.0542	309	C6H7+
80.0494	10	C5H6N+
81.0336	3	C5H5O+
86.0964	6	C5H12N+
91.0543	147	C7H7+
92.0495	69	C6H6N+
94.0412	4	C6H6O+
95.0491	90	C6H7O+
100.1121	436	C6H14N+
103.0542	213	C8H7+
104.0494	18	C7H6N+
105.0699	999	C8H9+
106.0651	9	C7H8N+
107.0491	4	C7H7O+
118.0651	44	C8H8N+
120.0444	60	C7H6NO+
128.0495	21	C9H6N+
132.0443	7	C8H6NO+
133.0521	9	C8H7NO+
146.0601	19	C9H8NO+
178.0779	14	C14H10+
179.0855	9	C14H11+
180.0809	4	C13H10N+
194.0968	5	C14H12N+
204.0805	8	C15H10N+
205.0882	3	C15H11N+
206.0965	126	C15H12N+
