Mass spectrum: Boscalid; LC-ESI-QFT; MS2; CE: 45; R=17500; [M+H]+
Name: Boscalid
Name: 2-chloro-N-[2-(4-chlorophenyl)phenyl]pyridine-3-carboxamide
Formula: C18H12Cl2N2O
Exact mass: 342.0327
SMILES: ClC1=CC=C(C=C1)C1=C(NC(=O)C2=C(Cl)N=CC=C2)C=CC=C1
InChI: InChI=1S/C18H12Cl2N2O/c19-13-9-7-12(8-10-13)14-4-1-2-6-16(14)22-18(23)15-5-3-11-21-17(15)20/h1-11H,(H,22,23)
Instrument: Q Exactive Orbitrap (Thermo Scientific)
Instrument type: LC-ESI-QFT
Ms type: MS2
Ion mode: POSITIVE
Ionization: ESI
Fragmentation mode: HCD
Collision energy: 45
Resolution: 17500
Column name: Acquity BEH C18 1.7um, 2.1x150mm (Waters)
Retention time: 17.424 min
Base peak: 79.0212
Precursor m/z: 343.0399
Precursor type: [M+H]+
Precursor intensity: 1435107.125
m/z	relative intensity	assigned
78.0338	3	C5H4N+
96.0444	65	C5H6NO+
111.9949	10	C5H3ClN+
112.0393	94	C2H9ClN2O+
114.0105	36	C5H5ClN+
130.0053	15	C5H5ClNO+
139.9898	533	C6H3ClNO+
243.0914	12	C17H11N2+
244.0991	6	C17H12N2+
253.076	9	C18H9N2+
254.0836	18	C18H10N2+
264.058	4	C17H11ClN+
270.0789	5	C18H10N2O+
271.0866	498	C18H11N2O+
272.0944	453	C18H12N2O+
279.0673	3	C17H12ClN2+
289.0527	84	C18H10ClN2+
305.0481	4	C18H10ClN2O+
307.0633	999	C18H12ClN2O+
343.0401	6	C18H13Cl2N2O+
