Mass spectrum: 1,4-Diaminoanthraquinone; LC-ESI-QFT; MS2; CE: 30; R=17500; [M+H]+
Name: 1,4-Diaminoanthraquinone
Name: 1,4-diaminoanthracene-9,10-dione
Formula: C14H10N2O2
Exact mass: 238.0742
SMILES: NC1=CC=C(N)C2=C1C(=O)C1=CC=CC=C1C2=O
InChI: InChI=1S/C14H10N2O2/c15-9-5-6-10(16)12-11(9)13(17)7-3-1-2-4-8(7)14(12)18/h1-6H,15-16H2
Instrument: Q Exactive Orbitrap (Thermo Scientific)
Instrument type: LC-ESI-QFT
Ms type: MS2
Ion mode: POSITIVE
Ionization: ESI
Fragmentation mode: HCD
Collision energy: 30
Resolution: 17500
Column name: Acquity BEH C18 1.7um, 2.1x150mm (Waters)
Retention time: 16.073 min
Base peak: 79.0211
Precursor m/z: 239.0815
Precursor type: [M+H]+
Precursor intensity: 3512472.1875
m/z	relative intensity	assigned
72.0443	6	C3H6NO+
105.0336	1	C7H5O+
210.0557	1	C13H8NO2+
221.0711	1	C14H9N2O+
238.0742	2	C14H10N2O2+
239.0809	999	C14H11N2O2+
