Mass spectrum: Ethoxyquin; LC-ESI-QFT; MS2; CE: 75; R=17500; [M+H]+
Name: Ethoxyquin
Name: 6-ethoxy-2,2,4-trimethyl-1H-quinoline
Formula: C14H19NO
Exact mass: 217.1467
SMILES: CCOC1=CC2=C(NC(C)(C)C=C2C)C=C1
InChI: InChI=1S/C14H19NO/c1-5-16-11-6-7-13-12(8-11)10(2)9-14(3,4)15-13/h6-9,15H,5H2,1-4H3
Instrument: Q Exactive Orbitrap (Thermo Scientific)
Instrument type: LC-ESI-QFT
Ms type: MS2
Ion mode: POSITIVE
Ionization: ESI
Fragmentation mode: HCD
Collision energy: 75
Resolution: 17500
Column name: Acquity BEH C18 1.7um, 2.1x150mm (Waters)
Retention time: 15.084 min
Base peak: 79.0211
Precursor m/z: 218.1539
Precursor type: [M+H]+
Precursor intensity: 2022973
m/z	relative intensity	assigned
53.0386	9	C4H5+
55.0179	6	C3H3O+
55.0542	25	C4H7+
56.0494	3	C3H6N+
57.0699	42	C4H9+
65.0385	32	C5H5+
67.0542	6	C5H7+
69.0698	4	C5H9+
77.0383	4	C6H5+
79.0542	90	C6H7+
80.0494	10	C5H6N+
81.0573	6	C5H7N+
81.0699	29	C6H9+
82.0288	8	C4H4NO+
83.0854	6	C6H11+
84.0446	4	C4H6NO+
91.0542	46	C7H7+
92.0494	8	C6H6N+
93.0572	8	C6H7N+
93.0699	20	C7H9+
94.0651	22	C6H8N+
95.0491	25	C6H7O+
96.0444	6	C5H6NO+
98.014	6	C8H2+
103.0543	51	C8H7+
105.0573	15	C7H7N+
105.0699	40	C8H9+
106.0651	199	C7H8N+
107.0491	114	C7H7O+
107.0855	13	C8H11+
108.0444	27	C6H6NO+
108.0808	9	C7H10N+
109.0523	32	C6H7NO+
109.1011	5	C8H13+
110.0601	16	C6H8NO+
115.0543	19	C9H7+
116.0494	9	C8H6N+
116.0622	5	C9H8+
117.0572	24	C8H7N+
117.0698	34	C9H9+
118.0651	75	C8H8N+
119.0492	3	C8H7O+
119.073	46	C8H9N+
119.0856	7	C9H11+
120.0444	14	C7H6NO+
120.0808	212	C8H10N+
121.0647	15	C8H9O+
121.1012	7	C9H13+
122.06	161	C7H8NO+
128.0619	6	C10H8+
129.0699	25	C10H9+
130.0411	6	C9H6O+
130.0652	42	C9H8N+
130.0777	23	C10H10+
131.0492	24	C9H7O+
131.073	45	C9H9N+
131.0854	6	C10H11+
132.0808	63	C9H10N+
133.0522	341	C8H7NO+
134.06	515	C8H8NO+
135.068	21	C8H9NO+
135.0804	4	C9H11O+
136.0757	18	C8H10NO+
137.0834	11	C8H11NO+
138.0913	5	C8H12NO+
143.073	15	C10H9N+
143.0857	7	C11H11+
144.0012	18	C12+
144.0559	47	C10H8O+
144.0808	59	C10H10N+
145.0524	3	C9H7NO+
145.065	22	C10H9O+
145.0885	15	C10H11N+
145.1012	52	C11H13+
146.0601	480	C9H8NO+
146.0965	179	C10H12N+
147.0679	294	C9H9NO+
148.0757	634	C9H10NO+
149.0835	9	C9H11NO+
150.0916	19	C9H12NO+
155.0852	17	C12H11+
156.0806	13	C11H10N+
157.0646	7	C11H9O+
157.0886	44	C11H11N+
158.0724	80	C11H10O+
158.0965	186	C11H12N+
159.068	55	C10H9NO+
159.1038	9	C11H13N+
160.0757	879	C10H10NO+
161.0835	139	C10H11NO+
161.1199	34	C11H15N+
162.0913	112	C10H12NO+
162.1281	18	C11H16N+
172.1121	44	C12H14N+
173.0837	10	C11H11NO+
173.0961	18	C12H13O+
173.1199	16	C12H15N+
174.0914	999	C11H12NO+
175.0992	114	C11H13NO+
176.1069	34	C11H14NO+
188.1071	479	C12H14NO+
189.1149	57	C12H15NO+
190.1227	127	C12H16NO+
202.1227	389	C13H16NO+
203.131	9	C13H17NO+
218.1543	36	C14H20NO+
