Mass spectrum: Chloroxuron; LC-ESI-QFT; MS2; CE: 75; R=17500; [M-H]-
Name: Chloroxuron
Name: 3-[4-(4-chlorophenoxy)phenyl]-1,1-dimethylurea
Formula: C15H15ClN2O2
Exact mass: 290.0822
SMILES: CN(C)C(=O)NC1=CC=C(OC2=CC=C(Cl)C=C2)C=C1
InChI: InChI=1S/C15H15ClN2O2/c1-18(2)15(19)17-12-5-9-14(10-6-12)20-13-7-3-11(16)4-8-13/h3-10H,1-2H3,(H,17,19)
Instrument: Q Exactive Orbitrap (Thermo Scientific)
Instrument type: LC-ESI-QFT
Ms type: MS2
Ion mode: NEGATIVE
Ionization: ESI
Fragmentation mode: HCD
Collision energy: 75
Resolution: 17500
Column name: Acquity BEH C18 1.7um, 2.1x150mm (Waters)
Retention time: 17.931 min
Base peak: 112.9856
Precursor m/z: 289.0749
Precursor type: [M-H]-
Precursor intensity: 4567950.371094
m/z	relative intensity	assigned
65.0033	6	C4HO-
78.0349	138	C5H4N-
90.035	4	C6H4N-
93.0346	14	C6H5O-
105.0222	5	C6H3NO-
106.0298	210	C6H4NO-
107.0377	9	C6H5NO-
118.0298	67	C7H4NO-
119.0376	5	C7H5NO-
120.0455	855	C7H6NO-
126.9956	85	C6H4ClO-
133.0169	26	C7H3NO2-
134.0248	999	C7H4NO2-
134.0611	317	C8H8NO-
135.0327	9	C7H5NO2-
158.0246	11	C9H4NO2-
163.0513	40	C8H7N2O2-
178.0747	5	C9H10N2O2-
188.0273	3	C11H7ClN-
208.0399	3	C13H6NO2-
244.0169	5	C13H7ClNO2-
