Mass spectrum: 4-(3-Phenylpropyl)pyridine; LC-ESI-QFT; MS2; CE: 90; R=17500; [M+H]+
Name: 4-(3-Phenylpropyl)pyridine
Formula: C14H15N
Exact mass: 197.1204
SMILES: C(CC1=CC=CC=C1)CC1=CC=NC=C1
InChI: InChI=1S/C14H15N/c1-2-5-13(6-3-1)7-4-8-14-9-11-15-12-10-14/h1-3,5-6,9-12H,4,7-8H2
Instrument: Q Exactive Orbitrap (Thermo Scientific)
Instrument type: LC-ESI-QFT
Ms type: MS2
Ion mode: POSITIVE
Ionization: ESI
Fragmentation mode: HCD
Collision energy: 90
Resolution: 17500
Column name: Acquity BEH C18 1.7um, 2.1x150mm (Waters)
Retention time: 13.607 min
Base peak: 79.0211
Precursor m/z: 198.1277
Precursor type: [M+H]+
Precursor intensity: 28948155.5
m/z	relative intensity	assigned
53.0386	9	C4H5+
65.0385	9	C5H5+
66.0463	18	C5H6+
67.0416	27	C4H5N+
67.0541	1	C5H7+
74.0963	1	C4H12N+
77.0384	4	C6H5+
78.0336	2	C5H4N+
79.0416	74	C5H5N+
79.0541	80	C6H7+
80.0494	100	C5H6N+
91.0542	12	C7H7+
92.0495	47	C6H6N+
93.0572	999	C6H7N+
94.065	35	C6H8N+
103.0542	47	C8H7+
105.0699	157	C8H9+
106.065	985	C7H8N+
107.0728	90	C7H9N+
118.0648	3	C8H8N+
120.0808	6	C8H10N+
198.1276	16	C14H16N+
