Mass spectrum: SB413217A; LC-ESI-QFT; MS2; CE: 15; R=17500; [M+H]+
Name: SB413217A
Name: (E)-3-(4-fluorophenyl)-N-[4-[2-[7-(5-methyl-1,2,4-oxadiazol-3-yl)-1,2,4,5-tetrahydro-3-benzazepin-3-yl]ethyl]cyclohexyl]prop-2-enamide
Formula: C30H35FN4O2
Exact mass: 502.2744
SMILES: Cc1nc(-c2ccc3c(c2)CCN(CCC2CCC(NC(=O)/C=C/c4ccc(F)cc4)CC2)CC3)no1
InChI: InChI=1S/C30H35FN4O2/c1-21-32-30(34-37-21)26-8-7-24-15-18-35(19-16-25(24)20-26)17-14-23-4-11-28(12-5-23)33-29(36)13-6-22-2-9-27(31)10-3-22/h2-3,6-10,13,20,23,28H,4-5,11-12,14-19H2,1H3,(H,33,36)/b13-6+
Instrument: Q Exactive Orbitrap (Thermo Scientific)
Instrument type: LC-ESI-QFT
Ms type: MS2
Ion mode: POSITIVE
Ionization: ESI
Fragmentation mode: HCD
Collision energy: 15
Resolution: 17500
Column name: Acquity BEH C18 1.7um, 2.1x150mm (Waters)
Retention time: 15.241 min
Base peak: 79.0211
Precursor m/z: 503.2817
Precursor type: [M+H]+
Precursor intensity: 7580213
m/z	relative intensity	assigned
149.0398	2	C9H6FO+
338.2221	2	C21H28N3O+
355.2495	1	C21H31N4O+
503.282	999	C30H36FN4O2+
