Mass spectrum: Caffeine; LC-ESI-QFT; MS2; CE: 90; R=17500; [M+H]+
Name: Caffeine
Name: 1,3,7-trimethylpurine-2,6-dione
Formula: C8H10N4O2
Exact mass: 194.0804
SMILES: CN1C=NC2=C1C(=O)N(C)C(=O)N2C
InChI: InChI=1S/C8H10N4O2/c1-10-4-9-6-5(10)7(13)12(3)8(14)11(6)2/h4H,1-3H3
Instrument: Q Exactive Orbitrap (Thermo Scientific)
Instrument type: LC-ESI-QFT
Ms type: MS2
Ion mode: POSITIVE
Ionization: ESI
Fragmentation mode: HCD
Collision energy: 90
Resolution: 17500
Column name: Acquity BEH C18 1.7um, 2.1x150mm (Waters)
Retention time: 11.252 min
Base peak: 79.0212
Precursor m/z: 195.0877
Precursor type: [M+H]+
Precursor intensity: 2249818.25
m/z	relative intensity	assigned
54.0339	57	C3H4N+
56.0495	394	C3H6N+
67.0291	65	C3H3N2+
68.0368	96	C3H4N2+
69.0447	843	C3H5N2+
70.0288	13	C3H4NO+
80.013	7	C4H2NO+
81.0447	153	C4H5N2+
82.0525	73	C4H6N2+
83.0604	999	C4H7N2+
93.0448	18	C5H5N2+
97.0076	114	C8H+
97.0397	41	C4H5N2O+
108.0557	41	C5H6N3+
109.0397	215	C5H5N2O+
110.0713	788	C5H8N3+
111.0552	58	C5H7N2O+
113.0344	9	C4H5N2O2+
123.0427	604	C5H5N3O+
135.0666	14	C6H7N4+
138.0662	811	C6H8N3O+
154.0613	7	C6H8N3O2+
195.0877	15	C8H11N4O2+
