Mass spectrum: Aplaviroc; LC-ESI-QFT; MS2; CE: 75; R=17500; [M+H]+
Name: Aplaviroc
Name: 4-[4-[[(3R)-1-butyl-3-[(R)-cyclohexyl(hydroxy)methyl]-2,5-dioxo-1,4,9-triazaspiro[5.5]undecan-9-yl]methyl]phenoxy]benzoic acid
Formula: C33H43N3O6
Exact mass: 577.3152
SMILES: CCCCN1C(=O)[C@@H]([C@H](O)C2CCCCC2)NC(=O)C12CCN(Cc1ccc(Oc3ccc(C(=O)O)cc3)cc1)CC2
InChI: InChI=1S/C33H43N3O6/c1-2-3-19-36-30(38)28(29(37)24-7-5-4-6-8-24)34-32(41)33(36)17-20-35(21-18-33)22-23-9-13-26(14-10-23)42-27-15-11-25(12-16-27)31(39)40/h9-16,24,28-29,37H,2-8,17-22H2,1H3,(H,34,41)(H,39,40)/t28-,29-/m1/s1
Instrument: Q Exactive Orbitrap (Thermo Scientific)
Instrument type: LC-ESI-QFT
Ms type: MS2
Ion mode: POSITIVE
Ionization: ESI
Fragmentation mode: HCD
Collision energy: 75
Resolution: 17500
Column name: Acquity BEH C18 1.7um, 2.1x150mm (Waters)
Retention time: 16.012 min
Base peak: 79.0212
Precursor m/z: 578.3225
Precursor type: [M+H]+
Precursor intensity: 6648483.375
m/z	relative intensity	assigned
51.0228	2	C4H3+
53.0023	8	C3HO+
53.0386	21	C4H5+
55.0178	24	C3H3O+
55.0543	4	C4H7+
56.0495	7	C3H6N+
57.0698	6	C4H9+
63.0228	2	C5H3+
65.0385	999	C5H5+
67.0541	3	C5H7+
68.997	3	C3HO2+
71.0127	2	C3H3O2+
75.0229	18	C6H3+
77.0386	8	C6H5+
79.0178	7	C5H3O+
79.0541	10	C6H7+
81.0334	3	C5H5O+
82.0652	2	C5H8N+
89.0385	2	C7H5+
90.0463	2	C7H6+
91.0542	22	C7H7+
93.0336	32	C6H5O+
95.0127	22	C5H3O2+
95.0491	45	C6H7O+
97.0396	7	C4H5N2O+
99.0553	8	C4H7N2O+
103.0176	8	C7H3O+
103.0542	30	C8H7+
105.0448	21	C6H5N2+
105.0699	3	C8H9+
107.0491	723	C7H7O+
110.06	2	C6H8NO+
111.044	44	C6H7O2+
111.0551	2	C5H7N2O+
115.0542	306	C9H7+
116.0621	3	C9H8+
117.07	11	C9H9+
118.0413	2	C8H6O+
121.0284	86	C7H5O2+
121.0395	41	C6H5N2O+
123.0076	8	C6H3O3+
127.0499	2	C5H7N2O2+
127.0542	20	C10H7+
128.062	339	C10H8+
129.0698	320	C10H9+
131.0491	125	C9H7O+
133.0646	23	C9H9O+
139.039	21	C7H7O3+
139.0495	2	C6H7N2O2+
139.0547	3	C11H7+
140.062	7	C11H8+
141.0698	82	C11H9+
142.0777	9	C11H10+
143.0855	64	C11H11+
145.0648	60	C10H9O+
149.0346	61	C7H5N2O2+
152.0621	169	C12H8+
153.0699	760	C12H9+
154.0777	402	C12H10+
155.0605	92	C10H7N2+
155.0854	875	C12H11+
157.0646	21	C11H9O+
159.044	8	C10H7O2+
165.0698	55	C13H9+
168.0569	79	C12H8O+
169.0648	21	C12H9O+
170.0723	4	C12H10O+
171.0803	46	C12H11O+
179.0603	11	C12H7N2+
181.0648	368	C13H9O+
182.0726	240	C13H10O+
183.0803	31	C13H11O+
185.0596	9	C12H9O2+
199.0392	3	C12H7O3+
199.0754	36	C13H11O2+
209.0595	51	C14H9O2+
212.0472	4	C13H8O3+
227.0702	635	C14H11O3+
