Mass spectrum: Corticosterone; LC-ESI-QFT; MS2; CE: 45; R=17500; [M+H]+
Name: Corticosterone
Name: (8S,9S,10R,11S,13S,14S,17S)-11-hydroxy-17-(2-hydroxyacetyl)-10,13-dimethyl-1,2,6,7,8,9,11,12,14,15,16,17-dodecahydrocyclopenta[a]phenanthren-3-one
Formula: C21H30O4
Exact mass: 346.2144
SMILES: C[C@]12C[C@H](O)[C@H]3[C@@H](CCC4=CC(=O)CC[C@]34C)[C@@H]1CC[C@@H]2C(=O)CO
InChI: InChI=1S/C21H30O4/c1-20-8-7-13(23)9-12(20)3-4-14-15-5-6-16(18(25)11-22)21(15,2)10-17(24)19(14)20/h9,14-17,19,22,24H,3-8,10-11H2,1-2H3/t14-,15-,16+,17-,19+,20-,21-/m0/s1
Instrument: Q Exactive Orbitrap (Thermo Scientific)
Instrument type: LC-ESI-QFT
Ms type: MS2
Ion mode: POSITIVE
Ionization: ESI
Fragmentation mode: HCD
Collision energy: 45
Resolution: 17500
Column name: Acquity BEH C18 1.7um, 2.1x150mm (Waters)
Retention time: 16.831 min
Base peak: 79.0211
Precursor m/z: 347.2217
Precursor type: [M+H]+
Precursor intensity: 912869.0625
m/z	relative intensity	assigned
53.0386	23	C4H5+
55.0179	21	C3H3O+
55.0543	51	C4H7+
67.0543	81	C5H7+
69.0335	41	C4H5O+
69.0699	52	C5H9+
79.0542	145	C6H7+
81.0339	14	C5H5O+
81.0699	187	C6H9+
83.0491	224	C5H7O+
87.0441	114	C4H7O2+
91.0542	126	C7H7+
93.0699	295	C7H9+
95.0491	26	C6H7O+
95.0855	254	C7H11+
97.0648	587	C6H9O+
99.0442	26	C5H7O2+
101.0598	85	C5H9O2+
105.0699	270	C8H9+
107.0493	40	C7H7O+
107.0856	346	C8H11+
109.0648	281	C7H9O+
109.1013	66	C8H13+
111.0443	30	C6H7O2+
117.0699	100	C9H9+
119.0856	233	C9H11+
121.0648	999	C8H9O+
121.1012	78	C9H13+
123.0804	459	C8H11O+
128.0615	17	C10H8+
129.0699	72	C10H9+
131.0855	233	C10H11+
133.0649	41	C9H9O+
133.1011	293	C10H13+
135.0804	219	C9H11O+
135.1168	89	C10H15+
137.0962	45	C9H13O+
141.0698	20	C11H9+
142.0779	18	C11H10+
143.0855	195	C11H11+
145.1013	332	C11H13+
147.0805	111	C10H11O+
147.1168	231	C11H15+
149.0962	116	C10H13O+
149.1324	28	C11H17+
153.0911	27	C9H13O2+
155.0857	92	C12H11+
156.0937	35	C12H12+
157.1012	253	C12H13+
159.0805	53	C11H11O+
159.1168	187	C12H15+
161.0959	113	C11H13O+
161.1326	54	C12H17+
163.1117	310	C11H15O+
169.1012	149	C13H13+
171.0809	30	C12H11O+
171.1169	238	C13H15+
173.0963	56	C12H13O+
173.1327	111	C13H17+
175.1116	183	C12H15O+
177.1275	47	C12H17O+
181.1008	72	C14H13+
182.1092	21	C14H14+
183.1169	148	C14H15+
185.096	32	C13H13O+
185.1327	87	C14H17+
187.1119	87	C13H15O+
187.1481	51	C14H19+
189.1276	94	C13H17O+
193.1014	34	C15H13+
193.1223	20	C12H17O2+
195.1168	75	C15H15+
197.1325	94	C15H17+
199.1117	37	C14H15O+
201.1276	59	C14H17O+
203.1071	16	C13H15O2+
209.1322	68	C16H17+
211.1114	32	C15H15O+
211.148	88	C16H19+
213.1277	40	C15H17O+
215.1432	20	C15H19O+
219.1173	20	C17H15+
223.1482	105	C17H19+
225.1279	21	C16H17O+
225.1639	43	C17H21+
227.1433	35	C16H19O+
229.1589	68	C16H21O+
233.1328	21	C18H17+
235.1484	50	C18H19+
237.1267	23	C17H17O+
237.164	28	C18H21+
239.1436	39	C17H19O+
241.159	66	C17H21O+
243.1752	26	C17H23O+
247.1469	18	C19H19+
249.1647	26	C19H21+
251.1799	53	C19H23+
253.1589	49	C18H21O+
265.1591	39	C19H21O+
265.1948	32	C20H25+
267.1741	53	C19H23O+
269.1901	61	C19H25O+
271.1693	30	C18H23O2+
281.1895	19	C20H25O+
293.1905	47	C21H25O+
311.201	39	C21H27O2+
329.211	53	C21H29O3+
