Mass spectrum: Ametryn; LC-ESI-QFT; MS2; CE: 30; R=17500; [M+H]+
Name: Ametryn
Name: 4-N-ethyl-6-methylsulfanyl-2-N-propan-2-yl-1,3,5-triazine-2,4-diamine
Formula: C9H17N5S
Exact mass: 227.1205
SMILES: CCNC1=NC(SC)=NC(NC(C)C)=N1
InChI: InChI=1S/C9H17N5S/c1-5-10-7-12-8(11-6(2)3)14-9(13-7)15-4/h6H,5H2,1-4H3,(H2,10,11,12,13,14)
Instrument: Q Exactive Orbitrap (Thermo Scientific)
Instrument type: LC-ESI-QFT
Ms type: MS2
Ion mode: POSITIVE
Ionization: ESI
Fragmentation mode: HCD
Collision energy: 30
Resolution: 17500
Column name: Acquity BEH C18 1.7um, 2.1x150mm (Waters)
Retention time: 15.455 min
Base peak: 79.0211
Precursor m/z: 228.1277
Precursor type: [M+H]+
Precursor intensity: 40693125.9375
m/z	relative intensity	assigned
68.0244	1	C2H2N3+
71.0602	2	C3H7N2+
91.0324	5	C2H7N2S+
96.0555	13	C4H6N3+
113.0821	1	C4H9N4+
116.0276	4	C3H6N3S+
138.0775	4	C5H8N5+
138.1025	16	C7H12N3+
144.059	4	C5H10N3S+
158.0494	3	C4H8N5S+
158.0745	1	C6H12N3S+
180.1243	2	C8H14N5+
186.0808	420	C6H12N5S+
200.0961	1	C7H14N5S+
213.1031	2	C8H15N5S+
228.1276	999	C9H18N5S+
