Mass spectrum: Venlafaxine; LC-ESI-QFT; MS2; CE: 75; R=17500; [M+H]+
Name: Venlafaxine
Name: 1-[2-(dimethylamino)-1-(4-methoxyphenyl)ethyl]cyclohexan-1-ol
Formula: C17H27NO2
Exact mass: 277.2042
SMILES: COC1=CC=C(C=C1)C(CN(C)C)C1(O)CCCCC1
InChI: InChI=1S/C17H27NO2/c1-18(2)13-16(17(19)11-5-4-6-12-17)14-7-9-15(20-3)10-8-14/h7-10,16,19H,4-6,11-13H2,1-3H3
Instrument: Q Exactive Orbitrap (Thermo Scientific)
Instrument type: LC-ESI-QFT
Ms type: MS2
Ion mode: POSITIVE
Ionization: ESI
Fragmentation mode: HCD
Collision energy: 75
Resolution: 17500
Column name: Acquity BEH C18 1.7um, 2.1x150mm (Waters)
Retention time: 13.882 min
Base peak: 79.0211
Precursor m/z: 278.2115
Precursor type: [M+H]+
Precursor intensity: 34429473
m/z	relative intensity	assigned
53.0386	3	C4H5+
55.0543	1	C4H7+
56.0496	5	C3H6N+
58.0652	999	C3H8N+
65.0387	2	C5H5+
67.0543	4	C5H7+
69.0699	6	C5H9+
77.0385	1	C6H5+
78.0463	3	C6H6+
79.0543	23	C6H7+
81.0699	20	C6H9+
91.0543	82	C7H7+
93.07	8	C7H9+
95.0492	7	C6H7O+
99.0802	1	C6H11O+
103.0543	1	C8H7+
105.0699	5	C8H9+
106.0414	2	C7H6O+
107.0492	8	C7H7O+
107.0855	3	C8H11+
109.0649	7	C7H9O+
115.0543	7	C9H7+
116.0621	1	C9H8+
117.0699	5	C9H9+
119.0495	1	C8H7O+
119.0856	5	C9H11+
121.0649	224	C8H9O+
128.062	3	C10H8+
129.0698	3	C10H9+
130.0777	1	C10H10+
131.0492	3	C9H7O+
132.057	12	C9H8O+
133.0649	1	C9H9O+
135.0805	11	C9H11O+
141.0699	3	C11H9+
144.0571	7	C10H8O+
145.0647	3	C10H9O+
146.0726	1	C10H10O+
147.0805	47	C10H11O+
148.0757	2	C9H10NO+
158.0727	15	C11H10O+
159.0805	13	C11H11O+
161.0962	1	C11H13O+
162.0914	5	C10H12NO+
163.0989	3	C10H13NO+
173.0963	13	C12H13O+
177.115	1	C11H15NO+
