Mass spectrum: Oxyphenisatin; LC-ESI-QFT; MS2; CE: 45; R=17500; [M+H]+
Name: Oxyphenisatin
Name: Oxyphenisatine
Name: 3,3-bis(4-hydroxyphenyl)-1H-indol-2-one
Formula: C20H15NO3
Exact mass: 317.1052
SMILES: OC1=CC=C(C=C1)C1(C(=O)NC2=CC=CC=C12)C1=CC=C(O)C=C1
InChI: InChI=1S/C20H15NO3/c22-15-9-5-13(6-10-15)20(14-7-11-16(23)12-8-14)17-3-1-2-4-18(17)21-19(20)24/h1-12,22-23H,(H,21,24)
Instrument: Q Exactive Orbitrap (Thermo Scientific)
Instrument type: LC-ESI-QFT
Ms type: MS2
Ion mode: POSITIVE
Ionization: ESI
Fragmentation mode: HCD
Collision energy: 45
Resolution: 17500
Column name: Acquity BEH C18 1.7um, 2.1x150mm (Waters)
Retention time: 15.339 min
Base peak: 79.0211
Precursor m/z: 318.1125
Precursor type: [M+H]+
Precursor intensity: 4404791.5625
m/z	relative intensity	assigned
141.0696	1	C11H9+
167.0732	1	C12H9N+
168.0808	7	C12H10N+
169.0648	1	C12H9O+
195.1045	2	C11H15O3+
196.0757	166	C13H10NO+
197.0597	21	C13H9O2+
207.0678	10	C14H9NO+
209.0836	4	C14H11NO+
223.0627	13	C14H9NO2+
224.0705	999	C14H10NO2+
290.117	1	C19H16NO2+
