Mass spectrum: tert-Butyl 4-hydroxybenzoate; LC-ESI-QFT; MS2; CE: 30; R=17500; [M-H]-
Name: tert-Butyl 4-hydroxybenzoate
Formula: C11H14O3
Exact mass: 194.0943
SMILES: CC(C)(C)OC(=O)C1=CC=C(O)C=C1
InChI: InChI=1S/C11H14O3/c1-11(2,3)14-10(13)8-4-6-9(12)7-5-8/h4-7,12H,1-3H3
Instrument: Q Exactive Orbitrap (Thermo Scientific)
Instrument type: LC-ESI-QFT
Ms type: MS2
Ion mode: NEGATIVE
Ionization: ESI
Fragmentation mode: HCD
Collision energy: 30
Resolution: 17500
Column name: Acquity BEH C18 1.7um, 2.1x150mm (Waters)
Retention time: 17.101 min
Base peak: 329.0853
Precursor m/z: 193.087
Precursor type: [M-H]-
Precursor intensity: 34064915.2627
m/z	relative intensity	assigned
92.0262	8	C6H4O-
93.0346	267	C6H5O-
95.0139	9	C5H3O2-
108.0216	6	C6H4O2-
136.0166	153	C7H4O3-
137.0244	999	C7H5O3-
149.0972	1	C10H13O-
193.0869	643	C11H13O3-
