Mass spectrum: CP-401387; LC-ESI-QFT; MS2; CE: 45; R=17500; [M-H]-
Name: CP-401387
Name: 4-cyano-4-(1-cyclohexyl-3-ethylindazol-6-yl)cyclohexane-1-carboxylic acid
Formula: C23H29N3O2
Exact mass: 379.2260
SMILES: CCC1=NN(C2CCCCC2)C2=C1C=CC(=C2)[C@]1(CC[C@@H](CC1)C(O)=O)C#N
InChI: InChI=1S/C23H29N3O2/c1-2-20-19-9-8-17(23(15-24)12-10-16(11-13-23)22(27)28)14-21(19)26(25-20)18-6-4-3-5-7-18/h8-9,14,16,18H,2-7,10-13H2,1H3,(H,27,28)/t16-,23-
Instrument: Q Exactive Orbitrap (Thermo Scientific)
Instrument type: LC-ESI-QFT
Ms type: MS2
Ion mode: NEGATIVE
Ionization: ESI
Fragmentation mode: HCD
Collision energy: 45
Resolution: 17500
Column name: Acquity BEH C18 1.7um, 2.1x150mm (Waters)
Retention time: 19.021 min
Base peak: 271.9888
Precursor m/z: 378.2187
Precursor type: [M-H]-
Precursor intensity: 3446175.130859
m/z	relative intensity	assigned
66.035	16	C4H4N-
68.0142	6	C3H2NO-
80.0506	176	C5H6N-
106.0661	17	C7H8N-
158.085	27	C10H10N2-
171.0929	44	C11H11N2-
183.0803	19	C11H9N3-
185.1082	15	C12H13N2-
190.0749	24	C10H10N2O2-
196.088	508	C12H10N3-
197.1085	37	C13H13N2-
198.1166	41	C13H14N2-
199.1241	631	C13H15N2-
204.0907	7	C11H12N2O2-
209.0952	9	C13H11N3-
210.1029	12	C13H12N3-
211.124	21	C14H15N2-
222.1036	36	C14H12N3-
223.1241	9	C15H15N2-
225.1397	327	C15H17N2-
241.1713	30	C16H21N2-
250.135	310	C16H16N3-
251.1427	203	C16H17N3-
252.1506	999	C16H18N3-
266.1663	67	C17H20N3-
279.1869	20	C19H23N2-
281.2022	31	C19H25N2-
283.133	38	C16H17N3O2-
332.2122	17	C22H26N3-
334.2289	556	C22H28N3-
378.2187	302	C23H28N3O2-
