Mass spectrum: SSR69071; LC-ESI-QFT; MS2; CE: 90; R=17500; [M+H]+
Name: SSR69071
Name: 6-methoxy-1,1-dioxo-2-[[4-oxo-9-(2-piperidin-1-ylethoxy)pyrido[1,2-a]pyrimidin-2-yl]oxymethyl]-4-propan-2-yl-1,2-benzothiazol-3-one
Formula: C27H32N4O7S
Exact mass: 556.1992
SMILES: COC1=CC2=C(C(=O)N(COC3=CC(=O)N4C=CC=C(OCCN5CCCCC5)C4=N3)S2(=O)=O)C(=C1)C(C)C
InChI: InChI=1S/C27H32N4O7S/c1-18(2)20-14-19(36-3)15-22-25(20)27(33)31(39(22,34)35)17-38-23-16-24(32)30-11-7-8-21(26(30)28-23)37-13-12-29-9-5-4-6-10-29/h7-8,11,14-16,18H,4-6,9-10,12-13,17H2,1-3H3
Instrument: Q Exactive Orbitrap (Thermo Scientific)
Instrument type: LC-ESI-QFT
Ms type: MS2
Ion mode: POSITIVE
Ionization: ESI
Fragmentation mode: HCD
Collision energy: 90
Resolution: 17500
Column name: Acquity BEH C18 1.7um, 2.1x150mm (Waters)
Retention time: 15.597 min
Base peak: 79.0211
Precursor m/z: 557.2064
Precursor type: [M+H]+
Precursor intensity: 3609732.375
m/z	relative intensity	assigned
53.0022	28	C3HO+
53.0386	6	C4H5+
53.9975	4	C2NO+
55.0543	101	C4H7+
56.0495	226	C3H6N+
58.0651	76	C3H8N+
66.0463	3	C5H6+
67.0542	20	C5H7+
68.0494	2	C4H6N+
69.0699	248	C5H9+
70.0651	14	C4H8N+
74.0965	3	C4H12N+
78.0465	10	C6H6+
79.0542	21	C6H7+
81.0699	2	C6H9+
82.0651	10	C5H8N+
83.073	3	C5H9N+
83.0856	5	C6H11+
84.0808	146	C5H10N+
89.0385	7	C7H5+
91.0543	73	C7H7+
95.0491	11	C6H7O+
95.0854	1	C7H11+
97.0887	7	C6H11N+
103.0543	27	C8H7+
104.062	19	C8H8+
105.0699	97	C8H9+
106.0413	7	C7H6O+
107.0492	7	C7H7O+
108.0571	6	C7H8O+
109.065	5	C7H9O+
110.0965	33	C7H12N+
112.1121	999	C7H14N+
115.0542	64	C9H7+
116.0621	14	C9H8+
117.0335	13	C8H5O+
117.0699	27	C9H9+
118.0414	33	C8H6O+
118.0651	14	C8H8N+
119.0491	11	C8H7O+
119.0857	3	C9H11+
120.0571	10	C8H8O+
121.0107	4	C7H5S+
121.0396	8	C6H5N2O+
121.0648	8	C8H9O+
122.0184	9	C7H6S+
128.0621	4	C10H8+
129.0699	1	C10H9+
130.0652	5	C9H8N+
131.0493	13	C9H7O+
132.0447	4	C8H6NO+
132.057	30	C9H8O+
132.0808	16	C9H10N+
133.0648	98	C9H9O+
134.0187	6	C8H6S+
134.0728	3	C9H10O+
135.0553	3	C7H7N2O+
138.0135	5	C7H6OS+
143.0495	2	C10H7O+
144.0571	14	C10H8O+
144.0807	9	C10H10N+
145.065	5	C10H9O+
145.0885	3	C10H11N+
146.0601	38	C9H8NO+
147.0441	9	C9H7O2+
147.0677	2	C9H9NO+
147.0805	18	C10H11O+
149.0709	10	C8H9N2O+
150.0137	8	C8H6OS+
151.0213	3	C8H7OS+
151.0755	18	C9H11O2+
152.0294	3	C8H8OS+
153.037	5	C8H9OS+
159.0808	2	C11H11O+
160.0518	2	C10H8O2+
160.0757	16	C10H10NO+
161.0598	72	C10H9O2+
161.0836	9	C10H11NO+
162.0677	3	C10H10O2+
165.0373	8	C9H9OS+
166.0262	2	C8H6O4+
174.0551	5	C10H8NO2+
175.0755	28	C11H11O2+
177.0368	2	C10H9OS+
178.05	2	C9H8NO3+
221.0685	5	C11H11NO4+
