Mass spectrum: 2,4-Dinitrophenol; LC-ESI-QFT; MS2; CE: 45; R=17500; [M-H]-
Name: 2,4-Dinitrophenol
Formula: C6H4N2O5
Exact mass: 184.0120
SMILES: OC1=C(C=C(C=C1)[N+]([O-])=O)[N+]([O-])=O
InChI: InChI=1S/C6H4N2O5/c9-6-2-1-4(7(10)11)3-5(6)8(12)13/h1-3,9H
Instrument: Q Exactive Orbitrap (Thermo Scientific)
Instrument type: LC-ESI-QFT
Ms type: MS2
Ion mode: NEGATIVE
Ionization: ESI
Fragmentation mode: HCD
Collision energy: 45
Resolution: 17500
Column name: Acquity BEH C18 1.7um, 2.1x150mm (Waters)
Retention time: 14.528 min
Base peak: 183.0047
Precursor m/z: 183.0047
Precursor type: [M-H]-
Precursor intensity: 37887445.08105
m/z	relative intensity	assigned
55.0189	3	C3H3O-
64.0193	9	C4H2N-
65.0032	3	C4HO-
65.9985	4	C3NO-
66.0111	4	C4H2O-
67.0189	39	C4H3O-
68.0142	11	C3H2NO-
68.9982	15	C3HO2-
72.9931	2	C2HO3-
79.0189	16	C5H3O-
83.0013	1	C3HNO2-
83.0138	2	C4H3O2-
92.0141	1	C5H2NO-
92.9983	2	C5HO2-
95.0139	217	C5H3O2-
96.0092	1	C4H2NO2-
107.0138	1	C6H3O2-
108.009	7	C5H2NO2-
109.0168	24	C5H3NO2-
120.0091	4	C6H2NO2-
123.0088	604	C6H3O3-
125.0118	33	C5H3NO3-
136.0038	2	C6H2NO3-
137.0118	43	C6H3NO3-
139.9989	1	C5H2NO4-
153.0067	509	C6H3NO4-
183.0047	999	C6H3N2O5-
