Mass spectrum: Oxadixyl; LC-ESI-QFT; MS2; CE: 30; R=17500; [M+H]+
Name: Oxadixyl
Name: N-(2,6-dimethylphenyl)-2-methoxy-N-(2-oxo-1,3-oxazolidin-3-yl)acetamide
Formula: C14H18N2O4
Exact mass: 278.1267
SMILES: COCC(=O)N(N1CCOC1=O)C1=C(C)C=CC=C1C
InChI: InChI=1S/C14H18N2O4/c1-10-5-4-6-11(2)13(10)16(12(17)9-19-3)15-7-8-20-14(15)18/h4-6H,7-9H2,1-3H3
Instrument: Q Exactive Orbitrap (Thermo Scientific)
Instrument type: LC-ESI-QFT
Ms type: MS2
Ion mode: POSITIVE
Ionization: ESI
Fragmentation mode: HCD
Collision energy: 30
Resolution: 17500
Column name: Acquity BEH C18 1.7um, 2.1x150mm (Waters)
Retention time: 14.470 min
Base peak: 79.0211
Precursor m/z: 279.1339
Precursor type: [M+H]+
Precursor intensity: 1312309.875
m/z	relative intensity	assigned
88.0393	77	C3H6NO2+
102.055	235	C4H8NO2+
119.0857	136	C9H11+
132.0808	370	C9H10N+
133.0886	566	C9H11N+
134.0601	132	C8H8NO+
149.0235	131	C8H5O3+
160.0179	185	C12H2N+
219.113	999	C12H15N2O2+
