Mass spectrum: Etoxazole; LC-ESI-QFT; MS2; CE: 90; R=17500; [M+H]+
Name: Etoxazole
Name: 4-(4-tert-butyl-2-ethoxyphenyl)-2-(2,6-difluorophenyl)-4,5-dihydro-1,3-oxazole
Formula: C21H23F2NO2
Exact mass: 359.1697
SMILES: CCOC1=C(C=CC(=C1)C(C)(C)C)C1COC(=N1)C1=C(F)C=CC=C1F
InChI: InChI=1S/C21H23F2NO2/c1-5-25-18-11-13(21(2,3)4)9-10-14(18)17-12-26-20(24-17)19-15(22)7-6-8-16(19)23/h6-11,17H,5,12H2,1-4H3
Instrument: Q Exactive Orbitrap (Thermo Scientific)
Instrument type: LC-ESI-QFT
Ms type: MS2
Ion mode: POSITIVE
Ionization: ESI
Fragmentation mode: HCD
Collision energy: 90
Resolution: 17500
Column name: Acquity BEH C18 1.7um, 2.1x150mm (Waters)
Retention time: 19.911 min
Base peak: 79.0212
Precursor m/z: 360.177
Precursor type: [M+H]+
Precursor intensity: 114765326.2344
m/z	relative intensity	assigned
53.0022	8	C3HO+
53.9974	1	C2NO+
56.0495	2	C3H6N+
57.0699	87	C4H9+
62.0151	5	C5H2+
63.0229	137	C5H3+
65.0385	3	C5H5+
67.9892	1	C3O2+
69.0134	6	C4H2F+
73.0084	2	C3H2FO+
79.0543	2	C6H7+
83.0291	8	C5H4F+
89.0197	10	C4H3F2+
91.0542	82	C7H7+
93.0135	9	C6H2F+
95.0491	2	C6H7O+
97.0084	12	C5H2FO+
100.0182	3	C7H2N+
103.0542	3	C8H7+
105.0699	3	C8H9+
106.0651	1	C7H8N+
107.0491	3	C7H7O+
109.0284	5	C6H5O2+
111.0241	48	C6H4FO+
113.0197	68	C6H3F2+
115.0544	2	C9H7+
116.0495	1	C8H6N+
117.0146	2	C5H3F2O+
117.0699	6	C9H9+
119.0491	4	C8H7O+
119.0855	3	C9H11+
121.0647	2	C8H9O+
127.0353	4	C7H5F2+
128.062	3	C10H8+
129.0346	3	C6H6FO2+
129.0699	8	C10H9+
130.0227	2	C6H4F2O+
131.0303	55	C6H5F2O+
131.0491	12	C9H7O+
131.0855	7	C10H11+
132.0569	1	C9H8O+
133.0649	3	C9H9O+
134.06	1	C8H8NO+
138.035	1	C7H5FNO+
140.0308	6	C7H4F2N+
141.0152	999	C7H3F2O+
142.0229	3	C7H4F2O+
143.05	1	C7H8FO2+
144.0933	1	C11H12+
145.0645	2	C10H9O+
147.0804	8	C10H11O+
148.0305	7	C12H4+
148.0881	1	C10H12O+
158.0408	1	C7H6F2NO+
159.0805	9	C11H11O+
160.0758	2	C10H10NO+
161.0958	1	C11H13O+
162.104	1	C11H14O+
173.0963	3	C12H13O+
183.0602	1	C13H8F+
