Mass spectrum: CP-471358; LC-ESI-QFT; MS2; CE: 60; R=17500; [M+H]+
Name: CP-471358
Name: 3-[[4-(4-fluorophenoxy)phenyl]sulfonyl-[1-(hydroxycarbamoyl)cyclopentyl]amino]propanoic acid
Formula: C21H23FN2O7S
Exact mass: 466.1210
SMILES: ONC(=O)C1(CCCC1)N(CCC(O)=O)S(=O)(=O)C1=CC=C(OC2=CC=C(F)C=C2)C=C1
InChI: InChI=1S/C21H23FN2O7S/c22-15-3-5-16(6-4-15)31-17-7-9-18(10-8-17)32(29,30)24(14-11-19(25)26)21(20(27)23-28)12-1-2-13-21/h3-10,28H,1-2,11-14H2,(H,23,27)(H,25,26)
Instrument: Q Exactive Orbitrap (Thermo Scientific)
Instrument type: LC-ESI-QFT
Ms type: MS2
Ion mode: POSITIVE
Ionization: ESI
Fragmentation mode: HCD
Collision energy: 60
Resolution: 17500
Column name: Acquity BEH C18 1.7um, 2.1x150mm (Waters)
Retention time: 16.757 min
Base peak: 79.0212
Precursor m/z: 467.1283
Precursor type: [M+H]+
Precursor intensity: 1626054.875
m/z	relative intensity	assigned
65.0385	243	C5H5+
67.0543	233	C5H7+
96.0807	999	C6H10N+
156.1022	290	C8H14NO2+
159.0606	664	C11H8F+
