Mass spectrum: Buturon; LC-ESI-QFT; MS2; CE: 30; R=17500; [M-H]-
Name: Buturon
Name: 1-but-3-yn-2-yl-3-(4-chlorophenyl)-1-methylurea
Formula: C12H13ClN2O
Exact mass: 236.0716
SMILES: CC(C#C)N(C)C(=O)NC1=CC=C(Cl)C=C1
InChI: InChI=1S/C12H13ClN2O/c1-4-9(2)15(3)12(16)14-11-7-5-10(13)6-8-11/h1,5-9H,2-3H3,(H,14,16)
Instrument: Q Exactive Orbitrap (Thermo Scientific)
Instrument type: LC-ESI-QFT
Ms type: MS2
Ion mode: NEGATIVE
Ionization: ESI
Fragmentation mode: HCD
Collision energy: 30
Resolution: 17500
Column name: Acquity BEH C18 1.7um, 2.1x150mm (Waters)
Retention time: 16.550 min
Base peak: 112.9856
Precursor m/z: 235.0644
Precursor type: [M-H]-
Precursor intensity: 780254.8432617
m/z	relative intensity	assigned
82.0662	110	C5H8N-
96.0455	92	C5H6NO-
108.0455	35	C6H6NO-
123.0565	18	C6H7N2O-
126.0116	999	C6H5ClN-
137.0165	18	C8H6Cl-
151.991	21	C7H3ClNO-
153.0224	29	C7H6ClN2-
166.0428	75	C9H9ClN-
178.0427	19	C10H9ClN-
194.0377	19	C10H9ClNO-
220.0411	37	C11H9ClN2O-
235.0643	197	C12H12ClN2O-
