Mass spectrum: PharmaGSID_48507; LC-ESI-QFT; MS2; CE: 75; R=17500; [M+H]+
Name: PharmaGSID_48507
Name: 5-(2,4-Difluorophenoxy)-2-[(2-hydroxy-2-methylpropyl)amino]-8-methylpyrido[2,3-d]pyrimidin-7(8H)-one
Formula: C18H18F2N4O3
Exact mass: 376.1347
SMILES: CN1C(=O)C=C(OC2=C(F)C=C(F)C=C2)C2=C1N=C(NCC(C)(C)O)N=C2
InChI: InChI=1S/C18H18F2N4O3/c1-18(2,26)9-22-17-21-8-11-14(7-15(25)24(3)16(11)23-17)27-13-5-4-10(19)6-12(13)20/h4-8,26H,9H2,1-3H3,(H,21,22,23)
Instrument: Q Exactive Orbitrap (Thermo Scientific)
Instrument type: LC-ESI-QFT
Ms type: MS2
Ion mode: POSITIVE
Ionization: ESI
Fragmentation mode: HCD
Collision energy: 75
Resolution: 17500
Column name: Acquity BEH C18 1.7um, 2.1x150mm (Waters)
Retention time: 16.626 min
Base peak: 79.0211
Precursor m/z: 377.142
Precursor type: [M+H]+
Precursor intensity: 21952006.25
m/z	relative intensity	assigned
53.0023	6	C3HO+
53.0386	21	C4H5+
54.0338	2	C3H4N+
55.0542	245	C4H7+
56.0495	4	C3H6N+
57.0447	3	C2H5N2+
66.0338	7	C4H4N+
67.029	1	C3H3N2+
68.0496	1	C4H6N+
70.0651	2	C4H8N+
71.0729	1	C4H9N+
79.0291	5	C4H3N2+
80.0132	1	C4H2NO+
80.0369	12	C4H4N2+
81.0446	5	C4H5N2+
91.0291	1	C5H3N2+
92.037	3	C5H4N2+
93.0209	2	C5H3NO+
93.0447	5	C5H5N2+
94.0527	2	C5H6N2+
95.0478	41	C4H5N3+
95.0603	9	C5H7N2+
96.037	4	C6H5F+
96.0445	1	C5H6NO+
96.0556	3	C4H6N3+
97.0449	2	C6H6F+
101.0195	1	C5H3F2+
104.0369	3	C6H4N2+
105.0448	7	C6H5N2+
106.04	9	C5H4N3+
106.0526	5	C6H6N2+
107.0242	4	C5H3N2O+
107.0476	10	C5H5N3+
107.0605	2	C6H7N2+
108.0556	10	C5H6N3+
109.0398	4	C5H5N2O+
109.0635	6	C5H7N3+
110.0275	1	C5H3FN2+
111.0355	1	C5H4FN2+
114.0274	2	C6H4F2+
119.0245	1	C6H3N2O+
119.0479	14	C6H5N3+
119.06	1	C7H7N2+
120.0557	20	C6H6N3+
121.0398	3	C6H5N2O+
121.0509	2	C5H5N4+
121.0634	5	C6H7N3+
122.0349	10	C5H4N3O+
122.0587	3	C5H6N4+
123.0356	3	C6H4FN2+
123.0429	1	C5H5N3O+
123.0665	2	C5H7N4+
124.0432	3	C6H5FN2+
124.0507	4	C5H6N3O+
124.0745	9	C5H8N4+
125.0397	13	C7H6FO+
127.0352	60	C7H5F2+
127.0538	11	C5H6FN3+
129.0146	3	C6H3F2O+
130.0398	2	C7H4N3+
131.0302	2	C6H5F2O+
131.0479	14	C7H5N3+
131.0606	1	C8H7N2+
132.0432	2	C6H4N4+
132.0555	16	C7H6N3+
133.0512	1	C6H5N4+
133.0637	6	C7H7N3+
133.0763	3	C8H9N2+
134.0352	3	C6H4N3O+
134.0473	1	C7H6N2O+
134.0587	24	C6H6N4+
134.0714	3	C7H8N3+
135.0666	78	C6H7N4+
136.0434	10	C7H5FN2+
136.0505	65	C6H6N3O+
137.051	51	C7H6FN2+
139.0369	1	C8H5F2+
140.0309	1	C7H4F2N+
141.0147	272	C7H3F2O+
141.0257	17	C6H3F2N2+
145.051	3	C7H5N4+
145.0637	2	C8H7N3+
145.0763	2	C9H9N2+
146.0348	3	C7H4N3O+
146.0588	15	C7H6N4+
146.0713	25	C8H8N3+
147.0666	302	C7H7N4+
148.0506	13	C7H6N3O+
148.0744	45	C7H8N4+
148.0869	4	C8H10N3+
149.0459	42	C6H5N4O+
149.0585	4	C7H7N3O+
150.0532	2	C6H6N4O+
150.0663	1	C7H8N3O+
151.0539	16	C7H6FN3+
152.0493	82	C6H5FN4+
153.0331	8	C6H4FN3O+
155.0488	11	C6H6FN3O+
157.0635	3	C9H7N3+
158.0591	2	C8H6N4+
158.0716	5	C9H8N3+
159.0666	35	C8H7N4+
160.0502	2	C8H6N3O+
160.087	28	C9H10N3+
161.0824	5	C8H9N4+
161.0947	2	C9H11N3+
162.0538	2	C7H6N4O+
162.0662	7	C8H8N3O+
162.1029	2	C9H12N3+
163.0614	999	C7H7N4O+
164.0692	78	C7H8N4O+
165.057	4	C7H6FN4+
166.0411	9	C7H5FN3O+
166.0653	24	C12H8N+
167.0302	4	C9H5F2O+
167.0365	3	C11H5NO+
169.0632	2	C10H7N3+
170.0714	8	C10H8N3+
171.0665	23	C9H7N4+
172.0745	11	C9H8N4+
172.0866	6	C10H10N3+
173.082	17	C9H9N4+
174.0901	5	C9H10N4+
175.0614	13	C8H7N4O+
175.0975	2	C9H11N4+
176.0305	2	C10H4F2N+
176.0694	28	C8H8N4O+
176.082	3	C9H10N3O+
177.0403	3	C7H5N4O2+
177.0899	2	C9H11N3O+
178.0487	12	C7H6N4O2+
178.065	68	C8H7FN4+
180.0442	126	C7H5FN4O+
181.052	42	C7H6FN4O+
184.0871	15	C11H10N3+
185.082	11	C10H9N4+
186.0901	4	C10H10N4+
187.0977	25	C10H11N4+
188.0693	17	C9H8N4O+
189.0769	6	C9H9N4O+
189.1136	21	C10H13N4+
190.098	2	C10H12N3O+
191.0416	5	C10H5F2N2+
191.0563	40	C8H7N4O2+
192.0255	5	C10H4F2NO+
192.0638	7	C8H8N4O2+
195.032	2	C4H5F2N4O3+
196.0392	3	C12H6NO2+
198.0901	8	C11H10N4+
200.0694	10	C10H8N4O+
200.0818	5	C11H10N3O+
201.0773	6	C10H9N4O+
201.0898	4	C11H11N3O+
201.1136	42	C11H13N4+
202.085	19	C10H10N4O+
202.1211	2	C11H14N4+
203.0928	5	C10H11N4O+
205.0337	1	C11H5F2NO+
205.0576	1	C11H7F2N2+
205.0723	1	C9H9N4O2+
210.0548	29	C8H7FN4O2+
213.1135	18	C12H13N4+
214.0849	6	C11H10N4O+
215.0928	107	C11H11N4O+
217.0445	3	C11H5F2N3+
217.1086	7	C11H13N4O+
218.1161	9	C11H14N4O+
219.0364	14	C11H5F2N2O+
229.0884	13	C12H10FN4+
229.1078	7	C12H13N4O+
231.0366	2	C12H5F2N2O+
231.0882	6	C11H11N4O2+
232.0208	1	C12H4F2NO2+
233.0638	2	C16H8FN+
234.0361	3	C12H6F2NO2+
236.0523	2	C12H8F2NO2+
245.0395	8	C12H5F2N3O+
245.0635	2	C17H8FN+
246.0475	4	C17H7FO+
247.0317	7	C12H5F2N2O2+
247.0791	8	C12H9F2N4+
248.0636	2	C17H9FO+
252.0466	1	C12H8F2NO3+
255.0673	12	C13H8FN4O+
256.0754	4	C13H9FN4O+
257.0831	4	C13H10FN4O+
260.0863	2	C13H10F2N4+
261.0468	3	C13H7F2N2O2+
270.0547	23	C13H7FN4O2+
272.0501	6	C13H6F2N4O+
273.0347	8	C18H6FO2+
273.0582	37	C13H7F2N4O+
275.0738	112	C13H9F2N4O+
276.0807	2	C16H9FN4+
277.0895	17	C13H11F2N4O+
283.0629	4	C14H8FN4O2+
284.0703	8	C14H9FN4O2+
285.0782	315	C14H10FN4O2+
286.0424	14	C14H6F2N3O2+
287.0738	96	C14H9F2N4O+
288.0451	70	C13H6F2N4O2+
288.0589	25	C16H10F2O3+
289.053	25	C13H7F2N4O2+
289.0893	10	C14H11F2N4O+
290.0591	6	C16H7FN4O+
301.0894	16	C15H11F2N4O+
303.0688	624	C14H9F2N4O2+
304.0764	14	C14H10F2N4O2+
305.0844	63	C14H11F2N4O2+
306.0685	3	C14H10F2N3O3+
315.0691	1	C15H9F2N4O2+
316.0596	2	C17H8N4O3+
317.0844	29	C15H11F2N4O2+
326.0742	2	C17H10F2N3O2+
327.0812	3	C17H11F2N3O2+
329.0845	76	C16H11F2N4O2+
331.1012	2	C18H15F2NO3+
343.1002	18	C17H13F2N4O2+
