Mass spectrum: 4,4`-Sulfonylbis[2-(prop-2-en-1-yl)phenol]; LC-ESI-QFT; MS2; CE: 60; R=17500; [M-H]-
Name: 4,4'-Sulfonylbis[2-(prop-2-en-1-yl)phenol]
Name: Phenol, 4,4'-sulfonylbis[2-(2-propenyl)-
Name: 4-(4-hydroxy-3-prop-2-enylphenyl)sulfonyl-2-prop-2-enylphenol
Formula: C18H18O4S
Exact mass: 330.0926
SMILES: OC1=C(CC=C)C=C(C=C1)S(=O)(=O)C1=CC(CC=C)=C(O)C=C1
InChI: InChI=1S/C18H18O4S/c1-3-5-13-11-15(7-9-17(13)19)23(21,22)16-8-10-18(20)14(12-16)6-4-2/h3-4,7-12,19-20H,1-2,5-6H2
Instrument: Q Exactive Orbitrap (Thermo Scientific)
Instrument type: LC-ESI-QFT
Ms type: MS2
Ion mode: NEGATIVE
Ionization: ESI
Fragmentation mode: HCD
Collision energy: 60
Resolution: 17500
Column name: Acquity BEH C18 1.7um, 2.1x150mm (Waters)
Retention time: 17.057 min
Base peak: 329.0853
Precursor m/z: 329.0853
Precursor type: [M-H]-
Precursor intensity: 47583615.57227
m/z	relative intensity	assigned
63.9624	41	O2S-
68.9982	10	C3HO2-
79.9574	16	O3S-
79.9904	1	C4O2-
80.9983	2	C4HO2-
81.0346	25	C5H5O-
82.0063	1	C4H2O2-
91.0191	2	C6H3O-
91.0553	2	C7H7-
93.0346	35	C6H5O-
94.0424	10	C6H6O-
95.0139	54	C5H3O2-
98.001	14	C4H2O3-
103.0554	2	C8H7-
105.0345	4	C7H5O-
107.0503	12	C7H7O-
108.0217	16	C6H4O2-
109.0295	13	C6H5O2-
110.0371	3	C6H6O2-
117.0346	18	C8H5O-
118.0423	1	C8H6O-
119.0501	12	C8H7O-
121.0295	111	C7H5O2-
122.0374	5	C7H6O2-
123.0087	44	C6H3O3-
130.0425	5	C9H6O-
131.0503	28	C9H7O-
132.0581	179	C9H8O-
133.0295	12	C8H5O2-
133.0659	111	C9H9O-
134.0373	34	C8H6O2-
135.0451	639	C8H7O2-
137.0244	8	C7H5O3-
138.0321	5	C7H6O3-
145.0295	10	C9H5O2-
146.0374	4	C9H6O2-
147.0452	26	C9H7O2-
148.053	999	C9H8O2-
149.0243	34	C8H5O3-
149.0606	7	C9H9O2-
150.0689	1	C9H10O2-
153.0013	1	C7H5O2S-
155.9888	1	C6H4O3S-
156.996	1	C6H5O3S-
157.066	1	C11H9O-
163.0401	66	C9H7O3-
164.0302	1	C9H8OS-
165.0015	1	C8H5O2S-
166.0094	6	C8H6O2S-
168.9965	2	C7H5O3S-
176.048	2	C10H8O3-
179.017	1	C9H7O2S-
180.025	7	C9H8O2S-
180.0587	1	C13H8O-
180.9962	4	C8H5O3S-
182.0044	3	C8H6O3S-
183.0118	1	C8H7O3S-
183.0811	1	C13H11O-
193.0662	1	C14H9O-
195.012	2	C9H7O3S-
195.0453	2	C13H7O2-
195.0812	1	C14H11O-
196.0199	9	C9H8O3S-
197.0278	31	C9H9O3S-
206.0736	1	C15H10O-
207.0815	2	C15H11O-
208.0525	1	C14H8O2-
209.0607	12	C14H9O2-
209.097	3	C15H13O-
221.0607	3	C15H9O2-
221.0966	1	C16H13O-
222.1054	1	C16H14O-
223.0765	5	C15H11O2-
224.0839	5	C15H12O2-
233.0974	1	C17H13O-
234.0692	1	C16H10O2-
235.0764	101	C16H11O2-
237.0919	13	C16H13O2-
249.092	39	C17H13O2-
250.0998	22	C17H14O2-
263.1079	2	C18H15O2-
264.1157	2	C18H16O2-
265.1232	2	C18H17O2-
273.0228	23	C14H9O4S-
273.0593	1	C15H13O3S-
287.0384	6	C15H11O4S-
299.0382	114	C16H11O4S-
313.0541	26	C17H13O4S-
329.0852	42	C18H17O4S-
