Mass spectrum: AVE9423; LC-ESI-QFT; MS2; CE: 60; R=17500; [M-H]-
Name: AVE9423
Name: 1-(2-carboxyphenyl)-7-chloro-6-(2-chloro-4,6-difluoroanilino)-4-oxoquinoline-3-carboxylic acid
Formula: C23H12Cl2F2N2O5
Exact mass: 504.0091
SMILES: OC(=O)C1=CC=CC=C1N1C=C(C(O)=O)C(=O)C2=C1C=C(Cl)C(NC1=C(F)C=C(F)C=C1Cl)=C2
InChI: InChI=1S/C23H12Cl2F2N2O5/c24-14-8-19-12(7-17(14)28-20-15(25)5-10(26)6-16(20)27)21(30)13(23(33)34)9-29(19)18-4-2-1-3-11(18)22(31)32/h1-9,28H,(H,31,32)(H,33,34)
Instrument: Q Exactive Orbitrap (Thermo Scientific)
Instrument type: LC-ESI-QFT
Ms type: MS2
Ion mode: NEGATIVE
Ionization: ESI
Fragmentation mode: HCD
Collision energy: 60
Resolution: 17500
Column name: Acquity BEH C18 1.7um, 2.1x150mm (Waters)
Retention time: 17.443 min
Base peak: 112.9857
Precursor m/z: 503.0019
Precursor type: [M-H]-
Precursor intensity: 1130680.054687
m/z	relative intensity	assigned
146.9819	109	C6H2ClF2-
156.0326	96	C9H4N2O-
247.0318	97	C17H8Cl-
274.0118	285	C14H5ClF2N2-
275.0624	188	C17H8FN2O-
288.0512	128	C18H6F2N2-
289.0589	263	C18H7F2N2-
294.0599	174	C20H7FN2-
295.0671	310	C20H8FN2-
302.0068	515	C17H9Cl2F-
303.0567	270	C21H7N2O-
305.0289	477	C18H7ClFN2-
306.0367	76	C18H8ClFN2-
314.0656	389	C20H8F2N2-
315.0741	202	C20H9F2N2-
317.9771	308	C18F2O4-
323.0627	999	C21H8FN2O-
331.0444	381	C20H9ClFN2-
342.0607	185	C21H8F2N2O-
343.0691	436	C21H9F2N2O-
359.0391	559	C21H9ClFN2O-
377.0299	443	C21H8ClF2N2O-
