Mass spectrum: Hydroxyprogesterone caproate; LC-ESI-QFT; MS2; CE: 90; R=17500; [M+H]+
Name: Hydroxyprogesterone caproate
Name: [(8R,9S,10R,13S,14S,17R)-17-acetyl-10,13-dimethyl-3-oxo-2,6,7,8,9,11,12,14,15,16-decahydro-1H-cyclopenta[a]phenanthren-17-yl] hexanoate
Formula: C27H40O4
Exact mass: 428.2927
SMILES: CCCCCC(=O)O[C@@]1(CC[C@H]2[C@@H]3CCC4=CC(=O)CC[C@]4(C)[C@H]3CC[C@]12C)C(C)=O
InChI: InChI=1S/C27H40O4/c1-5-6-7-8-24(30)31-27(18(2)28)16-13-23-21-10-9-19-17-20(29)11-14-25(19,3)22(21)12-15-26(23,27)4/h17,21-23H,5-16H2,1-4H3/t21-,22+,23+,25+,26+,27+/m1/s1
Instrument: Q Exactive Orbitrap (Thermo Scientific)
Instrument type: LC-ESI-QFT
Ms type: MS2
Ion mode: POSITIVE
Ionization: ESI
Fragmentation mode: HCD
Collision energy: 90
Resolution: 17500
Column name: Acquity BEH C18 1.7um, 2.1x150mm (Waters)
Retention time: 19.791 min
Base peak: 79.0211
Precursor m/z: 429.2999
Precursor type: [M+H]+
Precursor intensity: 3354126.25
m/z	relative intensity	assigned
53.0022	71	C3HO+
53.0386	128	C4H5+
55.0179	116	C3H3O+
55.0542	201	C4H7+
57.0335	18	C3H5O+
57.07	12	C4H9+
59.0491	21	C3H7O+
65.0386	78	C5H5+
67.0542	354	C5H7+
69.0334	32	C4H5O+
69.0699	132	C5H9+
71.0855	30	C5H11+
77.0385	18	C6H5+
79.0542	817	C6H7+
81.0699	542	C6H9+
83.0492	189	C5H7O+
91.0543	726	C7H7+
93.0699	264	C7H9+
94.0413	23	C6H6O+
95.0492	205	C6H7O+
95.0856	191	C7H11+
97.0648	999	C6H9O+
103.0541	56	C8H7+
105.0699	701	C8H9+
107.0492	53	C7H7O+
107.0855	72	C8H11+
108.0572	19	C7H8O+
109.0649	633	C7H9O+
111.0805	23	C7H11O+
115.0543	99	C9H7+
116.0621	51	C9H8+
117.0699	204	C9H9+
119.0856	275	C9H11+
121.0649	81	C8H9O+
121.1012	17	C9H13+
123.0804	156	C8H11O+
128.0621	196	C10H8+
129.0699	227	C10H9+
130.0778	91	C10H10+
131.0856	214	C10H11+
133.0649	17	C9H9O+
133.1012	66	C10H13+
141.0698	127	C11H9+
142.0777	133	C11H10+
143.0856	166	C11H11+
144.0934	36	C11H12+
145.1012	161	C11H13+
147.0804	13	C10H11O+
147.117	71	C11H15+
148.0885	17	C10H12O+
149.0961	13	C10H13O+
153.0699	65	C12H9+
154.0778	53	C12H10+
155.0857	144	C12H11+
156.0935	54	C12H12+
157.1012	63	C12H13+
158.1092	10	C12H14+
159.117	35	C12H15+
163.1117	10	C11H15O+
165.0699	59	C13H9+
166.078	30	C13H10+
167.0854	77	C13H11+
168.0935	26	C13H12+
169.1012	91	C13H13+
170.1095	12	C13H14+
171.1171	41	C13H15+
173.1328	8	C13H17+
179.0856	35	C14H11+
180.0937	14	C14H12+
181.1015	52	C14H13+
182.1091	19	C14H14+
183.1171	35	C14H15+
185.1327	27	C14H17+
192.0929	11	C15H12+
193.1017	17	C15H13+
194.1096	9	C15H14+
195.1171	25	C15H15+
196.1247	12	C15H16+
197.1328	21	C15H17+
205.102	9	C16H13+
207.1171	12	C16H15+
223.1479	12	C17H19+
237.1641	18	C18H21+
