Mass spectrum: Candoxatril; LC-ESI-QFT; MS2; CE: 45; R=17500; [M+H]+
Name: Candoxatril
Formula: C29H41NO7
Exact mass: 515.2883
SMILES: COCCOC[C@H](CC1(CCCC1)C(=O)N[C@H]1CC[C@H](CC1)C(O)=O)C(=O)OC1=CC2=C(CCC2)C=C1
InChI: InChI=1S/C29H41NO7/c1-35-15-16-36-19-23(27(33)37-25-12-9-20-5-4-6-22(20)17-25)18-29(13-2-3-14-29)28(34)30-24-10-7-21(8-11-24)26(31)32/h9,12,17,21,23-24H,2-8,10-11,13-16,18-19H2,1H3,(H,30,34)(H,31,32)/t21-,23-,24+/m0/s1
Instrument: Q Exactive Orbitrap (Thermo Scientific)
Instrument type: LC-ESI-QFT
Ms type: MS2
Ion mode: POSITIVE
Ionization: ESI
Fragmentation mode: HCD
Collision energy: 45
Resolution: 17500
Column name: Acquity BEH C18 1.7um, 2.1x150mm (Waters)
Retention time: 18.625 min
Base peak: 79.0211
Precursor m/z: 516.2956
Precursor type: [M+H]+
Precursor intensity: 7922207
m/z	relative intensity	assigned
55.0179	6	C3H3O+
55.0542	2	C4H7+
57.0335	4	C3H5O+
59.0491	124	C3H7O+
67.0542	24	C5H7+
69.0335	40	C4H5O+
79.0542	311	C6H7+
81.0699	352	C6H9+
83.0855	8	C6H11+
86.0601	6	C4H8NO+
91.0542	26	C7H7+
93.0699	216	C7H9+
95.049	3	C6H7O+
96.081	3	C6H10N+
105.0699	17	C8H9+
107.0855	786	C8H11+
109.0649	57	C7H9O+
109.1012	29	C8H13+
115.0543	8	C9H7+
117.0699	366	C9H9+
119.0862	2	C9H11+
123.0802	3	C8H11O+
126.0914	719	C7H12NO+
127.0753	31	C7H11O2+
134.0964	83	C9H12N+
135.0804	999	C9H11O+
138.0914	11	C8H12NO+
144.1019	36	C7H14NO2+
145.0651	4	C10H9O+
147.0804	23	C10H11O+
152.107	371	C9H14NO+
153.091	27	C9H13O2+
156.102	3	C8H14NO2+
159.0803	5	C11H11O+
161.0596	12	C10H9O2+
162.0914	38	C10H12NO+
163.0754	26	C10H11O2+
167.1062	3	C10H15O2+
179.1067	15	C11H15O2+
180.1019	657	C10H14NO2+
183.1376	3	C11H19O2+
187.0754	25	C12H11O2+
194.1176	5	C11H16NO2+
198.1124	6	C10H16NO3+
204.139	3	C13H18NO+
211.1327	11	C12H19O3+
224.1282	5	C12H18NO3+
232.1697	10	C15H22NO+
242.1542	4	C16H20NO+
256.1537	12	C13H22NO4+
260.1644	52	C16H22NO2+
269.1534	24	C18H21O2+
270.149	16	C17H20NO2+
278.1751	327	C16H24NO3+
288.1592	17	C17H22NO3+
306.1704	22	C17H24NO4+
354.2268	3	C19H32NO5+
382.2228	31	C20H32NO6+
