Mass spectrum: Fluazifop-butyl; LC-ESI-QFT; MS2; CE: 45; R=17500; [M+H]+
Name: Fluazifop-butyl
Name: butyl 2-[4-[5-(trifluoromethyl)pyridin-2-yl]oxyphenoxy]propanoate
Formula: C19H20F3NO4
Exact mass: 383.1344
SMILES: CCCCOC(=O)C(C)OC1=CC=C(OC2=CC=C(C=N2)C(F)(F)F)C=C1
InChI: InChI=1S/C19H20F3NO4/c1-3-4-11-25-18(24)13(2)26-15-6-8-16(9-7-15)27-17-10-5-14(12-23-17)19(20,21)22/h5-10,12-13H,3-4,11H2,1-2H3
Instrument: Q Exactive Orbitrap (Thermo Scientific)
Instrument type: LC-ESI-QFT
Ms type: MS2
Ion mode: POSITIVE
Ionization: ESI
Fragmentation mode: HCD
Collision energy: 45
Resolution: 17500
Column name: Acquity BEH C18 1.7um, 2.1x150mm (Waters)
Retention time: 19.277 min
Base peak: 79.0212
Precursor m/z: 384.1417
Precursor type: [M+H]+
Precursor intensity: 27323183.375
m/z	relative intensity	assigned
53.0022	7	C3HO+
53.9975	1	C2NO+
55.0178	5	C3H3O+
55.0542	1	C4H7+
57.0699	96	C4H9+
65.0385	31	C5H5+
73.0284	6	C3H5O2+
91.0542	999	C7H7+
93.0335	9	C6H5O+
93.0698	1	C7H9+
94.0414	1	C6H6O+
95.0491	1	C6H7O+
105.0699	1	C8H9+
107.0491	1	C7H7O+
109.0647	8	C7H9O+
111.044	15	C6H7O2+
118.0651	3	C8H8N+
119.0492	183	C8H7O+
120.0569	5	C8H8O+
121.0284	47	C7H5O2+
121.0648	5	C8H9O+
125.0597	1	C7H9O2+
135.0441	1	C8H7O2+
137.0596	1	C8H9O2+
144.0254	1	C6H4F2NO+
146.0218	1	C6H3F3N+
147.044	2	C9H7O2+
148.037	2	C6H5F3N+
149.0209	1	C6H4F3O+
157.089	1	C11H11N+
162.0525	1	C7H7F3N+
163.0242	1	C6H4F3NO+
164.0317	43	C6H5F3NO+
167.0729	3	C12H9N+
172.0367	1	C8H5F3N+
176.0318	2	C7H5F3NO+
178.0475	1	C7H7F3NO+
179.0187	9	C6H4F3NO2+
185.0832	1	C12H11NO+
186.0526	6	C9H7F3N+
188.0318	1	C8H5F3NO+
198.0525	6	C10H7F3N+
206.078	1	C12H10F2N+
211.0598	3	C11H8F3N+
212.0681	3	C11H9F3N+
213.0784	19	C13H11NO2+
214.0475	6	C10H7F3NO+
226.0476	2	C11H7F3NO+
226.0838	24	C12H11F3N+
227.0552	65	C11H8F3NO+
228.0627	2	C11H9F3NO+
236.0682	18	C13H9F3N+
238.0474	251	C12H7F3NO+
239.0552	5	C12H8F3NO+
240.0631	8	C12H9F3NO+
253.0342	3	C12H6F3NO2+
253.0711	1	C13H10F3NO+
254.0428	145	C12H7F3NO2+
254.0786	474	C13H11F3NO+
255.0501	159	C12H8F3NO2+
256.0579	129	C12H9F3NO2+
264.0631	18	C14H9F3NO+
267.0504	3	C13H8F3NO2+
268.0579	2	C13H9F3NO2+
282.0735	789	C14H11F3NO2+
310.0685	2	C15H11F3NO3+
328.079	28	C15H13F3NO4+
