Mass spectrum: Budesonide; LC-ESI-QFT; MS2; CE: 45; R=17500; [M+H]+
Name: Budesonide
Name: (1S,2S,4R,8S,9S,11S,12S,13R)-11-hydroxy-8-(2-hydroxyacetyl)-9,13-dimethyl-6-propyl-5,7-dioxapentacyclo[10.8.0.02,9.04,8.013,18]icosa-14,17-dien-16-one
Formula: C25H34O6
Exact mass: 430.2355
SMILES: CCCC1O[C@@H]2C[C@H]3[C@@H]4CCC5=CC(=O)C=C[C@]5(C)[C@H]4[C@@H](O)C[C@]3(C)[C@@]2(O1)C(=O)CO
InChI: InChI=1S/C25H34O6/c1-4-5-21-30-20-11-17-16-7-6-14-10-15(27)8-9-23(14,2)22(16)18(28)12-24(17,3)25(20,31-21)19(29)13-26/h8-10,16-18,20-22,26,28H,4-7,11-13H2,1-3H3/t16-,17-,18-,20+,21?,22+,23-,24-,25+/m0/s1
Instrument: Q Exactive Orbitrap (Thermo Scientific)
Instrument type: LC-ESI-QFT
Ms type: MS2
Ion mode: POSITIVE
Ionization: ESI
Fragmentation mode: HCD
Collision energy: 45
Resolution: 17500
Column name: Acquity BEH C18 1.7um, 2.1x150mm (Waters)
Retention time: 18.150 min
Base peak: 79.0212
Precursor m/z: 431.2428
Precursor type: [M+H]+
Precursor intensity: 5271699.25
m/z	relative intensity	assigned
55.0179	18	C3H3O+
55.0543	20	C4H7+
67.0543	13	C5H7+
69.0335	25	C4H5O+
69.0699	19	C5H9+
71.0491	34	C4H7O+
79.0543	36	C6H7+
81.0335	16	C5H5O+
81.0699	101	C6H9+
83.049	14	C5H7O+
87.044	21	C4H7O2+
91.0543	53	C7H7+
93.07	74	C7H9+
95.0493	13	C6H7O+
95.0855	47	C7H11+
97.0649	14	C6H9O+
101.0234	26	C4H5O3+
105.07	87	C8H9+
107.0855	58	C8H11+
109.0648	62	C7H9O+
117.0698	28	C9H9+
119.0858	88	C9H11+
121.0648	326	C8H9O+
123.0804	17	C8H11O+
129.0698	26	C10H9+
131.0856	48	C10H11+
133.0649	36	C9H9O+
133.1015	19	C10H13+
135.0805	134	C9H11O+
137.0597	54	C8H9O2+
139.0757	22	C8H11O2+
143.0857	30	C11H11+
145.0648	79	C10H9O+
145.1013	40	C11H13+
147.0805	999	C10H11O+
149.0595	16	C9H9O2+
149.0966	15	C10H13O+
151.0754	17	C9H11O2+
155.0857	33	C12H11+
157.1013	30	C12H13+
158.0727	32	C11H10O+
159.0805	142	C11H11O+
161.0961	79	C11H13O+
163.0752	58	C10H11O2+
167.0857	12	C13H11+
171.0805	393	C12H11O+
173.0962	556	C12H13O+
179.0857	13	C14H11+
181.1014	16	C14H13+
183.0804	27	C13H11O+
185.0964	110	C13H13O+
187.1121	40	C13H15O+
193.1015	23	C15H13+
195.0807	37	C14H11O+
196.0882	32	C14H12O+
197.0964	119	C14H13O+
199.1118	52	C14H15O+
201.0914	15	C13H13O2+
205.1005	13	C16H13+
207.117	59	C16H15+
208.0882	36	C15H12O+
209.0963	96	C15H13O+
210.1036	76	C15H14O+
211.1118	131	C15H15O+
213.0917	15	C14H13O2+
213.1276	45	C15H17O+
219.1177	15	C17H15+
220.0893	15	C16H12O+
221.0962	81	C16H13O+
222.104	52	C16H14O+
223.1117	102	C16H15O+
224.1194	26	C16H16O+
225.1274	227	C16H17O+
226.1352	127	C16H18O+
227.1436	53	C16H19O+
230.1091	14	C18H14+
233.0964	22	C17H13O+
234.1041	23	C17H14O+
235.1119	94	C17H15O+
236.1198	18	C17H16O+
237.1275	127	C17H17O+
239.1053	12	C16H15O2+
239.1432	48	C17H19O+
241.1593	18	C17H21O+
246.1044	21	C18H14O+
247.1117	39	C18H15O+
248.1193	79	C18H16O+
249.1275	63	C18H17O+
251.143	48	C18H19O+
259.1129	15	C19H15O+
261.1272	36	C19H17O+
262.1353	44	C19H18O+
263.1071	12	C18H15O2+
263.1433	84	C19H19O+
264.1508	37	C19H20O+
265.1587	76	C19H21O+
272.1196	52	C20H16O+
275.143	22	C20H19O+
277.1584	81	C20H21O+
279.1379	12	C19H19O2+
281.1546	26	C19H21O2+
287.1435	27	C21H19O+
305.154	44	C21H21O2+
