Mass spectrum: Azoxystrobin; LC-ESI-QFT; MS2; CE: 15; R=17500; [M+H]+
Name: Azoxystrobin
Formula: C22H17N3O5
Exact mass: 403.1168
SMILES: CO\C=C(\C(=O)OC)C1=CC=CC=C1OC1=CC(OC2=CC=CC=C2C#N)=NC=N1
InChI: InChI=1S/C22H17N3O5/c1-27-13-17(22(26)28-2)16-8-4-6-10-19(16)30-21-11-20(24-14-25-21)29-18-9-5-3-7-15(18)12-23/h3-11,13-14H,1-2H3/b17-13+
Instrument: Q Exactive Orbitrap (Thermo Scientific)
Instrument type: LC-ESI-QFT
Ms type: MS2
Ion mode: POSITIVE
Ionization: ESI
Fragmentation mode: HCD
Collision energy: 15
Resolution: 17500
Column name: Acquity BEH C18 1.7um, 2.1x150mm (Waters)
Retention time: 16.922 min
Base peak: 79.0212
Precursor m/z: 404.1241
Precursor type: [M+H]+
Precursor intensity: 24455376.75
m/z	relative intensity	assigned
344.1027	3	C20H14N3O3+
372.098	999	C21H14N3O4+
