Mass spectrum: Bioresmethrin; LC-ESI-QFT; MS2; CE: 90; R=17500; [M+H]+
Name: Bioresmethrin
Name: (5-benzylfuran-3-yl)methyl (1R,3R)-2,2-dimethyl-3-(2-methylprop-1-enyl)cyclopropane-1-carboxylate
Formula: C22H26O3
Exact mass: 338.1882
SMILES: CC(C)=C[C@@H]1[C@@H](C(=O)OCC2=COC(CC3=CC=CC=C3)=C2)C1(C)C
InChI: InChI=1S/C22H26O3/c1-15(2)10-19-20(22(19,3)4)21(23)25-14-17-12-18(24-13-17)11-16-8-6-5-7-9-16/h5-10,12-13,19-20H,11,14H2,1-4H3/t19-,20+/m1/s1
Instrument: Q Exactive Orbitrap (Thermo Scientific)
Instrument type: LC-ESI-QFT
Ms type: MS2
Ion mode: POSITIVE
Ionization: ESI
Fragmentation mode: HCD
Collision energy: 90
Resolution: 17500
Column name: Acquity BEH C18 1.7um, 2.1x150mm (Waters)
Retention time: 20.626 min
Base peak: 79.0211
Precursor m/z: 339.1955
Precursor type: [M+H]+
Precursor intensity: 1772935.1875
m/z	relative intensity	assigned
53.0387	37	C4H5+
55.0179	14	C3H3O+
55.0542	44	C4H7+
59.0492	14	C3H7O+
65.0386	112	C5H5+
67.0542	50	C5H7+
69.0335	8	C4H5O+
69.0698	11	C5H9+
77.0385	10	C6H5+
79.0542	116	C6H7+
81.0699	51	C6H9+
91.0543	999	C7H7+
93.0699	60	C7H9+
95.0492	88	C6H7O+
95.0854	22	C7H11+
103.0544	40	C8H7+
105.0335	92	C7H5O+
105.07	135	C8H9+
107.0857	20	C8H11+
109.0649	15	C7H9O+
115.0543	154	C9H7+
116.062	13	C9H8+
117.0699	60	C9H9+
119.0857	56	C9H11+
121.0649	22	C8H9O+
121.1012	13	C9H13+
128.0621	513	C10H8+
129.0698	37	C10H9+
131.0857	21	C10H11+
133.0651	7	C9H9O+
141.0699	62	C11H9+
142.0779	26	C11H10+
143.0857	34	C11H11+
144.0938	9	C11H12+
145.065	42	C10H9O+
152.0623	35	C12H8+
153.0701	23	C12H9+
155.0857	16	C12H11+
165.0699	18	C13H9+
