Mass spectrum: Oxyphenisatin; LC-ESI-QFT; MS2; CE: 15; R=17500; [M-H]-
Name: Oxyphenisatin
Name: Oxyphenisatine
Name: 3,3-bis(4-hydroxyphenyl)-1H-indol-2-one
Formula: C20H15NO3
Exact mass: 317.1052
SMILES: OC1=CC=C(C=C1)C1(C(=O)NC2=CC=CC=C12)C1=CC=C(O)C=C1
InChI: InChI=1S/C20H15NO3/c22-15-9-5-13(6-10-15)20(14-7-11-16(23)12-8-14)17-3-1-2-4-18(17)21-19(20)24/h1-12,22-23H,(H,21,24)
Instrument: Q Exactive Orbitrap (Thermo Scientific)
Instrument type: LC-ESI-QFT
Ms type: MS2
Ion mode: NEGATIVE
Ionization: ESI
Fragmentation mode: HCD
Collision energy: 15
Resolution: 17500
Column name: Acquity BEH C18 1.7um, 2.1x150mm (Waters)
Retention time: 15.322 min
Base peak: 112.9857
Precursor m/z: 316.0979
Precursor type: [M-H]-
Precursor intensity: 1222618.92627
m/z	relative intensity	assigned
222.0561	3	C14H8NO2-
288.1044	2	C19H14NO2-
316.0979	999	C20H14NO3-
