Mass spectrum: 2-(N-Ethyl-m-toluidino)ethanol; LC-ESI-QFT; MS2; CE: 15; R=17500; [M+H]+
Name: 2-(N-Ethyl-m-toluidino)ethanol
Name: 2-(N-ethyl-3-methylanilino)ethanol
Formula: C11H17NO
Exact mass: 179.1310
SMILES: CCN(CCO)C1=CC(C)=CC=C1
InChI: InChI=1S/C11H17NO/c1-3-12(7-8-13)11-6-4-5-10(2)9-11/h4-6,9,13H,3,7-8H2,1-2H3
Instrument: Q Exactive Orbitrap (Thermo Scientific)
Instrument type: LC-ESI-QFT
Ms type: MS2
Ion mode: POSITIVE
Ionization: ESI
Fragmentation mode: HCD
Collision energy: 15
Resolution: 17500
Column name: Acquity BEH C18 1.7um, 2.1x150mm (Waters)
Retention time: 10.199 min
Base peak: 79.0211
Precursor m/z: 180.1383
Precursor type: [M+H]+
Precursor intensity: 25519392.71875
m/z	relative intensity	assigned
108.0807	3	C7H10N+
120.0806	19	C8H10N+
132.0804	1	C9H10N+
133.0886	6	C9H11N+
134.0964	26	C9H12N+
135.1042	49	C9H13N+
136.1121	37	C9H14N+
147.1042	11	C10H13N+
151.0991	35	C9H13NO+
152.107	48	C9H14NO+
160.1123	2	C11H14N+
162.1277	104	C11H16N+
180.1382	999	C11H18NO+
