Mass spectrum: Myclobutanil; LC-ESI-QFT; MS2; CE: 60; R=17500; [M+H]+
Name: Myclobutanil
Name: 2-(4-chlorophenyl)-2-(1,2,4-triazol-1-ylmethyl)hexanenitrile
Formula: C15H17ClN4
Exact mass: 288.1142
SMILES: CCCCC(CN1C=NC=N1)(C#N)C1=CC=C(Cl)C=C1
InChI: InChI=1S/C15H17ClN4/c1-2-3-8-15(9-17,10-20-12-18-11-19-20)13-4-6-14(16)7-5-13/h4-7,11-12H,2-3,8,10H2,1H3
Instrument: Q Exactive Orbitrap (Thermo Scientific)
Instrument type: LC-ESI-QFT
Ms type: MS2
Ion mode: POSITIVE
Ionization: ESI
Fragmentation mode: HCD
Collision energy: 60
Resolution: 17500
Column name: Acquity BEH C18 1.7um, 2.1x150mm (Waters)
Retention time: 17.761 min
Base peak: 79.0211
Precursor m/z: 289.1215
Precursor type: [M+H]+
Precursor intensity: 9017476.875
m/z	relative intensity	assigned
55.0543	6	C4H7+
57.0699	4	C4H9+
67.0542	1	C5H7+
70.0399	999	C2H4N3+
74.0964	1	C4H12N+
79.054	1	C6H7+
80.0494	1	C5H6N+
81.0699	5	C6H9+
82.04	7	C3H4N3+
82.0652	2	C5H8N+
83.0478	5	C3H5N3+
89.0385	5	C7H5+
94.0651	2	C6H8N+
95.073	3	C6H9N+
97.0647	1	C3H12ClN+
98.9995	1	C5H4Cl+
115.0543	9	C9H7+
116.0621	10	C9H8+
125.0153	412	C7H6Cl+
128.0495	3	C9H6N+
128.062	1	C10H8+
129.0699	1	C10H9+
130.0652	8	C9H8N+
131.073	3	C9H9N+
137.0152	3	C8H6Cl+
139.0312	3	C8H8Cl+
142.0777	1	C11H10+
143.0604	1	C9H7N2+
143.0731	2	C10H9N+
149.0153	6	C9H6Cl+
150.0105	9	C8H5ClN+
151.031	74	C9H8Cl+
153.0699	3	C12H9+
156.0811	2	C11H10N+
163.0309	1	C10H8Cl+
164.0262	26	C9H7ClN+
165.0341	4	C9H8ClN+
165.0466	1	C10H10Cl+
166.042	5	C9H9ClN+
167.0856	2	C13H11+
168.0934	4	C13H12+
170.0963	1	C12H12N+
175.0311	4	C11H8Cl+
178.0419	12	C10H9ClN+
184.1121	1	C13H14N+
185.1199	1	C13H15N+
191.0498	1	C11H10ClN+
192.0574	1	C11H11ClN+
203.0623	1	C13H12Cl+
