Mass spectrum: Celecoxib; LC-ESI-QFT; MS2; CE: 75; R=17500; [M-H]-
Name: Celecoxib
Name: 4-[5-(4-methylphenyl)-3-(trifluoromethyl)pyrazol-1-yl]benzenesulfonamide
Formula: C17H14F3N3O2S
Exact mass: 381.0759
SMILES: CC1=CC=C(C=C1)C1=CC(=NN1C1=CC=C(C=C1)S(N)(=O)=O)C(F)(F)F
InChI: InChI=1S/C17H14F3N3O2S/c1-11-2-4-12(5-3-11)15-10-16(17(18,19)20)22-23(15)13-6-8-14(9-7-13)26(21,24)25/h2-10H,1H3,(H2,21,24,25)
Instrument: Q Exactive Orbitrap (Thermo Scientific)
Instrument type: LC-ESI-QFT
Ms type: MS2
Ion mode: NEGATIVE
Ionization: ESI
Fragmentation mode: HCD
Collision energy: 75
Resolution: 17500
Column name: Acquity BEH C18 1.7um, 2.1x150mm (Waters)
Retention time: 17.965 min
Base peak: 203.0131
Precursor m/z: 380.0686
Precursor type: [M-H]-
Precursor intensity: 25217185.12207
m/z	relative intensity	assigned
61.9706	260	NOS-
63.9625	101	O2S-
64.0192	5	C4H2N-
65.0145	9	C3HN2-
68.9958	999	CF3-
74.0035	1	C5N-
75.0049	1	C3HF2-
77.9656	232	NO2S-
78.9734	52	HNO2S-
79.9812	179	H2NO2S-
88.0005	59	C3F2N-
88.0193	24	C6H2N-
89.0145	3	C5HN2-
103.0428	2	C7H5N-
106.0535	3	C6H6N2-
107.0378	1	C6H5NO-
108.0067	3	C3HF3N-
108.0255	6	C6H3FN-
112.0193	16	C8H2N-
115.0302	8	C7H3N2-
116.0505	4	C8H6N-
117.0459	5	C7H5N2-
118.03	1	C7H4NO-
129.0459	9	C8H5N2-
130.0537	23	C8H6N2-
131.0376	5	C8H5NO-
132.0254	11	C8H3FN-
135.0364	1	C7H4FN2-
138.0223	2	C9H2N2-
139.0302	171	C9H3N2-
140.0138	1	C9H2NO-
142.0409	1	C8H4N3-
155.0489	10	C9H5N3-
155.0614	2	C10H7N2-
156.0568	11	C9H6N3-
157.046	33	C11H6F-
159.0364	95	C9H4FN2-
160.0202	6	C9H3FNO-
177.0522	27	C11H7F2-
178.0665	1	C13H8N-
179.0428	10	C9H5F2N2-
180.0266	3	C9H4F2NO-
183.0121	3	C11H2FNO-
184.0152	1	C9H2N3O2-
198.041	8	C9H5F3N2-
198.0723	2	C13H9FN-
199.025	1	C9H4F3NO-
205.0773	3	C14H9N2-
207.0929	2	C14H11N2-
219.0929	1	C15H11N2-
220.1011	2	C15H12N2-
221.0963	7	C14H11N3-
221.1076	1	C15H13N2-
224.057	7	C11H7F3N2-
225.0645	86	C11H8F3N2-
227.0742	2	C17H9N-
228.0817	2	C17H10N-
229.0769	13	C16H9N2-
232.0876	2	C15H10N3-
245.0959	4	C16H11N3-
246.1031	2	C16H12N3-
247.1115	7	C16H13N3-
248.0756	12	C16H9FN2-
249.0834	29	C16H10FN2-
255.0804	13	C17H9N3-
256.0882	12	C17H10N3-
274.0783	3	C17H9FN3-
275.0866	9	C17H10FN3-
276.0943	17	C17H11FN3-
277.0781	5	C17H10FN2O-
287.0704	2	C17H9N3O2-
307.0761	1	C17H10FN3O2-
