Mass spectrum: Trazodone; LC-ESI-QFT; MS2; CE: 30; R=17500; [M+H]+
Name: Trazodone
Name: 2-[3-[4-(3-chlorophenyl)piperazin-1-yl]propyl]-[1,2,4]triazolo[4,3-a]pyridin-3-one
Formula: C19H22ClN5O
Exact mass: 371.1513
SMILES: ClC1=CC=CC(=C1)N1CCN(CCCN2N=C3C=CC=CN3C2=O)CC1
InChI: InChI=1S/C19H22ClN5O/c20-16-5-3-6-17(15-16)23-13-11-22(12-14-23)8-4-10-25-19(26)24-9-2-1-7-18(24)21-25/h1-3,5-7,9,15H,4,8,10-14H2
Instrument: Q Exactive Orbitrap (Thermo Scientific)
Instrument type: LC-ESI-QFT
Ms type: MS2
Ion mode: POSITIVE
Ionization: ESI
Fragmentation mode: HCD
Collision energy: 30
Resolution: 17500
Column name: Acquity BEH C18 1.7um, 2.1x150mm (Waters)
Retention time: 13.407 min
Base peak: 79.0211
Precursor m/z: 372.1586
Precursor type: [M+H]+
Precursor intensity: 3190268.9375
m/z	relative intensity	assigned
78.0339	1	C5H4N+
133.076	2	C8H9N2+
148.0505	82	C7H6N3O+
148.0867	15	C8H10N3+
176.0818	999	C9H10N3O+
180.0766	1	C5H13ClN4O+
237.1152	9	C13H18ClN2+
372.1587	618	C19H23ClN5O+
