Mass spectrum: Propazine; LC-ESI-QFT; MS2; CE: 75; R=17500; [M+H]+
Name: Propazine
Name: 6-chloro-2-N,4-N-di(propan-2-yl)-1,3,5-triazine-2,4-diamine
Formula: C9H16ClN5
Exact mass: 229.1094
SMILES: CC(C)NC1=NC(NC(C)C)=NC(Cl)=N1
InChI: InChI=1S/C9H16ClN5/c1-5(2)11-8-13-7(10)14-9(15-8)12-6(3)4/h5-6H,1-4H3,(H2,11,12,13,14,15)
Instrument: Q Exactive Orbitrap (Thermo Scientific)
Instrument type: LC-ESI-QFT
Ms type: MS2
Ion mode: POSITIVE
Ionization: ESI
Fragmentation mode: HCD
Collision energy: 75
Resolution: 17500
Column name: Acquity BEH C18 1.7um, 2.1x150mm (Waters)
Retention time: 17.270 min
Base peak: 79.0212
Precursor m/z: 230.1167
Precursor type: [M+H]+
Precursor intensity: 24366434.5625
m/z	relative intensity	assigned
53.0022	9	ClH4N+
61.9792	30	CHClN+
68.0243	393	C2H2N3+
79.0057	569	CH4ClN2+
85.0511	3	C2H5N4+
85.0761	6	C4H9N2+
104.001	612	C2H3ClN3+
110.0461	222	C3H4N5+
146.0228	999	C3H5ClN5+
152.0932	1	C6H10N5+
188.0698	44	C6H11ClN5+
230.1169	1	C9H17ClN5+
