Mass spectrum: Isazofos; LC-ESI-QFT; MS2; CE: 60; R=17500; [M+H]+
Name: Isazofos
Name: (5-chloro-1-propan-2-yl-1,2,4-triazol-3-yl)oxy-diethoxy-sulfanylidene-lambda5-phosphane
Formula: C9H17ClN3O3PS
Exact mass: 313.0417
SMILES: CCOP(=S)(OCC)OC1=NN(C(C)C)C(Cl)=N1
InChI: InChI=1S/C9H17ClN3O3PS/c1-5-14-17(18,15-6-2)16-9-11-8(10)13(12-9)7(3)4/h7H,5-6H2,1-4H3
Instrument: Q Exactive Orbitrap (Thermo Scientific)
Instrument type: LC-ESI-QFT
Ms type: MS2
Ion mode: POSITIVE
Ionization: ESI
Fragmentation mode: HCD
Collision energy: 60
Resolution: 17500
Column name: Acquity BEH C18 1.7um, 2.1x150mm (Waters)
Retention time: 17.724 min
Base peak: 79.0211
Precursor m/z: 314.049
Precursor type: [M+H]+
Precursor intensity: 17488069.875
m/z	relative intensity	assigned
53.0022	2	C3HO+
61.9793	1	CHClN+
64.9786	6	H2O2P+
74.0964	1	C4H12N+
75.0012	1	CH3N2S+
76.99	9	CH2ClN2+
84.0192	6	C2H2N3O+
92.001	4	CH3ClN3+
96.9508	24	H2O2PS+
98.9841	1	CH4ClO3+
102.9693	8	C2ClN2O+
109.0048	1	C2H6O3P+
110.9661	1	CH4O2PS+
112.9996	2	C2H6ClO3+
114.9613	691	H4O3PS+
116.9656	1	C4H3ClP+
119.9959	999	C2H3ClN3O+
124.982	5	C2H6O2PS+
128.9769	23	CH6O3PS+
132.9718	7	C3H3ClN2P+
135.973	89	C2H3ClN3S+
142.9928	1	C3H8ClO2S+
146.9873	4	C4H5ClN2P+
148.0271	12	C4H7ClN3O+
162.0428	16	C4H9N3O2P+
164.0041	1	C3H7N3OPS+
171.0237	1	C4H12O3PS+
215.9394	5	C2H4ClN3O3PS+
