Mass spectrum: 2-phenylphenate tetrahydrate; LC-ESI-QFT; MS2; CE: 30; R=17500; [M+H]+
Name: 2-phenylphenate tetrahydrate
Name: 2-phenylphenol
Formula: C12H10O
Exact mass: 170.0732
SMILES: OC1=C(C=CC=C1)C1=CC=CC=C1
InChI: InChI=1S/C12H10O/c13-12-9-5-4-8-11(12)10-6-2-1-3-7-10/h1-9,13H
Instrument: Q Exactive Orbitrap (Thermo Scientific)
Instrument type: LC-ESI-QFT
Ms type: MS2
Ion mode: POSITIVE
Ionization: ESI
Fragmentation mode: HCD
Collision energy: 30
Resolution: 17500
Column name: Acquity BEH C18 1.7um, 2.1x150mm (Waters)
Retention time: 18.023 min
Base peak: 79.0211
Precursor m/z: 171.0804
Precursor type: [M+H]+
Precursor intensity: 1651738.625
m/z	relative intensity	assigned
55.0179	6	C3H3O+
57.0699	4	C4H9+
83.0854	3	C6H11+
115.054	5	C9H7+
128.062	42	C10H8+
129.0698	19	C10H9+
141.0698	2	C11H9+
143.0856	154	C11H11+
145.0648	5	C10H9O+
152.062	1	C12H8+
153.0699	54	C12H9+
170.0725	2	C12H10O+
171.0805	999	C12H11O+
