Mass spectrum: PharmaGSID_47263; LC-ESI-QFT; MS2; CE: 30; R=17500; [M+H]+
Name: PharmaGSID_47263
Name: 1-Ethyl-5-(4-hydroxyphenyl)-3-methyl-6,7-dihydropyrazolo(4,3-E)(1,4)diazepin-8(1H)-one
Name: 1-ethyl-5-(4-hydroxyphenyl)-3-methyl-6,7-dihydropyrazolo[4,3-e][1,4]diazepin-8-one
Formula: C15H16N4O2
Exact mass: 284.1273
SMILES: CCN1N=C(C)C2=C1C(=O)NCC(=N2)C1=CC=C(O)C=C1
InChI: InChI=1S/C15H16N4O2/c1-3-19-14-13(9(2)18-19)17-12(8-16-15(14)21)10-4-6-11(20)7-5-10/h4-7,20H,3,8H2,1-2H3,(H,16,21)
Instrument: Q Exactive Orbitrap (Thermo Scientific)
Instrument type: LC-ESI-QFT
Ms type: MS2
Ion mode: POSITIVE
Ionization: ESI
Fragmentation mode: HCD
Collision energy: 30
Resolution: 17500
Column name: Acquity BEH C18 1.7um, 2.1x150mm (Waters)
Retention time: 15.033 min
Base peak: 79.0212
Precursor m/z: 285.1346
Precursor type: [M+H]+
Precursor intensity: 7027358.25
m/z	relative intensity	assigned
107.049	7	C7H7O+
109.0398	1	C5H5N2O+
111.0917	30	C6H11N2+
119.0491	2	C8H7O+
120.0445	2	C7H6NO+
121.0284	18	C7H5O2+
122.06	2	C7H8NO+
122.071	2	C6H8N3+
123.0917	1	C7H11N2+
124.087	23	C6H10N3+
126.1026	9	C6H12N3+
132.0442	3	C8H6NO+
133.0524	1	C8H7NO+
134.0601	4	C8H8NO+
136.0871	5	C7H10N3+
137.071	89	C7H9N2O+
147.0553	3	C8H7N2O+
147.0664	4	C7H7N4+
148.0398	2	C8H6NO2+
148.0506	1	C7H6N3O+
148.0869	3	C8H10N3+
149.0584	1	C7H7N3O+
150.0552	3	C8H8NO2+
150.0659	2	C7H8N3O+
151.0616	1	C6H7N4O+
152.0819	2	C7H10N3O+
160.0392	1	C9H6NO2+
160.0759	2	C10H10NO+
163.0613	3	C7H7N4O+
163.0983	1	C8H11N4+
164.082	1	C8H10N3O+
166.0616	1	C7H8N3O2+
173.0707	1	C10H9N2O+
174.0662	9	C9H8N3O+
175.0503	51	C9H7N2O2+
176.0694	5	C8H8N4O+
187.0868	1	C11H11N2O+
191.0928	206	C9H11N4O+
198.0915	1	C13H12NO+
199.0866	25	C12H11N2O+
200.0946	1	C12H12N2O+
201.1022	8	C12H13N2O+
202.0974	1	C11H12N3O+
209.1039	1	C9H13N4O2+
213.0896	1	C12H11N3O+
214.0973	1	C12H12N3O+
215.1179	8	C13H15N2O+
223.1195	3	C10H15N4O2+
225.1023	32	C14H13N2O+
240.0765	1	C13H10N3O2+
240.1135	1	C14H14N3O+
242.1288	229	C14H16N3O+
244.1082	2	C13H14N3O2+
256.0964	1	C13H12N4O2+
257.1035	46	C13H13N4O2+
257.1396	45	C14H17N4O+
267.1248	1	C15H15N4O+
268.1085	4	C15H14N3O2+
285.1347	999	C15H17N4O2+
