Mass spectrum: 3-((Ethylphenylamino)methyl)benzenesulfonic acid; LC-ESI-QFT; MS2; CE: 75; R=17500; [M-H]-
Name: 3-((Ethylphenylamino)methyl)benzenesulfonic acid
Name: 3-[(N-ethylanilino)methyl]benzenesulfonic acid
Formula: C15H17NO3S
Exact mass: 291.0929
SMILES: CCN(CC1=CC(=CC=C1)S(O)(=O)=O)C1=CC=CC=C1
InChI: InChI=1S/C15H17NO3S/c1-2-16(14-8-4-3-5-9-14)12-13-7-6-10-15(11-13)20(17,18)19/h3-11H,2,12H2,1H3,(H,17,18,19)
Instrument: Q Exactive Orbitrap (Thermo Scientific)
Instrument type: LC-ESI-QFT
Ms type: MS2
Ion mode: NEGATIVE
Ionization: ESI
Fragmentation mode: HCD
Collision energy: 75
Resolution: 17500
Column name: Acquity BEH C18 1.7um, 2.1x150mm (Waters)
Retention time: 11.220 min
Base peak: 290.0857
Precursor m/z: 290.0856
Precursor type: [M-H]-
Precursor intensity: 4260777.357178
m/z	relative intensity	assigned
63.9625	3	O2S-
79.9574	643	O3S-
80.9651	2	HO3S-
92.0268	4	C6H4O-
95.0138	6	C5H3O2-
106.0424	12	C7H6O-
107.0504	1	C7H7O-
108.0217	15	C6H4O2-
109.0296	2	C6H5O2-
121.0295	125	C7H5O2-
136.0167	2	C7H4O3-
137.0245	6	C7H5O3-
155.9884	1	C6H4O3S-
170.0043	999	C7H6O3S-
171.0125	1	C7H7O3S-
196.0771	2	C13H10NO-
201.9942	243	C13NO2-
260.0387	13	C13H10NO3S-
