Mass spectrum: 8-Methoxypsoralen; LC-ESI-QFT; MS2; CE: 60; R=17500; [M+H]+
Name: 8-Methoxypsoralen
Name: Methoxsalen
Name: 9-methoxyfuro[3,2-g]chromen-7-one
Formula: C12H8O4
Exact mass: 216.0423
SMILES: COC1=C2OC(=O)C=CC2=CC2=C1OC=C2
InChI: InChI=1S/C12H8O4/c1-14-12-10-8(4-5-15-10)6-7-2-3-9(13)16-11(7)12/h2-6H,1H3
Instrument: Q Exactive Orbitrap (Thermo Scientific)
Instrument type: LC-ESI-QFT
Ms type: MS2
Ion mode: POSITIVE
Ionization: ESI
Fragmentation mode: HCD
Collision energy: 60
Resolution: 17500
Column name: Acquity BEH C18 1.7um, 2.1x150mm (Waters)
Retention time: 15.198 min
Base peak: 79.0211
Precursor m/z: 217.0495
Precursor type: [M+H]+
Precursor intensity: 10052046.375
m/z	relative intensity	assigned
55.0178	2	C3H3O+
55.0542	3	C4H7+
63.0228	1	C5H3+
66.0464	3	C5H6+
78.0463	2	C6H6+
79.0541	6	C6H7+
83.0491	4	C5H7O+
89.0382	5	C7H5+
90.0464	9	C7H6+
91.0542	19	C7H7+
94.0413	1	C6H6O+
95.0492	3	C6H7O+
97.0077	2	C8H+
101.0596	1	C5H9O2+
102.0465	4	C8H6+
103.0542	8	C8H7+
105.0335	5	C7H5O+
105.0699	23	C8H9+
111.044	2	C6H7O2+
115.0542	102	C9H7+
116.0622	3	C9H8+
117.0699	22	C9H9+
118.0412	57	C8H6O+
121.0284	3	C7H5O2+
129.0334	15	C9H5O+
130.0414	7	C9H6O+
131.0491	64	C9H7O+
132.0204	2	C8H4O2+
132.0568	1	C9H8O+
133.0284	4	C8H5O2+
133.0646	12	C9H9O+
143.0491	10	C10H7O+
144.0568	2	C10H8O+
145.0284	17	C9H5O2+
145.0648	16	C10H9O+
146.0362	99	C9H6O2+
147.044	2	C9H7O2+
157.0284	48	C10H5O2+
158.0362	38	C10H6O2+
159.044	1	C10H7O2+
161.0597	539	C10H9O2+
162.0309	7	C9H6O3+
171.0439	2	C11H7O2+
173.0241	3	C10H5O3+
173.0597	26	C11H9O2+
174.0311	737	C10H6O3+
178.0252	1	C9H6O4+
185.0233	75	C11H5O3+
189.0546	69	C11H9O3+
202.026	999	C11H6O4+
217.0495	138	C12H9O4+
