Mass spectrum: Penconazole; LC-ESI-QFT; MS2; CE: 60; R=17500; [M+H]+
Name: Penconazole
Name: 1-[2-(2,4-dichlorophenyl)pentyl]-1,2,4-triazole
Formula: C13H15Cl2N3
Exact mass: 283.0643
SMILES: CCCC(CN1C=NC=N1)C1=C(Cl)C=C(Cl)C=C1
InChI: InChI=1S/C13H15Cl2N3/c1-2-3-10(7-18-9-16-8-17-18)12-5-4-11(14)6-13(12)15/h4-6,8-10H,2-3,7H2,1H3
Instrument: Q Exactive Orbitrap (Thermo Scientific)
Instrument type: LC-ESI-QFT
Ms type: MS2
Ion mode: POSITIVE
Ionization: ESI
Fragmentation mode: HCD
Collision energy: 60
Resolution: 17500
Column name: Acquity BEH C18 1.7um, 2.1x150mm (Waters)
Retention time: 18.602 min
Base peak: 79.0212
Precursor m/z: 284.0716
Precursor type: [M+H]+
Precursor intensity: 93409144.1875
m/z	relative intensity	assigned
53.0022	14	ClH4N+
55.0542	7	C4H7+
57.0699	259	C4H9+
58.0651	85	C3H8N+
59.0729	2	C3H9N+
60.0807	999	C3H10N+
69.0698	4	C5H9+
70.0399	509	C2H4N3+
71.0855	101	C5H11+
74.0963	1	C4H12N+
83.0854	1	C6H11+
85.1011	34	C6H13+
102.0463	3	C8H6+
122.9994	3	C7H4Cl+
137.0152	17	C8H6Cl+
138.0233	1	C8H7Cl+
158.9762	382	C7H5Cl2+
172.9918	30	C8H7Cl2+
