Mass spectrum: Flamprop-isopropyl; LC-ESI-QFT; MS2; CE: 60; R=17500; [M+H]+
Name: Flamprop-isopropyl
Name: propan-2-yl 2-(N-benzoyl-3-chloro-4-fluoroanilino)propanoate
Formula: C19H19ClFNO3
Exact mass: 363.1037
SMILES: CC(C)OC(=O)C(C)N(C(=O)C1=CC=CC=C1)C1=CC(Cl)=C(F)C=C1
InChI: InChI=1S/C19H19ClFNO3/c1-12(2)25-19(24)13(3)22(15-9-10-17(21)16(20)11-15)18(23)14-7-5-4-6-8-14/h4-13H,1-3H3
Instrument: Q Exactive Orbitrap (Thermo Scientific)
Instrument type: LC-ESI-QFT
Ms type: MS2
Ion mode: POSITIVE
Ionization: ESI
Fragmentation mode: HCD
Collision energy: 60
Resolution: 17500
Column name: Acquity BEH C18 1.7um, 2.1x150mm (Waters)
Retention time: 18.490 min
Base peak: 79.0211
Precursor m/z: 364.111
Precursor type: [M+H]+
Precursor intensity: 15286602.5
m/z	relative intensity	assigned
50.0152	2	C4H2+
51.0229	7	C4H3+
53.0386	81	C4H5+
55.0179	4	C3H3O+
77.0385	21	C6H5+
81.0335	7	C5H5O+
81.07	1	C6H9+
94.0414	7	C6H6O+
95.0492	246	C6H7O+
105.0336	999	C7H5O+
106.0418	1	C4H9ClN+
109.065	3	C7H9O+
137.0637	2	C8H8FN+
172.0324	9	C8H8ClFN+
