Mass spectrum: Carbendazim; LC-ESI-QFT; MS2; CE: 75; R=17500; [M+H]+
Name: Carbendazim
Name: methyl N-(1H-benzimidazol-2-yl)carbamate
Formula: C9H9N3O2
Exact mass: 191.0695
SMILES: COC(=O)NC1=NC2=CC=CC=C2N1
InChI: InChI=1S/C9H9N3O2/c1-14-9(13)12-8-10-6-4-2-3-5-7(6)11-8/h2-5H,1H3,(H2,10,11,12,13)
Instrument: Q Exactive Orbitrap (Thermo Scientific)
Instrument type: LC-ESI-QFT
Ms type: MS2
Ion mode: POSITIVE
Ionization: ESI
Fragmentation mode: HCD
Collision energy: 75
Resolution: 17500
Column name: Acquity BEH C18 1.7um, 2.1x150mm (Waters)
Retention time: 10.187 min
Base peak: 79.0211
Precursor m/z: 192.0768
Precursor type: [M+H]+
Precursor intensity: 24755944.4375
m/z	relative intensity	assigned
65.0385	7	C5H5+
80.0495	1	C5H6N+
90.0339	5	C6H4N+
92.0495	37	C6H6N+
105.0448	32	C6H5N2+
106.0526	1	C6H6N2+
107.0604	1	C6H7N2+
117.0447	1	C7H5N2+
118.0527	1	C7H6N2+
132.0557	197	C7H6N3+
133.0396	1	C7H5N2O+
133.0635	20	C7H7N3+
135.0553	32	C7H7N2O+
159.0429	1	C8H5N3O+
160.0505	999	C8H6N3O+
