Mass spectrum: PharmaGSID_47263; LC-ESI-QFT; MS2; CE: 60; R=17500; [M+H]+
Name: PharmaGSID_47263
Name: 1-Ethyl-5-(4-hydroxyphenyl)-3-methyl-6,7-dihydropyrazolo(4,3-E)(1,4)diazepin-8(1H)-one
Name: 1-ethyl-5-(4-hydroxyphenyl)-3-methyl-6,7-dihydropyrazolo[4,3-e][1,4]diazepin-8-one
Formula: C15H16N4O2
Exact mass: 284.1273
SMILES: CCN1N=C(C)C2=C1C(=O)NCC(=N2)C1=CC=C(O)C=C1
InChI: InChI=1S/C15H16N4O2/c1-3-19-14-13(9(2)18-19)17-12(8-16-15(14)21)10-4-6-11(20)7-5-10/h4-7,20H,3,8H2,1-2H3,(H,16,21)
Instrument: Q Exactive Orbitrap (Thermo Scientific)
Instrument type: LC-ESI-QFT
Ms type: MS2
Ion mode: POSITIVE
Ionization: ESI
Fragmentation mode: HCD
Collision energy: 60
Resolution: 17500
Column name: Acquity BEH C18 1.7um, 2.1x150mm (Waters)
Retention time: 15.040 min
Base peak: 79.0211
Precursor m/z: 285.1346
Precursor type: [M+H]+
Precursor intensity: 7902312.09375
m/z	relative intensity	assigned
52.0183	2	C3H2N+
53.0021	4	C3HO+
53.0386	8	C4H5+
54.0338	9	C3H4N+
55.029	2	C2H3N2+
56.0131	4	C2H2NO+
56.0495	79	C3H6N+
65.0385	5	C5H5+
66.0337	3	C4H4N+
67.029	2	C3H3N2+
67.0417	4	C4H5N+
67.0543	3	C5H7+
68.0132	3	C3H2NO+
68.0494	29	C4H6N+
69.0446	7	C3H5N2+
70.0651	6	C4H8N+
77.0385	5	C6H5+
78.0337	6	C5H4N+
79.0178	52	C5H3O+
79.029	15	C4H3N2+
79.0542	27	C6H7+
80.013	6	C4H2NO+
80.0494	39	C5H6N+
81.0447	49	C4H5N2+
82.0288	13	C4H4NO+
82.0525	5	C4H6N2+
82.0651	10	C5H8N+
83.0603	49	C4H7N2+
84.0444	4	C4H6NO+
91.0542	5	C7H7+
92.0495	9	C6H6N+
93.0447	7	C5H5N2+
94.0652	15	C6H8N+
95.0492	37	C6H7O+
95.0603	34	C5H7N2+
96.0444	6	C5H6NO+
96.0556	16	C4H6N3+
96.0681	3	C5H8N2+
97.0635	4	C4H7N3+
97.0761	3	C5H9N2+
103.0546	2	C8H7+
104.0494	20	C7H6N+
105.0448	48	C6H5N2+
106.0406	2	C5H4N3+
106.0525	2	C6H6N2+
106.0651	26	C7H8N+
107.0491	999	C7H7O+
107.0601	64	C6H7N2+
108.0556	21	C5H6N3+
108.0683	5	C6H8N2+
109.0396	185	C5H5N2O+
109.076	31	C6H9N2+
110.0602	4	C6H8NO+
110.0714	3	C5H8N3+
111.0917	119	C6H11N2+
115.0542	10	C9H7+
116.0492	4	C8H6N+
117.0571	3	C8H7N+
118.04	19	C6H4N3+
119.024	16	C6H3N2O+
119.0492	55	C8H7O+
119.0602	22	C7H7N2+
120.0445	94	C7H6NO+
120.0556	185	C6H6N3+
121.0284	130	C7H5O2+
121.0395	9	C6H5N2O+
121.076	29	C7H9N2+
122.0346	14	C5H4N3O+
122.0601	90	C7H8NO+
122.0712	159	C6H8N3+
123.0553	4	C6H7N2O+
123.0791	10	C6H9N3+
123.0917	6	C7H11N2+
124.0506	15	C5H6N3O+
124.0869	215	C6H10N3+
125.0948	6	C6H11N3+
126.1025	69	C6H12N3+
127.0501	12	C5H7N2O2+
129.0697	5	C10H9+
131.0491	10	C9H7O+
131.0604	19	C8H7N2+
132.0444	233	C8H6NO+
133.052	151	C8H7NO+
133.064	9	C7H7N3+
134.0349	16	C6H4N3O+
134.06	76	C8H8NO+
136.0505	18	C6H6N3O+
136.0757	7	C8H10NO+
136.0868	23	C7H10N3+
137.071	229	C7H9N2O+
138.1024	3	C7H12N3+
144.0444	13	C9H6NO+
144.0559	3	C8H6N3+
145.0645	3	C10H9O+
146.0604	25	C9H8NO+
146.0712	58	C8H8N3+
147.0555	97	C8H7N2O+
147.0664	164	C7H7N4+
148.0393	171	C8H6NO2+
148.0498	35	C7H6N3O+
148.0869	95	C8H10N3+
149.0584	112	C7H7N3O+
149.082	43	C7H9N4+
150.0557	18	C8H8NO2+
150.0662	79	C7H8N3O+
151.0509	17	C7H7N2O2+
151.0613	67	C6H7N4O+
152.0454	285	C6H6N3O2+
152.082	16	C7H10N3O+
156.081	5	C11H10N+
157.0649	3	C11H9O+
158.0478	3	C9H6N2O+
158.0598	26	C10H8NO+
159.0557	14	C9H7N2O+
159.0678	28	C10H9NO+
160.0633	7	C9H8N2O+
160.0755	48	C10H10NO+
161.0709	29	C9H9N2O+
161.0822	12	C8H9N4+
162.0549	6	C9H8NO2+
162.0661	17	C8H8N3O+
163.0614	186	C7H7N4O+
163.0977	10	C8H11N4+
164.0818	46	C8H10N3O+
165.0772	7	C7H9N4O+
166.061	92	C7H8N3O2+
169.0513	3	C9H5N4+
169.0763	3	C11H9N2+
170.0601	10	C11H8NO+
170.0839	2	C11H10N2+
171.0555	4	C10H7N2O+
172.0631	5	C10H8N2O+
172.0757	70	C11H10NO+
173.0711	96	C10H9N2O+
173.0829	25	C11H11NO+
174.0662	230	C9H8N3O+
174.0784	21	C10H10N2O+
175.0503	69	C9H7N2O2+
176.0692	256	C8H8N4O+
179.0925	5	C8H11N4O+
180.0764	25	C8H10N3O2+
181.0721	32	C7H9N4O2+
182.0602	6	C12H8NO+
182.0838	13	C12H10N2+
183.0678	20	C12H9NO+
184.0758	31	C12H10NO+
185.0711	38	C11H9N2O+
185.0836	27	C12H11NO+
186.0656	3	C10H8N3O+
186.079	7	C11H10N2O+
186.0916	3	C12H12NO+
187.0866	40	C11H11N2O+
188.0818	16	C10H10N3O+
191.0927	259	C9H11N4O+
192.0769	11	C9H10N3O2+
192.1008	4	C9H12N4O+
195.0882	8	C8H11N4O2+
197.071	23	C12H9N2O+
197.0819	3	C11H9N4+
197.1074	26	C13H13N2+
198.0789	14	C12H10N2O+
198.0914	20	C13H12NO+
199.0865	91	C12H11N2O+
200.082	41	C11H10N3O+
200.0944	16	C12H12N2O+
201.1021	68	C12H13N2O+
202.0974	19	C11H12N3O+
203.0816	3	C11H11N2O2+
208.0757	5	C14H10NO+
209.0708	4	C13H9N2O+
210.0786	19	C13H10N2O+
211.0864	5	C13H11N2O+
212.0816	27	C12H10N3O+
213.0655	5	C12H9N2O2+
213.0899	25	C12H11N3O+
213.1023	8	C13H13N2O+
214.0976	36	C12H12N3O+
215.1063	5	C14H15O2+
215.1177	25	C13H15N2O+
216.1129	11	C12H14N3O+
225.1021	89	C14H13N2O+
226.0971	4	C13H12N3O+
227.1051	4	C13H13N3O+
228.077	2	C12H10N3O2+
228.1128	34	C13H14N3O+
229.1086	8	C12H13N4O+
230.0927	4	C12H12N3O2+
230.129	3	C13H16N3O+
239.0928	6	C13H11N4O+
240.0767	19	C13H10N3O2+
240.1133	10	C14H14N3O+
242.1287	59	C14H16N3O+
255.0882	4	C13H11N4O2+
256.095	4	C13H12N4O2+
257.1033	62	C13H13N4O2+
257.1392	17	C14H17N4O+
268.1084	3	C15H14N3O2+
285.1345	18	C15H17N4O2+
