Mass spectrum: Nicardipine; LC-ESI-QFT; MS2; CE: 75; R=17500; [M-H]-
Name: Nicardipine
Name: 5-O-[2-[benzyl(methyl)amino]ethyl] 3-O-methyl 2,6-dimethyl-4-(3-nitrophenyl)-1,4-dihydropyridine-3,5-dicarboxylate
Formula: C26H29N3O6
Exact mass: 479.2056
SMILES: COC(=O)C1=C(C)NC(C)=C(C1C1=CC(=CC=C1)[N+]([O-])=O)C(=O)OCCN(C)CC1=CC=CC=C1
InChI: InChI=1S/C26H29N3O6/c1-17-22(25(30)34-4)24(20-11-8-12-21(15-20)29(32)33)23(18(2)27-17)26(31)35-14-13-28(3)16-19-9-6-5-7-10-19/h5-12,15,24,27H,13-14,16H2,1-4H3
Instrument: Q Exactive Orbitrap (Thermo Scientific)
Instrument type: LC-ESI-QFT
Ms type: MS2
Ion mode: NEGATIVE
Ionization: ESI
Fragmentation mode: HCD
Collision energy: 75
Resolution: 17500
Column name: Acquity BEH C18 1.7um, 2.1x150mm (Waters)
Retention time: 14.882 min
Base peak: 307.0283
Precursor m/z: 478.1984
Precursor type: [M-H]-
Precursor intensity: 12031010.47754
m/z	relative intensity	assigned
65.9986	48	C3NO-
79.019	255	C5H3O-
82.0059	81	C4H2O2-
92.0143	20	C5H2NO-
92.0269	58	C6H4O-
94.0299	17	C5H4NO-
95.0139	446	C5H3O2-
103.043	22	C7H5N-
104.0507	249	C7H6N-
105.0585	34	C7H7N-
106.0662	221	C7H8N-
108.0217	999	C6H4O2-
108.0454	135	C6H6NO-
118.0664	33	C8H8N-
120.0455	149	C7H6NO-
122.0249	146	C6H4NO2-
123.0089	34	C6H3O3-
132.0457	30	C8H6NO-
134.0614	44	C8H8NO-
136.0407	30	C7H6NO2-
148.0404	162	C8H6NO2-
149.0482	126	C8H7NO2-
150.0563	96	C8H8NO2-
162.0198	30	C8H4NO3-
162.0561	303	C9H8NO2-
164.0715	112	C9H10NO2-
181.0389	33	C8H7NO4-
181.0536	71	C12H7NO-
182.0376	64	C12H6O2-
182.0611	42	C12H8NO-
183.0452	31	C12H7O2-
193.041	50	C12H5N2O-
194.0614	44	C13H8NO-
196.0406	107	C12H6NO2-
196.0766	127	C13H10NO-
197.0484	24	C12H7NO2-
199.0277	73	C11H5NO3-
205.0534	92	C14H7NO-
206.0612	64	C14H8NO-
207.0569	47	C13H7N2O-
207.0686	42	C14H9NO-
208.0404	168	C13H6NO2-
208.0659	18	C13H8N2O-
208.0765	30	C14H10NO-
209.0483	182	C13H7NO2-
209.0724	29	C13H9N2O-
210.0565	70	C13H8NO2-
211.064	22	C13H9NO2-
212.0352	31	C12H6NO3-
221.0357	32	C13H5N2O2-
222.0563	60	C14H8NO2-
223.0635	131	C14H9NO2-
224.0718	672	C14H10NO2-
227.0592	27	C13H9NO3-
239.0467	53	C13H7N2O3-
253.0616	29	C14H9N2O3-
268.0625	31	C15H10NO4-
