Mass spectrum: Albendazole; LC-ESI-QFT; MS2; CE: 90; R=17500; [M+H]+
Name: Albendazole
Name: methyl N-(6-propylsulfanyl-1H-benzimidazol-2-yl)carbamate
Formula: C12H15N3O2S
Exact mass: 265.0885
SMILES: CCCSC1=CC=C2NC(NC(=O)OC)=NC2=C1
InChI: InChI=1S/C12H15N3O2S/c1-3-6-18-8-4-5-9-10(7-8)14-11(13-9)15-12(16)17-2/h4-5,7H,3,6H2,1-2H3,(H2,13,14,15,16)
Instrument: Q Exactive Orbitrap (Thermo Scientific)
Instrument type: LC-ESI-QFT
Ms type: MS2
Ion mode: POSITIVE
Ionization: ESI
Fragmentation mode: HCD
Collision energy: 90
Resolution: 17500
Column name: Acquity BEH C18 1.7um, 2.1x150mm (Waters)
Retention time: 16.061 min
Base peak: 79.0211
Precursor m/z: 266.0958
Precursor type: [M+H]+
Precursor intensity: 23736949
m/z	relative intensity	assigned
53.0022	1	C3HO+
69.0083	2	C2HN2O+
74.0962	1	C4H12N+
77.0258	2	C5H3N+
92.0367	5	C5H4N2+
96.0028	8	C5H4S+
96.998	2	C4H3NS+
97.0522	1	C5H7NO+
103.0416	3	C7H5N+
104.0368	17	C6H4N2+
105.0447	14	C6H5N2+
106.0526	3	C6H6N2+
108.998	8	C5H3NS+
111.0137	3	C5H5NS+
118.0526	2	C7H6N2+
119.0478	74	C6H5N3+
120.0557	5	C6H6N3+
120.998	21	C6H3NS+
122.0058	23	C6H4NS+
122.0475	2	C6H6N2O+
123.0136	13	C6H5NS+
130.0399	14	C7H4N3+
131.0477	109	C7H5N3+
132.0555	7	C7H6N3+
133.0635	9	C7H7N3+
134.0473	2	C7H6N2O+
134.0713	2	C7H8N3+
136.0089	117	C6H4N2S+
137.0167	10	C6H5N2S+
146.0716	4	C8H8N3+
147.0427	54	C7H5N3O+
148.0092	3	C7H4N2S+
149.0168	5	C7H5N2S+
150.0247	7	C7H6N2S+
158.0349	14	C8H4N3O+
159.0426	885	C8H5N3O+
160.0504	17	C8H6N3O+
162.0119	10	C7H4N3S+
163.0197	297	C7H5N3S+
164.0275	58	C7H6N3S+
165.0114	1	C7H5N2OS+
165.0354	6	C7H7N3S+
166.0197	7	C7H6N2OS+
172.0506	1	C9H6N3O+
177.0356	1	C8H7N3S+
178.0433	1	C8H8N3S+
179.0511	2	C8H9N3S+
186.041	2	C10H6N2O2+
190.007	18	C8H4N3OS+
191.0147	999	C8H5N3OS+
192.0224	153	C8H6N3OS+
204.0226	9	C9H6N3OS+
205.0301	1	C9H7N3OS+
234.0694	12	C11H12N3OS+
