Mass spectrum: CP-671305; LC-ESI-QFT; MS2; CE: 90; R=17500; [M-H]-
Name: CP-671305
Name: (2R)-2-[4-[[[2-(1,3-benzodioxol-5-yloxy)pyridine-3-carbonyl]amino]methyl]-3-fluorophenoxy]propanoic acid
Formula: C23H19FN2O7
Exact mass: 454.1176
SMILES: C[C@@H](OC1=CC=C(CNC(=O)C2=CC=CN=C2OC2=CC=C3OCOC3=C2)C(F)=C1)C(O)=O
InChI: InChI=1S/C23H19FN2O7/c1-13(23(28)29)32-15-5-4-14(18(24)9-15)11-26-21(27)17-3-2-8-25-22(17)33-16-6-7-19-20(10-16)31-12-30-19/h2-10,13H,11-12H2,1H3,(H,26,27)(H,28,29)/t13-/m1/s1
Instrument: Q Exactive Orbitrap (Thermo Scientific)
Instrument type: LC-ESI-QFT
Ms type: MS2
Ion mode: NEGATIVE
Ionization: ESI
Fragmentation mode: HCD
Collision energy: 90
Resolution: 17500
Column name: Acquity BEH C18 1.7um, 2.1x150mm (Waters)
Retention time: 16.733 min
Base peak: 316.055
Precursor m/z: 453.1104
Precursor type: [M-H]-
Precursor intensity: 17152962.01563
m/z	relative intensity	assigned
50.0036	3	C3N-
65.0033	11	C4HO-
65.0397	9	C5H5-
65.9986	88	C3NO-
66.035	162	C4H4N-
67.019	55	C4H3O-
68.0142	24	C3H2NO-
68.9982	2	C3HO2-
69.0346	9	C4H5O-
71.0139	6	C3H3O2-
76.0193	24	C5H2N-
78.0349	133	C5H4N-
80.0507	2	C5H6N-
81.0222	3	C4H3NO-
81.0348	3	C5H5O-
90.035	77	C6H4N-
91.019	16	C6H3O-
91.0302	77	C5H3N2-
92.0142	81	C5H2NO-
93.0347	18	C6H5O-
93.0456	11	C5H5N2-
94.0299	834	C5H4NO-
95.0138	39	C5H3O2-
96.0091	6	C4H2NO2-
102.035	6	C7H4N-
106.0299	75	C6H4NO-
107.0377	762	C6H5NO-
108.0455	410	C6H6NO-
109.0169	16	C5H3NO2-
116.0508	2	C8H6N-
117.0458	12	C7H5N2-
118.0299	999	C7H4NO-
119.0251	274	C6H3N2O-
121.0295	2	C7H5O2-
122.0247	8	C6H4NO2-
132.0085	1	C7H2NO2-
134.0248	162	C7H4NO2-
135.0327	22	C7H5NO2-
136.0404	47	C7H6NO2-
137.036	2	C6H5N2O2-
142.0658	2	C10H8N-
143.0614	2	C9H7N2-
144.0455	5	C9H6NO-
146.0247	12	C8H4NO2-
152.0353	15	C7H6NO3-
154.0538	6	C10H6N2-
155.0613	7	C10H7N2-
157.0536	4	C10H7NO-
158.0612	4	C10H8NO-
168.0453	3	C11H6NO-
171.0569	4	C10H7N2O-
182.0485	21	C11H6N2O-
183.0564	35	C11H7N2O-
184.0402	4	C11H6NO2-
184.0644	3	C11H8N2O-
185.0716	2	C11H9N2O-
198.0437	2	C11H6N2O2-
210.043	5	C12H6N2O2-
211.0513	17	C12H7N2O2-
228.0538	2	C12H8N2O3-
