Mass spectrum: Farglitazar; LC-ESI-QFT; MS2; CE: 45; R=17500; [M+H]+
Name: Farglitazar
Name: (2S)-2-(2-benzoylanilino)-3-[4-[2-(5-methyl-2-phenyl-1,3-oxazol-4-yl)ethoxy]phenyl]propanoic acid
Formula: C34H30N2O5
Exact mass: 546.2155
SMILES: CC1=C(CCOC2=CC=C(C[C@H](NC3=C(C=CC=C3)C(=O)C3=CC=CC=C3)C(O)=O)C=C2)N=C(O1)C1=CC=CC=C1
InChI: InChI=1S/C34H30N2O5/c1-23-29(36-33(41-23)26-12-6-3-7-13-26)20-21-40-27-18-16-24(17-19-27)22-31(34(38)39)35-30-15-9-8-14-28(30)32(37)25-10-4-2-5-11-25/h2-19,31,35H,20-22H2,1H3,(H,38,39)/t31-/m0/s1
Instrument: Q Exactive Orbitrap (Thermo Scientific)
Instrument type: LC-ESI-QFT
Ms type: MS2
Ion mode: POSITIVE
Ionization: ESI
Fragmentation mode: HCD
Collision energy: 45
Resolution: 17500
Column name: Acquity BEH C18 1.7um, 2.1x150mm (Waters)
Retention time: 20.146 min
Base peak: 79.0211
Precursor m/z: 547.2227
Precursor type: [M+H]+
Precursor intensity: 10031697
m/z	relative intensity	assigned
53.0386	2	C4H5+
55.0543	1	C4H7+
69.0335	1	C4H5O+
77.0386	2	C6H5+
83.0491	74	C5H7O+
91.0542	7	C7H7+
95.0492	8	C6H7O+
104.0495	269	C7H6N+
105.0335	139	C7H5O+
107.049	2	C7H7O+
117.07	1	C9H9+
118.065	1	C8H8N+
120.0443	3	C7H6NO+
121.0646	1	C8H9O+
122.06	2	C7H8NO+
123.0441	1	C7H7O2+
128.0619	1	C10H8+
132.0439	1	C8H6NO+
136.0757	3	C8H10NO+
143.073	4	C10H9N+
144.0808	104	C10H10N+
147.0803	1	C10H11O+
149.0597	5	C9H9O2+
158.0604	1	C10H8NO+
158.0966	3	C11H12N+
159.0806	3	C11H11O+
168.0812	1	C12H10N+
172.0758	8	C11H10NO+
173.0959	1	C12H13O+
182.0965	2	C13H12N+
183.0804	1	C13H11O+
186.0913	999	C12H12NO+
187.0756	1	C12H11O2+
187.0991	23	C12H13NO+
193.0887	2	C14H11N+
194.0965	20	C14H12N+
196.0752	1	C13H10NO+
201.0908	2	C13H13O2+
204.0807	1	C15H10N+
208.0757	17	C14H10NO+
209.0836	1	C14H11NO+
210.0911	2	C14H12NO+
220.0755	1	C15H10NO+
222.0912	7	C15H12NO+
280.1125	1	C21H14N+
280.1325	1	C18H18NO2+
286.1229	1	C20H16NO+
298.1223	3	C21H16NO+
308.1282	6	C19H18NO3+
310.1229	1	C22H16NO+
314.1178	2	C21H16NO2+
315.1253	29	C21H17NO2+
322.1438	175	C20H20NO3+
384.1597	1	C25H22NO3+
483.2064	5	C33H27N2O2+
