Mass spectrum: Triazophos; LC-ESI-QFT; MS2; CE: 45; R=17500; [M+H]+
Name: Triazophos
Name: diethoxy-[(1-phenyl-1,2,4-triazol-3-yl)oxy]-sulfanylidene-lambda5-phosphane
Formula: C12H16N3O3PS
Exact mass: 313.0650
SMILES: CCOP(=S)(OCC)OC1=NN(C=N1)C1=CC=CC=C1
InChI: InChI=1S/C12H16N3O3PS/c1-3-16-19(20,17-4-2)18-12-13-10-15(14-12)11-8-6-5-7-9-11/h5-10H,3-4H2,1-2H3
Instrument: Q Exactive Orbitrap (Thermo Scientific)
Instrument type: LC-ESI-QFT
Ms type: MS2
Ion mode: POSITIVE
Ionization: ESI
Fragmentation mode: HCD
Collision energy: 45
Resolution: 17500
Column name: Acquity BEH C18 1.7um, 2.1x150mm (Waters)
Retention time: 17.778 min
Base peak: 79.0211
Precursor m/z: 314.0723
Precursor type: [M+H]+
Precursor intensity: 19196383
m/z	relative intensity	assigned
77.0387	2	C6H5+
92.0494	6	C6H6N+
96.9507	9	H2O2PS+
104.0494	1	C7H6N+
114.9613	252	H4O3PS+
119.0604	147	C7H7N2+
120.0682	11	C7H8N2+
124.9821	4	C2H6O2PS+
128.9769	8	CH6O3PS+
132.972	2	C6NOP+
142.9924	1	C2H8O3PS+
145.0397	8	C8H5N2O+
146.9875	1	C7H2NOP+
147.0915	1	C9H11N2+
162.0661	999	C8H8N3O+
171.0241	3	C4H12O3PS+
178.0433	83	C8H8N3S+
190.0973	8	C10H12N3O+
239.999	1	C8H7N3O2PS+
258.01	3	C8H9N3O3PS+
