Mass spectrum: Bioresmethrin; LC-ESI-QFT; MS2; CE: 60; R=17500; [M+H]+
Name: Bioresmethrin
Name: (5-benzylfuran-3-yl)methyl (1R,3R)-2,2-dimethyl-3-(2-methylprop-1-enyl)cyclopropane-1-carboxylate
Formula: C22H26O3
Exact mass: 338.1882
SMILES: CC(C)=C[C@@H]1[C@@H](C(=O)OCC2=COC(CC3=CC=CC=C3)=C2)C1(C)C
InChI: InChI=1S/C22H26O3/c1-15(2)10-19-20(22(19,3)4)21(23)25-14-17-12-18(24-13-17)11-16-8-6-5-7-9-16/h5-10,12-13,19-20H,11,14H2,1-4H3/t19-,20+/m1/s1
Instrument: Q Exactive Orbitrap (Thermo Scientific)
Instrument type: LC-ESI-QFT
Ms type: MS2
Ion mode: POSITIVE
Ionization: ESI
Fragmentation mode: HCD
Collision energy: 60
Resolution: 17500
Column name: Acquity BEH C18 1.7um, 2.1x150mm (Waters)
Retention time: 20.626 min
Base peak: 79.0211
Precursor m/z: 339.1955
Precursor type: [M+H]+
Precursor intensity: 2106026.890625
m/z	relative intensity	assigned
55.0179	9	C3H3O+
55.0543	49	C4H7+
57.0699	9	C4H9+
59.0493	15	C3H7O+
65.0386	34	C5H5+
67.0542	50	C5H7+
69.0336	10	C4H5O+
69.0699	42	C5H9+
79.0542	50	C6H7+
81.0699	104	C6H9+
83.0491	19	C5H7O+
85.0649	14	C5H9O+
91.0543	999	C7H7+
93.07	98	C7H9+
95.0493	31	C6H7O+
95.0857	64	C7H11+
97.065	11	C6H9O+
103.0544	17	C8H7+
105.0336	235	C7H5O+
105.07	121	C8H9+
107.0855	76	C8H11+
109.0649	64	C7H9O+
115.0544	91	C9H7+
117.0699	87	C9H9+
119.0857	82	C9H11+
121.0649	83	C8H9O+
121.1012	120	C9H13+
128.0621	466	C10H8+
129.0697	47	C10H9+
131.0856	47	C10H11+
133.0647	15	C9H9O+
133.1014	36	C10H13+
135.0808	29	C9H11O+
135.1171	22	C10H15+
141.07	41	C11H9+
142.0775	14	C11H10+
143.0857	254	C11H11+
144.0938	11	C11H12+
145.0651	37	C10H9O+
145.1014	12	C11H13+
147.0807	22	C10H11O+
149.0965	20	C10H13O+
152.0628	9	C12H8+
153.0702	25	C12H9+
155.0857	27	C12H11+
159.0809	36	C11H11O+
159.1173	42	C12H15+
161.0965	23	C11H13O+
165.0703	13	C13H9+
169.1012	11	C13H13+
171.0805	42	C12H11O+
173.1332	14	C13H17+
179.086	12	C14H11+
187.1122	17	C13H15O+
197.1324	12	C15H17+
199.1119	15	C14H15O+
201.1277	9	C14H17O+
