Mass spectrum: Triphenyl phosphate; LC-ESI-QFT; MS2; CE: 75; R=17500; [M+H]+
Name: Triphenyl phosphate
Formula: C18H15O4P
Exact mass: 326.0708
SMILES: O=P(OC1=CC=CC=C1)(OC1=CC=CC=C1)OC1=CC=CC=C1
InChI: InChI=1S/C18H15O4P/c19-23(20-16-10-4-1-5-11-16,21-17-12-6-2-7-13-17)22-18-14-8-3-9-15-18/h1-15H
Instrument: Q Exactive Orbitrap (Thermo Scientific)
Instrument type: LC-ESI-QFT
Ms type: MS2
Ion mode: POSITIVE
Ionization: ESI
Fragmentation mode: HCD
Collision energy: 75
Resolution: 17500
Column name: Acquity BEH C18 1.7um, 2.1x150mm (Waters)
Retention time: 18.547 min
Base peak: 79.0211
Precursor m/z: 327.0781
Precursor type: [M+H]+
Precursor intensity: 63226704.51562
m/z	relative intensity	assigned
50.015	5	C4H2+
51.0229	9	C4H3+
53.0386	233	C4H5+
55.0178	11	C3H3O+
55.0541	1	C4H7+
57.0698	17	C4H9+
65.0021	2	C4HO+
65.0385	46	C5H5+
66.01	1	C4H2O+
67.0541	6	C5H7+
68.9971	2	C3HO2+
71.0855	1	C5H11+
74.015	1	C6H2+
75.0229	1	C6H3+
77.0385	203	C6H5+
79.0541	4	C6H7+
81.0334	25	C5H5O+
81.0698	3	C6H9+
85.1009	1	C6H13+
91.0542	158	C7H7+
92.0256	5	C6H4O+
93.0334	3	C6H5O+
94.0413	34	C6H6O+
95.0491	703	C6H7O+
98.0361	1	C5H6O2+
98.9841	3	H4O4P+
101.015	1	C4H6OP+
103.0542	4	C8H7+
106.0416	2	C7H6O+
109.0647	8	C7H9O+
111.044	6	C6H7O2+
115.0542	9	C9H7+
117.0699	1	C9H9+
119.0856	2	C9H11+
121.0283	3	C7H5O2+
122.0919	39	C5H14O3+
125.0597	1	C7H9O2+
127.054	5	C10H7+
128.0619	4	C10H8+
129.0099	2	C5H6O2P+
131.0856	2	C10H11+
133.0201	6	C8H6P+
134.0918	5	C6H14O3+
138.9943	19	C6H4O2P+
139.0543	2	C11H7+
140.0022	3	C6H5O2P+
141.0698	17	C11H9+
142.0776	3	C11H10+
145.0648	11	C10H9O+
150.0463	4	C12H6+
151.0541	14	C12H7+
152.062	999	C12H8+
153.0697	119	C12H9+
154.0777	1	C12H10+
155.0488	1	C11H7O+
155.0603	14	C8H12OP+
157.0048	7	C6H6O3P+
159.0356	6	C10H8P+
168.0569	389	C12H8O+
169.0647	110	C12H9O+
170.0721	6	C12H10O+
171.0803	2	C12H11O+
175.0154	42	C6H8O4P+
179.0602	31	C10H12OP+
183.0802	3	C13H11O+
186.0234	2	C11H7OP+
187.0306	43	C11H8OP+
200.0618	1	C16H8+
202.0776	24	C16H10+
213.0698	1	C17H9+
215.0255	56	C12H8O2P+
226.0777	23	C18H10+
227.0854	46	C18H11+
228.0933	62	C18H12+
229.1004	1	C18H13+
233.0361	78	C12H10O3P+
244.088	5	C18H12O+
247.0518	8	C13H12O3P+
251.0465	20	C12H12O4P+
273.0462	1	C18H10OP+
