Mass spectrum: Parinol; LC-ESI-QFT; MS2; CE: 45; R=17500; [M+H]+
Name: Parinol
Name: bis(4-chlorophenyl)-pyridin-3-ylmethanol
Formula: C18H13Cl2NO
Exact mass: 329.0374
SMILES: OC(C1=CC=C(Cl)C=C1)(C1=CC=C(Cl)C=C1)C1=CC=CN=C1
InChI: InChI=1S/C18H13Cl2NO/c19-16-7-3-13(4-8-16)18(22,15-2-1-11-21-12-15)14-5-9-17(20)10-6-14/h1-12,22H
Instrument: Q Exactive Orbitrap (Thermo Scientific)
Instrument type: LC-ESI-QFT
Ms type: MS2
Ion mode: POSITIVE
Ionization: ESI
Fragmentation mode: HCD
Collision energy: 45
Resolution: 17500
Column name: Acquity BEH C18 1.7um, 2.1x150mm (Waters)
Retention time: 18.413 min
Base peak: 79.0211
Precursor m/z: 330.0447
Precursor type: [M+H]+
Precursor intensity: 23001550
m/z	relative intensity	assigned
53.0386	15	C4H5+
56.0495	3	C3H6N+
80.0494	999	C5H6N+
96.0444	10	C5H6NO+
125.0153	31	C7H6Cl+
137.0152	1	C8H6Cl+
138.9945	47	C7H4ClO+
140.0263	1	C7H7ClN+
149.0153	4	C9H6Cl+
151.031	2	C9H8Cl+
154.0649	1	C11H8N+
163.0306	1	C10H8Cl+
175.0309	13	C11H8Cl+
182.0601	19	C12H8NO+
183.068	7	C12H9NO+
200.0263	3	C12H7ClN+
200.0387	1	C13H9Cl+
201.0338	4	C12H8ClN+
203.0495	2	C12H10ClN+
215.0854	10	C17H11+
216.0936	4	C17H12+
217.0288	1	C12H8ClNO+
217.1011	9	C17H13+
218.0367	33	C12H9ClNO+
219.0446	15	C12H10ClNO+
226.0545	2	C15H11Cl+
235.0076	9	C13H9Cl2+
237.0465	1	C16H10Cl+
241.089	1	C18H11N+
242.0958	3	C18H12N+
249.0462	3	C17H10Cl+
250.0185	15	C13H10Cl2N+
250.0543	7	C17H11Cl+
251.0024	24	C13H9Cl2O+
251.0614	3	C17H12Cl+
252.0337	20	C16H9ClO+
252.0699	26	C17H13Cl+
259.0075	20	C15H9Cl2+
261.0232	1	C15H11Cl2+
266.073	1	C17H13ClN+
267.0805	1	C17H14ClN+
272.0151	1	C16H10Cl2+
275.0025	9	C15H9Cl2O+
276.0574	17	C18H11ClN+
277.0653	108	C18H12ClN+
278.0494	6	C18H11ClO+
285.0232	12	C17H11Cl2+
287.0023	8	C16H9Cl2O+
287.0393	5	C17H13Cl2+
294.0677	6	C18H13ClNO+
295.076	2	C18H14ClNO+
311.0264	3	C18H11Cl2N+
312.0341	33	C18H12Cl2N+
313.0193	3	C18H11Cl2O+
313.0418	34	C18H13Cl2N+
330.0448	375	C18H14Cl2NO+
