Mass spectrum: Thiazopyr; LC-ESI-QFT; MS2; CE: 75; R=17500; [M+H]+
Name: Thiazopyr
Name: methyl 2-(difluoromethyl)-5-(4,5-dihydro-1,3-thiazol-2-yl)-4-(2-methylpropyl)-6-(trifluoromethyl)pyridine-3-carboxylate
Formula: C16H17F5N2O2S
Exact mass: 396.0931
SMILES: COC(=O)C1=C(CC(C)C)C(C2=NCCS2)=C(N=C1C(F)F)C(F)(F)F
InChI: InChI=1S/C16H17F5N2O2S/c1-7(2)6-8-9(15(24)25-3)11(13(17)18)23-12(16(19,20)21)10(8)14-22-4-5-26-14/h7,13H,4-6H2,1-3H3
Instrument: Q Exactive Orbitrap (Thermo Scientific)
Instrument type: LC-ESI-QFT
Ms type: MS2
Ion mode: POSITIVE
Ionization: ESI
Fragmentation mode: HCD
Collision energy: 75
Resolution: 17500
Column name: Acquity BEH C18 1.7um, 2.1x150mm (Waters)
Retention time: 18.344 min
Base peak: 79.0211
Precursor m/z: 397.1004
Precursor type: [M+H]+
Precursor intensity: 21342952.75
m/z	relative intensity	assigned
53.0023	10	C3HO+
57.9872	5	C2H2S+
58.995	68	C2H3S+
60.0029	83	C2H4S+
61.0107	999	C2H5S+
62.97	7	CFS+
68.9795	3	C3HS+
68.9948	3	CF3+
73.0649	13	C4H9O+
75.0263	8	C3H7S+
76.0216	20	C2H6NS+
88.0217	3	C3H6NS+
96.0057	2	C2HF3N+
103.0543	4	C8H7+
107.0293	3	C7H4F+
107.9713	3	C2F2NS+
114.0341	5	C8H4N+
115.0543	13	C9H7+
116.0494	3	F5H7N+
121.0449	2	C8H6F+
122.0401	8	C7H5FN+
127.0356	2	C7H5F2+
127.0548	2	C10H7+
128.0496	8	C9H6N+
128.062	32	C10H8+
129.0447	7	C8H5N2+
129.0699	32	C10H9+
130.0653	4	C9H8N+
131.0604	3	C8H7N2+
133.0448	19	C9H6F+
134.04	7	C8H5FN+
136.993	23	C6H3NOS+
139.0015	12	C7H4FS+
140.0307	2	C7H4F2N+
140.0496	17	C10H6N+
141.0577	2	C10H7N+
142.0655	5	C10H8N+
144.081	5	C10H10N+
145.0649	9	C10H9O+
146.0059	22	C8H4NS+
146.04	3	C9H5FN+
146.0532	3	C10H7F+
146.0602	3	C9H8NO+
147.014	2	C8H5NS+
147.0355	4	C8H4FN2+
147.0605	29	C10H8F+
148.0214	5	F5H7NS+
148.0558	11	C9H7FN+
149.0513	4	C8H6FN2+
151.0352	4	C9H5F2+
151.9965	2	C7H3FNS+
152.031	7	C8H4F2N+
152.0498	4	C11H6N+
153.0045	6	C7H4FNS+
153.0385	3	C8H5F2N+
153.045	3	C10H5N2+
154.0652	76	C11H8N+
155.0605	35	C10H7N2+
156.0682	6	C10H8N2+
156.0809	11	C11H10N+
156.9921	4	C7H3F2S+
158.0212	11	C7H3F3N+
158.04	8	C10H5FN+
159.0354	2	C9H4FN2+
159.048	9	C10H6FN+
159.0555	6	C9H7N2O+
160.0092	2	C8H4N2S+
160.0433	7	C9H5FN2+
160.0555	18	C10H7FN+
161.017	9	C8H5N2S+
161.051	4	C9H6FN2+
163.0554	3	C10H8FO+
163.9965	12	C8H3FNS+
164.0312	2	C9H4F2N+
164.0436	3	C10H6F2+
165.026	7	C8H3F2N2+
165.0512	6	C10H7F2+
166.0124	21	C8H5FNS+
166.0531	3	C11H6N2+
167.042	3	C8H5F2N2+
169.0759	5	C11H9N2+
170.0214	9	C8H3F3N+
170.0601	11	C11H8NO+
171.0357	5	C10H4FN2+
171.0478	7	C11H6FN+
172.0216	18	C10H6NS+
172.0559	23	C11H7FN+
172.0757	4	C11H10NO+
173.0169	21	C9H5N2S+
173.0513	15	C10H6FN2+
173.0708	18	C2H10F5N2O+
174.0247	6	C9H6N2S+
174.0715	87	C11H9FN+
175.0322	3	CH8F5N2S+
175.0666	13	C10H8FN2+
175.0792	12	C11H10FN+
176.0312	2	C7H5F3NO+
176.087	3	C11H11FN+
177.0044	8	C9H4FNS+
177.9992	4	C8H3FN2S+
178.0122	15	C9H5FNS+
178.0335	2	C9H4F2N2+
178.0464	3	C10H6F2N+
178.0666	11	C10H9FNO+
179.0074	8	C8H4FN2S+
179.0201	3	C9H6FNS+
179.0418	12	C9H5F2N2+
179.9915	3	C8H3FNOS+
180.0621	10	C10H8F2N+
181.0571	6	C9H7F2N2+
181.0762	13	C12H9N2+
181.9873	6	C8H2F2NS+
182.0416	4	C9H6F2NO+
182.995	6	C8H3F2NS+
183.0422	4	C7H7F4O+
183.0554	4	C11H7N2O+
184.0026	33	C8H4F2NS+
184.0229	14	C8H7FNOS+
184.0371	3	C9H5F3N+
184.056	11	C12H7FN+
185.0319	7	C8H4F3N2+
185.0513	7	C11H6FN2+
185.0714	3	C11H9N2O+
186.0183	24	C8H6F2NS+
186.0381	4	C8H9FNOS+
186.0589	32	C11H7FN2+
186.0715	4	C12H9FN+
187.0321	3	C2H8F5N2S+
187.0667	26	C11H8FN2+
187.997	6	C10H3FNS+
188.0411	3	C7H9FN2OS+
188.0509	20	C11H7FNO+
189.0383	9	C11H5F2N+
190.0123	4	C10H5FNS+
190.0466	29	C11H6F2N+
190.0661	4	C11H9FNO+
191.0074	14	C9H4FN2S+
191.0416	43	C10H5F2N2+
191.0619	3	C10H8FN2O+
192.0152	6	C9H5FN2S+
192.0279	19	C10H7FNS+
192.0621	13	C11H8F2N+
192.082	92	C11H11FNO+
193.0221	45	C6H4F3N2O2+
193.0775	31	C10H10FN2O+
194.0072	7	C9H5FNOS+
194.0213	3	C10H3F3N+
194.0778	10	C11H10F2N+
194.9941	2	C6HF4NO2+
195.0025	2	C8H4FN2OS+
195.0167	24	C9H2F3N2+
195.0562	5	C9H8FN2O2+
195.9903	25	C8H2F2N2S+
196.0029	6	C9H4F2NS+
196.0235	6	C6H8F2NO2S+
196.0568	4	C10H8F2NO+
196.9979	11	C8H3F2N2S+
197.0516	31	C9H7F2N2O+
198.0058	15	C8H4F2N2S+
198.0182	13	C9H6F2NS+
198.9902	4	C8H3F2NOS+
199.0325	9	C11H7N2S+
199.0477	13	C9H6F3N2+
199.0674	15	C9H9F2N2O+
199.0868	12	C12H11N2O+
201.027	3	C8H4F3N2O+
201.0469	3	C8H7F2N2O2+
201.0824	46	C12H10FN2+
201.9932	19	C8H3F3NS+
202.0128	3	C8H6F2NOS+
202.0469	5	C9H7F3NO+
202.0662	20	C12H9FNO+
203.0009	78	C8H4F3NS+
203.0432	11	C8H6F3N2O+
203.0618	22	C11H8FN2O+
204.0154	27	C10H5FN2S+
204.0284	10	C8H8F2NOS+
204.0503	6	C8H7F3N2O+
204.0622	14	C12H8F2N+
204.0822	3	C12H11FNO+
205.0233	49	C10H6FN2S+
205.0415	4	C5H9F4N2S+
205.0577	16	C11H7F2N2+
206.0412	4	C11H6F2NO+
206.0653	70	C11H8F2N2+
206.0975	8	C12H13FNO+
207.0028	7	C9H4FN2OS+
207.0731	14	C11H9F2N2+
208.0026	53	C10H4F2NS+
208.0362	2	C8H10F2O2S+
208.0567	12	C11H8F2NO+
208.9984	43	C9H3F2N2S+
209.0532	5	C7H8F3N2O2+
209.0714	4	C13H9N2O+
210.0168	3	C7H4F4NO2+
210.0387	14	C10H9FNOS+
210.0526	37	C11H7F3N+
211.0136	24	C9H5F2N2S+
211.0477	26	C10H6F3N2+
211.0668	4	C13H8FN2+
211.9978	7	C9H4F2NOS+
212.0201	3	C6H4F4N2O2+
212.994	10	C5H4F3N2O2S+
213.0273	67	C9H4F3N2O+
213.0828	5	C13H10FN2+
214.013	15	C9H6F2NOS+
214.0541	8	C12H7FN2O+
214.9889	51	C8H2F3N2S+
215.0077	36	C11H4FN2S+
215.0424	6	C9H6F3N2O+
215.0614	14	C12H8FN2O+
215.0983	3	C13H12FN2+
215.9968	36	C8H3F3N2S+
216.0498	3	C12H6F2N2+
217.0228	7	C11H6FN2S+
217.0572	52	C12H7F2N2+
218.0306	10	C11H7FN2S+
219.003	3	C7H5F2N2O2S+
219.0379	39	C8H6F3N2O2+
219.073	12	C12H9F2N2+
219.9838	5	C8H2F4NS+
220.0232	15	C11H7FNOS+
220.0782	6	C4H15F5NOS+
221.0181	39	C10H6FN2OS+
221.0326	11	C11H4F3N2+
221.052	4	C11H7F2N2O+
221.0886	28	C12H11F2N2+
222.0252	18	C10H7FN2OS+
222.0401	23	C11H5F3N2+
222.0725	55	C12H10F2NO+
223.0137	48	C10H5F2N2S+
223.0484	9	C8H7F4N2O+
223.9973	16	C10H4F2NOS+
224.0217	41	C10H6F2N2S+
224.0684	21	C12H9F3N+
224.9931	11	C9H3F2N2OS+
225.0053	6	C10H5F2NOS+
225.0293	103	C10H7F2N2S+
225.9811	4	C9HF3N2S+
226.0124	11	C13H5FNS+
226.0366	14	C10H8F2N2S+
226.9887	16	C9H2F3N2S+
227.0086	8	C9H5F2N2OS+
227.0436	24	C7H7F4N2O2+
227.9962	19	C9H3F3N2S+
228.0092	46	C10H5F3NS+
228.0633	9	C11H9F3NO+
229.0046	44	C9H4F3N2S+
229.0232	8	C12H3F2N2O+
229.0588	5	C10H8F3N2O+
229.0775	24	C13H10FN2O+
229.9887	8	C9H3F3NOS+
230.0123	84	C9H5F3N2S+
230.9838	4	C8H2F3N2OS+
231.0025	12	C11H4FN2OS+
231.0548	16	C7H8F5N2O+
231.0729	6	C13H13NOS+
232.0102	23	C11H5FN2OS+
232.0245	6	C12H3F3N2+
232.9796	19	C8HF4N2S+
232.9994	27	C8H4F3N2OS+
233.0181	9	C11H6FN2OS+
233.0336	40	C9H5F4N2O+
233.0522	20	C12H7F2N2O+
234.0005	18	C14F2N2+
234.0602	38	C12H8F2N2O+
235.0485	10	C9H7F4N2O+
235.0676	33	C12H9F2N2O+
236.0063	3	C15H2F2O+
236.0208	10	C8H4F4N2O2+
236.0548	6	C9H12F2NO2S+
236.9931	40	C10H3F2N2OS+
237.0292	11	C11H7F2N2S+
237.0486	19	C14H9N2S+
237.0636	25	C12H8F3N2+
238.0355	5	C8H6F4N2O2+
238.0476	11	C12H7F3NO+
238.0712	6	C12H9F3N2+
239.0083	10	C10H5F2N2OS+
239.0436	29	C8H7F4N2O2+
240.0145	14	C10H3F3N2O2+
240.0294	7	C11H8F2NOS+
240.0424	2	C9H11F3O2S+
240.9884	5	C9H3F2N2O2S+
241.0044	4	C10H4F3N2S+
241.024	28	C10H7F2N2OS+
241.0385	7	C11H5F4N2+
241.0588	4	C11H8F3N2O+
242.0115	9	C15H2N2O2+
242.0785	8	C12H11F3NO+
242.9837	70	C9H2F3N2OS+
243.0199	128	C10H6F3N2S+
243.0375	7	C10H6F3N2O2+
243.9913	29	C9H3F3N2OS+
244.0044	14	C10H5F3NOS+
244.0273	35	C10H7F3N2S+
244.999	14	C9H4F3N2OS+
245.0531	18	C10H8F3N2O2+
245.9873	18	C9H2F4N2S+
246.9949	39	C9H3F4N2S+
247.0148	4	C9H6F3N2OS+
247.0333	20	C12H8FN2OS+
247.049	11	C10H7F4N2O+
247.0685	5	C10H10F3N2O2+
248.0027	59	C9H4F4N2S+
248.076	3	C13H10F2N2O+
249.0112	30	C6H6F5N2OS+
249.0837	52	C13H11F2N2O+
250.0209	14	C11H7FN2O2S+
250.0673	6	C13H10F2NO2+
251.0087	54	C11H5F2N2OS+
251.0429	3	C12H9F2N2S+
251.0625	11	C12H9F2N2O2+
251.0791	6	C13H10F3N2+
252.0163	38	C11H6F2N2OS+
252.0292	4	C12H8F2NOS+
253.001	35	C14F3N2+
253.0242	38	C11H7F2N2OS+
254.0116	11	C11H5F3N2S+
254.0267	3	C6H9F5NO2S+
255.02	137	C11H6F3N2S+
255.0375	17	C11H6F3N2O2+
256.0037	61	C11H5F3NOS+
256.0453	5	C14H10NO2S+
256.0588	20	C15H11FNS+
256.9994	21	C10H4F3N2OS+
257.0148	3	C13H3F2N2O2+
257.0195	3	C16H5N2S+
257.0354	16	C11H8F3N2S+
257.0548	11	C14H10FN2S+
258.0071	27	C10H5F3N2OS+
258.0265	12	C10H8F2N2O2S+
258.0406	4	C11H6F4N2O+
259.0149	23	C10H6F3N2OS+
259.0495	6	C11H7F4N2O+
259.0682	5	C14H9F2N2O+
260.0039	7	C15H4N2OS+
260.9942	21	C9H4F3N2O2S+
261.0107	18	C10H5F4N2S+
262.0183	23	C10H6F4N2S+
262.0354	5	C13H8F2N2S+
262.9898	35	C9H3F4N2OS+
263.0078	7	C15H4FN2S+
263.9979	7	C9H4F4N2OS+
264.9879	20	C11H3F2N2O2S+
265.0056	6	C9H5F4N2OS+
265.0443	4	C12H10FN2O2S+
265.059	42	C10H9F4N2O2+
267.0393	11	C12H9F2N2OS+
268.0239	13	C12H8F2NO2S+
269.0192	21	C11H7F2N2O2S+
269.0899	11	C13H12F3N2O+
270.041	8	C12H6F4N2O+
271.0149	379	C11H6F3N2OS+
271.0693	27	C12H10F3N2O2+
271.9849	25	C13H2F2N2OS+
272.0018	18	C11HF5N2O+
272.0223	44	C11H7F3N2OS+
272.0696	4	C13H10F4NO+
272.994	21	C10H4F3N2O2S+
273.0104	4	C11H5F4N2S+
273.0299	9	C11H8F3N2OS+
273.0477	3	C9H10F5N2S+
274.0186	19	C11H6F4N2S+
275.0262	472	C11H7F4N2S+
276.018	14	C10H7F3N2O2S+
276.0339	210	C11H8F4N2S+
277.0056	20	C10H5F4N2OS+
279.0034	16	C12H5F2N2O2S+
279.9924	10	C9H4F4N2O2S+
280.0113	11	C12H6F2N2O2S+
280.04	11	C14H9F3NS+
281.0361	3	C10H9F4N2OS+
282.0435	6	C13H9F3N2S+
283.0151	24	C12H6F3N2OS+
284.994	3	C11H4F3N2O2S+
285.0492	5	C15H10FN2OS+
285.0648	10	C13H9F4N2O+
287.0462	11	C12H10F3N2OS+
288.0306	28	C15H4F4N2+
289.0257	7	C11H8F3N2O2S+
290.0127	4	C11H6F4N2OS+
290.9847	34	C10H3F4N2O2S+
291.0211	82	C11H7F4N2OS+
291.992	2	C10H4F4N2O2S+
293.0546	7	C14H11F2N2OS+
294.0083	23	C10H6F4N2O2S+
299.0098	170	C12H6F3N2O2S+
300.0176	107	C12H7F3N2O2S+
303.0212	83	C12H7F4N2OS+
304.0113	11	C14H6F2N2O2S+
306.0086	3	C11H6F4N2O2S+
308.024	6	C11H8F4N2O2S+
314.0327	2	C13H9F3N2O2S+
315.0414	7	C13H10F3N2O2S+
317.0207	18	C15H7F2N2O2S+
319.0162	240	C12H7F4N2O2S+
327.0395	3	C14H10F3N2O2S+
327.0583	4	C12H12F5N2OS+
331.0355	11	C16H9F2N2O2S+
335.0483	14	C13H11F4N2O2S+
