Mass spectrum: Mefenamic acid; LC-ESI-QFT; MS2; CE: 60; R=17500; [M-H]-
Name: Mefenamic acid
Name: 2-(2,3-dimethylanilino)benzoic acid
Formula: C15H15NO2
Exact mass: 241.1103
SMILES: CC1=C(C)C(NC2=C(C=CC=C2)C(O)=O)=CC=C1
InChI: InChI=1S/C15H15NO2/c1-10-6-5-9-13(11(10)2)16-14-8-4-3-7-12(14)15(17)18/h3-9,16H,1-2H3,(H,17,18)
Instrument: Q Exactive Orbitrap (Thermo Scientific)
Instrument type: LC-ESI-QFT
Ms type: MS2
Ion mode: NEGATIVE
Ionization: ESI
Fragmentation mode: HCD
Collision energy: 60
Resolution: 17500
Column name: Acquity BEH C18 1.7um, 2.1x150mm (Waters)
Retention time: 19.431 min
Base peak: 240.1031
Precursor m/z: 240.103
Precursor type: [M-H]-
Precursor intensity: 23235949.00293
m/z	relative intensity	assigned
65.0397	2	C5H5-
91.0427	1	C6H5N-
92.0506	18	C6H6N-
93.0709	1	C7H9-
116.0507	2	C8H6N-
118.0663	13	C8H8N-
120.0818	9	C8H10N-
130.0662	1	C9H8N-
144.0821	4	C10H10N-
166.0662	2	C12H8N-
179.0743	9	C13H9N-
179.0866	107	C14H11-
180.0819	255	C13H10N-
181.0897	2	C13H11N-
192.082	266	C14H10N-
193.0892	2	C14H11N-
194.0975	172	C14H12N-
196.1131	999	C14H14N-
211.0637	1	C13H9NO2-
