Mass spectrum: Etofenprox; LC-ESI-QFT; MS2; CE: 60; R=17500; [M+H]+
Name: Etofenprox
Name: 1-ethoxy-4-[2-methyl-1-[(3-phenoxyphenyl)methoxy]propan-2-yl]benzene
Formula: C25H28O3
Exact mass: 376.2038
SMILES: CCOC1=CC=C(C=C1)C(C)(C)COCC1=CC(OC2=CC=CC=C2)=CC=C1
InChI: InChI=1S/C25H28O3/c1-4-27-22-15-13-21(14-16-22)25(2,3)19-26-18-20-9-8-12-24(17-20)28-23-10-6-5-7-11-23/h5-17H,4,18-19H2,1-3H3
Instrument: Q Exactive Orbitrap (Thermo Scientific)
Instrument type: LC-ESI-QFT
Ms type: MS2
Ion mode: POSITIVE
Ionization: ESI
Fragmentation mode: HCD
Collision energy: 60
Resolution: 17500
Column name: Acquity BEH C18 1.7um, 2.1x150mm (Waters)
Retention time: 16.967 min
Base peak: 79.0212
Precursor m/z: 377.2111
Precursor type: [M+H]+
Precursor intensity: 8475011.375
m/z	relative intensity	assigned
53.0387	39	C4H5+
55.018	14	C3H3O+
55.0542	89	C4H7+
59.0492	45	C3H7O+
67.0542	122	C5H7+
69.0336	52	C4H5O+
69.0699	44	C5H9+
79.0542	172	C6H7+
81.0699	135	C6H9+
83.0493	38	C5H7O+
85.0649	15	C5H9O+
87.0441	47	C4H7O2+
91.0543	366	C7H7+
93.0699	218	C7H9+
95.0493	89	C6H7O+
95.0855	249	C7H11+
97.0649	48	C6H9O+
99.0442	23	C5H7O2+
103.0544	22	C8H7+
105.0699	479	C8H9+
107.0492	68	C7H7O+
107.0855	319	C8H11+
109.0649	96	C7H9O+
109.1013	31	C8H13+
111.0805	35	C7H11O+
115.0542	128	C9H7+
117.0699	249	C9H9+
119.0856	286	C9H11+
121.0648	633	C8H9O+
123.0804	79	C8H11O+
125.0599	51	C7H9O2+
128.0622	55	C10H8+
129.0699	69	C10H9+
130.0781	27	C10H10+
131.0856	108	C10H11+
132.057	14	C9H8O+
133.0651	38	C9H9O+
133.1013	174	C10H13+
135.0805	999	C9H11O+
137.0963	27	C9H13O+
139.0754	21	C8H11O2+
141.0704	24	C11H9+
142.0778	75	C11H10+
143.0857	169	C11H11+
144.057	14	C10H8O+
145.0648	122	C10H9O+
145.1013	126	C11H13+
146.0725	103	C10H10O+
147.0805	192	C10H11O+
147.1168	19	C11H15+
149.0964	34	C10H13O+
153.0707	21	C12H9+
154.0772	14	C12H10+
155.0857	52	C12H11+
156.0936	36	C12H12+
157.065	22	C11H9O+
157.1012	128	C12H13+
158.0726	97	C11H10O+
159.0806	227	C11H11O+
160.0885	34	C11H12O+
161.0961	589	C11H13O+
163.1121	15	C11H15O+
165.0704	27	C13H9+
166.0778	15	C13H10+
167.0857	19	C13H11+
169.1016	25	C13H13+
171.0803	70	C12H11O+
171.117	31	C13H15+
172.0884	102	C12H12O+
173.0962	173	C12H13O+
175.1119	67	C12H15O+
177.0919	17	C11H13O2+
179.0858	46	C14H11+
180.0944	25	C14H12+
181.0649	20	C13H9O+
181.1016	35	C14H13+
182.0727	30	C13H10O+
183.0808	55	C13H11O+
183.1171	19	C14H15+
184.0886	31	C13H12O+
185.096	254	C13H13O+
187.1116	68	C13H15O+
190.0778	16	C15H10+
191.0865	19	C15H11+
192.0938	29	C15H12+
193.1015	62	C15H13+
194.0734	17	C14H10O+
194.1094	36	C15H14+
195.0804	108	C14H11O+
195.117	29	C15H15+
196.0885	71	C14H12O+
197.0963	55	C14H13O+
198.1038	24	C14H14O+
199.1116	67	C14H15O+
203.0862	40	C16H11+
204.0935	34	C16H12+
205.1019	43	C16H13+
206.1093	17	C16H14+
207.0806	45	C15H11O+
207.117	17	C16H15+
208.0882	129	C15H12O+
208.1243	24	C16H16+
209.0962	254	C15H13O+
210.104	80	C15H14O+
211.112	70	C15H15O+
213.1279	29	C15H17O+
217.1015	30	C17H13+
218.1093	22	C17H14+
219.0808	31	C16H11O+
219.1171	46	C17H15+
220.0885	21	C16H12O+
221.0959	112	C16H13O+
221.1331	17	C17H17+
222.104	254	C16H14O+
223.1118	166	C16H15O+
224.1194	72	C16H16O+
225.1274	33	C16H17O+
227.1067	24	C15H15O2+
229.1223	20	C15H17O2+
231.081	15	C17H11O+
231.1174	30	C18H15+
233.0967	42	C17H13O+
233.1325	26	C18H17+
234.1034	60	C17H14O+
235.1118	122	C17H15O+
236.1196	167	C17H16O+
237.1273	154	C17H17O+
238.1351	31	C17H18O+
239.1435	13	C17H19O+
245.096	21	C18H13O+
246.1039	17	C18H14O+
247.1119	31	C18H15O+
247.1487	35	C19H19+
248.1198	53	C18H16O+
249.1275	189	C18H17O+
250.1356	20	C18H18O+
251.1427	71	C18H19O+
253.1589	18	C18H21O+
259.1117	97	C19H15O+
260.1195	18	C19H16O+
261.1645	14	C20H21+
263.143	161	C19H19O+
264.1516	28	C19H20O+
273.127	93	C20H17O+
277.1603	27	C20H21O+
279.1746	88	C20H23O+
287.1431	17	C21H19O+
288.1516	20	C21H20O+
