Mass spectrum: N-[3-(Dimethylamino)propyl]dodecanamide; LC-ESI-QFT; MS2; CE: 75; R=17500; [M+H]+
Name: N-[3-(Dimethylamino)propyl]dodecanamide
Formula: C17H36N2O
Exact mass: 284.2828
SMILES: CCCCCCCCCCCC(=O)NCCCN(C)C
InChI: InChI=1S/C17H36N2O/c1-4-5-6-7-8-9-10-11-12-14-17(20)18-15-13-16-19(2)3/h4-16H2,1-3H3,(H,18,20)
Instrument: Q Exactive Orbitrap (Thermo Scientific)
Instrument type: LC-ESI-QFT
Ms type: MS2
Ion mode: POSITIVE
Ionization: ESI
Fragmentation mode: HCD
Collision energy: 75
Resolution: 17500
Column name: Acquity BEH C18 1.7um, 2.1x150mm (Waters)
Retention time: 17.468 min
Base peak: 79.0211
Precursor m/z: 285.29
Precursor type: [M+H]+
Precursor intensity: 66996325.90625
m/z	relative intensity	assigned
53.0022	37	C3HO+
53.0386	3	C4H5+
53.9975	5	C2NO+
55.0543	97	C4H7+
56.0495	1	C3H6N+
57.0699	999	C4H9+
58.0651	342	C3H8N+
65.0386	2	C5H5+
67.0542	149	C5H7+
69.0698	34	C5H9+
71.0855	373	C5H11+
72.0808	2	C4H10N+
79.0541	8	C6H7+
81.0699	125	C6H9+
83.0855	57	C6H11+
84.081	3	C5H10N+
85.1012	145	C6H13+
86.0964	144	C5H12N+
93.0698	6	C7H9+
95.0856	221	C7H11+
97.1012	19	C7H13+
99.0805	2	C6H11O+
99.1169	2	C7H15+
103.1232	2	C5H15N2+
109.1012	85	C8H13+
123.1168	18	C9H15+
165.1642	2	C12H21+
183.1743	10	C12H23O+
240.2324	27	C15H30NO+
