Mass spectrum: 2-(N-Ethyl-m-toluidino)ethanol; LC-ESI-QFT; MS2; CE: 90; R=17500; [M+H]+
Name: 2-(N-Ethyl-m-toluidino)ethanol
Name: 2-(N-ethyl-3-methylanilino)ethanol
Formula: C11H17NO
Exact mass: 179.1310
SMILES: CCN(CCO)C1=CC(C)=CC=C1
InChI: InChI=1S/C11H17NO/c1-3-12(7-8-13)11-6-4-5-10(2)9-11/h4-6,9,13H,3,7-8H2,1-2H3
Instrument: Q Exactive Orbitrap (Thermo Scientific)
Instrument type: LC-ESI-QFT
Ms type: MS2
Ion mode: POSITIVE
Ionization: ESI
Fragmentation mode: HCD
Collision energy: 90
Resolution: 17500
Column name: Acquity BEH C18 1.7um, 2.1x150mm (Waters)
Retention time: 10.199 min
Base peak: 79.0211
Precursor m/z: 180.1383
Precursor type: [M+H]+
Precursor intensity: 30518623.4375
m/z	relative intensity	assigned
53.0387	1	C4H5+
65.0385	10	C5H5+
77.0386	1	C6H5+
79.0541	6	C6H7+
80.0495	1	C5H6N+
91.0542	94	C7H7+
92.0495	2	C6H6N+
92.062	21	C7H8+
93.0573	20	C6H7N+
93.0699	31	C7H9+
94.0652	1	C6H8N+
95.0491	5	C6H7O+
103.0542	3	C8H7+
104.0496	3	C7H6N+
105.0574	1	C7H7N+
105.0699	7	C8H9+
106.0651	54	C7H8N+
107.0729	58	C7H9N+
108.0808	23	C7H10N+
109.0649	11	C7H9O+
110.0601	1	C6H8NO+
115.0543	8	C9H7+
117.0573	8	C8H7N+
117.0699	5	C9H9+
118.0652	68	C8H8N+
119.0731	56	C8H9N+
120.0808	999	C8H10N+
121.0885	12	C8H11N+
130.0653	1	C9H8N+
131.0729	2	C9H9N+
132.0808	66	C9H10N+
133.0885	8	C9H11N+
134.0964	62	C9H12N+
135.1042	14	C9H13N+
136.112	6	C9H14N+
146.0964	3	C10H12N+
147.1041	2	C10H13N+
151.0993	1	C9H13NO+
162.1275	1	C11H16N+
