Mass spectrum: Pyraflufen-ethyl; LC-ESI-QFT; MS2; CE: 60; R=17500; [M+H]+
Name: Pyraflufen-ethyl
Name: ethyl 2-[2-chloro-5-[4-chloro-5-(difluoromethoxy)-1-methylpyrazol-3-yl]-4-fluorophenoxy]acetate
Formula: C15H13Cl2F3N2O4
Exact mass: 412.0204
SMILES: CCOC(=O)COC1=C(Cl)C=C(F)C(=C1)C1=NN(C)C(OC(F)F)=C1Cl
InChI: InChI=1S/C15H13Cl2F3N2O4/c1-3-24-11(23)6-25-10-4-7(9(18)5-8(10)16)13-12(17)14(22(2)21-13)26-15(19)20/h4-5,15H,3,6H2,1-2H3
Instrument: Q Exactive Orbitrap (Thermo Scientific)
Instrument type: LC-ESI-QFT
Ms type: MS2
Ion mode: POSITIVE
Ionization: ESI
Fragmentation mode: HCD
Collision energy: 60
Resolution: 17500
Column name: Acquity BEH C18 1.7um, 2.1x150mm (Waters)
Retention time: 18.455 min
Base peak: 79.0211
Precursor m/z: 413.0277
Precursor type: [M+H]+
Precursor intensity: 5474228.8125
m/z	relative intensity	assigned
58.0287	15	C2H4NO+
62.9632	24	CClO+
75.9949	6	C2H3ClN+
78.0105	19	C2H5ClN+
97.0397	7	C4H5N2O+
115.9898	6	C4H3ClNO+
123.024	3	C7H4FO+
124.0214	9	F3H5NO3+
131.0055	2	C6H5ClF+
133.0448	16	C9H6F+
134.04	4	C8H5FN+
134.0526	6	C9H7F+
135.0478	12	C8H6FN+
137.0269	2	C7H4FNO+
140.9901	15	C7H3ClF+
142.0527	9	C9H6N2+
143.0058	2	C7H5ClF+
143.0603	3	C9H7N2+
147.0242	5	C9H4FO+
147.0353	3	C8H4FN2+
148.0194	20	C8H3FNO+
148.0562	2	C9H7FN+
150.0106	3	C8H5ClN+
150.0348	3	C8H5FNO+
151.0184	3	C8H6ClN+
155.0058	6	C8H5ClF+
156.0011	66	C7H4ClFN+
156.9852	7	C7H3ClFO+
158.0167	3	C7H6ClFN+
158.0838	3	C10H10N2+
161.0399	19	C10H6FO+
161.051	90	C9H6FN2+
162.0352	8	C9H5FNO+
162.0588	21	C9H7FN2+
162.9947	3	C9H4ClO+
163.0427	6	C9H6FNO+
163.0664	11	C9H8FN2+
163.9897	3	C8H3ClNO+
164.0011	2	Cl2FH11O4+
164.0506	10	C9H7FNO+
166.0298	23	C8H5FNO2+
167.0058	5	C9H5ClF+
168.0011	99	C8H4ClFN+
168.9851	11	C8H3ClFO+
169.0088	57	C8H5ClFN+
170.0169	10	C8H6ClFN+
171.055	5	C10H7N2O+
171.9716	11	C7H4Cl2N+
171.9959	3	C7H4ClFNO+
173.0512	10	C10H6FN2+
174.0349	4	C10H5FNO+
175.0193	9	C7H7ClFNO+
175.0303	16	C9H4FN2O+
175.0666	4	C10H8FN2+
176.0506	3	C10H7FNO+
176.9669	39	C7H4Cl2F+
177.0214	117	C9H6ClN2+
178.0055	4	C9H5ClNO+
178.0295	6	C9H7ClN2+
180.0011	3	C9H4ClFN+
180.0456	2	C9H7FNO2+
182.0168	5	C9H6ClFN+
183.0251	2	C9H5F2O2+
183.9715	6	C8H4Cl2N+
183.996	97	C8H4ClFNO+
184.0197	5	C8H6ClFN2+
185.0276	5	C8H7ClFN2+
186.0118	17	C8H6ClFNO+
189.046	69	C10H6FN2O+
190.0537	312	C10H7FN2O+
191.0615	40	C10H8FN2O+
191.9778	25	C7H5Cl2FN+
193.0297	21	C10H6FO3+
194.9883	5	C9H3ClFNO+
195.0122	13	C9H5ClFN2+
195.0324	5	C9H6FNO3+
195.9961	44	C9H4ClFNO+
197.0167	27	C5H4F3N2O3+
197.0276	251	C9H7ClFN2+
198.0118	23	C9H6ClFNO+
198.0354	5	C9H8ClFN2+
199.0195	5	C9H7ClFNO+
199.9671	8	C8H2ClFO3+
200.0273	6	C9H8ClFNO+
201.0461	24	C11H6FN2O+
201.9622	78	C8H3Cl2FN+
203.9778	47	C8H5Cl2FN+
204.9621	2	C3HClF3N2O3+
204.9733	3	C7H4Cl2FN2+
205.0164	45	C10H6ClN2O+
205.0403	2	C10H6FN2O2+
206.0242	20	C10H7ClN2O+
207.0123	3	C10H5ClFN2+
207.0321	6	C10H8ClN2O+
207.0453	7	C11H8FO3+
208.0199	10	C10H6ClFN2+
209.0005	6	C7H9Cl2NO2+
209.9877	5	C10H4ClFO2+
209.9991	25	C9H4ClFN2O+
210.0118	7	C10H6ClFNO+
210.9958	17	C10H5ClFO2+
211.9668	6	C9H2ClFO3+
211.9908	14	C9H4ClFNO2+
212.0271	6	C10H8ClFNO+
212.082	43	C14H12O2+
213.0226	138	C9H7ClFN2O+
214.0065	35	C9H6ClFNO2+
217.041	8	C11H6FN2O2+
217.0605	2	C11H9N2O3+
218.0487	40	C11H7FN2O2+
218.9648	8	C8H4Cl2FNO+
219.0564	50	C11H8FN2O2+
219.9725	23	C8H5Cl2FNO+
223.0068	2	C10H5ClFN2O+
223.991	179	C10H4ClFNO2+
225.0226	254	C10H7ClFN2O+
226.0304	315	C10H8ClFN2O+
229.9569	13	C9H3Cl2FNO+
230.9775	11	C10H6Cl2FO+
231.973	8	C9H5Cl2FNO+
232.9685	2	C8H2ClF2NO3+
234.019	59	C11H7ClN2O2+
235.0271	18	C11H8ClN2O2+
237.0224	10	C11H7ClFN2O+
237.9942	3	C10H4ClFN2O2+
240.0095	10	C10H6ClFN2O2+
240.9936	24	C10H5ClFNO3+
241.0175	48	C10H7ClFN2O2+
242.0016	38	C10H6ClFNO3+
242.0255	6	C10H8ClFN2O2+
246.9838	13	C12HF2O4+
247.9915	152	C9H7Cl2FN2O+
252.0099	8	C11H6ClFN2O2+
253.0175	999	C11H7ClFN2O2+
254.0253	472	C11H8ClFN2O2+
255.033	8	C11H9ClFN2O2+
256.0172	29	C11H8ClFNO3+
260.9993	615	C10H8Cl2FN2O+
263.0197	10	C12H11Cl2F2+
268.988	73	C11H7Cl2N2O2+
275.9864	434	C10H7Cl2FN2O2+
276.9941	46	C10H8Cl2FN2O2+
285.0236	9	C12H8ClF2N2O2+
288.9942	271	C11H8Cl2FN2O2+
303.0141	31	C12H7ClF3N2O2+
304.022	45	C12H8ClF3N2O2+
310.996	8	C11H8Cl2F3N2O+
316.9897	3	C9H9Cl2F2N2O4+
318.9848	4	C12H7Cl2F2N2O2+
325.9834	10	C11H7Cl2F3N2O2+
334.9994	21	C12H10Cl2FN2O4+
338.9908	5	C12H8Cl2F3N2O2+
