Mass spectrum: 3-Hydroxy-2-naphthoic o-anisidide; LC-ESI-QFT; MS2; CE: 60; R=17500; [M-H]-
Name: 3-Hydroxy-2-naphthoic o-anisidide
Name: 3-Hydroxy-2'-methoxy-2-naphthanilide
Name: 3-hydroxy-N-(2-methoxyphenyl)naphthalene-2-carboxamide
Formula: C18H15NO3
Exact mass: 293.1052
SMILES: COC1=CC=CC=C1NC(=O)C1=CC2=C(C=CC=C2)C=C1O
InChI: InChI=1S/C18H15NO3/c1-22-17-9-5-4-8-15(17)19-18(21)14-10-12-6-2-3-7-13(12)11-16(14)20/h2-11,20H,1H3,(H,19,21)
Instrument: Q Exactive Orbitrap (Thermo Scientific)
Instrument type: LC-ESI-QFT
Ms type: MS2
Ion mode: NEGATIVE
Ionization: ESI
Fragmentation mode: HCD
Collision energy: 60
Resolution: 17500
Column name: Acquity BEH C18 1.7um, 2.1x150mm (Waters)
Retention time: 18.323 min
Base peak: 292.0981
Precursor m/z: 292.0979
Precursor type: [M-H]-
Precursor intensity: 48901995.51562
m/z	relative intensity	assigned
90.035	1	C6H4N-
91.0189	1	C6H3O-
93.0346	2	C6H5O-
106.0426	1	C7H6O-
107.0376	979	C6H5NO-
108.0217	3	C6H4O2-
115.0553	30	C9H7-
117.0348	1	C8H5O-
118.0298	5	C7H4NO-
119.0502	1	C8H7O-
122.061	1	C7H8NO-
130.0424	11	C9H6O-
134.0247	999	C7H4NO2-
141.0708	4	C11H9-
142.0425	4	C10H6O-
143.0502	342	C10H7O-
145.0293	1	C9H5O2-
158.0372	5	C10H6O2-
159.0451	7	C10H7O2-
168.0454	19	C11H6NO-
184.0403	1	C11H6NO2-
216.0814	3	C16H10N-
218.0616	1	C15H8NO-
232.0769	17	C16H10NO-
233.0608	18	C16H9O2-
248.0722	4	C16H10NO2-
249.0793	4	C16H11NO2-
260.0716	17	C17H10NO2-
276.0665	54	C17H10NO3-
277.0744	16	C17H11NO3-
