Mass spectrum: Ilepatril; LC-ESI-QFT; MS2; CE: 30; R=17500; [M+H]+
Name: Ilepatril
Name: (4S,7S,12bR)-7-[[(2S)-2-acetylsulfanyl-3-methylbutanoyl]amino]-6-oxo-2,3,4,7,8,12b-hexahydro-1H-pyrido[2,1-a][2]benzazepine-4-carboxylic acid
Formula: C22H28N2O5S
Exact mass: 432.1719
SMILES: CC(C)[C@H](SC(C)=O)C(=O)N[C@H]1CC2=C(C=CC=C2)[C@H]2CCC[C@H](N2C1=O)C(O)=O
InChI: InChI=1S/C22H28N2O5S/c1-12(2)19(30-13(3)25)20(26)23-16-11-14-7-4-5-8-15(14)17-9-6-10-18(22(28)29)24(17)21(16)27/h4-5,7-8,12,16-19H,6,9-11H2,1-3H3,(H,23,26)(H,28,29)/t16-,17+,18-,19-/m0/s1
Instrument: Q Exactive Orbitrap (Thermo Scientific)
Instrument type: LC-ESI-QFT
Ms type: MS2
Ion mode: POSITIVE
Ionization: ESI
Fragmentation mode: HCD
Collision energy: 30
Resolution: 17500
Column name: Acquity BEH C18 1.7um, 2.1x150mm (Waters)
Retention time: 16.899 min
Base peak: 79.0212
Precursor m/z: 433.1792
Precursor type: [M+H]+
Precursor intensity: 10840034.8125
m/z	relative intensity	assigned
55.0543	4	C4H7+
56.0495	4	C3H6N+
89.0419	152	C4H9S+
91.0546	1	C7H7+
114.0552	2	C5H8NO2+
128.0705	14	C6H10NO2+
129.07	2	C10H9+
131.0525	671	C6H11OS+
134.0635	2	C5H12NOS+
141.0696	3	C11H9+
143.0861	2	C11H11+
146.0965	6	C10H12N+
158.0963	10	C11H12N+
159.0474	174	C7H11O2S+
167.0856	7	C13H11+
169.1011	32	C13H13+
170.0964	10	C12H12N+
182.0962	4	C13H12N+
184.112	999	C13H14N+
186.1277	21	C13H16N+
194.0966	3	C14H12N+
196.1122	1	C14H14N+
197.0958	2	C14H13O+
200.1068	2	C13H14NO+
201.1386	119	C13H17N2+
202.123	4	C13H16NO+
211.1231	2	C14H15N2+
212.1068	11	C14H14NO+
216.1018	41	C13H14NO2+
228.1017	31	C14H14NO2+
229.1335	299	C14H17N2O+
230.1175	694	C14H16NO2+
232.1332	8	C14H18NO2+
240.102	19	C15H14NO2+
247.1441	36	C14H19N2O2+
255.1127	4	C15H15N2O2+
257.1281	23	C15H17N2O2+
258.1123	9	C15H16NO3+
271.1438	21	C16H19N2O2+
275.1389	171	C15H19N2O3+
299.1384	10	C17H19N2O3+
301.1734	4	C18H25N2S+
311.1751	71	C19H23N2O2+
317.168	172	C18H25N2OS+
327.1522	14	C19H23N2OS+
345.163	991	C19H25N2O2S+
357.1816	8	C20H25N2O4+
359.1785	220	C20H27N2O2S+
363.1741	5	C19H27N2O3S+
373.1579	289	C20H25N2O3S+
387.1735	349	C21H27N2O3S+
391.1684	28	C20H27N2O4S+
415.1685	67	C22H27N2O4S+
