Mass spectrum: Meloxicam; LC-ESI-QFT; MS2; CE: 60; R=17500; [M+H]+
Name: Meloxicam
Name: 4-hydroxy-2-methyl-N-(5-methyl-1,3-thiazol-2-yl)-1,1-dioxo-1lambda6,2-benzothiazine-3-carboxamide
Formula: C14H13N3O4S2
Exact mass: 351.0347
SMILES: CN1C(C(=O)NC2=NC=C(C)S2)=C(O)C2=C(C=CC=C2)S1(=O)=O
InChI: InChI=1S/C14H13N3O4S2/c1-8-7-15-14(22-8)16-13(19)11-12(18)9-5-3-4-6-10(9)23(20,21)17(11)2/h3-7,18H,1-2H3,(H,15,16,19)
Instrument: Q Exactive Orbitrap (Thermo Scientific)
Instrument type: LC-ESI-QFT
Ms type: MS2
Ion mode: POSITIVE
Ionization: ESI
Fragmentation mode: HCD
Collision energy: 60
Resolution: 17500
Column name: Acquity BEH C18 1.7um, 2.1x150mm (Waters)
Retention time: 16.851 min
Base peak: 79.0211
Precursor m/z: 352.042
Precursor type: [M+H]+
Precursor intensity: 9784488.3125
m/z	relative intensity	assigned
56.0494	3	C3H6N+
58.0288	1	C2H4NO+
59.9902	1	CH2NS+
69.0446	1	C3H5N2+
70.0287	2	C3H4NO+
73.0106	168	C3H5S+
86.0059	1	C3H4NS+
88.0216	42	C3H6NS+
91.0543	1	C7H7+
97.0108	1	C5H5S+
105.0335	2	C7H5O+
109.0108	8	C6H5S+
113.0169	5	C4H5N2S+
114.001	8	C4H4NOS+
115.0325	999	C4H7N2S+
118.065	1	C8H8N+
125.0057	3	C6H5OS+
125.0171	1	C5H5N2S+
127.0325	4	C5H7N2S+
137.0057	6	C7H5OS+
141.0117	363	C5H5N2OS+
143.0274	1	C5H7N2OS+
146.06	2	C9H8NO+
153.0006	24	C7H5O2S+
164.0165	5	C8H6NOS+
168.9953	5	C7H5O3S+
182.0276	1	C8H8NO2S+
210.0221	3	C9H8NO3S+
270.044	1	C14H10N2O2S+
