Mass spectrum: Prednisone; LC-ESI-QFT; MS2; CE: 45; R=17500; [M+H]+
Name: Prednisone
Name: (8S,9S,10R,13S,14S,17R)-17-hydroxy-17-(2-hydroxyacetyl)-10,13-dimethyl-6,7,8,9,12,14,15,16-octahydrocyclopenta[a]phenanthrene-3,11-dione
Formula: C21H26O5
Exact mass: 358.1780
SMILES: C[C@]12CC(=O)[C@H]3[C@@H](CCC4=CC(=O)C=C[C@]34C)[C@@H]1CC[C@]2(O)C(=O)CO
InChI: InChI=1S/C21H26O5/c1-19-7-5-13(23)9-12(19)3-4-14-15-6-8-21(26,17(25)11-22)20(15,2)10-16(24)18(14)19/h5,7,9,14-15,18,22,26H,3-4,6,8,10-11H2,1-2H3/t14-,15-,18+,19-,20-,21-/m0/s1
Instrument: Q Exactive Orbitrap (Thermo Scientific)
Instrument type: LC-ESI-QFT
Ms type: MS2
Ion mode: POSITIVE
Ionization: ESI
Fragmentation mode: HCD
Collision energy: 45
Resolution: 17500
Column name: Acquity BEH C18 1.7um, 2.1x150mm (Waters)
Retention time: 15.437 min
Base peak: 79.0211
Precursor m/z: 359.1853
Precursor type: [M+H]+
Precursor intensity: 4631024.75
m/z	relative intensity	assigned
53.0386	8	C4H5+
55.0178	26	C3H3O+
55.0542	35	C4H7+
57.0334	12	C3H5O+
67.0542	55	C5H7+
69.0335	43	C4H5O+
69.0698	34	C5H9+
71.0491	31	C4H7O+
73.0647	21	C4H9O+
75.0439	8	C3H7O2+
79.0542	88	C6H7+
81.0335	18	C5H5O+
81.0698	146	C6H9+
83.0492	38	C5H7O+
85.0648	20	C5H9O+
91.0542	86	C7H7+
93.0699	230	C7H9+
95.0491	129	C6H7O+
95.0855	204	C7H11+
97.0648	60	C6H9O+
99.0441	34	C5H7O2+
101.0597	17	C5H9O2+
105.0698	112	C8H9+
107.049	21	C7H7O+
107.0855	195	C8H11+
109.0647	178	C7H9O+
109.1012	40	C8H13+
111.0441	31	C6H7O2+
111.0804	62	C7H11O+
115.0542	12	C9H7+
117.0698	59	C9H9+
119.0854	112	C9H11+
121.0648	327	C8H9O+
123.0803	66	C8H11O+
125.0598	19	C7H9O2+
125.0961	26	C8H13O+
128.0621	8	C10H8+
129.0698	29	C10H9+
131.0855	60	C10H11+
133.0647	64	C9H9O+
133.101	21	C10H13+
135.0804	263	C9H11O+
137.0597	20	C8H9O2+
137.096	29	C9H13O+
139.0751	37	C8H11O2+
141.0697	21	C11H9+
143.0857	23	C11H11+
145.0648	100	C10H9O+
145.1011	19	C11H13+
146.0728	24	C10H10O+
147.0804	999	C10H11O+
149.0598	10	C9H9O2+
149.0962	24	C10H13O+
151.0754	15	C9H11O2+
153.0699	15	C12H9+
153.0909	35	C9H13O2+
155.0857	23	C12H11+
157.065	15	C11H9O+
157.1009	10	C12H13+
158.0726	33	C11H10O+
159.0804	432	C11H11O+
160.0883	20	C11H12O+
161.0961	166	C11H13O+
163.0753	67	C10H11O2+
165.091	10	C10H13O2+
167.0856	14	C13H11+
169.0648	14	C12H9O+
169.1012	30	C13H13+
170.0729	10	C12H10O+
171.0804	637	C12H11O+
172.0886	8	C12H12O+
173.0961	332	C12H13O+
175.0756	15	C11H11O2+
175.1116	14	C12H15O+
177.0911	19	C11H13O2+
179.0855	69	C14H11+
181.0647	19	C13H9O+
181.101	33	C14H13+
182.0727	21	C13H10O+
183.0805	115	C13H11O+
183.1016	8	C10H15O3+
184.0883	16	C13H12O+
185.0598	18	C12H9O2+
185.096	129	C13H13O+
186.1037	22	C13H14O+
187.0754	130	C12H11O2+
187.1117	135	C13H15O+
189.0907	45	C12H13O2+
191.0856	10	C15H11+
192.0933	10	C15H12+
193.1011	21	C15H13+
194.0726	12	C14H10O+
195.0804	66	C14H11O+
195.1168	16	C15H15+
196.0882	39	C14H12O+
197.096	255	C14H13O+
198.1036	15	C14H14O+
199.1117	168	C14H15O+
201.0912	9	C13H13O2+
201.1268	11	C14H17O+
204.0934	14	C16H12+
205.1009	20	C16H13+
207.1168	25	C16H15+
208.0885	64	C15H12O+
209.0961	168	C15H13O+
209.1322	32	C16H17+
210.1037	51	C15H14O+
211.1117	149	C15H15O+
212.1193	63	C15H16O+
213.091	25	C14H13O2+
213.1273	76	C15H17O+
215.1067	26	C14H15O2+
216.094	7	C17H12+
219.0813	7	C16H11O+
219.1169	41	C17H15+
220.0881	18	C16H12O+
221.096	113	C16H13O+
221.1326	13	C17H17+
222.1039	200	C16H14O+
223.1117	168	C16H15O+
224.1191	43	C16H16O+
225.0915	14	C15H13O2+
225.1275	139	C16H17O+
227.1068	26	C15H15O2+
227.1431	119	C16H19O+
228.0941	7	C18H12+
229.1019	8	C18H13+
230.1092	8	C18H14+
231.0793	7	C17H11O+
231.1167	11	C18H15+
232.089	10	C17H12O+
233.0961	37	C17H13O+
234.104	62	C17H14O+
235.1117	136	C17H15O+
236.1197	30	C17H16O+
237.1273	379	C17H17O+
238.0988	25	C16H14O2+
238.1353	31	C17H18O+
239.1065	53	C16H15O2+
239.1428	134	C17H19O+
240.1144	13	C16H16O2+
241.1218	13	C16H17O2+
243.1168	11	C19H15+
245.096	14	C18H13O+
245.1322	11	C19H17+
246.1037	67	C18H14O+
247.1115	41	C18H15O+
247.1485	16	C19H19+
248.1195	93	C18H16O+
249.1274	186	C18H17O+
250.1356	18	C18H18O+
251.1063	10	C17H15O2+
251.1432	65	C18H19O+
252.1512	16	C18H20O+
253.1223	105	C17H17O2+
253.1589	36	C18H21O+
255.138	71	C17H19O2+
257.0962	10	C19H13O+
258.1041	10	C19H14O+
259.1117	13	C19H15O+
259.1483	9	C20H19+
260.1193	27	C19H16O+
261.1275	46	C19H17O+
262.1351	78	C19H18O+
263.1428	148	C19H19O+
264.1509	63	C19H20O+
265.1222	10	C18H17O2+
265.1587	184	C19H21O+
267.1382	61	C18H19O2+
267.1744	17	C19H23O+
272.1195	47	C20H16O+
275.1431	28	C20H19O+
277.1224	16	C19H17O2+
277.1582	81	C20H21O+
279.1377	13	C19H19O2+
280.1458	13	C19H20O2+
281.1536	22	C19H21O2+
287.1433	30	C21H19O+
290.1307	15	C20H18O2+
292.1464	40	C20H20O2+
293.1534	37	C20H21O2+
295.1691	32	C20H23O2+
297.1493	16	C19H21O3+
305.1535	15	C21H21O2+
323.1631	14	C21H23O3+
