Mass spectrum: Di(2-methoxyethyl) phthalate; LC-ESI-QFT; MS2; CE: 30; R=17500; [M+H]+
Name: Di(2-methoxyethyl) phthalate
Name: Bis(2-methoxyethyl) phthalate
Name: bis(2-methoxyethyl) benzene-1,2-dicarboxylate
Formula: C14H18O6
Exact mass: 282.1103
SMILES: COCCOC(=O)C1=C(C=CC=C1)C(=O)OCCOC
InChI: InChI=1S/C14H18O6/c1-17-7-9-19-13(15)11-5-3-4-6-12(11)14(16)20-10-8-18-2/h3-6H,7-10H2,1-2H3
Instrument: Q Exactive Orbitrap (Thermo Scientific)
Instrument type: LC-ESI-QFT
Ms type: MS2
Ion mode: POSITIVE
Ionization: ESI
Fragmentation mode: HCD
Collision energy: 30
Resolution: 17500
Column name: Acquity BEH C18 1.7um, 2.1x150mm (Waters)
Retention time: 14.927 min
Base peak: 79.0211
Precursor m/z: 283.1176
Precursor type: [M+H]+
Precursor intensity: 1835567.625
m/z	relative intensity	assigned
59.0492	999	C3H7O+
283.1172	349	C14H19O6+
