Mass spectrum: Ingliforib; LC-ESI-QFT; MS2; CE: 15; R=17500; [M+H]+
Name: Ingliforib
Name: 5-chloro-N-[(2S,3R)-4-[(3R,4S)-3,4-dihydroxypyrrolidin-1-yl]-3-hydroxy-4-oxo-1-phenylbutan-2-yl]-1H-indole-2-carboxamide
Formula: C23H24ClN3O5
Exact mass: 457.1404
SMILES: O[C@H]([C@H](CC1=CC=CC=C1)NC(=O)C1=CC2=CC(Cl)=CC=C2N1)C(=O)N1C[C@H](O)[C@H](O)C1
InChI: InChI=1S/C23H24ClN3O5/c24-15-6-7-16-14(9-15)10-18(25-16)22(31)26-17(8-13-4-2-1-3-5-13)21(30)23(32)27-11-19(28)20(29)12-27/h1-7,9-10,17,19-21,25,28-30H,8,11-12H2,(H,26,31)/t17-,19-,20+,21+/m0/s1
Instrument: Q Exactive Orbitrap (Thermo Scientific)
Instrument type: LC-ESI-QFT
Ms type: MS2
Ion mode: POSITIVE
Ionization: ESI
Fragmentation mode: HCD
Collision energy: 15
Resolution: 17500
Column name: Acquity BEH C18 1.7um, 2.1x150mm (Waters)
Retention time: 17.390 min
Base peak: 79.0211
Precursor m/z: 458.1477
Precursor type: [M+H]+
Precursor intensity: 7133066.5
m/z	relative intensity	assigned
58.0653	1	C3H8N+
68.0494	2	C4H6N+
74.0963	1	C4H12N+
86.0599	4	C4H8NO+
91.0545	1	C7H7+
104.0705	999	C4H10NO2+
120.0808	13	C8H10N+
132.0806	16	C9H10N+
133.0642	1	C9H9O+
161.0598	9	C10H9O2+
162.076	1	C6H12NO4+
178.0067	38	C9H5ClNO+
236.0104	1	C14H4O4+
246.1124	4	C14H16NO3+
263.1389	1	C14H19N2O3+
281.1494	39	C14H21N2O4+
307.1288	17	C15H19N2O5+
309.0788	3	C18H14ClN2O+
327.0894	678	C18H16ClN2O2+
341.024	16	C21H8ClNO2+
355.0843	706	C19H16ClN2O3+
440.1373	367	C23H23ClN3O4+
