Mass spectrum: Bicalutamide; LC-ESI-QFT; MS2; CE: 90; R=17500; [M-H]-
Name: Bicalutamide
Name: N-[4-cyano-3-(trifluoromethyl)phenyl]-3-(4-fluorophenyl)sulfonyl-2-hydroxy-2-methylpropanamide
Formula: C18H14F4N2O4S
Exact mass: 430.0610
SMILES: CC(O)(CS(=O)(=O)C1=CC=C(F)C=C1)C(=O)NC1=CC(=C(C=C1)C#N)C(F)(F)F
InChI: InChI=1S/C18H14F4N2O4S/c1-17(26,10-29(27,28)14-6-3-12(19)4-7-14)16(25)24-13-5-2-11(9-23)15(8-13)18(20,21)22/h2-8,26H,10H2,1H3,(H,24,25)
Instrument: Q Exactive Orbitrap (Thermo Scientific)
Instrument type: LC-ESI-QFT
Ms type: MS2
Ion mode: NEGATIVE
Ionization: ESI
Fragmentation mode: HCD
Collision energy: 90
Resolution: 17500
Column name: Acquity BEH C18 1.7um, 2.1x150mm (Waters)
Retention time: 16.682 min
Base peak: 429.0536
Precursor m/z: 429.0538
Precursor type: [M-H]-
Precursor intensity: 67332787.44141
m/z	relative intensity	assigned
59.0139	5	C2H3O2-
63.9625	217	O2S-
66.0349	1	C4H4N-
68.9958	5	CF3-
74.0036	9	C5N-
78.986	132	CH3O2S-
91.0189	4	C6H3O-
95.0303	34	C6H4F-
98.0037	30	C7N-
111.0252	22	C6H4FO-
115.0302	38	C7H3N2-
118.0099	21	C7HFN-
125.0145	37	C8HN2-
130.0173	19	C7H2N2O-
136.0204	5	C7H3FNO-
138.0161	28	C7H2F2N-
143.0052	1	C8FN2-
144.0258	1	C9H3FN-
145.0208	66	C8H2FN2-
158.0223	75	C7H3F3N-
165.027	25	C8H3F2N2-
183.0176	13	C8H2F3N2-
184.0255	3	C8H3F3N2-
184.0381	14	C9H5F3N-
185.0332	999	C8H4F3N2-
186.0172	2	C8H3F3NO-
231.037	1	C9H10FNO3S-
