Mass spectrum: Ro 23-7637; LC-ESI-QFT; MS2; CE: 45; R=17500; [M+H]+
Name: Ro 23-7637
Name: 1-[4-(2,2-diphenylethenyl)piperidin-1-yl]-9-pyridin-3-ylnonan-1-one
Formula: C33H40N2O
Exact mass: 480.3141
SMILES: O=C(CCCCCCCCC1=CN=CC=C1)N1CCC(CC1)C=C(C1=CC=CC=C1)C1=CC=CC=C1
InChI: InChI=1S/C33H40N2O/c36-33(20-12-4-2-1-3-7-14-29-15-13-23-34-27-29)35-24-21-28(22-25-35)26-32(30-16-8-5-9-17-30)31-18-10-6-11-19-31/h5-6,8-11,13,15-19,23,26-28H,1-4,7,12,14,20-22,24-25H2
Instrument: Q Exactive Orbitrap (Thermo Scientific)
Instrument type: LC-ESI-QFT
Ms type: MS2
Ion mode: POSITIVE
Ionization: ESI
Fragmentation mode: HCD
Collision energy: 45
Resolution: 17500
Column name: Acquity BEH C18 1.7um, 2.1x150mm (Waters)
Retention time: 19.459 min
Base peak: 79.0211
Precursor m/z: 481.3213
Precursor type: [M+H]+
Precursor intensity: 45662329
m/z	relative intensity	assigned
55.0542	11	C4H7+
56.0495	181	C3H6N+
57.0699	2	C4H9+
58.0651	3	C3H8N+
65.0385	3	C5H5+
67.0542	3	C5H7+
69.0573	3	C4H7N+
69.0698	1	C5H9+
80.0494	1	C5H6N+
82.0651	79	C5H8N+
84.0807	317	C5H10N+
85.1011	1	C6H13+
91.0542	33	C7H7+
92.0494	99	C6H6N+
93.0571	10	C6H7N+
94.0651	8	C6H8N+
96.0807	3	C6H10N+
105.0697	4	C8H9+
106.065	38	C7H8N+
107.0729	2	C7H9N+
110.0598	1	C6H8NO+
117.0698	17	C9H9+
118.065	1	C8H8N+
119.0729	3	C8H9N+
120.0807	13	C8H10N+
129.0697	5	C10H9+
131.0856	6	C10H11+
132.0806	8	C9H10N+
133.0886	6	C9H11N+
134.0963	15	C9H12N+
141.0698	1	C11H9+
143.0855	18	C11H11+
146.0965	1	C10H12N+
148.1119	10	C10H14N+
152.0619	1	C12H8+
155.0856	1	C12H11+
157.1013	1	C12H13+
160.112	8	C11H14N+
162.1278	1	C11H16N+
165.0697	2	C13H9+
166.0775	1	C13H10+
167.0854	363	C13H11+
169.1012	5	C13H13+
172.112	1	C12H14N+
179.0854	1	C14H11+
181.1011	8	C14H13+
186.1274	1	C13H16N+
190.1589	195	C13H20N+
191.0853	1	C15H11+
193.1011	1	C15H13+
205.101	4	C16H13+
207.1168	2	C16H15+
218.1538	924	C14H20NO+
219.1166	2	C17H15+
220.1693	1	C14H22NO+
264.1745	999	C19H22N+
481.3213	9	C33H41N2O+
