Mass spectrum: Pirimicarb; LC-ESI-QFT; MS2; CE: 15; R=17500; [M+H]+
Name: Pirimicarb
Name: [2-(dimethylamino)-5,6-dimethylpyrimidin-4-yl] N,N-dimethylcarbamate
Formula: C11H18N4O2
Exact mass: 238.1430
SMILES: CN(C)C(=O)OC1=C(C)C(C)=NC(=N1)N(C)C
InChI: InChI=1S/C11H18N4O2/c1-7-8(2)12-10(14(3)4)13-9(7)17-11(16)15(5)6/h1-6H3
Instrument: Q Exactive Orbitrap (Thermo Scientific)
Instrument type: LC-ESI-QFT
Ms type: MS2
Ion mode: POSITIVE
Ionization: ESI
Fragmentation mode: HCD
Collision energy: 15
Resolution: 17500
Column name: Acquity BEH C18 1.7um, 2.1x150mm (Waters)
Retention time: 12.680 min
Base peak: 79.0211
Precursor m/z: 239.1503
Precursor type: [M+H]+
Precursor intensity: 47647978.75
m/z	relative intensity	assigned
72.0443	430	C3H6NO+
166.0974	4	C8H12N3O+
167.1056	1	C8H13N3O+
182.1288	358	C9H16N3O+
194.0926	1	C9H12N3O2+
195.1605	46	C10H19N4+
239.1501	999	C11H19N4O2+
