Mass spectrum: Pyrazophos; LC-ESI-QFT; MS2; CE: 60; R=17500; [M+H]+
Name: Pyrazophos
Name: ethyl 2-diethoxyphosphinothioyloxy-5-methylpyrazolo[1,5-a]pyrimidine-6-carboxylate
Formula: C14H20N3O5PS
Exact mass: 373.0861
SMILES: CCOC(=O)C1=CN2N=C(OP(=S)(OCC)OCC)C=C2N=C1C
InChI: InChI=1S/C14H20N3O5PS/c1-5-19-14(18)11-9-17-12(15-10(11)4)8-13(16-17)22-23(24,20-6-2)21-7-3/h8-9H,5-7H2,1-4H3
Instrument: Q Exactive Orbitrap (Thermo Scientific)
Instrument type: LC-ESI-QFT
Ms type: MS2
Ion mode: POSITIVE
Ionization: ESI
Fragmentation mode: HCD
Collision energy: 60
Resolution: 17500
Column name: Acquity BEH C18 1.7um, 2.1x150mm (Waters)
Retention time: 18.878 min
Base peak: 79.0211
Precursor m/z: 374.0934
Precursor type: [M+H]+
Precursor intensity: 14983838.375
m/z	relative intensity	assigned
54.0339	1	C3H4N+
61.0107	1	C2H5S+
64.9787	41	H2O2P+
66.0339	2	C4H4N+
68.013	3	C3H2NO+
68.0494	1	C4H6N+
74.0964	1	C4H12N+
78.9943	1	CH4O2P+
80.0132	1	C4H2NO+
81.9813	1	H3O3P+
82.9892	5	H4O3P+
92.0494	2	C6H6N+
93.01	36	C2H6O2P+
93.0448	5	C5H5N2+
94.0287	4	C5H4NO+
95.0604	2	C5H7N2+
96.9508	6	H2O2PS+
98.9663	3	H4O2PS+
98.9842	14	H4O4P+
99.0553	2	C4H7N2O+
100.0393	2	C4H6NO2+
109.0048	2	C2H6O3P+
109.0397	1	C5H5N2O+
111.0554	2	C5H7N2O+
112.0393	1	C5H6NO2+
112.9999	1	CH6O4P+
113.9536	94	H3O3PS+
114.9613	262	H4O3PS+
120.0448	2	C3H9N2OP+
120.0556	10	C6H6N3+
121.0396	5	C6H5N2O+
122.0713	2	C6H8N3+
124.982	1	C2H6O2PS+
128.9769	10	CH6O3PS+
130.9562	8	H4O4PS+
131.0479	2	C7H5N3+
131.9641	1	H5O4PS+
132.9607	2	C2H2N2OPS+
132.972	3	H6O4PS+
133.0396	1	C7H5N2O+
133.0635	1	C7H7N3+
138.0663	1	C6H8N3O+
139.0502	21	C6H7N2O2+
141.9847	3	C2H7O3PS+
142.9926	10	C2H8O3PS+
145.9796	1	CH7O4PS+
146.9876	2	CH8O4PS+
148.0505	77	C7H6N3O+
149.0346	12	C7H5N2O2+
149.0584	1	C7H7N3O+
150.0662	6	C7H8N3O+
151.05	3	C7H7N2O2+
152.0581	4	C7H8N2O2+
159.0427	26	C8H5N3O+
160.0506	3	C8H6N3O+
164.0278	2	C7H6N3S+
165.0117	15	C7H5N2OS+
166.0611	77	C7H8N3O2+
167.0455	3	C3H10N3O3P+
172.9667	1	C2H6O5PS+
175.0377	2	C8H5N3O2+
176.0455	446	C8H6N3O2+
177.0532	163	C8H7N3O2+
178.0611	18	C8H8N3O2+
180.0765	1	C10H12O3+
180.0895	6	C9H12N2O2+
181.0066	17	C7H5N2O2S+
183.0223	125	C7H7N2O2S+
184.9673	1	C3H6O5PS+
190.007	2	C8H4N3OS+
192.0227	18	C8H6N3OS+
194.0561	999	C8H8N3O3+
199.0172	22	C7H7N2O3S+
205.0846	35	C10H11N3O2+
206.0925	10	C10H12N3O2+
208.0176	17	C8H6N3O2S+
208.0716	11	C9H10N3O3+
209.038	3	C9H9N2O2S+
210.0332	60	C8H8N3O2S+
211.0536	24	C9H11N2O2S+
212.0217	1	C11H4N2O3+
213.0329	4	C8H9N2O3S+
222.0873	78	C10H12N3O3+
227.0483	4	C9H11N2O3S+
236.0486	3	C10H10N3O2S+
238.0645	12	C10H12N3O2S+
239.0093	1	C8H6N3O4P+
241.0633	1	C10H13N2O3S+
253.978	5	C12H2N2O3S+
256.0119	7	C8H7N3O5P+
257.939	1	C11HNO3PS+
268.9755	1	C12H2N2O4P+
271.989	7	C8H7N3O4PS+
274.022	3	C14H11O2PS+
303.9445	2	C12H3NO5PS+
