Mass spectrum: SB236057A; LC-ESI-QFT; MS2; CE: 90; R=17500; [M+H]+
Name: SB236057A
Name: (1'-ethylspiro[6,7-dihydro-2H-furo[2,3-f]indole-3,4'-piperidine]-5-yl)-[4-[2-methyl-4-(5-methyl-1,3,4-oxadiazol-2-yl)phenyl]phenyl]methanone
Formula: C33H34N4O3
Exact mass: 534.2631
SMILES: CCN1CCC2(COC3=C2C=C2N(CCC2=C3)C(=O)C2=CC=C(C=C2)C2=CC=C(C=C2C)C2=NN=C(C)O2)CC1
InChI: InChI=1S/C33H34N4O3/c1-4-36-15-12-33(13-16-36)20-39-30-18-25-11-14-37(29(25)19-28(30)33)32(38)24-7-5-23(6-8-24)27-10-9-26(17-21(27)2)31-35-34-22(3)40-31/h5-10,17-19H,4,11-16,20H2,1-3H3
Instrument: Q Exactive Orbitrap (Thermo Scientific)
Instrument type: LC-ESI-QFT
Ms type: MS2
Ion mode: POSITIVE
Ionization: ESI
Fragmentation mode: HCD
Collision energy: 90
Resolution: 17500
Column name: Acquity BEH C18 1.7um, 2.1x150mm (Waters)
Retention time: 15.538 min
Base peak: 79.0211
Precursor m/z: 535.2704
Precursor type: [M+H]+
Precursor intensity: 12218868.5
m/z	relative intensity	assigned
53.0386	9	C4H5+
54.0338	3	C3H4N+
55.0291	4	C2H3N2+
55.0542	13	C4H7+
56.0131	28	C2H2NO+
56.0495	78	C3H6N+
57.0573	1	C3H7N+
58.0651	236	C3H8N+
65.0385	5	C5H5+
67.0416	5	C4H5N+
67.0542	10	C5H7+
68.0494	16	C4H6N+
69.0573	3	C4H7N+
69.0697	1	C5H9+
70.0651	6	C4H8N+
72.0807	5	C4H10N+
77.0384	2	C6H5+
79.0542	42	C6H7+
80.0495	16	C5H6N+
81.0573	10	C5H7N+
81.0699	28	C6H9+
82.0651	52	C5H8N+
83.024	58	C3H3N2O+
84.0808	100	C5H10N+
86.0963	4	C5H12N+
91.0542	8	C7H7+
93.0573	4	C6H7N+
93.07	2	C7H9+
94.0652	26	C6H8N+
95.0492	9	C6H7O+
95.0729	11	C6H9N+
96.0808	39	C6H10N+
97.0887	4	C6H11N+
105.0448	3	C6H5N2+
105.07	1	C8H9+
106.0652	1	C7H8N+
108.0808	41	C7H10N+
109.0885	4	C7H11N+
110.0964	290	C7H12N+
115.0542	15	C9H7+
117.0572	2	C8H7N+
117.0701	5	C9H9+
118.0651	3	C8H8N+
120.0808	2	C8H10N+
122.0962	4	C8H12N+
123.1042	1	C8H13N+
124.1121	18	C8H14N+
128.062	4	C10H8+
129.0699	5	C10H9+
130.0651	9	C9H8N+
131.0729	2	C9H9N+
132.0445	1	C8H6NO+
132.0808	1	C9H10N+
134.0599	3	C8H8NO+
139.0541	7	C11H7+
141.0699	42	C11H9+
143.073	5	C10H9N+
144.057	1	C10H8O+
144.0807	11	C10H10N+
145.0646	4	C10H9O+
146.0598	3	C9H8NO+
146.0965	3	C10H12N+
151.054	1	C12H7+
152.0621	115	C12H8+
153.0699	149	C12H9+
154.0651	5	C11H8N+
155.0488	1	C11H7O+
155.0606	5	C10H7N2+
156.081	4	C11H10N+
157.0651	1	C11H9O+
157.0885	2	C11H11N+
158.0726	1	C11H10O+
158.0963	6	C11H12N+
159.0803	1	C11H11O+
163.0541	5	C13H7+
164.0498	8	C12H6N+
164.062	10	C13H8+
165.0699	999	C13H9+
166.0776	124	C13H10+
167.0731	1	C12H9N+
167.0854	1	C13H11+
168.0569	23	C12H8O+
168.0805	2	C12H10N+
169.0524	11	C11H7NO+
169.0647	38	C12H9O+
170.06	2	C11H8NO+
170.0964	1	C12H12N+
171.0675	1	C11H9NO+
171.0803	2	C12H11O+
172.0757	11	C11H10NO+
173.0834	3	C11H11NO+
174.0914	7	C11H12NO+
177.0574	25	C13H7N+
177.0706	1	C14H9+
178.0651	11	C13H8N+
178.0777	8	C14H10+
179.0495	1	C13H7O+
179.0603	4	C12H7N2+
179.0729	13	C13H9N+
180.0807	111	C13H10N+
181.0647	2	C13H9O+
181.0759	4	C12H9N2+
182.0604	1	C12H8NO+
183.0804	45	C13H11O+
184.0753	4	C12H10NO+
185.0836	2	C12H11NO+
186.0915	9	C12H12NO+
190.0652	75	C14H8N+
191.073	81	C14H9N+
192.0808	16	C14H10N+
192.0933	2	C15H12+
193.0526	136	C13H7NO+
193.0647	237	C14H9O+
193.0756	54	C13H9N2+
194.0608	1	C13H8NO+
194.0726	4	C14H10O+
198.091	1	C13H12NO+
200.1074	1	C13H14NO+
204.0803	2	C15H10N+
206.0601	30	C14H8NO+
206.0964	5	C15H12N+
207.0679	16	C14H9NO+
208.0757	21	C14H10NO+
216.0679	1	C15H8N2+
220.0758	32	C15H10NO+
220.0874	2	C14H10N3+
226.0625	11	C14H10O3+
234.0781	1	C15H10N2O+
236.0706	8	C15H10NO2+
249.1021	4	C16H13N2O+
257.1648	1	C16H21N2O+
277.0971	11	C17H13N2O2+
