Mass spectrum: Folic acid; LC-ESI-QFT; MS2; CE: 45; R=17500; [M-H]-
Name: Folic acid
Name: (2S)-2-[[4-[(2-amino-4-oxo-1H-pteridin-6-yl)methylamino]benzoyl]amino]pentanedioic acid
Formula: C19H19N7O6
Exact mass: 441.1397
SMILES: NC1=NC(=O)C2=C(N1)N=CC(CNC1=CC=C(C=C1)C(=O)N[C@@H](CCC(O)=O)C(O)=O)=N2
InChI: InChI=1S/C19H19N7O6/c20-19-25-15-14(17(30)26-19)23-11(8-22-15)7-21-10-3-1-9(2-4-10)16(29)24-12(18(31)32)5-6-13(27)28/h1-4,8,12,21H,5-7H2,(H,24,29)(H,27,28)(H,31,32)(H3,20,22,25,26,30)/t12-/m0/s1
Instrument: Q Exactive Orbitrap (Thermo Scientific)
Instrument type: LC-ESI-QFT
Ms type: MS2
Ion mode: NEGATIVE
Ionization: ESI
Fragmentation mode: HCD
Collision energy: 45
Resolution: 17500
Column name: Acquity BEH C18 1.7um, 2.1x150mm (Waters)
Retention time: 11.004 min
Base peak: 116.9285
Precursor m/z: 440.1324
Precursor type: [M-H]-
Precursor intensity: 575069.996582
m/z	relative intensity	assigned
84.0455	34	C4H6NO-
92.0506	110	C6H6N-
102.0559	73	C4H8NO2-
119.0361	72	C5H3N4-
128.0354	198	C5H6NO3-
132.0442	482	C6H4N4-
135.0566	151	C7H7N2O-
136.0405	158	C7H6NO2-
146.0459	72	C5H8NO4-
147.0563	59	C8H7N2O-
162.0422	92	C6H4N5O-
164.0337	52	C6H4N4O2-
174.042	50	C7H4N5O-
175.05	999	C7H5N5O-
176.0577	73	C7H6N5O-
177.1034	149	C10H13N2O-
203.0828	102	C11H11N2O2-
207.0398	328	C7H5N5O3-
221.0935	180	C11H13N2O3-
267.1001	58	C13H11N6O-
268.0839	46	C13H10N5O2-
293.079	80	C14H9N6O2-
309.1475	26	C16H17N6O-
310.1059	27	C14H12N7O2-
311.09	237	C14H11N6O3-
334.1428	20	C17H16N7O-
353.1363	66	C17H17N6O3-
378.1309	67	C18H16N7O3-
396.1432	30	C18H18N7O4-
