Mass spectrum: Atorvastatin; LC-ESI-QFT; MS2; CE: 45; R=17500; [M+H]+
Name: Atorvastatin
Name: (3R,5R)-7-[2-(4-fluorophenyl)-3-phenyl-4-(phenylcarbamoyl)-5-propan-2-ylpyrrol-1-yl]-3,5-dihydroxyheptanoic acid
Formula: C33H35FN2O5
Exact mass: 558.2530
SMILES: CC(C)C1=C(C(=O)NC2=CC=CC=C2)C(=C(N1CC[C@@H](O)C[C@@H](O)CC(O)=O)C1=CC=C(F)C=C1)C1=CC=CC=C1
InChI: InChI=1S/C33H35FN2O5/c1-21(2)31-30(33(41)35-25-11-7-4-8-12-25)29(22-9-5-3-6-10-22)32(23-13-15-24(34)16-14-23)36(31)18-17-26(37)19-27(38)20-28(39)40/h3-16,21,26-27,37-38H,17-20H2,1-2H3,(H,35,41)(H,39,40)/t26-,27-/m1/s1
Instrument: Q Exactive Orbitrap (Thermo Scientific)
Instrument type: LC-ESI-QFT
Ms type: MS2
Ion mode: POSITIVE
Ionization: ESI
Fragmentation mode: HCD
Collision energy: 45
Resolution: 17500
Column name: Acquity BEH C18 1.7um, 2.1x150mm (Waters)
Retention time: 17.818 min
Base peak: 79.0211
Precursor m/z: 559.2603
Precursor type: [M+H]+
Precursor intensity: 7458368.125
m/z	relative intensity	assigned
53.0385	2	C4H5+
55.0542	6	C4H7+
57.0334	3	C3H5O+
67.0542	1	C5H7+
69.0698	1	C5H9+
71.0127	6	C3H3O2+
71.049	3	C4H7O+
79.0542	27	C6H7+
81.0698	2	C6H9+
83.0491	24	C5H7O+
89.0233	10	C3H5O3+
91.0542	2	C7H7+
92.0494	21	C6H6N+
95.0491	6	C6H7O+
97.0284	3	C5H5O2+
97.0648	5	C6H9O+
99.0804	6	C6H11O+
101.0597	15	C5H9O2+
104.0496	1	C7H6N+
105.0445	2	C6H5N2+
106.065	1	C7H8N+
107.0492	3	C7H7O+
109.0448	4	C7H6F+
113.0596	2	C6H9O2+
115.0542	2	C9H7+
117.0572	2	C8H7N+
120.0444	30	C7H6NO+
122.0399	2	C7H5FN+
125.0597	5	C7H9O2+
129.0697	3	C10H9+
132.0443	3	C8H6NO+
133.0446	4	C9H6F+
135.0479	1	C8H6FN+
143.0852	1	C11H11+
147.0604	1	C10H8F+
148.0558	1	C9H7FN+
154.0648	1	C11H8N+
155.0855	1	C12H11+
172.0557	1	C11H7FN+
180.081	1	C13H10N+
182.097	1	C13H12N+
185.0761	1	C13H10F+
197.0958	1	C14H13O+
203.0854	2	C16H11+
209.0761	7	C15H10F+
221.0764	1	C16H10F+
222.0707	1	C15H9FN+
223.0911	5	C16H12F+
230.0961	6	C17H12N+
233.076	16	C17H10F+
235.0791	7	C16H10FN+
236.0871	1	C16H11FN+
237.0949	15	C16H12FN+
238.1027	81	C16H13FN+
248.0869	22	C17H11FN+
249.0949	81	C17H12FN+
250.1026	999	C17H13FN+
251.1101	6	C17H14FN+
252.1183	29	C17H15FN+
259.0923	2	C19H12F+
261.0949	5	C18H12FN+
261.1086	1	C19H14F+
262.1027	53	C18H13FN+
263.1103	3	C18H14FN+
264.082	12	C17H11FNO+
264.1183	21	C18H15FN+
274.1026	8	C19H13FN+
275.1102	6	C19H14FN+
276.0827	37	C18H11FNO+
276.1182	378	C19H15FN+
277.0887	1	C21H11N+
277.1259	18	C19H16FN+
278.0978	4	C18H13FNO+
278.1341	8	C19H17FN+
279.1418	7	C19H18FN+
280.1497	16	C19H19FN+
287.1108	1	C20H14FN+
288.1187	9	C20H15FN+
289.1261	6	C20H16FN+
290.1341	22	C20H17FN+
291.1418	3	C20H18FN+
292.1496	162	C20H19FN+
294.0923	2	C18H13FNO2+
294.1283	9	C19H17FNO+
294.1652	20	C20H21FN+
300.1184	7	C21H15FN+
301.1264	1	C21H16FN+
302.0982	15	C20H13FNO+
302.1339	53	C21H17FN+
303.1417	5	C21H18FN+
304.1499	4	C21H19FN+
305.121	1	C20H16FNO+
306.1289	34	C20H17FNO+
316.113	2	C21H15FNO+
316.1496	20	C22H19FN+
318.1303	17	C21H17FNO+
318.1651	44	C22H21FN+
320.1117	4	C20H15FNO2+
320.1446	43	C21H19FNO+
326.134	2	C23H17FN+
328.1128	1	C22H15FNO+
334.1239	5	C21H17FNO2+
336.1757	14	C22H23FNO+
342.1284	4	C23H17FNO+
344.1447	21	C23H19FNO+
344.1812	2	C24H23FN+
360.1398	3	C23H19FNO2+
362.1551	78	C23H21FNO2+
370.1234	3	C24H17FNO2+
380.166	44	C23H23FNO3+
380.2007	5	C27H26NO+
388.1342	1	C24H19FNO3+
398.1766	2	C23H25FNO4+
404.2032	5	C26H27FNO2+
406.1812	12	C25H25FNO3+
422.2126	5	C26H29FNO3+
466.2028	14	C27H29FNO5+
