Mass spectrum: C.I. Solvent Yellow 14; LC-ESI-QFT; MS2; CE: 45; R=17500; [M+H]+
Name: C.I. Solvent Yellow 14
Name: 1-phenyldiazenylnaphthalen-2-ol
Formula: C16H12N2O
Exact mass: 248.0950
SMILES: OC1=CC=C2C=CC=CC2=C1N=NC1=CC=CC=C1
InChI: InChI=1S/C16H12N2O/c19-15-11-10-12-6-4-5-9-14(12)16(15)18-17-13-7-2-1-3-8-13/h1-11,19H
Instrument: Q Exactive Orbitrap (Thermo Scientific)
Instrument type: LC-ESI-QFT
Ms type: MS2
Ion mode: POSITIVE
Ionization: ESI
Fragmentation mode: HCD
Collision energy: 45
Resolution: 17500
Column name: Acquity BEH C18 1.7um, 2.1x150mm (Waters)
Retention time: 20.798 min
Base peak: 79.0211
Precursor m/z: 249.1022
Precursor type: [M+H]+
Precursor intensity: 2738498.976563
m/z	relative intensity	assigned
66.0464	3	C5H6+
80.0495	10	C5H6N+
92.0495	35	C6H6N+
93.0574	999	C6H7N+
115.0543	4	C9H7+
128.0495	252	C9H6N+
146.06	48	C9H8NO+
156.0444	336	C10H6NO+
160.0758	8	C10H10NO+
167.0729	3	C12H9N+
168.0808	10	C12H10N+
170.0599	8	C11H8NO+
180.081	5	C13H10N+
194.0965	4	C14H12N+
204.0809	57	C15H10N+
205.0892	3	C15H11N+
206.0838	9	C14H10N2+
211.0866	7	C13H11N2O+
219.0918	3	C15H11N2+
220.0996	10	C15H12N2+
221.1075	61	C15H13N2+
230.0843	3	C16H10N2+
231.0918	150	C16H11N2+
232.077	85	C16H10NO+
232.0996	424	C16H12N2+
233.0835	42	C16H11NO+
234.0789	13	C15H10N2O+
247.0865	8	C16H11N2O+
248.0944	52	C16H12N2O+
249.1023	114	C16H13N2O+
