Mass spectrum: Budesonide; LC-ESI-QFT; MS2; CE: 30; R=17500; [M+H]+
Name: Budesonide
Name: (1S,2S,4R,8S,9S,11S,12S,13R)-11-hydroxy-8-(2-hydroxyacetyl)-9,13-dimethyl-6-propyl-5,7-dioxapentacyclo[10.8.0.02,9.04,8.013,18]icosa-14,17-dien-16-one
Formula: C25H34O6
Exact mass: 430.2355
SMILES: CCCC1O[C@@H]2C[C@H]3[C@@H]4CCC5=CC(=O)C=C[C@]5(C)[C@H]4[C@@H](O)C[C@]3(C)[C@@]2(O1)C(=O)CO
InChI: InChI=1S/C25H34O6/c1-4-5-21-30-20-11-17-16-7-6-14-10-15(27)8-9-23(14,2)22(16)18(28)12-24(17,3)25(20,31-21)19(29)13-26/h8-10,16-18,20-22,26,28H,4-7,11-13H2,1-3H3/t16-,17-,18-,20+,21?,22+,23-,24-,25+/m0/s1
Instrument: Q Exactive Orbitrap (Thermo Scientific)
Instrument type: LC-ESI-QFT
Ms type: MS2
Ion mode: POSITIVE
Ionization: ESI
Fragmentation mode: HCD
Collision energy: 30
Resolution: 17500
Column name: Acquity BEH C18 1.7um, 2.1x150mm (Waters)
Retention time: 18.150 min
Base peak: 79.0212
Precursor m/z: 431.2428
Precursor type: [M+H]+
Precursor intensity: 4537149
m/z	relative intensity	assigned
55.0543	17	C4H7+
69.0698	19	C5H9+
71.049	95	C4H7O+
79.0541	20	C6H7+
81.0699	42	C6H9+
83.0492	19	C5H7O+
87.044	20	C4H7O2+
93.0699	38	C7H9+
95.049	16	C6H7O+
95.0855	51	C7H11+
97.0649	22	C6H9O+
101.0234	63	C4H5O3+
105.0698	34	C8H9+
107.0855	60	C8H11+
109.065	30	C7H9O+
119.0856	43	C9H11+
121.0648	269	C8H9O+
123.0805	23	C8H11O+
131.0853	22	C10H11+
133.0648	31	C9H9O+
133.1013	27	C10H13+
135.0804	167	C9H11O+
137.0599	76	C8H9O2+
139.0753	43	C8H11O2+
143.0853	20	C11H11+
145.0648	20	C10H9O+
145.1013	28	C11H13+
147.0805	999	C10H11O+
149.0598	34	C9H9O2+
151.0755	32	C9H11O2+
155.0704	70	C8H11O3+
155.0853	20	C12H11+
157.1009	21	C12H13+
159.0804	138	C11H11O+
161.0961	130	C11H13O+
163.0753	119	C10H11O2+
165.0905	31	C10H13O2+
171.0805	395	C12H11O+
173.0963	715	C12H13O+
185.0964	109	C13H13O+
187.112	92	C13H15O+
195.0809	26	C14H11O+
197.0963	114	C14H13O+
199.112	99	C14H15O+
201.0902	20	C13H13O2+
208.088	19	C15H12O+
209.0961	61	C15H13O+
211.1116	84	C15H15O+
213.0916	21	C14H13O2+
213.1273	62	C15H17O+
221.0961	54	C16H13O+
223.1116	198	C16H15O+
225.1276	508	C16H17O+
226.1356	170	C16H18O+
227.1431	258	C16H19O+
234.1031	17	C17H14O+
235.1121	109	C17H15O+
237.1277	174	C17H17O+
239.1064	22	C16H15O2+
239.1431	129	C17H19O+
241.1586	71	C17H21O+
248.1195	29	C18H16O+
249.1279	106	C18H17O+
251.1429	109	C18H19O+
253.1587	50	C18H21O+
261.1278	80	C19H17O+
262.1352	49	C19H18O+
263.1073	31	C18H15O2+
263.1431	364	C19H19O+
264.1509	38	C19H20O+
265.1229	24	C18H17O2+
265.1586	314	C19H21O+
267.1742	44	C19H23O+
272.1195	22	C20H16O+
275.1432	81	C20H19O+
277.1588	375	C20H21O+
279.138	70	C19H19O2+
279.1736	27	C20H23O+
281.1535	109	C19H21O2+
283.1693	128	C19H23O2+
287.1428	160	C21H19O+
289.1593	51	C21H21O+
293.1529	86	C20H21O2+
295.1697	190	C20H23O2+
305.1538	273	C21H21O2+
307.1693	21	C21H23O2+
311.1649	22	C20H23O3+
323.1643	341	C21H23O3+
341.1752	50	C21H25O4+
413.2324	165	C25H33O5+
