Mass spectrum: Fensulfothion; LC-ESI-QFT; MS2; CE: 45; R=17500; [M+H]+
Name: Fensulfothion
Name: diethoxy-(4-methylsulfinylphenoxy)-sulfanylidene-lambda5-phosphane
Formula: C11H17O4PS2
Exact mass: 308.0306
SMILES: CCOP(=S)(OCC)OC1=CC=C(C=C1)S(C)=O
InChI: InChI=1S/C11H17O4PS2/c1-4-13-16(17,14-5-2)15-10-6-8-11(9-7-10)18(3)12/h6-9H,4-5H2,1-3H3
Instrument: Q Exactive Orbitrap (Thermo Scientific)
Instrument type: LC-ESI-QFT
Ms type: MS2
Ion mode: POSITIVE
Ionization: ESI
Fragmentation mode: HCD
Collision energy: 45
Resolution: 17500
Column name: Acquity BEH C18 1.7um, 2.1x150mm (Waters)
Retention time: 16.417 min
Base peak: 79.0212
Precursor m/z: 309.0379
Precursor type: [M+H]+
Precursor intensity: 16493575.625
m/z	relative intensity	assigned
62.9899	5	CH3OS+
63.9977	1	CH4OS+
78.967	5	CH3S2+
91.0542	1	C7H7+
94.0413	46	C6H6O+
95.0491	2	C6H7O+
96.9508	1	H2O2PS+
98.9841	10	H4O4P+
104.0619	1	C8H8+
105.0699	4	C8H9+
107.0492	1	C7H7O+
109.0049	30	C2H6O3P+
109.0106	2	C6H5S+
109.0286	2	C6H5O2+
110.0185	31	C6H6S+
111.0262	3	C6H7S+
114.9614	45	H4O3PS+
122.0725	2	C8H10O+
123.0262	1	C7H7S+
123.9978	1	C6H4OS+
124.0342	2	C7H8S+
125.0056	24	C6H5OS+
128.9768	1	CH6O3PS+
137.0419	1	C8H9S+
138.0495	3	C8H10S+
139.0212	7	C7H7OS+
140.029	132	C7H8OS+
140.9824	2	C6H5S2+
141.0008	2	C6H5O2S+
142.0083	46	C6H6O2S+
142.9929	1	C2H8O3PS+
154.9985	7	C7H7S2+
156.0063	149	C7H8S2+
157.0318	999	C7H9O2S+
157.9854	45	C6H6OS2+
168.06	3	C9H12OS+
170.0397	1	C8H10O2S+
170.9934	16	C7H7OS2+
171.0237	1	C4H12O3PS+
171.9744	2	C6H5O2PS+
172.0011	9	C7H8OS2+
173.009	799	C7H9OS2+
174.0076	1	C6H7O4P+
175.0151	3	C6H8O4P+
184.0377	4	C9H12S2+
185.0631	10	C9H13O2S+
186.0167	2	C8H10OS2+
187.969	1	C6H5O3PS+
189.985	19	C6H7O3PS+
190.9925	15	C6H8O3PS+
201.0404	12	C9H13OS2+
202.9929	3	C7H8O3PS+
217.962	21	C7H7O2PS2+
218.0153	1	C8H11O3PS+
218.9874	3	C7H8O4PS+
219.0243	1	C8H12O3PS+
219.941	12	C6H5O3PS2+
219.9954	9	C7H9O4PS+
221.9745	7	C10H7PS2+
234.9648	583	C7H8O3PS2+
235.9726	43	C7H9O3PS2+
236.9981	303	C11H10PS2+
237.9517	88	C6H7O4PS2+
249.9879	3	C8H11O3PS2+
251.9677	1	C7H9O4PS2+
252.9753	264	C7H10O4PS2+
262.9959	4	C9H12O3PS2+
264.0037	11	C9H13O3PS2+
265.9831	8	C8H11O4PS2+
266.9909	58	C8H12O4PS2+
281.0065	32	C9H14O4PS2+
292.0352	2	C11H17O3PS2+
294.0144	1	C10H15O4PS2+
