Mass spectrum: Fludioxonil; LC-ESI-QFT; MS2; CE: 90; R=17500; [M-H]-
Name: Fludioxonil
Name: 4-(2,2-difluoro-1,3-benzodioxol-4-yl)-1H-pyrrole-3-carbonitrile
Formula: C12H6F2N2O2
Exact mass: 248.0397
SMILES: FC1(F)OC2=CC=CC(=C2O1)C1=CNC=C1C#N
InChI: InChI=1S/C12H6F2N2O2/c13-12(14)17-10-3-1-2-8(11(10)18-12)9-6-16-5-7(9)4-15/h1-3,5-6,16H
Instrument: Q Exactive Orbitrap (Thermo Scientific)
Instrument type: LC-ESI-QFT
Ms type: MS2
Ion mode: NEGATIVE
Ionization: ESI
Fragmentation mode: HCD
Collision energy: 90
Resolution: 17500
Column name: Acquity BEH C18 1.7um, 2.1x150mm (Waters)
Retention time: 17.532 min
Base peak: 247.0324
Precursor m/z: 247.0325
Precursor type: [M-H]-
Precursor intensity: 152141386.207
m/z	relative intensity	assigned
50.0035	226	C3N-
64.0067	26	C3N2-
65.0145	164	C3HN2-
65.9986	27	C3NO-
66.9989	17	C4F-
70.9939	169	C3FO-
73.0083	15	C6H-
74.0037	32	C5N-
89.0145	207	C5HN2-
89.0397	133	C7H5-
94.9938	40	C5FO-
100.0192	5	C7H2N-
103.0301	14	C6H3N2-
114.0349	44	C8H4N-
115.0302	63	C7H3N2-
116.0378	7	C7H4N2-
124.0192	100	C9H2N-
126.0349	999	C9H4N-
127.0302	108	C8H3N2-
139.0301	16	C9H3N2-
140.038	6	C9H4N2-
141.0459	284	C9H5N2-
142.0297	14	C9H4NO-
143.025	17	C8H3N2O-
144.0254	19	C9H3FN-
151.0302	366	C10H3N2-
152.038	801	C10H4N2-
153.0459	77	C10H5N2-
163.0302	15	C11H3N2-
169.0408	610	C10H5N2O-
170.0249	14	C10H4NO2-
171.0362	6	C10H4FN2-
172.0203	8	C10H3FNO-
179.0251	44	C11H3N2O-
180.033	976	C11H4N2O-
181.0403	20	C11H5N2O-
183.0362	14	C11H4FN2-
197.0355	20	C11H5N2O2-
198.0235	6	C11H3FN2O-
199.031	8	C11H4FN2O-
247.0326	23	C12H5F2N2O2-
