Mass spectrum: Trilostane; LC-ESI-QFT; MS2; CE: 45; R=17500; [M-H]-
Name: Trilostane
Name: (1S,2R,6R,8S,11S,12S,15S,16S)-5,15-dihydroxy-2,16-dimethyl-7-oxapentacyclo[9.7.0.02,8.06,8.012,16]octadec-4-ene-4-carbonitrile
Formula: C20H27NO3
Exact mass: 329.1991
SMILES: C[C@]12CC[C@H]3[C@@H](CC[C@@]45O[C@@H]4C(O)=C(C[C@]35C)C#N)[C@@H]1CC[C@@H]2O
InChI: InChI=1S/C20H27NO3/c1-18-7-6-14-12(13(18)3-4-15(18)22)5-8-20-17(24-20)16(23)11(10-21)9-19(14,20)2/h12-15,17,22-23H,3-9H2,1-2H3/t12-,13-,14-,15-,17+,18-,19+,20+/m0/s1
Instrument: Q Exactive Orbitrap (Thermo Scientific)
Instrument type: LC-ESI-QFT
Ms type: MS2
Ion mode: NEGATIVE
Ionization: ESI
Fragmentation mode: HCD
Collision energy: 45
Resolution: 17500
Column name: Acquity BEH C18 1.7um, 2.1x150mm (Waters)
Retention time: 16.712 min
Base peak: 429.0536
Precursor m/z: 328.1918
Precursor type: [M-H]-
Precursor intensity: 12318783.13281
m/z	relative intensity	assigned
57.0347	1	C3H5O-
65.0033	151	C4HO-
65.9985	2	C3NO-
71.0503	2	C4H7O-
73.0294	1	C3H5O2-
80.0507	3	C5H6N-
82.0299	2	C4H4NO-
83.0503	2	C5H7O-
92.0142	999	C5H2NO-
94.0297	1	C5H4NO-
109.0658	8	C7H9O-
118.0661	3	C8H8N-
119.0376	22	C7H5NO-
120.0455	3	C7H6NO-
121.0662	1	C8H9O-
123.0816	26	C8H11O-
130.0662	2	C9H8N-
131.038	1	C8H5NO-
135.0817	1	C9H11O-
143.074	3	C10H9N-
144.0821	3	C10H10N-
145.0533	6	C9H7NO-
146.0249	11	C8H4NO2-
146.0612	11	C9H8NO-
148.0403	7	C8H6NO2-
149.0973	1	C10H13O-
156.082	1	C11H10N-
158.0612	2	C10H8NO-
159.0327	2	C9H5NO2-
159.0693	1	C10H9NO-
170.0607	2	C11H8NO-
175.113	3	C12H15O-
176.0351	2	C9H6NO3-
177.0433	1	C9H7NO3-
177.1285	16	C12H17O-
182.0611	1	C12H8NO-
189.128	1	C13H17O-
191.059	1	C10H9NO3-
196.0766	6	C13H10NO-
205.123	1	C13H17O2-
207.139	20	C13H19O2-
215.1443	1	C15H19O-
223.1708	2	C14H23O2-
226.1606	5	C16H20N-
231.1392	4	C15H19O2-
233.1547	139	C15H21O2-
235.1703	307	C15H23O2-
238.1244	1	C16H16NO-
245.1543	2	C16H21O2-
248.1437	1	C18H18N-
249.1495	20	C15H21O3-
252.1404	1	C17H18NO-
254.1544	4	C17H20NO-
257.1544	2	C17H21O2-
264.1395	12	C18H18NO-
264.1759	3	C19H22N-
266.155	47	C18H20NO-
267.1602	25	C18H21NO-
268.1707	32	C18H22NO-
273.1864	3	C18H25O2-
278.1552	7	C19H20NO-
279.1604	4	C19H21NO-
280.1707	119	C19H22NO-
282.1863	198	C19H24NO-
284.1655	13	C18H22NO2-
284.2015	1	C19H26NO-
287.1654	3	C18H23O3-
294.1499	33	C19H20NO2-
296.1658	5	C19H22NO2-
298.1813	2	C19H24NO2-
300.1969	34	C19H26NO2-
308.1658	2	C20H22NO2-
310.1813	84	C20H24NO2-
312.1607	2	C19H22NO3-
326.1764	1	C20H24NO3-
328.1918	618	C20H26NO3-
