Mass spectrum: Carbutamide; LC-ESI-QFT; MS2; CE: 60; R=17500; [M+H]+
Name: Carbutamide
Name: 1-(4-aminophenyl)sulfonyl-3-butylurea
Formula: C11H17N3O3S
Exact mass: 271.0991
SMILES: CCCCNC(=O)NS(=O)(=O)C1=CC=C(N)C=C1
InChI: InChI=1S/C11H17N3O3S/c1-2-3-8-13-11(15)14-18(16,17)10-6-4-9(12)5-7-10/h4-7H,2-3,8,12H2,1H3,(H2,13,14,15)
Instrument: Q Exactive Orbitrap (Thermo Scientific)
Instrument type: LC-ESI-QFT
Ms type: MS2
Ion mode: POSITIVE
Ionization: ESI
Fragmentation mode: HCD
Collision energy: 60
Resolution: 17500
Column name: Acquity BEH C18 1.7um, 2.1x150mm (Waters)
Retention time: 13.516 min
Base peak: 79.0211
Precursor m/z: 272.1063
Precursor type: [M+H]+
Precursor intensity: 6888914.8125
m/z	relative intensity	assigned
53.0023	9	C3HO+
53.0386	8	C4H5+
54.0339	8	C3H4N+
55.0179	13	C3H3O+
57.0699	203	C4H9+
58.0652	5	C3H8N+
65.0386	213	C5H5+
67.0178	3	C4H3O+
68.0495	177	C4H6N+
69.0336	11	C4H5O+
72.0808	6	C4H10N+
74.0964	316	C4H12N+
78.0338	26	C5H4N+
79.0179	29	C5H3O+
80.0495	35	C5H6N+
82.0287	5	C4H4NO+
83.0489	2	C5H7O+
92.0495	673	C6H6N+
93.0575	14	C6H7N+
96.0445	22	C5H6NO+
107.0604	30	C6H7N2+
108.0444	999	C6H6NO+
109.052	3	C6H7NO+
110.0601	237	C6H8NO+
117.1025	2	C5H13N2O+
120.0557	32	C6H6N3+
124.0758	10	C7H10NO+
156.0114	160	C6H6NO2S+
171.0804	5	C4H15N2O3S+
