Mass spectrum: Leucomalachite green; LC-ESI-QFT; MS2; CE: 60; R=17500; [M+H]+
Name: Leucomalachite green
Name: 4-[[4-(dimethylamino)phenyl]-phenylmethyl]-N,N-dimethylaniline
Formula: C23H26N2
Exact mass: 330.2096
SMILES: CN(C)C1=CC=C(C=C1)C(C1=CC=CC=C1)C1=CC=C(C=C1)N(C)C
InChI: InChI=1S/C23H26N2/c1-24(2)21-14-10-19(11-15-21)23(18-8-6-5-7-9-18)20-12-16-22(17-13-20)25(3)4/h5-17,23H,1-4H3
Instrument: Q Exactive Orbitrap (Thermo Scientific)
Instrument type: LC-ESI-QFT
Ms type: MS2
Ion mode: POSITIVE
Ionization: ESI
Fragmentation mode: HCD
Collision energy: 60
Resolution: 17500
Column name: Acquity BEH C18 1.7um, 2.1x150mm (Waters)
Retention time: 16.907 min
Base peak: 79.0211
Precursor m/z: 331.2169
Precursor type: [M+H]+
Precursor intensity: 37546897
m/z	relative intensity	assigned
91.0542	2	C7H7+
117.0572	1	C8H7N+
118.0651	4	C8H8N+
120.0808	7	C8H10N+
121.0886	5	C8H11N+
132.0807	3	C9H10N+
134.0964	10	C9H12N+
165.0699	21	C13H9+
166.0779	5	C13H10+
167.0855	1	C13H11+
180.0808	8	C13H10N+
181.0882	2	C13H11N+
193.0881	2	C14H11N+
194.0965	76	C14H12N+
195.1043	26	C14H13N+
196.1121	26	C14H14N+
208.1121	54	C15H14N+
209.12	27	C15H15N+
210.1277	60	C15H16N+
223.1229	18	C15H15N2+
224.1306	14	C15H16N2+
225.1386	1	C15H17N2+
237.1389	7	C16H17N2+
238.1469	7	C16H18N2+
239.1542	999	C16H19N2+
241.1013	1	C19H13+
244.1117	1	C18H14N+
250.0745	1	C20H10+
253.1707	1	C17H21N2+
256.112	2	C19H14N+
257.1194	2	C19H15N+
263.0818	1	C21H11+
270.1275	4	C20H16N+
271.1354	2	C20H17N+
272.1433	65	C20H18N+
276.0776	3	C21H10N+
284.1437	1	C21H18N+
286.1591	35	C21H20N+
287.0877	1	C23H11+
288.095	5	C23H12+
290.0932	2	C22H12N+
291.1009	28	C22H13N+
299.1546	1	C21H19N2+
300.1621	3	C21H20N2+
301.1699	9	C21H21N2+
314.1745	1	C22H22N2+
315.1856	182	C22H23N2+
316.1938	7	C22H24N2+
