Mass spectrum: Prednisone; LC-ESI-QFT; MS2; CE: 90; R=17500; [M-H]-
Name: Prednisone
Name: (8S,9S,10R,13S,14S,17R)-17-hydroxy-17-(2-hydroxyacetyl)-10,13-dimethyl-6,7,8,9,12,14,15,16-octahydrocyclopenta[a]phenanthrene-3,11-dione
Formula: C21H26O5
Exact mass: 358.1780
SMILES: C[C@]12CC(=O)[C@H]3[C@@H](CCC4=CC(=O)C=C[C@]34C)[C@@H]1CC[C@]2(O)C(=O)CO
InChI: InChI=1S/C21H26O5/c1-19-7-5-13(23)9-12(19)3-4-14-15-6-8-21(26,17(25)11-22)20(15,2)10-16(24)18(14)19/h5,7,9,14-15,18,22,26H,3-4,6,8,10-11H2,1-2H3/t14-,15-,18+,19-,20-,21-/m0/s1
Instrument: Q Exactive Orbitrap (Thermo Scientific)
Instrument type: LC-ESI-QFT
Ms type: MS2
Ion mode: NEGATIVE
Ionization: ESI
Fragmentation mode: HCD
Collision energy: 90
Resolution: 17500
Column name: Acquity BEH C18 1.7um, 2.1x150mm (Waters)
Retention time: 15.404 min
Base peak: 297.1132
Precursor m/z: 357.1707
Precursor type: [M-H]-
Precursor intensity: 1357100.847656
m/z	relative intensity	assigned
57.0346	162	C3H5O-
95.0504	117	C6H7O-
97.0662	58	C6H9O-
107.0502	175	C7H7O-
108.0219	142	C6H4O2-
109.0658	61	C7H9O-
119.0502	42	C8H7O-
120.058	64	C8H8O-
121.0296	60	C7H5O2-
121.066	348	C8H9O-
122.0374	536	C7H6O2-
123.0452	999	C7H7O2-
123.0818	121	C8H11O-
130.0424	194	C9H6O-
131.0503	58	C9H7O-
133.0661	158	C9H9O-
134.0374	89	C8H6O2-
135.0454	238	C8H7O2-
135.0817	123	C9H11O-
136.0527	66	C8H8O2-
137.0611	88	C8H9O2-
143.0502	201	C10H7O-
145.0659	186	C10H9O-
147.0453	89	C9H7O2-
149.0607	901	C9H9O2-
151.0765	93	C9H11O2-
157.066	40	C11H9O-
159.0447	73	C10H7O2-
185.0604	210	C12H9O2-
187.0767	80	C12H11O2-
