Mass spectrum: Meloxicam; LC-ESI-QFT; MS2; CE: 15; R=17500; [M-H]-
Name: Meloxicam
Name: 4-hydroxy-2-methyl-N-(5-methyl-1,3-thiazol-2-yl)-1,1-dioxo-1lambda6,2-benzothiazine-3-carboxamide
Formula: C14H13N3O4S2
Exact mass: 351.0347
SMILES: CN1C(C(=O)NC2=NC=C(C)S2)=C(O)C2=C(C=CC=C2)S1(=O)=O
InChI: InChI=1S/C14H13N3O4S2/c1-8-7-15-14(22-8)16-13(19)11-12(18)9-5-3-4-6-10(9)23(20,21)17(11)2/h3-7,18H,1-2H3,(H,15,16,19)
Instrument: Q Exactive Orbitrap (Thermo Scientific)
Instrument type: LC-ESI-QFT
Ms type: MS2
Ion mode: NEGATIVE
Ionization: ESI
Fragmentation mode: HCD
Collision energy: 15
Resolution: 17500
Column name: Acquity BEH C18 1.7um, 2.1x150mm (Waters)
Retention time: 16.796 min
Base peak: 189.0169
Precursor m/z: 350.0275
Precursor type: [M-H]-
Precursor intensity: 17546668.35938
m/z	relative intensity	assigned
84.0091	1	C3H2NO2-
113.0177	19	C4H5N2S-
119.0501	1	C8H7O-
131.0374	10	C8H5NO-
145.0294	1	C9H5O2-
146.0612	371	C9H8NO-
160.0407	4	C9H6NO2-
168.0237	10	C6H6N3OS-
182.0395	16	C7H8N3OS-
192.0125	14	C9H6NO2S-
210.023	311	C9H8NO3S-
214.0621	1	C11H8N3O2-
217.0435	1	C11H9N2OS-
252.0781	16	C14H10N3O2-
286.0656	999	C14H12N3O2S-
350.0275	406	C14H12N3O4S2-
