Mass spectrum: PharmaGSID_47261; LC-ESI-QFT; MS2; CE: 60; R=17500; [M+H]+
Name: PharmaGSID_47261
Name: (2S,3S)-3-methyl-2-(3-oxo-1,2-benzothiazol-2-yl)pentanoic acid
Formula: C13H15NO3S
Exact mass: 265.0773
SMILES: CC[C@H](C)[C@H](N1SC2=CC=CC=C2C1=O)C(O)=O
InChI: InChI=1S/C13H15NO3S/c1-3-8(2)11(13(16)17)14-12(15)9-6-4-5-7-10(9)18-14/h4-8,11H,3H2,1-2H3,(H,16,17)/t8-,11-/m0/s1
Instrument: Q Exactive Orbitrap (Thermo Scientific)
Instrument type: LC-ESI-QFT
Ms type: MS2
Ion mode: POSITIVE
Ionization: ESI
Fragmentation mode: HCD
Collision energy: 60
Resolution: 17500
Column name: Acquity BEH C18 1.7um, 2.1x150mm (Waters)
Retention time: 16.615 min
Base peak: 79.0211
Precursor m/z: 266.0845
Precursor type: [M+H]+
Precursor intensity: 9868902.375
m/z	relative intensity	assigned
53.0022	33	C3HO+
53.9975	6	C2NO+
55.0542	3	C4H7+
57.0336	1	C3H5O+
59.0491	4	C3H7O+
67.0542	13	C5H7+
67.9894	1	C3O2+
69.0698	647	C5H9+
73.0647	15	C4H9O+
105.0335	6	C7H5O+
109.0107	28	C6H5S+
111.0264	1	C6H7S+
134.0058	1	C7H4NS+
135.9977	7	C7H4OS+
137.0055	9	C7H5OS+
152.0164	999	C7H6NOS+
164.0164	54	C8H6NOS+
178.0324	3	C9H8NOS+
220.0788	3	C12H14NOS+
