Mass spectrum: Amiodarone hydrochloride; LC-ESI-QFT; MS2; CE: 30; R=17500; [M+H]+
Name: Amiodarone
Name: (2-butyl-1-benzofuran-3-yl)-[4-[2-(diethylamino)ethoxy]-3,5-diiodophenyl]methanone
Formula: C25H29I2NO3
Exact mass: 645.0237
SMILES: CCCCC1=C(C(=O)C2=CC(I)=C(OCCN(CC)CC)C(I)=C2)C2=CC=CC=C2O1
InChI: InChI=1S/C25H29I2NO3/c1-4-7-11-22-23(18-10-8-9-12-21(18)31-22)24(29)17-15-19(26)25(20(27)16-17)30-14-13-28(5-2)6-3/h8-10,12,15-16H,4-7,11,13-14H2,1-3H3
Instrument: Q Exactive Orbitrap (Thermo Scientific)
Instrument type: LC-ESI-QFT
Ms type: MS2
Ion mode: POSITIVE
Ionization: ESI
Fragmentation mode: HCD
Collision energy: 30
Resolution: 17500
Column name: Acquity BEH C18 1.7um, 2.1x150mm (Waters)
Retention time: 18.103 min
Base peak: 79.0211
Precursor m/z: 646.031
Precursor type: [M+H]+
Precursor intensity: 22619407
m/z	relative intensity	assigned
56.0495	1	C3H6N+
58.0651	999	C3H8N+
70.065	1	C4H8N+
72.0807	220	C4H10N+
73.0885	93	C4H11N+
74.0963	7	C4H12N+
86.0964	478	C5H12N+
98.0964	1	C6H12N+
100.112	526	C6H14N+
159.0439	3	C10H7O2+
201.0909	39	C13H13O2+
248.0835	1	C17H12O2+
263.1067	1	C18H15O2+
275.0703	1	C18H11O3+
276.078	21	C18H12O3+
277.0857	11	C18H13O3+
290.0938	3	C19H14O3+
319.1328	9	C21H19O3+
359.9637	1	C16H9IO2+
372.8218	1	C7H3I2O2+
372.8579	1	C8H7I2O+
374.9514	1	C16H8IO3+
375.9591	1	C16H9IO3+
388.9669	1	C17H10IO3+
398.8373	3	C9H5I2O2+
402.9833	1	C18H12IO3+
416.9977	2	C19H14IO3+
476.0722	5	C22H23INO3+
516.9161	5	C18H15I2O2+
646.0311	122	C25H30I2NO3+
