Mass spectrum: Azacyclotridecan-2-one; LC-ESI-QFT; MS2; CE: 30; R=17500; [M+H]+
Name: Azacyclotridecan-2-one
Formula: C12H23NO
Exact mass: 197.1780
SMILES: O=C1CCCCCCCCCCCN1
InChI: InChI=1S/C12H23NO/c14-12-10-8-6-4-2-1-3-5-7-9-11-13-12/h1-11H2,(H,13,14)
Instrument: Q Exactive Orbitrap (Thermo Scientific)
Instrument type: LC-ESI-QFT
Ms type: MS2
Ion mode: POSITIVE
Ionization: ESI
Fragmentation mode: HCD
Collision energy: 30
Resolution: 17500
Column name: Acquity BEH C18 1.7um, 2.1x150mm (Waters)
Retention time: 17.456 min
Base peak: 79.0211
Precursor m/z: 198.1852
Precursor type: [M+H]+
Precursor intensity: 42858929.75
m/z	relative intensity	assigned
55.0543	1	C4H7+
57.0698	1	C4H9+
69.0698	2	C5H9+
81.0699	1	C6H9+
83.0855	4	C6H11+
95.0857	1	C7H11+
97.1012	3	C7H13+
100.0757	1	C5H10NO+
107.0855	1	C8H11+
114.0913	1	C6H12NO+
198.1852	999	C12H24NO+
