Mass spectrum: Dulcin; LC-ESI-QFT; MS2; CE: 60; R=17500; [M+H]+
Name: Dulcin
Name: (4-ethoxyphenyl)urea
Formula: C9H12N2O2
Exact mass: 180.0899
SMILES: CCOC1=CC=C(NC(N)=O)C=C1
InChI: InChI=1S/C9H12N2O2/c1-2-13-8-5-3-7(4-6-8)11-9(10)12/h3-6H,2H2,1H3,(H3,10,11,12)
Instrument: Q Exactive Orbitrap (Thermo Scientific)
Instrument type: LC-ESI-QFT
Ms type: MS2
Ion mode: POSITIVE
Ionization: ESI
Fragmentation mode: HCD
Collision energy: 60
Resolution: 17500
Column name: Acquity BEH C18 1.7um, 2.1x150mm (Waters)
Retention time: 13.186 min
Base peak: 79.0211
Precursor m/z: 181.0972
Precursor type: [M+H]+
Precursor intensity: 10855845.625
m/z	relative intensity	assigned
53.0385	1	C4H5+
65.0385	74	C5H5+
67.0416	1	C4H5N+
67.0543	6	C5H7+
79.054	1	C6H7+
80.0495	5	C5H6N+
81.0334	20	C5H5O+
81.0573	2	C5H7N+
82.0651	35	C5H8N+
91.0541	1	C7H7+
92.0495	86	C6H6N+
93.0335	47	C6H5O+
93.0573	43	C6H7N+
94.0651	5	C6H8N+
95.0491	3	C6H7O+
105.0447	1	C6H5N2+
108.0444	999	C6H6NO+
109.0522	39	C6H7NO+
110.06	733	C6H8NO+
111.044	137	C6H7O2+
121.0285	6	C7H5O2+
121.0397	5	C6H5N2O+
124.0505	1	C7H8O2+
124.0758	1	C7H10NO+
125.0597	7	C7H9O2+
133.0285	2	C8H5O2+
135.0442	4	C8H7O2+
135.0682	16	C8H9NO+
136.0393	16	C7H6NO2+
136.0758	318	C8H10NO+
137.0835	7	C8H11NO+
138.0913	229	C8H12NO+
139.0755	2	C8H11O2+
146.0349	2	C9H6O2+
153.0659	1	C7H9N2O2+
153.079	3	C8H11NO2+
164.0705	7	C9H10NO2+
181.0969	12	C9H13N2O2+
