Mass spectrum: 2-Aminoanthraquinone; LC-ESI-QFT; MS2; CE: 60; R=17500; [M+H]+
Name: 2-Aminoanthraquinone
Name: 2-aminoanthracene-9,10-dione
Formula: C14H9NO2
Exact mass: 223.0633
SMILES: NC1=CC=C2C(=O)C3=C(C=CC=C3)C(=O)C2=C1
InChI: InChI=1S/C14H9NO2/c15-8-5-6-11-12(7-8)14(17)10-4-2-1-3-9(10)13(11)16/h1-7H,15H2
Instrument: Q Exactive Orbitrap (Thermo Scientific)
Instrument type: LC-ESI-QFT
Ms type: MS2
Ion mode: POSITIVE
Ionization: ESI
Fragmentation mode: HCD
Collision energy: 60
Resolution: 17500
Column name: Acquity BEH C18 1.7um, 2.1x150mm (Waters)
Retention time: 15.327 min
Base peak: 79.0211
Precursor m/z: 224.0706
Precursor type: [M+H]+
Precursor intensity: 2886728.75
m/z	relative intensity	assigned
53.0386	1	C4H5+
55.0178	6	C3H3O+
65.0386	2	C5H5+
68.9971	17	C3HO2+
77.0386	1	C6H5+
79.0179	3	C5H3O+
79.0542	1	C6H7+
91.0541	1	C7H7+
93.07	1	C7H9+
95.0491	2	C6H7O+
115.0541	7	C9H7+
127.0542	1	C10H7+
128.0619	2	C10H8+
129.0698	4	C10H9+
130.0289	2	C8H4NO+
130.0653	4	C9H8N+
140.0495	1	C10H6N+
141.0699	74	C11H9+
142.0654	3	C10H8N+
144.0446	4	C9H6NO+
145.0648	1	C10H9O+
151.0545	5	C12H7+
152.062	11	C12H8+
153.0574	5	C11H7N+
153.0699	11	C12H9+
154.0652	18	C11H8N+
155.0491	3	C11H7O+
155.0729	16	C11H9N+
166.0648	2	C12H8N+
167.073	169	C12H9N+
168.0808	303	C12H10N+
169.0648	107	C12H9O+
170.0599	5	C11H8NO+
171.0677	1	C11H9NO+
177.0574	13	C13H7N+
178.0651	84	C13H8N+
179.0731	6	C13H9N+
180.0567	1	C13H8O+
180.0808	3	C13H10N+
181.0649	3	C13H9O+
182.0603	2	C12H8NO+
183.0681	2	C12H9NO+
188.0707	1	C11H10NO2+
194.0607	2	C13H8NO+
195.068	13	C13H9NO+
196.0758	999	C13H10NO+
197.0597	142	C13H9O2+
199.063	2	C12H9NO2+
206.0603	7	C14H8NO+
207.0679	71	C14H9NO+
211.0629	4	C13H9NO2+
223.0628	109	C14H9NO2+
224.0706	304	C14H10NO2+
