Mass spectrum: Progesterone; LC-ESI-QFT; MS2; CE: 45; R=17500; [M+H]+
Name: Progesterone
Name: (8S,9S,10R,13S,14S,17S)-17-acetyl-10,13-dimethyl-1,2,6,7,8,9,11,12,14,15,16,17-dodecahydrocyclopenta[a]phenanthren-3-one
Formula: C21H30O2
Exact mass: 314.2246
SMILES: CC(=O)[C@H]1CC[C@H]2[C@@H]3CCC4=CC(=O)CC[C@]4(C)[C@H]3CC[C@]12C
InChI: InChI=1S/C21H30O2/c1-13(22)17-6-7-18-16-5-4-14-12-15(23)8-10-20(14,2)19(16)9-11-21(17,18)3/h12,16-19H,4-11H2,1-3H3/t16-,17+,18-,19-,20-,21+/m0/s1
Instrument: Q Exactive Orbitrap (Thermo Scientific)
Instrument type: LC-ESI-QFT
Ms type: MS2
Ion mode: POSITIVE
Ionization: ESI
Fragmentation mode: HCD
Collision energy: 45
Resolution: 17500
Column name: Acquity BEH C18 1.7um, 2.1x150mm (Waters)
Retention time: 18.764 min
Base peak: 79.0211
Precursor m/z: 315.2319
Precursor type: [M+H]+
Precursor intensity: 6422067.0625
m/z	relative intensity	assigned
53.0386	1	C4H5+
55.0178	5	C3H3O+
55.0543	3	C4H7+
57.0334	1	C3H5O+
67.0541	10	C5H7+
69.0336	1	C4H5O+
69.0698	11	C5H9+
71.0491	8	C4H7O+
79.0542	35	C6H7+
81.0699	50	C6H9+
83.0491	39	C5H7O+
83.0856	2	C6H11+
85.0648	30	C5H9O+
91.0542	9	C7H7+
93.0699	23	C7H9+
95.0493	3	C6H7O+
95.0855	38	C7H11+
97.0648	999	C6H9O+
99.0805	1	C6H11O+
105.0699	22	C8H9+
107.0491	3	C7H7O+
107.0856	26	C8H11+
109.0648	910	C7H9O+
111.0804	4	C7H11O+
113.0961	1	C7H13O+
117.0697	5	C9H9+
119.0855	30	C9H11+
121.0649	9	C8H9O+
121.1011	30	C9H13+
123.0804	79	C8H11O+
123.1168	4	C9H15+
125.0963	1	C8H13O+
129.07	3	C10H9+
131.0855	18	C10H11+
133.1011	30	C10H13+
135.0804	3	C9H11O+
135.1167	13	C10H15+
137.0962	13	C9H13O+
137.1324	2	C10H17+
143.0855	8	C11H11+
145.1011	28	C11H13+
147.0803	2	C10H11O+
147.1168	28	C11H15+
149.0961	9	C10H13O+
149.1325	11	C11H17+
151.1119	4	C10H15O+
155.0854	2	C12H11+
157.1012	16	C12H13+
159.1168	32	C12H15+
161.0959	2	C11H13O+
161.1325	16	C12H17+
163.1117	15	C11H15O+
163.148	4	C12H19+
165.1274	1	C11H17O+
169.101	6	C13H13+
171.1167	15	C13H15+
173.1325	26	C13H17+
175.1118	3	C12H15O+
175.1482	8	C13H19+
177.1274	20	C12H17O+
179.1424	1	C12H19O+
181.1015	1	C14H13+
183.1168	8	C14H15+
185.1327	10	C14H17+
187.1117	2	C13H15O+
187.1481	12	C14H19+
189.1275	9	C13H17O+
189.1636	4	C14H21+
191.143	6	C13H19O+
195.1168	3	C15H15+
197.1325	9	C15H17+
199.1483	10	C15H19+
201.1271	1	C14H17O+
201.1637	9	C15H21+
203.1431	2	C14H19O+
209.132	3	C16H17+
211.1484	5	C16H19+
213.164	10	C16H21+
215.143	2	C15H19O+
215.1793	8	C16H23+
217.1584	1	C15H21O+
223.1485	7	C17H19+
225.1636	1	C17H21+
227.1429	1	C16H19O+
227.1797	7	C17H23+
229.1585	3	C16H21O+
231.1741	1	C16H23O+
237.1636	2	C18H21+
239.1796	14	C18H23+
241.1587	2	C17H21O+
251.1792	1	C19H23+
253.1952	4	C19H25+
255.1746	2	C18H23O+
255.2106	15	C19H27+
257.1895	3	C18H25O+
269.1902	1	C19H25O+
271.2051	1	C19H27O+
273.2207	3	C19H29O+
279.2109	12	C21H27+
297.2211	16	C21H29O+
315.2315	10	C21H31O2+
