Mass spectrum: AM580; LC-ESI-QFT; MS2; CE: 45; R=17500; [M+H]+
Name: AM580
Name: 4-{[(5,5,8,8-Tetramethyl-5,6,7,8-tetrahydronaphthalen-2-yl)carbonyl]amino}benzoic acid
Name: 4-[(5,5,8,8-tetramethyl-6,7-dihydronaphthalene-2-carbonyl)amino]benzoic acid
Formula: C22H25NO3
Exact mass: 351.1834
SMILES: CC1(C)CCC(C)(C)C2=C1C=CC(=C2)C(=O)NC1=CC=C(C=C1)C(O)=O
InChI: InChI=1S/C22H25NO3/c1-21(2)11-12-22(3,4)18-13-15(7-10-17(18)21)19(24)23-16-8-5-14(6-9-16)20(25)26/h5-10,13H,11-12H2,1-4H3,(H,23,24)(H,25,26)
Instrument: Q Exactive Orbitrap (Thermo Scientific)
Instrument type: LC-ESI-QFT
Ms type: MS2
Ion mode: POSITIVE
Ionization: ESI
Fragmentation mode: HCD
Collision energy: 45
Resolution: 17500
Column name: Acquity BEH C18 1.7um, 2.1x150mm (Waters)
Retention time: 19.378 min
Base peak: 79.0211
Precursor m/z: 352.1907
Precursor type: [M+H]+
Precursor intensity: 7928900
m/z	relative intensity	assigned
55.0543	1	C4H7+
57.0699	2	C4H9+
65.0386	2	C5H5+
69.0698	12	C5H9+
71.0855	2	C5H11+
81.0698	1	C6H9+
91.0542	98	C7H7+
95.0492	3	C6H7O+
105.0699	98	C8H9+
108.0444	3	C6H6NO+
111.1169	6	C8H15+
117.0699	1	C9H9+
118.0414	6	C8H6O+
119.0856	111	C9H11+
120.0443	8	C7H6NO+
121.0285	9	C7H5O2+
124.0757	4	C7H10NO+
131.0492	40	C9H7O+
131.0856	14	C10H11+
132.0569	2	C9H8O+
133.1012	75	C10H13+
136.0394	42	C7H6NO2+
139.039	8	C7H7O3+
145.0648	67	C10H9O+
145.1012	14	C11H13+
146.0237	8	C8H4NO2+
146.0726	2	C10H10O+
155.0856	1	C12H11+
159.0805	36	C11H11O+
159.1166	3	C12H15+
164.0342	135	C8H6NO3+
168.0659	1	C8H10NO3+
172.1246	5	C13H16+
173.0962	4	C12H13O+
173.1323	1	C13H17+
182.0964	1	C13H12N+
187.1481	3	C14H19+
197.1326	4	C15H17+
200.1196	11	C14H16O+
204.1144	1	C13H16O2+
205.1585	1	C14H21O+
210.091	4	C14H12NO+
215.1431	999	C15H19O+
224.1066	2	C15H14NO+
226.086	1	C14H12NO2+
236.0707	2	C15H10NO2+
238.1226	2	C16H16NO+
242.0806	2	C14H12NO3+
250.0859	5	C16H12NO2+
254.0812	12	C15H12NO3+
264.1019	29	C17H14NO2+
268.0969	68	C16H14NO3+
278.1168	1	C18H16NO2+
282.1125	125	C17H16NO3+
283.121	1	C17H17NO3+
296.1283	38	C18H18NO3+
310.1436	6	C19H20NO3+
352.1908	70	C22H26NO3+
