Mass spectrum: Chloralose; LC-ESI-QFT; MS2; CE: 30; R=17500; [M-H]-
Name: Chloralose
Formula: C8H11Cl3O6
Exact mass: 307.9621
SMILES: OC[C@@H](O)[C@H]1O[C@@H]2O[C@@H](O[C@@H]2[C@H]1O)C(Cl)(Cl)Cl
InChI: InChI=1S/C8H11Cl3O6/c9-8(10,11)7-16-5-3(14)4(2(13)1-12)15-6(5)17-7/h2-7,12-14H,1H2/t2-,3+,4-,5-,6-,7-/m1/s1
Instrument: Q Exactive Orbitrap (Thermo Scientific)
Instrument type: LC-ESI-QFT
Ms type: MS2
Ion mode: NEGATIVE
Ionization: ESI
Fragmentation mode: HCD
Collision energy: 30
Resolution: 17500
Column name: Acquity BEH C18 1.7um, 2.1x150mm (Waters)
Retention time: 13.543 min
Base peak: 249.0227
Precursor m/z: 306.9548
Precursor type: [M-H]-
Precursor intensity: 2742719.402832
m/z	relative intensity	assigned
55.0189	37	C3H3O-
57.0346	29	C3H5O-
59.0138	303	C2H3O2-
69.0346	6	C4H5O-
71.0139	999	C3H3O2-
73.0295	349	C3H5O2-
75.009	15	C2H3O3-
83.0138	119	C4H3O2-
85.0295	422	C4H5O2-
87.0088	29	C3H3O3-
89.0244	58	C3H5O3-
95.0139	75	C5H3O2-
97.0296	15	C5H5O2-
99.0088	160	C4H3O3-
101.0244	622	C4H5O3-
113.0244	599	C5H5O3-
116.9071	533	CCl3-
125.0245	19	C6H5O3-
129.0194	22	C5H5O4-
143.035	23	C6H7O4-
159.03	78	C6H7O5-
161.0456	162	C6H9O5-
189.0406	11	C7H9O6-
242.9749	19	C8H10Cl3O2-
