Mass spectrum: PharmaGSID_48521; LC-ESI-QFT; MS2; CE: 45; R=17500; [M+H]+
Name: PharmaGSID_48521
Name: (5S)-5-butyl-9-[1-(4,6-dimethylpyrimidine-5-carbonyl)-4-methylpiperidin-4-yl]-3-(oxan-4-ylmethyl)-1-oxa-3,9-diazaspiro[5.5]undecan-2-one
Formula: C31H49N5O4
Exact mass: 555.3785
SMILES: CCCC[C@H]1CN(CC2CCOCC2)C(=O)OC11CCN(CC1)C1(C)CCN(CC1)C(=O)C1=C(C)N=CN=C1C
InChI: InChI=1S/C31H49N5O4/c1-5-6-7-26-21-35(20-25-8-18-39-19-9-25)29(38)40-31(26)12-16-36(17-13-31)30(4)10-14-34(15-11-30)28(37)27-23(2)32-22-33-24(27)3/h22,25-26H,5-21H2,1-4H3/t26-/m0/s1
Instrument: Q Exactive Orbitrap (Thermo Scientific)
Instrument type: LC-ESI-QFT
Ms type: MS2
Ion mode: POSITIVE
Ionization: ESI
Fragmentation mode: HCD
Collision energy: 45
Resolution: 17500
Column name: Acquity BEH C18 1.7um, 2.1x150mm (Waters)
Retention time: 13.096 min
Base peak: 79.0211
Precursor m/z: 556.3857
Precursor type: [M+H]+
Precursor intensity: 11912560
m/z	relative intensity	assigned
53.0022	2	C3HO+
53.0386	2	C4H5+
55.0542	7	C4H7+
56.0495	14	C3H6N+
57.0335	2	C3H5O+
57.0699	5	C4H9+
58.0651	3	C3H8N+
65.0385	1	C5H5+
66.0337	21	C4H4N+
67.0542	43	C5H7+
68.0494	3	C4H6N+
69.0698	62	C5H9+
70.0651	29	C4H8N+
71.0491	3	C4H7O+
71.0855	1	C5H11+
79.0542	34	C6H7+
80.0495	2	C5H6N+
81.0699	158	C6H9+
82.0651	27	C5H8N+
83.0855	17	C6H11+
84.0808	187	C5H10N+
86.0963	1	C5H12N+
93.0699	5	C7H9+
94.0651	1	C6H8N+
95.0491	1	C6H7O+
95.0728	2	C6H9N+
95.0855	23	C7H11+
96.0807	22	C6H10N+
97.0648	306	C6H9O+
98.0964	46	C6H12N+
99.0804	62	C6H11O+
107.0603	2	C6H7N2+
107.0855	2	C8H11+
108.0807	4	C7H10N+
109.0763	1	C6H9N2+
109.0887	2	C7H11N+
109.1011	2	C8H13+
110.0964	61	C7H12N+
112.112	72	C7H14N+
114.0914	3	C6H12NO+
116.107	4	C6H14NO+
122.0963	1	C8H12N+
123.1169	5	C9H15+
124.1121	59	C8H14N+
125.0706	3	C6H9N2O+
125.1326	6	C9H17+
126.0915	5	C7H12NO+
126.1277	1	C8H16N+
128.1069	999	C7H14NO+
135.0552	722	C7H7N2O+
137.0708	8	C7H9N2O+
137.1324	15	C10H17+
138.1273	3	C9H16N+
140.1431	1	C9H18N+
142.1224	5	C8H16NO+
152.0818	34	C7H10N3O+
152.1435	15	C10H18N+
154.159	711	C10H20N+
164.0819	12	C8H10N3O+
164.1432	4	C11H18N+
166.159	308	C11H20N+
168.1745	4	C11H22N+
176.0816	5	C9H10N3O+
178.1591	1	C12H20N+
180.1746	1	C12H22N+
196.1693	1	C12H22NO+
208.206	3	C14H26N+
220.206	2	C15H26N+
232.1444	149	C13H18N3O+
236.2011	3	C15H26NO+
238.2165	50	C15H28NO+
250.2162	4	C16H28NO+
252.2321	19	C16H30NO+
261.1712	5	C14H21N4O+
264.2323	2	C17H30NO+
281.2585	8	C17H33N2O+
337.2487	11	C17H31N5O2+
