Mass spectrum: 1,4-Bis(N-isopropylamino)anthraquinone; LC-ESI-QFT; MS2; CE: 75; R=17500; [M+H]+
Name: 1,4-Bis(N-isopropylamino)anthraquinone
Name: Solvent Blue 36
Name: 1,4-bis(propan-2-ylamino)anthracene-9,10-dione
Formula: C20H22N2O2
Exact mass: 322.1681
SMILES: CC(C)NC1=CC=C(NC(C)C)C2=C1C(=O)C1=CC=CC=C1C2=O
InChI: InChI=1S/C20H22N2O2/c1-11(2)21-15-9-10-16(22-12(3)4)18-17(15)19(23)13-7-5-6-8-14(13)20(18)24/h5-12,21-22H,1-4H3
Instrument: Q Exactive Orbitrap (Thermo Scientific)
Instrument type: LC-ESI-QFT
Ms type: MS2
Ion mode: POSITIVE
Ionization: ESI
Fragmentation mode: HCD
Collision energy: 75
Resolution: 17500
Column name: Acquity BEH C18 1.7um, 2.1x150mm (Waters)
Retention time: 20.132 min
Base peak: 79.0211
Precursor m/z: 323.1754
Precursor type: [M+H]+
Precursor intensity: 2212477.1875
m/z	relative intensity	assigned
58.0652	32	C3H8N+
105.0336	13	C7H5O+
196.0757	53	C13H10NO+
208.0761	10	C14H10NO+
210.0919	40	C14H12NO+
222.091	9	C15H12NO+
223.0632	42	C14H9NO2+
223.0867	283	C14H11N2O+
224.0708	51	C14H10NO2+
225.0783	5	C14H11NO2+
230.0961	5	C17H12N+
232.0755	18	C16H10NO+
236.0948	26	C15H12N2O+
237.0658	12	C14H9N2O2+
237.1024	70	C15H13N2O+
238.074	46	C14H10N2O2+
239.0815	8	C14H11N2O2+
240.0888	5	C14H12N2O2+
246.0911	18	C17H12NO+
247.0867	999	C16H11N2O+
248.0709	69	C16H10NO2+
249.1002	19	C16H13N2O+
261.1023	10	C17H13N2O+
263.1177	5	C17H15N2O+
265.0974	274	C16H13N2O2+
266.103	7	C16H14N2O2+
275.1143	11	C18H15N2O+
290.1373	4	C19H18N2O+
