Mass spectrum: 4-Nitrosodiphenylamine; LC-ESI-QFT; MS2; CE: 75; R=17500; [M+H]+
Name: 4-Nitrosodiphenylamine
Name: 4-nitroso-N-phenylaniline
Formula: C12H10N2O
Exact mass: 198.0793
SMILES: O=NC1=CC=C(NC2=CC=CC=C2)C=C1
InChI: InChI=1S/C12H10N2O/c15-14-12-8-6-11(7-9-12)13-10-4-2-1-3-5-10/h1-9,13H
Instrument: Q Exactive Orbitrap (Thermo Scientific)
Instrument type: LC-ESI-QFT
Ms type: MS2
Ion mode: POSITIVE
Ionization: ESI
Fragmentation mode: HCD
Collision energy: 75
Resolution: 17500
Column name: Acquity BEH C18 1.7um, 2.1x150mm (Waters)
Retention time: 16.721 min
Base peak: 79.0211
Precursor m/z: 199.0866
Precursor type: [M+H]+
Precursor intensity: 4780139
m/z	relative intensity	assigned
55.0543	1	C4H7+
66.0464	9	C5H6+
72.0443	2	C3H6NO+
77.0386	1	C6H5+
78.0464	4	C6H6+
92.0495	1	C6H6N+
95.0491	1	C6H7O+
104.0495	1	C7H6N+
105.0448	2	C6H5N2+
115.0543	1	C9H7+
128.0495	11	C9H6N+
129.0573	2	C9H7N+
129.0701	1	C10H9+
130.0652	22	C9H8N+
141.0699	1	C11H9+
142.078	2	C11H10+
143.0732	2	C10H9N+
144.0444	3	C9H6NO+
146.06	14	C9H8NO+
154.0651	22	C11H8N+
155.0608	4	C10H7N2+
155.0729	7	C11H9N+
156.0806	2	C11H10N+
165.0572	1	C12H7N+
167.073	9	C12H9N+
168.0808	105	C12H10N+
169.0886	42	C12H11N+
180.068	1	C12H8N2+
181.076	999	C12H9N2+
182.0839	43	C12H10N2+
183.0679	1	C12H9NO+
184.0755	7	C12H10NO+
199.0867	26	C12H11N2O+
