Mass spectrum: Resmethrin; LC-ESI-QFT; MS2; CE: 60; R=17500; [M+H]+
Name: Resmethrin
Formula: C22H26O3
Exact mass: 338.1882
SMILES: CC(C)=CC1C(C(=O)OCC2=COC(CC3=CC=CC=C3)=C2)C1(C)C
InChI: InChI=1S/C22H26O3/c1-15(2)10-19-20(22(19,3)4)21(23)25-14-17-12-18(24-13-17)11-16-8-6-5-7-9-16/h5-10,12-13,19-20H,11,14H2,1-4H3
Instrument: Q Exactive Orbitrap (Thermo Scientific)
Instrument type: LC-ESI-QFT
Ms type: MS2
Ion mode: POSITIVE
Ionization: ESI
Fragmentation mode: HCD
Collision energy: 60
Resolution: 17500
Column name: Acquity BEH C18 1.7um, 2.1x150mm (Waters)
Retention time: 20.591 min
Base peak: 79.0211
Precursor m/z: 339.1955
Precursor type: [M+H]+
Precursor intensity: 345460.46875
m/z	relative intensity	assigned
53.0387	17	C4H5+
55.0543	27	C4H7+
59.0492	31	C3H7O+
65.0385	26	C5H5+
67.0542	62	C5H7+
69.0699	70	C5H9+
79.0542	61	C6H7+
81.07	90	C6H9+
85.065	13	C5H9O+
91.0543	999	C7H7+
93.0699	106	C7H9+
95.0492	25	C6H7O+
95.0857	58	C7H11+
103.0544	28	C8H7+
105.0336	246	C7H5O+
105.0701	118	C8H9+
107.0492	14	C7H7O+
107.0856	56	C8H11+
109.065	60	C7H9O+
115.0543	119	C9H7+
117.0699	83	C9H9+
119.0855	105	C9H11+
121.065	84	C8H9O+
121.1013	103	C9H13+
128.0621	533	C10H8+
129.07	39	C10H9+
131.0857	47	C10H11+
133.0649	29	C9H9O+
133.1013	38	C10H13+
135.0805	37	C9H11O+
135.1167	21	C10H15+
141.07	51	C11H9+
143.0857	332	C11H11+
144.0928	16	C11H12+
145.0651	49	C10H9O+
145.1013	32	C11H13+
147.0807	35	C10H11O+
149.0961	25	C10H13O+
152.0623	17	C12H8+
153.0703	32	C12H9+
155.0857	31	C12H11+
157.1016	14	C12H13+
159.0802	37	C11H11O+
159.1171	25	C12H15+
167.0856	20	C13H11+
171.0808	43	C12H11O+
187.1123	20	C13H15O+
199.1126	21	C14H15O+
201.1274	19	C14H17O+
