Mass spectrum: Crufomate; LC-ESI-QFT; MS2; CE: 30; R=17500; [M+H]+
Name: Crufomate
Name: N-[(4-tert-butyl-2-chlorophenoxy)-methoxyphosphoryl]methanamine
Formula: C12H19ClNO3P
Exact mass: 291.0791
SMILES: CNP(=O)(OC)OC1=CC=C(C=C1Cl)C(C)(C)C
InChI: InChI=1S/C12H19ClNO3P/c1-12(2,3)9-6-7-11(10(13)8-9)17-18(15,14-4)16-5/h6-8H,1-5H3,(H,14,15)
Instrument: Q Exactive Orbitrap (Thermo Scientific)
Instrument type: LC-ESI-QFT
Ms type: MS2
Ion mode: POSITIVE
Ionization: ESI
Fragmentation mode: HCD
Collision energy: 30
Resolution: 17500
Column name: Acquity BEH C18 1.7um, 2.1x150mm (Waters)
Retention time: 18.298 min
Base peak: 79.0211
Precursor m/z: 292.0864
Precursor type: [M+H]+
Precursor intensity: 20974442
m/z	relative intensity	assigned
57.0699	163	C4H9+
108.0214	4	C3H7ClNO+
126.0315	176	C2H9NO3P+
128.0031	1	C2H8ClNOP+
140.0472	3	C3H11NO3P+
203.9975	1	C7H8ClNO2P+
222.0081	21	C7H10ClNO3P+
235.0544	1	C9H15ClNO2P+
236.0238	968	C8H12ClNO3P+
260.0603	14	C11H16ClNO2P+
261.0447	4	C11H15ClO3P+
278.0707	38	C11H18ClNO3P+
292.0863	999	C12H20ClNO3P+
