Mass spectrum: SB243213A; LC-ESI-QFT; MS2; CE: 45; R=17500; [M+H]+
Name: SB243213A
Name: SB 243213
Name: 5-methyl-N-[6-(2-methylpyridin-3-yl)oxypyridin-3-yl]-6-(trifluoromethyl)-2,3-dihydroindole-1-carboxamide
Formula: C22H19F3N4O2
Exact mass: 428.1460
SMILES: CC1=CC2=C(C=C1C(F)(F)F)N(CC2)C(=O)NC1=CC=C(OC2=CC=CN=C2C)N=C1
InChI: InChI=1S/C22H19F3N4O2/c1-13-10-15-7-9-29(18(15)11-17(13)22(23,24)25)21(30)28-16-5-6-20(27-12-16)31-19-4-3-8-26-14(19)2/h3-6,8,10-12H,7,9H2,1-2H3,(H,28,30)
Instrument: Q Exactive Orbitrap (Thermo Scientific)
Instrument type: LC-ESI-QFT
Ms type: MS2
Ion mode: POSITIVE
Ionization: ESI
Fragmentation mode: HCD
Collision energy: 45
Resolution: 17500
Column name: Acquity BEH C18 1.7um, 2.1x150mm (Waters)
Retention time: 18.000 min
Base peak: 79.0211
Precursor m/z: 429.1533
Precursor type: [M+H]+
Precursor intensity: 29241938.5
m/z	relative intensity	assigned
65.0385	2	C5H5+
92.0494	10	C6H6N+
93.0573	28	C6H7N+
108.0444	2	C6H6NO+
110.06	102	C6H8NO+
121.0396	4	C6H5N2O+
124.0757	1	C7H10NO+
126.0549	4	C6H8NO2+
133.0395	8	C7H5N2O+
134.0473	3	C7H6N2O+
147.0553	3	C8H7N2O+
151.0501	42	C7H7N2O2+
157.0758	2	C10H9N2+
159.0552	1	C9H7N2O+
161.0342	1	C8H5N2O2+
165.0658	2	C8H9N2O2+
172.0866	2	C10H10N3+
183.0551	3	C11H7N2O+
185.0706	3	C11H9N2O+
199.0737	1	C11H9N3O+
200.0818	18	C11H10N3O+
201.0664	1	C11H9N2O2+
202.0838	1	C10H11F3N+
210.0662	14	C12H8N3O+
211.05	5	C12H7N2O2+
228.0765	999	C12H10N3O2+
