Mass spectrum: Ranitidine; LC-ESI-QFT; MS2; CE: 30; R=17500; [M+H]+
Name: Ranitidine
Name: Ranitidine Base
Name: 1-N'-[2-[[5-[(dimethylamino)methyl]furan-2-yl]methylsulfanyl]ethyl]-1-N-methyl-2-nitroethene-1,1-diamine
Formula: C13H22N4O3S
Exact mass: 314.1413
SMILES: CNC(NCCSCC1=CC=C(CN(C)C)O1)=C[N+]([O-])=O
InChI: InChI=1S/C13H22N4O3S/c1-14-13(9-17(18)19)15-6-7-21-10-12-5-4-11(20-12)8-16(2)3/h4-5,9,14-15H,6-8,10H2,1-3H3
Instrument: Q Exactive Orbitrap (Thermo Scientific)
Instrument type: LC-ESI-QFT
Ms type: MS2
Ion mode: POSITIVE
Ionization: ESI
Fragmentation mode: HCD
Collision energy: 30
Resolution: 17500
Column name: Acquity BEH C18 1.7um, 2.1x150mm (Waters)
Retention time: 7.821 min
Base peak: 79.0211
Precursor m/z: 315.1485
Precursor type: [M+H]+
Precursor intensity: 1954758.625
m/z	relative intensity	assigned
61.0108	2	C2H5S+
85.0759	2	C4H9N2+
88.0216	40	C3H6NS+
95.0492	11	C6H7O+
97.0762	9	C5H9N2+
98.0839	221	C5H10N2+
99.0917	1	C5H11N2+
101.0296	4	C4H7NS+
102.0373	31	C4H8NS+
110.0601	3	C6H8NO+
110.0965	10	C7H12N+
113.071	6	C5H9N2O+
114.0789	19	C5H10N2O+
115.0327	3	C4H7N2S+
117.0482	14	C4H9N2S+
118.0319	4	C4H8NOS+
124.0758	173	C7H10NO+
125.0057	155	C6H5OS+
130.056	220	C5H10N2S+
135.0919	2	C8H11N2+
138.0914	40	C8H12NO+
144.0769	142	C5H10N3O2+
145.0432	3	C5H9N2OS+
146.0509	5	C5H10N2OS+
147.0223	9	C4H7N2O2S+
148.0754	2	C9H10NO+
152.0285	1	C8H8OS+
153.037	43	C8H9OS+
154.0563	4	C7H10N2S+
163.0871	2	C9H11N2O+
164.0947	11	C9H12N2O+
165.1024	39	C9H13N2O+
167.0638	14	C8H11N2S+
170.0635	65	C8H12NOS+
176.049	999	C5H10N3O2S+
177.102	8	C10H13N2O+
181.0795	23	C9H13N2S+
188.0487	3	C6H10N3O2S+
191.118	58	C11H15N2O+
192.0477	3	C10H10NOS+
193.0557	24	C10H11NOS+
195.0714	6	C10H13NOS+
209.0741	1	C10H13N2OS+
215.1213	5	C10H19N2OS+
223.0898	3	C11H15N2OS+
224.0979	150	C11H16N2OS+
270.0908	49	C11H16N3O3S+
315.1488	27	C13H23N4O3S+
