Mass spectrum: Phenazone; LC-ESI-QFT; MS2; CE: 90; R=17500; [M+H]+
Name: Phenazone
Name: Antipyrine
Name: 1,5-dimethyl-2-phenylpyrazol-3-one
Formula: C11H12N2O
Exact mass: 188.0950
SMILES: CN1N(C(=O)C=C1C)C1=CC=CC=C1
InChI: InChI=1S/C11H12N2O/c1-9-8-11(14)13(12(9)2)10-6-4-3-5-7-10/h3-8H,1-2H3
Instrument: Q Exactive Orbitrap (Thermo Scientific)
Instrument type: LC-ESI-QFT
Ms type: MS2
Ion mode: POSITIVE
Ionization: ESI
Fragmentation mode: HCD
Collision energy: 90
Resolution: 17500
Column name: Acquity BEH C18 1.7um, 2.1x150mm (Waters)
Retention time: 12.178 min
Base peak: 79.0211
Precursor m/z: 189.1022
Precursor type: [M+H]+
Precursor intensity: 31210478.53125
m/z	relative intensity	assigned
51.0229	1	C4H3+
53.0022	7	C3HO+
53.0386	99	C4H5+
54.0338	12	C3H4N+
55.0179	28	C3H3O+
55.0417	7	C3H5N+
55.0543	4	C4H7+
56.0495	999	C3H6N+
58.0651	324	C3H8N+
65.0386	161	C5H5+
67.0178	4	C4H3O+
68.0494	18	C4H6N+
69.0573	32	C4H7N+
70.0651	5	C4H8N+
77.0385	42	C6H5+
78.0464	18	C6H6+
79.0542	83	C6H7+
80.0494	8	C5H6N+
81.0334	9	C5H5O+
81.0447	64	C4H5N2+
82.0288	3	C4H4NO+
83.0604	2	C4H7N2+
84.0445	1	C4H6NO+
86.0601	2	C4H8NO+
91.0543	112	C7H7+
92.0495	29	C6H6N+
93.0336	4	C6H5O+
93.0574	18	C6H7N+
93.07	4	C7H9+
94.0414	6	C6H6O+
94.0652	23	C6H8N+
95.0492	286	C6H7O+
95.0603	64	C5H7N2+
96.0444	6	C5H6NO+
96.0682	56	C5H8N2+
98.06	54	C5H8NO+
102.0464	10	C8H6+
103.0542	75	C8H7+
104.0495	288	C7H6N+
105.0336	11	C7H5O+
105.0448	114	C6H5N2+
105.0573	15	C7H7N+
105.0699	16	C8H9+
106.0651	326	C7H8N+
107.0605	7	C6H7N2+
107.073	1	C7H9N+
111.055	1	C5H7N2O+
113.0712	3	C5H9N2O+
115.0542	100	C9H7+
116.0496	3	C8H6N+
116.0621	5	C9H8+
117.0573	68	C8H7N+
117.0698	92	C9H9+
118.0651	105	C8H8N+
119.0603	5	C7H7N2+
119.0732	7	C8H9N+
120.0446	3	C7H6NO+
120.0808	52	C8H10N+
121.0759	2	C7H9N2+
128.0494	10	C9H6N+
128.0621	4	C10H8+
129.0573	38	C9H7N+
129.0699	1	C10H9+
130.0652	178	C9H8N+
131.0605	90	C8H7N2+
131.0729	79	C9H9N+
132.0444	6	C8H6NO+
132.0682	64	C8H8N2+
132.0806	26	C9H10N+
133.0521	23	C8H7NO+
133.076	6	C8H9N2+
134.0474	5	C7H6N2O+
134.0964	7	C9H12N+
135.0552	1	C7H7N2O+
142.065	2	C10H8N+
143.073	17	C10H9N+
144.0808	60	C10H10N+
145.0657	14	C10H9O+
145.076	78	C9H9N2+
146.0601	9	C9H8NO+
146.0839	48	C9H10N2+
146.0964	5	C10H12N+
147.0917	91	C9H11N2+
148.0756	1	C9H10NO+
149.0707	5	C8H9N2O+
155.0602	6	C10H7N2+
157.0523	10	C10H7NO+
158.0603	1	C10H8NO+
159.0556	7	C9H7N2O+
159.0918	6	C10H11N2+
160.0999	2	C10H12N2+
161.1072	5	C10H13N2+
172.0758	4	C11H10NO+
173.071	14	C10H9N2O+
174.0787	21	C10H10N2O+
189.1022	17	C11H13N2O+
