Mass spectrum: AVE5638; LC-ESI-QFT; MS2; CE: 30; R=17500; [M+H]+
Name: AVE5638
Name: 1-{3-[1-({5-[(2-Fluorophenyl)ethynyl]furan-2-yl}carbonyl)piperidin-4-yl]phenyl}methanamine
Name: [4-[3-(aminomethyl)phenyl]piperidin-1-yl]-[5-[2-(2-fluorophenyl)ethynyl]furan-2-yl]methanone
Formula: C25H23FN2O2
Exact mass: 402.1744
SMILES: NCC1=CC=CC(=C1)C1CCN(CC1)C(=O)C1=CC=C(O1)C#CC1=CC=CC=C1F
InChI: InChI=1S/C25H23FN2O2/c26-23-7-2-1-5-20(23)8-9-22-10-11-24(30-22)25(29)28-14-12-19(13-15-28)21-6-3-4-18(16-21)17-27/h1-7,10-11,16,19H,12-15,17,27H2
Instrument: Q Exactive Orbitrap (Thermo Scientific)
Instrument type: LC-ESI-QFT
Ms type: MS2
Ion mode: POSITIVE
Ionization: ESI
Fragmentation mode: HCD
Collision energy: 30
Resolution: 17500
Column name: Acquity BEH C18 1.7um, 2.1x150mm (Waters)
Retention time: 16.173 min
Base peak: 79.0211
Precursor m/z: 403.1816
Precursor type: [M+H]+
Precursor intensity: 16088742
m/z	relative intensity	assigned
55.0178	1	C3H3O+
55.0542	9	C4H7+
56.0495	322	C3H6N+
58.0651	5	C3H8N+
67.0541	3	C5H7+
81.0335	1	C5H5O+
82.0651	48	C5H8N+
84.0807	47	C5H10N+
91.0542	2	C7H7+
95.0128	1	C5H3O2+
95.0492	1	C6H7O+
98.06	17	C5H8NO+
109.0448	4	C7H6F+
110.06	9	C6H8NO+
117.0699	2	C9H9+
123.0241	3	C7H4FO+
124.0756	4	C7H10NO+
129.0697	2	C10H9+
131.0855	43	C10H11+
133.0448	1	C9H6F+
141.0699	1	C11H9+
143.0855	5	C11H11+
145.1013	1	C11H13+
147.0241	2	C9H4FO+
155.0853	7	C12H11+
157.0444	3	C11H6F+
157.1011	9	C12H13+
170.0527	1	C12H7F+
171.0603	31	C12H8F+
172.0753	3	C11H10NO+
172.1119	22	C12H14N+
174.1277	35	C12H16N+
179.0855	7	C14H11+
181.1011	1	C14H13+
190.1224	3	C12H16NO+
191.0857	1	C15H11+
193.1012	1	C15H13+
199.0553	83	C13H8FO+
200.1069	25	C13H14NO+
201.0711	1	C13H10FO+
204.1377	1	C13H18NO+
209.0764	1	C15H10F+
210.1276	9	C15H16N+
213.0345	108	C13H6FO2+
217.1334	48	C13H17N2O+
218.1177	3	C13H16NO2+
226.0782	2	C18H10+
227.0508	3	C14H8FO2+
227.0856	2	C18H11+
230.0616	1	C13H9FNO2+
233.076	7	C17H10F+
235.0913	5	C17H12F+
238.1223	13	C16H16NO+
242.061	8	C14H9FNO2+
244.0689	1	C18H9F+
246.0832	6	C18H11F+
247.0916	54	C18H12F+
248.0993	1	C18H13F+
249.1074	1	C18H14F+
253.1013	1	C20H13+
255.0805	2	C19H11O+
256.1332	6	C16H18NO2+
257.0769	2	C19H10F+
258.0833	1	C19H11F+
259.0915	9	C19H12F+
260.0996	1	C19H13F+
261.1075	15	C19H14F+
270.0839	1	C20H11F+
271.0916	5	C20H12F+
272.0997	2	C20H13F+
273.1072	22	C20H14F+
274.1148	1	C20H15F+
275.0866	28	C19H12FO+
275.1226	9	C20H16F+
277.1012	1	C22H13+
284.1002	1	C21H13F+
285.1073	10	C21H14F+
286.1155	3	C21H15F+
287.087	2	C20H12FO+
287.1228	14	C21H16F+
289.1024	13	C20H14FO+
290.0972	3	C19H13FNO+
292.1489	1	C20H19FN+
297.1078	6	C22H14F+
299.1225	6	C22H16F+
300.1308	2	C22H17F+
301.1026	4	C21H14FO+
301.1383	2	C22H18F+
303.0814	999	C20H12FO2+
311.1234	2	C23H16F+
313.102	2	C22H14FO+
313.1382	4	C23H18F+
314.1333	3	C22H17FN+
315.1183	12	C22H16FO+
316.1495	16	C22H19FN+
317.1345	1	C22H18FO+
318.1292	6	C21H17FNO+
325.1035	1	C23H14FO+
329.1341	5	C23H18FO+
330.1643	9	C23H21FN+
331.1128	98	C22H16FO2+
335.1083	4	C24H15O2+
338.1531	3	C24H20NO+
339.1179	1	C24H16FO+
340.1493	4	C24H19FN+
341.1332	5	C24H18FO+
344.1437	4	C23H19FNO+
347.1919	2	C23H24FN2+
358.16	189	C24H21FNO+
366.149	2	C25H20NO2+
375.1864	2	C24H24FN2O+
386.1551	329	C25H21FNO2+
403.1817	102	C25H24FN2O2+
