Mass spectrum: 4`-Sulfamylacetanilide; LC-ESI-QFT; MS2; CE: 30; R=17500; [M-H]-
Name: 4'-Sulfamylacetanilide
Name: 4-Acetamidobenzenesulfonamide
Name: N-(4-sulfamoylphenyl)acetamide
Formula: C8H10N2O3S
Exact mass: 214.0412
SMILES: CC(=O)NC1=CC=C(C=C1)S(N)(=O)=O
InChI: InChI=1S/C8H10N2O3S/c1-6(11)10-7-2-4-8(5-3-7)14(9,12)13/h2-5H,1H3,(H,10,11)(H2,9,12,13)
Instrument: Q Exactive Orbitrap (Thermo Scientific)
Instrument type: LC-ESI-QFT
Ms type: MS2
Ion mode: NEGATIVE
Ionization: ESI
Fragmentation mode: HCD
Collision energy: 30
Resolution: 17500
Column name: Acquity BEH C18 1.7um, 2.1x150mm (Waters)
Retention time: 8.223 min
Base peak: 213.0339
Precursor m/z: 213.0339
Precursor type: [M-H]-
Precursor intensity: 3395457.450684
m/z	relative intensity	assigned
63.9624	1	O2S-
77.9655	237	NO2S-
78.9732	12	HNO2S-
79.9573	5	O3S-
79.9812	4	H2NO2S-
92.0506	9	C6H6N-
93.9604	4	NO3S-
94.0297	2	C5H4NO-
106.0536	27	C6H6N2-
107.0614	2	C6H7N2-
122.0249	5	C6H4NO2-
133.0533	3	C8H7NO-
134.0612	225	C8H8NO-
136.0405	1	C7H6NO2-
149.0483	17	C8H7NO2-
149.072	175	C8H9N2O-
150.056	2	C8H8NO2-
171.0234	111	C6H7N2O2S-
172.0075	1	C6H6NO3S-
197.0027	1	C7H5N2O3S-
197.0153	3	C8H7NO3S-
213.0339	999	C8H9N2O3S-
