Mass spectrum: Carbamazepine; LC-ESI-QFT; MS2; CE: 75; R=17500; [M+H]+
Name: Carbamazepine
Formula: C15H12N2O
Exact mass: 236.0950
SMILES: NC(=O)N1C2=CC=CC=C2C=CC2=C1C=CC=C2
InChI: InChI=1S/C15H12N2O/c16-15(18)17-13-7-3-1-5-11(13)9-10-12-6-2-4-8-14(12)17/h1-10H,(H2,16,18)
Instrument: Q Exactive Orbitrap (Thermo Scientific)
Instrument type: LC-ESI-QFT
Ms type: MS2
Ion mode: POSITIVE
Ionization: ESI
Fragmentation mode: HCD
Collision energy: 75
Resolution: 17500
Column name: Acquity BEH C18 1.7um, 2.1x150mm (Waters)
Retention time: 15.734 min
Base peak: 79.0212
Precursor m/z: 237.1022
Precursor type: [M+H]+
Precursor intensity: 23188745.25
m/z	relative intensity	assigned
65.0387	2	C5H5+
89.0387	2	C7H5+
91.0543	18	C7H7+
116.0495	19	C8H6N+
117.0573	13	C8H7N+
128.0495	2	C9H6N+
128.0623	2	C10H8+
134.06	9	C8H8NO+
140.0496	1	C10H6N+
141.07	1	C11H9+
146.0601	1	C9H8NO+
152.0621	44	C12H8+
153.0702	1	C12H9+
165.07	152	C13H9+
166.0652	9	C12H8N+
166.0776	12	C13H10+
167.073	40	C12H9N+
167.0856	49	C13H11+
168.0807	7	C12H10N+
169.0651	5	C12H9O+
176.0621	14	C14H8+
177.0573	6	C13H7N+
177.07	26	C14H9+
178.0652	14	C13H8N+
178.0778	14	C14H10+
179.073	295	C13H9N+
180.0807	1	C13H10N+
183.0683	1	C12H9NO+
190.0654	26	C14H8N+
191.0732	91	C14H9N+
192.081	411	C14H10N+
193.0888	598	C14H11N+
194.0964	999	C14H12N+
196.0755	2	C13H10NO+
205.0758	1	C14H9N2+
