Mass spectrum: 4-Ethoxy-4-oxobut-2-enoic acid; LC-ESI-QFT; MS2; CE: 45; R=17500; [M-H]-
Name: 4-Ethoxy-4-oxobut-2-enoic acid
Formula: C6H8O4
Exact mass: 144.0423
SMILES: CCOC(=O)C=CC(O)=O
InChI: InChI=1S/C6H8O4/c1-2-10-6(9)4-3-5(7)8/h3-4H,2H2,1H3,(H,7,8)
Instrument: Q Exactive Orbitrap (Thermo Scientific)
Instrument type: LC-ESI-QFT
Ms type: MS2
Ion mode: NEGATIVE
Ionization: ESI
Fragmentation mode: HCD
Collision energy: 45
Resolution: 17500
Column name: Acquity BEH C18 1.7um, 2.1x150mm (Waters)
Retention time: 12.845 min
Base peak: 143.035
Precursor m/z: 143.035
Precursor type: [M-H]-
Precursor intensity: 2455014.573242
m/z	relative intensity	assigned
55.0189	41	C3H3O-
57.0345	21	C3H5O-
69.0346	84	C4H5O-
71.0139	999	C3H3O2-
71.0503	134	C4H7O-
75.0086	23	C2H3O3-
81.0347	34	C5H5O-
84.0216	153	C4H4O2-
99.0453	25	C5H7O2-
143.0347	18	C6H7O4-
