Mass spectrum: Pymetrozine; LC-ESI-QFT; MS2; CE: 60; R=17500; [M+H]+
Name: Pymetrozine
Name: 6-methyl-4-[(E)-pyridin-3-ylmethylideneamino]-2,5-dihydro-1,2,4-triazin-3-one
Formula: C10H11N5O
Exact mass: 217.0964
SMILES: CC1=NNC(=O)N(C1)\N=C\C1=CC=CN=C1
InChI: InChI=1S/C10H11N5O/c1-8-7-15(10(16)14-13-8)12-6-9-3-2-4-11-5-9/h2-6H,7H2,1H3,(H,14,16)/b12-6+
Instrument: Q Exactive Orbitrap (Thermo Scientific)
Instrument type: LC-ESI-QFT
Ms type: MS2
Ion mode: POSITIVE
Ionization: ESI
Fragmentation mode: HCD
Collision energy: 60
Resolution: 17500
Column name: Acquity BEH C18 1.7um, 2.1x150mm (Waters)
Retention time: 5.130 min
Base peak: 79.0211
Precursor m/z: 218.1036
Precursor type: [M+H]+
Precursor intensity: 9870515.6875
m/z	relative intensity	assigned
78.0338	12	C5H4N+
79.0416	23	C5H5N+
80.0494	12	C5H6N+
92.0495	3	C6H6N+
93.0573	3	C6H7N+
96.0443	8	C5H6NO+
97.0077	1	C8H+
98.0349	3	C3H4N3O+
105.0447	999	C6H5N2+
106.0525	6	C6H6N2+
107.0603	10	C6H7N2+
111.0315	22	C3H3N4O+
120.0557	2	C6H6N3+
121.0395	1	C6H5N2O+
134.0714	2	C7H8N3+
218.1035	2	C10H12N5O+
