Mass spectrum: Octyl gallate; LC-ESI-QFT; MS2; CE: 75; R=17500; [M-H]-
Name: Octyl gallate
Name: octyl 3,4,5-trihydroxybenzoate
Formula: C15H22O5
Exact mass: 282.1467
SMILES: CCCCCCCCOC(=O)C1=CC(O)=C(O)C(O)=C1
InChI: InChI=1S/C15H22O5/c1-2-3-4-5-6-7-8-20-15(19)11-9-12(16)14(18)13(17)10-11/h9-10,16-18H,2-8H2,1H3
Instrument: Q Exactive Orbitrap (Thermo Scientific)
Instrument type: LC-ESI-QFT
Ms type: MS2
Ion mode: NEGATIVE
Ionization: ESI
Fragmentation mode: HCD
Collision energy: 75
Resolution: 17500
Column name: Acquity BEH C18 1.7um, 2.1x150mm (Waters)
Retention time: 18.717 min
Base peak: 357.026
Precursor m/z: 281.1394
Precursor type: [M-H]-
Precursor intensity: 5189932.736328
m/z	relative intensity	assigned
53.0032	18	C3HO-
55.0189	17	C3H3O-
59.0139	6	C2H3O2-
65.0033	59	C4HO-
67.0189	79	C4H3O-
68.9982	39	C3HO2-
69.0346	112	C4H5O-
71.0139	43	C3H3O2-
72.9932	50	C2HO3-
78.0111	38	C5H2O-
79.0189	31	C5H3O-
81.0346	26	C5H5O-
82.006	15	C4H2O2-
83.0139	61	C4H3O2-
87.0087	27	C3H3O3-
95.0139	68	C5H3O2-
96.9932	16	C4HO3-
97.0295	83	C5H5O2-
99.0088	13	C4H3O3-
106.006	115	C6H2O2-
107.0139	7	C6H3O2-
110.001	79	C5H2O3-
111.0088	456	C5H3O3-
123.0088	225	C6H3O3-
124.0166	188	C6H4O3-
125.0244	999	C6H5O3-
127.0037	207	C5H3O4-
136.9881	300	C6HO4-
139.0037	462	C6H3O4-
140.0115	753	C6H4O4-
141.9908	9	C5H2O5-
154.9989	58	C6H3O5-
169.0143	44	C7H5O5-
