Mass spectrum: Carfentrazone-ethyl; LC-ESI-QFT; MS2; CE: 15; R=17500; [M+H]+
Name: Carfentrazone-ethyl
Name: ethyl 2-chloro-3-[2-chloro-5-[4-(difluoromethyl)-3-methyl-5-oxo-1,2,4-triazol-1-yl]-4-fluorophenyl]propanoate
Formula: C15H14Cl2F3N3O3
Exact mass: 411.0364
SMILES: CCOC(=O)C(Cl)CC1=C(Cl)C=C(F)C(=C1)N1N=C(C)N(C(F)F)C1=O
InChI: InChI=1S/C15H14Cl2F3N3O3/c1-3-26-13(24)10(17)4-8-5-12(11(18)6-9(8)16)23-15(25)22(14(19)20)7(2)21-23/h5-6,10,14H,3-4H2,1-2H3
Instrument: Q Exactive Orbitrap (Thermo Scientific)
Instrument type: LC-ESI-QFT
Ms type: MS2
Ion mode: POSITIVE
Ionization: ESI
Fragmentation mode: HCD
Collision energy: 15
Resolution: 17500
Column name: Acquity BEH C18 1.7um, 2.1x150mm (Waters)
Retention time: 18.363 min
Base peak: 79.0212
Precursor m/z: 412.0437
Precursor type: [M+H]+
Precursor intensity: 3808857.84375
m/z	relative intensity	assigned
316.0052	44	C12H9Cl2FN3O2+
320.0411	8	C12H10ClF3N3O2+
338.0069	2	C12H9Cl2F3N3O+
345.9957	48	C13H8Cl2F2N3O2+
358.0143	1	C14H11Cl2FN3O3+
362.0487	2	C14H15Cl2FN3O3+
366.0021	528	C13H9Cl2F3N3O2+
374.0277	1	C12H13Cl2F3N3O3+
384.0126	816	C13H11Cl2F3N3O3+
392.0386	2	C15H14Cl2F2N3O3+
412.0439	999	C15H15Cl2F3N3O3+
