Mass spectrum: Imazethapyr; LC-ESI-QFT; MS2; CE: 60; R=17500; [M+H]+
Name: Imazethapyr
Name: 5-ethyl-2-(4-methyl-5-oxo-4-propan-2-yl-1H-imidazol-2-yl)pyridine-3-carboxylic acid
Formula: C15H19N3O3
Exact mass: 289.1426
SMILES: CCC1=CN=C(C2=NC(C)(C(C)C)C(=O)N2)C(=C1)C(O)=O
InChI: InChI=1S/C15H19N3O3/c1-5-9-6-10(13(19)20)11(16-7-9)12-17-14(21)15(4,18-12)8(2)3/h6-8H,5H2,1-4H3,(H,19,20)(H,17,18,21)
Instrument: Q Exactive Orbitrap (Thermo Scientific)
Instrument type: LC-ESI-QFT
Ms type: MS2
Ion mode: POSITIVE
Ionization: ESI
Fragmentation mode: HCD
Collision energy: 60
Resolution: 17500
Column name: Acquity BEH C18 1.7um, 2.1x150mm (Waters)
Retention time: 14.647 min
Base peak: 79.0211
Precursor m/z: 290.1499
Precursor type: [M+H]+
Precursor intensity: 21792825.25
m/z	relative intensity	assigned
53.0022	33	C3HO+
53.9975	5	C2NO+
56.0495	4	C3H6N+
58.0651	21	C3H8N+
66.0463	1	C5H6+
67.0541	15	C5H7+
67.9893	1	C3O2+
69.0698	823	C5H9+
70.065	11	C4H8N+
71.0729	20	C4H9N+
71.0855	12	C5H11+
72.0443	5	C3H6NO+
72.0807	1	C4H10N+
80.0493	1	C5H6N+
81.0333	1	C5H5O+
84.0807	3	C5H10N+
86.0964	781	C5H12N+
93.0574	2	C6H7N+
93.0699	4	C7H9+
94.0652	1	C6H8N+
95.0491	2	C6H7O+
96.0443	2	C5H6NO+
97.0648	20	C6H9O+
104.0494	9	C7H6N+
105.045	2	C6H5N2+
106.0652	3	C7H8N+
107.073	1	C7H9N+
108.0807	2	C7H10N+
114.0916	1	C6H12NO+
118.0526	2	C7H6N2+
120.0807	1	C8H10N+
121.0396	16	C6H5N2O+
121.0523	1	C7H7NO+
121.0759	1	C7H9N2+
122.06	1	C7H8NO+
124.0757	29	C7H10NO+
131.0602	1	C8H7N2+
132.0682	10	C8H8N2+
133.076	108	C8H9N2+
134.0838	2	C8H10N2+
135.0915	6	C8H11N2+
136.0758	3	C8H10NO+
138.0912	14	C8H12NO+
139.0627	2	C7H9NO2+
145.0883	1	C10H11N+
149.0347	8	C7H5N2O2+
149.0709	35	C8H9N2O+
152.0706	18	C8H10NO2+
158.0966	3	C11H12N+
159.0553	294	C9H7N2O+
160.063	9	C9H8N2O+
160.1122	7	C11H14N+
161.0709	63	C9H9N2O+
161.107	6	C10H13N2+
162.0422	2	C8H6N2O2+
162.055	1	C9H8NO2+
163.0502	1	C8H7N2O2+
163.0867	1	C9H11N2O+
164.0706	13	C9H10NO2+
170.0837	1	C11H10N2+
171.0916	1	C11H11N2+
174.103	2	C10H12N3+
175.0866	326	C10H11N2O+
176.0819	238	C9H10N3O+
177.0658	999	C9H9N2O2+
179.0814	2	C9H11N2O2+
184.0995	2	C12H12N2+
184.1123	1	C13H14N+
185.0709	1	C11H9N2O+
185.1065	1	C12H13N2+
186.0914	2	C12H12NO+
186.115	5	C12H14N2+
187.0739	1	C10H9N3O+
188.0941	2	C11H12N2O+
189.0661	2	C10H9N2O2+
191.0814	24	C10H11N2O2+
194.0927	1	C9H12N3O2+
198.079	1	C12H10N2O+
199.1229	10	C13H15N2+
200.0818	4	C11H10N3O+
201.0896	23	C11H11N3O+
201.1386	26	C13H17N2+
202.0975	369	C11H12N3O+
203.1178	36	C12H15N2O+
204.1019	8	C12H14NO2+
204.1132	8	C11H14N3O+
205.0971	7	C11H13N2O2+
212.0947	10	C13H12N2O+
215.0693	2	C11H9N3O2+
219.1002	23	C11H13N3O2+
220.1083	8	C11H14N3O2+
227.1178	76	C14H15N2O+
229.0845	22	C12H11N3O2+
230.0923	362	C12H12N3O2+
244.1443	14	C14H18N3O+
245.1284	70	C14H17N2O2+
247.0943	6	C12H13N3O3+
248.1028	25	C12H14N3O3+
260.1028	1	C13H14N3O3+
262.1545	2	C14H20N3O2+
290.1494	2	C15H20N3O3+
