Mass spectrum: 2,4,6-Tris(allyloxy)-1,3,5-triazine; LC-ESI-QFT; MS2; CE: 60; R=17500; [M+H]+
Name: 2,4,6-Tris(allyloxy)-1,3,5-triazine
Name: Triallyl cyanurate
Name: 2,4,6-tris(prop-2-enoxy)-1,3,5-triazine
Formula: C12H15N3O3
Exact mass: 249.1113
SMILES: C=CCOC1=NC(OCC=C)=NC(OCC=C)=N1
InChI: InChI=1S/C12H15N3O3/c1-4-7-16-10-13-11(17-8-5-2)15-12(14-10)18-9-6-3/h4-6H,1-3,7-9H2
Instrument: Q Exactive Orbitrap (Thermo Scientific)
Instrument type: LC-ESI-QFT
Ms type: MS2
Ion mode: POSITIVE
Ionization: ESI
Fragmentation mode: HCD
Collision energy: 60
Resolution: 17500
Column name: Acquity BEH C18 1.7um, 2.1x150mm (Waters)
Retention time: 17.729 min
Base peak: 79.0211
Precursor m/z: 250.1186
Precursor type: [M+H]+
Precursor intensity: 19658434.875
m/z	relative intensity	assigned
51.0229	5	C4H3+
53.0022	180	C3HO+
53.0386	180	C4H5+
53.9975	28	C2NO+
54.0338	23	C3H4N+
55.0543	21	C4H7+
56.0131	193	C2H2NO+
56.0495	24	C3H6N+
58.0651	52	C3H8N+
65.0386	38	C5H5+
66.0464	24	C5H6+
67.9892	7	C3O2+
68.0494	22	C4H6N+
69.9923	206	C2NO2+
79.0542	999	C6H7+
81.0699	934	C6H9+
82.0287	178	C4H4NO+
84.0444	201	C4H6NO+
87.0189	184	C2H3N2O2+
95.0492	36	C6H7O+
96.0443	8	C5H6NO+
96.0808	16	C6H10N+
99.0188	34	C3H3N2O2+
105.0449	16	C6H5N2+
127.0502	23	C5H7N2O2+
130.0249	20	C3H4N3O3+
170.0568	6	C6H8N3O3+
