Mass spectrum: N-Ethyl-4-menthane-3-carboxamide; LC-ESI-QFT; MS2; CE: 90; R=17500; [M+H]+
Name: N-Ethyl-4-menthane-3-carboxamide
Name: N-Ethyl-p-menthane-3-carboxamide
Name: N-ethyl-5-methyl-2-propan-2-ylcyclohexane-1-carboxamide
Formula: C13H25NO
Exact mass: 211.1936
SMILES: CCNC(=O)C1CC(C)CCC1C(C)C
InChI: InChI=1S/C13H25NO/c1-5-14-13(15)12-8-10(4)6-7-11(12)9(2)3/h9-12H,5-8H2,1-4H3,(H,14,15)
Instrument: Q Exactive Orbitrap (Thermo Scientific)
Instrument type: LC-ESI-QFT
Ms type: MS2
Ion mode: POSITIVE
Ionization: ESI
Fragmentation mode: HCD
Collision energy: 90
Resolution: 17500
Column name: Acquity BEH C18 1.7um, 2.1x150mm (Waters)
Retention time: 17.986 min
Base peak: 79.0211
Precursor m/z: 212.2009
Precursor type: [M+H]+
Precursor intensity: 84686079.60938
m/z	relative intensity	assigned
53.0022	34	C3HO+
53.0386	35	C4H5+
53.9975	6	C2NO+
54.0338	7	C3H4N+
55.0179	117	C3H3O+
55.0542	999	C4H7+
56.0495	19	C3H6N+
57.0699	95	C4H9+
58.0651	31	C3H8N+
65.0386	8	C5H5+
67.0542	97	C5H7+
69.0699	331	C5H9+
70.0651	8	C4H8N+
71.0855	4	C5H11+
72.0443	285	C3H6NO+
74.06	108	C3H8NO+
79.0542	103	C6H7+
81.0699	225	C6H9+
82.0652	19	C5H8N+
83.0855	232	C6H11+
84.0808	21	C5H10N+
86.0964	2	C5H12N+
87.068	9	C4H9NO+
91.0542	57	C7H7+
93.0699	47	C7H9+
94.0651	7	C6H8N+
95.0491	22	C6H7O+
95.0855	78	C7H11+
96.0807	5	C6H10N+
97.1012	145	C7H13+
98.06	33	C5H8NO+
98.0964	6	C6H12N+
100.0757	97	C5H10NO+
105.07	26	C8H9+
107.0855	50	C8H11+
108.0806	9	C7H10N+
109.0648	8	C7H9O+
109.1012	7	C8H13+
110.0964	9	C7H12N+
112.0757	8	C6H10NO+
114.0914	5	C6H12NO+
121.1011	3	C9H13+
122.0963	8	C8H12N+
123.0804	1	C8H11O+
123.1041	7	C8H13N+
123.1169	9	C9H15+
124.112	10	C8H14N+
126.0913	22	C7H12NO+
126.1275	2	C8H16N+
128.107	2	C7H14NO+
136.1121	7	C9H14N+
140.107	6	C8H14NO+
142.123	8	C8H16NO+
150.1276	4	C10H16N+
152.1434	5	C10H18N+
154.1224	3	C9H16NO+
168.1382	2	C10H18NO+
170.1538	54	C10H20NO+
212.2012	8	C13H26NO+
