Mass spectrum: Triflumizole; LC-ESI-QFT; MS2; CE: 30; R=17500; [M+H]+
Name: Triflumizole
Name: N-[4-chloro-2-(trifluoromethyl)phenyl]-1-imidazol-1-yl-2-propoxyethanimine
Formula: C15H15ClF3N3O
Exact mass: 345.0856
SMILES: CCCOC\C(=N/C1=C(C=C(Cl)C=C1)C(F)(F)F)N1C=CN=C1
InChI: InChI=1S/C15H15ClF3N3O/c1-2-7-23-9-14(22-6-5-20-10-22)21-13-4-3-11(16)8-12(13)15(17,18)19/h3-6,8,10H,2,7,9H2,1H3
Instrument: Q Exactive Orbitrap (Thermo Scientific)
Instrument type: LC-ESI-QFT
Ms type: MS2
Ion mode: POSITIVE
Ionization: ESI
Fragmentation mode: HCD
Collision energy: 30
Resolution: 17500
Column name: Acquity BEH C18 1.7um, 2.1x150mm (Waters)
Retention time: 19.040 min
Base peak: 79.0211
Precursor m/z: 346.0929
Precursor type: [M+H]+
Precursor intensity: 24124363
m/z	relative intensity	assigned
53.0023	234	C3HO+
55.0543	867	C4H7+
69.0447	350	C3H5N2+
73.0648	999	C4H9O+
278.0561	365	C12H12ClF3NO+
