Mass spectrum: 2,4-Dinitrophenol; LC-ESI-QFT; MS2; CE: 75; R=17500; [M-H]-
Name: 2,4-Dinitrophenol
Formula: C6H4N2O5
Exact mass: 184.0120
SMILES: OC1=C(C=C(C=C1)[N+]([O-])=O)[N+]([O-])=O
InChI: InChI=1S/C6H4N2O5/c9-6-2-1-4(7(10)11)3-5(6)8(12)13/h1-3,9H
Instrument: Q Exactive Orbitrap (Thermo Scientific)
Instrument type: LC-ESI-QFT
Ms type: MS2
Ion mode: NEGATIVE
Ionization: ESI
Fragmentation mode: HCD
Collision energy: 75
Resolution: 17500
Column name: Acquity BEH C18 1.7um, 2.1x150mm (Waters)
Retention time: 14.528 min
Base peak: 183.0047
Precursor m/z: 183.0047
Precursor type: [M-H]-
Precursor intensity: 47490975.99023
m/z	relative intensity	assigned
50.0036	7	C3N-
51.024	5	C4H3-
52.0192	5	C3H2N-
53.0032	17	C3HO-
55.0189	21	C3H3O-
62.0161	2	C5H2-
63.024	4	C5H3-
64.0193	37	C4H2N-
65.0033	35	C4HO-
65.9986	25	C3NO-
66.0111	54	C4H2O-
67.019	218	C4H3O-
68.0142	23	C3H2NO-
68.9982	116	C3HO2-
72.9931	2	C2HO3-
79.019	41	C5H3O-
80.9983	3	C4HO2-
82.006	6	C4H2O2-
83.0138	3	C4H3O2-
89.9985	2	C5NO-
90.0112	3	C6H2O-
91.019	10	C6H3O-
92.0142	18	C5H2NO-
92.9982	31	C5HO2-
95.0139	999	C5H3O2-
96.0092	3	C4H2NO2-
106.006	4	C6H2O2-
107.0139	11	C6H3O2-
108.0093	9	C5H2NO2-
109.0169	151	C5H3NO2-
120.0091	63	C6H2NO2-
123.0088	692	C6H3O3-
124.004	7	C5H2NO3-
125.0118	363	C5H3NO3-
137.0118	46	C6H3NO3-
139.9991	3	C5H2NO4-
153.0068	168	C6H3NO4-
183.0047	81	C6H3N2O5-
