Mass spectrum: Dinotefuran; LC-ESI-QFT; MS2; CE: 45; R=17500; [M-H]-
Name: Dinotefuran
Name: Scorpion
Name: 2-methyl-1-nitro-3-(oxolan-3-ylmethyl)guanidine
Formula: C7H14N4O3
Exact mass: 202.1066
SMILES: CNC(NCC1CCOC1)=N[N+]([O-])=O
InChI: InChI=1S/C7H14N4O3/c1-8-7(10-11(12)13)9-4-6-2-3-14-5-6/h6H,2-5H2,1H3,(H2,8,9,10)
Instrument: Q Exactive Orbitrap (Thermo Scientific)
Instrument type: LC-ESI-QFT
Ms type: MS2
Ion mode: NEGATIVE
Ionization: ESI
Fragmentation mode: HCD
Collision energy: 45
Resolution: 17500
Column name: Acquity BEH C18 1.7um, 2.1x150mm (Waters)
Retention time: 9.295 min
Base peak: 201.0993
Precursor m/z: 201.0993
Precursor type: [M-H]-
Precursor intensity: 9815232.080566
m/z	relative intensity	assigned
52.0193	1	C3H2N-
55.0301	62	C2H3N2-
56.014	1	C2H2NO-
58.0298	2	C2H4NO-
61.0043	999	HN2O2-
66.0349	25	C4H4N-
67.0302	3	C3H3N2-
68.0506	83	C4H6N-
69.0096	7	C2HN2O-
73.0407	23	C2H5N2O-
78.0348	2	C5H4N-
80.0506	8	C5H6N-
81.0459	2	C4H5N2-
82.0298	14	C4H4NO-
82.0662	2	C5H8N-
92.0507	2	C6H6N-
98.0614	3	C5H8NO-
100.0768	3	C5H10NO-
107.0615	3	C6H7N2-
108.0454	2	C6H6NO-
109.0771	14	C6H9N2-
111.0928	1	C6H11N2-
117.0417	4	C2H5N4O2-
125.0719	3	C6H9N2O-
127.0881	1	C6H11N2O-
139.0879	6	C7H11N2O-
157.0983	3	C7H13N2O2-
201.0994	31	C7H13N4O3-
