Mass spectrum: Acesulfame; LC-ESI-QFT; MS2; CE: 90; R=17500; [M-H]-
Name: Acesulfame
Name: 6-methyl-2,2-dioxooxathiazin-4-one
Formula: C4H5NO4S
Exact mass: 162.9939
SMILES: CC1=CC(=O)NS(=O)(=O)O1
InChI: InChI=1S/C4H5NO4S/c1-3-2-4(6)5-10(7,8)9-3/h2H,1H3,(H,5,6)
Instrument: Q Exactive Orbitrap (Thermo Scientific)
Instrument type: LC-ESI-QFT
Ms type: MS2
Ion mode: NEGATIVE
Ionization: ESI
Fragmentation mode: HCD
Collision energy: 90
Resolution: 17500
Column name: Acquity BEH C18 1.7um, 2.1x150mm (Waters)
Retention time: 4.924 min
Base peak: 161.9867
Precursor m/z: 161.9867
Precursor type: [M-H]-
Precursor intensity: 4533424.724609
m/z	relative intensity	assigned
55.0189	3	C3H3O-
63.9624	34	O2S-
64.0193	30	C4H2N-
65.9986	36	C3NO-
70.0298	5	C3H4NO-
77.9656	999	NO2S-
79.9574	15	O3S-
82.0299	543	C4H4NO-
