Mass spectrum: FR130739; LC-ESI-QFT; MS2; CE: 30; R=17500; [M+H]+
Name: FR130739
Name: FK-739 free acid
Name: 2-butyl-3-[[4-[2-(2H-tetrazol-5-yl)phenyl]phenyl]methyl]imidazo[4,5-b]pyridine
Formula: C24H23N7
Exact mass: 409.2015
SMILES: CCCCC1=NC2=C(N=CC=C2)N1CC1=CC=C(C=C1)C1=CC=CC=C1C1=NN=NN1
InChI: InChI=1S/C24H23N7/c1-2-3-10-22-26-21-9-6-15-25-24(21)31(22)16-17-11-13-18(14-12-17)19-7-4-5-8-20(19)23-27-29-30-28-23/h4-9,11-15H,2-3,10,16H2,1H3,(H,27,28,29,30)
Instrument: Q Exactive Orbitrap (Thermo Scientific)
Instrument type: LC-ESI-QFT
Ms type: MS2
Ion mode: POSITIVE
Ionization: ESI
Fragmentation mode: HCD
Collision energy: 30
Resolution: 17500
Column name: Acquity BEH C18 1.7um, 2.1x150mm (Waters)
Retention time: 16.703 min
Base peak: 79.0212
Precursor m/z: 410.2088
Precursor type: [M+H]+
Precursor intensity: 19324413.75
m/z	relative intensity	assigned
176.1183	199	C10H14N3+
178.0777	17	C14H10+
179.0857	2	C14H11+
180.0808	10	C13H10N+
190.0644	1	C14H8N+
192.0683	1	C13H8N2+
192.0809	9	C14H10N+
195.0913	1	C13H11N2+
196.0763	2	C11H8N4+
205.0766	1	C14H9N2+
206.0842	8	C14H10N2+
207.0916	999	C14H11N2+
208.0752	1	C12H8N4+
235.0975	6	C14H11N4+
239.1178	1	C13H13N5+
367.1919	33	C24H23N4+
382.203	2	C24H24N5+
410.2088	6	C24H24N7+
