Mass spectrum: Michler`s ketone; LC-ESI-QFT; MS2; CE: 45; R=17500; [M+H]+
Name: Michler's ketone
Name: bis[4-(dimethylamino)phenyl]methanone
Formula: C17H20N2O
Exact mass: 268.1576
SMILES: CN(C)C1=CC=C(C=C1)C(=O)C1=CC=C(C=C1)N(C)C
InChI: InChI=1S/C17H20N2O/c1-18(2)15-9-5-13(6-10-15)17(20)14-7-11-16(12-8-14)19(3)4/h5-12H,1-4H3
Instrument: Q Exactive Orbitrap (Thermo Scientific)
Instrument type: LC-ESI-QFT
Ms type: MS2
Ion mode: POSITIVE
Ionization: ESI
Fragmentation mode: HCD
Collision energy: 45
Resolution: 17500
Column name: Acquity BEH C18 1.7um, 2.1x150mm (Waters)
Retention time: 18.149 min
Base peak: 79.0211
Precursor m/z: 269.1648
Precursor type: [M+H]+
Precursor intensity: 33732459
m/z	relative intensity	assigned
79.0542	4	C6H7+
81.0335	1	C5H5O+
91.0542	1	C7H7+
93.0698	1	C7H9+
96.0808	1	C6H10N+
103.0541	1	C8H7+
105.0572	2	C7H7N+
118.0649	1	C8H8N+
120.0808	17	C8H10N+
124.0753	1	C7H10NO+
148.0756	999	C9H10NO+
269.1649	47	C17H21N2O+
