Mass spectrum: Imazethapyr; LC-ESI-QFT; MS2; CE: 30; R=17500; [M+H]+
Name: Imazethapyr
Name: 5-ethyl-2-(4-methyl-5-oxo-4-propan-2-yl-1H-imidazol-2-yl)pyridine-3-carboxylic acid
Formula: C15H19N3O3
Exact mass: 289.1426
SMILES: CCC1=CN=C(C2=NC(C)(C(C)C)C(=O)N2)C(=C1)C(O)=O
InChI: InChI=1S/C15H19N3O3/c1-5-9-6-10(13(19)20)11(16-7-9)12-17-14(21)15(4,18-12)8(2)3/h6-8H,5H2,1-4H3,(H,19,20)(H,17,18,21)
Instrument: Q Exactive Orbitrap (Thermo Scientific)
Instrument type: LC-ESI-QFT
Ms type: MS2
Ion mode: POSITIVE
Ionization: ESI
Fragmentation mode: HCD
Collision energy: 30
Resolution: 17500
Column name: Acquity BEH C18 1.7um, 2.1x150mm (Waters)
Retention time: 14.647 min
Base peak: 79.0211
Precursor m/z: 290.1499
Precursor type: [M+H]+
Precursor intensity: 20481027
m/z	relative intensity	assigned
58.0651	4	C3H8N+
69.0698	10	C5H9+
71.0854	1	C5H11+
86.0964	61	C5H12N+
97.0648	4	C6H9O+
114.0914	4	C6H12NO+
133.0759	4	C8H9N2+
175.0865	2	C10H11N2O+
176.0819	11	C9H10N3O+
177.0658	28	C9H9N2O2+
194.0927	2	C9H12N3O2+
201.1386	39	C13H17N2+
202.0975	1	C11H12N3O+
203.118	2	C12H15N2O+
204.1128	3	C11H14N3O+
218.1651	4	C13H20N3+
219.1007	2	C11H13N3O2+
227.1178	5	C14H15N2O+
230.0924	48	C12H12N3O2+
244.1445	61	C14H18N3O+
245.1284	232	C14H17N2O2+
246.1602	3	C14H20N3O+
247.0948	5	C12H13N3O3+
248.1029	200	C12H14N3O3+
262.155	133	C14H20N3O2+
272.1393	26	C15H18N3O2+
290.1498	999	C15H20N3O3+
