Mass spectrum: Bispyribac; LC-ESI-QFT; MS2; CE: 90; R=17500; [M-H]-
Name: Bispyribac
Formula: C19H18N4O8
Exact mass: 430.1125
SMILES: COC1=CC(OC)=NC(OC2=CC=CC(OC3=NC(OC)=CC(OC)=N3)=C2C(O)=O)=N1
InChI: InChI=1S/C19H18N4O8/c1-26-12-8-13(27-2)21-18(20-12)30-10-6-5-7-11(16(10)17(24)25)31-19-22-14(28-3)9-15(23-19)29-4/h5-9H,1-4H3,(H,24,25)
Instrument: Q Exactive Orbitrap (Thermo Scientific)
Instrument type: LC-ESI-QFT
Ms type: MS2
Ion mode: NEGATIVE
Ionization: ESI
Fragmentation mode: HCD
Collision energy: 90
Resolution: 17500
Column name: Acquity BEH C18 1.7um, 2.1x150mm (Waters)
Retention time: 17.312 min
Base peak: 112.9856
Precursor m/z: 429.1052
Precursor type: [M-H]-
Precursor intensity: 4737428.010742
m/z	relative intensity	assigned
64.0068	45	C3N2-
65.0145	59	C3HN2-
65.9985	999	C3NO-
79.0302	101	C4H3N2-
97.017	21	C4H3NO2-
109.0043	26	C4HN2O2-
110.0121	22	C4H2N2O2-
125.0356	33	C5H5N2O2-
140.0229	34	C5H4N2O3-
155.0463	27	C6H7N2O3-
