Mass spectrum: Carbonyl cyanide chlorophenylhydrazone; LC-ESI-QFT; MS2; CE: 30; R=17500; [M-H]-
Name: Carbonyl cyanide chlorophenylhydrazone
Name: (3-Chlorophenyl)hydrazonomalononitrile
Name: 2-[(3-chlorophenyl)hydrazinylidene]propanedinitrile
Formula: C9H5ClN4
Exact mass: 204.0203
SMILES: ClC1=CC=CC(NN=C(C#N)C#N)=C1
InChI: InChI=1S/C9H5ClN4/c10-7-2-1-3-8(4-7)13-14-9(5-11)6-12/h1-4,13H
Instrument: Q Exactive Orbitrap (Thermo Scientific)
Instrument type: LC-ESI-QFT
Ms type: MS2
Ion mode: NEGATIVE
Ionization: ESI
Fragmentation mode: HCD
Collision energy: 30
Resolution: 17500
Column name: Acquity BEH C18 1.7um, 2.1x150mm (Waters)
Retention time: 18.007 min
Base peak: 203.0131
Precursor m/z: 203.013
Precursor type: [M-H]-
Precursor intensity: 149375706.8281
m/z	relative intensity	assigned
64.0067	47	C3N2-
65.0146	1	C3HN2-
66.0099	1	C2N3-
115.0301	16	C7H3N2-
139.0302	9	C9H3N2-
151.0068	999	C7H4ClN2-
167.0363	8	C9H3N4-
175.0069	3	C9H4ClN2-
176.0021	71	C8H3ClN3-
203.0131	654	C9H4ClN4-
