Mass spectrum: Budesonide; LC-ESI-QFT; MS2; CE: 90; R=17500; [M+H]+
Name: Budesonide
Name: (1S,2S,4R,8S,9S,11S,12S,13R)-11-hydroxy-8-(2-hydroxyacetyl)-9,13-dimethyl-6-propyl-5,7-dioxapentacyclo[10.8.0.02,9.04,8.013,18]icosa-14,17-dien-16-one
Formula: C25H34O6
Exact mass: 430.2355
SMILES: CCCC1O[C@@H]2C[C@H]3[C@@H]4CCC5=CC(=O)C=C[C@]5(C)[C@H]4[C@@H](O)C[C@]3(C)[C@@]2(O1)C(=O)CO
InChI: InChI=1S/C25H34O6/c1-4-5-21-30-20-11-17-16-7-6-14-10-15(27)8-9-23(14,2)22(16)18(28)12-24(17,3)25(20,31-21)19(29)13-26/h8-10,16-18,20-22,26,28H,4-7,11-13H2,1-3H3/t16-,17-,18-,20+,21?,22+,23-,24-,25+/m0/s1
Instrument: Q Exactive Orbitrap (Thermo Scientific)
Instrument type: LC-ESI-QFT
Ms type: MS2
Ion mode: POSITIVE
Ionization: ESI
Fragmentation mode: HCD
Collision energy: 90
Resolution: 17500
Column name: Acquity BEH C18 1.7um, 2.1x150mm (Waters)
Retention time: 18.150 min
Base peak: 79.0212
Precursor m/z: 431.2428
Precursor type: [M+H]+
Precursor intensity: 5460130
m/z	relative intensity	assigned
53.0386	133	C4H5+
55.0179	125	C3H3O+
55.0543	97	C4H7+
65.0386	88	C5H5+
67.0541	110	C5H7+
69.0335	65	C4H5O+
79.0543	288	C6H7+
81.0337	25	C5H5O+
81.0699	149	C6H9+
91.0543	999	C7H7+
93.0699	151	C7H9+
95.0491	270	C6H7O+
95.0855	32	C7H11+
103.0542	176	C8H7+
105.07	309	C8H9+
107.0491	143	C7H7O+
107.0855	25	C8H11+
109.065	60	C7H9O+
115.0542	323	C9H7+
116.0622	79	C9H8+
117.07	266	C9H9+
119.0855	335	C9H11+
121.0648	420	C8H9O+
128.0622	468	C10H8+
129.0699	276	C10H9+
130.0779	101	C10H10+
131.0491	150	C9H7O+
131.0855	67	C10H11+
132.057	321	C9H8O+
141.07	183	C11H9+
142.078	68	C11H10+
143.0855	60	C11H11+
144.0568	136	C10H8O+
145.0649	238	C10H9O+
145.101	49	C11H13+
146.0729	50	C10H10O+
147.0805	297	C10H11O+
152.0624	117	C12H8+
153.0701	139	C12H9+
154.0778	24	C12H10+
155.0855	134	C12H11+
157.0647	118	C11H9O+
158.0727	370	C11H10O+
159.0806	77	C11H11O+
165.0699	264	C13H9+
166.078	63	C13H10+
167.0856	105	C13H11+
169.065	132	C12H9O+
170.0725	37	C12H10O+
171.0805	258	C12H11O+
172.0877	26	C12H12O+
173.0962	39	C12H13O+
178.0778	264	C14H10+
179.0856	188	C14H11+
181.065	207	C13H9O+
181.1012	33	C14H13+
182.0729	71	C13H10O+
183.0806	74	C13H11O+
190.0778	69	C15H10+
191.0857	158	C15H11+
192.0935	125	C15H12+
193.1014	90	C15H13+
194.0728	79	C14H10O+
195.0804	249	C14H11O+
196.0881	108	C14H12O+
197.0963	36	C14H13O+
202.0778	71	C16H10+
203.0856	69	C16H11+
204.0936	31	C16H12+
205.1014	69	C16H13+
207.081	103	C15H11O+
207.1172	24	C16H15+
208.0887	83	C15H12O+
209.0962	67	C15H13O+
211.1122	73	C15H15O+
215.0858	65	C17H11+
216.0938	49	C17H12+
218.0732	49	C16H10O+
219.0805	59	C16H11O+
220.0883	29	C16H12O+
221.0962	79	C16H13O+
222.1037	40	C16H14O+
229.1003	43	C18H13+
231.0806	61	C17H11O+
232.0889	61	C17H12O+
233.0965	68	C17H13O+
245.0958	37	C18H13O+
247.1123	40	C18H15O+
