Mass spectrum: Methyldopa; LC-ESI-QFT; MS2; CE: 45; R=17500; [M-H]-
Name: Methyldopa
Name: (2S)-2-amino-3-(3,4-dihydroxyphenyl)-2-methylpropanoic acid
Formula: C10H13NO4
Exact mass: 211.0845
SMILES: C[C@](N)(Cc1ccc(O)c(O)c1)C(=O)O
InChI: InChI=1S/C10H13NO4/c1-10(11,9(14)15)5-6-2-3-7(12)8(13)4-6/h2-4,12-13H,5,11H2,1H3,(H,14,15)/t10-/m0/s1
Instrument: Q Exactive Orbitrap (Thermo Scientific)
Instrument type: LC-ESI-QFT
Ms type: MS2
Ion mode: NEGATIVE
Ionization: ESI
Fragmentation mode: HCD
Collision energy: 45
Resolution: 17500
Column name: Acquity BEH C18 1.7um, 2.1x150mm (Waters)
Retention time: 3.618 min
Base peak: 198.9363
Precursor m/z: 210.0772
Precursor type: [M-H]-
Precursor intensity: 554288.7373047
m/z	relative intensity	assigned
86.0248	282	C3H4NO2-
109.0295	108	C6H5O2-
121.0291	10	C7H5O2-
122.0374	346	C7H6O2-
123.0452	184	C7H7O2-
124.0166	30	C6H4O3-
131.0502	9	C9H7O-
137.0244	59	C7H5O3-
148.053	16	C9H8O2-
149.0608	999	C9H9O2-
154.0273	84	C7H6O4-
193.0502	8	C10H9O4-
210.0771	14	C10H12NO4-
