Mass spectrum: Flutamide; LC-ESI-QFT; MS2; CE: 30; R=17500; [M-H]-
Name: Flutamide
Name: 2-methyl-N-[4-nitro-3-(trifluoromethyl)phenyl]propanamide
Formula: C11H11F3N2O3
Exact mass: 276.0722
SMILES: CC(C)C(=O)NC1=CC(=C(C=C1)[N+]([O-])=O)C(F)(F)F
InChI: InChI=1S/C11H11F3N2O3/c1-6(2)10(17)15-7-3-4-9(16(18)19)8(5-7)11(12,13)14/h3-6H,1-2H3,(H,15,17)
Instrument: Q Exactive Orbitrap (Thermo Scientific)
Instrument type: LC-ESI-QFT
Ms type: MS2
Ion mode: NEGATIVE
Ionization: ESI
Fragmentation mode: HCD
Collision energy: 30
Resolution: 17500
Column name: Acquity BEH C18 1.7um, 2.1x150mm (Waters)
Retention time: 17.509 min
Base peak: 275.0649
Precursor m/z: 275.0649
Precursor type: [M-H]-
Precursor intensity: 152229843.4961
m/z	relative intensity	assigned
160.0381	1	C7H5F3N-
173.0092	2	C7H2F3NO-
174.0175	1	C7H3F3NO-
182.0059	1	C8H2F2NO2-
186.0174	1	C8H3F3NO-
190.0123	2	C7H3F3NO2-
191.0201	1	C7H4F3NO2-
202.0122	147	C8H3F3NO2-
205.023	110	C7H4F3N2O2-
206.007	6	C7H3F3NO3-
229.0719	4	C11H10F3NO-
232.0101	22	C8H3F3N2O3-
245.0671	1	C11H10F3NO2-
259.0318	1	C10H6F3N2O3-
275.0649	999	C11H10F3N2O3-
