Mass spectrum: Triphenyl phosphate; LC-ESI-QFT; MS2; CE: 90; R=17500; [M+H]+
Name: Triphenyl phosphate
Formula: C18H15O4P
Exact mass: 326.0708
SMILES: O=P(OC1=CC=CC=C1)(OC1=CC=CC=C1)OC1=CC=CC=C1
InChI: InChI=1S/C18H15O4P/c19-23(20-16-10-4-1-5-11-16,21-17-12-6-2-7-13-17)22-18-14-8-3-9-15-18/h1-15H
Instrument: Q Exactive Orbitrap (Thermo Scientific)
Instrument type: LC-ESI-QFT
Ms type: MS2
Ion mode: POSITIVE
Ionization: ESI
Fragmentation mode: HCD
Collision energy: 90
Resolution: 17500
Column name: Acquity BEH C18 1.7um, 2.1x150mm (Waters)
Retention time: 18.547 min
Base peak: 79.0211
Precursor m/z: 327.0781
Precursor type: [M+H]+
Precursor intensity: 63706797.92187
m/z	relative intensity	assigned
50.0151	8	C4H2+
51.0229	17	C4H3+
53.0386	216	C4H5+
55.0178	11	C3H3O+
55.0542	1	C4H7+
57.0699	16	C4H9+
65.0021	5	C4HO+
65.0386	58	C5H5+
66.01	1	C4H2O+
67.0542	9	C5H7+
68.997	2	C3HO2+
74.0151	1	C6H2+
75.023	2	C6H3+
77.0385	256	C6H5+
78.0464	1	C6H6+
79.0542	10	C6H7+
81.0335	20	C5H5O+
81.0699	3	C6H9+
91.0543	117	C7H7+
92.0257	11	C6H4O+
93.0335	2	C6H5O+
94.0413	34	C6H6O+
95.0492	646	C6H7O+
98.9842	3	H4O4P+
101.0151	2	C4H6OP+
103.0543	7	C8H7+
106.0418	1	C7H6O+
109.0649	5	C7H9O+
111.044	3	C6H7O2+
115.0542	24	C9H7+
117.0699	1	C9H9+
121.0283	2	C7H5O2+
122.0919	14	C5H14O3+
127.0542	14	C10H7+
128.0618	4	C10H8+
129.0099	1	C5H6O2P+
133.0202	17	C8H6P+
134.092	5	C6H14O3+
138.9943	16	C6H4O2P+
139.0542	11	C11H7+
140.0021	2	C6H5O2P+
141.0698	18	C11H9+
142.0778	2	C11H10+
145.0648	16	C10H9O+
150.0465	19	C12H6+
151.0542	18	C12H7+
152.0621	999	C12H8+
153.0698	31	C12H9+
155.0489	1	C11H7O+
155.0604	21	C8H12OP+
157.0049	5	C6H6O3P+
159.0358	8	C10H8P+
168.057	350	C12H8O+
169.0648	114	C12H9O+
170.0724	3	C12H10O+
175.0155	23	C6H8O4P+
179.0603	27	C10H12OP+
183.0804	3	C13H11O+
186.0229	3	C11H7OP+
187.0307	23	C11H8OP+
189.0697	1	C15H9+
200.0625	1	C16H8+
202.0777	26	C16H10+
213.0697	2	C17H9+
215.0256	16	C12H8O2P+
226.0777	54	C18H10+
227.0855	31	C18H11+
228.0933	23	C18H12+
233.0361	13	C12H10O3P+
244.0883	1	C18H12O+
247.0521	2	C13H12O3P+
