Mass spectrum: Aplaviroc; LC-ESI-QFT; MS2; CE: 90; R=17500; [M-H]-
Name: Aplaviroc
Name: 4-[4-[[(3R)-1-butyl-3-[(R)-cyclohexyl(hydroxy)methyl]-2,5-dioxo-1,4,9-triazaspiro[5.5]undecan-9-yl]methyl]phenoxy]benzoic acid
Formula: C33H43N3O6
Exact mass: 577.3152
SMILES: CCCCN1C(=O)[C@@H]([C@H](O)C2CCCCC2)NC(=O)C12CCN(Cc1ccc(Oc3ccc(C(=O)O)cc3)cc1)CC2
InChI: InChI=1S/C33H43N3O6/c1-2-3-19-36-30(38)28(29(37)24-7-5-4-6-8-24)34-32(41)33(36)17-20-35(21-18-33)22-23-9-13-26(14-10-23)42-27-15-11-25(12-16-27)31(39)40/h9-16,24,28-29,37H,2-8,17-22H2,1H3,(H,34,41)(H,39,40)/t28-,29-/m1/s1
Instrument: Q Exactive Orbitrap (Thermo Scientific)
Instrument type: LC-ESI-QFT
Ms type: MS2
Ion mode: NEGATIVE
Ionization: ESI
Fragmentation mode: HCD
Collision energy: 90
Resolution: 17500
Column name: Acquity BEH C18 1.7um, 2.1x150mm (Waters)
Retention time: 15.958 min
Base peak: 229.0506
Precursor m/z: 576.3079
Precursor type: [M-H]-
Precursor intensity: 2724620.979004
m/z	relative intensity	assigned
73.0408	91	C2H5N2O-
80.0506	53	C5H6N-
93.0346	999	C6H5O-
95.0501	143	C6H7O-
97.0043	172	C3HN2O2-
107.0503	70	C7H7O-
108.0454	115	C6H6NO-
118.0299	147	C7H4NO-
127.0878	54	C6H11N2O-
129.1035	72	C6H13N2O-
