Mass spectrum: Isazofos; LC-ESI-QFT; MS2; CE: 90; R=17500; [M+H]+
Name: Isazofos
Name: (5-chloro-1-propan-2-yl-1,2,4-triazol-3-yl)oxy-diethoxy-sulfanylidene-lambda5-phosphane
Formula: C9H17ClN3O3PS
Exact mass: 313.0417
SMILES: CCOP(=S)(OCC)OC1=NN(C(C)C)C(Cl)=N1
InChI: InChI=1S/C9H17ClN3O3PS/c1-5-14-17(18,15-6-2)16-9-11-8(10)13(12-9)7(3)4/h7H,5-6H2,1-4H3
Instrument: Q Exactive Orbitrap (Thermo Scientific)
Instrument type: LC-ESI-QFT
Ms type: MS2
Ion mode: POSITIVE
Ionization: ESI
Fragmentation mode: HCD
Collision energy: 90
Resolution: 17500
Column name: Acquity BEH C18 1.7um, 2.1x150mm (Waters)
Retention time: 17.724 min
Base peak: 79.0211
Precursor m/z: 314.049
Precursor type: [M+H]+
Precursor intensity: 19979242.46875
m/z	relative intensity	assigned
53.0022	5	C3HO+
53.9975	1	C2NO+
59.024	5	CH3N2O+
61.0106	1	C2H5S+
61.9791	7	HNOP+
64.9786	92	H2O2P+
73.0396	1	C2H5N2O+
74.0348	2	CH4N3O+
74.0962	1	C4H12N+
75.0011	13	CH3N2S+
76.99	122	CH2ClN2+
77.9979	13	CH3ClN2+
78.9402	9	OPS+
78.9943	4	CH4O2P+
84.0192	72	C2H2N3O+
92.001	41	CH3ClN3+
96.9508	35	H2O2PS+
98.9843	3	CH4ClO3+
102.9693	170	C2ClN2O+
110.9664	2	CH4O2PS+
112.9999	4	C2H6ClO3+
114.9613	999	H4O3PS+
116.0457	1	C3H6N3O2+
116.9655	2	C4H3ClP+
119.9959	934	C2H3ClN3O+
120.9798	9	CH2N2O3P+
128.9769	36	CH6O3PS+
132.9718	10	C3H3ClN2P+
134.9956	9	C3H4ClN2O2+
135.9731	60	C2H3ClN3S+
142.9929	1	C3H8ClO2S+
146.9875	7	C4H5ClN2P+
