Mass spectrum: Farglitazar; LC-ESI-QFT; MS2; CE: 30; R=17500; [M+H]+
Name: Farglitazar
Name: (2S)-2-(2-benzoylanilino)-3-[4-[2-(5-methyl-2-phenyl-1,3-oxazol-4-yl)ethoxy]phenyl]propanoic acid
Formula: C34H30N2O5
Exact mass: 546.2155
SMILES: CC1=C(CCOC2=CC=C(C[C@H](NC3=C(C=CC=C3)C(=O)C3=CC=CC=C3)C(O)=O)C=C2)N=C(O1)C1=CC=CC=C1
InChI: InChI=1S/C34H30N2O5/c1-23-29(36-33(41-23)26-12-6-3-7-13-26)20-21-40-27-18-16-24(17-19-27)22-31(34(38)39)35-30-15-9-8-14-28(30)32(37)25-10-4-2-5-11-25/h2-19,31,35H,20-22H2,1H3,(H,38,39)/t31-/m0/s1
Instrument: Q Exactive Orbitrap (Thermo Scientific)
Instrument type: LC-ESI-QFT
Ms type: MS2
Ion mode: POSITIVE
Ionization: ESI
Fragmentation mode: HCD
Collision energy: 30
Resolution: 17500
Column name: Acquity BEH C18 1.7um, 2.1x150mm (Waters)
Retention time: 20.146 min
Base peak: 79.0211
Precursor m/z: 547.2227
Precursor type: [M+H]+
Precursor intensity: 10123115.25
m/z	relative intensity	assigned
83.0491	10	C5H7O+
91.0542	1	C7H7+
104.0494	29	C7H6N+
105.0335	64	C7H5O+
120.0444	2	C7H6NO+
144.0808	10	C10H10N+
159.0806	1	C11H11O+
186.0913	999	C12H12NO+
187.0989	8	C12H13NO+
194.0965	11	C14H12N+
201.091	1	C13H13O2+
210.0913	1	C14H12NO+
222.0913	9	C15H12NO+
280.1332	12	C18H18NO2+
298.1226	2	C21H16NO+
306.149	12	C20H20NO2+
308.1281	50	C19H18NO3+
315.1254	12	C21H17NO2+
316.1339	1	C21H18NO2+
322.1438	618	C20H20NO3+
350.1387	16	C21H20NO4+
384.1596	18	C25H22NO3+
397.1908	9	C26H25N2O2+
483.2073	13	C33H27N2O2+
501.2176	149	C33H29N2O3+
547.2235	22	C34H31N2O5+
