Mass spectrum: SR125047; LC-ESI-QFT; MS2; CE: 75; R=17500; [M+H]+
Name: SR125047
Name: 1-[(2Z)-3-(2-Chloro-3'-methoxybiphenyl-4-yl)prop-2-en-1-yl]azepane
Name: 1-[(Z)-3-[3-chloro-4-(3-methoxyphenyl)phenyl]prop-2-enyl]azepane
Formula: C22H26ClNO
Exact mass: 355.1703
SMILES: COc1cccc(-c2ccc(/C=C\CN3CCCCCC3)cc2Cl)c1
InChI: InChI=1S/C22H26ClNO/c1-25-20-10-6-9-19(17-20)21-12-11-18(16-22(21)23)8-7-15-24-13-4-2-3-5-14-24/h6-12,16-17H,2-5,13-15H2,1H3/b8-7-
Instrument: Q Exactive Orbitrap (Thermo Scientific)
Instrument type: LC-ESI-QFT
Ms type: MS2
Ion mode: POSITIVE
Ionization: ESI
Fragmentation mode: HCD
Collision energy: 75
Resolution: 17500
Column name: Acquity BEH C18 1.7um, 2.1x150mm (Waters)
Retention time: 15.993 min
Base peak: 79.0212
Precursor m/z: 356.1776
Precursor type: [M+H]+
Precursor intensity: 30841601
m/z	relative intensity	assigned
55.0178	6	C3H3O+
55.0543	3	C4H7+
56.0494	2	C3H6N+
79.0543	1	C6H7+
91.0543	2	C7H7+
98.0964	15	C6H12N+
100.1122	1	C6H14N+
102.0463	1	C8H6+
103.0542	1	C8H7+
104.062	2	C8H8+
107.0492	12	C7H7O+
115.054	6	C9H7+
116.0621	3	C9H8+
125.0154	2	C7H6Cl+
128.062	4	C10H8+
129.0696	3	C10H9+
130.0413	1	C9H6O+
131.0493	1	C9H7O+
145.0648	1	C10H9O+
149.0154	4	C9H6Cl+
151.0544	1	C12H7+
152.062	17	C12H8+
153.0698	8	C12H9+
154.0776	3	C12H10+
163.0545	2	C13H7+
164.0623	3	C13H8+
165.0699	82	C13H9+
166.0777	31	C13H10+
167.0854	2	C13H11+
168.057	2	C12H8O+
176.0623	5	C14H8+
177.0701	14	C14H9+
178.0778	355	C14H10+
179.0855	999	C14H11+
180.057	2	C13H8O+
181.0647	12	C13H9O+
182.0722	1	C13H10O+
186.0231	64	C12H7Cl+
189.0699	99	C15H9+
190.0777	79	C15H10+
191.0855	202	C15H11+
192.0572	5	C14H8O+
192.0934	34	C15H12+
193.065	5	C14H9O+
193.1012	44	C15H13+
194.0727	43	C14H10O+
194.109	19	C15H14+
195.0805	17	C14H11O+
199.0309	163	C13H8Cl+
201.0466	16	C13H10Cl+
202.0778	14	C16H10+
203.0855	20	C16H11+
204.0938	3	C16H12+
205.0649	43	C15H9O+
205.1014	7	C16H13+
206.0727	67	C15H10O+
207.0804	989	C15H11O+
212.0386	8	C14H9Cl+
213.0472	3	C14H10Cl+
214.018	36	C13H7ClO+
214.0542	7	C14H11Cl+
215.0259	6	C13H8ClO+
217.0415	4	C13H10ClO+
217.0765	1	C14H14Cl+
219.0805	5	C16H11O+
220.0884	2	C16H12O+
221.0961	217	C16H13O+
222.1039	215	C16H14O+
225.0465	10	C15H10Cl+
226.054	3	C15H11Cl+
227.0258	38	C14H8ClO+
227.0365	2	C16H5NO+
228.034	2	C14H9ClO+
229.0414	47	C14H10ClO+
241.0414	12	C15H10ClO+
242.0492	28	C15H11ClO+
255.0574	1	C16H12ClO+
