Mass spectrum: Novaluron; LC-ESI-QFT; MS2; CE: 75; R=17500; [M-H]-
Name: Novaluron
Name: N-[[3-chloro-4-[1,1,2-trifluoro-2-(trifluoromethoxy)ethoxy]phenyl]carbamoyl]-2,6-difluorobenzamide
Formula: C17H9ClF8N2O4
Exact mass: 492.0123
SMILES: FC(OC(F)(F)F)C(F)(F)OC1=C(Cl)C=C(NC(=O)NC(=O)C2=C(F)C=CC=C2F)C=C1
InChI: InChI=1S/C17H9ClF8N2O4/c18-8-6-7(4-5-11(8)31-16(22,23)14(21)32-17(24,25)26)27-15(30)28-13(29)12-9(19)2-1-3-10(12)20/h1-6,14H,(H2,27,28,29,30)
Instrument: Q Exactive Orbitrap (Thermo Scientific)
Instrument type: LC-ESI-QFT
Ms type: MS2
Ion mode: NEGATIVE
Ionization: ESI
Fragmentation mode: HCD
Collision energy: 75
Resolution: 17500
Column name: Acquity BEH C18 1.7um, 2.1x150mm (Waters)
Retention time: 18.982 min
Base peak: 183.0582
Precursor m/z: 491.005
Precursor type: [M-H]-
Precursor intensity: 17875140.7207
m/z	relative intensity	assigned
65.9986	1	C3NO-
68.9958	53	CF3-
73.0084	16	C6H-
82.9696	2	C4Cl-
84.9907	999	CF3O-
93.0146	319	C6H2F-
98.0039	2	C7N-
113.0209	149	C6H3F2-
130.0174	2	C7H2N2O-
132.009	2	C7H2NO2-
135.996	1	C7H3ClN-
140.9988	37	C6H4ClNO-
162.9825	7	C3F5O2-
165.994	34	C7H3ClN2O-
167.9858	4	C7H3ClNO2-
179.0264	2	C8H4FN2O2-
