Mass spectrum: Trilostane; LC-ESI-QFT; MS2; CE: 75; R=17500; [M-H]-
Name: Trilostane
Name: (1S,2R,6R,8S,11S,12S,15S,16S)-5,15-dihydroxy-2,16-dimethyl-7-oxapentacyclo[9.7.0.02,8.06,8.012,16]octadec-4-ene-4-carbonitrile
Formula: C20H27NO3
Exact mass: 329.1991
SMILES: C[C@]12CC[C@H]3[C@@H](CC[C@@]45O[C@@H]4C(O)=C(C[C@]35C)C#N)[C@@H]1CC[C@@H]2O
InChI: InChI=1S/C20H27NO3/c1-18-7-6-14-12(13(18)3-4-15(18)22)5-8-20-17(24-20)16(23)11(10-21)9-19(14,20)2/h12-15,17,22-23H,3-9H2,1-2H3/t12-,13-,14-,15-,17+,18-,19+,20+/m0/s1
Instrument: Q Exactive Orbitrap (Thermo Scientific)
Instrument type: LC-ESI-QFT
Ms type: MS2
Ion mode: NEGATIVE
Ionization: ESI
Fragmentation mode: HCD
Collision energy: 75
Resolution: 17500
Column name: Acquity BEH C18 1.7um, 2.1x150mm (Waters)
Retention time: 16.712 min
Base peak: 429.0536
Precursor m/z: 328.1918
Precursor type: [M-H]-
Precursor intensity: 6977376.171875
m/z	relative intensity	assigned
52.0193	9	C3H2N-
57.0345	12	C3H5O-
65.0033	999	C4HO-
65.9985	55	C3NO-
71.0502	41	C4H7O-
82.0298	5	C4H4NO-
83.0502	19	C5H7O-
92.0142	772	C5H2NO-
95.0502	17	C6H7O-
97.066	22	C6H9O-
104.0505	8	C7H6N-
106.0424	6	C7H6O-
107.0502	19	C7H7O-
109.0658	235	C7H9O-
116.0505	6	C8H6N-
117.0582	5	C8H7N-
118.0297	29	C7H4NO-
118.0663	23	C8H8N-
119.0377	161	C7H5NO-
120.0455	21	C7H6NO-
120.0581	5	C8H8O-
121.0659	35	C8H9O-
123.0815	696	C8H11O-
128.0503	14	C9H6N-
130.0661	43	C9H8N-
131.0375	16	C8H5NO-
132.0455	6	C8H6NO-
133.0658	16	C9H9O-
134.0738	6	C9H10O-
135.0814	96	C9H11O-
137.0972	9	C9H13O-
140.0505	13	C10H6N-
142.0662	26	C10H8N-
143.0741	75	C10H9N-
144.0455	9	C9H6NO-
144.0818	18	C10H10N-
145.0534	69	C9H7NO-
146.0248	65	C8H4NO2-
146.0612	22	C9H8NO-
147.0812	5	C10H11O-
148.0402	26	C8H6NO2-
149.0972	109	C10H13O-
154.0661	25	C11H8N-
156.0455	18	C10H6NO-
156.0818	30	C11H10N-
158.0611	100	C10H8NO-
159.069	7	C10H9NO-
159.0812	5	C11H11O-
159.1178	4	C12H15-
161.097	27	C11H13O-
163.1127	6	C11H15O-
166.0662	6	C12H8N-
168.0453	16	C11H6NO-
168.0816	11	C12H10N-
170.0611	33	C11H8NO-
170.0972	6	C12H12N-
173.0971	33	C12H13O-
175.1129	65	C12H15O-
176.0354	14	C9H6NO3-
177.1285	703	C12H17O-
180.0816	9	C13H10N-
182.061	37	C12H8NO-
182.0975	13	C13H12N-
184.0767	23	C12H10NO-
187.1128	13	C13H15O-
189.1287	21	C13H17O-
194.0616	7	C13H8NO-
194.0972	18	C14H12N-
196.0767	88	C13H10NO-
196.1135	7	C14H14N-
205.1235	6	C13H17O2-
207.1384	7	C13H19O2-
208.0768	6	C14H10NO-
208.1133	7	C15H14N-
210.0919	10	C14H12NO-
210.129	19	C15H16N-
215.1435	22	C15H19O-
217.1606	5	C15H21O-
220.1125	10	C16H14N-
222.0924	17	C15H12NO-
222.1288	8	C16H16N-
224.1076	7	C15H14NO-
224.1445	8	C16H18N-
226.1602	19	C16H20N-
231.139	75	C15H19O2-
233.1547	612	C15H21O2-
234.0925	5	C16H12NO-
235.1702	107	C15H23O2-
236.108	9	C16H14NO-
236.1445	8	C17H18N-
238.1241	10	C16H16NO-
248.1448	5	C18H18N-
249.1497	6	C15H21O3-
250.1233	12	C17H16NO-
250.16	17	C18H20N-
252.1391	9	C17H18NO-
262.1229	7	C18H16NO-
264.1396	32	C18H18NO-
266.1186	6	C17H16NO2-
266.1552	105	C18H20NO-
267.1604	17	C18H21NO-
268.1707	136	C18H22NO-
276.138	5	C19H18NO-
278.1551	32	C19H20NO-
280.1341	7	C18H18NO2-
280.1707	67	C19H22NO-
282.1501	14	C18H20NO2-
282.1862	89	C19H24NO-
283.1577	8	C18H21NO2-
284.1656	17	C18H22NO2-
292.1344	6	C19H18NO2-
294.1501	271	C19H20NO2-
296.1656	55	C19H22NO2-
300.1965	19	C19H26NO2-
310.1807	15	C20H24NO2-
312.1609	13	C19H22NO3-
