Mass spectrum: Apomorphine; LC-ESI-QFT; MS2; CE: 60; R=17500; [M+H]+
Name: Apomorphine
Name: (6aR)-6-methyl-5,6,6a,7-tetrahydro-4H-dibenzo[de,g]quinoline-10,11-diol
Formula: C17H17NO2
Exact mass: 267.1259
SMILES: CN1CCc2cccc3c2[C@H]1Cc1ccc(O)c(O)c1-3
InChI: InChI=1S/C17H17NO2/c1-18-8-7-10-3-2-4-12-15(10)13(18)9-11-5-6-14(19)17(20)16(11)12/h2-6,13,19-20H,7-9H2,1H3/t13-/m1/s1
Instrument: Q Exactive Orbitrap (Thermo Scientific)
Instrument type: LC-ESI-QFT
Ms type: MS2
Ion mode: POSITIVE
Ionization: ESI
Fragmentation mode: HCD
Collision energy: 60
Resolution: 17500
Column name: Acquity BEH C18 1.7um, 2.1x150mm (Waters)
Retention time: 11.124 min
Base peak: 79.0211
Precursor m/z: 268.1332
Precursor type: [M+H]+
Precursor intensity: 21443523
m/z	relative intensity	assigned
165.0698	3	C13H9+
167.0854	1	C13H11+
176.0619	1	C14H8+
177.0696	1	C14H9+
179.0853	6	C14H11+
181.1011	1	C14H13+
189.0699	17	C15H9+
190.0778	70	C15H10+
191.0853	999	C15H11+
201.0697	12	C16H9+
202.0772	4	C16H10+
205.0646	8	C15H9O+
205.1011	1	C16H13+
207.0803	3	C15H11O+
209.0956	1	C15H13O+
218.0726	14	C16H10O+
219.0803	356	C16H11O+
237.0908	86	C16H13O2+
