Mass spectrum: 2,2`-[(4-Methylphenyl)imino]diethanol; LC-ESI-QFT; MS2; CE: 15; R=17500; [M+H]+
Name: 2,2'-[(4-Methylphenyl)imino]diethanol
Name: N,N-Bis(2-hydroxyethyl)-p-toluidine
Name: 2-[N-(2-hydroxyethyl)-4-methylanilino]ethanol
Formula: C11H17NO2
Exact mass: 195.1259
SMILES: CC1=CC=C(C=C1)N(CCO)CCO
InChI: InChI=1S/C11H17NO2/c1-10-2-4-11(5-3-10)12(6-8-13)7-9-14/h2-5,13-14H,6-9H2,1H3
Instrument: Q Exactive Orbitrap (Thermo Scientific)
Instrument type: LC-ESI-QFT
Ms type: MS2
Ion mode: POSITIVE
Ionization: ESI
Fragmentation mode: HCD
Collision energy: 15
Resolution: 17500
Column name: Acquity BEH C18 1.7um, 2.1x150mm (Waters)
Retention time: 9.123 min
Base peak: 79.0211
Precursor m/z: 196.1332
Precursor type: [M+H]+
Precursor intensity: 23100406.375
m/z	relative intensity	assigned
120.0804	9	C8H10N+
132.0807	4	C9H10N+
133.0886	33	C9H11N+
134.0964	33	C9H12N+
150.0914	1	C9H12NO+
151.0992	45	C9H13NO+
152.107	24	C9H14NO+
160.1121	22	C11H14N+
178.1226	119	C11H16NO+
196.1331	999	C11H18NO2+
