Mass spectrum: Bis[2-(2-butoxyethoxy)ethyl] hexandioate; LC-ESI-QFT; MS2; CE: 75; R=17500; [M+H]+
Name: Bis[2-(2-butoxyethoxy)ethyl] hexandioate
Name: Bis[2-(2-butoxyethoxy)ethyl] adipate
Name: bis[2-(2-butoxyethoxy)ethyl] hexanedioate
Formula: C22H42O8
Exact mass: 434.2880
SMILES: CCCCOCCOCCOC(=O)CCCCC(=O)OCCOCCOCCCC
InChI: InChI=1S/C22H42O8/c1-3-5-11-25-13-15-27-17-19-29-21(23)9-7-8-10-22(24)30-20-18-28-16-14-26-12-6-4-2/h3-20H2,1-2H3
Instrument: Q Exactive Orbitrap (Thermo Scientific)
Instrument type: LC-ESI-QFT
Ms type: MS2
Ion mode: POSITIVE
Ionization: ESI
Fragmentation mode: HCD
Collision energy: 75
Resolution: 17500
Column name: Acquity BEH C18 1.7um, 2.1x150mm (Waters)
Retention time: 18.791 min
Base peak: 79.0212
Precursor m/z: 435.2952
Precursor type: [M+H]+
Precursor intensity: 4761317.5
m/z	relative intensity	assigned
53.0022	42	C3HO+
53.0386	34	C4H5+
55.0179	59	C3H3O+
55.0543	999	C4H7+
57.0699	867	C4H9+
59.0492	47	C3H7O+
65.0385	39	C5H5+
67.0542	407	C5H7+
69.0335	223	C4H5O+
71.0491	14	C4H7O+
73.0284	77	C3H5O2+
73.0648	20	C4H9O+
81.0698	12	C6H9+
83.0492	874	C5H7O+
85.0648	70	C5H9O+
87.044	27	C4H7O2+
89.0234	71	C3H5O3+
89.0597	322	C4H9O2+
93.0336	38	C6H5O+
95.0492	39	C6H7O+
99.0441	175	C5H7O2+
101.0598	54	C5H9O2+
111.0441	652	C6H7O2+
113.0598	397	C6H9O2+
127.0754	92	C7H11O2+
129.0546	60	C6H9O3+
137.0597	52	C8H9O2+
139.0754	24	C8H11O2+
143.07	10	C7H11O3+
155.0703	192	C8H11O3+
