Mass spectrum: Myclobutanil; LC-ESI-QFT; MS2; CE: 75; R=17500; [M+H]+
Name: Myclobutanil
Name: 2-(4-chlorophenyl)-2-(1,2,4-triazol-1-ylmethyl)hexanenitrile
Formula: C15H17ClN4
Exact mass: 288.1142
SMILES: CCCCC(CN1C=NC=N1)(C#N)C1=CC=C(Cl)C=C1
InChI: InChI=1S/C15H17ClN4/c1-2-3-8-15(9-17,10-20-12-18-11-19-20)13-4-6-14(16)7-5-13/h4-7,11-12H,2-3,8,10H2,1H3
Instrument: Q Exactive Orbitrap (Thermo Scientific)
Instrument type: LC-ESI-QFT
Ms type: MS2
Ion mode: POSITIVE
Ionization: ESI
Fragmentation mode: HCD
Collision energy: 75
Resolution: 17500
Column name: Acquity BEH C18 1.7um, 2.1x150mm (Waters)
Retention time: 17.761 min
Base peak: 79.0211
Precursor m/z: 289.1215
Precursor type: [M+H]+
Precursor intensity: 7769049.4375
m/z	relative intensity	assigned
53.0022	1	ClH4N+
55.0542	8	C4H7+
57.0698	3	C4H9+
63.0229	1	C5H3+
66.0463	1	C5H6+
67.0542	1	C5H7+
70.0399	999	C2H4N3+
79.0541	3	C6H7+
80.0495	2	C5H6N+
81.0699	5	C6H9+
82.04	11	C3H4N3+
82.0651	2	C5H8N+
83.0478	4	C3H5N3+
89.0385	31	C7H5+
90.0465	4	C7H6+
91.0543	2	C7H7+
94.0652	2	C6H8N+
95.073	1	C6H9N+
97.0648	1	C3H12ClN+
98.9996	11	C5H4Cl+
102.0465	3	C8H6+
103.0543	1	C8H7+
115.0542	25	C9H7+
116.062	38	C9H8+
119.049	1	C5H10ClN+
122.9996	1	C7H4Cl+
125.0153	545	C7H6Cl+
128.0494	14	C9H6N+
128.0621	2	C10H8+
129.0446	2	C8H5N2+
129.0699	2	C10H9+
130.0651	12	C9H8N+
130.0777	1	C10H10+
131.073	3	C9H9N+
133.0651	1	C6H12ClN+
137.0152	10	C8H6Cl+
139.031	2	C8H8Cl+
142.0778	2	C11H10+
143.0605	2	C9H7N2+
143.0729	6	C10H9N+
143.0857	2	C11H11+
146.06	1	C6H11ClN2+
149.0153	7	C9H6Cl+
150.0105	14	C8H5ClN+
151.0309	47	C9H8Cl+
152.0622	1	C12H8+
153.07	6	C12H9+
156.0812	2	C11H10N+
157.0886	1	C11H11N+
164.0261	19	C9H7ClN+
165.0464	1	C10H10Cl+
166.0421	1	C9H9ClN+
167.0857	2	C13H11+
168.0937	1	C13H12+
170.0965	1	C12H12N+
175.0311	2	C11H8Cl+
177.0338	1	C10H8ClN+
178.0419	4	C10H9ClN+
184.1122	1	C13H14N+
