Mass spectrum: Diflufenican; LC-ESI-QFT; MS2; CE: 75; R=17500; [M-H]-
Name: Diflufenican
Name: N-(2,4-difluorophenyl)-2-[3-(trifluoromethyl)phenoxy]pyridine-3-carboxamide
Formula: C19H11F5N2O2
Exact mass: 394.0741
SMILES: FC1=CC=C(NC(=O)C2=C(OC3=CC(=CC=C3)C(F)(F)F)N=CC=C2)C(F)=C1
InChI: InChI=1S/C19H11F5N2O2/c20-12-6-7-16(15(21)10-12)26-17(27)14-5-2-8-25-18(14)28-13-4-1-3-11(9-13)19(22,23)24/h1-10H,(H,26,27)
Instrument: Q Exactive Orbitrap (Thermo Scientific)
Instrument type: LC-ESI-QFT
Ms type: MS2
Ion mode: NEGATIVE
Ionization: ESI
Fragmentation mode: HCD
Collision energy: 75
Resolution: 17500
Column name: Acquity BEH C18 1.7um, 2.1x150mm (Waters)
Retention time: 19.046 min
Base peak: 271.9888
Precursor m/z: 393.0668
Precursor type: [M-H]-
Precursor intensity: 7247189.003906
m/z	relative intensity	assigned
50.0036	7	C3N-
62.9889	5	CFO2-
65.0033	72	C4HO-
65.9986	5	C3NO-
66.0349	5	C4H4N-
68.9957	30	CF3-
73.0084	24	C6H-
74.0037	4	C5N-
76.0193	15	C5H2N-
88.0192	8	C6H2N-
89.0033	16	C6HO-
92.0142	3	C5H2NO-
92.9958	7	C3F3-
93.0147	6	C6H2F-
94.0299	21	C5H4NO-
96.0255	139	C5H3FN-
98.0035	3	C7N-
108.0254	12	C6H3FN-
114.0349	3	C8H4N-
121.0096	18	C7H2FO-
128.032	5	C6H4F2N-
135.0362	8	C7H4FN2-
136.0206	9	C7H3FNO-
138.035	15	C10H4N-
140.0155	3	C6H3FNO2-
141.0158	8	C7H3F2O-
143.0116	8	C7H2F3-
152.0154	25	C7H3FNO2-
153.0459	7	C10H5N2-
159.0364	21	C9H4FN2-
160.0375	6	C7H5F3N-
161.0219	97	C7H4F3O-
165.0458	240	C11H5N2-
166.0298	48	C11H4NO-
172.0196	18	C13H2N-
180.0331	18	C11H4N2O-
181.0409	13	C11H5N2O-
182.041	8	C12H5FN-
183.0362	5	C11H4FN2-
185.0331	31	C8H4F3N2-
185.052	428	C11H6FN2-
186.0364	15	C11H5FNO-
188.0315	15	C11H4F2N-
192.0255	254	C13H3FN-
195.0363	20	C12H4FN2-
200.0394	14	C11H5FN2O-
201.047	6	C11H6FN2O-
202.0473	13	C12H6F2N-
209.0347	13	C7H5F4N2O-
210.0163	3	C13H2F2N-
211.0315	7	C12H4FN2O-
212.0317	999	C13H4F2N-
213.0472	4	C12H6FN2O-
215.0427	5	C12H5F2N2-
217.0344	10	C12H5F2NO-
220.0379	5	C12H5F3N-
222.035	5	C17H4N-
223.0311	6	C13H4FN2O-
228.0355	3	C12H5FN2O2-
229.0419	29	C12H6FN2O2-
230.0226	37	C13H3F3N-
230.0419	13	C13H6F2NO-
232.038	173	C13H5F3N-
235.0255	14	C12H4F3NO-
235.0484	20	C12H6F3N2-
238.0481	5	C12H7F3NO-
243.014	5	C13H3F2NO2-
243.0371	5	C13H5F2N2O-
250.0283	19	C13H4F4N-
252.0442	552	C13H6F4N-
257.0522	29	C17H6FN2-
263.02	28	C13H4F3NO2-
263.0434	25	C13H6F3N2O-
265.0405	22	C10H6F5N2O-
267.0361	14	C18H5NO2-
268.0443	18	C18H5FN2-
269.0519	33	C18H6FN2-
270.0348	120	C13H5F5N-
272.051	13	C13H7F5N-
282.054	3	C17H7F3N-
283.0504	4	C13H7F4N2O-
284.0388	5	C13H5F5N2-
285.0469	26	C18H6FN2O-
288.0499	8	C18H6F2N2-
296.0569	10	C17H7F3N2-
307.0492	12	C18H6F3N2-
324.0519	8	C18H7F3N2O-
335.0431	5	C19H6F3N2O-
