Mass spectrum: CP-642931; LC-ESI-QFT; MS2; CE: 30; R=17500; [M+H]+
Name: CP-642931
Name: (1R)-1-[4-[(2R,6S)-4-(4,6-dimethyl-1,3,5-triazin-2-yl)-2,6-dimethylpiperazin-1-yl]pyrimidin-2-yl]ethanol
Formula: C17H25N7O
Exact mass: 343.2121
SMILES: C[C@@H](O)C1=NC(=CC=N1)N1[C@@H](C)CN(C[C@H]1C)C1=NC(C)=NC(C)=N1
InChI: InChI=1S/C17H25N7O/c1-10-8-23(17-20-13(4)19-14(5)21-17)9-11(2)24(10)15-6-7-18-16(22-15)12(3)25/h6-7,10-12,25H,8-9H2,1-5H3/t10-,11+,12-/m1/s1
Instrument: Q Exactive Orbitrap (Thermo Scientific)
Instrument type: LC-ESI-QFT
Ms type: MS2
Ion mode: POSITIVE
Ionization: ESI
Fragmentation mode: HCD
Collision energy: 30
Resolution: 17500
Column name: Acquity BEH C18 1.7um, 2.1x150mm (Waters)
Retention time: 10.435 min
Base peak: 79.0211
Precursor m/z: 344.2193
Precursor type: [M+H]+
Precursor intensity: 20507546.25
m/z	relative intensity	assigned
122.0712	1	C6H8N3+
135.0917	1	C8H11N2+
136.0872	2	C7H10N3+
162.1026	63	C9H12N3+
164.1182	2	C9H14N3+
165.1135	70	C8H13N4+
180.1132	26	C9H14N3O+
191.129	1	C10H15N4+
192.1242	2	C9H14N5+
202.1339	19	C12H16N3+
203.1293	1	C11H15N4+
205.1448	88	C11H17N4+
220.1443	7	C12H18N3O+
229.1193	1	C11H13N6+
244.1561	1	C13H18N5+
268.1556	1	C15H18N5+
269.1505	3	C14H17N6+
271.1441	1	C14H17N5O+
285.1826	1	C15H21N6+
287.161	2	C14H19N6O+
300.1936	1	C15H22N7+
326.2088	390	C17H24N7+
344.2194	999	C17H26N7O+
