Mass spectrum: SAR102608; LC-ESI-QFT; MS2; CE: 90; R=17500; [M+H]+
Name: SAR102608
Name: N-(5-Fluoro-3-methyl-1H-indol-1-yl)-4-methyl-2-(pyridin-2-yl)pyrimidine-5-carboxamide
Name: N-(5-fluoro-3-methylindol-1-yl)-4-methyl-2-pyridin-2-ylpyrimidine-5-carboxamide
Formula: C20H16FN5O
Exact mass: 361.1339
SMILES: CC1=CN(NC(=O)C2=C(C)N=C(N=C2)C2=CC=CC=N2)C2=CC=C(F)C=C12
InChI: InChI=1S/C20H16FN5O/c1-12-11-26(18-7-6-14(21)9-15(12)18)25-20(27)16-10-23-19(24-13(16)2)17-5-3-4-8-22-17/h3-11H,1-2H3,(H,25,27)
Instrument: Q Exactive Orbitrap (Thermo Scientific)
Instrument type: LC-ESI-QFT
Ms type: MS2
Ion mode: POSITIVE
Ionization: ESI
Fragmentation mode: HCD
Collision energy: 90
Resolution: 17500
Column name: Acquity BEH C18 1.7um, 2.1x150mm (Waters)
Retention time: 16.955 min
Base peak: 79.0212
Precursor m/z: 362.1412
Precursor type: [M+H]+
Precursor intensity: 16912507
m/z	relative intensity	assigned
51.0229	1	C4H3+
52.0181	4	C3H2N+
52.0307	7	C4H4+
53.0022	47	C3HO+
54.0338	122	C3H4N+
55.0179	5	C3H3O+
55.0416	63	C3H5N+
56.0257	2	C3H4O+
56.0495	26	C3H6N+
58.0288	2	C2H4NO+
65.0385	6	C5H5+
66.0338	24	C4H4N+
67.0178	10	C4H3O+
67.0416	126	C4H5N+
68.0256	22	C4H4O+
68.0494	4	C4H6N+
70.0286	3	C3H4NO+
78.0338	37	C5H4N+
79.0416	85	C5H5N+
80.0494	18	C5H6N+
81.0447	53	C4H5N2+
82.0287	50	C4H4NO+
82.0525	38	C4H6N2+
83.0365	5	C4H5NO+
84.0444	1	C4H6NO+
91.0289	1	FH2N5+
92.0369	1	C5H4N2+
92.0495	6	C6H6N+
93.0448	39	C5H5N2+
93.0573	3	C6H7N+
94.0287	30	C5H4NO+
95.0365	330	C5H5NO+
96.0443	166	C5H6NO+
103.0416	2	C7H5N+
104.0495	17	C7H6N+
105.0447	999	C6H5N2+
106.0525	2	C6H6N2+
107.0604	1	C6H7N2+
108.0555	1	C5H6N3+
109.0396	2	C5H5N2O+
110.06	57	C6H8NO+
111.0314	45	C3H3N4O+
117.0446	2	C2H4FN5+
117.0572	15	C8H7N+
118.0525	50	C7H6N2+
118.065	5	C3H7FN4+
119.0604	44	C7H7N2+
121.0446	2	C8H6F+
128.0495	2	C9H6N+
130.0526	2	C8H6N2+
131.0604	21	C8H7N2+
132.068	3	C3H7FN5+
135.0551	6	C2H6FN5O+
136.0506	2	C6H6N3O+
143.0603	59	C9H7N2+
144.0555	20	C8H6N3+
144.0681	22	C9H8N2+
145.0634	30	C8H7N3+
145.0759	15	C4H8FN5+
146.04	1	C9H5FN+
146.053	1	C10H7F+
146.0714	1	C8H8N3+
148.0556	62	C9H7FN+
149.0634	1	C9H8FN+
150.0591	3	C8H7FN2+
155.0603	39	C10H7N2+
156.0556	26	C9H6N3+
157.0634	23	C9H7N3+
158.0713	78	C9H8N3+
159.079	7	C9H9N3+
160.0504	41	C8H6N3O+
163.0666	1	C9H8FN2+
164.0504	1	C9H7FNO+
168.0558	1	C10H6N3+
169.0636	1	C10H7N3+
170.0712	423	C10H8N3+
171.079	140	C10H9N3+
172.0558	2	C11H7FN+
172.0866	1	C10H10N3+
173.0509	1	C10H6FN2+
174.0661	2	C9H8N3O+
183.0665	1	C10H7N4+
185.0822	66	C10H9N4+
186.0659	10	C10H8N3O+
186.0899	7	C10H10N4+
196.0743	3	C11H8N4+
197.0821	170	C11H9N4+
213.0769	14	C11H9N4O+
226.0533	2	C13H7FN2O+
