Mass spectrum: Carfentrazone-ethyl; LC-ESI-QFT; MS2; CE: 90; R=17500; [M+H]+
Name: Carfentrazone-ethyl
Name: ethyl 2-chloro-3-[2-chloro-5-[4-(difluoromethyl)-3-methyl-5-oxo-1,2,4-triazol-1-yl]-4-fluorophenyl]propanoate
Formula: C15H14Cl2F3N3O3
Exact mass: 411.0364
SMILES: CCOC(=O)C(Cl)CC1=C(Cl)C=C(F)C(=C1)N1N=C(C)N(C(F)F)C1=O
InChI: InChI=1S/C15H14Cl2F3N3O3/c1-3-26-13(24)10(17)4-8-5-12(11(18)6-9(8)16)23-15(25)22(14(19)20)7(2)21-23/h5-6,10,14H,3-4H2,1-2H3
Instrument: Q Exactive Orbitrap (Thermo Scientific)
Instrument type: LC-ESI-QFT
Ms type: MS2
Ion mode: POSITIVE
Ionization: ESI
Fragmentation mode: HCD
Collision energy: 90
Resolution: 17500
Column name: Acquity BEH C18 1.7um, 2.1x150mm (Waters)
Retention time: 18.363 min
Base peak: 79.0212
Precursor m/z: 412.0437
Precursor type: [M+H]+
Precursor intensity: 2853270.15625
m/z	relative intensity	assigned
57.0135	10	C3H2F+
57.0447	4	C2H5N2+
60.0244	23	C2H3FN+
60.9839	10	C2H2Cl+
62.9633	5	CClO+
66.9745	18	CHClF+
72.9839	7	C3H2Cl+
74.0036	118	C2HFNO+
76.0181	4	C5H2N+
83.0292	18	C5H4F+
85.0397	8	C3H5N2O+
87.0354	21	C3H4FN2+
90.9745	23	C3HClF+
92.0306	17	C3H4F2N+
100.0182	34	C7H2N+
107.0292	138	C7H4F+
108.0243	12	C6H3FN+
109.0322	5	C6H4FN+
111.0242	5	C6H4FO+
114.0338	30	C8H4N+
116.9902	74	C5H3ClF+
117.9982	6	C5H4ClF+
120.0245	14	C7H3FN+
120.0371	28	C8H5F+
121.0322	29	C7H4FN+
122.0399	6	C7H5FN+
122.9995	24	C7H4Cl+
123.024	3	C7H4FO+
128.9901	7	C6H3ClF+
132.0244	146	C8H3FN+
133.0322	90	C8H4FN+
134.04	91	C8H5FN+
135.0479	23	C8H6FN+
135.9947	7	C7H3ClN+
140.9902	999	C7H3ClF+
141.9855	20	C6H2ClFN+
141.9981	75	C7H4ClF+
143.0058	20	C7H5ClF+
144.9848	4	CH2ClF2N3O+
147.0353	32	C8H4FN2+
147.9949	25	C8H3ClN+
148.0306	71	C7H3FN3+
148.043	23	C8H5FN2+
148.0555	4	C9H7FN+
149.0025	10	C8H4ClN+
149.0511	23	C8H6FN2+
150.035	31	C8H5FNO+
150.0583	4	C8H7FN2+
150.9512	8	C5H2Cl2F+
151.0428	48	C8H6FNO+
152.0506	153	C8H7FNO+
153.9979	43	C8H4ClF+
154.0054	11	C7H5ClNO+
156.0011	153	C7H4ClFN+
156.9605	13	C7H3Cl2+
156.9853	15	C7H3ClFO+
156.9964	10	C6H3ClFN2+
159.0353	19	C9H4FN2+
161.0272	139	C9H4FNO+
162.0347	4	C9H5FNO+
163.0057	21	C8H4ClN2+
163.0429	12	C9H6FNO+
164.0012	33	C7H3ClN3+
165.9856	55	C8H2ClFN+
166.0055	7	C8H5ClNO+
167.0135	16	C8H6ClNO+
168.0012	429	C8H4ClFN+
168.9853	79	C8H3ClFO+
169.0089	248	C8H5ClFN+
169.993	159	C8H4ClFO+
170.0165	26	C8H6ClFN+
171.012	9	C7H5ClFN2+
173.0509	14	C10H6FN2+
174.0585	9	C10H7FN2+
174.9512	32	C7H2Cl2F+
175.0302	13	C9H4FN2O+
175.0669	7	C10H8FN2+
176.0381	116	C9H5FN2O+
176.9669	840	C7H4Cl2F+
178.0338	36	C9H4F2N2+
179.0177	8	C9H3F2NO+
179.0417	21	C9H5F2N2+
180.0011	8	C9H4ClFN+
180.9967	4	C8HF2NO2+
181.9556	4	C8H2Cl2N+
182.0169	8	C9H6ClFN+
183.0121	128	C8H5ClFN2+
183.9961	48	C8H4ClFNO+
184.0198	11	C8H6ClFN2+
185.9918	39	C8H3ClF2N+
186.0116	33	C8H6ClFNO+
189.0696	9	C10H8FN3+
191.0001	4	C12HNO2+
192.9965	27	C9H3ClFN2+
194.0041	54	C9H4ClFN2+
194.9883	112	C9H3ClFNO+
195.9961	275	C9H4ClFNO+
197.0037	30	C9H5ClFNO+
198.0117	164	C9H6ClFNO+
199.9665	8	C8H4Cl2NO+
201.9622	61	C8H3Cl2FN+
203.9778	16	C8H5Cl2FN+
204.0023	8	C8H5ClF2NO+
204.0322	7	C10H7ClN3+
204.9615	19	C3H3Cl2F2N3O+
205.9976	3	C8H4ClF3N+
206.0287	27	C10H4F2N2O+
207.0365	79	C10H5F2N2O+
207.9963	7	C5HF3N3O3+
208.9914	23	C9H3ClFN2O+
209.0276	12	C10H7ClFN2+
210.0357	6	C10H8ClFN2+
211.0071	69	C9H5ClFN2O+
212.0147	23	C9H6ClFN2O+
215.0144	11	C9H7ClFNO2+
215.0254	8	C11H4FN2O2+
216.0566	9	C11H7FN3O+
217.0647	4	C11H8FN3O+
219.9727	5	C8H5Cl2FNO+
220.9911	5	C10H3ClFN2O+
221.9988	16	C10H4ClFN2O+
223.0068	11	C10H5ClFN2O+
223.991	145	C10H4ClFNO2+
228.9977	38	C9H4ClF2N2O+
230.965	25	C9H4Cl2FNO+
232.9806	10	C9H6Cl2FNO+
233.0093	3	C9H5ClF3N2+
240.9973	29	C10H4ClF2N2O+
242.0055	22	C10H5ClF2N2O+
243.033	5	C10H9ClFN2O2+
252.0332	9	C11H8ClFN3O+
270.9836	3	C11H6Cl2FN2O+
