Mass spectrum: 2,2`-(3-Chlorophenylimino)diethanol; LC-ESI-QFT; MS2; CE: 30; R=17500; [M+H]+
Name: 2,2'-(3-Chlorophenylimino)diethanol
Name: 3-Chloro-N,N-bis(2-hydroxyethyl)aniline
Name: 2-[3-chloro-N-(2-hydroxyethyl)anilino]ethanol
Formula: C10H14ClNO2
Exact mass: 215.0713
SMILES: OCCN(CCO)C1=CC(Cl)=CC=C1
InChI: InChI=1S/C10H14ClNO2/c11-9-2-1-3-10(8-9)12(4-6-13)5-7-14/h1-3,8,13-14H,4-7H2
Instrument: Q Exactive Orbitrap (Thermo Scientific)
Instrument type: LC-ESI-QFT
Ms type: MS2
Ion mode: POSITIVE
Ionization: ESI
Fragmentation mode: HCD
Collision energy: 30
Resolution: 17500
Column name: Acquity BEH C18 1.7um, 2.1x150mm (Waters)
Retention time: 15.559 min
Base peak: 79.0212
Precursor m/z: 216.0786
Precursor type: [M+H]+
Precursor intensity: 5487530.875
m/z	relative intensity	assigned
91.0544	1	C7H7+
110.9996	1	C6H4Cl+
117.0573	1	C8H7N+
118.0652	2	C8H8N+
119.073	15	C8H9N+
128.0262	2	C6H7ClN+
130.0652	1	C9H8N+
132.0808	17	C9H10N+
138.0105	4	C7H5ClN+
144.0808	7	C10H10N+
145.0886	23	C10H11N+
152.026	6	C8H7ClN+
153.034	36	C8H8ClN+
154.0418	251	C8H9ClN+
155.0498	1	C8H10ClN+
163.0991	21	C10H13NO+
171.0447	10	C8H10ClNO+
172.0524	60	C8H11ClNO+
174.0543	1	C10H8NO2+
180.0575	101	C10H11ClN+
198.0681	473	C10H13ClNO+
216.0786	999	C10H15ClNO2+
