Mass spectrum: Azathioprine; LC-ESI-QFT; MS2; CE: 30; R=17500; [M-H]-
Name: Azathioprine
Name: 6-(3-methyl-5-nitroimidazol-4-yl)sulfanyl-7H-purine
Formula: C9H7N7O2S
Exact mass: 277.0382
SMILES: CN1C=NC(=C1SC1=NC=NC2=C1NC=N2)[N+]([O-])=O
InChI: InChI=1S/C9H7N7O2S/c1-15-4-14-7(16(17)18)9(15)19-8-5-6(11-2-10-5)12-3-13-8/h2-4H,1H3,(H,10,11,12,13)
Instrument: Q Exactive Orbitrap (Thermo Scientific)
Instrument type: LC-ESI-QFT
Ms type: MS2
Ion mode: NEGATIVE
Ionization: ESI
Fragmentation mode: HCD
Collision energy: 30
Resolution: 17500
Column name: Acquity BEH C18 1.7um, 2.1x150mm (Waters)
Retention time: 10.668 min
Base peak: 276.0308
Precursor m/z: 276.0309
Precursor type: [M-H]-
Precursor intensity: 13463757.46704
m/z	relative intensity	assigned
57.9756	17	CNS-
66.0098	5	C2N3-
79.0177	1	C3HN3-
81.9757	5	C3NS-
82.0412	1	C3H4N3-
97.9944	3	C3H2N2S-
107.0127	12	C4HN3O-
111.0023	13	C4H3N2S-
112.0153	5	C3H2N3O2-
117.0207	56	C5HN4-
118.0283	2	C5H2N4-
118.041	3	C6H4N3-
119.0364	2	C5H3N4-
123.9975	22	C4H2N3S-
124.0101	2	C5H4N2S-
124.9813	1	C4HN2OS-
125.0176	1	C5H5N2S-
132.044	15	C6H4N4-
133.0152	2	C5HN4O-
134.0235	81	C5H2N4O-
135.9974	10	C5H2N3S-
136.015	3	C5H2N3O2-
138.9846	23	C4HN3OS-
139.9925	4	C4H2N3OS-
143.9874	19	C3H2N3O2S-
144.0316	15	C6H2N5-
145.0521	3	C7H5N4-
147.9973	2	C6H2N3S-
150.0006	4	C5H2N4S-
150.042	1	C5H4N5O-
151.0085	17	C5H3N4S-
151.9926	3	C5H2N3OS-
152.0285	3	C6H6N3S-
158.003	369	C4H4N3O2S-
163.0079	1	C6H3N4S-
164.034	2	C6H4N4O2-
170.0474	10	C8H4N5-
173.0456	2	C6H3N7-
176.0163	5	C7H4N4S-
183.0426	3	C8H3N6-
184.0376	2	C7H2N7-
189.0112	2	C7H3N5S-
197.058	4	C9H5N6-
202.0192	4	C8H4N5S-
203.0269	13	C8H5N5S-
214.0065	1	C8H2N6S-
215.0145	18	C8H3N6S-
229.0301	53	C9H5N6S-
230.038	45	C9H6N6S-
276.0309	999	C9H6N7O2S-
