Mass spectrum: Ranitidine; LC-ESI-QFT; MS2; CE: 75; R=17500; [M+H]+
Name: Ranitidine
Name: Ranitidine Base
Name: 1-N'-[2-[[5-[(dimethylamino)methyl]furan-2-yl]methylsulfanyl]ethyl]-1-N-methyl-2-nitroethene-1,1-diamine
Formula: C13H22N4O3S
Exact mass: 314.1413
SMILES: CNC(NCCSCC1=CC=C(CN(C)C)O1)=C[N+]([O-])=O
InChI: InChI=1S/C13H22N4O3S/c1-14-13(9-17(18)19)15-6-7-21-10-12-5-4-11(20-12)8-16(2)3/h4-5,9,14-15H,6-8,10H2,1-3H3
Instrument: Q Exactive Orbitrap (Thermo Scientific)
Instrument type: LC-ESI-QFT
Ms type: MS2
Ion mode: POSITIVE
Ionization: ESI
Fragmentation mode: HCD
Collision energy: 75
Resolution: 17500
Column name: Acquity BEH C18 1.7um, 2.1x150mm (Waters)
Retention time: 7.821 min
Base peak: 79.0211
Precursor m/z: 315.1485
Precursor type: [M+H]+
Precursor intensity: 2365519.25
m/z	relative intensity	assigned
53.0386	19	C4H5+
54.0339	6	C3H4N+
55.0417	45	C3H5N+
56.0495	84	C3H6N+
57.0448	21	C2H5N2+
57.0574	14	C3H7N+
58.0652	25	C3H8N+
58.995	7	C2H3S+
60.0029	23	C2H4S+
60.9981	15	CH3NS+
61.0107	85	C2H5S+
65.0386	4	C5H5+
67.0542	6	C5H7+
68.0495	27	C4H6N+
69.0447	4	C3H5N2+
69.0573	13	C4H7N+
71.0604	46	C3H7N2+
78.0464	6	C6H6+
79.0543	11	C6H7+
80.0496	10	C5H6N+
81.0335	597	C5H5O+
82.0651	18	C5H8N+
83.0491	5	C5H7O+
83.0604	63	C4H7N2+
84.0682	56	C4H8N2+
85.0398	4	C3H5N2O+
85.0759	7	C4H9N2+
86.0059	11	C3H4NS+
88.0216	29	C3H6NS+
91.0543	13	C7H7+
94.0414	12	C6H6O+
94.0652	39	C6H8N+
95.0492	45	C6H7O+
95.0608	4	C5H7N2+
95.073	19	C6H9N+
96.0445	3	C5H6NO+
96.0682	9	C5H8N2+
97.0761	403	C5H9N2+
98.0839	166	C5H10N2+
101.0169	5	C3H5N2S+
101.0293	21	C4H7NS+
102.0372	999	C4H8NS+
104.0496	13	C7H6N+
106.0651	14	C7H8N+
107.0492	142	C7H7O+
108.0572	10	C7H8O+
108.0809	21	C7H10N+
109.0649	6	C7H9O+
109.0761	8	C6H9N2+
110.0601	30	C6H8NO+
110.0966	34	C7H12N+
113.071	5	C5H9N2O+
115.0325	11	C4H7N2S+
117.0482	25	C4H9N2S+
117.0573	4	C8H7N+
118.0322	11	C4H8NOS+
118.0652	19	C8H8N+
120.0685	4	C7H8N2+
120.0809	12	C8H10N+
121.0761	76	C7H9N2+
122.0601	11	C7H8NO+
123.0263	4	C7H7S+
124.0758	26	C7H10NO+
125.0056	457	C6H5OS+
129.0481	34	C5H9N2S+
130.056	171	C5H10N2S+
132.0445	49	C8H6NO+
133.0524	41	C8H7NO+
133.0762	9	C8H9N2+
134.06	17	C8H8NO+
134.084	8	C8H10N2+
135.0264	7	C8H7S+
135.0917	84	C8H11N2+
136.0759	8	C8H10NO+
137.1072	5	C8H13N2+
139.0327	6	C6H7N2S+
145.0433	4	C5H9N2OS+
145.0763	4	C9H9N2+
146.0602	8	C9H8NO+
147.0678	8	C9H9NO+
147.0918	13	C9H11N2+
148.0757	97	C9H10NO+
149.0711	20	C8H9N2O+
150.0374	9	C8H8NS+
151.0215	16	C8H7OS+
154.056	3	C7H10N2S+
159.0464	5	C5H9N3OS+
163.0865	36	C9H11N2O+
164.0941	4	C9H12N2O+
165.1022	21	C9H13N2O+
167.0641	26	C8H11N2S+
177.1023	40	C10H13N2O+
178.0321	35	C9H8NOS+
191.1181	7	C11H15N2O+
192.0478	13	C10H10NOS+
223.0897	5	C11H15N2OS+
