Mass spectrum: PharmaGSID_48511; LC-ESI-QFT; MS2; CE: 90; R=17500; [M-H]-
Name: PharmaGSID_48511
Name: 4-[(9-cyclopentyl-7,7-difluoro-5-methyl-6-oxo-8H-pyrimido[4,5-b][1,4]diazepin-2-yl)amino]-3-methoxy-N-(1-methylpiperidin-4-yl)benzamide
Formula: C27H35F2N7O3
Exact mass: 543.2769
SMILES: COC1=C(NC2=NC3=C(C=N2)N(C)C(=O)C(F)(F)CN3C2CCCC2)C=CC(=C1)C(=O)NC1CCN(C)CC1
InChI: InChI=1S/C27H35F2N7O3/c1-34-12-10-18(11-13-34)31-24(37)17-8-9-20(22(14-17)39-3)32-26-30-15-21-23(33-26)36(19-6-4-5-7-19)16-27(28,29)25(38)35(21)2/h8-9,14-15,18-19H,4-7,10-13,16H2,1-3H3,(H,31,37)(H,30,32,33)
Instrument: Q Exactive Orbitrap (Thermo Scientific)
Instrument type: LC-ESI-QFT
Ms type: MS2
Ion mode: NEGATIVE
Ionization: ESI
Fragmentation mode: HCD
Collision energy: 90
Resolution: 17500
Column name: Acquity BEH C18 1.7um, 2.1x150mm (Waters)
Retention time: 14.779 min
Base peak: 112.9857
Precursor m/z: 542.2697
Precursor type: [M-H]-
Precursor intensity: 1807786.658691
m/z	relative intensity	assigned
50.0036	123	C3N-
65.0146	308	C3HN2-
65.9986	332	C3NO-
66.0097	140	C2N3-
79.0177	364	C3HN3-
89.0146	141	C5HN2-
90.0097	340	C4N3-
91.0302	373	C5H3N2-
92.0255	233	C4H2N3-
106.0285	750	C4H2N4-
107.0125	76	C4HN3O-
109.0208	176	C5H2FN2-
109.0772	115	C6H9N2-
116.0141	389	C7H2NO-
116.0254	219	C6H2N3-
117.0208	180	C5HN4-
117.0458	185	C7H5N2-
118.03	730	C7H4NO-
124.0078	999	C5HFN2O-
124.0403	208	C6H6NO2-
129.0337	114	C7H3N3-
130.0284	111	C6H2N4-
132.033	399	C7H4N2O-
133.0408	551	C7H5N2O-
135.0203	94	C6H3N2O2-
139.0315	376	C6H4FN2O-
147.0315	182	C6H3N4O-
148.0273	135	C2H3FN5O2-
148.0394	96	C6H4N4O-
158.0358	158	C3H3FN6O-
162.0226	88	C11H2N2-
166.0417	76	C2H4F2N6O-
172.0395	72	C8H4N4O-
176.0465	279	C8H6N3O2-
193.0525	86	C3H5F2N7O-
201.0419	126	C9H5N4O2-
223.0499	120	C11H5N5O-
241.0531	149	C12H6FN4O-
258.1241	138	C9H15FN6O2-
272.128	205	C14H16N4O2-
273.1359	324	C14H17N4O2-
298.1308	391	C15H16N5O2-
320.1396	182	C17H16N6O-
