Mass spectrum: N-[3-(Dimethylamino)propyl]dodecanamide; LC-ESI-QFT; MS2; CE: 15; R=17500; [M+H]+
Name: N-[3-(Dimethylamino)propyl]dodecanamide
Formula: C17H36N2O
Exact mass: 284.2828
SMILES: CCCCCCCCCCCC(=O)NCCCN(C)C
InChI: InChI=1S/C17H36N2O/c1-4-5-6-7-8-9-10-11-12-14-17(20)18-15-13-16-19(2)3/h4-16H2,1-3H3,(H,18,20)
Instrument: Q Exactive Orbitrap (Thermo Scientific)
Instrument type: LC-ESI-QFT
Ms type: MS2
Ion mode: POSITIVE
Ionization: ESI
Fragmentation mode: HCD
Collision energy: 15
Resolution: 17500
Column name: Acquity BEH C18 1.7um, 2.1x150mm (Waters)
Retention time: 17.468 min
Base peak: 79.0211
Precursor m/z: 285.29
Precursor type: [M+H]+
Precursor intensity: 67532461.3125
m/z	relative intensity	assigned
86.0964	1	C5H12N+
240.2321	110	C15H30NO+
285.2899	999	C17H37N2O+
