Mass spectrum: Parinol; LC-ESI-QFT; MS2; CE: 15; R=17500; [M-H]-
Name: Parinol
Name: bis(4-chlorophenyl)-pyridin-3-ylmethanol
Formula: C18H13Cl2NO
Exact mass: 329.0374
SMILES: OC(C1=CC=C(Cl)C=C1)(C1=CC=C(Cl)C=C1)C1=CC=CN=C1
InChI: InChI=1S/C18H13Cl2NO/c19-16-7-3-13(4-8-16)18(22,15-2-1-11-21-12-15)14-5-9-17(20)10-6-14/h1-12,22H
Instrument: Q Exactive Orbitrap (Thermo Scientific)
Instrument type: LC-ESI-QFT
Ms type: MS2
Ion mode: NEGATIVE
Ionization: ESI
Fragmentation mode: HCD
Collision energy: 15
Resolution: 17500
Column name: Acquity BEH C18 1.7um, 2.1x150mm (Waters)
Retention time: 18.396 min
Base peak: 266.9986
Precursor m/z: 328.0301
Precursor type: [M-H]-
Precursor intensity: 660691.03125
m/z	relative intensity	assigned
111.0008	107	C6H4Cl-
188.0274	163	C11H7ClN-
215.0145	76	C12H6ClNO-
216.0221	999	C12H7ClNO-
247.9802	94	C13H6Cl2O-
248.988	532	C13H7Cl2O-
