Mass spectrum: Clopyralid; LC-ESI-QFT; MS2; CE: 15; R=17500; [M-H]-
Name: Clopyralid
Name: 3,6-dichloropyridine-2-carboxylic acid
Formula: C6H3Cl2NO2
Exact mass: 190.9541
SMILES: OC(=O)C1=C(Cl)C=CC(Cl)=N1
InChI: InChI=1S/C6H3Cl2NO2/c7-3-1-2-4(8)9-5(3)6(10)11/h1-2H,(H,10,11)
Instrument: Q Exactive Orbitrap (Thermo Scientific)
Instrument type: LC-ESI-QFT
Ms type: MS2
Ion mode: NEGATIVE
Ionization: ESI
Fragmentation mode: HCD
Collision energy: 15
Resolution: 17500
Column name: Acquity BEH C18 1.7um, 2.1x150mm (Waters)
Retention time: 9.877 min
Base peak: 116.9285
Precursor m/z: 189.9468
Precursor type: [M-H]-
Precursor intensity: 710287.2369385
m/z	relative intensity	assigned
101.9519	142	Cl2H2NO-
145.957	999	C5H2Cl2N-
