Mass spectrum: 1H-Benzotriazol-1-ol; LC-ESI-QFT; MS2; CE: 60; R=17500; [M+H]+
Name: 1H-Benzotriazol-1-ol
Name: 1-hydroxybenzotriazole
Formula: C6H5N3O
Exact mass: 135.0433
SMILES: ON1N=NC2=C1C=CC=C2
InChI: InChI=1S/C6H5N3O/c10-9-6-4-2-1-3-5(6)7-8-9/h1-4,10H
Instrument: Q Exactive Orbitrap (Thermo Scientific)
Instrument type: LC-ESI-QFT
Ms type: MS2
Ion mode: POSITIVE
Ionization: ESI
Fragmentation mode: HCD
Collision energy: 60
Resolution: 17500
Column name: Acquity BEH C18 1.7um, 2.1x150mm (Waters)
Retention time: 9.600 min
Base peak: 79.0211
Precursor m/z: 136.0505
Precursor type: [M+H]+
Precursor intensity: 5496777.28125
m/z	relative intensity	assigned
52.0182	3	C3H2N+
53.0386	104	C4H5+
54.0339	4	C3H4N+
54.0464	12	C4H6+
63.0229	14	C5H3+
64.0307	17	C5H4+
65.026	8	C4H3N+
65.0385	7	C5H5+
66.0464	1	C5H6+
78.0464	65	C6H6+
80.0494	96	C5H6N+
81.0335	11	C5H5O+
90.0339	7	C6H4N+
91.0417	999	C6H5N+
92.0368	2	C5H4N2+
95.0491	15	C4H5N3+
96.0445	1	C5H6NO+
105.0447	15	C6H5N2+
106.0527	6	C6H6N2+
108.0443	6	C6H6NO+
119.0478	224	C6H5N3+
136.0506	895	C6H6N3O+
