Mass spectrum: Nonivamide; LC-ESI-QFT; MS2; CE: 60; R=17500; [M+H]+
Name: Nonivamide
Name: N-[(4-hydroxy-3-methoxyphenyl)methyl]nonanamide
Formula: C17H27NO3
Exact mass: 293.1991
SMILES: CCCCCCCCC(=O)NCC1=CC(OC)=C(O)C=C1
InChI: InChI=1S/C17H27NO3/c1-3-4-5-6-7-8-9-17(20)18-13-14-10-11-15(19)16(12-14)21-2/h10-12,19H,3-9,13H2,1-2H3,(H,18,20)
Instrument: Q Exactive Orbitrap (Thermo Scientific)
Instrument type: LC-ESI-QFT
Ms type: MS2
Ion mode: POSITIVE
Ionization: ESI
Fragmentation mode: HCD
Collision energy: 60
Resolution: 17500
Column name: Acquity BEH C18 1.7um, 2.1x150mm (Waters)
Retention time: 17.928 min
Base peak: 79.0211
Precursor m/z: 294.2064
Precursor type: [M+H]+
Precursor intensity: 7211170.125
m/z	relative intensity	assigned
53.0386	1	C4H5+
57.0699	21	C4H9+
65.0386	2	C5H5+
66.0463	5	C5H6+
67.0541	2	C5H7+
71.0855	16	C5H11+
79.0542	19	C6H7+
81.0699	23	C6H9+
88.0757	7	C4H10NO+
91.0543	17	C7H7+
94.0414	47	C6H6O+
95.0491	3	C6H7O+
102.0914	2	C5H12NO+
105.0335	2	C7H5O+
107.0493	11	C7H7O+
109.0648	20	C7H9O+
122.0362	154	C7H6O2+
137.0597	999	C8H9O2+
158.1541	9	C9H20NO+
