Mass spectrum: PD-0333941; LC-ESI-QFT; MS2; CE: 90; R=17500; [M+H]+
Name: PD-0333941
Name: 3-[4-[2-(5-methyl-2-phenyl-1,3-oxazol-4-yl)ethoxy]indol-1-yl]propanoic acid
Formula: C23H22N2O4
Exact mass: 390.1580
SMILES: CC1=C(CCOC2=CC=CC3=C2C=CN3CCC(O)=O)N=C(O1)C1=CC=CC=C1
InChI: InChI=1S/C23H22N2O4/c1-16-19(24-23(29-16)17-6-3-2-4-7-17)12-15-28-21-9-5-8-20-18(21)10-13-25(20)14-11-22(26)27/h2-10,13H,11-12,14-15H2,1H3,(H,26,27)
Instrument: Q Exactive Orbitrap (Thermo Scientific)
Instrument type: LC-ESI-QFT
Ms type: MS2
Ion mode: POSITIVE
Ionization: ESI
Fragmentation mode: HCD
Collision energy: 90
Resolution: 17500
Column name: Acquity BEH C18 1.7um, 2.1x150mm (Waters)
Retention time: 18.720 min
Base peak: 79.0211
Precursor m/z: 391.1652
Precursor type: [M+H]+
Precursor intensity: 27398320.0625
m/z	relative intensity	assigned
50.0152	1	C4H2+
51.023	3	C4H3+
53.0386	78	C4H5+
55.0178	12	C3H3O+
55.0542	39	C4H7+
65.0385	7	C5H5+
66.0464	1	C5H6+
69.0335	19	C4H5O+
70.0413	1	C4H6O+
73.0284	4	C3H5O2+
77.0385	27	C6H5+
78.0464	3	C6H6+
79.0541	3	C6H7+
80.0494	1	C5H6N+
81.0334	9	C5H5O+
83.0491	52	C5H7O+
91.0542	58	C7H7+
92.0575	2	C2H8N2O2+
94.0414	9	C6H6O+
95.0492	224	C6H7O+
96.0524	1	CH8N2O3+
103.0543	29	C8H7+
104.0495	999	C7H6N+
105.0335	322	C7H5O+
105.0446	83	C6H5N2+
106.0651	4	C7H8N+
109.0647	3	C7H9O+
115.0543	54	C9H7+
116.0495	5	C8H6N+
116.062	9	C9H8+
117.0573	36	C8H7N+
117.0699	66	C9H9+
118.0651	46	C8H8N+
119.0365	4	C7H5NO+
120.0402	2	C4H8O4+
120.0443	11	C7H6NO+
120.0808	3	C8H10N+
121.0478	6	C4H9O4+
121.0647	3	C8H9O+
122.0599	5	C7H8NO+
122.0679	1	C3H10N2O3+
127.0542	6	C10H7+
128.0497	8	C9H6N+
128.062	31	C10H8+
129.0698	7	C10H9+
130.0652	93	C9H8N+
131.049	2	C9H7O+
131.0729	3	C9H9N+
131.0856	1	C10H11+
132.0445	10	C8H6NO+
133.0526	9	C8H7NO+
134.0233	2	C7H4NO2+
134.0603	5	C8H8NO+
136.0758	9	C8H10NO+
141.0699	9	C11H9+
142.0649	9	C10H8N+
143.073	73	C10H9N+
144.0808	75	C10H10N+
145.052	2	C9H7NO+
145.0649	14	C10H9O+
146.06	100	C9H8NO+
148.0755	3	C9H10NO+
149.0472	1	C8H7NO2+
154.0651	10	C11H8N+
155.0603	19	C10H7N2+
156.0808	3	C11H10N+
157.052	1	C10H7NO+
158.0601	11	C10H8NO+
158.0964	12	C11H12N+
159.0679	3	C10H9NO+
160.0752	1	C10H10NO+
161.0466	1	C9H7NO2+
162.0546	3	C9H8NO2+
162.0917	1	C10H12NO+
167.073	20	C12H9N+
168.0809	9	C12H10N+
170.0599	12	C11H8NO+
171.0677	1	C11H9NO+
172.0757	34	C11H10NO+
182.0601	1	C12H8NO+
184.0756	8	C12H10NO+
186.0914	27	C12H12NO+
195.0679	2	C13H9NO+
196.0754	4	C13H10NO+
210.091	2	C14H12NO+
