Mass spectrum: 17-Methyltestosterone; LC-ESI-QFT; MS2; CE: 45; R=17500; [M+H]+
Name: 17-Methyltestosterone
Name: Methyltestosterone
Name: (8R,9S,10R,13S,14S,17S)-17-hydroxy-10,13,17-trimethyl-2,6,7,8,9,11,12,14,15,16-decahydro-1H-cyclopenta[a]phenanthren-3-one
Formula: C20H30O2
Exact mass: 302.2246
SMILES: C[C@]1(O)CC[C@H]2[C@@H]3CCC4=CC(=O)CC[C@]4(C)[C@H]3CC[C@]12C
InChI: InChI=1S/C20H30O2/c1-18-9-6-14(21)12-13(18)4-5-15-16(18)7-10-19(2)17(15)8-11-20(19,3)22/h12,15-17,22H,4-11H2,1-3H3/t15-,16+,17+,18+,19+,20+/m1/s1
Instrument: Q Exactive Orbitrap (Thermo Scientific)
Instrument type: LC-ESI-QFT
Ms type: MS2
Ion mode: POSITIVE
Ionization: ESI
Fragmentation mode: HCD
Collision energy: 45
Resolution: 17500
Column name: Acquity BEH C18 1.7um, 2.1x150mm (Waters)
Retention time: 18.149 min
Base peak: 79.0211
Precursor m/z: 303.2319
Precursor type: [M+H]+
Precursor intensity: 4088255.71875
m/z	relative intensity	assigned
55.0179	3	C3H3O+
55.0543	4	C4H7+
57.0699	1	C4H9+
67.0542	15	C5H7+
69.0335	1	C4H5O+
69.0699	13	C5H9+
71.0491	4	C4H7O+
79.0542	33	C6H7+
81.0699	61	C6H9+
83.0492	58	C5H7O+
83.0855	7	C6H11+
85.0648	5	C5H9O+
91.0542	13	C7H7+
93.07	49	C7H9+
95.0856	124	C7H11+
97.0649	999	C6H9O+
99.0804	3	C6H11O+
105.0699	33	C8H9+
107.0492	5	C7H7O+
107.0856	86	C8H11+
109.0649	845	C7H9O+
109.1012	45	C8H13+
111.0803	7	C7H11O+
117.0699	4	C9H9+
119.0856	61	C9H11+
121.0648	27	C8H9O+
121.1012	88	C9H13+
123.0805	83	C8H11O+
123.1169	10	C9H15+
125.0962	3	C8H13O+
129.0698	3	C10H9+
131.0856	16	C10H11+
133.1012	63	C10H13+
135.0803	5	C9H11O+
135.1168	40	C10H15+
137.0962	13	C9H13O+
137.1325	10	C10H17+
143.0857	8	C11H11+
144.0936	1	C11H12+
145.1013	32	C11H13+
147.0805	4	C10H11O+
147.1169	37	C11H15+
149.0962	14	C10H13O+
149.1326	33	C11H17+
151.112	3	C10H15O+
155.0855	5	C12H11+
157.1013	21	C12H13+
159.1169	58	C12H15+
161.0962	6	C11H13O+
161.1326	38	C12H17+
163.1117	19	C11H15O+
163.1482	13	C12H19+
169.1014	9	C13H13+
171.1169	32	C13H15+
173.1326	26	C13H17+
175.1117	8	C12H15O+
175.1483	34	C13H19+
177.1275	38	C12H17O+
177.1638	32	C13H21+
183.1172	6	C14H15+
185.1325	29	C14H17+
187.1482	23	C14H19+
189.1275	12	C13H17O+
189.1639	67	C14H21+
191.143	7	C13H19O+
197.1327	13	C15H17+
199.1483	13	C15H19+
201.1274	2	C14H17O+
201.1639	24	C15H21+
203.1431	4	C14H19O+
203.1796	12	C15H23+
211.1482	32	C16H19+
213.1637	3	C16H21+
215.1431	8	C15H19O+
215.1796	15	C16H23+
217.1584	1	C15H21O+
225.164	14	C17H21+
227.1795	70	C17H23+
229.1584	11	C16H21O+
239.1794	5	C18H23+
241.1951	2	C18H25+
243.1742	4	C17H23O+
243.2111	2	C18H27+
245.1901	28	C17H25O+
252.1874	2	C19H24+
267.2109	67	C20H27+
285.2214	58	C20H29O+
303.232	45	C20H31O2+
