Mass spectrum: 1-(2,6-Dichlorophenyl)-2-indolinone; LC-ESI-QFT; MS2; CE: 45; R=17500; [M+H]+
Name: 1-(2,6-Dichlorophenyl)-2-indolinone
Name: 1-(2,6-dichlorophenyl)-3H-indol-2-one
Formula: C14H9Cl2NO
Exact mass: 277.0061
SMILES: ClC1=CC=CC(Cl)=C1N1C(=O)CC2=C1C=CC=C2
InChI: InChI=1S/C14H9Cl2NO/c15-10-5-3-6-11(16)14(10)17-12-7-2-1-4-9(12)8-13(17)18/h1-7H,8H2
Instrument: Q Exactive Orbitrap (Thermo Scientific)
Instrument type: LC-ESI-QFT
Ms type: MS2
Ion mode: POSITIVE
Ionization: ESI
Fragmentation mode: HCD
Collision energy: 45
Resolution: 17500
Column name: Acquity BEH C18 1.7um, 2.1x150mm (Waters)
Retention time: 17.314 min
Base peak: 79.0212
Precursor m/z: 278.0134
Precursor type: [M+H]+
Precursor intensity: 4270572.375
m/z	relative intensity	assigned
79.0542	51	C6H7+
95.0491	3	C6H7O+
104.0496	2	C7H6N+
105.0335	33	C7H5O+
107.0492	28	C7H7O+
118.0413	2	C8H6O+
125.0152	3	C7H6Cl+
132.0444	100	C8H6NO+
133.0521	2	C8H7NO+
138.011	1	C7H5ClN+
159.9719	7	C6H4Cl2N+
164.0009	3	C9H5ClO+
171.9715	325	C7H4Cl2N+
178.0653	1	C13H8N+
179.0732	5	C13H9N+
180.0807	106	C13H10N+
199.9668	10	C8H4Cl2NO+
201.0339	5	C12H8ClN+
207.0676	4	C14H9NO+
208.0758	372	C14H10NO+
214.0418	999	C13H9ClN+
215.0496	523	C13H10ClN+
242.0367	21	C14H9ClNO+
243.0446	131	C14H10ClNO+
248.0026	6	C13H8Cl2N+
250.0184	97	C13H10Cl2N+
278.0134	702	C14H10Cl2NO+
