Mass spectrum: PharmaGSID_47261; LC-ESI-QFT; MS2; CE: 90; R=17500; [M-H]-
Name: PharmaGSID_47261
Name: (2S,3S)-3-methyl-2-(3-oxo-1,2-benzothiazol-2-yl)pentanoic acid
Formula: C13H15NO3S
Exact mass: 265.0773
SMILES: CC[C@H](C)[C@H](N1SC2=CC=CC=C2C1=O)C(O)=O
InChI: InChI=1S/C13H15NO3S/c1-3-8(2)11(13(16)17)14-12(15)9-6-4-5-7-10(9)18-14/h4-8,11H,3H2,1-2H3,(H,16,17)/t8-,11-/m0/s1
Instrument: Q Exactive Orbitrap (Thermo Scientific)
Instrument type: LC-ESI-QFT
Ms type: MS2
Ion mode: NEGATIVE
Ionization: ESI
Fragmentation mode: HCD
Collision energy: 90
Resolution: 17500
Column name: Acquity BEH C18 1.7um, 2.1x150mm (Waters)
Retention time: 16.614 min
Base peak: 179.0713
Precursor m/z: 264.07
Precursor type: [M-H]-
Precursor intensity: 19444667.82715
m/z	relative intensity	assigned
56.9803	5	C2HS-
57.9757	5	CNS-
63.9625	61	O2S-
106.9963	19	C6H3S-
108.004	19	C6H4S-
108.0217	22	C6H4O2-
109.0117	999	C6H5S-
110.991	23	C5H3OS-
123.9989	5	C6H4OS-
134.0071	20	C7H4NS-
137.0065	12	C7H5OS-
138.9861	6	C6H3O2S-
150.0019	55	C7H4NOS-
