Mass spectrum: Glybenclamide; LC-ESI-QFT; MS2; CE: 60; R=17500; [M+H]+
Name: Glybenclamide
Name: Glyburide
Name: 5-chloro-N-[2-[4-(cyclohexylcarbamoylsulfamoyl)phenyl]ethyl]-2-methoxybenzamide
Formula: C23H28ClN3O5S
Exact mass: 493.1438
SMILES: COC1=C(C=C(Cl)C=C1)C(=O)NCCC1=CC=C(C=C1)S(=O)(=O)NC(=O)NC1CCCCC1
InChI: InChI=1S/C23H28ClN3O5S/c1-32-21-12-9-17(24)15-20(21)22(28)25-14-13-16-7-10-19(11-8-16)33(30,31)27-23(29)26-18-5-3-2-4-6-18/h7-12,15,18H,2-6,13-14H2,1H3,(H,25,28)(H2,26,27,29)
Instrument: Q Exactive Orbitrap (Thermo Scientific)
Instrument type: LC-ESI-QFT
Ms type: MS2
Ion mode: POSITIVE
Ionization: ESI
Fragmentation mode: HCD
Collision energy: 60
Resolution: 17500
Column name: Acquity BEH C18 1.7um, 2.1x150mm (Waters)
Retention time: 17.866 min
Base peak: 79.0212
Precursor m/z: 494.1511
Precursor type: [M+H]+
Precursor intensity: 7032263.28125
m/z	relative intensity	assigned
51.0229	1	C4H3+
53.0386	5	C4H5+
55.0542	11	C4H7+
75.0228	1	C6H3+
77.0385	3	C6H5+
79.0542	2	C6H7+
83.0855	10	C6H11+
86.9996	3	C4H4Cl+
91.0542	21	C7H7+
94.0413	1	C6H6O+
95.0491	23	C6H7O+
100.112	6	C6H14N+
103.0542	48	C8H7+
104.062	2	C8H8+
105.0448	7	C6H5N2+
105.0699	23	C8H9+
107.0491	17	C7H7O+
110.9996	1	C6H4Cl+
111.044	2	C6H7O2+
113.0152	21	C6H6Cl+
117.0698	1	C9H9+
118.065	1	C8H8N+
119.0491	34	C8H7O+
120.057	2	C8H8O+
120.0807	3	C8H10N+
121.0283	1	C7H5O2+
121.0648	16	C8H9O+
123.0077	1	C6H3O3+
125.9866	26	C6H3ClO+
129.0102	13	C6H6ClO+
131.0604	30	C8H7N2+
134.0363	2	C8H6O2+
134.0965	2	C9H12N+
138.0229	4	C8H7Cl+
139.0057	27	C6H4ClN2+
139.0311	2	C8H8Cl+
140.0025	1	C7H5ClO+
141.0101	13	C7H6ClO+
153.9817	1	C7H3ClO2+
154.9893	2	C7H4ClO2+
166.0258	9	C8H6O4+
167.0161	3	C8H7O2S+
167.086	3	C13H11+
167.9974	2	C8H5ClO2+
168.0211	3	C8H7ClNO+
168.0935	2	C13H12+
169.005	999	C8H6ClO2+
171.9921	15	C7H5ClO3+
179.0856	1	C14H11+
194.0727	1	C14H10O+
195.0805	6	C14H11O+
196.0883	2	C14H12O+
198.032	1	C3H15ClO5S+
208.0881	3	C4H19ClN3O2S+
217.0417	8	C13H10ClO+
223.0755	2	C15H11O2+
245.0368	2	C14H10ClO2+
259.0517	10	C15H12ClO2+
262.0628	6	C14H13ClNO2+
