Mass spectrum: Surinabant; LC-ESI-QFT; MS2; CE: 75; R=17500; [M+H]+
Name: Surinabant
Name: 5-(4-bromophenyl)-1-(2,4-dichlorophenyl)-4-ethyl-N-piperidin-1-ylpyrazole-3-carboxamide
Formula: C23H23BrCl2N4O
Exact mass: 520.0432
SMILES: CCC1=C(N(N=C1C(=O)NN1CCCCC1)C1=CC=C(Cl)C=C1Cl)C1=CC=C(Br)C=C1
InChI: InChI=1S/C23H23BrCl2N4O/c1-2-18-21(23(31)28-29-12-4-3-5-13-29)27-30(20-11-10-17(25)14-19(20)26)22(18)15-6-8-16(24)9-7-15/h6-11,14H,2-5,12-13H2,1H3,(H,28,31)
Instrument: Q Exactive Orbitrap (Thermo Scientific)
Instrument type: LC-ESI-QFT
Ms type: MS2
Ion mode: POSITIVE
Ionization: ESI
Fragmentation mode: HCD
Collision energy: 75
Resolution: 17500
Column name: Acquity BEH C18 1.7um, 2.1x150mm (Waters)
Retention time: 20.203 min
Base peak: 79.0211
Precursor m/z: 521.0505
Precursor type: [M+H]+
Precursor intensity: 13327241.25
m/z	relative intensity	assigned
51.023	4	C4H3+
52.0308	9	C4H4+
53.0022	6	C3HO+
53.0386	18	C4H5+
54.0338	5	C3H4N+
55.0178	12	C3H3O+
55.0542	128	C4H7+
56.0495	117	C3H6N+
57.0448	5	C2H5N2+
57.07	3	C4H9+
62.9632	7	CClO+
65.0386	12	C5H5+
66.0464	3	C5H6+
67.0416	6	C4H5N+
67.0541	14	C5H7+
68.0494	3	C4H6N+
70.0651	12	C4H8N+
74.015	18	C6H2+
75.0229	35	C6H3+
76.0307	37	C6H4+
78.0464	6	C6H6+
79.0178	13	C5H3O+
80.0257	7	C5H4O+
80.0495	3	C5H6N+
81.0335	8	C5H5O+
82.0651	36	C5H8N+
84.0808	422	C5H10N+
84.984	69	C4H2Cl+
85.0885	5	C5H11N+
86.0962	3	C5H12N+
86.9632	76	C3ClO+
86.9996	4	C4H4Cl+
89.0385	4	C7H5+
90.0339	3	C6H4N+
90.0465	9	C7H6+
91.0541	3	C7H7+
94.0413	109	C6H6O+
95.0492	14	C6H7O+
98.0363	9	C2H9ClNO+
98.9996	31	C5H4Cl+
99.0917	68	C5H11N2+
100.0994	5	C5H12N2+
102.0464	29	C8H6+
103.0541	27	C8H7+
104.0494	8	C7H6N+
104.062	38	C8H8+
108.0569	4	C7H8O+
108.984	171	C6H2Cl+
112.979	12	C5H2ClO+
114.0464	4	C9H6+
115.0542	262	C9H7+
116.0621	268	C9H8+
117.0572	19	C8H7N+
117.07	6	C9H9+
118.0653	10	C8H8N+
120.9607	29	C4H3Cl2+
122.9997	3	C7H4Cl+
123.9949	11	C6H3ClN+
125.0027	10	C6H4ClN+
126.0105	17	C6H5ClN+
126.0464	35	C10H6+
126.9945	43	C6H4ClO+
127.0417	32	C9H5N+
127.0543	19	C10H7+
128.0023	70	C6H5ClO+
128.0494	15	C9H6N+
128.062	70	C10H8+
129.0104	7	C6H6ClO+
129.0575	9	C9H7N+
129.0699	8	C10H9+
130.0652	13	C9H8N+
130.9491	50	C4H4Br+
132.0571	6	C9H8O+
132.9606	191	C5H3Cl2+
135.0319	4	C4H8ClN2O+
136.0073	2	C8H5Cl+
138.011	3	C7H5ClN+
139.0059	8	C6H4ClN2+
139.0543	5	C11H7+
140.0494	88	C10H6N+
141.0573	43	C10H7N+
141.0699	42	C11H9+
142.0053	4	C6H5ClNO+
142.0652	68	C10H8N+
143.073	286	C10H9N+
144.0572	3	C10H8O+
144.9606	113	C6H3Cl2+
145.0051	16	C3H9Cl2NO+
145.0648	64	C10H9O+
145.9685	11	C6H4Cl2+
146.0601	5	C9H8NO+
149.0153	71	C9H6Cl+
150.0107	4	C8H5ClN+
150.0232	6	C9H7Cl+
151.0183	17	C8H6ClN+
152.0137	7	C7H5ClN2+
152.0262	9	C8H7ClN+
152.0495	4	C11H6N+
153.0343	15	C8H8ClN+
153.0573	227	C11H7N+
154.0651	262	C11H8N+
154.949	44	C6H4Br+
155.0008	8	C6H4ClN2O+
155.0603	92	C10H7N2+
157.0524	9	C10H7NO+
158.0601	3	C10H8NO+
158.944	4	C5H4BrO+
158.9763	8	C7H5Cl2+
159.0208	7	C4H11Cl2NO+
159.9715	328	C6H4Cl2N+
160.9793	120	C6H5Cl2N+
161.9639	4	C6H4Cl2O+
162.0107	5	C9H5ClN+
162.9712	94	C6H5Cl2O+
164.0262	4	C9H7ClN+
166.0526	11	C11H6N2+
167.0602	13	C11H7N2+
168.0571	3	C9H11ClN+
168.068	30	C11H8N2+
168.9648	40	C7H6Br+
169.0649	9	C12H9O+
169.0761	34	C11H9N2+
170.0601	10	C11H8NO+
171.0555	10	C10H7N2O+
171.9715	113	C7H4Cl2N+
172.9597	183	C6H6BrO+
172.9669	593	C6H3Cl2N2+
173.964	6	C7H4Cl2O+
174.0106	40	C10H5ClN+
175.0184	31	C10H6ClN+
176.026	7	C10H7ClN+
177.034	69	C10H8ClN+
177.0568	21	C13H7N+
177.9818	5	C6H6Cl2NO+
180.9648	12	C8H6Br+
181.0522	12	C12H7NO+
181.9599	65	C7H5BrN+
182.9553	485	C6H4BrN2+
183.9522	4	C4H8BrClN+
183.9716	4	C8H4Cl2N+
184.9671	5	C7H3Cl2N2+
184.9795	18	C8H5Cl2N+
185.0712	15	C11H9N2O+
186.9825	15	C7H5Cl2N2+
188.003	16	C8H8Cl2N+
189.0216	3	C10H6ClN2+
189.0701	13	C15H9+
190.0652	3	C14H8N+
190.0774	4	C15H10+
191.0734	7	C14H9N+
192.965	9	C9H6Br+
193.96	26	C8H5BrN+
195.9716	39	C9H4Cl2N+
197.9871	33	C9H6Cl2N+
199.0312	13	C13H8Cl+
201.0213	7	C11H6ClN2+
201.0577	5	C15H7N+
202.0292	39	C11H7ClN2+
203.037	9	C11H8ClN2+
203.0735	5	C15H9N+
204.0209	9	C11H7ClNO+
204.0809	8	C15H10N+
204.9648	5	C10H6Br+
205.96	8	C9H5BrN+
205.972	4	C10H7Br+
207.976	16	C9H7BrN+
209.9873	4	C10H6Cl2N+
212.0264	12	C13H7ClN+
213.0428	4	C6H13Cl2N3O+
214.065	8	C16H8N+
215.0731	7	C16H9N+
216.0686	16	C15H8N2+
216.0806	104	C16H10N+
217.0886	552	C16H11N+
219.0325	9	C8H11Cl2N3+
221.9916	4	C10H9BrN+
224.0261	18	C14H7ClN+
225.0342	4	C14H8ClN+
225.0465	41	C15H10Cl+
226.03	2	C13H7ClN2+
226.0419	8	C14H9ClN+
227.0608	6	C16H7N2+
227.0733	23	C17H9N+
228.0684	38	C16H8N2+
228.0811	5	C17H10N+
229.0761	270	C16H9N2+
230.0368	17	C13H9ClNO+
231.9753	15	C11H7BrN+
232.971	3	C10H6BrN2+
237.0341	32	C15H8ClN+
238.0419	39	C15H9ClN+
239.0373	3	C14H8ClN2+
241.0752	13	C17H9N2+
242.0838	183	C17H10N2+
243.0917	227	C17H11N2+
244.0995	167	C17H12N2+
246.9952	60	C13H7Cl2N+
248.0028	53	C13H8Cl2N+
250.0284	4	C18H4NO+
250.0419	47	C16H9ClN+
251.0369	17	C15H8ClN2+
251.0496	175	C16H10ClN+
252.0574	245	C16H11ClN+
259.9708	8	C12H7BrNO+
261.0107	8	C14H9Cl2N+
261.0337	22	C20H5O+
262.0061	7	C13H8Cl2N2+
263.0369	215	C16H8ClN2+
264.0447	327	C16H9ClN2+
264.0565	21	C20H8O+
265.0524	8	C19H7NO+
272.0028	53	C15H8Cl2N+
274.0186	8	C15H10Cl2N+
277.0527	333	C17H10ClN2+
278.0605	544	C17H11ClN2+
278.9847	63	C11H5Cl2N4O+
279.0684	224	C17H12ClN2+
285.0106	10	C16H9Cl2N+
286.0053	15	C18H5ClNO+
286.0205	40	C6H21BrCl2N2O+
289.0531	26	C18H10ClN2+
290.944	18	C16H4BrO+
291.0319	29	C17H8ClN2O+
291.9523	32	C13H8BrClN+
292.0397	55	C17H9ClN2O+
294.9996	5	C16H10BrN+
296.0338	6	C13H12Cl2N3O+
296.997	8	C19H4ClNO+
299.0138	395	C16H9Cl2N2+
305.0474	6	C18H10ClN2O+
306.9868	17	C16H8BrN2+
307.0642	5	C15H15Cl2N3+
310.0504	8	C14H14Cl2N3O+
311.0141	10	C17H9Cl2N2+
313.0294	392	C17H11Cl2N2+
315.9525	7	C15H8BrClN+
321.0023	17	C17H10BrN2+
322.01	17	C17H11BrN2+
323.016	15	C8H20BrCl2N3O+
325.9134	999	C13H7BrCl2N+
327.0097	5	C17H9Cl2N2O+
329.9523	18	C16H3BrN4+
330.9767	4	C16H11BrClN+
341.0244	11	C18H11Cl2N2O+
342.9633	126	C16H9BrClN2+
355.9712	5	C17H10BrClN2+
356.9791	67	C17H11BrClN2+
366.9629	7	C21H6BrNO+
376.9245	24	C16H8BrCl2N2+
377.9337	3	C16H9BrCl2N2+
390.9405	8	C17H10BrCl2N2+
