Mass spectrum: Flubendiamide; LC-ESI-QFT; MS2; CE: 15; R=17500; [M-H]-
Name: Flubendiamide
Name: 1-N-[4-(1,1,1,2,3,3,3-heptafluoropropan-2-yl)-2-methylphenyl]-3-iodo-2-N-(2-methyl-1-methylsulfonylpropan-2-yl)benzene-1,2-dicarboxamide
Formula: C23H22F7IN2O4S
Exact mass: 682.0233
SMILES: CC1=CC(=CC=C1NC(=O)C1=CC=CC(I)=C1C(=O)NC(C)(C)CS(C)(=O)=O)C(F)(C(F)(F)F)C(F)(F)F
InChI: InChI=1S/C23H22F7IN2O4S/c1-12-10-13(21(24,22(25,26)27)23(28,29)30)8-9-16(12)32-18(34)14-6-5-7-15(31)17(14)19(35)33-20(2,3)11-38(4,36)37/h5-10H,11H2,1-4H3,(H,32,34)(H,33,35)
Instrument: Q Exactive Orbitrap (Thermo Scientific)
Instrument type: LC-ESI-QFT
Ms type: MS2
Ion mode: NEGATIVE
Ionization: ESI
Fragmentation mode: HCD
Collision energy: 15
Resolution: 17500
Column name: Acquity BEH C18 1.7um, 2.1x150mm (Waters)
Retention time: 18.117 min
Base peak: 243.1601
Precursor m/z: 681.016
Precursor type: [M-H]-
Precursor intensity: 26209937.5625
m/z	relative intensity	assigned
126.9055	6	I-
133.0328	2	C5H9O2S-
254.041	999	F5H18IN-
271.9216	268	C8H3INO2-
