Mass spectrum: Besonprodil; LC-ESI-QFT; MS2; CE: 15; R=17500; [M+H]+
Name: Besonprodil
Name: 6-[2-[4-[(4-fluorophenyl)methyl]piperidin-1-yl]ethylsulfinyl]-3H-1,3-benzoxazol-2-one
Formula: C21H23FN2O3S
Exact mass: 402.1413
SMILES: FC1=CC=C(CC2CCN(CCS(=O)C3=CC=C4NC(=O)OC4=C3)CC2)C=C1
InChI: InChI=1S/C21H23FN2O3S/c22-17-3-1-15(2-4-17)13-16-7-9-24(10-8-16)11-12-28(26)18-5-6-19-20(14-18)27-21(25)23-19/h1-6,14,16H,7-13H2,(H,23,25)
Instrument: Q Exactive Orbitrap (Thermo Scientific)
Instrument type: LC-ESI-QFT
Ms type: MS2
Ion mode: POSITIVE
Ionization: ESI
Fragmentation mode: HCD
Collision energy: 15
Resolution: 17500
Column name: Acquity BEH C18 1.7um, 2.1x150mm (Waters)
Retention time: 13.242 min
Base peak: 79.0211
Precursor m/z: 403.1486
Precursor type: [M+H]+
Precursor intensity: 11646912.625
m/z	relative intensity	assigned
109.0451	1	C7H6F+
112.1122	1	C7H14N+
180.0112	7	C8H6NO2S+
193.1261	27	C12H16FN+
206.1339	34	C13H17FN+
220.1495	301	C14H19FN+
222.1286	1	C10H22O3S+
238.1599	1	C14H21FNO+
403.1486	999	C21H24FN2O3S+
