Mass spectrum: SB243213A; LC-ESI-QFT; MS2; CE: 75; R=17500; [M+H]+
Name: SB243213A
Name: SB 243213
Name: 5-methyl-N-[6-(2-methylpyridin-3-yl)oxypyridin-3-yl]-6-(trifluoromethyl)-2,3-dihydroindole-1-carboxamide
Formula: C22H19F3N4O2
Exact mass: 428.1460
SMILES: CC1=CC2=C(C=C1C(F)(F)F)N(CC2)C(=O)NC1=CC=C(OC2=CC=CN=C2C)N=C1
InChI: InChI=1S/C22H19F3N4O2/c1-13-10-15-7-9-29(18(15)11-17(13)22(23,24)25)21(30)28-16-5-6-20(27-12-16)31-19-4-3-8-26-14(19)2/h3-6,8,10-12H,7,9H2,1-2H3,(H,28,30)
Instrument: Q Exactive Orbitrap (Thermo Scientific)
Instrument type: LC-ESI-QFT
Ms type: MS2
Ion mode: POSITIVE
Ionization: ESI
Fragmentation mode: HCD
Collision energy: 75
Resolution: 17500
Column name: Acquity BEH C18 1.7um, 2.1x150mm (Waters)
Retention time: 18.000 min
Base peak: 79.0211
Precursor m/z: 429.1533
Precursor type: [M+H]+
Precursor intensity: 35404417
m/z	relative intensity	assigned
51.023	1	C4H3+
52.0181	1	C3H2N+
53.0022	5	C3HO+
53.0386	14	C4H5+
53.9973	1	C2NO+
54.0338	3	C3H4N+
55.0178	3	C3H3O+
55.0543	1	C4H7+
56.0131	1	C2H2NO+
56.0493	2	C3H6N+
64.0181	2	C4H2N+
65.0385	356	C5H5+
66.0463	33	C5H6+
67.0178	1	C4H3O+
67.0416	16	C4H5N+
68.0494	4	C4H6N+
70.0286	1	C3H4NO+
74.0963	1	C4H12N+
76.0181	4	C5H2N+
78.0338	143	C5H4N+
79.0416	2	C5H5N+
80.0494	131	C5H6N+
81.0448	1	C4H5N2+
81.0572	8	C5H7N+
82.0287	29	C4H4NO+
83.0491	1	C5H7O+
89.0383	1	C2H4FN3+
91.0288	1	C5H3N2+
91.0415	1	CH4FN4+
92.0494	464	C6H6N+
93.0573	999	C6H7N+
94.0286	11	FH3N4O+
96.0443	21	C5H6NO+
104.0495	6	C7H6N+
105.0447	112	C6H5N2+
106.0287	28	C6H4NO+
106.0525	32	C6H6N2+
107.0604	3	C6H7N2+
108.0443	104	C6H6NO+
109.0522	33	C6H7NO+
110.06	797	C6H8NO+
112.0642	1	C2H9FN2O2+
117.0572	21	C8H7N+
118.0525	5	C7H6N2+
119.0239	13	C6H3N2O+
119.0603	38	C7H7N2+
120.0442	2	C2H5FN4O+
121.0395	96	C6H5N2O+
122.0598	1	C2H7FN4O+
124.0757	23	C7H10NO+
126.0549	81	C6H8NO2+
128.0492	6	C4H5FN4+
129.0447	2	C8H5N2+
130.0527	3	C8H6N2+
130.0652	19	C9H8N+
131.0604	15	C8H7N2+
131.0728	4	C4H8FN4+
132.0681	7	C8H8N2+
133.0396	250	C7H5N2O+
134.0474	149	C7H6N2O+
135.0553	13	C7H7N2O+
137.0345	72	C6H5N2O2+
140.0495	7	C10H6N+
140.0706	5	C7H10NO2+
141.0571	17	C5H6FN4+
142.0525	5	C9H6N2+
143.0603	10	C9H7N2+
143.0731	2	C10H9N+
144.0447	1	C9H6NO+
144.0557	2	C8H6N3+
144.0682	2	C9H8N2+
145.0397	9	C8H5N2O+
145.0759	25	C9H9N2+
146.0473	1	C8H6N2O+
146.0599	4	C4H7FN4O+
147.0552	165	C8H7N2O+
151.0501	974	C7H7N2O2+
153.0542	2	C6H7N3O2+
155.0602	92	C10H7N2+
156.0681	77	C10H8N2+
157.0759	58	C10H9N2+
158.0474	29	C9H6N2O+
158.0593	7	C8H6N4+
158.0712	7	C9H8N3+
158.0835	11	C10H10N2+
159.0552	29	C9H7N2O+
160.0505	22	C8H6N3O+
160.0628	4	C9H8N2O+
161.0345	7	C8H5N2O2+
162.0711	1	C5H8F2N4+
163.0502	1	C8H7N2O2+
165.0658	67	C8H9N2O2+
166.0524	2	C11H6N2+
167.0603	10	C11H7N2+
168.0681	70	C11H8N2+
169.0524	2	C11H7NO+
169.0758	9	C11H9N2+
170.0711	4	C10H8N3+
171.0552	22	C10H7N2O+
171.0789	11	C10H9N3+
172.0502	7	C9H6N3O+
172.0631	5	C10H8N2O+
172.0868	75	C10H10N3+
173.0586	7	C9H7N3O+
173.0708	35	C10H9N2O+
175.0508	2	C9H7N2O2+
181.063	9	C11H7N3+
182.0476	2	C11H6N2O+
182.0711	24	C11H8N3+
183.0553	95	C11H7N2O+
184.0632	15	C11H8N2O+
184.087	1	C11H10N3+
185.0584	21	C10H7N3O+
185.0709	34	C11H9N2O+
186.0661	10	C10H8N3O+
186.0785	3	C11H10N2O+
187.0502	4	C10H7N2O2+
187.0593	2	C9H8F3N+
198.0658	10	C11H8N3O+
199.0504	1	C11H7N2O2+
199.074	16	C11H9N3O+
200.0817	93	C11H10N3O+
201.0657	6	C11H9N2O2+
209.0582	16	C12H7N3O+
210.0661	168	C12H8N3O+
211.05	43	C12H7N2O2+
211.0739	12	C12H9N3O+
226.0607	3	C12H8N3O2+
227.069	4	C12H9N3O2+
228.0766	354	C12H10N3O2+
