Mass spectrum: Demeton-S-methylsulphon; LC-ESI-QFT; MS2; CE: 45; R=17500; [M+H]+
Name: Demeton-S-methylsulphon
Name: 1-dimethoxyphosphorylsulfanyl-2-ethylsulfonylethane
Formula: C6H15O5PS2
Exact mass: 262.0099
SMILES: CCS(=O)(=O)CCSP(=O)(OC)OC
InChI: InChI=1S/C6H15O5PS2/c1-4-14(8,9)6-5-13-12(7,10-2)11-3/h4-6H2,1-3H3
Instrument: Q Exactive Orbitrap (Thermo Scientific)
Instrument type: LC-ESI-QFT
Ms type: MS2
Ion mode: POSITIVE
Ionization: ESI
Fragmentation mode: HCD
Collision energy: 45
Resolution: 17500
Column name: Acquity BEH C18 1.7um, 2.1x150mm (Waters)
Retention time: 11.013 min
Base peak: 79.0212
Precursor m/z: 263.0171
Precursor type: [M+H]+
Precursor intensity: 4502095.5
m/z	relative intensity	assigned
58.995	9	C2H3S+
59.0492	2	C3H7O+
61.0106	30	C2H5S+
74.9899	8	C2H3OS+
75.0263	6	C3H7S+
77.0055	13	C2H5OS+
78.9943	23	CH4O2P+
80.9463	3	HOS2+
90.967	9	C2H3S2+
93.0005	62	C2H5O2S+
108.9776	38	C2H5OS2+
109.0049	3	C2H6O3P+
110.9661	1	CH4O2PS+
112.9998	4	CH6O4P+
114.9709	5	H3O5S+
121.0318	245	C4H9O2S+
124.9821	52	C2H6O2PS+
127.0155	999	C2H8O4P+
128.9769	62	CH6O3PS+
136.982	7	C3H6O2PS+
137.0089	23	C4H9OS2+
138.9613	2	C2H4O3PS+
140.9768	4	C2H6O3PS+
141.031	3	C3H10O4P+
142.9927	778	C2H8O3PS+
152.9771	22	C3H6O3PS+
154.9927	20	C3H8O3PS+
156.9543	5	C2H6O2PS2+
157.0085	14	C3H10O3PS+
169.0083	707	C4H10O3PS+
170.9875	15	C3H8O4PS+
174.9743	18	C2H7O5S2+
184.9491	21	C3H6O3PS2+
202.9592	4	C3H8O4PS2+
230.9912	15	C5H12O4PS2+
263.0172	4	C6H16O5PS2+
