Mass spectrum: 4`-Fluoro-4-aminodiphenyl; LC-ESI-QFT; MS2; CE: 15; R=17500; [M+H]+
Name: 4'-Fluoro-4-aminodiphenyl
Name: 4-Amino-4'-fluorobiphenyl
Name: 4-(4-fluorophenyl)aniline
Formula: C12H10FN
Exact mass: 187.0797
SMILES: NC1=CC=C(C=C1)C1=CC=C(F)C=C1
InChI: InChI=1S/C12H10FN/c13-11-5-1-9(2-6-11)10-3-7-12(14)8-4-10/h1-8H,14H2
Instrument: Q Exactive Orbitrap (Thermo Scientific)
Instrument type: LC-ESI-QFT
Ms type: MS2
Ion mode: POSITIVE
Ionization: ESI
Fragmentation mode: HCD
Collision energy: 15
Resolution: 17500
Column name: Acquity BEH C18 1.7um, 2.1x150mm (Waters)
Retention time: 14.742 min
Base peak: 79.0211
Precursor m/z: 188.087
Precursor type: [M+H]+
Precursor intensity: 1171555.5
m/z	relative intensity	assigned
91.0543	286	C7H7+
168.0809	999	C12H10N+
171.0604	111	C12H8F+
