Mass spectrum: Fluometuron; LC-ESI-QFT; MS2; CE: 60; R=17500; [M-H]-
Name: Fluometuron
Name: 1,1-dimethyl-3-[3-(trifluoromethyl)phenyl]urea
Formula: C10H11F3N2O
Exact mass: 232.0823
SMILES: CN(C)C(=O)NC1=CC=CC(=C1)C(F)(F)F
InChI: InChI=1S/C10H11F3N2O/c1-15(2)9(16)14-8-5-3-4-7(6-8)10(11,12)13/h3-6H,1-2H3,(H,14,16)
Instrument: Q Exactive Orbitrap (Thermo Scientific)
Instrument type: LC-ESI-QFT
Ms type: MS2
Ion mode: NEGATIVE
Ionization: ESI
Fragmentation mode: HCD
Collision energy: 60
Resolution: 17500
Column name: Acquity BEH C18 1.7um, 2.1x150mm (Waters)
Retention time: 16.063 min
Base peak: 221.0818
Precursor m/z: 231.0751
Precursor type: [M-H]-
Precursor intensity: 18619160.61816
m/z	relative intensity	assigned
68.9958	1	CF3-
98.0036	34	C7N-
118.0098	28	C7HFN-
134.0412	5	C8H5FN-
136.0201	2	C7H3FNO-
138.016	33	C7H2F2N-
142.0473	17	C7H6F2N-
143.0116	3	C7H2F3-
143.0616	1	C9H7N2-
145.0271	5	C7H4F3-
146.0048	204	C8HFNO-
154.0475	17	C8H6F2N-
157.0411	2	C9H5N2O-
158.0222	5	C7H3F3N-
159.0295	1	C7H4F3N-
160.038	221	C7H5F3N-
166.011	396	C8H2F2NO-
168.0266	4	C8H4F2NO-
171.0564	1	C10H7N2O-
186.0172	999	C8H3F3NO-
188.033	11	C8H5F3NO-
191.0629	1	C10H8FN2O-
211.0692	1	C10H9F2N2O-
215.0435	6	C9H6F3N2O-
231.075	67	C10H10F3N2O-
