Mass spectrum: Raloxifene; LC-ESI-QFT; MS2; CE: 90; R=17500; [M-H]-
Name: Raloxifene
Name: [6-hydroxy-2-(4-hydroxyphenyl)-1-benzothiophen-3-yl]-[4-(2-piperidin-1-ylethoxy)phenyl]methanone
Formula: C28H27NO4S
Exact mass: 473.1661
SMILES: OC1=CC=C(C=C1)C1=C(C(=O)C2=CC=C(OCCN3CCCCC3)C=C2)C2=CC=C(O)C=C2S1
InChI: InChI=1S/C28H27NO4S/c30-21-8-4-20(5-9-21)28-26(24-13-10-22(31)18-25(24)34-28)27(32)19-6-11-23(12-7-19)33-17-16-29-14-2-1-3-15-29/h4-13,18,30-31H,1-3,14-17H2
Instrument: Q Exactive Orbitrap (Thermo Scientific)
Instrument type: LC-ESI-QFT
Ms type: MS2
Ion mode: NEGATIVE
Ionization: ESI
Fragmentation mode: HCD
Collision energy: 90
Resolution: 17500
Column name: Acquity BEH C18 1.7um, 2.1x150mm (Waters)
Retention time: 14.256 min
Base peak: 472.1585
Precursor m/z: 472.1588
Precursor type: [M-H]-
Precursor intensity: 9389745.404297
m/z	relative intensity	assigned
56.9804	121	C2HS-
91.019	8	C6H3O-
93.0346	237	C6H5O-
117.0345	16	C8H5O-
147.9988	74	C8H4OS-
149.0059	7	C8H5OS-
167.0499	12	C12H7O-
179.0503	15	C13H7O-
180.0581	169	C13H8O-
181.0659	58	C13H9O-
183.0273	357	C12H7S-
184.0307	18	C15H4-
195.0451	24	C13H7O2-
199.0223	11	C12H7OS-
201.0375	10	C12H9OS-
207.0449	10	C14H7O2-
208.0529	21	C14H8O2-
209.0604	11	C14H9O2-
210.0145	206	C13H6OS-
211.0224	743	C13H7OS-
212.0301	648	C13H8OS-
213.0379	7	C13H9OS-
214.0089	9	C12H6O2S-
223.0222	8	C14H7OS-
225.0393	5	C14H9OS-
238.0094	416	C14H6O2S-
239.0172	999	C14H7O2S-
240.0251	261	C14H8O2S-
241.0328	65	C14H9O2S-
243.0819	11	C18H11O-
261.0375	7	C17H9OS-
266.0044	90	C15H6O3S-
267.0124	22	C15H7O3S-
269.0613	15	C19H9O2-
270.0688	26	C19H10O2-
271.0753	7	C19H11O2-
275.0542	19	C18H11OS-
286.0462	53	C19H10OS-
287.0538	24	C19H11OS-
288.0253	21	C18H8O2S-
289.0325	19	C18H9O2S-
297.0559	13	C20H9O3-
298.0635	24	C20H10O3-
301.0328	29	C19H9O2S-
302.0403	105	C19H10O2S-
303.0483	54	C19H11O2S-
304.0205	12	C18H8O3S-
313.0331	14	C20H9O2S-
314.0406	32	C20H10O2S-
315.0486	24	C20H11O2S-
330.0357	51	C20H10O3S-
331.0438	21	C20H11O3S-
342.0364	9	C21H10O3S-
358.0297	10	C27H4NO-
