Mass spectrum: Dicrotophos; LC-ESI-QFT; MS2; CE: 75; R=17500; [M+H]+
Name: Dicrotophos
Name: [(E)-4-(dimethylamino)-4-oxobut-2-en-2-yl] dimethyl phosphate
Formula: C8H16NO5P
Exact mass: 237.0766
SMILES: COP(=O)(OC)O\C(C)=C\C(=O)N(C)C
InChI: InChI=1S/C8H16NO5P/c1-7(6-8(10)9(2)3)14-15(11,12-4)13-5/h6H,1-5H3/b7-6+
Instrument: Q Exactive Orbitrap (Thermo Scientific)
Instrument type: LC-ESI-QFT
Ms type: MS2
Ion mode: POSITIVE
Ionization: ESI
Fragmentation mode: HCD
Collision energy: 75
Resolution: 17500
Column name: Acquity BEH C18 1.7um, 2.1x150mm (Waters)
Retention time: 11.817 min
Base peak: 79.0211
Precursor m/z: 238.0839
Precursor type: [M+H]+
Precursor intensity: 13713481.6875
m/z	relative intensity	assigned
53.0023	1	C3HO+
53.0387	2	C4H5+
54.0339	1	C3H4N+
55.0178	7	C3H3O+
55.0417	14	C3H5N+
55.0543	3	C4H7+
56.0131	7	C2H2NO+
56.0495	2	C3H6N+
58.0287	7	C2H4NO+
58.0651	9	C3H8N+
67.0178	196	C4H3O+
68.0495	1	C4H6N+
69.0334	7	C4H5O+
70.0651	77	C4H8N+
72.0443	999	C3H6NO+
78.9943	6	CH4O2P+
81.0335	3	C5H5O+
84.0808	17	C5H10N+
94.0652	1	C6H8N+
97.0522	1	C5H7NO+
110.06	3	C6H8NO+
112.0757	60	C6H10NO+
112.9998	35	CH6O4P+
127.0155	417	C2H8O4P+
