Mass spectrum: 3-Amino-9-ethylcarbazole; LC-ESI-QFT; MS2; CE: 45; R=17500; [M+H]+
Name: 3-Amino-9-ethylcarbazole
Name: 9-ethylcarbazol-3-amine
Formula: C14H14N2
Exact mass: 210.1157
SMILES: CCN1C2=C(C=CC=C2)C2=C1C=CC(N)=C2
InChI: InChI=1S/C14H14N2/c1-2-16-13-6-4-3-5-11(13)12-9-10(15)7-8-14(12)16/h3-9H,2,15H2,1H3
Instrument: Q Exactive Orbitrap (Thermo Scientific)
Instrument type: LC-ESI-QFT
Ms type: MS2
Ion mode: POSITIVE
Ionization: ESI
Fragmentation mode: HCD
Collision energy: 45
Resolution: 17500
Column name: Acquity BEH C18 1.7um, 2.1x150mm (Waters)
Retention time: 14.120 min
Base peak: 79.0212
Precursor m/z: 211.123
Precursor type: [M+H]+
Precursor intensity: 6015283.59375
m/z	relative intensity	assigned
137.0116	2	C9HN2+
145.0886	3	C10H11N+
166.0652	27	C12H8N+
167.0729	2	C12H9N+
168.0805	1	C12H10N+
170.0965	2	C12H12N+
179.0731	9	C13H9N+
180.0809	11	C13H10N+
181.0761	6	C12H9N2+
182.0839	999	C12H10N2+
183.0917	97	C12H11N2+
184.112	3	C13H14N+
194.0965	32	C14H12N+
195.0919	11	C13H11N2+
195.1043	32	C14H13N+
209.1074	6	C14H13N2+
210.1153	59	C14H14N2+
211.1229	989	C14H15N2+
