Mass spectrum: GSK163929B; LC-ESI-QFT; MS2; CE: 60; R=17500; [M+H]+
Name: GSK163929B
Name: 4-chloro-2-fluoro-5-[4-(3-fluorophenyl)-4-[2-[3-(2-methylbenzimidazol-1-yl)-8-azabicyclo[3.2.1]octan-8-yl]ethyl]piperidine-1-carbonyl]-N-methylbenzenesulfonamide
Formula: C36H40ClF2N5O3S
Exact mass: 695.2508
SMILES: CNS(=O)(=O)C1=C(F)C=C(Cl)C(=C1)C(=O)N1CCC(CCN2C3CCC2CC(C3)N2C(C)=NC3=C2C=CC=C3)(CC1)C1=CC(F)=CC=C1
InChI: InChI=1S/C36H40ClF2N5O3S/c1-23-41-32-8-3-4-9-33(32)44(23)28-19-26-10-11-27(20-28)43(26)17-14-36(24-6-5-7-25(38)18-24)12-15-42(16-13-36)35(45)29-21-34(48(46,47)40-2)31(39)22-30(29)37/h3-9,18,21-22,26-28,40H,10-17,19-20H2,1-2H3
Instrument: Q Exactive Orbitrap (Thermo Scientific)
Instrument type: LC-ESI-QFT
Ms type: MS2
Ion mode: POSITIVE
Ionization: ESI
Fragmentation mode: HCD
Collision energy: 60
Resolution: 17500
Column name: Acquity BEH C18 1.7um, 2.1x150mm (Waters)
Retention time: 13.147 min
Base peak: 79.0211
Precursor m/z: 696.2581
Precursor type: [M+H]+
Precursor intensity: 7566258.25
m/z	relative intensity	assigned
53.0022	1	C3HO+
53.0386	5	C4H5+
54.0339	2	C3H4N+
55.0417	1	C3H5N+
55.0542	6	C4H7+
56.0495	10	C3H6N+
58.0651	13	C3H8N+
65.0386	6	C5H5+
67.0542	56	C5H7+
68.0494	18	C4H6N+
69.0573	5	C4H7N+
69.0698	6	C5H9+
70.0651	105	C4H8N+
77.0385	1	C6H5+
79.0542	5	C6H7+
80.0495	8	C5H6N+
81.0572	4	C5H7N+
81.0699	5	C6H9+
82.0651	39	C5H8N+
82.0779	2	C6H10+
83.0729	18	C5H9N+
84.0807	5	C5H10N+
84.984	1	C4H2Cl+
91.0542	37	C7H7+
92.0495	3	C6H6N+
93.0699	27	C7H9+
93.9957	3	CH4NO2S+
94.0651	12	C6H8N+
95.0492	15	C6H7O+
95.073	4	C6H9N+
95.0855	28	C7H11+
96.0808	41	C6H10N+
97.0886	3	C6H11N+
98.0964	2	C6H12N+
102.0337	1	C7H4N+
105.0448	5	C6H5N2+
108.0808	17	C7H10N+
109.0449	23	CH14ClOS+
109.0887	14	C7H11N+
110.0965	32	C7H12N+
111.1042	4	C7H13N+
116.9903	3	C5H3ClF+
120.0445	2	C7H6NO+
122.0964	16	C8H12N+
124.1121	12	C8H14N+
125.9867	7	C6H3ClO+
127.9823	1	C6H2ClF+
128.9905	1	C6H3ClF+
130.0401	2	C7H4N3+
133.0448	4	C9H6F+
133.0761	18	C8H9N2+
136.1121	5	C9H14N+
137.12	1	C9H15N+
137.9867	17	C7H3ClO+
138.0105	18	C7H5ClN+
138.1278	38	C9H16N+
138.9945	11	C7H4ClO+
139.0056	1	CH3ClFN5+
140.9738	1	C6H2ClO2+
141.0698	2	C11H9+
143.0059	1	C7H5ClF+
144.985	2	C6H3ClFO+
145.0759	1	C9H9N2+
146.0526	32	C10H7F+
147.0604	5	C10H8F+
149.0761	12	C4H18ClOS+
150.1277	12	C10H16N+
153.9815	1	C7H3ClO2+
154.0055	1	C7H5ClNO+
155.9779	6	C8N2S+
156.9963	25	C6H3ClFN2+
158.0167	1	C7H6ClFN+
159.0604	5	C11H8F+
159.0918	2	C10H11N2+
161.0761	49	C11H10F+
166.0055	20	C8H5ClNO+
169.9765	58	C7H3ClO3+
171.0081	1	C7H6ClNO2+
172.9801	78	C7H3ClFO2+
176.0869	4	ClFH18N4OS+
182	1	C3H4ClFN4O2+
183.996	2	C8H4ClFNO+
186.0118	11	C8H6ClFNO+
190.1025	1	CH20ClFN4OS+
190.9367	1	C6HClFO2S+
202.9565	15	C7H4ClO3S+
206.1343	4	C2H22F2N3O3S+
220.947	146	C7H3ClFO3S+
229.9674	132	C8H5ClNO3S+
247.9577	1	C3H3ClF2N4O3S+
249.9735	999	C8H6ClFNO3S+
427.0687	1	C19H18ClF2N2O3S+
