Mass spectrum: 4-Hydroxyacetophenone; LC-ESI-QFT; MS2; CE: 90; R=17500; [M-H]-
Name: 4-Hydroxyacetophenone
Name: 4'-Hydroxyacetophenone
Name: 1-(4-hydroxyphenyl)ethanone
Formula: C8H8O2
Exact mass: 136.0524
SMILES: CC(=O)C1=CC=C(O)C=C1
InChI: InChI=1S/C8H8O2/c1-6(9)7-2-4-8(10)5-3-7/h2-5,10H,1H3
Instrument: Q Exactive Orbitrap (Thermo Scientific)
Instrument type: LC-ESI-QFT
Ms type: MS2
Ion mode: NEGATIVE
Ionization: ESI
Fragmentation mode: HCD
Collision energy: 90
Resolution: 17500
Column name: Acquity BEH C18 1.7um, 2.1x150mm (Waters)
Retention time: 12.451 min
Base peak: 135.0451
Precursor m/z: 135.0452
Precursor type: [M-H]-
Precursor intensity: 27740004.70117
m/z	relative intensity	assigned
53.0033	2	C3HO-
65.0033	2	C4HO-
65.0397	39	C5H5-
67.019	4	C4H3O-
68.9983	13	C3HO2-
69.0346	13	C4H5O-
70.006	2	C3H2O2-
71.0138	9	C3H3O2-
79.019	5	C5H3O-
79.9905	7	C4O2-
80.9982	5	C4HO2-
82.0061	19	C4H2O2-
92.0268	85	C6H4O-
93.0346	999	C6H5O-
95.0139	490	C5H3O2-
97.0295	8	C5H5O2-
106.006	26	C6H2O2-
107.0139	4	C6H3O2-
108.0217	566	C6H4O2-
117.0346	21	C8H5O-
120.0217	6	C7H4O2-
135.0452	95	C8H7O2-
