Mass spectrum: Pimozide; LC-ESI-QFT; MS2; CE: 60; R=17500; [M+H]+
Name: Pimozide
Name: 3-[1-[4,4-bis(4-fluorophenyl)butyl]piperidin-4-yl]-1H-benzimidazol-2-one
Formula: C28H29F2N3O
Exact mass: 461.2279
SMILES: FC1=CC=C(C=C1)C(CCCN1CCC(CC1)N1C(=O)NC2=C1C=CC=C2)C1=CC=C(F)C=C1
InChI: InChI=1S/C28H29F2N3O/c29-22-11-7-20(8-12-22)25(21-9-13-23(30)14-10-21)4-3-17-32-18-15-24(16-19-32)33-27-6-2-1-5-26(27)31-28(33)34/h1-2,5-14,24-25H,3-4,15-19H2,(H,31,34)
Instrument: Q Exactive Orbitrap (Thermo Scientific)
Instrument type: LC-ESI-QFT
Ms type: MS2
Ion mode: POSITIVE
Ionization: ESI
Fragmentation mode: HCD
Collision energy: 60
Resolution: 17500
Column name: Acquity BEH C18 1.7um, 2.1x150mm (Waters)
Retention time: 15.883 min
Base peak: 79.0212
Precursor m/z: 462.2351
Precursor type: [M+H]+
Precursor intensity: 18982777
m/z	relative intensity	assigned
53.0022	1	C3HO+
53.0385	3	C4H5+
55.0542	77	C4H7+
56.0495	27	C3H6N+
57.0699	1	C4H9+
58.0651	1	C3H8N+
65.0385	5	C5H5+
67.0542	43	C5H7+
68.0494	3	C4H6N+
69.0572	2	C4H7N+
69.0698	9	C5H9+
70.0651	90	C4H8N+
80.0495	3	C5H6N+
81.0573	2	C5H7N+
82.0651	30	C5H8N+
83.0291	9	C5H4F+
83.0729	14	C5H9N+
84.0807	68	C5H10N+
86.0963	1	C5H12N+
89.0387	1	C7H5+
92.0494	1	C6H6N+
94.065	1	C6H8N+
95.073	2	C6H9N+
96.0807	38	C6H10N+
97.0886	8	C6H11N+
98.0964	281	C6H12N+
103.0542	30	C8H7+
107.0603	5	C6H7N2+
108.0809	1	C7H10N+
109.0448	999	C7H6F+
110.0963	49	C7H12N+
111.1042	1	C7H13N+
112.112	7	C7H14N+
115.0543	2	C9H7+
117.0698	1	C4H8FN3+
118.0649	2	C8H8N+
119.0604	5	C7H7N2+
121.0447	36	C8H6F+
122.0963	8	C8H12N+
123.0604	60	C8H8F+
124.112	41	C8H14N+
125.1198	2	C8H15N+
126.1278	1	C8H16N+
128.062	1	C10H8+
130.0651	29	C9H8N+
131.0729	19	C9H9N+
133.0448	3	C9H6F+
134.0471	1	C7H6N2O+
134.0526	4	C9H7F+
135.0552	50	C7H7N2O+
135.0604	39	C9H8F+
145.065	19	C10H9O+
145.0759	32	C9H9N2+
146.0526	17	C10H7F+
146.0596	1	C9H8NO+
147.0604	353	C10H8F+
149.076	174	C10H10F+
155.0602	27	C10H7N2+
158.0474	3	C9H6N2O+
161.0709	1	C9H9N2O+
171.0549	2	C10H7N2O+
172.063	2	C10H8N2O+
173.0708	358	C10H9N2O+
176.0619	1	C9H7FN3+
177.0697	10	C9H8FN3+
178.1025	2	C11H13FN+
183.0603	43	C8H7F2N3+
186.0786	1	C11H10N2O+
187.0865	28	C11H11N2O+
192.1184	1	C12H15FN+
196.0682	4	C14H9F+
197.076	26	C14H10F+
201.051	10	C13H7F2+
201.1021	45	C12H13N2O+
202.0589	6	C13H8F2+
203.0665	137	C13H9F2+
211.0668	1	C13H8FN2+
214.0588	2	C14H8F2+
215.0668	4	C14H9F2+
217.0822	24	C14H11F2+
228.0745	1	C15H10F2+
230.1284	7	C13H16N3O+
232.1493	2	C15H19FN+
243.0978	3	C16H13F2+
274.1395	2	C17H18F2N+
326.1714	28	C21H22F2N+
328.187	17	C21H24F2N+
