Mass spectrum: Todralazine; LC-ESI-QFT; MS2; CE: 90; R=17500; [M+H]+
Name: Todralazine
Name: ethyl N-(phthalazin-1-ylamino)carbamate
Formula: C11H12N4O2
Exact mass: 232.0960
SMILES: CCOC(=O)NNC1=NN=CC2=CC=CC=C12
InChI: InChI=1S/C11H12N4O2/c1-2-17-11(16)15-14-10-9-6-4-3-5-8(9)7-12-13-10/h3-7H,2H2,1H3,(H,13,14)(H,15,16)
Instrument: Q Exactive Orbitrap (Thermo Scientific)
Instrument type: LC-ESI-QFT
Ms type: MS2
Ion mode: POSITIVE
Ionization: ESI
Fragmentation mode: HCD
Collision energy: 90
Resolution: 17500
Column name: Acquity BEH C18 1.7um, 2.1x150mm (Waters)
Retention time: 9.110 min
Base peak: 79.0212
Precursor m/z: 233.1033
Precursor type: [M+H]+
Precursor intensity: 23327182.53125
m/z	relative intensity	assigned
52.0308	1	C4H4+
53.0386	8	C4H5+
54.0339	1	C3H4N+
54.0464	3	C4H6+
55.0417	1	C3H5N+
62.0151	1	C5H2+
62.0236	1	CH4NO2+
63.0229	16	C5H3+
64.0307	8	C5H4+
65.0259	1	C4H3N+
65.0386	1	C5H5+
66.0464	26	C5H6+
68.0256	1	C4H4O+
76.0307	2	C6H4+
77.0384	3	C6H5+
78.0464	1	C6H6+
79.0416	50	C5H5N+
79.0543	3	C6H7+
80.0495	2	C5H6N+
81.0334	4	C5H5O+
88.0309	1	C7H4+
89.0386	999	C7H5+
90.0338	8	C6H4N+
90.0464	75	C7H6+
91.0417	15	C6H5N+
91.0542	1	C7H7+
92.0256	12	C6H4O+
92.0369	4	C5H4N2+
94.0413	5	C6H6O+
95.0365	8	C5H5NO+
95.0491	21	C6H7O+
96.0443	1	C5H6NO+
97.0522	5	C5H7NO+
103.0416	59	C7H5N+
104.0494	138	C7H6N+
105.0448	8	C6H5N2+
105.0572	11	C7H7N+
108.0444	2	C6H6NO+
110.0363	2	C6H6O2+
111.0315	4	C5H5NO2+
114.0339	2	C8H4N+
115.0416	4	C8H5N+
116.0495	45	C8H6N+
117.0573	294	C8H7N+
118.0525	13	C7H6N2+
119.0604	1	C7H7N2+
120.0207	1	C7H4O2+
120.0443	1	C7H6NO+
121.0285	2	C7H5O2+
129.0447	13	C8H5N2+
130.0526	76	C8H6N2+
131.0604	107	C8H7N2+
132.0682	93	C8H8N2+
133.0391	1	C7H5N2O+
134.0599	7	C8H8NO+
135.0314	4	C7H5NO2+
135.0553	2	C7H7N2O+
144.0556	43	C8H6N3+
145.0634	207	C8H7N3+
147.0551	1	C8H7N2O+
148.0505	1	C7H6N3O+
159.0665	50	C8H7N4+
160.0745	2	C8H8N4+
161.0821	27	C8H9N4+
187.0614	5	C9H7N4O+
