Mass spectrum: Finasteride; LC-ESI-QFT; MS2; CE: 75; R=17500; [M+H]+
Name: Finasteride
Name: (1S,3aS,3bS,5aR,9aR,9bS,11aS)-N-tert-butyl-9a,11a-dimethyl-7-oxo-1,2,3,3a,3b,4,5,5a,6,9b,10,11-dodecahydroindeno[5,4-f]quinoline-1-carboxamide
Formula: C23H36N2O2
Exact mass: 372.2777
SMILES: CC(C)(C)NC(=O)[C@H]1CC[C@H]2[C@@H]3CC[C@H]4NC(=O)C=C[C@]4(C)[C@H]3CC[C@]12C
InChI: InChI=1S/C23H36N2O2/c1-21(2,3)25-20(27)17-8-7-15-14-6-9-18-23(5,13-11-19(26)24-18)16(14)10-12-22(15,17)4/h11,13-18H,6-10,12H2,1-5H3,(H,24,26)(H,25,27)/t14-,15-,16-,17+,18+,22-,23+/m0/s1
Instrument: Q Exactive Orbitrap (Thermo Scientific)
Instrument type: LC-ESI-QFT
Ms type: MS2
Ion mode: POSITIVE
Ionization: ESI
Fragmentation mode: HCD
Collision energy: 75
Resolution: 17500
Column name: Acquity BEH C18 1.7um, 2.1x150mm (Waters)
Retention time: 17.671 min
Base peak: 79.0212
Precursor m/z: 373.285
Precursor type: [M+H]+
Precursor intensity: 15611282.5
m/z	relative intensity	assigned
53.0022	44	C3HO+
53.0385	15	C4H5+
53.9974	6	C2NO+
55.0179	44	C3H3O+
55.0542	79	C4H7+
56.0495	28	C3H6N+
57.0699	999	C4H9+
58.0651	5	C3H8N+
65.0385	9	C5H5+
67.0542	225	C5H7+
68.0494	10	C4H6N+
69.0334	700	C4H5O+
70.0287	2	C3H4NO+
70.0651	40	C4H8N+
71.049	6	C4H7O+
72.0443	123	C3H6NO+
72.0808	7	C4H10N+
74.0964	4	C4H12N+
77.0385	5	C6H5+
79.0542	199	C6H7+
80.0494	8	C5H6N+
81.0699	318	C6H9+
82.0651	14	C5H8N+
83.0491	6	C5H7O+
83.0855	28	C6H11+
84.0444	4	C4H6NO+
84.0808	5	C5H10N+
85.0646	1	C5H9O+
86.06	40	C4H8NO+
91.0542	209	C7H7+
93.0699	349	C7H9+
94.0412	2	C6H6O+
94.0651	10	C6H8N+
95.0492	32	C6H7O+
95.0855	577	C7H11+
96.0444	82	C5H6NO+
96.0807	17	C6H10N+
97.0647	5	C6H9O+
97.1013	6	C7H13+
98.06	59	C5H8NO+
100.076	3	C5H10NO+
103.0542	5	C8H7+
104.0495	2	C7H6N+
105.0699	251	C8H9+
106.0651	7	C7H8N+
107.0855	204	C8H11+
108.0443	5	C6H6NO+
108.0807	25	C7H10N+
109.0522	21	C6H7NO+
109.0648	17	C7H9O+
109.1012	61	C8H13+
110.06	69	C6H8NO+
110.0964	17	C7H12N+
111.0804	3	C7H11O+
112.0757	3	C6H10NO+
114.0911	1	C6H12NO+
115.0541	8	C9H7+
116.062	3	C9H8+
117.0698	47	C9H9+
118.0778	1	C9H10+
119.0855	189	C9H11+
120.0807	10	C8H10N+
121.0648	25	C8H9O+
121.1011	84	C9H13+
122.06	52	C7H8NO+
122.0963	9	C8H12N+
123.0677	5	C7H9NO+
123.0806	6	C8H11O+
123.1168	4	C9H15+
124.0757	31	C7H10NO+
124.1121	2	C8H14N+
126.0914	13	C7H12NO+
128.0619	14	C10H8+
129.0698	39	C10H9+
130.0778	7	C10H10+
131.0855	119	C10H11+
132.0806	5	C9H10N+
132.0931	1	C10H12+
133.0648	8	C9H9O+
133.1011	158	C10H13+
134.0599	2	C8H8NO+
134.0965	7	C9H12N+
135.0803	6	C9H11O+
135.1168	36	C10H15+
136.0758	13	C8H10NO+
136.1121	4	C9H14N+
137.0963	1	C9H13O+
138.0914	21	C8H12NO+
140.1069	6	C8H14NO+
141.0699	11	C11H9+
142.0778	11	C11H10+
143.0855	75	C11H11+
144.0807	2	C10H10N+
144.0932	4	C11H12+
145.1012	150	C11H13+
146.0725	1	C10H10O+
146.0963	4	C10H12N+
146.1087	3	C11H14+
147.0805	15	C10H11O+
147.1167	117	C11H15+
148.0756	4	C9H10NO+
148.1119	3	C10H14N+
149.0961	7	C10H13O+
149.1325	18	C11H17+
150.0913	10	C9H12NO+
152.1069	5	C9H14NO+
153.0697	3	C12H9+
154.0778	2	C12H10+
155.0855	39	C12H11+
156.0934	6	C12H12+
157.1011	47	C12H13+
158.0964	2	C11H12N+
158.1089	2	C12H14+
159.0803	10	C11H11O+
159.1168	60	C12H15+
160.112	7	C11H14N+
161.0961	20	C11H13O+
161.1324	32	C12H17+
162.091	2	C10H12NO+
162.1277	2	C11H16N+
163.1115	4	C11H15O+
163.1477	1	C12H19+
164.107	7	C10H14NO+
165.0698	5	C13H9+
166.0778	3	C13H10+
166.1228	2	C10H16NO+
167.0857	9	C13H11+
168.0931	4	C13H12+
169.1011	21	C13H13+
170.1087	6	C13H14+
171.0799	3	C12H11O+
171.1167	29	C13H15+
172.1245	1	C13H16+
173.0961	10	C12H13O+
173.1323	43	C13H17+
174.1273	2	C12H16N+
175.1116	14	C12H15O+
175.1481	45	C13H19+
176.107	5	C11H14NO+
178.1227	3	C11H16NO+
178.1589	1	C12H20N+
179.0857	2	C14H11+
180.093	3	C14H12+
181.101	14	C14H13+
182.1088	5	C14H14+
183.1168	14	C14H15+
185.0959	3	C13H13O+
185.1325	44	C14H17+
187.1481	97	C14H19+
189.1637	20	C14H21+
190.1228	2	C12H16NO+
193.1017	3	C15H13+
194.1087	2	C15H14+
194.1536	3	C12H20NO+
195.1168	16	C15H15+
196.1244	2	C15H16+
197.1324	27	C15H17+
198.1404	2	C15H18+
199.1113	5	C14H15O+
199.1479	4	C15H19+
201.127	3	C14H17O+
201.1632	3	C15H21+
203.1426	4	C14H19O+
204.1744	5	C14H22N+
206.1896	1	C14H24N+
207.1169	3	C16H15+
209.132	4	C16H17+
211.1478	6	C16H19+
213.1276	3	C15H17O+
213.1635	8	C16H21+
214.1588	1	C15H20N+
215.1429	25	C15H19O+
215.1796	2	C16H23+
220.1696	10	C14H22NO+
222.1405	2	C17H18+
223.1475	2	C17H19+
227.1791	5	C17H23+
232.1691	6	C15H22NO+
237.1644	6	C18H21+
240.1747	5	C17H22N+
246.1851	1	C16H24NO+
249.1963	12	C15H25N2O+
254.1901	3	C18H24N+
255.1739	3	C18H23O+
256.2053	2	C18H26N+
258.1843	3	C17H24NO+
282.1845	1	C19H24NO+
299.2118	28	C19H27N2O+
301.1913	7	C18H25N2O2+
305.2587	63	C19H33N2O+
317.2229	1	C19H29N2O2+
329.2232	1	C20H29N2O2+
355.2744	6	C23H35N2O+
357.2539	19	C22H33N2O2+
373.2843	4	C23H37N2O2+
