Mass spectrum: 4,4`-Thiodianiline; LC-ESI-QFT; MS2; CE: 15; R=17500; [M+H]+
Name: 4,4'-Thiodianiline
Name: 4-(4-aminophenyl)sulfanylaniline
Formula: C12H12N2S
Exact mass: 216.0721
SMILES: NC1=CC=C(SC2=CC=C(N)C=C2)C=C1
InChI: InChI=1S/C12H12N2S/c13-9-1-5-11(6-2-9)15-12-7-3-10(14)4-8-12/h1-8H,13-14H2
Instrument: Q Exactive Orbitrap (Thermo Scientific)
Instrument type: LC-ESI-QFT
Ms type: MS2
Ion mode: POSITIVE
Ionization: ESI
Fragmentation mode: HCD
Collision energy: 15
Resolution: 17500
Column name: Acquity BEH C18 1.7um, 2.1x150mm (Waters)
Retention time: 12.268 min
Base peak: 79.0211
Precursor m/z: 217.0794
Precursor type: [M+H]+
Precursor intensity: 13127198.4375
m/z	relative intensity	assigned
97.0105	140	C5H5S+
119.0603	33	C7H7N2+
120.068	2	C7H8N2+
121.0758	1	C7H9N2+
157.0108	10	C10H5S+
171.0262	1	C11H7S+
217.079	999	C12H13N2S+
