Mass spectrum: Gibberellic acid; LC-ESI-QFT; MS2; CE: 75; R=17500; [M-H]-
Name: Gibberellic acid
Name: (1R,2R,5S,8S,9S,10R,11S,12S)-5,12-dihydroxy-11-methyl-6-methylidene-16-oxo-15-oxapentacyclo[9.3.2.15,8.01,10.02,8]heptadec-13-ene-9-carboxylic acid
Formula: C19H22O6
Exact mass: 346.1416
SMILES: C[C@@]12[C@H]3[C@H](C(O)=O)[C@@]45CC(=C)[C@@](O)(C4)CC[C@H]5[C@]3(OC1=O)C=C[C@@H]2O
InChI: InChI=1S/C19H22O6/c1-9-7-17-8-18(9,24)5-3-10(17)19-6-4-11(20)16(2,15(23)25-19)13(19)12(17)14(21)22/h4,6,10-13,20,24H,1,3,5,7-8H2,2H3,(H,21,22)/t10-,11+,12-,13-,16-,17+,18+,19-/m1/s1
Instrument: Q Exactive Orbitrap (Thermo Scientific)
Instrument type: LC-ESI-QFT
Ms type: MS2
Ion mode: NEGATIVE
Ionization: ESI
Fragmentation mode: HCD
Collision energy: 75
Resolution: 17500
Column name: Acquity BEH C18 1.7um, 2.1x150mm (Waters)
Retention time: 13.063 min
Base peak: 305.0968
Precursor m/z: 345.1344
Precursor type: [M-H]-
Precursor intensity: 8923248.956543
m/z	relative intensity	assigned
55.0189	13	C3H3O-
57.0346	4	C3H5O-
60.9931	1	CHO3-
65.0397	1	C5H5-
69.0345	5	C4H5O-
71.0503	63	C4H7O-
73.0295	19	C3H5O2-
79.0554	1	C6H7-
83.0503	56	C5H7O-
93.0346	2	C6H5O-
95.0503	2	C6H7O-
105.071	21	C8H9-
107.0503	3	C7H7O-
109.0659	1	C7H9O-
119.0866	4	C9H11-
121.066	8	C8H9O-
128.0632	3	C10H8-
129.071	4	C10H9-
130.0422	1	C9H6O-
131.0867	2	C10H11-
133.0659	6	C9H9O-
133.1025	1	C10H13-
141.0714	2	C11H9-
142.0788	4	C11H10-
143.0866	999	C11H11-
144.0579	6	C10H8O-
145.066	3	C10H9O-
146.0736	5	C10H10O-
149.0971	1	C10H13O-
155.0866	12	C12H11-
156.0582	4	C11H8O-
157.066	6	C11H9O-
157.1026	1	C12H13-
158.0735	1	C11H10O-
159.0814	2	C11H11O-
160.0526	1	C10H8O2-
161.0971	6	C11H13O-
167.0864	2	C13H11-
169.066	4	C12H9O-
169.1019	2	C13H13-
170.0739	4	C12H10O-
171.0814	10	C12H11O-
174.0686	3	C11H10O2-
179.0867	12	C14H11-
181.0665	1	C13H9O-
181.1021	7	C14H13-
183.0814	16	C13H11O-
183.118	1	C14H15-
184.053	6	C12H8O2-
184.0893	1	C13H12O-
185.0608	1	C12H9O2-
185.0971	5	C13H13O-
192.0948	3	C15H12-
193.1022	30	C15H13-
194.0734	1	C14H10O-
197.0609	2	C13H9O2-
197.0972	3	C14H13O-
197.1334	2	C15H17-
198.0688	1	C13H10O2-
199.0768	2	C13H11O2-
199.1133	2	C14H15O-
203.0867	1	C16H11-
205.1023	63	C16H13-
206.1101	3	C16H14-
209.0972	40	C15H13O-
211.0765	8	C14H11O2-
212.0839	1	C14H12O2-
217.1024	2	C17H13-
219.1179	48	C17H15-
221.1336	49	C17H17-
227.1076	20	C15H15O2-
