Mass spectrum: 3-Trifluoromethyl-4-nitrophenol; LC-ESI-QFT; MS2; CE: 45; R=17500; [M-H]-
Name: 3-Trifluoromethyl-4-nitrophenol
Name: 4-nitro-3-(trifluoromethyl)phenol
Formula: C7H4F3NO3
Exact mass: 207.0143
SMILES: OC1=CC(=C(C=C1)[N+]([O-])=O)C(F)(F)F
InChI: InChI=1S/C7H4F3NO3/c8-7(9,10)5-3-4(12)1-2-6(5)11(13)14/h1-3,12H
Instrument: Q Exactive Orbitrap (Thermo Scientific)
Instrument type: LC-ESI-QFT
Ms type: MS2
Ion mode: NEGATIVE
Ionization: ESI
Fragmentation mode: HCD
Collision energy: 45
Resolution: 17500
Column name: Acquity BEH C18 1.7um, 2.1x150mm (Waters)
Retention time: 16.576 min
Base peak: 206.007
Precursor m/z: 206.0071
Precursor type: [M-H]-
Precursor intensity: 161563249.957
m/z	relative intensity	assigned
50.0036	1	C3N-
52.0192	4	C3H2N-
63.9955	4	C4O-
64.0193	1	C4H2N-
65.0033	1	C4HO-
65.9985	17	C3NO-
68.998	1	C3HO2-
70.9939	11	C3FO-
74.0036	23	C5N-
76.0193	1	C5H2N-
82.01	1	C4HFN-
84.0016	6	C4HFO-
86.9887	1	C3FO2-
89.9984	3	C5NO-
91.0002	1	C3HF2O-
92.0143	1	C5H2NO-
92.9954	1	C3F3-
92.9984	3	C5HO2-
94.0099	6	C5HFN-
94.994	3	C5FO-
95.0139	5	C5H3O2-
96.0017	1	C5HFO-
98.0011	1	C4H2O3-
101.9986	2	C6NO-
103.9903	1	C6O2-
108.0017	4	C6HFO-
108.9906	2	C3F3O-
110.0047	1	C5HFNO-
110.9889	2	C5FO2-
120.0091	18	C6H2NO2-
122.0049	1	C6HFNO-
123.0086	2	C6H3O3-
123.9966	5	C6HFO2-
126.0123	2	C6H3FO2-
128.0079	24	C6H2F2O-
137.9933	2	C4HF3O2-
137.9996	4	C6HFNO2-
140.008	1	C7H2F2O-
144.0027	7	C6H2F2O2-
145.982	1	C5F2O3-
148.0141	1	C6H3F3O-
156.0027	7	C7H2F2O2-
159.0066	1	C7H2F3O-
160.0141	60	C7H3F3O-
163.0013	18	C6H2F3O2-
165.9945	1	C7HFNO3-
176.009	827	C7H3F3O2-
190.9962	1	C7H2F3O3-
206.0069	999	C7H3F3NO3-
