Mass spectrum: Diethylene glycol dibenzoate; LC-ESI-QFT; MS2; CE: 75; R=17500; [M+H]+
Name: Diethylene glycol dibenzoate
Name: 2-(2-benzoyloxyethoxy)ethyl benzoate
Formula: C18H18O5
Exact mass: 314.1154
SMILES: O=C(OCCOCCOC(=O)C1=CC=CC=C1)C1=CC=CC=C1
InChI: InChI=1S/C18H18O5/c19-17(15-7-3-1-4-8-15)22-13-11-21-12-14-23-18(20)16-9-5-2-6-10-16/h1-10H,11-14H2
Instrument: Q Exactive Orbitrap (Thermo Scientific)
Instrument type: LC-ESI-QFT
Ms type: MS2
Ion mode: POSITIVE
Ionization: ESI
Fragmentation mode: HCD
Collision energy: 75
Resolution: 17500
Column name: Acquity BEH C18 1.7um, 2.1x150mm (Waters)
Retention time: 18.007 min
Base peak: 79.0211
Precursor m/z: 315.1227
Precursor type: [M+H]+
Precursor intensity: 3554581.078125
m/z	relative intensity	assigned
79.0542	723	C6H7+
81.0697	493	C6H9+
83.0491	527	C5H7O+
91.0542	999	C7H7+
95.0492	357	C6H7O+
105.0336	712	C7H5O+
109.0648	409	C7H9O+
165.0699	363	C13H9+
