Mass spectrum: Pyrinuron; LC-ESI-QFT; MS2; CE: 75; R=17500; [M+H]+
Name: Pyrinuron
Name: Pyriminil
Name: 1-(4-nitrophenyl)-3-(pyridin-3-ylmethyl)urea
Formula: C13H12N4O3
Exact mass: 272.0909
SMILES: [O-][N+](=O)C1=CC=C(NC(=O)NCC2=CC=CN=C2)C=C1
InChI: InChI=1S/C13H12N4O3/c18-13(15-9-10-2-1-7-14-8-10)16-11-3-5-12(6-4-11)17(19)20/h1-8H,9H2,(H2,15,16,18)
Instrument: Q Exactive Orbitrap (Thermo Scientific)
Instrument type: LC-ESI-QFT
Ms type: MS2
Ion mode: POSITIVE
Ionization: ESI
Fragmentation mode: HCD
Collision energy: 75
Resolution: 17500
Column name: Acquity BEH C18 1.7um, 2.1x150mm (Waters)
Retention time: 11.679 min
Base peak: 79.0211
Precursor m/z: 273.0982
Precursor type: [M+H]+
Precursor intensity: 1233533.25
m/z	relative intensity	assigned
53.0386	1	C4H5+
54.0339	2	C3H4N+
56.0131	27	C2H2NO+
65.0385	24	C5H5+
66.0464	6	C5H6+
67.0417	4	C4H5N+
68.0495	7	C4H6N+
79.018	1	C5H3O+
79.0417	3	C5H5N+
80.0495	115	C5H6N+
82.0651	4	C5H8N+
92.0495	111	C6H6N+
93.0574	649	C6H7N+
96.0443	1	C5H6NO+
107.0605	21	C6H7N2+
108.0445	4	C6H6NO+
108.0683	2	C6H8N2+
109.0525	7	C6H7NO+
109.0761	90	C6H9N2+
110.0601	18	C6H8NO+
111.0318	2	C5H5NO2+
117.045	3	C7H5N2+
122.0475	93	C6H6N2O+
134.0478	1	C7H6N2O+
135.0553	999	C7H7N2O+
