Mass spectrum: Furalaxyl; LC-ESI-QFT; MS2; CE: 75; R=17500; [M+H]+
Name: Furalaxyl
Name: methyl 2-[N-(furan-2-carbonyl)-2,6-dimethylanilino]propanoate
Formula: C17H19NO4
Exact mass: 301.1314
SMILES: COC(=O)C(C)N(C(=O)C1=CC=CO1)C1=C(C)C=CC=C1C
InChI: InChI=1S/C17H19NO4/c1-11-7-5-8-12(2)15(11)18(13(3)17(20)21-4)16(19)14-9-6-10-22-14/h5-10,13H,1-4H3
Instrument: Q Exactive Orbitrap (Thermo Scientific)
Instrument type: LC-ESI-QFT
Ms type: MS2
Ion mode: POSITIVE
Ionization: ESI
Fragmentation mode: HCD
Collision energy: 75
Resolution: 17500
Column name: Acquity BEH C18 1.7um, 2.1x150mm (Waters)
Retention time: 17.020 min
Base peak: 79.0212
Precursor m/z: 302.1387
Precursor type: [M+H]+
Precursor intensity: 27583981.75
m/z	relative intensity	assigned
53.0022	3	C3HO+
83.0128	11	C4H3O2+
95.0127	999	C5H3O2+
105.0697	2	C8H9+
120.0809	1	C8H10N+
131.073	1	C9H9N+
132.0806	1	C9H10N+
148.0755	3	C9H10NO+
148.1121	1	C10H14N+
