Mass spectrum: PharmaGSID_48505; LC-ESI-QFT; MS2; CE: 75; R=17500; [M-H]-
Name: PharmaGSID_48505
Name: 5-(2-chlorophenyl)-3-methyl-7-nitro-1,2-dihydropyrazolo[3,4-b][1,4]benzodiazepine
Formula: C17H12ClN5O2
Exact mass: 353.0680
SMILES: CC1=C2N=C(C3=CC=CC=C3Cl)C3=C(NC2=NN1)C=CC(=C3)[N+]([O-])=O
InChI: InChI=1S/C17H12ClN5O2/c1-9-15-17(22-21-9)19-14-7-6-10(23(24)25)8-12(14)16(20-15)11-4-2-3-5-13(11)18/h2-8H,1H3,(H2,19,21,22)
Instrument: Q Exactive Orbitrap (Thermo Scientific)
Instrument type: LC-ESI-QFT
Ms type: MS2
Ion mode: NEGATIVE
Ionization: ESI
Fragmentation mode: HCD
Collision energy: 75
Resolution: 17500
Column name: Acquity BEH C18 1.7um, 2.1x150mm (Waters)
Retention time: 17.775 min
Base peak: 112.9857
Precursor m/z: 352.0607
Precursor type: [M-H]-
Precursor intensity: 11357683.05078
m/z	relative intensity	assigned
50.0036	29	C3N-
65.0145	42	C3HN2-
65.9985	45	C3NO-
66.0099	45	C2N3-
88.0195	36	C6H2N-
92.0142	33	C5H2NO-
114.0348	99	C8H4N-
115.0303	60	C7H3N2-
120.0091	31	C6H2NO2-
139.0303	73	C9H3N2-
140.0504	30	C10H6N-
142.0415	64	C8H4N3-
143.0251	161	C8H3N2O-
147.02	52	C7H3N2O2-
154.0534	32	C10H6N2-
155.0377	22	C10H5NO-
165.0459	72	C11H5N2-
170.0362	195	C9H4N3O-
182.0482	48	C11H6N2O-
188.0508	39	C14H6N-
189.0459	198	C13H5N2-
190.0416	21	C12H4N3-
191.0615	191	C13H7N2-
194.0607	39	C13H8NO-
201.0462	32	C14H5N2-
202.0538	145	C14H6N2-
205.0531	44	C14H7NO-
211.0628	210	C11H7N4O-
212.0467	38	C11H6N3O2-
213.0419	119	C10H5N4O2-
214.0662	41	C16H8N-
215.0617	192	C15H7N2-
216.0567	999	C14H6N3-
217.0407	118	C14H5N2O-
219.0565	281	C14H7N2O-
225.0226	74	C13H6ClN2-
226.0379	96	C10H4N5O2-
227.0489	40	C15H5N3-
228.0569	141	C15H6N3-
228.0696	82	C16H8N2-
229.0531	44	C16H7NO-
229.0646	56	C15H7N3-
229.0766	40	C16H9N2-
230.0487	211	C15H6N2O-
232.0515	25	C14H6N3O-
240.0529	101	C11H6N5O2-
241.0779	51	C17H9N2-
242.0724	36	C16H8N3-
243.056	192	C16H7N2O-
244.0518	998	C15H6N3O-
249.0227	85	C15H6ClN2-
249.0543	26	C14H7N3O2-
252.022	40	C15H7ClNO-
253.0177	159	C14H6ClN2O-
254.0597	70	C16H6N4-
257.0707	95	C15H7N5-
257.0842	58	C16H9N4-
266.0252	136	C15H7ClN2O-
269.0844	45	C17H9N4-
275.0387	23	C17H8ClN2-
279.0324	98	C16H8ClN2O-
280.0283	57	C15H7ClN3O-
285.0783	466	C17H9N4O-
287.0939	63	C17H11N4O-
296.0231	97	C15H7ClN3O2-
