Mass spectrum: Fenbuconazole; LC-ESI-QFT; MS2; CE: 30; R=17500; [M+H]+
Name: Fenbuconazole
Name: 4-(4-chlorophenyl)-2-phenyl-2-(1,2,4-triazol-1-ylmethyl)butanenitrile
Formula: C19H17ClN4
Exact mass: 336.1142
SMILES: ClC1=CC=C(CCC(CN2C=NC=N2)(C#N)C2=CC=CC=C2)C=C1
InChI: InChI=1S/C19H17ClN4/c20-18-8-6-16(7-9-18)10-11-19(12-21,13-24-15-22-14-23-24)17-4-2-1-3-5-17/h1-9,14-15H,10-11,13H2
Instrument: Q Exactive Orbitrap (Thermo Scientific)
Instrument type: LC-ESI-QFT
Ms type: MS2
Ion mode: POSITIVE
Ionization: ESI
Fragmentation mode: HCD
Collision energy: 30
Resolution: 17500
Column name: Acquity BEH C18 1.7um, 2.1x150mm (Waters)
Retention time: 18.181 min
Base peak: 79.0211
Precursor m/z: 337.1215
Precursor type: [M+H]+
Precursor intensity: 10672229.5
m/z	relative intensity	assigned
70.0399	999	C2H4N3+
83.0477	4	C3H5N3+
91.0542	33	C7H7+
104.0494	4	C7H6N+
125.0152	470	C7H6Cl+
129.0698	8	C10H9+
139.0308	6	C8H8Cl+
151.0308	2	C9H8Cl+
156.0808	8	C11H10N+
163.0308	15	C10H8Cl+
190.0416	15	C11H9ClN+
194.0479	53	C9H9ClN3+
216.093	4	C17H12+
241.0776	11	C16H14Cl+
251.0632	1	C17H12Cl+
268.0882	3	C17H15ClN+
337.1213	145	C19H18ClN4+
