Mass spectrum: Etofenprox; LC-ESI-QFT; MS2; CE: 90; R=17500; [M+H]+
Name: Etofenprox
Name: 1-ethoxy-4-[2-methyl-1-[(3-phenoxyphenyl)methoxy]propan-2-yl]benzene
Formula: C25H28O3
Exact mass: 376.2038
SMILES: CCOC1=CC=C(C=C1)C(C)(C)COCC1=CC(OC2=CC=CC=C2)=CC=C1
InChI: InChI=1S/C25H28O3/c1-4-27-22-15-13-21(14-16-22)25(2,3)19-26-18-20-9-8-12-24(17-20)28-23-10-6-5-7-11-23/h5-17H,4,18-19H2,1-3H3
Instrument: Q Exactive Orbitrap (Thermo Scientific)
Instrument type: LC-ESI-QFT
Ms type: MS2
Ion mode: POSITIVE
Ionization: ESI
Fragmentation mode: HCD
Collision energy: 90
Resolution: 17500
Column name: Acquity BEH C18 1.7um, 2.1x150mm (Waters)
Retention time: 16.967 min
Base peak: 79.0212
Precursor m/z: 377.2111
Precursor type: [M+H]+
Precursor intensity: 7944908.375
m/z	relative intensity	assigned
53.0386	92	C4H5+
55.0179	22	C3H3O+
55.0542	99	C4H7+
59.0491	28	C3H7O+
65.0386	84	C5H5+
67.0542	150	C5H7+
69.0335	28	C4H5O+
69.07	12	C5H9+
79.0542	228	C6H7+
81.0336	15	C5H5O+
81.0699	67	C6H9+
91.0543	999	C7H7+
93.07	140	C7H9+
95.0492	189	C6H7O+
95.0857	61	C7H11+
103.0543	84	C8H7+
104.0619	11	C8H8+
105.0699	447	C8H9+
107.0492	87	C7H7O+
107.0856	106	C8H11+
109.0649	72	C7H9O+
111.0805	12	C7H11O+
115.0543	517	C9H7+
116.062	76	C9H8+
117.0699	211	C9H9+
119.0856	106	C9H11+
121.0649	288	C8H9O+
123.0811	14	C8H11O+
128.062	179	C10H8+
129.0699	132	C10H9+
130.0778	35	C10H10+
131.0492	60	C9H7O+
131.0856	52	C10H11+
132.0571	39	C9H8O+
133.065	27	C9H9O+
133.1011	47	C10H13+
135.0805	119	C9H11O+
141.0699	142	C11H9+
142.0777	137	C11H10+
143.0856	40	C11H11+
144.057	37	C10H8O+
145.0649	144	C10H9O+
145.101	25	C11H13+
146.0726	110	C10H10O+
147.0806	14	C10H11O+
152.0621	35	C12H8+
153.0701	53	C12H9+
154.0777	27	C12H10+
155.0857	57	C12H11+
156.0935	16	C12H12+
157.0648	61	C11H9O+
157.1012	20	C12H13+
158.0729	76	C11H10O+
159.0806	60	C11H11O+
160.0881	13	C11H12O+
161.096	35	C11H13O+
165.0701	135	C13H9+
166.0778	43	C13H10+
167.0855	45	C13H11+
169.065	30	C12H9O+
169.101	13	C13H13+
171.0804	33	C12H11O+
172.0882	34	C12H12O+
178.0777	97	C14H10+
179.0857	135	C14H11+
180.0927	13	C14H12+
181.0649	65	C13H9O+
181.101	23	C14H13+
182.0728	32	C13H10O+
183.0805	50	C13H11O+
185.0961	25	C13H13O+
189.07	34	C15H9+
190.0778	38	C15H10+
191.0854	55	C15H11+
192.0933	38	C15H12+
193.1014	78	C15H13+
194.0728	40	C14H10O+
195.0805	104	C14H11O+
196.0885	29	C14H12O+
197.0961	14	C14H13O+
202.0784	48	C16H10+
203.0857	69	C16H11+
204.0935	25	C16H12+
205.1012	36	C16H13+
206.1097	14	C16H14+
207.0806	88	C15H11O+
208.0882	67	C15H12O+
209.0961	61	C15H13O+
210.1042	13	C15H14O+
215.0857	51	C17H11+
216.0935	31	C17H12+
217.1012	42	C17H13+
219.0807	53	C16H11O+
219.1174	16	C17H15+
220.0884	15	C16H12O+
221.0962	115	C16H13O+
222.1039	33	C16H14O+
223.1119	15	C16H15O+
230.1096	17	C18H14+
231.0806	16	C17H11O+
231.1167	14	C18H15+
232.0882	20	C17H12O+
233.0957	49	C17H13O+
234.1038	36	C17H14O+
235.1121	41	C17H15O+
245.0957	10	C18H13O+
248.1199	18	C18H16O+
249.1272	27	C18H17O+
258.1052	16	C19H14O+
259.113	13	C19H15O+
293.1865	10	C21H25O+
