Mass spectrum: Propanil; LC-ESI-QFT; MS2; CE: 75; R=17500; [M-H]-
Name: Propanil
Name: N-(3,4-dichlorophenyl)propanamide
Formula: C9H9Cl2NO
Exact mass: 217.0061
SMILES: CCC(=O)NC1=CC=C(Cl)C(Cl)=C1
InChI: InChI=1S/C9H9Cl2NO/c1-2-9(13)12-6-3-4-7(10)8(11)5-6/h3-5H,2H2,1H3,(H,12,13)
Instrument: Q Exactive Orbitrap (Thermo Scientific)
Instrument type: LC-ESI-QFT
Ms type: MS2
Ion mode: NEGATIVE
Ionization: ESI
Fragmentation mode: HCD
Collision energy: 75
Resolution: 17500
Column name: Acquity BEH C18 1.7um, 2.1x150mm (Waters)
Retention time: 17.574 min
Base peak: 215.9988
Precursor m/z: 215.9988
Precursor type: [M-H]-
Precursor intensity: 78780331.07812
m/z	relative intensity	assigned
55.0189	6	C3H3O-
87.0113	3	C6HN-
88.0193	68	C6H2N-
121.9799	3	C6HClN-
123.996	238	C6H3ClN-
124.98	22	C6H2ClO-
149.975	7	C7HClNO-
159.9727	999	C6H4Cl2N-
160.9567	24	C6H3Cl2O-
185.9516	4	C7H2Cl2NO-
199.9672	9	C8H4Cl2NO-
215.9988	14	C9H8Cl2NO-
