Mass spectrum: Cladribine; LC-ESI-QFT; MS2; CE: 30; R=17500; [M+H]+
Name: Cladribine
Formula: C10H12ClN5O3
Exact mass: 285.0629
SMILES: NC1=NC(Cl)=NC2=C1N=CN2[C@H]1C[C@H](O)[C@@H](CO)O1
InChI: InChI=1S/C10H12ClN5O3/c11-10-14-8(12)7-9(15-10)16(3-13-7)6-1-4(18)5(2-17)19-6/h3-6,17-18H,1-2H2,(H2,12,14,15)/t4-,5+,6+/m0/s1
Instrument: Q Exactive Orbitrap (Thermo Scientific)
Instrument type: LC-ESI-QFT
Ms type: MS2
Ion mode: POSITIVE
Ionization: ESI
Fragmentation mode: HCD
Collision energy: 30
Resolution: 17500
Column name: Acquity BEH C18 1.7um, 2.1x150mm (Waters)
Retention time: 10.837 min
Base peak: 79.0212
Precursor m/z: 286.0701
Precursor type: [M+H]+
Precursor intensity: 2488741
m/z	relative intensity	assigned
57.0335	4	C3H5O+
69.0335	6	C4H5O+
70.04	3	C2H4N3+
71.0491	15	C4H7O+
73.0284	21	C3H5O2+
81.0335	6	C5H5O+
99.0441	63	C5H7O2+
117.0547	220	C5H9O3+
134.0464	2	C5H4N5+
152.0572	1	C5H6N5O+
170.0229	999	C5H5ClN5+
207.9686	1	C8HClN2O3+
286.0701	15	C10H13ClN5O3+
