Mass spectrum: 1,4-Diaminoanthraquinone; LC-ESI-QFT; MS2; CE: 75; R=17500; [M+H]+
Name: 1,4-Diaminoanthraquinone
Name: 1,4-diaminoanthracene-9,10-dione
Formula: C14H10N2O2
Exact mass: 238.0742
SMILES: NC1=CC=C(N)C2=C1C(=O)C1=CC=CC=C1C2=O
InChI: InChI=1S/C14H10N2O2/c15-9-5-6-10(16)12-11(9)13(17)7-3-1-2-4-8(7)14(12)18/h1-6H,15-16H2
Instrument: Q Exactive Orbitrap (Thermo Scientific)
Instrument type: LC-ESI-QFT
Ms type: MS2
Ion mode: POSITIVE
Ionization: ESI
Fragmentation mode: HCD
Collision energy: 75
Resolution: 17500
Column name: Acquity BEH C18 1.7um, 2.1x150mm (Waters)
Retention time: 16.073 min
Base peak: 79.0211
Precursor m/z: 239.0815
Precursor type: [M+H]+
Precursor intensity: 3154077.5
m/z	relative intensity	assigned
65.0386	112	C5H5+
72.0444	46	C3H6NO+
79.0291	18	C4H3N2+
80.0495	41	C5H6N+
91.0542	25	C7H7+
92.0495	79	C6H6N+
93.0574	15	C6H7N+
95.0492	87	C6H7O+
105.0336	412	C7H5O+
105.0447	114	C6H5N2+
110.0601	21	C6H8NO+
115.0543	69	C9H7+
118.065	7	C8H8N+
129.0699	51	C10H9+
130.0289	73	C8H4NO+
130.0653	6	C9H8N+
133.0397	7	C7H5N2O+
133.0647	7	C9H9O+
135.0554	59	C7H7N2O+
139.0543	281	C11H7+
141.0697	31	C11H9+
142.0653	15	C10H8N+
144.0081	42	C8H2NO2+
154.0654	41	C11H8N+
155.0612	10	C10H7N2+
156.0811	79	C11H10N+
157.0648	43	C11H9O+
161.0346	68	C8H5N2O2+
161.0598	35	C10H9O2+
166.0653	999	C12H8N+
167.0492	141	C12H7O+
167.0731	207	C12H9N+
168.0811	19	C12H10N+
169.0648	23	C12H9O+
170.0602	56	C11H8NO+
182.0601	90	C12H8NO+
182.0847	139	C12H10N2+
183.0915	20	C12H11N2+
184.0761	151	C12H10NO+
185.0603	34	C12H9O2+
192.0683	396	C13H8N2+
193.0762	418	C13H9N2+
194.0603	240	C13H8NO+
195.0679	104	C13H9NO+
195.0917	7	C13H11N2+
196.0762	10	C13H10NO+
198.0552	20	C12H8NO2+
199.063	24	C12H9NO2+
210.0556	43	C13H8NO2+
210.0791	205	C13H10N2O+
211.0869	158	C13H11N2O+
212.0708	137	C13H10NO2+
221.0711	221	C14H9N2O+
222.0552	143	C14H8NO2+
223.0629	164	C14H9NO2+
224.0582	13	C13H8N2O2+
237.0659	47	C14H9N2O2+
238.0738	679	C14H10N2O2+
239.0811	306	C14H11N2O2+
