Mass spectrum: Carabersat; LC-ESI-QFT; MS2; CE: 75; R=17500; [M+H]+
Name: Carabersat
Name: N-[(3R,4S)-6-acetyl-3-hydroxy-2,2-dimethyl-3,4-dihydrochromen-4-yl]-4-fluorobenzamide
Formula: C20H20FNO4
Exact mass: 357.1376
SMILES: CC(=O)C1=CC2=C(OC(C)(C)[C@H](O)[C@H]2NC(=O)C2=CC=C(F)C=C2)C=C1
InChI: InChI=1S/C20H20FNO4/c1-11(23)13-6-9-16-15(10-13)17(18(24)20(2,3)26-16)22-19(25)12-4-7-14(21)8-5-12/h4-10,17-18,24H,1-3H3,(H,22,25)/t17-,18+/m0/s1
Instrument: Q Exactive Orbitrap (Thermo Scientific)
Instrument type: LC-ESI-QFT
Ms type: MS2
Ion mode: POSITIVE
Ionization: ESI
Fragmentation mode: HCD
Collision energy: 75
Resolution: 17500
Column name: Acquity BEH C18 1.7um, 2.1x150mm (Waters)
Retention time: 15.705 min
Base peak: 79.0211
Precursor m/z: 358.1449
Precursor type: [M+H]+
Precursor intensity: 10282921.375
m/z	relative intensity	assigned
51.023	9	C4H3+
53.0023	4	C3HO+
53.0386	7	C4H5+
55.0542	7	C4H7+
59.0491	999	C3H7O+
71.0291	12	C4H4F+
75.0229	10	C6H3+
79.018	4	C5H3O+
79.0542	19	C6H7+
91.0542	90	C7H7+
93.0699	29	C7H9+
95.0293	6	C6H4F+
95.0492	41	C6H7O+
97.0448	38	C6H6F+
103.0543	4	C8H7+
105.07	12	C8H9+
106.0413	3	C7H6O+
107.0492	232	C7H7O+
111.0442	4	C6H7O2+
113.0397	69	C6H6FO+
115.0544	10	C9H7+
116.062	8	C9H8+
119.0493	13	C8H7O+
119.0858	5	C9H11+
121.0285	9	C7H5O2+
121.0648	79	C8H9O+
123.0241	612	C7H4FO+
129.0699	3	C10H9+
131.0494	7	C9H7O+
131.0855	29	C10H11+
133.0648	12	C9H9O+
134.0363	9	C8H6O2+
135.0443	6	C8H7O2+
135.0805	18	C9H11O+
140.0505	41	C7H7FNO+
141.0699	10	C11H9+
144.057	21	C10H8O+
147.0807	4	C10H11O+
149.0597	182	C9H9O2+
158.0364	5	C10H6O2+
158.0727	11	C11H10O+
159.0804	62	C11H11O+
161.0592	6	C10H9O2+
163.0393	12	C9H7O3+
165.0546	46	C9H9O3+
169.0758	4	C5H12FNO4+
171.0441	3	C11H7O2+
173.06	19	C11H9O2+
177.0911	58	C11H13O2+
190.0625	17	C11H10O3+
201.0912	39	C13H13O2+
