Mass spectrum: 4`-Sulfamylacetanilide; LC-ESI-QFT; MS2; CE: 15; R=17500; [M+H]+
Name: 4'-Sulfamylacetanilide
Name: 4-Acetamidobenzenesulfonamide
Name: N-(4-sulfamoylphenyl)acetamide
Formula: C8H10N2O3S
Exact mass: 214.0412
SMILES: CC(=O)NC1=CC=C(C=C1)S(N)(=O)=O
InChI: InChI=1S/C8H10N2O3S/c1-6(11)10-7-2-4-8(5-3-7)14(9,12)13/h2-5H,1H3,(H,10,11)(H2,9,12,13)
Instrument: Q Exactive Orbitrap (Thermo Scientific)
Instrument type: LC-ESI-QFT
Ms type: MS2
Ion mode: POSITIVE
Ionization: ESI
Fragmentation mode: HCD
Collision energy: 15
Resolution: 17500
Column name: Acquity BEH C18 1.7um, 2.1x150mm (Waters)
Retention time: 8.299 min
Base peak: 79.0212
Precursor m/z: 215.0485
Precursor type: [M+H]+
Precursor intensity: 916089.6875
m/z	relative intensity	assigned
79.0213	7	C2H7OS+
93.0337	4	C6H5O+
93.0573	64	C6H7N+
94.0652	6	C6H8N+
108.0444	51	C6H6NO+
134.0601	100	C8H8NO+
135.0679	66	C8H9NO+
136.0758	273	C8H10NO+
137.964	4	C5NO2S+
150.0549	42	C8H8NO2+
152.0707	11	C8H10NO2+
156.0116	13	C6H6NO2S+
166.9671	4	C6HNO3S+
173.0383	5	C6H9N2O2S+
198.0221	999	C8H8NO3S+
215.0486	524	C8H11N2O3S+
