Mass spectrum: CP-544439; LC-ESI-QFT; MS2; CE: 30; R=17500; [M+H]+
Name: CP-544439
Name: 2H-Pyran-4-carboxamide, 4-(((4-(4-fluorophenoxy)phenyl)sulfonyl)amino)tetrahydro-N-hydroxy-
Name: 4-[[4-(4-fluorophenoxy)phenyl]sulfonylamino]-N-hydroxyoxane-4-carboxamide
Formula: C18H19FN2O6S
Exact mass: 410.0948
SMILES: ONC(=O)C1(CCOCC1)NS(=O)(=O)C1=CC=C(OC2=CC=C(F)C=C2)C=C1
InChI: InChI=1S/C18H19FN2O6S/c19-13-1-3-14(4-2-13)27-15-5-7-16(8-6-15)28(24,25)21-18(17(22)20-23)9-11-26-12-10-18/h1-8,21,23H,9-12H2,(H,20,22)
Instrument: Q Exactive Orbitrap (Thermo Scientific)
Instrument type: LC-ESI-QFT
Ms type: MS2
Ion mode: POSITIVE
Ionization: ESI
Fragmentation mode: HCD
Collision energy: 30
Resolution: 17500
Column name: Acquity BEH C18 1.7um, 2.1x150mm (Waters)
Retention time: 16.003 min
Base peak: 79.0211
Precursor m/z: 411.1021
Precursor type: [M+H]+
Precursor intensity: 2092419.4375
m/z	relative intensity	assigned
70.0651	54	C4H8N+
82.0654	32	C5H8N+
99.044	47	C5H7O2+
100.0757	999	C5H10NO+
114.0552	421	C5H8NO2+
127.063	50	C6H9NO2+
144.0656	428	C6H10NO3+
203.0508	53	C12H8FO2+
251.0175	261	C12H8FO3S+
350.0857	45	C17H17FNO4S+
