Mass spectrum: Labetalol; LC-ESI-QFT; MS2; CE: 45; R=17500; [M+H]+
Name: Labetalol
Name: 2-hydroxy-5-[1-hydroxy-2-(4-phenylbutan-2-ylamino)ethyl]benzamide
Formula: C19H24N2O3
Exact mass: 328.1787
SMILES: CC(CCC1=CC=CC=C1)NCC(O)C1=CC=C(O)C(=C1)C(N)=O
InChI: InChI=1S/C19H24N2O3/c1-13(7-8-14-5-3-2-4-6-14)21-12-18(23)15-9-10-17(22)16(11-15)19(20)24/h2-6,9-11,13,18,21-23H,7-8,12H2,1H3,(H2,20,24)
Instrument: Q Exactive Orbitrap (Thermo Scientific)
Instrument type: LC-ESI-QFT
Ms type: MS2
Ion mode: POSITIVE
Ionization: ESI
Fragmentation mode: HCD
Collision energy: 45
Resolution: 17500
Column name: Acquity BEH C18 1.7um, 2.1x150mm (Waters)
Retention time: 13.584 min
Base peak: 79.0211
Precursor m/z: 329.186
Precursor type: [M+H]+
Precursor intensity: 14227768.5
m/z	relative intensity	assigned
65.0385	6	C5H5+
79.0542	1	C6H7+
89.0384	1	C7H5+
91.0542	865	C7H7+
92.0494	1	C6H6N+
94.0652	3	C6H8N+
95.0491	1	C6H7O+
105.0699	3	C8H9+
106.0651	14	C7H8N+
107.0491	6	C7H7O+
116.0495	1	C8H6N+
118.065	1	C8H8N+
119.0491	5	C8H7O+
120.0443	6	C7H6NO+
121.0647	1	C8H9O+
133.0521	1	C8H7NO+
133.1011	6	C10H13+
134.06	44	C8H8NO+
135.0439	7	C8H7O2+
136.0757	6	C8H10NO+
144.0445	7	C9H6NO+
145.0281	2	C9H5O2+
146.0601	1	C9H8NO+
147.0439	8	C9H7O2+
148.0755	1	C9H10NO+
148.1122	3	C10H14N+
159.0807	3	C11H11O+
161.0598	5	C10H9O2+
162.0549	999	C9H8NO2+
163.0388	2	C9H7O3+
164.0705	93	C9H10NO2+
165.0545	98	C9H9O3+
179.0814	33	C9H11N2O2+
180.0654	87	C9H10NO3+
190.0862	95	C11H12NO2+
194.0812	21	C10H12NO3+
207.1127	22	C11H15N2O2+
208.0968	16	C11H14NO3+
222.1122	1	C12H16NO3+
252.1018	2	C16H14NO2+
294.1487	74	C19H20NO2+
311.1755	4	C19H23N2O2+
312.1592	21	C19H22NO3+
