Mass spectrum: Norflurazon; LC-ESI-QFT; MS2; CE: 30; R=17500; [M-H]-
Name: Norflurazon
Name: 4-chloro-5-(methylamino)-2-[3-(trifluoromethyl)phenyl]pyridazin-3-one
Formula: C12H9ClF3N3O
Exact mass: 303.0386
SMILES: CNC1=C(Cl)C(=O)N(N=C1)C1=CC=CC(=C1)C(F)(F)F
InChI: InChI=1S/C12H9ClF3N3O/c1-17-9-6-18-19(11(20)10(9)13)8-4-2-3-7(5-8)12(14,15)16/h2-6,17H,1H3
Instrument: Q Exactive Orbitrap (Thermo Scientific)
Instrument type: LC-ESI-QFT
Ms type: MS2
Ion mode: NEGATIVE
Ionization: ESI
Fragmentation mode: HCD
Collision energy: 30
Resolution: 17500
Column name: Acquity BEH C18 1.7um, 2.1x150mm (Waters)
Retention time: 16.609 min
Base peak: 179.0714
Precursor m/z: 302.0313
Precursor type: [M-H]-
Precursor intensity: 6561639.489258
m/z	relative intensity	assigned
52.0193	2	C3H2N-
64.0066	11	C3N2-
65.0145	6	C3HN2-
65.9985	2	C3NO-
72.9726	3	C2ClN-
74.9643	18	C2ClO-
79.0302	60	C4H3N2-
87.996	160	C3H3ClN-
101.9754	3	C3HClNO-
115.0068	35	C4H4ClN2-
128.9861	5	C4H2ClN2O-
160.0379	2	C7H5F3N-
169.0208	2	C10H2FN2-
177.9866	3	C9H2ClFN-
185.0332	79	C8H4F3N2-
195.9968	2	C9H4ClFNO-
197.9928	7	C9H3ClF2N-
209.0332	32	C10H4F3N2-
211.0492	3	C10H6F3N2-
216.0033	2	C9H5ClF2NO-
217.9989	999	C9H4ClF3N-
224.0203	22	C10H3F3N2O-
239.0435	9	C11H6F3N2O-
245.0101	9	C10H5ClF3N2-
251.0311	3	C11H4F3N3O-
252.0389	25	C11H5F3N3O-
275.0204	11	C11H7ClF3N2O-
286	4	C11H4ClF3N3O-
302.0313	623	C12H8ClF3N3O-
