Mass spectrum: Ro 23-7637; LC-ESI-QFT; MS2; CE: 90; R=17500; [M+H]+
Name: Ro 23-7637
Name: 1-[4-(2,2-diphenylethenyl)piperidin-1-yl]-9-pyridin-3-ylnonan-1-one
Formula: C33H40N2O
Exact mass: 480.3141
SMILES: O=C(CCCCCCCCC1=CN=CC=C1)N1CCC(CC1)C=C(C1=CC=CC=C1)C1=CC=CC=C1
InChI: InChI=1S/C33H40N2O/c36-33(20-12-4-2-1-3-7-14-29-15-13-23-34-27-29)35-24-21-28(22-25-35)26-32(30-16-8-5-9-17-30)31-18-10-6-11-19-31/h5-6,8-11,13,15-19,23,26-28H,1-4,7,12,14,20-22,24-25H2
Instrument: Q Exactive Orbitrap (Thermo Scientific)
Instrument type: LC-ESI-QFT
Ms type: MS2
Ion mode: POSITIVE
Ionization: ESI
Fragmentation mode: HCD
Collision energy: 90
Resolution: 17500
Column name: Acquity BEH C18 1.7um, 2.1x150mm (Waters)
Retention time: 19.459 min
Base peak: 79.0211
Precursor m/z: 481.3213
Precursor type: [M+H]+
Precursor intensity: 52426832
m/z	relative intensity	assigned
53.0022	12	C3HO+
53.0386	16	C4H5+
55.0542	231	C4H7+
56.0495	624	C3H6N+
57.0698	13	C4H9+
58.0651	6	C3H8N+
65.0385	372	C5H5+
66.0464	11	C5H6+
67.0416	27	C4H5N+
67.0542	40	C5H7+
68.0494	27	C4H6N+
69.0572	44	C4H7N+
69.0698	3	C5H9+
70.065	2	C4H8N+
77.0384	2	C6H5+
78.0337	8	C5H4N+
79.0416	13	C5H5N+
79.0542	29	C6H7+
80.0494	32	C5H6N+
81.0575	2	C5H7N+
81.0699	1	C6H9+
82.0651	182	C5H8N+
84.0808	136	C5H10N+
91.0543	227	C7H7+
92.0495	999	C6H6N+
93.0573	512	C6H7N+
94.0651	55	C6H8N+
95.0491	13	C6H7O+
95.073	2	C6H9N+
96.0444	45	C5H6NO+
96.0807	8	C6H10N+
97.0888	1	C6H11N+
103.0543	22	C8H7+
105.0447	4	C6H5N2+
105.0699	15	C8H9+
106.0651	588	C7H8N+
107.0729	41	C7H9N+
110.06	87	C6H8NO+
115.0542	43	C9H7+
116.0621	2	C9H8+
117.0572	9	C8H7N+
117.0699	28	C9H9+
118.0651	73	C8H8N+
119.073	16	C8H9N+
120.0808	90	C8H10N+
121.0886	1	C8H11N+
124.0756	2	C7H10NO+
128.062	46	C10H8+
129.0699	20	C10H9+
130.0651	6	C9H8N+
131.0855	8	C10H11+
132.0808	51	C9H10N+
133.0886	9	C9H11N+
134.0964	59	C9H12N+
141.0698	26	C11H9+
142.0776	3	C11H10+
143.0855	5	C11H11+
146.0965	5	C10H12N+
148.1119	10	C10H14N+
151.054	2	C12H7+
152.062	338	C12H8+
153.0696	3	C12H9+
154.0779	2	C12H10+
155.0603	3	C10H7N2+
158.0964	2	C11H12N+
160.1123	2	C11H14N+
162.1277	3	C11H16N+
165.0699	322	C13H9+
166.0777	110	C13H10+
167.0855	375	C13H11+
169.0648	17	C12H9O+
172.1118	2	C12H14N+
178.0777	12	C14H10+
179.0603	4	C12H7N2+
179.0854	4	C14H11+
190.1587	8	C13H20N+
191.0855	7	C15H11+
192.0936	1	C15H12+
202.0777	4	C16H10+
203.0852	7	C16H11+
204.0929	7	C16H12+
205.1017	2	C16H13+
218.1539	2	C14H20NO+
