Mass spectrum: Flufenpyr-ethyl; LC-ESI-QFT; MS2; CE: 30; R=17500; [M+H]+
Name: Flufenpyr-ethyl
Formula: C16H13ClF4N2O4
Exact mass: 408.0500
SMILES: CCOC(=O)COC1=CC(N2N=CC(=C(C)C2=O)C(F)(F)F)=C(F)C=C1Cl
InChI: InChI=1S/C16H13ClF4N2O4/c1-3-26-14(24)7-27-13-5-12(11(18)4-10(13)17)23-15(25)8(2)9(6-22-23)16(19,20)21/h4-6H,3,7H2,1-2H3
Instrument: Q Exactive Orbitrap (Thermo Scientific)
Instrument type: LC-ESI-QFT
Ms type: MS2
Ion mode: POSITIVE
Ionization: ESI
Fragmentation mode: HCD
Collision energy: 30
Resolution: 17500
Column name: Acquity BEH C18 1.7um, 2.1x150mm (Waters)
Retention time: 18.118 min
Base peak: 79.0212
Precursor m/z: 409.0573
Precursor type: [M+H]+
Precursor intensity: 9554730.625
m/z	relative intensity	assigned
59.0491	11	C3H7O+
136.0368	2	C5H5F3N+
144.0009	1	C6H4ClFN+
156.985	3	C7H3ClFO+
199.9909	3	C8H4ClFNO2+
243.0546	1	C7H13ClFN2O4+
266.0248	5	C15H5FNO3+
267.0129	4	C12H6ClF2N2O+
271.0487	9	C12H7F4N2O+
272.0566	3	C12H8F4N2O+
279.0305	1	C11H8ClF4N2+
287.0192	16	C12H7ClF3N2O+
291.0308	1	C12H8ClF4N2+
299.0437	15	C13H7F4N2O2+
300.0514	6	C13H8F4N2O2+
307.0254	185	C12H8ClF4N2O+
315.0141	15	C13H7ClF3N2O2+
318.018	1	C13H7ClF4N2O+
335.0203	999	C13H8ClF4N2O2+
353.0309	86	C13H10ClF4N2O3+
363.0155	10	C14H8ClF4N2O3+
363.0518	13	C15H12ClF4N2O2+
367.0468	1	C14H12ClF4N2O3+
381.026	40	C14H10ClF4N2O4+
381.0606	2	C15H14ClF4N2O3+
409.0574	12	C16H14ClF4N2O4+
