Mass spectrum: Besonprodil; LC-ESI-QFT; MS2; CE: 45; R=17500; [M-H]-
Name: Besonprodil
Name: 6-[2-[4-[(4-fluorophenyl)methyl]piperidin-1-yl]ethylsulfinyl]-3H-1,3-benzoxazol-2-one
Formula: C21H23FN2O3S
Exact mass: 402.1413
SMILES: FC1=CC=C(CC2CCN(CCS(=O)C3=CC=C4NC(=O)OC4=C3)CC2)C=C1
InChI: InChI=1S/C21H23FN2O3S/c22-17-3-1-15(2-4-17)13-16-7-9-24(10-8-16)11-12-28(26)18-5-6-19-20(14-18)27-21(25)23-19/h1-6,14,16H,7-13H2,(H,23,25)
Instrument: Q Exactive Orbitrap (Thermo Scientific)
Instrument type: LC-ESI-QFT
Ms type: MS2
Ion mode: NEGATIVE
Ionization: ESI
Fragmentation mode: HCD
Collision energy: 45
Resolution: 17500
Column name: Acquity BEH C18 1.7um, 2.1x150mm (Waters)
Retention time: 13.201 min
Base peak: 118.0299
Precursor m/z: 401.1341
Precursor type: [M-H]-
Precursor intensity: 10176406.10938
m/z	relative intensity	assigned
57.9757	17	CNS-
63.9624	1	O2S-
65.0032	1	C4HO-
65.9985	1	C3NO-
81.9756	1	C3NS-
83.9913	8	C3H2NS-
93.9883	5	C5H2S-
107.9912	1	C5H2NS-
109.0169	2	C5H3NO2-
110.991	1	C5H3OS-
111.9861	1	C4H2NOS-
112.9941	10	C4H3NOS-
120.0091	12	C6H2NO2-
121.0168	1	C6H3NO2-
122.0246	1	C6H4NO2-
124.994	2	C5H3NOS-
125.9781	2	C5H2O2S-
133.0171	1	C7H3NO2-
134.0245	1	C7H4NO2-
135.9859	2	C6H2NOS-
136.9941	14	C6H3NOS-
137.9781	2	C6H2O2S-
138.0018	1	C6H4NOS-
138.9859	6	C6H3O2S-
149.0118	87	C7H3NO3-
151.9811	4	C6H2NO2S-
152.989	17	C6H3NO2S-
164.989	111	C7H3NO2S-
179.9764	1	C7H2NO3S-
180.9839	999	C7H3NO3S-
181.9917	54	C7H4NO3S-
