Mass spectrum: 8-Methoxypsoralen; LC-ESI-QFT; MS2; CE: 30; R=17500; [M+H]+
Name: 8-Methoxypsoralen
Name: Methoxsalen
Name: 9-methoxyfuro[3,2-g]chromen-7-one
Formula: C12H8O4
Exact mass: 216.0423
SMILES: COC1=C2OC(=O)C=CC2=CC2=C1OC=C2
InChI: InChI=1S/C12H8O4/c1-14-12-10-8(4-5-15-10)6-7-2-3-9(13)16-11(7)12/h2-6H,1H3
Instrument: Q Exactive Orbitrap (Thermo Scientific)
Instrument type: LC-ESI-QFT
Ms type: MS2
Ion mode: POSITIVE
Ionization: ESI
Fragmentation mode: HCD
Collision energy: 30
Resolution: 17500
Column name: Acquity BEH C18 1.7um, 2.1x150mm (Waters)
Retention time: 15.198 min
Base peak: 79.0211
Precursor m/z: 217.0495
Precursor type: [M+H]+
Precursor intensity: 10714818.25
m/z	relative intensity	assigned
115.0542	1	C9H7+
117.0699	2	C9H9+
145.065	2	C10H9O+
158.0363	1	C10H6O2+
161.0597	18	C10H9O2+
173.0598	16	C11H9O2+
174.0308	2	C10H6O3+
185.0234	21	C11H5O3+
189.0547	22	C11H9O3+
202.0261	98	C11H6O4+
217.0495	999	C12H9O4+
