Mass spectrum: Cyanazine; LC-ESI-QFT; MS2; CE: 90; R=17500; [M+H]+
Name: Cyanazine
Name: 2-[[4-chloro-6-(ethylamino)-1,3,5-triazin-2-yl]amino]-2-methylpropanenitrile
Formula: C9H13ClN6
Exact mass: 240.0890
SMILES: CCNC1=NC(NC(C)(C)C#N)=NC(Cl)=N1
InChI: InChI=1S/C9H13ClN6/c1-4-12-7-13-6(10)14-8(15-7)16-9(2,3)5-11/h4H2,1-3H3,(H2,12,13,14,15,16)
Instrument: Q Exactive Orbitrap (Thermo Scientific)
Instrument type: LC-ESI-QFT
Ms type: MS2
Ion mode: POSITIVE
Ionization: ESI
Fragmentation mode: HCD
Collision energy: 90
Resolution: 17500
Column name: Acquity BEH C18 1.7um, 2.1x150mm (Waters)
Retention time: 14.799 min
Base peak: 79.0211
Precursor m/z: 241.0963
Precursor type: [M+H]+
Precursor intensity: 7388521.1875
m/z	relative intensity	assigned
55.0291	8	C2H3N2+
56.0495	11	C3H6N+
58.0652	46	C3H8N+
61.9792	188	CHClN+
67.029	18	C3H3N2+
68.0243	999	C2H2N3+
69.0447	4	C3H5N2+
70.0651	3	C4H8N+
71.0603	404	C3H7N2+
74.0964	2	C4H12N+
78.0104	4	C2H5ClN+
79.0057	197	CH4ClN2+
83.0604	226	C4H7N2+
90.0105	21	C3H5ClN+
93.0195	6	C3HN4+
95.0604	3	C5H7N2+
96.0556	228	C4H6N3+
102.0105	3	C4H5ClN+
103.0057	4	C3H4ClN2+
104.001	648	C2H3ClN3+
108.0556	25	C5H6N3+
110.0462	22	C3H4N5+
110.0713	24	C5H8N3+
111.0791	9	C5H9N3+
119.0372	22	C4H8ClN2+
121.0509	1	C5H5N4+
132.0324	58	C4H7ClN3+
135.0665	3	C6H7N4+
136.0744	1	C6H8N4+
136.0868	16	C7H10N3+
138.0774	7	C5H8N5+
144.0321	2	C5H7ClN3+
145.0273	1	C4H6ClN4+
146.0228	28	C3H5ClN5+
150.0773	3	C6H8N5+
172.0381	1	C5H7ClN5+
173.0592	2	C6H10ClN4+
174.0541	6	C5H9ClN5+
186.054	1	C6H9ClN5+
214.0853	5	C8H13ClN5+
