Mass spectrum: Indinavir; LC-ESI-QFT; MS2; CE: 30; R=17500; [M+H]+
Name: Indinavir
Formula: C36H47N5O4
Exact mass: 613.3628
SMILES: CC(C)(C)NC(=O)[C@@H]1CN(Cc2cccnc2)CCN1C[C@@H](O)C[C@@H](Cc1ccccc1)C(=O)N[C@H]1c2ccccc2C[C@H]1O
InChI: InChI=1S/C36H47N5O4/c1-36(2,3)39-35(45)31-24-40(22-26-12-9-15-37-21-26)16-17-41(31)23-29(42)19-28(18-25-10-5-4-6-11-25)34(44)38-33-30-14-8-7-13-27(30)20-32(33)43/h4-15,21,28-29,31-33,42-43H,16-20,22-24H2,1-3H3,(H,38,44)(H,39,45)/t28-,29+,31+,32-,33+/m1/s1
Instrument: Q Exactive Orbitrap (Thermo Scientific)
Instrument type: LC-ESI-QFT
Ms type: MS2
Ion mode: POSITIVE
Ionization: ESI
Fragmentation mode: HCD
Collision energy: 30
Resolution: 17500
Column name: Acquity BEH C18 1.7um, 2.1x150mm (Waters)
Retention time: 15.300 min
Base peak: 79.0212
Precursor m/z: 614.3701
Precursor type: [M+H]+
Precursor intensity: 6869451.625
m/z	relative intensity	assigned
56.0495	7	C3H6N+
85.076	4	C4H9N2+
92.0495	1	C6H6N+
94.0651	13	C6H8N+
97.0761	48	C5H9N2+
98.0839	16	C5H10N2+
112.112	3	C7H14N+
117.0697	1	C9H9+
121.0761	3	C7H9N2+
123.0916	4	C7H11N2+
124.0997	1	C7H12N2+
132.0808	13	C9H10N+
133.0648	21	C9H9O+
143.0855	1	C11H11+
145.065	5	C10H9O+
145.101	1	C11H13+
150.0913	3	C9H12NO+
170.0962	1	C12H12N+
171.0804	1	C12H11O+
174.1026	49	C10H12N3+
175.0757	1	C11H11O2+
175.1104	14	C10H13N3+
176.1182	29	C10H14N3+
184.1443	3	C9H18N3O+
188.107	152	C12H14NO+
189.0912	3	C12H13O2+
190.1227	1	C12H16NO+
192.102	8	C11H14NO2+
206.1176	44	C12H16NO2+
214.1338	11	C13H16N3+
216.1492	1	C13H18N3+
221.1398	5	C11H17N4O+
254.1411	1	C16H18N2O+
259.1554	3	C14H19N4O+
271.1441	13	C16H19N2O2+
271.1681	2	C16H21N3O+
272.1518	86	C16H20N2O2+
273.1599	7	C16H21N2O2+
276.1384	1	C19H18NO+
277.2023	88	C15H25N4O+
289.1784	7	C16H23N3O2+
294.1596	1	C18H20N3O+
302.1539	3	C21H20NO+
306.1487	5	C20H20NO2+
315.218	65	C18H27N4O+
320.1646	48	C21H22NO2+
324.1594	14	C20H22NO3+
338.1751	45	C21H24NO3+
346.1915	8	C22H24N3O+
363.218	10	C22H27N4O+
364.202	253	C22H26N3O2+
385.2154	5	C25H27N3O+
403.2257	60	C25H29N3O2+
421.2361	999	C25H31N3O3+
465.2863	98	C27H37N4O3+
495.2757	55	C31H35N4O2+
513.2862	61	C31H37N4O3+
523.2707	1	C32H35N4O3+
578.349	1	C36H44N5O2+
596.3597	30	C36H46N5O3+
614.3703	32	C36H48N5O4+
