Mass spectrum: Biochanin A; LC-ESI-QFT; MS2; CE: 45; R=17500; [M-H]-
Name: Biochanin A
Name: 5,7-dihydroxy-3-(4-methoxyphenyl)chromen-4-one
Formula: C16H12O5
Exact mass: 284.0685
SMILES: COC1=CC=C(C=C1)C1=COC2=C(C(O)=CC(O)=C2)C1=O
InChI: InChI=1S/C16H12O5/c1-20-11-4-2-9(3-5-11)12-8-21-14-7-10(17)6-13(18)15(14)16(12)19/h2-8,17-18H,1H3
Instrument: Q Exactive Orbitrap (Thermo Scientific)
Instrument type: LC-ESI-QFT
Ms type: MS2
Ion mode: NEGATIVE
Ionization: ESI
Fragmentation mode: HCD
Collision energy: 45
Resolution: 17500
Column name: Acquity BEH C18 1.7um, 2.1x150mm (Waters)
Retention time: 17.739 min
Base peak: 283.0612
Precursor m/z: 283.0612
Precursor type: [M-H]-
Precursor intensity: 57059536.82812
m/z	relative intensity	assigned
91.0189	1	C6H3O-
132.0216	20	C8H4O2-
135.0087	10	C7H3O3-
151.0035	2	C7H3O4-
153.0192	2	C7H5O4-
180.0581	2	C13H8O-
184.0527	2	C12H8O2-
195.0451	4	C13H7O2-
196.0529	9	C13H8O2-
198.0329	1	C12H6O3-
199.0399	1	C12H7O3-
200.0477	1	C12H8O3-
211.0399	18	C13H7O3-
212.0479	15	C13H8O3-
223.0401	17	C14H7O3-
224.0479	32	C14H8O3-
226.0271	17	C13H6O4-
239.0349	71	C14H7O4-
240.0428	39	C14H8O4-
250.0273	1	C15H6O4-
267.0301	94	C15H7O5-
268.0376	999	C15H8O5-
283.0611	82	C16H11O5-
