Mass spectrum: Ingliforib; LC-ESI-QFT; MS2; CE: 45; R=17500; [M+H]+
Name: Ingliforib
Name: 5-chloro-N-[(2S,3R)-4-[(3R,4S)-3,4-dihydroxypyrrolidin-1-yl]-3-hydroxy-4-oxo-1-phenylbutan-2-yl]-1H-indole-2-carboxamide
Formula: C23H24ClN3O5
Exact mass: 457.1404
SMILES: O[C@H]([C@H](CC1=CC=CC=C1)NC(=O)C1=CC2=CC(Cl)=CC=C2N1)C(=O)N1C[C@H](O)[C@H](O)C1
InChI: InChI=1S/C23H24ClN3O5/c24-15-6-7-16-14(9-15)10-18(25-16)22(31)26-17(8-13-4-2-1-3-5-13)21(30)23(32)27-11-19(28)20(29)12-27/h1-7,9-10,17,19-21,25,28-30H,8,11-12H2,(H,26,31)/t17-,19-,20+,21+/m0/s1
Instrument: Q Exactive Orbitrap (Thermo Scientific)
Instrument type: LC-ESI-QFT
Ms type: MS2
Ion mode: POSITIVE
Ionization: ESI
Fragmentation mode: HCD
Collision energy: 45
Resolution: 17500
Column name: Acquity BEH C18 1.7um, 2.1x150mm (Waters)
Retention time: 17.390 min
Base peak: 79.0211
Precursor m/z: 458.1477
Precursor type: [M+H]+
Precursor intensity: 5886502.875
m/z	relative intensity	assigned
58.0651	8	C3H8N+
68.0494	11	C4H6N+
69.0334	2	C4H5O+
86.0236	6	C3H4NO2+
86.06	25	C4H8NO+
91.0542	44	C7H7+
93.07	1	C7H9+
102.055	1	C4H8NO2+
103.0543	2	C8H7+
104.0706	160	C4H10NO2+
105.0699	7	C8H9+
115.0542	29	C9H7+
117.0572	7	C8H7N+
117.0699	2	C9H9+
120.0808	168	C8H10N+
122.9993	5	C7H4Cl+
130.0499	22	C5H8NO3+
130.065	4	C9H8N+
132.0808	174	C9H10N+
133.0647	13	C9H9O+
143.0492	11	C10H7O+
144.0655	17	C6H10NO3+
146.0601	1	C9H8NO+
148.0603	6	C5H10NO4+
150.0914	55	C9H12NO+
152.026	12	C8H7ClN+
158.0599	4	C10H8NO+
159.0764	1	C6H11N2O3+
160.0606	1	C6H10NO4+
160.0756	12	C10H10NO+
162.0761	56	C6H12NO4+
164.0261	1	C9H7ClN+
164.9977	1	C8H4ClNO+
168.0212	2	C8H7ClNO+
178.0054	999	C9H5ClNO+
192.0445	1	C13H6NO+
195.0322	1	C9H8ClN2O+
218.1174	3	C13H16NO2+
246.1123	6	C14H16NO3+
261.0313	1	C14H10ClO3+
262.0389	4	C14H11ClO3+
263.1391	1	C14H19N2O3+
264.123	4	C14H18NO4+
305.0475	1	C18H10ClN2O+
309.0789	2	C18H14ClN2O+
327.0894	3	C18H16ClN2O2+
440.1376	1	C23H23ClN3O4+
