Mass spectrum: Phenazopyridine; LC-ESI-QFT; MS2; CE: 75; R=17500; [M+H]+
Name: Phenazopyridine
Name: 3-phenyldiazenylpyridine-2,6-diamine
Formula: C11H11N5
Exact mass: 213.1014
SMILES: NC1=CC=C(N=NC2=CC=CC=C2)C(N)=N1
InChI: InChI=1S/C11H11N5/c12-10-7-6-9(11(13)14-10)16-15-8-4-2-1-3-5-8/h1-7H,(H4,12,13,14)
Instrument: Q Exactive Orbitrap (Thermo Scientific)
Instrument type: LC-ESI-QFT
Ms type: MS2
Ion mode: POSITIVE
Ionization: ESI
Fragmentation mode: HCD
Collision energy: 75
Resolution: 17500
Column name: Acquity BEH C18 1.7um, 2.1x150mm (Waters)
Retention time: 14.298 min
Base peak: 79.0211
Precursor m/z: 214.1087
Precursor type: [M+H]+
Precursor intensity: 43058588.53125
m/z	relative intensity	assigned
52.0182	10	C3H2N+
53.026	8	C3H3N+
53.0386	14	C4H5+
54.0338	12	C3H4N+
65.0386	5	C5H5+
66.0463	4	C5H6+
68.0243	999	C2H2N3+
69.0448	3	C3H5N2+
70.0399	2	C2H4N3+
71.0603	540	C3H7N2+
77.0385	12	C6H5+
79.029	7	C4H3N2+
80.0368	322	C4H4N2+
81.0447	25	C4H5N2+
82.0525	63	C4H6N2+
85.0508	5	C2H5N4+
92.0495	15	C6H6N+
93.0573	156	C6H7N+
94.0407	1	C4H4N3+
94.0651	6	C6H8N+
95.0491	50	C4H5N3+
96.0556	762	C4H6N3+
97.0396	1	C2H3N5+
99.0915	1	C5H11N2+
105.0447	20	C6H5N2+
106.0399	1	C5H4N3+
107.0604	8	C6H7N2+
108.0556	24	C5H6N3+
109.0634	58	C5H7N3+
110.046	4	C3H4N5+
110.0711	5	C5H8N3+
113.0821	14	C4H9N4+
115.0542	4	C9H7+
119.0601	1	C7H7N2+
121.0509	83	C5H5N4+
122.0586	160	C5H6N4+
123.0664	7	C5H7N4+
124.0869	223	C6H10N3+
138.0773	17	C5H8N5+
143.0601	1	C9H7N2+
153.0446	2	C10H5N2+
166.1086	23	C7H12N5+
170.071	7	C10H8N3+
180.0554	3	C11H6N3+
181.0635	1	C11H7N3+
184.0861	1	C11H10N3+
197.0821	17	C11H9N4+
198.09	2	C11H10N4+
