Mass spectrum: Metamitron; LC-ESI-QFT; MS2; CE: 45; R=17500; [M+H]+
Name: Metamitron
Name: 4-amino-3-methyl-6-phenyl-1,2,4-triazin-5-one
Formula: C10H10N4O
Exact mass: 202.0855
SMILES: CC1=NN=C(C(=O)N1N)C1=CC=CC=C1
InChI: InChI=1S/C10H10N4O/c1-7-12-13-9(10(15)14(7)11)8-5-3-2-4-6-8/h2-6H,11H2,1H3
Instrument: Q Exactive Orbitrap (Thermo Scientific)
Instrument type: LC-ESI-QFT
Ms type: MS2
Ion mode: POSITIVE
Ionization: ESI
Fragmentation mode: HCD
Collision energy: 45
Resolution: 17500
Column name: Acquity BEH C18 1.7um, 2.1x150mm (Waters)
Retention time: 12.812 min
Base peak: 79.0211
Precursor m/z: 203.0927
Precursor type: [M+H]+
Precursor intensity: 10460165.875
m/z	relative intensity	assigned
53.0386	28	C4H5+
55.0178	5	C3H3O+
55.0291	8	C2H3N2+
56.0131	18	C2H2NO+
57.0447	110	C2H5N2+
59.024	20	CH3N2O+
65.0385	2	C5H5+
66.0463	10	C5H6+
69.0083	1	C2HN2O+
71.0365	3	C3H5NO+
71.0602	1	C3H7N2+
72.0443	39	C3H6NO+
72.0556	61	C2H6N3+
77.0383	9	C6H5+
79.0542	102	C6H7+
80.0495	2	C5H6N+
81.0333	2	C5H5O+
81.0573	2	C5H7N+
83.0239	98	C3H3N2O+
89.0385	65	C7H5+
91.0542	8	C7H7+
92.0257	6	C6H4O+
92.0494	20	C6H6N+
93.0335	1	C6H5O+
93.0573	4	C6H7N+
94.0413	6	C6H6O+
95.0491	80	C6H7O+
100.0504	11	C3H6N3O+
103.0542	7	C8H7+
104.0494	404	C7H6N+
105.0335	2	C7H5O+
105.0447	31	C6H5N2+
105.0572	11	C7H7N+
106.0651	148	C7H8N+
107.0603	5	C6H7N2+
108.0443	4	C6H6NO+
115.0542	1	C9H7+
116.0495	9	C8H6N+
117.0335	17	C8H5O+
117.0447	27	C7H5N2+
117.0573	5	C8H7N+
118.0412	1	C8H6O+
118.0525	2	C7H6N2+
118.065	9	C8H8N+
119.0603	21	C7H7N2+
120.0204	1	C5H2N3O+
120.0808	5	C8H10N+
122.06	1	C7H8NO+
130.0651	57	C9H8N+
131.049	1	C9H7O+
131.0604	4	C8H7N2+
132.0682	9	C8H8N2+
132.0807	1	C9H10N+
134.0598	4	C8H8NO+
134.0712	26	C7H8N3+
143.0605	5	C9H7N2+
145.0396	282	C8H5N2O+
146.071	1	C8H8N3+
146.0838	1	C9H10N2+
158.0605	5	C10H8NO+
158.0712	36	C9H8N3+
159.079	24	C9H9N3+
173.0709	3	C10H9N2O+
174.0788	319	C10H10N2O+
175.0977	999	C9H11N4+
186.0661	12	C10H8N3O+
187.0738	9	C10H9N3O+
202.0844	1	C10H10N4O+
203.0926	997	C10H11N4O+
