Mass spectrum: Terbutryn; LC-ESI-QFT; MS2; CE: 90; R=17500; [M+H]+
Name: Terbutryn
Name: 2-N-tert-butyl-4-N-ethyl-6-methylsulfanyl-1,3,5-triazine-2,4-diamine
Formula: C10H19N5S
Exact mass: 241.1361
SMILES: CCNC1=NC(SC)=NC(NC(C)(C)C)=N1
InChI: InChI=1S/C10H19N5S/c1-6-11-7-12-8(15-10(2,3)4)14-9(13-7)16-5/h6H2,1-5H3,(H2,11,12,13,14,15)
Instrument: Q Exactive Orbitrap (Thermo Scientific)
Instrument type: LC-ESI-QFT
Ms type: MS2
Ion mode: POSITIVE
Ionization: ESI
Fragmentation mode: HCD
Collision energy: 90
Resolution: 17500
Column name: Acquity BEH C18 1.7um, 2.1x150mm (Waters)
Retention time: 16.520 min
Base peak: 79.0212
Precursor m/z: 242.1434
Precursor type: [M+H]+
Precursor intensity: 51744662.40625
m/z	relative intensity	assigned
57.0699	38	C4H9+
61.0107	3	C2H5S+
68.0243	999	C2H2N3+
69.0448	1	C3H5N2+
70.04	3	C2H4N3+
71.0604	505	C3H7N2+
74.0059	348	C2H4NS+
85.0509	125	C2H5N4+
91.0325	309	C2H7N2S+
96.0556	377	C4H6N3+
99.001	3	C3H3N2S+
102.0373	8	C4H8NS+
110.0462	79	C3H4N5+
112.0614	1	C3H6N5+
113.0822	20	C4H9N4+
116.0277	218	C3H6N3S+
138.0775	56	C5H8N5+
143.0259	1	C3H5N5S+
144.0591	48	C5H10N3S+
158.0496	40	C4H8N5S+
184.065	1	C6H10N5S+
186.0809	36	C6H12N5S+
