Mass spectrum: Tembotrione; LC-ESI-QFT; MS2; CE: 90; R=17500; [M-H]-
Name: Tembotrione
Name: 2-[2-chloro-4-methylsulfonyl-3-(2,2,2-trifluoroethoxymethyl)benzoyl]cyclohexane-1,3-dione
Formula: C17H16ClF3O6S
Exact mass: 440.0308
SMILES: CS(=O)(=O)C1=C(COCC(F)(F)F)C(Cl)=C(C=C1)C(=O)C1C(=O)CCCC1=O
InChI: InChI=1S/C17H16ClF3O6S/c1-28(25,26)13-6-5-9(15(18)10(13)7-27-8-17(19,20)21)16(24)14-11(22)3-2-4-12(14)23/h5-6,14H,2-4,7-8H2,1H3
Instrument: Q Exactive Orbitrap (Thermo Scientific)
Instrument type: LC-ESI-QFT
Ms type: MS2
Ion mode: NEGATIVE
Ionization: ESI
Fragmentation mode: HCD
Collision energy: 90
Resolution: 17500
Column name: Acquity BEH C18 1.7um, 2.1x150mm (Waters)
Retention time: 16.872 min
Base peak: 291.0599
Precursor m/z: 439.0235
Precursor type: [M-H]-
Precursor intensity: 2108257.75
m/z	relative intensity	assigned
51.0239	999	C4H3-
63.9624	361	O2S-
68.9958	656	CF3-
93.0347	538	C6H5O-
117.0345	184	C8H5O-
139.0554	299	C11H7-
143.0504	205	C10H7O-
169.0658	464	C12H9O-
183.0452	641	C12H7O2-
184.0529	187	C12H8O2-
195.045	286	C13H7O2-
197.0607	536	C13H9O2-
223.0404	244	C14H7O3-
224.0478	388	C12H10F2S-
226.064	145	C9H13F3OS-
237.0556	500	C13H11F2S-
238.0638	153	C15H10O3-
