Mass spectrum: Formononetin; LC-ESI-QFT; MS2; CE: 30; R=17500; [M-H]-
Name: Formononetin
Name: 7-hydroxy-3-(4-methoxyphenyl)chromen-4-one
Formula: C16H12O4
Exact mass: 268.0736
SMILES: COC1=CC=C(C=C1)C1=COC2=C(C=CC(O)=C2)C1=O
InChI: InChI=1S/C16H12O4/c1-19-12-5-2-10(3-6-12)14-9-20-15-8-11(17)4-7-13(15)16(14)18/h2-9,17H,1H3
Instrument: Q Exactive Orbitrap (Thermo Scientific)
Instrument type: LC-ESI-QFT
Ms type: MS2
Ion mode: NEGATIVE
Ionization: ESI
Fragmentation mode: HCD
Collision energy: 30
Resolution: 17500
Column name: Acquity BEH C18 1.7um, 2.1x150mm (Waters)
Retention time: 16.859 min
Base peak: 291.0599
Precursor m/z: 267.0663
Precursor type: [M-H]-
Precursor intensity: 39571500.44336
m/z	relative intensity	assigned
132.0212	3	C8H4O2-
135.0093	1	C7H3O3-
195.0455	1	C13H7O2-
208.0535	2	C14H8O2-
223.0398	4	C14H7O3-
224.0479	2	C14H8O3-
251.0351	5	C15H7O4-
252.0428	999	C15H8O4-
267.0663	915	C16H11O4-
