Mass spectrum: Parinol; LC-ESI-QFT; MS2; CE: 15; R=17500; [M+H]+
Name: Parinol
Name: bis(4-chlorophenyl)-pyridin-3-ylmethanol
Formula: C18H13Cl2NO
Exact mass: 329.0374
SMILES: OC(C1=CC=C(Cl)C=C1)(C1=CC=C(Cl)C=C1)C1=CC=CN=C1
InChI: InChI=1S/C18H13Cl2NO/c19-16-7-3-13(4-8-16)18(22,15-2-1-11-21-12-15)14-5-9-17(20)10-6-14/h1-12,22H
Instrument: Q Exactive Orbitrap (Thermo Scientific)
Instrument type: LC-ESI-QFT
Ms type: MS2
Ion mode: POSITIVE
Ionization: ESI
Fragmentation mode: HCD
Collision energy: 15
Resolution: 17500
Column name: Acquity BEH C18 1.7um, 2.1x150mm (Waters)
Retention time: 18.401 min
Base peak: 79.0211
Precursor m/z: 330.0447
Precursor type: [M+H]+
Precursor intensity: 16562132.5
m/z	relative intensity	assigned
218.0383	1	C12H9ClNO+
219.0459	1	C12H10ClNO+
330.0445	999	C18H14Cl2NO+
