Mass spectrum: 1-Amino-2-methylanthraquinone; LC-ESI-QFT; MS2; CE: 90; R=17500; [M+H]+
Name: 1-Amino-2-methylanthraquinone
Name: 1-amino-2-methylanthracene-9,10-dione
Formula: C15H11NO2
Exact mass: 237.0790
SMILES: CC1=CC=C2C(=O)C3=C(C=CC=C3)C(=O)C2=C1N
InChI: InChI=1S/C15H11NO2/c1-8-6-7-11-12(13(8)16)15(18)10-5-3-2-4-9(10)14(11)17/h2-7H,16H2,1H3
Instrument: Q Exactive Orbitrap (Thermo Scientific)
Instrument type: LC-ESI-QFT
Ms type: MS2
Ion mode: POSITIVE
Ionization: ESI
Fragmentation mode: HCD
Collision energy: 90
Resolution: 17500
Column name: Acquity BEH C18 1.7um, 2.1x150mm (Waters)
Retention time: 18.494 min
Base peak: 79.0212
Precursor m/z: 238.0863
Precursor type: [M+H]+
Precursor intensity: 1413626.4375
m/z	relative intensity	assigned
53.0387	48	C4H5+
65.0385	26	C5H5+
72.0444	10	C3H6NO+
77.0386	15	C6H5+
79.0543	94	C6H7+
91.0543	67	C7H7+
95.0492	148	C6H7O+
104.0496	53	C7H6N+
105.0336	174	C7H5O+
106.0652	186	C7H8N+
115.0543	74	C9H7+
124.0758	29	C7H10NO+
128.0621	25	C10H8+
130.0289	16	C8H4NO+
133.0285	13	C8H5O2+
134.0601	280	C8H8NO+
139.0544	45	C11H7+
141.0699	36	C11H9+
152.0621	83	C12H8+
153.0701	52	C12H9+
155.0857	17	C12H11+
160.0394	23	C9H6NO2+
165.07	999	C13H9+
166.0653	133	C12H8N+
166.0781	23	C13H10+
167.0731	981	C12H9N+
168.057	136	C12H8O+
169.0649	10	C12H9O+
177.0571	33	C13H7N+
180.0809	257	C13H10N+
181.0649	11	C13H9O+
181.0888	70	C13H11N+
182.0607	7	C12H8NO+
182.0969	9	C13H12N+
183.0807	6	C13H11O+
190.0652	55	C14H8N+
191.0731	37	C14H9N+
192.0809	25	C14H10N+
193.0651	69	C14H9O+
193.0889	26	C14H11N+
194.0602	43	C13H8NO+
194.0719	14	C14H10O+
195.068	517	C13H9NO+
208.0759	33	C14H10NO+
209.0836	26	C14H11NO+
210.0912	8	C14H12NO+
211.0762	8	C14H11O2+
220.0759	11	C15H10NO+
221.0598	9	C15H9O2+
222.0551	62	C14H8NO2+
223.063	142	C14H9NO2+
236.0711	14	C15H10NO2+
238.0863	18	C15H12NO2+
