Mass spectrum: Carbimazole; LC-ESI-QFT; MS2; CE: 15; R=17500; [M+H]+
Name: Carbimazole
Name: ethyl 3-methyl-2-sulfanylideneimidazole-1-carboxylate
Formula: C7H10N2O2S
Exact mass: 186.0463
SMILES: CCOC(=O)N1C=CN(C)C1=S
InChI: InChI=1S/C7H10N2O2S/c1-3-11-7(10)9-5-4-8(2)6(9)12/h4-5H,3H2,1-2H3
Instrument: Q Exactive Orbitrap (Thermo Scientific)
Instrument type: LC-ESI-QFT
Ms type: MS2
Ion mode: POSITIVE
Ionization: ESI
Fragmentation mode: HCD
Collision energy: 15
Resolution: 17500
Column name: Acquity BEH C18 1.7um, 2.1x150mm (Waters)
Retention time: 11.592 min
Base peak: 79.0211
Precursor m/z: 187.0536
Precursor type: [M+H]+
Precursor intensity: 8326645
m/z	relative intensity	assigned
56.0495	1	C3H6N+
57.0573	5	C3H7N+
74.0059	4	C2H4NS+
83.0602	1	C4H7N2+
88.0215	20	C3H6NS+
102.0372	2	C4H8NS+
111.0915	1	C6H11N2+
114.0245	4	C4H6N2S+
115.0324	999	C4H7N2S+
141.0481	1	C6H9N2S+
143.0637	295	C6H11N2S+
159.0223	55	C5H7N2O2S+
187.0536	260	C7H11N2O2S+
