Mass spectrum: UK-343664; LC-ESI-QFT; MS2; CE: 90; R=17500; [M+H]+
Name: UK-343664
Name: 3-ethyl-5-[5-(4-ethylpiperazin-1-yl)sulfonyl-2-propoxyphenyl]-2-(pyridin-2-ylmethyl)-4H-pyrazolo[4,3-d]pyrimidin-7-one
Formula: C28H35N7O4S
Exact mass: 565.2471
SMILES: CCCOC1=C(C=C(C=C1)S(=O)(=O)N1CCN(CC)CC1)C1=NC2=C(CC)N(CC3=CC=CC=N3)N=C2C(=O)N1
InChI: InChI=1S/C28H35N7O4S/c1-4-17-39-24-11-10-21(40(37,38)34-15-13-33(6-3)14-16-34)18-22(24)27-30-25-23(5-2)35(32-26(25)28(36)31-27)19-20-9-7-8-12-29-20/h7-12,18H,4-6,13-17,19H2,1-3H3,(H,30,31,36)
Instrument: Q Exactive Orbitrap (Thermo Scientific)
Instrument type: LC-ESI-QFT
Ms type: MS2
Ion mode: POSITIVE
Ionization: ESI
Fragmentation mode: HCD
Collision energy: 90
Resolution: 17500
Column name: Acquity BEH C18 1.7um, 2.1x150mm (Waters)
Retention time: 14.203 min
Base peak: 79.0211
Precursor m/z: 566.2544
Precursor type: [M+H]+
Precursor intensity: 4803349.125
m/z	relative intensity	assigned
53.0022	8	C3HO+
53.0386	4	C4H5+
54.0338	7	C3H4N+
55.0416	2	C3H5N+
55.0543	2	C4H7+
56.0495	168	C3H6N+
57.0573	26	C3H7N+
58.0651	168	C3H8N+
65.0386	501	C5H5+
66.0464	22	C5H6+
67.0416	10	C4H5N+
68.0494	10	C4H6N+
70.0651	174	C4H8N+
71.0604	2	C3H7N2+
71.073	31	C4H9N+
72.0808	999	C4H10N+
78.0338	5	C5H4N+
80.0369	6	C4H4N2+
80.0495	42	C5H6N+
81.0448	6	C4H5N2+
82.0526	3	C4H6N2+
82.0651	6	C5H8N+
83.0491	2	C5H7O+
83.0604	29	C4H7N2+
84.0683	33	C4H8N2+
84.0808	90	C5H10N+
85.0761	6	C4H9N2+
91.0543	2	C7H7+
92.0495	237	C6H6N+
93.0574	297	C6H7N+
94.0652	28	C6H8N+
95.0605	2	C5H7N2+
96.0444	18	C5H6NO+
96.0681	6	C5H8N2+
97.0761	12	C5H9N2+
98.0839	41	C5H10N2+
99.0917	80	C5H11N2+
105.0449	9	C6H5N2+
106.0401	27	C5H4N3+
106.0651	2	C7H8N+
107.0477	4	C5H5N3+
107.0605	4	C6H7N2+
108.0445	2	C6H6NO+
110.0601	431	C6H8NO+
111.0916	3	C6H11N2+
113.1074	10	C6H13N2+
115.0542	8	C9H7+
115.1231	3	C6H15N2+
117.0572	11	C8H7N+
118.0288	1	C7H4NO+
118.0527	5	C7H6N2+
118.0651	4	C8H8N+
119.0604	6	C7H7N2+
120.0445	7	C7H6NO+
120.0555	2	C6H6N3+
124.0756	3	C7H10NO+
128.0494	7	C9H6N+
129.0447	8	C8H5N2+
130.0652	8	C9H8N+
131.0605	6	C8H7N2+
134.0602	1	C8H8NO+
136.0508	5	C6H6N3O+
142.0653	7	C10H8N+
143.0604	8	C9H7N2+
144.0556	8	C8H6N3+
145.0398	6	C8H5N2O+
145.0645	5	C10H9O+
145.0761	2	C9H9N2+
146.0713	4	C8H8N3+
153.0572	2	C11H7N+
154.066	14	C5H14O3S+
155.0603	20	C10H7N2+
156.0556	5	C9H6N3+
156.0682	2	C10H8N2+
156.0812	3	C5H16O3S+
157.0638	3	C9H7N3+
157.0761	6	C10H9N2+
167.0731	2	C12H9N+
168.0682	6	C11H8N2+
169.0762	13	C11H9N2+
170.0598	5	C11H8NO+
170.0713	17	C10H8N3+
171.0552	3	C10H7N2O+
172.0507	5	C9H6N3O+
179.0603	3	C12H7N2+
180.0555	5	C11H6N3+
181.0634	2	C11H7N3+
181.0759	7	C12H9N2+
182.0471	3	C6H8N5S+
182.06	8	C12H8NO+
182.0714	6	C11H8N3+
183.0666	6	C10H7N4+
184.0758	2	C12H10NO+
184.0871	11	C11H10N3+
185.0716	2	C5H15NO4S+
186.0663	9	C10H8N3O+
193.0762	2	C13H9N2+
196.0869	1	C12H10N3+
197.0713	7	C12H9N2O+
197.0822	19	C11H9N4+
198.0664	7	C11H8N3O+
198.0901	4	C11H10N4+
201.077	1	C10H9N4O+
209.0707	3	C13H9N2O+
210.0663	5	C12H8N3O+
211.0616	34	C11H7N4O+
211.0981	7	C12H11N4+
212.0817	5	C12H10N3O+
213.0775	3	C5H15N3O4S+
224.0691	6	C12H8N4O+
224.0813	1	C5H14N5O3S+
225.0771	35	C12H9N4O+
226.0851	13	C12H10N4O+
227.0929	3	C12H11N4O+
230.0803	7	C11H10N4O2+
238.0845	2	C5H14N6O3S+
239.0563	4	C12H7N4O2+
239.0925	9	C13H11N4O+
253.0719	22	C13H9N4O2+
255.0881	3	C13H11N4O2+
267.0877	2	C14H11N4O2+
286.0694	3	C13H10N4O4+
