Mass spectrum: Pyraclostrobin; LC-ESI-QFT; MS2; CE: 75; R=17500; [M+H]+
Name: Pyraclostrobin
Name: methyl N-[2-[[1-(4-chlorophenyl)pyrazol-3-yl]oxymethyl]phenyl]-N-methoxycarbamate
Formula: C19H18ClN3O4
Exact mass: 387.0986
SMILES: CON(C(=O)OC)C1=C(COC2=NN(C=C2)C2=CC=C(Cl)C=C2)C=CC=C1
InChI: InChI=1S/C19H18ClN3O4/c1-25-19(24)23(26-2)17-6-4-3-5-14(17)13-27-18-11-12-22(21-18)16-9-7-15(20)8-10-16/h3-12H,13H2,1-2H3
Instrument: Q Exactive Orbitrap (Thermo Scientific)
Instrument type: LC-ESI-QFT
Ms type: MS2
Ion mode: POSITIVE
Ionization: ESI
Fragmentation mode: HCD
Collision energy: 75
Resolution: 17500
Column name: Acquity BEH C18 1.7um, 2.1x150mm (Waters)
Retention time: 18.708 min
Base peak: 79.0211
Precursor m/z: 388.1059
Precursor type: [M+H]+
Precursor intensity: 16607221.5
m/z	relative intensity	assigned
51.023	3	C4H3+
53.0386	26	C4H5+
55.0179	2	C3H3O+
58.0287	5	C2H4NO+
63.0229	2	C5H3+
65.0385	40	C5H5+
66.0464	30	C5H6+
75.0229	8	C6H3+
75.044	7	C3H7O2+
77.0385	15	C6H5+
78.0338	6	C5H4N+
78.0464	57	C6H6+
79.0542	41	C6H7+
80.0495	13	C5H6N+
81.0335	3	C5H5O+
81.0572	2	C5H7N+
81.0699	2	C6H9+
86.9995	5	C4H4Cl+
89.0385	19	C7H5+
90.0338	6	C6H4N+
90.0463	5	C7H6+
91.0417	40	C6H5N+
91.0542	152	C7H7+
92.0257	23	C6H4O+
92.0495	34	C6H6N+
93.0335	7	C6H5O+
93.0575	14	C6H7N+
93.0699	3	C7H9+
94.0414	26	C6H6O+
95.0492	78	C6H7O+
96.0446	14	C5H6NO+
98.9995	5	C5H4Cl+
103.0417	18	C7H5N+
104.0495	819	C7H6N+
105.0573	999	C7H7N+
106.0288	46	C6H4NO+
106.0651	145	C7H8N+
107.0491	11	C7H7O+
107.0729	31	C7H9N+
108.0444	51	C6H6NO+
109.0522	5	C6H7NO+
109.0649	14	C7H9O+
110.0601	6	C6H8NO+
110.9997	4	C6H4Cl+
111.0441	8	C6H7O2+
116.0495	34	C8H6N+
117.0574	44	C8H7N+
118.0651	93	C8H8N+
119.0366	312	C7H5NO+
120.0444	737	C7H6NO+
121.052	13	C7H7NO+
121.0648	153	C8H9O+
122.0599	10	C7H8NO+
123.0679	115	C7H9NO+
125.0148	2	C7H6Cl+
126.0106	3	C6H5ClN+
128.0495	34	C9H6N+
129.0102	17	C6H6ClO+
129.0447	5	C8H5N2+
129.0574	5	C9H7N+
130.0288	76	C8H4NO+
130.04	20	C7H4N3+
130.065	6	C9H8N+
131.0602	5	C8H7N2+
132.0444	567	C8H6NO+
133.0522	512	C8H7NO+
134.0236	144	C7H4NO2+
134.06	87	C8H8NO+
135.044	7	C8H7O2+
135.0678	5	C8H9NO+
136.0757	7	C8H10NO+
137.0472	20	C7H7NO2+
137.0834	3	C8H11NO+
138.0106	16	C7H5ClN+
139.0058	38	C6H4ClN2+
139.0183	2	C7H6ClN+
142.0527	4	C9H6N2+
144.0443	10	C9H6NO+
144.0807	4	C10H10N+
146.0233	4	C8H4NO2+
146.0601	38	C9H8NO+
147.0317	3	C5H8ClN2O+
148.0393	107	C8H6NO2+
149.0472	373	C8H7NO2+
150.0107	2	C8H5ClN+
151.0184	5	C8H6ClN+
151.0626	5	C8H9NO2+
161.0472	3	C9H7NO2+
162.055	258	C9H8NO2+
163.0628	165	C9H9NO2+
164.0707	12	C9H10NO2+
204.0807	16	C15H10N+
216.068	3	C15H8N2+
218.0841	30	C15H10N2+
219.0915	11	C15H11N2+
232.0754	5	C16H10NO+
232.087	7	C15H10N3+
233.0951	4	C15H11N3+
241.0523	5	C17H7NO+
243.0793	22	C16H9N3+
253.0527	23	C15H10ClN2+
