Mass spectrum: Chloridazon; LC-ESI-QFT; MS2; CE: 60; R=17500; [M-H]-
Name: Chloridazon
Name: 5-amino-4-chloro-2-phenylpyridazin-3-one
Formula: C10H8ClN3O
Exact mass: 221.0356
SMILES: NC1=C(Cl)C(=O)N(N=C1)C1=CC=CC=C1
InChI: InChI=1S/C10H8ClN3O/c11-9-8(12)6-13-14(10(9)15)7-4-2-1-3-5-7/h1-6H,12H2
Instrument: Q Exactive Orbitrap (Thermo Scientific)
Instrument type: LC-ESI-QFT
Ms type: MS2
Ion mode: NEGATIVE
Ionization: ESI
Fragmentation mode: HCD
Collision energy: 60
Resolution: 17500
Column name: Acquity BEH C18 1.7um, 2.1x150mm (Waters)
Retention time: 13.150 min
Base peak: 118.0299
Precursor m/z: 220.0283
Precursor type: [M-H]-
Precursor intensity: 8896700.900391
m/z	relative intensity	assigned
50.0036	3	C3N-
60.9725	2	CClN-
64.0067	8	C3N2-
65.0145	169	C3HN2-
65.9985	157	C3NO-
73.9803	283	C2HClN-
74.9643	999	C2ClO-
90.0349	3	C6H4N-
92.0505	23	C6H6N-
100.9674	36	C3ClNO-
100.9912	17	C3H2ClN2-
101.9752	11	C3HClNO-
113.0397	2	C9H5-
117.0458	221	C7H5N2-
118.0297	13	C7H4NO-
126.9707	6	C4ClN2O-
133.0412	4	C7H5N2O-
141.0459	9	C9H5N2-
144.0566	14	C8H6N3-
150.0116	119	C8H5ClN-
184.0515	9	C10H6N3O-
220.0283	22	C10H7ClN3O-
