Mass spectrum: 2-Amino-N-cyclohexyl-N-methylbenzenesulfonamide; LC-ESI-QFT; MS2; CE: 15; R=17500; [M+H]+
Name: 2-Amino-N-cyclohexyl-N-methylbenzenesulfonamide
Formula: C13H20N2O2S
Exact mass: 268.1245
SMILES: CN(C1CCCCC1)S(=O)(=O)C1=CC=CC=C1N
InChI: InChI=1S/C13H20N2O2S/c1-15(11-7-3-2-4-8-11)18(16,17)13-10-6-5-9-12(13)14/h5-6,9-11H,2-4,7-8,14H2,1H3
Instrument: Q Exactive Orbitrap (Thermo Scientific)
Instrument type: LC-ESI-QFT
Ms type: MS2
Ion mode: POSITIVE
Ionization: ESI
Fragmentation mode: HCD
Collision energy: 15
Resolution: 17500
Column name: Acquity BEH C18 1.7um, 2.1x150mm (Waters)
Retention time: 17.468 min
Base peak: 79.0211
Precursor m/z: 269.1318
Precursor type: [M+H]+
Precursor intensity: 6885042.4375
m/z	relative intensity	assigned
83.0855	33	C6H11+
92.0496	9	C6H6N+
156.0113	15	C6H6NO2S+
174.022	232	C12H2N2+
187.0536	999	C7H11N2O2S+
188.0388	13	C13H4N2+
193.158	13	C13H21O+
195.138	160	C12H19O2+
269.1327	166	C13H21N2O2S+
