Mass spectrum: PharmaGSID_47263; LC-ESI-QFT; MS2; CE: 90; R=17500; [M+H]+
Name: PharmaGSID_47263
Name: 1-Ethyl-5-(4-hydroxyphenyl)-3-methyl-6,7-dihydropyrazolo(4,3-E)(1,4)diazepin-8(1H)-one
Name: 1-ethyl-5-(4-hydroxyphenyl)-3-methyl-6,7-dihydropyrazolo[4,3-e][1,4]diazepin-8-one
Formula: C15H16N4O2
Exact mass: 284.1273
SMILES: CCN1N=C(C)C2=C1C(=O)NCC(=N2)C1=CC=C(O)C=C1
InChI: InChI=1S/C15H16N4O2/c1-3-19-14-13(9(2)18-19)17-12(8-16-15(14)21)10-4-6-11(20)7-5-10/h4-7,20H,3,8H2,1-2H3,(H,16,21)
Instrument: Q Exactive Orbitrap (Thermo Scientific)
Instrument type: LC-ESI-QFT
Ms type: MS2
Ion mode: POSITIVE
Ionization: ESI
Fragmentation mode: HCD
Collision energy: 90
Resolution: 17500
Column name: Acquity BEH C18 1.7um, 2.1x150mm (Waters)
Retention time: 15.033 min
Base peak: 79.0212
Precursor m/z: 285.1346
Precursor type: [M+H]+
Precursor intensity: 8989537.125
m/z	relative intensity	assigned
50.0152	6	C4H2+
52.0182	19	C3H2N+
53.0022	26	C3HO+
53.0386	71	C4H5+
53.9974	3	C2NO+
54.0339	37	C3H4N+
55.0178	18	C3H3O+
55.0291	7	C2H3N2+
55.0543	2	C4H7+
56.0495	56	C3H6N+
58.0652	2	C3H8N+
64.0181	4	C4H2N+
65.0385	72	C5H5+
66.0338	13	C4H4N+
67.029	27	C3H3N2+
67.0416	10	C4H5N+
68.013	17	C3H2NO+
68.0495	43	C4H6N+
69.0447	16	C3H5N2+
70.0651	3	C4H8N+
77.0385	23	C6H5+
77.9975	11	C4NO+
78.0338	51	C5H4N+
79.0179	62	C5H3O+
79.0291	55	C4H3N2+
79.0542	109	C6H7+
80.013	13	C4H2NO+
80.0495	48	C5H6N+
81.0335	7	C5H5O+
81.0447	83	C4H5N2+
82.0287	20	C4H4NO+
82.0526	12	C4H6N2+
82.0652	9	C5H8N+
83.0604	52	C4H7N2+
84.0446	1	C4H6NO+
84.0681	3	C4H8N2+
85.076	4	C4H9N2+
89.0386	14	C7H5+
91.0292	4	C5H3N2+
91.0543	68	C7H7+
92.0495	28	C6H6N+
93.0448	18	C5H5N2+
94.0285	2	C5H4NO+
94.0405	7	C4H4N3+
94.0526	2	C5H6N2+
94.0651	11	C6H8N+
95.0492	211	C6H7O+
95.0604	29	C5H7N2+
96.0444	16	C5H6NO+
96.0556	12	C4H6N3+
96.0681	4	C5H8N2+
96.0808	5	C6H10N+
97.0396	2	C4H5N2O+
97.0634	9	C4H7N3+
103.0543	12	C8H7+
104.0495	54	C7H6N+
105.0337	12	C7H5O+
105.0448	119	C6H5N2+
105.0698	6	C8H9+
106.0402	8	C5H4N3+
106.0525	8	C6H6N2+
106.0652	34	C7H8N+
107.0491	999	C7H7O+
108.0442	2	C6H6NO+
108.0556	32	C5H6N3+
108.0679	2	C6H8N2+
109.0397	244	C5H5N2O+
110.06	9	C6H8NO+
110.0713	5	C5H8N3+
111.0441	33	C6H7O2+
111.0917	16	C6H11N2+
115.0543	25	C9H7+
116.0494	19	C8H6N+
117.045	3	C7H5N2+
117.0574	14	C8H7N+
117.0699	4	C9H9+
118.0651	12	C8H8N+
119.0243	9	C6H3N2O+
119.0492	53	C8H7O+
119.0604	24	C7H7N2+
120.0444	119	C7H6NO+
120.0556	83	C6H6N3+
121.0284	68	C7H5O2+
121.0395	44	C6H5N2O+
121.0758	9	C7H9N2+
122.0348	10	C5H4N3O+
122.0601	24	C7H8NO+
122.0712	38	C6H8N3+
123.055	2	C6H7N2O+
124.0507	11	C5H6N3O+
124.087	11	C6H10N3+
126.0424	6	C5H6N2O2+
126.1027	4	C6H12N3+
127.0501	6	C5H7N2O2+
128.0495	5	C9H6N+
128.0621	9	C10H8+
129.0448	7	C8H5N2+
129.0699	5	C10H9+
130.0401	7	C7H4N3+
130.0653	9	C9H8N+
131.0492	36	C9H7O+
131.0604	11	C8H7N2+
131.0727	2	C9H9N+
132.0444	224	C8H6NO+
133.0521	130	C8H7NO+
133.064	7	C7H7N3+
134.0349	28	C6H4N3O+
134.06	57	C8H8NO+
135.0554	3	C7H7N2O+
135.0668	3	C6H7N4+
136.0506	24	C6H6N3O+
136.0758	2	C8H10NO+
136.0871	3	C7H10N3+
137.0709	15	C7H9N2O+
139.0498	2	C6H7N2O2+
140.0496	6	C10H6N+
142.0653	7	C10H8N+
144.0445	12	C9H6NO+
144.0557	9	C8H6N3+
144.0807	6	C10H10N+
145.0646	4	C10H9O+
146.0601	42	C9H8NO+
146.0709	17	C8H8N3+
147.0554	26	C8H7N2O+
147.0664	25	C7H7N4+
148.0393	57	C8H6NO2+
148.0748	5	C7H8N4+
148.0869	8	C8H10N3+
149.0583	23	C7H7N3O+
149.0822	4	C7H9N4+
150.0552	3	C8H8NO2+
150.0664	5	C7H8N3O+
151.0503	4	C7H7N2O2+
151.0615	8	C6H7N4O+
152.0455	344	C6H6N3O2+
154.0663	10	C11H8N+
155.0606	10	C10H7N2+
155.0728	4	C11H9N+
156.0685	4	C10H8N2+
156.0809	6	C11H10N+
157.0514	8	C8H5N4+
157.0649	6	C11H9O+
157.0761	6	C10H9N2+
158.0475	3	C9H6N2O+
158.0594	22	C8H6N4+
159.0554	7	C9H7N2O+
159.068	21	C10H9NO+
160.0628	9	C9H8N2O+
160.0758	8	C10H10NO+
161.0711	15	C9H9N2O+
162.0552	3	C9H8NO2+
163.0615	9	C7H7N4O+
164.0818	3	C8H10N3O+
165.0659	1	C8H9N2O2+
166.0606	13	C7H8N3O2+
167.0731	6	C12H9N+
168.081	3	C12H10N+
169.0513	3	C9H5N4+
169.0759	5	C11H9N2+
170.0599	10	C11H8NO+
170.0841	2	C11H10N2+
171.0552	7	C10H7N2O+
172.0631	5	C10H8N2O+
172.0757	33	C11H10NO+
173.071	30	C10H9N2O+
173.0797	2	C9H9N4+
173.0835	5	C9H9N4+
174.0664	10	C9H8N3O+
174.0789	8	C10H10N2O+
176.0693	37	C8H8N4O+
182.0606	3	C12H8NO+
182.0841	8	C12H10N2+
183.068	18	C12H9NO+
184.0633	3	C11H8N2O+
184.0756	20	C12H10NO+
184.0853	3	C11H10N3+
185.0711	24	C11H9N2O+
185.0833	6	C12H11NO+
186.0664	6	C10H8N3O+
186.0789	4	C11H10N2O+
187.0743	2	C10H9N3O+
187.0866	13	C11H11N2O+
195.0551	3	C12H7N2O+
196.1	3	C13H12N2+
197.0716	10	C12H9N2O+
197.0811	2	C11H9N4+
198.0666	1	C11H8N3O+
198.0786	5	C12H10N2O+
199.0754	2	C13H11O2+
199.0866	6	C12H11N2O+
200.0819	38	C11H10N3O+
201.1022	3	C12H13N2O+
209.0708	6	C13H9N2O+
210.067	2	C14H10O2+
210.079	7	C13H10N2O+
211.0869	2	C13H11N2O+
212.0817	11	C12H10N3O+
214.0967	3	C12H12N3O+
223.0867	2	C14H11N2O+
225.1021	2	C14H13N2O+
226.098	3	C13H12N3O+
227.093	2	C12H11N4O+
228.1132	6	C13H14N3O+
