Mass spectrum: Haloxyfop; LC-ESI-QFT; MS2; CE: 30; R=17500; [M+H]+
Name: Haloxyfop
Name: 2-[4-[3-chloro-5-(trifluoromethyl)pyridin-2-yl]oxyphenoxy]propanoic acid
Formula: C15H11ClF3NO4
Exact mass: 361.0329
SMILES: CC(OC1=CC=C(OC2=NC=C(C=C2Cl)C(F)(F)F)C=C1)C(O)=O
InChI: InChI=1S/C15H11ClF3NO4/c1-8(14(21)22)23-10-2-4-11(5-3-10)24-13-12(16)6-9(7-20-13)15(17,18)19/h2-8H,1H3,(H,21,22)
Instrument: Q Exactive Orbitrap (Thermo Scientific)
Instrument type: LC-ESI-QFT
Ms type: MS2
Ion mode: POSITIVE
Ionization: ESI
Fragmentation mode: HCD
Collision energy: 30
Resolution: 17500
Column name: Acquity BEH C18 1.7um, 2.1x150mm (Waters)
Retention time: 18.650 min
Base peak: 79.0211
Precursor m/z: 362.0401
Precursor type: [M+H]+
Precursor intensity: 4067899.78125
m/z	relative intensity	assigned
91.0543	165	C7H7+
98.9842	45	CH4ClO3+
109.0053	3	C3H6ClO2+
119.0492	42	C8H7O+
121.0284	52	C7H5O2+
127.0156	48	C3H8ClO3+
128.0196	8	C4H7ClF2+
155.0469	19	C5H12ClO3+
156.0499	11	C6H11ClF2+
197.9935	5	C6H4ClF3NO+
260.045	7	C12H10ClF3N+
288.0043	12	C12H6ClF3NO2+
288.0399	151	C13H10ClF3NO+
289.0114	92	C12H7ClF3NO2+
290.0193	21	C12H8ClF3NO2+
298.0242	2	C14H8ClF3NO+
316.035	999	C14H10ClF3NO2+
362.0403	82	C15H12ClF3NO4+
