Mass spectrum: Melengestrol acetate; LC-ESI-QFT; MS2; CE: 15; R=17500; [M+H]+
Name: Melengestrol acetate
Name: [(8R,9S,10R,13S,14S,17R)-17-acetyl-6,10,13-trimethyl-16-methylidene-3-oxo-1,2,8,9,11,12,14,15-octahydrocyclopenta[a]phenanthren-17-yl] acetate
Formula: C25H32O4
Exact mass: 396.2301
SMILES: CC(=O)O[C@]1(C(C)=O)C(=C)C[C@H]2[C@@H]3C=C(C)C4=CC(=O)CC[C@]4(C)[C@H]3CC[C@]12C
InChI: InChI=1S/C25H32O4/c1-14-11-19-20(23(5)9-7-18(28)13-21(14)23)8-10-24(6)22(19)12-15(2)25(24,16(3)26)29-17(4)27/h11,13,19-20,22H,2,7-10,12H2,1,3-6H3/t19-,20+,22+,23-,24+,25+/m1/s1
Instrument: Q Exactive Orbitrap (Thermo Scientific)
Instrument type: LC-ESI-QFT
Ms type: MS2
Ion mode: POSITIVE
Ionization: ESI
Fragmentation mode: HCD
Collision energy: 15
Resolution: 17500
Column name: Acquity BEH C18 1.7um, 2.1x150mm (Waters)
Retention time: 18.605 min
Base peak: 79.0212
Precursor m/z: 397.2373
Precursor type: [M+H]+
Precursor intensity: 4239220.625
m/z	relative intensity	assigned
137.0964	5	C9H13O+
145.1013	5	C11H13+
157.1012	6	C12H13+
163.1116	8	C11H15O+
168.0421	14	C8H8O4+
175.1119	24	C12H15O+
185.0958	5	C13H13O+
185.1323	4	C14H17+
187.1119	67	C13H15O+
199.1121	3	C14H15O+
221.1322	12	C17H17+
223.1487	3	C17H19+
227.1435	5	C16H19O+
235.1476	2	C18H19+
237.1639	17	C18H21+
253.1588	6	C18H21O+
261.1637	25	C20H21+
262.1715	4	C20H22+
265.1594	2	C19H21O+
266.1662	5	C19H22O+
267.1749	15	C19H23O+
277.1591	4	C20H21O+
277.1953	33	C21H25+
279.1745	234	C20H23O+
286.1714	7	C22H22+
293.1903	39	C21H25O+
294.198	64	C21H26O+
295.2058	146	C21H27O+
301.1956	8	C23H25+
319.206	41	C23H27O+
322.1931	2	C22H26O2+
337.2164	999	C23H29O2+
397.2377	972	C25H33O4+
