Mass spectrum: 4,4`-Sulfonyldiphenol; LC-ESI-QFT; MS2; CE: 30; R=17500; [M-H]-
Name: 4,4'-Sulfonyldiphenol
Name: 4-(4-hydroxyphenyl)sulfonylphenol
Formula: C12H10O4S
Exact mass: 250.0300
SMILES: OC1=CC=C(C=C1)S(=O)(=O)C1=CC=C(O)C=C1
InChI: InChI=1S/C12H10O4S/c13-9-1-5-11(6-2-9)17(15,16)12-7-3-10(14)4-8-12/h1-8,13-14H
Instrument: Q Exactive Orbitrap (Thermo Scientific)
Instrument type: LC-ESI-QFT
Ms type: MS2
Ion mode: NEGATIVE
Ionization: ESI
Fragmentation mode: HCD
Collision energy: 30
Resolution: 17500
Column name: Acquity BEH C18 1.7um, 2.1x150mm (Waters)
Retention time: 13.529 min
Base peak: 249.0227
Precursor m/z: 249.0227
Precursor type: [M-H]-
Precursor intensity: 18411069.67871
m/z	relative intensity	assigned
79.9574	61	O3S-
92.0271	3	C6H4O-
108.0217	90	C6H4O2-
139.9939	1	C6H4O2S-
155.9887	39	C6H4O3S-
156.997	2	C6H5O3S-
157.0662	1	C11H9O-
184.053	10	C12H8O2-
185.0609	19	C12H9O2-
249.0227	999	C12H9O4S-
