Mass spectrum: AVE3295; LC-ESI-QFT; MS2; CE: 45; R=17500; [M-H]-
Name: AVE3295
Name: 5-Fluoro-N-[(1S)-1-phenylpropyl]-2-[(quinolin-8-ylsulfonyl)amino]benzamide
Name: 5-fluoro-N-[(1S)-1-phenylpropyl]-2-(quinolin-8-ylsulfonylamino)benzamide
Formula: C25H22FN3O3S
Exact mass: 463.1366
SMILES: CC[C@H](NC(=O)c1cc(F)ccc1NS(=O)(=O)c1cccc2cccnc12)c1ccccc1
InChI: InChI=1S/C25H22FN3O3S/c1-2-21(17-8-4-3-5-9-17)28-25(30)20-16-19(26)13-14-22(20)29-33(31,32)23-12-6-10-18-11-7-15-27-24(18)23/h3-16,21,29H,2H2,1H3,(H,28,30)/t21-/m0/s1
Instrument: Q Exactive Orbitrap (Thermo Scientific)
Instrument type: LC-ESI-QFT
Ms type: MS2
Ion mode: NEGATIVE
Ionization: ESI
Fragmentation mode: HCD
Collision energy: 45
Resolution: 17500
Column name: Acquity BEH C18 1.7um, 2.1x150mm (Waters)
Retention time: 17.482 min
Base peak: 462.1292
Precursor m/z: 462.1293
Precursor type: [M-H]-
Precursor intensity: 23372476.36475
m/z	relative intensity	assigned
61.9707	2	NOS-
63.9624	13	O2S-
64.0193	3	C4H2N-
65.9986	1	C3NO-
77.0145	10	C4HN2-
79.9575	3	O3S-
79.9812	9	H2NO2S-
84.0255	14	C4H3FN-
90.0349	1	C6H4N-
108.0256	2	C6H3FN-
109.0335	5	C6H4FN-
110.0411	94	C6H5FN-
111.0252	2	C6H4FO-
128.0506	356	C9H6N-
135.9863	1	C6H2NOS-
137.0156	1	C6H2FN2O-
138.9901	1	C6H2FNS-
143.0616	3	C9H7N2-
144.0455	537	C9H6NO-
146.0611	7	C9H8NO-
150.0234	18	C7H3FN2O-
151.0313	1	C7H4FN2O-
155.9925	2	C6H3FNOS-
160.077	1	C10H10NO-
163.0313	61	C8H4FN2O-
166.0662	90	C12H8N-
172.0404	21	C10H6NO2-
172.9955	3	C6H4FNO2S-
175.0097	6	C9H5NOS-
177.047	4	C9H6FN2O-
190.0662	10	C14H8N-
191.0621	21	C7H13NO3S-
192.0125	442	C9H6NO2S-
193.0203	10	C9H7NO2S-
197.0641	1	C10H13O2S-
210.0724	60	C14H9FN-
215.0615	65	C15H7N2-
217.077	554	C15H9N2-
218.0719	6	C14H8N3-
221.0649	3	C15H8FN-
222.06	9	C14H7FN2-
225.06	5	C14H8FNO-
230.0724	3	C15H8N3-
234.0593	1	C12H12NO2S-
235.0677	999	C15H8FN2-
237.0833	324	C15H10FN2-
239.0627	15	C14H8FN2O-
241.078	20	C11H15NO3S-
242.086	5	C14H11FN2O-
253.0783	21	C15H10FN2O-
258.0672	54	C16H8N3O-
259.0512	2	C16H7N2O2-
259.0749	40	C16H9N3O-
263.0624	15	C13H13NO3S-
269.1098	5	C16H14FN2O-
271.1253	45	C16H16FN2O-
300.0365	7	C18H8N2OS-
301.0451	28	C15H10FN2O2S-
378.1614	2	C25H20N3O-
398.1681	3	C25H21FN3O-
462.1293	81	C25H21FN3O3S-
