Mass spectrum: 2,5-Dimethoxy-4-chloroaniline; LC-ESI-QFT; MS2; CE: 90; R=17500; [M+H]+
Name: 2,5-Dimethoxy-4-chloroaniline
Name: 4-chloro-2,5-dimethoxyaniline
Formula: C8H10ClNO2
Exact mass: 187.0400
SMILES: COC1=CC(N)=C(OC)C=C1Cl
InChI: InChI=1S/C8H10ClNO2/c1-11-7-4-6(10)8(12-2)3-5(7)9/h3-4H,10H2,1-2H3
Instrument: Q Exactive Orbitrap (Thermo Scientific)
Instrument type: LC-ESI-QFT
Ms type: MS2
Ion mode: POSITIVE
Ionization: ESI
Fragmentation mode: HCD
Collision energy: 90
Resolution: 17500
Column name: Acquity BEH C18 1.7um, 2.1x150mm (Waters)
Retention time: 13.442 min
Base peak: 79.0211
Precursor m/z: 188.0473
Precursor type: [M+H]+
Precursor intensity: 2155035.84375
m/z	relative intensity	assigned
65.0386	10	C5H5+
67.0416	15	C4H5N+
74.9996	10	C3H4Cl+
78.0339	7	C5H4N+
79.0178	5	C5H3O+
80.013	13	C4H2NO+
80.0494	4	C5H6N+
81.0573	4	C5H7N+
82.065	4	C5H8N+
92.0494	3	C6H6N+
93.0574	7	C6H7N+
95.0366	32	C5H5NO+
95.0491	2	C6H7O+
96.0444	11	C5H6NO+
102.0105	16	C4H5ClN+
106.0287	4	C6H4NO+
108.0443	1	C6H6NO+
109.0523	3	C6H7NO+
110.0601	157	C6H8NO+
111.0441	5	C6H7O2+
123.0317	1	C6H5NO2+
124.0393	3	C6H6NO2+
128.9977	6	C5H4ClNO+
129.0102	7	C6H6ClO+
130.0055	999	C5H5ClNO+
138.055	293	C7H8NO2+
142.0053	3	C6H5ClNO+
144.0212	5	C6H7ClNO+
153.0783	3	C8H11NO2+
158.0004	144	C6H5ClNO2+
172.016	2	C7H7ClNO2+
173.0239	76	C7H8ClNO2+
