Mass spectrum: 2-[4-(Diethylamino)-2-hydroxybenzoyl]benzoic acid; LC-ESI-QFT; MS2; CE: 45; R=17500; [M+H]+
Name: 2-[4-(Diethylamino)-2-hydroxybenzoyl]benzoic acid
Name: 2-(4-(Diethylamino)-2-hydroxybenzoyl)benzoic acid
Formula: C18H19NO4
Exact mass: 313.1314
SMILES: CCN(CC)C1=CC(O)=C(C=C1)C(=O)C1=C(C=CC=C1)C(O)=O
InChI: InChI=1S/C18H19NO4/c1-3-19(4-2)12-9-10-15(16(20)11-12)17(21)13-7-5-6-8-14(13)18(22)23/h5-11,20H,3-4H2,1-2H3,(H,22,23)
Instrument: Q Exactive Orbitrap (Thermo Scientific)
Instrument type: LC-ESI-QFT
Ms type: MS2
Ion mode: POSITIVE
Ionization: ESI
Fragmentation mode: HCD
Collision energy: 45
Resolution: 17500
Column name: Acquity BEH C18 1.7um, 2.1x150mm (Waters)
Retention time: 17.555 min
Base peak: 79.0212
Precursor m/z: 314.1387
Precursor type: [M+H]+
Precursor intensity: 16370894.21875
m/z	relative intensity	assigned
58.0651	3	C3H8N+
65.0383	4	C5H5+
70.0651	1	C4H8N+
72.0807	13	C4H10N+
74.0964	1	C4H12N+
79.0541	3	C6H7+
82.0651	1	C5H8N+
91.0543	2	C7H7+
92.0495	1	C6H6N+
93.0335	1	C6H5O+
93.0699	2	C7H9+
95.049	2	C6H7O+
103.0541	2	C8H7+
105.0334	1	C7H5O+
109.0522	12	C6H7NO+
109.089	1	C7H11N+
110.06	47	C6H8NO+
111.044	2	C6H7O2+
118.065	1	C8H8N+
119.0728	2	C8H9N+
120.0444	4	C7H6NO+
120.0807	19	C8H10N+
121.0284	24	C7H5O2+
122.0599	27	C7H8NO+
131.0494	1	C9H7O+
133.0284	9	C8H5O2+
134.0596	1	C8H8NO+
136.0757	13	C8H10NO+
137.0835	66	C8H11NO+
138.0913	491	C8H12NO+
146.0598	2	C9H8NO+
148.0391	4	C8H6NO2+
148.1121	3	C10H14N+
149.0232	999	C8H5O3+
150.0914	1	C9H12NO+
157.0649	1	C11H9O+
163.0389	16	C9H7O3+
164.0704	24	C9H10NO2+
164.107	21	C10H14NO+
165.0699	1	C13H9+
166.1226	545	C10H16NO+
167.0338	7	C8H7O4+
180.0567	1	C13H8O+
181.0494	20	C9H9O4+
181.0641	2	C13H9O+
183.0447	1	C12H7O2+
194.096	2	C14H12N+
195.0801	2	C14H11O+
195.104	5	C14H13N+
196.0519	3	C13H8O2+
196.0754	1	C13H10NO+
197.0595	8	C13H9O2+
198.0554	1	C12H8NO2+
198.0673	3	C13H10O2+
199.0753	4	C13H11O2+
204.0808	1	C15H10N+
208.0757	9	C14H10NO+
209.06	1	C14H9O2+
210.0911	1	C14H12NO+
211.0628	3	C13H9NO2+
211.0996	1	C14H13NO+
212.0705	4	C13H10NO2+
213.091	1	C14H13O2+
221.0832	1	C15H11NO+
222.0549	1	C14H8NO2+
222.0909	9	C15H12NO+
223.0386	9	C14H7O3+
223.0754	6	C15H11O2+
223.0991	17	C15H13NO+
224.0705	38	C14H10NO2+
224.1069	7	C15H14NO+
225.0545	15	C14H9O3+
225.0791	1	C14H11NO2+
226.0631	2	C14H10O3+
226.0863	15	C14H12NO2+
227.0577	1	C13H9NO3+
232.076	8	C16H10NO+
233.0599	2	C16H9O2+
233.0837	3	C16H11NO+
235.0622	6	C15H9NO2+
236.0704	1	C15H10NO2+
238.0493	1	C14H8NO3+
238.0865	2	C15H12NO2+
239.0579	9	C14H9NO3+
239.094	70	C15H13NO2+
240.0655	38	C14H10NO3+
240.1017	400	C15H14NO2+
248.0717	1	C16H10NO2+
249.0784	5	C16H11NO2+
250.0861	105	C16H12NO2+
251.0701	5	C16H11O3+
251.0944	1	C16H13NO2+
252.0653	81	C15H10NO3+
253.0726	2	C15H11NO3+
266.081	94	C16H12NO3+
267.0888	150	C16H13NO3+
268.0966	249	C16H14NO3+
270.0759	49	C15H12NO4+
281.1042	7	C17H15NO3+
284.0919	13	C16H14NO4+
285.0993	64	C16H15NO4+
286.1076	4	C16H16NO4+
296.1279	133	C18H18NO3+
314.1386	43	C18H20NO4+
