Mass spectrum: 2-(N-Ethyl-m-toluidino)ethanol; LC-ESI-QFT; MS2; CE: 60; R=17500; [M+H]+
Name: 2-(N-Ethyl-m-toluidino)ethanol
Name: 2-(N-ethyl-3-methylanilino)ethanol
Formula: C11H17NO
Exact mass: 179.1310
SMILES: CCN(CCO)C1=CC(C)=CC=C1
InChI: InChI=1S/C11H17NO/c1-3-12(7-8-13)11-6-4-5-10(2)9-11/h4-6,9,13H,3,7-8H2,1-2H3
Instrument: Q Exactive Orbitrap (Thermo Scientific)
Instrument type: LC-ESI-QFT
Ms type: MS2
Ion mode: POSITIVE
Ionization: ESI
Fragmentation mode: HCD
Collision energy: 60
Resolution: 17500
Column name: Acquity BEH C18 1.7um, 2.1x150mm (Waters)
Retention time: 10.199 min
Base peak: 79.0211
Precursor m/z: 180.1383
Precursor type: [M+H]+
Precursor intensity: 29122419.375
m/z	relative intensity	assigned
91.0542	17	C7H7+
92.0622	3	C7H8+
93.0574	5	C6H7N+
93.0699	12	C7H9+
105.0698	5	C8H9+
106.0651	18	C7H8N+
107.073	54	C7H9N+
108.0808	66	C7H10N+
109.0651	1	C7H9O+
110.0601	4	C6H8NO+
115.0542	3	C9H7+
117.0572	2	C8H7N+
117.07	9	C9H9+
118.0652	20	C8H8N+
119.0731	70	C8H9N+
120.0808	999	C8H10N+
121.0885	26	C8H11N+
131.0729	1	C9H9N+
132.0808	94	C9H10N+
133.0887	46	C9H11N+
134.0964	366	C9H12N+
135.1042	285	C9H13N+
136.1121	111	C9H14N+
138.0915	1	C8H12NO+
146.0967	2	C10H12N+
147.1042	48	C10H13N+
150.0914	1	C9H12NO+
151.0992	68	C9H13NO+
152.107	44	C9H14NO+
160.1121	13	C11H14N+
162.1277	119	C11H16N+
180.1383	64	C11H18NO+
