Mass spectrum: CP-409092; LC-ESI-QFT; MS2; CE: 75; R=17500; [M-H]-
Name: CP-409092
Name: 1H-Indole-3-carboxamide, 4,5,6,7-tetrahydro-N-(4-((methylamino)methyl)phenyl)-4-oxo-
Name: N-[4-(methylaminomethyl)phenyl]-4-oxo-1,5,6,7-tetrahydroindole-3-carboxamide
Formula: C17H19N3O2
Exact mass: 297.1477
SMILES: CNCC1=CC=C(NC(=O)C2=CNC3=C2C(=O)CCC3)C=C1
InChI: InChI=1S/C17H19N3O2/c1-18-9-11-5-7-12(8-6-11)20-17(22)13-10-19-14-3-2-4-15(21)16(13)14/h5-8,10,18-19H,2-4,9H2,1H3,(H,20,22)
Instrument: Q Exactive Orbitrap (Thermo Scientific)
Instrument type: LC-ESI-QFT
Ms type: MS2
Ion mode: NEGATIVE
Ionization: ESI
Fragmentation mode: HCD
Collision energy: 75
Resolution: 17500
Column name: Acquity BEH C18 1.7um, 2.1x150mm (Waters)
Retention time: 12.411 min
Base peak: 296.1404
Precursor m/z: 296.1405
Precursor type: [M-H]-
Precursor intensity: 10285597.74463
m/z	relative intensity	assigned
63.0115	1	C4HN-
65.0032	5	C4HO-
65.9985	26	C3NO-
66.0349	3	C4H4N-
76.0193	1	C5H2N-
78.0348	2	C5H4N-
79.0553	1	C6H7-
80.0142	3	C4H2NO-
80.0506	11	C5H6N-
81.0221	5	C4H3NO-
92.0506	41	C6H6N-
94.0298	1	C5H4NO-
96.0456	11	C5H6NO-
102.0349	2	C7H4N-
103.0428	39	C7H5N-
104.0506	40	C7H6N-
105.0219	5	C6H3NO-
105.0585	1	C7H7N-
106.0662	258	C7H8N-
107.0377	4	C6H5NO-
107.0502	1	C7H7O-
108.0455	5	C6H6NO-
109.0168	1	C5H3NO2-
116.0506	6	C8H6N-
118.0296	1	C7H4NO-
119.0376	2	C7H5NO-
119.0615	4	C7H7N2-
120.0454	5	C7H6NO-
121.017	1	C6H3NO2-
122.0612	677	C7H8NO-
131.0376	4	C8H5NO-
132.0455	41	C8H6NO-
133.0534	4	C8H7NO-
133.0771	2	C8H9N2-
134.0612	999	C8H8NO-
135.0928	117	C8H11N2-
136.0406	2	C7H6NO2-
148.0404	14	C8H6NO2-
149.0483	21	C8H7NO2-
159.0327	3	C9H5NO2-
159.0566	7	C9H7N2O-
160.0404	7	C9H6NO2-
170.0045	2	C13N-
179.0824	2	C9H11N2O2-
266.1059	6	C16H14N2O2-
296.1405	1	C17H18N3O2-
