Mass spectrum: PharmaGSID_48511; LC-ESI-QFT; MS2; CE: 45; R=17500; [M+H]+
Name: PharmaGSID_48511
Name: 4-[(9-cyclopentyl-7,7-difluoro-5-methyl-6-oxo-8H-pyrimido[4,5-b][1,4]diazepin-2-yl)amino]-3-methoxy-N-(1-methylpiperidin-4-yl)benzamide
Formula: C27H35F2N7O3
Exact mass: 543.2769
SMILES: COC1=C(NC2=NC3=C(C=N2)N(C)C(=O)C(F)(F)CN3C2CCCC2)C=CC(=C1)C(=O)NC1CCN(C)CC1
InChI: InChI=1S/C27H35F2N7O3/c1-34-12-10-18(11-13-34)31-24(37)17-8-9-20(22(14-17)39-3)32-26-30-15-21-23(33-26)36(19-6-4-5-7-19)16-27(28,29)25(38)35(21)2/h8-9,14-15,18-19H,4-7,10-13,16H2,1-3H3,(H,31,37)(H,30,32,33)
Instrument: Q Exactive Orbitrap (Thermo Scientific)
Instrument type: LC-ESI-QFT
Ms type: MS2
Ion mode: POSITIVE
Ionization: ESI
Fragmentation mode: HCD
Collision energy: 45
Resolution: 17500
Column name: Acquity BEH C18 1.7um, 2.1x150mm (Waters)
Retention time: 14.825 min
Base peak: 79.0211
Precursor m/z: 544.2842
Precursor type: [M+H]+
Precursor intensity: 9200419
m/z	relative intensity	assigned
55.0543	1	C4H7+
70.0652	3	C4H8N+
96.0809	1	C6H10N+
98.0965	18	C6H12N+
255.0751	2	C12H9N5O2+
283.0705	1	C13H9N5O3+
291.0922	1	C13H11F2N5O+
297.1162	1	C18H16FNO2+
306.1168	1	C19H15FN2O+
318.08	1	C19H11FN2O2+
319.0878	52	C19H12FN2O2+
334.1113	134	C20H15FN2O2+
335.0825	2	C14H11F2N5O3+
347.0827	3	C20H12FN2O3+
362.1062	196	C21H15FN2O3+
371.1556	3	C24H20FN2O+
403.1455	7	C24H20FN2O3+
419.1404	1	C25H16FN6+
430.169	999	C26H23FN2O3+
