Mass spectrum: Propylparaben; LC-ESI-QFT; MS2; CE: 15; R=17500; [M-H]-
Name: Propylparaben
Name: propyl 4-hydroxybenzoate
Formula: C10H12O3
Exact mass: 180.0786
SMILES: CCCOC(=O)C1=CC=C(O)C=C1
InChI: InChI=1S/C10H12O3/c1-2-7-13-10(12)8-3-5-9(11)6-4-8/h3-6,11H,2,7H2,1H3
Instrument: Q Exactive Orbitrap (Thermo Scientific)
Instrument type: LC-ESI-QFT
Ms type: MS2
Ion mode: NEGATIVE
Ionization: ESI
Fragmentation mode: HCD
Collision energy: 15
Resolution: 17500
Column name: Acquity BEH C18 1.7um, 2.1x150mm (Waters)
Retention time: 16.598 min
Base peak: 179.0714
Precursor m/z: 179.0714
Precursor type: [M-H]-
Precursor intensity: 42500953.01172
m/z	relative intensity	assigned
82.006	1	C4H2O2-
91.0191	1	C6H3O-
92.0264	14	C6H4O-
93.0346	93	C6H5O-
95.0139	17	C5H3O2-
108.0217	15	C6H4O2-
119.0139	4	C7H3O2-
121.0294	2	C7H5O2-
123.0087	2	C6H3O3-
136.0166	258	C7H4O3-
137.0244	239	C7H5O3-
179.0714	999	C10H11O3-
