Mass spectrum: CP-728663; LC-ESI-QFT; MS2; CE: 30; R=17500; [M+H]+
Name: CP-728663
Name: (1aR,7bS)-5-[[[(2S,3S,6S)-6-ethyl-2-phenylpiperidin-3-yl]amino]methyl]-6-methoxy-3-methyl-1a,7b-dihydro-1H-cyclopropa[c]quinolin-2-one
Formula: C26H33N3O2
Exact mass: 419.2573
SMILES: CC[C@H]1CC[C@H](NCC2=CC3=C(C=C2OC)[C@H]2C[C@H]2C(=O)N3C)[C@@H](N1)C1=CC=CC=C1
InChI: InChI=1S/C26H33N3O2/c1-4-18-10-11-22(25(28-18)16-8-6-5-7-9-16)27-15-17-12-23-20(14-24(17)31-3)19-13-21(19)26(30)29(23)2/h5-9,12,14,18-19,21-22,25,27-28H,4,10-11,13,15H2,1-3H3/t18-,19+,21+,22-,25-/m0/s1
Instrument: Q Exactive Orbitrap (Thermo Scientific)
Instrument type: LC-ESI-QFT
Ms type: MS2
Ion mode: POSITIVE
Ionization: ESI
Fragmentation mode: HCD
Collision energy: 30
Resolution: 17500
Column name: Acquity BEH C18 1.7um, 2.1x150mm (Waters)
Retention time: 11.327 min
Base peak: 79.0211
Precursor m/z: 420.2646
Precursor type: [M+H]+
Precursor intensity: 22242644
m/z	relative intensity	assigned
58.0651	1	C3H8N+
91.0538	1	C7H7+
132.0806	1	C9H10N+
146.0964	2	C10H12N+
158.0962	2	C11H12N+
160.112	30	C11H14N+
173.0836	3	C11H11NO+
174.0912	13	C11H12NO+
186.0913	19	C12H12NO+
186.1278	3	C13H16N+
188.1072	32	C12H14NO+
188.1432	275	C13H18N+
201.0784	2	C12H11NO2+
203.1541	4	C13H19N2+
204.1018	6	C12H14NO2+
214.0863	1	C13H12NO2+
216.1016	999	C13H14NO2+
403.2381	1	C26H31N2O2+
420.2644	10	C26H34N3O2+
