Mass spectrum: Penoxsulam; LC-ESI-QFT; MS2; CE: 45; R=17500; [M+H]+
Name: Penoxsulam
Name: 2-(2,2-difluoroethoxy)-N-(5,8-dimethoxy-[1,2,4]triazolo[1,5-c]pyrimidin-2-yl)-6-(trifluoromethyl)benzenesulfonamide
Formula: C16H14F5N5O5S
Exact mass: 483.0636
SMILES: COC1=CN=C(OC)N2N=C(NS(=O)(=O)C3=C(C=CC=C3OCC(F)F)C(F)(F)F)N=C12
InChI: InChI=1S/C16H14F5N5O5S/c1-29-10-6-22-15(30-2)26-13(10)23-14(24-26)25-32(27,28)12-8(16(19,20)21)4-3-5-9(12)31-7-11(17)18/h3-6,11H,7H2,1-2H3,(H,24,25)
Instrument: Q Exactive Orbitrap (Thermo Scientific)
Instrument type: LC-ESI-QFT
Ms type: MS2
Ion mode: POSITIVE
Ionization: ESI
Fragmentation mode: HCD
Collision energy: 45
Resolution: 17500
Column name: Acquity BEH C18 1.7um, 2.1x150mm (Waters)
Retention time: 15.597 min
Base peak: 79.0211
Precursor m/z: 484.0709
Precursor type: [M+H]+
Precursor intensity: 10458371.09375
m/z	relative intensity	assigned
56.0494	9	C3H6N+
57.0208	3	C2H3NO+
58.0287	1	C2H4NO+
65.0197	2	C2H3F2+
66.0338	1	C4H4N+
67.029	2	C3H3N2+
68.0368	1	C3H4N2+
68.0495	1	C4H6N+
69.0446	3	C3H5N2+
70.0287	15	C3H4NO+
71.0477	1	C2H5N3+
72.0442	1	C3H6NO+
79.029	2	C4H3N2+
80.0368	1	C4H4N2+
81.0447	19	C4H5N2+
82.0288	1	C4H4NO+
83	3	C3HNO2+
83.0603	9	C4H7N2+
84.0318	1	C3H4N2O+
84.0444	3	C4H6NO+
86.0237	2	C3H4NO2+
88.0393	4	C3H6NO2+
92.0368	2	C5H4N2+
93.0448	1	C5H5N2+
94.0398	3	C4H4N3+
95.0239	1	C4H3N2O+
95.0476	2	C4H5N3+
95.0604	14	C5H7N2+
96.0317	2	C4H4N2O+
96.0556	4	C4H6N3+
97.0396	11	C4H5N2O+
105.0334	2	C7H5O+
106.04	18	C5H4N3+
107.0239	4	C5H3N2O+
108.0318	2	C5H4N2O+
108.043	27	C4H4N4+
108.0552	3	C5H6N3+
109.0396	8	C5H5N2O+
110.0238	1	C5H4NO2+
110.0347	3	C4H4N3O+
110.0475	1	C5H6N2O+
110.0587	2	C4H6N4+
111.0188	1	C4H3N2O2+
111.0552	12	C5H7N2O+
111.0664	2	C4H7N4+
112.0267	2	C4H4N2O2+
112.0505	2	C4H6N3O+
113.0346	1	C4H5N2O2+
115.0612	3	C3H7N4O+
122.9899	3	C6H3OS+
123.0426	8	C5H5N3O+
124.0267	124	C5H4N2O2+
124.0505	45	C5H6N3O+
125.0345	9	C5H5N2O2+
125.0582	7	C5H7N3O+
127.0501	5	C5H7N2O2+
129.0406	3	C3H5N4O2+
133.0263	1	C6H4F3+
135.044	6	C8H7O2+
136.0618	107	C5H6N5+
137.0457	8	C5H5N4O+
138.0536	1	C5H6N4O+
139.0377	11	C2H7F4O2+
139.0502	129	C6H7N2O2+
140.0216	5	C5H4N2O3+
140.0454	13	C5H6N3O2+
141.0145	3	C2H2F3N3O+
143.0562	1	C4H7N4O2+
144.9917	9	CH2F3N3S+
148.051	1	CH12N2O4S+
149.0213	1	C6H4F3O+
149.0345	1	C7H5N2O2+
149.0456	5	C6H5N4O+
150.0297	3	C6H4N3O2+
150.041	3	C5H4N5O+
150.0536	2	C6H6N4O+
151.0166	2	C6H3F4+
151.0493	2	C2H7F4N2O+
151.0611	1	F3H14O3S+
152.0454	143	C6H6N3O2+
153.0532	41	C6H7N3O2+
154.061	8	C6H8N3O2+
156.0558	3	C6H8F4+
159.0075	1	CH4F5O3+
160.0129	6	C2H2F4N3O+
161.0207	2	C2H3F4N3O+
162.0411	2	C3H6F4N2O+
164.0566	376	C6H6N5O+
165.0645	54	C6H7N5O+
166.0723	157	C6H8N5O+
171.0251	2	C8H5F2O2+
172.0174	2	C5H6N3O2S+
172.9866	3	C2H2F3N3OS+
176.0343	2	C9H6NO3+
177.0158	15	C7H4F3O2+
177.0407	7	C7H5N4O2+
177.0644	49	C7H7N5O+
178.03	1	C9H5FNO2+
178.0723	7	C7H8N5O+
179.0563	5	C7H7N4O2+
180.0515	118	C6H6N5O2+
187.0501	2	C10H7N2O2+
188.9825	2	C4H4F3O3S+
194.0673	335	C4H10F4N2O2+
195.075	999	C7H9N5O2+
198.0361	1	C9H6F2NO2+
199.0059	1	C8H7O4S+
201.0159	4	CH4F5N3O3+
202.0235	2	C9H5F3O2+
217.052	2	C10H6FN4O+
228.044	1	C11H5FN4O+
228.0649	2	C5H14N3O5S+
240.0185	24	C7H6N5O3S+
243.0878	3	C9H13F4NO2+
250.9985	8	C9H6F3O3S+
254.0675	1	C9H10F4N2O2+
269.0314	1	C7H8F3N4O2S+
269.0903	6	C5H12F5N5O2+
280.0834	1	C11H12F4N2O2+
282.0619	5	C11H10F2N5S+
296.0408	1	C11H8F2N5OS+
298.0734	33	C14H9FN5O2+
308.0768	1	C15H11F3N2O2+
312.0727	5	C14H10N5O4+
315.0759	2	C11H15N4O5S+
324.0704	1	C13H9F3N5O2+
335.0826	3	C14H11F2N5O3+
365.0735	1	C15H10F3N5O3+
380.0965	2	C16H13F3N5O3+
444.0586	10	C16H13F3N5O5S+
484.0706	1	C16H15F5N5O5S+
