Mass spectrum: Vincamine; LC-ESI-QFT; MS2; CE: 90; R=17500; [M+H]+
Name: Vincamine
Name: methyl (15S,17S,19S)-15-ethyl-17-hydroxy-1,11-diazapentacyclo[9.6.2.02,7.08,18.015,19]nonadeca-2,4,6,8(18)-tetraene-17-carboxylate
Formula: C21H26N2O3
Exact mass: 354.1943
SMILES: CC[C@@]12CCCN3CCC4=C([C@H]13)N(C1=C4C=CC=C1)[C@](O)(C2)C(=O)OC
InChI: InChI=1S/C21H26N2O3/c1-3-20-10-6-11-22-12-9-15-14-7-4-5-8-16(14)23(17(15)18(20)22)21(25,13-20)19(24)26-2/h4-5,7-8,18,25H,3,6,9-13H2,1-2H3/t18-,20+,21+/m1/s1
Instrument: Q Exactive Orbitrap (Thermo Scientific)
Instrument type: LC-ESI-QFT
Ms type: MS2
Ion mode: POSITIVE
Ionization: ESI
Fragmentation mode: HCD
Collision energy: 90
Resolution: 17500
Column name: Acquity BEH C18 1.7um, 2.1x150mm (Waters)
Retention time: 12.617 min
Base peak: 79.0211
Precursor m/z: 355.2016
Precursor type: [M+H]+
Precursor intensity: 10859172.5
m/z	relative intensity	assigned
53.0022	6	C3HO+
53.0386	64	C4H5+
55.0179	25	C3H3O+
55.0543	161	C4H7+
56.0495	72	C3H6N+
57.0699	5	C4H9+
58.0651	22	C3H8N+
59.0491	7	C3H7O+
65.0385	54	C5H5+
67.0542	379	C5H7+
68.0494	93	C4H6N+
69.0334	7	C4H5O+
69.0573	12	C4H7N+
69.0699	20	C5H9+
70.065	218	C4H8N+
77.0385	10	C6H5+
79.0542	231	C6H7+
80.0494	94	C5H6N+
81.0335	25	C5H5O+
81.0571	12	C5H7N+
81.0698	90	C6H9+
82.0651	67	C5H8N+
83.0491	144	C5H7O+
83.0728	12	C5H9N+
84.0808	35	C5H10N+
85.0646	4	C5H9O+
91.0542	392	C7H7+
92.0495	20	C6H6N+
93.0574	31	C6H7N+
93.0699	141	C7H9+
94.0651	90	C6H8N+
95.0491	119	C6H7O+
95.0729	51	C6H9N+
95.0855	245	C7H11+
96.0443	9	C5H6NO+
96.0807	104	C6H10N+
97.0887	10	C6H11N+
98.0964	40	C6H12N+
103.0542	101	C8H7+
104.0494	13	C7H6N+
105.0448	41	C6H5N2+
105.0699	151	C8H9+
106.0651	58	C7H8N+
107.049	10	C7H7O+
107.0729	14	C7H9N+
107.0855	57	C8H11+
108.0444	6	C6H6NO+
108.0808	71	C7H10N+
109.0648	24	C7H9O+
109.0887	27	C7H11N+
109.1011	4	C8H13+
110.06	10	C6H8NO+
110.0964	167	C7H12N+
111.1042	9	C7H13N+
112.1119	24	C7H14N+
115.0542	250	C9H7+
116.0495	14	C8H6N+
117.0572	87	C8H7N+
117.0698	326	C9H9+
118.0651	63	C8H8N+
119.0491	7	C8H7O+
119.0603	9	C7H7N2+
119.0729	33	C8H9N+
119.0854	5	C9H11+
120.0809	39	C8H10N+
121.0648	18	C8H9O+
122.0601	34	C7H8NO+
122.0963	34	C8H12N+
123.0679	14	C7H9NO+
123.0806	38	C8H11O+
123.1043	9	C8H13N+
124.0756	45	C7H10NO+
124.1121	136	C8H14N+
127.0541	19	C10H7+
128.0494	55	C9H6N+
128.0619	67	C10H8+
129.0573	9	C9H7N+
129.0698	94	C10H9+
130.0651	209	C9H8N+
131.0729	58	C9H9N+
131.085	5	C10H11+
132.057	5	C9H8O+
132.0807	47	C9H10N+
133.0648	11	C9H9O+
133.0881	4	C9H11N+
134.0964	89	C9H12N+
135.0804	14	C9H11O+
136.0756	33	C8H10NO+
136.1122	5	C9H14N+
140.0496	5	C10H6N+
141.0697	20	C11H9+
142.0652	38	C10H8N+
143.073	393	C10H9N+
144.0808	999	C10H10N+
145.0647	72	C10H9O+
145.0886	6	C10H11N+
146.06	35	C9H8NO+
146.0963	15	C10H12N+
148.0756	6	C9H10NO+
152.1069	65	C9H14NO+
153.0699	26	C12H9+
154.065	73	C11H8N+
155.0604	91	C10H7N2+
155.0725	45	C11H9N+
155.0852	6	C12H11+
156.0808	88	C11H10N+
157.0763	5	C10H9N2+
157.0886	50	C11H11N+
158.0599	8	C10H8NO+
158.0963	39	C11H12N+
160.0758	16	C10H10NO+
160.112	4	C11H14N+
162.0912	8	C10H12NO+
165.0699	80	C13H9+
166.0651	23	C12H8N+
166.0776	26	C13H10+
167.0729	172	C12H9N+
167.0856	11	C13H11+
168.0807	130	C12H10N+
169.076	15	C11H9N2+
169.0885	26	C12H11N+
170.0598	36	C11H8NO+
170.0842	5	C11H10N2+
170.0964	39	C12H12N+
171.0914	14	C11H11N2+
178.0651	22	C13H8N+
178.0777	83	C14H10+
179.0726	16	C13H9N+
179.0855	55	C14H11+
180.0807	297	C13H10N+
181.0759	16	C12H9N2+
181.0884	93	C13H11N+
181.1014	11	C14H13+
182.0839	7	C12H10N2+
182.0964	58	C13H12N+
183.0917	12	C12H11N2+
183.1041	7	C13H13N+
184.0757	12	C12H10NO+
184.1119	9	C13H14N+
185.1073	5	C12H13N2+
188.0705	8	C11H10NO2+
189.07	9	C15H9+
190.0651	37	C14H8N+
190.0774	16	C15H10+
191.0729	167	C14H9N+
191.0851	29	C15H11+
192.0807	159	C14H10N+
192.093	28	C15H12+
193.0886	292	C14H11N+
194.0964	218	C14H12N+
195.0918	21	C13H11N2+
195.1041	48	C14H13N+
196.0756	21	C13H10NO+
196.0998	5	C13H12N2+
196.1121	28	C14H14N+
197.0832	5	C13H11NO+
197.1078	8	C13H13N2+
202.0771	12	C16H10+
203.0729	27	C15H9N+
203.0854	13	C16H11+
204.0808	523	C15H10N+
205.0886	303	C15H11N+
206.0963	393	C15H12N+
207.1041	120	C15H13N+
208.0756	33	C14H10NO+
208.1119	174	C15H14N+
209.0833	13	C14H11NO+
209.1073	33	C14H13N2+
209.1198	22	C15H15N+
210.0914	23	C14H12NO+
210.1276	15	C15H16N+
211.099	5	C14H13NO+
211.1227	6	C14H15N2+
215.0853	19	C17H11+
216.0809	27	C16H10N+
217.0885	187	C16H11N+
218.0964	349	C16H12N+
219.0918	29	C15H11N2+
219.1039	212	C16H13N+
220.1118	251	C16H14N+
221.0839	23	C15H11NO+
221.1073	24	C15H13N2+
221.1197	46	C16H15N+
222.0915	49	C15H12NO+
222.1152	11	C15H14N2+
222.1276	97	C16H16N+
223.0992	11	C15H13NO+
223.1227	39	C15H15N2+
224.0708	9	C14H10NO2+
224.1068	15	C15H14NO+
224.1309	10	C15H16N2+
224.1433	8	C16H18N+
225.0782	5	C14H11NO2+
230.0964	48	C17H12N+
231.1041	30	C17H13N+
232.0759	13	C16H10NO+
232.0996	10	C16H12N2+
232.1118	96	C17H14N+
233.0838	10	C16H11NO+
233.107	24	C16H13N2+
233.12	24	C17H15N+
234.091	19	C16H12NO+
234.1152	7	C16H14N2+
234.1275	98	C17H16N+
235.123	9	C16H15N2+
235.1358	12	C17H17N+
236.0701	22	C15H10NO2+
236.1071	20	C16H14NO+
236.1434	13	C17H18N+
237.0782	22	C15H11NO2+
237.1026	6	C15H13N2O+
237.1388	27	C16H17N2+
238.0862	208	C15H12NO2+
239.0942	46	C15H13NO2+
244.1121	10	C18H14N+
246.0918	10	C17H12NO+
246.1276	7	C18H16N+
247.1228	70	C17H15N2+
248.071	11	C16H10NO2+
248.1081	5	C17H14NO+
248.1309	11	C17H16N2+
248.1436	14	C18H18N+
249.0785	27	C16H11NO2+
249.1387	21	C17H17N2+
250.0862	177	C16H12NO2+
251.0939	312	C16H13NO2+
252.1018	219	C16H14NO2+
253.1093	39	C16H15NO2+
261.1385	10	C18H17N2+
262.086	24	C17H12NO2+
263.0938	55	C17H13NO2+
264.1018	877	C17H14NO2+
265.1095	152	C17H15NO2+
266.1175	284	C17H16NO2+
267.1253	26	C17H17NO2+
275.0936	25	C18H13NO2+
275.1176	10	C18H15N2O+
276.1017	61	C18H14NO2+
277.1099	26	C18H15NO2+
277.1699	5	C19H21N2+
278.1174	303	C18H16NO2+
279.1107	7	C17H15N2O2+
279.1266	33	C18H17NO2+
280.1331	59	C18H18NO2+
290.1175	32	C19H16NO2+
292.1349	66	C19H18NO2+
294.1484	9	C19H20NO2+
307.1446	15	C19H19N2O2+
