Mass spectrum: C.I. Solvent Yellow 14; LC-ESI-QFT; MS2; CE: 75; R=17500; [M+H]+
Name: C.I. Solvent Yellow 14
Name: 1-phenyldiazenylnaphthalen-2-ol
Formula: C16H12N2O
Exact mass: 248.0950
SMILES: OC1=CC=C2C=CC=CC2=C1N=NC1=CC=CC=C1
InChI: InChI=1S/C16H12N2O/c19-15-11-10-12-6-4-5-9-14(12)16(15)18-17-13-7-2-1-3-8-13/h1-11,19H
Instrument: Q Exactive Orbitrap (Thermo Scientific)
Instrument type: LC-ESI-QFT
Ms type: MS2
Ion mode: POSITIVE
Ionization: ESI
Fragmentation mode: HCD
Collision energy: 75
Resolution: 17500
Column name: Acquity BEH C18 1.7um, 2.1x150mm (Waters)
Retention time: 20.798 min
Base peak: 79.0211
Precursor m/z: 249.1022
Precursor type: [M+H]+
Precursor intensity: 1708235.875
m/z	relative intensity	assigned
53.0386	10	C4H5+
65.0386	38	C5H5+
66.0464	39	C5H6+
75.0229	7	C6H3+
77.0386	7	C6H5+
80.0494	17	C5H6N+
91.0544	15	C7H7+
92.0495	33	C6H6N+
93.0574	999	C6H7N+
95.0492	27	C6H7O+
101.0387	6	C8H5+
103.0542	5	C8H7+
105.0449	8	C6H5N2+
115.0545	16	C9H7+
119.0493	19	C8H7O+
128.0495	381	C9H6N+
129.0447	70	C8H5N2+
146.0601	51	C9H8NO+
155.0606	2	C10H7N2+
156.0445	11	C10H6NO+
160.0757	8	C10H10NO+
167.0732	5	C12H9N+
168.0807	5	C12H10N+
176.0622	6	C14H8+
177.0701	5	C14H9+
178.0654	3	C13H8N+
180.0807	8	C13H10N+
194.0968	5	C14H12N+
203.0732	23	C15H9N+
204.0809	82	C15H10N+
205.0771	4	C14H9N2+
205.0881	4	C15H11N+
206.084	13	C14H10N2+
219.0921	25	C15H11N2+
220.0998	8	C15H12N2+
221.1074	9	C15H13N2+
229.0766	3	C16H9N2+
230.0837	6	C16H10N2+
231.0918	280	C16H11N2+
232.0761	37	C16H10NO+
232.0996	56	C16H12N2+
233.0838	16	C16H11NO+
234.0789	16	C15H10N2O+
247.0871	24	C16H11N2O+
248.0948	18	C16H12N2O+
