Mass spectrum: 6-Thioguanine; LC-ESI-QFT; MS2; CE: 60; R=17500; [M+H]+
Name: 6-Thioguanine
Name: 2-amino-7H-purine-6-thiol
Formula: C5H5N5S
Exact mass: 167.0266
SMILES: NC1=NC2=C(NC=N2)C(=S)N1
InChI: InChI=1S/C5H5N5S/c6-5-9-3-2(4(11)10-5)7-1-8-3/h1H,(H4,6,7,8,9,10,11)
Instrument: Q Exactive Orbitrap (Thermo Scientific)
Instrument type: LC-ESI-QFT
Ms type: MS2
Ion mode: POSITIVE
Ionization: ESI
Fragmentation mode: HCD
Collision energy: 60
Resolution: 17500
Column name: Acquity BEH C18 1.7um, 2.1x150mm (Waters)
Retention time: 3.077 min
Base peak: 79.0211
Precursor m/z: 168.0338
Precursor type: [M+H]+
Precursor intensity: 5366094.5
m/z	relative intensity	assigned
68.0241	1	C2H2N3+
71.9902	1	C2H2NS+
80.0242	3	C3H2N3+
81.9746	2	C3NS+
82.0399	2	C3H4N3+
83.9902	4	C3H2NS+
92.0243	6	C4H2N3+
96.9855	1	C3HN2S+
99.0012	8	C3H3N2S+
107.0352	59	C4H3N4+
108.9855	22	C4HN2S+
109.0509	43	C4H5N4+
123.9964	8	C4H2N3S+
126.012	208	C4H4N3S+
134.0461	429	C5H4N5+
136.0618	1	C5H6N5+
141.0225	1	C4H5N4S+
151.0073	999	C5H3N4S+
168.0338	628	C5H6N5S+
