Mass spectrum: 3,3`,5,5`-Tetramethylbenzidine; LC-ESI-QFT; MS2; CE: 60; R=17500; [M+H]+
Name: 3,3',5,5'-Tetramethylbenzidine
Name: 4-(4-amino-3,5-dimethylphenyl)-2,6-dimethylaniline
Formula: C16H20N2
Exact mass: 240.1626
SMILES: CC1=CC(=CC(C)=C1N)C1=CC(C)=C(N)C(C)=C1
InChI: InChI=1S/C16H20N2/c1-9-5-13(6-10(2)15(9)17)14-7-11(3)16(18)12(4)8-14/h5-8H,17-18H2,1-4H3
Instrument: Q Exactive Orbitrap (Thermo Scientific)
Instrument type: LC-ESI-QFT
Ms type: MS2
Ion mode: POSITIVE
Ionization: ESI
Fragmentation mode: HCD
Collision energy: 60
Resolution: 17500
Column name: Acquity BEH C18 1.7um, 2.1x150mm (Waters)
Retention time: 13.421 min
Base peak: 79.0211
Precursor m/z: 241.1699
Precursor type: [M+H]+
Precursor intensity: 17424747.9375
m/z	relative intensity	assigned
120.0808	57	C8H10N+
121.0887	39	C8H11N+
134.0966	16	C9H12N+
170.0968	6	C12H12N+
192.0934	35	C15H12+
194.0966	467	C14H12N+
207.1165	19	C16H15+
208.1124	134	C15H14N+
209.1201	999	C15H15N+
224.1435	458	C16H18N+
225.1481	30	C16H19N+
226.1457	684	C15H18N2+
