Mass spectrum: Clothianidin; LC-ESI-QFT; MS2; CE: 30; R=17500; [M-H]-
Name: Clothianidin
Name: 1-[(2-chloro-1,3-thiazol-5-yl)methyl]-2-methyl-3-nitroguanidine
Formula: C6H8ClN5O2S
Exact mass: 249.0087
SMILES: CN\C(NCC1=CN=C(Cl)S1)=N/[N+]([O-])=O
InChI: InChI=1S/C6H8ClN5O2S/c1-8-6(11-12(13)14)10-3-4-2-9-5(7)15-4/h2H,3H2,1H3,(H2,8,10,11)
Instrument: Q Exactive Orbitrap (Thermo Scientific)
Instrument type: LC-ESI-QFT
Ms type: MS2
Ion mode: NEGATIVE
Ionization: ESI
Fragmentation mode: HCD
Collision energy: 30
Resolution: 17500
Column name: Acquity BEH C18 1.7um, 2.1x150mm (Waters)
Retention time: 12.515 min
Base peak: 248.0015
Precursor m/z: 248.0014
Precursor type: [M-H]-
Precursor intensity: 14088786.93848
m/z	relative intensity	assigned
55.0301	24	C2H3N2-
57.9757	999	CNS-
61.0043	46	HN2O2-
83.9914	1	C3H2NS-
85.0408	2	C3H5N2O-
85.9996	2	CN3O2-
95.0251	15	C4H3N2O-
111.0023	54	C4H3N2S-
117.9524	13	C3HClNS-
119.0364	1	C5H3N4-
122.036	9	C5H4N3O-
125.9895	1	C4H2N2OS-
129.0415	1	C3H5N4O2-
135.9974	1	C5H2N3S-
137.0054	1	C5H3N3S-
138.0131	1	C5H4N3S-
139.0208	2	C5H5N3S-
139.0262	8	C4H3N4O2-
141.013	2	C5H5N2OS-
149.0468	1	C6H5N4O-
150.0006	23	C5H2N4S-
151.0084	14	C5H3N4S-
163.0089	1	C6H3N4S-
165.0241	105	C6H5N4S-
166.0319	13	C6H6N4S-
168.0238	7	C6H6N3OS-
195.0221	6	C6H5N5OS-
212.0249	2	C6H6N5O2S-
248.0014	3	C6H7ClN5O2S-
