Mass spectrum: Fabesetron; LC-ESI-QFT; MS2; CE: 30; R=17500; [M+H]+
Name: Fabesetron
Name: (7R)-10-methyl-7-[(5-methyl-1H-imidazol-4-yl)methyl]-8,9-dihydro-7H-pyrido[1,2-a]indol-6-one
Formula: C18H19N3O
Exact mass: 293.1528
SMILES: Cc1[nH]cnc1C[C@H]1CCc2c(C)c3ccccc3n2C1=O
InChI: InChI=1S/C18H19N3O/c1-11-14-5-3-4-6-17(14)21-16(11)8-7-13(18(21)22)9-15-12(2)19-10-20-15/h3-6,10,13H,7-9H2,1-2H3,(H,19,20)/t13-/m1/s1
Instrument: Q Exactive Orbitrap (Thermo Scientific)
Instrument type: LC-ESI-QFT
Ms type: MS2
Ion mode: POSITIVE
Ionization: ESI
Fragmentation mode: HCD
Collision energy: 30
Resolution: 17500
Column name: Acquity BEH C18 1.7um, 2.1x150mm (Waters)
Retention time: 15.378 min
Base peak: 79.0211
Precursor m/z: 294.1601
Precursor type: [M+H]+
Precursor intensity: 28109865.5
m/z	relative intensity	assigned
95.0604	23	C5H7N2+
96.068	1	C5H8N2+
121.076	1	C7H9N2+
135.0916	1	C8H11N2+
137.071	6	C7H9N2O+
144.0806	5	C10H10N+
146.0964	2	C10H12N+
149.071	81	C8H9N2O+
158.0965	5	C11H12N+
182.0967	1	C13H12N+
200.107	4	C13H14NO+
212.1073	1	C14H14NO+
266.1651	2	C17H20N3+
276.1494	2	C18H18N3+
294.16	999	C18H20N3O+
