Mass spectrum: Quinoxyfen; LC-ESI-QFT; MS2; CE: 60; R=17500; [M+H]+
Name: Quinoxyfen
Name: 5,7-dichloro-4-(4-fluorophenoxy)quinoline
Formula: C15H8Cl2FNO
Exact mass: 306.9967
SMILES: FC1=CC=C(OC2=CC=NC3=CC(Cl)=CC(Cl)=C23)C=C1
InChI: InChI=1S/C15H8Cl2FNO/c16-9-7-12(17)15-13(8-9)19-6-5-14(15)20-11-3-1-10(18)2-4-11/h1-8H
Instrument: Q Exactive Orbitrap (Thermo Scientific)
Instrument type: LC-ESI-QFT
Ms type: MS2
Ion mode: POSITIVE
Ionization: ESI
Fragmentation mode: HCD
Collision energy: 60
Resolution: 17500
Column name: Acquity BEH C18 1.7um, 2.1x150mm (Waters)
Retention time: 19.951 min
Base peak: 79.0211
Precursor m/z: 308.004
Precursor type: [M+H]+
Precursor intensity: 29018046.5
m/z	relative intensity	assigned
51.0229	4	C4H3+
53.0022	3	C3HO+
71.0291	16	C4H4F+
74.015	5	C6H2+
75.0229	51	C6H3+
79.0179	6	C5H3O+
83.0291	11	C5H4F+
90.0337	3	C6H4N+
91.0417	14	C6H5N+
91.0542	1	C7H7+
93.0335	2	C6H5O+
95.0291	21	C6H4F+
98.9998	2	C5H4Cl+
99.0239	3	C5H4FO+
104.0494	1	C7H6N+
109.0449	6	C7H6F+
111.0242	8	C6H4FO+
112.0319	2	C6H5FO+
113.0397	91	C6H6FO+
114.034	2	C8H4N+
115.0416	4	C8H5N+
118.0287	14	C7H4NO+
119.0365	3	C7H5NO+
122.9996	30	C7H4Cl+
126.0105	20	C6H5ClN+
132.0443	13	C8H6NO+
133.0522	26	C8H7NO+
138.0105	14	C7H5ClN+
150.0105	52	C8H5ClN+
154.0053	10	C7H5ClNO+
156.9601	1	C7H3Cl2+
161.0025	4	C9H4ClN+
162.0104	198	C9H5ClN+
164.9975	3	C8H4ClNO+
166.0054	41	C8H5ClNO+
167.0136	2	C8H6ClNO+
168.0211	92	C8H7ClNO+
169.9681	2	C8H4Cl2+
172.9792	3	C7H5Cl2N+
178.0054	15	C9H5ClNO+
178.0165	33	C10H7ClO+
179.0132	4	C9H6ClNO+
180.0208	8	C9H7ClNO+
183.0605	9	C13H8F+
183.9716	34	C8H4Cl2N+
184.9794	55	C8H5Cl2N+
188.026	3	C11H7ClN+
190.0652	3	C14H8N+
194	6	C15N+
194.0365	1	C10H9ClNO+
195.9715	15	C9H4Cl2N+
196.9794	988	C9H5Cl2N+
197.9873	1	C9H6Cl2N+
199.9662	7	C8H4Cl2NO+
200.9741	3	C8H5Cl2NO+
201.0342	2	C12H8ClN+
208.0559	7	C14H7FN+
209.0635	56	C14H8FN+
210.0713	36	C14H9FN+
211.9661	3	C9H4Cl2NO+
212.9743	32	C9H5Cl2NO+
213.982	861	C9H6Cl2NO+
217.0214	20	C13H7ClF+
218.06	1	C15H8NO+
219.0244	17	C12H7ClFN+
224.0261	4	C14H7ClN+
225.0339	42	C14H8ClN+
226.0418	10	C14H9ClN+
228.9692	999	C15ClN+
230.9734	4	C13H5Cl2+
232.9918	2	C13H7Cl2+
236.0508	2	C15H7FNO+
237.0583	115	C15H8FNO+
238.0665	16	C15H9FNO+
243.0245	7	C14H7ClFN+
244.0323	163	C14H8ClFN+
245.0402	241	C14H9ClFN+
252.0212	2	C15H7ClNO+
253.029	30	C15H8ClNO+
254.0369	27	C15H9ClNO+
255.0235	5	C15H7ClFN+
256.0319	5	C15H8ClFN+
258.9954	1	C14H7Cl2N+
260.0028	14	C14H8Cl2N+
265.9933	4	C13H7Cl2FN+
271.0187	2	C15H7ClFNO+
272.0272	672	C15H8ClFNO+
273.0352	16	C15H9ClFNO+
279.0016	6	C14H8Cl2FN+
280.0091	58	C14H9Cl2FN+
287.9978	50	C15H8Cl2NO+
289.9935	1	C15H7Cl2FN+
308.004	731	C15H9Cl2FNO+
