Mass spectrum: Phenazopyridine; LC-ESI-QFT; MS2; CE: 30; R=17500; [M+H]+
Name: Phenazopyridine
Name: 3-phenyldiazenylpyridine-2,6-diamine
Formula: C11H11N5
Exact mass: 213.1014
SMILES: NC1=CC=C(N=NC2=CC=CC=C2)C(N)=N1
InChI: InChI=1S/C11H11N5/c12-10-7-6-9(11(13)14-10)16-15-8-4-2-1-3-5-8/h1-7H,(H4,12,13,14)
Instrument: Q Exactive Orbitrap (Thermo Scientific)
Instrument type: LC-ESI-QFT
Ms type: MS2
Ion mode: POSITIVE
Ionization: ESI
Fragmentation mode: HCD
Collision energy: 30
Resolution: 17500
Column name: Acquity BEH C18 1.7um, 2.1x150mm (Waters)
Retention time: 14.298 min
Base peak: 79.0211
Precursor m/z: 214.1087
Precursor type: [M+H]+
Precursor intensity: 44971834.625
m/z	relative intensity	assigned
53.0386	2	C4H5+
71.0603	7	C3H7N2+
77.0384	1	C6H5+
81.0446	1	C4H5N2+
93.0573	4	C6H7N+
95.0491	7	C4H5N3+
96.0555	6	C4H6N3+
105.0448	4	C6H5N2+
107.0604	1	C6H7N2+
108.0556	3	C5H6N3+
109.0633	1	C5H7N3+
122.0587	36	C5H6N4+
123.0664	1	C5H7N4+
124.0869	65	C6H10N3+
166.1087	14	C7H12N5+
170.0714	1	C10H8N3+
197.0822	6	C11H9N4+
198.09	6	C11H10N4+
199.088	1	C10H9N5+
214.1111	999	C11H12N5+
