Mass spectrum: CP-409092; LC-ESI-QFT; MS2; CE: 90; R=17500; [M-H]-
Name: CP-409092
Name: 1H-Indole-3-carboxamide, 4,5,6,7-tetrahydro-N-(4-((methylamino)methyl)phenyl)-4-oxo-
Name: N-[4-(methylaminomethyl)phenyl]-4-oxo-1,5,6,7-tetrahydroindole-3-carboxamide
Formula: C17H19N3O2
Exact mass: 297.1477
SMILES: CNCC1=CC=C(NC(=O)C2=CNC3=C2C(=O)CCC3)C=C1
InChI: InChI=1S/C17H19N3O2/c1-18-9-11-5-7-12(8-6-11)20-17(22)13-10-19-14-3-2-4-15(21)16(13)14/h5-8,10,18-19H,2-4,9H2,1H3,(H,20,22)
Instrument: Q Exactive Orbitrap (Thermo Scientific)
Instrument type: LC-ESI-QFT
Ms type: MS2
Ion mode: NEGATIVE
Ionization: ESI
Fragmentation mode: HCD
Collision energy: 90
Resolution: 17500
Column name: Acquity BEH C18 1.7um, 2.1x150mm (Waters)
Retention time: 12.411 min
Base peak: 296.1404
Precursor m/z: 296.1405
Precursor type: [M-H]-
Precursor intensity: 11449382.26929
m/z	relative intensity	assigned
55.0187	1	C3H3O-
63.0115	2	C4HN-
65.0033	10	C4HO-
65.9985	59	C3NO-
66.035	13	C4H4N-
76.0193	7	C5H2N-
78.0349	4	C5H4N-
79.0553	2	C6H7-
80.0142	11	C4H2NO-
80.0506	30	C5H6N-
81.022	6	C4H3NO-
92.0506	90	C6H6N-
94.0298	4	C5H4NO-
96.0455	49	C5H6NO-
102.0348	5	C7H4N-
103.0428	114	C7H5N-
104.0506	81	C7H6N-
105.022	14	C6H3NO-
105.0583	4	C7H7N-
106.0662	493	C7H8N-
107.0375	4	C6H5NO-
107.0502	2	C7H7O-
108.0455	8	C6H6NO-
116.0507	18	C8H6N-
118.0297	2	C7H4NO-
119.0374	4	C7H5NO-
119.0613	13	C7H7N2-
120.0454	6	C7H6NO-
122.0611	832	C7H8NO-
131.0377	16	C8H5NO-
132.0455	96	C8H6NO-
133.0534	5	C8H7NO-
133.0773	2	C8H9N2-
134.0611	999	C8H8NO-
135.0928	45	C8H11N2-
136.0405	4	C7H6NO2-
148.0405	10	C8H6NO2-
149.0483	12	C8H7NO2-
159.0326	4	C9H5NO2-
159.0564	6	C9H7N2O-
160.0404	3	C9H6NO2-
170.0044	2	C13N-
