Mass spectrum: Quinoxyfen; LC-ESI-QFT; MS2; CE: 30; R=17500; [M+H]+
Name: Quinoxyfen
Name: 5,7-dichloro-4-(4-fluorophenoxy)quinoline
Formula: C15H8Cl2FNO
Exact mass: 306.9967
SMILES: FC1=CC=C(OC2=CC=NC3=CC(Cl)=CC(Cl)=C23)C=C1
InChI: InChI=1S/C15H8Cl2FNO/c16-9-7-12(17)15-13(8-9)19-6-5-14(15)20-11-3-1-10(18)2-4-11/h1-8H
Instrument: Q Exactive Orbitrap (Thermo Scientific)
Instrument type: LC-ESI-QFT
Ms type: MS2
Ion mode: POSITIVE
Ionization: ESI
Fragmentation mode: HCD
Collision energy: 30
Resolution: 17500
Column name: Acquity BEH C18 1.7um, 2.1x150mm (Waters)
Retention time: 19.951 min
Base peak: 79.0211
Precursor m/z: 308.004
Precursor type: [M+H]+
Precursor intensity: 29326393.75
m/z	relative intensity	assigned
196.9793	1	C9H5Cl2N+
213.9815	1	C9H6Cl2NO+
228.9687	1	C15ClN+
245.0405	1	C14H9ClFN+
272.0272	9	C15H8ClFNO+
280.0088	1	C14H9Cl2FN+
308.0039	999	C15H9Cl2FNO+
