Mass spectrum: CP-114271; LC-ESI-QFT; MS2; CE: 90; R=17500; [M-H]-
Name: CP-114271
Name: 2-[4-[2-[[2-hydroxy-2-[2-(trifluoromethyl)-1,3-thiazol-4-yl]ethyl]amino]propyl]phenoxy]acetic acid
Formula: C17H19F3N2O4S
Exact mass: 404.1018
SMILES: CC(CC1=CC=C(OCC(O)=O)C=C1)NCC(O)C1=CSC(=N1)C(F)(F)F
InChI: InChI=1S/C17H19F3N2O4S/c1-10(6-11-2-4-12(5-3-11)26-8-15(24)25)21-7-14(23)13-9-27-16(22-13)17(18,19)20/h2-5,9-10,14,21,23H,6-8H2,1H3,(H,24,25)
Instrument: Q Exactive Orbitrap (Thermo Scientific)
Instrument type: LC-ESI-QFT
Ms type: MS2
Ion mode: NEGATIVE
Ionization: ESI
Fragmentation mode: HCD
Collision energy: 90
Resolution: 17500
Column name: Acquity BEH C18 1.7um, 2.1x150mm (Waters)
Retention time: 13.754 min
Base peak: 403.0945
Precursor m/z: 403.0945
Precursor type: [M-H]-
Precursor intensity: 8913315.595703
m/z	relative intensity	assigned
56.9804	999	C2HS-
57.9757	15	CNS-
66.0349	3	C4H4N-
68.0506	9	C4H6N-
68.9958	218	CF3-
81.9757	24	C3NS-
84.0455	4	C4H6NO-
84.9755	1	C3HOS-
93.0346	5	C6H5O-
95.0502	5	C6H7O-
98.0071	4	C4H4NS-
100.968	1	CF3S-
106.0425	17	C7H6O-
107.0503	21	C7H7O-
108.0217	5	C6H4O2-
114.9515	1	FO4S-
119.0502	34	C8H7O-
123.0026	1	C5H3N2S-
123.0452	4	C7H7O2-
131.0506	1	C9H7O-
132.058	5	C9H8O-
133.0659	45	C9H9O-
135.0456	1	C8H7O2-
135.0816	1	C9H11O-
138.0325	3	C7H6O3-
151.9788	33	C4HF3NS-
