Mass spectrum: Thiophanate; LC-ESI-QFT; MS2; CE: 60; R=17500; [M-H]-
Name: Thiophanate
Name: N'-ethoxycarbonyl-N-[2-[(N-ethoxycarbonyl-C-sulfanylcarbonimidoyl)amino]phenyl]carbamimidothioic acid
Formula: C14H18N4O4S2
Exact mass: 370.0769
SMILES: CCOC(=O)NC(=S)NC1=C(NC(=S)NC(=O)OCC)C=CC=C1
InChI: InChI=1S/C14H18N4O4S2/c1-3-21-13(19)17-11(23)15-9-7-5-6-8-10(9)16-12(24)18-14(20)22-4-2/h5-8H,3-4H2,1-2H3,(H2,15,17,19,23)(H2,16,18,20,24)
Instrument: Q Exactive Orbitrap (Thermo Scientific)
Instrument type: LC-ESI-QFT
Ms type: MS2
Ion mode: NEGATIVE
Ionization: ESI
Fragmentation mode: HCD
Collision energy: 60
Resolution: 17500
Column name: Acquity BEH C18 1.7um, 2.1x150mm (Waters)
Retention time: 16.509 min
Base peak: 165.092
Precursor m/z: 369.0697
Precursor type: [M-H]-
Precursor intensity: 2992819.075195
m/z	relative intensity	assigned
57.9757	18	CNS-
117.0458	266	C7H5N2-
132.0567	135	C7H6N3-
149.0179	999	C7H5N2S-
158.036	576	C8H4N3O-
174.013	16	C8H4N3S-
