Mass spectrum: Salicylanilide; LC-ESI-QFT; MS2; CE: 60; R=17500; [M-H]-
Name: Salicylanilide
Name: 2-hydroxy-N-phenylbenzamide
Formula: C13H11NO2
Exact mass: 213.0790
SMILES: OC1=C(C=CC=C1)C(=O)NC1=CC=CC=C1
InChI: InChI=1S/C13H11NO2/c15-12-9-5-4-8-11(12)13(16)14-10-6-2-1-3-7-10/h1-9,15H,(H,14,16)
Instrument: Q Exactive Orbitrap (Thermo Scientific)
Instrument type: LC-ESI-QFT
Ms type: MS2
Ion mode: NEGATIVE
Ionization: ESI
Fragmentation mode: HCD
Collision energy: 60
Resolution: 17500
Column name: Acquity BEH C18 1.7um, 2.1x150mm (Waters)
Retention time: 16.915 min
Base peak: 212.0716
Precursor m/z: 212.0717
Precursor type: [M-H]-
Precursor intensity: 73550506.13184
m/z	relative intensity	assigned
65.0397	10	C5H5-
91.0191	8	C6H3O-
92.0506	999	C6H6N-
93.0345	698	C6H5O-
118.0298	5	C7H4NO-
136.0403	1	C7H6NO2-
169.0658	3	C12H9O-
194.0612	12	C13H8NO-
212.0717	79	C13H10NO2-
