Mass spectrum: Epoxiconazole; LC-ESI-QFT; MS2; CE: 15; R=17500; [M+H]+
Name: Epoxiconazole
Name: 1-[[3-(2-chlorophenyl)-2-(4-fluorophenyl)oxiran-2-yl]methyl]-1,2,4-triazole
Formula: C17H13ClFN3O
Exact mass: 329.0731
SMILES: FC1=CC=C(C=C1)C1(CN2C=NC=N2)OC1C1=C(Cl)C=CC=C1
InChI: InChI=1S/C17H13ClFN3O/c18-15-4-2-1-3-14(15)16-17(23-16,9-22-11-20-10-21-22)12-5-7-13(19)8-6-12/h1-8,10-11,16H,9H2
Instrument: Q Exactive Orbitrap (Thermo Scientific)
Instrument type: LC-ESI-QFT
Ms type: MS2
Ion mode: POSITIVE
Ionization: ESI
Fragmentation mode: HCD
Collision energy: 15
Resolution: 17500
Column name: Acquity BEH C18 1.7um, 2.1x150mm (Waters)
Retention time: 18.034 min
Base peak: 79.0212
Precursor m/z: 330.0804
Precursor type: [M+H]+
Precursor intensity: 23133633.25
m/z	relative intensity	assigned
70.0399	29	C2H4N3+
121.0448	299	C8H6F+
123.024	143	C7H4FO+
138.9944	2	C2H3ClFN3O+
141.0102	57	C7H6ClO+
190.0775	2	C10H9FN3+
261.0481	4	C15H11ClFO+
330.0804	999	C17H14ClFN3O+
