Mass spectrum: Nuarimol; LC-ESI-QFT; MS2; CE: 30; R=17500; [M+H]+
Name: Nuarimol
Name: (2-chlorophenyl)-(4-fluorophenyl)-pyrimidin-5-ylmethanol
Formula: C17H12ClFN2O
Exact mass: 314.0622
SMILES: OC(C1=CC=C(F)C=C1)(C1=CN=CN=C1)C1=CC=CC=C1Cl
InChI: InChI=1S/C17H12ClFN2O/c18-16-4-2-1-3-15(16)17(22,13-9-20-11-21-10-13)12-5-7-14(19)8-6-12/h1-11,22H
Instrument: Q Exactive Orbitrap (Thermo Scientific)
Instrument type: LC-ESI-QFT
Ms type: MS2
Ion mode: POSITIVE
Ionization: ESI
Fragmentation mode: HCD
Collision energy: 30
Resolution: 17500
Column name: Acquity BEH C18 1.7um, 2.1x150mm (Waters)
Retention time: 17.248 min
Base peak: 79.0212
Precursor m/z: 315.0695
Precursor type: [M+H]+
Precursor intensity: 3610895.625
m/z	relative intensity	assigned
54.0339	2	C3H4N+
81.0447	174	C4H5N2+
123.024	15	C7H4FO+
138.9945	15	C7H4ClO+
149.0157	1	C9H6Cl+
155.0606	3	C10H7N2+
156.0683	8	C10H8N2+
157.0758	1	C10H9N2+
175.0667	4	C10H8FN2+
176.0509	2	C10H7FNO+
176.0745	3	C10H9FN2+
183.0552	12	C11H7N2O+
184.0632	3	C11H8N2O+
191.0371	7	C10H8ClN2+
192.0449	4	C10H9ClN2+
194.0612	2	C7H12ClFN2O+
203.0615	8	C11H8FN2O+
207.0611	1	C15H8F+
222.0712	3	C15H9FN+
224.0869	8	C15H11FN+
234.0711	2	C16H9FN+
235.032	24	C13H9ClFO+
235.0792	8	C16H10FN+
236.0633	41	C16H9FO+
240.0816	1	C15H11FNO+
243.0372	105	C15H9ClF+
251.0746	2	C13H13ClFN2+
251.098	9	C16H12FN2+
252.082	357	C16H11FNO+
259.0326	1	C15H9ClFO+
260.0638	10	C15H12ClFN+
261.0473	1	C15H11ClFO+
261.081	1	C17H10FN2+
262.0902	7	C17H11FN2+
270.048	10	C16H10ClFN+
271.0321	24	C16H9ClFO+
279.0926	15	C17H12FN2O+
286.0429	5	C16H10ClFNO+
286.067	10	C16H12ClFN2+
287.0744	7	C16H13ClFN2+
288.0587	133	C16H12ClFNO+
295.0624	1	C17H12ClN2O+
297.059	15	C17H11ClFN2+
314.0625	1	C17H12ClFN2O+
315.0695	999	C17H13ClFN2O+
