Mass spectrum: Imidacloprid; LC-ESI-QFT; MS2; CE: 75; R=17500; [M+H]+
Name: Imidacloprid
Name: N-[1-[(6-Chloro-3-pyridinyl)methyl]-4,5-dihydroimidazol-2-yl]nitramide
Name: N-[1-[(6-chloropyridin-3-yl)methyl]-4,5-dihydroimidazol-2-yl]nitramide
Formula: C9H10ClN5O2
Exact mass: 255.0523
SMILES: [O-][N+](=O)\N=C1/NCCN1CC1=CN=C(Cl)C=C1
InChI: InChI=1S/C9H10ClN5O2/c10-8-2-1-7(5-12-8)6-14-4-3-11-9(14)13-15(16)17/h1-2,5H,3-4,6H2,(H,11,13)
Instrument: Q Exactive Orbitrap (Thermo Scientific)
Instrument type: LC-ESI-QFT
Ms type: MS2
Ion mode: POSITIVE
Ionization: ESI
Fragmentation mode: HCD
Collision energy: 75
Resolution: 17500
Column name: Acquity BEH C18 1.7um, 2.1x150mm (Waters)
Retention time: 12.341 min
Base peak: 79.0211
Precursor m/z: 256.0596
Precursor type: [M+H]+
Precursor intensity: 3801165.75
m/z	relative intensity	assigned
54.0339	5	C3H4N+
56.0495	72	C3H6N+
57.0447	14	C2H5N2+
65.0386	23	C5H5+
69.0446	17	C3H5N2+
70.0287	8	C3H4NO+
71.0603	28	C3H7N2+
78.0338	5	C5H4N+
79.0542	5	C6H7+
80.0494	24	C5H6N+
84.0556	319	C3H6N3+
90.0337	32	C6H4N+
91.0415	10	C6H5N+
92.0494	30	C6H6N+
93.0448	4	C5H5N2+
93.0573	28	C6H7N+
95.0603	5	C5H7N2+
96.0444	23	C5H6NO+
96.0558	4	C4H6N3+
97.0634	6	C4H7N3+
98.0713	16	C4H8N3+
98.9996	20	C5H4Cl+
99.0553	32	C4H7N2O+
104.0495	9	C7H6N+
105.0448	48	C6H5N2+
106.0525	7	C6H6N2+
106.0651	55	C7H8N+
107.0604	50	C6H7N2+
108.0445	4	C6H6NO+
108.0682	15	C6H8N2+
109.0634	7	C5H7N3+
110.0601	12	C6H8NO+
113.0026	6	C5H4ClN+
114.0106	19	C5H5ClN+
117.045	5	C7H5N2+
118.0525	15	C7H6N2+
119.0479	19	C6H5N3+
119.0604	62	C7H7N2+
120.0556	46	C6H6N3+
120.0682	7	C7H8N2+
121.0761	7	C7H9N2+
122.0712	10	C6H8N3+
123.0553	12	C6H7N2O+
126.0105	129	C6H5ClN+
127.0184	33	C6H6ClN+
128.0261	114	C6H7ClN+
130.0053	4	C5H5ClNO+
131.048	6	C7H5N3+
131.0604	50	C8H7N2+
132.0557	27	C7H6N3+
132.0683	14	C8H8N2+
133.0635	123	C7H7N3+
133.076	80	C8H9N2+
134.06	6	C8H8NO+
134.0713	75	C7H8N3+
134.0839	6	C8H10N2+
135.0555	10	C7H7N2O+
135.079	14	C7H9N3+
138.0105	6	C7H5ClN+
139.0058	17	C6H4ClN2+
140.0136	5	C6H5ClN2+
140.0262	14	C7H7ClN+
141.0215	84	C6H6ClN2+
144.021	17	C6H7ClNO+
144.9925	15	C5H4ClNO2+
145.0511	9	C7H5N4+
146.0592	24	C7H6N4+
146.0713	175	C8H8N3+
147.0665	237	C7H7N4+
147.0792	14	C8H9N3+
148.0741	11	C7H8N4+
148.087	94	C8H10N3+
149.0714	4	C8H9N2O+
150.0662	8	C7H8N3O+
151.0184	14	C8H6ClN+
152.0134	6	C7H5ClN2+
153.0213	11	C7H6ClN2+
154.0169	3	C6H5ClN3+
157.0635	19	C9H7N3+
158.0713	98	C9H8N3+
159.068	20	C8H7N4+
159.0792	151	C9H9N3+
160.0747	8	C8H8N4+
166.0166	32	C7H5ClN3+
167.0248	7	C7H6ClN3+
167.0371	56	C8H8ClN2+
168.0323	5	C7H7ClN3+
173.0822	265	C9H9N4+
174.09	187	C9H10N4+
175.0979	830	C9H11N4+
180.0199	14	C7H5ClN4+
180.0322	15	C8H7ClN3+
181.0276	62	C7H6ClN4+
191.0929	45	C9H11N4O+
192.0319	4	C9H7ClN3+
193.0277	3	C8H6ClN4+
194.0484	22	C9H9ClN3+
207.0434	14	C9H8ClN4+
208.051	57	C9H9ClN4+
209.0589	999	C9H10ClN4+
