Mass spectrum: 1-Amino-2-methylanthraquinone; LC-ESI-QFT; MS2; CE: 45; R=17500; [M+H]+
Name: 1-Amino-2-methylanthraquinone
Name: 1-amino-2-methylanthracene-9,10-dione
Formula: C15H11NO2
Exact mass: 237.0790
SMILES: CC1=CC=C2C(=O)C3=C(C=CC=C3)C(=O)C2=C1N
InChI: InChI=1S/C15H11NO2/c1-8-6-7-11-12(13(8)16)15(18)10-5-3-2-4-9(10)14(11)17/h2-7H,16H2,1H3
Instrument: Q Exactive Orbitrap (Thermo Scientific)
Instrument type: LC-ESI-QFT
Ms type: MS2
Ion mode: POSITIVE
Ionization: ESI
Fragmentation mode: HCD
Collision energy: 45
Resolution: 17500
Column name: Acquity BEH C18 1.7um, 2.1x150mm (Waters)
Retention time: 18.494 min
Base peak: 79.0212
Precursor m/z: 238.0863
Precursor type: [M+H]+
Precursor intensity: 1433131.875
m/z	relative intensity	assigned
72.0442	2	C3H6NO+
91.0542	5	C7H7+
105.0335	29	C7H5O+
130.0288	5	C8H4NO+
132.0443	2	C8H6NO+
134.06	2	C8H8NO+
160.0393	27	C9H6NO2+
165.0699	16	C13H9+
167.0728	6	C12H9N+
180.0814	1	C13H10N+
181.0882	2	C13H11N+
182.0963	4	C13H12N+
192.0808	7	C14H10N+
193.0649	22	C14H9O+
193.0891	3	C14H11N+
194.0966	2	C14H12N+
195.0681	10	C13H9NO+
197.0595	1	C13H9O2+
209.0829	6	C14H11NO+
210.0913	21	C14H12NO+
211.075	6	C14H11O2+
220.0757	23	C15H10NO+
221.0601	7	C15H9O2+
222.0553	1	C14H8NO2+
223.0628	71	C14H9NO2+
236.0709	6	C15H10NO2+
238.0862	999	C15H12NO2+
