Mass spectrum: 2,2`,4,4`-Tetrahydroxybenzophenone; LC-ESI-QFT; MS2; CE: 90; R=17500; [M-H]-
Name: 2,2',4,4'-Tetrahydroxybenzophenone
Name: bis(2,4-dihydroxyphenyl)methanone
Formula: C13H10O5
Exact mass: 246.0528
SMILES: OC1=CC(O)=C(C=C1)C(=O)C1=CC=C(O)C=C1O
InChI: InChI=1S/C13H10O5/c14-7-1-3-9(11(16)5-7)13(18)10-4-2-8(15)6-12(10)17/h1-6,14-17H
Instrument: Q Exactive Orbitrap (Thermo Scientific)
Instrument type: LC-ESI-QFT
Ms type: MS2
Ion mode: NEGATIVE
Ionization: ESI
Fragmentation mode: HCD
Collision energy: 90
Resolution: 17500
Column name: Acquity BEH C18 1.7um, 2.1x150mm (Waters)
Retention time: 14.968 min
Base peak: 245.0455
Precursor m/z: 245.0455
Precursor type: [M-H]-
Precursor intensity: 29599051.87207
m/z	relative intensity	assigned
63.024	21	C5H3-
65.0033	211	C4HO-
65.0397	695	C5H5-
67.0189	403	C4H3O-
69.0346	2	C4H5O-
79.019	3	C5H3O-
81.0347	2	C5H5O-
89.0397	18	C7H5-
91.019	999	C6H3O-
92.9982	4	C5HO2-
95.0139	3	C5H3O2-
97.0293	1	C5H5O2-
107.0139	20	C6H3O2-
108.0217	2	C6H4O2-
109.0295	787	C6H5O2-
115.0555	8	C9H7-
117.0346	7	C8H5O-
123.0089	3	C6H3O3-
124.0166	3	C6H4O3-
130.0423	12	C9H6O-
131.0503	8	C9H7O-
133.0297	6	C8H5O2-
135.0088	27	C7H3O3-
153.0193	6	C7H5O4-
158.0372	10	C10H6O2-
159.045	10	C10H7O2-
161.0245	10	C9H5O3-
