Mass spectrum: Chlorbromuron; LC-ESI-QFT; MS2; CE: 45; R=17500; [M-H]-
Name: Chlorbromuron
Name: 3-(4-bromo-3-chlorophenyl)-1-methoxy-1-methylurea
Formula: C9H10BrClN2O2
Exact mass: 291.9614
SMILES: CON(C)C(=O)NC1=CC(Cl)=C(Br)C=C1
InChI: InChI=1S/C9H10BrClN2O2/c1-13(15-2)9(14)12-6-3-4-7(10)8(11)5-6/h3-5H,1-2H3,(H,12,14)
Instrument: Q Exactive Orbitrap (Thermo Scientific)
Instrument type: LC-ESI-QFT
Ms type: MS2
Ion mode: NEGATIVE
Ionization: ESI
Fragmentation mode: HCD
Collision energy: 45
Resolution: 17500
Column name: Acquity BEH C18 1.7um, 2.1x150mm (Waters)
Retention time: 17.618 min
Base peak: 269.0544
Precursor m/z: 290.9541
Precursor type: [M-H]-
Precursor intensity: 2545214.109375
m/z	relative intensity	assigned
78.9189	999	Br-
202.9146	6	C6H3BrClN-
203.9221	183	C6H4BrClN-
229.9014	4	C7H2BrClNO-
258.928	45	C8H5BrClN2O-
275.9311	4	C8H6BrClN2O2-
