Mass spectrum: Chrysin; LC-ESI-QFT; MS2; CE: 75; R=17500; [M-H]-
Name: Chrysin
Name: 5,7-dihydroxy-2-phenylchromen-4-one
Formula: C15H10O4
Exact mass: 254.0579
SMILES: OC1=CC2=C(C(O)=C1)C(=O)C=C(O2)C1=CC=CC=C1
InChI: InChI=1S/C15H10O4/c16-10-6-11(17)15-12(18)8-13(19-14(15)7-10)9-4-2-1-3-5-9/h1-8,16-17H
Instrument: Q Exactive Orbitrap (Thermo Scientific)
Instrument type: LC-ESI-QFT
Ms type: MS2
Ion mode: NEGATIVE
Ionization: ESI
Fragmentation mode: HCD
Collision energy: 75
Resolution: 17500
Column name: Acquity BEH C18 1.7um, 2.1x150mm (Waters)
Retention time: 17.836 min
Base peak: 253.0506
Precursor m/z: 253.0506
Precursor type: [M-H]-
Precursor intensity: 56207118.38574
m/z	relative intensity	assigned
55.0189	4	C3H3O-
61.0084	2	C5H-
63.024	999	C5H3-
63.9955	4	C4O-
65.0033	516	C4HO-
67.0189	2	C4H3O-
68.9982	3	C3HO2-
77.0032	2	C5HO-
79.019	28	C5H3O-
83.0139	37	C4H3O2-
89.0033	65	C6HO-
91.0188	1	C6H3O-
95.0141	1	C5H3O2-
101.0397	144	C8H5-
103.0191	1	C7H3O-
104.0268	2	C7H4O-
107.0139	143	C6H3O2-
115.0553	63	C9H7-
117.0346	15	C8H5O-
119.0502	224	C8H7O-
121.0296	7	C7H5O2-
125.0395	1	C10H5-
127.0554	4	C10H7-
129.0343	1	C9H5O-
129.0709	1	C10H9-
131.0136	1	C8H3O2-
135.0086	1	C7H3O3-
138.0475	1	C11H6-
139.0554	32	C11H7-
141.0345	4	C10H5O-
141.0709	6	C11H9-
143.0502	344	C10H7O-
145.0295	187	C9H5O2-
148.0168	5	C8H4O3-
151.0036	24	C7H3O4-
151.0554	2	C12H7-
152.0632	6	C12H8-
153.071	8	C12H9-
155.0503	23	C11H7O-
157.0658	8	C11H9O-
165.0709	33	C13H9-
167.0502	41	C12H7O-
169.0298	1	C11H5O2-
169.0661	7	C12H9O-
180.0583	14	C13H8O-
181.0659	25	C13H9O-
183.0449	5	C12H7O2-
185.0608	11	C12H9O2-
187.0404	1	C11H7O3-
191.0503	1	C14H7O-
195.0448	2	C13H7O2-
197.0609	5	C13H9O2-
208.053	8	C14H8O2-
209.0607	18	C14H9O2-
211.04	8	C13H7O3-
224.0491	1	C14H8O3-
225.0553	3	C14H9O3-
253.0506	43	C15H9O4-
