Mass spectrum: Cyproterone acetate; LC-ESI-QFT; MS2; CE: 60; R=17500; [M+H]+
Name: Cyproterone acetate
Name: [(1S,2S,3S,5R,11R,12S,15R,16S)-15-acetyl-9-chloro-2,16-dimethyl-6-oxo-15-pentacyclo[9.7.0.02,8.03,5.012,16]octadeca-7,9-dienyl] acetate
Formula: C24H29ClO4
Exact mass: 416.1754
SMILES: CC(=O)O[C@@]1(CC[C@H]2[C@@H]3C=C(Cl)C4=CC(=O)[C@@H]5C[C@@H]5[C@]4(C)[C@H]3CC[C@]12C)C(C)=O
InChI: InChI=1S/C24H29ClO4/c1-12(26)24(29-13(2)27)8-6-16-14-10-20(25)19-11-21(28)15-9-18(15)23(19,4)17(14)5-7-22(16,24)3/h10-11,14-18H,5-9H2,1-4H3/t14-,15+,16-,17-,18-,22-,23-,24-/m0/s1
Instrument: Q Exactive Orbitrap (Thermo Scientific)
Instrument type: LC-ESI-QFT
Ms type: MS2
Ion mode: POSITIVE
Ionization: ESI
Fragmentation mode: HCD
Collision energy: 60
Resolution: 17500
Column name: Acquity BEH C18 1.7um, 2.1x150mm (Waters)
Retention time: 18.263 min
Base peak: 79.0211
Precursor m/z: 417.1827
Precursor type: [M+H]+
Precursor intensity: 3670631.5
m/z	relative intensity	assigned
53.0386	32	C4H5+
55.0179	79	C3H3O+
55.0543	119	C4H7+
57.07	28	C4H9+
59.0492	35	C3H7O+
65.0385	27	C5H5+
67.0542	194	C5H7+
69.0335	52	C4H5O+
69.0699	39	C5H9+
71.0491	22	C4H7O+
79.0542	199	C6H7+
81.0699	195	C6H9+
83.0491	35	C5H7O+
85.0283	41	C4H5O2+
85.0648	18	C5H9O+
91.0542	582	C7H7+
93.0699	336	C7H9+
95.0492	103	C6H7O+
95.0855	122	C7H11+
97.0649	56	C6H9O+
103.0542	58	C8H7+
105.0699	999	C8H9+
107.0491	75	C7H7O+
107.0855	193	C8H11+
109.0648	84	C7H9O+
109.1012	53	C8H13+
111.0804	31	C7H11O+
115.0543	118	C9H7+
116.062	33	C9H8+
117.0698	312	C9H9+
119.0494	35	C8H7O+
119.0855	394	C9H11+
121.0648	232	C8H9O+
121.1012	101	C9H13+
123.0804	26	C8H11O+
127.0308	19	C7H8Cl+
128.062	140	C10H8+
129.0699	346	C10H9+
130.0778	119	C10H10+
131.0492	47	C9H7O+
131.0856	403	C10H11+
132.0571	34	C9H8O+
133.0649	57	C9H9O+
133.1012	847	C10H13+
135.0805	72	C9H11O+
135.1171	36	C10H15+
139.031	46	C8H8Cl+
141.0698	210	C11H9+
142.0778	291	C11H10+
143.0856	326	C11H11+
144.057	35	C10H8O+
144.0935	49	C11H12+
145.0647	230	C10H9O+
145.1012	357	C11H13+
146.0727	65	C10H10O+
147.0803	130	C10H11O+
147.1168	504	C11H15+
149.096	20	C10H13O+
151.0309	28	C9H8Cl+
151.1121	17	C10H15O+
152.0618	22	C12H8+
153.0465	41	C9H10Cl+
153.0697	87	C12H9+
154.0777	86	C12H10+
155.026	35	C8H8ClO+
155.0608	28	C9H12Cl+
155.0855	336	C12H11+
156.0935	97	C12H12+
157.0648	121	C11H9O+
157.1012	282	C12H13+
158.0728	73	C11H10O+
159.0805	191	C11H11O+
159.1169	182	C12H15+
160.0885	29	C11H12O+
161.0961	42	C11H13O+
163.0311	30	C10H8Cl+
165.0467	46	C10H10Cl+
165.0699	149	C13H9+
166.0776	82	C13H10+
167.0263	15	C9H8ClO+
167.0624	19	C10H12Cl+
167.0856	214	C13H11+
168.0932	103	C13H12+
169.0417	28	C9H10ClO+
169.0644	39	C12H9O+
169.1011	194	C13H13+
170.0726	40	C12H10O+
170.1092	24	C13H14+
171.0805	149	C12H11O+
171.1169	141	C13H15+
172.0882	36	C12H12O+
173.0963	57	C12H13O+
175.0312	44	C11H8Cl+
175.1119	80	C12H15O+
177.0466	98	C11H10Cl+
178.0177	21	C10H7ClO+
178.078	56	C14H10+
179.026	43	C10H8ClO+
179.0619	29	C11H12Cl+
179.0856	215	C14H11+
180.0934	114	C14H12+
181.0413	127	C10H10ClO+
181.0644	23	C13H9O+
181.0781	27	C11H14Cl+
181.1011	254	C14H13+
182.0723	18	C13H10O+
182.1093	100	C14H14+
183.0804	73	C13H11O+
183.1169	333	C14H15+
184.0884	52	C13H12O+
184.1252	20	C14H16+
185.0959	214	C13H13O+
185.1327	28	C14H17+
186.1046	22	C13H14O+
187.1119	31	C13H15O+
189.0461	69	C12H10Cl+
190.0773	25	C15H10+
191.0255	85	C11H8ClO+
191.0625	27	C12H12Cl+
191.0857	94	C15H11+
192.0933	116	C15H12+
193.0415	45	C11H10ClO+
193.0786	18	C12H14Cl+
193.1013	207	C15H13+
194.0727	28	C14H10O+
194.1092	87	C15H14+
195.0807	56	C14H11O+
195.1169	204	C15H15+
196.0883	22	C14H12O+
196.1251	51	C15H16+
197.0964	60	C14H13O+
197.1327	77	C15H17+
199.1119	30	C14H15O+
201.0464	23	C13H10Cl+
202.0778	31	C16H10+
203.0626	30	C13H12Cl+
203.0858	84	C16H11+
204.0931	98	C16H12+
205.0418	130	C12H10ClO+
205.1012	175	C16H13+
206.1093	95	C16H14+
207.058	16	C12H12ClO+
207.0807	51	C15H11O+
207.1171	164	C16H15+
208.0881	56	C15H12O+
208.1249	48	C16H16+
209.0962	125	C15H13O+
209.1326	112	C16H17+
210.104	21	C15H14O+
210.1407	42	C16H18+
211.1123	23	C15H15O+
211.1484	31	C16H19+
215.0624	33	C14H12Cl+
215.0857	38	C17H11+
216.0935	56	C17H12+
217.0779	42	C14H14Cl+
217.1013	101	C17H13+
218.109	80	C17H14+
219.0573	70	C13H12ClO+
219.0812	21	C16H11O+
219.0936	17	C14H16Cl+
219.1169	210	C17H15+
220.0886	37	C16H12O+
220.1246	89	C17H16+
221.0959	139	C16H13O+
221.1325	200	C17H17+
222.1039	92	C16H14O+
222.1405	50	C17H18+
223.1122	100	C16H15O+
223.1484	44	C17H19+
224.1195	34	C16H16O+
225.1281	21	C16H17O+
229.0786	26	C15H14Cl+
229.1017	50	C18H13+
230.1094	56	C18H14+
231.0944	32	C15H16Cl+
231.1169	131	C18H15+
232.1245	76	C18H16+
233.0965	51	C17H13O+
233.1325	162	C18H17+
234.104	39	C17H14O+
234.1403	59	C18H18+
235.1117	158	C17H15O+
235.1481	328	C18H19+
236.1199	55	C17H16O+
236.1561	22	C18H20+
237.1275	100	C17H17O+
237.1635	57	C18H21+
243.0935	16	C16H16Cl+
243.1168	27	C19H15+
244.1011	20	C16H17Cl+
244.1251	47	C19H16+
245.1324	145	C19H17+
246.1035	18	C18H14O+
246.14	86	C19H18+
247.1119	59	C18H15O+
247.148	61	C19H19+
248.1198	61	C18H16O+
249.1272	156	C18H17O+
249.1632	81	C19H21+
250.1349	73	C18H18O+
250.172	22	C19H22+
251.1428	44	C18H19O+
251.1795	27	C19H23+
255.0944	17	C17H16Cl+
255.1169	21	C20H15+
259.1478	38	C20H19+
260.1566	43	C20H20+
261.128	19	C19H17O+
261.164	96	C20H21+
262.1354	62	C19H18O+
263.1432	537	C19H19O+
264.1505	74	C19H20O+
265.1594	16	C19H21O+
269.0733	18	C17H14ClO+
271.0886	16	C17H16ClO+
273.1277	49	C20H17O+
277.159	180	C20H21O+
278.1665	48	C20H22O+
279.1745	274	C20H23O+
299.1195	66	C19H20ClO+
313.1355	37	C20H22ClO+
