Mass spectrum: 3-Hydroxy-2-naphthoic o-anisidide; LC-ESI-QFT; MS2; CE: 60; R=17500; [M+H]+
Name: 3-Hydroxy-2-naphthoic o-anisidide
Name: 3-Hydroxy-2'-methoxy-2-naphthanilide
Name: 3-hydroxy-N-(2-methoxyphenyl)naphthalene-2-carboxamide
Formula: C18H15NO3
Exact mass: 293.1052
SMILES: COC1=CC=CC=C1NC(=O)C1=CC2=C(C=CC=C2)C=C1O
InChI: InChI=1S/C18H15NO3/c1-22-17-9-5-4-8-15(17)19-18(21)14-10-12-6-2-3-7-13(12)11-16(14)20/h2-11,20H,1H3,(H,19,21)
Instrument: Q Exactive Orbitrap (Thermo Scientific)
Instrument type: LC-ESI-QFT
Ms type: MS2
Ion mode: POSITIVE
Ionization: ESI
Fragmentation mode: HCD
Collision energy: 60
Resolution: 17500
Column name: Acquity BEH C18 1.7um, 2.1x150mm (Waters)
Retention time: 18.374 min
Base peak: 79.0211
Precursor m/z: 294.1125
Precursor type: [M+H]+
Precursor intensity: 3770462.25
m/z	relative intensity	assigned
57.0699	8	C4H9+
69.0699	14	C5H9+
79.0541	1	C6H7+
91.0543	24	C7H7+
92.0493	2	C6H6N+
95.0492	2	C6H7O+
107.0491	1	C7H7O+
109.0524	3	C6H7NO+
114.0464	1	C9H6+
115.0543	659	C9H7+
124.0757	6	C7H10NO+
130.0414	12	C9H6O+
133.0719	1	C5H11NO3+
143.0491	6	C10H7O+
148.1122	1	C10H14N+
161.0598	84	C10H9O2+
171.0441	999	C11H7O2+
175.0394	6	C10H7O3+
207.994	3	C16O+
233.0835	2	C16H11NO+
