Mass spectrum: 2-[4-(Diethylamino)-2-hydroxybenzoyl]benzoic acid; LC-ESI-QFT; MS2; CE: 60; R=17500; [M+H]+
Name: 2-[4-(Diethylamino)-2-hydroxybenzoyl]benzoic acid
Name: 2-(4-(Diethylamino)-2-hydroxybenzoyl)benzoic acid
Formula: C18H19NO4
Exact mass: 313.1314
SMILES: CCN(CC)C1=CC(O)=C(C=C1)C(=O)C1=C(C=CC=C1)C(O)=O
InChI: InChI=1S/C18H19NO4/c1-3-19(4-2)12-9-10-15(16(20)11-12)17(21)13-7-5-6-8-14(13)18(22)23/h5-11,20H,3-4H2,1-2H3,(H,22,23)
Instrument: Q Exactive Orbitrap (Thermo Scientific)
Instrument type: LC-ESI-QFT
Ms type: MS2
Ion mode: POSITIVE
Ionization: ESI
Fragmentation mode: HCD
Collision energy: 60
Resolution: 17500
Column name: Acquity BEH C18 1.7um, 2.1x150mm (Waters)
Retention time: 17.547 min
Base peak: 79.0211
Precursor m/z: 314.1387
Precursor type: [M+H]+
Precursor intensity: 33978775.5
m/z	relative intensity	assigned
53.0386	2	C4H5+
55.0179	3	C3H3O+
56.0495	1	C3H6N+
58.0651	11	C3H8N+
65.0385	52	C5H5+
67.0542	2	C5H7+
68.013	3	C3H2NO+
68.0494	1	C4H6N+
70.0651	3	C4H8N+
72.0807	31	C4H10N+
74.0965	1	C4H12N+
77.0386	1	C6H5+
79.0542	8	C6H7+
80.0495	3	C5H6N+
81.0573	2	C5H7N+
82.0651	2	C5H8N+
91.0542	35	C7H7+
92.0495	11	C6H6N+
93.0335	23	C6H5O+
93.0573	1	C6H7N+
93.0699	16	C7H9+
94.0413	1	C6H6O+
94.0651	1	C6H8N+
95.0492	12	C6H7O+
96.0444	2	C5H6NO+
96.0808	1	C6H10N+
98.0362	1	C5H6O2+
98.0965	2	C6H12N+
100.0756	1	C5H10NO+
103.0542	9	C8H7+
105.0335	15	C7H5O+
105.0699	4	C8H9+
106.0651	1	C7H8N+
107.0495	1	C7H7O+
108.0443	1	C6H6NO+
108.0807	1	C7H10N+
109.0522	38	C6H7NO+
109.0647	11	C7H9O+
110.06	78	C6H8NO+
111.044	15	C6H7O2+
115.0542	2	C9H7+
118.065	6	C8H8N+
119.073	3	C8H9N+
120.0444	7	C7H6NO+
120.0808	24	C8H10N+
121.0284	180	C7H5O2+
122.06	115	C7H8NO+
123.0805	3	C8H11O+
124.1121	2	C8H14N+
129.0699	5	C10H9+
131.0492	2	C9H7O+
133.0284	22	C8H5O2+
133.0647	5	C9H9O+
133.0884	1	C9H11N+
134.0599	2	C8H8NO+
134.0965	2	C9H12N+
136.0757	52	C8H10NO+
137.0835	90	C8H11NO+
138.0913	257	C8H12NO+
139.0543	2	C11H7+
141.0699	7	C11H9+
146.0598	4	C9H8NO+
148.0393	9	C8H6NO2+
149.0233	999	C8H5O3+
150.0912	4	C9H12NO+
152.0621	3	C12H8+
153.0698	6	C12H9+
155.0855	1	C12H11+
157.0648	7	C11H9O+
159.044	5	C10H7O2+
163.0389	14	C9H7O3+
164.0706	85	C9H10NO2+
164.107	53	C10H14NO+
165.0698	4	C13H9+
166.1226	248	C10H16NO+
167.034	6	C8H7O4+
167.0493	3	C12H7O+
167.0731	2	C12H9N+
167.0856	4	C13H11+
168.0569	2	C12H8O+
168.0806	2	C12H10N+
169.0648	6	C12H9O+
171.0439	2	C11H7O2+
171.0801	2	C12H11O+
177.0697	1	C14H9+
179.0857	1	C14H11+
180.0568	2	C13H8O+
180.0806	3	C13H10N+
181.0496	18	C9H9O4+
181.0646	14	C13H9O+
182.0599	2	C12H8NO+
183.0443	1	C12H7O2+
183.0678	1	C12H9NO+
183.104	1	C13H13N+
184.0522	5	C12H8O2+
184.0752	1	C12H10NO+
185.0595	4	C12H9O2+
194.0605	1	C13H8NO+
194.0726	1	C14H10O+
194.0965	10	C14H12N+
195.044	2	C13H7O2+
195.0681	4	C13H9NO+
195.0805	7	C14H11O+
195.1043	11	C14H13N+
196.0518	24	C13H8O2+
196.0755	13	C13H10NO+
197.0597	36	C13H9O2+
198.055	13	C12H8NO2+
198.0674	15	C13H10O2+
198.091	2	C13H12NO+
199.0389	4	C12H7O3+
199.0756	3	C13H11O2+
204.0806	6	C15H10N+
205.0646	4	C15H9O+
206.0609	1	C14H8NO+
207.0685	1	C14H9NO+
208.0757	38	C14H10NO+
209.0595	6	C14H9O2+
209.0828	1	C14H11NO+
210.0547	5	C13H8NO2+
210.0665	2	C14H10O2+
210.0913	8	C14H12NO+
211.0629	17	C13H9NO2+
211.0742	2	C14H11O2+
212.0466	1	C13H8O3+
212.0705	14	C13H10NO2+
220.0756	5	C15H10NO+
221.0593	1	C15H9O2+
221.0834	3	C15H11NO+
222.0551	9	C14H8NO2+
222.0914	19	C15H12NO+
223.039	20	C14H7O3+
223.0753	6	C15H11O2+
223.0991	10	C15H13NO+
224.0705	130	C14H10NO2+
224.1062	10	C15H14NO+
225.0544	38	C14H9O3+
225.0775	5	C14H11NO2+
226.0496	7	C13H8NO3+
226.0626	3	C14H10O3+
226.0862	21	C14H12NO2+
227.0574	1	C13H9NO3+
228.0417	1	C13H8O4+
232.0756	16	C16H10NO+
233.0835	13	C16H11NO+
234.0547	3	C15H8NO2+
235.0628	21	C15H9NO2+
236.0706	6	C15H10NO2+
238.0498	12	C14H8NO3+
238.0862	13	C15H12NO2+
239.0577	17	C14H9NO3+
239.0941	60	C15H13NO2+
240.0655	30	C14H10NO3+
240.1018	445	C15H14NO2+
248.0704	6	C16H10NO2+
249.0783	13	C16H11NO2+
250.0862	68	C16H12NO2+
251.0702	3	C16H11O3+
252.0654	231	C15H10NO3+
253.0734	6	C15H11NO3+
266.0811	201	C16H12NO3+
267.0889	35	C16H13NO3+
268.0966	49	C16H14NO3+
270.076	47	C15H12NO4+
278.1166	1	C18H16NO2+
281.1044	3	C17H15NO3+
284.0919	2	C16H14NO4+
285.0994	2	C16H15NO4+
296.1276	10	C18H18NO3+
