Mass spectrum: SSR161421; LC-ESI-QFT; MS2; CE: 45; R=17500; [M-H]-
Name: SSR161421
Name: N-[4-(benzylamino)-3-cyanoquinolin-2-yl]-4-methoxybenzamide
Formula: C25H20N4O2
Exact mass: 408.1586
SMILES: COC1=CC=C(C=C1)C(=O)NC1=C(C#N)C(NCC2=CC=CC=C2)=C2C=CC=CC2=N1
InChI: InChI=1S/C25H20N4O2/c1-31-19-13-11-18(12-14-19)25(30)29-24-21(15-26)23(20-9-5-6-10-22(20)28-24)27-16-17-7-3-2-4-8-17/h2-14H,16H2,1H3,(H2,27,28,29,30)
Instrument: Q Exactive Orbitrap (Thermo Scientific)
Instrument type: LC-ESI-QFT
Ms type: MS2
Ion mode: NEGATIVE
Ionization: ESI
Fragmentation mode: HCD
Collision energy: 45
Resolution: 17500
Column name: Acquity BEH C18 1.7um, 2.1x150mm (Waters)
Retention time: 16.904 min
Base peak: 350.0275
Precursor m/z: 407.1513
Precursor type: [M-H]-
Precursor intensity: 16800979.52783
m/z	relative intensity	assigned
64.0067	22	C3N2-
65.0145	819	C3HN2-
65.9985	10	C3NO-
90.0097	14	C4N3-
93.0346	126	C6H5O-
95.0139	6	C5H3O2-
102.035	4	C7H4N-
108.0217	43	C6H4O2-
116.0383	5	C7H4N2-
117.0458	8	C7H5N2-
118.0298	64	C7H4NO-
128.0506	66	C9H6N-
130.0298	3	C8H4NO-
131.0378	4	C8H5NO-
131.0614	10	C8H7N2-
141.0458	21	C9H5N2-
142.0411	42	C8H4N3-
143.0616	17	C9H7N2-
145.0406	8	C8H5N2O-
150.056	19	C8H8NO2-
156.0329	76	C9H4N2O-
159.0329	17	C9H5NO2-
160.0278	7	C8H4N2O2-
166.0411	75	C10H4N3-
167.0488	7	C10H5N3-
168.0567	226	C10H6N3-
169.0407	24	C10H5N2O-
170.0359	18	C9H4N3O-
171.0564	124	C10H7N2O-
174.056	62	C10H8NO2-
175.051	17	C9H7N2O2-
179.0487	5	C11H5N3-
180.0439	28	C10H4N4-
180.0567	101	C11H6N3-
181.052	70	C10H5N4-
182.036	71	C10H4N3O-
182.0599	9	C10H6N4-
183.0438	123	C10H5N3O-
194.0361	42	C11H4N3O-
195.0679	19	C11H7N4-
199.0511	5	C11H7N2O2-
207.0312	163	C11H3N4O-
208.039	138	C11H4N4O-
209.0468	592	C11H5N4O-
229.0776	3	C16H9N2-
230.0856	6	C16H10N2-
231.0804	10	C15H9N3-
232.0645	25	C15H8N2O-
232.088	24	C15H10N3-
233.0724	4	C15H9N2O-
235.0513	15	C14H7N2O2-
235.0636	7	C15H9NO2-
236.0591	12	C14H8N2O2-
244.0882	52	C16H10N3-
245.0583	3	C15H7N3O-
245.0719	8	C16H9N2O-
245.0953	8	C16H11N3-
246.0668	16	C15H8N3O-
247.0881	19	C16H11N2O-
249.0671	13	C15H9N2O2-
251.0826	55	C15H11N2O2-
255.0807	11	C17H9N3-
256.0881	14	C17H10N3-
257.0595	232	C16H7N3O-
258.067	9	C16H8N3O-
259.0507	5	C16H7N2O2-
259.0747	12	C16H9N3O-
259.0881	18	C17H11N2O-
260.0591	194	C16H8N2O2-
260.0835	15	C16H10N3O-
261.0669	46	C16H9N2O2-
262.0746	10	C16H10N2O2-
271.099	402	C17H11N4-
272.0831	794	C17H10N3O-
272.1067	373	C17H12N4-
273.0544	15	C16H7N3O2-
273.0781	93	C16H9N4O-
274.0622	57	C16H8N3O2-
274.0986	10	C17H12N3O-
275.0827	245	C17H11N2O2-
277.0986	45	C17H13N2O2-
286.0622	63	C17H8N3O2-
287.0701	109	C17H9N3O2-
287.0939	44	C17H11N4O-
288.0778	284	C17H10N3O2-
289.0857	43	C17H11N3O2-
298.0856	31	C18H10N4O-
299.0937	628	C18H11N4O-
300.0652	174	C17H8N4O2-
301.073	572	C17H9N4O2-
302.0935	241	C18H12N3O2-
303.1011	7	C18H13N3O2-
304.0966	95	C17H12N4O2-
315.0888	999	C18H11N4O2-
316.0957	11	C18H12N4O2-
320.1048	3	C21H12N4-
347.1066	4	C23H13N3O-
348.1137	7	C23H14N3O-
353.1303	6	C23H17N2O2-
362.0943	11	C23H12N3O2-
364.1095	231	C23H14N3O2-
364.1333	28	C23H16N4O-
365.1157	10	C23H15N3O2-
366.1247	39	C23H16N3O2-
373.1096	41	C24H13N4O-
374.1175	104	C24H14N4O-
375.1253	5	C24H15N4O-
380.1404	176	C24H18N3O2-
389.1408	31	C25H17N4O-
391.1198	18	C24H15N4O2-
392.1279	105	C24H16N4O2-
407.1514	140	C25H19N4O2-
