Mass spectrum: 4-Androstene-3,17-dione; LC-ESI-QFT; MS2; CE: 75; R=17500; [M+H]+
Name: 4-Androstene-3,17-dione
Name: Androstenedione
Name: (8R,9S,10R,13S,14S)-10,13-dimethyl-2,6,7,8,9,11,12,14,15,16-decahydro-1H-cyclopenta[a]phenanthrene-3,17-dione
Formula: C19H26O2
Exact mass: 286.1933
SMILES: [H][C@@]12CCC(=O)[C@@]1(C)CC[C@@]1([H])[C@@]2([H])CCC2=CC(=O)CC[C@]12C
InChI: InChI=1S/C19H26O2/c1-18-9-7-13(20)11-12(18)3-4-14-15-5-6-17(21)19(15,2)10-8-16(14)18/h11,14-16H,3-10H2,1-2H3/t14-,15-,16-,18-,19-/m0/s1
Instrument: Q Exactive Orbitrap (Thermo Scientific)
Instrument type: LC-ESI-QFT
Ms type: MS2
Ion mode: POSITIVE
Ionization: ESI
Fragmentation mode: HCD
Collision energy: 75
Resolution: 17500
Column name: Acquity BEH C18 1.7um, 2.1x150mm (Waters)
Retention time: 17.321 min
Base peak: 79.0211
Precursor m/z: 287.2006
Precursor type: [M+H]+
Precursor intensity: 895267.0625
m/z	relative intensity	assigned
53.0387	12	C4H5+
55.0179	39	C3H3O+
55.0543	12	C4H7+
65.0385	8	C5H5+
67.0543	61	C5H7+
69.0699	58	C5H9+
79.0543	235	C6H7+
81.0699	192	C6H9+
83.0491	38	C5H7O+
91.0542	73	C7H7+
93.0698	47	C7H9+
95.0492	31	C6H7O+
95.0856	32	C7H11+
97.0649	999	C6H9O+
105.07	52	C8H9+
107.0494	8	C7H7O+
107.0854	14	C8H11+
109.0649	719	C7H9O+
117.0699	27	C9H9+
119.0856	25	C9H11+
123.0804	82	C8H11O+
131.0857	25	C10H11+
133.1014	21	C10H13+
143.086	13	C11H11+
145.1015	19	C11H13+
155.0858	9	C12H11+
157.1014	13	C12H13+
159.1174	9	C12H15+
169.1011	15	C13H13+
