Mass spectrum: Hydroxyprogesterone caproate; LC-ESI-QFT; MS2; CE: 30; R=17500; [M+H]+
Name: Hydroxyprogesterone caproate
Name: [(8R,9S,10R,13S,14S,17R)-17-acetyl-10,13-dimethyl-3-oxo-2,6,7,8,9,11,12,14,15,16-decahydro-1H-cyclopenta[a]phenanthren-17-yl] hexanoate
Formula: C27H40O4
Exact mass: 428.2927
SMILES: CCCCCC(=O)O[C@@]1(CC[C@H]2[C@@H]3CCC4=CC(=O)CC[C@]4(C)[C@H]3CC[C@]12C)C(C)=O
InChI: InChI=1S/C27H40O4/c1-5-6-7-8-24(30)31-27(18(2)28)16-13-23-21-10-9-19-17-20(29)11-14-25(19,3)22(21)12-15-26(23,27)4/h17,21-23H,5-16H2,1-4H3/t21-,22+,23+,25+,26+,27+/m1/s1
Instrument: Q Exactive Orbitrap (Thermo Scientific)
Instrument type: LC-ESI-QFT
Ms type: MS2
Ion mode: POSITIVE
Ionization: ESI
Fragmentation mode: HCD
Collision energy: 30
Resolution: 17500
Column name: Acquity BEH C18 1.7um, 2.1x150mm (Waters)
Retention time: 19.791 min
Base peak: 79.0211
Precursor m/z: 429.2999
Precursor type: [M+H]+
Precursor intensity: 3345795.875
m/z	relative intensity	assigned
67.0542	4	C5H7+
69.0699	7	C5H9+
71.0855	280	C5H11+
79.0543	10	C6H7+
81.07	33	C6H9+
83.0491	117	C5H7O+
83.0855	8	C6H11+
85.0649	15	C5H9O+
93.0699	24	C7H9+
95.0855	109	C7H11+
97.0648	808	C6H9O+
99.0804	370	C6H11O+
105.07	23	C8H9+
107.0855	33	C8H11+
109.0648	602	C7H9O+
111.0804	89	C7H11O+
119.0855	47	C9H11+
121.0647	37	C8H9O+
121.1012	38	C9H13+
123.0804	109	C8H11O+
129.0701	5	C10H9+
131.0854	29	C10H11+
133.1011	45	C10H13+
135.0804	10	C9H11O+
135.1168	34	C10H15+
137.0961	24	C9H13O+
143.0857	38	C11H11+
145.1011	150	C11H13+
147.0805	13	C10H11O+
147.1168	95	C11H15+
149.096	26	C10H13O+
149.1326	23	C11H17+
151.1118	12	C10H15O+
155.0856	18	C12H11+
157.1011	43	C12H13+
159.1168	102	C12H15+
161.0961	31	C11H13O+
161.1323	46	C12H17+
163.1116	74	C11H15O+
163.1479	30	C12H19+
169.1012	43	C13H13+
171.1168	158	C13H15+
173.096	21	C12H13O+
173.1325	106	C13H17+
175.1116	47	C12H15O+
175.1481	169	C13H19+
177.1273	66	C12H17O+
181.1012	8	C14H13+
183.1168	44	C14H15+
185.1324	74	C14H17+
187.1116	30	C13H15O+
187.1482	109	C14H19+
189.1272	42	C13H17O+
189.1634	35	C14H21+
191.1432	19	C13H19O+
195.1169	24	C15H15+
197.1326	68	C15H17+
199.1116	9	C14H15O+
199.148	70	C15H19+
201.1273	26	C14H17O+
201.1642	11	C15H21+
203.1428	38	C14H19O+
205.1587	127	C14H21O+
207.1168	12	C16H15+
209.1323	22	C16H17+
211.1481	94	C16H19+
213.1277	33	C15H17O+
213.1637	135	C16H21+
215.1429	23	C15H19O+
217.1586	44	C15H21O+
221.1326	17	C17H17+
223.1483	17	C17H19+
225.1274	12	C16H17O+
225.1637	27	C17H21+
227.1432	15	C16H19O+
227.1792	5	C17H23+
228.0765	24	C14H12O3+
229.1588	38	C16H21O+
231.1744	68	C16H23O+
235.1484	19	C18H19+
237.1636	66	C18H21+
239.143	25	C17H19O+
241.1585	12	C17H21O+
243.1751	10	C17H23O+
249.1642	8	C19H21+
251.1797	50	C19H23+
252.1875	41	C19H24+
253.195	469	C19H25+
255.1742	64	C18H23O+
269.1899	178	C19H25O+
270.1982	58	C19H26O+
271.2056	999	C19H27O+
277.1951	72	C21H25+
295.2056	317	C21H27O+
313.2162	622	C21H29O2+
387.289	7	C25H39O3+
