Mass spectrum: Zearalenone; LC-ESI-QFT; MS2; CE: 60; R=17500; [M-H]-
Name: Zearalenone
Name: (4S,12E)-16,18-dihydroxy-4-methyl-3-oxabicyclo[12.4.0]octadeca-1(14),12,15,17-tetraene-2,8-dione
Formula: C18H22O5
Exact mass: 318.1467
SMILES: C[C@H]1CCCC(=O)CCC\C=C\C2=C(C(O)=CC(O)=C2)C(=O)O1
InChI: InChI=1S/C18H22O5/c1-12-6-5-9-14(19)8-4-2-3-7-13-10-15(20)11-16(21)17(13)18(22)23-12/h3,7,10-12,20-21H,2,4-6,8-9H2,1H3/b7-3+/t12-/m0/s1
Instrument: Q Exactive Orbitrap (Thermo Scientific)
Instrument type: LC-ESI-QFT
Ms type: MS2
Ion mode: NEGATIVE
Ionization: ESI
Fragmentation mode: HCD
Collision energy: 60
Resolution: 17500
Column name: Acquity BEH C18 1.7um, 2.1x150mm (Waters)
Retention time: 17.846 min
Base peak: 317.1395
Precursor m/z: 317.1394
Precursor type: [M-H]-
Precursor intensity: 45165915.88672
m/z	relative intensity	assigned
57.0346	332	C3H5O-
63.024	25	C5H3-
65.0033	23	C4HO-
65.0397	19	C5H5-
67.0189	3	C4H3O-
68.9982	10	C3HO2-
69.0346	20	C4H5O-
71.0501	2	C4H7O-
79.0553	9	C6H7-
81.0346	27	C5H5O-
83.0502	14	C5H7O-
85.0659	15	C5H9O-
89.0397	31	C7H5-
91.0189	7	C6H3O-
91.0553	20	C7H7-
93.0346	21	C6H5O-
95.0502	15	C6H7O-
97.0661	1	C6H9O-
101.0397	3	C8H5-
102.0475	53	C8H6-
103.0554	130	C8H7-
105.0346	40	C7H5O-
105.071	12	C8H9-
106.0422	3	C7H6O-
107.0138	5	C6H3O2-
107.0503	105	C7H7O-
109.0293	3	C6H5O2-
109.0658	5	C7H9O-
111.0815	19	C7H11O-
113.0608	5	C6H9O2-
115.0553	28	C9H7-
117.0346	22	C8H5O-
117.0709	12	C9H9-
119.0502	116	C8H7O-
121.0296	7	C7H5O2-
121.0658	13	C8H9O-
122.0376	4	C7H6O2-
123.0452	13	C7H7O2-
123.0815	2	C8H11O-
127.0767	2	C7H11O2-
129.0709	3	C10H9-
129.0922	71	C7H13O2-
130.0424	471	C9H6O-
131.0502	999	C9H7O-
132.0216	178	C8H4O2-
133.0295	88	C8H5O2-
133.0658	29	C9H9O-
134.0373	2	C8H6O2-
135.0452	6	C8H7O2-
135.0815	8	C9H11O-
137.0607	13	C8H9O2-
141.0711	2	C11H9-
143.0502	129	C10H7O-
144.0581	6	C10H8O-
145.0295	33	C9H5O2-
145.0658	6	C10H9O-
146.0373	45	C9H6O2-
147.0452	245	C9H7O2-
147.0812	13	C10H11O-
148.053	8	C9H8O2-
149.0243	17	C8H5O3-
149.0607	51	C9H9O2-
151.0763	6	C9H11O2-
155.1079	3	C9H15O2-
157.0659	17	C11H9O-
158.0373	4	C10H6O2-
158.0738	1	C11H10O-
159.0451	60	C10H7O2-
159.0815	53	C11H11O-
160.0166	400	C9H4O3-
161.0245	20	C9H5O3-
161.0608	35	C10H9O2-
162.0323	3	C9H6O3-
163.0402	3	C9H7O3-
164.0476	3	C9H8O3-
171.0818	3	C12H11O-
172.0527	2	C11H8O2-
173.0243	4	C10H5O3-
173.0609	6	C11H9O2-
173.0972	3	C12H13O-
174.0322	60	C10H6O3-
175.04	244	C10H7O3-
175.0767	18	C11H11O2-
177.0558	2	C10H9O3-
177.0923	2	C11H13O2-
185.0608	9	C12H9O2-
185.097	2	C13H13O-
186.0682	1	C12H10O2-
187.04	145	C11H7O3-
188.0479	15	C11H8O3-
189.0556	1	C11H9O3-
189.0912	2	C12H13O2-
191.0347	2	C10H7O4-
193.0868	13	C11H13O3-
199.0763	4	C13H11O2-
200.0845	1	C13H12O2-
201.0561	8	C12H9O3-
201.0918	3	C13H13O2-
201.1283	1	C14H17O-
202.0638	6	C12H10O3-
203.0717	9	C12H11O3-
206.0218	1	C10H6O5-
213.0926	2	C14H13O2-
220.0376	5	C11H8O5-
229.0868	1	C14H13O3-
229.1235	1	C15H17O2-
231.1028	2	C14H15O3-
243.0645	1	C14H11O4-
245.1186	1	C15H17O3-
247.1341	1	C15H19O3-
261.1141	4	C15H17O4-
273.1508	3	C17H21O3-
289.1444	2	C17H21O4-
299.1285	2	C18H19O4-
317.1393	5	C18H21O5-
