Mass spectrum: Nuarimol; LC-ESI-QFT; MS2; CE: 15; R=17500; [M+H]+
Name: Nuarimol
Name: (2-chlorophenyl)-(4-fluorophenyl)-pyrimidin-5-ylmethanol
Formula: C17H12ClFN2O
Exact mass: 314.0622
SMILES: OC(C1=CC=C(F)C=C1)(C1=CN=CN=C1)C1=CC=CC=C1Cl
InChI: InChI=1S/C17H12ClFN2O/c18-16-4-2-1-3-15(16)17(22,13-9-20-11-21-10-13)12-5-7-14(19)8-6-12/h1-11,22H
Instrument: Q Exactive Orbitrap (Thermo Scientific)
Instrument type: LC-ESI-QFT
Ms type: MS2
Ion mode: POSITIVE
Ionization: ESI
Fragmentation mode: HCD
Collision energy: 15
Resolution: 17500
Column name: Acquity BEH C18 1.7um, 2.1x150mm (Waters)
Retention time: 17.248 min
Base peak: 79.0212
Precursor m/z: 315.0695
Precursor type: [M+H]+
Precursor intensity: 4528290.15625
m/z	relative intensity	assigned
81.045	1	C4H5N2+
243.0375	2	C15H9ClF+
252.0819	4	C16H11FNO+
288.0589	7	C16H12ClFNO+
315.0696	999	C17H13ClFN2O+
