Mass spectrum: Triamcinolone; LC-ESI-QFT; MS2; CE: 75; R=17500; [M+H]+
Name: Triamcinolone
Name: (8S,9R,10S,11S,13S,14S,16R,17S)-9-fluoro-11,16,17-trihydroxy-17-(2-hydroxyacetyl)-10,13-dimethyl-6,7,8,11,12,14,15,16-octahydrocyclopenta[a]phenanthren-3-one
Formula: C21H27FO6
Exact mass: 394.1792
SMILES: C[C@]12C[C@H](O)[C@@]3(F)[C@@H](CCC4=CC(=O)C=C[C@]34C)[C@@H]1C[C@@H](O)[C@]2(O)C(=O)CO
InChI: InChI=1S/C21H27FO6/c1-18-6-5-12(24)7-11(18)3-4-13-14-8-15(25)21(28,17(27)10-23)19(14,2)9-16(26)20(13,18)22/h5-7,13-16,23,25-26,28H,3-4,8-10H2,1-2H3/t13-,14-,15+,16-,18-,19-,20-,21-/m0/s1
Instrument: Q Exactive Orbitrap (Thermo Scientific)
Instrument type: LC-ESI-QFT
Ms type: MS2
Ion mode: POSITIVE
Ionization: ESI
Fragmentation mode: HCD
Collision energy: 75
Resolution: 17500
Column name: Acquity BEH C18 1.7um, 2.1x150mm (Waters)
Retention time: 14.647 min
Base peak: 79.0211
Precursor m/z: 395.1864
Precursor type: [M+H]+
Precursor intensity: 3044223.875
m/z	relative intensity	assigned
53.0386	144	C4H5+
55.0179	363	C3H3O+
55.0543	88	C4H7+
65.0387	97	C5H5+
67.0543	154	C5H7+
69.0336	189	C4H5O+
79.0543	318	C6H7+
81.07	181	C6H9+
91.0543	999	C7H7+
93.07	284	C7H9+
95.0492	408	C6H7O+
103.0543	75	C8H7+
105.0699	454	C8H9+
107.0491	132	C7H7O+
109.0648	98	C7H9O+
115.0545	193	C9H7+
117.0701	236	C9H9+
119.0857	226	C9H11+
121.0648	881	C8H9O+
128.0622	480	C10H8+
129.0698	295	C10H9+
130.0782	60	C10H10+
131.0493	71	C9H7O+
131.0857	271	C10H11+
132.0572	179	C9H8O+
135.0807	72	C9H11O+
141.0701	280	C11H9+
142.0779	146	C11H10+
143.0858	246	C11H11+
144.0573	127	C10H8O+
145.0649	339	C10H9O+
147.0806	459	C10H11O+
152.0621	125	C12H8+
153.0703	172	C12H9+
155.0858	311	C12H11+
157.0645	89	C11H9O+
158.073	250	C11H10O+
159.0804	325	C11H11O+
161.096	65	C11H13O+
165.0703	276	C13H9+
166.0783	153	C13H10+
169.0647	82	C12H9O+
169.1016	62	C13H13+
171.0807	364	C12H11O+
178.0779	268	C14H10+
179.086	342	C14H11+
180.0937	95	C14H12+
181.0651	183	C13H9O+
181.1015	171	C14H13+
183.0811	129	C10H12FO2+
189.0698	146	C15H9+
190.0779	179	C15H10+
191.0855	389	C15H11+
192.0935	376	C15H12+
193.1017	156	C15H13+
194.0728	154	C14H10O+
195.0806	374	C14H11O+
196.0884	91	C14H12O+
197.0964	121	C14H13O+
203.086	166	C16H11+
205.1017	132	C16H13+
208.0883	306	C15H12O+
209.0965	331	C15H13O+
219.0806	138	C16H11O+
223.1123	113	C13H16FO2+
229.1017	67	C18H13+
231.0803	100	C17H11O+
233.0963	153	C17H13O+
235.112	69	C17H15O+
