Mass spectrum: PharmaGSID_48511; LC-ESI-QFT; MS2; CE: 75; R=17500; [M-H]-
Name: PharmaGSID_48511
Name: 4-[(9-cyclopentyl-7,7-difluoro-5-methyl-6-oxo-8H-pyrimido[4,5-b][1,4]diazepin-2-yl)amino]-3-methoxy-N-(1-methylpiperidin-4-yl)benzamide
Formula: C27H35F2N7O3
Exact mass: 543.2769
SMILES: COC1=C(NC2=NC3=C(C=N2)N(C)C(=O)C(F)(F)CN3C2CCCC2)C=CC(=C1)C(=O)NC1CCN(C)CC1
InChI: InChI=1S/C27H35F2N7O3/c1-34-12-10-18(11-13-34)31-24(37)17-8-9-20(22(14-17)39-3)32-26-30-15-21-23(33-26)36(19-6-4-5-7-19)16-27(28,29)25(38)35(21)2/h8-9,14-15,18-19H,4-7,10-13,16H2,1-3H3,(H,31,37)(H,30,32,33)
Instrument: Q Exactive Orbitrap (Thermo Scientific)
Instrument type: LC-ESI-QFT
Ms type: MS2
Ion mode: NEGATIVE
Ionization: ESI
Fragmentation mode: HCD
Collision energy: 75
Resolution: 17500
Column name: Acquity BEH C18 1.7um, 2.1x150mm (Waters)
Retention time: 14.779 min
Base peak: 112.9857
Precursor m/z: 542.2697
Precursor type: [M-H]-
Precursor intensity: 1744845.037109
m/z	relative intensity	assigned
50.0037	50	C3N-
65.0146	106	C3HN2-
65.9986	135	C3NO-
66.01	50	C2N3-
79.0176	196	C3HN3-
89.0147	50	C5HN2-
90.01	121	C4N3-
91.0302	182	C5H3N2-
92.0255	167	C4H2N3-
106.0285	876	C4H2N4-
107.0126	94	C4HN3O-
107.0373	66	CH4FN4O-
109.0209	129	C5H2FN2-
109.0771	129	C6H9N2-
116.0142	66	C7H2NO-
116.0255	144	C6H2N3-
117.0208	65	C5HN4-
117.0458	99	C7H5N2-
118.0299	532	C7H4NO-
124.0078	520	C5HFN2O-
124.0404	238	C6H6NO2-
129.0333	76	C7H3N3-
132.0329	317	C7H4N2O-
133.0408	594	C7H5N2O-
135.0203	57	C6H3N2O2-
139.0314	728	C6H4FN2O-
147.0312	103	C6H3N4O-
148.0274	100	C2H3FN5O2-
148.0392	104	C6H4N4O-
158.0357	80	C3H3FN6O-
162.0223	74	C11H2N2-
166.0419	50	C2H4F2N6O-
172.0392	60	C8H4N4O-
176.0468	288	C8H6N3O2-
191.0373	95	C3H3F2N7O-
193.0525	55	C3H5F2N7O-
201.0419	63	C9H5N4O2-
213.058	96	C6H5F2N7-
223.05	52	C11H5N5O-
238.0735	122	C12H8N5O-
240.0444	76	C15H4N4-
258.1249	227	C14H16N3O2-
272.1281	537	C14H16N4O2-
273.1359	999	C14H17N4O2-
320.1392	208	C17H16N6O-
322.1317	83	C14H17FN5O3-
365.1527	152	C19H18FN6O-
378.1687	415	C19H20N7O2-
381.1487	259	C24H19N3O2-
394.1636	162	C19H20N7O3-
