Mass spectrum: {4-[({2-[3-Fluoro-4-(trifluoromethyl)phenyl]-4-methyl-1,3-thiazol-5-yl}methyl)sulfanyl]-2-methylphenoxy}acetic acid; LC-ESI-QFT; MS2; CE: 90; R=17500; [M+H]+
Name: {4-[({2-[3-Fluoro-4-(trifluoromethyl)phenyl]-4-methyl-1,3-thiazol-5-yl}methyl)sulfanyl]-2-methylphenoxy}acetic acid
Name: GW0742
Name: 2-[4-[[2-[3-fluoro-4-(trifluoromethyl)phenyl]-4-methyl-1,3-thiazol-5-yl]methylsulfanyl]-2-methylphenoxy]acetic acid
Formula: C21H17F4NO3S2
Exact mass: 471.0586
SMILES: CC1=C(CSC2=CC(C)=C(OCC(O)=O)C=C2)SC(=N1)C1=CC=C(C(F)=C1)C(F)(F)F
InChI: InChI=1S/C21H17F4NO3S2/c1-11-7-14(4-6-17(11)29-9-19(27)28)30-10-18-12(2)26-20(31-18)13-3-5-15(16(22)8-13)21(23,24)25/h3-8H,9-10H2,1-2H3,(H,27,28)
Instrument: Q Exactive Orbitrap (Thermo Scientific)
Instrument type: LC-ESI-QFT
Ms type: MS2
Ion mode: POSITIVE
Ionization: ESI
Fragmentation mode: HCD
Collision energy: 90
Resolution: 17500
Column name: Acquity BEH C18 1.7um, 2.1x150mm (Waters)
Retention time: 20.126 min
Base peak: 79.0211
Precursor m/z: 472.0659
Precursor type: [M+H]+
Precursor intensity: 5643884.5
m/z	relative intensity	assigned
53.0022	4	C3HO+
53.0386	22	C4H5+
57.9872	11	C2H2S+
58.995	84	C2H3S+
59.9664	15	COS+
65.0596	3	C2H9O2+
67.0542	2	C5H7+
68.0494	4	C4H6N+
68.9793	11	C3HS+
69.9871	24	C3H2S+
70.9949	999	C3H3S+
84.0028	11	C4H4S+
85.0106	862	C4H5S+
86.0185	34	C4H6S+
91.0541	2	C7H7+
111.0263	3	C6H7S+
112.0215	7	C5H6NS+
121.0448	26	C8H6F+
122.04	21	C7H5FN+
139.0212	6	C7H7OS+
146.0525	18	C10H7F+
151.0355	17	C9H5F2+
162.0713	5	C10H9FN+
163.0165	66	C7H3F4+
169.0261	9	C9H4F3+
176.0242	26	C8H4F4+
177.0323	7	C8H5F4+
189.0172	3	C5H5F4O3+
189.0317	9	C9H5F4+
190.0274	270	C8H4F4N+
190.0396	37	C9H6F4+
195.0418	11	C11H6F3+
201.0321	53	C10H5F4+
202.0463	5	C12H6F2N+
204.0273	2	C8H12O2S2+
205.0356	7	C11H8FNS+
206.0434	215	C11H9FNS+
206.9885	265	C8H3F4S+
208.0379	105	C8H6F4NO+
214.0398	4	C11H6F4+
215.0134	6	C10H6F3S+
216.0431	70	C10H6F4N+
217.051	2	C10H7F4N+
222.0535	87	C9H8F4NO+
230.0587	4	C11H8F4N+
233.0042	57	C10H5F4S+
242.0586	29	C12H8F4N+
247.0193	3	C16H4FO2+
254.0245	6	C12H7F3NS+
256.0403	5	C14H7FNO3+
257.004	3	C12H5F4S+
274.0307	461	C12H8F4NS+
275.0387	10	C12H9F4NS+
