Mass spectrum: 1-(4-Methoxyphenyl)-1-pentene-3-one; LC-ESI-QFT; MS2; CE: 45; R=17500; [M+H]+
Name: 1-(4-Methoxyphenyl)-1-pentene-3-one
Name: 1-Penten-3-one, 1-(4-methoxyphenyl)-, (1E)-
Name: 1-(4-methoxyphenyl)pent-1-en-3-one
Formula: C12H14O2
Exact mass: 190.0994
SMILES: CCC(=O)C=CC1=CC=C(OC)C=C1
InChI: InChI=1S/C12H14O2/c1-3-11(13)7-4-10-5-8-12(14-2)9-6-10/h4-9H,3H2,1-2H3
Instrument: Q Exactive Orbitrap (Thermo Scientific)
Instrument type: LC-ESI-QFT
Ms type: MS2
Ion mode: POSITIVE
Ionization: ESI
Fragmentation mode: HCD
Collision energy: 45
Resolution: 17500
Column name: Acquity BEH C18 1.7um, 2.1x150mm (Waters)
Retention time: 17.008 min
Base peak: 79.0211
Precursor m/z: 191.1067
Precursor type: [M+H]+
Precursor intensity: 6834866.125
m/z	relative intensity	assigned
55.0179	1	C3H3O+
55.0543	5	C4H7+
57.0335	339	C3H5O+
69.0336	1	C4H5O+
83.0491	3	C5H7O+
91.0542	5	C7H7+
93.0698	1	C7H9+
95.0489	1	C6H7O+
105.0701	3	C8H9+
107.0492	2	C7H7O+
109.0648	2	C7H9O+
115.0542	10	C9H7+
117.0699	3	C9H9+
120.057	1	C8H8O+
121.0648	138	C8H9O+
128.0621	11	C10H8+
129.0698	5	C10H9+
130.0778	11	C10H10+
131.0493	3	C9H7O+
131.0855	3	C10H11+
132.0573	2	C9H8O+
133.0648	3	C9H9O+
134.0727	1	C9H10O+
135.0441	29	C8H7O2+
135.0804	12	C9H11O+
137.0599	1	C8H9O2+
141.0699	50	C11H9+
142.0778	34	C11H10+
143.0491	7	C10H7O+
143.0856	17	C11H11+
144.0567	1	C10H8O+
145.0649	8	C10H9O+
145.1012	4	C11H13+
147.0441	1	C9H7O2+
147.0804	3	C10H11O+
149.0597	6	C9H9O2+
149.0965	1	C10H13O+
157.0649	5	C11H9O+
158.0727	999	C11H10O+
159.0804	26	C11H11O+
161.0961	4	C11H13O+
162.0676	7	C10H10O2+
163.1119	2	C11H15O+
172.0884	2	C12H12O+
173.0962	203	C12H13O+
175.075	2	C11H11O2+
176.0835	2	C11H12O2+
191.1067	371	C12H15O2+
