Mass spectrum: Diofenolan; LC-ESI-QFT; MS2; CE: 45; R=17500; [M-H]-
Name: Diofenolan
Name: 2-ethyl-4-[(4-phenoxyphenoxy)methyl]-1,3-dioxolane
Formula: C18H20O4
Exact mass: 300.1362
SMILES: CCC1OCC(COC2=CC=C(OC3=CC=CC=C3)C=C2)O1
InChI: InChI=1S/C18H20O4/c1-2-18-20-13-17(22-18)12-19-14-8-10-16(11-9-14)21-15-6-4-3-5-7-15/h3-11,17-18H,2,12-13H2,1H3
Instrument: Q Exactive Orbitrap (Thermo Scientific)
Instrument type: LC-ESI-QFT
Ms type: MS2
Ion mode: NEGATIVE
Ionization: ESI
Fragmentation mode: HCD
Collision energy: 45
Resolution: 17500
Column name: Acquity BEH C18 1.7um, 2.1x150mm (Waters)
Retention time: 17.121 min
Base peak: 141.0113
Precursor m/z: 299.1289
Precursor type: [M-H]-
Precursor intensity: 1093893.361328
m/z	relative intensity	assigned
81.0346	4	C5H5O-
108.0217	18	C6H4O2-
109.0295	999	C6H5O2-
121.0296	20	C7H5O2-
122.0374	38	C7H6O2-
123.0452	300	C7H7O2-
137.024	9	C7H5O3-
148.0529	9	C9H8O2-
149.0608	60	C9H9O2-
154.0273	16	C7H6O4-
162.0683	6	C10H10O2-
173.061	10	C11H9O2-
174.0686	14	C11H10O2-
175.0763	10	C11H11O2-
177.092	64	C11H13O2-
189.092	39	C12H13O2-
299.1287	12	C18H19O4-
