Mass spectrum: Flumetsulam; LC-ESI-QFT; MS2; CE: 90; R=17500; [M-H]-
Name: Flumetsulam
Name: N-(2,6-difluorophenyl)-5-methyl-[1,2,4]triazolo[1,5-a]pyrimidine-2-sulfonamide
Formula: C12H9F2N5O2S
Exact mass: 325.0445
SMILES: CC1=NC2=NC(=NN2C=C1)S(=O)(=O)NC1=C(F)C=CC=C1F
InChI: InChI=1S/C12H9F2N5O2S/c1-7-5-6-19-11(15-7)16-12(17-19)22(20,21)18-10-8(13)3-2-4-9(10)14/h2-6,18H,1H3
Instrument: Q Exactive Orbitrap (Thermo Scientific)
Instrument type: LC-ESI-QFT
Ms type: MS2
Ion mode: NEGATIVE
Ionization: ESI
Fragmentation mode: HCD
Collision energy: 90
Resolution: 17500
Column name: Acquity BEH C18 1.7um, 2.1x150mm (Waters)
Retention time: 12.564 min
Base peak: 324.0373
Precursor m/z: 324.0372
Precursor type: [M-H]-
Precursor intensity: 7740091.961426
m/z	relative intensity	assigned
64.0193	26	C4H2N-
65.0145	10	C3HN2-
66.0098	999	C2N3-
67.0302	7	C3H3N2-
81.0458	2	C4H5N2-
90.0097	1	C4N3-
91.0302	167	C5H3N2-
92.0254	14	C4H2N3-
93.0145	1	C6H2F-
106.0411	1	C5H4N3-
113.0146	2	C7HN2-
133.052	178	C6H5N4-
153.027	17	C7H3F2N2-
