Mass spectrum: N,N-Dimethylacetoacetamide; LC-ESI-QFT; MS2; CE: 15; R=17500; [M+H]+
Name: N,N-Dimethylacetoacetamide
Name: N,N-dimethyl-3-oxobutanamide
Formula: C6H11NO2
Exact mass: 129.0790
SMILES: CN(C)C(=O)CC(C)=O
InChI: InChI=1S/C6H11NO2/c1-5(8)4-6(9)7(2)3/h4H2,1-3H3
Instrument: Q Exactive Orbitrap (Thermo Scientific)
Instrument type: LC-ESI-QFT
Ms type: MS2
Ion mode: POSITIVE
Ionization: ESI
Fragmentation mode: HCD
Collision energy: 15
Resolution: 17500
Column name: Acquity BEH C18 1.7um, 2.1x150mm (Waters)
Retention time: 3.896 min
Base peak: 79.0211
Precursor m/z: 130.0863
Precursor type: [M+H]+
Precursor intensity: 1567493.25
m/z	relative intensity	assigned
70.0651	34	C4H8N+
72.0444	999	C3H6NO+
84.0442	9	C4H6NO+
84.0808	19	C5H10N+
85.0285	199	C4H5O2+
88.0754	6	C4H10NO+
109.015	9	C5H3NO2+
112.0757	57	C6H10NO+
130.0863	512	C6H12NO2+
