Mass spectrum: CP-544439; LC-ESI-QFT; MS2; CE: 75; R=17500; [M-H]-
Name: CP-544439
Name: 2H-Pyran-4-carboxamide, 4-(((4-(4-fluorophenoxy)phenyl)sulfonyl)amino)tetrahydro-N-hydroxy-
Name: 4-[[4-(4-fluorophenoxy)phenyl]sulfonylamino]-N-hydroxyoxane-4-carboxamide
Formula: C18H19FN2O6S
Exact mass: 410.0948
SMILES: ONC(=O)C1(CCOCC1)NS(=O)(=O)C1=CC=C(OC2=CC=C(F)C=C2)C=C1
InChI: InChI=1S/C18H19FN2O6S/c19-13-1-3-14(4-2-13)27-15-5-7-16(8-6-15)28(24,25)21-18(17(22)20-23)9-11-26-12-10-18/h1-8,21,23H,9-12H2,(H,20,22)
Instrument: Q Exactive Orbitrap (Thermo Scientific)
Instrument type: LC-ESI-QFT
Ms type: MS2
Ion mode: NEGATIVE
Ionization: ESI
Fragmentation mode: HCD
Collision energy: 75
Resolution: 17500
Column name: Acquity BEH C18 1.7um, 2.1x150mm (Waters)
Retention time: 15.940 min
Base peak: 409.0876
Precursor m/z: 409.0875
Precursor type: [M-H]-
Precursor intensity: 4581528.772949
m/z	relative intensity	assigned
57.9934	29	CNO2-
61.9706	251	NOS-
63.9625	97	O2S-
77.9656	188	NO2S-
78.0349	125	C5H4N-
78.9734	85	HNO2S-
79.9812	469	H2NO2S-
80.9652	8	HO3S-
93.0346	10	C6H5O-
93.9605	54	NO3S-
94.0298	13	C5H4NO-
95.0303	57	C6H4F-
106.0299	31	C6H4NO-
107.0377	999	C6H5NO-
108.0217	96	C6H4O2-
110.0247	3	C5H4NO2-
111.0252	138	C6H4FO-
112.0404	22	C5H6NO2-
121.0462	5	C8H6F-
147.0614	7	C10H8F-
159.0617	3	C11H8F-
160.0571	12	C10H7FN-
161.0409	6	C10H6FO-
170.9998	9	C6H5NO3S-
172.0074	5	C6H6NO3S-
174.0725	3	C11H9FN-
175.0565	10	C11H8FO-
187.0565	11	C12H8FO-
201.0596	17	C12H8FNO-
202.0673	15	C12H9FNO-
203.0513	6	C12H8FO2-
266.0293	65	C12H9FNO3S-
