Mass spectrum: Glipizide; LC-ESI-QFT; MS2; CE: 90; R=17500; [M+H]+
Name: Glipizide
Name: N-[2-[4-(cyclohexylcarbamoylsulfamoyl)phenyl]ethyl]-5-methylpyrazine-2-carboxamide
Formula: C21H27N5O4S
Exact mass: 445.1784
SMILES: CC1=NC=C(N=C1)C(=O)NCCC1=CC=C(C=C1)S(=O)(=O)NC(=O)NC1CCCCC1
InChI: InChI=1S/C21H27N5O4S/c1-15-13-24-19(14-23-15)20(27)22-12-11-16-7-9-18(10-8-16)31(29,30)26-21(28)25-17-5-3-2-4-6-17/h7-10,13-14,17H,2-6,11-12H2,1H3,(H,22,27)(H2,25,26,28)
Instrument: Q Exactive Orbitrap (Thermo Scientific)
Instrument type: LC-ESI-QFT
Ms type: MS2
Ion mode: POSITIVE
Ionization: ESI
Fragmentation mode: HCD
Collision energy: 90
Resolution: 17500
Column name: Acquity BEH C18 1.7um, 2.1x150mm (Waters)
Retention time: 16.353 min
Base peak: 79.0211
Precursor m/z: 446.1857
Precursor type: [M+H]+
Precursor intensity: 2414457.5625
m/z	relative intensity	assigned
52.0182	127	C3H2N+
53.0386	228	C4H5+
55.0178	10	C3H3O+
55.0543	119	C4H7+
65.0386	21	C5H5+
66.0338	462	C4H4N+
68.0495	13	C4H6N+
77.0386	59	C6H5+
78.0463	26	C6H6+
79.0542	14	C6H7+
81.0335	18	C5H5O+
83.0855	75	C6H11+
91.0543	163	C7H7+
92.062	19	C7H8+
93.0447	47	C5H5N2+
94.0415	19	C6H6O+
94.0525	25	C5H6N2+
95.0492	586	C6H7O+
95.0606	49	C5H7N2+
102.0464	63	C8H6+
103.0543	841	C8H7+
104.0496	12	C7H6N+
104.0621	72	C8H8+
105.0448	242	C6H5N2+
107.0492	58	C7H7O+
111.0553	999	C5H7N2O+
115.0543	28	C9H7+
119.0492	36	C8H7O+
119.073	49	C8H9N+
120.0557	47	C6H6N3+
120.0809	21	C8H10N+
121.0648	40	C8H9O+
125.0709	13	C6H9N2O+
126.0424	24	C5H6N2O2+
131.0604	52	C8H7N2+
134.06	17	C8H8NO+
139.0215	14	C7H7OS+
139.05	44	C6H7N2O2+
148.0217	8	C8H6NS+
150.0665	27	C7H8N3O+
165.0698	20	C13H9+
167.0812	10	H15N4O4S+
168.0807	10	C12H10N+
182.0836	16	C12H10N2+
183.0918	29	C12H11N2+
220.0872	26	C14H10N3+
