Mass spectrum: Quercetin; LC-ESI-QFT; MS2; CE: 45; R=17500; [M-H]-
Name: Quercetin
Name: 2-(3,4-dihydroxyphenyl)-3,5,7-trihydroxychromen-4-one
Formula: C15H10O7
Exact mass: 302.0427
SMILES: OC1=CC2=C(C(O)=C1)C(=O)C(O)=C(O2)C1=CC(O)=C(O)C=C1
InChI: InChI=1S/C15H10O7/c16-7-4-10(19)12-11(5-7)22-15(14(21)13(12)20)6-1-2-8(17)9(18)3-6/h1-5,16-19,21H
Instrument: Q Exactive Orbitrap (Thermo Scientific)
Instrument type: LC-ESI-QFT
Ms type: MS2
Ion mode: NEGATIVE
Ionization: ESI
Fragmentation mode: HCD
Collision energy: 45
Resolution: 17500
Column name: Acquity BEH C18 1.7um, 2.1x150mm (Waters)
Retention time: 15.510 min
Base peak: 112.9856
Precursor m/z: 301.0354
Precursor type: [M-H]-
Precursor intensity: 1484873.61084
m/z	relative intensity	assigned
63.024	63	C5H3-
65.0033	127	C4HO-
83.0139	104	C4H3O2-
93.0347	27	C6H5O-
95.014	6	C5H3O2-
107.0139	336	C6H3O2-
108.9931	5	C5HO3-
109.0296	27	C6H5O2-
121.0295	286	C7H5O2-
124.0163	9	C6H4O3-
125.0244	10	C6H5O3-
139.0402	22	C7H7O3-
147.0455	5	C9H7O2-
148.0166	5	C8H4O3-
149.0243	42	C8H5O3-
151.0036	999	C7H3O4-
152.0115	9	C7H4O4-
159.0455	5	C10H7O2-
161.0243	17	C9H5O3-
161.0606	4	C10H9O2-
163.0037	23	C8H3O4-
163.04	17	C9H7O3-
164.0116	26	C8H4O4-
169.0143	57	C7H5O5-
171.0457	4	C11H7O2-
175.04	7	C10H7O3-
177.0555	5	C10H9O3-
178.9986	187	C8H3O5-
187.04	17	C11H7O3-
192.007	6	C9H4O5-
193.0146	13	C9H5O5-
196.001	8	C8H4O6-
201.0559	14	C12H9O3-
203.0348	6	C11H7O4-
211.0402	14	C13H7O3-
227.0352	9	C13H7O4-
229.0508	23	C13H9O4-
243.0289	9	C13H7O5-
245.0457	36	C13H9O5-
255.0292	7	C14H7O5-
257.0459	7	C14H9O5-
273.0408	30	C14H9O6-
299.0192	9	C15H7O7-
301.0351	63	C15H9O7-
