Mass spectrum: Prednisone; LC-ESI-QFT; MS2; CE: 75; R=17500; [M-H]-
Name: Prednisone
Name: (8S,9S,10R,13S,14S,17R)-17-hydroxy-17-(2-hydroxyacetyl)-10,13-dimethyl-6,7,8,9,12,14,15,16-octahydrocyclopenta[a]phenanthrene-3,11-dione
Formula: C21H26O5
Exact mass: 358.1780
SMILES: C[C@]12CC(=O)[C@H]3[C@@H](CCC4=CC(=O)C=C[C@]34C)[C@@H]1CC[C@]2(O)C(=O)CO
InChI: InChI=1S/C21H26O5/c1-19-7-5-13(23)9-12(19)3-4-14-15-6-8-21(26,17(25)11-22)20(15,2)10-16(24)18(14)19/h5,7,9,14-15,18,22,26H,3-4,6,8,10-11H2,1-2H3/t14-,15-,18+,19-,20-,21-/m0/s1
Instrument: Q Exactive Orbitrap (Thermo Scientific)
Instrument type: LC-ESI-QFT
Ms type: MS2
Ion mode: NEGATIVE
Ionization: ESI
Fragmentation mode: HCD
Collision energy: 75
Resolution: 17500
Column name: Acquity BEH C18 1.7um, 2.1x150mm (Waters)
Retention time: 15.404 min
Base peak: 297.1132
Precursor m/z: 357.1707
Precursor type: [M-H]-
Precursor intensity: 1497307.554688
m/z	relative intensity	assigned
57.0347	97	C3H5O-
95.0503	88	C6H7O-
97.066	66	C6H9O-
107.0503	146	C7H7O-
108.0218	83	C6H4O2-
109.066	37	C7H9O-
119.0502	39	C8H7O-
120.0584	28	C8H8O-
121.0293	54	C7H5O2-
121.0659	282	C8H9O-
122.0373	274	C7H6O2-
123.0452	958	C7H7O2-
123.0815	135	C8H11O-
125.0611	57	C7H9O2-
130.0426	78	C9H6O-
131.0506	25	C9H7O-
133.0659	172	C9H9O-
134.0372	27	C8H6O2-
135.0452	218	C8H7O2-
135.0815	208	C9H11O-
136.0531	139	C8H8O2-
137.0609	211	C8H9O2-
143.0505	68	C10H7O-
145.0659	137	C10H9O-
147.0451	36	C9H7O2-
149.0608	999	C9H9O2-
151.0401	40	C8H7O3-
151.0765	144	C9H11O2-
157.0658	42	C11H9O-
159.0446	43	C10H7O2-
159.0816	42	C11H11O-
162.0688	52	C10H10O2-
168.0431	29	C8H8O4-
185.061	144	C12H9O2-
187.0764	150	C12H11O2-
