Mass spectrum: 2,4-Di-tert-butylphenol; LC-ESI-QFT; MS2; CE: 45; R=17500; [M-H]-
Name: 2,4-Di-tert-butylphenol
Name: 2,4-ditert-butylphenol
Formula: C14H22O
Exact mass: 206.1671
SMILES: CC(C)(C)C1=CC(=C(O)C=C1)C(C)(C)C
InChI: InChI=1S/C14H22O/c1-13(2,3)10-7-8-12(15)11(9-10)14(4,5)6/h7-9,15H,1-6H3
Instrument: Q Exactive Orbitrap (Thermo Scientific)
Instrument type: LC-ESI-QFT
Ms type: MS2
Ion mode: NEGATIVE
Ionization: ESI
Fragmentation mode: HCD
Collision energy: 45
Resolution: 17500
Column name: Acquity BEH C18 1.7um, 2.1x150mm (Waters)
Retention time: 19.669 min
Base peak: 205.1598
Precursor m/z: 205.1598
Precursor type: [M-H]-
Precursor intensity: 21651870.88135
m/z	relative intensity	assigned
149.0972	1	C10H13O-
189.1285	22	C13H17O-
205.1596	999	C14H21O-
