Mass spectrum: Methyldopa; LC-ESI-QFT; MS2; CE: 75; R=17500; [M+H]+
Name: Methyldopa
Name: (2S)-2-amino-3-(3,4-dihydroxyphenyl)-2-methylpropanoic acid
Formula: C10H13NO4
Exact mass: 211.0845
SMILES: C[C@](N)(Cc1ccc(O)c(O)c1)C(=O)O
InChI: InChI=1S/C10H13NO4/c1-10(11,9(14)15)5-6-2-3-7(12)8(13)4-6/h2-4,12-13H,5,11H2,1H3,(H,14,15)/t10-/m0/s1
Instrument: Q Exactive Orbitrap (Thermo Scientific)
Instrument type: LC-ESI-QFT
Ms type: MS2
Ion mode: POSITIVE
Ionization: ESI
Fragmentation mode: HCD
Collision energy: 75
Resolution: 17500
Column name: Acquity BEH C18 1.7um, 2.1x150mm (Waters)
Retention time: 3.672 min
Base peak: 79.0211
Precursor m/z: 212.0917
Precursor type: [M+H]+
Precursor intensity: 2582280
m/z	relative intensity	assigned
53.0387	10	C4H5+
55.0179	9	C3H3O+
56.0495	73	C3H6N+
57.0574	22	C3H7N+
58.0652	11	C3H8N+
65.0386	252	C5H5+
67.0542	9	C5H7+
77.0386	5	C6H5+
79.0542	44	C6H7+
80.0248	4	C5H4O+
81.0171	10	CH5O4+
81.0335	7	C5H5O+
88.0394	14	C3H6NO2+
91.0542	21	C7H7+
92.0495	6	C6H6N+
93.0335	227	C6H5O+
93.0699	39	C7H9+
95.0491	39	C6H7O+
103.0542	538	C8H7+
105.0336	7	C7H5O+
105.0699	82	C8H9+
107.0492	14	C7H7O+
109.0284	8	C6H5O2+
110.0363	7	C6H6O2+
111.0441	999	C6H7O2+
120.0807	40	C8H10N+
121.0648	149	C8H9O+
123.0441	191	C7H7O2+
125.0597	7	C7H9O2+
131.0492	287	C9H7O+
133.0519	7	C8H7NO+
133.0647	8	C9H9O+
139.039	176	C7H7O3+
140.0492	3	C10H6N+
148.0758	19	C9H10NO+
149.0597	74	C9H9O2+
150.0552	3	C8H8NO2+
151.063	47	C8H9NO2+
166.0863	168	C9H12NO2+
