Mass spectrum: Dinitramine; LC-ESI-QFT; MS2; CE: 30; R=17500; [M-H]-
Name: Dinitramine
Formula: C11H13F3N4O4
Exact mass: 322.0889
SMILES: CCN(CC)C1=C(C=C(C(N)=C1[N+]([O-])=O)C(F)(F)F)[N+]([O-])=O
InChI: InChI=1S/C11H13F3N4O4/c1-3-16(4-2)9-7(17(19)20)5-6(11(12,13)14)8(15)10(9)18(21)22/h5H,3-4,15H2,1-2H3
Instrument: Q Exactive Orbitrap (Thermo Scientific)
Instrument type: LC-ESI-QFT
Ms type: MS2
Ion mode: NEGATIVE
Ionization: ESI
Fragmentation mode: HCD
Collision energy: 30
Resolution: 17500
Column name: Acquity BEH C18 1.7um, 2.1x150mm (Waters)
Retention time: 18.942 min
Base peak: 321.0815
Precursor m/z: 321.0816
Precursor type: [M-H]-
Precursor intensity: 26394869.18164
m/z	relative intensity	assigned
59.0139	1	C2H3O2-
64.0067	1	C3N2-
65.0146	2	C3HN2-
65.9985	9	C3NO-
88.0005	10	C3F2N-
88.0067	3	C5N2-
89.0146	1	C5HN2-
93.0095	1	C4HN2O-
95.005	1	C4FN2-
100.0005	1	C4F2N-
102.0098	1	C5N3-
103.9953	5	C3F2NO-
106.041	1	C5H4N3-
108.0068	1	C3HF3N-
108.9908	3	C3F3O-
108.9971	1	C5FNO-
109.0208	1	C5H2FN2-
111	2	C4FN2O-
112.0005	1	C5F2N-
114.0097	1	C6N3-
115.0175	3	C6HN3-
116.0253	1	C6H2N3-
120.0066	1	C4HF3N-
123	1	C5FN2O-
124.008	1	C5HFN2O-
126.0096	1	C7N3-
127.0114	4	C5HF2N2-
127.0169	1	C7HN3-
130.999	1	C5F3N-
131.0363	2	C6H3N4-
132.0207	1	C6H2N3O-
133.0018	2	C4F3N2-
133.0077	1	C6FN3-
134.016	5	C6HFN3-
135	1	C6FN2O-
136.0016	9	C4HF3NO-
136.0073	1	C9N2-
137.0281	3	C2H3F2N4O-
139.0113	1	C6HF2N2-
140.0256	1	C8H2N3-
141.0332	1	C8H3N3-
142.0409	1	C8H4N3-
144.0068	1	C6HF3N-
144.0203	1	C7H2N3O-
145.0019	7	C5F3N2-
146.0099	8	C5HF3N2-
146.016	1	C7HFN3-
147.0239	2	C7H2FN3-
148.0078	1	C7HFN2O-
152.0257	1	C9H2N3-
155.0061	1	C6HF2N2O-
157.0018	6	C6F3N2-
159.011	1	C7FN4-
159.0174	5	C6H2F3N2-
160.0015	6	C6HF3NO-
160.0318	2	C8H3FN3-
160.9969	3	C5F3N2O-
162.0108	3	C7HFN3O-
163.0313	1	C8H4FN2O-
169.0019	1	C7F3N2-
169.0284	2	C9H3N3O-
170.036	4	C9H4N3O-
171.0176	2	C7H2F3N2-
173.0207	1	C6H2F3N3-
174.0045	2	C6HF3N2O-
174.0472	1	C9H5FN3-
175.0123	1	C6H2F3N2O-
176.0267	2	C8H3FN3O-
178.0227	1	C8H2F2N3-
180.0568	1	C11H6N3-
184.0125	3	C7HF3N3-
184.9969	17	C7F3N2O-
185.0335	8	C8H4F3N2-
186.0284	2	C7H3F3N3-
187.0125	3	C7H2F3N2O-
187.0491	3	C8H6F3N2-
188.0078	7	C6HF3N3O-
188.0269	2	C9H3FN3O-
188.0828	5	C10H10N3O-
189.0352	5	C6H5F2N3O2-
190.0125	1	C7H3F3NO2-
190.0422	6	C9H5FN3O-
192.0376	2	C9H4F2N3-
194.0538	1	C9H6F2N3-
196.0328	2	C8H4F2N3O-
199.0362	1	C8H4F3N3-
200.0077	3	C7HF3N3O-
200.0626	1	C11H7FN3-
201.9992	3	C7HF3N2O2-
204.0028	2	C11H2F2O2-
205.024	2	C7H4F3N2O2-
205.0328	1	C8H7F2O4-
208.0329	2	C9H4F2N3O-
209.0408	3	C9H5F2N3O-
210.0483	8	C9H6F2N3O-
211.0231	1	C8H2F3N4-
212.0278	6	C8H4F2N3O2-
212.044	4	C9H5F3N3-
214.0234	11	C8H3F3N3O-
214.0597	2	C9H7F3N3-
215.0315	3	C8H4F3N3O-
215.0426	1	C9H6F3N2O-
216.0024	2	C7HF3N3O2-
217.0595	1	C9H8F3N2O-
217.9947	7	C7HF3N2O3-
218.0184	9	C7H3F3N3O2-
219.0331	9	C6H5F2N4O3-
222.0357	3	C9H4F2N4O-
224.0321	7	C9H3F3N4-
224.0439	1	C10H5F3N3-
225.0238	4	C5H4F3N4O3-
225.0396	3	C9H4F3N4-
227.0184	2	C8H2F3N4O-
227.0308	1	C9H4F3N3O-
228.0264	1	C8H3F3N4O-
228.0391	10	C9H5F3N3O-
229.0341	1	C8H4F3N4O-
229.0468	1	C9H6F3N3O-
230.0018	2	C7H2F2N3O4-
230.0546	7	C9H7F3N3O-
231.0134	7	C7H2F3N4O2-
231.0749	10	C10H10F3N2O-
231.9976	110	C7HF3N3O3-
233.0053	1	C7H2F3N3O3-
233.0291	3	C7H4F3N4O2-
234.013	8	C7H3F3N3O3-
238.0797	24	C11H10F2N3O-
239.0386	3	C9H5F2N4O2-
240.0756	16	C11H9F3N3-
241.0337	4	C9H4F3N4O-
242.0422	12	C9H5F3N4O-
243.0499	6	C9H6F3N4O-
244.0212	1	C8H3F3N4O2-
244.0337	1	C9H5F3N3O2-
245.0293	3	C8H4F3N4O2-
246.0495	2	C9H7F3N3O2-
249.0003	24	C7H2F3N3O4-
250.0083	8	C7H3F3N3O4-
256.0218	2	C9H3F3N4O2-
257.029	3	C9H4F3N4O2-
258.0373	2	C9H5F3N4O2-
258.0859	54	C11H11F3N3O-
260.0652	1	C10H9F3N3O2-
261.085	2	C11H12F3N2O2-
269.0652	1	C11H8F3N4O-
273.061	7	C10H8F3N4O2-
274.0326	2	C11H7F3NO4-
274.081	41	C11H11F3N3O2-
275.0402	4	C9H6F3N4O3-
278.0758	32	C10H11F3N3O3-
286.0682	2	C11H9F3N4O2-
301.076	1	C11H11F2N4O4-
303.0714	3	C11H10F3N4O3-
321.0815	999	C11H12F3N4O4-
