Mass spectrum: 1,3-Diphenylguanidine; LC-ESI-QFT; MS2; CE: 45; R=17500; [M+H]+
Name: 1,3-Diphenylguanidine
Name: 1,2-diphenylguanidine
Formula: C13H13N3
Exact mass: 211.1109
SMILES: N=C(NC1=CC=CC=C1)NC1=CC=CC=C1
InChI: InChI=1S/C13H13N3/c14-13(15-11-7-3-1-4-8-11)16-12-9-5-2-6-10-12/h1-10H,(H3,14,15,16)
Instrument: Q Exactive Orbitrap (Thermo Scientific)
Instrument type: LC-ESI-QFT
Ms type: MS2
Ion mode: POSITIVE
Ionization: ESI
Fragmentation mode: HCD
Collision energy: 45
Resolution: 17500
Column name: Acquity BEH C18 1.7um, 2.1x150mm (Waters)
Retention time: 11.649 min
Base peak: 79.0211
Precursor m/z: 212.1182
Precursor type: [M+H]+
Precursor intensity: 56136139.53125
m/z	relative intensity	assigned
51.0231	1	C4H3+
53.0386	4	C4H5+
77.0382	8	C6H5+
92.0495	31	C6H6N+
94.0651	696	C6H8N+
95.0491	11	C4H5N3+
105.0447	4	C6H5N2+
119.0604	999	C7H7N2+
168.0806	1	C12H10N+
195.0917	344	C13H11N2+
212.1182	474	C13H14N3+
