Mass spectrum: Ethirimol; LC-ESI-QFT; MS2; CE: 75; R=17500; [M+H]+
Name: Ethirimol
Name: 5-butyl-2-(ethylamino)-6-methyl-1H-pyrimidin-4-one
Formula: C11H19N3O
Exact mass: 209.1528
SMILES: CCCCC1=C(O)N=C(NCC)N=C1C
InChI: InChI=1S/C11H19N3O/c1-4-6-7-9-8(3)13-11(12-5-2)14-10(9)15/h4-7H2,1-3H3,(H2,12,13,14,15)
Instrument: Q Exactive Orbitrap (Thermo Scientific)
Instrument type: LC-ESI-QFT
Ms type: MS2
Ion mode: POSITIVE
Ionization: ESI
Fragmentation mode: HCD
Collision energy: 75
Resolution: 17500
Column name: Acquity BEH C18 1.7um, 2.1x150mm (Waters)
Retention time: 13.266 min
Base peak: 79.0211
Precursor m/z: 210.1601
Precursor type: [M+H]+
Precursor intensity: 28179772.625
m/z	relative intensity	assigned
53.0023	1	C3HO+
53.0386	15	C4H5+
54.0338	4	C3H4N+
55.0178	5	C3H3O+
55.0542	85	C4H7+
56.0494	6	C3H6N+
57.0335	1	C3H5O+
57.0574	1	C3H7N+
57.0698	2	C4H9+
58.0651	9	C3H8N+
60.0556	2	CH6N3+
65.0384	1	C5H5+
66.0464	1	C5H6+
67.0542	62	C5H7+
68.0495	10	C4H6N+
69.0083	133	C2HN2O+
69.0572	8	C4H7N+
69.0698	11	C5H9+
70.0651	387	C4H8N+
71.0603	295	C3H7N2+
79.0542	16	C6H7+
80.0494	8	C5H6N+
81.0334	6	C5H5O+
81.0448	6	C4H5N2+
81.0575	4	C5H7N+
81.0699	58	C6H9+
82.0651	10	C5H8N+
83.0605	1	C4H7N2+
83.0729	23	C5H9N+
84.0444	14	C4H6NO+
84.0555	1	C3H6N3+
84.0808	11	C5H10N+
86.0349	4	C2H4N3O+
86.0599	1	C4H8NO+
88.0868	3	C3H10N3+
91.0543	5	C7H7+
92.0495	3	C6H6N+
93.0699	21	C7H9+
94.0652	10	C6H8N+
95.0491	3	C6H7O+
95.0604	54	C5H7N2+
95.0855	58	C7H11+
96.0444	39	C5H6NO+
96.0555	2	C4H6N3+
96.0682	4	C5H8N2+
96.0807	10	C6H10N+
97.0397	88	C4H5N2O+
98.06	999	C5H8NO+
103.0541	1	C8H7+
105.0449	1	C6H5N2+
105.0699	10	C8H9+
106.0651	2	C7H8N+
107.0729	91	C7H9N+
108.0681	6	C6H8N2+
108.0805	1	C7H10N+
109.0761	16	C6H9N2+
110.0599	9	C6H8NO+
110.0713	6	C5H8N3+
110.0964	6	C7H12N+
111.0791	12	C5H9N3+
112.0757	2	C6H10NO+
112.112	13	C7H14N+
114.0662	12	C4H8N3O+
120.0808	16	C8H10N+
121.076	4	C7H9N2+
122.0713	31	C6H8N3+
122.0838	7	C7H10N2+
122.0964	33	C8H12N+
123.0553	20	C6H7N2O+
123.0803	3	C8H11O+
123.0915	4	C7H11N2+
124.0632	9	C6H8N2O+
124.0755	2	C7H10NO+
124.0865	1	C6H10N3+
125.0583	1	C5H7N3O+
126.0662	5	C5H8N3O+
135.0918	1	C8H11N2+
136.0997	2	C8H12N2+
137.071	1	C7H9N2O+
137.1073	3	C8H13N2+
138.0662	105	C6H8N3O+
138.0911	5	C8H12NO+
139.074	76	C6H9N3O+
140.1069	651	C8H14NO+
150.1026	50	C8H12N3+
151.0866	4	C8H11N2O+
151.1229	1	C9H15N2+
152.0817	18	C7H10N3O+
153.0895	1	C7H11N3O+
154.0973	2	C7H12N3O+
165.1022	104	C9H13N2O+
166.0974	12	C8H12N3O+
167.1053	41	C8H13N3O+
168.113	2	C8H14N3O+
182.1288	97	C9H16N3O+
193.1336	60	C11H17N2O+
208.1437	4	C11H18N3O+
210.1601	84	C11H20N3O+
