Mass spectrum: Famotidine; LC-ESI-QFT; MS2; CE: 60; R=17500; [M+H]+
Name: Famotidine
Name: 3-[[2-(diaminomethylideneamino)-1,3-thiazol-4-yl]methylsulfanyl]-N'-sulfamoylpropanimidamide
Formula: C8H15N7O2S3
Exact mass: 337.0449
SMILES: NC(N)=NC1=NC(CSCCC(N)=NS(N)(=O)=O)=CS1
InChI: InChI=1S/C8H15N7O2S3/c9-6(15-20(12,16)17)1-2-18-3-5-4-19-8(13-5)14-7(10)11/h4H,1-3H2,(H2,9,15)(H2,12,16,17)(H4,10,11,13,14)
Instrument: Q Exactive Orbitrap (Thermo Scientific)
Instrument type: LC-ESI-QFT
Ms type: MS2
Ion mode: POSITIVE
Ionization: ESI
Fragmentation mode: HCD
Collision energy: 60
Resolution: 17500
Column name: Acquity BEH C18 1.7um, 2.1x150mm (Waters)
Retention time: 8.048 min
Base peak: 79.0211
Precursor m/z: 338.0522
Precursor type: [M+H]+
Precursor intensity: 7890304
m/z	relative intensity	assigned
54.0338	41	C3H4N+
61.0106	1	C2H5S+
69.0447	3	C3H5N2+
71.0603	323	C3H7N2+
84.9855	1	C2HN2S+
85.0508	3	C2H5N4+
86.0059	6	C3H4NS+
88.0216	2	C3H6NS+
102.012	23	C2H4N3S+
103.0323	1	C3H7N2S+
113.0168	292	C4H5N2S+
114.0247	2	C4H6N2S+
115.0324	2	C4H7N2S+
131.0272	1	C4H7N2OS+
133.0065	2	C3H5N2O2S+
134.0597	1	C8H8NO+
138.012	199	C5H4N3S+
147.0045	69	C4H7N2S2+
155.0385	999	C5H7N4S+
156.0224	2	C5H6N3OS+
156.0463	14	C5H8N4S+
157.0544	2	C5H9N4S+
170.0383	2	C6H8N3OS+
171.9997	43	C5H6N3S2+
189.0263	247	C5H9N4S2+
