Mass spectrum: Nelivaptan; LC-ESI-QFT; MS2; CE: 30; R=17500; [M+H]+
Name: Nelivaptan
Name: (2S,4R)-1-[(3R)-5-chloro-1-(2,4-dimethoxyphenyl)sulfonyl-3-(2-methoxyphenyl)-2-oxoindol-3-yl]-4-hydroxy-N,N-dimethylpyrrolidine-2-carboxamide
Formula: C30H32ClN3O8S
Exact mass: 629.1599
SMILES: COC1=CC(OC)=C(C=C1)S(=O)(=O)N1C(=O)[C@@](N2C[C@H](O)C[C@H]2C(=O)N(C)C)(C2=CC(Cl)=CC=C12)C1=CC=CC=C1OC
InChI: InChI=1S/C30H32ClN3O8S/c1-32(2)28(36)24-15-19(35)17-33(24)30(21-8-6-7-9-25(21)41-4)22-14-18(31)10-12-23(22)34(29(30)37)43(38,39)27-13-11-20(40-3)16-26(27)42-5/h6-14,16,19,24,35H,15,17H2,1-5H3/t19-,24+,30+/m1/s1
Instrument: Q Exactive Orbitrap (Thermo Scientific)
Instrument type: LC-ESI-QFT
Ms type: MS2
Ion mode: POSITIVE
Ionization: ESI
Fragmentation mode: HCD
Collision energy: 30
Resolution: 17500
Column name: Acquity BEH C18 1.7um, 2.1x150mm (Waters)
Retention time: 18.171 min
Base peak: 79.0211
Precursor m/z: 630.1671
Precursor type: [M+H]+
Precursor intensity: 7830694
m/z	relative intensity	assigned
79.018	1	C5H3O+
79.0542	2	C6H7+
81.0699	1	C6H9+
84.0443	2	C4H6NO+
92.0257	1	C6H4O+
94.0413	4	C6H6O+
95.0492	2	C6H7O+
105.0335	12	C7H5O+
105.0447	1	C6H5N2+
107.049	5	C7H7O+
109.0648	59	C7H9O+
110.0362	1	C6H6O2+
121.0648	3	C8H9O+
122.036	13	C7H6O2+
125.0597	24	C7H9O2+
135.0553	5	C7H7N2O+
137.0598	26	C8H9O2+
151.0754	38	C9H11O2+
153.0546	260	C8H9O3+
157.0971	3	C7H13N2O2+
185.0265	2	C8H9O3S+
201.0216	999	C8H9O4S+
203.0259	1	C12H8ClO+
219.0322	179	C8H11O5S+
233.0478	113	C9H13O5S+
254.0366	9	C15H9ClNO+
270.0317	12	C15H9ClNO2+
472.0622	8	C23H19ClNO6S+
