Mass spectrum: PharmaGSID_48505; LC-ESI-QFT; MS2; CE: 60; R=17500; [M+H]+
Name: PharmaGSID_48505
Name: 5-(2-chlorophenyl)-3-methyl-7-nitro-1,2-dihydropyrazolo[3,4-b][1,4]benzodiazepine
Formula: C17H12ClN5O2
Exact mass: 353.0680
SMILES: CC1=C2N=C(C3=CC=CC=C3Cl)C3=C(NC2=NN1)C=CC(=C3)[N+]([O-])=O
InChI: InChI=1S/C17H12ClN5O2/c1-9-15-17(22-21-9)19-14-7-6-10(23(24)25)8-12(14)16(20-15)11-4-2-3-5-13(11)18/h2-8H,1H3,(H2,19,21,22)
Instrument: Q Exactive Orbitrap (Thermo Scientific)
Instrument type: LC-ESI-QFT
Ms type: MS2
Ion mode: POSITIVE
Ionization: ESI
Fragmentation mode: HCD
Collision energy: 60
Resolution: 17500
Column name: Acquity BEH C18 1.7um, 2.1x150mm (Waters)
Retention time: 17.626 min
Base peak: 79.0212
Precursor m/z: 354.0752
Precursor type: [M+H]+
Precursor intensity: 4953899.875
m/z	relative intensity	assigned
55.0291	5	C2H3N2+
69.0446	3	C3H5N2+
70.0526	13	C3H6N2+
96.0557	9	C4H6N3+
103.0415	2	C7H5N+
118.0528	3	C7H6N2+
123.0243	14	C10H3+
125.0153	12	C7H6Cl+
128.0371	2	C8H4N2+
129.0447	3	C8H5N2+
139.0545	3	C11H7+
140.0495	2	C10H6N+
141.0571	5	C10H7N+
142.0526	15	C9H6N2+
152.0369	2	C10H4N2+
154.0526	4	C10H6N2+
155.0478	6	C9H5N3+
157.0636	5	C9H7N3+
163.0545	3	C13H7+
165.0705	4	C13H9+
166.0652	9	C12H8N+
167.0494	4	C12H7O+
167.0606	5	C11H7N2+
167.0724	4	C12H9N+
168.0556	10	C10H6N3+
168.0685	9	C11H8N2+
169.0636	26	C10H7N3+
170.0714	5	C10H8N3+
174.0232	15	C11H7Cl+
177.0574	9	C13H7N+
178.0652	18	C13H8N+
179.0475	3	C11H5N3+
179.073	8	C13H9N+
180.081	5	C13H10N+
183.0667	12	C10H7N4+
183.0787	5	C11H9N3+
184.0742	8	C10H8N4+
186.023	15	C12H7Cl+
186.0425	8	C10H6N2O2+
190.0653	31	C14H8N+
191.0739	3	C14H9N+
192.0682	5	C13H8N2+
193.0763	13	C13H9N2+
194.0598	3	C13H8NO+
195.0667	147	C11H7N4+
196.0746	77	C11H8N4+
197.0825	9	C11H9N4+
198.0234	26	C13H7Cl+
199.0311	13	C13H8Cl+
199.0622	4	C7H10ClN5+
200.0263	3	C12H7ClN+
200.058	6	C10H13ClO2+
201.0341	5	C12H8ClN+
201.0534	6	C9H12ClNO2+
202.0182	64	C12H7ClO+
203.073	6	C15H9N+
204.0684	70	C14H8N2+
204.0809	19	C15H10N+
205.0762	349	C14H9N2+
206.0837	3	C14H10N2+
211.0382	4	C8H8ClN4O+
212.0261	8	C13H7ClN+
213.0342	122	C13H8ClN+
213.0545	7	C10H12ClNO2+
214.0419	22	C13H9ClN+
215.0257	3	C13H8ClO+
215.0692	6	C8H12ClN4O+
216.0343	7	C13H9ClO+
216.068	5	C9H13ClN2O2+
216.0798	2	C16H10N+
217.0761	20	C15H9N2+
217.0886	9	C16H11N+
218.0849	4	C15H10N2+
218.0967	10	C16H12N+
219.08	4	C16H11O+
219.0917	45	C15H11N2+
220.0636	3	C11H11ClN3+
220.0756	6	C15H10NO+
220.0868	5	C14H10N3+
221.071	41	C14H9N2O+
223.0871	6	C14H11N2O+
224.0263	9	C14H7ClN+
225.0342	27	C14H8ClN+
225.0643	3	C11H7N5O+
228.0644	108	C8H11ClN5O+
228.0801	7	C17H10N+
229.0601	4	C10H7N5O2+
229.0763	46	C16H9N2+
230.0368	8	C13H9ClNO+
230.0716	74	C15H8N3+
230.0842	7	C16H10N2+
231.0792	17	C15H9N3+
231.0912	5	C16H11N2+
232.0871	48	C15H10N3+
234.1028	3	C15H12N3+
235.0872	5	C15H11N2O+
236.0582	11	C14H8N2O2+
238.0291	6	C14H7ClN2+
238.042	7	C15H9ClN+
239.0372	307	C14H8ClN2+
241.0528	5	C14H10ClN2+
242.0677	2	C11H8N5O2+
242.0833	5	C17H10N2+
243.0917	40	C17H11N2+
244.0866	14	C16H10N3+
244.0998	15	C17H12N2+
245.0949	5	C16H11N3+
245.1074	75	C17H13N2+
246.1027	78	C16H12N3+
251.0367	12	C15H8ClN2+
252.0452	3	C15H9ClN2+
252.0583	5	C16H11ClN+
253.0529	52	C15H10ClN2+
254.072	15	C17H8N3+
255.0322	23	C14H8ClN2O+
255.0794	8	C17H9N3+
256.0871	114	C17H10N3+
257.0817	3	C16H9N4+
257.095	14	C17H11N3+
258.0904	47	C16H10N4+
259.099	4	C16H11N4+
260.1058	11	C16H12N4+
261.1137	93	C16H13N4+
262.0426	4	C17H9ClN+
263.0372	28	C16H8ClN2+
264.0325	30	C15H7ClN3+
265.0529	18	C16H10ClN2+
266.0482	58	C15H9ClN3+
267.0559	4	C15H10ClN3+
269.0477	3	C15H10ClN2O+
270.0185	2	C14H7ClN2O2+
271.0977	27	C17H11N4+
272.0353	10	C14H9ClN2O2+
272.1058	142	C17H12N4+
273.1136	322	C17H13N4+
276.101	32	C16H12N4O+
277.0532	4	C17H10ClN2+
278.0477	7	C16H9ClN3+
279.0687	127	C17H12ClN2+
280.0637	148	C16H11ClN3+
281.057	4	C15H10ClN4+
281.072	9	C16H12ClN3+
282.0795	10	C16H13ClN3+
288.1011	4	C17H12N4O+
289.1085	7	C17H13N4O+
290.0481	133	C17H9ClN3+
291.0561	12	C17H10ClN3+
292.0487	19	C16H9ClN4+
292.0649	8	C17H11ClN3+
293.0591	11	C16H10ClN4+
295.0748	10	C16H12ClN4+
299.045	3	C15H10ClN3O2+
303.0876	3	C17H11N4O2+
304.0967	3	C17H12N4O2+
306.0671	11	C17H11ClN4+
307.0748	999	C17H12ClN4+
308.0826	147	C17H13ClN4+
311.0696	26	C16H12ClN4O+
312.0795	2	C16H13ClN4O+
313.0616	26	C16H12ClN3O2+
318.0986	7	C17H12N5O2+
323.0693	19	C17H12ClN4O+
340.0724	245	C17H13ClN4O2+
354.0758	13	C17H13ClN5O2+
