Mass spectrum: Ametryn; LC-ESI-QFT; MS2; CE: 75; R=17500; [M+H]+
Name: Ametryn
Name: 4-N-ethyl-6-methylsulfanyl-2-N-propan-2-yl-1,3,5-triazine-2,4-diamine
Formula: C9H17N5S
Exact mass: 227.1205
SMILES: CCNC1=NC(SC)=NC(NC(C)C)=N1
InChI: InChI=1S/C9H17N5S/c1-5-10-7-12-8(11-6(2)3)14-9(13-7)15-4/h6H,5H2,1-4H3,(H2,10,11,12,13,14)
Instrument: Q Exactive Orbitrap (Thermo Scientific)
Instrument type: LC-ESI-QFT
Ms type: MS2
Ion mode: POSITIVE
Ionization: ESI
Fragmentation mode: HCD
Collision energy: 75
Resolution: 17500
Column name: Acquity BEH C18 1.7um, 2.1x150mm (Waters)
Retention time: 15.455 min
Base peak: 79.0211
Precursor m/z: 228.1277
Precursor type: [M+H]+
Precursor intensity: 53516833.625
m/z	relative intensity	assigned
57.0447	1	C2H5N2+
68.0243	999	C2H2N3+
69.0447	1	C3H5N2+
70.04	2	C2H4N3+
71.0603	575	C3H7N2+
74.0059	256	C2H4NS+
85.0509	125	C2H5N4+
85.0761	12	C4H9N2+
91.0325	505	C2H7N2S+
96.0556	777	C4H6N3+
99.0011	2	C3H3N2S+
102.0372	19	C4H8NS+
110.0461	82	C3H4N5+
113.0822	59	C4H9N4+
116.0277	426	C3H6N3S+
138.0775	163	C5H8N5+
140.0931	2	C5H10N5+
143.0261	1	C3H5N5S+
144.059	126	C5H10N3S+
158.0495	109	C4H8N5S+
169.0542	2	C6H9N4S+
170.0492	1	C5H8N5S+
171.0573	3	C5H9N5S+
180.1241	1	C8H14N5+
184.0651	2	C6H10N5S+
186.0808	251	C6H12N5S+
228.1282	2	C9H18N5S+
