Mass spectrum: Halofenozide; LC-ESI-QFT; MS2; CE: 45; R=17500; [M-H]-
Name: Halofenozide
Name: N'-benzoyl-N'-tert-butyl-4-chlorobenzohydrazide
Formula: C18H19ClN2O2
Exact mass: 330.1135
SMILES: CC(C)(C)N(NC(=O)C1=CC=C(Cl)C=C1)C(=O)C1=CC=CC=C1
InChI: InChI=1S/C18H19ClN2O2/c1-18(2,3)21(17(23)14-7-5-4-6-8-14)20-16(22)13-9-11-15(19)12-10-13/h4-12H,1-3H3,(H,20,22)
Instrument: Q Exactive Orbitrap (Thermo Scientific)
Instrument type: LC-ESI-QFT
Ms type: MS2
Ion mode: NEGATIVE
Ionization: ESI
Fragmentation mode: HCD
Collision energy: 45
Resolution: 17500
Column name: Acquity BEH C18 1.7um, 2.1x150mm (Waters)
Retention time: 17.298 min
Base peak: 329.1061
Precursor m/z: 329.1062
Precursor type: [M-H]-
Precursor intensity: 97523227.97266
m/z	relative intensity	assigned
77.0393	2	C6H5-
93.0344	1	C6H5O-
111.0007	7	C6H4Cl-
121.0294	999	C7H5O2-
151.0069	1	C7H4ClN2-
154.0066	1	C7H5ClNO-
154.9906	30	C7H4ClO2-
161.0356	7	C8H5N2O2-
176.108	3	C11H14NO-
194.9967	5	C8H4ClN2O2-
272.0359	4	C14H9ClN2O2-
273.0437	3	C14H10ClN2O2-
