Mass spectrum: 3,5-Dichloroaniline; LC-ESI-QFT; MS2; CE: 45; R=17500; [M-H]-
Name: 3,5-Dichloroaniline
Formula: C6H5Cl2N
Exact mass: 160.9799
SMILES: NC1=CC(Cl)=CC(Cl)=C1
InChI: InChI=1S/C6H5Cl2N/c7-4-1-5(8)3-6(9)2-4/h1-3H,9H2
Instrument: Q Exactive Orbitrap (Thermo Scientific)
Instrument type: LC-ESI-QFT
Ms type: MS2
Ion mode: NEGATIVE
Ionization: ESI
Fragmentation mode: HCD
Collision energy: 45
Resolution: 17500
Column name: Acquity BEH C18 1.7um, 2.1x150mm (Waters)
Retention time: 17.631 min
Base peak: 269.0544
Precursor m/z: 159.9726
Precursor type: [M-H]-
Precursor intensity: 1369426.029297
m/z	relative intensity	assigned
123.9966	288	C6H3ClN-
159.9726	999	C6H4Cl2N-
