Mass spectrum: N,N`-Dibutylthiourea; LC-ESI-QFT; MS2; CE: 75; R=17500; [M+H]+
Name: N,N'-Dibutylthiourea
Name: N,N'-dibutylcarbamimidothioic acid
Formula: C9H20N2S
Exact mass: 188.1347
SMILES: CCCCNC(=S)NCCCC
InChI: InChI=1S/C9H20N2S/c1-3-5-7-10-9(12)11-8-6-4-2/h3-8H2,1-2H3,(H2,10,11,12)
Instrument: Q Exactive Orbitrap (Thermo Scientific)
Instrument type: LC-ESI-QFT
Ms type: MS2
Ion mode: POSITIVE
Ionization: ESI
Fragmentation mode: HCD
Collision energy: 75
Resolution: 17500
Column name: Acquity BEH C18 1.7um, 2.1x150mm (Waters)
Retention time: 16.407 min
Base peak: 79.0211
Precursor m/z: 189.142
Precursor type: [M+H]+
Precursor intensity: 7085488.59375
m/z	relative intensity	assigned
55.0543	2	C4H7+
56.0495	28	C3H6N+
57.0699	999	C4H9+
58.0652	18	C3H8N+
59.9903	214	CH2NS+
65.0386	4	C5H5+
69.0574	1	C4H7N+
74.0964	145	C4H12N+
79.0542	2	C6H7+
81.0449	2	C4H5N2+
91.0542	6	C7H7+
95.0604	1	C5H7N2+
96.0682	2	C5H8N2+
103.0543	1	C8H7+
104.0495	15	C7H6N+
105.0445	3	C6H5N2+
106.0653	13	C7H8N+
115.0543	3	C9H7+
116.0529	4	C5H10NS+
117.0573	2	C8H7N+
117.0701	4	C9H9+
118.0652	6	C8H8N+
120.0808	3	C8H10N+
130.0653	10	C9H8N+
131.0607	2	C8H7N2+
131.0731	9	C9H9N+
132.0682	2	C8H8N2+
132.0808	3	C9H10N+
145.0756	3	C9H9N2+
146.0838	3	C9H10N2+
147.0916	9	C9H11N2+
