Mass spectrum: MK-274; LC-ESI-QFT; MS2; CE: 90; R=17500; [M+H]+
Name: MK-274
Name: 3-[5'-Fluoro-2'-(2,2,3,3,3-pentafluoropropoxy)biphenyl-3-yl]-1H-1,2,4-triazole-5-carboxamide
Name: 3-[3-[5-fluoro-2-(2,2,3,3,3-pentafluoropropoxy)phenyl]phenyl]-1H-1,2,4-triazole-5-carboxamide
Formula: C18H12F6N4O2
Exact mass: 430.0864
SMILES: NC(=O)C1=NC(=NN1)C1=CC=CC(=C1)C1=CC(F)=CC=C1OCC(F)(F)C(F)(F)F
InChI: InChI=1S/C18H12F6N4O2/c19-11-4-5-13(30-8-17(20,21)18(22,23)24)12(7-11)9-2-1-3-10(6-9)15-26-16(14(25)29)28-27-15/h1-7H,8H2,(H2,25,29)(H,26,27,28)
Instrument: Q Exactive Orbitrap (Thermo Scientific)
Instrument type: LC-ESI-QFT
Ms type: MS2
Ion mode: POSITIVE
Ionization: ESI
Fragmentation mode: HCD
Collision energy: 90
Resolution: 17500
Column name: Acquity BEH C18 1.7um, 2.1x150mm (Waters)
Retention time: 17.801 min
Base peak: 79.0211
Precursor m/z: 431.0937
Precursor type: [M+H]+
Precursor intensity: 14687254.5
m/z	relative intensity	assigned
69.0083	130	C2HN2O+
76.0308	1	C6H4+
95.0492	3	C6H7O+
114.0339	4	C8H4N+
120.0369	12	C8H5F+
133.0448	29	C9H6F+
145.0448	17	C10H6F+
146.0527	16	C10H7F+
149.0396	27	CH7F6O+
150.0465	36	C12H6+
153.0576	1	C11H7N+
157.0448	202	C11H6F+
158.0402	20	C10H5FN+
158.0525	21	C3H8F6+
159.0603	10	C6H7F2N3+
162.047	2	C5H6F2N3O+
163.0551	25	C5H7F2N3O+
164.0495	20	C12H6N+
168.0374	4	C12H5F+
169.0448	34	C12H6F+
170.0526	640	C12H7F+
171.0478	22	C11H6FN+
173.0398	28	C11H6FO+
173.051	42	C10H6FN2+
174.0477	3	C11H7FO+
177.0573	180	C13H7N+
180.0552	5	C3H7F5N3+
182.0402	34	C12H5FN+
183.0604	25	C5H9F6+
184.0558	114	C12H7FN+
185.0395	7	C7H5F2N3O+
185.0638	34	C12H8FN+
186.0476	325	C12H7FO+
187.0554	203	C12H8FO+
190.0652	8	C14H8N+
193.0526	3	C13H7NO+
194.0602	88	C13H8NO+
196.0557	447	C13H7FN+
197.0511	95	C12H6FN2+
197.0634	50	C5H9F6N+
198.0474	41	C5H8F6O+
199.0554	57	C13H8FO+
200.0505	4	C4H8F6NO+
201.0499	1	C8H6F3N3+
201.0588	3	C12H8FNO+
203.0387	2	C11H6FNO2+
203.0504	8	C12H8FO2+
204.0446	18	C14H6NO+
204.0558	50	C10H8F4+
205.0525	4	C14H7NO+
206.0401	66	C14H5FN+
207.0479	27	C14H6FN+
208.0557	358	C14H7FN+
209.0511	10	C13H6FN2+
209.0637	11	C14H8FN+
210.0349	2	C13H5FNO+
210.0569	12	C5H8F6N2+
210.0699	2	C9H8F2N4+
211.0429	72	C13H6FNO+
212.0506	627	C13H7FNO+
213.0461	55	C12H6FN2O+
213.0583	10	C5H9F6NO+
214.0664	20	C13H9FNO+
215.0498	1	C8H7F2N3O2+
224.0506	999	C14H7FNO+
225.0458	10	C13H6FN2O+
225.0586	18	C14H8FNO+
226.0542	11	C13H7FN2O+
227.0615	4	C13H8FN2O+
228.082	3	C14H11FNO+
230.0375	12	C16H6O2+
230.0608	11	C8H8F2N4O2+
234.0661	1	C6H9F5N3O+
236.0381	3	C14H5FN2O+
236.0619	4	C14H7FN3+
237.0459	25	C14H6FN2O+
237.069	1	C6H9F6N3+
238.0663	6	C15H9FNO+
239.0378	31	C14H6FNO2+
239.0613	3	C6H9F6N2O+
240.046	1	C14H7FNO2+
244.0768	20	C14H11FNO2+
250.0469	1	C8H6F4N4O+
252.0571	4	C11H9F5O+
254.0726	4	C11H11F5O+
255.0569	1	C14H8FN2O2+
259.0365	1	C15H6F3O+
269.0721	1	C13H9F4N2+
