Mass spectrum: MK-274; LC-ESI-QFT; MS2; CE: 45; R=17500; [M-H]-
Name: MK-274
Name: 3-[5'-Fluoro-2'-(2,2,3,3,3-pentafluoropropoxy)biphenyl-3-yl]-1H-1,2,4-triazole-5-carboxamide
Name: 3-[3-[5-fluoro-2-(2,2,3,3,3-pentafluoropropoxy)phenyl]phenyl]-1H-1,2,4-triazole-5-carboxamide
Formula: C18H12F6N4O2
Exact mass: 430.0864
SMILES: NC(=O)C1=NC(=NN1)C1=CC=CC(=C1)C1=CC(F)=CC=C1OCC(F)(F)C(F)(F)F
InChI: InChI=1S/C18H12F6N4O2/c19-11-4-5-13(30-8-17(20,21)18(22,23)24)12(7-11)9-2-1-3-10(6-9)15-26-16(14(25)29)28-27-15/h1-7H,8H2,(H2,25,29)(H,26,27,28)
Instrument: Q Exactive Orbitrap (Thermo Scientific)
Instrument type: LC-ESI-QFT
Ms type: MS2
Ion mode: NEGATIVE
Ionization: ESI
Fragmentation mode: HCD
Collision energy: 45
Resolution: 17500
Column name: Acquity BEH C18 1.7um, 2.1x150mm (Waters)
Retention time: 17.743 min
Base peak: 317.1618
Precursor m/z: 429.0792
Precursor type: [M-H]-
Precursor intensity: 3380360.146484
m/z	relative intensity	assigned
68.9958	73	CF3-
83.0052	1	C3FN2-
92.0255	4	CH4F4-
92.9958	9	C3F3-
108.9906	24	C3F3O-
128.9968	5	C3HF4O-
208.057	2	C14H7FN-
212.0514	4	C8H6F2N4O-
224.0514	2	C9H6F2N4O-
226.0674	2	C14H9FNO-
230.0411	12	C16H5FN-
231.0363	4	C7H5F6N2-
233.0522	2	C15H6FN2-
236.0512	2	C10H6F2N4O-
236.0632	20	C11H9F5-
248.0515	5	C8H8F6NO-
254.0734	24	C6H10F6N3O-
256.052	4	C13H8F4O-
258.0337	10	C7H4F6N4-
259.0309	6	C8H5F6N2O-
260.0629	7	C16H7FN3-
266.0362	1	C14H6F4O-
269.0419	2	C16H7F2O2-
276.0576	47	C8H8F6N3O-
279.0375	9	C16H5F2N2O-
286.042	20	C9H6F6N3O-
295.0216	3	C12H5F6O2-
304.0389	4	C11H5F5N4O-
306.0484	192	C17H6F2N3O-
320.045	8	C15H6F4N3O-
326.0545	999	C17H7F3N3O-
346.0607	86	C17H8F4N3O-
366.0667	22	C17H9F5N3O-
389.0655	2	C18H9F4N4O2-
