Mass spectrum: Trilostane; LC-ESI-QFT; MS2; CE: 90; R=17500; [M-H]-
Name: Trilostane
Name: (1S,2R,6R,8S,11S,12S,15S,16S)-5,15-dihydroxy-2,16-dimethyl-7-oxapentacyclo[9.7.0.02,8.06,8.012,16]octadec-4-ene-4-carbonitrile
Formula: C20H27NO3
Exact mass: 329.1991
SMILES: C[C@]12CC[C@H]3[C@@H](CC[C@@]45O[C@@H]4C(O)=C(C[C@]35C)C#N)[C@@H]1CC[C@@H]2O
InChI: InChI=1S/C20H27NO3/c1-18-7-6-14-12(13(18)3-4-15(18)22)5-8-20-17(24-20)16(23)11(10-21)9-19(14,20)2/h12-15,17,22-23H,3-9H2,1-2H3/t12-,13-,14-,15-,17+,18-,19+,20+/m0/s1
Instrument: Q Exactive Orbitrap (Thermo Scientific)
Instrument type: LC-ESI-QFT
Ms type: MS2
Ion mode: NEGATIVE
Ionization: ESI
Fragmentation mode: HCD
Collision energy: 90
Resolution: 17500
Column name: Acquity BEH C18 1.7um, 2.1x150mm (Waters)
Retention time: 16.712 min
Base peak: 429.0536
Precursor m/z: 328.1918
Precursor type: [M-H]-
Precursor intensity: 14675363.66016
m/z	relative intensity	assigned
52.0192	16	C3H2N-
57.0345	11	C3H5O-
65.0033	999	C4HO-
65.9985	110	C3NO-
71.0503	47	C4H7O-
83.0503	25	C5H7O-
92.0142	306	C5H2NO-
95.0503	21	C6H7O-
97.0659	19	C6H9O-
104.0506	16	C7H6N-
106.0423	12	C7H6O-
107.0502	48	C7H7O-
109.0659	225	C7H9O-
116.0506	11	C8H6N-
118.0299	55	C7H4NO-
118.0661	12	C8H8N-
119.0377	88	C7H5NO-
120.0454	9	C7H6NO-
120.0582	5	C8H8O-
121.0659	81	C8H9O-
123.0816	612	C8H11O-
128.0506	36	C9H6N-
130.0662	50	C9H8N-
131.0377	10	C8H5NO-
132.0456	11	C8H6NO-
133.0659	32	C9H9O-
134.0738	23	C9H10O-
135.0816	106	C9H11O-
137.0972	8	C9H13O-
140.0505	36	C10H6N-
142.0662	60	C10H8N-
143.074	44	C10H9N-
144.0455	18	C9H6NO-
144.0819	15	C10H10N-
145.0535	43	C9H7NO-
146.0247	36	C8H4NO2-
146.0611	12	C9H8NO-
147.0814	9	C10H11O-
148.0406	12	C8H6NO2-
149.0971	154	C10H13O-
154.0663	42	C11H8N-
156.0456	40	C10H6NO-
156.0817	41	C11H10N-
158.0612	125	C10H8NO-
159.0814	15	C11H11O-
159.1176	7	C12H15-
161.0974	41	C11H13O-
163.113	8	C11H15O-
166.0663	11	C12H8N-
168.0454	61	C11H6NO-
168.082	21	C12H10N-
170.0613	43	C11H8NO-
170.0977	5	C12H12N-
173.097	52	C12H13O-
175.1129	72	C12H15O-
177.1285	441	C12H17O-
180.0819	19	C13H10N-
182.0613	47	C12H8NO-
182.0974	16	C13H12N-
184.0768	23	C12H10NO-
187.1127	17	C13H15O-
189.1284	12	C13H17O-
194.0613	19	C13H8NO-
194.0978	26	C14H12N-
196.0768	100	C13H10NO-
196.1133	10	C14H14N-
208.0766	31	C14H10NO-
208.114	9	C15H14N-
210.0924	9	C14H12NO-
210.1287	22	C15H16N-
215.1443	15	C15H19O-
220.113	10	C16H14N-
222.0926	46	C15H12NO-
222.129	11	C16H16N-
224.1084	8	C15H14NO-
224.1447	5	C16H18N-
231.139	54	C15H19O2-
233.1547	167	C15H21O2-
234.0925	6	C16H12NO-
235.1706	9	C15H23O2-
236.1077	9	C16H14NO-
236.1445	19	C17H18N-
238.1238	10	C16H16NO-
248.1448	4	C18H18N-
250.1235	8	C17H16NO-
250.1598	13	C18H20N-
262.1233	9	C18H16NO-
264.1394	27	C18H18NO-
266.155	83	C18H20NO-
268.1703	57	C18H22NO-
276.1389	6	C19H18NO-
278.1549	12	C19H20NO-
280.1348	8	C18H18NO2-
280.1708	17	C19H22NO-
282.1505	15	C18H20NO2-
282.1865	11	C19H24NO-
284.1658	6	C18H22NO2-
292.1349	6	C19H18NO2-
294.1501	185	C19H20NO2-
296.1655	29	C19H22NO2-
312.1614	6	C19H22NO3-
