Mass spectrum: Roxithromycin; LC-ESI-QFT; MS2; CE: 75; R=17500; [M+H]+
Name: Roxithromycin
Name: (3R,4S,5S,6R,7R,9R,11S,12R,13S,14R)-6-[(2S,3R,4S,6R)-4-(dimethylamino)-3-hydroxy-6-methyloxan-2-yl]oxy-14-ethyl-7,12,13-trihydroxy-4-[(2R,4R,5S,6S)-5-hydroxy-4-methoxy-4,6-dimethyloxan-2-yl]oxy-10-(2-methoxyethoxymethoxyimino)-3,5,7,9,11,13-hexamethyl-oxacyclotetradecan-2-one
Formula: C41H76N2O15
Exact mass: 836.5246
SMILES: CC[C@H]1OC(=O)[C@H](C)[C@@H](O[C@H]2C[C@@](C)(OC)[C@@H](O)[C@H](C)O2)[C@H](C)[C@@H](O[C@@H]2O[C@H](C)C[C@@H]([C@H]2O)N(C)C)[C@](C)(O)C[C@@H](C)C(=NOCOCCOC)[C@H](C)[C@@H](O)[C@]1(C)O
InChI: InChI=1S/C41H76N2O15/c1-15-29-41(10,49)34(45)24(4)31(42-53-21-52-17-16-50-13)22(2)19-39(8,48)36(58-38-32(44)28(43(11)12)18-23(3)54-38)25(5)33(26(6)37(47)56-29)57-30-20-40(9,51-14)35(46)27(7)55-30/h22-30,32-36,38,44-46,48-49H,15-21H2,1-14H3/t22-,23-,24+,25+,26-,27+,28+,29-,30+,32-,33+,34-,35+,36-,38+,39-,40-,41-/m1/s1
Instrument: Q Exactive Orbitrap (Thermo Scientific)
Instrument type: LC-ESI-QFT
Ms type: MS2
Ion mode: POSITIVE
Ionization: ESI
Fragmentation mode: HCD
Collision energy: 75
Resolution: 17500
Column name: Acquity BEH C18 1.7um, 2.1x150mm (Waters)
Retention time: 16.237 min
Base peak: 79.0211
Precursor m/z: 837.5318
Precursor type: [M+H]+
Precursor intensity: 6749365.75
m/z	relative intensity	assigned
58.0651	36	C3H8N+
59.0492	138	C3H7O+
61.0283	2	C2H5O2+
65.0386	4	C5H5+
67.0543	20	C5H7+
68.0494	12	C4H6N+
69.0335	9	C4H5O+
69.0698	11	C5H9+
70.0651	63	C4H8N+
71.0127	1	C3H3O2+
71.0491	9	C4H7O+
71.0729	14	C4H9N+
71.0856	2	C5H11+
72.0808	938	C4H10N+
73.0522	45	C3H7NO+
73.0647	9	C4H9O+
74.0601	2	C3H8NO+
74.0965	1	C4H12N+
79.0542	23	C6H7+
81.0699	40	C6H9+
82.0652	2	C5H8N+
83.0492	999	C5H7O+
84.0808	118	C5H10N+
85.0284	14	C4H5O2+
85.0647	6	C5H9O+
86.0601	12	C4H8NO+
86.0964	3	C5H12N+
87.0441	105	C4H7O2+
87.0679	20	C4H9NO+
88.0757	121	C4H10NO+
89.0597	1	C4H9O2+
91.0543	3	C7H7+
93.07	2	C7H9+
94.0652	1	C6H8N+
95.0491	8	C6H7O+
95.0857	2	C7H11+
96.0808	4	C6H10N+
97.065	4	C6H9O+
98.0965	339	C6H12N+
99.0806	3	C6H11O+
99.1042	8	C6H13N+
100.0757	10	C5H10NO+
101.0836	1	C5H11NO+
105.07	3	C8H9+
107.0857	3	C8H11+
109.0648	13	C7H9O+
109.1012	6	C8H13+
112.1121	1	C7H14N+
113.0598	4	C6H9O2+
113.0837	1	C6H11NO+
114.0915	7	C6H12NO+
116.0707	69	C5H10NO2+
116.107	59	C6H14NO+
119.0858	5	C9H11+
121.1014	1	C9H13+
122.0967	1	C8H12N+
123.0803	7	C8H11O+
125.0961	1	C8H13O+
127.0991	1	C7H13NO+
128.1074	1	C7H14NO+
137.0963	2	C9H13O+
138.0916	1	C8H12NO+
158.1176	7	C8H16NO2+
