Mass spectrum: Flubendiamide; LC-ESI-QFT; MS2; CE: 60; R=17500; [M-H]-
Name: Flubendiamide
Name: 1-N-[4-(1,1,1,2,3,3,3-heptafluoropropan-2-yl)-2-methylphenyl]-3-iodo-2-N-(2-methyl-1-methylsulfonylpropan-2-yl)benzene-1,2-dicarboxamide
Formula: C23H22F7IN2O4S
Exact mass: 682.0233
SMILES: CC1=CC(=CC=C1NC(=O)C1=CC=CC(I)=C1C(=O)NC(C)(C)CS(C)(=O)=O)C(F)(C(F)(F)F)C(F)(F)F
InChI: InChI=1S/C23H22F7IN2O4S/c1-12-10-13(21(24,22(25,26)27)23(28,29)30)8-9-16(12)32-18(34)14-6-5-7-15(31)17(14)19(35)33-20(2,3)11-38(4,36)37/h5-10H,11H2,1-4H3,(H,32,34)(H,33,35)
Instrument: Q Exactive Orbitrap (Thermo Scientific)
Instrument type: LC-ESI-QFT
Ms type: MS2
Ion mode: NEGATIVE
Ionization: ESI
Fragmentation mode: HCD
Collision energy: 60
Resolution: 17500
Column name: Acquity BEH C18 1.7um, 2.1x150mm (Waters)
Retention time: 18.117 min
Base peak: 243.1601
Precursor m/z: 681.016
Precursor type: [M-H]-
Precursor intensity: 24657402.73438
m/z	relative intensity	assigned
50.0035	1	C3N-
63.9625	50	O2S-
68.9958	3	CF3-
74.0036	1	C5N-
76.0193	27	C5H2N-
78.9859	14	CH3O2S-
79.9574	15	O3S-
92.9958	7	C3F3-
93.0016	11	C2H5O2S-
100.0194	2	C7H2N-
116.9958	33	C5F3-
124.0193	2	C9H2N-
126.905	692	I-
130.0099	2	C8HFN-
143.0114	17	C7H2F3-
144.0254	6	CH4F6N-
154.0099	17	C10HFN-
158.005	2	C9HFNO-
167.0114	12	C9H2F3-
174.0161	383	C10H2F2N-
185.022	12	C9H4F3O-
187.0176	3	C9H3F4-
194.0223	999	F2H15IN-
205.0282	35	C9H5F4O-
212.0329	15	C10H5F3NO-
214.0286	403	C10H4F4N-
232.0391	12	C10H6F4NO-
238.0121	5	CH15F2INO2-
271.9214	44	C8H3INO2-
