Mass spectrum: Acifluorfen; LC-ESI-QFT; MS2; CE: 45; R=17500; [M-H]-
Name: Acifluorfen
Name: 5-[2-chloro-4-(trifluoromethyl)phenoxy]-2-nitrobenzoic acid
Formula: C14H7ClF3NO5
Exact mass: 360.9965
SMILES: OC(=O)C1=C(C=CC(OC2=CC=C(C=C2Cl)C(F)(F)F)=C1)[N+]([O-])=O
InChI: InChI=1S/C14H7ClF3NO5/c15-10-5-7(14(16,17)18)1-4-12(10)24-8-2-3-11(19(22)23)9(6-8)13(20)21/h1-6H,(H,20,21)
Instrument: Q Exactive Orbitrap (Thermo Scientific)
Instrument type: LC-ESI-QFT
Ms type: MS2
Ion mode: NEGATIVE
Ionization: ESI
Fragmentation mode: HCD
Collision energy: 45
Resolution: 17500
Column name: Acquity BEH C18 1.7um, 2.1x150mm (Waters)
Retention time: 18.726 min
Base peak: 357.026
Precursor m/z: 359.9892
Precursor type: [M-H]-
Precursor intensity: 12221416.45117
m/z	relative intensity	assigned
84.9907	999	CF3O-
85.9941	61	CH4ClFO-
110.041	63	C6H5FN-
136.0205	112	C7H3FNO-
137.0122	34	C6H3NO3-
156.0038	39	C4H3F3O3-
157.007	53	C7H6ClO2-
176.0329	346	C7H5F3NO-
177.0363	273	C10H6FO2-
183.0362	47	C8H6FNO3-
194.983	306	C7H3ClF3O-
198.0295	20	C10H5F3O-
222.0298	45	C12H5F3O-
