Mass spectrum: Quizalofop-ethyl; LC-ESI-QFT; MS2; CE: 90; R=17500; [M+H]+
Name: Quizalofop-ethyl
Name: ethyl 2-[4-(6-chloroquinoxalin-2-yl)oxyphenoxy]propanoate
Formula: C19H17ClN2O4
Exact mass: 372.0877
SMILES: CCOC(=O)C(C)OC1=CC=C(OC2=CN=C3C=C(Cl)C=CC3=N2)C=C1
InChI: InChI=1S/C19H17ClN2O4/c1-3-24-19(23)12(2)25-14-5-7-15(8-6-14)26-18-11-21-17-10-13(20)4-9-16(17)22-18/h4-12H,3H2,1-2H3
Instrument: Q Exactive Orbitrap (Thermo Scientific)
Instrument type: LC-ESI-QFT
Ms type: MS2
Ion mode: POSITIVE
Ionization: ESI
Fragmentation mode: HCD
Collision energy: 90
Resolution: 17500
Column name: Acquity BEH C18 1.7um, 2.1x150mm (Waters)
Retention time: 19.435 min
Base peak: 79.0211
Precursor m/z: 373.095
Precursor type: [M+H]+
Precursor intensity: 8195340.125
m/z	relative intensity	assigned
53.0022	21	C3HO+
53.0386	54	C4H5+
55.0179	71	C3H3O+
63.0229	52	C5H3+
64.0307	15	C5H4+
65.0386	825	C5H5+
66.0464	18	C5H6+
67.0542	8	C5H7+
69.0334	6	C4H5O+
72.984	11	C3H2Cl+
73.0284	25	C3H5O2+
74.0362	8	C3H6O2+
75.0229	61	C6H3+
76.0181	18	C5H2N+
76.0308	9	C6H4+
77.0385	17	C6H5+
78.0338	142	C5H4N+
78.0464	19	C6H6+
79.0178	23	C5H3O+
79.0542	42	C6H7+
81.0335	75	C5H5O+
81.07	31	C6H9+
82.0413	23	C5H6O+
84.984	5	C4H2Cl+
86.9998	4	C4H4Cl+
89.0386	12	C7H5+
90.0339	69	C6H4N+
90.0465	11	C7H6+
91.0543	799	C7H7+
92.0257	22	C6H4O+
92.062	16	C7H8+
93.0336	3	C6H5O+
93.0699	41	C7H9+
94.0413	51	C6H6O+
95.0492	146	C6H7O+
96.0445	15	C5H6NO+
97.9918	7	C5H3Cl+
98.0362	5	C5H6O2+
98.9996	56	C5H4Cl+
100.0076	17	C5H5Cl+
100.0182	190	C7H2N+
102.0338	58	C7H4N+
103.0543	64	C8H7+
105.0336	16	C7H5O+
105.0448	70	C6H5N2+
107.0493	10	C7H7O+
108.0444	15	C6H6NO+
109.0285	8	C6H5O2+
109.065	13	C7H9O+
110.0364	21	C6H6O2+
111.0441	19	C6H7O2+
111.9948	13	C5H3ClN+
113.0027	86	C5H4ClN+
116.0495	4	C8H6N+
118.0287	82	C7H4NO+
119.0367	16	C7H5NO+
119.0492	26	C8H7O+
120.057	10	C8H8O+
121.0285	38	C7H5O2+
121.0394	3	C6H5N2O+
121.0648	27	C8H9O+
123.9949	69	C6H3ClN+
125.0027	39	C6H4ClN+
125.9867	15	C6H3ClO+
126.0106	49	C6H5ClN+
128.0023	19	C6H5ClO+
128.9977	9	C5H4ClNO+
130.0056	9	C5H5ClNO+
131.0133	13	C5H6ClNO+
131.0492	5	C9H7O+
135.0443	3	C5H10ClNO+
135.9949	114	C7H3ClN+
137.0028	96	C7H4ClN+
138.0108	11	C7H5ClN+
139.0058	11	C6H4ClN2+
140.0495	23	C10H6N+
141.0577	18	C10H7N+
142.0526	13	C9H6N2+
144.9927	15	C5H4ClNO2+
147.0548	2	C8H7N2O+
149.0153	12	C9H6Cl+
150.0106	12	C8H5ClN+
151.0058	7	C7H4ClN2+
151.0185	5	C8H6ClN+
152.0137	71	C7H5ClN2+
153.0216	6	C7H6ClN2+
154.0055	80	C7H5ClNO+
154.0652	134	C11H8N+
155.0353	9	C4H10ClNO3+
155.0603	34	C10H7N2+
161.0345	6	C8H5N2O2+
163.0058	423	C8H4ClN2+
164.001	595	C10N2O+
164.0137	41	C8H5ClN2+
164.0495	219	C12H6N+
165.0447	10	C11H5N2+
165.0574	190	C12H7N+
166.0526	22	C11H6N2+
166.065	36	C12H8N+
167.0605	6	C11H7N2+
167.0732	9	C12H9N+
168.0087	7	C7H5ClN2O+
168.0568	3	C9H11ClN+
168.0598	3	C9H11ClN+
168.0682	42	C11H8N2+
168.9925	17	C7H4ClNO2+
169.0524	33	C11H7NO+
173.0155	24	C11H6Cl+
174.0106	37	C10H5ClN+
177.0215	52	C9H6ClN2+
178.0291	6	C9H7ClN2+
179.0007	49	C8H4ClN2O+
179.0455	9	C8H7N2O3+
179.0604	58	C12H7N2+
180.0683	61	C12H8N2+
180.081	20	C13H10N+
181.0164	196	C8H6ClN2O+
181.0761	253	C12H9N2+
182.0601	53	C12H8NO+
182.0841	20	C12H10N2+
183.068	78	C12H9NO+
188.0258	20	C14H4O+
189.0217	24	C10H6ClN2+
190.0293	33	C10H7ClN2+
190.0528	10	C13H6N2+
190.0653	12	C14H8N+
191.0605	155	C13H7N2+
192.0683	999	C13H8N2+
193.0762	95	C13H9N2+
194.084	9	C13H10N2+
195.0321	108	C9H8ClN2O+
196.0035	35	C8H5ClN2O2+
197.0474	8	C9H10ClN2O+
199.027	12	C8H8ClN2O2+
200.0261	40	C12H7ClN+
201.0214	13	C11H6ClN2+
202.0293	55	C11H7ClN2+
203.037	31	C11H8ClN2+
205.0169	3	C10H6ClN2O+
205.0762	12	C14H9N2+
206.0845	17	C14H10N2+
207.0918	107	C14H11N2+
208.0631	46	C13H8N2O+
208.0996	10	C14H12N2+
209.0711	48	C13H9N2O+
210.0789	12	C13H10N2O+
215.0371	380	C12H8ClN2+
216.0449	63	C12H9ClN2+
217.0531	5	C12H10ClN2+
217.0763	18	C15H9N2+
218.084	27	C15H10N2+
219.0326	5	C11H8ClN2O+
219.0665	4	C9H14ClNO3+
220.0635	8	C14H8N2O+
221.071	30	C14H9N2O+
223.0866	7	C14H11N2O+
226.0293	90	C13H7ClN2+
227.0371	93	C13H8ClN2+
228.0449	39	C13H9ClN2+
229.0524	4	C16H7NO+
235.0868	9	C15H11N2O+
236.0583	5	C14H8N2O2+
239.0369	6	C14H8ClN2+
242.0239	5	C13H7ClN2O+
243.0318	23	C13H8ClN2O+
243.0685	4	C14H12ClN2+
244.0398	22	C13H9ClN2O+
245.0478	8	C13H10ClN2O+
255.0319	89	C14H8ClN2O+
271.0272	11	C14H8ClN2O2+
