Mass spectrum: 5HPP-33; LC-ESI-QFT; MS2; CE: 90; R=17500; [M+H]+
Name: 5HPP-33
Name: 2-(2,6-Diisopropylphenyl)-5-hydroxyisoindoline-1,3-dione
Name: 2-[2,6-di(propan-2-yl)phenyl]-5-hydroxyisoindole-1,3-dione
Formula: C20H21NO3
Exact mass: 323.1521
SMILES: CC(C)C1=CC=CC(C(C)C)=C1N1C(=O)C2=C(C=C(O)C=C2)C1=O
InChI: InChI=1S/C20H21NO3/c1-11(2)14-6-5-7-15(12(3)4)18(14)21-19(23)16-9-8-13(22)10-17(16)20(21)24/h5-12,22H,1-4H3
Instrument: Q Exactive Orbitrap (Thermo Scientific)
Instrument type: LC-ESI-QFT
Ms type: MS2
Ion mode: POSITIVE
Ionization: ESI
Fragmentation mode: HCD
Collision energy: 90
Resolution: 17500
Column name: Acquity BEH C18 1.7um, 2.1x150mm (Waters)
Retention time: 18.685 min
Base peak: 79.0211
Precursor m/z: 324.1594
Precursor type: [M+H]+
Precursor intensity: 3903531.5
m/z	relative intensity	assigned
50.0151	41	C4H2+
51.023	118	C4H3+
53.0386	369	C4H5+
55.0178	20	C3H3O+
63.0229	127	C5H3+
65.0386	157	C5H5+
68.9971	6	C3HO2+
77.0386	223	C6H5+
79.0543	9	C6H7+
81.0336	42	C5H5O+
90.0339	167	C6H4N+
91.0543	33	C7H7+
92.0495	23	C6H6N+
94.0414	45	C6H6O+
95.0492	999	C6H7O+
109.0649	11	C7H9O+
111.0441	67	C6H7O2+
115.0544	21	C9H7+
116.0496	5	C8H6N+
120.0445	54	C7H6NO+
121.0285	229	C7H5O2+
128.0495	9	C9H6N+
129.0702	8	C10H9+
130.0289	4	C8H4NO+
136.0396	30	C7H6NO2+
139.0055	7	C9HNO+
139.0543	21	C11H7+
141.07	13	C11H9+
146.0238	904	C8H4NO2+
146.034	165	C9H6O2+
156.0809	15	C11H10N+
164.0342	16	C8H6NO3+
166.0655	22	C12H8N+
167.0727	15	C12H9N+
169.0649	8	C12H9O+
173.0209	7	C10H5O3+
178.05	49	C9H8NO3+
183.0678	5	C12H9NO+
184.076	10	C12H10NO+
196.0757	6	C13H10NO+
204.0809	18	C15H10N+
212.0705	14	C13H10NO2+
218.084	4	C12H12NO3+
220.0757	11	C15H10NO+
222.0547	8	C14H8NO2+
240.0656	72	C14H10NO3+
246.0918	5	C17H12NO+
248.071	9	C16H10NO2+
