Mass spectrum: Ametryn; LC-ESI-QFT; MS2; CE: 60; R=17500; [M+H]+
Name: Ametryn
Name: 4-N-ethyl-6-methylsulfanyl-2-N-propan-2-yl-1,3,5-triazine-2,4-diamine
Formula: C9H17N5S
Exact mass: 227.1205
SMILES: CCNC1=NC(SC)=NC(NC(C)C)=N1
InChI: InChI=1S/C9H17N5S/c1-5-10-7-12-8(11-6(2)3)14-9(13-7)15-4/h6H,5H2,1-4H3,(H2,10,11,12,13,14)
Instrument: Q Exactive Orbitrap (Thermo Scientific)
Instrument type: LC-ESI-QFT
Ms type: MS2
Ion mode: POSITIVE
Ionization: ESI
Fragmentation mode: HCD
Collision energy: 60
Resolution: 17500
Column name: Acquity BEH C18 1.7um, 2.1x150mm (Waters)
Retention time: 15.455 min
Base peak: 79.0211
Precursor m/z: 228.1277
Precursor type: [M+H]+
Precursor intensity: 44573437.6875
m/z	relative intensity	assigned
58.0649	1	C3H8N+
68.0243	304	C2H2N3+
71.0603	389	C3H7N2+
74.0058	78	C2H4NS+
85.0509	64	C2H5N4+
85.076	20	C4H9N2+
91.0324	513	C2H7N2S+
96.0556	699	C4H6N3+
102.0372	27	C4H8NS+
110.0461	34	C3H4N5+
110.0711	7	C5H8N3+
113.0822	64	C4H9N4+
116.0277	318	C3H6N3S+
130.043	1	C4H8N3S+
138.0774	229	C5H8N5+
138.1024	25	C7H12N3+
140.0927	3	C5H10N5+
143.0254	1	C3H5N5S+
144.059	172	C5H10N3S+
158.0495	170	C4H8N5S+
169.0542	4	C6H9N4S+
171.057	4	C5H9N5S+
180.1242	7	C8H14N5+
184.0648	4	C6H10N5S+
186.0808	999	C6H12N5S+
200.0965	2	C7H14N5S+
228.1277	56	C9H18N5S+
