Mass spectrum: Oxfendazole; LC-ESI-QFT; MS2; CE: 45; R=17500; [M+H]+
Name: Oxfendazole
Name: methyl N-[6-(benzenesulfinyl)-1H-benzimidazol-2-yl]carbamate
Formula: C15H13N3O3S
Exact mass: 315.0678
SMILES: COC(=O)NC1=NC2=C(N1)C=CC(=C2)S(=O)C1=CC=CC=C1
InChI: InChI=1S/C15H13N3O3S/c1-21-15(19)18-14-16-12-8-7-11(9-13(12)17-14)22(20)10-5-3-2-4-6-10/h2-9H,1H3,(H2,16,17,18,19)
Instrument: Q Exactive Orbitrap (Thermo Scientific)
Instrument type: LC-ESI-QFT
Ms type: MS2
Ion mode: POSITIVE
Ionization: ESI
Fragmentation mode: HCD
Collision energy: 45
Resolution: 17500
Column name: Acquity BEH C18 1.7um, 2.1x150mm (Waters)
Retention time: 14.495 min
Base peak: 79.0211
Precursor m/z: 316.075
Precursor type: [M+H]+
Precursor intensity: 2791510.65625
m/z	relative intensity	assigned
69.0084	3	C2HN2O+
97.0108	5	C5H5S+
119.0605	12	C7H7N2+
125.0057	50	C6H5OS+
131.0481	4	C7H5N3+
133.0398	3	C7H5N2O+
133.0635	15	C7H7N3+
134.0471	2	C7H6N2O+
135.0427	4	C6H5N3O+
146.0714	35	C8H8N3+
147.0428	3	C7H5N3O+
158.0348	2	C8H4N3O+
159.0428	687	C8H5N3O+
174.0301	17	C8H4N3O2+
175.0378	155	C8H5N3O2+
190.0067	3	C8H4N3OS+
191.0327	999	C8H5N3O3+
191.069	493	C9H9N3O2+
193.0371	3	C12H5N2O+
206.0019	7	C8H4N3O2S+
207.0099	249	C8H5N3O2S+
207.064	39	C9H9N3O3+
223.0589	676	C15H11S+
236.0816	3	C14H10N3O+
239.036	130	C9H9N3O3S+
266.0384	54	C14H8N3OS+
267.0463	252	C14H9N3OS+
284.0491	346	C14H10N3O2S+
298.0642	15	C15H12N3O2S+
299.0725	168	C15H13N3O2S+
316.0754	27	C15H14N3O3S+
