Mass spectrum: Methfuroxam; LC-ESI-QFT; MS2; CE: 30; R=17500; [M+H]+
Name: Methfuroxam
Name: 2,4,5-trimethyl-N-phenylfuran-3-carboxamide
Formula: C14H15NO2
Exact mass: 229.1103
SMILES: CC1=C(C)C(C(=O)NC2=CC=CC=C2)=C(C)O1
InChI: InChI=1S/C14H15NO2/c1-9-10(2)17-11(3)13(9)14(16)15-12-7-5-4-6-8-12/h4-8H,1-3H3,(H,15,16)
Instrument: Q Exactive Orbitrap (Thermo Scientific)
Instrument type: LC-ESI-QFT
Ms type: MS2
Ion mode: POSITIVE
Ionization: ESI
Fragmentation mode: HCD
Collision energy: 30
Resolution: 17500
Column name: Acquity BEH C18 1.7um, 2.1x150mm (Waters)
Retention time: 16.865 min
Base peak: 79.0211
Precursor m/z: 230.1176
Precursor type: [M+H]+
Precursor intensity: 9446074
m/z	relative intensity	assigned
55.0543	2	C4H7+
67.054	3	C5H7+
69.0334	1	C4H5O+
77.0386	1	C6H5+
81.0698	1	C6H9+
83.0855	2	C6H11+
91.0541	1	C7H7+
92.0495	10	C6H6N+
93.0699	16	C7H9+
94.0651	1	C6H8N+
95.0491	4	C6H7O+
109.0648	3	C7H9O+
111.0804	887	C7H11O+
120.0444	85	C7H6NO+
137.0597	999	C8H9O2+
138.0547	1	C7H8NO2+
174.0541	2	C10H8NO2+
188.107	1	C12H14NO+
212.1069	5	C14H14NO+
230.1176	562	C14H16NO2+
