Mass spectrum: 6-Chloro-2,3-dihydrobenzoxazol-2-one; LC-ESI-QFT; MS2; CE: 75; R=17500; [M-H]-
Name: 6-Chloro-2,3-dihydrobenzoxazol-2-one
Name: 6-Chloro-2-benzoxazolinone
Name: 6-chloro-3H-1,3-benzoxazol-2-one
Formula: C7H4ClNO2
Exact mass: 168.9931
SMILES: ClC1=CC2=C(NC(=O)O2)C=C1
InChI: InChI=1S/C7H4ClNO2/c8-4-1-2-5-6(3-4)11-7(10)9-5/h1-3H,(H,9,10)
Instrument: Q Exactive Orbitrap (Thermo Scientific)
Instrument type: LC-ESI-QFT
Ms type: MS2
Ion mode: NEGATIVE
Ionization: ESI
Fragmentation mode: HCD
Collision energy: 75
Resolution: 17500
Column name: Acquity BEH C18 1.7um, 2.1x150mm (Waters)
Retention time: 15.754 min
Base peak: 167.9858
Precursor m/z: 167.9858
Precursor type: [M-H]-
Precursor intensity: 37782443.41211
m/z	relative intensity	assigned
50.0035	7	C3N-
76.0193	710	C5H2N-
77.0033	1	C5HO-
89.0033	20	C6HO-
96.0091	10	C4H2NO2-
104.0143	32	C6H2NO-
104.9981	2	C6HO2-
132.0091	999	C7H2NO2-
167.9857	418	C7H3ClNO2-
