Mass spectrum: Piragliatin; LC-ESI-QFT; MS2; CE: 15; R=17500; [M+H]+
Name: Piragliatin
Name: (2R)-2-(3-chloro-4-methylsulfonylphenyl)-3-[(1R)-3-oxocyclopentyl]-N-pyrazin-2-ylpropanamide
Formula: C19H20ClN3O4S
Exact mass: 421.0863
SMILES: CS(=O)(=O)C1=CC=C(C=C1Cl)[C@@H](C[C@H]1CCC(=O)C1)C(=O)NC1=NC=CN=C1
InChI: InChI=1S/C19H20ClN3O4S/c1-28(26,27)17-5-3-13(10-16(17)20)15(9-12-2-4-14(24)8-12)19(25)23-18-11-21-6-7-22-18/h3,5-7,10-12,15H,2,4,8-9H2,1H3,(H,22,23,25)/t12-,15+/m0/s1
Instrument: Q Exactive Orbitrap (Thermo Scientific)
Instrument type: LC-ESI-QFT
Ms type: MS2
Ion mode: POSITIVE
Ionization: ESI
Fragmentation mode: HCD
Collision energy: 15
Resolution: 17500
Column name: Acquity BEH C18 1.7um, 2.1x150mm (Waters)
Retention time: 14.557 min
Base peak: 79.0211
Precursor m/z: 422.0936
Precursor type: [M+H]+
Precursor intensity: 481543.90625
m/z	relative intensity	assigned
96.0556	354	C4H6N3+
203.0622	10	C13H12Cl+
281.0404	9	C14H14ClO2S+
299.0498	24	C14H16ClO3S+
327.0452	6	C15H16ClO4S+
404.0832	526	C19H19ClN3O3S+
422.0938	999	C19H21ClN3O4S+
