Mass spectrum: 2,7-Acetylaminofluorene; LC-ESI-QFT; MS2; CE: 90; R=17500; [M+H]+
Name: 2,7-Acetylaminofluorene
Name: 2,7-Diacetamidofluorene
Name: N-(7-acetamido-9H-fluoren-2-yl)acetamide
Formula: C17H16N2O2
Exact mass: 280.1212
SMILES: CC(=O)NC1=CC=C2C(CC3=C2C=CC(NC(C)=O)=C3)=C1
InChI: InChI=1S/C17H16N2O2/c1-10(20)18-14-3-5-16-12(8-14)7-13-9-15(19-11(2)21)4-6-17(13)16/h3-6,8-9H,7H2,1-2H3,(H,18,20)(H,19,21)
Instrument: Q Exactive Orbitrap (Thermo Scientific)
Instrument type: LC-ESI-QFT
Ms type: MS2
Ion mode: POSITIVE
Ionization: ESI
Fragmentation mode: HCD
Collision energy: 90
Resolution: 17500
Column name: Acquity BEH C18 1.7um, 2.1x150mm (Waters)
Retention time: 14.586 min
Base peak: 79.0211
Precursor m/z: 281.1285
Precursor type: [M+H]+
Precursor intensity: 11566416.15625
m/z	relative intensity	assigned
54.0339	5	C3H4N+
55.0178	1	C3H3O+
80.0494	5	C5H6N+
128.062	4	C10H8+
129.0699	5	C10H9+
130.0652	31	C9H8N+
131.0494	1	C9H7O+
131.0729	5	C9H9N+
132.0683	1	C8H8N2+
139.0542	1	C11H7+
143.0731	4	C10H9N+
143.0856	2	C11H11+
144.0808	9	C10H10N+
151.0545	1	C12H7+
152.0621	89	C12H8+
153.0699	157	C12H9+
154.0651	13	C11H8N+
154.0772	1	C12H10+
155.0605	5	C10H7N2+
155.0731	5	C11H9N+
156.0808	34	C11H10N+
157.0649	1	C11H9O+
157.0885	3	C11H11N+
163.0542	34	C13H7+
165.0701	10	C13H9+
167.0491	9	C12H7O+
167.0731	9	C12H9N+
168.0808	40	C12H10N+
169.0648	10	C12H9O+
169.0761	1	C11H9N2+
169.0885	6	C12H11N+
170.0965	18	C12H12N+
171.0805	1	C12H11O+
177.0698	1	C14H9+
178.0651	7	C13H8N+
179.0604	3	C12H7N2+
179.0731	12	C13H9N+
180.0808	999	C13H10N+
181.0649	24	C13H9O+
181.0885	397	C13H11N+
182.0734	5	C13H10O+
182.0838	83	C12H10N2+
183.0679	9	C12H9NO+
184.0757	42	C12H10NO+
193.0885	3	C14H11N+
194.0967	2	C14H12N+
195.0917	176	C13H11N2+
196.0995	216	C13H12N2+
197.1073	85	C13H13N2+
198.0914	8	C13H12NO+
211.0626	5	C13H9NO2+
212.0703	3	C13H10NO2+
221.1072	1	C15H13N2+
