Mass spectrum: PK 11195; LC-ESI-QFT; MS2; CE: 75; R=17500; [M+H]+
Name: PK 11195
Name: 1-(2-Chlorophenyl)-N-methyl-N-(1-methylpropyl)-3-isoquinolinecarboxamide
Name: N-butan-2-yl-1-(2-chlorophenyl)-N-methylisoquinoline-3-carboxamide
Formula: C21H21ClN2O
Exact mass: 352.1342
SMILES: CCC(C)N(C)C(=O)C1=CC2=C(C=CC=C2)C(=N1)C1=CC=CC=C1Cl
InChI: InChI=1S/C21H21ClN2O/c1-4-14(2)24(3)21(25)19-13-15-9-5-6-10-16(15)20(23-19)17-11-7-8-12-18(17)22/h5-14H,4H2,1-3H3
Instrument: Q Exactive Orbitrap (Thermo Scientific)
Instrument type: LC-ESI-QFT
Ms type: MS2
Ion mode: POSITIVE
Ionization: ESI
Fragmentation mode: HCD
Collision energy: 75
Resolution: 17500
Column name: Acquity BEH C18 1.7um, 2.1x150mm (Waters)
Retention time: 18.557 min
Base peak: 79.0211
Precursor m/z: 353.1415
Precursor type: [M+H]+
Precursor intensity: 21138929
m/z	relative intensity	assigned
57.0699	2	C4H9+
75.023	1	C6H3+
86.9996	1	C4H4Cl+
115.054	3	C9H7+
129.01	2	C6H6ClO+
139.0057	4	C6H4ClN2+
140.0493	2	C10H6N+
151.0544	1	C12H7+
152.0619	1	C12H8+
169.0647	4	C12H9O+
175.054	5	C14H7+
176.062	33	C14H8+
177.0571	3	C13H7N+
179.0493	1	C13H7O+
179.0603	2	C12H7N2+
185.071	1	C11H9N2O+
192.081	2	C14H10N+
193.0648	13	C14H9O+
194.0601	3	C13H8NO+
201.0574	40	C15H7N+
202.0652	73	C15H8N+
203.0728	999	C15H9N+
204.0557	1	C15H8O+
206.0597	1	C14H8NO+
211.0308	12	C14H8Cl+
216.0809	5	C16H10N+
217.0886	14	C16H11N+
220.0756	206	C15H10NO+
225.0462	1	C15H10Cl+
230.0709	3	C17H10O+
234.0912	4	C16H12NO+
235.0627	1	C12H12ClN2O+
237.0341	8	C15H8ClN+
238.0417	655	C15H9ClN+
239.0368	1	C14H8ClN2+
243.0919	1	C17H11N2+
251.0498	1	C16H10ClN+
252.0575	11	C16H11ClN+
256.0523	96	C15H11ClNO+
263.0368	1	C19H5NO+
270.068	4	C16H13ClNO+
279.0681	7	C17H12ClN2+
