Mass spectrum: Ethionamide; LC-ESI-QFT; MS2; CE: 45; R=17500; [M+H]+
Name: Ethionamide
Name: 2-ethylpyridine-4-carboximidothioic acid
Formula: C8H10N2S
Exact mass: 166.0565
SMILES: CCC1=NC=CC(=C1)C(N)=S
InChI: InChI=1S/C8H10N2S/c1-2-7-5-6(8(9)11)3-4-10-7/h3-5H,2H2,1H3,(H2,9,11)
Instrument: Q Exactive Orbitrap (Thermo Scientific)
Instrument type: LC-ESI-QFT
Ms type: MS2
Ion mode: POSITIVE
Ionization: ESI
Fragmentation mode: HCD
Collision energy: 45
Resolution: 17500
Column name: Acquity BEH C18 1.7um, 2.1x150mm (Waters)
Retention time: 6.599 min
Base peak: 79.0211
Precursor m/z: 167.0637
Precursor type: [M+H]+
Precursor intensity: 11082394.4375
m/z	relative intensity	assigned
61.0106	6	C2H5S+
93.0574	1	C6H7N+
107.0729	17	C7H9N+
108.0808	3	C7H10N+
123.0917	1	C7H11N2+
125.0294	2	C6H7NS+
133.0761	43	C8H9N2+
134.0839	146	C8H10N2+
140.0528	510	C7H10NS+
150.0372	7	C8H8NS+
152.0404	3	C7H8N2S+
167.0638	999	C8H11N2S+
