Mass spectrum: Sulfaquinoxaline; LC-ESI-QFT; MS2; CE: 30; R=17500; [M-H]-
Name: Sulfaquinoxaline
Name: 4-amino-N-quinoxalin-2-ylbenzenesulfonamide
Formula: C14H12N4O2S
Exact mass: 300.0681
SMILES: NC1=CC=C(C=C1)S(=O)(=O)NC1=CN=C2C=CC=CC2=N1
InChI: InChI=1S/C14H12N4O2S/c15-10-5-7-11(8-6-10)21(19,20)18-14-9-16-12-3-1-2-4-13(12)17-14/h1-9H,15H2,(H,17,18)
Instrument: Q Exactive Orbitrap (Thermo Scientific)
Instrument type: LC-ESI-QFT
Ms type: MS2
Ion mode: NEGATIVE
Ionization: ESI
Fragmentation mode: HCD
Collision energy: 30
Resolution: 17500
Column name: Acquity BEH C18 1.7um, 2.1x150mm (Waters)
Retention time: 13.928 min
Base peak: 358.0229
Precursor m/z: 299.0608
Precursor type: [M-H]-
Precursor intensity: 4812704.777344
m/z	relative intensity	assigned
92.0506	1	C6H6N-
117.0459	16	C7H5N2-
121.0295	1	C7H5O2-
142.041	4	C8H4N3-
143.0488	10	C8H5N3-
144.0567	13	C8H6N3-
181.0078	4	C7H5N2O2S-
207.0111	1	C8H5N3O2S-
208.0879	15	C13H10N3-
233.0832	7	C14H9N4-
235.099	25	C14H11N4-
297.0458	1	C14H9N4O2S-
298.053	1	C14H10N4O2S-
299.0608	999	C14H11N4O2S-
