Mass spectrum: Bezafibrate; LC-ESI-QFT; MS2; CE: 60; R=17500; [M+H]+
Name: Bezafibrate
Name: 2-[4-[2-[(4-chlorobenzoyl)amino]ethyl]phenoxy]-2-methylpropanoic acid
Formula: C19H20ClNO4
Exact mass: 361.1081
SMILES: CC(C)(OC1=CC=C(CCNC(=O)C2=CC=C(Cl)C=C2)C=C1)C(O)=O
InChI: InChI=1S/C19H20ClNO4/c1-19(2,18(23)24)25-16-9-3-13(4-10-16)11-12-21-17(22)14-5-7-15(20)8-6-14/h3-10H,11-12H2,1-2H3,(H,21,22)(H,23,24)
Instrument: Q Exactive Orbitrap (Thermo Scientific)
Instrument type: LC-ESI-QFT
Ms type: MS2
Ion mode: POSITIVE
Ionization: ESI
Fragmentation mode: HCD
Collision energy: 60
Resolution: 17500
Column name: Acquity BEH C18 1.7um, 2.1x150mm (Waters)
Retention time: 17.333 min
Base peak: 79.0211
Precursor m/z: 362.1154
Precursor type: [M+H]+
Precursor intensity: 10686868.125
m/z	relative intensity	assigned
51.023	1	C4H3+
53.0023	2	C3HO+
53.0386	7	C4H5+
55.0179	3	C3H3O+
59.0492	51	C3H7O+
65.0387	1	C5H5+
69.0335	13	C4H5O+
75.0228	4	C6H3+
77.0384	2	C6H5+
79.0179	2	C5H3O+
79.0541	1	C6H7+
86.9997	14	C4H4Cl+
87.0441	20	C4H7O2+
91.0543	72	C7H7+
93.07	116	C7H9+
94.0415	2	C6H6O+
95.0492	22	C6H7O+
103.0543	76	C8H7+
105.07	8	C8H9+
107.0492	6	C7H7O+
110.9994	5	C6H4Cl+
111.0441	6	C6H7O2+
114.9945	1	C5H4ClO+
119.0491	2	C8H7O+
119.0856	12	C9H11+
120.0571	16	C8H8O+
121.0648	734	C8H9O+
128.0025	1	C6H5ClO+
128.0621	4	C10H8+
129.0102	41	C6H6ClO+
132.057	1	C9H8O+
133.0649	12	C9H9O+
133.1012	4	C10H13+
138.9947	999	C7H4ClO+
139.005	100	C9HNO+
143.0854	3	C11H11+
146.0728	4	C10H10O+
156.0209	3	C7H7ClNO+
161.0962	23	C11H13O+
182.0368	2	C9H9ClNO+
189.0911	2	C12H13O2+
