Mass spectrum: Florasulam; LC-ESI-QFT; MS2; CE: 30; R=17500; [M-H]-
Name: Florasulam
Name: N-(2,6-difluorophenyl)-8-fluoro-5-methoxy-[1,2,4]triazolo[1,5-c]pyrimidine-2-sulfonamide
Formula: C12H8F3N5O3S
Exact mass: 359.0300
SMILES: COC1=NC=C(F)C2=NC(=NN12)S(=O)(=O)NC1=C(F)C=CC=C1F
InChI: InChI=1S/C12H8F3N5O3S/c1-23-12-16-5-8(15)10-17-11(18-20(10)12)24(21,22)19-9-6(13)3-2-4-7(9)14/h2-5,19H,1H3
Instrument: Q Exactive Orbitrap (Thermo Scientific)
Instrument type: LC-ESI-QFT
Ms type: MS2
Ion mode: NEGATIVE
Ionization: ESI
Fragmentation mode: HCD
Collision energy: 30
Resolution: 17500
Column name: Acquity BEH C18 1.7um, 2.1x150mm (Waters)
Retention time: 13.928 min
Base peak: 358.0229
Precursor m/z: 358.0227
Precursor type: [M-H]-
Precursor intensity: 9290609.472656
m/z	relative intensity	assigned
55.0301	3	C2H3N2-
66.0096	4	C2N3-
83.0051	3	C3FN2-
90.0098	1	C4N3-
104.0128	1	C4N4-
104.0254	1	C5H2N3-
111.0001	1	C4FN2O-
140.0267	2	C10H4O-
152.014	17	C5HFN4O-
167.0374	999	C6H4FN4O-
231.0359	1	C10H3F2N5-
279.0367	1	C11H4F3N5O-
