Mass spectrum: Coumaphos; LC-ESI-QFT; MS2; CE: 60; R=17500; [M+H]+
Name: Coumaphos
Formula: C14H16ClO5PS
Exact mass: 362.0145
SMILES: CCOP(=S)(OCC)OC1=CC2=C(C=C1)C(C)=C(Cl)C(=O)O2
InChI: InChI=1S/C14H16ClO5PS/c1-4-17-21(22,18-5-2)20-10-6-7-11-9(3)13(15)14(16)19-12(11)8-10/h6-8H,4-5H2,1-3H3
Instrument: Q Exactive Orbitrap (Thermo Scientific)
Instrument type: LC-ESI-QFT
Ms type: MS2
Ion mode: POSITIVE
Ionization: ESI
Fragmentation mode: HCD
Collision energy: 60
Resolution: 17500
Column name: Acquity BEH C18 1.7um, 2.1x150mm (Waters)
Retention time: 18.628 min
Base peak: 79.0212
Precursor m/z: 363.0217
Precursor type: [M+H]+
Precursor intensity: 6801599.65625
m/z	relative intensity	assigned
65.0386	5	C5H5+
68.9971	2	C3HO2+
91.0543	38	C7H7+
96.9507	3	H2O2PS+
98.9842	999	H4O4P+
102.0464	4	C8H6+
103.0542	20	C8H7+
108.984	1	C6H2Cl+
112.9603	2	C4H2PS+
114.9614	112	H4O3PS+
115.0543	80	C9H7+
116.9948	17	H6O5P+
119.0492	7	C8H7O+
121.0287	1	C7H5O2+
122.0319	1	C4H11PS+
123.0262	2	C7H7S+
124.9969	2	ClH11OPS+
125.0156	1	C7H6Cl+
127.0155	26	C2H8O4P+
128.9767	4	CH6O3PS+
129.0198	1	C5H5O4+
131.0492	59	C9H7O+
132.0569	45	C9H8O+
134.0187	3	C8H6S+
135.0263	25	C8H7S+
136.034	1	C8H8S+
137.0152	5	C8H6Cl+
139.0313	1	C8H8Cl+
147.0264	99	C9H7S+
147.0441	15	C9H7O2+
148.034	19	C9H8S+
148.0518	14	C9H8O2+
149.0155	11	C9H6Cl+
150.0231	59	C9H7Cl+
155.0258	10	C8H8ClO+
159.0441	9	C4H12ClO4+
162.0136	4	C9H6OS+
163.0212	45	C9H7OS+
164.0291	53	C9H8OS+
165.0102	12	C9H6ClO+
166.0181	38	C9H7ClO+
167.0259	3	C9H8ClO+
168.9874	1	C8H6ClS+
169.9685	12	C7H4ClOP+
171.0032	18	C8H8ClS+
172.9548	5	C6H3ClO2P+
172.969	6	C9HO2S+
173.9627	214	C6H4ClO2P+
175.0391	6	C10H7O3+
181.0052	4	C9H6ClO2+
182.013	3	C9H7ClO2+
188.968	1	C7H7ClPS+
191.0162	33	C10H7O2S+
192.0241	8	C10H8O2S+
193.0048	6	C9H6O3P+
194.0131	98	C10H7ClO2+
196.9822	21	C9H6ClOS+
197.9914	1	C9H7ClOS+
198.9641	4	C8H4ClO2S+
198.9976	4	C8H8O2PS+
208.9315	89	C5H2ClO5S+
209.0003	8	C10H6ClO3+
210.0079	16	C10H7ClO3+
211.0158	216	C10H8ClO3+
224.9772	27	C10H6ClO2S+
225.9851	191	C10H7ClO2S+
226.9929	819	C10H8ClO2S+
256.9765	19	C10H7ClO4P+
270.9378	13	C10H5ClO3PS+
272.0088	3	C14H9O2PS+
273.0117	19	C8H15ClO4PS+
288.0029	4	C14H9O3PS+
288.9486	66	C10H7ClO4PS+
289.0065	13	C8H15ClO5PS+
290.9821	24	C14H9ClOPS+
306.9581	2	C10H9ClO5PS+
320.9741	12	C11H11ClO5PS+
