Mass spectrum: Thiophanate-methyl; LC-ESI-QFT; MS2; CE: 60; R=17500; [M+H]+
Name: Thiophanate-methyl
Name: N'-methoxycarbonyl-N-[2-[(N-methoxycarbonyl-C-sulfanylcarbonimidoyl)amino]phenyl]carbamimidothioic acid
Formula: C12H14N4O4S2
Exact mass: 342.0456
SMILES: COC(=O)NC(=S)NC1=C(NC(=S)NC(=O)OC)C=CC=C1
InChI: InChI=1S/C12H14N4O4S2/c1-19-11(17)15-9(21)13-7-5-3-4-6-8(7)14-10(22)16-12(18)20-2/h3-6H,1-2H3,(H2,13,15,17,21)(H2,14,16,18,22)
Instrument: Q Exactive Orbitrap (Thermo Scientific)
Instrument type: LC-ESI-QFT
Ms type: MS2
Ion mode: POSITIVE
Ionization: ESI
Fragmentation mode: HCD
Collision energy: 60
Resolution: 17500
Column name: Acquity BEH C18 1.7um, 2.1x150mm (Waters)
Retention time: 15.164 min
Base peak: 79.0211
Precursor m/z: 343.0529
Precursor type: [M+H]+
Precursor intensity: 8533485.90625
m/z	relative intensity	assigned
57.9747	1	CNS+
65.0385	3	C5H5+
74.0058	116	C2H4NS+
76.0393	36	C2H6NO2+
85.9695	126	C2NOS+
92.0495	31	C6H6N+
93.0573	131	C6H7N+
107.0604	15	C6H7N2+
109.076	56	C6H9N2+
110.0601	1	C6H8NO+
117.9956	20	C3H4NO2S+
118.0525	48	C7H6N2+
119.0604	21	C7H7N2+
122.0059	2	C6H4NS+
124.0217	1	C6H6NS+
132.0558	2	C7H6N3+
134.0713	14	C7H8N3+
135.0139	2	C7H5NS+
135.0552	10	C7H7N2O+
146.0715	1	C8H8N3+
149.0169	48	C7H5N2S+
150.0246	5	C7H6N2S+
151.0324	999	C7H7N2S+
160.0505	96	C8H6N3O+
174.0116	1	C8H4N3S+
175.0198	4	C8H5N3S+
176.0278	3	C8H6N3S+
177.0116	9	C8H5N2OS+
186.0298	1	C9H4N3O2+
188.0452	1	C9H6N3O2+
190.0434	1	C9H8N3S+
192.0769	1	C9H10N3O2+
192.9891	10	C8H5N2S2+
202.007	2	C9H4N3OS+
