Mass spectrum: Betamethasone valerate; LC-ESI-QFT; MS2; CE: 30; R=17500; [M+H]+
Name: Betamethasone valerate
Name: [(8S,9R,10S,11S,13S,14S,16S,17R)-9-fluoro-11-hydroxy-17-(2-hydroxyacetyl)-10,13,16-trimethyl-3-oxo-6,7,8,11,12,14,15,16-octahydrocyclopenta[a]phenanthren-17-yl] pentanoate
Formula: C27H37FO6
Exact mass: 476.2574
SMILES: CCCCC(=O)O[C@@]1([C@@H](C)C[C@H]2[C@@H]3CCC4=CC(=O)C=C[C@]4(C)[C@@]3(F)[C@@H](O)C[C@]12C)C(=O)CO
InChI: InChI=1S/C27H37FO6/c1-5-6-7-23(33)34-27(22(32)15-29)16(2)12-20-19-9-8-17-13-18(30)10-11-24(17,3)26(19,28)21(31)14-25(20,27)4/h10-11,13,16,19-21,29,31H,5-9,12,14-15H2,1-4H3/t16-,19-,20-,21-,24-,25-,26-,27-/m0/s1
Instrument: Q Exactive Orbitrap (Thermo Scientific)
Instrument type: LC-ESI-QFT
Ms type: MS2
Ion mode: POSITIVE
Ionization: ESI
Fragmentation mode: HCD
Collision energy: 30
Resolution: 17500
Column name: Acquity BEH C18 1.7um, 2.1x150mm (Waters)
Retention time: 18.603 min
Base peak: 79.0211
Precursor m/z: 477.2647
Precursor type: [M+H]+
Precursor intensity: 3907572.75
m/z	relative intensity	assigned
57.0699	39	C4H9+
69.0699	23	C5H9+
85.0648	40	C5H9O+
93.0699	44	C7H9+
95.0855	102	C7H11+
103.0751	20	C5H11O2+
105.07	25	C8H9+
107.0855	131	C8H11+
109.1012	105	C8H13+
119.0855	122	C9H11+
121.0647	120	C8H9O+
121.1011	86	C9H13+
123.0804	131	C8H11O+
131.0855	26	C10H11+
133.0646	17	C9H9O+
133.1012	68	C10H13+
135.0803	217	C9H11O+
137.0962	61	C9H13O+
143.0853	21	C11H11+
145.0649	27	C10H9O+
145.1011	25	C11H13+
147.0804	446	C10H11O+
149.0961	116	C10H13O+
153.0912	100	C9H13O2+
159.0804	148	C11H11O+
161.0961	110	C11H13O+
167.1063	76	C10H15O2+
169.065	21	C12H9O+
171.0804	289	C12H11O+
171.1164	29	C13H15+
173.0961	153	C12H13O+
177.091	34	C11H13O2+
183.0809	25	C13H11O+
185.0962	230	C13H13O+
187.0755	169	C12H11O2+
187.1117	28	C13H15O+
197.0962	60	C14H13O+
199.1115	33	C14H15O+
209.096	29	C15H13O+
211.1119	59	C15H15O+
213.1275	60	C15H17O+
221.0959	69	C16H13O+
223.1119	138	C16H15O+
225.1269	25	C16H17O+
235.1118	42	C17H15O+
237.1274	56	C17H17O+
239.1066	30	C16H15O2+
239.1424	20	C17H19O+
248.1193	29	C18H16O+
249.1275	86	C18H17O+
251.1427	27	C18H19O+
259.1122	34	C19H15O+
261.1276	52	C19H17O+
262.1348	50	C19H18O+
263.1433	205	C19H19O+
264.1501	26	C19H20O+
274.1345	24	C20H18O+
275.1431	70	C20H19O+
276.1511	32	C20H20O+
277.1587	238	C20H21O+
278.1665	239	C20H22O+
279.1744	999	C20H23O+
286.1351	40	C21H18O+
289.159	108	C21H21O+
291.1746	236	C21H23O+
297.184	17	C20H25O2+
301.1575	98	C22H21O+
307.1691	95	C21H23O2+
311.1612	16	C20H23O3+
319.1691	235	C22H23O2+
325.1792	23	C21H25O3+
337.1798	129	C22H25O3+
355.1898	35	C22H27O4+
