Mass spectrum: 2-Amino-5-(5-nitro-2-furyl)-1,3,4-oxadiazole; LC-ESI-QFT; MS2; CE: 15; R=17500; [M-H]-
Name: 2-Amino-5-(5-nitro-2-furyl)-1,3,4-oxadiazole
Name: 5-(5-nitrofuran-2-yl)-1,3,4-oxadiazol-2-amine
Formula: C6H4N4O4
Exact mass: 196.0233
SMILES: NC1=NN=C(O1)C1=CC=C(O1)[N+]([O-])=O
InChI: InChI=1S/C6H4N4O4/c7-6-9-8-5(14-6)3-1-2-4(13-3)10(11)12/h1-2H,(H2,7,9)
Instrument: Q Exactive Orbitrap (Thermo Scientific)
Instrument type: LC-ESI-QFT
Ms type: MS2
Ion mode: NEGATIVE
Ionization: ESI
Fragmentation mode: HCD
Collision energy: 15
Resolution: 17500
Column name: Acquity BEH C18 1.7um, 2.1x150mm (Waters)
Retention time: 11.157 min
Base peak: 195.016
Precursor m/z: 195.016
Precursor type: [M-H]-
Precursor intensity: 3147094.493652
m/z	relative intensity	assigned
50.0035	15	C3N-
64.0193	114	C4H2N-
65.0033	68	C4HO-
65.0145	6	C3HN2-
65.9986	17	C3NO-
68.9984	4	C3HO2-
77.0033	64	C5HO-
77.0146	20	C4HN2-
79.9904	12	C4O2-
80.0142	42	C4H2NO-
82.0047	999	C2N3O-
89.9987	4	C5NO-
92.0142	90	C5H2NO-
92.9984	6	C5HO2-
93.0094	10	C4HN2O-
105.0095	50	C5HN2O-
105.9935	9	C5NO2-
108.0092	7	C5H2NO2-
109.017	12	C5H3NO2-
112.0041	19	C4H2NO3-
120.0204	12	C5H2N3O-
121.0282	153	C5H3N3O-
123.0201	9	C5H3N2O2-
124.004	168	C5H2NO3-
136.0043	10	C6H2NO3-
137.0247	7	C5H3N3O2-
148.0153	197	C6H2N3O2-
165.018	36	C6H3N3O3-
195.0161	120	C6H3N4O4-
