Mass spectrum: Hydroxyzine; LC-ESI-QFT; MS2; CE: 90; R=17500; [M+H]+
Name: Hydroxyzine
Name: 2-[2-[4-[(4-chlorophenyl)-phenylmethyl]piperazin-1-yl]ethoxy]ethanol
Formula: C21H27ClN2O2
Exact mass: 374.1761
SMILES: OCCOCCN1CCN(CC1)C(C1=CC=CC=C1)C1=CC=C(Cl)C=C1
InChI: InChI=1S/C21H27ClN2O2/c22-20-8-6-19(7-9-20)21(18-4-2-1-3-5-18)24-12-10-23(11-13-24)14-16-26-17-15-25/h1-9,21,25H,10-17H2
Instrument: Q Exactive Orbitrap (Thermo Scientific)
Instrument type: LC-ESI-QFT
Ms type: MS2
Ion mode: POSITIVE
Ionization: ESI
Fragmentation mode: HCD
Collision energy: 90
Resolution: 17500
Column name: Acquity BEH C18 1.7um, 2.1x150mm (Waters)
Retention time: 15.635 min
Base peak: 79.0212
Precursor m/z: 375.1834
Precursor type: [M+H]+
Precursor intensity: 19946458
m/z	relative intensity	assigned
83.0603	2	C4H7N2+
84.0682	2	C4H8N2+
98.9995	1	C5H4Cl+
115.0542	4	C9H7+
139.0541	3	C11H7+
163.0536	1	C13H7+
164.0623	6	C13H8+
165.0699	999	C13H9+
166.0775	475	C13H10+
168.0567	7	C12H8O+
183.0803	2	C13H11O+
193.0761	2	C13H9N2+
196.0518	2	C13H8O2+
199.0309	17	C13H8Cl+
201.0468	5	C13H10Cl+
