Mass spectrum: Amiprofos-methyl; LC-ESI-QFT; MS2; CE: 15; R=17500; [M+H]+
Name: Amiprofos-methyl
Name: N-[methoxy-(4-methyl-2-nitrophenoxy)phosphinothioyl]propan-2-amine
Formula: C11H17N2O4PS
Exact mass: 304.0647
SMILES: COP(=S)(NC(C)C)OC1=C(C=C(C)C=C1)[N+]([O-])=O
InChI: InChI=1S/C11H17N2O4PS/c1-8(2)12-18(19,16-4)17-11-6-5-9(3)7-10(11)13(14)15/h5-8H,1-4H3,(H,12,19)
Instrument: Q Exactive Orbitrap (Thermo Scientific)
Instrument type: LC-ESI-QFT
Ms type: MS2
Ion mode: POSITIVE
Ionization: ESI
Fragmentation mode: HCD
Collision energy: 15
Resolution: 17500
Column name: Acquity BEH C18 1.7um, 2.1x150mm (Waters)
Retention time: 17.986 min
Base peak: 79.0211
Precursor m/z: 305.0719
Precursor type: [M+H]+
Precursor intensity: 1985443.9375
m/z	relative intensity	assigned
90.9767	909	C2H4PS+
152.0295	999	C4H11NOPS+
