Mass spectrum: Imazapic; LC-ESI-QFT; MS2; CE: 75; R=17500; [M+H]+
Name: Imazapic
Name: 5-methyl-2-(4-methyl-5-oxo-4-propan-2-yl-1H-imidazol-2-yl)pyridine-3-carboxylic acid
Formula: C14H17N3O3
Exact mass: 275.1270
SMILES: CC(C)C1(C)NC(=NC1=O)C1=NC=C(C)C=C1C(O)=O
InChI: InChI=1S/C14H17N3O3/c1-7(2)14(4)13(20)16-11(17-14)10-9(12(18)19)5-8(3)6-15-10/h5-7H,1-4H3,(H,18,19)(H,16,17,20)
Instrument: Q Exactive Orbitrap (Thermo Scientific)
Instrument type: LC-ESI-QFT
Ms type: MS2
Ion mode: POSITIVE
Ionization: ESI
Fragmentation mode: HCD
Collision energy: 75
Resolution: 17500
Column name: Acquity BEH C18 1.7um, 2.1x150mm (Waters)
Retention time: 13.617 min
Base peak: 79.0211
Precursor m/z: 276.1343
Precursor type: [M+H]+
Precursor intensity: 19659591
m/z	relative intensity	assigned
52.0183	1	C3H2N+
52.0309	2	C4H4+
53.0022	76	C3HO+
53.9975	15	C2NO+
56.0495	18	C3H6N+
58.0651	20	C3H8N+
63.0229	4	C5H3+
65.0387	6	C5H5+
67.0416	8	C4H5N+
67.0542	28	C5H7+
67.9893	2	C3O2+
68.0495	1	C4H6N+
69.0699	999	C5H9+
70.0651	32	C4H8N+
71.073	81	C4H9N+
71.0855	5	C5H11+
72.0444	9	C3H6NO+
72.0808	1	C4H10N+
78.0087	2	C3N3+
79.0416	5	C5H5N+
79.0542	2	C6H7+
80.0496	7	C5H6N+
81.0336	3	C5H5O+
82.0413	2	C5H6O+
82.0651	4	C5H8N+
84.081	3	C5H10N+
86.0965	799	C5H12N+
90.0339	50	C6H4N+
91.0416	3	C6H5N+
92.0495	21	C6H6N+
93.0447	2	C5H5N2+
93.0573	8	C6H7N+
94.0526	47	C5H6N2+
94.0651	13	C6H8N+
96.0445	7	C5H6NO+
97.0648	9	C6H9O+
98.0602	8	C5H8NO+
105.0449	1	C6H5N2+
106.0653	4	C7H8N+
107.0366	25	C6H5NO+
107.0604	9	C6H7N2+
108.0444	12	C6H6NO+
109.0523	7	C6H7NO+
110.0601	268	C6H8NO+
117.0448	62	C7H5N2+
118.0526	31	C7H6N2+
118.0652	18	C8H8N+
119.0605	192	C7H7N2+
120.0442	2	C7H6NO+
120.0682	3	C7H8N2+
120.0808	2	C8H10N+
121.0397	18	C6H5N2O+
121.0761	13	C7H9N2+
122.0474	2	C6H6N2O+
122.0601	11	C7H8NO+
124.0758	26	C7H10NO+
125.0473	6	C6H7NO2+
126.055	3	C6H8NO2+
131.0728	7	C9H9N+
133.076	6	C8H9N2+
135.0553	283	C7H7N2O+
138.0551	91	C7H8NO2+
143.0604	2	C9H7N2+
144.0559	1	C8H6N3+
144.0809	9	C10H10N+
145.0397	948	C8H5N2O+
146.0475	8	C8H6N2O+
146.0839	2	C9H10N2+
146.0967	4	C10H12N+
147.0553	194	C8H7N2O+
148.0394	2	C8H6NO2+
149.0712	3	C8H9N2O+
150.055	13	C8H8NO2+
158.0713	2	C9H8N3+
158.0965	5	C11H12N+
159.0791	4	C9H9N3+
160.0871	8	C9H10N3+
161.0711	667	C9H9N2O+
162.0663	149	C8H8N3O+
163.0503	842	C8H7N2O2+
165.0663	1	C8H9N2O2+
168.0811	2	C12H10N+
170.084	14	C11H10N2+
170.0966	3	C12H12N+
171.0554	2	C10H7N2O+
171.0918	6	C11H11N2+
172.0762	2	C11H10NO+
172.0997	5	C11H12N2+
174.0787	7	C10H10N2O+
177.0659	59	C9H9N2O2+
185.1072	14	C12H13N2+
186.0666	5	C10H8N3O+
186.0914	1	C12H12NO+
187.0741	16	C10H9N3O+
187.123	4	C12H15N2+
188.082	231	C10H10N3O+
189.1024	15	C11H13N2O+
190.0865	2	C11H12NO2+
190.0978	2	C10H12N3O+
191.081	2	C10H11N2O2+
198.0791	13	C12H10N2O+
200.0825	4	C11H10N3O+
205.0846	13	C10H11N3O2+
206.0929	5	C10H12N3O2+
213.1024	22	C13H13N2O+
215.0693	6	C11H9N3O2+
216.0769	135	C11H10N3O2+
231.1128	7	C13H15N2O2+
