Mass spectrum: Norethindrone; LC-ESI-QFT; MS2; CE: 30; R=17500; [M+H]+
Name: Norethindrone
Name: (8R,9S,10R,13S,14S,17R)-17-ethynyl-17-hydroxy-13-methyl-1,2,6,7,8,9,10,11,12,14,15,16-dodecahydrocyclopenta[a]phenanthren-3-one
Formula: C20H26O2
Exact mass: 298.1933
SMILES: C[C@]12CC[C@H]3[C@@H](CCC4=CC(=O)CC[C@H]34)[C@@H]1CC[C@@]2(O)C#C
InChI: InChI=1S/C20H26O2/c1-3-20(22)11-9-18-17-6-4-13-12-14(21)5-7-15(13)16(17)8-10-19(18,20)2/h1,12,15-18,22H,4-11H2,2H3/t15-,16+,17+,18-,19-,20-/m0/s1
Instrument: Q Exactive Orbitrap (Thermo Scientific)
Instrument type: LC-ESI-QFT
Ms type: MS2
Ion mode: POSITIVE
Ionization: ESI
Fragmentation mode: HCD
Collision energy: 30
Resolution: 17500
Column name: Acquity BEH C18 1.7um, 2.1x150mm (Waters)
Retention time: 17.309 min
Base peak: 79.0211
Precursor m/z: 299.2006
Precursor type: [M+H]+
Precursor intensity: 2887391.78125
m/z	relative intensity	assigned
55.0179	2	C3H3O+
55.0543	4	C4H7+
67.0543	16	C5H7+
69.0334	2	C4H5O+
69.0699	6	C5H9+
79.0542	23	C6H7+
81.0699	49	C6H9+
83.0492	107	C5H7O+
91.0543	24	C7H7+
93.07	44	C7H9+
95.0492	5	C6H7O+
95.0856	44	C7H11+
97.0649	10	C6H9O+
105.07	54	C8H9+
107.0492	44	C7H7O+
107.0856	44	C8H11+
109.0649	246	C7H9O+
109.1012	23	C8H13+
111.0805	23	C7H11O+
117.0699	36	C9H9+
119.0856	102	C9H11+
121.0649	17	C8H9O+
121.1012	33	C9H13+
123.0805	26	C8H11O+
123.117	7	C9H15+
127.0755	7	C7H11O2+
129.0699	24	C10H9+
131.0856	79	C10H11+
133.0647	9	C9H9O+
133.1012	49	C10H13+
135.0805	62	C9H11O+
135.1168	17	C10H15+
137.0963	11	C9H13O+
141.0698	10	C11H9+
143.0856	51	C11H11+
145.1013	104	C11H13+
147.0805	21	C10H11O+
147.1168	27	C11H15+
149.0961	50	C10H13O+
149.1326	6	C11H17+
151.1118	4	C10H15O+
154.0776	2	C12H10+
155.0855	21	C12H11+
157.0651	7	C11H9O+
157.1013	59	C12H13+
159.0805	23	C11H11O+
159.1169	47	C12H15+
161.0962	35	C11H13O+
161.1325	19	C12H17+
163.1118	41	C11H15O+
165.0707	3	C13H9+
167.0854	11	C13H11+
169.1013	56	C13H13+
171.1169	109	C13H15+
172.1249	2	C13H16+
173.0962	15	C12H13O+
173.1325	67	C13H17+
175.1118	33	C12H15O+
175.1479	4	C13H19+
177.1276	5	C12H17O+
179.0855	5	C14H11+
181.1013	29	C14H13+
182.1091	2	C14H14+
183.117	45	C14H15+
184.1251	3	C14H16+
185.0966	27	C13H13O+
185.1326	48	C14H17+
187.1118	27	C13H15O+
187.1485	6	C14H19+
189.1275	24	C13H17O+
189.1638	2	C14H21+
193.1013	8	C15H13+
194.1096	2	C15H14+
195.117	25	C15H15+
197.0965	7	C14H13O+
197.1328	27	C15H17+
198.1404	2	C15H18+
199.112	16	C14H15O+
199.1482	28	C15H19+
201.1276	19	C14H17O+
201.1641	5	C15H21+
203.1432	8	C14H19O+
206.1093	2	C16H14+
207.1172	32	C16H15+
208.125	3	C16H16+
209.1325	16	C16H17+
211.1123	12	C15H15O+
211.1483	49	C16H19+
213.1277	13	C15H17O+
213.1639	63	C16H21+
215.1432	7	C15H19O+
219.1176	2	C17H15+
221.1325	43	C17H17+
222.1403	6	C17H18+
223.1482	73	C17H19+
225.1274	15	C16H17O+
225.1639	8	C17H21+
227.1431	8	C16H19O+
229.1589	13	C16H21O+
231.1745	222	C16H23O+
233.1317	2	C18H17+
234.1401	5	C18H18+
235.1484	25	C18H19+
237.1642	18	C18H21+
239.1431	10	C17H19O+
239.1797	33	C18H23+
241.1591	14	C17H21O+
248.1562	6	C19H20+
253.1589	20	C18H21O+
253.195	12	C19H25+
257.1899	12	C18H25O+
263.1796	68	C20H23+
266.1663	5	C19H22O+
281.1901	135	C20H25O+
299.2007	999	C20H27O2+
