Mass spectrum: 4-Aminobenzamide; LC-ESI-QFT; MS2; CE: 45; R=17500; [M+H]+
Name: 4-Aminobenzamide
Formula: C7H8N2O
Exact mass: 136.0637
SMILES: NC(=O)C1=CC=C(N)C=C1
InChI: InChI=1S/C7H8N2O/c8-6-3-1-5(2-4-6)7(9)10/h1-4H,8H2,(H2,9,10)
Instrument: Q Exactive Orbitrap (Thermo Scientific)
Instrument type: LC-ESI-QFT
Ms type: MS2
Ion mode: POSITIVE
Ionization: ESI
Fragmentation mode: HCD
Collision energy: 45
Resolution: 17500
Column name: Acquity BEH C18 1.7um, 2.1x150mm (Waters)
Retention time: 2.658 min
Base peak: 79.0211
Precursor m/z: 137.0709
Precursor type: [M+H]+
Precursor intensity: 5757858.03125
m/z	relative intensity	assigned
53.0387	1	C4H5+
65.0385	4	C5H5+
68.0494	5	C4H6N+
86.0036	15	C6N+
92.0495	23	C6H6N+
94.0652	208	C6H8N+
95.0492	4	C6H7O+
110.0601	9	C6H8NO+
119.0605	1	C7H7N2+
120.0444	999	C7H6NO+
137.0709	121	C7H9N2O+
