Mass spectrum: Chlorfenvinphos; LC-ESI-QFT; MS2; CE: 60; R=17500; [M+H]+
Name: Chlorfenvinphos
Name: Clofenvinfos
Name: [2-chloro-1-(2,4-dichlorophenyl)ethenyl] diethyl phosphate
Formula: C12H14Cl3O4P
Exact mass: 357.9695
SMILES: CCOP(=O)(OCC)OC(=CCl)C1=C(Cl)C=C(Cl)C=C1
InChI: InChI=1S/C12H14Cl3O4P/c1-3-17-20(16,18-4-2)19-12(8-13)10-6-5-9(14)7-11(10)15/h5-8H,3-4H2,1-2H3
Instrument: Q Exactive Orbitrap (Thermo Scientific)
Instrument type: LC-ESI-QFT
Ms type: MS2
Ion mode: POSITIVE
Ionization: ESI
Fragmentation mode: HCD
Collision energy: 60
Resolution: 17500
Column name: Acquity BEH C18 1.7um, 2.1x150mm (Waters)
Retention time: 18.582 min
Base peak: 79.0212
Precursor m/z: 358.9768
Precursor type: [M+H]+
Precursor intensity: 9118110.375
m/z	relative intensity	assigned
86.9633	1	C3ClO+
98.9842	999	H4O4P+
109.005	4	C2H6O3P+
116.9947	14	CH6ClO4+
122.9997	1	C7H4Cl+
127.0155	28	C2H8O4P+
131.0104	14	C2H8ClO4+
132.984	1	C8H2Cl+
144.9607	1	C6H3Cl2+
155.0466	1	C4H12O4P+
158.9763	2	C7H5Cl2+
168.9607	15	C8H3Cl2+
169.9684	611	C8H4Cl2+
186.9712	2	C8H5Cl2O+
196.9669	6	Cl3H13O3P+
200.9867	3	C8H7ClO2P+
204.9374	87	C8H4Cl3+
