Mass spectrum: 4-[3-(4-Acetyl-3-hydroxy-2-propylphenoxy)propoxy]phenoxy-acetic acid; LC-ESI-QFT; MS2; CE: 75; R=17500; [M-H]-
Name: 4-[3-(4-Acetyl-3-hydroxy-2-propylphenoxy)propoxy]phenoxy-acetic acid
Name: 2-(4-(3-(4-Acetyl-3-hydroxy-2-propylphenoxy)propoxy)phenoxy)acetic acid
Name: 2-[4-[3-(4-acetyl-3-hydroxy-2-propylphenoxy)propoxy]phenoxy]acetic acid
Formula: C22H26O7
Exact mass: 402.1679
SMILES: CCCC1=C(OCCCOC2=CC=C(OCC(O)=O)C=C2)C=CC(C(C)=O)=C1O
InChI: InChI=1S/C22H26O7/c1-3-5-19-20(11-10-18(15(2)23)22(19)26)28-13-4-12-27-16-6-8-17(9-7-16)29-14-21(24)25/h6-11,26H,3-5,12-14H2,1-2H3,(H,24,25)
Instrument: Q Exactive Orbitrap (Thermo Scientific)
Instrument type: LC-ESI-QFT
Ms type: MS2
Ion mode: NEGATIVE
Ionization: ESI
Fragmentation mode: HCD
Collision energy: 75
Resolution: 17500
Column name: Acquity BEH C18 1.7um, 2.1x150mm (Waters)
Retention time: 19.176 min
Base peak: 401.1605
Precursor m/z: 401.1606
Precursor type: [M-H]-
Precursor intensity: 13251250.18018
m/z	relative intensity	assigned
59.0138	1	C2H3O2-
65.0397	2	C5H5-
67.0189	5	C4H3O-
81.0346	5	C5H5O-
83.0138	1	C4H3O2-
83.0502	3	C5H7O-
85.0296	1	C4H5O2-
91.0554	11	C7H7-
93.0346	6	C6H5O-
95.0139	1	C5H3O2-
95.0503	2	C6H7O-
105.0709	2	C8H9-
107.0504	2	C7H7O-
107.0867	22	C8H11-
108.0217	999	C6H4O2-
109.0294	25	C6H5O2-
117.0347	8	C8H5O-
119.0866	3	C9H11-
120.058	2	C8H8O-
121.0295	66	C7H5O2-
122.0374	25	C7H6O2-
123.0089	2	C6H3O3-
123.0451	4	C7H7O2-
130.0425	1	C9H6O-
131.0503	2	C9H7O-
133.0659	47	C9H9O-
135.0452	29	C8H7O2-
136.0165	1	C7H4O3-
136.053	14	C8H8O2-
146.0374	1	C9H6O2-
147.0817	3	C10H11O-
148.0528	1	C9H8O2-
149.0243	1	C8H5O3-
149.0609	4	C9H9O2-
149.0971	26	C10H13O-
151.0764	57	C9H11O2-
159.0452	4	C10H7O2-
161.0244	8	C9H5O3-
161.097	2	C11H13O-
163.0401	268	C9H7O3-
164.0479	28	C9H8O3-
173.061	1	C11H9O2-
175.0401	3	C10H7O3-
175.0765	8	C11H11O2-
176.0478	2	C10H8O3-
177.0557	131	C10H9O3-
187.0758	1	C12H11O2-
189.0556	2	C11H9O3-
191.0715	16	C11H11O3-
193.087	69	C11H13O3-
195.0663	10	C10H11O4-
196.0378	3	C9H8O5-
205.0869	12	C12H13O3-
208.0376	3	C10H8O5-
233.1181	1	C14H17O3-
