Mass spectrum: CP-401387; LC-ESI-QFT; MS2; CE: 30; R=17500; [M+H]+
Name: CP-401387
Name: 4-cyano-4-(1-cyclohexyl-3-ethylindazol-6-yl)cyclohexane-1-carboxylic acid
Formula: C23H29N3O2
Exact mass: 379.2260
SMILES: CCC1=NN(C2CCCCC2)C2=C1C=CC(=C2)[C@]1(CC[C@@H](CC1)C(O)=O)C#N
InChI: InChI=1S/C23H29N3O2/c1-2-20-19-9-8-17(23(15-24)12-10-16(11-13-23)22(27)28)14-21(19)26(25-20)18-6-4-3-5-7-18/h8-9,14,16,18H,2-7,10-13H2,1H3,(H,27,28)/t16-,23-
Instrument: Q Exactive Orbitrap (Thermo Scientific)
Instrument type: LC-ESI-QFT
Ms type: MS2
Ion mode: POSITIVE
Ionization: ESI
Fragmentation mode: HCD
Collision energy: 30
Resolution: 17500
Column name: Acquity BEH C18 1.7um, 2.1x150mm (Waters)
Retention time: 19.050 min
Base peak: 79.0211
Precursor m/z: 380.2333
Precursor type: [M+H]+
Precursor intensity: 3525032.125
m/z	relative intensity	assigned
55.0542	10	C4H7+
83.0855	20	C6H11+
146.0839	2	C9H10N2+
147.0915	21	C9H11N2+
159.0921	3	C10H11N2+
225.1386	66	C15H17N2+
235.122	1	C16H15N2+
252.1494	168	C16H18N3+
253.1333	22	C16H17N2O+
271.144	455	C16H19N2O2+
298.1549	999	C17H20N3O2+
380.2333	861	C23H30N3O2+
