Mass spectrum: 3-Methyl-1-phenyl-1H-pyrazol-5-amine; LC-ESI-QFT; MS2; CE: 30; R=17500; [M+H]+
Name: 3-Methyl-1-phenyl-1H-pyrazol-5-amine
Name: 5-methyl-2-phenylpyrazol-3-amine
Formula: C10H11N3
Exact mass: 173.0953
SMILES: CC1=NN(C(N)=C1)C1=CC=CC=C1
InChI: InChI=1S/C10H11N3/c1-8-7-10(11)13(12-8)9-5-3-2-4-6-9/h2-7H,11H2,1H3
Instrument: Q Exactive Orbitrap (Thermo Scientific)
Instrument type: LC-ESI-QFT
Ms type: MS2
Ion mode: POSITIVE
Ionization: ESI
Fragmentation mode: HCD
Collision energy: 30
Resolution: 17500
Column name: Acquity BEH C18 1.7um, 2.1x150mm (Waters)
Retention time: 9.555 min
Base peak: 79.0211
Precursor m/z: 174.1026
Precursor type: [M+H]+
Precursor intensity: 3452432
m/z	relative intensity	assigned
92.0494	1	C6H6N+
106.0651	23	C7H8N+
116.0493	2	C8H6N+
130.0651	1	C9H8N+
132.0808	4	C9H10N+
133.0759	37	C8H9N2+
134.0712	1	C7H8N3+
157.0761	3	C10H9N2+
174.1025	999	C10H12N3+
