Mass spectrum: PharmaGSID_48511; LC-ESI-QFT; MS2; CE: 30; R=17500; [M-H]-
Name: PharmaGSID_48511
Name: 4-[(9-cyclopentyl-7,7-difluoro-5-methyl-6-oxo-8H-pyrimido[4,5-b][1,4]diazepin-2-yl)amino]-3-methoxy-N-(1-methylpiperidin-4-yl)benzamide
Formula: C27H35F2N7O3
Exact mass: 543.2769
SMILES: COC1=C(NC2=NC3=C(C=N2)N(C)C(=O)C(F)(F)CN3C2CCCC2)C=CC(=C1)C(=O)NC1CCN(C)CC1
InChI: InChI=1S/C27H35F2N7O3/c1-34-12-10-18(11-13-34)31-24(37)17-8-9-20(22(14-17)39-3)32-26-30-15-21-23(33-26)36(19-6-4-5-7-19)16-27(28,29)25(38)35(21)2/h8-9,14-15,18-19H,4-7,10-13,16H2,1-3H3,(H,31,37)(H,30,32,33)
Instrument: Q Exactive Orbitrap (Thermo Scientific)
Instrument type: LC-ESI-QFT
Ms type: MS2
Ion mode: NEGATIVE
Ionization: ESI
Fragmentation mode: HCD
Collision energy: 30
Resolution: 17500
Column name: Acquity BEH C18 1.7um, 2.1x150mm (Waters)
Retention time: 14.779 min
Base peak: 112.9857
Precursor m/z: 542.2697
Precursor type: [M-H]-
Precursor intensity: 1870229.421387
m/z	relative intensity	assigned
217.0968	2	C10H11N5O-
247.1326	4	C13H17N3O2-
280.1139	21	C13H14F2N4O-
365.209	7	C25H27F2-
380.1844	8	C19H22N7O2-
393.1478	2	C20H18FN6O2-
395.1713	17	C19H21N7O3-
410.1947	56	C20H24N7O3-
419.1711	2	C21H21N7O3-
425.1748	7	C26H23N3O3-
470.231	14	C26H28N7O2-
487.2338	9	C26H29N7O3-
506.2324	12	C26H29FN7O3-
507.2402	41	C26H30FN7O3-
522.2633	126	C27H33FN7O3-
526.2407	4	C26H30F2N7O3-
527.246	274	C26H31F2N7O3-
542.2696	999	C27H34F2N7O3-
