Mass spectrum: Amiloride; LC-ESI-QFT; MS2; CE: 30; R=17500; [M+H]+
Name: Amiloride
Name: 3,5-diamino-6-chloro-N-(diaminomethylidene)pyrazine-2-carboxamide
Formula: C6H8ClN7O
Exact mass: 229.0479
SMILES: NC(=N)NC(=O)C1=NC(Cl)=C(N)N=C1N
InChI: InChI=1S/C6H8ClN7O/c7-2-4(9)13-3(8)1(12-2)5(15)14-6(10)11/h(H4,8,9,13)(H4,10,11,14,15)
Instrument: Q Exactive Orbitrap (Thermo Scientific)
Instrument type: LC-ESI-QFT
Ms type: MS2
Ion mode: POSITIVE
Ionization: ESI
Fragmentation mode: HCD
Collision energy: 30
Resolution: 17500
Column name: Acquity BEH C18 1.7um, 2.1x150mm (Waters)
Retention time: 9.322 min
Base peak: 79.0211
Precursor m/z: 230.0552
Precursor type: [M+H]+
Precursor intensity: 16842662.9375
m/z	relative intensity	assigned
60.0556	814	CH6N3+
61.0396	10	CH5N2O+
86.0348	62	C2H4N3O+
100.9904	2	C3H2ClN2+
145.0276	6	C4H6ClN4+
161.0224	13	C4H6ClN4O+
170.0226	3	C5H5ClN5+
171.0067	287	C5H4ClN4O+
188.0335	41	C5H7ClN5O+
189.0173	999	C3H4ClN7O+
196.0019	2	C6H3ClN5O+
203.0329	12	C4H6ClN7O+
213.0285	53	C6H6ClN6O+
230.0551	937	C6H9ClN7O+
