Mass spectrum: Cloquintocet-mexyl; LC-ESI-QFT; MS2; CE: 60; R=17500; [M+H]+
Name: Cloquintocet-mexyl
Name: heptan-2-yl 2-(5-chloroquinolin-8-yl)oxyacetate
Formula: C18H22ClNO3
Exact mass: 335.1288
SMILES: CCCCCC(C)OC(=O)COC1=CC=C(Cl)C2=CC=CN=C12
InChI: InChI=1S/C18H22ClNO3/c1-3-4-5-7-13(2)23-17(21)12-22-16-10-9-15(19)14-8-6-11-20-18(14)16/h6,8-11,13H,3-5,7,12H2,1-2H3
Instrument: Q Exactive Orbitrap (Thermo Scientific)
Instrument type: LC-ESI-QFT
Ms type: MS2
Ion mode: POSITIVE
Ionization: ESI
Fragmentation mode: HCD
Collision energy: 60
Resolution: 17500
Column name: Acquity BEH C18 1.7um, 2.1x150mm (Waters)
Retention time: 19.582 min
Base peak: 79.0211
Precursor m/z: 336.1361
Precursor type: [M+H]+
Precursor intensity: 60739405.39062
m/z	relative intensity	assigned
53.0022	2	C3HO+
57.0699	88	C4H9+
127.0419	1	C9H5N+
128.0493	2	C9H6N+
129.0572	1	C9H7N+
146.06	1	C9H8NO+
151.0184	36	C8H6ClN+
158.0599	1	C10H8NO+
162.0105	15	C9H5ClN+
163.0185	3	C9H6ClN+
164.0261	11	C9H7ClN+
178.0053	2	C9H5ClNO+
179.0132	999	C9H6ClNO+
180.0209	21	C9H7ClNO+
190.0056	1	C10H5ClNO+
191.0133	3	C10H6ClNO+
192.021	995	C10H7ClNO+
194.037	1	C10H9ClNO+
220.0162	4	C11H7ClNO2+
238.0265	31	C11H9ClNO3+
