Mass spectrum: tau-Fluvalinate; LC-ESI-QFT; MS2; CE: 75; R=17500; [M-H]-
Name: tau-Fluvalinate
Name: [cyano-(3-phenoxyphenyl)methyl] (2R)-2-[2-chloro-4-(trifluoromethyl)anilino]-3-methylbutanoate
Formula: C26H22ClF3N2O3
Exact mass: 502.1271
SMILES: CC(C)[C@@H](NC1=C(Cl)C=C(C=C1)C(F)(F)F)C(=O)OC(C#N)C1=CC(OC2=CC=CC=C2)=CC=C1
InChI: InChI=1S/C26H22ClF3N2O3/c1-16(2)24(32-22-12-11-18(14-21(22)27)26(28,29)30)25(33)35-23(15-31)17-7-6-10-20(13-17)34-19-8-4-3-5-9-19/h3-14,16,23-24,32H,1-2H3/t23?,24-/m1/s1
Instrument: Q Exactive Orbitrap (Thermo Scientific)
Instrument type: LC-ESI-QFT
Ms type: MS2
Ion mode: NEGATIVE
Ionization: ESI
Fragmentation mode: HCD
Collision energy: 75
Resolution: 17500
Column name: Acquity BEH C18 1.7um, 2.1x150mm (Waters)
Retention time: 20.377 min
Base peak: 264.8369
Precursor m/z: 501.1198
Precursor type: [M-H]-
Precursor intensity: 476939.3125
m/z	relative intensity	assigned
93.0346	999	C6H5O-
