Mass spectrum: PharmaGSID_47330; LC-ESI-QFT; MS2; CE: 30; R=17500; [M+H]+
Name: PharmaGSID_47330
Name: Unii-gmy695BP6Q
Name: 3-fluoro-2-[2-fluoro-5-[3-(2-hydroxypropan-2-yl)imidazo[1,2-b][1,2,4]triazin-7-yl]phenyl]benzonitrile
Formula: C21H15F2N5O
Exact mass: 391.1245
SMILES: CC(C)(O)C1=NC2=NC=C(N2N=C1)C1=CC(=C(F)C=C1)C1=C(C=CC=C1F)C#N
InChI: InChI=1S/C21H15F2N5O/c1-21(2,29)18-11-26-28-17(10-25-20(28)27-18)12-6-7-15(22)14(8-12)19-13(9-24)4-3-5-16(19)23/h3-8,10-11,29H,1-2H3
Instrument: Q Exactive Orbitrap (Thermo Scientific)
Instrument type: LC-ESI-QFT
Ms type: MS2
Ion mode: POSITIVE
Ionization: ESI
Fragmentation mode: HCD
Collision energy: 30
Resolution: 17500
Column name: Acquity BEH C18 1.7um, 2.1x150mm (Waters)
Retention time: 17.091 min
Base peak: 79.0211
Precursor m/z: 392.1317
Precursor type: [M+H]+
Precursor intensity: 17591947.25
m/z	relative intensity	assigned
59.0492	1	C3H7O+
68.0494	3	C4H6N+
83.0603	1	C4H7N2+
96.0556	4	C4H6N3+
97.0397	2	C4H5N2O+
97.0634	1	C4H7N3+
98.0474	6	C4H6N2O+
109.0634	2	C5H7N3+
223.067	1	C14H8FN2+
239.053	6	C15H7F2N+
241.057	8	C14H7F2N2+
242.0654	1	C14H8F2N2+
243.0728	1	C14H9F2N2+
255.0723	2	C15H9F2N2+
269.0756	2	C15H9F2N3+
281.0747	3	C16H9F2N3+
282.0844	3	C21H11F+
296.0859	7	C16H10F2N4+
298.0787	5	C16H10F2N3O+
301.0887	2	C18H10FN4+
302.096	1	C18H11FN4+
307.079	15	C17H9F2N4+
308.0872	1	C17H10F2N4+
309.0943	2	C17H11F2N4+
321.0949	5	C18H11F2N4+
322.1023	10	C18H12F2N4+
323.1106	14	C18H13F2N4+
333.0953	5	C19H11F2N4+
337.1261	16	C19H15F2N4+
347.1101	3	C20H13F2N4+
348.1058	20	C19H12F2N5+
349.1134	177	C19H13F2N5+
350.1213	132	C19H14F2N5+
351.1059	3	C19H13F2N4O+
365.1209	999	C20H15F2N4O+
377.1084	34	C20H13F2N5O+
392.1318	673	C21H16F2N5O+
