Mass spectrum: 4-Methylumbelliferone; LC-ESI-QFT; MS2; CE: 75; R=17500; [M+H]+
Name: 4-Methylumbelliferone
Name: 7-hydroxy-4-methylchromen-2-one
Formula: C10H8O3
Exact mass: 176.0473
SMILES: CC1=CC(=O)OC2=C1C=CC(O)=C2
InChI: InChI=1S/C10H8O3/c1-6-4-10(12)13-9-5-7(11)2-3-8(6)9/h2-5,11H,1H3
Instrument: Q Exactive Orbitrap (Thermo Scientific)
Instrument type: LC-ESI-QFT
Ms type: MS2
Ion mode: POSITIVE
Ionization: ESI
Fragmentation mode: HCD
Collision energy: 75
Resolution: 17500
Column name: Acquity BEH C18 1.7um, 2.1x150mm (Waters)
Retention time: 14.071 min
Base peak: 79.0211
Precursor m/z: 177.0546
Precursor type: [M+H]+
Precursor intensity: 3184682.09375
m/z	relative intensity	assigned
50.0152	4	C4H2+
51.0229	6	C4H3+
53.0386	140	C4H5+
55.0179	109	C3H3O+
65.0384	16	C5H5+
68.997	437	C3HO2+
77.0385	37	C6H5+
79.0542	534	C6H7+
81.0334	19	C5H5O+
81.0699	174	C6H9+
89.0384	3	C7H5+
91.0542	542	C7H7+
93.0699	539	C7H9+
94.0413	15	C6H6O+
95.0491	436	C6H7O+
102.0465	14	C8H6+
103.0542	999	C8H7+
104.062	4	C8H8+
105.0699	620	C8H9+
106.0411	5	C7H6O+
107.0491	89	C7H7O+
109.0649	8	C7H9O+
115.0542	131	C9H7+
116.0621	6	C9H8+
118.0413	6	C8H6O+
119.0495	4	C8H7O+
121.0648	911	C8H9O+
131.0491	61	C9H7O+
132.0569	25	C9H8O+
133.0648	33	C9H9O+
134.0361	21	C8H6O2+
135.0441	7	C8H7O2+
137.0233	11	C7H5O3+
147.0436	4	C9H7O2+
149.0596	32	C9H9O2+
177.0546	354	C10H9O3+
