Mass spectrum: Penconazole; LC-ESI-QFT; MS2; CE: 90; R=17500; [M+H]+
Name: Penconazole
Name: 1-[2-(2,4-dichlorophenyl)pentyl]-1,2,4-triazole
Formula: C13H15Cl2N3
Exact mass: 283.0643
SMILES: CCCC(CN1C=NC=N1)C1=C(Cl)C=C(Cl)C=C1
InChI: InChI=1S/C13H15Cl2N3/c1-2-3-10(7-18-9-16-8-17-18)12-5-4-11(14)6-13(12)15/h4-6,8-10H,2-3,7H2,1H3
Instrument: Q Exactive Orbitrap (Thermo Scientific)
Instrument type: LC-ESI-QFT
Ms type: MS2
Ion mode: POSITIVE
Ionization: ESI
Fragmentation mode: HCD
Collision energy: 90
Resolution: 17500
Column name: Acquity BEH C18 1.7um, 2.1x150mm (Waters)
Retention time: 18.602 min
Base peak: 79.0212
Precursor m/z: 284.0716
Precursor type: [M+H]+
Precursor intensity: 112326890.5938
m/z	relative intensity	assigned
53.0023	41	ClH4N+
55.0543	20	C4H7+
56.0496	2	C3H6N+
57.0699	216	C4H9+
58.0652	180	C3H8N+
59.073	9	C3H9N+
60.0808	999	C3H10N+
69.0699	3	C5H9+
70.04	601	C2H4N3+
71.0855	16	C5H11+
72.984	3	C3H2Cl+
75.0229	1	C6H3+
77.0387	1	C6H5+
85.101	1	C6H13+
89.0386	32	C7H5+
91.0543	4	C7H7+
98.9996	28	C5H4Cl+
101.0386	1	C8H5+
102.0464	33	C8H6+
114.1277	1	C7H16N+
119.0492	7	C5H10ClN+
122.9997	133	C7H4Cl+
124.0075	43	C7H5Cl+
129.0448	12	C8H5N2+
132.9607	17	C5H3Cl2+
137.0153	16	C8H6Cl+
138.0232	3	C8H7Cl+
158.9764	484	C7H5Cl2+
172.9923	2	C8H7Cl2+
