Mass spectrum: Nelivaptan; LC-ESI-QFT; MS2; CE: 90; R=17500; [M+H]+
Name: Nelivaptan
Name: (2S,4R)-1-[(3R)-5-chloro-1-(2,4-dimethoxyphenyl)sulfonyl-3-(2-methoxyphenyl)-2-oxoindol-3-yl]-4-hydroxy-N,N-dimethylpyrrolidine-2-carboxamide
Formula: C30H32ClN3O8S
Exact mass: 629.1599
SMILES: COC1=CC(OC)=C(C=C1)S(=O)(=O)N1C(=O)[C@@](N2C[C@H](O)C[C@H]2C(=O)N(C)C)(C2=CC(Cl)=CC=C12)C1=CC=CC=C1OC
InChI: InChI=1S/C30H32ClN3O8S/c1-32(2)28(36)24-15-19(35)17-33(24)30(21-8-6-7-9-25(21)41-4)22-14-18(31)10-12-23(22)34(29(30)37)43(38,39)27-13-11-20(40-3)16-26(27)42-5/h6-14,16,19,24,35H,15,17H2,1-5H3/t19-,24+,30+/m1/s1
Instrument: Q Exactive Orbitrap (Thermo Scientific)
Instrument type: LC-ESI-QFT
Ms type: MS2
Ion mode: POSITIVE
Ionization: ESI
Fragmentation mode: HCD
Collision energy: 90
Resolution: 17500
Column name: Acquity BEH C18 1.7um, 2.1x150mm (Waters)
Retention time: 18.171 min
Base peak: 79.0211
Precursor m/z: 630.1671
Precursor type: [M+H]+
Precursor intensity: 7986133.625
m/z	relative intensity	assigned
50.0152	5	C4H2+
51.0228	8	C4H3+
52.0308	2	C4H4+
53.0386	303	C4H5+
54.0464	15	C4H6+
55.0178	64	C3H3O+
55.0543	4	C4H7+
62.0151	2	C5H2+
63.0229	49	C5H3+
64.0307	34	C5H4+
65.0385	403	C5H5+
66.0464	73	C5H6+
67.0542	74	C5H7+
68.0257	9	C4H4O+
68.9971	110	C3HO2+
69.0335	14	C4H5O+
72.0445	2	C3H6NO+
77.0385	130	C6H5+
78.0465	8	C6H6+
79.0178	439	C5H3O+
79.0542	162	C6H7+
81.0335	51	C5H5O+
81.0699	17	C6H9+
82.0413	99	C5H6O+
83.0127	18	C4H3O2+
83.0492	5	C5H7O+
84.0445	7	C4H6NO+
91.0542	23	C7H7+
92.0257	860	C6H4O+
93.0335	130	C6H5O+
94.0413	221	C6H6O+
95.0491	999	C6H7O+
97.0648	29	C6H9O+
98.0362	7	C5H6O2+
105.0448	342	C6H5N2+
106.0417	4	C4H9ClN+
107.0128	664	C6H3O2+
108.0206	16	C6H4O2+
109.0285	32	C6H5O2+
109.0648	31	C7H9O+
110.0362	445	C6H6O2+
111.0441	139	C6H7O2+
121.0284	13	C7H5O2+
121.0397	16	C6H5N2O+
121.065	4	C8H9O+
122.0362	729	C7H6O2+
123.0443	10	C7H7O2+
124.0519	11	C7H8O2+
125.0597	789	C7H9O2+
135.0552	42	C7H7N2O+
139.0389	10	C7H7O3+
141.0545	1	C7H9O3+
153.0546	39	C8H9O3+
180.0809	6	C13H10N+
214.042	2	C13H9ClN+
