Mass spectrum: N-(4-Methoxyphenyl)-3-oxobutanamide; LC-ESI-QFT; MS2; CE: 90; R=17500; [M-H]-
Name: N-(4-Methoxyphenyl)-3-oxobutanamide
Name: 4'-Methoxyacetoacetanilide
Formula: C11H13NO3
Exact mass: 207.0895
SMILES: COC1=CC=C(NC(=O)CC(C)=O)C=C1
InChI: InChI=1S/C11H13NO3/c1-8(13)7-11(14)12-9-3-5-10(15-2)6-4-9/h3-6H,7H2,1-2H3,(H,12,14)
Instrument: Q Exactive Orbitrap (Thermo Scientific)
Instrument type: LC-ESI-QFT
Ms type: MS2
Ion mode: NEGATIVE
Ionization: ESI
Fragmentation mode: HCD
Collision energy: 90
Resolution: 17500
Column name: Acquity BEH C18 1.7um, 2.1x150mm (Waters)
Retention time: 12.962 min
Base peak: 207.0121
Precursor m/z: 206.0823
Precursor type: [M-H]-
Precursor intensity: 18976442.55664
m/z	relative intensity	assigned
57.0346	23	C3H5O-
83.0139	270	C4H3O2-
107.0377	526	C6H5NO-
115.0553	93	C9H7-
143.0502	999	C10H7O-
