Mass spectrum: Simazine; LC-ESI-QFT; MS2; CE: 30; R=17500; [M+H]+
Name: Simazine
Name: 6-chloro-2-N,4-N-diethyl-1,3,5-triazine-2,4-diamine
Formula: C7H12ClN5
Exact mass: 201.0781
SMILES: CCNC1=NC(NCC)=NC(Cl)=N1
InChI: InChI=1S/C7H12ClN5/c1-3-9-6-11-5(8)12-7(13-6)10-4-2/h3-4H2,1-2H3,(H2,9,10,11,12,13)
Instrument: Q Exactive Orbitrap (Thermo Scientific)
Instrument type: LC-ESI-QFT
Ms type: MS2
Ion mode: POSITIVE
Ionization: ESI
Fragmentation mode: HCD
Collision energy: 30
Resolution: 17500
Column name: Acquity BEH C18 1.7um, 2.1x150mm (Waters)
Retention time: 15.238 min
Base peak: 79.0211
Precursor m/z: 202.0854
Precursor type: [M+H]+
Precursor intensity: 9023093.75
m/z	relative intensity	assigned
68.0244	1	C2H2N3+
71.0603	5	C3H7N2+
96.0556	8	C4H6N3+
104.0009	4	C2H3ClN3+
124.087	94	C6H10N3+
132.0323	75	C4H7ClN3+
138.0774	1	C5H8N5+
166.1087	13	C7H12N5+
174.0541	24	C5H9ClN5+
202.0853	999	C7H13ClN5+
