Mass spectrum: Finasteride; LC-ESI-QFT; MS2; CE: 30; R=17500; [M+H]+
Name: Finasteride
Name: (1S,3aS,3bS,5aR,9aR,9bS,11aS)-N-tert-butyl-9a,11a-dimethyl-7-oxo-1,2,3,3a,3b,4,5,5a,6,9b,10,11-dodecahydroindeno[5,4-f]quinoline-1-carboxamide
Formula: C23H36N2O2
Exact mass: 372.2777
SMILES: CC(C)(C)NC(=O)[C@H]1CC[C@H]2[C@@H]3CC[C@H]4NC(=O)C=C[C@]4(C)[C@H]3CC[C@]12C
InChI: InChI=1S/C23H36N2O2/c1-21(2,3)25-20(27)17-8-7-15-14-6-9-18-23(5,13-11-19(26)24-18)16(14)10-12-22(15,17)4/h11,13-18H,6-10,12H2,1-5H3,(H,24,26)(H,25,27)/t14-,15-,16-,17+,18+,22-,23+/m0/s1
Instrument: Q Exactive Orbitrap (Thermo Scientific)
Instrument type: LC-ESI-QFT
Ms type: MS2
Ion mode: POSITIVE
Ionization: ESI
Fragmentation mode: HCD
Collision energy: 30
Resolution: 17500
Column name: Acquity BEH C18 1.7um, 2.1x150mm (Waters)
Retention time: 17.671 min
Base peak: 79.0212
Precursor m/z: 373.285
Precursor type: [M+H]+
Precursor intensity: 18565249
m/z	relative intensity	assigned
57.0699	2	C4H9+
69.0335	1	C4H5O+
72.0806	1	C4H10N+
95.0855	1	C7H11+
121.1011	1	C9H13+
175.1483	1	C13H19+
177.1635	1	C13H21+
189.1632	1	C14H21+
220.1696	1	C14H22NO+
255.1747	1	C18H23O+
274.2168	1	C18H28NO+
305.2587	36	C19H33N2O+
317.2221	8	C19H29N2O2+
373.2848	999	C23H37N2O2+
