Mass spectrum: 4-Aminobenzamide; LC-ESI-QFT; MS2; CE: 60; R=17500; [M+H]+
Name: 4-Aminobenzamide
Formula: C7H8N2O
Exact mass: 136.0637
SMILES: NC(=O)C1=CC=C(N)C=C1
InChI: InChI=1S/C7H8N2O/c8-6-3-1-5(2-4-6)7(9)10/h1-4H,8H2,(H2,9,10)
Instrument: Q Exactive Orbitrap (Thermo Scientific)
Instrument type: LC-ESI-QFT
Ms type: MS2
Ion mode: POSITIVE
Ionization: ESI
Fragmentation mode: HCD
Collision energy: 60
Resolution: 17500
Column name: Acquity BEH C18 1.7um, 2.1x150mm (Waters)
Retention time: 2.658 min
Base peak: 79.0211
Precursor m/z: 137.0709
Precursor type: [M+H]+
Precursor intensity: 5814182
m/z	relative intensity	assigned
53.0022	1	C3HO+
53.0386	5	C4H5+
54.0338	1	C3H4N+
65.0386	31	C5H5+
68.0495	18	C4H6N+
69.0336	1	C4H5O+
77.0385	1	C6H5+
78.0338	1	C5H4N+
79.0178	2	C5H3O+
86.0036	34	C6N+
92.0495	117	C6H6N+
93.0574	2	C6H7N+
94.0651	245	C6H8N+
95.0491	18	C6H7O+
96.0443	2	C5H6NO+
105.0447	6	C6H5N2+
108.0444	3	C6H6NO+
110.0601	48	C6H8NO+
119.0602	2	C7H7N2+
120.0444	999	C7H6NO+
137.071	25	C7H9N2O+
