Mass spectrum: 2-Ethylhexyl 4-(dimethylamino)benzoate; LC-ESI-QFT; MS2; CE: 75; R=17500; [M+H]+
Name: 2-Ethylhexyl 4-(dimethylamino)benzoate
Formula: C17H27NO2
Exact mass: 277.2042
SMILES: CCCCC(CC)COC(=O)C1=CC=C(C=C1)N(C)C
InChI: InChI=1S/C17H27NO2/c1-5-7-8-14(6-2)13-20-17(19)15-9-11-16(12-10-15)18(3)4/h9-12,14H,5-8,13H2,1-4H3
Instrument: Q Exactive Orbitrap (Thermo Scientific)
Instrument type: LC-ESI-QFT
Ms type: MS2
Ion mode: POSITIVE
Ionization: ESI
Fragmentation mode: HCD
Collision energy: 75
Resolution: 17500
Column name: Acquity BEH C18 1.7um, 2.1x150mm (Waters)
Retention time: 20.789 min
Base peak: 79.0211
Precursor m/z: 278.2115
Precursor type: [M+H]+
Precursor intensity: 49804798.98438
m/z	relative intensity	assigned
55.0542	1	C4H7+
57.0698	1	C4H9+
65.0386	1	C5H5+
79.0541	2	C6H7+
106.0651	23	C7H8N+
107.0729	33	C7H9N+
120.0807	3	C8H10N+
121.0886	4	C8H11N+
122.0964	5	C8H12N+
123.0678	1	C7H9NO+
134.06	174	C8H8NO+
150.0551	234	C8H8NO2+
151.0627	999	C8H9NO2+
166.0862	74	C9H12NO2+
