Mass spectrum: AM580; LC-ESI-QFT; MS2; CE: 45; R=17500; [M-H]-
Name: AM580
Name: 4-{[(5,5,8,8-Tetramethyl-5,6,7,8-tetrahydronaphthalen-2-yl)carbonyl]amino}benzoic acid
Name: 4-[(5,5,8,8-tetramethyl-6,7-dihydronaphthalene-2-carbonyl)amino]benzoic acid
Formula: C22H25NO3
Exact mass: 351.1834
SMILES: CC1(C)CCC(C)(C)C2=C1C=CC(=C2)C(=O)NC1=CC=C(C=C1)C(O)=O
InChI: InChI=1S/C22H25NO3/c1-21(2)11-12-22(3,4)18-13-15(7-10-17(18)21)19(24)23-16-8-5-14(6-9-16)20(25)26/h5-10,13H,11-12H2,1-4H3,(H,23,24)(H,25,26)
Instrument: Q Exactive Orbitrap (Thermo Scientific)
Instrument type: LC-ESI-QFT
Ms type: MS2
Ion mode: NEGATIVE
Ionization: ESI
Fragmentation mode: HCD
Collision energy: 45
Resolution: 17500
Column name: Acquity BEH C18 1.7um, 2.1x150mm (Waters)
Retention time: 19.353 min
Base peak: 350.1762
Precursor m/z: 350.1762
Precursor type: [M-H]-
Precursor intensity: 17658771.95703
m/z	relative intensity	assigned
75.0239	1	C6H3-
92.0506	50	C6H6N-
93.0345	3	C6H5O-
118.0298	62	C7H4NO-
119.0137	10	C7H3O2-
137.0245	5	C7H5O3-
162.0197	30	C8H4NO3-
231.1386	1	C15H19O2-
236.1079	7	C16H14NO-
237.116	2	C16H15NO-
238.1238	8	C16H16NO-
248.1078	1	C17H14NO-
249.1147	1	C17H15NO-
263.1315	1	C18H17NO-
269.1059	7	C16H15NO3-
276.1393	28	C19H18NO-
278.0825	1	C17H12NO3-
278.1916	10	C20H24N-
281.1056	1	C17H15NO3-
290.1551	55	C20H20NO-
291.1629	19	C20H21NO-
292.0977	5	C18H14NO3-
293.1052	1	C18H15NO3-
295.1207	1	C18H17NO3-
304.1701	4	C21H22NO-
306.1863	999	C21H24NO-
307.1211	2	C19H17NO3-
320.1291	54	C20H18NO3-
323.1526	23	C20H21NO3-
334.1448	76	C21H20NO3-
335.1526	19	C21H21NO3-
350.1761	870	C22H24NO3-
