Mass spectrum: HC Red 3; LC-ESI-QFT; MS2; CE: 75; R=17500; [M+H]+
Name: HC Red 3
Name: 2-((4-Amino-2-nitrophenyl)amino)ethanol
Name: 2-(4-amino-2-nitroanilino)ethanol
Formula: C8H11N3O3
Exact mass: 197.0800
SMILES: NC1=CC(=C(NCCO)C=C1)[N+]([O-])=O
InChI: InChI=1S/C8H11N3O3/c9-6-1-2-7(10-3-4-12)8(5-6)11(13)14/h1-2,5,10,12H,3-4,9H2
Instrument: Q Exactive Orbitrap (Thermo Scientific)
Instrument type: LC-ESI-QFT
Ms type: MS2
Ion mode: POSITIVE
Ionization: ESI
Fragmentation mode: HCD
Collision energy: 75
Resolution: 17500
Column name: Acquity BEH C18 1.7um, 2.1x150mm (Waters)
Retention time: 3.132 min
Base peak: 79.0211
Precursor m/z: 198.0873
Precursor type: [M+H]+
Precursor intensity: 2565802.8125
m/z	relative intensity	assigned
52.0181	1	C3H2N+
53.0023	4	C3HO+
53.0386	5	C4H5+
54.0339	14	C3H4N+
55.018	1	C3H3O+
55.0543	5	C4H7+
57.0699	15	C4H9+
63.023	2	C5H3+
64.0182	7	C4H2N+
65.0386	7	C5H5+
66.0338	7	C4H4N+
66.0464	4	C5H6+
67.0178	4	C4H3O+
67.0416	6	C4H5N+
68.0494	5	C4H6N+
69.0334	10	C4H5O+
69.0699	2	C5H9+
71.0856	2	C5H11+
78.0338	9	C5H4N+
79.0291	5	C4H3N2+
79.0416	6	C5H5N+
80.0495	36	C5H6N+
81.0448	18	C4H5N2+
81.0572	6	C5H7N+
82.0287	10	C4H4NO+
82.0526	4	C4H6N2+
86.0601	82	C4H8NO+
89.0386	2	C7H5+
90.0339	4	C6H4N+
90.0466	11	C7H6+
91.0291	48	C5H3N2+
91.0416	9	C6H5N+
91.0542	2	C7H7+
92.0369	28	C5H4N2+
92.0495	13	C6H6N+
93.0447	11	C5H5N2+
93.0573	29	C6H7N+
94.0525	22	C5H6N2+
94.0652	13	C6H8N+
95.0604	152	C5H7N2+
96.0444	2	C5H6NO+
97.0522	2	C5H7NO+
104.0497	6	C7H6N+
105.0335	6	C7H5O+
105.0447	33	C6H5N2+
105.0573	5	C7H7N+
106.0526	52	C6H6N2+
106.0651	24	C7H8N+
107.0604	167	C6H7N2+
108.0682	121	C6H8N2+
109.0397	3	C5H5N2O+
109.0522	2	C6H7NO+
109.076	3	C6H9N2+
110.0601	5	C6H8NO+
117.0447	7	C7H5N2+
117.0575	9	C8H7N+
118.0401	18	C6H4N3+
118.0526	7	C7H6N2+
118.0652	8	C8H8N+
119.0478	135	C6H5N3+
119.0604	18	C7H7N2+
120.0445	11	C7H6NO+
120.0553	11	C6H6N3+
120.068	4	C7H8N2+
121.0397	6	C6H5N2O+
121.076	34	C7H9N2+
122.0711	10	C6H8N3+
131.0605	8	C8H7N2+
132.0557	25	C7H6N3+
132.0683	5	C8H8N2+
133.0635	999	C7H7N3+
134.0713	89	C7H8N3+
135.0915	8	C8H11N2+
136.0506	22	C6H6N3O+
137.0474	7	C7H7NO2+
137.0709	35	C7H9N2O+
144.0559	10	C8H6N3+
145.0635	17	C8H7N3+
146.0712	12	C8H8N3+
150.0665	5	C7H8N3O+
153.0533	22	C6H7N3O2+
162.0662	20	C8H8N3O+
163.0739	2	C8H9N3O+
198.0891	2	C8H12N3O3+
