Mass spectrum: CP-114271; LC-ESI-QFT; MS2; CE: 15; R=17500; [M-H]-
Name: CP-114271
Name: 2-[4-[2-[[2-hydroxy-2-[2-(trifluoromethyl)-1,3-thiazol-4-yl]ethyl]amino]propyl]phenoxy]acetic acid
Formula: C17H19F3N2O4S
Exact mass: 404.1018
SMILES: CC(CC1=CC=C(OCC(O)=O)C=C1)NCC(O)C1=CSC(=N1)C(F)(F)F
InChI: InChI=1S/C17H19F3N2O4S/c1-10(6-11-2-4-12(5-3-11)26-8-15(24)25)21-7-14(23)13-9-27-16(22-13)17(18,19)20/h2-5,9-10,14,21,23H,6-8H2,1H3,(H,24,25)
Instrument: Q Exactive Orbitrap (Thermo Scientific)
Instrument type: LC-ESI-QFT
Ms type: MS2
Ion mode: NEGATIVE
Ionization: ESI
Fragmentation mode: HCD
Collision energy: 15
Resolution: 17500
Column name: Acquity BEH C18 1.7um, 2.1x150mm (Waters)
Retention time: 13.754 min
Base peak: 403.0945
Precursor m/z: 403.0945
Precursor type: [M-H]-
Precursor intensity: 10041812.72705
m/z	relative intensity	assigned
151.9783	20	C4HF3NS-
192.1029	15	C11H14NO2-
206.1185	7	C12H16NO2-
345.0889	202	C15H16F3N2O2S-
403.0944	999	C17H18F3N2O4S-
