Mass spectrum: Terbutryn; LC-ESI-QFT; MS2; CE: 45; R=17500; [M+H]+
Name: Terbutryn
Name: 2-N-tert-butyl-4-N-ethyl-6-methylsulfanyl-1,3,5-triazine-2,4-diamine
Formula: C10H19N5S
Exact mass: 241.1361
SMILES: CCNC1=NC(SC)=NC(NC(C)(C)C)=N1
InChI: InChI=1S/C10H19N5S/c1-6-11-7-12-8(15-10(2,3)4)14-9(13-7)16-5/h6H2,1-5H3,(H2,11,12,13,14,15)
Instrument: Q Exactive Orbitrap (Thermo Scientific)
Instrument type: LC-ESI-QFT
Ms type: MS2
Ion mode: POSITIVE
Ionization: ESI
Fragmentation mode: HCD
Collision energy: 45
Resolution: 17500
Column name: Acquity BEH C18 1.7um, 2.1x150mm (Waters)
Retention time: 16.520 min
Base peak: 79.0212
Precursor m/z: 242.1434
Precursor type: [M+H]+
Precursor intensity: 65188748.03125
m/z	relative intensity	assigned
57.0699	9	C4H9+
68.0242	4	C2H2N3+
71.0603	32	C3H7N2+
74.0058	3	C2H4NS+
85.0509	3	C2H5N4+
91.0324	80	C2H7N2S+
96.0556	27	C4H6N3+
102.0372	3	C4H8NS+
110.0458	1	C3H4N5+
113.0822	8	C4H9N4+
116.0277	12	C3H6N3S+
138.0774	28	C5H8N5+
144.059	19	C5H10N3S+
158.0495	35	C4H8N5S+
171.057	2	C5H9N5S+
186.0808	999	C6H12N5S+
242.1434	43	C10H20N5S+
