Mass spectrum: Salicylamide; LC-ESI-QFT; MS2; CE: 60; R=17500; [M-H]-
Name: Salicylamide
Name: 2-hydroxybenzamide
Formula: C7H7NO2
Exact mass: 137.0477
SMILES: NC(=O)C1=CC=CC=C1O
InChI: InChI=1S/C7H7NO2/c8-7(10)5-3-1-2-4-6(5)9/h1-4,9H,(H2,8,10)
Instrument: Q Exactive Orbitrap (Thermo Scientific)
Instrument type: LC-ESI-QFT
Ms type: MS2
Ion mode: NEGATIVE
Ionization: ESI
Fragmentation mode: HCD
Collision energy: 60
Resolution: 17500
Column name: Acquity BEH C18 1.7um, 2.1x150mm (Waters)
Retention time: 12.125 min
Base peak: 112.9857
Precursor m/z: 136.0404
Precursor type: [M-H]-
Precursor intensity: 2166816.319336
m/z	relative intensity	assigned
65.0034	8	C4HO-
65.0397	18	C5H5-
90.035	29	C6H4N-
91.0189	505	C6H3O-
92.0506	30	C6H6N-
93.0346	999	C6H5O-
116.0144	17	C7H2NO-
118.0299	800	C7H4NO-
136.0404	204	C7H6NO2-
