Mass spectrum: Bensulide; LC-ESI-QFT; MS2; CE: 45; R=17500; [M+H]+
Name: Bensulide
Name: N-[2-di(propan-2-yloxy)phosphinothioylsulfanylethyl]benzenesulfonamide
Formula: C14H24NO4PS3
Exact mass: 397.0605
SMILES: CC(C)OP(=S)(OC(C)C)SCCNS(=O)(=O)C1=CC=CC=C1
InChI: InChI=1S/C14H24NO4PS3/c1-12(2)18-20(21,19-13(3)4)22-11-10-15-23(16,17)14-8-6-5-7-9-14/h5-9,12-13,15H,10-11H2,1-4H3
Instrument: Q Exactive Orbitrap (Thermo Scientific)
Instrument type: LC-ESI-QFT
Ms type: MS2
Ion mode: POSITIVE
Ionization: ESI
Fragmentation mode: HCD
Collision energy: 45
Resolution: 17500
Column name: Acquity BEH C18 1.7um, 2.1x150mm (Waters)
Retention time: 18.236 min
Base peak: 79.0212
Precursor m/z: 398.0678
Precursor type: [M+H]+
Precursor intensity: 4273930.53125
m/z	relative intensity	assigned
61.0107	416	C2H5S+
128.9229	117	H2O2PS2+
141.0005	999	C6H5O2S+
158.0271	780	C6H8NO2S+
200.0201	172	C8H10NOS2+
