Mass spectrum: Atrazine; LC-ESI-QFT; MS2; CE: 45; R=17500; [M+H]+
Name: Atrazine
Name: 6-chloro-4-N-ethyl-2-N-propan-2-yl-1,3,5-triazine-2,4-diamine
Formula: C8H14ClN5
Exact mass: 215.0938
SMILES: CCNC1=NC(NC(C)C)=NC(Cl)=N1
InChI: InChI=1S/C8H14ClN5/c1-4-10-7-12-6(9)13-8(14-7)11-5(2)3/h5H,4H2,1-3H3,(H2,10,11,12,13,14)
Instrument: Q Exactive Orbitrap (Thermo Scientific)
Instrument type: LC-ESI-QFT
Ms type: MS2
Ion mode: POSITIVE
Ionization: ESI
Fragmentation mode: HCD
Collision energy: 45
Resolution: 17500
Column name: Acquity BEH C18 1.7um, 2.1x150mm (Waters)
Retention time: 16.364 min
Base peak: 79.0211
Precursor m/z: 216.101
Precursor type: [M+H]+
Precursor intensity: 10892528.5
m/z	relative intensity	assigned
53.0022	1	ClH4N+
61.9793	1	CHClN+
68.0243	21	C2H2N3+
71.0603	22	C3H7N2+
79.0057	116	CH4ClN2+
85.076	3	C4H9N2+
90.0105	2	C3H5ClN+
96.0556	173	C4H6N3+
104.0009	106	C2H3ClN3+
110.046	7	C3H4N5+
121.0527	1	C4H10ClN2+
132.0323	121	C4H7ClN3+
138.0774	31	C5H8N5+
138.1025	27	C7H12N3+
146.0227	84	C3H5ClN5+
146.0479	21	C5H9ClN3+
174.054	999	C5H9ClN5+
180.1244	4	C8H14N5+
188.0696	5	C6H11ClN5+
216.101	324	C8H15ClN5+
