Mass spectrum: Nordihydroguaiaretic acid; LC-ESI-QFT; MS2; CE: 75; R=17500; [M-H]-
Name: Nordihydroguaiaretic acid
Name: 4-[4-(3,4-dihydroxyphenyl)-2,3-dimethylbutyl]benzene-1,2-diol
Formula: C18H22O4
Exact mass: 302.1518
SMILES: CC(CC1=CC(O)=C(O)C=C1)C(C)CC1=CC=C(O)C(O)=C1
InChI: InChI=1S/C18H22O4/c1-11(7-13-3-5-15(19)17(21)9-13)12(2)8-14-4-6-16(20)18(22)10-14/h3-6,9-12,19-22H,7-8H2,1-2H3
Instrument: Q Exactive Orbitrap (Thermo Scientific)
Instrument type: LC-ESI-QFT
Ms type: MS2
Ion mode: NEGATIVE
Ionization: ESI
Fragmentation mode: HCD
Collision energy: 75
Resolution: 17500
Column name: Acquity BEH C18 1.7um, 2.1x150mm (Waters)
Retention time: 17.121 min
Base peak: 141.0113
Precursor m/z: 301.1445
Precursor type: [M-H]-
Precursor intensity: 3071705.038086
m/z	relative intensity	assigned
93.0346	25	C6H5O-
95.0503	55	C6H7O-
108.0218	607	C6H4O2-
109.0295	623	C6H5O2-
121.0295	27	C7H5O2-
122.0374	999	C7H6O2-
123.0452	243	C7H7O2-
124.0166	135	C6H4O3-
135.0452	302	C8H7O2-
136.0165	39	C7H4O3-
137.0245	228	C7H5O3-
149.0607	187	C9H9O2-
154.0272	442	C7H6O4-
