Mass spectrum: 2-Norbornene-5,6-dicarboxylic anhydride; LC-ESI-QFT; MS2; CE: 60; R=17500; [M+H]+
Name: 2-Norbornene-5,6-dicarboxylic anhydride
Name: 5-Norbornene-2,3-dicarboxylic anhydride
Name: 4-oxatricyclo[5.2.1.02,6]dec-8-ene-3,5-dione
Formula: C9H8O3
Exact mass: 164.0473
SMILES: O=C1OC(=O)C2C3CC(C=C3)C12
InChI: InChI=1S/C9H8O3/c10-8-6-4-1-2-5(3-4)7(6)9(11)12-8/h1-2,4-7H,3H2
Instrument: Q Exactive Orbitrap (Thermo Scientific)
Instrument type: LC-ESI-QFT
Ms type: MS2
Ion mode: POSITIVE
Ionization: ESI
Fragmentation mode: HCD
Collision energy: 60
Resolution: 17500
Column name: Acquity BEH C18 1.7um, 2.1x150mm (Waters)
Retention time: 17.413 min
Base peak: 79.0212
Precursor m/z: 165.0546
Precursor type: [M+H]+
Precursor intensity: 3441874.75
m/z	relative intensity	assigned
50.0152	2	C4H2+
53.0386	36	C4H5+
55.0179	4	C3H3O+
65.0386	9	C5H5+
66.0465	5	C5H6+
67.0542	4	C5H7+
68.9972	1	C3HO2+
75.0229	14	C6H3+
77.0386	33	C6H5+
79.0543	97	C6H7+
81.0336	11	C5H5O+
81.0699	9	C6H9+
82.0414	3	C5H6O+
91.0543	5	C7H7+
92.0257	45	C6H4O+
94.0414	22	C6H6O+
95.0492	123	C6H7O+
105.0336	24	C7H5O+
107.0128	407	C6H3O2+
107.0492	44	C7H7O+
109.0649	35	C7H9O+
120.0207	25	C7H4O2+
121.0287	11	C7H5O2+
122.0363	999	C7H6O2+
123.0442	4	C7H7O2+
125.0233	26	C6H5O3+
125.0597	29	C7H9O2+
135.0441	74	C8H7O2+
137.0597	6	C8H9O2+
138.0313	5	C7H6O3+
139.0389	9	C7H7O3+
150.0312	521	C8H6O3+
165.0547	576	C9H9O3+
