Mass spectrum: Tolclofos-methyl; LC-ESI-QFT; MS2; CE: 90; R=17500; [M+H]+
Name: Tolclofos-methyl
Name: (2,6-dichloro-4-methylphenoxy)-dimethoxy-sulfanylidene-lambda5-phosphane
Formula: C9H11Cl2O3PS
Exact mass: 299.9544
SMILES: COP(=S)(OC)OC1=C(Cl)C=C(C)C=C1Cl
InChI: InChI=1S/C9H11Cl2O3PS/c1-6-4-7(10)9(8(11)5-6)14-15(16,12-2)13-3/h4-5H,1-3H3
Instrument: Q Exactive Orbitrap (Thermo Scientific)
Instrument type: LC-ESI-QFT
Ms type: MS2
Ion mode: POSITIVE
Ionization: ESI
Fragmentation mode: HCD
Collision energy: 90
Resolution: 17500
Column name: Acquity BEH C18 1.7um, 2.1x150mm (Waters)
Retention time: 17.784 min
Base peak: 79.0211
Precursor m/z: 300.9616
Precursor type: [M+H]+
Precursor intensity: 2317917.375
m/z	relative intensity	assigned
51.023	28	C4H3+
53.0387	28	C4H5+
62.0185	15	C2H6S+
65.0386	148	C5H5+
75.0229	59	C6H3+
76.961	48	CH2PS+
77.0386	32	C6H5+
78.9943	321	CH4O2P+
79.0543	28	C6H7+
86.9997	47	C4H4Cl+
91.0543	69	C7H7+
93.0101	36	C3H6ClO+
93.0336	62	C6H5O+
95.0492	67	C6H7O+
96.9605	767	CH3ClOP+
107.0494	14	C7H7O+
108.0572	30	C7H8O+
110.9998	46	C6H4Cl+
112.0074	241	C6H5Cl+
117.07	18	C9H9+
128.0024	30	C6H5ClO+
139.0059	216	C4H9ClOP+
141.0106	15	C7H6ClO+
142.9924	60	C2H8O3PS+
146.9765	53	C6H5Cl2+
158.9763	19	C7H5Cl2+
159.9795	16	Cl2H11O3P+
174.9714	34	C7H5Cl2O+
186.9714	24	C8H5Cl2O+
202.966	999	C8H5Cl2O2+
216.9817	12	C9H7Cl2O2+
236.9272	163	C7H4Cl2O3P+
237.9354	27	C7H5Cl2O3P+
