Mass spectrum: 3-Hydroxy-N-(3-nitrophenyl)naphthalene-2-carboxamide; LC-ESI-QFT; MS2; CE: 90; R=17500; [M-H]-
Name: 3-Hydroxy-N-(3-nitrophenyl)naphthalene-2-carboxamide
Name: 3-Hydroxy-3'-nitro-2-naphthanilide
Formula: C17H12N2O4
Exact mass: 308.0797
SMILES: OC1=CC2=C(C=CC=C2)C=C1C(=O)NC1=CC=CC(=C1)[N+]([O-])=O
InChI: InChI=1S/C17H12N2O4/c20-16-9-12-5-2-1-4-11(12)8-15(16)17(21)18-13-6-3-7-14(10-13)19(22)23/h1-10,20H,(H,18,21)
Instrument: Q Exactive Orbitrap (Thermo Scientific)
Instrument type: LC-ESI-QFT
Ms type: MS2
Ion mode: NEGATIVE
Ionization: ESI
Fragmentation mode: HCD
Collision energy: 90
Resolution: 17500
Column name: Acquity BEH C18 1.7um, 2.1x150mm (Waters)
Retention time: 18.710 min
Base peak: 307.0723
Precursor m/z: 307.0724
Precursor type: [M-H]-
Precursor intensity: 89763374.94141
m/z	relative intensity	assigned
64.0194	1	C4H2N-
65.9985	5	C3NO-
80.0268	31	C5H4O-
90.035	191	C6H4N-
91.019	8	C6H3O-
91.0428	3	C6H5N-
105.0221	6	C6H3NO-
106.0299	1	C6H4NO-
107.0377	170	C6H5NO-
108.0217	3	C6H4O2-
113.0397	4	C9H5-
114.0475	2	C9H6-
115.0553	805	C9H7-
117.0346	6	C8H5O-
118.03	3	C7H4NO-
125.0397	3	C10H5-
130.0425	7	C9H6O-
131.0505	2	C9H7O-
133.0167	5	C7H3NO2-
134.0248	30	C7H4NO2-
137.0357	93	C6H5N2O2-
138.0197	3	C6H4NO3-
141.0346	5	C10H5O-
142.0423	2	C10H6O-
143.0503	999	C10H7O-
145.0293	3	C9H5O2-
165.0709	1	C13H9-
168.0456	11	C11H6NO-
220.0766	3	C15H10NO-
231.0692	2	C16H9NO-
232.0768	8	C16H10NO-
233.061	12	C16H9O2-
247.0637	5	C16H9NO2-
248.072	2	C16H10NO2-
258.0564	2	C17H8NO2-
