Mass spectrum: PHA-00568487; LC-ESI-QFT; MS2; CE: 30; R=17500; [M+H]+
Name: PHA-00568487
Name: N-(3R)-1-Azabicyclo(2.2.2)oct-3-yl-2,3-dihydro-1,4-benzodioxin-6-carboxamide
Name: N-[(3R)-1-azabicyclo[2.2.2]octan-3-yl]-2,3-dihydro-1,4-benzodioxine-6-carboxamide
Formula: C16H20N2O3
Exact mass: 288.1474
SMILES: O=C(N[C@H]1CN2CCC1CC2)C1=CC2=C(OCCO2)C=C1
InChI: InChI=1S/C16H20N2O3/c19-16(17-13-10-18-5-3-11(13)4-6-18)12-1-2-14-15(9-12)21-8-7-20-14/h1-2,9,11,13H,3-8,10H2,(H,17,19)/t13-/m0/s1
Instrument: Q Exactive Orbitrap (Thermo Scientific)
Instrument type: LC-ESI-QFT
Ms type: MS2
Ion mode: POSITIVE
Ionization: ESI
Fragmentation mode: HCD
Collision energy: 30
Resolution: 17500
Column name: Acquity BEH C18 1.7um, 2.1x150mm (Waters)
Retention time: 10.712 min
Base peak: 79.0211
Precursor m/z: 289.1547
Precursor type: [M+H]+
Precursor intensity: 21091589.25
m/z	relative intensity	assigned
82.0651	3	C5H8N+
96.0808	1	C6H10N+
110.0964	45	C7H12N+
125.1073	3	C7H13N2+
128.1069	12	C7H14NO+
149.0597	3	C9H9O2+
162.0548	1	C9H8NO2+
163.0388	43	C9H7O3+
180.0655	2	C9H10NO3+
272.1267	1	C16H18NO3+
289.1545	999	C16H21N2O3+
