Mass spectrum: Diphenylhydantoin; LC-ESI-QFT; MS2; CE: 30; R=17500; [M-H]-
Name: Diphenylhydantoin
Name: Phenytoin
Name: 5,5-diphenylimidazolidine-2,4-dione
Formula: C15H12N2O2
Exact mass: 252.0899
SMILES: O=C1NC(=O)C(N1)(C1=CC=CC=C1)C1=CC=CC=C1
InChI: InChI=1S/C15H12N2O2/c18-13-15(17-14(19)16-13,11-7-3-1-4-8-11)12-9-5-2-6-10-12/h1-10H,(H2,16,17,18,19)
Instrument: Q Exactive Orbitrap (Thermo Scientific)
Instrument type: LC-ESI-QFT
Ms type: MS2
Ion mode: NEGATIVE
Ionization: ESI
Fragmentation mode: HCD
Collision energy: 30
Resolution: 17500
Column name: Acquity BEH C18 1.7um, 2.1x150mm (Waters)
Retention time: 15.511 min
Base peak: 165.0557
Precursor m/z: 251.0826
Precursor type: [M-H]-
Precursor intensity: 4892666.571289
m/z	relative intensity	assigned
77.0395	3	C6H5-
102.035	877	C7H4N-
121.0297	2	C7H5O2-
146.0248	43	C8H4NO2-
180.082	91	C13H10N-
208.0768	527	C14H10NO-
224.0716	6	C14H10NO2-
251.0826	999	C15H11N2O2-
