Mass spectrum: Ro 23-7637; LC-ESI-QFT; MS2; CE: 30; R=17500; [M+H]+
Name: Ro 23-7637
Name: 1-[4-(2,2-diphenylethenyl)piperidin-1-yl]-9-pyridin-3-ylnonan-1-one
Formula: C33H40N2O
Exact mass: 480.3141
SMILES: O=C(CCCCCCCCC1=CN=CC=C1)N1CCC(CC1)C=C(C1=CC=CC=C1)C1=CC=CC=C1
InChI: InChI=1S/C33H40N2O/c36-33(20-12-4-2-1-3-7-14-29-15-13-23-34-27-29)35-24-21-28(22-25-35)26-32(30-16-8-5-9-17-30)31-18-10-6-11-19-31/h5-6,8-11,13,15-19,23,26-28H,1-4,7,12,14,20-22,24-25H2
Instrument: Q Exactive Orbitrap (Thermo Scientific)
Instrument type: LC-ESI-QFT
Ms type: MS2
Ion mode: POSITIVE
Ionization: ESI
Fragmentation mode: HCD
Collision energy: 30
Resolution: 17500
Column name: Acquity BEH C18 1.7um, 2.1x150mm (Waters)
Retention time: 19.459 min
Base peak: 79.0211
Precursor m/z: 481.3213
Precursor type: [M+H]+
Precursor intensity: 48808937
m/z	relative intensity	assigned
56.0494	5	C3H6N+
82.065	2	C5H8N+
84.0807	17	C5H10N+
92.0496	3	C6H6N+
106.0652	2	C7H8N+
117.0698	1	C9H9+
167.0854	24	C13H11+
190.1589	7	C13H20N+
218.1538	998	C14H20NO+
264.1744	894	C19H22N+
481.3214	999	C33H41N2O+
