Mass spectrum: SR58611; LC-ESI-QFT; MS2; CE: 30; R=17500; [M+H]+
Name: SR58611
Name: ethyl 2-[[7-[[2-(3-chlorophenyl)-2-hydroxyethyl]amino]-5,6,7,8-tetrahydronaphthalen-2-yl]oxy]acetate
Formula: C22H26ClNO4
Exact mass: 403.1550
SMILES: CCOC(=O)COC1=CC2=C(CCC(C2)NCC(O)C2=CC(Cl)=CC=C2)C=C1
InChI: InChI=1S/C22H26ClNO4/c1-2-27-22(26)14-28-20-9-7-15-6-8-19(11-17(15)12-20)24-13-21(25)16-4-3-5-18(23)10-16/h3-5,7,9-10,12,19,21,24-25H,2,6,8,11,13-14H2,1H3
Instrument: Q Exactive Orbitrap (Thermo Scientific)
Instrument type: LC-ESI-QFT
Ms type: MS2
Ion mode: POSITIVE
Ionization: ESI
Fragmentation mode: HCD
Collision energy: 30
Resolution: 17500
Column name: Acquity BEH C18 1.7um, 2.1x150mm (Waters)
Retention time: 15.271 min
Base peak: 79.0211
Precursor m/z: 404.1623
Precursor type: [M+H]+
Precursor intensity: 16584986.75
m/z	relative intensity	assigned
91.0541	1	C7H7+
118.065	2	C8H8N+
119.073	2	C8H9N+
128.0623	2	C10H8+
129.0693	4	C10H9+
131.0855	32	C10H11+
139.031	3	C8H8Cl+
145.0647	4	C10H9O+
146.0725	5	C10H10O+
147.0803	2	C10H11O+
154.0418	213	C8H9ClN+
156.0572	1	C8H11ClN+
157.0649	19	C11H9O+
159.0804	350	C11H11O+
168.0573	4	C9H11ClN+
172.0523	8	C8H11ClNO+
187.0753	9	C12H11O2+
187.1115	2	C13H15O+
191.1066	5	C12H15O2+
205.0859	37	C12H13O3+
207.1016	3	C12H15O3+
233.1171	999	C14H17O3+
260.1282	1	C15H18NO3+
358.1199	1	C20H21ClNO3+
386.1518	122	C22H25ClNO3+
404.1624	55	C22H27ClNO4+
