Mass spectrum: PharmaGSID_48516; LC-ESI-QFT; MS2; CE: 75; R=17500; [M+H]+
Name: 2-chloro-4-fluoro-N-[(E)-2-phenylethenyl]sulfonylbenzamide
Name: 2-Chloro-4-fluoro-N-{[(E)-2-phenylethenyl]sulfonyl}benzamide
Name: PharmaGSID_48516
Formula: C15H11ClFNO3S
Exact mass: 339.0132
SMILES: O=C(NS(=O)(=O)/C=C/c1ccccc1)c1ccc(F)cc1Cl
InChI: InChI=1S/C15H11ClFNO3S/c16-14-10-12(17)6-7-13(14)15(19)18-22(20,21)9-8-11-4-2-1-3-5-11/h1-10H,(H,18,19)/b9-8+
Instrument: Q Exactive Orbitrap (Thermo Scientific)
Instrument type: LC-ESI-QFT
Ms type: MS2
Ion mode: POSITIVE
Ionization: ESI
Fragmentation mode: HCD
Collision energy: 75
Resolution: 17500
Column name: Acquity BEH C18 1.7um, 2.1x150mm (Waters)
Retention time: 16.772 min
Base peak: 79.0211
Precursor m/z: 340.0205
Precursor type: [M+H]+
Precursor intensity: 3026080.40625
m/z	relative intensity	assigned
50.0152	4	C4H2+
51.0229	9	C4H3+
53.0386	82	C4H5+
55.0178	4	C3H3O+
74.015	1	C6H2+
77.0386	24	C6H5+
79.0542	2	C6H7+
81.0336	6	C5H5O+
84.984	11	C4H2Cl+
86.9633	3	C3ClO+
91.0543	5	C7H7+
94.0414	6	C6H6O+
95.0492	222	C6H7O+
102.0464	35	C8H6+
103.0543	999	C8H7+
104.9901	4	C4H3ClF+
105.0448	92	H11NO3S+
108.9841	12	C6H2Cl+
112.0319	10	C6H5FO+
118.0411	3	C8H6O+
121.0648	2	C8H9O+
128.9902	15	C6H3ClF+
129.0347	4	C6H6FO2+
143.0504	2	C7H8FO2+
147.0008	13	C6H5ClFO+
148.0307	3	C12H4+
156.0012	5	C7H4ClFN+
156.9853	254	C7H3ClFO+
156.9965	154	ClFH9NO3S+
165.0701	5	C13H9+
167.086	4	C13H11+
