Mass spectrum: Glybenclamide; LC-ESI-QFT; MS2; CE: 75; R=17500; [M+H]+
Name: Glybenclamide
Name: Glyburide
Name: 5-chloro-N-[2-[4-(cyclohexylcarbamoylsulfamoyl)phenyl]ethyl]-2-methoxybenzamide
Formula: C23H28ClN3O5S
Exact mass: 493.1438
SMILES: COC1=C(C=C(Cl)C=C1)C(=O)NCCC1=CC=C(C=C1)S(=O)(=O)NC(=O)NC1CCCCC1
InChI: InChI=1S/C23H28ClN3O5S/c1-32-21-12-9-17(24)15-20(21)22(28)25-14-13-16-7-10-19(11-8-16)33(30,31)27-23(29)26-18-5-3-2-4-6-18/h7-12,15,18H,2-6,13-14H2,1H3,(H,25,28)(H2,26,27,29)
Instrument: Q Exactive Orbitrap (Thermo Scientific)
Instrument type: LC-ESI-QFT
Ms type: MS2
Ion mode: POSITIVE
Ionization: ESI
Fragmentation mode: HCD
Collision energy: 75
Resolution: 17500
Column name: Acquity BEH C18 1.7um, 2.1x150mm (Waters)
Retention time: 17.866 min
Base peak: 79.0212
Precursor m/z: 494.1511
Precursor type: [M+H]+
Precursor intensity: 7228882
m/z	relative intensity	assigned
50.0151	3	C4H2+
51.023	5	C4H3+
53.0022	1	C3HO+
53.0386	29	C4H5+
55.0179	3	C3H3O+
55.0543	24	C4H7+
63.0228	2	C5H3+
65.0386	8	C5H5+
74.0152	1	C6H2+
75.0229	9	C6H3+
77.0386	7	C6H5+
78.0464	4	C6H6+
79.0177	2	C5H3O+
79.0542	5	C6H7+
81.0334	4	C5H5O+
83.0855	20	C6H11+
86.9997	23	C4H4Cl+
91.0543	90	C7H7+
93.0334	2	C6H5O+
94.0415	5	C6H6O+
95.0492	91	C6H7O+
98.0363	1	C5H6O2+
100.1121	2	C6H14N+
102.0463	4	C8H6+
103.0543	124	C8H7+
104.062	8	C8H8+
105.0448	35	C6H5N2+
105.07	29	C8H9+
107.0491	22	C7H7O+
110.9994	9	C6H4Cl+
111.0441	6	C6H7O2+
113.0153	68	C6H6Cl+
114.9947	2	C5H4ClO+
118.0651	1	C8H8N+
119.0492	46	C8H7O+
119.0731	2	C8H9N+
120.0571	3	C8H8O+
120.0807	6	C8H10N+
121.0648	12	C8H9O+
123.0076	1	C6H3O3+
125.9867	200	C6H3ClO+
128.0022	3	C6H5ClO+
129.0102	77	C6H6ClO+
131.0605	18	C8H7N2+
134.0363	4	C8H6O2+
138.0232	8	C8H7Cl+
138.9955	18	C5H3N2OS+
139.0058	147	C6H4ClN2+
140.0025	1	C7H5ClO+
141.0102	33	C7H6ClO+
152.0622	3	C12H8+
153.07	2	C12H9+
153.9816	4	C7H3ClO2+
154.9898	3	C7H4ClO2+
165.07	14	C13H9+
166.026	10	C8H6O4+
166.0777	8	C13H10+
166.9901	1	C8H4ClO2+
167.0858	10	C13H11+
167.9977	1	C8H5ClO2+
168.0934	2	C13H12+
169.0051	999	C8H6ClO2+
171.9922	78	C7H5ClO3+
178.0775	2	C3H17ClN3OS+
179.0856	2	C14H11+
181.0646	7	C2H16ClN3O2S+
186.0079	2	C8H7ClO3+
194.0725	1	C14H10O+
208.0879	2	C4H19ClN3O2S+
217.0418	8	C13H10ClO+
259.0524	1	C15H12ClO2+
