Mass spectrum: Cyprodinil; LC-ESI-QFT; MS2; CE: 30; R=17500; [M+H]+
Name: Cyprodinil
Name: 4-cyclopropyl-6-methyl-N-phenylpyrimidin-2-amine
Formula: C14H15N3
Exact mass: 225.1266
SMILES: CC1=NC(NC2=CC=CC=C2)=NC(=C1)C1CC1
InChI: InChI=1S/C14H15N3/c1-10-9-13(11-7-8-11)17-14(15-10)16-12-5-3-2-4-6-12/h2-6,9,11H,7-8H2,1H3,(H,15,16,17)
Instrument: Q Exactive Orbitrap (Thermo Scientific)
Instrument type: LC-ESI-QFT
Ms type: MS2
Ion mode: POSITIVE
Ionization: ESI
Fragmentation mode: HCD
Collision energy: 30
Resolution: 17500
Column name: Acquity BEH C18 1.7um, 2.1x150mm (Waters)
Retention time: 17.671 min
Base peak: 79.0211
Precursor m/z: 226.1339
Precursor type: [M+H]+
Precursor intensity: 57295254.90625
m/z	relative intensity	assigned
108.0806	1	C7H10N+
185.107	1	C12H13N2+
210.1022	1	C13H12N3+
226.1337	999	C14H16N3+
