Mass spectrum: Warfarin; LC-ESI-QFT; MS2; CE: 60; R=17500; [M+H]+
Name: Warfarin
Name: 4-hydroxy-3-(3-oxo-1-phenylbutyl)chromen-2-one
Formula: C19H16O4
Exact mass: 308.1049
SMILES: CC(=O)CC(C1=CC=CC=C1)C1=C(O)C2=CC=CC=C2OC1=O
InChI: InChI=1S/C19H16O4/c1-12(20)11-15(13-7-3-2-4-8-13)17-18(21)14-9-5-6-10-16(14)23-19(17)22/h2-10,15,21H,11H2,1H3
Instrument: Q Exactive Orbitrap (Thermo Scientific)
Instrument type: LC-ESI-QFT
Ms type: MS2
Ion mode: POSITIVE
Ionization: ESI
Fragmentation mode: HCD
Collision energy: 60
Resolution: 17500
Column name: Acquity BEH C18 1.7um, 2.1x150mm (Waters)
Retention time: 17.456 min
Base peak: 79.0211
Precursor m/z: 309.1121
Precursor type: [M+H]+
Precursor intensity: 14614050
m/z	relative intensity	assigned
51.023	1	C4H3+
53.0386	13	C4H5+
55.0179	4	C3H3O+
65.0385	12	C5H5+
68.997	22	C3HO2+
69.0334	2	C4H5O+
77.0388	7	C6H5+
79.0542	2	C6H7+
81.0335	1	C5H5O+
83.0127	1	C4H3O2+
89.0385	4	C7H5+
90.0464	1	C7H6+
91.0542	60	C7H7+
93.0335	10	C6H5O+
94.0414	2	C6H6O+
95.0492	127	C6H7O+
102.0462	2	C8H6+
103.0542	36	C8H7+
105.0336	11	C7H5O+
105.0699	8	C8H9+
107.0491	7	C7H7O+
109.065	1	C7H9O+
111.0441	10	C6H7O2+
115.0539	2	C9H7+
117.0699	1	C9H9+
119.0492	12	C8H7O+
119.0855	3	C9H11+
121.0284	415	C7H5O2+
128.062	15	C10H8+
129.0334	6	C9H5O+
129.0699	109	C10H9+
130.0413	4	C9H6O+
131.0492	119	C9H7O+
139.0389	15	C7H7O3+
141.0698	4	C11H9+
143.0856	4	C11H11+
145.0282	8	C9H5O2+
147.0804	80	C10H11O+
149.0233	1	C8H5O3+
152.0623	5	C12H8+
153.0698	13	C12H9+
154.078	1	C12H10+
155.0855	290	C12H11+
157.0279	12	C10H5O2+
163.0389	999	C9H7O3+
164.026	3	C12H4O+
165.0698	33	C13H9+
166.0776	3	C13H10+
167.0855	75	C13H11+
171.0806	10	C12H11O+
173.0234	8	C10H5O3+
175.0391	29	C10H7O3+
176.0626	1	C14H8+
177.0699	8	C14H9+
178.0777	46	C14H10+
179.0855	29	C14H11+
179.9846	2	C11O3+
181.0647	8	C13H9O+
183.0805	282	C13H11O+
187.9896	4	C13O2+
189.0546	21	C11H9O3+
191.0339	533	C10H7O4+
195.0804	26	C14H11O+
203.9848	12	C13O3+
205.0497	11	C11H9O4+
205.0648	48	C15H9O+
206.0004	4	C13H2O3+
206.0723	2	C15H10O+
207.0804	7	C15H11O+
223.0754	142	C15H11O2+
233.0597	53	C16H9O2+
234.0677	3	C16H10O2+
249.0544	9	C16H9O3+
251.0702	344	C16H11O3+
