Mass spectrum: Aldoxycarb; LC-ESI-QFT; MS2; CE: 75; R=17500; [M+H]+
Name: Aldoxycarb
Name: [(E)-(2-methyl-2-methylsulfonylpropylidene)amino] N-methylcarbamate
Formula: C7H14N2O4S
Exact mass: 222.0674
SMILES: CNC(=O)O\N=C\C(C)(C)S(C)(=O)=O
InChI: InChI=1S/C7H14N2O4S/c1-7(2,14(4,11)12)5-9-13-6(10)8-3/h5H,1-4H3,(H,8,10)/b9-5+
Instrument: Q Exactive Orbitrap (Thermo Scientific)
Instrument type: LC-ESI-QFT
Ms type: MS2
Ion mode: POSITIVE
Ionization: ESI
Fragmentation mode: HCD
Collision energy: 75
Resolution: 17500
Column name: Acquity BEH C18 1.7um, 2.1x150mm (Waters)
Retention time: 9.939 min
Base peak: 79.0212
Precursor m/z: 223.0747
Precursor type: [M+H]+
Precursor intensity: 796358.8125
m/z	relative intensity	assigned
56.0494	246	C3H6N+
59.0492	215	C3H7O+
61.0107	999	C2H5S+
62.99	389	CH3OS+
79.0212	315	C2H7OS+
79.0543	222	C6H7+
86.0601	322	C4H8NO+
91.0575	299	C4H11S+
130.9822	902	C7HNS+
165.0702	214	C5H13N2O2S+
