Mass spectrum: 4-[3-(4-Acetyl-3-hydroxy-2-propylphenoxy)propoxy]phenoxy-acetic acid; LC-ESI-QFT; MS2; CE: 30; R=17500; [M-H]-
Name: 4-[3-(4-Acetyl-3-hydroxy-2-propylphenoxy)propoxy]phenoxy-acetic acid
Name: 2-(4-(3-(4-Acetyl-3-hydroxy-2-propylphenoxy)propoxy)phenoxy)acetic acid
Name: 2-[4-[3-(4-acetyl-3-hydroxy-2-propylphenoxy)propoxy]phenoxy]acetic acid
Formula: C22H26O7
Exact mass: 402.1679
SMILES: CCCC1=C(OCCCOC2=CC=C(OCC(O)=O)C=C2)C=CC(C(C)=O)=C1O
InChI: InChI=1S/C22H26O7/c1-3-5-19-20(11-10-18(15(2)23)22(19)26)28-13-4-12-27-16-6-8-17(9-7-16)29-14-21(24)25/h6-11,26H,3-5,12-14H2,1-2H3,(H,24,25)
Instrument: Q Exactive Orbitrap (Thermo Scientific)
Instrument type: LC-ESI-QFT
Ms type: MS2
Ion mode: NEGATIVE
Ionization: ESI
Fragmentation mode: HCD
Collision energy: 30
Resolution: 17500
Column name: Acquity BEH C18 1.7um, 2.1x150mm (Waters)
Retention time: 19.176 min
Base peak: 401.1605
Precursor m/z: 401.1606
Precursor type: [M-H]-
Precursor intensity: 19610384.26465
m/z	relative intensity	assigned
95.0138	1	C5H3O2-
108.0217	623	C6H4O2-
109.0294	13	C6H5O2-
121.0295	15	C7H5O2-
122.0373	88	C7H6O2-
123.0452	23	C7H7O2-
149.0972	5	C10H13O-
151.0766	2	C9H11O2-
163.0398	22	C9H7O3-
164.0481	2	C9H8O3-
167.0348	3	C8H7O4-
177.0556	16	C10H9O3-
178.1002	1	C11H14O2-
191.0713	9	C11H11O3-
191.108	2	C12H15O2-
192.0792	21	C11H12O3-
193.0869	799	C11H13O3-
205.087	32	C12H13O3-
233.1183	69	C14H17O3-
301.144	1	C18H21O4-
343.1549	999	C20H23O5-
357.1707	58	C21H25O5-
401.1604	54	C22H25O7-
