Mass spectrum: 1,3-Diphenylguanidine; LC-ESI-QFT; MS2; CE: 90; R=17500; [M+H]+
Name: 1,3-Diphenylguanidine
Name: 1,2-diphenylguanidine
Formula: C13H13N3
Exact mass: 211.1109
SMILES: N=C(NC1=CC=CC=C1)NC1=CC=CC=C1
InChI: InChI=1S/C13H13N3/c14-13(15-11-7-3-1-4-8-11)16-12-9-5-2-6-10-12/h1-10H,(H3,14,15,16)
Instrument: Q Exactive Orbitrap (Thermo Scientific)
Instrument type: LC-ESI-QFT
Ms type: MS2
Ion mode: POSITIVE
Ionization: ESI
Fragmentation mode: HCD
Collision energy: 90
Resolution: 17500
Column name: Acquity BEH C18 1.7um, 2.1x150mm (Waters)
Retention time: 11.649 min
Base peak: 79.0211
Precursor m/z: 212.1182
Precursor type: [M+H]+
Precursor intensity: 57507672
m/z	relative intensity	assigned
50.0152	2	C4H2+
51.0228	4	C4H3+
53.0386	341	C4H5+
65.0385	212	C5H5+
67.0542	7	C5H7+
77.0385	202	C6H5+
78.0464	5	C6H6+
92.0495	533	C6H6N+
93.0573	21	C6H7N+
94.0651	651	C6H8N+
95.0491	999	C4H5N3+
104.0493	2	C7H6N+
105.0447	380	C6H5N2+
109.0647	4	C5H7N3+
117.0447	14	C7H5N2+
118.0525	5	C7H6N2+
119.0604	818	C7H7N2+
130.0399	4	C7H4N3+
154.0777	1	C12H10+
167.0729	8	C12H9N+
168.0806	7	C12H10N+
194.0843	1	C13H10N2+
195.0917	22	C13H11N2+
