Mass spectrum: 1-Cyclohexylpyrrolidin-2-one; LC-ESI-QFT; MS2; CE: 45; R=17500; [M+H]+
Name: 1-Cyclohexylpyrrolidin-2-one
Name: N-Cyclohexyl-2-pyrrolidone
Formula: C10H17NO
Exact mass: 167.1310
SMILES: O=C1CCCN1C1CCCCC1
InChI: InChI=1S/C10H17NO/c12-10-7-4-8-11(10)9-5-2-1-3-6-9/h9H,1-8H2
Instrument: Q Exactive Orbitrap (Thermo Scientific)
Instrument type: LC-ESI-QFT
Ms type: MS2
Ion mode: POSITIVE
Ionization: ESI
Fragmentation mode: HCD
Collision energy: 45
Resolution: 17500
Column name: Acquity BEH C18 1.7um, 2.1x150mm (Waters)
Retention time: 15.477 min
Base peak: 79.0211
Precursor m/z: 168.1383
Precursor type: [M+H]+
Precursor intensity: 20750082.125
m/z	relative intensity	assigned
53.0386	1	C4H5+
55.0542	55	C4H7+
69.0334	8	C4H5O+
83.0854	158	C6H11+
86.0599	999	C4H8NO+
168.1381	553	C10H18NO+
