Mass spectrum: 2-Amino-5-azotoluene; LC-ESI-QFT; MS2; CE: 45; R=17500; [M+H]+
Name: 2-Amino-5-azotoluene
Name: o-Aminoazotoluene
Name: 2-methyl-4-[(2-methylphenyl)diazenyl]aniline
Formula: C14H15N3
Exact mass: 225.1266
SMILES: CC1=C(N)C=CC(=C1)N=NC1=C(C)C=CC=C1
InChI: InChI=1S/C14H15N3/c1-10-5-3-4-6-14(10)17-16-12-7-8-13(15)11(2)9-12/h3-9H,15H2,1-2H3
Instrument: Q Exactive Orbitrap (Thermo Scientific)
Instrument type: LC-ESI-QFT
Ms type: MS2
Ion mode: POSITIVE
Ionization: ESI
Fragmentation mode: HCD
Collision energy: 45
Resolution: 17500
Column name: Acquity BEH C18 1.7um, 2.1x150mm (Waters)
Retention time: 18.780 min
Base peak: 79.0212
Precursor m/z: 226.1339
Precursor type: [M+H]+
Precursor intensity: 35663930.9375
m/z	relative intensity	assigned
53.0385	3	C4H5+
54.0339	1	C3H4N+
55.0542	4	C4H7+
65.0385	58	C5H5+
67.0416	8	C4H5N+
67.0542	10	C5H7+
68.0494	3	C4H6N+
77.0382	4	C6H5+
78.0463	2	C6H6+
79.0542	140	C6H7+
80.0494	7	C5H6N+
81.0572	2	C5H7N+
82.0651	26	C5H8N+
83.049	1	C3H5N3+
91.0542	999	C7H7+
92.0494	14	C6H6N+
93.0335	6	C4H3N3+
93.0573	6	C6H7N+
94.0651	53	C6H8N+
95.049	13	C4H5N3+
104.0495	2	C7H6N+
105.0447	6	C6H5N2+
106.0651	627	C7H8N+
107.0491	38	C5H5N3+
107.0729	91	C7H9N+
108.0569	7	C5H6N3+
108.0807	19	C7H10N+
109.0647	220	C5H7N3+
118.0525	8	C7H6N2+
119.0604	147	C7H7N2+
120.0684	4	C7H8N2+
120.0808	83	C8H10N+
121.0759	792	C7H9N2+
122.0836	12	C7H10N2+
123.0802	3	C6H9N3+
133.0759	377	C8H9N2+
134.0712	14	C7H8N3+
165.0699	2	C13H9+
166.0777	2	C13H10+
167.0728	2	C12H9N+
168.0804	1	C12H10N+
182.0838	1	C12H10N2+
182.0964	15	C13H12N+
183.1043	9	C13H13N+
184.0992	8	C12H12N2+
192.0807	2	C14H10N+
194.0837	15	C13H10N2+
195.0918	6	C13H11N2+
196.0873	5	C12H10N3+
196.1131	1	C14H14N+
197.1079	1	C13H13N2+
197.1196	11	C14H15N+
198.1146	1	C13H14N2+
199.1229	11	C13H15N2+
208.0995	1	C14H12N2+
209.1072	110	C14H13N2+
210.1023	11	C13H12N3+
210.1148	5	C14H14N2+
211.1103	22	C13H13N3+
224.1182	3	C14H14N3+
225.126	2	C14H15N3+
226.1337	218	C14H16N3+
