Mass spectrum: Demeton-S-methylsulphon; LC-ESI-QFT; MS2; CE: 75; R=17500; [M+H]+
Name: Demeton-S-methylsulphon
Name: 1-dimethoxyphosphorylsulfanyl-2-ethylsulfonylethane
Formula: C6H15O5PS2
Exact mass: 262.0099
SMILES: CCS(=O)(=O)CCSP(=O)(OC)OC
InChI: InChI=1S/C6H15O5PS2/c1-4-14(8,9)6-5-13-12(7,10-2)11-3/h4-6H2,1-3H3
Instrument: Q Exactive Orbitrap (Thermo Scientific)
Instrument type: LC-ESI-QFT
Ms type: MS2
Ion mode: POSITIVE
Ionization: ESI
Fragmentation mode: HCD
Collision energy: 75
Resolution: 17500
Column name: Acquity BEH C18 1.7um, 2.1x150mm (Waters)
Retention time: 11.013 min
Base peak: 79.0212
Precursor m/z: 263.0171
Precursor type: [M+H]+
Precursor intensity: 3818643.0625
m/z	relative intensity	assigned
58.995	21	C2H3S+
59.9665	1	COS+
61.0107	22	C2H5S+
62.0185	11	C2H6S+
62.9899	2	CH3OS+
64.9786	3	H2O2P+
74.9899	21	C2H3OS+
75.0264	4	C3H7S+
77.0056	8	C2H5OS+
78.9943	250	CH4O2P+
80.9464	11	HOS2+
90.9672	3	C2H3S2+
93.0005	39	C2H5O2S+
94.9714	1	CH4OPS+
96.9604	1	HO4S+
97.0049	8	CH6O3P+
98.9843	2	H4O4P+
104.9558	1	C2H2OPS+
108.9777	10	C2H5OS2+
112.9998	12	CH6O4P+
114.9709	18	H3O5S+
121.032	4	C4H9O2S+
124.9821	13	C2H6O2PS+
127.0155	999	C2H8O4P+
128.977	82	CH6O3PS+
136.9819	2	C3H6O2PS+
141.0311	4	C3H10O4P+
142.9927	252	C2H8O3PS+
152.9779	1	C3H6O3PS+
157.0082	3	C3H10O3PS+
169.0082	6	C4H10O3PS+
174.9746	1	C2H7O5S2+
