Mass spectrum: N,N-Dimethyl-4-nitrosoaniline; LC-ESI-QFT; MS2; CE: 15; R=17500; [M+H]+
Name: N,N-Dimethyl-4-nitrosoaniline
Formula: C8H10N2O
Exact mass: 150.0793
SMILES: CN(C)C1=CC=C(C=C1)N=O
InChI: InChI=1S/C8H10N2O/c1-10(2)8-5-3-7(9-11)4-6-8/h3-6H,1-2H3
Instrument: Q Exactive Orbitrap (Thermo Scientific)
Instrument type: LC-ESI-QFT
Ms type: MS2
Ion mode: POSITIVE
Ionization: ESI
Fragmentation mode: HCD
Collision energy: 15
Resolution: 17500
Column name: Acquity BEH C18 1.7um, 2.1x150mm (Waters)
Retention time: 4.494 min
Base peak: 79.0211
Precursor m/z: 151.0866
Precursor type: [M+H]+
Precursor intensity: 7639882.4375
m/z	relative intensity	assigned
119.0604	1	C7H7N2+
120.0807	5	C8H10N+
121.0886	17	C8H11N+
133.076	6	C8H9N2+
134.0838	84	C8H10N2+
151.0866	999	C8H11N2O+
