Mass spectrum: PharmaGSID_47259; LC-ESI-QFT; MS2; CE: 75; R=17500; [M+H]+
Name: PharmaGSID_47259
Name: 1,3-Dichloro-6,7,8,9,10,12-hexahydroazepino(2,1-b)quinazoline
Name: 1,3-dichloro-6,7,8,9,10,12-hexahydroazepino[2,1-b]quinazoline
Formula: C13H14Cl2N2
Exact mass: 268.0534
SMILES: ClC1=CC2=C(CN3CCCCCC3=N2)C(Cl)=C1
InChI: InChI=1S/C13H14Cl2N2/c14-9-6-11(15)10-8-17-5-3-1-2-4-13(17)16-12(10)7-9/h6-7H,1-5,8H2
Instrument: Q Exactive Orbitrap (Thermo Scientific)
Instrument type: LC-ESI-QFT
Ms type: MS2
Ion mode: POSITIVE
Ionization: ESI
Fragmentation mode: HCD
Collision energy: 75
Resolution: 17500
Column name: Acquity BEH C18 1.7um, 2.1x150mm (Waters)
Retention time: 13.543 min
Base peak: 79.0211
Precursor m/z: 269.0607
Precursor type: [M+H]+
Precursor intensity: 22595024.25
m/z	relative intensity	assigned
53.0022	14	ClH4N+
53.0386	17	C4H5+
54.0338	79	C3H4N+
55.0542	284	C4H7+
56.0494	8	C3H6N+
65.0384	2	C5H5+
67.0542	20	C5H7+
68.0494	42	C4H6N+
69.0698	650	C5H9+
70.0651	3	C4H8N+
77.0384	3	C6H5+
79.0542	292	C6H7+
80.0494	23	C5H6N+
81.0573	107	C5H7N+
84.0807	8	C5H10N+
94.0651	34	C6H8N+
95.0492	24	C3H10ClN+
96.0807	999	C6H10N+
104.0492	2	C7H6N+
105.0447	10	C6H5N2+
107.0492	2	C4H10ClN+
114.0913	1	C3H15ClN2+
118.065	1	C8H8N+
120.0809	9	C8H10N+
129.01	2	C3H9Cl2N+
130.0402	2	C6H9ClN+
134.0963	4	C9H12N+
138.0105	7	C7H5ClN+
139.0059	4	C6H4ClN2+
139.0183	4	C7H6ClN+
145.9685	4	C6H4Cl2+
146.9764	15	C6H5Cl2+
151.0183	34	C8H6ClN+
154.0654	1	C11H8N+
158.9762	2	C7H5Cl2+
162.0104	4	C9H5ClN+
163.0184	1	C9H6ClN+
164.0262	5	C9H7ClN+
165.0215	5	C8H6ClN2+
165.0339	11	C9H8ClN+
167.0732	2	C12H9N+
170.9764	5	C8H5Cl2+
171.9714	27	C7H4Cl2N+
172.9794	33	C7H5Cl2N+
173.9872	899	C7H6Cl2N+
175.0184	1	C10H6ClN+
177.0338	7	C10H8ClN+
178.0293	5	C9H7ClN2+
178.0419	6	C10H9ClN+
179.0369	54	C9H8ClN2+
180.0208	2	C6H10Cl2N2+
181.0883	2	C13H11N+
183.9717	8	C8H4Cl2N+
184.9796	5	C8H5Cl2N+
185.9871	22	C8H6Cl2N+
186.9951	5	C8H7Cl2N+
188.003	2	C8H8Cl2N+
188.0262	8	C11H7ClN+
192.045	4	C10H9ClN2+
192.0573	4	C11H11ClN+
193.0653	7	C11H12ClN+
197.9871	61	C9H6Cl2N+
198.9826	12	C8H5Cl2N2+
198.994	3	C9H7Cl2N+
199.9904	16	C8H6Cl2N2+
200.0028	15	C9H8Cl2N+
200.998	8	C8H7Cl2N2+
202.0417	10	C12H9ClN+
203.0368	1	C11H8ClN2+
204.0571	2	C12H11ClN+
205.0526	6	C11H10ClN2+
205.0654	4	C12H12ClN+
209.9871	13	C10H6Cl2N+
210.9946	8	C10H7Cl2N+
211.9903	30	C9H6Cl2N2+
212.0029	8	C10H8Cl2N+
212.998	404	C9H7Cl2N2+
214.0058	653	C9H8Cl2N2+
215.0136	67	C9H9Cl2N2+
216.0335	3	C10H12Cl2N+
216.0575	5	C13H11ClN+
217.0654	4	C13H12ClN+
219.0685	3	C12H12ClN2+
222.9953	2	C11H7Cl2N+
224.0033	3	C11H8Cl2N+
224.9979	20	C10H7Cl2N2+
226.0184	1	C11H10Cl2N+
227.0136	618	C10H9Cl2N2+
228.0216	10	C10H10Cl2N2+
228.0342	10	C11H12Cl2N+
236.0025	7	C12H8Cl2N+
237.0105	2	C12H9Cl2N+
239.0136	87	C11H9Cl2N2+
240.0215	24	C11H10Cl2N2+
240.034	3	C12H12Cl2N+
241.0294	15	C11H11Cl2N2+
242.0504	2	C12H14Cl2N+
252.0341	13	C13H12Cl2N+
253.0292	34	C12H11Cl2N2+
254.037	12	C12H12Cl2N2+
267.0452	5	C13H13Cl2N2+
268.0523	1	C13H14Cl2N2+
269.0605	807	C13H15Cl2N2+
