Mass spectrum: Warfarin; LC-ESI-QFT; MS2; CE: 60; R=17500; [M-H]-
Name: Warfarin
Name: 4-hydroxy-3-(3-oxo-1-phenylbutyl)chromen-2-one
Formula: C19H16O4
Exact mass: 308.1049
SMILES: CC(=O)CC(C1=CC=CC=C1)C1=C(O)C2=CC=CC=C2OC1=O
InChI: InChI=1S/C19H16O4/c1-12(20)11-15(13-7-3-2-4-8-13)17-18(21)14-9-5-6-10-16(14)23-19(17)22/h2-10,15,21H,11H2,1H3
Instrument: Q Exactive Orbitrap (Thermo Scientific)
Instrument type: LC-ESI-QFT
Ms type: MS2
Ion mode: NEGATIVE
Ionization: ESI
Fragmentation mode: HCD
Collision energy: 60
Resolution: 17500
Column name: Acquity BEH C18 1.7um, 2.1x150mm (Waters)
Retention time: 17.443 min
Base peak: 307.0976
Precursor m/z: 307.0976
Precursor type: [M-H]-
Precursor intensity: 107439347.5293
m/z	relative intensity	assigned
57.0346	909	C3H5O-
83.0139	26	C4H3O2-
91.0554	2	C7H7-
93.0346	62	C6H5O-
95.0138	1	C5H3O2-
101.0397	13	C8H5-
108.0216	5	C6H4O2-
115.0553	5	C9H7-
117.0346	999	C8H5O-
119.0502	7	C8H7O-
129.0709	3	C10H9-
130.0423	15	C9H6O-
133.0294	1	C8H5O2-
133.0659	11	C9H9O-
135.0451	4	C8H7O2-
141.0709	5	C11H9-
143.0503	4	C10H7O-
145.0293	3	C9H5O2-
145.0658	6	C10H9O-
147.0453	3	C9H7O2-
156.0579	1	C11H8O-
157.0661	14	C11H9O-
161.0244	695	C9H5O3-
187.0764	5	C12H11O2-
193.066	5	C14H9O-
195.0814	24	C14H11O-
205.0657	10	C15H9O-
206.0737	87	C15H10O-
219.0814	11	C16H11O-
221.0605	10	C15H9O2-
221.0969	7	C16H13O-
222.0688	15	C15H10O2-
223.0766	22	C15H11O2-
233.097	4	C17H13O-
237.0922	2	C16H13O2-
243.0817	1	C18H11O-
245.0971	3	C18H13O-
247.0761	1	C17H11O2-
248.0848	1	C17H12O2-
249.0559	5	C16H9O3-
250.0636	365	C16H10O3-
261.0918	6	C18H13O2-
274.0639	1	C18H10O3-
