Mass spectrum: CP-457677; LC-ESI-QFT; MS2; CE: 90; R=17500; [M+H]+
Name: CP-457677
Name: 3-Pyridinecarboxamide, 2-(4-fluorophenoxy)-N-((4-(1-hydroxy-1-methylethyl)phenyl)methyl)-
Name: 2-(4-fluorophenoxy)-N-[[4-(2-hydroxypropan-2-yl)phenyl]methyl]pyridine-3-carboxamide
Formula: C22H21FN2O3
Exact mass: 380.1536
SMILES: CC(C)(O)C1=CC=C(CNC(=O)C2=CC=CN=C2OC2=CC=C(F)C=C2)C=C1
InChI: InChI=1S/C22H21FN2O3/c1-22(2,27)16-7-5-15(6-8-16)14-25-20(26)19-4-3-13-24-21(19)28-18-11-9-17(23)10-12-18/h3-13,27H,14H2,1-2H3,(H,25,26)
Instrument: Q Exactive Orbitrap (Thermo Scientific)
Instrument type: LC-ESI-QFT
Ms type: MS2
Ion mode: POSITIVE
Ionization: ESI
Fragmentation mode: HCD
Collision energy: 90
Resolution: 17500
Column name: Acquity BEH C18 1.7um, 2.1x150mm (Waters)
Retention time: 16.689 min
Base peak: 79.0211
Precursor m/z: 381.1609
Precursor type: [M+H]+
Precursor intensity: 7554492.8125
m/z	relative intensity	assigned
51.023	3	C4H3+
53.0023	3	C3HO+
53.0386	16	C4H5+
57.0335	32	C3H5O+
59.0492	11	C3H7O+
65.0386	56	C5H5+
75.0229	5	C6H3+
77.0383	2	C6H5+
78.0338	15	C5H4N+
79.0542	48	C6H7+
89.0385	4	C7H5+
91.0542	999	C7H7+
92.062	18	C7H8+
93.0699	6	C7H9+
95.0129	4	C5H3O2+
95.0491	19	C6H7O+
96.0444	43	C5H6NO+
103.0542	45	C8H7+
105.0699	129	C8H9+
107.0855	79	C8H11+
109.0649	24	C7H9O+
113.0394	12	C6H6FO+
115.0543	173	C9H7+
116.0621	289	C9H8+
119.0604	16	C7H7N2+
119.0855	4	C9H11+
121.1012	2	C9H13+
122.0401	3	C7H5FN+
123.0352	11	C6H4FN2+
123.0803	2	C8H11O+
128.062	41	C10H8+
129.0699	76	C10H9+
130.0776	4	C10H10+
131.0856	103	C10H11+
132.0808	4	C9H10N+
133.0448	396	C9H6F+
134.0726	109	C9H10O+
140.0495	30	C10H6N+
143.0606	2	C9H7N2+
145.0649	7	C10H9O+
146.04	5	C9H5FN+
148.0193	3	C8H3FNO+
152.0504	11	C8H7FNO+
155.0605	9	C10H7N2+
158.0401	13	C10H5FN+
158.0603	2	C10H8NO+
160.0557	100	C10H7FN+
164.0506	4	C9H7FNO+
168.0438	1	C11H6NO+
168.0555	3	C12H8O+
188.0507	131	C11H7FNO+
216.0455	66	C12H7FNO2+
