Mass spectrum: Metalaxyl; LC-ESI-QFT; MS2; CE: 90; R=17500; [M+H]+
Name: Metalaxyl
Name: methyl 2-(N-(2-methoxyacetyl)-2,6-dimethylanilino)propanoate
Formula: C15H21NO4
Exact mass: 279.1471
SMILES: COCC(=O)N(C(C)C(=O)OC)C1=C(C)C=CC=C1C
InChI: InChI=1S/C15H21NO4/c1-10-7-6-8-11(2)14(10)16(13(17)9-19-4)12(3)15(18)20-5/h6-8,12H,9H2,1-5H3
Instrument: Q Exactive Orbitrap (Thermo Scientific)
Instrument type: LC-ESI-QFT
Ms type: MS2
Ion mode: POSITIVE
Ionization: ESI
Fragmentation mode: HCD
Collision energy: 90
Resolution: 17500
Column name: Acquity BEH C18 1.7um, 2.1x150mm (Waters)
Retention time: 16.409 min
Base peak: 79.0211
Precursor m/z: 280.1543
Precursor type: [M+H]+
Precursor intensity: 35453643.0625
m/z	relative intensity	assigned
53.0385	18	C4H5+
56.0495	5	C3H6N+
59.0492	15	C3H7O+
77.0384	9	C6H5+
79.0542	182	C6H7+
91.0543	232	C7H7+
93.0699	16	C7H9+
95.0492	47	C6H7O+
103.0542	112	C8H7+
104.062	10	C8H8+
105.0699	525	C8H9+
106.0652	48	C7H8N+
106.0777	48	C8H10+
107.0856	24	C8H11+
115.0543	69	C9H7+
116.062	16	C9H8+
117.0573	202	C8H7N+
117.0699	53	C9H9+
118.0651	182	C8H8N+
118.0777	22	C9H10+
119.0731	35	C8H9N+
119.0855	73	C9H11+
120.0808	99	C8H10N+
121.0887	48	C8H11N+
121.101	9	C9H13+
122.0965	6	C8H12N+
123.0805	15	C8H11O+
128.062	34	C10H8+
129.07	8	C10H9+
130.0652	667	C9H8N+
131.073	122	C9H9N+
131.0854	20	C10H11+
132.0808	999	C9H10N+
133.0886	198	C9H11N+
133.1008	21	C10H13+
134.0964	708	C9H12N+
135.0678	38	C8H9NO+
135.1044	4	C9H13N+
143.073	20	C10H9N+
144.0808	472	C10H10N+
145.0886	568	C10H11N+
146.0964	86	C10H12N+
147.1043	18	C10H13N+
148.1121	273	C10H14N+
149.0836	27	C9H11NO+
150.0913	33	C9H12NO+
158.0965	19	C11H12N+
159.1044	4	C11H13N+
160.1121	384	C11H14N+
162.1277	63	C11H16N+
164.1072	27	C10H14NO+
