Mass spectrum: Fluometuron; LC-ESI-QFT; MS2; CE: 90; R=17500; [M+H]+
Name: Fluometuron
Name: 1,1-dimethyl-3-[3-(trifluoromethyl)phenyl]urea
Formula: C10H11F3N2O
Exact mass: 232.0823
SMILES: CN(C)C(=O)NC1=CC=CC(=C1)C(F)(F)F
InChI: InChI=1S/C10H11F3N2O/c1-15(2)9(16)14-8-5-3-4-7(6-8)10(11,12)13/h3-6H,1-2H3,(H,14,16)
Instrument: Q Exactive Orbitrap (Thermo Scientific)
Instrument type: LC-ESI-QFT
Ms type: MS2
Ion mode: POSITIVE
Ionization: ESI
Fragmentation mode: HCD
Collision energy: 90
Resolution: 17500
Column name: Acquity BEH C18 1.7um, 2.1x150mm (Waters)
Retention time: 16.075 min
Base peak: 79.0211
Precursor m/z: 233.0896
Precursor type: [M+H]+
Precursor intensity: 15990243.125
m/z	relative intensity	assigned
56.0131	28	C2H2NO+
72.0443	999	C3H6NO+
91.0417	1	C6H5N+
104.0496	3	C7H6N+
131.0604	2	C8H7N2+
133.026	8	C6H4F3+
140.0306	28	C7H4F2N+
141.0259	4	C6H3F2N2+
145.0259	74	C7H4F3+
148.0306	5	C9H5FO+
159.0554	2	C9H7N2O+
160.0369	25	C7H5F3N+
168.0255	12	C8H4F2NO+
173.0319	3	C7H4F3N2+
178.0473	1	C7H7F3NO+
192.0629	2	C8H9F3NO+
