Mass spectrum: Ethyl 2-cyano-3,3-diphenylacrylate; LC-ESI-QFT; MS2; CE: 45; R=17500; [M+H]+
Name: Ethyl 2-cyano-3,3-diphenylacrylate
Name: ethyl 2-cyano-3,3-diphenylprop-2-enoate
Formula: C18H15NO2
Exact mass: 277.1103
SMILES: CCOC(=O)C(C#N)=C(C1=CC=CC=C1)C1=CC=CC=C1
InChI: InChI=1S/C18H15NO2/c1-2-21-18(20)16(13-19)17(14-9-5-3-6-10-14)15-11-7-4-8-12-15/h3-12H,2H2,1H3
Instrument: Q Exactive Orbitrap (Thermo Scientific)
Instrument type: LC-ESI-QFT
Ms type: MS2
Ion mode: POSITIVE
Ionization: ESI
Fragmentation mode: HCD
Collision energy: 45
Resolution: 17500
Column name: Acquity BEH C18 1.7um, 2.1x150mm (Waters)
Retention time: 17.863 min
Base peak: 79.0212
Precursor m/z: 278.1176
Precursor type: [M+H]+
Precursor intensity: 4167633.6875
m/z	relative intensity	assigned
53.0386	2	C4H5+
68.997	5	C3HO2+
77.0387	3	C6H5+
95.0492	7	C6H7O+
96.044	1	C5H6NO+
104.0495	29	C7H6N+
105.0335	503	C7H5O+
128.0494	2	C9H6N+
129.0335	16	C9H5O+
130.029	2	C8H4NO+
147.0442	17	C9H7O2+
153.0699	3	C12H9+
154.0291	2	C10H4NO+
157.0285	10	C10H5O2+
165.07	5	C13H9+
167.0855	4	C13H11+
176.0625	6	C14H8+
177.07	36	C14H9+
178.0776	15	C14H10+
179.0857	30	C14H11+
181.0646	4	C13H9O+
182.0965	19	C13H12N+
183.0807	8	C13H11O+
191.0859	4	C15H11+
195.0805	12	C14H11O+
203.0731	39	C15H9N+
204.0809	442	C15H10N+
205.0655	3	C15H9O+
206.0966	21	C15H12N+
207.0808	13	C15H11O+
215.0861	5	C17H11+
222.0915	56	C15H12NO+
232.0758	999	C16H10NO+
234.128	4	C17H16N+
235.0746	4	C16H11O2+
236.1067	14	C16H14NO+
242.0972	2	C18H12N+
243.0807	4	C18H11O+
246.0531	11	C16H8NO2+
250.0863	166	C16H12NO2+
264.1014	10	C17H14NO2+
