Mass spectrum: Methyl trans-styryl ketone; LC-ESI-QFT; MS2; CE: 30; R=17500; [M+H]+
Name: Methyl trans-styryl ketone
Name: Benzylideneacetone
Name: (E)-4-phenylbut-3-en-2-one
Formula: C10H10O
Exact mass: 146.0732
SMILES: CC(=O)\C=C\C1=CC=CC=C1
InChI: InChI=1S/C10H10O/c1-9(11)7-8-10-5-3-2-4-6-10/h2-8H,1H3/b8-7+
Instrument: Q Exactive Orbitrap (Thermo Scientific)
Instrument type: LC-ESI-QFT
Ms type: MS2
Ion mode: POSITIVE
Ionization: ESI
Fragmentation mode: HCD
Collision energy: 30
Resolution: 17500
Column name: Acquity BEH C18 1.7um, 2.1x150mm (Waters)
Retention time: 19.670 min
Base peak: 79.0211
Precursor m/z: 147.0804
Precursor type: [M+H]+
Precursor intensity: 2186853.96875
m/z	relative intensity	assigned
55.0179	7	C3H3O+
65.0386	3	C5H5+
69.0335	9	C4H5O+
79.0543	12	C6H7+
91.0543	199	C7H7+
93.0697	3	C7H9+
103.0544	6	C8H7+
104.0622	7	C8H8+
105.07	9	C8H9+
107.049	17	C7H7O+
115.0543	3	C9H7+
117.0699	83	C9H9+
119.0856	828	C9H11+
128.0622	9	C10H8+
129.0699	81	C10H9+
132.057	22	C9H8O+
145.0648	5	C10H9O+
147.0805	999	C10H11O+
