Mass spectrum: PharmaGSID_47330; LC-ESI-QFT; MS2; CE: 75; R=17500; [M+H]+
Name: PharmaGSID_47330
Name: Unii-gmy695BP6Q
Name: 3-fluoro-2-[2-fluoro-5-[3-(2-hydroxypropan-2-yl)imidazo[1,2-b][1,2,4]triazin-7-yl]phenyl]benzonitrile
Formula: C21H15F2N5O
Exact mass: 391.1245
SMILES: CC(C)(O)C1=NC2=NC=C(N2N=C1)C1=CC(=C(F)C=C1)C1=C(C=CC=C1F)C#N
InChI: InChI=1S/C21H15F2N5O/c1-21(2,29)18-11-26-28-17(10-25-20(28)27-18)12-6-7-15(22)14(8-12)19-13(9-24)4-3-5-16(19)23/h3-8,10-11,29H,1-2H3
Instrument: Q Exactive Orbitrap (Thermo Scientific)
Instrument type: LC-ESI-QFT
Ms type: MS2
Ion mode: POSITIVE
Ionization: ESI
Fragmentation mode: HCD
Collision energy: 75
Resolution: 17500
Column name: Acquity BEH C18 1.7um, 2.1x150mm (Waters)
Retention time: 17.091 min
Base peak: 79.0211
Precursor m/z: 392.1317
Precursor type: [M+H]+
Precursor intensity: 20988088.25
m/z	relative intensity	assigned
53.0023	5	C3HO+
54.0339	18	C3H4N+
55.0291	3	C2H3N2+
55.0417	16	C3H5N+
55.0543	1	C4H7+
56.0369	10	C2H4N2+
56.0495	9	C3H6N+
58.0651	1	C3H8N+
59.0492	74	C3H7O+
66.0338	2	C4H4N+
67.0291	10	C3H3N2+
67.0416	1	C4H5N+
68.0131	9	C3H2NO+
68.037	2	C3H4N2+
68.0495	25	C4H6N+
69.0335	13	C4H5O+
69.0448	9	C3H5N2+
69.0573	1	C4H7N+
70.0651	5	C4H8N+
80.0495	2	C5H6N+
81.0448	20	C4H5N2+
82.0526	8	C4H6N2+
83.0604	19	C4H7N2+
84.0446	1	C4H6NO+
95.024	23	C4H3N2O+
95.0604	1	C5H7N2+
96.0444	4	C5H6NO+
96.0557	13	C4H6N3+
97.0397	39	C4H5N2O+
98.0475	83	C4H6N2O+
108.0558	5	C5H6N3+
111.0555	3	C5H7N2O+
123.0553	1	C6H7N2O+
125.0349	4	C3H3N5O+
126.0424	8	C3H4N5O+
126.0663	7	C5H8N3O+
134.0404	1	C8H5FN+
181.0449	2	C13H6F+
183.0607	1	C13H8F+
188.0427	2	C12H6F2+
188.0498	2	C14H6N+
195.0479	2	C13H6FN+
196.0558	3	C13H7FN+
200.0431	1	C13H6F2+
201.0512	168	C13H7F2+
203.0542	1	C12H7F2N+
204.0378	3	C12H6F2O+
208.0559	251	C14H7FN+
212.0421	13	C14H6F2+
212.0518	2	C13H7FNO+
213.0384	6	C13H5F2N+
214.0463	2	C13H6F2N+
215.0539	15	C13H7F2N+
216.0611	12	C13H8F2N+
219.047	9	C10H5F2N4+
220.0558	4	C15H7FN+
221.0511	8	C14H6FN2+
222.0581	1	C9H6F2N5+
223.0669	5	C14H8FN2+
225.0506	1	C15H7F2+
226.0464	88	C14H6F2N+
227.0542	25	C14H7F2N+
228.0504	6	C13H6F2N2+
228.062	128	C14H8F2N+
233.0512	22	C15H6FN2+
233.0712	11	C15H9N2O+
234.059	77	C15H7FN2+
235.0667	84	C15H8FN2+
236.0621	2	C19H8+
237.0377	4	C15H5F2N+
238.0464	13	C15H6F2N+
239.0542	999	C15H7F2N+
240.0492	1	C14H6F2N2+
240.0626	14	C15H8F2N+
241.0572	48	C14H7F2N2+
242.0414	7	C14H6F2NO+
243.073	60	C14H9F2N2+
244.0572	7	C14H8F2NO+
247.0519	1	C15H6FN3+
247.0665	1	C16H8FN2+
248.0613	1	C15H7FN3+
251.0418	1	C15H5F2N2+
251.062	1	C15H8FN2O+
252.0494	3	C15H6F2N2+
252.0623	6	C16H8F2N+
253.0573	38	C15H7F2N2+
253.0711	4	C16H9F2N+
254.043	7	C15H6F2NO+
254.0651	83	C15H8F2N2+
255.0729	232	C15H9F2N2+
256.0569	143	C15H8F2NO+
258.0728	5	C15H10F2NO+
259.0539	4	C16H6FN3+
259.0676	2	C14H9F2N2O+
260.0751	1	C14H10F2N2O+
261.0698	2	C16H8FN3+
263.061	2	C11H7F2N5O+
264.0493	1	C16H6F2N2+
265.0571	15	C16H7F2N2+
266.0517	3	C15H6F2N3+
267.0732	8	C16H9F2N2+
268.0677	10	C15H8F2N3+
269.0522	3	C15H7F2N2O+
269.0759	3	C15H9F2N3+
270.0706	1	C14H8F2N4+
271.044	73	C18H6FNO+
273.0833	3	C15H11F2N2O+
278.0649	3	C17H8F2N2+
279.0567	3	C16H7F2N3+
279.0743	7	C17H9F2N2+
280.0681	129	C16H8F2N3+
281.0517	7	C16H7F2N2O+
281.0756	13	C16H9F2N3+
281.0901	1	C17H11F2N2+
282.0841	7	C21H11F+
283.0982	3	C18H11N4+
286.0645	5	C17H7FN4+
287.0729	13	C17H8FN4+
290.0528	2	C17H6F2N3+
293.0911	1	C18H11F2N2+
294.0843	9	C17H10F2N3+
295.0784	3	C16H9F2N4+
295.0944	3	C19H13F2O+
296.0629	2	C16H8F2N3O+
296.0866	7	C16H10F2N4+
296.1031	1	C19H14F2O+
301.0881	4	C18H10FN4+
307.0791	78	C17H9F2N4+
309.0942	1	C17H11F2N4+
321.0949	26	C18H11F2N4+
323.1106	4	C18H13F2N4+
331.0782	3	C19H9F2N4+
333.0935	1	C19H11F2N4+
337.1262	3	C19H15F2N4+
347.11	2	C20H13F2N4+
348.1058	9	C19H12F2N5+
349.0897	1	C19H11F2N4O+
358.0907	1	C20H10F2N5+
