Mass spectrum: Chrysin; LC-ESI-QFT; MS2; CE: 75; R=17500; [M+H]+
Name: Chrysin
Name: 5,7-dihydroxy-2-phenylchromen-4-one
Formula: C15H10O4
Exact mass: 254.0579
SMILES: OC1=CC2=C(C(O)=C1)C(=O)C=C(O2)C1=CC=CC=C1
InChI: InChI=1S/C15H10O4/c16-10-6-11(17)15-12(18)8-13(19-14(15)7-10)9-4-2-1-3-5-9/h1-8,16-17H
Instrument: Q Exactive Orbitrap (Thermo Scientific)
Instrument type: LC-ESI-QFT
Ms type: MS2
Ion mode: POSITIVE
Ionization: ESI
Fragmentation mode: HCD
Collision energy: 75
Resolution: 17500
Column name: Acquity BEH C18 1.7um, 2.1x150mm (Waters)
Retention time: 17.852 min
Base peak: 79.0212
Precursor m/z: 255.0652
Precursor type: [M+H]+
Precursor intensity: 2938773.0625
m/z	relative intensity	assigned
53.0386	25	C4H5+
67.0178	464	C4H3O+
68.997	450	C3HO2+
77.0384	4	C6H5+
81.0334	29	C5H5O+
83.0127	11	C4H3O2+
91.0178	31	C6H3O+
95.0491	76	C6H7O+
97.0284	38	C5H5O2+
103.0542	630	C8H7+
105.0335	220	C7H5O+
107.0127	12	C6H3O2+
109.0284	10	C6H5O2+
111.0077	33	C5H3O3+
115.0541	23	C9H7+
125.0234	28	C6H5O3+
127.0391	13	C6H7O3+
129.0183	42	C5H5O4+
129.0335	256	C9H5O+
141.0698	22	C11H9+
143.0339	9	C6H7O4+
145.0651	4	C10H9O+
147.044	156	C9H7O2+
149.0232	3	C8H5O3+
152.0621	122	C12H8+
153.0182	999	C7H5O4+
157.0649	6	C11H9O+
167.0491	10	C12H7O+
169.0644	19	C12H9O+
171.0429	23	C11H7O2+
181.0647	60	C13H9O+
186.0677	19	C12H10O2+
187.0756	30	C12H11O2+
199.0753	5	C13H11O2+
209.0596	73	C14H9O2+
213.0542	32	C13H9O3+
227.0701	7	C14H11O3+
231.065	8	C13H11O4+
237.0549	18	C15H9O3+
255.0651	612	C15H11O4+
