Mass spectrum: Fluazifop-P-butyl; LC-ESI-QFT; MS2; CE: 90; R=17500; [M+H]+
Name: Fluazifop-P-butyl
Name: butyl (2R)-2-[4-[5-(trifluoromethyl)pyridin-2-yl]oxyphenoxy]propanoate
Formula: C19H20F3NO4
Exact mass: 383.1344
SMILES: CCCCOC(=O)[C@@H](C)OC1=CC=C(OC2=CC=C(C=N2)C(F)(F)F)C=C1
InChI: InChI=1S/C19H20F3NO4/c1-3-4-11-25-18(24)13(2)26-15-6-8-16(9-7-15)27-17-10-5-14(12-23-17)19(20,21)22/h5-10,12-13H,3-4,11H2,1-2H3/t13-/m1/s1
Instrument: Q Exactive Orbitrap (Thermo Scientific)
Instrument type: LC-ESI-QFT
Ms type: MS2
Ion mode: POSITIVE
Ionization: ESI
Fragmentation mode: HCD
Collision energy: 90
Resolution: 17500
Column name: Acquity BEH C18 1.7um, 2.1x150mm (Waters)
Retention time: 19.276 min
Base peak: 79.0211
Precursor m/z: 384.1417
Precursor type: [M+H]+
Precursor intensity: 25089667.25
m/z	relative intensity	assigned
51.023	1	C4H3+
53.0022	47	C3HO+
53.0387	12	C4H5+
53.9975	6	C2NO+
55.0178	23	C3H3O+
55.0543	5	C4H7+
57.0699	29	C4H9+
62.0151	3	C5H2+
63.0229	42	C5H3+
64.0307	13	C5H4+
65.0386	848	C5H5+
66.0464	5	C5H6+
67.0543	2	C5H7+
68.9971	2	C3HO2+
73.0284	6	C3H5O2+
75.0041	29	C3HF2+
75.0229	69	C6H3+
77.0386	7	C6H5+
78.0339	10	C5H4N+
79.0542	9	C6H7+
81.0335	18	C5H5O+
89.0386	6	C7H5+
90.0464	10	C7H6+
91.0543	999	C7H7+
92.0257	33	C6H4O+
92.0621	6	C7H8+
93.0336	7	C6H5O+
93.07	3	C7H9+
94.0286	2	C5H4NO+
94.0414	28	C6H6O+
95.0492	31	C6H7O+
96.0444	3	C5H6NO+
99.0041	17	C5HF2+
103.0229	3	C4H3F2N+
103.0542	24	C8H7+
104.0131	51	C6H2NO+
105.0447	10	FH8NO4+
105.0699	2	C8H9+
107.0104	3	C4H2F3+
107.0492	10	C7H7O+
109.0284	10	C6H5O2+
109.0649	3	C7H9O+
110.0362	13	C6H6O2+
111.0441	18	C6H7O2+
114.0351	5	C5H5FNO+
115.0544	10	C9H7+
116.0307	5	C5H4F2N+
117.0147	2	C5H3F2O+
117.0572	16	C8H7N+
118.065	4	C8H8N+
119.0493	13	C8H7O+
120.0444	12	C7H6NO+
120.0569	4	C8H8O+
121.0286	18	C7H5O2+
121.0648	5	C8H9O+
124.0195	19	C6H3FNO+
126.015	23	C6H2F2N+
127.0228	20	C6H3F2N+
128.007	4	C6H2F2O+
130.0652	52	C9H8N+
131.0492	125	C9H7O+
133.0448	27	C9H6F+
133.0521	8	C8H7NO+
134.0599	3	C8H8NO+
135.0291	4	C5H4F3N+
136.013	2	C5H3F3O+
139.0354	4	C8H5F2+
140.0308	4	C7H4F2N+
140.0495	43	C10H6N+
141.0573	347	C10H7N+
142.0413	9	C10H6O+
142.0649	6	C10H8N+
143.0293	7	C10H4F+
143.0727	2	C10H9N+
144.0255	10	C6H4F2NO+
145.0334	22	C6H5F2NO+
146.0213	67	C6H3F3N+
146.0603	3	C9H8NO+
147.0293	17	C6H4F3N+
147.0354	3	C2H7F2NO4+
148.037	16	C6H5F3N+
150.0474	2	C9H7FO+
151.0354	12	C9H5F2+
152.0432	13	C9H6F2+
156.0807	6	C11H10N+
157.0522	6	C10H7NO+
157.0885	5	C11H11N+
158.0601	81	C10H8NO+
159.048	12	C10H6FN+
159.0604	2	C11H8F+
159.0675	2	C10H9NO+
160.0558	7	C10H7FN+
161.045	6	C7H6F3N+
163.0241	15	C6H4F3NO+
163.0355	9	C10H5F2+
164.0318	398	C6H5F3NO+
166.0654	10	C12H8N+
167.073	28	C12H9N+
168.0444	88	C11H6NO+
169.0522	36	C11H7NO+
170.0402	14	C11H5FN+
170.0601	5	C11H8NO+
172.0369	11	C8H5F3N+
173.0514	2	C4H9F2NO4+
176.0318	2	C7H5F3NO+
177.0584	7	C10H8FNO+
178.0472	26	C7H7F3NO+
179.0189	136	C6H4F3NO2+
180.0382	38	C10H6F2O+
181.0458	12	C10H7F2O+
182.0336	6	C10H5F3+
182.0415	7	C9H6F2NO+
183.0418	9	C10H6F3+
184.0372	7	C9H5F3N+
184.0758	4	C12H10NO+
185.045	37	C9H6F3N+
185.0636	3	C12H8FN+
186.0547	16	C11H8NO2+
186.071	3	C12H9FN+
187.0431	9	C11H6FNO+
188.0508	57	C11H7FNO+
189.0383	12	C11H5F2N+
190.0463	109	C11H6F2N+
191.0416	20	C4H8F3NO4+
194.0595	1	C13H8NO+
196.0562	5	C13H7FN+
197.045	1	C10H6F3N+
198.0351	7	C12H5FNO+
198.0528	79	C10H7F3N+
199.0365	5	C10H6F3O+
199.0603	5	C10H8F3N+
200.0317	5	C9H5F3NO+
200.0435	3	C13H6F2+
201.0419	27	C11H7NO3+
202.0477	16	C9H7F3NO+
206.0413	8	C11H6F2NO+
207.0493	16	C11H7F2NO+
208.0569	12	C11H8F2NO+
209.0447	64	C11H6F3N+
210.0525	29	C11H7F3N+
211.0603	26	C11H8F3N+
212.0316	3	C10H5F3NO+
212.0698	4	C13H10NO2+
216.062	5	C13H8F2N+
218.0413	127	C12H6F2NO+
222.0523	3	C12H7F3N+
224.0678	2	C12H9F3N+
225.0398	3	C11H6F3NO+
226.0475	39	C11H7F3NO+
227.0553	72	C11H8F3NO+
234.0359	14	C12H6F2NO2+
235.0604	17	C13H8F3N+
236.0318	6	C12H5F3NO+
236.0681	4	C13H9F3N+
237.0399	3	C12H6F3NO+
238.0475	232	C12H7F3NO+
254.0424	239	C12H7F3NO2+
256.0585	3	C12H9F3NO2+
269.0293	3	C12H6F3NO3+
