Mass spectrum: N-(4-Methoxyphenyl)-3-oxobutanamide; LC-ESI-QFT; MS2; CE: 45; R=17500; [M+H]+
Name: N-(4-Methoxyphenyl)-3-oxobutanamide
Name: 4'-Methoxyacetoacetanilide
Formula: C11H13NO3
Exact mass: 207.0895
SMILES: COC1=CC=C(NC(=O)CC(C)=O)C=C1
InChI: InChI=1S/C11H13NO3/c1-8(13)7-11(14)12-9-3-5-10(15-2)6-4-9/h3-6H,7H2,1-2H3,(H,12,14)
Instrument: Q Exactive Orbitrap (Thermo Scientific)
Instrument type: LC-ESI-QFT
Ms type: MS2
Ion mode: POSITIVE
Ionization: ESI
Fragmentation mode: HCD
Collision energy: 45
Resolution: 17500
Column name: Acquity BEH C18 1.7um, 2.1x150mm (Waters)
Retention time: 12.857 min
Base peak: 79.0211
Precursor m/z: 208.0968
Precursor type: [M+H]+
Precursor intensity: 1725842.125
m/z	relative intensity	assigned
59.0491	91	C3H7O+
65.0387	1	C5H5+
85.0284	85	C4H5O2+
92.0495	32	C6H6N+
93.0574	32	C6H7N+
109.0522	20	C6H7NO+
121.0649	6	C8H9O+
122.0601	145	C7H8NO+
123.0679	5	C7H9NO+
124.0758	999	C7H10NO+
148.0757	68	C9H10NO+
150.0551	99	C8H8NO2+
166.0865	2	C9H12NO2+
190.0866	27	C11H12NO2+
208.0969	7	C11H14NO3+
