Mass spectrum: 1,3-Diphenylguanidine; LC-ESI-QFT; MS2; CE: 15; R=17500; [M+H]+
Name: 1,3-Diphenylguanidine
Name: 1,2-diphenylguanidine
Formula: C13H13N3
Exact mass: 211.1109
SMILES: N=C(NC1=CC=CC=C1)NC1=CC=CC=C1
InChI: InChI=1S/C13H13N3/c14-13(15-11-7-3-1-4-8-11)16-12-9-5-2-6-10-12/h1-10H,(H3,14,15,16)
Instrument: Q Exactive Orbitrap (Thermo Scientific)
Instrument type: LC-ESI-QFT
Ms type: MS2
Ion mode: POSITIVE
Ionization: ESI
Fragmentation mode: HCD
Collision energy: 15
Resolution: 17500
Column name: Acquity BEH C18 1.7um, 2.1x150mm (Waters)
Retention time: 11.652 min
Base peak: 79.0211
Precursor m/z: 212.1182
Precursor type: [M+H]+
Precursor intensity: 57153241.9375
m/z	relative intensity	assigned
77.0388	2	C6H5+
93.0576	1	C6H7N+
94.0651	50	C6H8N+
119.0604	49	C7H7N2+
195.0918	21	C13H11N2+
212.118	999	C13H14N3+
