Mass spectrum: Aziprotryne; LC-ESI-QFT; MS2; CE: 30; R=17500; [M+H]+
Name: Aziprotryne
Name: 4-azido-6-methylsulfanyl-N-propan-2-yl-1,3,5-triazin-2-amine
Formula: C7H11N7S
Exact mass: 225.0797
SMILES: CSC1=NC(NC(C)C)=NC(N=[N+]=[N-])=N1
InChI: InChI=1S/C7H11N7S/c1-4(2)9-5-10-6(13-14-8)12-7(11-5)15-3/h4H,1-3H3,(H,9,10,11,12)
Instrument: Q Exactive Orbitrap (Thermo Scientific)
Instrument type: LC-ESI-QFT
Ms type: MS2
Ion mode: POSITIVE
Ionization: ESI
Fragmentation mode: HCD
Collision energy: 30
Resolution: 17500
Column name: Acquity BEH C18 1.7um, 2.1x150mm (Waters)
Retention time: 17.808 min
Base peak: 79.0212
Precursor m/z: 226.0869
Precursor type: [M+H]+
Precursor intensity: 11934666.59375
m/z	relative intensity	assigned
55.0291	6	C2H3N2+
56.0495	22	C3H6N+
58.0651	342	C3H8N+
61.0106	2	C2H5S+
62.0059	3	CH4NS+
68.0243	160	C2H2N3+
71.0603	5	C3H7N2+
74.0058	43	C2H4NS+
82.0401	1	C3H4N3+
83.0604	316	C4H7N2+
84.0557	2	C3H6N3+
85.0761	18	C4H9N2+
89.0168	173	C2H5N2S+
91.0325	19	C2H7N2S+
93.0196	1	C3HN4+
96.0557	5	C4H6N3+
99.0012	74	C3H3N2S+
103.0325	6	C3H7N2S+
108.0305	5	C3H2N5+
108.0556	23	C5H6N3+
110.0462	29	C3H4N5+
110.0713	17	C5H8N3+
112.087	8	C5H10N3+
114.0121	161	C3H4N3S+
116.0278	32	C3H6N3S+
125.0822	514	C5H9N4+
126.0665	1	C3H6N6+
131.0639	2	C5H11N2S+
136.0618	5	C5H6N5+
139.007	1	C4H3N4S+
141.0104	16	C3H3N5S+
141.023	73	C4H5N4S+
147.9965	1	C6H2N3S+
150.0775	97	C6H8N5+
152.0931	51	C6H10N5+
155.0386	2	C5H7N4S+
156.0339	999	C4H6N5S+
158.0496	4	C4H8N5S+
166.0075	21	C4H2N6S+
168.0339	24	C5H6N5S+
170.0499	1	C5H8N5S+
171.0697	11	C6H11N4S+
180.0234	4	C5H4N6S+
182.0496	3	C6H8N5S+
183.0575	28	C6H9N5S+
198.0809	182	C7H12N5S+
226.0871	115	C7H12N7S+
