Mass spectrum: Piperine; LC-ESI-QFT; MS2; CE: 30; R=17500; [M+H]+
Name: Piperine
Name: (2E,4E)-5-(1,3-benzodioxol-5-yl)-1-piperidin-1-ylpenta-2,4-dien-1-one
Formula: C17H19NO3
Exact mass: 285.1365
SMILES: O=C(\C=C\C=C\C1=CC=C2OCOC2=C1)N1CCCCC1
InChI: InChI=1S/C17H19NO3/c19-17(18-10-4-1-5-11-18)7-3-2-6-14-8-9-15-16(12-14)21-13-20-15/h2-3,6-9,12H,1,4-5,10-11,13H2/b6-2+,7-3+
Instrument: Q Exactive Orbitrap (Thermo Scientific)
Instrument type: LC-ESI-QFT
Ms type: MS2
Ion mode: POSITIVE
Ionization: ESI
Fragmentation mode: HCD
Collision energy: 30
Resolution: 17500
Column name: Acquity BEH C18 1.7um, 2.1x150mm (Waters)
Retention time: 17.758 min
Base peak: 79.0211
Precursor m/z: 286.1438
Precursor type: [M+H]+
Precursor intensity: 35208201.5
m/z	relative intensity	assigned
69.0698	17	C5H9+
84.0808	34	C5H10N+
86.0964	29	C5H12N+
112.0756	73	C6H10NO+
114.0913	1	C6H12NO+
115.0538	7	C9H7+
134.0963	2	C9H12N+
135.044	155	C8H7O2+
143.0492	9	C10H7O+
150.0912	6	C9H12NO+
151.0991	13	C9H13NO+
159.044	5	C10H7O2+
161.0598	2	C10H9O2+
171.044	17	C11H7O2+
173.0597	27	C11H9O2+
175.0754	1	C11H11O2+
185.0964	4	C13H13O+
201.0545	999	C12H9O3+
203.0703	2	C12H11O3+
215.1068	6	C14H15O2+
218.1179	1	C13H16NO2+
232.1329	1	C14H18NO2+
258.1489	1	C16H20NO2+
286.1436	584	C17H20NO3+
