Mass spectrum: Nootkatone; LC-ESI-QFT; MS2; CE: 45; R=17500; [M+H]+
Name: Nootkatone
Name: (4R,4aS,6R)-4,4a-dimethyl-6-prop-1-en-2-yl-3,4,5,6,7,8-hexahydronaphthalen-2-one
Formula: C15H22O
Exact mass: 218.1671
SMILES: C[C@@H]1CC(=O)C=C2CC[C@H](C[C@@]12C)C(C)=C
InChI: InChI=1S/C15H22O/c1-10(2)12-5-6-13-8-14(16)7-11(3)15(13,4)9-12/h8,11-12H,1,5-7,9H2,2-4H3/t11-,12-,15+/m1/s1
Instrument: Q Exactive Orbitrap (Thermo Scientific)
Instrument type: LC-ESI-QFT
Ms type: MS2
Ion mode: POSITIVE
Ionization: ESI
Fragmentation mode: HCD
Collision energy: 45
Resolution: 17500
Column name: Acquity BEH C18 1.7um, 2.1x150mm (Waters)
Retention time: 19.073 min
Base peak: 79.0211
Precursor m/z: 219.1743
Precursor type: [M+H]+
Precursor intensity: 8193319.9375
m/z	relative intensity	assigned
53.0022	4	C3HO+
53.0386	7	C4H5+
55.0178	23	C3H3O+
55.0542	71	C4H7+
57.0334	9	C3H5O+
57.0698	34	C4H9+
65.0385	3	C5H5+
67.0542	196	C5H7+
69.0334	167	C4H5O+
69.0698	214	C5H9+
71.049	8	C4H7O+
77.0383	5	C6H5+
79.0542	119	C6H7+
81.0699	927	C6H9+
83.0491	34	C5H7O+
83.0855	120	C6H11+
85.0648	11	C5H9O+
91.0541	47	C7H7+
93.0699	358	C7H9+
95.0491	28	C6H7O+
95.0855	435	C7H11+
97.0648	326	C6H9O+
97.1012	17	C7H13+
99.0805	4	C6H11O+
105.0698	125	C8H9+
107.0491	29	C7H7O+
107.0855	334	C8H11+
109.0648	87	C7H9O+
109.1012	415	C8H13+
111.0804	496	C7H11O+
117.0697	37	C9H9+
119.0855	233	C9H11+
121.0647	112	C8H9O+
121.1011	310	C9H13+
123.0804	157	C8H11O+
123.1168	373	C9H15+
125.096	80	C8H13O+
129.0698	3	C10H9+
130.0777	6	C10H10+
131.0855	92	C10H11+
133.1011	107	C10H13+
135.0804	257	C9H11O+
135.1167	220	C10H15+
137.096	196	C9H13O+
138.1039	7	C9H14O+
139.1117	20	C9H15O+
143.0856	6	C11H11+
144.0934	6	C11H12+
145.1011	263	C11H13+
146.1088	5	C11H14+
147.0803	9	C10H11O+
147.1167	36	C11H15+
148.0882	5	C10H12O+
149.096	463	C10H13O+
149.1323	92	C11H17+
150.1038	9	C10H14O+
151.1117	43	C10H15O+
157.1011	11	C12H13+
159.1168	200	C12H15+
161.096	43	C11H13O+
161.1324	223	C12H17+
162.1037	12	C11H14O+
163.1116	999	C11H15O+
164.1193	5	C11H16O+
173.1324	56	C13H17+
175.1115	4	C12H15O+
175.1481	77	C13H19+
176.1196	88	C12H16O+
177.1273	102	C12H17O+
177.1637	57	C13H21+
189.1273	7	C13H17O+
190.1351	4	C13H18O+
191.1428	3	C13H19O+
191.1794	13	C14H23+
201.1638	130	C15H21+
204.1508	16	C14H20O+
219.1743	869	C15H23O+
