Mass spectrum: 2,5-dihydroxybenzenesulfonate; LC-ESI-QFT; MS2; CE: 30; R=17500; [M-H]-
Name: 2,5-dihydroxybenzenesulfonate
Name: 2,5-dihydroxybenzenesulfonic acid
Formula: C6H6O5S
Exact mass: 189.9936
SMILES: OC1=CC=C(O)C(=C1)S(O)(=O)=O
InChI: InChI=1S/C6H6O5S/c7-4-1-2-5(8)6(3-4)12(9,10)11/h1-3,7-8H,(H,9,10,11)
Instrument: Q Exactive Orbitrap (Thermo Scientific)
Instrument type: LC-ESI-QFT
Ms type: MS2
Ion mode: NEGATIVE
Ionization: ESI
Fragmentation mode: HCD
Collision energy: 30
Resolution: 17500
Column name: Acquity BEH C18 1.7um, 2.1x150mm (Waters)
Retention time: 3.325 min
Base peak: 198.9364
Precursor m/z: 188.9863
Precursor type: [M-H]-
Precursor intensity: 2290783.191162
m/z	relative intensity	assigned
79.9573	42	O3S-
80.9652	53	HO3S-
95.014	3	C5H3O2-
109.0294	8	C6H5O2-
123.0088	23	C6H3O3-
125.0242	2	C6H5O3-
188.9864	999	C6H5O5S-
