Mass spectrum: N-(4-Methoxyphenyl)-3-oxobutanamide; LC-ESI-QFT; MS2; CE: 15; R=17500; [M+H]+
Name: N-(4-Methoxyphenyl)-3-oxobutanamide
Name: 4'-Methoxyacetoacetanilide
Formula: C11H13NO3
Exact mass: 207.0895
SMILES: COC1=CC=C(NC(=O)CC(C)=O)C=C1
InChI: InChI=1S/C11H13NO3/c1-8(13)7-11(14)12-9-3-5-10(15-2)6-4-9/h3-6H,7H2,1-2H3,(H,12,14)
Instrument: Q Exactive Orbitrap (Thermo Scientific)
Instrument type: LC-ESI-QFT
Ms type: MS2
Ion mode: POSITIVE
Ionization: ESI
Fragmentation mode: HCD
Collision energy: 15
Resolution: 17500
Column name: Acquity BEH C18 1.7um, 2.1x150mm (Waters)
Retention time: 12.857 min
Base peak: 79.0211
Precursor m/z: 208.0968
Precursor type: [M+H]+
Precursor intensity: 2040895.625
m/z	relative intensity	assigned
59.0492	92	C3H7O+
85.0284	30	C4H5O2+
103.0391	2	C4H7O3+
122.0602	16	C7H8NO+
124.0758	999	C7H10NO+
148.0757	21	C9H10NO+
150.0551	198	C8H8NO2+
166.087	2	C9H12NO2+
182.0813	2	C9H12NO3+
190.0863	105	C11H12NO2+
208.097	312	C11H14NO3+
