Mass spectrum: 4-Methoxyaniline; LC-ESI-QFT; MS2; CE: 90; R=17500; [M+H]+
Name: 4-Methoxyaniline
Name: p-Anisidine
Formula: C7H9NO
Exact mass: 123.0684
SMILES: COC1=CC=C(N)C=C1
InChI: InChI=1S/C7H9NO/c1-9-7-4-2-6(8)3-5-7/h2-5H,8H2,1H3
Instrument: Q Exactive Orbitrap (Thermo Scientific)
Instrument type: LC-ESI-QFT
Ms type: MS2
Ion mode: POSITIVE
Ionization: ESI
Fragmentation mode: HCD
Collision energy: 90
Resolution: 17500
Column name: Acquity BEH C18 1.7um, 2.1x150mm (Waters)
Retention time: 3.938 min
Base peak: 79.0211
Precursor m/z: 124.0757
Precursor type: [M+H]+
Precursor intensity: 4599702.390625
m/z	relative intensity	assigned
50.0152	3	C4H2+
53.0386	53	C4H5+
55.018	2	C3H3O+
63.0229	15	C5H3+
64.0307	18	C5H4+
65.0386	145	C5H5+
66.0464	34	C5H6+
67.0542	4	C5H7+
68.0494	2	C4H6N+
77.0385	35	C6H5+
78.0338	2	C5H4N+
78.0466	3	C6H6+
79.0542	18	C6H7+
80.0495	154	C5H6N+
81.0573	343	C5H7N+
82.0413	2	C5H6O+
92.0257	277	C6H4O+
92.0495	184	C6H6N+
93.0573	999	C6H7N+
94.0651	9	C6H8N+
95.0491	176	C6H7O+
96.0444	16	C5H6NO+
97.0648	3	C6H9O+
108.0444	66	C6H6NO+
109.0523	214	C6H7NO+
110.0601	13	C6H8NO+
123.0679	20	C7H9NO+
124.0757	70	C7H10NO+
