Mass spectrum: Pentaethylene glycol; LC-ESI-QFT; MS2; CE: 15; R=17500; [M+H]+
Name: Pentaethylene glycol
Name: 2-[2-[2-[2-(2-hydroxyethoxy)ethoxy]ethoxy]ethoxy]ethanol
Formula: C10H22O6
Exact mass: 238.1416
SMILES: OCCOCCOCCOCCOCCO
InChI: InChI=1S/C10H22O6/c11-1-3-13-5-7-15-9-10-16-8-6-14-4-2-12/h11-12H,1-10H2
Instrument: Q Exactive Orbitrap (Thermo Scientific)
Instrument type: LC-ESI-QFT
Ms type: MS2
Ion mode: POSITIVE
Ionization: ESI
Fragmentation mode: HCD
Collision energy: 15
Resolution: 17500
Column name: Acquity BEH C18 1.7um, 2.1x150mm (Waters)
Retention time: 12.679 min
Base peak: 79.0211
Precursor m/z: 239.1489
Precursor type: [M+H]+
Precursor intensity: 33014829
m/z	relative intensity	assigned
166.0976	3	C10H14O2+
167.1044	2	C10H15O2+
195.1605	49	C9H23O4+
239.1502	999	C10H23O6+
