Mass spectrum: PharmaGSID_48507; LC-ESI-QFT; MS2; CE: 45; R=17500; [M+H]+
Name: PharmaGSID_48507
Name: 5-(2,4-Difluorophenoxy)-2-[(2-hydroxy-2-methylpropyl)amino]-8-methylpyrido[2,3-d]pyrimidin-7(8H)-one
Formula: C18H18F2N4O3
Exact mass: 376.1347
SMILES: CN1C(=O)C=C(OC2=C(F)C=C(F)C=C2)C2=C1N=C(NCC(C)(C)O)N=C2
InChI: InChI=1S/C18H18F2N4O3/c1-18(2,26)9-22-17-21-8-11-14(7-15(25)24(3)16(11)23-17)27-13-5-4-10(19)6-12(13)20/h4-8,26H,9H2,1-3H3,(H,21,22,23)
Instrument: Q Exactive Orbitrap (Thermo Scientific)
Instrument type: LC-ESI-QFT
Ms type: MS2
Ion mode: POSITIVE
Ionization: ESI
Fragmentation mode: HCD
Collision energy: 45
Resolution: 17500
Column name: Acquity BEH C18 1.7um, 2.1x150mm (Waters)
Retention time: 16.626 min
Base peak: 79.0211
Precursor m/z: 377.142
Precursor type: [M+H]+
Precursor intensity: 23602433.75
m/z	relative intensity	assigned
53.0386	6	C4H5+
55.0542	157	C4H7+
95.0479	1	C4H5N3+
127.0354	10	C7H5F2+
135.0664	3	C6H7N4+
141.0147	52	C7H3F2O+
147.0669	2	C7H7N4+
163.0614	80	C7H7N4O+
166.065	5	C7H7FN4+
175.0615	1	C8H7N4O+
176.0695	1	C8H8N4O+
176.0818	2	C9H10N3O+
177.0406	1	C7H5N4O2+
177.0771	2	C8H9N4O+
178.0647	4	C8H7FN4+
178.1214	3	C9H14N4+
180.0442	61	C7H5FN4O+
181.0518	3	C7H6FN4O+
187.0978	1	C10H11N4+
189.0773	3	C9H9N4O+
189.1133	3	C10H13N4+
190.0977	1	C10H12N3O+
191.0563	33	C8H7N4O2+
200.082	2	C11H10N3O+
201.0771	5	C10H9N4O+
201.1137	2	C11H13N4+
202.085	8	C10H10N4O+
202.121	3	C11H14N4+
210.0547	1	C8H7FN4O2+
213.1135	49	C12H13N4+
214.0851	1	C11H10N4O+
215.0927	261	C11H11N4O+
217.1084	37	C11H13N4O+
218.1164	3	C11H14N4O+
229.1084	18	C12H13N4O+
230.1162	11	C12H14N4O+
231.0872	1	C11H11N4O2+
245.0636	1	C17H8FN+
260.0863	3	C13H10F2N4+
263.1142	1	C12H15N4O3+
275.0737	5	C13H9F2N4O+
284.0705	7	C14H9FN4O2+
285.0782	52	C14H10FN4O2+
287.0739	18	C14H9F2N4O+
288.0592	1	C16H10F2O3+
303.0689	198	C14H9F2N4O2+
304.0767	780	C14H10F2N4O2+
305.0844	239	C14H11F2N4O2+
317.0846	107	C15H11F2N4O2+
318.1052	12	C16H14F2N3O2+
327.0815	2	C17H11F2N3O2+
329.0844	17	C16H11F2N4O2+
331.1015	4	C18H15F2NO3+
331.1365	7	C17H17F2N4O+
342.105	17	C18H14F2N3O2+
343.1001	6	C17H13F2N4O2+
359.1314	999	C18H17F2N4O2+
377.1418	9	C18H19F2N4O3+
