Mass spectrum: Piperine; LC-ESI-QFT; MS2; CE: 75; R=17500; [M+H]+
Name: Piperine
Name: (2E,4E)-5-(1,3-benzodioxol-5-yl)-1-piperidin-1-ylpenta-2,4-dien-1-one
Formula: C17H19NO3
Exact mass: 285.1365
SMILES: O=C(\C=C\C=C\C1=CC=C2OCOC2=C1)N1CCCCC1
InChI: InChI=1S/C17H19NO3/c19-17(18-10-4-1-5-11-18)7-3-2-6-14-8-9-15-16(12-14)21-13-20-15/h2-3,6-9,12H,1,4-5,10-11,13H2/b6-2+,7-3+
Instrument: Q Exactive Orbitrap (Thermo Scientific)
Instrument type: LC-ESI-QFT
Ms type: MS2
Ion mode: POSITIVE
Ionization: ESI
Fragmentation mode: HCD
Collision energy: 75
Resolution: 17500
Column name: Acquity BEH C18 1.7um, 2.1x150mm (Waters)
Retention time: 17.758 min
Base peak: 79.0211
Precursor m/z: 286.1438
Precursor type: [M+H]+
Precursor intensity: 35712712.5
m/z	relative intensity	assigned
51.023	1	C4H3+
53.0022	6	C3HO+
53.0386	4	C4H5+
55.0178	5	C3H3O+
55.0542	1	C4H7+
56.0495	1	C3H6N+
65.0384	1	C5H5+
67.0542	5	C5H7+
69.0698	85	C5H9+
70.0287	1	C3H4NO+
70.0651	3	C4H8N+
77.0385	9	C6H5+
79.0178	2	C5H3O+
79.0542	32	C6H7+
80.0494	3	C5H6N+
81.0573	9	C5H7N+
84.0808	20	C5H10N+
86.0964	16	C5H12N+
89.0386	4	C7H5+
91.0543	6	C7H7+
94.0651	2	C6H8N+
95.0491	20	C6H7O+
103.0542	35	C8H7+
105.0335	15	C7H5O+
107.0494	1	C7H7O+
109.0523	1	C6H7NO+
112.0758	10	C6H10NO+
114.0464	1	C9H6+
115.0542	999	C9H7+
117.0334	3	C8H5O+
117.0698	25	C9H9+
122.0964	8	C8H12N+
127.054	5	C10H7+
129.0697	1	C10H9+
131.0492	6	C9H7O+
133.0648	1	C9H9O+
134.0964	5	C9H12N+
135.044	260	C8H7O2+
136.0758	1	C8H10NO+
142.0775	1	C11H10+
143.0492	348	C10H7O+
145.0647	12	C10H9O+
147.0439	1	C9H7O2+
150.0915	5	C9H12NO+
151.0992	13	C9H13NO+
157.065	1	C11H9O+
157.1012	1	C12H13+
159.0441	55	C10H7O2+
161.0596	6	C10H9O2+
171.0441	130	C11H7O2+
172.0518	2	C11H8O2+
173.0597	27	C11H9O2+
175.0757	1	C11H11O2+
189.055	1	C11H9O3+
201.0546	78	C12H9O3+
