Mass spectrum: Mepanipyrim; LC-ESI-QFT; MS2; CE: 90; R=17500; [M+H]+
Name: Mepanipyrim
Name: 4-methyl-N-phenyl-6-prop-1-ynylpyrimidin-2-amine
Formula: C14H13N3
Exact mass: 223.1109
SMILES: CC#CC1=CC(C)=NC(NC2=CC=CC=C2)=N1
InChI: InChI=1S/C14H13N3/c1-3-7-13-10-11(2)15-14(17-13)16-12-8-5-4-6-9-12/h4-6,8-10H,1-2H3,(H,15,16,17)
Instrument: Q Exactive Orbitrap (Thermo Scientific)
Instrument type: LC-ESI-QFT
Ms type: MS2
Ion mode: POSITIVE
Ionization: ESI
Fragmentation mode: HCD
Collision energy: 90
Resolution: 17500
Column name: Acquity BEH C18 1.7um, 2.1x150mm (Waters)
Retention time: 17.957 min
Base peak: 79.0211
Precursor m/z: 224.1182
Precursor type: [M+H]+
Precursor intensity: 45172692.3125
m/z	relative intensity	assigned
51.023	7	C4H3+
53.0386	305	C4H5+
54.0338	29	C3H4N+
55.0542	4	C4H7+
56.0495	8	C3H6N+
63.0229	185	C5H3+
65.0386	232	C5H5+
66.0338	484	C4H4N+
66.0464	30	C5H6+
67.0291	250	C3H3N2+
67.0416	54	C4H5N+
67.0542	63	C5H7+
68.0495	12	C4H6N+
70.0651	3	C4H8N+
77.0386	330	C6H5+
78.0338	32	C5H4N+
78.0464	54	C6H6+
79.0542	555	C6H7+
80.0495	215	C5H6N+
81.0448	4	C4H5N2+
81.0573	24	C5H7N+
81.0701	5	C6H9+
82.0525	9	C4H6N2+
82.0652	17	C5H8N+
89.0386	72	C7H5+
90.0339	173	C6H4N+
91.0291	13	C5H3N2+
91.0418	42	C6H5N+
91.0543	87	C7H7+
92.0495	142	C6H6N+
93.0448	11	C5H5N2+
93.0573	147	C6H7N+
94.0414	38	C4H4N3+
94.0652	249	C6H8N+
95.0492	999	C4H5N3+
103.0417	30	C7H5N+
103.0542	5	C8H7+
104.0495	427	C7H6N+
105.0448	400	C6H5N2+
105.0573	21	C7H7N+
106.0651	763	C7H8N+
107.0604	55	C6H7N2+
107.073	18	C7H9N+
109.0648	9	C5H7N3+
114.0339	9	C8H4N+
115.0543	183	C9H7+
116.0495	82	C8H6N+
117.0573	47	C8H7N+
118.0527	16	C7H6N2+
118.0651	68	C8H8N+
119.0604	216	C7H7N2+
120.0681	7	C7H8N2+
121.076	76	C7H9N2+
128.0494	21	C9H6N+
128.0623	18	C10H8+
129.0447	17	C8H5N2+
129.0574	10	C9H7N+
129.0699	17	C10H9+
130.04	28	C7H4N3+
130.0526	10	C8H6N2+
130.0651	32	C9H8N+
131.0604	127	C8H7N2+
132.0683	36	C8H8N2+
132.0807	19	C9H10N+
133.0886	17	C9H11N+
139.0542	35	C11H7+
140.0495	139	C10H6N+
141.0573	40	C10H7N+
141.0697	6	C11H9+
142.0652	81	C10H8N+
143.0604	170	C9H7N2+
143.073	23	C10H9N+
144.0808	3	C10H10N+
145.0647	11	C8H7N3+
146.0712	23	C8H8N3+
147.0792	36	C8H9N3+
148.0871	7	C8H10N3+
152.0622	60	C12H8+
153.0698	21	C12H9+
154.0651	36	C11H8N+
155.0606	23	C10H7N2+
155.0728	8	C11H9N+
156.0685	14	C10H8N2+
156.0808	21	C11H10N+
157.0761	21	C10H9N2+
157.0886	5	C11H11N+
158.0839	8	C10H10N2+
159.0917	11	C10H11N2+
163.0541	6	C13H7+
164.0495	16	C12H6N+
165.0573	19	C12H7N+
165.07	3	C13H9+
166.0653	32	C12H8N+
167.0608	24	C11H7N2+
167.073	49	C12H9N+
168.0682	125	C11H8N2+
169.0642	24	C10H7N3+
169.0759	15	C11H9N2+
170.0963	3	C12H12N+
178.0651	30	C13H8N+
179.0606	12	C12H7N2+
179.073	58	C13H9N+
180.0807	78	C13H10N+
181.076	193	C12H9N2+
182.084	132	C12H10N2+
183.0792	23	C11H9N3+
183.0917	45	C12H11N2+
184.0868	21	C11H10N3+
190.0649	17	C14H8N+
191.0605	18	C13H7N2+
191.0727	9	C14H9N+
192.0682	108	C13H8N2+
193.0762	10	C13H9N2+
194.0714	9	C12H8N3+
194.0838	5	C13H10N2+
195.0918	41	C13H11N2+
196.0868	3	C12H10N3+
196.0994	10	C13H12N2+
197.0955	3	C12H11N3+
197.1072	3	C13H13N2+
205.0761	317	C14H9N2+
206.0839	178	C14H10N2+
207.0792	27	C13H9N3+
207.0917	40	C14H11N2+
208.0871	118	C13H10N3+
208.0986	7	C14H12N2+
209.0949	46	C13H11N3+
221.0949	30	C14H11N3+
222.1027	65	C14H12N3+
223.1107	12	C14H13N3+
224.1183	24	C14H14N3+
