Mass spectrum: Demeton-S-methylsulphon; LC-ESI-QFT; MS2; CE: 15; R=17500; [M+H]+
Name: Demeton-S-methylsulphon
Name: 1-dimethoxyphosphorylsulfanyl-2-ethylsulfonylethane
Formula: C6H15O5PS2
Exact mass: 262.0099
SMILES: CCS(=O)(=O)CCSP(=O)(OC)OC
InChI: InChI=1S/C6H15O5PS2/c1-4-14(8,9)6-5-13-12(7,10-2)11-3/h4-6H2,1-3H3
Instrument: Q Exactive Orbitrap (Thermo Scientific)
Instrument type: LC-ESI-QFT
Ms type: MS2
Ion mode: POSITIVE
Ionization: ESI
Fragmentation mode: HCD
Collision energy: 15
Resolution: 17500
Column name: Acquity BEH C18 1.7um, 2.1x150mm (Waters)
Retention time: 11.013 min
Base peak: 79.0212
Precursor m/z: 263.0171
Precursor type: [M+H]+
Precursor intensity: 4372123.78125
m/z	relative intensity	assigned
61.0105	1	C2H5S+
93.0006	1	C2H5O2S+
108.9779	1	C2H5OS2+
109.0053	3	C2H6O3P+
121.0319	235	C4H9O2S+
127.0156	26	C2H8O4P+
137.009	10	C4H9OS2+
141.9857	4	C2H7O3PS+
142.9928	74	C2H8O3PS+
152.9771	1	C3H6O3PS+
154.9926	5	C3H8O3PS+
169.0084	476	C4H10O3PS+
170.9877	7	C3H8O4PS+
184.9495	1	C3H6O3PS2+
185.0032	1	C4H10O4PS+
186.9643	1	C3H8O3PS2+
202.9589	2	C3H8O4PS2+
230.9912	154	C5H12O4PS2+
263.0173	999	C6H16O5PS2+
