Mass spectrum: Cyanazine; LC-ESI-QFT; MS2; CE: 75; R=17500; [M+H]+
Name: Cyanazine
Name: 2-[[4-chloro-6-(ethylamino)-1,3,5-triazin-2-yl]amino]-2-methylpropanenitrile
Formula: C9H13ClN6
Exact mass: 240.0890
SMILES: CCNC1=NC(NC(C)(C)C#N)=NC(Cl)=N1
InChI: InChI=1S/C9H13ClN6/c1-4-12-7-13-6(10)14-8(15-7)16-9(2,3)5-11/h4H2,1-3H3,(H2,12,13,14,15,16)
Instrument: Q Exactive Orbitrap (Thermo Scientific)
Instrument type: LC-ESI-QFT
Ms type: MS2
Ion mode: POSITIVE
Ionization: ESI
Fragmentation mode: HCD
Collision energy: 75
Resolution: 17500
Column name: Acquity BEH C18 1.7um, 2.1x150mm (Waters)
Retention time: 14.784 min
Base peak: 79.0211
Precursor m/z: 241.0963
Precursor type: [M+H]+
Precursor intensity: 5534735.78125
m/z	relative intensity	assigned
53.0022	2	ClH4N+
55.0291	5	C2H3N2+
56.0496	5	C3H6N+
58.0651	44	C3H8N+
61.9792	124	CHClN+
67.0291	16	C3H3N2+
68.0243	942	C2H2N3+
69.0446	5	C3H5N2+
70.0651	9	C4H8N+
71.0603	652	C3H7N2+
72.0443	8	ClH9N2+
78.0105	6	C2H5ClN+
79.0057	253	CH4ClN2+
83.0604	301	C4H7N2+
85.0761	15	C4H9N2+
90.0106	52	C3H5ClN+
95.0603	12	C5H7N2+
96.0556	551	C4H6N3+
102.0107	3	C4H5ClN+
103.0058	11	C3H4ClN2+
104.001	999	C2H3ClN3+
107.0371	4	C3H8ClN2+
108.0556	50	C5H6N3+
110.0461	46	C3H4N5+
110.0713	63	C5H8N3+
111.0792	19	C5H9N3+
111.0919	5	C6H11N2+
119.0371	95	C4H8ClN2+
121.028	2	C2H6ClN4+
121.0508	3	C5H5N4+
128.0567	3	ClH9N6+
129.0481	4	C7H10Cl+
132.0324	261	C4H7ClN3+
135.0665	7	C6H7N4+
136.0743	6	C6H8N4+
136.087	97	C7H10N3+
138.0774	33	C5H8N5+
144.0322	20	C5H7ClN3+
145.0278	5	C4H6ClN4+
146.0228	76	C3H5ClN5+
150.0774	9	C6H8N5+
157.0273	1	C5H6ClN4+
162.0648	2	C6H6N6+
172.0386	3	C5H7ClN5+
173.0588	23	C6H10ClN4+
174.0542	54	C5H9ClN5+
177.0883	5	C7H9N6+
178.1088	14	C8H12N5+
186.0542	15	C6H9ClN5+
190.0966	2	C8H10N6+
197.0593	5	C8H10ClN4+
214.0854	86	C8H13ClN5+
