Mass spectrum: Norflurazon; LC-ESI-QFT; MS2; CE: 45; R=17500; [M-H]-
Name: Norflurazon
Name: 4-chloro-5-(methylamino)-2-[3-(trifluoromethyl)phenyl]pyridazin-3-one
Formula: C12H9ClF3N3O
Exact mass: 303.0386
SMILES: CNC1=C(Cl)C(=O)N(N=C1)C1=CC=CC(=C1)C(F)(F)F
InChI: InChI=1S/C12H9ClF3N3O/c1-17-9-6-18-19(11(20)10(9)13)8-4-2-3-7(5-8)12(14,15)16/h2-6,17H,1H3
Instrument: Q Exactive Orbitrap (Thermo Scientific)
Instrument type: LC-ESI-QFT
Ms type: MS2
Ion mode: NEGATIVE
Ionization: ESI
Fragmentation mode: HCD
Collision energy: 45
Resolution: 17500
Column name: Acquity BEH C18 1.7um, 2.1x150mm (Waters)
Retention time: 16.609 min
Base peak: 179.0714
Precursor m/z: 302.0313
Precursor type: [M-H]-
Precursor intensity: 11905569.85449
m/z	relative intensity	assigned
52.0192	6	C3H2N-
64.0067	32	C3N2-
65.0145	37	C3HN2-
65.9985	9	C3NO-
72.9726	5	C2ClN-
73.9803	12	C2HClN-
74.9643	41	C2ClO-
79.0302	50	C4H3N2-
80.0015	2	C3N2O-
87.996	293	C3H3ClN-
101.9752	6	C3HClNO-
115.0068	5	C4H4ClN2-
128.9861	6	C4H2ClN2O-
145.0207	2	C8H2FN2-
160.038	40	C7H5F3N-
165.0268	2	C8H3F2N2-
169.0206	15	C10H2FN2-
177.9866	107	C9H2ClFN-
182.0225	6	C9H3F3N-
185.0332	141	C8H4F3N2-
189.0268	2	C10H3F2N2-
195.9971	47	C9H4ClFNO-
197.9928	75	C9H3ClF2N-
209.0332	69	C10H4F3N2-
211.0489	6	C10H6F3N2-
212.0446	3	C9H5F3N3-
216.0033	26	C9H5ClF2NO-
217.9989	999	C9H4ClF3N-
224.0203	60	C10H3F3N2O-
239.0442	3	C11H6F3N2O-
245.01	7	C10H5ClF3N2-
251.0314	5	C11H4F3N3O-
252.0389	26	C11H5F3N3O-
258.9892	2	C10H3ClF3N2O-
286.0001	12	C11H4ClF3N3O-
302.0314	43	C12H8ClF3N3O-
