Mass spectrum: Chloranocryl; LC-ESI-QFT; MS2; CE: 60; R=17500; [M-H]-
Name: Chloranocryl
Name: N-(3,4-dichlorophenyl)-2-methylprop-2-enamide
Formula: C10H9Cl2NO
Exact mass: 229.0061
SMILES: CC(=C)C(=O)NC1=CC=C(Cl)C(Cl)=C1
InChI: InChI=1S/C10H9Cl2NO/c1-6(2)10(14)13-7-3-4-8(11)9(12)5-7/h3-5H,1H2,2H3,(H,13,14)
Instrument: Q Exactive Orbitrap (Thermo Scientific)
Instrument type: LC-ESI-QFT
Ms type: MS2
Ion mode: NEGATIVE
Ionization: ESI
Fragmentation mode: HCD
Collision energy: 60
Resolution: 17500
Column name: Acquity BEH C18 1.7um, 2.1x150mm (Waters)
Retention time: 17.863 min
Base peak: 227.999
Precursor m/z: 227.9988
Precursor type: [M-H]-
Precursor intensity: 39189834.88672
m/z	relative intensity	assigned
55.0189	999	C3H3O-
70.9461	11	Cl2H-
98.9643	3	C4ClO-
100.0194	3	C7H2N-
113.9985	6	C7NO-
121.9802	21	C6HClN-
123.9959	5	C6H3ClN-
124.98	32	C6H2ClO-
128.0506	10	C9H6N-
149.9752	238	C7HClNO-
155.0377	18	C10H5NO-
156.0455	239	C10H6NO-
159.9726	62	C6H4Cl2N-
160.9566	143	C6H3Cl2O-
176.9987	8	C9H4ClNO-
183.9727	11	C8H4Cl2N-
185.9519	235	C7H2Cl2NO-
187.9666	3	C7H4Cl2NO-
190.0065	56	C10H5ClNO-
192.0218	16	C10H7ClNO-
197.9883	20	C9H6Cl2N-
200.004	3	C9H8Cl2N-
211.9669	4	C9H4Cl2NO-
212.9753	5	C9H5Cl2NO-
225.9832	137	C10H6Cl2NO-
227.9989	183	C10H8Cl2NO-
