Mass spectrum: Triamcinolone; LC-ESI-QFT; MS2; CE: 60; R=17500; [M+H]+
Name: Triamcinolone
Name: (8S,9R,10S,11S,13S,14S,16R,17S)-9-fluoro-11,16,17-trihydroxy-17-(2-hydroxyacetyl)-10,13-dimethyl-6,7,8,11,12,14,15,16-octahydrocyclopenta[a]phenanthren-3-one
Formula: C21H27FO6
Exact mass: 394.1792
SMILES: C[C@]12C[C@H](O)[C@@]3(F)[C@@H](CCC4=CC(=O)C=C[C@]34C)[C@@H]1C[C@@H](O)[C@]2(O)C(=O)CO
InChI: InChI=1S/C21H27FO6/c1-18-6-5-12(24)7-11(18)3-4-13-14-8-15(25)21(28,17(27)10-23)19(14,2)9-16(26)20(13,18)22/h5-7,13-16,23,25-26,28H,3-4,8-10H2,1-2H3/t13-,14-,15+,16-,18-,19-,20-,21-/m0/s1
Instrument: Q Exactive Orbitrap (Thermo Scientific)
Instrument type: LC-ESI-QFT
Ms type: MS2
Ion mode: POSITIVE
Ionization: ESI
Fragmentation mode: HCD
Collision energy: 60
Resolution: 17500
Column name: Acquity BEH C18 1.7um, 2.1x150mm (Waters)
Retention time: 14.647 min
Base peak: 79.0211
Precursor m/z: 395.1864
Precursor type: [M+H]+
Precursor intensity: 3128435.625
m/z	relative intensity	assigned
55.0179	309	C3H3O+
55.0543	74	C4H7+
67.0542	108	C5H7+
69.0334	174	C4H5O+
79.0541	174	C6H7+
81.0699	197	C6H9+
83.0491	75	C5H7O+
87.0442	62	C4H7O2+
91.0543	324	C7H7+
93.0701	224	C7H9+
95.0492	281	C6H7O+
95.0856	77	C7H11+
97.0646	58	C6H9O+
105.0699	398	C8H9+
107.0493	61	C7H7O+
107.0857	89	C8H11+
109.0649	179	C7H9O+
115.0392	56	C5H7O3+
115.0542	78	C9H7+
117.0699	101	C9H9+
119.0856	209	C9H11+
121.0648	772	C8H9O+
123.0804	79	C8H11O+
125.0599	84	C7H9O2+
128.0622	167	C10H8+
129.07	203	C10H9+
131.0857	180	C10H11+
132.0568	87	C9H8O+
133.0647	124	C9H9O+
135.0804	185	C9H11O+
137.06	66	C8H9O2+
141.0699	102	C11H9+
142.0778	149	C11H10+
143.0855	305	C11H11+
145.0649	341	C10H9O+
145.1013	82	C11H13+
147.0806	999	C10H11O+
155.0854	228	C12H11+
157.1015	116	C12H13+
158.0728	219	C11H10O+
159.0806	437	C11H11O+
161.0964	81	C11H13O+
165.0695	109	C13H9+
167.0856	147	C13H11+
169.101	102	C13H13+
171.0807	618	C12H11O+
173.0962	218	C12H13O+
178.0779	115	C14H10+
179.0858	277	C14H11+
180.093	135	C14H12+
181.0652	91	C13H9O+
181.101	129	C14H13+
182.0726	86	C13H10O+
183.0805	143	C13H11O+
185.0964	173	C13H13O+
190.0774	98	C15H10+
191.0859	130	C15H11+
192.0933	288	C15H12+
193.1014	99	C15H13+
195.0807	229	C14H11O+
195.1171	66	C15H15+
196.0885	240	C14H12O+
197.0962	217	C14H13O+
199.1121	60	C14H15O+
202.0779	59	C16H10+
203.0857	104	C16H11+
205.1011	184	C16H13+
206.1091	90	C16H14+
208.0884	288	C15H12O+
209.0964	422	C15H13O+
210.1044	316	C15H14O+
211.1118	174	C15H15O+
213.1279	151	C15H17O+
219.1165	89	C17H15+
221.0962	181	C16H13O+
222.1044	311	C16H14O+
223.1123	261	C13H16FO2+
224.1198	66	C16H16O+
225.1274	162	C16H17O+
229.1	59	C18H13+
233.0962	199	C17H13O+
234.1038	106	C17H14O+
235.1119	173	C17H15O+
237.1274	101	C17H17O+
245.096	130	C18H13O+
246.104	91	C18H14O+
247.1119	135	C18H15O+
