Mass spectrum: 6-Thioguanine; LC-ESI-QFT; MS2; CE: 45; R=17500; [M+H]+
Name: 6-Thioguanine
Name: 2-amino-7H-purine-6-thiol
Formula: C5H5N5S
Exact mass: 167.0266
SMILES: NC1=NC2=C(NC=N2)C(=S)N1
InChI: InChI=1S/C5H5N5S/c6-5-9-3-2(4(11)10-5)7-1-8-3/h1H,(H4,6,7,8,9,10,11)
Instrument: Q Exactive Orbitrap (Thermo Scientific)
Instrument type: LC-ESI-QFT
Ms type: MS2
Ion mode: POSITIVE
Ionization: ESI
Fragmentation mode: HCD
Collision energy: 45
Resolution: 17500
Column name: Acquity BEH C18 1.7um, 2.1x150mm (Waters)
Retention time: 3.077 min
Base peak: 79.0211
Precursor m/z: 168.0338
Precursor type: [M+H]+
Precursor intensity: 4350693.5
m/z	relative intensity	assigned
107.035	3	C4H3N4+
108.9856	1	C4HN2S+
109.0509	18	C4H5N4+
126.0121	57	C4H4N3S+
134.0461	103	C5H4N5+
151.0073	383	C5H3N4S+
168.0338	999	C5H6N5S+
