Mass spectrum: Loratadine; LC-ESI-QFT; MS2; CE: 75; R=17500; [M+H]+
Name: Loratadine
Name: ethyl 4-(13-chloro-4-azatricyclo[9.4.0.03,8]pentadeca-1(11),3(8),4,6,12,14-hexaen-2-ylidene)piperidine-1-carboxylate
Formula: C22H23ClN2O2
Exact mass: 382.1448
SMILES: CCOC(=O)N1CCC(CC1)=C1C2=C(CCC3=C1N=CC=C3)C=C(Cl)C=C2
InChI: InChI=1S/C22H23ClN2O2/c1-2-27-22(26)25-12-9-15(10-13-25)20-19-8-7-18(23)14-17(19)6-5-16-4-3-11-24-21(16)20/h3-4,7-8,11,14H,2,5-6,9-10,12-13H2,1H3
Instrument: Q Exactive Orbitrap (Thermo Scientific)
Instrument type: LC-ESI-QFT
Ms type: MS2
Ion mode: POSITIVE
Ionization: ESI
Fragmentation mode: HCD
Collision energy: 75
Resolution: 17500
Column name: Acquity BEH C18 1.7um, 2.1x150mm (Waters)
Retention time: 17.754 min
Base peak: 79.0212
Precursor m/z: 383.1521
Precursor type: [M+H]+
Precursor intensity: 27684672.5
m/z	relative intensity	assigned
53.0386	1	C4H5+
55.0543	3	C4H7+
56.0497	1	C3H6N+
58.0651	9	C3H8N+
65.0386	5	C5H5+
67.0416	7	C4H5N+
67.0542	6	C5H7+
68.0495	2	C4H6N+
80.0494	24	C5H6N+
82.0651	59	C5H8N+
88.0393	5	C3H6NO2+
91.0543	2	C7H7+
93.0573	14	C6H7N+
94.0652	2	C6H8N+
96.0443	1	C5H6NO+
102.0549	2	C4H8NO2+
103.0542	1	C8H7+
106.0653	5	C7H8N+
110.0968	1	C7H12N+
115.054	1	C9H7+
117.0573	7	C8H7N+
118.0652	8	C8H8N+
125.0151	1	C7H6Cl+
126.0548	5	C6H8NO2+
128.0621	1	C10H8+
130.0651	17	C9H8N+
131.0731	7	C9H9N+
132.081	3	C9H10N+
134.0602	1	C8H8NO+
141.07	1	C11H9+
142.0652	2	C10H8N+
142.0777	2	C11H10+
143.0728	3	C10H9N+
144.0809	6	C10H10N+
154.065	3	C11H8N+
156.0809	3	C11H10N+
165.0697	10	C13H9+
166.0776	3	C13H10+
167.073	1	C12H9N+
168.0807	3	C12H10N+
170.0964	1	C12H12N+
175.0306	2	C11H8Cl+
178.0783	2	C14H10+
179.073	7	C13H9N+
179.0855	3	C14H11+
191.0728	8	C14H9N+
191.0854	2	C15H11+
192.0808	23	C14H10N+
193.0886	59	C14H11N+
194.0969	6	C14H12N+
199.031	3	C13H8Cl+
202.0768	2	C16H10+
204.0807	16	C15H10N+
205.089	5	C15H11N+
206.0966	2	C15H12N+
213.034	5	C13H8ClN+
214.0417	210	C13H9ClN+
215.0859	5	C17H11+
216.0808	28	C16H10N+
217.0885	83	C16H11N+
218.0964	75	C16H12N+
219.0917	8	C15H11N2+
219.1042	18	C16H13N+
220.0996	18	C15H12N2+
226.0419	17	C14H9ClN+
227.0496	15	C14H10ClN+
228.0574	91	C14H11ClN+
228.0803	8	C17H10N+
229.0653	23	C14H12ClN+
229.0885	19	C17H11N+
229.101	3	C18H13+
230.0963	111	C17H12N+
231.1042	293	C17H13N+
232.112	140	C17H14N+
233.1198	17	C17H15N+
238.0419	34	C15H9ClN+
240.0574	8	C15H11ClN+
240.0814	1	C18H10N+
241.0531	8	C14H10ClN2+
241.088	12	C18H11N+
242.0963	54	C18H12N+
243.1043	336	C18H13N+
244.112	272	C18H14N+
245.1198	236	C18H15N+
246.1277	119	C18H16N+
247.1357	17	C18H17N+
248.0947	4	C16H12N2O+
249.0458	2	C17H10Cl+
251.0495	92	C16H10ClN+
252.0574	528	C16H11ClN+
253.0652	117	C16H12ClN+
254.0725	10	C19H10O+
254.0963	2	C19H12N+
255.1057	1	C19H13N+
256.112	60	C19H14N+
257.1199	47	C19H15N+
258.1277	684	C19H16N+
259.1355	235	C19H17N+
260.1433	6	C19H18N+
264.0575	53	C17H11ClN+
265.0653	64	C17H12ClN+
266.073	999	C17H13ClN+
267.0808	495	C17H14ClN+
268.0883	5	C20H12O+
270.0556	2	C15H11ClN2O+
277.065	42	C18H12ClN+
278.073	211	C18H13ClN+
279.0809	179	C18H14ClN+
280.0886	533	C18H15ClN+
281.0964	56	C18H16ClN+
282.1042	41	C18H17ClN+
283.063	4	C19H9NO2+
287.1178	1	C19H15N2O+
290.0727	11	C22H10O+
291.0814	3	C19H14ClN+
292.0886	90	C19H15ClN+
293.0601	1	C18H12ClNO+
293.0967	4	C19H16ClN+
294.1042	24	C19H17ClN+
296.1207	2	C19H19ClN+
302.1405	2	C20H18N2O+
322.0866	5	C19H15ClN2O+
337.1099	1	C20H18ClN2O+
