Mass spectrum: Laurocapram; LC-ESI-QFT; MS2; CE: 75; R=17500; [M+H]+
Name: Laurocapram
Name: 1-dodecylazepan-2-one
Formula: C18H35NO
Exact mass: 281.2719
SMILES: CCCCCCCCCCCCN1CCCCCC1=O
InChI: InChI=1S/C18H35NO/c1-2-3-4-5-6-7-8-9-10-13-16-19-17-14-11-12-15-18(19)20/h2-17H2,1H3
Instrument: Q Exactive Orbitrap (Thermo Scientific)
Instrument type: LC-ESI-QFT
Ms type: MS2
Ion mode: POSITIVE
Ionization: ESI
Fragmentation mode: HCD
Collision energy: 75
Resolution: 17500
Column name: Acquity BEH C18 1.7um, 2.1x150mm (Waters)
Retention time: 21.255 min
Base peak: 79.0212
Precursor m/z: 282.2791
Precursor type: [M+H]+
Precursor intensity: 56034001.03125
m/z	relative intensity	assigned
53.0022	106	C3HO+
53.0386	20	C4H5+
53.9975	13	C2NO+
54.01	2	C3H2O+
54.0338	11	C3H4N+
55.0179	50	C3H3O+
55.0542	116	C4H7+
56.0494	10	C3H6N+
57.0699	582	C4H9+
58.0652	5	C3H8N+
65.0386	2	C5H5+
67.0542	97	C5H7+
68.0495	97	C4H6N+
69.0699	685	C5H9+
70.0651	28	C4H8N+
71.0491	28	C4H7O+
71.0855	132	C5H11+
72.0443	7	C3H6NO+
72.0808	57	C4H10N+
77.0384	10	C6H5+
79.0542	814	C6H7+
80.0494	5	C5H6N+
81.0573	32	C5H7N+
81.07	25	C6H9+
83.0854	2	C6H11+
84.0808	19	C5H10N+
85.0648	8	C5H9O+
85.1013	13	C6H13+
86.0964	46	C5H12N+
94.0413	2	C6H6O+
94.0651	11	C6H8N+
95.0492	49	C6H7O+
96.0808	460	C6H10N+
97.0648	117	C6H9O+
98.0964	35	C6H12N+
110.0966	3	C7H12N+
114.0914	999	C6H12NO+
126.0914	3	C7H12NO+
128.1069	7	C7H14NO+
142.1227	6	C8H16NO+
156.1383	4	C9H18NO+
282.2786	15	C18H36NO+
