Mass spectrum: Fomesafen; LC-ESI-QFT; MS2; CE: 75; R=17500; [M-H]-
Name: Fomesafen
Name: 5-[2-chloro-4-(trifluoromethyl)phenoxy]-N-methylsulfonyl-2-nitrobenzamide
Formula: C15H10ClF3N2O6S
Exact mass: 437.9900
SMILES: CS(=O)(=O)NC(=O)C1=CC(OC2=CC=C(C=C2Cl)C(F)(F)F)=CC=C1[N+]([O-])=O
InChI: InChI=1S/C15H10ClF3N2O6S/c1-28(25,26)20-14(22)10-7-9(3-4-12(10)21(23)24)27-13-5-2-8(6-11(13)16)15(17,18)19/h2-7H,1H3,(H,20,22)
Instrument: Q Exactive Orbitrap (Thermo Scientific)
Instrument type: LC-ESI-QFT
Ms type: MS2
Ion mode: NEGATIVE
Ionization: ESI
Fragmentation mode: HCD
Collision energy: 75
Resolution: 17500
Column name: Acquity BEH C18 1.7um, 2.1x150mm (Waters)
Retention time: 17.863 min
Base peak: 227.999
Precursor m/z: 436.9827
Precursor type: [M-H]-
Precursor intensity: 18766995.0127
m/z	relative intensity	assigned
59.0138	34	C2H3O2-
61.9706	2	NOS-
63.9625	93	O2S-
65.0032	3	C4HO-
65.9986	7	C3NO-
69.0346	84	C4H5O-
72.0091	97	C2H2NO2-
73.0083	4	C6H-
76.9703	1	CHO2S-
79.0191	7	C5H3O-
79.9575	1	O3S-
80.9652	11	HO3S-
81.0348	2	C5H5O-
85.0296	1	C4H5O2-
89.0033	1	C6HO-
95.0138	12	C5H3O2-
97.0296	51	C5H5O2-
101.0608	26	C5H9O2-
107.0139	11	C6H3O2-
110.0163	11	C9H2-
121.0085	2	C10H-
122.0037	1	ClFH6NO3-
123.0089	7	C6H3O3-
125.0244	15	C6H5O3-
130.0225	2	C9H3F-
134.0163	18	C11H2-
137.0117	13	C6H3NO3-
138.9998	2	CH5ClF3NO-
148.0195	1	C11H2N-
154.0225	18	C11H3F-
154.9706	9	C7HClFO-
158.0173	4	C10H3FO-
159.0063	51	C7H2F3O-
172.981	3	C7H3ClFO2-
174.0286	7	C11H4F2-
174.9768	229	C7H2ClF2O-
182.0174	30	C12H3FO-
193.027	2	C11H4F3-
194.983	999	C7H3ClF3O-
195.9862	11	C11H2NOS-
202.0235	13	C12H4F2O-
206.0221	1	C11H7FOS-
222.0299	80	C12H5F3O-
284.9936	1	C13H5ClF3O2-
