Mass spectrum: Betamethasone valerate; LC-ESI-QFT; MS2; CE: 90; R=17500; [M+H]+
Name: Betamethasone valerate
Name: [(8S,9R,10S,11S,13S,14S,16S,17R)-9-fluoro-11-hydroxy-17-(2-hydroxyacetyl)-10,13,16-trimethyl-3-oxo-6,7,8,11,12,14,15,16-octahydrocyclopenta[a]phenanthren-17-yl] pentanoate
Formula: C27H37FO6
Exact mass: 476.2574
SMILES: CCCCC(=O)O[C@@]1([C@@H](C)C[C@H]2[C@@H]3CCC4=CC(=O)C=C[C@]4(C)[C@@]3(F)[C@@H](O)C[C@]12C)C(=O)CO
InChI: InChI=1S/C27H37FO6/c1-5-6-7-23(33)34-27(22(32)15-29)16(2)12-20-19-9-8-17-13-18(30)10-11-24(17,3)26(19,28)21(31)14-25(20,27)4/h10-11,13,16,19-21,29,31H,5-9,12,14-15H2,1-4H3/t16-,19-,20-,21-,24-,25-,26-,27-/m0/s1
Instrument: Q Exactive Orbitrap (Thermo Scientific)
Instrument type: LC-ESI-QFT
Ms type: MS2
Ion mode: POSITIVE
Ionization: ESI
Fragmentation mode: HCD
Collision energy: 90
Resolution: 17500
Column name: Acquity BEH C18 1.7um, 2.1x150mm (Waters)
Retention time: 18.603 min
Base peak: 79.0211
Precursor m/z: 477.2647
Precursor type: [M+H]+
Precursor intensity: 5729275.5
m/z	relative intensity	assigned
53.0386	73	C4H5+
55.0179	34	C3H3O+
55.0543	69	C4H7+
57.0699	88	C4H9+
65.0386	81	C5H5+
67.0543	192	C5H7+
69.0335	24	C4H5O+
69.0699	16	C5H9+
77.0387	18	C6H5+
79.0543	209	C6H7+
81.0699	63	C6H9+
91.0543	999	C7H7+
93.0701	151	C7H9+
95.0492	179	C6H7O+
95.0856	68	C7H11+
103.0543	127	C8H7+
105.07	289	C8H9+
107.0491	82	C7H7O+
107.0855	49	C8H11+
109.0649	37	C7H9O+
109.1017	23	C8H13+
115.0543	343	C9H7+
116.0621	136	C9H8+
117.07	153	C9H9+
119.0856	231	C9H11+
121.065	235	C8H9O+
128.0621	411	C10H8+
129.07	142	C10H9+
130.0777	40	C10H10+
131.0493	61	C9H7O+
131.0857	61	C10H11+
132.057	144	C9H8O+
133.1011	21	C10H13+
135.0804	21	C9H11O+
141.0699	181	C11H9+
142.0778	69	C11H10+
143.0857	97	C11H11+
144.0572	152	C10H8O+
145.0648	105	C10H9O+
146.073	32	C10H10O+
147.0807	107	C10H11O+
152.0622	58	C12H8+
153.0702	65	C12H9+
155.0858	45	C12H11+
157.0648	48	C11H9O+
158.0725	99	C11H10O+
159.0805	47	C11H11O+
165.0699	161	C13H9+
166.0781	39	C13H10+
167.0856	51	C13H11+
168.0572	18	C12H8O+
169.065	64	C12H9O+
170.073	60	C12H10O+
171.0803	93	C12H11O+
173.0966	17	C12H13O+
178.0777	155	C14H10+
179.0858	91	C14H11+
180.0938	26	C14H12+
181.0644	71	C13H9O+
181.1016	22	C14H13+
182.0728	25	C13H10O+
185.0965	32	C13H13O+
189.0702	78	C15H9+
190.0778	58	C15H10+
191.0855	70	C15H11+
192.0937	42	C15H12+
193.1016	50	C15H13+
194.0721	26	C14H10O+
195.0807	64	C14H11O+
196.0886	38	C14H12O+
197.0958	19	C14H13O+
202.0776	82	C16H10+
204.0935	34	C16H12+
205.0646	31	C15H9O+
205.1013	61	C16H13+
206.0726	17	C15H10O+
207.0805	59	C15H11O+
207.1167	20	C16H15+
208.0885	44	C15H12O+
209.0959	34	C15H13O+
215.0857	148	C17H11+
216.0934	56	C17H12+
217.1015	37	C17H13+
218.0731	60	C16H10O+
219.0807	103	C16H11O+
219.1167	19	C17H15+
220.0884	17	C16H12O+
221.0963	65	C16H13O+
223.1115	16	C16H15O+
228.0936	67	C18H12+
229.1013	109	C18H13+
230.1092	19	C18H14+
231.0809	64	C17H11O+
231.1162	27	C18H15+
232.0885	56	C17H12O+
233.0965	62	C17H13O+
234.1037	33	C17H14O+
235.1117	32	C17H15O+
244.0887	33	C18H12O+
245.0964	42	C18H13O+
246.1041	27	C18H14O+
247.1116	37	C18H15O+
248.12	22	C18H16O+
259.112	33	C19H15O+
261.1272	22	C19H17O+
