Mass spectrum: Benodanil; LC-ESI-QFT; MS2; CE: 15; R=17500; [M+H]+
Name: Benodanil
Name: 2-iodo-N-phenylbenzamide
Formula: C13H10INO
Exact mass: 322.9807
SMILES: IC1=C(C=CC=C1)C(=O)NC1=CC=CC=C1
InChI: InChI=1S/C13H10INO/c14-12-9-5-4-8-11(12)13(16)15-10-6-2-1-3-7-10/h1-9H,(H,15,16)
Instrument: Q Exactive Orbitrap (Thermo Scientific)
Instrument type: LC-ESI-QFT
Ms type: MS2
Ion mode: POSITIVE
Ionization: ESI
Fragmentation mode: HCD
Collision energy: 15
Resolution: 17500
Column name: Acquity BEH C18 1.7um, 2.1x150mm (Waters)
Retention time: 16.272 min
Base peak: 79.0211
Precursor m/z: 323.988
Precursor type: [M+H]+
Precursor intensity: 12390749
m/z	relative intensity	assigned
105.0334	6	C7H5O+
120.0444	8	C7H6NO+
197.0836	10	C13H11NO+
202.9361	1	C6H4I+
230.93	50	C7H4IO+
323.9879	999	C13H11INO+
