Mass spectrum: (-)-Epigallocatechin gallate; LC-ESI-QFT; MS2; CE: 60; R=17500; [M+H]+
Name: (-)-Epigallocatechin gallate
Name: [(2R,3R)-5,7-dihydroxy-2-(3,4,5-trihydroxyphenyl)-3,4-dihydro-2H-chromen-3-yl] 3,4,5-trihydroxybenzoate
Formula: C22H18O11
Exact mass: 458.0849
SMILES: OC1=CC(O)=C2C[C@@H](OC(=O)C3=CC(O)=C(O)C(O)=C3)[C@H](OC2=C1)C1=CC(O)=C(O)C(O)=C1
InChI: InChI=1S/C22H18O11/c23-10-5-12(24)11-7-18(33-22(31)9-3-15(27)20(30)16(28)4-9)21(32-17(11)6-10)8-1-13(25)19(29)14(26)2-8/h1-6,18,21,23-30H,7H2/t18-,21-/m1/s1
Instrument: Q Exactive Orbitrap (Thermo Scientific)
Instrument type: LC-ESI-QFT
Ms type: MS2
Ion mode: POSITIVE
Ionization: ESI
Fragmentation mode: HCD
Collision energy: 60
Resolution: 17500
Column name: Acquity BEH C18 1.7um, 2.1x150mm (Waters)
Retention time: 11.244 min
Base peak: 79.0211
Precursor m/z: 459.0922
Precursor type: [M+H]+
Precursor intensity: 741340.3125
m/z	relative intensity	assigned
111.0442	23	C6H7O2+
123.0441	70	C7H7O2+
125.0235	33	C6H5O3+
139.0391	999	C7H7O3+
143.0342	68	C6H7O4+
151.0394	34	C8H7O3+
153.0184	316	C7H5O4+
163.0391	85	C9H7O3+
177.055	17	C10H9O3+
205.0498	18	C11H9O4+
