Mass spectrum: UK-373911; LC-ESI-QFT; MS2; CE: 75; R=17500; [M+H]+
Name: UK-373911
Name: (5S,8S)-5-(3,4-dichlorophenyl)-8-(methylamino)-5,6,7,8-tetrahydronaphthalene-2-sulfonamide
Formula: C17H18Cl2N2O2S
Exact mass: 384.0466
SMILES: CN[C@H]1CC[C@@H](C2=CC=C(Cl)C(Cl)=C2)C2=CC=C(C=C12)S(N)(=O)=O
InChI: InChI=1S/C17H18Cl2N2O2S/c1-21-17-7-5-12(10-2-6-15(18)16(19)8-10)13-4-3-11(9-14(13)17)24(20,22)23/h2-4,6,8-9,12,17,21H,5,7H2,1H3,(H2,20,22,23)/t12-,17-/m0/s1
Instrument: Q Exactive Orbitrap (Thermo Scientific)
Instrument type: LC-ESI-QFT
Ms type: MS2
Ion mode: POSITIVE
Ionization: ESI
Fragmentation mode: HCD
Collision energy: 75
Resolution: 17500
Column name: Acquity BEH C18 1.7um, 2.1x150mm (Waters)
Retention time: 14.686 min
Base peak: 79.0211
Precursor m/z: 385.0539
Precursor type: [M+H]+
Precursor intensity: 2758611.25
m/z	relative intensity	assigned
63.0229	1	C5H3+
72.9839	2	C3H2Cl+
79.0543	2	C6H7+
89.0386	13	C7H5+
91.0543	4	C7H7+
96.984	1	C5H2Cl+
98.9997	16	C5H4Cl+
103.0543	6	C8H7+
106.0652	3	C7H8N+
115.0544	33	C9H7+
117.0699	3	C9H9+
122.9997	137	C7H4Cl+
124.0076	32	C7H5Cl+
125.0155	3	C7H6Cl+
127.0544	10	C10H7+
128.0622	149	C10H8+
129.0701	7	C10H9+
132.9606	16	C5H3Cl2+
133.0647	1	C9H9O+
143.0607	4	C9H7N2+
143.0731	5	C10H9N+
144.0809	17	C10H10N+
145.065	29	C10H9O+
155.0605	35	C10H7N2+
158.9765	999	C7H5Cl2+
189.0701	3	C15H9+
202.0779	17	C16H10+
203.0858	43	C16H11+
204.0935	27	C16H12+
237.0467	1	C16H10Cl+
238.0549	12	C16H11Cl+
239.0624	4	C16H12Cl+
259.0078	20	C15H9Cl2+
