Mass spectrum: Carabersat; LC-ESI-QFT; MS2; CE: 90; R=17500; [M+H]+
Name: Carabersat
Name: N-[(3R,4S)-6-acetyl-3-hydroxy-2,2-dimethyl-3,4-dihydrochromen-4-yl]-4-fluorobenzamide
Formula: C20H20FNO4
Exact mass: 357.1376
SMILES: CC(=O)C1=CC2=C(OC(C)(C)[C@H](O)[C@H]2NC(=O)C2=CC=C(F)C=C2)C=C1
InChI: InChI=1S/C20H20FNO4/c1-11(23)13-6-9-16-15(10-13)17(18(24)20(2,3)26-16)22-19(25)12-4-7-14(21)8-5-12/h4-10,17-18,24H,1-3H3,(H,22,25)/t17-,18+/m0/s1
Instrument: Q Exactive Orbitrap (Thermo Scientific)
Instrument type: LC-ESI-QFT
Ms type: MS2
Ion mode: POSITIVE
Ionization: ESI
Fragmentation mode: HCD
Collision energy: 90
Resolution: 17500
Column name: Acquity BEH C18 1.7um, 2.1x150mm (Waters)
Retention time: 15.705 min
Base peak: 79.0211
Precursor m/z: 358.1449
Precursor type: [M+H]+
Precursor intensity: 11442552.75
m/z	relative intensity	assigned
51.023	21	C4H3+
53.0022	6	C3HO+
53.0386	28	C4H5+
55.0542	9	C4H7+
59.0492	999	C3H7O+
71.0291	21	C4H4F+
75.0229	43	C6H3+
79.0178	8	C5H3O+
79.0542	40	C6H7+
91.0543	172	C7H7+
93.0699	59	C7H9+
95.0292	21	C6H4F+
95.0492	92	C6H7O+
97.0448	34	C6H6F+
103.0542	10	C8H7+
105.0699	16	C8H9+
106.0414	6	C7H6O+
107.0492	204	C7H7O+
111.0438	8	C6H7O2+
113.0397	167	C6H6FO+
115.0543	30	C9H7+
116.062	17	C9H8+
119.0491	5	C8H7O+
121.0283	6	C7H5O2+
121.0648	91	C8H9O+
123.0241	439	C7H4FO+
129.0698	10	C10H9+
131.0492	11	C9H7O+
131.0856	9	C10H11+
134.036	15	C8H6O2+
135.0802	4	C9H11O+
140.0507	9	C7H7FNO+
141.0699	9	C11H9+
144.057	30	C10H8O+
149.0599	85	C9H9O2+
158.036	8	C10H6O2+
158.0727	15	C11H10O+
159.0805	28	C11H11O+
163.0386	3	C9H7O3+
165.0547	10	C9H9O3+
169.0763	3	C5H12FNO4+
171.0438	3	C11H7O2+
173.0599	10	C11H9O2+
190.0625	38	C11H10O3+
201.0911	11	C13H13O2+
