Mass spectrum: 3-Hydroxy-4-butyrophenetidide; LC-ESI-QFT; MS2; CE: 60; R=17500; [M+H]+
Name: 3-Hydroxy-4-butyrophenetidide
Name: Bucetin
Name: N-(4-ethoxyphenyl)-3-hydroxybutanamide
Formula: C12H17NO3
Exact mass: 223.1208
SMILES: CCOC1=CC=C(NC(=O)CC(C)O)C=C1
InChI: InChI=1S/C12H17NO3/c1-3-16-11-6-4-10(5-7-11)13-12(15)8-9(2)14/h4-7,9,14H,3,8H2,1-2H3,(H,13,15)
Instrument: Q Exactive Orbitrap (Thermo Scientific)
Instrument type: LC-ESI-QFT
Ms type: MS2
Ion mode: POSITIVE
Ionization: ESI
Fragmentation mode: HCD
Collision energy: 60
Resolution: 17500
Column name: Acquity BEH C18 1.7um, 2.1x150mm (Waters)
Retention time: 14.372 min
Base peak: 79.0211
Precursor m/z: 224.1281
Precursor type: [M+H]+
Precursor intensity: 11811334.5625
m/z	relative intensity	assigned
65.0384	2	C5H5+
69.0335	15	C4H5O+
79.0544	1	C6H7+
80.0495	1	C5H6N+
81.0335	12	C5H5O+
82.0651	1	C5H8N+
87.0441	1	C4H7O2+
91.0543	2	C7H7+
92.0494	3	C6H6N+
93.0333	2	C6H5O+
93.0575	2	C6H7N+
106.0654	1	C7H8N+
107.049	3	C7H7O+
108.0443	999	C6H6NO+
109.0522	10	C6H7NO+
110.06	60	C6H8NO+
111.0441	4	C6H7O2+
136.0757	500	C8H10NO+
138.0913	94	C8H12NO+
150.0912	2	C9H12NO+
160.0757	1	C10H10NO+
164.0704	5	C9H10NO2+
164.107	9	C10H14NO+
178.0862	1	C10H12NO2+
178.1226	1	C11H16NO+
206.1177	1	C12H16NO2+
