Mass spectrum: 2-Chloro-N,N-dimethyl-3-oxobutanamide; LC-ESI-QFT; MS2; CE: 75; R=17500; [M+H]+
Name: 2-Chloro-N,N-dimethyl-3-oxobutanamide
Formula: C6H10ClNO2
Exact mass: 163.0400
SMILES: CN(C)C(=O)C(Cl)C(C)=O
InChI: InChI=1S/C6H10ClNO2/c1-4(9)5(7)6(10)8(2)3/h5H,1-3H3
Instrument: Q Exactive Orbitrap (Thermo Scientific)
Instrument type: LC-ESI-QFT
Ms type: MS2
Ion mode: POSITIVE
Ionization: ESI
Fragmentation mode: HCD
Collision energy: 75
Resolution: 17500
Column name: Acquity BEH C18 1.7um, 2.1x150mm (Waters)
Retention time: 8.382 min
Base peak: 79.0211
Precursor m/z: 164.0473
Precursor type: [M+H]+
Precursor intensity: 1246011.65625
m/z	relative intensity	assigned
56.0131	13	C2H2NO+
58.0652	11	C3H8N+
72.0444	999	C3H6NO+
94.0651	16	C6H8N+
95.0492	13	C6H7O+
104.0262	23	C4H7ClN+
105.0336	12	C4H8ClN+
109.0523	14	C6H7NO+
122.0369	7	C4H9ClNO+
150.0425	20	C6H11ClO2+
