Mass spectrum: Nicardipine; LC-ESI-QFT; MS2; CE: 30; R=17500; [M+H]+
Name: Nicardipine
Name: 5-O-[2-[benzyl(methyl)amino]ethyl] 3-O-methyl 2,6-dimethyl-4-(3-nitrophenyl)-1,4-dihydropyridine-3,5-dicarboxylate
Formula: C26H29N3O6
Exact mass: 479.2056
SMILES: COC(=O)C1=C(C)NC(C)=C(C1C1=CC(=CC=C1)[N+]([O-])=O)C(=O)OCCN(C)CC1=CC=CC=C1
InChI: InChI=1S/C26H29N3O6/c1-17-22(25(30)34-4)24(20-11-8-12-21(15-20)29(32)33)23(18(2)27-17)26(31)35-14-13-28(3)16-19-9-6-5-7-10-19/h5-12,15,24,27H,13-14,16H2,1-4H3
Instrument: Q Exactive Orbitrap (Thermo Scientific)
Instrument type: LC-ESI-QFT
Ms type: MS2
Ion mode: POSITIVE
Ionization: ESI
Fragmentation mode: HCD
Collision energy: 30
Resolution: 17500
Column name: Acquity BEH C18 1.7um, 2.1x150mm (Waters)
Retention time: 14.916 min
Base peak: 79.0211
Precursor m/z: 480.2129
Precursor type: [M+H]+
Precursor intensity: 21563568.5
m/z	relative intensity	assigned
58.0651	7	C3H8N+
65.0385	1	C5H5+
74.06	3	C3H8NO+
91.0542	223	C7H7+
105.0699	25	C8H9+
148.112	549	C10H14N+
166.1226	302	C10H16NO+
210.0908	1	C14H12NO+
226.0864	3	C14H12NO2+
239.0815	1	C14H11N2O2+
254.0807	4	C15H12NO3+
255.0764	1	C14H11N2O3+
267.0893	3	C16H13NO3+
268.0962	3	C16H14NO3+
269.1047	16	C16H15NO3+
283.0711	16	C15H11N2O4+
297.087	1	C16H13N2O4+
298.0947	18	C16H14N2O4+
299.0786	5	C16H13NO5+
301.0947	3	C16H15NO5+
313.0822	2	C16H13N2O5+
315.0973	999	C16H15N2O5+
331.0918	3	C16H15N2O6+
359.1237	245	C18H19N2O6+
480.2137	4	C26H30N3O6+
