Mass spectrum: Isoxathion; LC-ESI-QFT; MS2; CE: 15; R=17500; [M+H]+
Name: Isoxathion
Name: diethoxy-[(5-phenyl-1,2-oxazol-3-yl)oxy]-sulfanylidene-lambda5-phosphane
Formula: C13H16NO4PS
Exact mass: 313.0538
SMILES: CCOP(=S)(OCC)OC1=NOC(=C1)C1=CC=CC=C1
InChI: InChI=1S/C13H16NO4PS/c1-3-15-19(20,16-4-2)18-13-10-12(17-14-13)11-8-6-5-7-9-11/h5-10H,3-4H2,1-2H3
Instrument: Q Exactive Orbitrap (Thermo Scientific)
Instrument type: LC-ESI-QFT
Ms type: MS2
Ion mode: POSITIVE
Ionization: ESI
Fragmentation mode: HCD
Collision energy: 15
Resolution: 17500
Column name: Acquity BEH C18 1.7um, 2.1x150mm (Waters)
Retention time: 18.742 min
Base peak: 79.0212
Precursor m/z: 314.061
Precursor type: [M+H]+
Precursor intensity: 14286694.875
m/z	relative intensity	assigned
51.0229	1	C4H3+
61.0107	4	C2H5S+
64.9787	1	H2O2P+
93.01	2	C2H6O2P+
95.0492	2	C6H7O+
96.9508	1	H2O2PS+
98.9841	7	H4O4P+
105.0336	999	C7H5O+
109.0051	5	C2H6O3P+
113.9534	6	H3O3PS+
114.9614	12	H4O3PS+
123.9796	1	CH3NO4P+
125.9901	2	C2H7O2PS+
126.9981	1	C2H8O2PS+
127.0156	15	C2H8O4P+
128.9767	1	CH6O3PS+
130.9564	27	H4O4PS+
132.0569	1	C9H8O+
133.0648	4	C9H9O+
136.0158	2	C3H7NO3P+
140.9769	6	C2H6O3PS+
141.9849	24	C2H7O3PS+
142.9927	5	C2H8O3PS+
146.0602	2	C9H8NO+
151.0213	13	C8H7OS+
152.0111	2	C3H7NO4P+
153.0135	1	C4H10O2PS+
155.0468	8	C4H12O4P+
158.9877	6	C2H8O4PS+
160.0216	56	C9H6NS+
162.055	14	C9H8NO2+
164.0472	10	C5H11NO3P+
169.0087	2	C4H10O3PS+
170.0162	395	C4H11O3PS+
171.024	11	C4H12O3PS+
178.0322	232	C9H8NOS+
187.019	79	C4H12O4PS+
190.0864	15	C11H12NO2+
201.0348	1	C5H14O4PS+
206.0636	30	C11H12NOS+
214.9931	2	C8H8O3PS+
216.9724	2	C7H6O4PS+
234.9828	13	C13H2NO2P+
239.9881	7	C9H7NO3PS+
240.9721	3	C9H6O4PS+
257.9986	339	C9H9NO4PS+
263.0139	49	C12H10NO2PS+
268.0193	8	C11H11NO3PS+
269.0035	13	C11H10O4PS+
286.0299	494	C11H13NO4PS+
314.0612	463	C13H17NO4PS+
