Mass spectrum: Icaridin; LC-ESI-QFT; MS2; CE: 45; R=17500; [M+H]+
Name: Icaridin
Name: butan-2-yl 2-(2-hydroxyethyl)piperidine-1-carboxylate
Formula: C12H23NO3
Exact mass: 229.1678
SMILES: CCC(C)OC(=O)N1CCCCC1CCO
InChI: InChI=1S/C12H23NO3/c1-3-10(2)16-12(15)13-8-5-4-6-11(13)7-9-14/h10-11,14H,3-9H2,1-2H3
Instrument: Q Exactive Orbitrap (Thermo Scientific)
Instrument type: LC-ESI-QFT
Ms type: MS2
Ion mode: POSITIVE
Ionization: ESI
Fragmentation mode: HCD
Collision energy: 45
Resolution: 17500
Column name: Acquity BEH C18 1.7um, 2.1x150mm (Waters)
Retention time: 16.941 min
Base peak: 79.0211
Precursor m/z: 230.1751
Precursor type: [M+H]+
Precursor intensity: 9591943.125
m/z	relative intensity	assigned
57.0699	9	C4H9+
67.0542	23	C5H7+
69.0697	7	C5H9+
71.0491	59	C4H7O+
84.0807	37	C5H10N+
95.0856	89	C7H11+
112.1121	133	C7H14N+
113.0961	40	C7H13O+
128.0707	42	C6H10NO2+
130.1227	999	C7H16NO+
156.1021	37	C8H14NO2+
173.0937	30	C12H13O+
