Mass spectrum: Phenolphthalin; LC-ESI-QFT; MS2; CE: 15; R=17500; [M-H]-
Name: Phenolphthalin
Name: 2-[bis(4-hydroxyphenyl)methyl]benzoic acid
Formula: C20H16O4
Exact mass: 320.1049
SMILES: OC(=O)C1=C(C=CC=C1)C(C1=CC=C(O)C=C1)C1=CC=C(O)C=C1
InChI: InChI=1S/C20H16O4/c21-15-9-5-13(6-10-15)19(14-7-11-16(22)12-8-14)17-3-1-2-4-18(17)20(23)24/h1-12,19,21-22H,(H,23,24)
Instrument: Q Exactive Orbitrap (Thermo Scientific)
Instrument type: LC-ESI-QFT
Ms type: MS2
Ion mode: NEGATIVE
Ionization: ESI
Fragmentation mode: HCD
Collision energy: 15
Resolution: 17500
Column name: Acquity BEH C18 1.7um, 2.1x150mm (Waters)
Retention time: 15.585 min
Base peak: 215.0593
Precursor m/z: 319.0976
Precursor type: [M-H]-
Precursor intensity: 15437309.79199
m/z	relative intensity	assigned
93.0346	8	C6H5O-
181.0659	18	C13H9O-
197.0607	1	C13H9O2-
224.0478	10	C14H8O3-
225.0558	20	C14H9O3-
272.0853	1	C19H12O2-
273.0921	999	C19H13O2-
275.1078	29	C19H15O2-
305.0822	1	C19H13O4-
319.0974	947	C20H15O4-
