Mass spectrum: 2-(3-Phenylpropyl)pyridine; LC-ESI-QFT; MS2; CE: 45; R=17500; [M+H]+
Name: 2-(3-Phenylpropyl)pyridine
Formula: C14H15N
Exact mass: 197.1204
SMILES: C(CC1=CC=CC=C1)CC1=CC=CC=N1
InChI: InChI=1S/C14H15N/c1-2-7-13(8-3-1)9-6-11-14-10-4-5-12-15-14/h1-5,7-8,10,12H,6,9,11H2
Instrument: Q Exactive Orbitrap (Thermo Scientific)
Instrument type: LC-ESI-QFT
Ms type: MS2
Ion mode: POSITIVE
Ionization: ESI
Fragmentation mode: HCD
Collision energy: 45
Resolution: 17500
Column name: Acquity BEH C18 1.7um, 2.1x150mm (Waters)
Retention time: 13.113 min
Base peak: 79.0211
Precursor m/z: 198.1277
Precursor type: [M+H]+
Precursor intensity: 39234020.71875
m/z	relative intensity	assigned
80.0493	1	C5H6N+
91.0542	9	C7H7+
92.0494	2	C6H6N+
93.0573	23	C6H7N+
94.0651	10	C6H8N+
105.0699	15	C8H9+
106.0651	40	C7H8N+
107.0729	33	C7H9N+
118.0651	1	C8H8N+
119.073	1	C8H9N+
120.0808	352	C8H10N+
196.1126	1	C14H14N+
198.1277	999	C14H16N+
