Mass spectrum: Tetraethylene glycol di(2-ethylhexanoate); LC-ESI-QFT; MS2; CE: 60; R=17500; [M+H]+
Name: Tetraethylene glycol di(2-ethylhexanoate)
Name: 2-[2-[2-[2-(2-ethylhexanoyloxy)ethoxy]ethoxy]ethoxy]ethyl 2-ethylhexanoate
Formula: C24H46O7
Exact mass: 446.3244
SMILES: CCCCC(CC)C(=O)OCCOCCOCCOCCOC(=O)C(CC)CCCC
InChI: InChI=1S/C24H46O7/c1-5-9-11-21(7-3)23(25)30-19-17-28-15-13-27-14-16-29-18-20-31-24(26)22(8-4)12-10-6-2/h21-22H,5-20H2,1-4H3
Instrument: Q Exactive Orbitrap (Thermo Scientific)
Instrument type: LC-ESI-QFT
Ms type: MS2
Ion mode: POSITIVE
Ionization: ESI
Fragmentation mode: HCD
Collision energy: 60
Resolution: 17500
Column name: Acquity BEH C18 1.7um, 2.1x150mm (Waters)
Retention time: 20.468 min
Base peak: 79.0212
Precursor m/z: 447.3316
Precursor type: [M+H]+
Precursor intensity: 1036021.4375
m/z	relative intensity	assigned
57.0699	999	C4H9+
73.0284	458	C3H5O2+
101.0598	81	C5H9O2+
109.1015	34	C8H13+
171.1379	606	C10H19O2+
