Mass spectrum: 4-[(3-oxobutanoyl)amino]benzenesulfonate; LC-ESI-QFT; MS2; CE: 45; R=17500; [M-H]-
Name: 4-[(3-oxobutanoyl)amino]benzenesulfonate
Name: 4-(3-Oxobutanamido)benzenesulfonic acid
Name: 4-(3-oxobutanoylamino)benzenesulfonic acid
Formula: C10H11NO5S
Exact mass: 257.0358
SMILES: CC(=O)CC(=O)NC1=CC=C(C=C1)S(O)(=O)=O
InChI: InChI=1S/C10H11NO5S/c1-7(12)6-10(13)11-8-2-4-9(5-3-8)17(14,15)16/h2-5H,6H2,1H3,(H,11,13)(H,14,15,16)
Instrument: Q Exactive Orbitrap (Thermo Scientific)
Instrument type: LC-ESI-QFT
Ms type: MS2
Ion mode: NEGATIVE
Ionization: ESI
Fragmentation mode: HCD
Collision energy: 45
Resolution: 17500
Column name: Acquity BEH C18 1.7um, 2.1x150mm (Waters)
Retention time: 3.763 min
Base peak: 198.9363
Precursor m/z: 256.0285
Precursor type: [M-H]-
Precursor intensity: 1817229.690186
m/z	relative intensity	assigned
57.0346	9	C3H5O-
78.035	4	C5H4N-
79.9571	19	O3S-
106.0298	14	C6H4NO-
108.0454	3	C6H6NO-
134.0248	88	C7H4NO2-
171.0002	6	C6H5NO3S-
172.0074	71	C6H6NO3S-
196.0075	12	C8H6NO3S-
197.9866	999	C7H4NO4S-
214.0183	4	C8H8NO4S-
238.0181	5	C10H8NO4S-
256.0287	29	C10H10NO5S-
