Mass spectrum: Nicardipine; LC-ESI-QFT; MS2; CE: 90; R=17500; [M+H]+
Name: Nicardipine
Name: 5-O-[2-[benzyl(methyl)amino]ethyl] 3-O-methyl 2,6-dimethyl-4-(3-nitrophenyl)-1,4-dihydropyridine-3,5-dicarboxylate
Formula: C26H29N3O6
Exact mass: 479.2056
SMILES: COC(=O)C1=C(C)NC(C)=C(C1C1=CC(=CC=C1)[N+]([O-])=O)C(=O)OCCN(C)CC1=CC=CC=C1
InChI: InChI=1S/C26H29N3O6/c1-17-22(25(30)34-4)24(20-11-8-12-21(15-20)29(32)33)23(18(2)27-17)26(31)35-14-13-28(3)16-19-9-6-5-7-10-19/h5-12,15,24,27H,13-14,16H2,1-4H3
Instrument: Q Exactive Orbitrap (Thermo Scientific)
Instrument type: LC-ESI-QFT
Ms type: MS2
Ion mode: POSITIVE
Ionization: ESI
Fragmentation mode: HCD
Collision energy: 90
Resolution: 17500
Column name: Acquity BEH C18 1.7um, 2.1x150mm (Waters)
Retention time: 14.916 min
Base peak: 79.0211
Precursor m/z: 480.2129
Precursor type: [M+H]+
Precursor intensity: 20082308
m/z	relative intensity	assigned
53.0022	3	C3HO+
53.0386	2	C4H5+
56.0495	1	C3H6N+
58.0651	3	C3H8N+
63.0228	2	C5H3+
65.0385	83	C5H5+
67.0178	149	C4H3O+
74.06	1	C3H8NO+
77.0385	1	C6H5+
78.0462	1	C6H6+
79.0541	8	C6H7+
80.0495	2	C5H6N+
89.0384	2	C7H5+
90.0464	1	C7H6+
91.0542	999	C7H7+
95.049	4	C6H7O+
99.044	1	C5H7O2+
102.0464	3	C8H6+
103.0542	6	C8H7+
104.0495	6	C7H6N+
105.0699	15	C8H9+
106.065	8	C7H8N+
107.073	1	C7H9N+
108.0446	1	C6H6NO+
111.0439	3	C6H7O2+
115.0542	15	C9H7+
116.062	1	C9H8+
118.0413	5	C8H6O+
122.0599	1	C7H8NO+
126.0464	2	C10H6+
127.0542	2	C10H7+
128.062	14	C10H8+
129.0334	2	C9H5O+
129.0697	11	C10H9+
130.0412	2	C9H6O+
130.0652	2	C9H8N+
132.0443	3	C8H6NO+
132.0808	1	C9H10N+
133.0521	12	C8H7NO+
134.06	24	C8H8NO+
139.0541	19	C11H7+
140.0495	4	C10H6N+
140.0619	11	C11H8+
141.0576	1	C10H7N+
141.0698	29	C11H9+
142.0413	1	C10H6O+
142.065	3	C10H8N+
143.0492	1	C10H7O+
143.073	4	C10H9N+
144.0807	2	C10H10N+
145.0646	3	C10H9O+
145.0886	3	C10H11N+
147.0439	1	C9H7O2+
148.0392	1	C8H6NO2+
150.0549	21	C8H8NO2+
152.062	27	C12H8+
153.0698	36	C12H9+
154.0413	1	C11H6O+
154.065	10	C11H8N+
154.0777	1	C12H10+
155.0493	3	C11H7O+
155.0604	5	C10H7N2+
155.0726	3	C11H9N+
155.0855	1	C12H11+
156.057	1	C11H8O+
156.0807	3	C11H10N+
157.0646	3	C11H9O+
157.0888	1	C11H11N+
158.0963	1	C11H12N+
160.0757	1	C10H10NO+
163.0542	2	C13H7+
164.0492	1	C12H6N+
164.0706	2	C9H10NO2+
165.0699	11	C13H9+
165.0784	10	C9H11NO2+
166.065	16	C12H8N+
167.0493	1	C12H7O+
167.0729	31	C12H9N+
168.0573	4	C12H8O+
168.0807	33	C12H10N+
169.0646	7	C12H9O+
169.0884	3	C12H11N+
170.0599	3	C11H8NO+
170.0963	7	C12H12N+
171.068	1	C11H9NO+
171.1043	2	C12H13N+
172.0757	2	C11H10NO+
176.0341	1	C9H6NO3+
178.065	9	C13H8N+
179.0729	7	C13H9N+
180.0657	6	C9H10NO3+
180.0806	91	C13H10N+
181.0647	7	C13H9O+
181.0884	28	C13H11N+
182.06	3	C12H8NO+
182.0964	28	C13H12N+
183.0677	6	C12H9NO+
183.1042	1	C13H13N+
184.0756	11	C12H10NO+
184.1122	1	C13H14N+
185.0596	1	C12H9O2+
185.0829	1	C12H11NO+
186.0311	1	C11H6O3+
186.0913	2	C12H12NO+
189.0656	1	C10H9N2O2+
190.0649	3	C14H8N+
191.0726	2	C14H9N+
192.0806	3	C14H10N+
192.1017	6	C11H14NO2+
193.0522	1	C13H7NO+
193.0646	1	C14H9O+
193.0757	2	C13H9N2+
193.088	2	C14H11N+
194.06	10	C13H8NO+
194.0965	2	C14H12N+
195.0676	5	C13H9NO+
196.0756	22	C13H10NO+
197.0683	16	C9H11NO4+
197.0837	6	C13H11NO+
198.0912	21	C13H12NO+
199.0623	1	C12H9NO2+
200.0461	1	C10H6N3O2+
200.0705	4	C12H10NO2+
203.0576	1	C11H9NO3+
206.06	2	C14H8NO+
207.0678	6	C14H9NO+
208.0756	75	C14H10NO+
209.0833	19	C14H11NO+
210.0912	66	C14H12NO+
211.0625	2	C13H9NO2+
211.0994	1	C14H13NO+
212.0708	3	C13H10NO2+
213.0777	1	C13H11NO2+
214.0862	1	C13H12NO2+
221.0708	4	C14H9N2O+
222.0548	2	C14H8NO2+
223.0628	1	C14H9NO2+
224.0706	3	C14H10NO2+
225.0784	6	C14H11NO2+
226.0861	48	C14H12NO2+
227.0577	1	C13H9NO3+
235.0626	1	C15H9NO2+
236.0704	14	C15H10NO2+
237.0784	1	C15H11NO2+
239.0574	2	C14H9NO3+
240.0653	1	C14H10NO3+
240.1015	5	C15H14NO2+
241.0731	9	C14H11NO3+
243.0891	1	C14H13NO3+
252.0648	1	C15H10NO3+
253.0734	2	C15H11NO3+
254.0811	6	C15H12NO3+
256.0966	1	C15H14NO3+
257.0682	3	C14H11NO4+
267.0524	1	C15H9NO4+
267.0884	1	C16H13NO3+
268.0966	5	C16H14NO3+
269.0683	1	C15H11NO4+
285.063	5	C15H11NO5+
299.0786	3	C16H13NO5+
