Mass spectrum: Carbamazepine; LC-ESI-QFT; MS2; CE: 60; R=17500; [M+H]+
Name: Carbamazepine
Formula: C15H12N2O
Exact mass: 236.0950
SMILES: NC(=O)N1C2=CC=CC=C2C=CC2=C1C=CC=C2
InChI: InChI=1S/C15H12N2O/c16-15(18)17-13-7-3-1-5-11(13)9-10-12-6-2-4-8-14(12)17/h1-10H,(H2,16,18)
Instrument: Q Exactive Orbitrap (Thermo Scientific)
Instrument type: LC-ESI-QFT
Ms type: MS2
Ion mode: POSITIVE
Ionization: ESI
Fragmentation mode: HCD
Collision energy: 60
Resolution: 17500
Column name: Acquity BEH C18 1.7um, 2.1x150mm (Waters)
Retention time: 15.734 min
Base peak: 79.0212
Precursor m/z: 237.1022
Precursor type: [M+H]+
Precursor intensity: 20439802.125
m/z	relative intensity	assigned
91.0542	3	C7H7+
116.0494	4	C8H6N+
117.0572	1	C8H7N+
134.06	2	C8H8NO+
152.0622	4	C12H8+
165.0699	19	C13H9+
166.0773	1	C13H10+
167.0736	3	C12H9N+
167.0855	19	C13H11+
168.0809	1	C12H10N+
176.0614	1	C14H8+
177.0699	9	C14H9+
178.0644	1	C13H8N+
178.0779	4	C14H10+
179.0729	49	C13H9N+
190.0655	3	C14H8N+
191.073	10	C14H9N+
192.0809	286	C14H10N+
193.0888	121	C14H11N+
194.0963	999	C14H12N+
220.0761	1	C15H10NO+
237.102	1	C15H13N2O+
