Mass spectrum: Fenbuconazole; LC-ESI-QFT; MS2; CE: 75; R=17500; [M+H]+
Name: Fenbuconazole
Name: 4-(4-chlorophenyl)-2-phenyl-2-(1,2,4-triazol-1-ylmethyl)butanenitrile
Formula: C19H17ClN4
Exact mass: 336.1142
SMILES: ClC1=CC=C(CCC(CN2C=NC=N2)(C#N)C2=CC=CC=C2)C=C1
InChI: InChI=1S/C19H17ClN4/c20-18-8-6-16(7-9-18)10-11-19(12-21,13-24-15-22-14-23-24)17-4-2-1-3-5-17/h1-9,14-15H,10-11,13H2
Instrument: Q Exactive Orbitrap (Thermo Scientific)
Instrument type: LC-ESI-QFT
Ms type: MS2
Ion mode: POSITIVE
Ionization: ESI
Fragmentation mode: HCD
Collision energy: 75
Resolution: 17500
Column name: Acquity BEH C18 1.7um, 2.1x150mm (Waters)
Retention time: 18.181 min
Base peak: 79.0211
Precursor m/z: 337.1215
Precursor type: [M+H]+
Precursor intensity: 9878766.15625
m/z	relative intensity	assigned
53.0386	2	C4H5+
63.0229	3	C5H3+
65.0385	7	C5H5+
66.0463	1	C5H6+
70.0399	670	C2H4N3+
77.0385	1	C6H5+
79.0541	1	C6H7+
82.0399	25	C3H4N3+
83.0478	8	C3H5N3+
89.0385	71	C7H5+
90.0464	11	C7H6+
91.0542	98	C7H7+
95.0491	6	C3H10ClN+
98.9996	27	C5H4Cl+
102.0463	2	C8H6+
103.0542	58	C8H7+
104.0493	3	C7H6N+
104.0621	2	C8H8+
105.0448	3	C6H5N2+
115.0542	11	C9H7+
116.0495	4	C8H6N+
116.062	8	C9H8+
125.0152	999	C7H6Cl+
127.0541	2	C10H7+
128.062	34	C10H8+
129.0574	6	C9H7N+
129.0698	25	C10H9+
139.0308	9	C8H8Cl+
145.0648	5	C7H12ClN+
149.0153	5	C9H6Cl+
151.0308	1	C9H8Cl+
154.065	1	C11H8N+
155.0604	8	C10H7N2+
155.0729	1	C11H9N+
163.0308	3	C10H8Cl+
215.0854	7	C17H11+
216.0932	1	C17H12+
