Mass spectrum: MK-578; LC-ESI-QFT; MS2; CE: 60; R=17500; [M+H]+
Name: MK-578
Name: (2R)-2-[[(1R,3S,4S)-3-[[4-(5-benzyl-2-ethylpyrazol-3-yl)piperidin-1-yl]methyl]-4-(3-fluorophenyl)cyclopentyl]-methylamino]-3-methylbutanoic acid
Formula: C35H47FN4O2
Exact mass: 574.3683
SMILES: CCN1N=C(CC2=CC=CC=C2)C=C1C1CCN(C[C@H]2C[C@@H](C[C@@H]2C2=CC=CC(F)=C2)N(C)[C@H](C(C)C)C(O)=O)CC1
InChI: InChI=1S/C35H47FN4O2/c1-5-40-33(21-30(37-40)18-25-10-7-6-8-11-25)26-14-16-39(17-15-26)23-28-20-31(38(4)34(24(2)3)35(41)42)22-32(28)27-12-9-13-29(36)19-27/h6-13,19,21,24,26,28,31-32,34H,5,14-18,20,22-23H2,1-4H3,(H,41,42)/t28-,31+,32-,34-/m1/s1
Instrument: Q Exactive Orbitrap (Thermo Scientific)
Instrument type: LC-ESI-QFT
Ms type: MS2
Ion mode: POSITIVE
Ionization: ESI
Fragmentation mode: HCD
Collision energy: 60
Resolution: 17500
Column name: Acquity BEH C18 1.7um, 2.1x150mm (Waters)
Retention time: 14.569 min
Base peak: 79.0211
Precursor m/z: 575.3756
Precursor type: [M+H]+
Precursor intensity: 5620960.25
m/z	relative intensity	assigned
53.0386	8	C4H5+
55.0542	38	C4H7+
56.0495	47	C3H6N+
57.0137	2	C3H2F+
58.0651	206	C3H8N+
65.0386	9	C5H5+
67.0542	7	C5H7+
68.0494	10	C4H6N+
69.0699	5	C5H9+
70.0651	209	C4H8N+
71.0729	6	C4H9N+
72.0808	5	C4H10N+
79.0542	117	C6H7+
80.0495	5	C5H6N+
81.0575	2	C5H7N+
81.0699	4	C6H9+
82.0652	25	C5H8N+
83.0292	15	C5H4F+
83.0731	3	C5H9N+
84.0808	113	C5H10N+
86.0964	127	C5H12N+
91.0543	490	C7H7+
94.0652	15	C6H8N+
95.0492	16	C6H7O+
95.073	14	C6H9N+
96.0808	50	C6H10N+
97.0447	2	C6H6F+
98.0965	198	C6H12N+
103.0543	6	C8H7+
105.0448	6	C6H5N2+
105.07	3	C8H9+
107.0605	2	C6H7N2+
108.0809	6	C7H10N+
109.0449	999	C7H6F+
110.0968	3	C7H12N+
115.0543	3	C9H7+
117.0698	3	C4H8FN3+
120.0808	2	C8H10N+
121.045	2	C8H6F+
121.0761	5	C7H9N2+
122.0965	8	C8H12N+
123.0605	2	C8H8F+
123.0916	11	C7H11N2+
125.0714	1	C6H9N2O+
127.0543	3	C10H7+
128.0623	1	C10H8+
129.0699	12	C10H9+
133.0449	144	C9H6F+
133.0762	9	C8H9N2+
134.0528	6	C9H7F+
134.0839	2	C8H10N2+
135.0605	21	C9H8F+
135.0918	21	C8H11N2+
137.1074	11	C8H13N2+
145.0649	28	C10H9O+
146.0527	40	C10H7F+
147.0605	510	C10H8F+
147.0918	28	C9H11N2+
148.0997	3	C9H12N2+
149.0761	93	C10H10F+
149.1074	26	C9H13N2+
153.0702	7	C12H9+
155.0603	36	C10H7N2+
155.0855	11	C12H11+
159.0604	14	C11H8F+
160.0683	157	C11H9F+
161.1074	37	C10H13N2+
163.1228	14	C10H15N2+
164.0872	5	C10H11FN+
171.0917	4	C11H11N2+
172.0994	3	C11H12N2+
173.076	13	C12H10F+
175.0918	79	C12H12F+
176.1182	2	C10H14N3+
185.1075	8	C12H13N2+
187.1229	66	C12H15N2+
190.1338	3	C11H16N3+
192.1498	11	C11H18N3+
197.1071	3	C13H13N2+
199.123	16	C13H15N2+
201.1384	2	C13H17N2+
204.1184	28	C13H15FN+
204.1494	3	C12H18N3+
206.1342	11	C13H17FN+
209.1075	2	C14H13N2+
211.1231	37	C14H15N2+
213.1384	36	C14H17N2+
216.1185	1	C14H15FN+
223.1228	3	C15H15N2+
225.1386	70	C15H17N2+
227.1544	6	C15H19N2+
239.1543	75	C16H19N2+
241.1699	49	C16H21N2+
242.1652	6	C15H20N3+
253.1701	5	C17H21N2+
254.1655	10	C16H20N3+
256.1495	2	C17H19FN+
258.1648	1	C17H21FN+
270.1964	35	C17H24N3+
282.1965	47	C18H24N3+
304.1726	1	C18H23FNO2+
444.2812	21	C34H36+
