Mass spectrum: Troglitazone; LC-ESI-QFT; MS2; CE: 60; R=17500; [M-H]-
Name: Troglitazone
Name: 5-[[4-[(6-hydroxy-2,5,7,8-tetramethyl-3,4-dihydrochromen-2-yl)methoxy]phenyl]methyl]-1,3-thiazolidine-2,4-dione
Formula: C24H27NO5S
Exact mass: 441.1610
SMILES: CC1=C(O)C(C)=C2CCC(C)(COC3=CC=C(CC4SC(=O)NC4=O)C=C3)OC2=C1C
InChI: InChI=1S/C24H27NO5S/c1-13-14(2)21-18(15(3)20(13)26)9-10-24(4,30-21)12-29-17-7-5-16(6-8-17)11-19-22(27)25-23(28)31-19/h5-8,19,26H,9-12H2,1-4H3,(H,25,27,28)
Instrument: Q Exactive Orbitrap (Thermo Scientific)
Instrument type: LC-ESI-QFT
Ms type: MS2
Ion mode: NEGATIVE
Ionization: ESI
Fragmentation mode: HCD
Collision energy: 60
Resolution: 17500
Column name: Acquity BEH C18 1.7um, 2.1x150mm (Waters)
Retention time: 18.741 min
Base peak: 357.026
Precursor m/z: 440.1537
Precursor type: [M-H]-
Precursor intensity: 8864737.691406
m/z	relative intensity	assigned
71.9677	33	C2OS-
72.9754	28	C2HOS-
96.9602	305	HO4S-
114.9735	26	C3HNO2S-
117.0346	218	C8H5O-
119.0502	216	C8H7O-
121.0297	26	C7H5O2-
137.0066	64	C7H5OS-
145.0295	999	C9H5O2-
149.0066	71	C8H5OS-
150.0145	581	C8H6OS-
151.0223	338	C8H7OS-
163.0765	103	C10H11O2-
167.002	19	C4H7O5S-
178.0094	89	C9H6O2S-
179.0175	27	C9H7O2S-
193.021	10	C9H7NO2S-
207.9816	39	C12O4-
