Mass spectrum: 4,4`-Sulfonyldiphenol; LC-ESI-QFT; MS2; CE: 75; R=17500; [M-H]-
Name: 4,4'-Sulfonyldiphenol
Name: 4-(4-hydroxyphenyl)sulfonylphenol
Formula: C12H10O4S
Exact mass: 250.0300
SMILES: OC1=CC=C(C=C1)S(=O)(=O)C1=CC=C(O)C=C1
InChI: InChI=1S/C12H10O4S/c13-9-1-5-11(6-2-9)17(15,16)12-7-3-10(14)4-8-12/h1-8,13-14H
Instrument: Q Exactive Orbitrap (Thermo Scientific)
Instrument type: LC-ESI-QFT
Ms type: MS2
Ion mode: NEGATIVE
Ionization: ESI
Fragmentation mode: HCD
Collision energy: 75
Resolution: 17500
Column name: Acquity BEH C18 1.7um, 2.1x150mm (Waters)
Retention time: 13.529 min
Base peak: 249.0227
Precursor m/z: 249.0227
Precursor type: [M-H]-
Precursor intensity: 15766623.68359
m/z	relative intensity	assigned
63.9624	6	O2S-
67.0191	1	C4H3O-
68.9982	3	C3HO2-
69.0346	2	C4H5O-
71.0138	1	C3H3O2-
79.0189	1	C5H3O-
79.9574	11	O3S-
82.006	4	C4H2O2-
92.0268	8	C6H4O-
93.0346	20	C6H5O-
95.0139	102	C5H3O2-
97.0295	1	C5H5O2-
106.0061	5	C6H2O2-
108.0217	999	C6H4O2-
109.0293	2	C6H5O2-
117.0347	3	C8H5O-
123.0088	13	C6H3O3-
136.0165	1	C7H4O3-
138.9858	1	C6H3O2S-
139.9939	3	C6H4O2S-
143.0502	1	C10H7O-
155.9887	6	C6H4O3S-
156.0583	3	C11H8O-
156.9964	4	C6H5O3S-
184.053	23	C12H8O2-
185.0607	1	C12H9O2-
249.0226	3	C12H9O4S-
