Mass spectrum: epsilon-Decalactone; LC-ESI-QFT; MS2; CE: 30; R=17500; [M+H]+
Name: epsilon-Decalactone
Name: 7-butyloxepan-2-one
Formula: C10H18O2
Exact mass: 170.1307
SMILES: CCCCC1CCCCC(=O)O1
InChI: InChI=1S/C10H18O2/c1-2-3-6-9-7-4-5-8-10(11)12-9/h9H,2-8H2,1H3
Instrument: Q Exactive Orbitrap (Thermo Scientific)
Instrument type: LC-ESI-QFT
Ms type: MS2
Ion mode: POSITIVE
Ionization: ESI
Fragmentation mode: HCD
Collision energy: 30
Resolution: 17500
Column name: Acquity BEH C18 1.7um, 2.1x150mm (Waters)
Retention time: 17.660 min
Base peak: 79.0212
Precursor m/z: 171.138
Precursor type: [M+H]+
Precursor intensity: 670679.375
m/z	relative intensity	assigned
55.0543	8	C4H7+
57.0699	130	C4H9+
73.0283	127	C3H5O2+
83.0856	19	C6H11+
101.0598	29	C5H9O2+
109.1011	9	C8H13+
115.0757	5	C6H11O2+
129.0911	16	C7H13O2+
171.138	999	C10H19O2+
