Mass spectrum: SR58611; LC-ESI-QFT; MS2; CE: 75; R=17500; [M+H]+
Name: SR58611
Name: ethyl 2-[[7-[[2-(3-chlorophenyl)-2-hydroxyethyl]amino]-5,6,7,8-tetrahydronaphthalen-2-yl]oxy]acetate
Formula: C22H26ClNO4
Exact mass: 403.1550
SMILES: CCOC(=O)COC1=CC2=C(CCC(C2)NCC(O)C2=CC(Cl)=CC=C2)C=C1
InChI: InChI=1S/C22H26ClNO4/c1-2-27-22(26)14-28-20-9-7-15-6-8-19(11-17(15)12-20)24-13-21(25)16-4-3-5-18(23)10-16/h3-5,7,9-10,12,19,21,24-25H,2,6,8,11,13-14H2,1H3
Instrument: Q Exactive Orbitrap (Thermo Scientific)
Instrument type: LC-ESI-QFT
Ms type: MS2
Ion mode: POSITIVE
Ionization: ESI
Fragmentation mode: HCD
Collision energy: 75
Resolution: 17500
Column name: Acquity BEH C18 1.7um, 2.1x150mm (Waters)
Retention time: 15.271 min
Base peak: 79.0211
Precursor m/z: 404.1623
Precursor type: [M+H]+
Precursor intensity: 20565413.75
m/z	relative intensity	assigned
51.0229	1	C4H3+
53.0386	10	C4H5+
55.0179	3	C3H3O+
63.0228	2	C5H3+
65.0385	8	C5H5+
75.0228	1	C6H3+
77.0386	3	C6H5+
79.0542	20	C6H7+
90.0465	1	C7H6+
91.0542	995	C7H7+
92.062	2	C7H8+
95.0491	6	C6H7O+
102.0465	9	C8H6+
103.0542	105	C8H7+
104.0495	4	C7H6N+
104.0619	1	C8H8+
105.0699	43	C8H9+
107.0491	12	C7H7O+
115.0542	120	C9H7+
116.0621	247	C9H8+
117.0574	11	C8H7N+
117.0699	165	C9H9+
118.0651	161	C8H8N+
119.073	335	C8H9N+
121.0647	6	C8H9O+
125.0152	3	C7H6Cl+
126.046	1	C10H6+
127.0309	3	C7H8Cl+
127.0542	34	C10H7+
128.0621	999	C10H8+
129.0698	603	C10H9+
130.0777	9	C10H10+
131.0492	83	C9H7O+
131.0855	859	C10H11+
132.0571	6	C9H8O+
133.0647	11	C9H9O+
137.0153	7	C8H6Cl+
139.0309	11	C8H8Cl+
141.0698	51	C11H9+
142.0776	11	C11H10+
143.0602	6	C8H12Cl+
144.057	82	C10H8O+
145.0648	327	C10H9O+
146.0726	148	C10H10O+
147.0804	418	C10H11O+
154.0418	63	C8H9ClN+
155.0604	184	C9H12Cl+
156.0572	1	C11H8O+
157.076	617	C9H14Cl+
158.0727	7	C11H10O+
159.0804	200	C11H11O+
161.0963	1	C11H13O+
169.0757	3	C10H14Cl+
172.088	2	C12H12O+
174.0911	2	C11H12NO+
179.0702	1	C10H11O3+
204.0782	3	C12H12O3+
205.0859	8	C12H13O3+
