Mass spectrum: Hydrochlorothiazide; LC-ESI-QFT; MS2; CE: 45; R=17500; [M-H]-
Name: Hydrochlorothiazide
Name: 6-chloro-1,1-dioxo-3,4-dihydro-2H-1lambda6,2,4-benzothiadiazine-7-sulfonamide
Formula: C7H8ClN3O4S2
Exact mass: 296.9645
SMILES: NS(=O)(=O)C1=CC2=C(NCNS2(=O)=O)C=C1Cl
InChI: InChI=1S/C7H8ClN3O4S2/c8-4-1-5-7(2-6(4)16(9,12)13)17(14,15)11-3-10-5/h1-2,10-11H,3H2,(H2,9,12,13)
Instrument: Q Exactive Orbitrap (Thermo Scientific)
Instrument type: LC-ESI-QFT
Ms type: MS2
Ion mode: NEGATIVE
Ionization: ESI
Fragmentation mode: HCD
Collision energy: 45
Resolution: 17500
Column name: Acquity BEH C18 1.7um, 2.1x150mm (Waters)
Retention time: 8.152 min
Base peak: 218.1034
Precursor m/z: 295.9572
Precursor type: [M-H]-
Precursor intensity: 3722957.85791
m/z	relative intensity	assigned
63.9625	5	O2S-
76.0191	4	C5H2N-
77.9655	868	NO2S-
78.9733	21	HNO2S-
79.9812	7	H2NO2S-
90.035	3	C6H4N-
92.0141	4	C5H2NO-
93.9605	11	NO3S-
104.0381	2	C6H4N2-
105.0459	13	C6H5N2-
117.0459	7	C7H5N2-
119.0252	3	C6H3N2O-
121.0407	28	C6H5N2O-
126.0116	202	C6H5ClN-
132.0566	3	C7H6N3-
140.9988	2	C6H4ClNO-
141.0226	5	C6H6ClN2-
148.0519	3	C7H6N3O-
153.0224	6	C7H6ClN2-
168	2	C6H4N2O2S-
169.0076	32	C6H5N2O2S-
181.0076	3	C7H5N2O2S-
188.9655	2	C6H4ClNO2S-
189.9736	40	C6H5ClNO2S-
196.0189	4	C7H6N3O2S-
202.9686	9	C6H4ClN2O2S-
203.9764	13	C6H5ClN2O2S-
204.9843	999	C6H6ClN2O2S-
214.9686	3	C7H4ClN2O2S-
216.9652	4	C7H6ClN2S2-
216.9841	10	C7H6ClN2O2S-
219.9717	7	C6H5ClN2O3S-
231.9948	13	C7H7ClN3O2S-
268.9463	413	C6H6ClN2O4S2-
295.9572	55	C7H7ClN3O4S2-
