Mass spectrum: 3-Amino-9-ethylcarbazole; LC-ESI-QFT; MS2; CE: 75; R=17500; [M+H]+
Name: 3-Amino-9-ethylcarbazole
Name: 9-ethylcarbazol-3-amine
Formula: C14H14N2
Exact mass: 210.1157
SMILES: CCN1C2=C(C=CC=C2)C2=C1C=CC(N)=C2
InChI: InChI=1S/C14H14N2/c1-2-16-13-6-4-3-5-11(13)12-9-10(15)7-8-14(12)16/h3-9H,2,15H2,1H3
Instrument: Q Exactive Orbitrap (Thermo Scientific)
Instrument type: LC-ESI-QFT
Ms type: MS2
Ion mode: POSITIVE
Ionization: ESI
Fragmentation mode: HCD
Collision energy: 75
Resolution: 17500
Column name: Acquity BEH C18 1.7um, 2.1x150mm (Waters)
Retention time: 14.120 min
Base peak: 79.0212
Precursor m/z: 211.123
Precursor type: [M+H]+
Precursor intensity: 7533411.4375
m/z	relative intensity	assigned
115.0544	1	C9H7+
116.0499	1	C8H6N+
117.0576	2	C8H7N+
129.0576	1	C9H7N+
129.0701	1	C10H9+
130.0651	15	C9H8N+
137.0117	4	C9HN2+
139.0544	4	C11H7+
140.0498	1	C10H6N+
141.07	1	C11H9+
143.0733	2	C10H9N+
145.0888	2	C10H11N+
152.0622	11	C12H8+
153.0577	2	C11H7N+
153.0703	1	C12H9+
154.0652	8	C11H8N+
155.0613	1	C10H7N2+
155.073	17	C11H9N+
156.0808	5	C11H10N+
165.0573	2	C12H7N+
165.0698	3	C13H9+
166.0652	72	C12H8N+
167.0731	38	C12H9N+
167.0846	3	C13H11+
168.0812	5	C12H10N+
178.0651	26	C13H8N+
179.0731	117	C13H9N+
180.0808	72	C13H10N+
181.0761	129	C12H9N2+
182.0839	999	C12H10N2+
183.0917	31	C12H11N2+
184.1121	1	C13H14N+
192.0807	5	C14H10N+
193.0887	17	C14H11N+
194.0965	16	C14H12N+
195.0918	109	C13H11N2+
195.1039	10	C14H13N+
209.1071	3	C14H13N2+
210.1153	23	C14H14N2+
211.1231	17	C14H15N2+
