Mass spectrum: Fenarimol; LC-ESI-QFT; MS2; CE: 90; R=17500; [M+H]+
Name: Fenarimol
Name: (2-chlorophenyl)-(4-chlorophenyl)-pyrimidin-5-ylmethanol
Formula: C17H12Cl2N2O
Exact mass: 330.0327
SMILES: OC(C1=CC=C(Cl)C=C1)(C1=CN=CN=C1)C1=CC=CC=C1Cl
InChI: InChI=1S/C17H12Cl2N2O/c18-14-7-5-12(6-8-14)17(22,13-9-20-11-21-10-13)15-3-1-2-4-16(15)19/h1-11,22H
Instrument: Q Exactive Orbitrap (Thermo Scientific)
Instrument type: LC-ESI-QFT
Ms type: MS2
Ion mode: POSITIVE
Ionization: ESI
Fragmentation mode: HCD
Collision energy: 90
Resolution: 17500
Column name: Acquity BEH C18 1.7um, 2.1x150mm (Waters)
Retention time: 18.058 min
Base peak: 79.0211
Precursor m/z: 331.0399
Precursor type: [M+H]+
Precursor intensity: 18541505.625
m/z	relative intensity	assigned
50.0152	13	C4H2+
52.0182	17	C3H2N+
53.0022	13	C3HO+
53.0386	16	C4H5+
54.0338	588	C3H4N+
55.0178	11	C3H3O+
65.0386	9	C5H5+
71.037	9	ClH8N2+
75.0229	263	C6H3+
77.0385	42	C6H5+
79.0179	12	C5H3O+
79.0543	6	C6H7+
81.0447	999	C4H5N2+
86.9996	71	C4H4Cl+
91.0542	74	C7H7+
93.0335	18	C6H5O+
94.0413	23	C6H6O+
95.0491	43	C6H7O+
97.0649	6	C6H9O+
101.0385	64	C8H5+
102.0464	13	C8H6+
103.0542	10	C8H7+
104.0495	6	C7H6N+
105.0336	5	C7H5O+
105.0445	18	C6H5N2+
110.9996	38	C6H4Cl+
111.044	46	C3H10ClNO+
113.0151	15	C6H6Cl+
113.0397	76	C9H5+
119.0491	125	C8H7O+
122.0481	169	C6H6N2O+
123.0241	47	C10H3+
123.0353	123	C2H13Cl2O+
124.0276	27	CH12Cl2NO+
124.0387	56	C3H9ClN2O+
125.0153	8	C7H6Cl+
128.0024	7	C6H5ClO+
128.0495	30	C9H6N+
129.0102	234	C6H6ClO+
129.0447	303	C8H5N2+
129.0566	16	C9H7N+
130.0651	36	C9H8N+
131.0493	7	C9H7O+
137.0152	15	C8H6Cl+
138.0108	5	C7H5ClN+
138.9946	774	C7H4ClO+
140.0261	6	C7H7ClN+
146.0601	11	C9H8NO+
149.0148	13	C9H6Cl+
152.062	27	C12H8+
155.0603	5	C10H7N2+
156.0445	4	C10H6NO+
156.0683	6	C10H8N2+
157.0763	9	C10H9N2+
164.0261	19	C9H7ClN+
164.0622	6	C13H8+
165.0699	53	C13H9+
169.0649	8	C12H9O+
176.0621	58	C14H8+
177.0701	34	C14H9+
178.0778	136	C14H10+
184.0637	7	C11H8N2O+
185.0715	3	C11H9N2O+
187.0542	41	C15H7+
188.0618	23	C15H8+
189.0699	908	C15H9+
190.0654	6	C14H8N+
192.0212	13	C10H7ClNO+
192.0567	29	C14H8O+
199.031	34	C13H8Cl+
203.0728	42	C15H9N+
204.0809	191	C15H10N+
205.0649	103	C15H9O+
205.0881	19	C15H11N+
206.0963	6	C15H12N+
212.0388	23	C14H9Cl+
214.0648	37	C16H8N+
215.0731	13	C16H9N+
216.0807	96	C16H10N+
217.0887	12	C16H11N+
219.0321	12	C11H8ClN2O+
220.0517	16	C12H11ClNO+
223.0308	179	C15H8Cl+
224.0386	5	C15H9Cl+
232.0754	26	C16H10NO+
232.9918	54	C13H7Cl2+
233.0838	21	C16H11NO+
238.0418	79	C15H9ClN+
240.0574	35	C15H11ClN+
241.0414	29	C15H10ClO+
242.0838	32	C17H10N2+
243.092	12	C17H11N2+
244.0991	4	C17H12N2+
250.0417	34	C16H9ClN+
251.026	7	C16H8ClO+
251.05	12	C16H10ClN+
252.0331	23	C16H9ClO+
259.008	16	C15H9Cl2+
266.0365	28	C16H9ClNO+
268.0523	3	C16H11ClNO+
277.0534	4	C17H10ClN2+
278.0621	3	C17H11ClN2+
