Mass spectrum: 6-Hydroxy-2-naphthyl disulfide; LC-ESI-QFT; MS2; CE: 90; R=17500; [M-H]-
Name: 6-Hydroxy-2-naphthyl disulfide
Name: 6-[(6-hydroxynaphthalen-2-yl)disulfanyl]naphthalen-2-ol
Formula: C20H14O2S2
Exact mass: 350.0435
SMILES: OC1=CC2=CC=C(SSC3=CC4=CC=C(O)C=C4C=C3)C=C2C=C1
InChI: InChI=1S/C20H14O2S2/c21-17-5-1-15-11-19(7-3-13(15)9-17)23-24-20-8-4-14-10-18(22)6-2-16(14)12-20/h1-12,21-22H
Instrument: Q Exactive Orbitrap (Thermo Scientific)
Instrument type: LC-ESI-QFT
Ms type: MS2
Ion mode: NEGATIVE
Ionization: ESI
Fragmentation mode: HCD
Collision energy: 90
Resolution: 17500
Column name: Acquity BEH C18 1.7um, 2.1x150mm (Waters)
Retention time: 19.431 min
Base peak: 240.1031
Precursor m/z: 349.0362
Precursor type: [M-H]-
Precursor intensity: 18974653.40723
m/z	relative intensity	assigned
115.0553	6	C9H7-
130.0423	9	C9H6O-
141.0347	20	C10H5O-
143.0502	66	C10H7O-
146.0196	463	C9H6S-
147.0276	5	C9H7S-
174.0145	999	C10H6OS-
175.0223	67	C10H7OS-
