Mass spectrum: Azoxystrobin; LC-ESI-QFT; MS2; CE: 60; R=17500; [M+H]+
Name: Azoxystrobin
Formula: C22H17N3O5
Exact mass: 403.1168
SMILES: CO\C=C(\C(=O)OC)C1=CC=CC=C1OC1=CC(OC2=CC=CC=C2C#N)=NC=N1
InChI: InChI=1S/C22H17N3O5/c1-27-13-17(22(26)28-2)16-8-4-6-10-19(16)30-21-11-20(24-14-25-21)29-18-9-5-3-7-15(18)12-23/h3-11,13-14H,1-2H3/b17-13+
Instrument: Q Exactive Orbitrap (Thermo Scientific)
Instrument type: LC-ESI-QFT
Ms type: MS2
Ion mode: POSITIVE
Ionization: ESI
Fragmentation mode: HCD
Collision energy: 60
Resolution: 17500
Column name: Acquity BEH C18 1.7um, 2.1x150mm (Waters)
Retention time: 16.922 min
Base peak: 79.0212
Precursor m/z: 404.1241
Precursor type: [M+H]+
Precursor intensity: 21879989.25
m/z	relative intensity	assigned
53.0023	3	C3HO+
55.0178	9	C3H3O+
65.0386	18	C5H5+
66.0464	5	C5H6+
68.013	6	C3H2NO+
68.0256	12	C4H4O+
68.997	26	C3HO2+
75.0437	7	C3H7O2+
77.0385	3	C6H5+
78.0338	10	C5H4N+
78.0465	6	C6H6+
79.0415	4	C5H5N+
79.0542	22	C6H7+
80.013	3	C4H2NO+
80.0492	3	C5H6N+
83.0127	18	C4H3O2+
89.0385	76	C7H5+
91.0417	15	C6H5N+
91.0542	33	C7H7+
92.0256	9	C6H4O+
92.0494	13	C6H6N+
94.0413	4	C6H6O+
95.0491	10	C6H7O+
102.0336	16	C7H4N+
102.0463	5	C8H6+
103.0416	14	C7H5N+
103.0541	24	C8H7+
104.0494	42	C7H6N+
105.0334	32	C7H5O+
105.0449	3	C6H5N2+
105.0572	10	C7H7N+
106.0412	3	C7H6O+
106.0651	23	C7H8N+
107.0491	60	C7H7O+
114.0338	53	C8H4N+
115.0415	7	C8H5N+
115.0543	16	C9H7+
116.0494	48	C8H6N+
117.0333	17	C8H5O+
117.0572	23	C8H7N+
118.0413	17	C8H6O+
118.052	3	C7H6N2+
118.0652	4	C8H8N+
119.0365	28	C7H5NO+
119.0491	12	C8H7O+
120.0444	167	C7H6NO+
121.0285	3	C7H5O2+
121.0523	9	C7H7NO+
121.0647	30	C8H9O+
127.0416	37	C9H5N+
128.0493	16	C9H6N+
129.0335	45	C9H5O+
129.0447	205	C8H5N2+
130.0287	35	C8H4NO+
130.04	125	C7H4N3+
130.0523	19	C8H6N2+
130.065	12	C9H8N+
131.0366	14	C8H5NO+
131.0491	25	C9H7O+
131.0544	3	H9N3O5+
131.0553	3	H9N3O5+
131.0602	21	C8H7N2+
132.0443	43	C8H6NO+
133.0284	25	C8H5O2+
133.0522	232	C8H7NO+
134.06	395	C8H8NO+
140.0495	5	C10H6N+
141.0446	62	C9H5N2+
142.0524	9	C9H6N2+
142.0647	3	C10H8N+
143.0366	60	C9H5NO+
143.0603	177	C9H7N2+
144.0444	45	C9H6NO+
145.0284	94	C9H5O2+
145.0521	189	C9H7NO+
146.0235	38	C8H4NO2+
146.06	26	C9H8NO+
147.0441	20	C9H7O2+
147.0553	8	C8H7N2O+
148.0395	9	C8H6NO2+
148.0519	6	C9H8O2+
150.0548	5	C8H8NO2+
154.0287	3	C10H4NO+
154.0525	12	C10H6N2+
155.0365	10	C10H5NO+
155.0602	71	C10H7N2+
156.0443	870	C10H6NO+
157.0283	27	C10H5O2+
157.0523	11	C10H7NO+
158.0362	11	C10H6O2+
158.0475	4	C9H6N2O+
158.0602	7	C10H8NO+
159.0314	16	C9H5NO2+
159.0552	60	C9H7N2O+
160.0392	27	C9H6NO2+
160.0755	9	C10H10NO+
160.0866	7	C9H10N3+
161.0471	5	C9H7NO2+
161.0707	23	C9H9N2O+
162.0309	22	C9H6O3+
162.055	13	C9H8NO2+
168.0442	6	C11H6NO+
169.0396	124	C10H5N2O+
169.0521	7	C11H7NO+
170.0235	14	C10H4NO2+
170.0474	50	C10H6N2O+
170.06	16	C11H8NO+
170.0711	3	C10H8N3+
171.0317	32	C10H5NO2+
171.0552	180	C10H7N2O+
172.0392	828	C10H6NO2+
173.0471	76	C10H7NO2+
174.055	4	C10H8NO2+
175.0389	20	C10H7O3+
177.0545	52	C10H9O3+
181.0397	8	C11H5N2O+
181.0636	8	C11H7N3+
182.0474	85	C11H6N2O+
182.0713	47	C11H8N3+
183.0552	999	C11H7N2O+
184.0393	36	C11H6NO2+
184.0636	6	C11H8N2O+
185.0235	9	C11H5O3+
185.0346	10	C10H5N2O2+
185.0473	3	C11H7NO2+
185.0709	6	C11H9N2O+
186.0421	3	C10H6N2O2+
186.0447	3	C10H6N2O2+
186.0548	34	C11H8NO2+
186.0649	4	C10H8N3O+
187.0502	26	C10H7N2O2+
188.0705	18	C11H10NO2+
190.0498	19	C10H8NO3+
190.0648	3	C14H8N+
195.0554	5	C12H7N2O+
197.0347	10	C11H5N2O2+
197.0708	12	C12H9N2O+
198.0422	9	C11H6N2O2+
198.0786	7	C12H10N2O+
199.0501	284	C11H7N2O2+
200.0341	365	C11H6NO3+
201.042	299	C11H7NO3+
201.0654	59	C11H9N2O2+
204.0808	13	C15H10N+
205.0757	4	C14H9N2+
206.0603	4	C14H8NO+
207.0554	14	C13H7N2O+
210.0423	163	C12H6N2O2+
210.0662	34	C12H8N3O+
211.0502	76	C12H7N2O2+
212.0346	7	C12H6NO3+
216.0655	59	C12H10NO3+
218.0836	15	C15H10N2+
219.068	4	C15H9NO+
219.0918	5	C15H11N2+
220.0761	7	C15H10NO+
223.0743	8	C13H9N3O+
225.0662	4	C13H9N2O2+
227.045	16	C12H7N2O3+
228.0673	5	C16H8N2+
229.0762	13	C16H9N2+
231.0917	10	C16H11N2+
232.0756	13	C16H10NO+
232.0874	6	C15H10N3+
233.0713	21	C15H9N2O+
234.0786	5	C15H10N2O+
234.0911	6	C16H12NO+
236.0703	12	C15H10NO2+
242.0321	200	C12H6N2O4+
243.0915	6	C17H11N2+
244.0754	5	C17H10NO+
244.087	38	C16H10N3+
245.0713	43	C16H9N2O+
245.0949	20	C16H11N3+
246.0788	41	C16H10N2O+
246.0917	4	C17H12NO+
247.086	21	C16H11N2O+
248.0707	6	C16H10NO2+
256.0869	18	C17H10N3+
257.0709	15	C17H9N2O+
257.0952	6	C17H11N3+
258.0786	23	C17H10N2O+
259.0866	25	C17H11N2O+
260.0704	11	C17H10NO2+
261.0792	18	C17H11NO2+
261.1025	7	C17H13N2O+
262.0863	9	C17H12NO2+
271.0865	10	C18H11N2O+
272.0817	290	C17H10N3O+
273.0658	167	C17H9N2O2+
273.0897	170	C17H11N3O+
274.0732	59	C17H10N2O2+
274.088	5	C18H12NO2+
275.0814	51	C17H11N2O2+
283.0738	8	C18H9N3O+
284.0816	28	C18H10N3O+
285.0661	13	C18H9N2O2+
285.0896	7	C18H11N3O+
286.0743	11	C18H10N2O2+
286.0981	6	C18H12N3O+
287.0815	45	C18H11N2O2+
288.0649	19	C18H10NO3+
288.1122	5	C18H14N3O+
289.0974	6	C18H13N2O2+
300.0766	274	C18H10N3O2+
301.0843	307	C18H11N3O2+
302.0678	6	C18H10N2O3+
303.0769	4	C18H11N2O3+
312.0766	19	C19H10N3O2+
314.0929	16	C19H12N3O2+
315.1001	10	C19H13N3O2+
316.1068	7	C19H14N3O2+
328.0715	771	C19H10N3O3+
329.0794	720	C19H11N3O3+
344.1031	34	C20H14N3O3+
