Mass spectrum: 2-Aminoanthraquinone; LC-ESI-QFT; MS2; CE: 45; R=17500; [M+H]+
Name: 2-Aminoanthraquinone
Name: 2-aminoanthracene-9,10-dione
Formula: C14H9NO2
Exact mass: 223.0633
SMILES: NC1=CC=C2C(=O)C3=C(C=CC=C3)C(=O)C2=C1
InChI: InChI=1S/C14H9NO2/c15-8-5-6-11-12(7-8)14(17)10-4-2-1-3-9(10)13(11)16/h1-7H,15H2
Instrument: Q Exactive Orbitrap (Thermo Scientific)
Instrument type: LC-ESI-QFT
Ms type: MS2
Ion mode: POSITIVE
Ionization: ESI
Fragmentation mode: HCD
Collision energy: 45
Resolution: 17500
Column name: Acquity BEH C18 1.7um, 2.1x150mm (Waters)
Retention time: 15.327 min
Base peak: 79.0211
Precursor m/z: 224.0706
Precursor type: [M+H]+
Precursor intensity: 3710817.09375
m/z	relative intensity	assigned
55.0179	1	C3H3O+
68.9971	2	C3HO2+
93.07	1	C7H9+
129.0701	1	C10H9+
141.0696	4	C11H9+
152.0623	1	C12H8+
153.0702	4	C12H9+
154.0651	3	C11H8N+
155.0731	3	C11H9N+
167.0731	11	C12H9N+
168.0808	63	C12H10N+
169.0649	13	C12H9O+
178.0651	16	C13H8N+
179.0732	1	C13H9N+
180.0809	1	C13H10N+
181.0648	1	C13H9O+
195.0681	2	C13H9NO+
196.0758	638	C13H10NO+
197.0597	75	C13H9O2+
206.0598	2	C14H8NO+
207.068	42	C14H9NO+
211.0627	1	C13H9NO2+
223.0629	58	C14H9NO2+
224.0706	999	C14H10NO2+
