Mass spectrum: 5,5-Dimethylbarbituric acid; LC-ESI-QFT; MS2; CE: 45; R=17500; [M-H]-
Name: 5,5-Dimethylbarbituric acid
Name: 5,5-dimethyl-1,3-diazinane-2,4,6-trione
Formula: C6H8N2O3
Exact mass: 156.0535
SMILES: CC1(C)C(=O)NC(=O)NC1=O
InChI: InChI=1S/C6H8N2O3/c1-6(2)3(9)7-5(11)8-4(6)10/h1-2H3,(H2,7,8,9,10,11)
Instrument: Q Exactive Orbitrap (Thermo Scientific)
Instrument type: LC-ESI-QFT
Ms type: MS2
Ion mode: NEGATIVE
Ionization: ESI
Fragmentation mode: HCD
Collision energy: 45
Resolution: 17500
Column name: Acquity BEH C18 1.7um, 2.1x150mm (Waters)
Retention time: 17.343 min
Base peak: 329.1063
Precursor m/z: 155.0462
Precursor type: [M-H]-
Precursor intensity: 15248797.03516
m/z	relative intensity	assigned
54.0349	15	C3H4N-
64.0067	70	C3N2-
65.0145	37	C3HN2-
65.9985	999	C3NO-
75.0086	1	C2H3O3-
77.0145	2	C4HN2-
79.0302	504	C4H3N2-
80.0016	3	C3N2O-
87.0563	26	C3H7N2O-
96.0091	1	C4H2NO2-
97.0169	57	C4H3NO2-
98.0248	12	C4H4NO2-
109.0043	29	C4HN2O2-
110.0121	26	C4H2N2O2-
123.02	16	C5H3N2O2-
125.0356	145	C5H5N2O2-
140.0227	198	C5H4N2O3-
141.0308	9	C5H5N2O3-
155.0462	508	C6H7N2O3-
