Mass spectrum: 4-Nitro-N-phenylaniline; LC-ESI-QFT; MS2; CE: 90; R=17500; [M-H]-
Name: 4-Nitro-N-phenylaniline
Name: 4-Nitrodiphenylamine
Formula: C12H10N2O2
Exact mass: 214.0742
SMILES: [O-][N+](=O)C1=CC=C(NC2=CC=CC=C2)C=C1
InChI: InChI=1S/C12H10N2O2/c15-14(16)12-8-6-11(7-9-12)13-10-4-2-1-3-5-10/h1-9,13H
Instrument: Q Exactive Orbitrap (Thermo Scientific)
Instrument type: LC-ESI-QFT
Ms type: MS2
Ion mode: NEGATIVE
Ionization: ESI
Fragmentation mode: HCD
Collision energy: 90
Resolution: 17500
Column name: Acquity BEH C18 1.7um, 2.1x150mm (Waters)
Retention time: 17.870 min
Base peak: 213.067
Precursor m/z: 213.067
Precursor type: [M-H]-
Precursor intensity: 40002450.99805
m/z	relative intensity	assigned
90.0349	327	C6H4N-
93.0346	371	C6H5O-
107.0378	383	C6H5NO-
116.0506	135	C8H6N-
122.025	42	C6H4NO2-
137.0357	999	C6H5N2O2-
153.0585	225	C11H7N-
154.0663	236	C11H8N-
165.0586	41	C12H7N-
166.0663	780	C12H8N-
168.0457	97	C11H6NO-
170.0612	100	C11H8NO-
181.0534	925	C12H7NO-
182.0611	465	C12H8NO-
183.069	212	C12H9NO-
198.0562	50	C12H8NO2-
211.0516	151	C12H7N2O2-
213.0669	115	C12H9N2O2-
