Mass spectrum: Indinavir; LC-ESI-QFT; MS2; CE: 90; R=17500; [M-H]-
Name: Indinavir
Formula: C36H47N5O4
Exact mass: 613.3628
SMILES: CC(C)(C)NC(=O)[C@@H]1CN(Cc2cccnc2)CCN1C[C@@H](O)C[C@@H](Cc1ccccc1)C(=O)N[C@H]1c2ccccc2C[C@H]1O
InChI: InChI=1S/C36H47N5O4/c1-36(2,3)39-35(45)31-24-40(22-26-12-9-15-37-21-26)16-17-41(31)23-29(42)19-28(18-25-10-5-4-6-11-25)34(44)38-33-30-14-8-7-13-27(30)20-32(33)43/h4-15,21,28-29,31-33,42-43H,16-20,22-24H2,1-3H3,(H,38,44)(H,39,45)/t28-,29+,31+,32-,33+/m1/s1
Instrument: Q Exactive Orbitrap (Thermo Scientific)
Instrument type: LC-ESI-QFT
Ms type: MS2
Ion mode: NEGATIVE
Ionization: ESI
Fragmentation mode: HCD
Collision energy: 90
Resolution: 17500
Column name: Acquity BEH C18 1.7um, 2.1x150mm (Waters)
Retention time: 15.252 min
Base peak: 112.9857
Precursor m/z: 612.3555
Precursor type: [M-H]-
Precursor intensity: 781277.8361816
m/z	relative intensity	assigned
52.0191	71	C3H2N-
56.0506	212	C3H6N-
57.0346	78	C3H5O-
58.0299	118	C2H4NO-
66.0351	56	C4H4N-
68.0507	94	C4H6N-
70.0299	187	C3H4NO-
72.0456	63	C3H6NO-
81.022	91	C4H3NO-
84.0453	66	C4H6NO-
92.0506	999	C6H6N-
94.0297	97	C5H4NO-
115.0552	64	C9H7-
117.0459	922	C7H5N2-
119.0503	82	C8H7O-
119.0614	175	C7H7N2-
126.0924	58	C7H12NO-
128.0506	167	C9H6N-
131.0616	63	C8H7N2-
