Mass spectrum: CP-612372; LC-ESI-QFT; MS2; CE: 90; R=17500; [M-H]-
Name: CP-612372
Name: 2-(2,1,3-Benzoxadiazol-5-yloxy)-N-((4-(1-hydroxy-1-methylethyl)phenyl)methyl)-3-pyridinecarboxamide
Name: 2-(2,1,3-benzoxadiazol-5-yloxy)-N-[[4-(2-hydroxypropan-2-yl)phenyl]methyl]pyridine-3-carboxamide
Formula: C22H20N4O4
Exact mass: 404.1485
SMILES: CC(C)(O)C1=CC=C(CNC(=O)C2=CC=CN=C2OC2=CC3=NON=C3C=C2)C=C1
InChI: InChI=1S/C22H20N4O4/c1-22(2,28)15-7-5-14(6-8-15)13-24-20(27)17-4-3-11-23-21(17)29-16-9-10-18-19(12-16)26-30-25-18/h3-12,28H,13H2,1-2H3,(H,24,27)
Instrument: Q Exactive Orbitrap (Thermo Scientific)
Instrument type: LC-ESI-QFT
Ms type: MS2
Ion mode: NEGATIVE
Ionization: ESI
Fragmentation mode: HCD
Collision energy: 90
Resolution: 17500
Column name: Acquity BEH C18 1.7um, 2.1x150mm (Waters)
Retention time: 16.352 min
Base peak: 202.9785
Precursor m/z: 403.1412
Precursor type: [M-H]-
Precursor intensity: 8683249.847656
m/z	relative intensity	assigned
50.0035	28	C3N-
57.0346	10	C3H5O-
64.0067	9	C3N2-
64.0193	16	C4H2N-
65.0145	184	C3HN2-
65.9985	67	C3NO-
66.0349	52	C4H4N-
68.0142	29	C3H2NO-
74.0035	4	C5N-
76.0193	19	C5H2N-
77.0145	49	C4HN2-
78.0224	87	C4H2N2-
89.0145	749	C5HN2-
90.0097	57	C4N3-
90.0223	53	C5H2N2-
90.035	13	C6H4N-
91.0301	29	C5H3N2-
92.0143	28	C5H2NO-
94.0298	999	C5H4NO-
102.035	18	C7H4N-
103.0302	21	C6H3N2-
105.0094	12	C5HN2O-
105.0333	7	C5H3N3-
106.0173	46	C5H2N2O-
109.0169	4	C5H3NO2-
116.0255	60	C6H2N3-
117.0458	14	C7H5N2-
118.0172	6	C6H2N2O-
118.0299	5	C7H4NO-
119.0251	38	C6H3N2O-
121.0409	8	C6H5N2O-
132.0203	30	C6H2N3O-
133.0281	158	C6H3N3O-
140.0506	15	C10H6N-
156.0818	13	C11H10N-
167.0614	4	C11H7N2-
168.0456	4	C11H6NO-
170.0977	6	C12H12N-
182.0974	4	C13H12N-
206.0976	11	C15H12N-
220.0508	7	C13H6N3O-
222.0796	10	C14H10N2O-
233.1085	44	C16H13N2-
235.088	18	C15H11N2O-
237.1031	5	C15H13N2O-
239.0827	10	C14H11N2O2-
245.0958	4	C16H11N3-
247.075	10	C15H9N3O-
249.1028	3	C16H13N2O-
251.1189	7	C16H15N2O-
284.0835	8	C18H10N3O-
306.1033	7	C21H12N3-
322.0983	6	C21H12N3O-
340.06	12	C19H8N4O3-
349.1113	4	C22H13N4O-
351.088	20	C21H11N4O2-
353.1047	5	C21H13N4O2-
