Mass spectrum: 2,2`,4,4`-Tetrahydroxybenzophenone; LC-ESI-QFT; MS2; CE: 60; R=17500; [M-H]-
Name: 2,2',4,4'-Tetrahydroxybenzophenone
Name: bis(2,4-dihydroxyphenyl)methanone
Formula: C13H10O5
Exact mass: 246.0528
SMILES: OC1=CC(O)=C(C=C1)C(=O)C1=CC=C(O)C=C1O
InChI: InChI=1S/C13H10O5/c14-7-1-3-9(11(16)5-7)13(18)10-4-2-8(15)6-12(10)17/h1-6,14-17H
Instrument: Q Exactive Orbitrap (Thermo Scientific)
Instrument type: LC-ESI-QFT
Ms type: MS2
Ion mode: NEGATIVE
Ionization: ESI
Fragmentation mode: HCD
Collision energy: 60
Resolution: 17500
Column name: Acquity BEH C18 1.7um, 2.1x150mm (Waters)
Retention time: 14.968 min
Base peak: 245.0455
Precursor m/z: 245.0455
Precursor type: [M-H]-
Precursor intensity: 31858879.90918
m/z	relative intensity	assigned
63.024	1	C5H3-
65.0033	12	C4HO-
65.0397	149	C5H5-
67.019	55	C4H3O-
89.0397	9	C7H5-
91.019	654	C6H3O-
107.0139	4	C6H3O2-
108.0216	1	C6H4O2-
109.0295	999	C6H5O2-
115.0552	4	C9H7-
117.0347	1	C8H5O-
123.0088	2	C6H3O3-
128.0633	2	C10H8-
129.0712	2	C10H9-
130.0425	1	C9H6O-
131.0502	6	C9H7O-
133.0296	3	C8H5O2-
133.066	2	C9H9O-
135.0088	219	C7H3O3-
153.0194	55	C7H5O4-
156.0581	3	C11H8O-
157.0657	6	C11H9O-
158.0372	4	C10H6O2-
159.0451	33	C10H7O2-
161.0244	6	C9H5O3-
173.0607	1	C11H9O2-
177.0556	5	C10H9O3-
183.0453	1	C12H7O2-
201.0557	4	C12H9O3-
227.0349	3	C13H7O4-
