Mass spectrum: Tebuthiuron; LC-ESI-QFT; MS2; CE: 60; R=17500; [M+H]+
Name: Tebuthiuron
Name: 1-(5-tert-butyl-1,3,4-thiadiazol-2-yl)-1,3-dimethylurea
Formula: C9H16N4OS
Exact mass: 228.1045
SMILES: CNC(=O)N(C)C1=NN=C(S1)C(C)(C)C
InChI: InChI=1S/C9H16N4OS/c1-9(2,3)6-11-12-8(15-6)13(5)7(14)10-4/h1-5H3,(H,10,14)
Instrument: Q Exactive Orbitrap (Thermo Scientific)
Instrument type: LC-ESI-QFT
Ms type: MS2
Ion mode: POSITIVE
Ionization: ESI
Fragmentation mode: HCD
Collision energy: 60
Resolution: 17500
Column name: Acquity BEH C18 1.7um, 2.1x150mm (Waters)
Retention time: 15.522 min
Base peak: 79.0211
Precursor m/z: 229.1118
Precursor type: [M+H]+
Precursor intensity: 17245999.125
m/z	relative intensity	assigned
55.0543	1	C4H7+
56.0494	2	C3H6N+
57.0447	61	C2H5N2+
57.0698	53	C4H9+
58.0287	1	C2H4NO+
58.0651	2	C3H8N+
58.9949	2	C2H3S+
59.9902	6	CH2NS+
61.0106	1	C2H5S+
62.0059	118	CH4NS+
65.0386	1	C5H5+
69.0698	8	C5H9+
71.0603	1	C3H7N2+
72.0808	1	C4H10N+
73.0105	1	C3H5S+
74.0058	73	C2H4NS+
75.001	1	CH3N2S+
82.0652	2	C5H8N+
83.0728	1	C5H9N+
84.0807	4	C5H10N+
84.9855	2	C2HN2S+
88.0216	8	C3H6NS+
89.0168	196	C2H5N2S+
99.0262	1	C5H7S+
99.0916	4	C5H11N2+
101.0419	11	C5H9S+
108.0681	1	C6H8N2+
116.0277	677	C3H6N3S+
124.087	1	C6H10N3+
129.0354	1	C4H7N3S+
131.0638	1	C5H11N2S+
141.048	15	C6H9N2S+
142.0433	11	C5H8N3S+
156.059	5	C6H10N3S+
157.0668	161	C6H11N3S+
170.0746	1	C7H12N3S+
172.0902	999	C7H14N3S+
229.1118	2	C9H17N4OS+
