Mass spectrum: Albendazole; LC-ESI-QFT; MS2; CE: 45; R=17500; [M+H]+
Name: Albendazole
Name: methyl N-(6-propylsulfanyl-1H-benzimidazol-2-yl)carbamate
Formula: C12H15N3O2S
Exact mass: 265.0885
SMILES: CCCSC1=CC=C2NC(NC(=O)OC)=NC2=C1
InChI: InChI=1S/C12H15N3O2S/c1-3-6-18-8-4-5-9-10(7-8)14-11(13-9)15-12(16)17-2/h4-5,7H,3,6H2,1-2H3,(H2,13,14,15,16)
Instrument: Q Exactive Orbitrap (Thermo Scientific)
Instrument type: LC-ESI-QFT
Ms type: MS2
Ion mode: POSITIVE
Ionization: ESI
Fragmentation mode: HCD
Collision energy: 45
Resolution: 17500
Column name: Acquity BEH C18 1.7um, 2.1x150mm (Waters)
Retention time: 16.061 min
Base peak: 79.0211
Precursor m/z: 266.0958
Precursor type: [M+H]+
Precursor intensity: 25409198.125
m/z	relative intensity	assigned
159.0426	16	C8H5N3O+
160.0505	1	C8H6N3O+
179.051	1	C8H9N3S+
190.0074	1	C8H4N3OS+
191.0147	93	C8H5N3OS+
192.0225	107	C8H6N3OS+
205.0299	1	C9H7N3OS+
206.0743	1	C10H12N3S+
223.0411	4	C9H9N3O2S+
234.0694	999	C11H12N3OS+
266.0957	27	C12H16N3O2S+
