Mass spectrum: Crufomate; LC-ESI-QFT; MS2; CE: 45; R=17500; [M+H]+
Name: Crufomate
Name: N-[(4-tert-butyl-2-chlorophenoxy)-methoxyphosphoryl]methanamine
Formula: C12H19ClNO3P
Exact mass: 291.0791
SMILES: CNP(=O)(OC)OC1=CC=C(C=C1Cl)C(C)(C)C
InChI: InChI=1S/C12H19ClNO3P/c1-12(2,3)9-6-7-11(10(13)8-9)17-18(15,14-4)16-5/h6-8H,1-5H3,(H,14,15)
Instrument: Q Exactive Orbitrap (Thermo Scientific)
Instrument type: LC-ESI-QFT
Ms type: MS2
Ion mode: POSITIVE
Ionization: ESI
Fragmentation mode: HCD
Collision energy: 45
Resolution: 17500
Column name: Acquity BEH C18 1.7um, 2.1x150mm (Waters)
Retention time: 18.298 min
Base peak: 79.0211
Precursor m/z: 292.0864
Precursor type: [M+H]+
Precursor intensity: 25407837
m/z	relative intensity	assigned
53.0022	7	C3HO+
57.0699	488	C4H9+
59.9998	1	CH3NP+
78.0103	1	CH5NOP+
78.9944	1	CH4O2P+
91.0542	1	C7H7+
95.9764	45	CH4ClNP+
96.9604	1	CH3ClOP+
110.9999	1	C2H7ClNP+
112.0157	1	CH7NO3P+
122.06	2	C7H8NO+
126.0314	999	C2H9NO3P+
128.0029	1	C2H8ClNOP+
128.0357	2	ClH14O3P+
137.0961	2	C9H13O+
138.01	1	C10H2O+
140.0471	23	C3H11NO3P+
147.0805	2	C10H11O+
155.0257	1	C7H8O2P+
165.091	2	C10H13O2+
168.0208	1	C7H7NO2P+
172.9997	2	C7H6ClO3+
178.1225	2	C11H16NO+
183.0572	2	C10H12ClO+
189.9583	1	C6H4ClO3P+
203.9976	35	C7H8ClNO2P+
204.9817	10	C7H7ClO3P+
211.0516	2	C10H12O3P+
222.0081	199	C7H10ClNO3P+
222.9922	17	C10H7ClNOP+
229.0184	1	C10H11ClO2P+
230.0132	1	C9H10ClNO2P+
230.9972	10	C9H9ClO3P+
236.0237	792	C8H12ClNO3P+
245.0366	2	C10H13ClNO2P+
260.0602	95	C11H16ClNO2P+
261.0442	22	C11H15ClO3P+
278.0707	30	C11H18ClNO3P+
292.0863	80	C12H20ClNO3P+
