Mass spectrum: Farglitazar; LC-ESI-QFT; MS2; CE: 60; R=17500; [M-H]-
Name: Farglitazar
Name: (2S)-2-(2-benzoylanilino)-3-[4-[2-(5-methyl-2-phenyl-1,3-oxazol-4-yl)ethoxy]phenyl]propanoic acid
Formula: C34H30N2O5
Exact mass: 546.2155
SMILES: CC1=C(CCOC2=CC=C(C[C@H](NC3=C(C=CC=C3)C(=O)C3=CC=CC=C3)C(O)=O)C=C2)N=C(O1)C1=CC=CC=C1
InChI: InChI=1S/C34H30N2O5/c1-23-29(36-33(41-23)26-12-6-3-7-13-26)20-21-40-27-18-16-24(17-19-27)22-31(34(38)39)35-30-15-9-8-14-28(30)32(37)25-10-4-2-5-11-25/h2-19,31,35H,20-22H2,1H3,(H,38,39)/t31-/m0/s1
Instrument: Q Exactive Orbitrap (Thermo Scientific)
Instrument type: LC-ESI-QFT
Ms type: MS2
Ion mode: NEGATIVE
Ionization: ESI
Fragmentation mode: HCD
Collision energy: 60
Resolution: 17500
Column name: Acquity BEH C18 1.7um, 2.1x150mm (Waters)
Retention time: 20.138 min
Base peak: 112.9856
Precursor m/z: 545.2082
Precursor type: [M-H]-
Precursor intensity: 4230356.157715
m/z	relative intensity	assigned
92.0506	312	C6H6N-
93.0346	605	C6H5O-
95.0501	12	C6H7O-
102.0349	70	C7H4N-
106.0424	346	C7H6O-
107.0502	999	C7H7O-
108.0216	150	C6H4O2-
117.0343	19	C8H5O-
118.0297	28	C7H4NO-
119.0502	645	C8H7O-
120.0453	19	C7H6NO-
123.0451	22	C7H7O2-
131.0376	392	C8H5NO-
132.0457	15	C8H6NO-
133.0657	65	C9H9O-
134.0373	72	C8H6O2-
138.0322	94	C7H6O3-
144.0454	297	C9H6NO-
157.0532	13	C10H7NO-
158.0617	10	C10H8NO-
160.0766	125	C10H10NO-
168.0818	59	C12H10N-
172.0766	13	C11H10NO-
186.0928	12	C12H12NO-
190.0665	13	C14H8N-
192.0817	124	C14H10N-
194.0611	256	C13H8NO-
195.0814	91	C14H11O-
196.0768	153	C13H10NO-
207.0689	33	C14H9NO-
208.0766	63	C14H10NO-
209.0843	43	C14H11NO-
210.0556	35	C13H8NO2-
210.0925	68	C14H12NO-
220.0766	44	C15H10NO-
221.0609	17	C15H9O2-
223.0762	62	C15H11O2-
236.072	54	C15H10NO2-
238.0873	17	C15H12NO2-
296.1082	148	C21H14NO-
