Mass spectrum: AVE3295; LC-ESI-QFT; MS2; CE: 30; R=17500; [M-H]-
Name: AVE3295
Name: 5-Fluoro-N-[(1S)-1-phenylpropyl]-2-[(quinolin-8-ylsulfonyl)amino]benzamide
Name: 5-fluoro-N-[(1S)-1-phenylpropyl]-2-(quinolin-8-ylsulfonylamino)benzamide
Formula: C25H22FN3O3S
Exact mass: 463.1366
SMILES: CC[C@H](NC(=O)c1cc(F)ccc1NS(=O)(=O)c1cccc2cccnc12)c1ccccc1
InChI: InChI=1S/C25H22FN3O3S/c1-2-21(17-8-4-3-5-9-17)28-25(30)20-16-19(26)13-14-22(20)29-33(31,32)23-12-6-10-18-11-7-15-27-24(18)23/h3-16,21,29H,2H2,1H3,(H,28,30)/t21-/m0/s1
Instrument: Q Exactive Orbitrap (Thermo Scientific)
Instrument type: LC-ESI-QFT
Ms type: MS2
Ion mode: NEGATIVE
Ionization: ESI
Fragmentation mode: HCD
Collision energy: 30
Resolution: 17500
Column name: Acquity BEH C18 1.7um, 2.1x150mm (Waters)
Retention time: 17.482 min
Base peak: 462.1292
Precursor m/z: 462.1293
Precursor type: [M-H]-
Precursor intensity: 27393095.22217
m/z	relative intensity	assigned
63.9624	1	O2S-
77.0146	1	C4HN2-
79.9811	2	H2NO2S-
110.0411	1	C6H5FN-
128.0505	7	C9H6N-
144.0455	28	C9H6NO-
150.0234	1	C7H3FN2O-
163.0312	1	C8H4FN2O-
166.0662	12	C12H8N-
191.0618	1	C13H7N2-
192.0125	90	C9H6NO2S-
193.0203	15	C9H7NO2S-
210.0724	3	C14H9FN-
215.0614	7	C15H7N2-
217.0771	147	C15H9N2-
235.0677	112	C15H8FN2-
237.0833	93	C15H10FN2-
239.0626	3	C14H8FN2O-
253.0786	2	C15H10FN2O-
258.0671	10	C16H8N3O-
259.0751	50	C16H9N3O-
263.0627	2	C16H8FN2O-
269.1095	4	C16H14FN2O-
271.1255	7	C16H16FN2O-
299.0304	1	C23H4F-
301.0452	16	C15H10FN2O2S-
378.1613	7	C25H20N3O-
398.1673	35	C25H21FN3O-
462.1293	999	C25H21FN3O3S-
