Mass spectrum: Spirotetramat; LC-ESI-QFT; MS2; CE: 30; R=17500; [M+H]+
Name: Spirotetramat
Formula: C21H27NO5
Exact mass: 373.1889
SMILES: CCOC(=O)OC1=C(C(=O)N[C@@]11CC[C@@H](CC1)OC)C1=C(C)C=CC(C)=C1
InChI: InChI=1S/C21H27NO5/c1-5-26-20(24)27-18-17(16-12-13(2)6-7-14(16)3)19(23)22-21(18)10-8-15(25-4)9-11-21/h6-7,12,15H,5,8-11H2,1-4H3,(H,22,23)/t15-,21+
Instrument: Q Exactive Orbitrap (Thermo Scientific)
Instrument type: LC-ESI-QFT
Ms type: MS2
Ion mode: POSITIVE
Ionization: ESI
Fragmentation mode: HCD
Collision energy: 30
Resolution: 17500
Column name: Acquity BEH C18 1.7um, 2.1x150mm (Waters)
Retention time: 17.784 min
Base peak: 79.0211
Precursor m/z: 374.1962
Precursor type: [M+H]+
Precursor intensity: 18046369
m/z	relative intensity	assigned
67.0542	2	C5H7+
81.07	1	C6H9+
91.0542	3	C7H7+
96.0808	6	C6H10N+
105.0701	1	C8H9+
117.07	2	C9H9+
119.0492	1	C8H7O+
119.0855	5	C9H11+
124.0757	9	C7H10NO+
133.1011	1	C10H13+
136.0757	7	C8H10NO+
143.0853	4	C11H11+
145.065	2	C10H9O+
145.1011	12	C11H13+
147.0806	1	C10H11O+
147.1169	8	C11H15+
155.0855	8	C12H11+
157.1011	3	C12H13+
158.0726	1	C11H10O+
159.0808	1	C11H11O+
159.1168	3	C12H15+
164.0706	1	C9H10NO2+
169.1011	3	C13H13+
171.0804	1	C12H11O+
171.117	4	C13H15+
173.0598	22	C11H9O2+
173.0962	18	C12H13O+
175.1115	1	C12H15O+
181.101	2	C14H13+
183.1169	10	C14H15+
187.1119	1	C13H15O+
190.0864	2	C11H12NO2+
193.1014	1	C15H13+
195.117	1	C15H15+
196.0759	3	C13H10NO+
197.1325	20	C15H17+
199.1123	1	C14H15O+
199.1481	2	C15H19+
200.1071	2	C13H14NO+
201.0911	23	C13H13O2+
207.1168	6	C16H15+
209.1325	7	C16H17+
211.1484	4	C16H19+
214.0863	7	C13H12NO2+
214.1592	4	C15H20N+
216.1019	146	C13H14NO2+
218.117	2	C13H16NO2+
222.0871	5	C12H14O4+
224.1194	1	C16H16O+
224.1428	1	C16H18N+
225.1274	19	C16H17O+
225.1638	15	C17H21+
227.1432	3	C16H19O+
228.1024	3	C14H14NO2+
235.1122	1	C17H15O+
235.1485	4	C18H19+
242.1166	1	C15H16NO2+
242.1543	9	C16H20NO+
242.1901	5	C17H24N+
244.1333	220	C15H18NO2+
252.1383	25	C17H18NO+
253.1224	67	C17H17O2+
253.1584	18	C18H21O+
256.1331	3	C16H18NO2+
268.1332	5	C17H18NO2+
269.141	2	C17H19NO2+
270.1488	590	C17H20NO2+
280.1699	2	C19H22NO+
281.1537	30	C19H21O2+
286.1437	5	C17H20NO3+
296.1291	1	C18H18NO3+
298.1803	498	C19H24NO2+
300.1594	9	C18H22NO3+
301.1687	1	C18H23NO3+
302.1751	999	C18H24NO3+
328.1546	4	C19H22NO4+
330.2065	467	C20H28NO3+
374.195	7	C21H28NO5+
