Mass spectrum: Ro 23-7637; LC-ESI-QFT; MS2; CE: 75; R=17500; [M+H]+
Name: Ro 23-7637
Name: 1-[4-(2,2-diphenylethenyl)piperidin-1-yl]-9-pyridin-3-ylnonan-1-one
Formula: C33H40N2O
Exact mass: 480.3141
SMILES: O=C(CCCCCCCCC1=CN=CC=C1)N1CCC(CC1)C=C(C1=CC=CC=C1)C1=CC=CC=C1
InChI: InChI=1S/C33H40N2O/c36-33(20-12-4-2-1-3-7-14-29-15-13-23-34-27-29)35-24-21-28(22-25-35)26-32(30-16-8-5-9-17-30)31-18-10-6-11-19-31/h5-6,8-11,13,15-19,23,26-28H,1-4,7,12,14,20-22,24-25H2
Instrument: Q Exactive Orbitrap (Thermo Scientific)
Instrument type: LC-ESI-QFT
Ms type: MS2
Ion mode: POSITIVE
Ionization: ESI
Fragmentation mode: HCD
Collision energy: 75
Resolution: 17500
Column name: Acquity BEH C18 1.7um, 2.1x150mm (Waters)
Retention time: 19.459 min
Base peak: 79.0211
Precursor m/z: 481.3213
Precursor type: [M+H]+
Precursor intensity: 52180723
m/z	relative intensity	assigned
53.0022	7	C3HO+
53.0386	7	C4H5+
55.0543	150	C4H7+
56.0495	649	C3H6N+
57.0699	17	C4H9+
58.0651	8	C3H8N+
65.0386	148	C5H5+
66.0464	2	C5H6+
67.0416	10	C4H5N+
67.0542	36	C5H7+
68.0495	16	C4H6N+
69.0573	38	C4H7N+
69.0698	7	C5H9+
70.0651	2	C4H8N+
77.0387	1	C6H5+
78.0338	2	C5H4N+
79.0417	4	C5H5N+
79.0542	15	C6H7+
80.0494	21	C5H6N+
81.0573	1	C5H7N+
81.0699	2	C6H9+
82.0651	205	C5H8N+
84.0808	288	C5H10N+
91.0543	176	C7H7+
92.0495	999	C6H6N+
93.0573	305	C6H7N+
94.0651	61	C6H8N+
95.0492	3	C6H7O+
95.0729	2	C6H9N+
95.0855	1	C7H11+
96.0443	17	C5H6NO+
96.0807	10	C6H10N+
97.0887	2	C6H11N+
103.0543	12	C8H7+
105.0448	1	C6H5N2+
105.07	17	C8H9+
106.0651	415	C7H8N+
107.0729	36	C7H9N+
110.06	47	C6H8NO+
115.0541	18	C9H7+
116.0622	1	C9H8+
117.0573	3	C8H7N+
117.0699	34	C9H9+
118.0651	45	C8H8N+
119.073	27	C8H9N+
120.0808	87	C8H10N+
121.0887	1	C8H11N+
124.0758	1	C7H10NO+
128.062	20	C10H8+
129.0698	18	C10H9+
130.0652	3	C9H8N+
131.0856	16	C10H11+
132.0808	42	C9H10N+
133.0886	20	C9H11N+
134.0964	67	C9H12N+
141.0698	15	C11H9+
142.0776	1	C11H10+
143.0856	14	C11H11+
146.0965	4	C10H12N+
147.1043	1	C10H13N+
148.112	24	C10H14N+
151.0541	1	C12H7+
152.0621	141	C12H8+
153.07	2	C12H9+
154.0777	3	C12H10+
155.0601	1	C10H7N2+
155.0858	2	C12H11+
157.101	1	C12H13+
158.0967	2	C11H12N+
160.1121	3	C11H14N+
162.1279	6	C11H16N+
165.07	145	C13H9+
166.0778	66	C13H10+
167.0855	689	C13H11+
169.0648	6	C12H9O+
169.1013	1	C13H13+
172.1119	2	C12H14N+
178.0776	7	C14H10+
179.0604	1	C12H7N2+
179.0854	4	C14H11+
181.1011	4	C14H13+
190.159	82	C13H20N+
191.0854	9	C15H11+
192.0931	1	C15H12+
193.1002	1	C15H13+
202.0775	1	C16H10+
203.0856	3	C16H11+
204.0934	5	C16H12+
205.1015	4	C16H13+
218.1539	34	C14H20NO+
264.1748	6	C19H22N+
