Mass spectrum: Chloridazon; LC-ESI-QFT; MS2; CE: 45; R=17500; [M-H]-
Name: Chloridazon
Name: 5-amino-4-chloro-2-phenylpyridazin-3-one
Formula: C10H8ClN3O
Exact mass: 221.0356
SMILES: NC1=C(Cl)C(=O)N(N=C1)C1=CC=CC=C1
InChI: InChI=1S/C10H8ClN3O/c11-9-8(12)6-13-14(10(9)15)7-4-2-1-3-5-7/h1-6H,12H2
Instrument: Q Exactive Orbitrap (Thermo Scientific)
Instrument type: LC-ESI-QFT
Ms type: MS2
Ion mode: NEGATIVE
Ionization: ESI
Fragmentation mode: HCD
Collision energy: 45
Resolution: 17500
Column name: Acquity BEH C18 1.7um, 2.1x150mm (Waters)
Retention time: 13.150 min
Base peak: 118.0299
Precursor m/z: 220.0283
Precursor type: [M-H]-
Precursor intensity: 9116909.496094
m/z	relative intensity	assigned
60.9725	10	CClN-
64.0067	8	C3N2-
65.0145	256	C3HN2-
65.9985	157	C3NO-
73.9803	491	C2HClN-
74.9643	999	C2ClO-
92.0506	20	C6H6N-
100.9674	160	C3ClNO-
100.9912	108	C3H2ClN2-
101.9752	19	C3HClNO-
117.0458	292	C7H5N2-
118.03	23	C7H4NO-
126.9705	21	C4ClN2O-
133.0406	5	C7H5N2O-
141.0458	28	C9H5N2-
144.0566	77	C8H6N3-
150.0116	280	C8H5ClN-
156.0564	3	C9H6N3-
157.0408	3	C9H5N2O-
177.0226	2	C9H6ClN2-
184.0516	53	C10H6N3O-
220.0283	462	C10H7ClN3O-
