Mass spectrum: Thiophanate; LC-ESI-QFT; MS2; CE: 75; R=17500; [M+H]+
Name: Thiophanate
Name: N'-ethoxycarbonyl-N-[2-[(N-ethoxycarbonyl-C-sulfanylcarbonimidoyl)amino]phenyl]carbamimidothioic acid
Formula: C14H18N4O4S2
Exact mass: 370.0769
SMILES: CCOC(=O)NC(=S)NC1=C(NC(=S)NC(=O)OCC)C=CC=C1
InChI: InChI=1S/C14H18N4O4S2/c1-3-21-13(19)17-11(23)15-9-7-5-6-8-10(9)16-12(24)18-14(20)22-4-2/h5-8H,3-4H2,1-2H3,(H2,15,17,19,23)(H2,16,18,20,24)
Instrument: Q Exactive Orbitrap (Thermo Scientific)
Instrument type: LC-ESI-QFT
Ms type: MS2
Ion mode: POSITIVE
Ionization: ESI
Fragmentation mode: HCD
Collision energy: 75
Resolution: 17500
Column name: Acquity BEH C18 1.7um, 2.1x150mm (Waters)
Retention time: 16.519 min
Base peak: 79.0212
Precursor m/z: 371.0842
Precursor type: [M+H]+
Precursor intensity: 13222268.875
m/z	relative intensity	assigned
57.9746	2	CNS+
59.9902	349	CH2NS+
62.0236	111	CH4NO2+
65.0385	31	C5H5+
66.0464	3	C5H6+
74.0964	1	C4H12N+
80.0494	7	C5H6N+
82.0652	1	C5H8N+
85.9695	200	C2NOS+
90.0338	2	C6H4N+
90.055	1	C3H8NO2+
91.0415	1	C6H5N+
92.0494	144	C6H6N+
93.0573	457	C6H7N+
103.98	52	C2H2NO2S+
105.0448	5	C6H5N2+
106.0652	1	C7H8N+
107.0603	34	C6H7N2+
108.0681	2	C6H8N2+
109.076	58	C6H9N2+
110.0601	2	C6H8NO+
117.0448	2	C7H5N2+
118.0525	216	C7H6N2+
119.0603	73	C7H7N2+
122.0058	16	C6H4NS+
124.0215	9	C6H6NS+
124.0758	3	C7H10NO+
132.0555	15	C7H6N3+
133.0636	4	C7H7N3+
134.0712	93	C7H8N3+
135.0136	5	C7H5NS+
135.0551	10	C7H7N2O+
149.0168	99	C7H5N2S+
150.0246	11	C7H6N2S+
151.0323	999	C7H7N2S+
160.0504	70	C8H6N3O+
174.0118	1	C8H4N3S+
176.0279	4	C8H6N3S+
177.0117	2	C8H5N2OS+
178.0612	2	C8H8N3O2+
192.9889	6	C8H5N2S2+
