Mass spectrum: Carbimazole; LC-ESI-QFT; MS2; CE: 90; R=17500; [M+H]+
Name: Carbimazole
Name: ethyl 3-methyl-2-sulfanylideneimidazole-1-carboxylate
Formula: C7H10N2O2S
Exact mass: 186.0463
SMILES: CCOC(=O)N1C=CN(C)C1=S
InChI: InChI=1S/C7H10N2O2S/c1-3-11-7(10)9-5-4-8(2)6(9)12/h4-5H,3H2,1-2H3
Instrument: Q Exactive Orbitrap (Thermo Scientific)
Instrument type: LC-ESI-QFT
Ms type: MS2
Ion mode: POSITIVE
Ionization: ESI
Fragmentation mode: HCD
Collision energy: 90
Resolution: 17500
Column name: Acquity BEH C18 1.7um, 2.1x150mm (Waters)
Retention time: 11.592 min
Base peak: 79.0211
Precursor m/z: 187.0536
Precursor type: [M+H]+
Precursor intensity: 7304286.71875
m/z	relative intensity	assigned
54.0338	10	C3H4N+
56.0495	301	C3H6N+
57.0573	999	C3H7N+
58.995	77	C2H3S+
61.0107	11	C2H5S+
69.0447	24	C3H5N2+
70.065	14	C4H8N+
70.9949	3	C3H3S+
71.0604	56	C3H7N2+
74.0058	194	C2H4NS+
79.0213	4	C2H7OS+
81.0447	22	C4H5N2+
82.0526	45	C4H6N2+
83.0604	92	C4H7N2+
86.0059	13	C3H4NS+
88.0216	314	C3H6NS+
97.0078	4	H5N2O2S+
100.009	50	C3H4N2S+
109.076	3	C6H9N2+
113.0167	23	C4H5N2S+
114.0247	55	C4H6N2S+
115.0325	623	C4H7N2S+
130.9817	3	C7HNS+
