Mass spectrum: FR167356; LC-ESI-QFT; MS2; CE: 90; R=17500; [M+H]+
Name: FR167356
Name: Benzamide, 2,6-dichloro-N-(3-(1-hydroxy-1-methylethyl)-2-methyl-7-benzofuranyl)-
Name: 2,6-dichloro-N-[3-(2-hydroxypropan-2-yl)-2-methyl-1-benzofuran-7-yl]benzamide
Formula: C19H17Cl2NO3
Exact mass: 377.0585
SMILES: CC1=C(C2=C(O1)C(NC(=O)C1=C(Cl)C=CC=C1Cl)=CC=C2)C(C)(C)O
InChI: InChI=1S/C19H17Cl2NO3/c1-10-16(19(2,3)24)11-6-4-9-14(17(11)25-10)22-18(23)15-12(20)7-5-8-13(15)21/h4-9,24H,1-3H3,(H,22,23)
Instrument: Q Exactive Orbitrap (Thermo Scientific)
Instrument type: LC-ESI-QFT
Ms type: MS2
Ion mode: POSITIVE
Ionization: ESI
Fragmentation mode: HCD
Collision energy: 90
Resolution: 17500
Column name: Acquity BEH C18 1.7um, 2.1x150mm (Waters)
Retention time: 16.868 min
Base peak: 79.0211
Precursor m/z: 378.0658
Precursor type: [M+H]+
Precursor intensity: 2066684.625
m/z	relative intensity	assigned
59.0491	19	C3H7O+
74.015	43	C6H2+
84.984	98	C4H2Cl+
86.9633	163	C3ClO+
89.0387	7	C7H5+
91.0544	16	C7H7+
98.9996	19	C5H4Cl+
103.0542	12	C8H7+
107.0493	3	C7H7O+
108.9841	392	C6H2Cl+
109.9919	5	C6H3Cl+
110.0364	4	C6H6O2+
112.979	25	C5H2ClO+
115.0542	14	C9H7+
117.0335	3	C8H5O+
117.07	10	C9H9+
120.9607	49	C4H3Cl2+
126.9946	48	C6H4ClO+
127.0544	3	C10H7+
128.0024	55	C6H5ClO+
128.0621	95	C10H8+
129.0699	4	C10H9+
131.0494	4	C9H7O+
141.07	6	C11H9+
143.0734	4	C10H9N+
143.0858	2	C11H11+
144.0809	6	C10H10N+
144.9607	138	C6H3Cl2+
145.0051	21	C6H6ClO2+
145.0649	9	C10H9O+
152.0624	3	C12H8+
155.0007	33	C9HNO2+
155.0606	10	C3H17Cl2O2+
159.0212	3	C4H11Cl2NO+
159.0444	5	C7H10ClNO+
161.9634	4	C6H4Cl2O+
162.9713	129	C6H5Cl2O+
171.9714	2	C7H4Cl2N+
172.956	999	C7H3Cl2O+
172.9667	987	C9ClNO+
173.9635	6	C7H4Cl2O+
287.998	2	C15H8Cl2NO+
