Mass spectrum: Methfuroxam; LC-ESI-QFT; MS2; CE: 60; R=17500; [M+H]+
Name: Methfuroxam
Name: 2,4,5-trimethyl-N-phenylfuran-3-carboxamide
Formula: C14H15NO2
Exact mass: 229.1103
SMILES: CC1=C(C)C(C(=O)NC2=CC=CC=C2)=C(C)O1
InChI: InChI=1S/C14H15NO2/c1-9-10(2)17-11(3)13(9)14(16)15-12-7-5-4-6-8-12/h4-8H,1-3H3,(H,15,16)
Instrument: Q Exactive Orbitrap (Thermo Scientific)
Instrument type: LC-ESI-QFT
Ms type: MS2
Ion mode: POSITIVE
Ionization: ESI
Fragmentation mode: HCD
Collision energy: 60
Resolution: 17500
Column name: Acquity BEH C18 1.7um, 2.1x150mm (Waters)
Retention time: 16.865 min
Base peak: 79.0211
Precursor m/z: 230.1176
Precursor type: [M+H]+
Precursor intensity: 8901563.40625
m/z	relative intensity	assigned
53.0386	7	C4H5+
55.0178	4	C3H3O+
55.0542	17	C4H7+
65.0385	6	C5H5+
67.0542	91	C5H7+
69.0334	2	C4H5O+
77.0385	2	C6H5+
79.0542	5	C6H7+
81.0699	19	C6H9+
83.0491	1	C5H7O+
83.0855	10	C6H11+
91.0542	10	C7H7+
92.0495	63	C6H6N+
93.0699	35	C7H9+
94.0652	1	C6H8N+
95.0491	133	C6H7O+
109.0648	70	C7H9O+
111.0804	128	C7H11O+
120.0444	38	C7H6NO+
124.0758	2	C7H10NO+
137.0597	999	C8H9O2+
