Mass spectrum: 2-Methyl-4`-(methylthio)-2-morpholinopropiophenone; LC-ESI-QFT; MS2; CE: 60; R=17500; [M+H]+
Name: 2-Methyl-4'-(methylthio)-2-morpholinopropiophenone
Name: 2-methyl-1-(4-methylsulfanylphenyl)-2-morpholin-4-ylpropan-1-one
Formula: C15H21NO2S
Exact mass: 279.1293
SMILES: CSC1=CC=C(C=C1)C(=O)C(C)(C)N1CCOCC1
InChI: InChI=1S/C15H21NO2S/c1-15(2,16-8-10-18-11-9-16)14(17)12-4-6-13(19-3)7-5-12/h4-7H,8-11H2,1-3H3
Instrument: Q Exactive Orbitrap (Thermo Scientific)
Instrument type: LC-ESI-QFT
Ms type: MS2
Ion mode: POSITIVE
Ionization: ESI
Fragmentation mode: HCD
Collision energy: 60
Resolution: 17500
Column name: Acquity BEH C18 1.7um, 2.1x150mm (Waters)
Retention time: 14.172 min
Base peak: 79.0211
Precursor m/z: 280.1366
Precursor type: [M+H]+
Precursor intensity: 12520270
m/z	relative intensity	assigned
58.065	1	C3H8N+
59.0491	2	C3H7O+
61.0106	1	C2H5S+
68.0494	3	C4H6N+
70.0651	181	C4H8N+
78.0464	1	C6H6+
84.0808	15	C5H10N+
86.06	4	C4H8NO+
87.0262	3	C4H7S+
88.0757	568	C4H10NO+
91.0542	15	C7H7+
93.0699	1	C7H9+
103.0542	1	C8H7+
109.0106	7	C6H5S+
114.0914	18	C6H12NO+
115.0542	60	C9H7+
116.0621	4	C9H8+
117.0698	462	C9H9+
118.0776	108	C9H10+
119.0856	3	C9H11+
122.0185	2	C7H6S+
123.0263	7	C7H7S+
124.0341	11	C7H8S+
125.0419	30	C7H9S+
128.1069	185	C7H14NO+
131.0491	28	C9H7O+
134.0183	1	C8H6S+
135.0263	21	C8H7S+
137.0419	296	C8H9S+
145.0648	19	C10H9O+
146.0726	153	C10H10O+
149.042	12	C9H9S+
150.0497	104	C9H10S+
151.0209	2	C8H7OS+
153.0364	1	C8H9OS+
165.0732	999	C10H13S+
167.0526	4	C9H11OS+
178.0448	2	C10H10OS+
193.0681	2	C11H13OS+
