Mass spectrum: Octabenzone; LC-ESI-QFT; MS2; CE: 30; R=17500; [M+H]+
Name: Octabenzone
Name: (2-hydroxy-4-octoxyphenyl)-phenylmethanone
Formula: C21H26O3
Exact mass: 326.1882
SMILES: CCCCCCCCOC1=CC(O)=C(C=C1)C(=O)C1=CC=CC=C1
InChI: InChI=1S/C21H26O3/c1-2-3-4-5-6-10-15-24-18-13-14-19(20(22)16-18)21(23)17-11-8-7-9-12-17/h7-9,11-14,16,22H,2-6,10,15H2,1H3
Instrument: Q Exactive Orbitrap (Thermo Scientific)
Instrument type: LC-ESI-QFT
Ms type: MS2
Ion mode: POSITIVE
Ionization: ESI
Fragmentation mode: HCD
Collision energy: 30
Resolution: 17500
Column name: Acquity BEH C18 1.7um, 2.1x150mm (Waters)
Retention time: 18.891 min
Base peak: 79.0211
Precursor m/z: 327.1955
Precursor type: [M+H]+
Precursor intensity: 13538333
m/z	relative intensity	assigned
55.0178	32	C3H3O+
55.0543	24	C4H7+
69.0698	34	C5H9+
79.0543	57	C6H7+
91.0542	44	C7H7+
93.0699	117	C7H9+
95.0856	51	C7H11+
114.0662	43	C6H10O2+
120.0553	28	C8H8O+
132.0556	19	C9H8O+
134.0716	32	C9H10O+
138.0661	33	C8H10O2+
139.074	30	C8H11O2+
140.0818	30	C8H12O2+
148.0872	20	C10H12O+
150.1027	138	C10H14O+
154.0975	39	C9H14O2+
160.0503	47	C10H8O2+
160.087	226	C11H12O+
161.0945	32	C11H13O+
162.1027	90	C11H14O+
164.082	91	C10H12O2+
166.0975	999	C10H14O2+
167.1053	760	C10H15O2+
170.0705	15	C12H10O+
172.0875	15	C12H12O+
178.0976	75	C11H14O2+
178.1333	21	C12H18O+
180.1131	107	C11H16O2+
180.1498	73	C12H20O+
181.1213	23	C11H17O2+
184.0867	26	C13H12O+
185.0956	16	C13H13O+
186.0663	32	C12H10O2+
186.1028	20	C13H14O+
186.1277	247	C10H18O3+
188.0819	78	C12H12O2+
190.1341	33	C13H18O+
192.113	43	C12H16O2+
192.1495	207	C13H20O+
194.1285	118	C12H18O2+
200.0819	114	C13H12O2+
204.1499	26	C14H20O+
206.1289	32	C13H18O2+
208.1444	320	C13H20O2+
212.0821	193	C14H12O2+
213.0897	42	C14H13O2+
214.0965	36	C14H14O2+
214.134	105	C15H18O+
224.0825	27	C15H12O2+
226.1339	48	C16H18O+
228.15	61	C16H20O+
238.0977	28	C16H14O2+
239.1059	32	C16H15O2+
240.1129	29	C16H16O2+
240.1495	142	C17H20O+
254.1287	385	C17H18O2+
254.1658	37	C18H22O+
256.1446	30	C17H20O2+
256.1813	82	C18H24O+
268.1807	455	C19H24O+
282.1599	189	C19H22O2+
327.1947	177	C21H27O3+
