Mass spectrum: Propane-1,3-diyl bis(4-aminobenzoate); LC-ESI-QFT; MS2; CE: 45; R=17500; [M+H]+
Name: Propane-1,3-diyl bis(4-aminobenzoate)
Name: 3-(4-aminobenzoyl)oxypropyl 4-aminobenzoate
Formula: C17H18N2O4
Exact mass: 314.1267
SMILES: NC1=CC=C(C=C1)C(=O)OCCCOC(=O)C1=CC=C(N)C=C1
InChI: InChI=1S/C17H18N2O4/c18-14-6-2-12(3-7-14)16(20)22-10-1-11-23-17(21)13-4-8-15(19)9-5-13/h2-9H,1,10-11,18-19H2
Instrument: Q Exactive Orbitrap (Thermo Scientific)
Instrument type: LC-ESI-QFT
Ms type: MS2
Ion mode: POSITIVE
Ionization: ESI
Fragmentation mode: HCD
Collision energy: 45
Resolution: 17500
Column name: Acquity BEH C18 1.7um, 2.1x150mm (Waters)
Retention time: 15.029 min
Base peak: 79.0211
Precursor m/z: 315.1339
Precursor type: [M+H]+
Precursor intensity: 1186112.75
m/z	relative intensity	assigned
67.0179	372	C4H3O+
91.0543	128	C7H7+
120.0444	534	C7H6NO+
168.081	98	C12H10N+
178.0865	70	C10H12NO2+
181.0887	93	C13H11N+
182.0963	65	C13H12N+
196.076	70	C13H10NO+
198.0919	71	C13H12NO+
208.0758	92	C14H10NO+
209.0842	166	C14H11NO+
210.0914	619	C14H12NO+
226.0864	999	C14H12NO2+
236.0706	219	C15H10NO2+
241.0735	148	C14H11NO3+
243.0889	246	C14H13NO3+
254.0813	595	C15H12NO3+
268.0972	618	C16H14NO3+
269.105	568	C16H15NO3+
283.0714	134	C15H11N2O4+
298.0958	174	C16H14N2O4+
