Mass spectrum: Napropamide; LC-ESI-QFT; MS2; CE: 60; R=17500; [M+H]+
Name: Napropamide
Name: N,N-diethyl-2-naphthalen-1-yloxypropanamide
Formula: C17H21NO2
Exact mass: 271.1572
SMILES: CCN(CC)C(=O)C(C)OC1=C2C=CC=CC2=CC=C1
InChI: InChI=1S/C17H21NO2/c1-4-18(5-2)17(19)13(3)20-16-12-8-10-14-9-6-7-11-15(14)16/h6-13H,4-5H2,1-3H3
Instrument: Q Exactive Orbitrap (Thermo Scientific)
Instrument type: LC-ESI-QFT
Ms type: MS2
Ion mode: POSITIVE
Ionization: ESI
Fragmentation mode: HCD
Collision energy: 60
Resolution: 17500
Column name: Acquity BEH C18 1.7um, 2.1x150mm (Waters)
Retention time: 18.023 min
Base peak: 79.0211
Precursor m/z: 272.1645
Precursor type: [M+H]+
Precursor intensity: 37425900.5
m/z	relative intensity	assigned
55.0179	29	C3H3O+
56.0494	2	C3H6N+
57.0335	89	C3H5O+
58.0651	936	C3H8N+
72.0444	93	C3H6NO+
72.0808	346	C4H10N+
73.0886	4	C4H11N+
74.0964	236	C4H12N+
86.0601	33	C4H8NO+
100.0757	259	C5H10NO+
100.1121	92	C6H14N+
101.0835	83	C5H11NO+
103.0541	6	C8H7+
114.0914	160	C6H12NO+
115.0542	27	C9H7+
116.0622	2	C9H8+
127.0539	3	C10H7+
128.0621	250	C10H8+
128.107	32	C7H14NO+
129.0699	55	C10H9+
129.1148	95	C7H15NO+
141.0699	13	C11H9+
143.0856	423	C11H11+
144.0571	11	C10H8O+
145.0649	28	C10H9O+
152.0622	23	C12H8+
153.0699	188	C12H9+
155.0857	2	C12H11+
169.0654	6	C12H9O+
170.0727	6	C12H10O+
171.0805	999	C12H11O+
199.0757	6	C13H11O2+
