Mass spectrum: SAR102608; LC-ESI-QFT; MS2; CE: 75; R=17500; [M-H]-
Name: SAR102608
Name: N-(5-Fluoro-3-methyl-1H-indol-1-yl)-4-methyl-2-(pyridin-2-yl)pyrimidine-5-carboxamide
Name: N-(5-fluoro-3-methylindol-1-yl)-4-methyl-2-pyridin-2-ylpyrimidine-5-carboxamide
Formula: C20H16FN5O
Exact mass: 361.1339
SMILES: CC1=CN(NC(=O)C2=C(C)N=C(N=C2)C2=CC=CC=N2)C2=CC=C(F)C=C12
InChI: InChI=1S/C20H16FN5O/c1-12-11-26(18-7-6-14(21)9-15(12)18)25-20(27)16-10-23-19(24-13(16)2)17-5-3-4-8-22-17/h3-11H,1-2H3,(H,25,27)
Instrument: Q Exactive Orbitrap (Thermo Scientific)
Instrument type: LC-ESI-QFT
Ms type: MS2
Ion mode: NEGATIVE
Ionization: ESI
Fragmentation mode: HCD
Collision energy: 75
Resolution: 17500
Column name: Acquity BEH C18 1.7um, 2.1x150mm (Waters)
Retention time: 17.003 min
Base peak: 322.1196
Precursor m/z: 360.1266
Precursor type: [M-H]-
Precursor intensity: 4292478.072266
m/z	relative intensity	assigned
126.035	65	C9H4N-
146.0407	15	C9H5FN-
148.0568	765	C9H7FN-
149.06	999	C7H7N3O-
164.0516	35	C9H7FNO-
