Mass spectrum: 6-Pentyl-2H-pyran-2-one; LC-ESI-QFT; MS2; CE: 15; R=17500; [M+H]+
Name: 6-Pentyl-2H-pyran-2-one
Name: 6-pentylpyran-2-one
Formula: C10H14O2
Exact mass: 166.0994
SMILES: CCCCCC1=CC=CC(=O)O1
InChI: InChI=1S/C10H14O2/c1-2-3-4-6-9-7-5-8-10(11)12-9/h5,7-8H,2-4,6H2,1H3
Instrument: Q Exactive Orbitrap (Thermo Scientific)
Instrument type: LC-ESI-QFT
Ms type: MS2
Ion mode: POSITIVE
Ionization: ESI
Fragmentation mode: HCD
Collision energy: 15
Resolution: 17500
Column name: Acquity BEH C18 1.7um, 2.1x150mm (Waters)
Retention time: 16.695 min
Base peak: 79.0211
Precursor m/z: 167.1067
Precursor type: [M+H]+
Precursor intensity: 1357450.75
m/z	relative intensity	assigned
55.0178	2	C3H3O+
55.0542	9	C4H7+
57.0335	3	C3H5O+
67.0543	24	C5H7+
69.0698	7	C5H9+
71.0491	2	C4H7O+
79.0541	17	C6H7+
81.0699	21	C6H9+
83.0491	14	C5H7O+
91.0542	3	C7H7+
93.0334	3	C6H5O+
93.0699	18	C7H9+
97.0284	34	C5H5O2+
97.0649	5	C6H9O+
99.044	1	C5H7O2+
107.0491	8	C7H7O+
107.0856	7	C8H11+
111.0442	11	C6H7O2+
121.065	2	C8H9O+
121.1014	9	C9H13+
131.0857	5	C10H11+
139.1117	3	C9H15O+
149.0959	4	C10H13O+
167.1067	999	C10H15O2+
