Mass spectrum: Tebupirimfos; LC-ESI-QFT; MS2; CE: 90; R=17500; [M+H]+
Name: Tebupirimfos
Name: (2-tert-butylpyrimidin-5-yl)oxy-ethoxy-propan-2-yloxy-sulfanylidene-lambda5-phosphane
Formula: C13H23N2O3PS
Exact mass: 318.1167
SMILES: CCOP(=S)(OC(C)C)OC1=CN=C(N=C1)C(C)(C)C
InChI: InChI=1S/C13H23N2O3PS/c1-7-16-19(20,17-10(2)3)18-11-8-14-12(15-9-11)13(4,5)6/h8-10H,7H2,1-6H3
Instrument: Q Exactive Orbitrap (Thermo Scientific)
Instrument type: LC-ESI-QFT
Ms type: MS2
Ion mode: POSITIVE
Ionization: ESI
Fragmentation mode: HCD
Collision energy: 90
Resolution: 17500
Column name: Acquity BEH C18 1.7um, 2.1x150mm (Waters)
Retention time: 19.637 min
Base peak: 79.0211
Precursor m/z: 319.124
Precursor type: [M+H]+
Precursor intensity: 31782061.25
m/z	relative intensity	assigned
53.0022	13	C3HO+
57.0699	773	C4H9+
62.9453	4	PS+
67.0543	1	C5H7+
68.0495	4	C4H6N+
69.0447	104	C3H5N2+
70.0287	58	C3H4NO+
74.0964	1	C4H12N+
79.0543	2	C6H7+
81.0699	4	C6H9+
82.0651	5	C5H8N+
84.0808	50	C5H10N+
86.0059	3	C3H4NS+
94.0652	6	C6H8N+
95.024	9	C4H3N2O+
95.0604	7	C5H7N2+
96.0317	1	C4H4N2O+
96.0444	3	C5H6NO+
96.0808	16	C6H10N+
97.0397	448	C4H5N2O+
108.0808	15	C7H10N+
109.0649	4	C7H9O+
109.0761	22	C6H9N2+
110.0475	101	C5H6N2O+
110.0599	8	C6H8NO+
111.0553	3	C5H7N2O+
112.009	6	C4H4N2S+
112.0757	11	C6H10NO+
113.0166	5	C4H5N2S+
114.9613	9	H4O3PS+
119.9668	6	C2H3NOPS+
123.0553	220	C6H7N2O+
125.1073	3	C7H13N2+
126.0247	4	C5H6N2S+
126.0914	20	C7H12NO+
127.0502	12	C5H7N2O2+
128.053	1	C6H10NS+
135.0917	2	C8H11N2+
136.0633	2	C7H8N2O+
137.071	222	C7H9N2O+
138.0788	656	C7H10N2O+
139.0324	15	C6H7N2S+
143.0006	17	C4H4N2O2P+
149.9775	8	C3H5NO2PS+
151.0866	2	C8H11N2O+
152.0402	1	C7H8N2S+
152.0946	2	C8H12N2O+
153.1023	999	C8H13N2O+
154.0559	23	C7H10N2S+
158.9955	14	C4H4N2O3P+
168.0714	14	C8H12N2S+
169.0795	18	C8H13N2S+
174.9727	12	C4H4N2O2PS+
183.0317	7	C7H8N2O2P+
199.0631	98	C8H12N2O2P+
216.0119	10	C7H9N2O2PS+
231.0352	28	C8H12N2O2PS+
248.0384	2	C8H13N2O3PS+
263.0617	5	C9H16N2O3PS+
