Mass spectrum: Ethiofencarb; LC-ESI-QFT; MS2; CE: 90; R=17500; [M+H]+
Name: Ethiofencarb
Name: [2-(ethylsulfanylmethyl)phenyl] N-methylcarbamate
Formula: C11H15NO2S
Exact mass: 225.0823
SMILES: CCSCC1=C(OC(=O)NC)C=CC=C1
InChI: InChI=1S/C11H15NO2S/c1-3-15-8-9-6-4-5-7-10(9)14-11(13)12-2/h4-7H,3,8H2,1-2H3,(H,12,13)
Instrument: Q Exactive Orbitrap (Thermo Scientific)
Instrument type: LC-ESI-QFT
Ms type: MS2
Ion mode: POSITIVE
Ionization: ESI
Fragmentation mode: HCD
Collision energy: 90
Resolution: 17500
Column name: Acquity BEH C18 1.7um, 2.1x150mm (Waters)
Retention time: 15.974 min
Base peak: 79.0212
Precursor m/z: 226.0896
Precursor type: [M+H]+
Precursor intensity: 2422712
m/z	relative intensity	assigned
58.0288	173	C2H4NO+
65.0386	83	C5H5+
79.0212	123	C2H7OS+
91.0541	174	C7H7+
93.0573	218	C6H7N+
95.0491	65	C6H7O+
96.0556	128	C6H8O+
99.0665	81	C5H9NO+
100.0505	999	C5H8O2+
106.0652	57	C7H8N+
108.081	49	C7H10N+
114.0663	58	C6H10O2+
120.0558	50	C8H8O+
128.0821	40	C7H12O2+
134.0959	35	C9H12N+
138.0123	298	C7H6OS+
152.0278	70	C8H8OS+
156.0228	225	C7H8O2S+
170.039	54	C8H10O2S+
