Mass spectrum: SAR115740; LC-ESI-QFT; MS2; CE: 60; R=17500; [M-H]-
Name: SAR115740
Name: 5-fluoro-1-[(3-fluorophenyl)methyl]-N-(1H-indol-5-yl)indole-2-carboxamide
Formula: C24H17F2N3O
Exact mass: 401.1340
SMILES: FC1=CC=C2N(CC3=CC(F)=CC=C3)C(=CC2=C1)C(=O)NC1=CC=C2NC=CC2=C1
InChI: InChI=1S/C24H17F2N3O/c25-18-3-1-2-15(10-18)14-29-22-7-4-19(26)11-17(22)13-23(29)24(30)28-20-5-6-21-16(12-20)8-9-27-21/h1-13,27H,14H2,(H,28,30)
Instrument: Q Exactive Orbitrap (Thermo Scientific)
Instrument type: LC-ESI-QFT
Ms type: MS2
Ion mode: NEGATIVE
Ionization: ESI
Fragmentation mode: HCD
Collision energy: 60
Resolution: 17500
Column name: Acquity BEH C18 1.7um, 2.1x150mm (Waters)
Retention time: 18.334 min
Base peak: 292.0981
Precursor m/z: 400.1267
Precursor type: [M-H]-
Precursor intensity: 7040764.962891
m/z	relative intensity	assigned
75.024	239	C6H3-
93.0345	15	C6H5O-
95.0302	577	C6H4F-
114.035	5	C8H4N-
126.0349	395	C9H4N-
129.0458	81	C8H5N2-
130.0536	40	C8H6N2-
131.0377	3	C8H5NO-
134.0413	10	C8H5FN-
139.0201	27	C10H3O-
144.0454	1	C9H6NO-
146.0411	263	C9H5FN-
157.0407	999	C9H5N2O-
159.0364	2	C9H4FN2-
170.041	1	C11H5FN-
190.0307	11	C13H4NO-
220.057	10	C15H7FN-
221.0645	7	C15H8FN-
222.0723	18	C15H9FN-
239.0553	5	C15H7F2N-
240.0631	22	C15H8F2N-
241.071	6	C15H9F2N-
242.0788	40	C15H10F2N-
247.0674	2	C16H8FN2-
290.0736	19	C17H9FN3O-
