Mass spectrum: Imazalil; LC-ESI-QFT; MS2; CE: 30; R=17500; [M+H]+
Name: Imazalil
Name: Enilconazole
Name: 1-[2-(2,4-dichlorophenyl)-2-prop-2-enoxyethyl]imidazole
Formula: C14H14Cl2N2O
Exact mass: 296.0483
SMILES: ClC1=CC(Cl)=C(C=C1)C(CN1C=CN=C1)OCC=C
InChI: InChI=1S/C14H14Cl2N2O/c1-2-7-19-14(9-18-6-5-17-10-18)12-4-3-11(15)8-13(12)16/h2-6,8,10,14H,1,7,9H2
Instrument: Q Exactive Orbitrap (Thermo Scientific)
Instrument type: LC-ESI-QFT
Ms type: MS2
Ion mode: POSITIVE
Ionization: ESI
Fragmentation mode: HCD
Collision energy: 30
Resolution: 17500
Column name: Acquity BEH C18 1.7um, 2.1x150mm (Waters)
Retention time: 15.289 min
Base peak: 79.0212
Precursor m/z: 297.0556
Precursor type: [M+H]+
Precursor intensity: 36705560.03125
m/z	relative intensity	assigned
53.0022	21	C3HO+
53.9975	2	C2NO+
67.9893	1	ClH3NO+
69.0447	469	C3H5N2+
81.0447	34	C4H5N2+
82.0527	1	C4H6N2+
82.0651	6	C5H8N+
109.076	165	C6H9N2+
141.07	1	C11H9+
149.0155	2	C9H6Cl+
150.0234	2	C9H7Cl+
158.9763	446	C7H5Cl2+
163.0311	2	C10H8Cl+
164.0387	5	C10H9Cl+
165.0466	1	C10H10Cl+
171.9844	1	C8H6Cl2+
172.992	49	C8H7Cl2+
175.031	6	C11H8Cl+
176.0387	152	C11H9Cl+
182.9764	4	C9H5Cl2+
184.992	45	C9H7Cl2+
186.971	7	C8H5Cl2O+
199.0077	33	C10H9Cl2+
200.9869	284	C9H7Cl2O+
203.0372	5	C11H8ClN2+
211.0076	39	C11H9Cl2+
229.0182	14	C11H11Cl2O+
255.0086	213	C11H9Cl2N2O+
297.0556	999	C14H15Cl2N2O+
