Mass spectrum: Aldoxycarb; LC-ESI-QFT; MS2; CE: 30; R=17500; [M+H]+
Name: Aldoxycarb
Name: [(E)-(2-methyl-2-methylsulfonylpropylidene)amino] N-methylcarbamate
Formula: C7H14N2O4S
Exact mass: 222.0674
SMILES: CNC(=O)O\N=C\C(C)(C)S(C)(=O)=O
InChI: InChI=1S/C7H14N2O4S/c1-7(2,14(4,11)12)5-9-13-6(10)8-3/h5H,1-4H3,(H,8,10)/b9-5+
Instrument: Q Exactive Orbitrap (Thermo Scientific)
Instrument type: LC-ESI-QFT
Ms type: MS2
Ion mode: POSITIVE
Ionization: ESI
Fragmentation mode: HCD
Collision energy: 30
Resolution: 17500
Column name: Acquity BEH C18 1.7um, 2.1x150mm (Waters)
Retention time: 9.939 min
Base peak: 79.0212
Precursor m/z: 223.0747
Precursor type: [M+H]+
Precursor intensity: 1347449.5
m/z	relative intensity	assigned
56.0494	220	C3H6N+
59.0492	230	C3H7O+
61.0107	559	C2H5S+
76.0393	405	C2H6NO2+
81.0005	344	CH5O2S+
86.06	999	C4H8NO+
130.9823	328	C7HNS+
146.9943	460	C7HNO3+
148.043	167	C5H10NO2S+
167.0855	404	C5H15N2O2S+
195.0804	282	C6H15N2O3S+
223.0745	303	C7H15N2O4S+
