Mass spectrum: Fomesafen; LC-ESI-QFT; MS2; CE: 30; R=17500; [M-H]-
Name: Fomesafen
Name: 5-[2-chloro-4-(trifluoromethyl)phenoxy]-N-methylsulfonyl-2-nitrobenzamide
Formula: C15H10ClF3N2O6S
Exact mass: 437.9900
SMILES: CS(=O)(=O)NC(=O)C1=CC(OC2=CC=C(C=C2Cl)C(F)(F)F)=CC=C1[N+]([O-])=O
InChI: InChI=1S/C15H10ClF3N2O6S/c1-28(25,26)20-14(22)10-7-9(3-4-12(10)21(23)24)27-13-5-2-8(6-11(13)16)15(17,18)19/h2-7H,1H3,(H,20,22)
Instrument: Q Exactive Orbitrap (Thermo Scientific)
Instrument type: LC-ESI-QFT
Ms type: MS2
Ion mode: NEGATIVE
Ionization: ESI
Fragmentation mode: HCD
Collision energy: 30
Resolution: 17500
Column name: Acquity BEH C18 1.7um, 2.1x150mm (Waters)
Retention time: 17.863 min
Base peak: 227.999
Precursor m/z: 436.9827
Precursor type: [M-H]-
Precursor intensity: 18989299.61914
m/z	relative intensity	assigned
59.0138	72	C2H3O2-
61.9706	1	NOS-
63.9624	22	O2S-
65.9985	9	C3NO-
69.0347	2	C4H5O-
72.0091	657	C2H2NO2-
75.9863	49	CH2NOS-
76.9704	2	CHO2S-
80.9652	17	HO3S-
85.0295	23	C4H5O2-
93.997	2	CH4NO2S-
95.0139	78	C5H3O2-
101.0608	62	C5H9O2-
107.0137	2	C6H3O2-
111.0088	17	C5H3O3-
119.9761	346	C2H2NO3S-
122.0009	126	CH5F3OS-
123.0088	34	C6H3O3-
125.0244	2	C6H5O3-
137.0118	168	C6H3NO3-
138.0198	1	C6H4NO3-
139.0036	12	CH5ClF3NO-
141.0709	5	C11H9-
194.983	999	C7H3ClF3O-
198.0298	152	C10H5F3O-
200.0091	5	C9H3F3O2-
209.0218	18	C11H4F3O-
210.0174	9	C4H8ClF3NO3-
213.017	5	C10H4F3O2-
218.9828	2	C9H3ClF3O-
222.0298	29	C12H5F3O-
225.0171	9	C11H4F3O2-
226.0245	15	C11H5F3O2-
235.0252	2	C12H4F3NO-
238.0249	10	C12H5F3O2-
240.0404	13	C12H7F3O2-
244.9985	4	C11H5ClF3O-
253.012	6	C12H4F3O3-
258.0061	8	C6H8ClFN2O6-
263.0198	8	C13H4F3NO2-
269.994	5	C12H4ClF3NO-
286.0014	54	C13H6ClF3O2-
315.9992	561	C13H6ClF3NO3-
436.9825	354	C15H9ClF3N2O6S-
