Mass spectrum: Ingliforib; LC-ESI-QFT; MS2; CE: 75; R=17500; [M+H]+
Name: Ingliforib
Name: 5-chloro-N-[(2S,3R)-4-[(3R,4S)-3,4-dihydroxypyrrolidin-1-yl]-3-hydroxy-4-oxo-1-phenylbutan-2-yl]-1H-indole-2-carboxamide
Formula: C23H24ClN3O5
Exact mass: 457.1404
SMILES: O[C@H]([C@H](CC1=CC=CC=C1)NC(=O)C1=CC2=CC(Cl)=CC=C2N1)C(=O)N1C[C@H](O)[C@H](O)C1
InChI: InChI=1S/C23H24ClN3O5/c24-15-6-7-16-14(9-15)10-18(25-16)22(31)26-17(8-13-4-2-1-3-5-13)21(30)23(32)27-11-19(28)20(29)12-27/h1-7,9-10,17,19-21,25,28-30H,8,11-12H2,(H,26,31)/t17-,19-,20+,21+/m0/s1
Instrument: Q Exactive Orbitrap (Thermo Scientific)
Instrument type: LC-ESI-QFT
Ms type: MS2
Ion mode: POSITIVE
Ionization: ESI
Fragmentation mode: HCD
Collision energy: 75
Resolution: 17500
Column name: Acquity BEH C18 1.7um, 2.1x150mm (Waters)
Retention time: 17.405 min
Base peak: 79.0211
Precursor m/z: 458.1477
Precursor type: [M+H]+
Precursor intensity: 5875025.875
m/z	relative intensity	assigned
53.0387	1	C4H5+
54.0338	1	C3H4N+
55.0179	3	C3H3O+
56.0495	1	C3H6N+
57.0335	5	C3H5O+
58.0287	2	C2H4NO+
58.0651	38	C3H8N+
60.0443	1	C2H6NO+
63.0228	1	C5H3+
65.0386	6	C5H5+
68.0494	54	C4H6N+
69.0334	6	C4H5O+
70.0287	1	C3H4NO+
70.0651	5	C4H8N+
72.0443	3	C3H6NO+
79.0543	5	C6H7+
80.0495	5	C5H6N+
81.0336	8	C5H5O+
84.0444	2	C4H6NO+
86.0236	9	C3H4NO2+
86.06	79	C4H8NO+
86.9996	1	C4H4Cl+
90.0339	50	C6H4N+
91.0543	131	C7H7+
93.0699	19	C7H9+
94.0649	1	C6H8N+
95.0492	6	C6H7O+
98.0601	3	C5H8NO+
98.9996	52	C5H4Cl+
102.0339	3	C7H4N+
102.0551	1	C4H8NO2+
103.0543	78	C8H7+
104.0706	107	C4H10NO2+
105.0699	30	C8H9+
108.0444	8	C6H6NO+
110.9997	6	C6H4Cl+
114.0337	1	C8H4N+
115.0543	97	C9H7+
116.0707	3	C5H10NO2+
117.0573	59	C8H7N+
117.0699	11	C9H9+
118.065	1	C8H8N+
119.0366	11	C7H5NO+
119.073	1	C8H9N+
120.0808	273	C8H10N+
122.9996	470	C7H4Cl+
123.9951	2	C6H3ClN+
126.0106	35	C6H5ClN+
126.0551	2	C6H8NO2+
126.9945	2	C6H4ClO+
129.0101	8	C6H6ClO+
130.0401	9	C7H4N3+
130.0497	2	C5H8NO3+
130.0652	11	C9H8N+
131.0731	4	C9H9N+
132.0445	8	C8H6NO+
132.0808	57	C9H10N+
133.0522	51	C8H7NO+
133.0647	24	C9H9O+
137.0025	1	C7H4ClN+
139.0057	15	C6H4ClN2+
140.0261	2	C7H7ClN+
143.0492	3	C10H7O+
144.0656	30	C6H10NO3+
145.0052	3	C6H6ClO2+
146.0601	1	C9H8NO+
148.0605	1	C5H10NO4+
150.0106	98	C8H5ClN+
150.0914	8	C9H12NO+
151.0184	10	C8H6ClN+
152.0261	6	C8H7ClN+
154.0052	1	C7H5ClNO+
155.0607	1	C10H7N2+
160.0757	2	C10H10NO+
162.0549	2	C9H8NO2+
162.0762	13	C6H12NO4+
164.0011	2	C7H3ClN3+
164.0264	1	C9H7ClN+
164.9976	71	C8H4ClNO+
166.0054	21	C8H5ClNO+
167.0132	1	C8H6ClNO+
168.0211	141	C8H7ClNO+
178.0054	999	C9H5ClNO+
179.9849	1	C8H3ClNO2+
182.0365	3	C9H9ClNO+
183.0083	59	C8H6ClNO2+
197.024	11	C9H8ClNO2+
218.1174	2	C13H16NO2+
