Mass spectrum: Carbendazim; LC-ESI-QFT; MS2; CE: 15; R=17500; [M+H]+
Name: Carbendazim
Name: methyl N-(1H-benzimidazol-2-yl)carbamate
Formula: C9H9N3O2
Exact mass: 191.0695
SMILES: COC(=O)NC1=NC2=CC=CC=C2N1
InChI: InChI=1S/C9H9N3O2/c1-14-9(13)12-8-10-6-4-2-3-5-7(6)11-8/h2-5H,1H3,(H2,10,11,12,13)
Instrument: Q Exactive Orbitrap (Thermo Scientific)
Instrument type: LC-ESI-QFT
Ms type: MS2
Ion mode: POSITIVE
Ionization: ESI
Fragmentation mode: HCD
Collision energy: 15
Resolution: 17500
Column name: Acquity BEH C18 1.7um, 2.1x150mm (Waters)
Retention time: 10.187 min
Base peak: 79.0211
Precursor m/z: 192.0768
Precursor type: [M+H]+
Precursor intensity: 19821323.34375
m/z	relative intensity	assigned
133.0627	2	C7H7N3+
160.0504	833	C8H6N3O+
192.0766	999	C9H10N3O2+
