Mass spectrum: MK-547; LC-ESI-QFT; MS2; CE: 60; R=17500; [M+H]+
Name: MK-547
Name: J-104132
Name: (5S,6R,7R)-5-(1,3-benzodioxol-5-yl)-2-butyl-7-[2-[(2S)-2-carboxypropyl]-4-methoxyphenyl]-6,7-dihydro-5H-cyclopenta[b]pyridine-6-carboxylic acid
Formula: C31H33NO7
Exact mass: 531.2257
SMILES: CCCCc1ccc2c(n1)[C@@H](c1ccc(OC)cc1C[C@H](C)C(O)=O)[C@H](C(O)=O)[C@H]2c1ccc2c(c1)OCO2
InChI: InChI=1S/C31H33NO7/c1-4-5-6-20-8-10-23-26(18-7-12-24-25(15-18)39-16-38-24)28(31(35)36)27(29(23)32-20)22-11-9-21(37-3)14-19(22)13-17(2)30(33)34/h7-12,14-15,17,26-28H,4-6,13,16H2,1-3H3,(H,33,34)(H,35,36)/t17-,26-,27-,28+/m0/s1
Instrument: Q Exactive Orbitrap (Thermo Scientific)
Instrument type: LC-ESI-QFT
Ms type: MS2
Ion mode: POSITIVE
Ionization: ESI
Fragmentation mode: HCD
Collision energy: 60
Resolution: 17500
Column name: Acquity BEH C18 1.7um, 2.1x150mm (Waters)
Retention time: 18.582 min
Base peak: 79.0212
Precursor m/z: 532.233
Precursor type: [M+H]+
Precursor intensity: 20960176
m/z	relative intensity	assigned
51.0231	1	C4H3+
53.0022	2	C3HO+
55.0542	1	C4H7+
57.0699	7	C4H9+
65.0385	6	C5H5+
69.0334	4	C4H5O+
77.0385	1	C6H5+
79.0542	2	C6H7+
80.0492	2	C5H6N+
91.0542	24	C7H7+
93.0335	1	C6H5O+
93.0699	3	C7H9+
94.0647	1	C6H8N+
95.0127	1	C5H3O2+
95.0491	3	C6H7O+
103.0542	10	C8H7+
104.0493	9	C7H6N+
105.0698	1	C8H9+
106.065	3	C7H8N+
107.0494	2	C7H7O+
109.0286	1	C6H5O2+
109.0649	2	C7H9O+
111.0442	4	C6H7O2+
115.0539	5	C9H7+
116.0493	1	C8H6N+
116.0622	1	C9H8+
117.0573	8	C8H7N+
117.0699	5	C9H9+
118.065	11	C8H8N+
119.0491	1	C8H7O+
119.0856	5	C9H11+
121.0284	18	C7H5O2+
121.0647	81	C8H9O+
122.0362	27	C7H6O2+
123.044	1	C7H7O2+
126.0466	1	C10H6+
128.0495	2	C9H6N+
128.062	8	C10H8+
129.0572	48	C9H7N+
129.0696	10	C10H9+
130.0651	277	C9H8N+
131.049	2	C9H7O+
131.0729	16	C9H9N+
131.0855	2	C10H11+
132.0442	5	C8H6NO+
132.057	1	C9H8O+
132.0807	1	C9H10N+
133.0521	5	C8H7NO+
134.0598	7	C8H8NO+
134.0726	4	C9H10O+
135.044	49	C8H7O2+
135.0804	4	C9H11O+
137.0603	1	C8H9O2+
139.0389	3	C7H7O3+
141.07	1	C11H9+
142.0652	1	C10H8N+
143.0729	27	C10H9N+
143.0855	1	C11H11+
144.0569	69	C10H8O+
144.0806	10	C10H10N+
145.0525	1	C9H7NO+
145.0647	4	C10H9O+
145.0887	1	C10H11N+
146.06	105	C9H8NO+
147.0441	4	C9H7O2+
147.0803	20	C10H11O+
148.0756	3	C9H10NO+
149.0233	197	C8H5O3+
149.096	32	C10H13O+
151.0389	2	C8H7O3+
152.0617	5	C12H8+
153.0698	13	C12H9+
154.0652	4	C11H8N+
155.0728	21	C11H9N+
156.0445	5	C10H6NO+
156.0808	51	C11H10N+
157.0885	58	C11H11N+
159.0804	126	C11H11O+
160.0754	2	C10H10NO+
160.1119	13	C11H14N+
161.0597	2	C10H9O2+
161.0834	4	C10H11NO+
162.0674	18	C10H10O2+
162.0913	2	C10H12NO+
165.0698	12	C13H9+
165.0909	4	C10H13O2+
166.0653	2	C12H8N+
167.0729	6	C12H9N+
167.0852	10	C13H11+
168.0808	12	C12H10N+
169.0887	3	C12H11N+
170.0964	55	C12H12N+
171.1041	11	C12H13N+
172.112	124	C12H14N+
173.1197	9	C12H15N+
174.0549	71	C10H8NO2+
175.0751	13	C11H11O2+
177.0909	220	C11H13O2+
178.065	7	C13H8N+
178.0781	1	C14H10+
178.1225	1	C11H16NO+
179.0728	8	C13H9N+
180.0807	73	C13H10N+
181.0647	11	C13H9O+
181.0884	21	C13H11N+
182.0601	1	C12H8NO+
182.0964	13	C13H12N+
185.0605	1	C12H9O2+
187.0628	5	C11H9NO2+
188.1069	18	C12H14NO+
190.0648	2	C14H8N+
191.0728	9	C14H9N+
192.0807	36	C14H10N+
193.0886	132	C14H11N+
194.0964	466	C14H12N+
195.0678	3	C13H9NO+
195.0797	1	C14H11O+
195.1042	12	C14H13N+
196.0758	14	C13H10NO+
197.0835	1	C13H11NO+
198.055	3	C12H8NO2+
198.0914	12	C13H12NO+
204.0805	7	C15H10N+
205.0888	4	C15H11N+
206.0598	15	C14H8NO+
206.0963	23	C15H12N+
207.0679	19	C14H9NO+
207.1042	25	C15H13N+
208.0756	66	C14H10NO+
208.112	13	C15H14N+
209.0598	2	C14H9O2+
209.0834	26	C14H11NO+
210.0913	32	C14H12NO+
211.0751	2	C14H11O2+
211.0995	1	C14H13NO+
216.1022	1	C13H14NO2+
218.0961	1	C16H12N+
219.0675	11	C15H9NO+
219.1039	3	C16H13N+
219.1159	2	C17H15+
220.0756	92	C15H10NO+
220.1113	5	C16H14N+
221.0834	69	C15H11NO+
221.1199	9	C16H15N+
222.0912	331	C15H12NO+
223.099	63	C15H13NO+
223.1354	4	C16H17N+
224.0706	8	C14H10NO2+
224.1071	4	C15H14NO+
224.1433	42	C16H18N+
225.0779	3	C14H11NO2+
226.0867	1	C14H12NO2+
232.0754	2	C16H10NO+
232.1118	1	C17H14N+
233.0836	7	C16H11NO+
234.0549	12	C15H8NO2+
234.0913	15	C16H12NO+
234.1276	31	C17H16N+
235.0633	2	C15H9NO2+
235.0991	35	C16H13NO+
235.1353	2	C17H17N+
236.0708	21	C15H10NO2+
236.107	16	C16H14NO+
236.1433	197	C17H18N+
237.0783	94	C15H11NO2+
238.0861	61	C15H12NO2+
238.159	8	C17H20N+
239.0936	7	C15H13NO2+
244.1114	1	C18H14N+
245.1208	1	C18H15N+
246.0922	1	C17H12NO+
246.1277	1	C18H16N+
247.0629	5	C16H9NO2+
247.0992	4	C17H13NO+
247.1346	1	C18H17N+
248.0705	51	C16H10NO2+
248.1069	8	C17H14NO+
248.1429	3	C18H18N+
249.0785	32	C16H11NO2+
249.1145	13	C17H15NO+
250.0861	999	C16H12NO2+
251.0939	478	C16H13NO2+
252.0652	4	C15H10NO3+
252.1016	39	C16H14NO2+
252.1381	26	C17H18NO+
253.0731	76	C15H11NO3+
254.081	2	C15H12NO3+
260.1072	3	C18H14NO+
260.1442	3	C19H18N+
261.0782	5	C17H11NO2+
261.1143	4	C18H15NO+
262.0871	5	C17H12NO2+
262.1226	61	C18H16NO+
263.0581	20	C16H9NO3+
263.0939	74	C17H13NO2+
264.0658	17	C16H10NO3+
264.1021	46	C17H14NO2+
264.138	132	C18H18NO+
265.0735	2	C16H11NO3+
265.1091	9	C17H15NO2+
265.1453	5	C18H19NO+
266.0811	16	C16H12NO3+
266.1166	2	C17H16NO2+
266.1537	29	C18H20NO+
267.0885	16	C16H13NO3+
274.0859	1	C18H12NO2+
274.1225	1	C19H16NO+
275.0936	3	C18H13NO2+
275.1307	3	C19H17NO+
276.0656	28	C17H10NO3+
276.1015	21	C18H14NO2+
276.1377	9	C19H18NO+
277.0732	150	C17H11NO3+
277.1092	24	C18H15NO2+
278.0809	17	C17H12NO3+
278.1177	5	C18H16NO2+
278.153	2	C19H20NO+
280.0965	3	C17H14NO3+
280.1328	19	C18H18NO2+
281.0683	28	C16H11NO4+
282.1482	8	C18H20NO2+
290.0814	3	C18H12NO3+
290.1176	23	C19H16NO2+
290.1535	10	C20H20NO+
291.0891	3	C18H13NO3+
291.1253	6	C19H17NO2+
291.1622	5	C20H21NO+
292.1331	148	C19H18NO2+
293.1409	56	C19H19NO2+
294.1487	405	C19H20NO2+
295.0833	7	C17H13NO4+
295.1201	4	C18H17NO3+
296.0914	6	C17H14NO4+
296.1274	6	C18H18NO3+
298.1228	1	C21H16NO+
304.1694	8	C21H22NO+
308.1277	6	C19H18NO3+
310.1238	1	C22H16NO+
310.1434	23	C19H20NO3+
318.1493	2	C21H20NO2+
318.1855	3	C22H24NO+
319.1197	2	C20H17NO3+
320.128	115	C20H18NO3+
325.1112	1	C22H15NO2+
326.1173	1	C22H16NO2+
330.1842	2	C23H24NO+
336.1592	1	C21H22NO3+
338.1176	2	C23H16NO2+
338.1384	20	C20H20NO4+
339.1253	2	C23H17NO2+
340.0964	2	C22H14NO3+
340.1337	3	C23H18NO2+
340.1693	1	C24H22NO+
346.1811	1	C23H24NO2+
355.1198	3	C23H17NO3+
356.1281	4	C23H18NO3+
365.1405	2	C25H19NO2+
368.1279	12	C24H18NO3+
368.1648	4	C25H22NO2+
369.1368	5	C24H19NO3+
369.1737	1	C25H23NO2+
370.144	16	C24H20NO3+
370.1798	3	C25H24NO2+
380.1657	1	C26H22NO2+
382.1431	4	C25H20NO3+
382.1795	9	C26H24NO2+
384.1592	3	C25H22NO3+
396.1594	7	C26H22NO3+
398.1748	15	C26H24NO3+
400.1916	1	C26H26NO3+
407.1874	1	C28H25NO2+
410.1391	3	C26H20NO4+
410.1747	5	C27H24NO3+
411.1829	1	C27H25NO3+
412.191	21	C27H26NO3+
414.2067	6	C27H28NO3+
424.19	4	C28H26NO3+
426.2053	6	C28H28NO3+
440.2208	2	C29H30NO3+
441.2286	1	C29H31NO3+
456.1801	2	C28H26NO5+
458.1959	3	C28H28NO5+
468.2166	2	C30H30NO4+
