Mass spectrum: Fomesafen; LC-ESI-QFT; MS2; CE: 90; R=17500; [M-H]-
Name: Fomesafen
Name: 5-[2-chloro-4-(trifluoromethyl)phenoxy]-N-methylsulfonyl-2-nitrobenzamide
Formula: C15H10ClF3N2O6S
Exact mass: 437.9900
SMILES: CS(=O)(=O)NC(=O)C1=CC(OC2=CC=C(C=C2Cl)C(F)(F)F)=CC=C1[N+]([O-])=O
InChI: InChI=1S/C15H10ClF3N2O6S/c1-28(25,26)20-14(22)10-7-9(3-4-12(10)21(23)24)27-13-5-2-8(6-11(13)16)15(17,18)19/h2-7H,1H3,(H,20,22)
Instrument: Q Exactive Orbitrap (Thermo Scientific)
Instrument type: LC-ESI-QFT
Ms type: MS2
Ion mode: NEGATIVE
Ionization: ESI
Fragmentation mode: HCD
Collision energy: 90
Resolution: 17500
Column name: Acquity BEH C18 1.7um, 2.1x150mm (Waters)
Retention time: 17.863 min
Base peak: 227.999
Precursor m/z: 436.9827
Precursor type: [M-H]-
Precursor intensity: 18864127.5332
m/z	relative intensity	assigned
59.0138	83	C2H3O2-
61.9705	4	NOS-
63.9625	262	O2S-
65.0033	13	C4HO-
65.9985	15	C3NO-
69.0346	180	C4H5O-
72.0091	102	C2H2NO2-
73.0084	18	C6H-
76.9703	3	CHO2S-
79.0189	6	C5H3O-
79.9575	4	O3S-
80.9652	18	HO3S-
89.0032	4	C6HO-
95.0139	29	C5H3O2-
97.0295	110	C5H5O2-
101.0608	41	C5H9O2-
107.0138	9	C6H3O2-
110.0161	48	C9H2-
121.0081	5	C10H-
122.0036	6	ClFH6NO3-
123.0088	5	C6H3O3-
125.0246	7	C6H5O3-
134.0163	201	C11H2-
139	25	CH5ClF3NO-
154.0225	93	C11H3F-
154.9706	87	C7HClFO-
159.0064	183	C7H2F3O-
172.981	15	C7H3ClFO2-
174.0285	13	C11H4F2-
174.9768	472	C7H2ClF2O-
182.0174	71	C12H3FO-
193.0271	9	C11H4F3-
194.983	999	C7H3ClF3O-
195.9862	11	C11H2NOS-
202.0235	11	C12H4F2O-
222.0297	32	C12H5F3O-
