Mass spectrum: Ingliforib; LC-ESI-QFT; MS2; CE: 60; R=17500; [M+H]+
Name: Ingliforib
Name: 5-chloro-N-[(2S,3R)-4-[(3R,4S)-3,4-dihydroxypyrrolidin-1-yl]-3-hydroxy-4-oxo-1-phenylbutan-2-yl]-1H-indole-2-carboxamide
Formula: C23H24ClN3O5
Exact mass: 457.1404
SMILES: O[C@H]([C@H](CC1=CC=CC=C1)NC(=O)C1=CC2=CC(Cl)=CC=C2N1)C(=O)N1C[C@H](O)[C@H](O)C1
InChI: InChI=1S/C23H24ClN3O5/c24-15-6-7-16-14(9-15)10-18(25-16)22(31)26-17(8-13-4-2-1-3-5-13)21(30)23(32)27-11-19(28)20(29)12-27/h1-7,9-10,17,19-21,25,28-30H,8,11-12H2,(H,26,31)/t17-,19-,20+,21+/m0/s1
Instrument: Q Exactive Orbitrap (Thermo Scientific)
Instrument type: LC-ESI-QFT
Ms type: MS2
Ion mode: POSITIVE
Ionization: ESI
Fragmentation mode: HCD
Collision energy: 60
Resolution: 17500
Column name: Acquity BEH C18 1.7um, 2.1x150mm (Waters)
Retention time: 17.405 min
Base peak: 79.0211
Precursor m/z: 458.1477
Precursor type: [M+H]+
Precursor intensity: 5599003.625
m/z	relative intensity	assigned
55.0179	1	C3H3O+
58.0288	1	C2H4NO+
58.0651	16	C3H8N+
65.0386	1	C5H5+
68.0494	22	C4H6N+
69.0335	4	C4H5O+
70.0651	1	C4H8N+
79.0543	1	C6H7+
80.0494	1	C5H6N+
81.0335	1	C5H5O+
84.0444	1	C4H6NO+
86.0236	8	C3H4NO2+
86.06	42	C4H8NO+
90.0339	10	C6H4N+
91.0542	60	C7H7+
93.0699	4	C7H9+
98.0599	1	C5H8NO+
98.9996	10	C5H4Cl+
102.0338	1	C7H4N+
102.055	1	C4H8NO2+
103.0542	14	C8H7+
104.0706	98	C4H10NO2+
105.0699	13	C8H9+
108.0445	1	C6H6NO+
110.9996	1	C6H4Cl+
115.0543	48	C9H7+
116.0705	1	C5H10NO2+
117.0573	22	C8H7N+
117.0698	4	C9H9+
119.0366	2	C7H5NO+
120.0808	185	C8H10N+
122.9996	42	C7H4Cl+
126.0106	7	C6H5ClN+
129.0101	1	C6H6ClO+
130.0401	1	C7H4N3+
130.0499	6	C5H8NO3+
130.0652	6	C9H8N+
131.0727	1	C9H9N+
132.0808	78	C9H10N+
133.0523	11	C8H7NO+
133.0648	19	C9H9O+
139.0057	3	C6H4ClN2+
143.0492	5	C10H7O+
144.0655	25	C6H10NO3+
145.0649	2	C10H9O+
146.0602	2	C9H8NO+
148.0604	1	C5H10NO4+
150.0105	18	C8H5ClN+
150.0914	22	C9H12NO+
151.0186	2	C8H6ClN+
152.0261	6	C8H7ClN+
158.0599	1	C10H8NO+
160.0757	6	C10H10NO+
162.0762	29	C6H12NO4+
164.9976	16	C8H4ClNO+
166.0055	4	C8H5ClNO+
168.0211	29	C8H7ClNO+
178.0054	999	C9H5ClNO+
183.0082	15	C8H6ClNO2+
197.0239	2	C9H8ClNO2+
246.1119	1	C14H16NO3+
