Mass spectrum: SB281832; LC-ESI-QFT; MS2; CE: 45; R=17500; [M+H]+
Name: SB281832
Name: 2-[4-(4-fluorophenyl)-5-(2-phenoxypyrimidin-4-yl)imidazol-1-yl]propane-1,3-diol
Formula: C22H19FN4O3
Exact mass: 406.1441
SMILES: OCC(CO)N1C=NC(=C1C1=CC=NC(OC2=CC=CC=C2)=N1)C1=CC=C(F)C=C1
InChI: InChI=1S/C22H19FN4O3/c23-16-8-6-15(7-9-16)20-21(27(14-25-20)17(12-28)13-29)19-10-11-24-22(26-19)30-18-4-2-1-3-5-18/h1-11,14,17,28-29H,12-13H2
Instrument: Q Exactive Orbitrap (Thermo Scientific)
Instrument type: LC-ESI-QFT
Ms type: MS2
Ion mode: POSITIVE
Ionization: ESI
Fragmentation mode: HCD
Collision energy: 45
Resolution: 17500
Column name: Acquity BEH C18 1.7um, 2.1x150mm (Waters)
Retention time: 15.228 min
Base peak: 79.0211
Precursor m/z: 407.1514
Precursor type: [M+H]+
Precursor intensity: 21842557.25
m/z	relative intensity	assigned
53.0386	2	C4H5+
57.0334	1	C3H5O+
77.0387	1	C6H5+
91.0541	1	C7H7+
95.0492	6	C6H7O+
104.0495	102	C7H6N+
105.0447	2	C6H5N2+
109.0397	2	C5H5N2O+
118.0651	7	C8H8N+
122.0402	1	C7H5FN+
124.0557	12	C7H7FN+
131.0855	7	C10H11+
132.0888	5	C5H12N2O2+
133.0445	3	C9H6F+
136.0558	1	C8H7FN+
142.0653	1	C10H8N+
146.0601	9	C9H8NO+
147.0552	1	C8H7N2O+
156.0388	2	C5H6N3O3+
157.0419	1	C6H6FN2O2+
157.0758	1	C10H9N2+
158.0795	1	C5H10N4O2+
159.0805	13	C11H11O+
160.0557	14	C10H7FN+
160.0757	8	C10H10NO+
160.0838	11	C6H12N2O3+
161.0396	10	C10H6FO+
163.0667	1	C9H8FN2+
169.076	28	C11H9N2+
171.0552	6	C10H7N2O+
178.0662	27	C10H9FNO+
182.0716	1	C11H8N3+
184.087	3	C11H10N3+
185.0512	1	C11H6FN2+
185.071	1	C11H9N2O+
187.0666	170	C11H8FN2+
188.0618	26	C10H7FN3+
206.0893	1	C10H12N3O2+
207.0568	1	C10H8FN2O2+
210.0662	1	C12H8N3O+
212.0818	30	C12H10N3O+
213.0459	1	C12H6FN2O+
213.0697	6	C12H8FN3+
230.0724	148	C12H9FN3O+
234.1206	3	C12H16N3O2+
236.0869	1	C16H11FN+
239.0727	12	C13H8FN4+
240.0567	29	C13H7FN3O+
241.0646	13	C13H8FN3O+
257.0834	9	C13H10FN4O+
263.098	7	C17H12FN2+
264.0931	24	C16H11FN3+
288.0928	5	C18H11FN3+
290.1087	313	C18H13FN3+
305.1194	9	C18H14FN4+
306.1036	7	C18H13FN3O+
313.1086	1	C19H13N4O+
333.1146	999	C19H14FN4O+
359.1289	1	C21H16FN4O+
407.1513	4	C22H20FN4O3+
