Mass spectrum: PharmaGSID_47333; LC-ESI-QFT; MS2; CE: 60; R=17500; [M-H]-
Name: (3S)-3-(2-methylpyrimidin-5-yl)-9-(5,6,7,8-tetrahydro-1,8-naphthyridin-2-yl)nonanoic acid
Name: PharmaGSID_47333
Formula: C22H30N4O2
Exact mass: 382.2369
SMILES: CC1=NC=C(C=N1)[C@@H](CCCCCCC1=NC2=C(CCCN2)C=C1)CC(O)=O
InChI: InChI=1S/C22H30N4O2/c1-16-24-14-19(15-25-16)18(13-21(27)28)7-4-2-3-5-9-20-11-10-17-8-6-12-23-22(17)26-20/h10-11,14-15,18H,2-9,12-13H2,1H3,(H,23,26)(H,27,28)/t18-/m0/s1
Instrument: Q Exactive Orbitrap (Thermo Scientific)
Instrument type: LC-ESI-QFT
Ms type: MS2
Ion mode: NEGATIVE
Ionization: ESI
Fragmentation mode: HCD
Collision energy: 60
Resolution: 17500
Column name: Acquity BEH C18 1.7um, 2.1x150mm (Waters)
Retention time: 13.608 min
Base peak: 112.9857
Precursor m/z: 381.2296
Precursor type: [M-H]-
Precursor intensity: 3303716.311035
m/z	relative intensity	assigned
81.0459	5	C4H5N2-
93.0458	999	C5H5N2-
107.0615	21	C6H7N2-
109.0409	27	C5H5N2O-
117.0458	19	C7H5N2-
119.0615	25	C7H7N2-
121.0776	6	C7H9N2-
133.0772	17	C8H9N2-
137.0357	52	C6H5N2O2-
137.072	7	C7H9N2O-
143.0615	26	C9H7N2-
145.077	18	C9H9N2-
147.0928	41	C9H11N2-
157.077	7	C10H9N2-
159.0932	10	C10H11N2-
321.2083	9	C20H25N4-
333.2081	24	C21H25N4-
335.2245	10	C21H27N4-
