Mass spectrum: 1-Amino-2-methylanthraquinone; LC-ESI-QFT; MS2; CE: 60; R=17500; [M+H]+
Name: 1-Amino-2-methylanthraquinone
Name: 1-amino-2-methylanthracene-9,10-dione
Formula: C15H11NO2
Exact mass: 237.0790
SMILES: CC1=CC=C2C(=O)C3=C(C=CC=C3)C(=O)C2=C1N
InChI: InChI=1S/C15H11NO2/c1-8-6-7-11-12(13(8)16)15(18)10-5-3-2-4-9(10)14(11)17/h2-7H,16H2,1H3
Instrument: Q Exactive Orbitrap (Thermo Scientific)
Instrument type: LC-ESI-QFT
Ms type: MS2
Ion mode: POSITIVE
Ionization: ESI
Fragmentation mode: HCD
Collision energy: 60
Resolution: 17500
Column name: Acquity BEH C18 1.7um, 2.1x150mm (Waters)
Retention time: 18.494 min
Base peak: 79.0212
Precursor m/z: 238.0863
Precursor type: [M+H]+
Precursor intensity: 1506351.5
m/z	relative intensity	assigned
72.0442	6	C3H6NO+
91.0543	66	C7H7+
95.0493	12	C6H7O+
104.0496	17	C7H6N+
105.0336	221	C7H5O+
115.0543	10	C9H7+
130.0289	48	C8H4NO+
132.0441	13	C8H6NO+
133.0285	18	C8H5O2+
134.06	92	C8H8NO+
141.0699	7	C11H9+
152.0619	16	C12H8+
153.0697	6	C12H9+
155.0853	24	C12H11+
160.0394	113	C9H6NO2+
165.07	312	C13H9+
166.0778	10	C13H10+
167.073	172	C12H9N+
180.0808	34	C13H10N+
181.0887	41	C13H11N+
182.0968	38	C13H12N+
183.0808	15	C13H11O+
190.0655	14	C14H8N+
191.073	27	C14H9N+
192.0808	71	C14H10N+
193.065	170	C14H9O+
193.0885	38	C14H11N+
194.0598	7	C13H8NO+
194.0728	15	C14H10O+
194.0963	6	C14H12N+
195.068	226	C13H9NO+
198.0674	10	C13H10O2+
208.0759	17	C14H10NO+
209.0834	55	C14H11NO+
210.0915	101	C14H12NO+
211.0754	42	C14H11O2+
220.0759	89	C15H10NO+
221.0599	39	C15H9O2+
222.055	16	C14H8NO2+
223.0629	568	C14H9NO2+
236.0707	37	C15H10NO2+
238.0863	999	C15H12NO2+
