Mass spectrum: Oxadiazon; LC-ESI-QFT; MS2; CE: 60; R=17500; [M+H]+
Name: Oxadiazon
Name: 5-tert-butyl-3-(2,4-dichloro-5-propan-2-yloxyphenyl)-1,3,4-oxadiazol-2-one
Formula: C15H18Cl2N2O3
Exact mass: 344.0694
SMILES: CC(C)OC1=CC(N2N=C(OC2=O)C(C)(C)C)=C(Cl)C=C1Cl
InChI: InChI=1S/C15H18Cl2N2O3/c1-8(2)21-12-7-11(9(16)6-10(12)17)19-14(20)22-13(18-19)15(3,4)5/h6-8H,1-5H3
Instrument: Q Exactive Orbitrap (Thermo Scientific)
Instrument type: LC-ESI-QFT
Ms type: MS2
Ion mode: POSITIVE
Ionization: ESI
Fragmentation mode: HCD
Collision energy: 60
Resolution: 17500
Column name: Acquity BEH C18 1.7um, 2.1x150mm (Waters)
Retention time: 19.664 min
Base peak: 79.0211
Precursor m/z: 345.0767
Precursor type: [M+H]+
Precursor intensity: 369292.25
m/z	relative intensity	assigned
53.0022	9	C3HO+
57.0699	141	C4H9+
84.9837	13	C4H2Cl+
112.9789	64	C5H2ClO+
120.9605	14	C4H3Cl2+
122.0236	20	C6H4NO2+
128.9977	78	C5H4ClNO+
129.9818	19	C5H3ClO2+
140.9739	117	C6H2ClO2+
147.9716	39	C5H4Cl2N+
148.9557	299	C5H3Cl2O+
155.9848	72	C6H3ClNO2+
173.9509	111	C6H2Cl2NO+
176.9507	902	C6H3Cl2O2+
183.9798	128	C7H3ClNO3+
184.9876	999	C7H4ClNO3+
201.9459	37	C7H2Cl2NO2+
202.9537	23	C7H3Cl2NO2+
219.9572	44	C7H4Cl2NO3+
