Mass spectrum: SB413217A; LC-ESI-QFT; MS2; CE: 30; R=17500; [M+H]+
Name: SB413217A
Name: (E)-3-(4-fluorophenyl)-N-[4-[2-[7-(5-methyl-1,2,4-oxadiazol-3-yl)-1,2,4,5-tetrahydro-3-benzazepin-3-yl]ethyl]cyclohexyl]prop-2-enamide
Formula: C30H35FN4O2
Exact mass: 502.2744
SMILES: Cc1nc(-c2ccc3c(c2)CCN(CCC2CCC(NC(=O)/C=C/c4ccc(F)cc4)CC2)CC3)no1
InChI: InChI=1S/C30H35FN4O2/c1-21-32-30(34-37-21)26-8-7-24-15-18-35(19-16-25(24)20-26)17-14-23-4-11-28(12-5-23)33-29(36)13-6-22-2-9-27(31)10-3-22/h2-3,6-10,13,20,23,28H,4-5,11-12,14-19H2,1H3,(H,33,36)/b13-6+
Instrument: Q Exactive Orbitrap (Thermo Scientific)
Instrument type: LC-ESI-QFT
Ms type: MS2
Ion mode: POSITIVE
Ionization: ESI
Fragmentation mode: HCD
Collision energy: 30
Resolution: 17500
Column name: Acquity BEH C18 1.7um, 2.1x150mm (Waters)
Retention time: 15.241 min
Base peak: 79.0211
Precursor m/z: 503.2817
Precursor type: [M+H]+
Precursor intensity: 8811163.5
m/z	relative intensity	assigned
67.0542	6	C5H7+
101.0386	1	C8H5+
109.1012	9	C8H13+
121.0448	11	C8H6F+
124.112	8	C8H14N+
126.1277	1	C8H16N+
149.0397	999	C9H6FO+
166.0663	41	C9H9FNO+
188.1182	2	C11H14N3+
200.1184	7	C12H14N3+
201.1018	1	C12H13N2O+
218.1289	6	C12H16N3O+
230.1288	23	C13H16N3O+
242.1288	109	C14H16N3O+
256.144	1	C15H18N3O+
296.2122	26	C19H26N3+
297.1962	2	C19H25N2O+
313.2386	15	C19H29N4+
314.2226	40	C19H28N3O+
336.2074	1	C21H26N3O+
338.2226	348	C21H28N3O+
355.2492	174	C21H31N4O+
461.2715	124	C28H34FN4O+
503.2822	848	C30H36FN4O2+
