Mass spectrum: Milrinone; LC-ESI-QFT; MS2; CE: 60; R=17500; [M+H]+
Name: Milrinone
Name: 6-methyl-2-oxo-5-pyridin-4-yl-1H-pyridine-3-carbonitrile
Formula: C12H9N3O
Exact mass: 211.0746
SMILES: CC1=C(C=C(C#N)C(=O)N1)C1=CC=NC=C1
InChI: InChI=1S/C12H9N3O/c1-8-11(9-2-4-14-5-3-9)6-10(7-13)12(16)15-8/h2-6H,1H3,(H,15,16)
Instrument: Q Exactive Orbitrap (Thermo Scientific)
Instrument type: LC-ESI-QFT
Ms type: MS2
Ion mode: POSITIVE
Ionization: ESI
Fragmentation mode: HCD
Collision energy: 60
Resolution: 17500
Column name: Acquity BEH C18 1.7um, 2.1x150mm (Waters)
Retention time: 3.084 min
Base peak: 79.0212
Precursor m/z: 212.0818
Precursor type: [M+H]+
Precursor intensity: 8675478.46875
m/z	relative intensity	assigned
54.0338	2	C3H4N+
65.0385	1	C5H5+
78.0337	2	C5H4N+
79.0417	1	C5H5N+
80.0494	4	C5H6N+
89.0385	1	C7H5+
92.0494	2	C6H6N+
93.0573	5	C6H7N+
94.0651	3	C6H8N+
95.0603	1	C5H7N2+
96.0443	3	C5H6NO+
104.0494	61	C7H6N+
105.0447	2	C6H5N2+
105.0571	1	C7H7N+
107.0605	1	C6H7N2+
115.0542	11	C9H7+
116.0494	31	C8H6N+
117.0572	17	C8H7N+
118.065	10	C8H8N+
119.0238	1	C6H3N2O+
119.0603	1	C7H7N2+
120.0443	1	C7H6NO+
128.0495	1	C9H6N+
129.0446	1	C8H5N2+
129.0572	2	C9H7N+
130.0651	29	C9H8N+
131.0604	2	C8H7N2+
131.0729	23	C9H9N+
132.0444	2	C8H6NO+
132.0807	14	C9H10N+
133.0761	1	C8H9N2+
134.06	13	C8H8NO+
140.0494	103	C10H6N+
141.0451	1	C9H5N2+
141.0571	1	C10H7N+
142.0525	35	C9H6N2+
142.0651	18	C10H8N+
143.0603	139	C9H7N2+
144.0447	1	C9H6NO+
144.0554	3	C8H6N3+
144.0683	2	C9H8N2+
145.076	12	C9H9N2+
146.0838	6	C9H10N2+
152.0496	1	C11H6N+
153.0446	1	C10H5N2+
155.0604	4	C10H7N2+
156.0681	6	C10H8N2+
157.076	50	C10H9N2+
158.06	6	C10H8NO+
159.0553	3	C9H7N2O+
160.0757	1	C10H10NO+
166.0524	5	C11H6N2+
167.0603	173	C11H7N2+
168.056	4	C10H6N3+
168.0681	23	C11H8N2+
169.0634	34	C10H7N3+
169.0759	51	C11H9N2+
170.0601	2	C11H8NO+
170.0711	4	C10H8N3+
171.0552	28	C10H7N2O+
177.0448	1	C12H5N2+
182.0716	3	C11H8N3+
183.0552	1	C11H7N2O+
183.079	14	C11H9N3+
184.0869	229	C11H10N3+
185.0709	41	C11H9N2O+
192.055	1	C12H6N3+
193.0635	38	C12H7N3+
194.0713	162	C12H8N3+
195.0554	28	C12H7N2O+
197.0587	4	C11H7N3O+
210.0662	9	C12H8N3O+
211.0741	2	C12H9N3O+
212.0817	999	C12H10N3O+
