Mass spectrum: Sulisobenzone; LC-ESI-QFT; MS2; CE: 60; R=17500; [M-H]-
Name: Sulisobenzone
Name: 5-benzoyl-4-hydroxy-2-methoxybenzenesulfonic acid
Formula: C14H12O6S
Exact mass: 308.0355
SMILES: COC1=C(C=C(C(=O)C2=CC=CC=C2)C(O)=C1)S(O)(=O)=O
InChI: InChI=1S/C14H12O6S/c1-20-12-8-11(15)10(7-13(12)21(17,18)19)14(16)9-5-3-2-4-6-9/h2-8,15H,1H3,(H,17,18,19)
Instrument: Q Exactive Orbitrap (Thermo Scientific)
Instrument type: LC-ESI-QFT
Ms type: MS2
Ion mode: NEGATIVE
Ionization: ESI
Fragmentation mode: HCD
Collision energy: 60
Resolution: 17500
Column name: Acquity BEH C18 1.7um, 2.1x150mm (Waters)
Retention time: 14.834 min
Base peak: 307.0282
Precursor m/z: 307.0282
Precursor type: [M-H]-
Precursor intensity: 17817235.45996
m/z	relative intensity	assigned
63.9624	46	O2S-
64.9704	2	HO2S-
65.0032	15	C4HO-
68.9982	16	C3HO2-
71.9675	1	C2OS-
79.9574	999	O3S-
80.9652	181	HO3S-
82.0059	3	C4H2O2-
91.019	5	C6H3O-
93.0347	1	C6H5O-
94.0061	5	C5H2O2-
94.9809	2	CH3O3S-
95.0139	13	C5H3O2-
96.9933	1	C4HO3-
97.9831	2	C4H2OS-
104.9651	1	C2HO3S-
105.0346	3	C7H5O-
108.0216	2	C6H4O2-
110.0009	16	C5H2O3-
110.9759	2	CH3O4S-
113.9781	4	C4H2O2S-
117.9729	3	C3H2O3S-
121.0295	17	C7H5O2-
122.0009	6	C6H2O3-
123.0087	25	C6H3O3-
128.9652	5	C4HO3S-
130.0424	2	C9H6O-
134.9757	1	C3H3O4S-
135.0088	3	C7H3O3-
139.0553	7	C11H7-
145.0295	49	C9H5O2-
149.0245	10	C8H5O3-
149.9958	56	C7H2O4-
154.0424	10	C11H6O-
155.0502	25	C11H7O-
156.0579	7	C11H8O-
157.0295	1	C10H5O2-
157.9678	9	C5H2O4S-
158.0371	19	C10H6O2-
158.9757	4	C5H3O4S-
159.0451	1	C10H7O2-
160.0168	1	C9H4O3-
167.0501	15	C12H7O-
169.0296	11	C11H5O2-
169.0656	1	C12H9O-
171.0453	4	C11H7O2-
172.0529	8	C11H8O2-
173.9627	2	C5H2O5S-
175.0401	2	C10H7O3-
181.0145	4	C8H5O5-
182.0374	310	C12H6O2-
183.0451	75	C12H7O2-
184.0529	78	C12H8O2-
184.9912	2	C7H5O4S-
185.0244	6	C11H5O3-
185.9628	67	C6H2O5S-
186.0324	7	C11H6O3-
190.0273	5	C10H6O4-
195.0452	5	C13H7O2-
197.0248	8	C12H5O3-
198.0322	29	C12H6O3-
199.0401	94	C12H7O3-
200.0479	178	C12H8O3-
200.9864	25	C7H5O5S-
201.9939	2	C7H6O5S-
210.032	12	C13H6O3-
211.04	949	C13H7O3-
212.0479	75	C13H8O3-
213.0192	2	C12H5O4-
213.0555	4	C13H9O3-
213.9577	172	C7H2O6S-
226.0274	5	C13H6O4-
227.0354	20	C13H7O4-
227.0714	139	C14H11O3-
228.0428	219	C13H8O4-
228.9811	121	C8H5O6S-
263.0019	153	C12H7O5S-
264.0098	56	C12H8O5S-
275.0022	6	C13H7O5S-
290.9969	312	C13H7O6S-
292.0046	3	C13H8O6S-
293.012	3	C13H9O6S-
307.0282	44	C14H11O6S-
