Mass spectrum: Thiazopyr; LC-ESI-QFT; MS2; CE: 15; R=17500; [M+H]+
Name: Thiazopyr
Name: methyl 2-(difluoromethyl)-5-(4,5-dihydro-1,3-thiazol-2-yl)-4-(2-methylpropyl)-6-(trifluoromethyl)pyridine-3-carboxylate
Formula: C16H17F5N2O2S
Exact mass: 396.0931
SMILES: COC(=O)C1=C(CC(C)C)C(C2=NCCS2)=C(N=C1C(F)F)C(F)(F)F
InChI: InChI=1S/C16H17F5N2O2S/c1-7(2)6-8-9(15(24)25-3)11(13(17)18)23-12(16(19,20)21)10(8)14-22-4-5-26-14/h7,13H,4-6H2,1-3H3
Instrument: Q Exactive Orbitrap (Thermo Scientific)
Instrument type: LC-ESI-QFT
Ms type: MS2
Ion mode: POSITIVE
Ionization: ESI
Fragmentation mode: HCD
Collision energy: 15
Resolution: 17500
Column name: Acquity BEH C18 1.7um, 2.1x150mm (Waters)
Retention time: 18.344 min
Base peak: 79.0211
Precursor m/z: 397.1004
Precursor type: [M+H]+
Precursor intensity: 25017858.75
m/z	relative intensity	assigned
377.0938	6	C16H17F4N2O2S+
397.1003	999	C16H18F5N2O2S+
