Mass spectrum: Chloroxuron; LC-ESI-QFT; MS2; CE: 15; R=17500; [M-H]-
Name: Chloroxuron
Name: 3-[4-(4-chlorophenoxy)phenyl]-1,1-dimethylurea
Formula: C15H15ClN2O2
Exact mass: 290.0822
SMILES: CN(C)C(=O)NC1=CC=C(OC2=CC=C(Cl)C=C2)C=C1
InChI: InChI=1S/C15H15ClN2O2/c1-18(2)15(19)17-12-5-9-14(10-6-12)20-13-7-3-11(16)4-8-13/h3-10H,1-2H3,(H,17,19)
Instrument: Q Exactive Orbitrap (Thermo Scientific)
Instrument type: LC-ESI-QFT
Ms type: MS2
Ion mode: NEGATIVE
Ionization: ESI
Fragmentation mode: HCD
Collision energy: 15
Resolution: 17500
Column name: Acquity BEH C18 1.7um, 2.1x150mm (Waters)
Retention time: 17.931 min
Base peak: 112.9856
Precursor m/z: 289.0749
Precursor type: [M-H]-
Precursor intensity: 4785319.550781
m/z	relative intensity	assigned
126.9957	1	C6H4ClO-
178.0748	17	C9H10N2O2-
217.0302	1	C12H8ClNO-
244.017	44	C13H7ClNO2-
273.0446	1	C14H10ClN2O2-
289.0749	999	C15H14ClN2O2-
