Mass spectrum: Haloperidol; LC-ESI-QFT; MS2; CE: 30; R=17500; [M+H]+
Name: Haloperidol
Name: 4-[4-(4-chlorophenyl)-4-hydroxypiperidin-1-yl]-1-(4-fluorophenyl)butan-1-one
Formula: C21H23ClFNO2
Exact mass: 375.1401
SMILES: OC1(CCN(CCCC(=O)C2=CC=C(F)C=C2)CC1)C1=CC=C(Cl)C=C1
InChI: InChI=1S/C21H23ClFNO2/c22-18-7-5-17(6-8-18)21(26)11-14-24(15-12-21)13-1-2-20(25)16-3-9-19(23)10-4-16/h3-10,26H,1-2,11-15H2
Instrument: Q Exactive Orbitrap (Thermo Scientific)
Instrument type: LC-ESI-QFT
Ms type: MS2
Ion mode: POSITIVE
Ionization: ESI
Fragmentation mode: HCD
Collision energy: 30
Resolution: 17500
Column name: Acquity BEH C18 1.7um, 2.1x150mm (Waters)
Retention time: 14.655 min
Base peak: 79.0211
Precursor m/z: 376.1474
Precursor type: [M+H]+
Precursor intensity: 21269900.5
m/z	relative intensity	assigned
95.0293	1	C6H4F+
109.0445	1	C7H6F+
123.0239	64	C7H4FO+
163.0554	1	C10H8FO+
165.0709	999	C10H10FO+
194.0731	15	C11H13ClN+
194.0974	13	C11H13FNO+
206.0974	6	C12H13FNO+
358.1367	110	C21H22ClFNO+
376.1473	232	C21H24ClFNO2+
