Mass spectrum: Hexaconazole; LC-ESI-QFT; MS2; CE: 60; R=17500; [M+H]+
Name: Hexaconazole
Name: 2-(2,4-dichlorophenyl)-1-(1,2,4-triazol-1-yl)hexan-2-ol
Formula: C14H17Cl2N3O
Exact mass: 313.0749
SMILES: CCCCC(O)(CN1C=NC=N1)C1=CC=C(Cl)C=C1Cl
InChI: InChI=1S/C14H17Cl2N3O/c1-2-3-6-14(20,8-19-10-17-9-18-19)12-5-4-11(15)7-13(12)16/h4-5,7,9-10,20H,2-3,6,8H2,1H3
Instrument: Q Exactive Orbitrap (Thermo Scientific)
Instrument type: LC-ESI-QFT
Ms type: MS2
Ion mode: POSITIVE
Ionization: ESI
Fragmentation mode: HCD
Collision energy: 60
Resolution: 17500
Column name: Acquity BEH C18 1.7um, 2.1x150mm (Waters)
Retention time: 18.898 min
Base peak: 79.0211
Precursor m/z: 314.0821
Precursor type: [M+H]+
Precursor intensity: 18169018.25
m/z	relative intensity	assigned
55.0543	8	C4H7+
57.0699	21	C4H9+
59.0491	2	C3H7O+
70.0399	999	C2H4N3+
85.0648	2	C5H9O+
105.0334	1	C7H5O+
115.0542	2	C9H7+
122.9998	1	C7H4Cl+
125.0153	39	C7H6Cl+
129.0102	2	C6H6ClO+
136.0076	2	C8H5Cl+
137.0155	1	C8H6Cl+
139.0057	5	C6H4ClN2+
146.9763	10	C6H5Cl2+
149.0153	8	C9H6Cl+
150.0231	21	C9H7Cl+
153.0102	7	C8H6ClO+
158.9763	147	C7H5Cl2+
162.0662	1	C8H8N3O+
170.9762	9	C8H5Cl2+
172.9919	2	C8H7Cl2+
174.9712	12	C7H5Cl2O+
184.9919	12	C9H7Cl2+
188.987	1	C8H7Cl2O+
