Mass spectrum: Ethyl 5-oxo-1-phenyl-4,5-dihydro-1H-pyrazole-3-carboxylate; LC-ESI-QFT; MS2; CE: 15; R=17500; [M-H]-
Name: Ethyl 5-oxo-1-phenyl-4,5-dihydro-1H-pyrazole-3-carboxylate
Name: ethyl 5-oxo-1-phenyl-4H-pyrazole-3-carboxylate
Formula: C12H12N2O3
Exact mass: 232.0848
SMILES: CCOC(=O)C1=NN(C(=O)C1)C1=CC=CC=C1
InChI: InChI=1S/C12H12N2O3/c1-2-17-12(16)10-8-11(15)14(13-10)9-6-4-3-5-7-9/h3-7H,2,8H2,1H3
Instrument: Q Exactive Orbitrap (Thermo Scientific)
Instrument type: LC-ESI-QFT
Ms type: MS2
Ion mode: NEGATIVE
Ionization: ESI
Fragmentation mode: HCD
Collision energy: 15
Resolution: 17500
Column name: Acquity BEH C18 1.7um, 2.1x150mm (Waters)
Retention time: 15.876 min
Base peak: 331.0612
Precursor m/z: 231.0775
Precursor type: [M-H]-
Precursor intensity: 3517913.739746
m/z	relative intensity	assigned
65.9985	23	C3NO-
116.0505	14	C8H6N-
117.0457	12	C7H5N2-
157.0406	22	C9H5N2O-
159.0564	52	C9H7N2O-
203.0461	7	C10H7N2O3-
231.0774	999	C12H11N2O3-
