Mass spectrum: Dimethametryn; LC-ESI-QFT; MS2; CE: 90; R=17500; [M+H]+
Name: Dimethametryn
Name: 4-N-ethyl-2-N-(3-methylbutan-2-yl)-6-methylsulfanyl-1,3,5-triazine-2,4-diamine
Formula: C11H21N5S
Exact mass: 255.1518
SMILES: CCNC1=NC(SC)=NC(NC(C)C(C)C)=N1
InChI: InChI=1S/C11H21N5S/c1-6-12-9-14-10(13-8(4)7(2)3)16-11(15-9)17-5/h7-8H,6H2,1-5H3,(H2,12,13,14,15,16)
Instrument: Q Exactive Orbitrap (Thermo Scientific)
Instrument type: LC-ESI-QFT
Ms type: MS2
Ion mode: POSITIVE
Ionization: ESI
Fragmentation mode: HCD
Collision energy: 90
Resolution: 17500
Column name: Acquity BEH C18 1.7um, 2.1x150mm (Waters)
Retention time: 17.321 min
Base peak: 79.0211
Precursor m/z: 256.159
Precursor type: [M+H]+
Precursor intensity: 19057360.84375
m/z	relative intensity	assigned
55.0542	4	C4H7+
57.0447	1	C2H5N2+
57.0699	2	C4H9+
68.0243	999	C2H2N3+
70.04	2	C2H4N3+
70.0651	2	C4H8N+
71.0603	445	C3H7N2+
74.0058	330	C2H4NS+
79.021	1	H5N3S+
85.0509	116	C2H5N4+
91.0324	299	C2H7N2S+
96.0556	341	C4H6N3+
99.001	3	C3H3N2S+
102.0372	9	C4H8NS+
102.0912	1	C3H10N4+
110.0461	59	C3H4N5+
113.0821	22	C4H9N4+
116.0277	224	C3H6N3S+
130.0434	1	C4H8N3S+
138.0774	54	C5H8N5+
143.0258	2	C3H5N5S+
144.059	44	C5H10N3S+
156.034	1	C4H6N5S+
158.0495	37	C4H8N5S+
170.0497	1	C5H8N5S+
184.065	1	C6H10N5S+
186.0808	38	C6H12N5S+
