Mass spectrum: Terbutryn; LC-ESI-QFT; MS2; CE: 75; R=17500; [M+H]+
Name: Terbutryn
Name: 2-N-tert-butyl-4-N-ethyl-6-methylsulfanyl-1,3,5-triazine-2,4-diamine
Formula: C10H19N5S
Exact mass: 241.1361
SMILES: CCNC1=NC(SC)=NC(NC(C)(C)C)=N1
InChI: InChI=1S/C10H19N5S/c1-6-11-7-12-8(15-10(2,3)4)14-9(13-7)16-5/h6H2,1-5H3,(H2,11,12,13,14,15)
Instrument: Q Exactive Orbitrap (Thermo Scientific)
Instrument type: LC-ESI-QFT
Ms type: MS2
Ion mode: POSITIVE
Ionization: ESI
Fragmentation mode: HCD
Collision energy: 75
Resolution: 17500
Column name: Acquity BEH C18 1.7um, 2.1x150mm (Waters)
Retention time: 16.520 min
Base peak: 79.0212
Precursor m/z: 242.1434
Precursor type: [M+H]+
Precursor intensity: 57219443.21875
m/z	relative intensity	assigned
57.0699	79	C4H9+
61.0106	7	C2H5S+
62.0186	1	C2H6S+
68.0243	912	C2H2N3+
70.04	4	C2H4N3+
71.0603	999	C3H7N2+
74.0058	346	C2H4NS+
85.0509	239	C2H5N4+
91.0324	988	C2H7N2S+
96.0556	925	C4H6N3+
99.0012	3	C3H3N2S+
102.0372	44	C4H8NS+
110.0461	159	C3H4N5+
112.0615	1	C3H6N5+
113.0821	92	C4H9N4+
116.0277	468	C3H6N3S+
131.0392	1	C3H7N4S+
138.0774	305	C5H8N5+
140.093	5	C5H10N5+
143.0258	3	C3H5N5S+
144.059	238	C5H10N3S+
158.0494	217	C4H8N5S+
159.0703	1	C5H11N4S+
169.0539	3	C6H9N4S+
171.0574	5	C5H9N5S+
184.0652	3	C6H10N5S+
186.0808	513	C6H12N5S+
