Mass spectrum: 6-Phenyl-1,3,5-triazine-2,4-diamine; LC-ESI-QFT; MS2; CE: 45; R=17500; [M+H]+
Name: 6-Phenyl-1,3,5-triazine-2,4-diamine
Formula: C9H9N5
Exact mass: 187.0858
SMILES: NC1=NC(=NC(N)=N1)C1=CC=CC=C1
InChI: InChI=1S/C9H9N5/c10-8-12-7(13-9(11)14-8)6-4-2-1-3-5-6/h1-5H,(H4,10,11,12,13,14)
Instrument: Q Exactive Orbitrap (Thermo Scientific)
Instrument type: LC-ESI-QFT
Ms type: MS2
Ion mode: POSITIVE
Ionization: ESI
Fragmentation mode: HCD
Collision energy: 45
Resolution: 17500
Column name: Acquity BEH C18 1.7um, 2.1x150mm (Waters)
Retention time: 10.585 min
Base peak: 79.0212
Precursor m/z: 188.0931
Precursor type: [M+H]+
Precursor intensity: 30091398.25
m/z	relative intensity	assigned
68.0243	21	C2H2N3+
85.0509	250	C2H5N4+
104.0495	227	C7H6N+
121.076	18	C7H9N2+
146.0713	45	C8H8N3+
188.0931	999	C9H10N5+
