Mass spectrum: Glipizide; LC-ESI-QFT; MS2; CE: 60; R=17500; [M-H]-
Name: Glipizide
Name: N-[2-[4-(cyclohexylcarbamoylsulfamoyl)phenyl]ethyl]-5-methylpyrazine-2-carboxamide
Formula: C21H27N5O4S
Exact mass: 445.1784
SMILES: CC1=NC=C(N=C1)C(=O)NCCC1=CC=C(C=C1)S(=O)(=O)NC(=O)NC1CCCCC1
InChI: InChI=1S/C21H27N5O4S/c1-15-13-24-19(14-23-15)20(27)22-12-11-16-7-9-18(10-8-16)31(29,30)26-21(28)25-17-5-3-2-4-6-17/h7-10,13-14,17H,2-6,11-12H2,1H3,(H,22,27)(H2,25,26,28)
Instrument: Q Exactive Orbitrap (Thermo Scientific)
Instrument type: LC-ESI-QFT
Ms type: MS2
Ion mode: NEGATIVE
Ionization: ESI
Fragmentation mode: HCD
Collision energy: 60
Resolution: 17500
Column name: Acquity BEH C18 1.7um, 2.1x150mm (Waters)
Retention time: 16.333 min
Base peak: 202.9785
Precursor m/z: 444.1711
Precursor type: [M-H]-
Precursor intensity: 7253227.742187
m/z	relative intensity	assigned
61.9706	40	NOS-
63.9624	114	O2S-
64.9703	74	HO2S-
77.9656	13	NO2S-
78.9733	999	HNO2S-
79.9574	5	O3S-
79.9811	40	H2NO2S-
80.9651	72	HO3S-
93.0458	48	C5H5N2-
93.9604	556	NO3S-
106.0424	2	C7H6O-
109.0408	2	C5H5N2O-
118.041	3	C6H4N3-
118.0662	32	C8H8N-
135.093	2	C8H11N2-
136.0515	68	C6H6N3O-
138.0319	1	C7H6O3-
152.0174	5	C7H6NOS-
154.0093	163	C7H6O2S-
169.0202	29	C7H7NO2S-
170.028	539	C7H8NO2S-
182.0279	21	C8H8NO2S-
185.9991	47	C7H6O4S-
199.0545	13	C8H11N2O2S-
201.0102	8	C7H7NO4S-
225.0338	28	C9H9N2O3S-
