Mass spectrum: Octylparaben; LC-ESI-QFT; MS2; CE: 90; R=17500; [M-H]-
Name: Octylparaben
Name: octyl 4-hydroxybenzoate
Formula: C15H22O3
Exact mass: 250.1569
SMILES: CCCCCCCCOC(=O)C1=CC=C(O)C=C1
InChI: InChI=1S/C15H22O3/c1-2-3-4-5-6-7-12-18-15(17)13-8-10-14(16)11-9-13/h8-11,16H,2-7,12H2,1H3
Instrument: Q Exactive Orbitrap (Thermo Scientific)
Instrument type: LC-ESI-QFT
Ms type: MS2
Ion mode: NEGATIVE
Ionization: ESI
Fragmentation mode: HCD
Collision energy: 90
Resolution: 17500
Column name: Acquity BEH C18 1.7um, 2.1x150mm (Waters)
Retention time: 19.973 min
Base peak: 249.1495
Precursor m/z: 249.1496
Precursor type: [M-H]-
Precursor intensity: 82224611.56641
m/z	relative intensity	assigned
53.0033	1	C3HO-
65.0034	4	C4HO-
65.0397	22	C5H5-
67.019	3	C4H3O-
68.9982	14	C3HO2-
69.0346	10	C4H5O-
70.0061	6	C3H2O2-
71.0138	6	C3H3O2-
72.9932	3	C2HO3-
75.024	1	C6H3-
78.011	1	C5H2O-
79.0189	7	C5H3O-
79.9904	4	C4O2-
80.9982	3	C4HO2-
82.006	32	C4H2O2-
86.0012	1	C3H2O3-
91.019	100	C6H3O-
92.0268	156	C6H4O-
93.0346	999	C6H5O-
95.0139	436	C5H3O2-
97.0296	7	C5H5O2-
98.0009	1	C4H2O3-
106.006	22	C6H2O2-
107.0139	3	C6H3O2-
108.0217	412	C6H4O2-
109.0294	1	C6H5O2-
119.0142	1	C7H3O2-
121.0295	36	C7H5O2-
123.0088	50	C6H3O3-
125.0973	5	C8H13O-
127.1129	18	C8H15O-
136.0165	8	C7H4O3-
137.0246	6	C7H5O3-
149.0246	3	C8H5O3-
