Mass spectrum: 1-(4-Methoxyphenyl)-1-pentene-3-one; LC-ESI-QFT; MS2; CE: 60; R=17500; [M+H]+
Name: 1-(4-Methoxyphenyl)-1-pentene-3-one
Name: 1-Penten-3-one, 1-(4-methoxyphenyl)-, (1E)-
Name: 1-(4-methoxyphenyl)pent-1-en-3-one
Formula: C12H14O2
Exact mass: 190.0994
SMILES: CCC(=O)C=CC1=CC=C(OC)C=C1
InChI: InChI=1S/C12H14O2/c1-3-11(13)7-4-10-5-8-12(14-2)9-6-10/h4-9H,3H2,1-2H3
Instrument: Q Exactive Orbitrap (Thermo Scientific)
Instrument type: LC-ESI-QFT
Ms type: MS2
Ion mode: POSITIVE
Ionization: ESI
Fragmentation mode: HCD
Collision energy: 60
Resolution: 17500
Column name: Acquity BEH C18 1.7um, 2.1x150mm (Waters)
Retention time: 17.008 min
Base peak: 79.0211
Precursor m/z: 191.1067
Precursor type: [M+H]+
Precursor intensity: 6450887.34375
m/z	relative intensity	assigned
53.0387	1	C4H5+
55.0179	2	C3H3O+
55.0543	11	C4H7+
57.0335	356	C3H5O+
59.0492	1	C3H7O+
65.0386	2	C5H5+
69.0335	1	C4H5O+
78.0463	1	C6H6+
79.0542	4	C6H7+
83.0492	4	C5H7O+
91.0543	27	C7H7+
93.07	2	C7H9+
94.0414	1	C6H6O+
95.0491	7	C6H7O+
103.0542	3	C8H7+
105.0699	15	C8H9+
106.0414	1	C7H6O+
107.0493	4	C7H7O+
108.0571	1	C7H8O+
109.065	8	C7H9O+
115.0543	80	C9H7+
116.0621	2	C9H8+
117.0699	6	C9H9+
118.042	1	C8H6O+
119.0492	3	C8H7O+
120.0573	6	C8H8O+
121.0648	237	C8H9O+
125.0596	2	C7H9O2+
128.0621	43	C10H8+
129.0699	38	C10H9+
130.0778	76	C10H10+
131.0491	5	C9H7O+
131.0856	4	C10H11+
132.057	3	C9H8O+
133.0649	9	C9H9O+
134.0727	4	C9H10O+
135.0441	30	C8H7O2+
135.0805	16	C9H11O+
137.0596	2	C8H9O2+
140.0619	1	C11H8+
141.0699	97	C11H9+
142.0778	54	C11H10+
143.0493	45	C10H7O+
143.0856	9	C11H11+
144.0573	3	C10H8O+
145.0648	19	C10H9O+
147.0441	10	C9H7O2+
147.0804	3	C10H11O+
149.0598	4	C9H9O2+
157.0651	18	C11H9O+
158.0727	999	C11H10O+
159.0806	29	C11H11O+
161.0595	6	C10H9O2+
161.0964	2	C11H13O+
162.0678	9	C10H10O2+
172.0883	4	C12H12O+
173.0963	51	C12H13O+
175.0753	5	C11H11O2+
176.0831	1	C11H12O2+
191.1068	48	C12H15O2+
