Mass spectrum: Chlordimeform; LC-ESI-QFT; MS2; CE: 45; R=17500; [M+H]+
Name: Chlordimeform
Name: N'-(4-chloro-2-methylphenyl)-N,N-dimethylmethanimidamide
Formula: C10H13ClN2
Exact mass: 196.0767
SMILES: CN(C)C=NC1=CC=C(Cl)C=C1C
InChI: InChI=1S/C10H13ClN2/c1-8-6-9(11)4-5-10(8)12-7-13(2)3/h4-7H,1-3H3
Instrument: Q Exactive Orbitrap (Thermo Scientific)
Instrument type: LC-ESI-QFT
Ms type: MS2
Ion mode: POSITIVE
Ionization: ESI
Fragmentation mode: HCD
Collision energy: 45
Resolution: 17500
Column name: Acquity BEH C18 1.7um, 2.1x150mm (Waters)
Retention time: 11.330 min
Base peak: 79.0211
Precursor m/z: 197.084
Precursor type: [M+H]+
Precursor intensity: 35756850.0625
m/z	relative intensity	assigned
58.0651	13	C3H8N+
117.0573	144	C8H7N+
125.0152	5	C7H6Cl+
134.06	2	C5H11ClN2+
144.0557	2	C7H11ClN+
152.0262	106	C8H7ClN+
197.084	999	C10H14ClN2+
