Mass spectrum: 4-Hydroxyacetophenone; LC-ESI-QFT; MS2; CE: 60; R=17500; [M-H]-
Name: 4-Hydroxyacetophenone
Name: 4'-Hydroxyacetophenone
Name: 1-(4-hydroxyphenyl)ethanone
Formula: C8H8O2
Exact mass: 136.0524
SMILES: CC(=O)C1=CC=C(O)C=C1
InChI: InChI=1S/C8H8O2/c1-6(9)7-2-4-8(10)5-3-7/h2-5,10H,1H3
Instrument: Q Exactive Orbitrap (Thermo Scientific)
Instrument type: LC-ESI-QFT
Ms type: MS2
Ion mode: NEGATIVE
Ionization: ESI
Fragmentation mode: HCD
Collision energy: 60
Resolution: 17500
Column name: Acquity BEH C18 1.7um, 2.1x150mm (Waters)
Retention time: 12.451 min
Base peak: 135.0451
Precursor m/z: 135.0452
Precursor type: [M-H]-
Precursor intensity: 26313748.9917
m/z	relative intensity	assigned
65.0397	3	C5H5-
67.019	1	C4H3O-
68.9982	5	C3HO2-
69.0346	4	C4H5O-
70.0061	2	C3H2O2-
71.014	2	C3H3O2-
79.0189	2	C5H3O-
79.9904	1	C4O2-
82.006	9	C4H2O2-
92.0268	36	C6H4O-
93.0346	999	C6H5O-
95.0139	184	C5H3O2-
97.0295	2	C5H5O2-
106.006	9	C6H2O2-
107.0141	1	C6H3O2-
108.0217	477	C6H4O2-
117.0347	10	C8H5O-
120.0216	13	C7H4O2-
135.0452	663	C8H7O2-
