Mass spectrum: Tolbutamide; LC-ESI-QFT; MS2; CE: 45; R=17500; [M+H]+
Name: Tolbutamide
Name: 1-butyl-3-(4-methylphenyl)sulfonylurea
Formula: C12H18N2O3S
Exact mass: 270.1038
SMILES: CCCCNC(=O)NS(=O)(=O)C1=CC=C(C)C=C1
InChI: InChI=1S/C12H18N2O3S/c1-3-4-9-13-12(15)14-18(16,17)11-7-5-10(2)6-8-11/h5-8H,3-4,9H2,1-2H3,(H2,13,14,15)
Instrument: Q Exactive Orbitrap (Thermo Scientific)
Instrument type: LC-ESI-QFT
Ms type: MS2
Ion mode: POSITIVE
Ionization: ESI
Fragmentation mode: HCD
Collision energy: 45
Resolution: 17500
Column name: Acquity BEH C18 1.7um, 2.1x150mm (Waters)
Retention time: 16.050 min
Base peak: 79.0211
Precursor m/z: 271.1111
Precursor type: [M+H]+
Precursor intensity: 5610285.4375
m/z	relative intensity	assigned
53.0023	7	C3HO+
55.0179	13	C3H3O+
55.0544	2	C4H7+
57.0699	297	C4H9+
65.0386	83	C5H5+
67.0542	42	C5H7+
74.0964	999	C4H12N+
79.9802	5	H2NO2S+
91.0542	347	C7H7+
93.0698	9	C7H9+
95.0491	17	C6H7O+
106.0652	9	C7H8N+
108.057	13	C7H8O+
109.0648	543	C7H9O+
119.0604	920	C7H7N2+
120.0575	4	C8H8O+
154.0322	8	C7H8NOS+
155.0162	871	C7H7O2S+
172.0428	56	C7H10NO2S+
187.0426	4	C8H11O3S+
