Mass spectrum: N,N-Dimethyldecylamine oxide; LC-ESI-QFT; MS2; CE: 45; R=17500; [M+H]+
Name: N,N-Dimethyldecylamine oxide
Name: 1-Decanamine, N,N-dimethyl-, N-oxide
Name: N,N-dimethyldecan-1-amine oxide
Formula: C12H27NO
Exact mass: 201.2093
SMILES: CCCCCCCCCC[N+](C)(C)[O-]
InChI: InChI=1S/C12H27NO/c1-4-5-6-7-8-9-10-11-12-13(2,3)14/h4-12H2,1-3H3
Instrument: Q Exactive Orbitrap (Thermo Scientific)
Instrument type: LC-ESI-QFT
Ms type: MS2
Ion mode: POSITIVE
Ionization: ESI
Fragmentation mode: HCD
Collision energy: 45
Resolution: 17500
Column name: Acquity BEH C18 1.7um, 2.1x150mm (Waters)
Retention time: 16.398 min
Base peak: 79.0211
Precursor m/z: 202.2165
Precursor type: [M+H]+
Precursor intensity: 63584652.1875
m/z	relative intensity	assigned
53.0022	2	C3HO+
55.0542	2	C4H7+
56.0495	1	C3H6N+
57.0699	66	C4H9+
58.0651	999	C3H8N+
62.06	125	C2H8NO+
69.0698	1	C5H9+
71.0855	28	C5H11+
72.0808	1	C4H10N+
83.0855	2	C6H11+
85.1012	23	C6H13+
97.1012	1	C7H13+
184.206	51	C12H26N+
185.2138	2	C12H27N+
202.2166	222	C12H28NO+
