Mass spectrum: Tebupirimfos; LC-ESI-QFT; MS2; CE: 75; R=17500; [M+H]+
Name: Tebupirimfos
Name: (2-tert-butylpyrimidin-5-yl)oxy-ethoxy-propan-2-yloxy-sulfanylidene-lambda5-phosphane
Formula: C13H23N2O3PS
Exact mass: 318.1167
SMILES: CCOP(=S)(OC(C)C)OC1=CN=C(N=C1)C(C)(C)C
InChI: InChI=1S/C13H23N2O3PS/c1-7-16-19(20,17-10(2)3)18-11-8-14-12(15-9-11)13(4,5)6/h8-10H,7H2,1-6H3
Instrument: Q Exactive Orbitrap (Thermo Scientific)
Instrument type: LC-ESI-QFT
Ms type: MS2
Ion mode: POSITIVE
Ionization: ESI
Fragmentation mode: HCD
Collision energy: 75
Resolution: 17500
Column name: Acquity BEH C18 1.7um, 2.1x150mm (Waters)
Retention time: 19.637 min
Base peak: 79.0211
Precursor m/z: 319.124
Precursor type: [M+H]+
Precursor intensity: 28981147.75
m/z	relative intensity	assigned
53.0021	1	C3HO+
57.0699	222	C4H9+
62.9452	1	PS+
68.0493	1	C4H6N+
69.0447	20	C3H5N2+
70.0287	11	C3H4NO+
81.07	1	C6H9+
82.0651	1	C5H8N+
84.0808	15	C5H10N+
94.0651	2	C6H8N+
95.0239	3	C4H3N2O+
96.0444	1	C5H6NO+
96.0807	5	C6H10N+
97.0396	128	C4H5N2O+
108.0808	5	C7H10N+
109.0647	1	C7H9O+
109.0759	2	C6H9N2+
110.0474	14	C5H6N2O+
110.06	3	C6H8NO+
112.0088	2	C4H4N2S+
112.0757	8	C6H10NO+
113.0167	1	C4H5N2S+
114.9614	3	H4O3PS+
119.9667	1	C2H3NOPS+
123.0552	25	C6H7N2O+
124.0755	1	C7H10NO+
125.1075	1	C7H13N2+
126.0245	1	C5H6N2S+
126.0913	8	C7H12NO+
127.0502	2	C5H7N2O2+
136.0753	2	C8H10NO+
137.0709	61	C7H9N2O+
138.0787	234	C7H10N2O+
139.0323	1	C6H7N2S+
143.0006	3	C4H4N2O2P+
149.9774	5	C3H5NO2PS+
151.0866	1	C8H11N2O+
152.0945	2	C8H12N2O+
153.1022	999	C8H13N2O+
154.0555	8	C7H10N2S+
158.9953	8	C4H4N2O3P+
168.0714	12	C8H12N2S+
169.0793	23	C8H13N2S+
174.9724	11	C4H4N2O2PS+
183.0317	2	C7H8N2O2P+
199.063	49	C8H12N2O2P+
215.0035	2	C11H5NO2S+
216.0117	9	C7H9N2O2PS+
231.0351	74	C8H12N2O2PS+
248.0379	1	C8H13N2O3PS+
249.0455	4	C12H11NO3S+
263.0614	14	C9H16N2O3PS+
