Mass spectrum: Diphenylamine; LC-ESI-QFT; MS2; CE: 75; R=17500; [M+H]+
Name: Diphenylamine
Name: N-phenylaniline
Formula: C12H11N
Exact mass: 169.0891
SMILES: N(C1=CC=CC=C1)C1=CC=CC=C1
InChI: InChI=1S/C12H11N/c1-3-7-11(8-4-1)13-12-9-5-2-6-10-12/h1-10,13H
Instrument: Q Exactive Orbitrap (Thermo Scientific)
Instrument type: LC-ESI-QFT
Ms type: MS2
Ion mode: POSITIVE
Ionization: ESI
Fragmentation mode: HCD
Collision energy: 75
Resolution: 17500
Column name: Acquity BEH C18 1.7um, 2.1x150mm (Waters)
Retention time: 18.046 min
Base peak: 79.0211
Precursor m/z: 170.0964
Precursor type: [M+H]+
Precursor intensity: 4406737.203125
m/z	relative intensity	assigned
53.0386	2	C4H5+
65.0386	115	C5H5+
66.0464	16	C5H6+
77.0386	1	C6H5+
92.0495	333	C6H6N+
93.0574	999	C6H7N+
104.0498	1	C7H6N+
115.0543	1	C9H7+
128.0621	14	C10H8+
129.0701	1	C10H9+
130.065	1	C9H8N+
141.0699	1	C11H9+
142.0656	1	C10H8N+
143.0734	1	C10H9N+
143.0858	5	C11H11+
152.0622	44	C12H8+
153.0699	26	C12H9+
154.0653	6	C11H8N+
155.0733	6	C11H9N+
168.0813	5	C12H10N+
169.0893	18	C12H11N+
170.0965	86	C12H12N+
