Mass spectrum: Clomazone; LC-ESI-QFT; MS2; CE: 90; R=17500; [M+H]+
Name: Clomazone
Name: 2-[(2-chlorophenyl)methyl]-4,4-dimethyl-1,2-oxazolidin-3-one
Formula: C12H14ClNO2
Exact mass: 239.0713
SMILES: CC1(C)CON(CC2=C(Cl)C=CC=C2)C1=O
InChI: InChI=1S/C12H14ClNO2/c1-12(2)8-16-14(11(12)15)7-9-5-3-4-6-10(9)13/h3-6H,7-8H2,1-2H3
Instrument: Q Exactive Orbitrap (Thermo Scientific)
Instrument type: LC-ESI-QFT
Ms type: MS2
Ion mode: POSITIVE
Ionization: ESI
Fragmentation mode: HCD
Collision energy: 90
Resolution: 17500
Column name: Acquity BEH C18 1.7um, 2.1x150mm (Waters)
Retention time: 16.986 min
Base peak: 79.0211
Precursor m/z: 240.0786
Precursor type: [M+H]+
Precursor intensity: 6916921.1875
m/z	relative intensity	assigned
55.0542	1	C4H7+
62.015	1	C5H2+
63.0229	13	C5H3+
65.0385	8	C5H5+
66.0464	8	C5H6+
72.0444	9	C3H6NO+
72.9839	5	C3H2Cl+
74.9996	4	C3H4Cl+
79.0543	3	C6H7+
89.0385	232	C7H5+
90.0464	61	C7H6+
91.0542	26	C7H7+
95.0492	1	C6H7O+
98.9996	110	C5H4Cl+
105.07	1	C8H9+
118.065	12	C8H8N+
119.0731	3	C8H9N+
125.0152	999	C7H6Cl+
132.0806	1	C9H10N+
134.0964	94	C9H12N+
152.062	28	C12H8+
165.0699	24	C7H14ClO2+
166.0778	6	C7H15ClO2+
