Mass spectrum: Azathioprine; LC-ESI-QFT; MS2; CE: 90; R=17500; [M-H]-
Name: Azathioprine
Name: 6-(3-methyl-5-nitroimidazol-4-yl)sulfanyl-7H-purine
Formula: C9H7N7O2S
Exact mass: 277.0382
SMILES: CN1C=NC(=C1SC1=NC=NC2=C1NC=N2)[N+]([O-])=O
InChI: InChI=1S/C9H7N7O2S/c1-15-4-14-7(16(17)18)9(15)19-8-5-6(11-2-10-5)12-3-13-8/h2-4H,1H3,(H,10,11,12,13)
Instrument: Q Exactive Orbitrap (Thermo Scientific)
Instrument type: LC-ESI-QFT
Ms type: MS2
Ion mode: NEGATIVE
Ionization: ESI
Fragmentation mode: HCD
Collision energy: 90
Resolution: 17500
Column name: Acquity BEH C18 1.7um, 2.1x150mm (Waters)
Retention time: 10.668 min
Base peak: 276.0308
Precursor m/z: 276.0309
Precursor type: [M-H]-
Precursor intensity: 14919487.79517
m/z	relative intensity	assigned
55.0301	16	C2H3N2-
56.9805	11	C2HS-
57.9757	268	CNS-
61.9706	4	NOS-
63.9624	24	O2S-
64.0067	10	C3N2-
65.0145	37	C3HN2-
66.0098	54	C2N3-
67.0301	7	C3H3N2-
69.0095	13	C2HN2O-
69.9757	3	C2NS-
70.9836	8	C2HNS-
71.9676	2	C2OS-
73.9706	178	CNOS-
79.0176	48	C3HN3-
81.9757	78	C3NS-
82.0175	5	C3H2N2O-
83.9914	11	C3H2NS-
85.9706	213	C2NOS-
90.0098	653	C4N3-
92.0254	50	C4H2N3-
93.0205	3	C3HN4-
95.9788	26	C3N2S-
96.9867	8	C3HN2S-
97.9944	33	C3H2N2S-
105.0335	4	C5H3N3-
106.0286	21	C4H2N4-
107.0126	21	C4HN3O-
108.9867	6	C4HN2S-
109.9819	8	C3N3S-
111.0022	465	C4H3N2S-
112.0101	212	C4H4N2S-
112.9815	232	C3HN2OS-
113.9892	4	C3H2N2OS-
114.997	3	C3H3N2OS-
117.0207	999	C5HN4-
119.0363	12	C5H3N4-
122.9898	4	C4HN3S-
123.9975	26	C4H2N3S-
126.9845	6	C3HN3OS-
128.005	165	C4H4N2OS-
130.0287	4	C6H2N4-
131.0237	3	C5HN5-
131.0366	5	C6H3N4-
132.044	46	C6H4N4-
133.0157	6	C5HN4O-
134.0235	59	C5H2N4O-
135.9973	12	C5H2N3S-
142.0161	3	C6N5-
142.9794	78	C3HN3O2S-
143.0364	11	C7H3N4-
144.0316	81	C6H2N5-
145.0521	3	C7H5N4-
150.0004	6	C5H2N4S-
151.0084	6	C5H3N4S-
156.0318	7	C7H2N5-
157.0397	4	C7H3N5-
158.0029	727	C4H4N3O2S-
164.034	10	C6H4N4O2-
168.0313	4	C8H2N5-
170.0472	4	C8H4N5-
174.0006	4	C7H2N4S-
175.0085	7	C7H3N4S-
182.0348	7	C8H2N6-
183.0423	4	C8H3N6-
195.0429	4	C9H3N6-
215.0142	4	C8H3N6S-
229.0305	2	C9H5N6S-
