Mass spectrum: 2-[4-(Diethylamino)-2-hydroxybenzoyl]benzoic acid; LC-ESI-QFT; MS2; CE: 30; R=17500; [M+H]+
Name: 2-[4-(Diethylamino)-2-hydroxybenzoyl]benzoic acid
Name: 2-(4-(Diethylamino)-2-hydroxybenzoyl)benzoic acid
Formula: C18H19NO4
Exact mass: 313.1314
SMILES: CCN(CC)C1=CC(O)=C(C=C1)C(=O)C1=C(C=CC=C1)C(O)=O
InChI: InChI=1S/C18H19NO4/c1-3-19(4-2)12-9-10-15(16(20)11-12)17(21)13-7-5-6-8-14(13)18(22)23/h5-11,20H,3-4H2,1-2H3,(H,22,23)
Instrument: Q Exactive Orbitrap (Thermo Scientific)
Instrument type: LC-ESI-QFT
Ms type: MS2
Ion mode: POSITIVE
Ionization: ESI
Fragmentation mode: HCD
Collision energy: 30
Resolution: 17500
Column name: Acquity BEH C18 1.7um, 2.1x150mm (Waters)
Retention time: 17.555 min
Base peak: 79.0212
Precursor m/z: 314.1387
Precursor type: [M+H]+
Precursor intensity: 20096718.125
m/z	relative intensity	assigned
65.0386	1	C5H5+
72.0807	1	C4H10N+
110.06	9	C6H8NO+
120.0809	1	C8H10N+
122.0599	1	C7H8NO+
136.0762	1	C8H10NO+
137.0835	12	C8H11NO+
138.0914	438	C8H12NO+
148.1118	1	C10H14N+
149.0233	638	C8H5O3+
163.0389	10	C9H7O3+
164.0714	2	C9H10NO2+
164.1073	2	C10H14NO+
166.1226	881	C10H16NO+
167.0337	4	C8H7O4+
181.0494	14	C9H9O4+
223.0993	2	C15H13NO+
224.0712	2	C14H10NO2+
224.1064	1	C15H14NO+
225.0544	1	C14H9O3+
239.094	2	C15H13NO2+
240.0656	6	C14H10NO3+
240.1019	70	C15H14NO2+
250.086	10	C16H12NO2+
251.0704	1	C16H11O3+
252.0657	3	C15H10NO3+
266.0809	6	C16H12NO3+
267.0889	41	C16H13NO3+
268.0968	202	C16H14NO3+
270.0756	4	C15H12NO4+
281.1059	1	C17H15NO3+
284.0921	5	C16H14NO4+
285.0996	129	C16H15NO4+
286.1075	32	C16H16NO4+
296.1282	394	C18H18NO3+
314.1387	999	C18H20NO4+
