Mass spectrum: Imazamox; LC-ESI-QFT; MS2; CE: 75; R=17500; [M+H]+
Name: Imazamox
Name: 5-(methoxymethyl)-2-(4-methyl-5-oxo-4-propan-2-yl-1H-imidazol-2-yl)pyridine-3-carboxylic acid
Formula: C15H19N3O4
Exact mass: 305.1376
SMILES: COCC1=CN=C(C2=NC(C)(C(C)C)C(=O)N2)C(=C1)C(O)=O
InChI: InChI=1S/C15H19N3O4/c1-8(2)15(3)14(21)17-12(18-15)11-10(13(19)20)5-9(6-16-11)7-22-4/h5-6,8H,7H2,1-4H3,(H,19,20)(H,17,18,21)
Instrument: Q Exactive Orbitrap (Thermo Scientific)
Instrument type: LC-ESI-QFT
Ms type: MS2
Ion mode: POSITIVE
Ionization: ESI
Fragmentation mode: HCD
Collision energy: 75
Resolution: 17500
Column name: Acquity BEH C18 1.7um, 2.1x150mm (Waters)
Retention time: 13.539 min
Base peak: 79.0211
Precursor m/z: 306.1448
Precursor type: [M+H]+
Precursor intensity: 14949703.5625
m/z	relative intensity	assigned
52.0182	2	C3H2N+
53.0022	89	C3HO+
53.0386	5	C4H5+
53.9975	14	C2NO+
54.0338	2	C3H4N+
55.0178	3	C3H3O+
56.0495	21	C3H6N+
57.0698	2	C4H9+
58.0651	24	C3H8N+
63.0229	1	C5H3+
65.0385	15	C5H5+
66.0339	1	C4H4N+
67.0417	3	C4H5N+
67.0542	36	C5H7+
67.9893	1	C3O2+
68.0257	4	C4H4O+
68.0494	1	C4H6N+
69.0698	999	C5H9+
70.0651	34	C4H8N+
71.0729	85	C4H9N+
71.0854	6	C5H11+
72.0444	6	C3H6NO+
72.0809	2	C4H10N+
74.0964	2	C4H12N+
78.0088	1	C3N3+
78.0338	5	C5H4N+
79.0415	7	C5H5N+
79.0543	8	C6H7+
80.0494	13	C5H6N+
81.0335	4	C5H5O+
81.0699	5	C6H9+
84.0808	3	C5H10N+
85.0283	2	C4H5O2+
86.0964	765	C5H12N+
88.0181	10	C6H2N+
90.0338	11	C6H4N+
91.0417	1	C6H5N+
92.0494	52	C6H6N+
93.0211	2	C5H3NO+
93.0448	2	C5H5N2+
93.0574	3	C6H7N+
94.0526	32	C5H6N2+
94.0652	5	C6H8N+
95.0366	3	C5H5NO+
95.0493	4	C6H7O+
96.0445	3	C5H6NO+
97.0648	8	C6H9O+
103.029	4	C6H3N2+
104.037	1	C6H4N2+
104.0495	4	C7H6N+
105.0447	19	C6H5N2+
106.0287	6	C6H4NO+
106.0526	2	C6H6N2+
106.0651	6	C7H8N+
107.0366	18	C6H5NO+
107.0604	70	C6H7N2+
108.0444	28	C6H6NO+
109.0523	3	C6H7NO+
109.0648	16	C7H9O+
110.06	43	C6H8NO+
111.0442	9	C6H7O2+
117.0447	37	C7H5N2+
117.0574	2	C8H7N+
118.0289	5	C7H4NO+
118.0525	68	C7H6N2+
118.0652	4	C8H8N+
119.0604	70	C7H7N2+
120.0444	51	C7H6NO+
120.0682	6	C7H8N2+
121.0396	34	C6H5N2O+
122.0236	4	C6H4NO2+
122.0475	14	C6H6N2O+
122.0601	14	C7H8NO+
123.0679	4	C7H9NO+
124.0396	3	C6H6NO2+
126.0549	3	C6H8NO2+
131.0605	14	C8H7N2+
131.0728	1	C9H9N+
132.0317	7	C7H4N2O+
132.0448	1	C8H6NO+
132.0553	2	C7H6N3+
132.0686	2	C8H8N2+
133.0397	11	C7H5N2O+
133.076	27	C8H9N2+
134.0475	10	C7H6N2O+
135.0553	42	C7H7N2O+
136.0395	4	C7H6NO2+
137.0345	4	C6H5N2O2+
137.0708	10	C7H9N2O+
138.055	10	C7H8NO2+
139.0628	3	C7H9NO2+
140.0706	199	C7H10NO2+
143.0603	2	C9H7N2+
144.0317	11	C8H4N2O+
144.0681	1	C9H8N2+
144.0806	7	C10H10N+
145.0396	266	C8H5N2O+
146.0473	12	C8H6N2O+
146.0837	1	C9H10N2+
147.0553	56	C8H7N2O+
148.0394	4	C8H6NO2+
148.0631	20	C8H8N2O+
149.0345	14	C7H5N2O2+
149.071	94	C8H9N2O+
150.0424	15	C7H6N2O2+
150.0549	4	C8H8NO2+
151.0502	17	C7H7N2O2+
151.0866	5	C8H11N2O+
153.0543	2	C8H9O3+
154.0863	4	C8H12NO2+
155.0576	28	C7H9NO3+
158.0713	6	C9H8N3+
159.0553	22	C9H7N2O+
159.0791	8	C9H9N3+
160.051	25	C8H6N3O+
160.0631	61	C9H8N2O+
161.0588	95	C8H7N3O+
161.0709	204	C9H9N2O+
162.0424	106	C8H6N2O2+
162.0662	22	C8H8N3O+
163.0502	880	C8H7N2O2+
164.0342	27	C8H6NO3+
165.0658	63	C8H9N2O2+
166.0498	2	C8H8NO3+
168.0655	47	C8H10NO3+
169.0758	2	C11H9N2+
170.0837	2	C11H10N2+
171.0915	16	C11H11N2+
173.0711	6	C10H9N2O+
174.0662	3	C9H8N3O+
175.0502	291	C9H7N2O2+
176.058	28	C9H8N2O2+
176.1065	1	C11H14NO+
177.0659	72	C9H9N2O2+
178.0612	9	C8H8N3O2+
179.0451	7	C8H7N2O3+
180.0656	1	C9H10NO3+
183.0918	4	C12H11N2+
184.0996	10	C12H12N2+
185.1073	3	C12H13N2+
186.0664	10	C10H8N3O+
186.115	5	C12H14N2+
187.074	47	C10H9N3O+
187.0851	2	C11H11N2O+
188.082	19	C10H10N3O+
188.0944	6	C11H12N2O+
189.0898	2	C10H11N3O+
189.1021	9	C11H13N2O+
190.0974	3	C10H12N3O+
191.0815	313	C10H11N2O2+
192.0767	98	C9H10N3O2+
193.0608	205	C9H9N2O3+
197.0711	7	C12H9N2O+
201.0656	2	C11H9N2O2+
202.1103	2	C12H14N2O+
203.0694	9	C10H9N3O2+
205.0847	2	C10H11N3O2+
207.0764	27	C10H11N2O3+
212.0945	11	C13H12N2O+
213.1025	7	C13H13N2O+
214.0611	2	C11H8N3O2+
215.0688	60	C11H9N3O2+
216.0768	24	C11H10N3O2+
217.0845	5	C11H11N3O2+
218.0924	122	C11H12N3O2+
219.0639	3	C10H9N3O3+
219.1125	7	C12H15N2O2+
228.0886	3	C13H12N2O2+
230.0924	3	C12H12N3O2+
235.0952	6	C11H13N3O3+
236.1031	3	C11H14N3O3+
243.1134	8	C14H15N2O2+
245.0791	2	C12H11N3O3+
246.0873	60	C12H12N3O3+
