Mass spectrum: Formononetin; LC-ESI-QFT; MS2; CE: 15; R=17500; [M-H]-
Name: Formononetin
Name: 7-hydroxy-3-(4-methoxyphenyl)chromen-4-one
Formula: C16H12O4
Exact mass: 268.0736
SMILES: COC1=CC=C(C=C1)C1=COC2=C(C=CC(O)=C2)C1=O
InChI: InChI=1S/C16H12O4/c1-19-12-5-2-10(3-6-12)14-9-20-15-8-11(17)4-7-13(15)16(14)18/h2-9,17H,1H3
Instrument: Q Exactive Orbitrap (Thermo Scientific)
Instrument type: LC-ESI-QFT
Ms type: MS2
Ion mode: NEGATIVE
Ionization: ESI
Fragmentation mode: HCD
Collision energy: 15
Resolution: 17500
Column name: Acquity BEH C18 1.7um, 2.1x150mm (Waters)
Retention time: 16.859 min
Base peak: 291.0599
Precursor m/z: 267.0663
Precursor type: [M-H]-
Precursor intensity: 42147452.72266
m/z	relative intensity	assigned
252.0428	101	C15H8O4-
267.0663	999	C16H11O4-
