Mass spectrum: Metolachlor; LC-ESI-QFT; MS2; CE: 60; R=17500; [M+H]+
Name: Metolachlor
Name: 2-chloro-N-(2-ethyl-6-methylphenyl)-N-(1-methoxypropan-2-yl)acetamide
Formula: C15H22ClNO2
Exact mass: 283.1339
SMILES: CCC1=C(N(C(C)COC)C(=O)CCl)C(C)=CC=C1
InChI: InChI=1S/C15H22ClNO2/c1-5-13-8-6-7-11(2)15(13)17(14(18)9-16)12(3)10-19-4/h6-8,12H,5,9-10H2,1-4H3
Instrument: Q Exactive Orbitrap (Thermo Scientific)
Instrument type: LC-ESI-QFT
Ms type: MS2
Ion mode: POSITIVE
Ionization: ESI
Fragmentation mode: HCD
Collision energy: 60
Resolution: 17500
Column name: Acquity BEH C18 1.7um, 2.1x150mm (Waters)
Retention time: 18.192 min
Base peak: 79.0211
Precursor m/z: 284.1412
Precursor type: [M+H]+
Precursor intensity: 21873401.25
m/z	relative intensity	assigned
53.0022	6	C3HO+
56.0495	4	C3H6N+
70.0649	2	C4H8N+
73.0647	106	C4H9O+
75.9948	1	C2H3ClN+
76.9788	84	C2H2ClO+
79.0541	6	C6H7+
90.0102	1	C6H2O+
91.0542	53	C7H7+
93.0571	2	C6H7N+
93.0698	11	C7H9+
102.0912	1	C5H12NO+
103.054	3	C8H7+
104.062	2	C8H8+
105.07	10	C8H9+
106.065	4	C7H8N+
107.0491	4	C7H7O+
107.073	2	C7H9N+
107.0856	12	C8H11+
108.0807	34	C7H10N+
109.0648	26	C7H9O+
115.0543	5	C9H7+
116.0618	1	C9H8+
117.0573	4	C8H7N+
117.0698	40	C9H9+
118.065	15	C8H8N+
119.073	30	C8H9N+
119.0855	47	C9H11+
120.0807	52	C8H10N+
121.0646	2	C8H9O+
129.0696	1	C10H9+
130.0651	15	C9H8N+
130.0775	1	C10H10+
131.073	29	C9H9N+
131.0854	14	C10H11+
132.0808	41	C9H10N+
133.0886	150	C9H11N+
134.0964	402	C9H12N+
135.0804	12	C9H11O+
135.1044	1	C9H13N+
136.1121	8	C9H14N+
137.096	4	C9H13O+
141.0697	1	C11H9+
143.073	37	C10H9N+
144.0807	38	C10H10N+
145.0885	45	C10H11N+
146.0964	138	C10H12N+
147.0678	3	C9H9NO+
147.1042	32	C10H13N+
148.0757	11	C9H10NO+
148.112	47	C10H14N+
156.0809	1	C11H10N+
157.0886	2	C11H11N+
158.0964	83	C11H12N+
159.1042	48	C11H13N+
159.1166	3	C12H15+
160.112	140	C11H14N+
161.0834	1	C10H11NO+
161.1199	6	C11H15N+
162.0912	24	C10H12NO+
162.1276	2	C11H16N+
166.0417	6	C9H9ClN+
174.0914	2	C11H12NO+
174.1278	16	C12H16N+
175.1357	4	C12H17N+
176.1433	999	C12H18N+
178.0418	1	C10H9ClN+
179.0494	2	C10H10ClN+
182.0729	3	C10H13ClN+
184.0523	101	C9H11ClNO+
188.1068	9	C12H14NO+
192.0573	5	C11H11ClN+
194.0731	29	C11H13ClN+
196.0524	2	C10H11ClNO+
202.1225	8	C13H16NO+
210.068	1	C11H13ClNO+
212.0835	31	C11H15ClNO+
224.0834	2	C15H12O2+
224.1201	4	C13H19ClN+
252.1149	205	C14H19ClNO+
