Mass spectrum: Isopropalin; LC-ESI-QFT; MS2; CE: 15; R=17500; [M+H]+
Name: Isopropalin
Name: 2,6-dinitro-4-propan-2-yl-N,N-dipropylaniline
Formula: C15H23N3O4
Exact mass: 309.1689
SMILES: CCCN(CCC)C1=C(C=C(C=C1[N+]([O-])=O)C(C)C)[N+]([O-])=O
InChI: InChI=1S/C15H23N3O4/c1-5-7-16(8-6-2)15-13(17(19)20)9-12(11(3)4)10-14(15)18(21)22/h9-11H,5-8H2,1-4H3
Instrument: Q Exactive Orbitrap (Thermo Scientific)
Instrument type: LC-ESI-QFT
Ms type: MS2
Ion mode: POSITIVE
Ionization: ESI
Fragmentation mode: HCD
Collision energy: 15
Resolution: 17500
Column name: Acquity BEH C18 1.7um, 2.1x150mm (Waters)
Retention time: 20.366 min
Base peak: 79.0212
Precursor m/z: 310.1761
Precursor type: [M+H]+
Precursor intensity: 1664612.46875
m/z	relative intensity	assigned
58.0651	100	C3H8N+
194.0926	478	C9H12N3O2+
206.0924	999	C10H12N3O2+
208.0721	97	C9H10N3O3+
210.0874	577	C9H12N3O3+
218.093	93	C11H12N3O2+
219.1131	142	C12H15N2O2+
222.0875	529	C10H12N3O3+
226.0822	646	C9H12N3O4+
234.1236	308	C12H16N3O2+
264.1344	770	C13H18N3O3+
