Mass spectrum: Melengestrol acetate; LC-ESI-QFT; MS2; CE: 60; R=17500; [M+H]+
Name: Melengestrol acetate
Name: [(8R,9S,10R,13S,14S,17R)-17-acetyl-6,10,13-trimethyl-16-methylidene-3-oxo-1,2,8,9,11,12,14,15-octahydrocyclopenta[a]phenanthren-17-yl] acetate
Formula: C25H32O4
Exact mass: 396.2301
SMILES: CC(=O)O[C@]1(C(C)=O)C(=C)C[C@H]2[C@@H]3C=C(C)C4=CC(=O)CC[C@]4(C)[C@H]3CC[C@]12C
InChI: InChI=1S/C25H32O4/c1-14-11-19-20(23(5)9-7-18(28)13-21(14)23)8-10-24(6)22(19)12-15(2)25(24,16(3)26)29-17(4)27/h11,13,19-20,22H,2,7-10,12H2,1,3-6H3/t19-,20+,22+,23-,24+,25+/m1/s1
Instrument: Q Exactive Orbitrap (Thermo Scientific)
Instrument type: LC-ESI-QFT
Ms type: MS2
Ion mode: POSITIVE
Ionization: ESI
Fragmentation mode: HCD
Collision energy: 60
Resolution: 17500
Column name: Acquity BEH C18 1.7um, 2.1x150mm (Waters)
Retention time: 18.605 min
Base peak: 79.0212
Precursor m/z: 397.2373
Precursor type: [M+H]+
Precursor intensity: 2252687.03125
m/z	relative intensity	assigned
55.0179	13	C3H3O+
55.0543	13	C4H7+
67.0542	21	C5H7+
69.0699	11	C5H9+
79.0542	34	C6H7+
81.0698	17	C6H9+
83.0492	30	C5H7O+
91.0542	56	C7H7+
93.07	48	C7H9+
95.0494	8	C6H7O+
95.0856	28	C7H11+
97.0648	77	C6H9O+
105.0699	77	C8H9+
107.0491	9	C7H7O+
107.0855	50	C8H11+
109.0648	14	C7H9O+
109.1015	8	C8H13+
111.0804	7	C7H11O+
115.0543	9	C9H7+
117.0699	32	C9H9+
119.0856	74	C9H11+
121.0648	23	C8H9O+
121.1012	29	C9H13+
123.0805	10	C8H11O+
128.0622	17	C10H8+
129.0698	35	C10H9+
130.0779	14	C10H10+
131.0857	51	C10H11+
133.1014	51	C10H13+
135.0805	17	C9H11O+
137.0964	9	C9H13O+
141.0698	10	C11H9+
142.0779	47	C11H10+
143.0857	49	C11H11+
144.0936	15	C11H12+
145.0649	14	C10H9O+
145.1012	140	C11H13+
147.0808	11	C10H11O+
147.117	20	C11H15+
153.0699	9	C12H9+
154.0776	10	C12H10+
155.0857	36	C12H11+
156.0934	28	C12H12+
157.0645	7	C11H9O+
157.1014	95	C12H13+
159.0807	19	C11H11O+
159.1169	57	C12H15+
160.0885	56	C11H12O+
161.096	19	C11H13O+
165.0702	29	C13H9+
166.0781	6	C13H10+
167.0856	39	C13H11+
168.0933	16	C13H12+
169.1015	70	C13H13+
170.1092	8	C13H14+
171.0806	21	C12H11O+
171.1166	27	C13H15+
172.0884	47	C12H12O+
173.0962	36	C12H13O+
175.1118	120	C12H15O+
178.0778	8	C14H10+
179.0856	48	C14H11+
180.0933	27	C14H12+
181.1012	55	C14H13+
182.1092	35	C14H14+
183.1169	42	C14H15+
185.0961	29	C13H13O+
185.1327	20	C14H17+
187.1119	127	C13H15O+
191.0859	19	C15H11+
192.0933	18	C15H12+
193.1013	74	C15H13+
194.1091	54	C15H14+
195.117	128	C15H15+
196.125	23	C15H16+
197.1323	35	C15H17+
204.094	9	C16H12+
205.101	27	C16H13+
206.1092	137	C16H14+
207.1171	145	C16H15+
208.1248	49	C16H16+
209.1325	102	C16H17+
210.1408	30	C16H18+
211.1113	7	C15H15O+
211.1481	20	C16H19+
217.1015	11	C17H13+
218.1093	13	C17H14+
219.1168	38	C17H15+
220.1243	39	C17H16+
221.1327	999	C17H17+
222.1404	96	C17H18+
223.1483	353	C17H19+
224.156	37	C17H20+
225.1288	7	C16H17O+
225.1641	8	C17H21+
231.1173	50	C18H15+
232.1247	18	C18H16+
233.1331	28	C18H17+
234.1404	9	C18H18+
235.1482	100	C18H19+
236.1562	306	C18H20+
237.1273	17	C17H17O+
237.1639	203	C18H21+
245.1324	15	C19H17+
246.1406	39	C19H18+
247.1482	28	C19H19+
249.1273	31	C18H17O+
249.1644	11	C19H21+
250.1354	10	C18H18O+
251.1425	17	C18H19O+
251.1797	16	C19H23+
261.1637	72	C20H21+
262.1705	8	C20H22+
263.1432	43	C19H19O+
264.1515	28	C19H20O+
265.1588	38	C19H21O+
277.1587	9	C20H21O+
277.196	6	C21H25+
278.1668	7	C20H22O+
279.1745	248	C20H23O+
280.1818	11	C20H24O+
293.191	10	C21H25O+
294.1981	9	C21H26O+
