Mass spectrum: 5HPP-33; LC-ESI-QFT; MS2; CE: 90; R=17500; [M-H]-
Name: 5HPP-33
Name: 2-(2,6-Diisopropylphenyl)-5-hydroxyisoindoline-1,3-dione
Name: 2-[2,6-di(propan-2-yl)phenyl]-5-hydroxyisoindole-1,3-dione
Formula: C20H21NO3
Exact mass: 323.1521
SMILES: CC(C)C1=CC=CC(C(C)C)=C1N1C(=O)C2=C(C=C(O)C=C2)C1=O
InChI: InChI=1S/C20H21NO3/c1-11(2)14-6-5-7-15(12(3)4)18(14)21-19(23)16-9-8-13(22)10-17(16)20(21)24/h5-12,22H,1-4H3
Instrument: Q Exactive Orbitrap (Thermo Scientific)
Instrument type: LC-ESI-QFT
Ms type: MS2
Ion mode: NEGATIVE
Ionization: ESI
Fragmentation mode: HCD
Collision energy: 90
Resolution: 17500
Column name: Acquity BEH C18 1.7um, 2.1x150mm (Waters)
Retention time: 18.689 min
Base peak: 322.1447
Precursor m/z: 322.1449
Precursor type: [M-H]-
Precursor intensity: 92083344.2207
m/z	relative intensity	assigned
91.019	87	C6H3O-
92.0268	3	C6H4O-
93.0346	33	C6H5O-
95.0139	17	C5H3O2-
105.0221	5	C6H3NO-
108.0217	27	C6H4O2-
117.022	4	C7H3NO-
118.0299	47	C7H4NO-
119.0139	5	C7H3O2-
119.0502	8	C8H7O-
123.0088	6	C6H3O3-
129.0585	1	C9H7N-
131.0372	1	C8H5NO-
132.0216	6	C8H4O2-
133.017	18	C7H3NO2-
142.0662	19	C10H8N-
144.0455	3	C9H6NO-
144.0819	4	C10H10N-
145.0295	7	C9H5O2-
156.0816	11	C11H10N-
157.0531	7	C10H7NO-
158.0611	14	C10H8NO-
158.0975	34	C11H12N-
160.0167	15	C9H4O3-
160.0404	3	C9H6NO2-
161.0119	94	C8H3NO3-
162.0198	4	C8H4NO3-
170.0612	2	C11H8NO-
172.0765	8	C11H10NO-
173.0244	11	C10H5O3-
173.085	2	C11H11NO-
180.0819	35	C13H10N-
186.0924	9	C12H12NO-
187.1001	1	C12H13NO-
188.1082	3	C12H14NO-
192.0816	6	C14H10N-
193.0901	2	C14H11N-
194.0977	8	C14H12N-
195.0687	8	C13H9NO-
204.0816	5	C15H10N-
205.0896	87	C15H11N-
206.0612	7	C14H8NO-
206.0973	9	C15H12N-
207.0693	9	C14H9NO-
208.0768	30	C14H10NO-
208.1133	2	C15H14N-
209.0482	1	C13H7NO2-
210.0565	1	C13H8NO2-
218.0612	13	C15H8NO-
219.0691	11	C15H9NO-
219.0808	2	C16H11O-
219.1052	16	C16H13N-
220.0771	24	C15H10NO-
220.0888	1	C16H12O-
220.1131	11	C16H14N-
221.048	3	C14H7NO2-
221.0845	6	C15H11NO-
222.0562	2	C14H8NO2-
222.0924	15	C15H12NO-
223.0639	9	C14H9NO2-
224.0715	2	C14H10NO2-
232.0768	44	C16H10NO-
232.113	3	C17H14N-
233.0846	149	C16H11NO-
234.0561	35	C15H8NO2-
234.0924	22	C16H12NO-
234.1289	14	C17H16N-
235.0641	26	C15H9NO2-
235.0767	2	C16H11O2-
235.1007	3	C16H13NO-
235.113	1	C17H15O-
236.0717	71	C15H10NO2-
236.1085	9	C16H14NO-
237.0801	2	C15H11NO2-
238.0515	3	C14H8NO3-
239.0953	4	C15H13NO2-
244.0769	13	C17H10NO-
245.0845	19	C17H11NO-
246.0925	283	C17H12NO-
247.0767	12	C17H11O2-
247.1002	74	C17H13NO-
248.1081	114	C17H14NO-
249.0433	6	C15H7NO3-
249.0795	10	C16H11NO2-
250.0873	16	C16H12NO2-
250.1237	4	C17H16NO-
251.095	5	C16H13NO2-
252.1035	2	C16H14NO2-
260.1081	54	C18H14NO-
261.1159	17	C18H15NO-
262.1237	132	C18H16NO-
263.0953	11	C17H13NO2-
264.0666	11	C16H10NO3-
264.1031	15	C17H14NO2-
265.0743	3	C16H11NO3-
272.0722	6	C18H10NO2-
273.0799	1	C18H11NO2-
274.0873	13	C18H12NO2-
275.0739	1	C18H11O3-
275.0953	2	C18H13NO2-
276.0667	19	C17H10NO3-
276.1034	4	C18H14NO2-
278.119	8	C18H16NO2-
279.0903	2	C17H13NO3-
280.0987	2	C17H14NO3-
288.1034	3	C19H14NO2-
290.0824	999	C18H12NO3-
291.09	64	C18H13NO3-
306.1136	482	C19H16NO3-
