Mass spectrum: Chloramphenicol; LC-ESI-QFT; MS2; CE: 75; R=17500; [M-H]-
Name: Chloramphenicol
Name: 2,2-dichloro-N-[(1R,2R)-1,3-dihydroxy-1-(4-nitrophenyl)propan-2-yl]acetamide
Formula: C11H12Cl2N2O5
Exact mass: 322.0123
SMILES: OC[C@@H](NC(=O)C(Cl)Cl)[C@H](O)C1=CC=C(C=C1)[N+]([O-])=O
InChI: InChI=1S/C11H12Cl2N2O5/c12-10(13)11(18)14-8(5-16)9(17)6-1-3-7(4-2-6)15(19)20/h1-4,8-10,16-17H,5H2,(H,14,18)/t8-,9-/m1/s1
Instrument: Q Exactive Orbitrap (Thermo Scientific)
Instrument type: LC-ESI-QFT
Ms type: MS2
Ion mode: NEGATIVE
Ionization: ESI
Fragmentation mode: HCD
Collision energy: 75
Resolution: 17500
Column name: Acquity BEH C18 1.7um, 2.1x150mm (Waters)
Retention time: 13.753 min
Base peak: 321.005
Precursor m/z: 321.0051
Precursor type: [M-H]-
Precursor intensity: 10598369.55469
m/z	relative intensity	assigned
50.0035	4	C3N-
70.946	3	Cl2H-
71.0139	3	C3H3O2-
78.0349	58	C5H4N-
79.0189	5	C5H3O-
82.9461	106	CHCl2-
84.0091	15	C3H2NO2-
91.019	13	C6H3O-
93.0346	15	C6H5O-
95.0138	8	C5H3O2-
105.022	8	C6H3NO-
105.0346	8	C7H5O-
106.0298	14	C6H4NO-
108.0219	18	C6H4O2-
117.0346	27	C8H5O-
121.0295	999	C7H5O2-
122.0247	34	C6H4NO2-
123.0451	4	C7H7O2-
124.0403	8	C6H6NO2-
126.9362	3	C2HCl2O2-
132.0218	4	C8H4O2-
135.0326	12	C7H5NO2-
145.0295	6	C9H5O2-
147.0452	11	C9H7O2-
148.0404	7	C8H6NO2-
151.0275	152	C7H5NO3-
152.0352	13	C7H6NO3-
159.0325	11	C9H5NO2-
161.0355	7	C8H5N2O2-
162.0197	6	C8H4NO3-
