Mass spectrum: Imazaquin; LC-ESI-QFT; MS2; CE: 75; R=17500; [M+H]+
Name: Imazaquin
Name: 2-(4-methyl-5-oxo-4-propan-2-yl-1H-imidazol-2-yl)quinoline-3-carboxylic acid
Formula: C17H17N3O3
Exact mass: 311.1270
SMILES: CC(C)C1(C)N=C(NC1=O)C1=NC2=C(C=CC=C2)C=C1C(O)=O
InChI: InChI=1S/C17H17N3O3/c1-9(2)17(3)16(23)19-14(20-17)13-11(15(21)22)8-10-6-4-5-7-12(10)18-13/h4-9H,1-3H3,(H,21,22)(H,19,20,23)
Instrument: Q Exactive Orbitrap (Thermo Scientific)
Instrument type: LC-ESI-QFT
Ms type: MS2
Ion mode: POSITIVE
Ionization: ESI
Fragmentation mode: HCD
Collision energy: 75
Resolution: 17500
Column name: Acquity BEH C18 1.7um, 2.1x150mm (Waters)
Retention time: 15.221 min
Base peak: 79.0212
Precursor m/z: 312.1343
Precursor type: [M+H]+
Precursor intensity: 22362165.40625
m/z	relative intensity	assigned
53.0022	62	C3HO+
53.9974	9	C2NO+
55.0178	1	C3H3O+
56.0494	12	C3H6N+
58.0651	17	C3H8N+
65.0386	1	C5H5+
67.0542	21	C5H7+
67.9892	1	C3O2+
69.0698	656	C5H9+
70.0651	23	C4H8N+
71.0729	58	C4H9N+
71.0856	5	C5H11+
72.0443	3	C3H6NO+
72.0807	1	C4H10N+
75.0229	1	C6H3+
84.0807	4	C5H10N+
86.0964	512	C5H12N+
89.0385	3	C7H5+
91.0416	11	C6H5N+
91.0541	2	C7H7+
94.0652	1	C6H8N+
95.0489	1	C6H7O+
97.0646	6	C6H9O+
101.0387	3	C8H5+
105.0574	2	C7H7N+
115.0416	9	C8H5N+
115.0541	4	C9H7+
116.0494	15	C8H6N+
127.0417	4	C9H5N+
128.0494	46	C9H6N+
129.0447	10	C8H5N2+
129.0572	6	C9H7N+
130.0287	3	C8H4NO+
130.0525	38	C8H6N2+
130.0648	9	C9H8N+
133.0521	2	C8H7NO+
134.0602	1	C8H8NO+
142.0525	3	C9H6N2+
142.065	8	C10H8N+
143.0366	31	C9H5NO+
143.0603	10	C9H7N2+
144.0444	20	C9H6NO+
145.0526	1	C9H7NO+
146.06	361	C9H8NO+
153.0446	143	C10H5N2+
154.0526	26	C10H6N2+
154.0648	13	C11H8N+
155.0603	110	C10H7N2+
156.0444	3	C10H6NO+
156.0678	2	C10H8N2+
156.0804	2	C11H10N+
157.076	13	C10H9N2+
158.0475	30	C9H6N2O+
158.0594	9	C10H8NO+
159.0314	1	C9H5NO2+
160.0757	20	C10H10NO+
161.047	16	C9H7NO2+
161.0709	3	C9H9N2O+
167.0729	8	C12H9N+
168.068	2	C11H8N2+
169.0395	2	C10H5N2O+
169.0761	4	C11H9N2+
170.0599	3	C11H8NO+
171.0552	245	C10H7N2O+
174.055	72	C10H8NO2+
179.0601	6	C12H7N2+
180.0444	1	C12H6NO+
180.0555	3	C11H6N3+
180.0809	15	C13H10N+
181.0396	999	C11H5N2O+
182.0713	1	C11H8N3+
182.0839	6	C12H10N2+
182.0962	3	C13H12N+
183.0552	127	C11H7N2O+
184.0753	2	C12H10NO+
185.071	8	C11H9N2O+
186.0545	3	C11H8NO2+
194.0966	3	C14H12N+
196.0867	8	C12H10N3+
197.0709	472	C12H9N2O+
198.0661	213	C11H8N3O+
199.0501	444	C11H7N2O2+
201.0657	1	C11H9N2O2+
204.0805	2	C15H10N+
205.0761	2	C14H9N2+
206.0837	8	C14H10N2+
206.0955	2	C15H12N+
207.055	2	C13H7N2O+
207.0912	3	C14H11N2+
208.0745	1	C14H10NO+
208.0996	1	C14H12N2+
209.0579	2	C12H7N3O+
209.0705	1	C13H9N2O+
210.0786	18	C13H10N2O+
213.0657	29	C12H9N2O2+
220.0995	2	C15H12N2+
221.1065	5	C15H13N2+
222.066	9	C13H8N3O+
222.0911	4	C15H12NO+
223.0736	3	C13H9N3O+
223.1227	2	C15H15N2+
224.0817	101	C13H10N3O+
225.1022	18	C14H13N2O+
227.0818	2	C13H11N2O2+
232.0747	1	C16H10NO+
233.0707	5	C15H9N2O+
234.0787	15	C15H10N2O+
236.0815	4	C14H10N3O+
241.0846	1	C13H11N3O2+
249.1022	14	C16H13N2O+
251.0686	2	C14H9N3O2+
252.0766	46	C14H10N3O2+
