Mass spectrum: Metamitron; LC-ESI-QFT; MS2; CE: 75; R=17500; [M+H]+
Name: Metamitron
Name: 4-amino-3-methyl-6-phenyl-1,2,4-triazin-5-one
Formula: C10H10N4O
Exact mass: 202.0855
SMILES: CC1=NN=C(C(=O)N1N)C1=CC=CC=C1
InChI: InChI=1S/C10H10N4O/c1-7-12-13-9(10(15)14(7)11)8-5-3-2-4-6-8/h2-6H,11H2,1H3
Instrument: Q Exactive Orbitrap (Thermo Scientific)
Instrument type: LC-ESI-QFT
Ms type: MS2
Ion mode: POSITIVE
Ionization: ESI
Fragmentation mode: HCD
Collision energy: 75
Resolution: 17500
Column name: Acquity BEH C18 1.7um, 2.1x150mm (Waters)
Retention time: 12.812 min
Base peak: 79.0211
Precursor m/z: 203.0927
Precursor type: [M+H]+
Precursor intensity: 12581624.875
m/z	relative intensity	assigned
50.0152	5	C4H2+
51.023	3	C4H3+
53.0387	134	C4H5+
55.018	10	C3H3O+
55.0291	34	C2H3N2+
55.0543	9	C4H7+
56.0132	108	C2H2NO+
56.037	15	C2H4N2+
57.0448	143	C2H5N2+
59.024	108	CH3N2O+
63.023	1	C5H3+
65.0386	32	C5H5+
66.0464	26	C5H6+
69.0084	5	C2HN2O+
71.0366	2	C3H5NO+
71.0604	7	C3H7N2+
72.0445	9	C3H6NO+
72.0556	34	C2H6N3+
77.0386	48	C6H5+
78.0465	1	C6H6+
79.0543	142	C6H7+
80.0495	15	C5H6N+
81.0336	14	C5H5O+
81.0573	3	C5H7N+
81.0698	2	C6H9+
83.024	134	C3H3N2O+
89.0386	139	C7H5+
91.0418	5	C6H5N+
91.0543	12	C7H7+
92.0258	16	C6H4O+
92.0496	65	C6H6N+
93.0336	4	C6H5O+
93.0575	12	C6H7N+
94.0414	21	C6H6O+
95.0492	386	C6H7O+
100.0504	2	C3H6N3O+
103.0417	4	C7H5N+
103.0543	14	C8H7+
104.0496	999	C7H6N+
105.0448	155	C6H5N2+
105.0574	26	C7H7N+
106.0419	2	C7H6O+
106.0652	45	C7H8N+
107.0605	23	C6H7N2+
108.0445	9	C6H6NO+
109.0523	2	C6H7NO+
109.0649	2	C7H9O+
115.0544	2	C9H7+
116.0498	7	C8H6N+
117.0448	28	C7H5N2+
117.0573	5	C8H7N+
118.0417	3	C8H6O+
118.0526	43	C7H6N2+
118.0651	4	C8H8N+
119.0605	15	C7H7N2+
120.0206	3	C5H2N3O+
121.0285	1	C5H3N3O+
122.06	4	C7H8NO+
130.029	13	C8H4NO+
130.0653	41	C9H8N+
131.0606	4	C8H7N2+
132.0682	5	C8H8N2+
134.0604	1	C8H8NO+
134.0716	14	C7H8N3+
136.0758	2	C8H10NO+
145.0397	29	C8H5N2O+
145.076	3	C9H9N2+
158.0714	10	C9H8N3+
159.0793	35	C9H9N3+
173.071	5	C10H9N2O+
174.079	49	C10H10N2O+
175.098	144	C9H11N4+
187.0741	4	C10H9N3O+
203.093	16	C10H11N4O+
