Mass spectrum: Diflufenzopyr; LC-ESI-QFT; MS2; CE: 90; R=17500; [M+H]+
Name: Diflufenzopyr
Name: 2-[(E)-N-[(3,5-difluorophenyl)carbamoylamino]-C-methylcarbonimidoyl]pyridine-3-carboxylic acid
Formula: C15H12F2N4O3
Exact mass: 334.0877
SMILES: C\C(=N/NC(=O)NC1=CC(F)=CC(F)=C1)C1=NC=CC=C1C(O)=O
InChI: InChI=1S/C15H12F2N4O3/c1-8(13-12(14(22)23)3-2-4-18-13)20-21-15(24)19-11-6-9(16)5-10(17)7-11/h2-7H,1H3,(H,22,23)(H2,19,21,24)/b20-8+
Instrument: Q Exactive Orbitrap (Thermo Scientific)
Instrument type: LC-ESI-QFT
Ms type: MS2
Ion mode: POSITIVE
Ionization: ESI
Fragmentation mode: HCD
Collision energy: 90
Resolution: 17500
Column name: Acquity BEH C18 1.7um, 2.1x150mm (Waters)
Retention time: 16.398 min
Base peak: 79.0211
Precursor m/z: 335.095
Precursor type: [M+H]+
Precursor intensity: 2236880.75
m/z	relative intensity	assigned
51.023	31	C4H3+
52.0183	23	C3H2N+
56.0495	24	C3H6N+
63.023	108	C5H3+
65.0386	98	C5H5+
67.0178	30	C4H3O+
68.0496	41	C4H6N+
78.0339	194	C5H4N+
79.0417	25	C5H5N+
80.0495	125	C5H6N+
81.0339	10	C5H5O+
90.0339	183	C6H4N+
92.0495	61	C6H6N+
93.0448	83	C5H5N2+
94.0288	25	C5H4NO+
95.0365	23	C5H5NO+
95.0492	28	C6H7O+
96.0445	999	C5H6NO+
104.0495	137	C7H6N+
105.0449	45	C6H5N2+
106.0652	67	C7H8N+
107.0606	17	C6H7N2+
108.0444	139	C6H6NO+
110.0602	72	C6H8NO+
111.0315	29	C5H5NO2+
112.0393	82	C5H6NO2+
117.0448	104	C7H5N2+
118.0526	180	C7H6N2+
119.0605	24	C7H7N2+
120.0448	13	C7H6NO+
121.0397	49	C6H5N2O+
124.0393	18	C6H6NO2+
132.0444	12	C8H6NO+
133.0399	22	C7H5N2O+
135.0555	106	C7H7N2O+
140.0342	14	C6H6NO3+
145.0397	14	C8H5N2O+
146.0475	55	C8H6N2O+
150.0553	15	C8H8NO2+
162.0663	32	C8H8N3O+
163.0504	27	C8H7N2O2+
