Mass spectrum: 2-Methyl-4-isothiazolin-3-one; LC-ESI-QFT; MS2; CE: 30; R=17500; [M+H]+
Name: 2-Methyl-4-isothiazolin-3-one
Name: 2-methyl-1,2-thiazol-3-one
Formula: C4H5NOS
Exact mass: 115.0092
SMILES: CN1SC=CC1=O
InChI: InChI=1S/C4H5NOS/c1-5-4(6)2-3-7-5/h2-3H,1H3
Instrument: Q Exactive Orbitrap (Thermo Scientific)
Instrument type: LC-ESI-QFT
Ms type: MS2
Ion mode: POSITIVE
Ionization: ESI
Fragmentation mode: HCD
Collision energy: 30
Resolution: 17500
Column name: Acquity BEH C18 1.7um, 2.1x150mm (Waters)
Retention time: 3.894 min
Base peak: 79.0211
Precursor m/z: 116.0165
Precursor type: [M+H]+
Precursor intensity: 6765063.71875
m/z	relative intensity	assigned
54.0339	1	C3H4N+
58.0288	1	C2H4NO+
61.0107	1	C2H5S+
70.995	18	C3H3S+
73.0106	8	C3H5S+
84.9742	3	C3HOS+
86.9899	1	C3H3OS+
88.0216	3	C3H6NS+
98.0059	13	C4H4NS+
98.9899	22	C4H3OS+
100.993	5	C3H3NOS+
116.0165	999	C4H6NOS+
