Mass spectrum: Diflufenzopyr; LC-ESI-QFT; MS2; CE: 15; R=17500; [M-H]-
Name: Diflufenzopyr
Name: 2-[(E)-N-[(3,5-difluorophenyl)carbamoylamino]-C-methylcarbonimidoyl]pyridine-3-carboxylic acid
Formula: C15H12F2N4O3
Exact mass: 334.0877
SMILES: C\C(=N/NC(=O)NC1=CC(F)=CC(F)=C1)C1=NC=CC=C1C(O)=O
InChI: InChI=1S/C15H12F2N4O3/c1-8(13-12(14(22)23)3-2-4-18-13)20-21-15(24)19-11-6-9(16)5-10(17)7-11/h2-7H,1H3,(H,22,23)(H2,19,21,24)/b20-8+
Instrument: Q Exactive Orbitrap (Thermo Scientific)
Instrument type: LC-ESI-QFT
Ms type: MS2
Ion mode: NEGATIVE
Ionization: ESI
Fragmentation mode: HCD
Collision energy: 15
Resolution: 17500
Column name: Acquity BEH C18 1.7um, 2.1x150mm (Waters)
Retention time: 16.368 min
Base peak: 112.9856
Precursor m/z: 333.0805
Precursor type: [M-H]-
Precursor intensity: 7481777.558594
m/z	relative intensity	assigned
104.0506	8	C7H6N-
106.0662	44	C7H8N-
128.0317	468	C6H4F2N-
132.0455	9	C8H6NO-
134.0724	597	C7H8N3-
148.0405	72	C8H6NO2-
150.0561	21	C8H8NO2-
160.0517	999	C8H6N3O-
178.0622	368	C8H8N3O2-
204.0415	212	C9H6N3O3-
284.032	2	C13H5FN4O3-
299.0789	3	C15H9F2N4O-
