Mass spectrum: Fluocinolone acetonide; LC-ESI-QFT; MS2; CE: 90; R=17500; [M+H]+
Name: Fluocinolone acetonide
Name: (1S,2S,4R,8S,9S,11S,12R,13S,19S)-12,19-difluoro-11-hydroxy-8-(2-hydroxyacetyl)-6,6,9,13-tetramethyl-5,7-dioxapentacyclo[10.8.0.02,9.04,8.013,18]icosa-14,17-dien-16-one
Formula: C24H30F2O6
Exact mass: 452.2010
SMILES: CC1(C)O[C@@H]2C[C@H]3[C@@H]4C[C@H](F)C5=CC(=O)C=C[C@]5(C)[C@@]4(F)[C@@H](O)C[C@]3(C)[C@@]2(O1)C(=O)CO
InChI: InChI=1S/C24H30F2O6/c1-20(2)31-19-9-13-14-8-16(25)15-7-12(28)5-6-21(15,3)23(14,26)17(29)10-22(13,4)24(19,32-20)18(30)11-27/h5-7,13-14,16-17,19,27,29H,8-11H2,1-4H3/t13-,14-,16-,17-,19+,21-,22-,23-,24+/m0/s1
Instrument: Q Exactive Orbitrap (Thermo Scientific)
Instrument type: LC-ESI-QFT
Ms type: MS2
Ion mode: POSITIVE
Ionization: ESI
Fragmentation mode: HCD
Collision energy: 90
Resolution: 17500
Column name: Acquity BEH C18 1.7um, 2.1x150mm (Waters)
Retention time: 16.806 min
Base peak: 79.0211
Precursor m/z: 453.2083
Precursor type: [M+H]+
Precursor intensity: 2997851.1875
m/z	relative intensity	assigned
51.0229	18	C4H3+
53.0022	24	C3HO+
53.0386	194	C4H5+
55.0179	144	C3H3O+
55.0543	35	C4H7+
59.0492	164	C3H7O+
65.0386	108	C5H5+
67.0542	79	C5H7+
68.9971	9	C3HO2+
69.0334	42	C4H5O+
71.0126	11	C3H3O2+
77.0386	60	C6H5+
78.0464	19	C6H6+
79.0542	223	C6H7+
81.0334	34	C5H5O+
81.0699	42	C6H9+
83.0489	8	C5H7O+
91.0543	999	C7H7+
93.0699	163	C7H9+
94.0414	29	C6H6O+
95.0492	488	C6H7O+
97.0284	19	C5H5O2+
97.0449	15	C6H6F+
103.0542	192	C8H7+
105.07	213	C8H9+
107.0491	62	C7H7O+
107.0856	12	C8H11+
109.0448	141	C7H6F+
109.065	40	C7H9O+
111.0443	15	C6H7O2+
111.06	7	C7H8F+
115.0543	426	C9H7+
116.0621	75	C9H8+
117.0699	149	C9H9+
119.0493	20	C8H7O+
119.0855	40	C9H11+
121.0649	754	C8H9O+
123.0606	47	C8H8F+
125.0397	8	C7H6FO+
127.0543	19	C10H7+
128.0621	345	C10H8+
129.0699	164	C10H9+
130.078	15	C10H10+
131.0491	43	C9H7O+
131.0856	38	C10H11+
132.0571	30	C9H8O+
133.0448	40	C9H6F+
133.065	25	C9H9O+
134.0527	20	C9H7F+
135.0604	17	C9H8F+
135.0808	14	C9H11O+
137.0763	19	C9H10F+
139.0554	56	C8H8FO+
141.0699	143	C11H9+
142.0779	38	C11H10+
143.0857	38	C11H11+
144.0571	81	C10H8O+
145.0649	133	C10H9O+
146.0527	54	C10H7F+
146.0729	11	C10H10O+
147.0606	24	C10H8F+
147.0807	20	C10H11O+
149.0764	9	C10H10F+
152.0621	81	C12H8+
153.07	100	C12H9+
154.0779	24	C12H10+
155.0855	49	C12H11+
157.0648	48	C11H9O+
158.0728	48	C11H10O+
159.0607	19	C11H8F+
159.0805	41	C11H11O+
162.0477	25	C10H7FO+
163.0554	9	C10H8FO+
165.07	299	C13H9+
166.078	55	C13H10+
167.0855	54	C13H11+
168.0572	38	C12H8O+
168.0935	10	C13H12+
169.0648	67	C12H9O+
169.1017	10	C13H13+
170.0729	12	C12H10O+
171.0606	11	C12H8F+
171.0804	53	C12H11O+
173.0763	8	C12H10F+
176.0627	19	C11H9FO+
178.0778	229	C14H10+
179.0857	209	C14H11+
180.0936	40	C14H12+
181.0649	140	C13H9O+
182.0729	61	C13H10O+
183.0604	13	C13H8F+
183.0808	29	C13H11O+
189.0701	165	C15H9+
190.0779	107	C15H10+
191.0856	124	C15H11+
192.0933	55	C15H12+
193.1011	47	C15H13+
194.0725	46	C14H10O+
195.0807	95	C14H11O+
196.0882	42	C14H12O+
197.0966	27	C14H13O+
202.0778	158	C16H10+
203.0857	132	C16H11+
204.0939	23	C16H12+
205.065	61	C15H9O+
205.1013	40	C16H13+
206.0727	22	C15H10O+
207.0806	76	C15H11O+
208.0884	87	C15H12O+
209.0768	10	C12H11F2O+
209.0965	27	C15H13O+
211.0751	9	C14H11O2+
215.0857	171	C17H11+
216.0933	33	C17H12+
217.1013	62	C17H13+
218.0729	48	C16H10O+
219.0806	112	C16H11O+
220.0886	34	C16H12O+
221.0962	62	C16H13O+
222.104	11	C16H14O+
223.1119	10	C16H15O+
225.0905	8	C15H13O2+
227.0856	45	C18H11+
228.0929	51	C18H12+
229.1014	49	C18H13+
231.0805	113	C17H11O+
232.0885	27	C17H12O+
233.096	40	C17H13O+
234.1037	10	C17H14O+
239.0861	36	C16H12FO+
243.0812	12	C15H12FO2+
244.0887	16	C18H12O+
245.0961	73	C18H13O+
247.1125	12	C15H16FO2+
249.0913	9	C17H13O2+
257.0963	13	C19H13O+
261.0907	16	C18H13O2+
