Mass spectrum: Furosemide; LC-ESI-QFT; MS2; CE: 90; R=17500; [M-H]-
Name: Furosemide
Name: 4-chloro-2-(furan-2-ylmethylamino)-5-sulfamoylbenzoic acid
Formula: C12H11ClN2O5S
Exact mass: 330.0077
SMILES: NS(=O)(=O)C1=C(Cl)C=C(NCC2=CC=CO2)C(=C1)C(O)=O
InChI: InChI=1S/C12H11ClN2O5S/c13-9-5-10(15-6-7-2-1-3-20-7)8(12(16)17)4-11(9)21(14,18)19/h1-5,15H,6H2,(H,16,17)(H2,14,18,19)
Instrument: Q Exactive Orbitrap (Thermo Scientific)
Instrument type: LC-ESI-QFT
Ms type: MS2
Ion mode: NEGATIVE
Ionization: ESI
Fragmentation mode: HCD
Collision energy: 90
Resolution: 17500
Column name: Acquity BEH C18 1.7um, 2.1x150mm (Waters)
Retention time: 14.699 min
Base peak: 329.0005
Precursor m/z: 329.0004
Precursor type: [M-H]-
Precursor intensity: 8415615.09082
m/z	relative intensity	assigned
61.9706	73	NOS-
63.9625	75	O2S-
64.0193	7	C4H2N-
64.9703	2	HO2S-
65.9986	1	C3NO-
66.0349	24	C4H4N-
67.0191	5	C4H3O-
76.0193	29	C5H2N-
77.9656	999	NO2S-
78.9734	58	HNO2S-
79.0191	7	C5H3O-
79.9812	30	H2NO2S-
80.9652	4	HO3S-
88.0193	2	C6H2N-
90.035	71	C6H4N-
92.014	2	C5H2NO-
93.9605	31	NO3S-
94.0299	244	C5H4NO-
96.0457	2	C5H6NO-
104.038	90	C6H4N2-
105.022	4	C6H3NO-
105.0457	8	C6H5N2-
114.0348	3	C8H4N-
115.0302	30	C7H3N2-
116.0505	13	C8H6N-
117.046	9	C7H5N2-
119.0253	4	C6H3N2O-
120.0453	8	C7H6NO-
121.0408	141	C6H5N2O-
126.0116	116	C6H5ClN-
129.0457	2	C8H5N2-
131.0375	4	C8H5NO-
140.0506	38	C10H6N-
140.9986	2	C6H4ClNO-
141.046	10	C9H5N2-
142.0659	3	C10H8N-
144.0455	3	C9H6NO-
145.0404	2	C8H5N2O-
155.0615	14	C10H7N2-
156.0695	2	C10H8N2-
157.0532	7	C10H7NO-
168.0455	3	C11H6NO-
183.0563	3	C11H7N2O-
