Mass spectrum: 4-[3-(4-Acetyl-3-hydroxy-2-propylphenoxy)propoxy]phenoxy-acetic acid; LC-ESI-QFT; MS2; CE: 90; R=17500; [M+H]+
Name: 4-[3-(4-Acetyl-3-hydroxy-2-propylphenoxy)propoxy]phenoxy-acetic acid
Name: 2-(4-(3-(4-Acetyl-3-hydroxy-2-propylphenoxy)propoxy)phenoxy)acetic acid
Name: 2-[4-[3-(4-acetyl-3-hydroxy-2-propylphenoxy)propoxy]phenoxy]acetic acid
Formula: C22H26O7
Exact mass: 402.1679
SMILES: CCCC1=C(OCCCOC2=CC=C(OCC(O)=O)C=C2)C=CC(C(C)=O)=C1O
InChI: InChI=1S/C22H26O7/c1-3-5-19-20(11-10-18(15(2)23)22(19)26)28-13-4-12-27-16-6-8-17(9-7-16)29-14-21(24)25/h6-11,26H,3-5,12-14H2,1-2H3,(H,24,25)
Instrument: Q Exactive Orbitrap (Thermo Scientific)
Instrument type: LC-ESI-QFT
Ms type: MS2
Ion mode: POSITIVE
Ionization: ESI
Fragmentation mode: HCD
Collision energy: 90
Resolution: 17500
Column name: Acquity BEH C18 1.7um, 2.1x150mm (Waters)
Retention time: 19.209 min
Base peak: 79.0211
Precursor m/z: 403.1751
Precursor type: [M+H]+
Precursor intensity: 9286641.15625
m/z	relative intensity	assigned
50.0151	9	C4H2+
51.023	9	C4H3+
53.0022	28	C3HO+
53.0386	273	C4H5+
55.0179	145	C3H3O+
55.0542	17	C4H7+
63.0229	30	C5H3+
64.0307	22	C5H4+
65.0386	434	C5H5+
66.0464	30	C5H6+
67.0542	244	C5H7+
68.9971	28	C3HO2+
69.0335	20	C4H5O+
75.0229	60	C6H3+
77.0385	247	C6H5+
78.0464	18	C6H6+
79.0542	932	C6H7+
81.0335	549	C5H5O+
82.0048	12	C4H2O2+
83.0127	4	C4H3O2+
83.049	7	C5H7O+
90.0464	5	C7H6+
91.0543	475	C7H7+
92.0257	235	C6H4O+
93.0336	78	C6H5O+
93.0699	45	C7H9+
94.0414	143	C6H6O+
95.0492	999	C6H7O+
103.0543	392	C8H7+
104.062	9	C8H8+
105.0336	157	C7H5O+
105.0699	506	C8H9+
107.0492	531	C7H7O+
108.0571	7	C7H8O+
109.0285	534	C6H5O2+
109.0649	42	C7H9O+
110.0363	19	C6H6O2+
111.0441	111	C6H7O2+
115.0542	106	C9H7+
116.062	19	C9H8+
117.0699	22	C9H9+
118.0413	29	C8H6O+
119.0492	54	C8H7O+
119.0855	8	C9H11+
120.0569	16	C8H8O+
121.0285	68	C7H5O2+
121.0648	64	C8H9O+
122.0363	52	C7H6O2+
123.0441	234	C7H7O2+
124.0518	6	C7H8O2+
125.0598	21	C7H9O2+
128.0621	17	C10H8+
129.0698	9	C10H9+
131.0493	59	C9H7O+
131.0857	5	C10H11+
132.0569	9	C9H8O+
133.0284	10	C8H5O2+
133.0648	59	C9H9O+
134.0362	9	C8H6O2+
134.0726	6	C9H10O+
135.0441	131	C8H7O2+
135.0803	24	C9H11O+
136.0519	4	C8H8O2+
137.0596	35	C8H9O2+
140.0468	7	C7H8O3+
141.0696	4	C11H9+
144.0569	5	C10H8O+
145.0648	12	C10H9O+
146.072	3	C10H10O+
147.0441	130	C9H7O2+
147.0803	12	C10H11O+
149.0597	44	C9H9O2+
149.0959	6	C10H13O+
150.0676	39	C9H10O2+
151.039	12	C8H7O3+
151.0755	50	C9H11O2+
153.0544	3	C8H9O3+
154.0619	4	C8H10O3+
159.0806	4	C11H11O+
161.0598	22	C10H9O2+
163.0752	12	C10H11O2+
165.0546	9	C9H9O3+
165.0909	11	C10H13O2+
175.0752	8	C11H11O2+
177.0547	7	C10H9O3+
177.0908	16	C11H13O2+
