Mass spectrum: Methyl red; LC-ESI-QFT; MS2; CE: 45; R=17500; [M+H]+
Name: Methyl red
Name: 2-[[4-(dimethylamino)phenyl]diazenyl]benzoic acid
Formula: C15H15N3O2
Exact mass: 269.1164
SMILES: CN(C)C1=CC=C(C=C1)N=NC2=CC=CC=C2C(=O)O
InChI: InChI=1S/C15H15N3O2/c1-18(2)12-9-7-11(8-10-12)16-17-14-6-4-3-5-13(14)15(19)20/h3-10H,1-2H3,(H,19,20)
Instrument: Q Exactive Orbitrap (Thermo Scientific)
Instrument type: LC-ESI-QFT
Ms type: MS2
Ion mode: POSITIVE
Ionization: ESI
Fragmentation mode: HCD
Collision energy: 45
Resolution: 17500
Column name: Acquity BEH C18 1.7um, 2.1x150mm (Waters)
Retention time: 18.101 min
Base peak: 79.0211
Precursor m/z: 270.1237
Precursor type: [M+H]+
Precursor intensity: 14844561.79688
m/z	relative intensity	assigned
53.0386	1	C4H5+
55.0178	1	C3H3O+
57.0698	5	C4H9+
65.0386	1	C5H5+
68.0494	6	C4H6N+
71.0854	2	C5H11+
72.0808	1	C4H10N+
74.0963	20	C4H12N+
77.0385	1	C6H5+
79.0541	2	C6H7+
81.0333	1	C5H5O+
81.0572	2	C5H7N+
90.0106	2	C6H2O+
91.0541	6	C7H7+
93.0696	1	C7H9+
94.0651	7	C6H8N+
95.049	2	C6H7O+
96.0808	1	C6H10N+
115.0541	30	C9H7+
118.065	9	C8H8N+
120.0807	14	C8H10N+
121.0283	5	C7H5O2+
121.0884	1	C8H11N+
124.0758	1	C7H10NO+
128.0619	2	C10H8+
129.0697	6	C10H9+
131.0729	5	C9H9N+
139.0537	1	C11H7+
141.0698	31	C11H9+
147.1046	2	C10H13N+
148.0756	468	C9H10NO+
151.055	1	C12H7+
152.062	122	C12H8+
153.0698	999	C12H9+
154.0652	2	C11H8N+
154.0776	24	C12H10+
155.073	4	C11H9N+
155.0853	66	C12H11+
162.1275	12	C11H16N+
163.1114	3	C11H15O+
165.0698	97	C13H9+
166.0651	39	C12H8N+
166.0776	24	C13H10+
167.0734	6	C12H9N+
167.0854	35	C13H11+
168.0567	3	C12H8O+
168.0808	7	C12H10N+
168.0932	15	C13H12+
169.0651	5	C12H9O+
169.0883	2	C12H11N+
177.0701	2	C14H9+
178.0776	9	C14H10+
179.0601	1	C12H7N2+
179.0727	2	C13H9N+
179.0856	11	C14H11+
180.057	79	C13H8O+
180.0807	202	C13H10N+
181.0649	107	C13H9O+
181.0884	696	C13H11N+
182.0721	6	C13H10O+
183.0803	17	C13H11O+
191.0723	1	C14H9N+
192.0798	1	C14H10N+
193.0647	6	C14H9O+
193.0762	2	C13H9N2+
193.0883	2	C14H11N+
194.0601	5	C13H8NO+
194.0964	85	C14H12N+
195.0815	4	C14H11O+
195.1042	62	C14H13N+
196.112	454	C14H14N+
204.0804	6	C15H10N+
206.0968	1	C15H12N+
207.0678	13	C14H9NO+
207.1046	3	C15H13N+
208.0756	112	C14H10NO+
209.0834	646	C14H11NO+
212.0471	4	C11H6N3O2+
222.0912	158	C15H12NO+
223.099	113	C15H13NO+
224.1068	152	C15H14NO+
226.1335	3	C14H16N3+
237.0899	1	C14H11N3O+
238.098	2	C14H12N3O+
252.1129	454	C15H14N3O+
270.1236	9	C15H16N3O2+
