Mass spectrum: Danazol; LC-ESI-QFT; MS2; CE: 30; R=17500; [M+H]+
Name: Danazol
Name: (1S,2R,13R,14S,17R,18S)-17-ethynyl-2,18-dimethyl-7-oxa-6-azapentacyclo[11.7.0.02,10.04,8.014,18]icosa-4(8),5,9-trien-17-ol
Formula: C22H27NO2
Exact mass: 337.2042
SMILES: C[C@]12CC[C@H]3[C@@H](CCC4=CC5=C(C[C@]34C)C=NO5)[C@@H]1CC[C@@]2(O)C#C
InChI: InChI=1S/C22H27NO2/c1-4-22(24)10-8-18-16-6-5-15-11-19-14(13-23-25-19)12-20(15,2)17(16)7-9-21(18,22)3/h1,11,13,16-18,24H,5-10,12H2,2-3H3/t16-,17+,18+,20+,21+,22+/m1/s1
Instrument: Q Exactive Orbitrap (Thermo Scientific)
Instrument type: LC-ESI-QFT
Ms type: MS2
Ion mode: POSITIVE
Ionization: ESI
Fragmentation mode: HCD
Collision energy: 30
Resolution: 17500
Column name: Acquity BEH C18 1.7um, 2.1x150mm (Waters)
Retention time: 18.811 min
Base peak: 79.0211
Precursor m/z: 338.2115
Precursor type: [M+H]+
Precursor intensity: 4636510.3125
m/z	relative intensity	assigned
55.0178	2	C3H3O+
55.0542	1	C4H7+
56.0494	11	C3H6N+
67.0542	4	C5H7+
69.0334	1	C4H5O+
69.0698	2	C5H9+
70.0287	46	C3H4NO+
70.0651	38	C4H8N+
78.0344	1	C5H4N+
79.0542	8	C6H7+
80.0495	2	C5H6N+
81.0698	12	C6H9+
82.0651	3	C5H8N+
83.0491	1	C5H7O+
84.0444	29	C4H6NO+
84.0807	1	C5H10N+
91.0543	8	C7H7+
93.0699	15	C7H9+
94.0652	10	C6H8N+
95.0492	1	C6H7O+
95.0855	7	C7H11+
96.0444	12	C5H6NO+
96.0808	2	C6H10N+
97.0648	1	C6H9O+
98.06	3	C5H8NO+
105.0699	21	C8H9+
106.065	7	C7H8N+
107.0491	2	C7H7O+
107.0855	10	C8H11+
108.0444	2	C6H6NO+
108.0808	8	C7H10N+
109.0649	5	C7H9O+
109.101	5	C8H13+
110.06	10	C6H8NO+
111.0804	1	C7H11O+
112.0753	1	C6H10NO+
115.0542	2	C9H7+
117.0698	12	C9H9+
119.0855	21	C9H11+
120.0444	12	C7H6NO+
120.0808	39	C8H10N+
121.0648	22	C8H9O+
121.1012	4	C9H13+
122.06	11	C7H8NO+
122.0964	8	C8H12N+
123.0678	5	C7H9NO+
123.0804	4	C8H11O+
124.0755	7	C7H10NO+
128.0614	1	C10H8+
129.0698	6	C10H9+
131.0855	23	C10H11+
132.0806	2	C9H10N+
133.0647	2	C9H9O+
133.1011	13	C10H13+
134.0599	3	C8H8NO+
134.0965	4	C9H12N+
135.0678	1	C8H9NO+
135.0804	7	C9H11O+
135.1167	3	C10H15+
136.0755	5	C8H10NO+
141.0697	4	C11H9+
142.0777	3	C11H10+
143.0856	18	C11H11+
144.0807	1	C10H10N+
145.0647	3	C10H9O+
145.1011	17	C11H13+
146.0595	1	C9H8NO+
146.0963	3	C10H12N+
147.0803	14	C10H11O+
147.1167	7	C11H15+
148.0756	104	C9H10NO+
149.0835	1	C9H11NO+
149.0961	4	C10H13O+
150.0913	11	C9H12NO+
153.0694	1	C12H9+
154.0772	1	C12H10+
155.0855	15	C12H11+
156.0934	1	C12H12+
157.0647	1	C11H9O+
157.1012	22	C12H13+
158.0963	2	C11H12N+
159.0806	8	C11H11O+
159.1168	12	C12H15+
160.0759	2	C10H10NO+
160.1122	3	C11H14N+
161.0962	8	C11H13O+
161.1325	2	C12H17+
162.0913	8	C10H12NO+
165.0697	1	C13H9+
167.0857	6	C13H11+
168.0932	1	C13H12+
169.1012	17	C13H13+
170.0963	2	C12H12N+
171.0802	3	C12H11O+
171.1168	15	C13H15+
172.1119	2	C12H14N+
173.0961	8	C12H13O+
173.1321	3	C13H17+
174.0913	5	C11H12NO+
174.1277	3	C12H16N+
175.1118	2	C12H15O+
176.1071	3	C11H14NO+
178.0781	1	C14H10+
179.0857	4	C14H11+
181.1013	9	C14H13+
183.0802	2	C13H11O+
183.1167	12	C14H15+
184.1121	2	C13H14N+
185.0963	11	C13H13O+
185.1326	10	C14H17+
186.0912	1	C12H12NO+
186.1275	1	C13H16N+
187.1118	5	C13H15O+
187.148	1	C14H19+
188.1069	2	C12H14NO+
192.0938	1	C15H12+
193.101	7	C15H13+
194.1087	1	C15H14+
195.117	14	C15H15+
196.1251	1	C15H16+
197.0961	3	C14H13O+
197.1323	7	C15H17+
198.1273	1	C14H16N+
199.1118	4	C14H15O+
199.1479	2	C15H19+
200.1068	3	C13H14NO+
200.1429	1	C14H18N+
201.1274	2	C14H17O+
202.1226	3	C13H16NO+
205.1014	5	C16H13+
206.1089	2	C16H14+
207.1169	8	C16H15+
209.0958	2	C15H13O+
209.1324	10	C16H17+
210.1273	1	C15H16N+
211.1117	6	C15H15O+
211.1479	5	C16H19+
213.1277	4	C15H17O+
214.123	1	C14H16NO+
217.1017	1	C17H13+
218.1088	2	C17H14+
219.1167	10	C17H15+
220.1242	2	C17H16+
221.1321	6	C17H17+
222.1272	1	C16H16N+
223.1119	3	C16H15O+
223.1479	5	C17H19+
225.1276	3	C16H17O+
225.1638	9	C17H21+
227.1428	4	C16H19O+
228.1382	3	C15H18NO+
231.1166	2	C18H15+
232.1249	3	C18H16+
233.1328	8	C18H17+
234.1399	2	C18H18+
235.1115	3	C17H15O+
235.148	7	C18H19+
237.1277	4	C17H17O+
237.164	2	C18H21+
239.1431	4	C17H19O+
241.159	2	C17H21O+
242.1901	11	C17H24N+
245.1322	3	C19H17+
246.1401	3	C19H18+
247.1481	4	C19H19+
249.1274	1	C18H17O+
249.1637	5	C19H21+
250.1592	2	C18H20N+
251.1431	4	C18H19O+
253.1588	11	C18H21O+
257.1325	1	C20H17+
259.1482	2	C20H19+
260.1562	2	C20H20+
261.127	2	C19H17O+
261.1636	5	C20H21+
263.1424	2	C19H19O+
263.1797	3	C20H23+
264.1747	1	C19H22N+
265.1582	3	C19H21O+
268.1699	1	C18H22NO+
270.1853	11	C18H24NO+
275.1795	10	C21H23+
281.1901	6	C20H25O+
282.1855	2	C19H24NO+
283.1692	5	C19H23O2+
292.1696	2	C20H22NO+
292.2061	14	C21H26N+
293.1896	13	C21H25O+
294.1851	3	C20H24NO+
295.1698	4	C20H23O2+
295.193	5	C20H25NO+
296.1648	14	C19H22NO2+
296.2009	13	C20H26NO+
303.1735	5	C22H23O+
309.1847	6	C21H25O2+
310.2164	121	C21H28NO+
320.2006	15	C22H26NO+
321.1844	9	C22H25O2+
338.2115	999	C22H28NO2+
