Mass spectrum: Penoxsulam; LC-ESI-QFT; MS2; CE: 90; R=17500; [M+H]+
Name: Penoxsulam
Name: 2-(2,2-difluoroethoxy)-N-(5,8-dimethoxy-[1,2,4]triazolo[1,5-c]pyrimidin-2-yl)-6-(trifluoromethyl)benzenesulfonamide
Formula: C16H14F5N5O5S
Exact mass: 483.0636
SMILES: COC1=CN=C(OC)N2N=C(NS(=O)(=O)C3=C(C=CC=C3OCC(F)F)C(F)(F)F)N=C12
InChI: InChI=1S/C16H14F5N5O5S/c1-29-10-6-22-15(30-2)26-13(10)23-14(24-26)25-32(27,28)12-8(16(19,20)21)4-3-5-9(12)31-7-11(17)18/h3-6,11H,7H2,1-2H3,(H,24,25)
Instrument: Q Exactive Orbitrap (Thermo Scientific)
Instrument type: LC-ESI-QFT
Ms type: MS2
Ion mode: POSITIVE
Ionization: ESI
Fragmentation mode: HCD
Collision energy: 90
Resolution: 17500
Column name: Acquity BEH C18 1.7um, 2.1x150mm (Waters)
Retention time: 15.597 min
Base peak: 79.0211
Precursor m/z: 484.0709
Precursor type: [M+H]+
Precursor intensity: 12590291
m/z	relative intensity	assigned
52.0182	216	C3H2N+
53.0133	4	C2HN2+
53.026	27	C3H3N+
53.0385	6	C4H5+
53.9975	148	C2NO+
54.0338	258	C3H4N+
55.0179	24	C3H3O+
55.0291	76	C2H3N2+
55.0416	22	C3H5N+
56.0131	45	C2H2NO+
56.037	7	C2H4N2+
56.0495	63	C3H6N+
57.021	31	C2H3NO+
57.0321	19	CH3N3+
57.0447	62	C2H5N2+
58.0288	64	C2H4NO+
58.04	70	CH4N3+
59.0478	6	CH5N3+
60.0443	12	C2H6NO+
64.0181	14	C4H2N+
65.0134	44	C3HN2+
65.0197	27	C2H3F2+
65.026	28	C4H3N+
65.0386	5	C5H5+
66.0213	40	C3H2N2+
66.0338	56	C4H4N+
67.029	305	C3H3N2+
67.0416	23	C4H5N+
68.0131	83	C3H2NO+
68.0243	31	C2H2N3+
68.0368	106	C3H4N2+
68.0494	116	C4H6N+
69.0083	61	C2HN2O+
69.0447	513	C3H5N2+
70.0287	943	C3H4NO+
71.0128	20	C3H3O2+
71.0239	15	C2H3N2O+
72.0443	10	C3H6NO+
73.0396	17	C2H5N2O+
74.0964	9	C4H12N+
75.0229	16	C6H3+
79.0291	488	C4H3N2+
80.0131	67	C4H2NO+
80.0368	87	C4H4N2+
81.0321	44	C3H3N3+
81.0448	239	C4H5N2+
82.0163	20	C3H2N2O+
82.0287	58	C4H4NO+
82.04	73	C3H4N3+
82.0526	34	C4H6N2+
83.0002	106	C3HNO2+
83.024	109	C3H3N2O+
83.0604	377	C4H7N2+
84.0192	215	C2H2N3O+
84.0318	24	C3H4N2O+
84.0444	43	C4H6NO+
85.0397	24	C3H5N2O+
85.051	18	C2H5N4+
86.0237	14	C3H4NO2+
88.0393	85	C3H6NO2+
90.0338	16	C6H4N+
91.029	6	C5H3N2+
91.0417	11	C6H5N+
92.0369	62	C5H4N2+
93.0085	6	C4HN2O+
93.0448	114	C5H5N2+
94.0287	16	C5H4NO+
94.9951	21	C5H3S+
95.024	155	C4H3N2O+
95.0477	61	C4H5N3+
95.0604	104	C5H7N2+
96.0319	21	C4H4N2O+
96.0444	17	C5H6NO+
96.0556	167	C4H6N3+
97.0397	646	C4H5N2O+
98.0236	28	C4H4NO2+
98.0474	8	C4H6N2O+
99.0666	26	F4H9N+
101.0197	128	C5H3F2+
102.0274	4	F3H3N3+
105.0333	7	C2H4FN3O+
105.0448	15	C6H5N2+
106.04	555	C5H4N3+
107.024	351	C5H3N2O+
108.043	999	C4H4N4+
109.0271	414	CH5F4O+
109.0396	490	C5H5N2O+
109.0508	329	C4H5N4+
110.011	17	C4H2N2O2+
110.0474	35	C5H6N2O+
110.0587	14	C4H6N4+
111.0188	28	C4H3N2O2+
111.0553	443	C5H7N2O+
112.0267	49	C4H4N2O2+
112.0505	37	C4H6N3O+
113.0343	11	C4H5N2O2+
115.0614	206	C3H7N4O+
116.0454	9	C3H6N3O2+
120.0443	7	C2H5FN4O+
120.0555	8	C6H6N3+
121.0321	10	C7H4FN+
121.0398	19	C6H5N2O+
121.0508	56	C5H5N4+
122.0349	95	C5H4N3O+
122.0585	15	CH11FO5+
122.9901	36	F3H2O4+
123.0189	5	C5H3N2O2+
123.0305	5	CH5F4NO+
123.0354	7	C6H4FN2+
124.0268	300	C5H4N2O2+
124.0506	501	C2H8F4O+
124.0616	105	FH11NO5+
125.0346	202	C5H5N2O2+
125.0457	66	C4H5N4O+
125.0584	59	C5H7N3O+
126.0661	23	C5H8N3O+
127.0357	40	C7H5F2+
127.0501	22	C5H7N2O2+
128.0453	5	C4H6N3O2+
129.0405	85	C3H5N4O2+
129.077	10	C4H9N4O+
130.0401	28	C4H6F4+
132.0182	88	C6H3F3+
134.0346	8	C6H4N3O+
134.046	65	CH9FNO5+
135.0665	78	C6H7N4+
136.0618	561	C2H8F4N2+
137.0219	15	C5H3N3O2+
137.0345	11	C6H5N2O2+
137.0458	23	C5H5N4O+
138.0663	8	C3H10F4O+
139.0502	503	C6H7N2O2+
140.0454	61	C5H6N3O2+
141.0147	10	C7H3F2O+
142.0372	62	C5H6N2O3+
143.0461	7	F3H10N2OS+
143.0563	110	C4H7N4O2+
144.9916	12	CH2F3N3S+
145.0261	22	C7H4F3+
145.0396	18	F5H6N2O+
146.0461	18	C6H4N5+
147.0353	15	C8H4FN2+
148.0502	4	C7H6N3O+
148.0617	28	C6H6N5+
149.0452	19	F3H12O3S+
150.0352	8	C8H5FNO+
150.041	13	C5H4N5O+
150.0468	4	CH11FN2O3S+
150.0777	4	C3H10F4N2+
151.0167	36	C6H3F4+
151.0612	25	F3H14O3S+
152.0455	352	C6H6N3O2+
152.0562	95	C5H6N5O+
153.0532	37	C6H7N3O2+
153.9941	7	C4H2N4OS+
154.0399	9	C9H4N3+
154.061	37	C6H8N3O2+
155.0325	163	C8H8FS+
160.0129	12	C2H2F4N3O+
161.0276	5	C3H10FO4S+
164.0567	151	C6H6N5O+
165.0529	6	C7H7N3O2+
165.0644	18	C6H7N5O+
166.0724	229	C6H8N5O+
171.0362	5	C2H4F3N5O+
175.0302	6	C9H4FN2O+
176.0566	31	C7H6N5O+
177.0323	9	C8H5F4+
177.0648	6	C4H9F4N2O+
179.0251	9	C8H4FN2O2+
180.0515	68	C6H6N5O2+
181.0413	6	C2H12FNO5S+
187.0502	12	C10H7N2O2+
190.0411	7	C9H5FN3O+
194.0673	114	C4H10F4N2O2+
195.0753	7	C4H11F4N2O2+
203.0364	4	C9H4FN4O+
215.0567	8	C7H9F4NO2+
219.0361	5	C8H10FNO3S+
227.0594	13	F5H12N4O2S+
240.0184	10	C7H6N5O3S+
