Mass spectrum: PharmaGSID_48505; LC-ESI-QFT; MS2; CE: 30; R=17500; [M+H]+
Name: PharmaGSID_48505
Name: 5-(2-chlorophenyl)-3-methyl-7-nitro-1,2-dihydropyrazolo[3,4-b][1,4]benzodiazepine
Formula: C17H12ClN5O2
Exact mass: 353.0680
SMILES: CC1=C2N=C(C3=CC=CC=C3Cl)C3=C(NC2=NN1)C=CC(=C3)[N+]([O-])=O
InChI: InChI=1S/C17H12ClN5O2/c1-9-15-17(22-21-9)19-14-7-6-10(23(24)25)8-12(14)16(20-15)11-4-2-3-5-13(11)18/h2-8H,1H3,(H2,19,21,22)
Instrument: Q Exactive Orbitrap (Thermo Scientific)
Instrument type: LC-ESI-QFT
Ms type: MS2
Ion mode: POSITIVE
Ionization: ESI
Fragmentation mode: HCD
Collision energy: 30
Resolution: 17500
Column name: Acquity BEH C18 1.7um, 2.1x150mm (Waters)
Retention time: 17.626 min
Base peak: 79.0212
Precursor m/z: 354.0752
Precursor type: [M+H]+
Precursor intensity: 5216926.25
m/z	relative intensity	assigned
165.0711	1	C13H9+
184.0744	1	C10H8N4+
195.0663	2	C11H7N4+
196.0743	10	C11H8N4+
225.0644	1	C11H7N5O+
228.0642	6	C8H11ClN5O+
242.0673	13	C11H8N5O2+
261.1131	1	C16H13N4+
273.1135	2	C17H13N4+
278.0781	1	C15H10N4O2+
289.1086	4	C17H13N4O+
307.0746	10	C17H12ClN4+
308.0823	36	C17H13ClN4+
311.0697	11	C16H12ClN4O+
312.0786	1	C16H13ClN4O+
319.1063	5	C17H13N5O2+
323.0695	2	C17H12ClN4O+
327.0645	10	C16H12ClN4O2+
337.0728	1	C17H12ClN5O+
340.0724	79	C17H13ClN4O2+
354.0753	999	C17H13ClN5O2+
