Mass spectrum: Surinabant; LC-ESI-QFT; MS2; CE: 60; R=17500; [M+H]+
Name: Surinabant
Name: 5-(4-bromophenyl)-1-(2,4-dichlorophenyl)-4-ethyl-N-piperidin-1-ylpyrazole-3-carboxamide
Formula: C23H23BrCl2N4O
Exact mass: 520.0432
SMILES: CCC1=C(N(N=C1C(=O)NN1CCCCC1)C1=CC=C(Cl)C=C1Cl)C1=CC=C(Br)C=C1
InChI: InChI=1S/C23H23BrCl2N4O/c1-2-18-21(23(31)28-29-12-4-3-5-13-29)27-30(20-11-10-17(25)14-19(20)26)22(18)15-6-8-16(24)9-7-15/h6-11,14H,2-5,12-13H2,1H3,(H,28,31)
Instrument: Q Exactive Orbitrap (Thermo Scientific)
Instrument type: LC-ESI-QFT
Ms type: MS2
Ion mode: POSITIVE
Ionization: ESI
Fragmentation mode: HCD
Collision energy: 60
Resolution: 17500
Column name: Acquity BEH C18 1.7um, 2.1x150mm (Waters)
Retention time: 20.203 min
Base peak: 79.0211
Precursor m/z: 521.0505
Precursor type: [M+H]+
Precursor intensity: 13392386.25
m/z	relative intensity	assigned
52.0308	1	C4H4+
53.0386	8	C4H5+
54.0338	6	C3H4N+
55.0543	65	C4H7+
56.0495	61	C3H6N+
57.0447	1	C2H5N2+
66.0337	1	C4H4N+
67.0417	2	C4H5N+
67.0542	4	C5H7+
68.0496	2	C4H6N+
69.0573	1	C4H7N+
70.0651	4	C4H8N+
75.0229	2	C6H3+
79.0179	1	C5H3O+
80.0256	2	C5H4O+
81.0332	1	C5H5O+
82.0651	25	C5H8N+
84.0808	312	C5H10N+
84.9839	8	C4H2Cl+
85.0885	7	C5H11N+
86.0964	2	C5H12N+
86.9633	2	C3ClO+
86.9995	2	C4H4Cl+
94.0413	16	C6H6O+
98.9996	3	C5H4Cl+
99.0917	67	C5H11N2+
100.0994	5	C5H12N2+
102.0464	5	C8H6+
103.0542	4	C8H7+
104.0494	2	C7H6N+
104.062	11	C8H8+
108.9842	4	C6H2Cl+
115.0543	32	C9H7+
116.0621	69	C9H8+
117.0575	4	C8H7N+
118.0653	1	C8H8N+
120.9608	2	C4H3Cl2+
126.0105	3	C6H5ClN+
126.0466	4	C10H6+
126.9944	4	C6H4ClO+
127.0416	5	C9H5N+
127.0544	2	C10H7+
128.0023	6	C6H5ClO+
128.0499	1	C9H6N+
128.062	26	C10H8+
129.0575	4	C9H7N+
129.0698	2	C10H9+
130.0649	8	C9H8N+
130.949	8	C4H4Br+
132.9607	23	C5H3Cl2+
140.0494	12	C10H6N+
141.0572	10	C10H7N+
141.0699	12	C11H9+
142.0054	1	C6H5ClNO+
142.0651	15	C10H8N+
143.073	140	C10H9N+
144.0568	2	C10H8O+
144.9603	8	C6H3Cl2+
145.0649	6	C10H9O+
145.9685	2	C6H4Cl2+
146.0601	3	C9H8NO+
149.0153	13	C9H6Cl+
150.0229	3	C9H7Cl+
151.0182	4	C8H6ClN+
152.0143	1	C7H5ClN2+
152.0263	1	C8H7ClN+
153.0339	4	C8H8ClN+
153.0573	84	C11H7N+
154.0651	214	C11H8N+
154.9491	6	C6H4Br+
155.0603	14	C10H7N2+
157.0523	2	C10H7NO+
158.0598	6	C10H8NO+
158.9762	3	C7H5Cl2+
159.9716	229	C6H4Cl2N+
160.9794	86	C6H5Cl2N+
162.9711	9	C6H5Cl2O+
164.0013	2	C7H3ClN3+
164.0261	3	C9H7ClN+
166.0524	2	C11H6N2+
167.0603	2	C11H7N2+
168.0683	9	C11H8N2+
168.9648	16	C7H6Br+
169.065	12	C12H9O+
169.0759	31	C11H9N2+
170.0601	4	C11H8NO+
171.0676	4	C11H9NO+
171.9715	47	C7H4Cl2N+
172.9595	36	C6H6BrO+
172.9669	88	C6H3Cl2N2+
174.0105	13	C10H5ClN+
175.0184	15	C10H6ClN+
176.0263	2	C10H7ClN+
177.0339	38	C10H8ClN+
180.965	11	C8H6Br+
181.0523	25	C12H7NO+
181.96	20	C7H5BrN+
182.0602	19	C12H8NO+
182.9553	99	C6H4BrN2+
184.9796	3	C8H5Cl2N+
185.047	1	C8H10ClN2O+
185.0712	2	C11H9N2O+
185.9875	2	C8H6Cl2N+
186.9824	12	C7H5Cl2N2+
188.0029	15	C8H8Cl2N+
192.9646	4	C9H6Br+
193.9603	8	C8H5BrN+
195.9717	10	C9H4Cl2N+
197.9871	29	C9H6Cl2N+
201.0216	3	C11H6ClN2+
202.0292	16	C11H7ClN2+
203.0369	6	C11H8ClN2+
204.021	3	C11H7ClNO+
204.9649	3	C10H6Br+
205.9605	2	C9H5BrN+
205.9723	2	C10H7Br+
206.9803	3	C10H8Br+
207.9758	14	C9H7BrN+
209.9873	6	C10H6Cl2N+
211.0186	1	C13H6ClN+
213.0421	5	C6H13Cl2N3O+
216.0806	11	C16H10N+
217.0886	144	C16H11N+
221.991	10	C10H9BrN+
225.0465	9	C15H10Cl+
227.0731	3	C17H9N+
227.9976	9	C10H8Cl2NO+
228.0686	3	C16H8N2+
229.0761	17	C16H9N2+
230.0365	2	C13H9ClNO+
231.9754	19	C11H7BrN+
232.9716	2	C10H6BrN2+
236.9981	44	C11H7Cl2N2+
238.0418	10	C15H9ClN+
241.0762	1	C17H9N2+
242.0837	26	C17H10N2+
243.0918	40	C17H11N2+
244.0996	60	C17H12N2+
248.003	28	C13H8Cl2N+
250.0282	2	C18H4NO+
251.0377	2	C15H8ClN2+
251.0497	47	C16H10ClN+
252.0574	263	C16H11ClN+
261.0106	13	C14H9Cl2N+
261.0336	2	C20H5O+
262.0059	2	C13H8Cl2N2+
262.0429	8	C8H15BrN4O+
263.0371	33	C16H8ClN2+
264.0444	70	C19H6NO+
264.0579	12	C8H17BrN4O+
264.9928	4	C12H7Cl2N2O+
265.0519	4	C19H7NO+
265.0653	21	C17H12ClN+
272.0028	16	C15H8Cl2N+
274.0187	7	C15H10Cl2N+
276.0448	3	C17H9ClN2+
277.0527	106	C17H10ClN2+
278.0606	307	C17H11ClN2+
279.0684	485	C17H12ClN2+
286.005	7	C18H5ClNO+
286.02	24	C6H21BrCl2N2O+
287.0266	155	C16H11Cl2N+
289.0532	15	C18H10ClN2+
290.9438	2	C16H4BrO+
291.0312	2	C17H8ClN2O+
291.9526	11	C13H8BrClN+
292.0398	55	C17H9ClN2O+
294.9991	2	C16H10BrN+
298.0208	4	C7H21BrCl2N2O+
299.0138	442	C16H9Cl2N2+
304.9601	15	C14H9BrClN+
305.0478	3	C18H10ClN2O+
306.0553	3	C18H11ClN2O+
306.9858	2	C16H8BrN2+
307.0632	27	C18H12ClN2O+
310.0501	2	C14H14Cl2N3O+
311.0144	1	C17H9Cl2N2+
312.0214	23	C17H10Cl2N2+
313.0294	759	C17H11Cl2N2+
314.0372	17	C17H12Cl2N2+
315.9524	3	C15H8BrClN+
321.0019	5	C17H10BrN2+
322.0102	10	C17H11BrN2+
323.0166	17	C8H20BrCl2N3O+
324.022	3	C18H10Cl2N2+
325.9134	999	C13H7BrCl2N+
327.0088	38	C17H9Cl2N2O+
329.9552	10	C15H8BrClN2+
330.9768	11	C16H11BrClN+
341.0243	43	C18H11Cl2N2O+
342.0322	6	C18H12Cl2N2O+
342.9634	143	C16H9BrClN2+
346.0265	4	C23H7ClN2+
351.9292	15	C15H9BrCl2N+
355.9712	3	C17H10BrClN2+
356.979	99	C17H11BrClN2+
357.9871	4	C17H12BrClN2+
365.9461	9	C16H11BrCl2N+
366.9626	8	C21H6BrNO+
370.9587	10	C14H12BrCl2N3+
375.9294	11	C17H9BrCl2N+
376.9243	61	C16H8BrCl2N2+
377.9322	18	C16H9BrCl2N2+
384.9746	4	C15H14BrCl2N3+
390.9407	12	C17H10BrCl2N2+
392.9558	34	C17H12BrCl2N2+
420.9508	24	C18H12BrCl2N2O+
438.9613	67	C23H14BrCl2+
