Mass spectrum: PharmaGSID_48507; LC-ESI-QFT; MS2; CE: 60; R=17500; [M+H]+
Name: PharmaGSID_48507
Name: 5-(2,4-Difluorophenoxy)-2-[(2-hydroxy-2-methylpropyl)amino]-8-methylpyrido[2,3-d]pyrimidin-7(8H)-one
Formula: C18H18F2N4O3
Exact mass: 376.1347
SMILES: CN1C(=O)C=C(OC2=C(F)C=C(F)C=C2)C2=C1N=C(NCC(C)(C)O)N=C2
InChI: InChI=1S/C18H18F2N4O3/c1-18(2,26)9-22-17-21-8-11-14(7-15(25)24(3)16(11)23-17)27-13-5-4-10(19)6-12(13)20/h4-8,26H,9H2,1-3H3,(H,21,22,23)
Instrument: Q Exactive Orbitrap (Thermo Scientific)
Instrument type: LC-ESI-QFT
Ms type: MS2
Ion mode: POSITIVE
Ionization: ESI
Fragmentation mode: HCD
Collision energy: 60
Resolution: 17500
Column name: Acquity BEH C18 1.7um, 2.1x150mm (Waters)
Retention time: 16.626 min
Base peak: 79.0211
Precursor m/z: 377.142
Precursor type: [M+H]+
Precursor intensity: 22843670.75
m/z	relative intensity	assigned
53.0022	4	C3HO+
53.0386	20	C4H5+
55.0542	392	C4H7+
56.0494	2	C3H6N+
59.0491	1	C3H7O+
66.0338	1	C4H4N+
70.0649	2	C4H8N+
79.0291	1	C4H3N2+
80.0369	3	C4H4N2+
94.0523	1	C5H6N2+
95.0477	29	C4H5N3+
95.0603	4	C5H7N2+
96.0369	3	C6H5F+
96.0555	1	C4H6N3+
105.0447	2	C6H5N2+
106.0396	1	C5H4N3+
107.0477	4	C5H5N3+
108.0554	2	C5H6N3+
109.0635	6	C5H7N3+
119.0479	1	C6H5N3+
120.0557	3	C6H6N3+
122.0347	2	C5H4N3O+
123.0662	2	C5H7N4+
124.0743	4	C5H8N4+
125.0398	10	C7H6FO+
127.0352	56	C7H5F2+
127.0539	7	C5H6FN3+
131.0478	2	C7H5N3+
132.0557	2	C7H6N3+
133.0632	1	C7H7N3+
134.0587	16	C6H6N4+
134.0713	1	C7H8N3+
135.0664	39	C6H7N4+
136.0433	3	C7H5FN2+
136.0505	8	C6H6N3O+
137.051	13	C7H6FN2+
141.0145	313	C7H3F2O+
146.0587	10	C7H6N4+
146.0714	7	C8H8N3+
147.0664	85	C7H7N4+
148.0506	5	C7H6N3O+
148.0743	28	C7H8N4+
148.0868	2	C8H10N3+
149.0457	25	C6H5N4O+
151.0538	2	C7H6FN3+
152.0492	27	C6H5FN4+
153.0329	1	C6H4FN3O+
155.0486	9	C6H6FN3O+
159.0664	7	C8H7N4+
160.0747	6	C8H8N4+
160.0866	10	C9H10N3+
161.0946	3	C9H11N3+
162.0537	3	C7H6N4O+
162.0662	5	C8H8N3O+
162.1025	1	C9H12N3+
163.0613	644	C7H7N4O+
164.0692	29	C7H8N4O+
166.065	32	C7H7FN4+
167.0366	1	C11H5NO+
170.0713	3	C10H8N3+
172.0461	1	C7H6F2N2O+
172.0869	3	C10H10N3+
173.0823	4	C9H9N4+
174.0895	3	C9H10N4+
175.0613	12	C8H7N4O+
175.0975	1	C9H11N4+
176.0691	23	C8H8N4O+
176.0816	7	C9H10N3O+
177.0405	5	C7H5N4O2+
177.0569	3	C8H6FN4+
177.077	4	C8H9N4O+
177.0897	4	C9H11N3O+
178.0649	59	C8H7FN4+
178.1212	5	C9H14N4+
180.0441	295	C7H5FN4O+
181.052	40	C7H6FN4O+
182.0598	5	C7H7FN4O+
184.0874	6	C11H10N3+
187.0612	1	C9H7N4O+
187.0976	11	C10H11N4+
189.0772	8	C9H9N4O+
189.1135	27	C10H13N4+
190.0976	6	C10H12N3O+
191.0562	122	C8H7N4O2+
192.0642	5	C8H8N4O2+
195.0316	2	C12H5NO2+
196.0395	1	C12H6NO2+
200.0692	3	C10H8N4O+
200.0818	11	C11H10N3O+
201.077	10	C10H9N4O+
201.0894	5	C11H11N3O+
201.1134	40	C11H13N4+
202.0848	29	C10H10N4O+
202.1212	9	C11H14N4+
203.0929	3	C10H11N4O+
205.0723	1	C9H9N4O2+
210.0548	15	C8H7FN4O2+
213.1133	52	C12H13N4+
214.0846	3	C11H10N4O+
215.0926	260	C11H11N4O+
217.1083	42	C11H13N4O+
218.1163	16	C11H14N4O+
219.0359	2	C11H5F2N2O+
229.0885	8	C12H10FN4+
229.108	15	C12H13N4O+
231.087	6	C11H11N4O2+
247.0786	7	C12H9F2N4+
255.0677	6	C13H8FN4O+
256.0755	5	C13H9FN4O+
257.0832	4	C13H10FN4O+
259.0788	4	C13H9F2N4+
260.086	8	C13H10F2N4+
271.0626	4	C13H8FN4O2+
273.0582	23	C13H7F2N4O+
275.0737	60	C13H9F2N4O+
276.0577	5	C13H8F2N3O2+
276.0811	14	C16H9FN4+
277.0891	35	C13H11F2N4O+
283.0626	4	C14H8FN4O2+
284.0702	24	C14H9FN4O2+
285.0781	349	C14H10FN4O2+
287.0738	122	C14H9F2N4O+
289.0527	13	C13H7F2N4O2+
289.09	11	C14H11F2N4O+
290.0589	17	C16H7FN4O+
290.11	2	C15H14F2N3O+
301.09	3	C15H11F2N4O+
303.0687	999	C14H9F2N4O2+
304.0764	421	C14H10F2N4O2+
305.0843	390	C14H11F2N4O2+
306.0685	9	C14H10F2N3O3+
314.1105	4	C17H14F2N3O+
315.0694	1	C15H9F2N4O2+
316.0591	4	C17H8N4O3+
316.0898	3	C16H12F2N3O2+
317.0843	170	C15H11F2N4O2+
318.1042	10	C16H14F2N3O2+
326.0737	2	C17H10F2N3O2+
327.0808	12	C17H11F2N3O2+
329.0842	98	C16H11F2N4O2+
331.1365	5	C17H17F2N4O+
342.105	13	C18H14F2N3O2+
343.1001	22	C17H13F2N4O2+
359.1312	86	C18H17F2N4O2+
