Mass spectrum: Hydramethylnon; LC-ESI-QFT; MS2; CE: 45; R=17500; [M+H]+
Name: Hydramethylnon
Name: N-[[(1E,4E)-1,5-bis[4-(trifluoromethyl)phenyl]penta-1,4-dien-3-ylidene]amino]-5,5-dimethyl-4,6-dihydro-1H-pyrimidin-2-amine
Formula: C25H24F6N4
Exact mass: 494.1905
SMILES: CC1(C)CNC(NC1)=NN=C(\C=C\C1=CC=C(C=C1)C(F)(F)F)/C=C/C1=CC=C(C=C1)C(F)(F)F
InChI: InChI=1S/C25H24F6N4/c1-23(2)15-32-22(33-16-23)35-34-21(13-7-17-3-9-19(10-4-17)24(26,27)28)14-8-18-5-11-20(12-6-18)25(29,30)31/h3-14H,15-16H2,1-2H3,(H2,32,33,35)/b13-7+,14-8+
Instrument: Q Exactive Orbitrap (Thermo Scientific)
Instrument type: LC-ESI-QFT
Ms type: MS2
Ion mode: POSITIVE
Ionization: ESI
Fragmentation mode: HCD
Collision energy: 45
Resolution: 17500
Column name: Acquity BEH C18 1.7um, 2.1x150mm (Waters)
Retention time: 17.750 min
Base peak: 79.0211
Precursor m/z: 495.1978
Precursor type: [M+H]+
Precursor intensity: 41741041
m/z	relative intensity	assigned
53.0386	1	C4H5+
55.0291	20	C2H3N2+
55.0542	19	C4H7+
56.0495	22	C3H6N+
56.0621	3	C4H8+
57.0447	29	C2H5N2+
57.0699	3	C4H9+
58.04	8	CH4N3+
58.0651	36	C3H8N+
60.0556	2	CH6N3+
67.0542	3	C5H7+
68.0494	8	C4H6N+
69.0447	27	C3H5N2+
69.0698	159	C5H9+
70.0399	7	C2H4N3+
70.065	143	C4H8N+
71.0603	3	C3H7N2+
71.0729	51	C4H9N+
72.0555	3	C2H6N3+
72.0807	41	C4H10N+
80.0494	8	C5H6N+
81.0448	1	C4H5N2+
81.0697	1	CH8FN3+
82.0524	3	C4H6N2+
82.0651	59	C5H8N+
83.0477	12	C3H5N3+
83.0603	7	C4H7N2+
83.073	5	C5H9N+
84.0556	18	C3H6N3+
84.0807	28	C5H10N+
85.0509	1	C2H5N4+
85.0759	4	C4H9N2+
86.0964	148	C5H12N+
94.0651	9	C6H8N+
95.0604	7	C5H7N2+
96.0555	3	C4H6N3+
96.0679	1	C5H8N2+
96.0807	11	C6H10N+
97.076	183	C5H9N2+
98.0838	1	C5H10N2+
99.0916	15	C5H11N2+
102.0463	10	C8H6+
107.0604	1	C6H7N2+
109.0448	1	C7H6F+
109.076	20	C6H9N2+
110.0839	1	C6H10N2+
111.0791	2	C5H9N3+
111.0916	25	C6H11N2+
112.0869	161	C5H10N3+
112.0993	33	C6H12N2+
113.1072	123	C6H13N2+
126.1025	254	C6H12N3+
127.0865	35	CH11F4N2+
127.1103	82	C6H13N3+
128.1181	306	C6H14N3+
142.1211	11	C6H14N4+
149.0397	1	C12H5+
151.0353	147	C9H5F2+
153.0517	1	C9H7F2+
153.1134	21	C7H13N4+
154.065	1	C3H9F5N+
156.0443	3	C5H6F4N+
156.068	3	C2H9F5N2+
159.0416	130	C8H6F3+
163.1229	20	C2H16F5N2+
165.0508	1	C5H6F3N3+
166.0464	1	C9H6F2N+
169.046	16	C12H6F+
172.0365	2	C3H4F4N4+
177.051	6	C11H7F2+
183.0416	72	C10H6F3+
183.061	6	C13H8F+
185.0448	1	C9H6F3N+
185.0569	3	C5H7F4N3+
186.0525	6	C9H7F3N+
187.0668	1	C11H8FN2+
188.0681	2	C9H9F3N+
190.0469	4	C11H6F2N+
190.0661	4	C14H8N+
191.0415	1	C10H5F2N2+
193.058	1	C10H7F2N2+
197.0569	2	C6H7F4N3+
198.0524	35	C5H6F4N4+
199.0475	2	C9H6F3N2+
200.0684	5	C10H9F3N+
203.0682	1	C13H9F2+
209.057	12	C7H7F4N3+
210.0526	7	C11H7F3N+
211.06	1	C6H7F4N4+
212.0563	1	C10H7F3N2+
213.0632	76	C10H8F3N2+
214.0472	16	C13H6F2N+
216.0636	1	C13H8F2N+
218.0527	8	C16H7F+
219.0736	1	C12H9F2N2+
222.0523	8	C7H6F4N4+
223.0476	11	C11H6F3N2+
225.0633	95	C11H8F3N2+
226.0834	1	C7H10F4N4+
226.1466	10	C15H18N2+
235.0601	2	C8H7F4N4+
235.0789	3	C11H9F2N4+
238.0585	277	C11H7F3N3+
239.0787	9	C12H10F3N2+
239.1542	3	C16H19N2+
240.0741	2	C11H9F3N3+
242.1147	1	C8H14F4N4+
243.0879	1	C15H11F2N+
247.0787	19	C12H9F2N4+
251.0792	1	C13H10F3N2+
252.0738	4	C12H9F3N3+
252.0992	2	C9H12F4N4+
253.1447	21	C7H18F5N4+
255.085	17	C11H10F3N4+
259.0792	2	C18H10FN+
267.085	107	C12H10F3N4+
270.1334	13	C14H17F3N2+
271.0731	1	C17H10F3+
272.0807	4	C17H11F3+
275.1351	10	C16H17F2N2+
279.0854	5	C18H11F2N+
281.1258	28	C15H16F3N2+
283.0732	1	C18H10F3+
284.1362	6	C14H17F3N3+
286.0962	6	C13H12F4N3+
293.1254	1	C16H16F3N2+
294.1338	4	C16H17F3N2+
295.1415	31	C16H18F3N2+
298.0837	26	C18H11F3N+
298.1526	12	C15H19F3N3+
299.0915	18	C13H11F4N4+
301.0629	7	C13H8F5N3+
303.1414	7	C16H17F2N4+
307.1422	10	C17H18F3N2+
308.0682	3	C19H9F3N+
315.0799	6	C19H11F4+
323.1476	999	C16H18F3N4+
326.0783	3	C22H10F2N+
334.1523	43	C18H19F3N3+
335.1464	4	C17H18F3N4+
336.1548	2	C17H19F3N4+
340.0678	4	C21H8F2N3+
344.0897	4	C25H11FN+
348.0804	24	C14H10F6N4+
353.0629	16	C21H7F2N4+
363.0907	1	C19H12F5N2+
366.0707	11	C22H8F2N4+
368.0867	358	C22H10F2N4+
467.1917	3	C25H25F6N2+
478.1717	3	C25H22F6N3+
495.1978	169	C25H25F6N4+
