Mass spectrum: Propane-1,3-diyl bis(4-aminobenzoate); LC-ESI-QFT; MS2; CE: 15; R=17500; [M+H]+
Name: Propane-1,3-diyl bis(4-aminobenzoate)
Name: 3-(4-aminobenzoyl)oxypropyl 4-aminobenzoate
Formula: C17H18N2O4
Exact mass: 314.1267
SMILES: NC1=CC=C(C=C1)C(=O)OCCCOC(=O)C1=CC=C(N)C=C1
InChI: InChI=1S/C17H18N2O4/c18-14-6-2-12(3-7-14)16(20)22-10-1-11-23-17(21)13-4-8-15(19)9-5-13/h2-9H,1,10-11,18-19H2
Instrument: Q Exactive Orbitrap (Thermo Scientific)
Instrument type: LC-ESI-QFT
Ms type: MS2
Ion mode: POSITIVE
Ionization: ESI
Fragmentation mode: HCD
Collision energy: 15
Resolution: 17500
Column name: Acquity BEH C18 1.7um, 2.1x150mm (Waters)
Retention time: 15.029 min
Base peak: 79.0211
Precursor m/z: 315.1339
Precursor type: [M+H]+
Precursor intensity: 1548737.125
m/z	relative intensity	assigned
120.0446	997	C7H6NO+
178.0863	999	C10H12NO2+
269.1047	260	C16H15NO3+
283.0715	248	C15H11N2O4+
298.0938	329	C16H14N2O4+
