Mass spectrum: Bezafibrate; LC-ESI-QFT; MS2; CE: 90; R=17500; [M+H]+
Name: Bezafibrate
Name: 2-[4-[2-[(4-chlorobenzoyl)amino]ethyl]phenoxy]-2-methylpropanoic acid
Formula: C19H20ClNO4
Exact mass: 361.1081
SMILES: CC(C)(OC1=CC=C(CCNC(=O)C2=CC=C(Cl)C=C2)C=C1)C(O)=O
InChI: InChI=1S/C19H20ClNO4/c1-19(2,18(23)24)25-16-9-3-13(4-10-16)11-12-21-17(22)14-5-7-15(20)8-6-14/h3-10H,11-12H2,1-2H3,(H,21,22)(H,23,24)
Instrument: Q Exactive Orbitrap (Thermo Scientific)
Instrument type: LC-ESI-QFT
Ms type: MS2
Ion mode: POSITIVE
Ionization: ESI
Fragmentation mode: HCD
Collision energy: 90
Resolution: 17500
Column name: Acquity BEH C18 1.7um, 2.1x150mm (Waters)
Retention time: 17.333 min
Base peak: 79.0211
Precursor m/z: 362.1154
Precursor type: [M+H]+
Precursor intensity: 12735594
m/z	relative intensity	assigned
50.0152	7	C4H2+
51.0229	7	C4H3+
53.0022	21	C3HO+
53.0386	164	C4H5+
53.9975	1	C2NO+
55.0179	30	C3H3O+
59.0492	105	C3H7O+
65.0385	31	C5H5+
67.0541	2	C5H7+
69.0334	7	C4H5O+
74.015	15	C6H2+
75.0229	173	C6H3+
77.0385	59	C6H5+
78.0464	6	C6H6+
79.0178	22	C5H3O+
79.0542	14	C6H7+
81.0335	21	C5H5O+
81.0699	2	C6H9+
84.9839	7	C4H2Cl+
86.9996	163	C4H4Cl+
87.0441	9	C4H7O2+
88.9788	2	C3H2ClO+
91.0542	645	C7H7+
92.0621	4	C7H8+
93.0699	414	C7H9+
94.0414	42	C6H6O+
95.0492	514	C6H7O+
98.0363	3	C5H6O2+
102.0464	22	C8H6+
103.0542	739	C8H7+
105.0699	24	C8H9+
107.049	13	C7H7O+
108.0203	1	C6H4O2+
109.0647	8	C7H9O+
110.9996	90	C6H4Cl+
111.044	57	C6H7O2+
114.9945	11	C5H4ClO+
115.0543	5	C9H7+
117.07	5	C9H9+
119.0491	24	C8H7O+
119.0854	4	C9H11+
120.057	33	C8H8O+
121.0648	545	C8H9O+
125.0598	5	C7H9O2+
128.0022	9	C6H5ClO+
128.0621	13	C10H8+
129.0101	500	C6H6ClO+
131.0491	7	C9H7O+
131.0851	2	C10H11+
132.0569	4	C9H8O+
133.0648	6	C9H9O+
138.9949	697	C7H4ClO+
139.0055	999	C9HNO+
140.0028	8	C7H5ClO+
145.065	3	C10H9O+
146.0728	1	C10H10O+
