Mass spectrum: PharmaGSID_48506; LC-ESI-QFT; MS2; CE: 60; R=17500; [M+H]+
Name: PharmaGSID_48506
Name: (2R)-2-(3-chloro-4-methylsulfonylphenyl)-3-cyclopentyl-N-pyrazin-2-ylpropanamide
Formula: C19H22ClN3O3S
Exact mass: 407.1070
SMILES: CS(=O)(=O)C1=CC=C(C=C1Cl)[C@@H](CC1CCCC1)C(=O)NC1=NC=CN=C1
InChI: InChI=1S/C19H22ClN3O3S/c1-27(25,26)17-7-6-14(11-16(17)20)15(10-13-4-2-3-5-13)19(24)23-18-12-21-8-9-22-18/h6-9,11-13,15H,2-5,10H2,1H3,(H,22,23,24)/t15-/m1/s1
Instrument: Q Exactive Orbitrap (Thermo Scientific)
Instrument type: LC-ESI-QFT
Ms type: MS2
Ion mode: POSITIVE
Ionization: ESI
Fragmentation mode: HCD
Collision energy: 60
Resolution: 17500
Column name: Acquity BEH C18 1.7um, 2.1x150mm (Waters)
Retention time: 17.918 min
Base peak: 79.0211
Precursor m/z: 408.1143
Precursor type: [M+H]+
Precursor intensity: 7521444.21875
m/z	relative intensity	assigned
52.0182	12	C3H2N+
53.0022	1	C3HO+
55.0542	7	C4H7+
62.9899	1	CH3OS+
65.0386	1	C5H5+
67.0541	7	C5H7+
69.0447	17	C3H5N2+
69.0698	40	C5H9+
78.9848	42	CH3O2S+
79.0289	2	C4H3N2+
79.0541	5	C6H7+
80.062	1	C6H8+
81.0698	28	C6H9+
91.0541	8	C7H7+
93.0698	1	C7H9+
95.0486	1	C6H7O+
95.0855	5	C7H11+
96.0556	999	C4H6N3+
97.0396	114	C4H5N2O+
103.0544	3	C8H7+
105.0334	1	C7H5O+
105.0697	1	C8H9+
111.0553	2	C5H7N2O+
115.0542	17	C9H7+
117.0699	6	C9H9+
119.0491	1	C8H7O+
123.0427	1	C5H5N3O+
125.0151	7	C7H6Cl+
127.0309	1	C7H8Cl+
128.062	19	C10H8+
129.0698	90	C10H9+
137.015	1	C8H6Cl+
138.023	50	C8H7Cl+
139.0309	6	C8H8Cl+
141.0101	134	C7H6ClO+
143.0855	27	C11H11+
145.0646	5	C10H9O+
149.0153	6	C9H6Cl+
150.023	49	C9H7Cl+
151.0311	6	C9H8Cl+
155.0257	34	C8H8ClO+
155.0601	5	C10H7N2+
162.023	12	C10H7Cl+
163.0308	283	C10H8Cl+
164.0386	130	C10H9Cl+
165.0465	1	C10H10Cl+
169.076	1	C11H9N2+
169.101	1	C2H20ClN3OS+
170.109	2	C13H14+
171.1167	155	C2H22ClN3OS+
176.0385	1	C11H9Cl+
177.0465	263	C11H10Cl+
178.0542	18	C11H11Cl+
191.062	18	C12H12Cl+
202.9927	21	C8H8ClO2S+
205.0778	5	C13H14Cl+
206.0856	42	C13H15Cl+
217.0084	24	C9H10ClO2S+
229.0085	1	C10H10ClO2S+
231.0238	1	C10H12ClO2S+
285.0715	1	C14H18ClO2S+
