Mass spectrum: 2-Acrylamido-2-methyl-1-propanesulfonic acid; LC-ESI-QFT; MS2; CE: 30; R=17500; [M-H]-
Name: 2-Acrylamido-2-methyl-1-propanesulfonic acid
Name: 2-methyl-2-(prop-2-enoylamino)propane-1-sulfonic acid
Formula: C7H13NO4S
Exact mass: 207.0565
SMILES: CC(C)(CS(O)(=O)=O)NC(=O)C=C
InChI: InChI=1S/C7H13NO4S/c1-4-6(9)8-7(2,3)5-13(10,11)12/h4H,1,5H2,2-3H3,(H,8,9)(H,10,11,12)
Instrument: Q Exactive Orbitrap (Thermo Scientific)
Instrument type: LC-ESI-QFT
Ms type: MS2
Ion mode: NEGATIVE
Ionization: ESI
Fragmentation mode: HCD
Collision energy: 30
Resolution: 17500
Column name: Acquity BEH C18 1.7um, 2.1x150mm (Waters)
Retention time: 5.996 min
Base peak: 206.0492
Precursor m/z: 206.0493
Precursor type: [M-H]-
Precursor intensity: 3866983.121582
m/z	relative intensity	assigned
70.0298	31	C3H4NO-
79.9572	40	O3S-
80.9652	12	HO3S-
94.9809	3	CH3O3S-
135.0122	375	C4H7O3S-
140.0716	1	C7H10NO2-
142.0873	3	C7H12NO2-
206.0493	999	C7H12NO4S-
