Mass spectrum: Quinmerac; LC-ESI-QFT; MS2; CE: 45; R=17500; [M+H]+
Name: Quinmerac
Name: 7-chloro-3-methylquinoline-8-carboxylic acid
Formula: C11H8ClNO2
Exact mass: 221.0244
SMILES: CC1=CC2=C(N=C1)C(C(O)=O)=C(Cl)C=C2
InChI: InChI=1S/C11H8ClNO2/c1-6-4-7-2-3-8(12)9(11(14)15)10(7)13-5-6/h2-5H,1H3,(H,14,15)
Instrument: Q Exactive Orbitrap (Thermo Scientific)
Instrument type: LC-ESI-QFT
Ms type: MS2
Ion mode: POSITIVE
Ionization: ESI
Fragmentation mode: HCD
Collision energy: 45
Resolution: 17500
Column name: Acquity BEH C18 1.7um, 2.1x150mm (Waters)
Retention time: 13.186 min
Base peak: 79.0211
Precursor m/z: 222.0316
Precursor type: [M+H]+
Precursor intensity: 13333442.8125
m/z	relative intensity	assigned
51.0231	1	C4H3+
53.0386	23	C4H5+
63.0226	1	C5H3+
63.9948	11	CH3ClN+
65.0386	33	C5H5+
75.9948	10	C2H3ClN+
77.0387	18	C6H5+
81.0337	1	C5H5O+
87.9948	11	C3H3ClN+
91.0058	5	C5HNO+
92.0495	397	C6H6N+
93.0574	11	C6H7N+
94.0651	163	C6H8N+
95.0491	69	C6H7O+
101.9742	5	C3HClNO+
103.0058	3	C6HNO+
103.0544	2	C8H7+
104.0495	830	C7H6N+
106.0654	2	C7H8N+
111.044	2	C6H7O2+
116.0491	2	C8H6N+
116.9976	2	C4H4ClNO+
119.0009	6	C6HNO2+
120.0444	6	C7H6NO+
130.065	12	C9H8N+
132.0444	8	C8H6NO+
140.0497	6	C10H6N+
141.0572	7	C10H7N+
146.0116	78	C6H7ClO2+
149.0152	21	C9H6Cl+
150.011	7	C8H5ClN+
152.0262	2	C8H7ClN+
158.06	2	C10H8NO+
159.0675	3	C10H9NO+
166.0053	3	C8H5ClNO+
176.0264	15	C10H7ClN+
178.0056	5	C9H5ClNO+
193.029	60	C10H8ClNO+
194.0368	28	C10H9ClNO+
204.0212	999	C11H7ClNO+
