Mass spectrum: 2-Methyl-4,6-dinitrophenol; LC-ESI-QFT; MS2; CE: 45; R=17500; [M-H]-
Name: 2-Methyl-4,6-dinitrophenol
Name: 4,6-Dinitro-O-cresol
Formula: C7H6N2O5
Exact mass: 198.0277
SMILES: CC1=C(O)C(=CC(=C1)[N+]([O-])=O)[N+]([O-])=O
InChI: InChI=1S/C7H6N2O5/c1-4-2-5(8(11)12)3-6(7(4)10)9(13)14/h2-3,10H,1H3
Instrument: Q Exactive Orbitrap (Thermo Scientific)
Instrument type: LC-ESI-QFT
Ms type: MS2
Ion mode: NEGATIVE
Ionization: ESI
Fragmentation mode: HCD
Collision energy: 45
Resolution: 17500
Column name: Acquity BEH C18 1.7um, 2.1x150mm (Waters)
Retention time: 16.349 min
Base peak: 197.0204
Precursor m/z: 197.0204
Precursor type: [M-H]-
Precursor intensity: 42494499.71729
m/z	relative intensity	assigned
55.0189	1	C3H3O-
63.0114	1	C4HN-
63.024	9	C5H3-
64.0192	24	C4H2N-
65.0145	6	C3HN2-
65.0397	50	C5H5-
65.9985	8	C3NO-
66.0349	4	C4H4N-
67.0189	3	C4H3O-
68.0142	2	C3H2NO-
68.9981	3	C3HO2-
69.0345	4	C4H5O-
76.0193	1	C5H2N-
78.035	2	C5H4N-
79.0189	2	C5H3O-
80.0268	2	C5H4O-
81.0346	15	C5H5O-
82.0299	1	C4H4NO-
83.0139	1	C4H3O2-
88.0193	11	C6H2N-
93.0346	26	C6H5O-
94.0298	1	C5H4NO-
95.0139	3	C5H3O2-
105.022	1	C6H3NO-
106.0298	1	C6H4NO-
109.0295	319	C6H5O2-
110.0247	12	C5H4NO2-
121.0295	22	C7H5O2-
122.0246	15	C6H4NO2-
123.0086	2	C6H3O3-
123.0326	10	C6H5NO2-
125.0242	2	C6H5O3-
134.0248	3	C7H4NO2-
137.0244	696	C7H5O3-
138.0196	45	C6H4NO3-
139.0274	8	C6H5NO3-
150.0196	87	C7H4NO3-
151.0275	19	C7H5NO3-
166.0145	28	C7H4NO4-
167.0223	302	C7H5NO4-
180.0176	558	C7H4N2O4-
183.0167	1	C7H5NO5-
197.0203	999	C7H5N2O5-
