Mass spectrum: 4-(Dimethylamino)phenylthiocyanate; LC-ESI-QFT; MS2; CE: 60; R=17500; [M+H]+
Name: 4-(Dimethylamino)phenylthiocyanate
Name: Thiocyanic acid, 4-(dimethylamino)phenyl ester
Name: [4-(dimethylamino)phenyl] thiocyanate
Formula: C9H10N2S
Exact mass: 178.0565
SMILES: CN(C)C1=CC=C(SC#N)C=C1
InChI: InChI=1S/C9H10N2S/c1-11(2)8-3-5-9(6-4-8)12-7-10/h3-6H,1-2H3
Instrument: Q Exactive Orbitrap (Thermo Scientific)
Instrument type: LC-ESI-QFT
Ms type: MS2
Ion mode: POSITIVE
Ionization: ESI
Fragmentation mode: HCD
Collision energy: 60
Resolution: 17500
Column name: Acquity BEH C18 1.7um, 2.1x150mm (Waters)
Retention time: 17.205 min
Base peak: 79.0211
Precursor m/z: 179.0637
Precursor type: [M+H]+
Precursor intensity: 7574726.125
m/z	relative intensity	assigned
74.0059	1	C2H4NS+
91.0417	1	C6H5N+
103.0417	16	C7H5N+
104.0495	2	C7H6N+
104.0621	1	C8H8+
105.0448	3	C6H5N2+
106.0651	9	C7H8N+
113.0295	1	C5H7NS+
118.0527	1	C7H6N2+
119.0604	7	C7H7N2+
120.0685	1	C7H8N2+
120.0809	4	C8H10N+
121.0886	18	C8H11N+
123.0139	1	C6H5NS+
129.0447	7	C8H5N2+
130.0524	3	C8H6N2+
131.0604	108	C8H7N2+
132.0682	33	C8H8N2+
135.0138	2	C7H5NS+
136.0215	3	C7H6NS+
137.0118	21	C9HN2+
137.0294	1	C7H7NS+
138.0373	3	C7H8NS+
146.0059	61	C8H4NS+
147.0137	262	C8H5NS+
149.0168	151	C7H5N2S+
163.0325	85	C8H7N2S+
164.0402	999	C8H8N2S+
179.0638	59	C9H11N2S+
