Mass spectrum: Isoxadifen-ethyl; LC-ESI-QFT; MS2; CE: 75; R=17500; [M+H]+
Name: Isoxadifen-ethyl
Name: ethyl 5,5-diphenyl-4H-1,2-oxazole-3-carboxylate
Formula: C18H17NO3
Exact mass: 295.1208
SMILES: CCOC(=O)C1=NOC(C1)(C1=CC=CC=C1)C1=CC=CC=C1
InChI: InChI=1S/C18H17NO3/c1-2-21-17(20)16-13-18(22-19-16,14-9-5-3-6-10-14)15-11-7-4-8-12-15/h3-12H,2,13H2,1H3
Instrument: Q Exactive Orbitrap (Thermo Scientific)
Instrument type: LC-ESI-QFT
Ms type: MS2
Ion mode: POSITIVE
Ionization: ESI
Fragmentation mode: HCD
Collision energy: 75
Resolution: 17500
Column name: Acquity BEH C18 1.7um, 2.1x150mm (Waters)
Retention time: 18.392 min
Base peak: 79.0212
Precursor m/z: 296.1281
Precursor type: [M+H]+
Precursor intensity: 11014385.65625
m/z	relative intensity	assigned
50.0151	3	C4H2+
53.0386	82	C4H5+
55.0178	3	C3H3O+
65.0385	3	C5H5+
75.0229	13	C6H3+
77.0385	26	C6H5+
79.0542	2	C6H7+
81.0336	9	C5H5O+
89.0386	6	C7H5+
91.0543	18	C7H7+
94.0414	8	C6H6O+
95.0492	236	C6H7O+
101.0386	5	C8H5+
103.0542	20	C8H7+
104.0495	36	C7H6N+
105.0336	337	C7H5O+
116.0495	6	C8H6N+
117.0572	5	C8H7N+
119.0491	8	C8H7O+
120.0441	2	C7H6NO+
128.0495	65	C9H6N+
130.0289	6	C8H4NO+
130.0404	4	C9H6O+
145.0648	2	C10H9O+
146.0601	20	C9H8NO+
150.0465	4	C12H6+
151.0543	11	C12H7+
152.0621	31	C12H8+
153.0698	20	C12H9+
165.0699	76	C13H9+
166.0779	7	C13H10+
167.0728	7	C12H9N+
167.0856	6	C13H11+
168.0572	4	C12H8O+
169.0649	176	C12H9O+
175.0543	4	C14H7+
176.0621	728	C14H8+
177.0699	308	C14H9+
178.0653	28	C13H8N+
178.0777	365	C14H10+
179.0731	7	C13H9N+
179.0856	55	C14H11+
180.0807	4	C13H10N+
181.0648	24	C13H9O+
183.0805	5	C13H11O+
189.0699	19	C15H9+
190.0666	11	C14H8N+
190.0774	22	C15H10+
191.0855	107	C15H11+
192.0808	10	C14H10N+
192.0933	6	C15H12+
193.0653	11	C14H9O+
193.0886	35	C14H11N+
194.0603	2	C13H8NO+
194.0964	5	C14H12N+
195.0805	14	C14H11O+
196.0757	11	C13H10NO+
201.0574	25	C15H7N+
202.0653	33	C15H8N+
203.073	999	C15H9N+
204.0809	658	C15H10N+
205.0646	5	C15H9O+
205.0761	21	C11H11NO3+
205.0886	11	C15H11N+
206.0963	20	C15H12N+
207.0805	200	C15H11O+
218.0962	2	C16H12N+
220.0757	48	C15H10NO+
222.0916	4	C15H12NO+
232.0758	30	C16H10NO+
235.0632	2	C15H9NO2+
