Mass spectrum: Diclofenac; LC-ESI-QFT; MS2; CE: 45; R=17500; [M+H]+
Name: Diclofenac
Name: 2-[2-(2,6-dichloroanilino)phenyl]acetic acid
Formula: C14H11Cl2NO2
Exact mass: 295.0167
SMILES: OC(=O)CC1=C(NC2=C(Cl)C=CC=C2Cl)C=CC=C1
InChI: InChI=1S/C14H11Cl2NO2/c15-10-5-3-6-11(16)14(10)17-12-7-2-1-4-9(12)8-13(18)19/h1-7,17H,8H2,(H,18,19)
Instrument: Q Exactive Orbitrap (Thermo Scientific)
Instrument type: LC-ESI-QFT
Ms type: MS2
Ion mode: POSITIVE
Ionization: ESI
Fragmentation mode: HCD
Collision energy: 45
Resolution: 17500
Column name: Acquity BEH C18 1.7um, 2.1x150mm (Waters)
Retention time: 18.601 min
Base peak: 79.0211
Precursor m/z: 296.024
Precursor type: [M+H]+
Precursor intensity: 505229.5
m/z	relative intensity	assigned
214.042	883	C13H9ClN+
215.0498	999	C13H10ClN+
250.0184	17	C13H10Cl2N+
