Mass spectrum: PK 11195; LC-ESI-QFT; MS2; CE: 60; R=17500; [M+H]+
Name: PK 11195
Name: 1-(2-Chlorophenyl)-N-methyl-N-(1-methylpropyl)-3-isoquinolinecarboxamide
Name: N-butan-2-yl-1-(2-chlorophenyl)-N-methylisoquinoline-3-carboxamide
Formula: C21H21ClN2O
Exact mass: 352.1342
SMILES: CCC(C)N(C)C(=O)C1=CC2=C(C=CC=C2)C(=N1)C1=CC=CC=C1Cl
InChI: InChI=1S/C21H21ClN2O/c1-4-14(2)24(3)21(25)19-13-15-9-5-6-10-16(15)20(23-19)17-11-7-8-12-18(17)22/h5-14H,4H2,1-3H3
Instrument: Q Exactive Orbitrap (Thermo Scientific)
Instrument type: LC-ESI-QFT
Ms type: MS2
Ion mode: POSITIVE
Ionization: ESI
Fragmentation mode: HCD
Collision energy: 60
Resolution: 17500
Column name: Acquity BEH C18 1.7um, 2.1x150mm (Waters)
Retention time: 18.557 min
Base peak: 79.0211
Precursor m/z: 353.1415
Precursor type: [M+H]+
Precursor intensity: 24059018.25
m/z	relative intensity	assigned
57.0699	4	C4H9+
115.0544	1	C9H7+
140.0496	1	C10H6N+
176.0622	4	C14H8+
185.0716	3	C11H9N2O+
192.0814	1	C14H10N+
193.065	1	C14H9O+
201.0575	3	C15H7N+
202.0652	23	C15H8N+
203.073	354	C15H9N+
211.0311	4	C14H8Cl+
216.0808	2	C16H10N+
217.0888	10	C16H11N+
220.0757	105	C15H10NO+
225.0466	1	C15H10Cl+
230.0715	1	C17H10O+
237.034	2	C15H8ClN+
238.0418	999	C15H9ClN+
251.0502	1	C16H10ClN+
252.0575	35	C16H11ClN+
256.0524	751	C15H11ClNO+
258.0563	1	C14H11ClN2O+
270.068	23	C16H13ClNO+
279.0684	87	C17H12ClN2+
284.0834	3	C17H15ClNO+
297.0791	2	C17H14ClN2O+
