Mass spectrum: Megestrol acetate; LC-ESI-QFT; MS2; CE: 15; R=17500; [M+H]+
Name: Megestrol acetate
Formula: C24H32O4
Exact mass: 384.2301
SMILES: CC(=O)O[C@@]1(CC[C@H]2[C@@H]3C=C(C)C4=CC(=O)CC[C@]4(C)[C@H]3CC[C@]12C)C(C)=O
InChI: InChI=1S/C24H32O4/c1-14-12-18-19(22(4)9-6-17(27)13-21(14)22)7-10-23(5)20(18)8-11-24(23,15(2)25)28-16(3)26/h12-13,18-20H,6-11H2,1-5H3/t18-,19+,20+,22-,23+,24+/m1/s1
Instrument: Q Exactive Orbitrap (Thermo Scientific)
Instrument type: LC-ESI-QFT
Ms type: MS2
Ion mode: POSITIVE
Ionization: ESI
Fragmentation mode: HCD
Collision energy: 15
Resolution: 17500
Column name: Acquity BEH C18 1.7um, 2.1x150mm (Waters)
Retention time: 18.444 min
Base peak: 79.0211
Precursor m/z: 385.2373
Precursor type: [M+H]+
Precursor intensity: 8861059.4375
m/z	relative intensity	assigned
97.0647	1	C6H9O+
99.0805	1	C6H11O+
121.0646	1	C8H9O+
135.0804	1	C9H11O+
149.096	2	C10H13O+
151.1117	3	C10H15O+
161.0962	2	C11H13O+
169.1012	3	C13H13+
171.1169	2	C13H15+
173.0958	3	C12H13O+
175.1116	4	C12H15O+
177.127	1	C12H17O+
183.1172	2	C14H15+
187.1118	8	C13H15O+
189.1276	2	C13H17O+
201.1281	1	C14H17O+
209.1331	1	C16H17+
211.1479	1	C16H19+
215.1429	1	C15H19O+
223.1483	11	C17H19+
224.1559	9	C17H20+
225.1638	9	C17H21+
229.1586	1	C16H21O+
231.1383	1	C15H19O2+
235.1483	1	C18H19+
237.164	3	C18H21+
239.1429	2	C17H19O+
241.1584	8	C17H21O+
243.1746	3	C17H23O+
247.1481	6	C19H19+
249.1642	11	C19H21+
253.1593	1	C18H21O+
255.1744	38	C18H23O+
263.1795	11	C20H23+
265.1605	5	C19H21O+
265.1951	88	C20H25+
267.1743	211	C19H23O+
281.1898	12	C20H25O+
282.1978	19	C20H26O+
283.2058	24	C20H27O+
289.1955	10	C22H25+
307.2056	46	C22H27O+
325.2162	575	C22H29O2+
385.2375	999	C24H33O4+
