Mass spectrum: 4,4`-Sulfonyldiphenol; LC-ESI-QFT; MS2; CE: 60; R=17500; [M-H]-
Name: 4,4'-Sulfonyldiphenol
Name: 4-(4-hydroxyphenyl)sulfonylphenol
Formula: C12H10O4S
Exact mass: 250.0300
SMILES: OC1=CC=C(C=C1)S(=O)(=O)C1=CC=C(O)C=C1
InChI: InChI=1S/C12H10O4S/c13-9-1-5-11(6-2-9)17(15,16)12-7-3-10(14)4-8-12/h1-8,13-14H
Instrument: Q Exactive Orbitrap (Thermo Scientific)
Instrument type: LC-ESI-QFT
Ms type: MS2
Ion mode: NEGATIVE
Ionization: ESI
Fragmentation mode: HCD
Collision energy: 60
Resolution: 17500
Column name: Acquity BEH C18 1.7um, 2.1x150mm (Waters)
Retention time: 13.529 min
Base peak: 249.0227
Precursor m/z: 249.0227
Precursor type: [M-H]-
Precursor intensity: 10624888.90137
m/z	relative intensity	assigned
63.9625	3	O2S-
68.9982	1	C3HO2-
69.0345	1	C4H5O-
79.9574	76	O3S-
82.006	1	C4H2O2-
91.0189	1	C6H3O-
92.0267	6	C6H4O-
93.0346	13	C6H5O-
95.0139	60	C5H3O2-
106.0061	3	C6H2O2-
108.0216	999	C6H4O2-
109.0292	3	C6H5O2-
117.0346	4	C8H5O-
123.0088	8	C6H3O3-
139.9938	5	C6H4O2S-
143.0503	2	C10H7O-
155.9887	43	C6H4O3S-
156.0582	2	C11H8O-
156.9965	6	C6H5O3S-
157.0659	3	C11H9O-
184.0529	42	C12H8O2-
185.0608	12	C12H9O2-
249.0226	63	C12H9O4S-
