Mass spectrum: Mefenamic acid; LC-ESI-QFT; MS2; CE: 15; R=17500; [M-H]-
Name: Mefenamic acid
Name: 2-(2,3-dimethylanilino)benzoic acid
Formula: C15H15NO2
Exact mass: 241.1103
SMILES: CC1=C(C)C(NC2=C(C=CC=C2)C(O)=O)=CC=C1
InChI: InChI=1S/C15H15NO2/c1-10-6-5-9-13(11(10)2)16-14-8-4-3-7-12(14)15(17)18/h3-9,16H,1-2H3,(H,17,18)
Instrument: Q Exactive Orbitrap (Thermo Scientific)
Instrument type: LC-ESI-QFT
Ms type: MS2
Ion mode: NEGATIVE
Ionization: ESI
Fragmentation mode: HCD
Collision energy: 15
Resolution: 17500
Column name: Acquity BEH C18 1.7um, 2.1x150mm (Waters)
Retention time: 19.431 min
Base peak: 240.1031
Precursor m/z: 240.103
Precursor type: [M-H]-
Precursor intensity: 21259656.16504
m/z	relative intensity	assigned
180.0822	2	C13H10N-
194.0979	1	C14H12N-
196.1132	999	C14H14N-
240.1031	921	C15H14NO2-
