Mass spectrum: SSR180711; LC-ESI-QFT; MS2; CE: 60; R=17500; [M+H]+
Name: SSR180711
Name: 4-Bromophenyl 1,4-diazabicyclo(3.2.2)nonane-4-carboxylate
Name: (4-bromophenyl) 1,4-diazabicyclo[3.2.2]nonane-4-carboxylate
Formula: C14H17BrN2O2
Exact mass: 324.0473
SMILES: BrC1=CC=C(OC(=O)N2CCN3CCC2CC3)C=C1
InChI: InChI=1S/C14H17BrN2O2/c15-11-1-3-13(4-2-11)19-14(18)17-10-9-16-7-5-12(17)6-8-16/h1-4,12H,5-10H2
Instrument: Q Exactive Orbitrap (Thermo Scientific)
Instrument type: LC-ESI-QFT
Ms type: MS2
Ion mode: POSITIVE
Ionization: ESI
Fragmentation mode: HCD
Collision energy: 60
Resolution: 17500
Column name: Acquity BEH C18 1.7um, 2.1x150mm (Waters)
Retention time: 13.135 min
Base peak: 79.0211
Precursor m/z: 325.0546
Precursor type: [M+H]+
Precursor intensity: 7642096.875
m/z	relative intensity	assigned
53.0022	2	C3HO+
53.0386	6	C4H5+
54.0339	2	C3H4N+
55.0543	226	C4H7+
56.0495	525	C3H6N+
57.0699	10	C4H9+
58.0651	2	C3H8N+
65.0386	6	C5H5+
67.0417	7	C4H5N+
67.0542	60	C5H7+
68.0494	25	C4H6N+
69.0447	10	C3H5N2+
69.0573	6	C4H7N+
70.0287	16	C3H4NO+
70.0651	24	C4H8N+
71.073	2	C4H9N+
78.0465	1	C6H6+
79.0179	1	C5H3O+
80.0495	23	C5H6N+
82.0651	162	C5H8N+
83.0604	6	C4H7N2+
83.0729	1	C5H9N+
84.0808	999	C5H10N+
85.0398	2	C3H5N2O+
91.0542	1	C7H7+
92.0621	1	C7H8+
94.0414	54	C6H6O+
96.0445	5	C5H6NO+
97.0397	8	C4H5N2O+
97.0761	60	C5H9N2+
98.0601	1	C5H8NO+
98.0839	6	C5H10N2+
99.0552	18	C4H7N2O+
104.062	1	C8H8+
113.0708	1	C5H9N2O+
118.0652	4	C8H8N+
120.057	13	C8H8O+
125.071	207	C6H9N2O+
126.0787	10	C6H10N2O+
126.1153	3	C7H14N2+
130.065	3	C9H8N+
130.9491	3	C4H4Br+
131.0494	1	C9H7O+
132.0571	2	C9H8O+
153.1022	2	C8H13N2O+
154.9497	3	C6H4Br+
156.9645	2	C6H6Br+
168.9653	2	C7H6Br+
170.9804	3	C7H8Br+
172.9597	99	C6H6BrO+
181.9602	2	C7H5BrN+
182.9553	66	C6H4BrN2+
184.9597	13	C7H6BrO+
198.9753	9	C8H8BrO+
210.9754	4	C9H8BrO+
241.9812	157	C9H9BrNO2+
253.9811	20	C10H9BrNO2+
255.9972	7	C10H11BrNO2+
267.9968	188	C11H11BrNO2+
297.0234	94	C12H14BrN2O2+
325.0547	85	C14H18BrN2O2+
