Mass spectrum: FR140423; LC-ESI-QFT; MS2; CE: 60; R=17500; [M+H]+
Name: FR140423
Name: 3-(Difluoromethyl)-1-(4-methoxyphenyl)-5-(4-(methylsulfinyl)phenyl)pyrazole
Name: 3-(difluoromethyl)-1-(4-methoxyphenyl)-5-(4-methylsulfinylphenyl)pyrazole
Formula: C18H16F2N2O2S
Exact mass: 362.0901
SMILES: COC1=CC=C(C=C1)N1N=C(C=C1C1=CC=C(C=C1)S(C)=O)C(F)F
InChI: InChI=1S/C18H16F2N2O2S/c1-24-14-7-5-13(6-8-14)22-17(11-16(21-22)18(19)20)12-3-9-15(10-4-12)25(2)23/h3-11,18H,1-2H3
Instrument: Q Exactive Orbitrap (Thermo Scientific)
Instrument type: LC-ESI-QFT
Ms type: MS2
Ion mode: POSITIVE
Ionization: ESI
Fragmentation mode: HCD
Collision energy: 60
Resolution: 17500
Column name: Acquity BEH C18 1.7um, 2.1x150mm (Waters)
Retention time: 16.264 min
Base peak: 79.0211
Precursor m/z: 363.0973
Precursor type: [M+H]+
Precursor intensity: 4475380.8125
m/z	relative intensity	assigned
78.0463	36	C6H6+
89.0384	9	C7H5+
91.0543	11	C7H7+
92.0259	8	C6H4O+
95.0493	11	C6H7O+
102.0465	375	C8H6+
103.0545	9	C8H7+
104.0495	15	C7H6N+
105.0335	21	C7H5O+
108.0569	34	C7H8O+
119.0492	22	C8H7O+
121.0106	35	C7H5S+
122.0185	32	C7H6S+
122.0601	38	C7H8NO+
125.0597	9	C7H9O2+
127.0356	9	C7H5F2+
130.0652	11	C9H8N+
132.0445	135	C8H6NO+
134.0361	137	C8H6O2+
134.0601	13	C8H8NO+
135.048	18	C8H6FN+
146.0601	158	C9H8NO+
147.0479	29	C9H6FN+
147.0679	277	C9H9NO+
148.0557	18	C9H7FN+
148.0631	8	C8H8N2O+
149.0058	8	C8H5OS+
149.0712	26	C8H9N2O+
150.0135	870	C8H6OS+
151.0088	15	C7H5NOS+
154.0463	42	C8H6F2N+
155.0303	20	C8H5F2O+
155.0538	9	C5H12FO2S+
157.0461	20	C8H7F2O+
158.0603	17	C10H8NO+
162.037	44	C9H8NS+
163.043	47	C9H6FNO+
164.0163	14	C8H6NOS+
166.0465	29	C9H6F2N+
167.0542	26	C9H7F2N+
170.054	24	C9H8F2O+
173.0708	14	C10H9N2O+
176.0706	16	C10H10NO2+
177.0583	44	C10H8FNO+
178.0464	30	C10H6F2N+
178.0664	91	C10H9FNO+
179.0616	188	C9H8FN2O+
180.081	136	C13H10N+
181.0649	50	C13H9O+
182.0413	131	C9H6F2NO+
183.0365	15	C8H5F2N2O+
184.0441	36	C8H6F2N2O+
190.0655	14	C14H8N+
192.0805	42	C14H10N+
193.0885	11	C14H11N+
194.0966	14	C14H12N+
196.057	27	C10H8F2NO+
197.0649	51	C10H9F2NO+
198.0602	43	C9H8F2N2O+
198.0726	24	C10H10F2NO+
199.068	999	C9H9F2N2O+
204.0806	10	C15H10N+
205.0763	22	C14H9N2+
206.084	42	C14H10N2+
207.0684	34	C14H9NO+
208.0759	303	C14H10NO+
210.0915	10	C14H12NO+
212.0707	13	C13H10NO2+
216.0686	14	C15H8N2+
217.0764	34	C15H9N2+
221.0838	17	C15H11NO+
222.0715	13	C15H9FN+
222.0915	51	C15H12NO+
223.0993	405	C15H13NO+
224.0345	47	C11H8F2NS+
224.0708	16	C11H14NO2S+
227.04	12	C13H9NOS+
228.0481	85	C13H10NOS+
230.0843	8	C16H10N2+
233.0713	47	C15H9N2O+
234.079	83	C15H10N2O+
235.0866	16	C15H11N2O+
236.0747	74	C15H9FN2+
237.048	14	C14H9N2S+
237.0826	129	C15H10FN2+
238.0318	7	C14H8NOS+
238.0869	13	C15H12NO2+
239.0399	18	C14H9NOS+
240.048	127	C14H10NOS+
240.0643	41	C12H12F2NS+
247.0869	15	C16H11N2O+
248.0406	23	C15H8N2S+
248.0947	100	C16H12N2O+
249.0487	13	C12H10FN2OS+
249.1024	243	C16H13N2O+
250.0904	27	C16H11FN2+
251.0982	32	C16H12FN2+
254.051	21	C14H10N2OS+
254.0637	80	C15H12NOS+
255.0735	35	C15H9F2N2+
255.0891	509	C13H15F2NS+
256.0429	299	C17H5FN2+
256.0807	116	C15H10F2N2+
257.0886	173	C15H11F2N2+
259.0868	66	C17H11N2O+
260.095	51	C17H12N2O+
264.0697	115	C16H9FN2O+
265.0436	43	C15H9N2OS+
265.0773	206	C16H10FN2O+
266.0515	14	C12H11FN2O2S+
266.0681	7	C13H12F2N2S+
268.0468	42	C15H9FN2S+
268.0806	107	C16H10F2N2+
270.0586	139	C18H7FN2+
270.0962	59	C16H12F2N2+
271.1039	38	C16H13F2N2+
272.0754	9	C15H10F2N2O+
273.0828	10	C15H11F2N2O+
275.0443	11	C14H9F2N2S+
278.0852	25	C17H11FN2O+
279.0585	37	C16H11N2OS+
279.0931	606	C17H12FN2O+
280.0486	14	C13H10F2N2OS+
280.0667	136	C16H12N2OS+
280.0847	16	C14H14F2N2S+
280.1007	164	C17H13FN2O+
281.0731	30	C16H10FN2O2+
281.1078	13	C17H14FN2O+
282.0455	42	C15H10N2O2S+
282.0803	32	C16H11FN2O2+
284.0759	242	C16H10F2N2O+
285.0495	28	C15H10FN2OS+
285.0836	312	C16H11F2N2O+
287.0447	11	C15H9F2N2S+
288.0529	95	C15H10F2N2S+
291.0586	28	C17H11N2OS+
292.0842	80	C15H14F2N2S+
293.0381	33	C16H9N2O2S+
294.0825	31	C17H14N2OS+
295.0341	25	C16H8FN2OS+
295.0901	262	C17H15N2OS+
296.0419	63	C16H9FN2OS+
296.0619	63	C16H12N2O2S+
297.0496	402	C16H10FN2OS+
297.0692	169	C16H13N2O2S+
299.0993	690	C17H13F2N2O+
300.0539	43	C16H10F2N2S+
300.1071	618	C17H14F2N2O+
301.06	14	C16H11F2N2S+
302.0679	24	C16H12F2N2S+
302.0865	99	C16H12F2N2O2+
303.0764	265	C16H13F2N2S+
305.0558	64	C15H11F2N2OS+
308.0618	60	C17H12N2O2S+
310.0574	89	C17H11FN2OS+
311.0651	152	C17H12FN2OS+
311.1196	11	C18H16FN2O2+
312.0907	282	C17H16N2O2S+
313.0441	98	C16H10FN2O2S+
313.0616	14	C17H11F2N2S+
314.0696	17	C17H12F2N2S+
315.0393	39	C16H9F2N2OS+
316.0474	79	C16H10F2N2OS+
317.0558	29	C16H11F2N2OS+
317.0741	22	C16H14FN2O2S+
325.0808	499	C18H14FN2OS+
327.0598	147	C17H12FN2O2S+
328.0679	338	C17H13FN2O2S+
329.0556	16	C17H11F2N2OS+
330.0637	100	C17H12F2N2OS+
331.0714	767	C17H13F2N2OS+
332.044	133	C16H10F2N2O2S+
332.097	921	C17H17FN2O2S+
333.0506	146	C16H11F2N2O2S+
345.087	312	C18H15F2N2OS+
346.095	333	C18H16F2N2OS+
347.0659	80	C17H13F2N2O2S+
348.0742	279	C17H14F2N2O2S+
