Mass spectrum: Fluoxastrobin; LC-ESI-QFT; MS2; CE: 45; R=17500; [M+H]+
Name: Fluoxastrobin
Name: (E)-1-[2-[6-(2-chlorophenoxy)-5-fluoropyrimidin-4-yl]oxyphenyl]-1-(5,6-dihydro-1,4,2-dioxazin-3-yl)-N-methoxymethanimine
Formula: C21H16ClFN4O5
Exact mass: 458.0793
SMILES: CO\N=C(\C1=NOCCO1)C1=C(OC2=C(F)C(OC3=C(Cl)C=CC=C3)=NC=N2)C=CC=C1
InChI: InChI=1S/C21H16ClFN4O5/c1-28-26-18(21-27-30-11-10-29-21)13-6-2-4-8-15(13)31-19-17(23)20(25-12-24-19)32-16-9-5-3-7-14(16)22/h2-9,12H,10-11H2,1H3/b26-18+
Instrument: Q Exactive Orbitrap (Thermo Scientific)
Instrument type: LC-ESI-QFT
Ms type: MS2
Ion mode: POSITIVE
Ionization: ESI
Fragmentation mode: HCD
Collision energy: 45
Resolution: 17500
Column name: Acquity BEH C18 1.7um, 2.1x150mm (Waters)
Retention time: 17.699 min
Base peak: 79.0212
Precursor m/z: 459.0866
Precursor type: [M+H]+
Precursor intensity: 14582488.5
m/z	relative intensity	assigned
50.0151	1	C4H2+
51.0229	2	C4H3+
53.0021	1	C3HO+
53.0385	12	C4H5+
55.0178	2	C3H3O+
56.0131	1	C2H2NO+
64.0182	1	C4H2N+
64.0305	1	FH3N3+
65.0385	50	C5H5+
69.0083	2	C2HN2O+
69.9923	13	C2NO2+
73.0195	2	C2H2FN2+
73.0283	5	C3H5O2+
74.0035	3	C2HFNO+
74.0153	1	C6H2+
75.0228	10	CH2FN3+
77.0383	5	CH4FN3+
79.0541	8	CH6FN3+
81.0335	20	C5H5O+
82.0287	2	C4H4NO+
86.0235	8	C3H4NO2+
86.9876	5	C3FO2+
86.9996	10	C4H4Cl+
90.0338	99	C6H4N+
91.0189	2	C3H4FO2+
91.0416	4	C6H5N+
91.0542	16	C7H7+
92.0494	11	C6H6N+
93.0335	18	C6H5O+
94.0413	5	C6H6O+
96.0444	8	C5H6NO+
97.003	1	C3HN2O2+
97.0522	3	C5H7NO+
98.9994	12	ClFH3N3+
100.0192	1	C4H3FNO+
103.0541	4	C3H6FN3+
104.0141	4	C3H3FNO2+
104.0494	47	C2H5FN4+
105.0334	7	C7H5O+
105.0447	20	C6H5N2+
106.0287	39	C6H4NO+
106.0525	6	C6H6N2+
106.0649	5	C2H7FN4+
107.0291	6	C7H4F+
107.0492	6	C7H7O+
108.0443	10	CH5FN4O+
110.9994	6	CH3ClFN3+
111.044	50	C6H7O2+
112.0074	7	C6H5Cl+
113.015	3	CH5ClFN3+
113.0345	1	C4H5N2O2+
114.0339	1	C8H4N+
116.037	3	C7H4N2+
116.0494	4	C8H6N+
117.0447	6	C7H5N2+
117.0572	7	C8H7N+
118.0286	5	C2H3FN4O+
118.0525	4	CH9FNO4+
119.0365	29	C7H5NO+
119.0603	3	C7H7N2+
120.0443	132	C7H6NO+
121.0322	1	C7H4FN+
121.0395	5	C6H5N2O+
122.0399	19	C7H5FN+
122.9993	1	C2H3ClFN3+
123.0352	2	C6H4FN2+
125.0152	4	C7H6Cl+
125.0597	5	C7H9O2+
126.9946	3	C6H4ClO+
127.0185	1	C6H6ClN+
127.0301	3	C5H4FN2O+
128.0022	12	CH4ClFN3O+
129.0097	58	CH5ClFN3O+
129.0446	34	C8H5N2+
130.0289	73	C8H4NO+
130.0399	65	C7H4N3+
130.0519	8	C8H6N2+
131.0371	1	C5H8ClN2+
131.0486	1	C4H6FN3O+
131.0603	8	C8H7N2+
132.0293	3	C4H6NO4+
132.0443	34	C8H6NO+
132.0555	9	C7H6N3+
133.032	1	C8H4FN+
133.0396	10	C7H5N2O+
133.052	5	C3H6FN4O+
134.0236	7	C7H4NO2+
134.0284	1	C7H3FN2+
134.0399	13	C8H5FN+
134.0474	5	C7H6N2O+
134.0599	13	C3H7FN4O+
135.0241	2	C8H4FO+
135.0312	3	C2H4FN4O2+
135.0552	3	C7H7N2O+
136.0392	9	C2H5FN4O2+
138.0104	421	C7H5ClN+
138.9946	25	C7H4ClO+
139.0056	83	C6H4ClN2+
140.99	4	C7H3ClF+
141.0098	4	C2H5ClFN3O+
142.0398	7	C8H4N3+
143.0056	6	C7H5ClF+
143.0249	1	C5H4FN2O2+
143.0477	1	C8H5N3+
144.0318	16	C8H4N2O+
144.0447	1	C6H9ClN2+
144.0554	15	C8H6N3+
145.0395	191	C8H5N2O+
146.0234	8	C3H3FN4O2+
146.0472	2	C8H6N2O+
147.0356	7	C8H4FN2+
147.0549	8	C8H7N2O+
149.0506	5	C8H6FN2+
150.0349	150	C8H5FNO+
151.0057	16	C7H4ClN2+
152.0504	2	C8H7FNO+
154.04	10	C9H4N3+
156.0009	4	C7H4ClFN+
156.0554	3	C9H6N3+
157.0396	13	C9H5N2O+
158.0165	4	C7H6ClFN+
158.0471	1	C9H6N2O+
159.0354	13	C9H4FN2+
159.0425	2	C8H5N3O+
159.0553	2	C9H7N2O+
160.0267	20	C8H4N2O2+
160.0429	8	C9H5FN2+
160.0505	11	C8H6N3O+
161.0271	6	C9H4FNO+
161.0343	59	C8H5N2O2+
162.0348	20	C9H5FNO+
162.0423	30	C8H6N2O2+
163.0056	38	C8H4ClN2+
163.03	2	C8H4FN2O+
163.0426	3	C9H6FNO+
163.05	33	C8H7N2O2+
164.034	149	C3H5FN4O3+
165.0457	7	C8H6FN2O+
166.0054	10	C8H5ClNO+
166.0663	1	C9H9FNO+
168.001	57	C8H4ClFN+
168.0458	11	C8H7FNO2+
169.0395	1	C10H5N2O+
170.0347	35	C9H4N3O+
171.0554	2	C10H7N2O+
172.0505	4	C9H6N3O+
173.0348	3	C3H9ClFN3O2+
174.0463	9	C14H6+
175.0301	57	C9H4FN2O+
176.0379	31	C9H5FN2O+
176.0509	1	C10H7FNO+
177.0217	1	C9H6ClN2+
177.0458	6	C9H6FN2O+
178.0298	159	C9H5FNO2+
179.0005	73	C8H4ClN2O+
180.0454	4	C9H7FNO2+
182.0347	7	C10H4N3O+
182.0609	10	C9H9FNO2+
183.012	9	C8H5ClFN2+
183.9958	29	C8H4ClFNO+
185.0345	3	C9H10ClO2+
186.0114	1	C8H6ClFNO+
186.0299	3	C9H4N3O2+
186.0464	6	C15H6+
187.03	5	C10H4FN2O+
187.0532	3	C6H13ClFO3+
188.0378	999	C10H5FN2O+
189.0454	13	C10H6FN2O+
190.0307	1	C7H8ClFN2O+
190.0409	24	C9H5FN3O+
190.0499	12	C10H8NO3+
191.0249	26	C9H4FN2O2+
193.0408	2	C9H6FN2O2+
193.0605	4	C9H9N2O3+
195.0117	4	C9H5ClFN2+
195.0328	3	C9H6FNO3+
195.0566	2	C9H8FN2O2+
195.9956	4	C12HFO2+
196.0506	4	C11H6N3O+
198.0295	7	C10H4N3O2+
199.0409	2	C6H11ClFNO3+
200.0473	2	C9H11ClNO2+
202.0413	16	C15H6O+
202.052	1	C5H12ClFN2O3+
202.0615	2	C7H11ClN4O+
203.0249	9	C10H4FN2O2+
203.048	4	C6H13ClFO4+
204.0769	6	C10H10N3O2+
205.0407	56	C10H6FN2O2+
205.0604	43	C10H9N2O3+
207.0564	2	C10H8FN2O2+
211.991	3	C9H4ClFNO2+
213.0332	2	C11H4FN3O+
213.0571	4	C11H6FN4+
214.0065	36	C9H6ClFNO2+
214.0409	13	C11H5FN3O+
214.0603	8	C5H12ClFN4O2+
215.0491	7	C16H7O+
216.0565	10	C11H7FN3O+
217.0408	3	C11H6FN2O2+
218.0358	23	C10H5FN3O2+
219.0551	1	C14H7N2O+
220.0276	17	C10H5FN2O3+
220.0516	7	C10H7FN3O2+
221.0355	10	C10H6FN2O3+
223.0068	13	C10H5ClFN2O+
225.0581	8	C14H8FNO+
228.0438	13	C11H5FN4O+
228.0566	5	C12H7FN3O+
229.028	16	C11H4FN3O2+
229.0516	3	C11H6FN4O+
230.0359	89	C11H5FN3O2+
231.02	15	C11H4FN2O3+
232.0514	8	C11H7FN3O2+
232.0631	2	C15H8N2O+
233.0557	3	C14H11ClF+
239.0014	4	C13H2FNO3+
239.0561	2	C12H7N4O2+
239.9855	2	C13HFO4+
240.0438	15	C12H5FN4O+
241.0515	16	C8H13ClFNO4+
244.0515	13	C12H7FN3O2+
246.0307	51	C11H5FN3O3+
248.002	2	C11H4ClFN3O+
251.0612	4	C15H8FN2O+
252.0338	2	C16H9ClO+
252.0689	8	C15H9FN2O+
255.0313	16	C12H4FN4O2+
257.0468	11	C12H6FN4O2+
257.0596	1	C13H8FN3O2+
260.028	2	C14H8ClFNO+
261.0667	4	C13H10FN2O3+
263.0606	1	C19H7N2+
263.9975	1	C16H5ClO2+
264.032	7	C18H4N2O+
271.0623	3	C13H8FN4O2+
272.0337	5	C12H5FN4O3+
274.0621	17	C13H9FN3O3+
277.0643	13	C16H8FN3O+
278.0721	19	C16H9FN3O+
287.039	1	C15H9ClFN2O+
298.0613	1	C18H8N3O2+
301.0724	5	C17H9N4O2+
304.0517	14	C17H7FN3O2+
304.0748	4	C13H16ClFNO4+
306.0671	282	C17H9FN3O2+
313.0722	4	C18H9N4O2+
318.0673	23	C18H9FN3O2+
326.0489	1	C17H10ClFN3O+
331.0622	28	C18H8FN4O2+
339.0441	6	C17H9ClFN4O+
341.0361	1	C17H9ClFN3O2+
342.0439	14	C17H10ClFN3O2+
349.048	4	C21H7N3O3+
355.0388	3	C20H6FN3O3+
367.0392	33	C18H9ClFN4O2+
383.0341	14	C18H9ClFN4O3+
391.0829	2	C20H12FN4O4+
397.0495	4	C19H11ClFN4O3+
427.0601	9	C20H13ClFN4O4+
