Mass spectrum: Mepanipyrim; LC-ESI-QFT; MS2; CE: 75; R=17500; [M+H]+
Name: Mepanipyrim
Name: 4-methyl-N-phenyl-6-prop-1-ynylpyrimidin-2-amine
Formula: C14H13N3
Exact mass: 223.1109
SMILES: CC#CC1=CC(C)=NC(NC2=CC=CC=C2)=N1
InChI: InChI=1S/C14H13N3/c1-3-7-13-10-11(2)15-14(17-13)16-12-8-5-4-6-9-12/h4-6,8-10H,1-2H3,(H,15,16,17)
Instrument: Q Exactive Orbitrap (Thermo Scientific)
Instrument type: LC-ESI-QFT
Ms type: MS2
Ion mode: POSITIVE
Ionization: ESI
Fragmentation mode: HCD
Collision energy: 75
Resolution: 17500
Column name: Acquity BEH C18 1.7um, 2.1x150mm (Waters)
Retention time: 17.957 min
Base peak: 79.0211
Precursor m/z: 224.1182
Precursor type: [M+H]+
Precursor intensity: 69164623.0625
m/z	relative intensity	assigned
51.023	4	C4H3+
53.0386	116	C4H5+
54.0338	11	C3H4N+
55.0542	3	C4H7+
56.0495	5	C3H6N+
63.0229	61	C5H3+
65.0385	146	C5H5+
66.0338	233	C4H4N+
67.029	90	C3H3N2+
67.0416	21	C4H5N+
67.0542	32	C5H7+
68.0495	14	C4H6N+
70.0651	2	C4H8N+
77.0385	148	C6H5+
78.0338	13	C5H4N+
78.0464	29	C6H6+
79.0542	499	C6H7+
80.0494	155	C5H6N+
81.0447	2	C4H5N2+
81.0572	20	C5H7N+
81.0698	2	C6H9+
82.0527	3	C4H6N2+
82.0651	25	C5H8N+
89.0386	31	C7H5+
90.0338	146	C6H4N+
91.029	6	C5H3N2+
91.0417	15	C6H5N+
91.0542	42	C7H7+
92.0495	68	C6H6N+
93.0447	8	C5H5N2+
93.0574	74	C6H7N+
94.0413	12	C4H4N3+
94.0651	244	C6H8N+
95.0491	439	C4H5N3+
103.0416	6	C7H5N+
103.0543	4	C8H7+
104.0495	436	C7H6N+
105.0448	184	C6H5N2+
105.0572	13	C7H7N+
106.0651	999	C7H8N+
107.0603	76	C6H7N2+
107.0729	26	C7H9N+
109.0649	5	C5H7N3+
114.0338	6	C8H4N+
115.0542	114	C9H7+
116.0496	37	C8H6N+
117.0573	24	C8H7N+
118.0526	14	C7H6N2+
118.0651	84	C8H8N+
119.0604	192	C7H7N2+
120.0682	4	C7H8N2+
121.076	164	C7H9N2+
128.0493	12	C9H6N+
128.0622	10	C10H8+
129.0448	9	C8H5N2+
129.0576	3	C9H7N+
129.0699	26	C10H9+
130.0401	10	C7H4N3+
130.0524	6	C8H6N2+
130.0652	18	C9H8N+
131.0604	206	C8H7N2+
132.0683	57	C8H8N2+
132.0804	13	C9H10N+
133.0885	20	C9H11N+
139.0542	23	C11H7+
140.0494	71	C10H6N+
141.0574	13	C10H7N+
142.0652	120	C10H8N+
143.0604	189	C9H7N2+
143.073	20	C10H9N+
144.0678	3	C9H8N2+
144.0805	3	C10H10N+
145.0649	3	C8H7N3+
145.0761	3	C9H9N2+
146.0712	19	C8H8N3+
147.0791	52	C8H9N3+
148.0868	6	C8H10N3+
148.1119	6	C10H14N+
152.0621	21	C12H8+
153.0698	23	C12H9+
154.065	18	C11H8N+
155.0604	13	C10H7N2+
155.0727	5	C11H9N+
156.0683	6	C10H8N2+
156.0808	24	C11H10N+
157.0762	17	C10H9N2+
157.0886	6	C11H11N+
158.0838	5	C10H10N2+
159.0916	20	C10H11N2+
163.0541	4	C13H7+
164.0499	5	C12H6N+
165.0573	6	C12H7N+
165.0703	2	C13H9+
166.0652	40	C12H8N+
167.0605	20	C11H7N2+
167.0729	40	C12H9N+
168.0682	130	C11H8N2+
169.0643	11	C10H7N3+
169.0759	17	C11H9N2+
170.0962	4	C12H12N+
178.0651	8	C13H8N+
179.0603	5	C12H7N2+
179.073	29	C13H9N+
180.0807	93	C13H10N+
181.076	97	C12H9N2+
181.0887	14	C13H11N+
182.0839	182	C12H10N2+
183.0791	20	C11H9N3+
183.0916	78	C12H11N2+
184.087	58	C11H10N3+
184.0993	4	C12H12N2+
190.0649	14	C14H8N+
191.0606	4	C13H7N2+
191.0726	8	C14H9N+
192.0682	104	C13H8N2+
193.076	6	C13H9N2+
194.0715	7	C12H8N3+
194.0835	7	C13H10N2+
195.0917	33	C13H11N2+
196.0857	2	C12H10N3+
196.0896	2	C12H10N3+
196.0995	18	C13H12N2+
197.0954	4	C12H11N3+
197.1072	15	C13H13N2+
198.102	2	C12H12N3+
205.0761	160	C14H9N2+
206.0838	243	C14H10N2+
207.0796	9	C13H9N3+
207.0916	110	C14H11N2+
208.0871	123	C13H10N3+
208.0991	17	C14H12N2+
209.0948	135	C13H11N3+
221.0944	11	C14H11N3+
222.1025	93	C14H12N3+
223.1104	35	C14H13N3+
224.1182	237	C14H14N3+
