Mass spectrum: Dapsone; LC-ESI-QFT; MS2; CE: 90; R=17500; [M+H]+
Name: Dapsone
Name: 4-(4-aminophenyl)sulfonylaniline
Formula: C12H12N2O2S
Exact mass: 248.0619
SMILES: NC1=CC=C(C=C1)S(=O)(=O)C1=CC=C(N)C=C1
InChI: InChI=1S/C12H12N2O2S/c13-9-1-5-11(6-2-9)17(15,16)12-7-3-10(14)4-8-12/h1-8H,13-14H2
Instrument: Q Exactive Orbitrap (Thermo Scientific)
Instrument type: LC-ESI-QFT
Ms type: MS2
Ion mode: POSITIVE
Ionization: ESI
Fragmentation mode: HCD
Collision energy: 90
Resolution: 17500
Column name: Acquity BEH C18 1.7um, 2.1x150mm (Waters)
Retention time: 10.889 min
Base peak: 79.0212
Precursor m/z: 249.0692
Precursor type: [M+H]+
Precursor intensity: 6492834.875
m/z	relative intensity	assigned
53.0022	9	C3HO+
53.0386	13	C4H5+
54.0338	1	C3H4N+
55.0178	1	C3H3O+
55.0543	2	C4H7+
56.0494	3	C3H6N+
65.0385	999	C5H5+
66.0464	51	C5H6+
67.0416	1	C4H5N+
68.0494	14	C4H6N+
69.0335	1	C4H5O+
78.0338	3	C5H4N+
79.0179	3	C5H3O+
80.0494	357	C5H6N+
83.0491	4	C5H7O+
90.0338	1	C6H4N+
92.0495	459	C6H6N+
93.0573	271	C6H7N+
96.0445	2	C5H6NO+
108.0444	474	C6H6NO+
109.0522	2	C6H7NO+
110.06	109	C6H8NO+
114.9709	1	C3HNO2S+
120.0556	4	C8H8O+
124.0216	5	C6H6NS+
124.0758	2	C7H10NO+
140.0167	1	C6H6NOS+
