Mass spectrum: Acesulfame; LC-ESI-QFT; MS2; CE: 15; R=17500; [M-H]-
Name: Acesulfame
Name: 6-methyl-2,2-dioxooxathiazin-4-one
Formula: C4H5NO4S
Exact mass: 162.9939
SMILES: CC1=CC(=O)NS(=O)(=O)O1
InChI: InChI=1S/C4H5NO4S/c1-3-2-4(6)5-10(7,8)9-3/h2H,1H3,(H,5,6)
Instrument: Q Exactive Orbitrap (Thermo Scientific)
Instrument type: LC-ESI-QFT
Ms type: MS2
Ion mode: NEGATIVE
Ionization: ESI
Fragmentation mode: HCD
Collision energy: 15
Resolution: 17500
Column name: Acquity BEH C18 1.7um, 2.1x150mm (Waters)
Retention time: 4.924 min
Base peak: 161.9867
Precursor m/z: 161.9867
Precursor type: [M-H]-
Precursor intensity: 3709601.443115
m/z	relative intensity	assigned
65.9984	1	C3NO-
70.0299	17	C3H4NO-
77.9656	43	NO2S-
82.0299	999	C4H4NO-
98.0248	12	C4H4NO2-
101.9656	4	C2NO2S-
118.9807	1	C3H3O3S-
119.9762	1	C2H2NO3S-
161.9867	266	C4H4NO4S-
