Mass spectrum: 4,4`-Methylenebis(N,N-dimethylaniline); LC-ESI-QFT; MS2; CE: 15; R=17500; [M+H]+
Name: 4,4'-Methylenebis(N,N-dimethylaniline)
Name: 4-[[4-(dimethylamino)phenyl]methyl]-N,N-dimethylaniline
Formula: C17H22N2
Exact mass: 254.1783
SMILES: CN(C)C1=CC=C(CC2=CC=C(C=C2)N(C)C)C=C1
InChI: InChI=1S/C17H22N2/c1-18(2)16-9-5-14(6-10-16)13-15-7-11-17(12-8-15)19(3)4/h5-12H,13H2,1-4H3
Instrument: Q Exactive Orbitrap (Thermo Scientific)
Instrument type: LC-ESI-QFT
Ms type: MS2
Ion mode: POSITIVE
Ionization: ESI
Fragmentation mode: HCD
Collision energy: 15
Resolution: 17500
Column name: Acquity BEH C18 1.7um, 2.1x150mm (Waters)
Retention time: 10.439 min
Base peak: 79.0212
Precursor m/z: 255.1856
Precursor type: [M+H]+
Precursor intensity: 26007024.8125
m/z	relative intensity	assigned
134.0972	1	C9H12N+
239.1537	3	C16H19N2+
240.162	33	C16H20N2+
255.1854	999	C17H23N2+
