Mass spectrum: 4-Methylumbelliferone; LC-ESI-QFT; MS2; CE: 75; R=17500; [M+H]+
Name: 4-Methylumbelliferone
Name: 7-hydroxy-4-methylchromen-2-one
Formula: C10H8O3
Exact mass: 176.0473
SMILES: CC1=CC(=O)OC2=C1C=CC(O)=C2
InChI: InChI=1S/C10H8O3/c1-6-4-10(12)13-9-5-7(11)2-3-8(6)9/h2-5,11H,1H3
Instrument: Q Exactive Orbitrap (Thermo Scientific)
Instrument type: LC-ESI-QFT
Ms type: MS2
Ion mode: POSITIVE
Ionization: ESI
Fragmentation mode: HCD
Collision energy: 75
Resolution: 17500
Column name: Acquity BEH C18 1.7um, 2.1x150mm (Waters)
Retention time: 14.061 min
Base peak: 79.0211
Precursor m/z: 177.0546
Precursor type: [M+H]+
Precursor intensity: 3487145.25
m/z	relative intensity	assigned
50.0151	6	C4H2+
51.023	8	C4H3+
53.0386	130	C4H5+
55.0178	117	C3H3O+
65.0385	15	C5H5+
67.054	4	C5H7+
68.9971	431	C3HO2+
77.0385	36	C6H5+
78.0464	8	C6H6+
79.0542	521	C6H7+
81.0335	16	C5H5O+
81.0699	174	C6H9+
91.0542	558	C7H7+
93.0699	516	C7H9+
94.0414	14	C6H6O+
95.0491	428	C6H7O+
102.0464	11	C8H6+
103.0542	999	C8H7+
105.0699	594	C8H9+
106.0413	7	C7H6O+
107.0491	72	C7H7O+
109.0648	7	C7H9O+
115.0542	130	C9H7+
116.0619	7	C9H8+
121.0648	931	C8H9O+
131.0491	68	C9H7O+
132.0569	26	C9H8O+
133.0647	34	C9H9O+
134.036	25	C8H6O2+
135.0439	12	C8H7O2+
137.0234	7	C7H5O3+
149.0599	39	C9H9O2+
177.0546	355	C10H9O3+
