Mass spectrum: Sulisobenzone; LC-ESI-QFT; MS2; CE: 30; R=17500; [M-H]-
Name: Sulisobenzone
Name: 5-benzoyl-4-hydroxy-2-methoxybenzenesulfonic acid
Formula: C14H12O6S
Exact mass: 308.0355
SMILES: COC1=C(C=C(C(=O)C2=CC=CC=C2)C(O)=C1)S(O)(=O)=O
InChI: InChI=1S/C14H12O6S/c1-20-12-8-11(15)10(7-13(12)21(17,18)19)14(16)9-5-3-2-4-6-9/h2-8,15H,1H3,(H,17,18,19)
Instrument: Q Exactive Orbitrap (Thermo Scientific)
Instrument type: LC-ESI-QFT
Ms type: MS2
Ion mode: NEGATIVE
Ionization: ESI
Fragmentation mode: HCD
Collision energy: 30
Resolution: 17500
Column name: Acquity BEH C18 1.7um, 2.1x150mm (Waters)
Retention time: 14.834 min
Base peak: 307.0282
Precursor m/z: 307.0282
Precursor type: [M-H]-
Precursor intensity: 6199993.881348
m/z	relative intensity	assigned
79.9573	28	O3S-
80.9652	3	HO3S-
145.0293	7	C9H5O2-
154.0423	3	C11H6O-
158.037	2	C10H6O2-
190.0272	2	C10H6O4-
197.0245	1	C12H5O3-
198.0323	5	C12H6O3-
200.048	1	C12H8O3-
210.0319	4	C13H6O3-
211.0399	3	C13H7O3-
212.0483	3	C13H8O3-
226.0274	2	C13H6O4-
227.0714	92	C14H11O3-
228.0429	30	C13H8O4-
228.9811	19	C8H5O6S-
263.002	1	C12H7O5S-
264.01	9	C12H8O5S-
290.9969	18	C13H7O6S-
292.005	18	C13H8O6S-
307.0282	999	C14H11O6S-
