Mass spectrum: Octylphosphonic acid; LC-ESI-QFT; MS2; CE: 15; R=17500; [M-H]-
Name: Octylphosphonic acid
Formula: C8H19O3P
Exact mass: 194.1072
SMILES: CCCCCCCCP(O)(O)=O
InChI: InChI=1S/C8H19O3P/c1-2-3-4-5-6-7-8-12(9,10)11/h2-8H2,1H3,(H2,9,10,11)
Instrument: Q Exactive Orbitrap (Thermo Scientific)
Instrument type: LC-ESI-QFT
Ms type: MS2
Ion mode: NEGATIVE
Ionization: ESI
Fragmentation mode: HCD
Collision energy: 15
Resolution: 17500
Column name: Acquity BEH C18 1.7um, 2.1x150mm (Waters)
Retention time: 17.709 min
Base peak: 317.1618
Precursor m/z: 193.0999
Precursor type: [M-H]-
Precursor intensity: 23579406.08984
m/z	relative intensity	assigned
78.9591	999	O3P-
107.0501	48	C7H7O-
107.0866	411	C8H11-
120.0582	61	C8H8O-
121.0294	95	C7H5O2-
136.0531	96	C8H8O2-
137.0242	72	C7H5O3-
