Mass spectrum: 6-Propyl-2-thiouracil; LC-ESI-QFT; MS2; CE: 90; R=17500; [M-H]-
Name: 6-Propyl-2-thiouracil
Name: 6-propyl-2-sulfanyl-1H-pyrimidin-4-one
Formula: C7H10N2OS
Exact mass: 170.0514
SMILES: CCCC1=CC(=O)NC(=S)N1
InChI: InChI=1S/C7H10N2OS/c1-2-3-5-4-6(10)9-7(11)8-5/h4H,2-3H2,1H3,(H2,8,9,10,11)
Instrument: Q Exactive Orbitrap (Thermo Scientific)
Instrument type: LC-ESI-QFT
Ms type: MS2
Ion mode: NEGATIVE
Ionization: ESI
Fragmentation mode: HCD
Collision energy: 90
Resolution: 17500
Column name: Acquity BEH C18 1.7um, 2.1x150mm (Waters)
Retention time: 11.379 min
Base peak: 169.0441
Precursor m/z: 169.0441
Precursor type: [M-H]-
Precursor intensity: 8205200.071533
m/z	relative intensity	assigned
57.9757	999	CNS-
67.0554	2	C5H7-
135.0565	1	C7H7N2O-
