Mass spectrum: Butachlor; LC-ESI-QFT; MS2; CE: 75; R=17500; [M+H]+
Name: Butachlor
Name: N-(butoxymethyl)-2-chloro-N-(2,6-diethylphenyl)acetamide
Formula: C17H26ClNO2
Exact mass: 311.1652
SMILES: CCCCOCN(C(=O)CCl)C1=C(CC)C=CC=C1CC
InChI: InChI=1S/C17H26ClNO2/c1-4-7-11-21-13-19(16(20)12-18)17-14(5-2)9-8-10-15(17)6-3/h8-10H,4-7,11-13H2,1-3H3
Instrument: Q Exactive Orbitrap (Thermo Scientific)
Instrument type: LC-ESI-QFT
Ms type: MS2
Ion mode: POSITIVE
Ionization: ESI
Fragmentation mode: HCD
Collision energy: 75
Resolution: 17500
Column name: Acquity BEH C18 1.7um, 2.1x150mm (Waters)
Retention time: 19.583 min
Base peak: 79.0211
Precursor m/z: 312.1725
Precursor type: [M+H]+
Precursor intensity: 1282900.59375
m/z	relative intensity	assigned
53.0022	63	C3HO+
55.0542	98	C4H7+
57.0699	999	C4H9+
74.0964	107	C4H12N+
90.0106	68	C3H5ClN+
132.0808	218	C9H10N+
146.0967	78	C10H12N+
147.1043	518	C10H13N+
162.1283	86	C11H16N+
