Mass spectrum: 3-((Ethylphenylamino)methyl)benzenesulfonic acid; LC-ESI-QFT; MS2; CE: 90; R=17500; [M+H]+
Name: 3-((Ethylphenylamino)methyl)benzenesulfonic acid
Name: 3-[(N-ethylanilino)methyl]benzenesulfonic acid
Formula: C15H17NO3S
Exact mass: 291.0929
SMILES: CCN(CC1=CC(=CC=C1)S(O)(=O)=O)C1=CC=CC=C1
InChI: InChI=1S/C15H17NO3S/c1-2-16(14-8-4-3-5-9-14)12-13-7-6-10-15(11-13)20(17,18)19/h3-11H,2,12H2,1H3,(H,17,18,19)
Instrument: Q Exactive Orbitrap (Thermo Scientific)
Instrument type: LC-ESI-QFT
Ms type: MS2
Ion mode: POSITIVE
Ionization: ESI
Fragmentation mode: HCD
Collision energy: 90
Resolution: 17500
Column name: Acquity BEH C18 1.7um, 2.1x150mm (Waters)
Retention time: 11.316 min
Base peak: 79.0211
Precursor m/z: 292.1002
Precursor type: [M+H]+
Precursor intensity: 5434344.28125
m/z	relative intensity	assigned
50.0151	1	C4H2+
51.023	2	C4H3+
53.0386	19	C4H5+
77.0384	11	C6H5+
78.0464	6	C6H6+
79.0542	64	C6H7+
90.0464	4	C7H6+
91.0543	1	C7H7+
93.0574	2	C6H7N+
95.0492	61	C6H7O+
103.054	1	C8H7+
104.0495	2	C7H6N+
105.0448	24	H11NO3S+
106.0651	999	C7H8N+
118.0651	2	C8H8N+
120.0808	14	C8H10N+
121.0886	10	C8H11N+
165.07	3	C13H9+
171.011	4	C7H7O3S+
180.0808	5	C13H10N+
181.0888	1	C13H11N+
