Mass spectrum: Famotidine; LC-ESI-QFT; MS2; CE: 90; R=17500; [M+H]+
Name: Famotidine
Name: 3-[[2-(diaminomethylideneamino)-1,3-thiazol-4-yl]methylsulfanyl]-N'-sulfamoylpropanimidamide
Formula: C8H15N7O2S3
Exact mass: 337.0449
SMILES: NC(N)=NC1=NC(CSCCC(N)=NS(N)(=O)=O)=CS1
InChI: InChI=1S/C8H15N7O2S3/c9-6(15-20(12,16)17)1-2-18-3-5-4-19-8(13-5)14-7(10)11/h4H,1-3H2,(H2,9,15)(H2,12,16,17)(H4,10,11,13,14)
Instrument: Q Exactive Orbitrap (Thermo Scientific)
Instrument type: LC-ESI-QFT
Ms type: MS2
Ion mode: POSITIVE
Ionization: ESI
Fragmentation mode: HCD
Collision energy: 90
Resolution: 17500
Column name: Acquity BEH C18 1.7um, 2.1x150mm (Waters)
Retention time: 8.079 min
Base peak: 79.0211
Precursor m/z: 338.0522
Precursor type: [M+H]+
Precursor intensity: 7333873.890625
m/z	relative intensity	assigned
54.0339	173	C3H4N+
61.0107	5	C2H5S+
68.0243	18	C2H2N3+
69.0447	51	C3H5N2+
70.995	302	C3H3S+
71.0604	297	C3H7N2+
76.0216	4	C2H6NS+
79.0291	11	C4H3N2+
84.9856	5	C2HN2S+
85.0509	63	C2H5N4+
86.0059	122	C3H4NS+
88.0216	14	C3H6NS+
102.0121	30	C2H4N3S+
103.0324	5	C3H7N2S+
111.0012	24	C4H3N2S+
113.0168	999	C4H5N2S+
114.0246	72	C4H6N2S+
115.0327	4	C4H7N2S+
131.0274	7	C4H7N2OS+
138.0121	456	C5H4N3S+
139.02	24	C5H5N3S+
145.0429	4	C5H9N2OS+
147.0045	17	C4H7N2S2+
155.0386	166	C5H7N4S+
156.0225	5	C5H6N3OS+
156.0465	29	C5H8N4S+
170.0385	4	C6H8N3OS+
171.9999	4	C5H6N3S2+
