Mass spectrum: 2-Amino-N-(1-methylethyl)benzamide; LC-ESI-QFT; MS2; CE: 15; R=17500; [M+H]+
Name: 2-Amino-N-(1-methylethyl)benzamide
Name: 2-Amino-n-isopropylbenzamide
Name: 2-amino-N-propan-2-ylbenzamide
Formula: C10H14N2O
Exact mass: 178.1106
SMILES: CC(C)NC(=O)C1=C(N)C=CC=C1
InChI: InChI=1S/C10H14N2O/c1-7(2)12-10(13)8-5-3-4-6-9(8)11/h3-7H,11H2,1-2H3,(H,12,13)
Instrument: Q Exactive Orbitrap (Thermo Scientific)
Instrument type: LC-ESI-QFT
Ms type: MS2
Ion mode: POSITIVE
Ionization: ESI
Fragmentation mode: HCD
Collision energy: 15
Resolution: 17500
Column name: Acquity BEH C18 1.7um, 2.1x150mm (Waters)
Retention time: 12.156 min
Base peak: 79.0211
Precursor m/z: 179.1179
Precursor type: [M+H]+
Precursor intensity: 4879133.375
m/z	relative intensity	assigned
72.0443	4	C3H6NO+
92.0494	4	C6H6N+
120.0444	999	C7H6NO+
137.0117	24	C9HN2+
151.0276	3	C10H3N2+
155.0223	15	C9H3N2O+
165.0067	117	C10HN2O+
179.1179	78	C10H15N2O+
