Mass spectrum: Testosterone propionate; LC-ESI-QFT; MS2; CE: 90; R=17500; [M+H]+
Name: Testosterone propionate
Name: [(8R,9S,10R,13S,14S,17S)-10,13-dimethyl-3-oxo-1,2,6,7,8,9,11,12,14,15,16,17-dodecahydrocyclopenta[a]phenanthren-17-yl] propanoate
Formula: C22H32O3
Exact mass: 344.2351
SMILES: CCC(=O)O[C@H]1CC[C@H]2[C@@H]3CCC4=CC(=O)CC[C@]4(C)[C@H]3CC[C@]12C
InChI: InChI=1S/C22H32O3/c1-4-20(24)25-19-8-7-17-16-6-5-14-13-15(23)9-11-21(14,2)18(16)10-12-22(17,19)3/h13,16-19H,4-12H2,1-3H3/t16-,17-,18-,19-,21-,22-/m0/s1
Instrument: Q Exactive Orbitrap (Thermo Scientific)
Instrument type: LC-ESI-QFT
Ms type: MS2
Ion mode: POSITIVE
Ionization: ESI
Fragmentation mode: HCD
Collision energy: 90
Resolution: 17500
Column name: Acquity BEH C18 1.7um, 2.1x150mm (Waters)
Retention time: 19.836 min
Base peak: 79.0211
Precursor m/z: 345.2424
Precursor type: [M+H]+
Precursor intensity: 5217695.484375
m/z	relative intensity	assigned
53.0023	29	C3HO+
53.0386	107	C4H5+
55.0179	103	C3H3O+
55.0543	90	C4H7+
57.0335	140	C3H5O+
65.0386	58	C5H5+
66.0464	15	C5H6+
67.0542	233	C5H7+
69.0335	24	C4H5O+
69.0699	131	C5H9+
77.0385	19	C6H5+
79.0542	813	C6H7+
81.0699	553	C6H9+
82.0414	6	C5H6O+
83.0491	78	C5H7O+
91.0543	397	C7H7+
93.0699	157	C7H9+
94.0414	29	C6H6O+
95.0492	160	C6H7O+
95.0856	88	C7H11+
97.0649	999	C6H9O+
103.0542	24	C8H7+
105.0699	255	C8H9+
107.0492	21	C7H7O+
107.0857	38	C8H11+
108.0569	7	C7H8O+
109.0649	812	C7H9O+
115.0542	22	C9H7+
116.0621	8	C9H8+
117.0699	61	C9H9+
119.0856	99	C9H11+
121.0649	20	C8H9O+
121.1013	7	C9H13+
123.0805	83	C8H11O+
128.0621	32	C10H8+
129.0699	45	C10H9+
130.0778	16	C10H10+
131.0855	51	C10H11+
133.1013	26	C10H13+
141.0698	20	C11H9+
142.0778	29	C11H10+
143.0856	26	C11H11+
144.0933	9	C11H12+
145.0649	5	C10H9O+
145.1012	23	C11H13+
147.1171	6	C11H15+
153.0701	10	C12H9+
154.0779	11	C12H10+
155.0856	22	C12H11+
156.0936	8	C12H12+
157.1016	15	C12H13+
159.1168	7	C12H15+
167.0855	8	C13H11+
168.0936	6	C13H12+
169.1015	11	C13H13+
171.1168	4	C13H15+
181.1012	6	C14H13+
183.1171	7	C14H15+
195.1175	5	C15H15+
