Mass spectrum: CP-457920; LC-ESI-QFT; MS2; CE: 15; R=17500; [M+H]+
Name: CP-457920
Name: 1,5-Naphthyridine-3-carboxamide, 6-ethoxy-1,4-dihydro-4-oxo-N-(phenylmethyl)-
Name: N-benzyl-6-ethoxy-4-oxo-1H-1,5-naphthyridine-3-carboxamide
Formula: C18H17N3O3
Exact mass: 323.1270
SMILES: CCOC1=NC2=C(NC=C(C(=O)NCC3=CC=CC=C3)C2=O)C=C1
InChI: InChI=1S/C18H17N3O3/c1-2-24-15-9-8-14-16(21-15)17(22)13(11-19-14)18(23)20-10-12-6-4-3-5-7-12/h3-9,11H,2,10H2,1H3,(H,19,22)(H,20,23)
Instrument: Q Exactive Orbitrap (Thermo Scientific)
Instrument type: LC-ESI-QFT
Ms type: MS2
Ion mode: POSITIVE
Ionization: ESI
Fragmentation mode: HCD
Collision energy: 15
Resolution: 17500
Column name: Acquity BEH C18 1.7um, 2.1x150mm (Waters)
Retention time: 16.966 min
Base peak: 79.0212
Precursor m/z: 324.1343
Precursor type: [M+H]+
Precursor intensity: 11415651.125
m/z	relative intensity	assigned
91.0542	42	C7H7+
108.0808	3	C7H10N+
189.0307	1	C9H5N2O3+
217.0608	32	C11H9N2O3+
235.0714	131	C14H9N3O+
249.0871	5	C15H11N3O+
281.1286	13	C17H17N2O2+
296.1038	1	C16H14N3O3+
306.1239	22	C18H16N3O2+
324.1334	999	C18H18N3O3+
