Mass spectrum: 1-(4-Methoxyphenyl)-1-pentene-3-one; LC-ESI-QFT; MS2; CE: 75; R=17500; [M+H]+
Name: 1-(4-Methoxyphenyl)-1-pentene-3-one
Name: 1-Penten-3-one, 1-(4-methoxyphenyl)-, (1E)-
Name: 1-(4-methoxyphenyl)pent-1-en-3-one
Formula: C12H14O2
Exact mass: 190.0994
SMILES: CCC(=O)C=CC1=CC=C(OC)C=C1
InChI: InChI=1S/C12H14O2/c1-3-11(13)7-4-10-5-8-12(14-2)9-6-10/h4-9H,3H2,1-2H3
Instrument: Q Exactive Orbitrap (Thermo Scientific)
Instrument type: LC-ESI-QFT
Ms type: MS2
Ion mode: POSITIVE
Ionization: ESI
Fragmentation mode: HCD
Collision energy: 75
Resolution: 17500
Column name: Acquity BEH C18 1.7um, 2.1x150mm (Waters)
Retention time: 17.008 min
Base peak: 79.0211
Precursor m/z: 191.1067
Precursor type: [M+H]+
Precursor intensity: 4923840.25
m/z	relative intensity	assigned
53.0386	18	C4H5+
55.0179	5	C3H3O+
55.0543	21	C4H7+
57.0335	498	C3H5O+
59.0491	3	C3H7O+
65.0386	9	C5H5+
67.0542	3	C5H7+
69.0334	3	C4H5O+
77.0385	6	C6H5+
78.0464	19	C6H6+
79.0543	23	C6H7+
83.0492	5	C5H7O+
91.0543	144	C7H7+
92.0256	4	C6H4O+
93.0699	10	C7H9+
94.0413	13	C6H6O+
95.0492	48	C6H7O+
102.0465	3	C8H6+
103.0542	19	C8H7+
105.0335	3	C7H5O+
105.07	39	C8H9+
106.0415	8	C7H6O+
107.0492	14	C7H7O+
108.057	8	C7H8O+
109.0648	19	C7H9O+
115.0543	565	C9H7+
116.062	9	C9H8+
117.0699	17	C9H9+
118.0415	5	C8H6O+
119.0493	34	C8H7O+
120.0571	18	C8H8O+
121.0648	492	C8H9O+
127.0539	3	C10H7+
128.0621	130	C10H8+
129.0699	212	C10H9+
130.0778	221	C10H10+
131.0492	13	C9H7O+
131.0857	4	C10H11+
132.057	5	C9H8O+
133.0647	23	C9H9O+
134.0726	9	C9H10O+
135.0441	32	C8H7O2+
135.0806	18	C9H11O+
140.0622	8	C11H8+
141.0699	188	C11H9+
142.0413	8	C10H6O+
142.0778	82	C11H10+
143.0492	185	C10H7O+
144.0573	15	C10H8O+
145.065	45	C10H9O+
147.0442	51	C9H7O2+
147.0804	10	C10H11O+
157.065	69	C11H9O+
158.0727	999	C11H10O+
159.0806	32	C11H11O+
160.052	10	C10H8O2+
161.0596	19	C10H9O2+
162.0679	5	C10H10O2+
172.0884	6	C12H12O+
173.0962	13	C12H13O+
175.0755	23	C11H11O2+
176.0832	3	C11H12O2+
191.1068	6	C12H15O2+
