Mass spectrum: Leucomalachite green; LC-ESI-QFT; MS2; CE: 45; R=17500; [M+H]+
Name: Leucomalachite green
Name: 4-[[4-(dimethylamino)phenyl]-phenylmethyl]-N,N-dimethylaniline
Formula: C23H26N2
Exact mass: 330.2096
SMILES: CN(C)C1=CC=C(C=C1)C(C1=CC=CC=C1)C1=CC=C(C=C1)N(C)C
InChI: InChI=1S/C23H26N2/c1-24(2)21-14-10-19(11-15-21)23(18-8-6-5-7-9-18)20-12-16-22(17-13-20)25(3)4/h5-17,23H,1-4H3
Instrument: Q Exactive Orbitrap (Thermo Scientific)
Instrument type: LC-ESI-QFT
Ms type: MS2
Ion mode: POSITIVE
Ionization: ESI
Fragmentation mode: HCD
Collision energy: 45
Resolution: 17500
Column name: Acquity BEH C18 1.7um, 2.1x150mm (Waters)
Retention time: 16.907 min
Base peak: 79.0211
Precursor m/z: 331.2169
Precursor type: [M+H]+
Precursor intensity: 33805708.875
m/z	relative intensity	assigned
118.0651	1	C8H8N+
120.0808	5	C8H10N+
121.0885	8	C8H11N+
134.0963	11	C9H12N+
165.0697	4	C13H9+
180.0805	1	C13H10N+
194.0964	20	C14H12N+
195.1042	59	C14H13N+
196.112	21	C14H14N+
208.112	13	C15H14N+
209.1198	75	C15H15N+
210.1276	52	C15H16N+
223.1224	5	C15H15N2+
224.1296	2	C15H16N2+
225.1393	1	C15H17N2+
237.1389	1	C16H17N2+
238.1466	17	C16H18N2+
239.1541	999	C16H19N2+
253.1706	3	C17H21N2+
270.1271	2	C20H16N+
271.1357	2	C20H17N+
272.1432	96	C20H18N+
285.1504	2	C21H19N+
286.1589	51	C21H20N+
291.1008	15	C22H13N+
301.1699	17	C21H21N2+
315.1855	209	C22H23N2+
316.1933	242	C22H24N2+
331.2169	80	C23H27N2+
