Mass spectrum: Acetazolamide; LC-ESI-QFT; MS2; CE: 90; R=17500; [M+H]+
Name: Acetazolamide
Name: N-(5-sulfamoyl-1,3,4-thiadiazol-2-yl)acetamide
Formula: C4H6N4O3S2
Exact mass: 221.9881
SMILES: CC(=O)NC1=NN=C(S1)S(N)(=O)=O
InChI: InChI=1S/C4H6N4O3S2/c1-2(9)6-3-7-8-4(12-3)13(5,10)11/h1H3,(H2,5,10,11)(H,6,7,9)
Instrument: Q Exactive Orbitrap (Thermo Scientific)
Instrument type: LC-ESI-QFT
Ms type: MS2
Ion mode: POSITIVE
Ionization: ESI
Fragmentation mode: HCD
Collision energy: 90
Resolution: 17500
Column name: Acquity BEH C18 1.7um, 2.1x150mm (Waters)
Retention time: 8.531 min
Base peak: 79.0211
Precursor m/z: 222.9954
Precursor type: [M+H]+
Precursor intensity: 1480505.375
m/z	relative intensity	assigned
56.0495	8	C3H6N+
57.9746	24	CNS+
58.9824	297	CHNS+
59.9903	125	CH2NS+
61.0106	16	C2H5S+
63.9852	71	H2NOS+
72.9855	999	CHN2S+
75.0011	12	CH3N2S+
79.0212	9	C2H7OS+
79.9801	31	H2NO2S+
99.9964	112	C2H2N3S+
102.012	11	C2H4N3S+
116.9663	54	H5O3S2+
118.9632	30	C3H3OS2+
130.982	14	CH7O3S2+
132.9788	15	C4H5OS2+
180.9851	17	C2H5N4O2S2+
181.9689	185	C2H4N3O3S2+
