Mass spectrum: Surinabant; LC-ESI-QFT; MS2; CE: 15; R=17500; [M+H]+
Name: Surinabant
Name: 5-(4-bromophenyl)-1-(2,4-dichlorophenyl)-4-ethyl-N-piperidin-1-ylpyrazole-3-carboxamide
Formula: C23H23BrCl2N4O
Exact mass: 520.0432
SMILES: CCC1=C(N(N=C1C(=O)NN1CCCCC1)C1=CC=C(Cl)C=C1Cl)C1=CC=C(Br)C=C1
InChI: InChI=1S/C23H23BrCl2N4O/c1-2-18-21(23(31)28-29-12-4-3-5-13-29)27-30(20-11-10-17(25)14-19(20)26)22(18)15-6-8-16(24)9-7-15/h6-11,14H,2-5,12-13H2,1H3,(H,28,31)
Instrument: Q Exactive Orbitrap (Thermo Scientific)
Instrument type: LC-ESI-QFT
Ms type: MS2
Ion mode: POSITIVE
Ionization: ESI
Fragmentation mode: HCD
Collision energy: 15
Resolution: 17500
Column name: Acquity BEH C18 1.7um, 2.1x150mm (Waters)
Retention time: 20.203 min
Base peak: 79.0211
Precursor m/z: 521.0505
Precursor type: [M+H]+
Precursor intensity: 15907641.75
m/z	relative intensity	assigned
84.0808	6	C5H10N+
438.9612	27	C23H14BrCl2+
521.0507	999	C23H24BrCl2N4O+
