Mass spectrum: Dinotefuran; LC-ESI-QFT; MS2; CE: 15; R=17500; [M-H]-
Name: Dinotefuran
Name: Scorpion
Name: 2-methyl-1-nitro-3-(oxolan-3-ylmethyl)guanidine
Formula: C7H14N4O3
Exact mass: 202.1066
SMILES: CNC(NCC1CCOC1)=N[N+]([O-])=O
InChI: InChI=1S/C7H14N4O3/c1-8-7(10-11(12)13)9-4-6-2-3-14-5-6/h6H,2-5H2,1H3,(H2,8,9,10)
Instrument: Q Exactive Orbitrap (Thermo Scientific)
Instrument type: LC-ESI-QFT
Ms type: MS2
Ion mode: NEGATIVE
Ionization: ESI
Fragmentation mode: HCD
Collision energy: 15
Resolution: 17500
Column name: Acquity BEH C18 1.7um, 2.1x150mm (Waters)
Retention time: 9.295 min
Base peak: 201.0993
Precursor m/z: 201.0993
Precursor type: [M-H]-
Precursor intensity: 11524837.93896
m/z	relative intensity	assigned
55.0301	34	C2H3N2-
56.0142	2	C2H2NO-
58.0299	3	C2H4NO-
61.0044	999	HN2O2-
66.0349	12	C4H4N-
67.0301	3	C3H3N2-
68.0506	81	C4H6N-
69.0095	3	C2HN2O-
73.0408	36	C2H5N2O-
78.0349	1	C5H4N-
80.0508	5	C5H6N-
82.0299	6	C4H4NO-
82.0663	4	C5H8N-
98.0611	8	C5H8NO-
100.0769	10	C5H10NO-
107.0615	1	C6H7N2-
108.0455	3	C6H6NO-
109.0771	52	C6H9N2-
111.0928	6	C6H11N2-
117.0417	5	C2H5N4O2-
127.0877	4	C6H11N2O-
139.0878	42	C7H11N2O-
157.0983	16	C7H13N2O2-
201.0994	694	C7H13N4O3-
