Mass spectrum: Isoxaben; LC-ESI-QFT; MS2; CE: 90; R=17500; [M-H]-
Name: Isoxaben
Name: 2,6-dimethoxy-N-[3-(3-methylpentan-3-yl)-1,2-oxazol-5-yl]benzamide
Formula: C18H24N2O4
Exact mass: 332.1736
SMILES: CCC(C)(CC)C1=NOC(NC(=O)C2=C(OC)C=CC=C2OC)=C1
InChI: InChI=1S/C18H24N2O4/c1-6-18(3,7-2)14-11-15(24-20-14)19-17(21)16-12(22-4)9-8-10-13(16)23-5/h8-11H,6-7H2,1-5H3,(H,19,21)
Instrument: Q Exactive Orbitrap (Thermo Scientific)
Instrument type: LC-ESI-QFT
Ms type: MS2
Ion mode: NEGATIVE
Ionization: ESI
Fragmentation mode: HCD
Collision energy: 90
Resolution: 17500
Column name: Acquity BEH C18 1.7um, 2.1x150mm (Waters)
Retention time: 17.361 min
Base peak: 341.0253
Precursor m/z: 331.1663
Precursor type: [M-H]-
Precursor intensity: 4867991.168945
m/z	relative intensity	assigned
65.0146	60	C3HN2-
65.9986	999	C3NO-
66.035	128	C4H4N-
72.9931	64	C2HO3-
91.019	101	C6H3O-
93.0347	152	C6H5O-
95.0139	196	C5H3O2-
105.0221	135	C6H3NO-
108.0217	466	C6H4O2-
108.0821	49	C7H10N-
117.0225	48	C7H3NO-
117.0346	85	C8H5O-
118.0301	94	C7H4NO-
120.0092	93	C6H2NO2-
121.0295	790	C7H5O2-
133.017	496	C7H3NO2-
133.0295	372	C8H5O2-
134.0249	104	C7H4NO2-
148.0406	120	C8H6NO2-
161.0245	119	C9H5O3-
