Mass spectrum: Prodiamine; LC-ESI-QFT; MS2; CE: 60; R=17500; [M-H]-
Name: Prodiamine
Name: 2,4-dinitro-3-N,3-N-dipropyl-6-(trifluoromethyl)benzene-1,3-diamine
Formula: C13H17F3N4O4
Exact mass: 350.1202
SMILES: CCCN(CCC)C1=C(C(N)=C(C=C1[N+]([O-])=O)C(F)(F)F)[N+]([O-])=O
InChI: InChI=1S/C13H17F3N4O4/c1-3-5-18(6-4-2)11-9(19(21)22)7-8(13(14,15)16)10(17)12(11)20(23)24/h7H,3-6,17H2,1-2H3
Instrument: Q Exactive Orbitrap (Thermo Scientific)
Instrument type: LC-ESI-QFT
Ms type: MS2
Ion mode: NEGATIVE
Ionization: ESI
Fragmentation mode: HCD
Collision energy: 60
Resolution: 17500
Column name: Acquity BEH C18 1.7um, 2.1x150mm (Waters)
Retention time: 19.704 min
Base peak: 349.1128
Precursor m/z: 349.1129
Precursor type: [M-H]-
Precursor intensity: 59497018.40234
m/z	relative intensity	assigned
50.0036	54	C3N-
57.9935	40	CNO2-
64.0066	183	C3N2-
65.0145	305	C3HN2-
65.9986	999	C3NO-
68.0143	23	C3H2NO-
68.9958	89	CF3-
70.9939	40	C3FO-
73.0295	79	C3H5O2-
74.0036	104	C5N-
76.0006	20	C2F2N-
76.0067	37	C4N2-
77.0144	29	C4HN2-
79.9905	22	C4O2-
81.002	28	C4FN-
84.9968	22	C3FNO-
86.9887	23	C3FO2-
88.0005	825	C3F2N-
88.0067	450	C5N2-
89.0145	219	C5HN2-
89.9985	115	C5NO-
90.0098	91	C4N3-
92.0254	20	C4H2N3-
92.9958	28	C3F3-
93.0096	22	C4HN2O-
94.0045	23	C3N3O-
95.005	55	C4FN2-
100.0004	142	C4F2N-
101.0146	97	C6HN2-
102.0098	52	C5N3-
103.9954	182	C3F2NO-
104.0015	26	C5N2O-
104.0505	28	C2H5FN4-
106.9987	21	C3F3N-
107.0051	139	C5FN2-
108.0064	37	C3HF3N-
108.0216	64	CH3FN3O2-
108.9906	106	C3F3O-
108.9969	148	C5FNO-
109.0206	28	C5H2FN2-
111	125	C4FN2O-
112.0005	384	C5F2N-
112.0066	40	C7N2-
113.0148	31	C7HN2-
114.0097	176	C6N3-
115.0177	36	C6HN3-
115.0301	45	C7H3N2-
116.0252	73	C6H2N3-
117.0094	46	C6HN2O-
117.0208	51	C5HN4-
117.046	18	C7H5N2-
118.0409	25	C6H4N3-
119.0051	131	C6FN2-
119.0251	243	C6H3N2O-
120.0067	59	C4HF3N-
120.0203	22	C5H2N3O-
121.0086	20	C10H-
121.0207	21	C6H2FN2-
124.0002	42	C6F2N-
124.0078	30	C8N2-
126.0034	129	C5F2N2-
126.0097	97	C7N3-
127.0113	73	C5HF2N2-
127.0176	140	C7HN3-
127.9955	35	C5F2NO-
128.0253	19	C7H2N3-
128.0383	14	C8H4N2-
129.0094	19	C7HN2O-
129.0331	19	C7H3N3-
129.0459	114	C8H5N2-
130.0285	34	C6H2N4-
130.9988	318	C5F3N-
131.0044	23	C7FN2-
131.0123	20	C6HN3O-
132.0066	41	C5HF3N-
133.0021	316	C4F3N2-
133.008	40	C6FN3-
133.0206	67	C7H2FN2-
133.0408	18	C7H5N2O-
134.0051	18	C7HFNO-
134.0161	361	C6HFN3-
135.0001	72	C6FN2O-
136.0016	225	C4HF3NO-
136.0074	29	C6HFN2O-
136.0203	115	C7H3FNO-
137.0157	52	C6H2FN2O-
138.0098	29	C8N3-
139.0038	57	C6H3O4-
139.0113	218	C6HF2N2-
139.9954	30	C6F2NO-
140.0256	55	C8H2N3-
141.0458	56	C9H5N2-
142.0409	59	C8H4N3-
143.0251	29	C8H3N2O-
143.0363	37	C7H3N4-
143.0483	20	C8H5N3-
144.0068	179	C6HF3N-
144.0203	58	C7H2N3O-
144.0569	40	C8H6N3-
145.0019	410	C5F3N2-
145.052	83	C7H5N4-
146.0104	114	C5HF3N2-
146.9939	37	C5F3NO-
147.0002	45	C7FN2O-
147.024	129	C12H3-
148.0077	38	C7HFN2O-
149.0032	35	C6FN3O-
150.0036	38	C7F2N2-
150.0359	18	C3H4F2N4O-
151.0113	100	C7HF2N2-
151.9956	25	C7F2NO-
152.0066	24	C6F2N3-
152.0129	21	C8N4-
152.0254	25	C9H2N3-
154.0287	19	C8H2N4-
154.041	54	C9H4N3-
155.0057	34	C6HF2N2O-
155.0125	131	C8HN3O-
155.049	25	C9H5N3-
156.008	17	C7N4O-
156.0202	50	C8H2N3O-
156.0269	38	C7H4F2NO-
156.0329	35	C9H4N2O-
156.0566	72	C9H6N3-
157.0019	835	C6F3N2-
158.0096	69	C6HF3N2-
158.016	137	C8HFN3-
158.0357	19	C8H4N3O-
159.0111	22	C7FN4-
159.0176	237	C6H2F3N2-
159.0243	29	C13H3-
159.0364	50	C9H4FN2-
160.0015	275	C6HF3NO-
160.0318	109	C13H4-
160.9967	106	C5F3N2O-
161.0156	43	C8H2FN2O-
161.0521	25	C9H6FN2-
162.0107	107	C7HFN3O-
162.0174	27	C6H3F3NO-
163.0122	15	C5H2F3N2O-
164.0064	35	C7F2N3-
164.0266	17	C7H3FN3O-
165.0106	29	C7H2FN2O2-
166.0411	48	C10H4N3-
167.006	36	C7HF2N2O-
167.0363	53	C9H3N4-
168.0133	22	C10HFN2-
168.0204	64	C9H2N3O-
168.057	21	C10H6N3-
169.0019	22	C7F3N2-
169.0218	19	C7H3F2N2O-
169.0408	53	C10H5N2O-
169.0521	47	C9H5N4-
170.0099	98	C7HF3N2-
171.0174	82	C7H2F3N2-
172.0016	45	C7HF3NO-
172.0196	27	C13H2N-
172.0315	37	C9H3FN3-
173.003	49	C8FN3O-
173.0208	62	C11H3F2-
173.0394	98	C9H4FN3-
174.0045	135	C6HF3N2O-
174.0472	66	C9H5FN3-
175.0189	201	C13H3O-
175.0312	56	C9H4FN2O-
176.0266	61	C8H3FN3O-
176.0395	18	C9H5FN2O-
177.047	26	C9H6FN2O-
180.0012	21	C7F2N3O-
181.0221	49	C8H3F2N2O-
182.0364	80	C10H4N3O-
184.0129	354	C7HF3N3-
184.0314	26	C10H3FN3-
184.0514	96	C10H6N3O-
184.9969	87	C7F3N2O-
186.0286	51	C12H4F2-
186.0473	102	C10H5FN3-
187.0129	111	C7H2F3N2O-
187.0555	32	C10H6FN3-
187.9963	74	C7HF3NO2-
188.0266	138	C9H3FN3O-
188.063	70	C10H7FN3-
189.0468	29	C10H6FN2O-
190.012	65	C7H3F3NO2-
190.0207	17	C3H5F3N2O4-
191.0074	79	C6H2F3N2O2-
191.0298	57	C9H3F2N3-
194.0171	34	C8H2F2N3O-
195.0249	44	C8H3F2N3O-
197.0166	86	C5H4F3N2O3-
199.0487	28	C9H6F3N2-
200.0269	41	C10H3FN3O-
201.0154	34	C7H2F3N3O-
201.0342	16	C10H4FN3O-
201.0644	18	C9H8F3N2-
201.9995	266	C7HF3N2O2-
202.0423	64	C10H5FN3O-
204.0024	131	C6HF3N3O2-
204.038	35	C10H4F2N3-
204.0574	32	C10H7FN3O-
206.0535	169	C10H6F2N3-
210.0282	141	C9H3F3N3-
211.0238	32	C8H2F3N4-
212.0283	24	C13H5FO2-
212.0437	73	C9H5F3N3-
214.0233	249	C8H3F3N3O-
215.0313	285	C8H4F3N3O-
215.0426	17	C12H5F2N2-
216.1142	784	C12H14N3O-
217.0229	59	C8H4F3N2O2-
217.9942	50	C7HF3N2O3-
218.0183	63	C7H3F3N3O2-
222.0484	31	C10H6F2N3O-
224.0284	74	C6H5F3N3O3-
224.044	19	C10H5F3N3-
225.0232	50	C13H4FNO2-
225.0512	23	C10H6F3N3-
228.0263	48	C8H3F3N4O-
228.0385	36	C9H5F3N3O-
230.0183	127	C8H3F3N3O2-
231.0134	66	C7H2F3N4O2-
231.0321	25	C13H4F3N-
231.9975	658	C7HF3N3O3-
233.048	25	C10H6FN4O2-
235.0438	32	C10H5F2N4O-
237.0396	116	C10H4F3N4-
238.0464	59	C9H9F3O4-
240.039	173	C10H5F3N3O-
241.0339	19	C9H4F3N4O-
241.0467	41	C10H6F3N3O-
242.0547	151	C10H7F3N3O-
243.0135	37	C8H2F3N4O2-
244.0211	21	C8H3F3N4O2-
244.0335	89	C9H5F3N3O2-
244.0706	70	C10H9F3N3O-
250.0078	18	C7H3F3N3O4-
251.0387	26	C10H5F2N4O2-
255.0499	136	C10H6F3N4O-
259.1064	126	C12H14F3N2O-
