Mass spectrum: 4-Pentylaniline; LC-ESI-QFT; MS2; CE: 45; R=17500; [M+H]+
Name: 4-Pentylaniline
Formula: C11H17N
Exact mass: 163.1361
SMILES: CCCCCC1=CC=C(N)C=C1
InChI: InChI=1S/C11H17N/c1-2-3-4-5-10-6-8-11(12)9-7-10/h6-9H,2-5,12H2,1H3
Instrument: Q Exactive Orbitrap (Thermo Scientific)
Instrument type: LC-ESI-QFT
Ms type: MS2
Ion mode: POSITIVE
Ionization: ESI
Fragmentation mode: HCD
Collision energy: 45
Resolution: 17500
Column name: Acquity BEH C18 1.7um, 2.1x150mm (Waters)
Retention time: 15.630 min
Base peak: 79.0211
Precursor m/z: 164.1434
Precursor type: [M+H]+
Precursor intensity: 21800436.6875
m/z	relative intensity	assigned
55.0542	3	C4H7+
71.0855	6	C5H11+
91.0542	37	C7H7+
93.0571	3	C6H7N+
94.0651	244	C6H8N+
105.0698	4	C8H9+
106.0649	4	C7H8N+
107.0728	16	C7H9N+
164.1433	999	C11H18N+
