Mass spectrum: Atorvastatin; LC-ESI-QFT; MS2; CE: 45; R=17500; [M+H]+
Name: Atorvastatin
Name: (3R,5R)-7-[2-(4-fluorophenyl)-3-phenyl-4-(phenylcarbamoyl)-5-propan-2-ylpyrrol-1-yl]-3,5-dihydroxyheptanoic acid
Formula: C33H35FN2O5
Exact mass: 558.2530
SMILES: CC(C)c1c(C(=O)Nc2ccccc2)c(-c2ccccc2)c(-c2ccc(F)cc2)n1CC[C@@H](O)C[C@@H](O)CC(O)=O
InChI: InChI=1S/C33H35FN2O5/c1-21(2)31-30(33(41)35-25-11-7-4-8-12-25)29(22-9-5-3-6-10-22)32(23-13-15-24(34)16-14-23)36(31)18-17-26(37)19-27(38)20-28(39)40/h3-16,21,26-27,37-38H,17-20H2,1-2H3,(H,35,41)(H,39,40)/t26-,27-/m1/s1
Instrument: Q Exactive Orbitrap (Thermo Scientific)
Instrument type: LC-ESI-QFT
Ms type: MS2
Ion mode: POSITIVE
Ionization: ESI
Fragmentation mode: HCD
Collision energy: 45
Resolution: 17500
Column name: Acquity BEH C18 1.7um, 2.1x150mm (Waters)
Retention time: 17.830 min
Base peak: 79.0211
Precursor m/z: 559.2603
Precursor type: [M+H]+
Precursor intensity: 8265818.625
m/z	relative intensity	assigned
53.0386	2	C4H5+
55.0543	7	C4H7+
57.0335	2	C3H5O+
59.0492	1	C3H7O+
65.0387	1	C5H5+
69.0698	2	C5H9+
71.0127	7	C3H3O2+
71.0491	3	C4H7O+
79.0542	30	C6H7+
81.0335	1	C5H5O+
81.0699	2	C6H9+
83.0491	24	C5H7O+
89.0234	10	C3H5O3+
91.0543	2	C7H7+
92.0495	20	C6H6N+
94.0649	1	C6H8N+
95.0492	6	C6H7O+
97.0285	3	C5H5O2+
97.0648	4	C6H9O+
99.0806	5	C6H11O+
101.0598	17	C5H9O2+
104.0495	1	C7H6N+
105.0447	2	C6H5N2+
106.0652	1	C7H8N+
107.0491	3	C7H7O+
109.0448	3	C7H6F+
113.0597	2	C6H9O2+
115.0542	3	C9H7+
117.0573	1	C8H7N+
120.0444	31	C7H6NO+
122.0402	2	C7H5FN+
125.0597	5	C7H9O2+
129.0698	4	C10H9+
132.0445	3	C8H6NO+
133.0447	4	C9H6F+
135.0478	1	C8H6FN+
143.0706	1	C4H12FO4+
143.0857	1	C11H11+
185.0763	2	C13H10F+
200.0865	1	C13H11FN+
203.0858	2	C16H11+
209.0759	9	C15H10F+
223.0911	4	C16H12F+
230.0965	6	C17H12N+
233.0762	13	C17H10F+
234.0834	1	C17H11F+
235.0794	6	C16H10FN+
236.0871	3	C16H11FN+
237.0951	12	C16H12FN+
238.1028	82	C16H13FN+
248.0872	24	C17H11FN+
249.095	79	C17H12FN+
250.1027	999	C17H13FN+
251.1103	7	C17H14FN+
252.1182	29	C17H15FN+
259.0919	1	C19H12F+
260.0862	1	C18H11FN+
261.095	6	C18H12FN+
261.1085	1	C19H14F+
262.1028	54	C18H13FN+
263.1098	3	C18H14FN+
264.0823	13	C17H11FNO+
264.1183	19	C18H15FN+
274.1023	7	C19H13FN+
275.1103	5	C19H14FN+
276.0828	43	C18H11FNO+
276.1183	395	C19H15FN+
277.126	17	C19H16FN+
278.0976	5	C18H13FNO+
278.134	9	C19H17FN+
279.1419	9	C19H18FN+
280.1497	14	C19H19FN+
287.1111	1	C20H14FN+
288.1187	9	C20H15FN+
289.1265	6	C20H16FN+
290.1342	21	C20H17FN+
291.142	2	C20H18FN+
292.1497	169	C20H19FN+
294.0929	2	C18H13FNO2+
294.1653	19	C20H21FN+
300.1184	7	C21H15FN+
301.1263	2	C21H16FN+
302.0981	18	C20H13FNO+
302.1341	57	C21H17FN+
303.1061	1	C20H14FNO+
303.1422	6	C21H18FN+
304.15	3	C21H19FN+
306.1289	33	C20H17FNO+
314.1337	1	C22H17FN+
316.1136	2	C21H15FNO+
316.1496	19	C22H19FN+
317.1573	1	C22H20FN+
318.1302	15	C21H17FNO+
318.1652	43	C22H21FN+
320.112	5	C20H15FNO2+
320.1447	43	C21H19FNO+
328.1153	1	C22H15FNO+
334.1242	7	C21H17FNO2+
336.1759	14	C22H23FNO+
344.1448	19	C23H19FNO+
344.1814	2	C24H23FN+
360.1398	2	C23H19FNO2+
362.1552	76	C23H21FNO2+
369.1403	2	C24H18FN2O+
380.1661	42	C23H23FNO3+
388.1346	2	C24H19FNO3+
402.1875	1	C26H25FNO2+
404.2022	4	C26H27FNO2+
406.1816	13	C25H25FNO3+
422.2135	4	C26H29FNO3+
430.1809	1	C27H25FNO3+
440.2237	8	C26H31FNO4+
466.2028	18	C27H29FNO5+
