Mass spectrum: Tetraconazole; LC-ESI-QFT; MS2; CE: 45; R=17500; [M+H]+
Name: Tetraconazole
Name: 1-[2-(2,4-dichlorophenyl)-3-(1,1,2,2-tetrafluoroethoxy)propyl]-1,2,4-triazole
Formula: C13H11Cl2F4N3O
Exact mass: 371.0215
SMILES: FC(F)C(F)(F)OCC(CN1C=NC=N1)C1=C(Cl)C=C(Cl)C=C1
InChI: InChI=1S/C13H11Cl2F4N3O/c14-9-1-2-10(11(15)3-9)8(4-22-7-20-6-21-22)5-23-13(18,19)12(16)17/h1-3,6-8,12H,4-5H2
Instrument: Q Exactive Orbitrap (Thermo Scientific)
Instrument type: LC-ESI-QFT
Ms type: MS2
Ion mode: POSITIVE
Ionization: ESI
Fragmentation mode: HCD
Collision energy: 45
Resolution: 17500
Column name: Acquity BEH C18 1.7um, 2.1x150mm (Waters)
Retention time: 17.947 min
Base peak: 79.0212
Precursor m/z: 372.0288
Precursor type: [M+H]+
Precursor intensity: 16818321.75
m/z	relative intensity	assigned
59.0291	1	C3H4F+
70.0399	586	C2H4N3+
149.0153	30	C9H6Cl+
150.0231	66	C9H7Cl+
158.9762	999	C7H5Cl2+
171.0021	3	C2H9Cl2F2NO+
172.0053	2	C12N2+
176.9668	16	C7H4Cl2F+
177.0211	1	C12H3NO+
184.9919	34	C9H7Cl2+
204.998	5	C4H7Cl2F2N3+
372.029	1	C13H12Cl2F4N3O+
