Mass spectrum: Thiabendazole; LC-ESI-QFT; MS2; CE: 75; R=17500; [M+H]+
Name: Thiabendazole
Name: 4-(1H-benzimidazol-2-yl)-1,3-thiazole
Formula: C10H7N3S
Exact mass: 201.0361
SMILES: N1C2=C(C=CC=C2)N=C1C1=CSC=N1
InChI: InChI=1S/C10H7N3S/c1-2-4-8-7(3-1)12-10(13-8)9-5-14-6-11-9/h1-6H,(H,12,13)
Instrument: Q Exactive Orbitrap (Thermo Scientific)
Instrument type: LC-ESI-QFT
Ms type: MS2
Ion mode: POSITIVE
Ionization: ESI
Fragmentation mode: HCD
Collision energy: 75
Resolution: 17500
Column name: Acquity BEH C18 1.7um, 2.1x150mm (Waters)
Retention time: 11.145 min
Base peak: 79.0212
Precursor m/z: 202.0433
Precursor type: [M+H]+
Precursor intensity: 31889865.75
m/z	relative intensity	assigned
65.0386	52	C5H5+
92.0495	88	C6H6N+
104.0494	5	C7H6N+
118.0524	2	C7H6N2+
119.0604	2	C7H7N2+
129.0447	1	C8H5N2+
131.0604	340	C8H7N2+
134.0058	3	C7H4NS+
142.0528	1	C9H6N2+
143.0604	35	C9H7N2+
144.0558	1	C8H6N3+
148.0218	1	C8H6NS+
151.0326	1	C7H7N2S+
157.0636	6	C9H7N3+
158.0713	33	C9H8N3+
161.017	1	C8H5N2S+
162.0248	1	C8H6N2S+
168.0558	1	C10H6N3+
169.0633	5	C10H7N3+
170.0713	12	C10H8N3+
174.0248	1	C9H6N2S+
175.0324	999	C9H7N2S+
202.0433	455	C10H8N3S+
