Mass spectrum: GSK163929B; LC-ESI-QFT; MS2; CE: 90; R=17500; [M-H]-
Name: GSK163929B
Name: 4-chloro-2-fluoro-5-[4-(3-fluorophenyl)-4-[2-[3-(2-methylbenzimidazol-1-yl)-8-azabicyclo[3.2.1]octan-8-yl]ethyl]piperidine-1-carbonyl]-N-methylbenzenesulfonamide
Formula: C36H40ClF2N5O3S
Exact mass: 695.2508
SMILES: CNS(=O)(=O)C1=C(F)C=C(Cl)C(=C1)C(=O)N1CCC(CCN2C3CCC2CC(C3)N2C(C)=NC3=C2C=CC=C3)(CC1)C1=CC(F)=CC=C1
InChI: InChI=1S/C36H40ClF2N5O3S/c1-23-41-32-8-3-4-9-33(32)44(23)28-19-26-10-11-27(20-28)43(26)17-14-36(24-6-5-7-25(38)18-24)12-15-42(16-13-36)35(45)29-21-34(48(46,47)40-2)31(39)22-30(29)37/h3-9,18,21-22,26-28,40H,10-17,19-20H2,1-2H3
Instrument: Q Exactive Orbitrap (Thermo Scientific)
Instrument type: LC-ESI-QFT
Ms type: MS2
Ion mode: NEGATIVE
Ionization: ESI
Fragmentation mode: HCD
Collision energy: 90
Resolution: 17500
Column name: Acquity BEH C18 1.7um, 2.1x150mm (Waters)
Retention time: 13.105 min
Base peak: 345.1342
Precursor m/z: 694.2436
Precursor type: [M-H]-
Precursor intensity: 620716.03125
m/z	relative intensity	assigned
63.9625	108	O2S-
64.9703	121	HO2S-
82.9609	14	FO2S-
130.0536	108	C8H6N2-
131.0615	999	C8H7N2-
143.0251	44	C8H3N2O-
162.0435	213	C8H6N2O2-
169.0407	10	C10H5N2O-
