Mass spectrum: Endothal; LC-ESI-QFT; MS2; CE: 90; R=17500; [M-H]-
Name: Endothal
Name: Endothall
Name: 7-oxabicyclo[2.2.1]heptane-2,3-dicarboxylic acid
Formula: C8H10O5
Exact mass: 186.0528
SMILES: OC(=O)C1C2CCC(O2)C1C(O)=O
InChI: InChI=1S/C8H10O5/c9-7(10)5-3-1-2-4(13-3)6(5)8(11)12/h3-6H,1-2H2,(H,9,10)(H,11,12)
Instrument: Q Exactive Orbitrap (Thermo Scientific)
Instrument type: LC-ESI-QFT
Ms type: MS2
Ion mode: NEGATIVE
Ionization: ESI
Fragmentation mode: HCD
Collision energy: 90
Resolution: 17500
Column name: Acquity BEH C18 1.7um, 2.1x150mm (Waters)
Retention time: 7.968 min
Base peak: 198.9364
Precursor m/z: 185.0455
Precursor type: [M-H]-
Precursor intensity: 1502863.392822
m/z	relative intensity	assigned
141.0557	999	C7H9O3-
