Mass spectrum: Venlafaxine; LC-ESI-QFT; MS2; CE: 60; R=17500; [M+H]+
Name: Venlafaxine
Name: 1-[2-(dimethylamino)-1-(4-methoxyphenyl)ethyl]cyclohexan-1-ol
Formula: C17H27NO2
Exact mass: 277.2042
SMILES: COC1=CC=C(C=C1)C(CN(C)C)C1(O)CCCCC1
InChI: InChI=1S/C17H27NO2/c1-18(2)13-16(17(19)11-5-4-6-12-17)14-7-9-15(20-3)10-8-14/h7-10,16,19H,4-6,11-13H2,1-3H3
Instrument: Q Exactive Orbitrap (Thermo Scientific)
Instrument type: LC-ESI-QFT
Ms type: MS2
Ion mode: POSITIVE
Ionization: ESI
Fragmentation mode: HCD
Collision energy: 60
Resolution: 17500
Column name: Acquity BEH C18 1.7um, 2.1x150mm (Waters)
Retention time: 13.882 min
Base peak: 79.0211
Precursor m/z: 278.2115
Precursor type: [M+H]+
Precursor intensity: 33858082
m/z	relative intensity	assigned
55.0542	1	C4H7+
56.0495	5	C3H6N+
58.0651	999	C3H8N+
67.0543	3	C5H7+
69.0699	6	C5H9+
79.0542	13	C6H7+
81.0699	15	C6H9+
91.0542	27	C7H7+
93.0699	6	C7H9+
95.0492	1	C6H7O+
105.0699	2	C8H9+
107.0492	3	C7H7O+
107.0855	6	C8H11+
109.0648	4	C7H9O+
115.0543	1	C9H7+
117.0698	2	C9H9+
119.0856	2	C9H11+
121.0648	199	C8H9O+
129.0698	1	C10H9+
131.0491	1	C9H7O+
132.057	7	C9H8O+
133.0648	1	C9H9O+
135.0804	11	C9H11O+
141.0699	1	C11H9+
144.0572	3	C10H8O+
145.0648	2	C10H9O+
146.0725	1	C10H10O+
147.0804	77	C10H11O+
155.0854	1	C12H11+
158.0727	7	C11H10O+
159.0805	17	C11H11O+
161.0962	2	C11H13O+
162.0915	3	C10H12NO+
163.0993	3	C10H13NO+
173.0961	22	C12H13O+
177.115	3	C11H15NO+
178.1224	1	C11H16NO+
187.1117	1	C13H15O+
215.1433	2	C15H19O+
