Mass spectrum: Ancymidol; LC-ESI-QFT; MS2; CE: 15; R=17500; [M+H]+
Name: Ancymidol
Name: cyclopropyl-(4-methoxyphenyl)-pyrimidin-5-ylmethanol
Formula: C15H16N2O2
Exact mass: 256.1212
SMILES: COC1=CC=C(C=C1)C(O)(C1CC1)C1=CN=CN=C1
InChI: InChI=1S/C15H16N2O2/c1-19-14-6-4-12(5-7-14)15(18,11-2-3-11)13-8-16-10-17-9-13/h4-11,18H,2-3H2,1H3
Instrument: Q Exactive Orbitrap (Thermo Scientific)
Instrument type: LC-ESI-QFT
Ms type: MS2
Ion mode: POSITIVE
Ionization: ESI
Fragmentation mode: HCD
Collision energy: 15
Resolution: 17500
Column name: Acquity BEH C18 1.7um, 2.1x150mm (Waters)
Retention time: 15.425 min
Base peak: 79.0211
Precursor m/z: 257.1285
Precursor type: [M+H]+
Precursor intensity: 8088328.03125
m/z	relative intensity	assigned
81.0447	18	C4H5N2+
95.0491	1	C6H7O+
121.0648	1	C8H9O+
121.076	1	C7H9N2+
122.0599	5	C7H8NO+
135.0439	16	C8H7O2+
149.0709	5	C8H9N2O+
161.0961	1	C11H13O+
165.0064	2	C10HN2O+
171.0803	1	C12H11O+
177.0909	10	C11H13O2+
185.096	10	C13H13O+
195.0802	3	C14H11O+
202.122	2	C13H16NO+
212.1071	3	C14H14NO+
213.0912	5	C14H13O2+
215.0817	3	C12H11N2O2+
216.0891	1	C12H12N2O2+
225.01	4	C15HN2O+
230.1178	4	C14H16NO2+
239.1178	14	C15H15N2O+
242.1049	1	C14H14N2O2+
257.1283	999	C15H17N2O2+
