Mass spectrum: PharmaGSID_48506; LC-ESI-QFT; MS2; CE: 75; R=17500; [M+H]+
Name: PharmaGSID_48506
Name: (2R)-2-(3-chloro-4-methylsulfonylphenyl)-3-cyclopentyl-N-pyrazin-2-ylpropanamide
Formula: C19H22ClN3O3S
Exact mass: 407.1070
SMILES: CS(=O)(=O)C1=CC=C(C=C1Cl)[C@@H](CC1CCCC1)C(=O)NC1=NC=CN=C1
InChI: InChI=1S/C19H22ClN3O3S/c1-27(25,26)17-7-6-14(11-16(17)20)15(10-13-4-2-3-5-13)19(24)23-18-12-21-8-9-22-18/h6-9,11-13,15H,2-5,10H2,1H3,(H,22,23,24)/t15-/m1/s1
Instrument: Q Exactive Orbitrap (Thermo Scientific)
Instrument type: LC-ESI-QFT
Ms type: MS2
Ion mode: POSITIVE
Ionization: ESI
Fragmentation mode: HCD
Collision energy: 75
Resolution: 17500
Column name: Acquity BEH C18 1.7um, 2.1x150mm (Waters)
Retention time: 17.918 min
Base peak: 79.0211
Precursor m/z: 408.1143
Precursor type: [M+H]+
Precursor intensity: 7946913.75
m/z	relative intensity	assigned
51.0104	1	C3HN+
51.023	1	C4H3+
52.0182	29	C3H2N+
53.0022	5	C3HO+
53.0386	4	C4H5+
55.0543	12	C4H7+
62.9899	4	CH3OS+
65.0385	6	C5H5+
67.0542	15	C5H7+
69.0447	44	C3H5N2+
69.0698	42	C5H9+
77.0384	8	C6H5+
78.0461	1	C6H6+
78.9848	47	CH3O2S+
79.0291	4	C4H3N2+
79.0541	13	C6H7+
80.062	2	C6H8+
81.0699	32	C6H9+
89.0386	4	C7H5+
91.0542	31	C7H7+
93.0702	1	C7H9+
95.0492	8	C6H7O+
95.0856	5	C7H11+
96.0556	999	C4H6N3+
97.0396	280	C4H5N2O+
100.0074	2	C5H5Cl+
102.0465	2	C8H6+
103.0542	26	C8H7+
105.0336	11	C7H5O+
105.0446	3	C6H5N2+
105.07	5	C8H9+
107.0491	1	C7H7O+
109.0648	2	C7H9O+
111.0109	1	C2H7O3S+
111.0552	6	C5H7N2O+
112.0073	3	C6H5Cl+
113.0151	2	C6H6Cl+
115.0542	74	C9H7+
116.0621	3	C9H8+
117.0699	21	C9H9+
119.0491	4	C8H7O+
120.0568	7	C8H8O+
124.0074	3	C7H5Cl+
125.0152	15	C7H6Cl+
127.0308	5	C7H8Cl+
127.0542	3	C10H7+
128.062	104	C10H8+
129.0698	260	C10H9+
137.0151	3	C8H6Cl+
138.0231	86	C8H7Cl+
139.0309	10	C8H8Cl+
141.0101	235	C7H6ClO+
141.0698	21	C11H9+
142.0777	111	C11H10+
143.0855	64	C11H11+
145.0648	25	C10H9O+
149.0153	17	C9H6Cl+
150.0231	41	C9H7Cl+
151.0309	9	C9H8Cl+
155.0258	27	C8H8ClO+
155.0604	32	C10H7N2+
162.023	17	C10H7Cl+
163.0309	303	C10H8Cl+
164.0387	81	C10H9Cl+
169.076	10	C11H9N2+
169.1012	1	C13H13+
171.1168	66	C13H15+
176.0389	1	C11H9Cl+
177.0465	275	C11H10Cl+
178.0544	7	C11H11Cl+
188.039	1	C12H9Cl+
191.062	8	C12H12Cl+
202.9928	18	C8H8ClO2S+
205.0782	1	C13H14Cl+
206.0854	2	C13H15Cl+
217.0083	4	C9H10ClO2S+
