Mass spectrum: Ethyl 2-cyano-3,3-diphenylacrylate; LC-ESI-QFT; MS2; CE: 75; R=17500; [M+H]+
Name: Ethyl 2-cyano-3,3-diphenylacrylate
Name: ethyl 2-cyano-3,3-diphenylprop-2-enoate
Formula: C18H15NO2
Exact mass: 277.1103
SMILES: CCOC(=O)C(C#N)=C(C1=CC=CC=C1)C1=CC=CC=C1
InChI: InChI=1S/C18H15NO2/c1-2-21-18(20)16(13-19)17(14-9-5-3-6-10-14)15-11-7-4-8-12-15/h3-12H,2H2,1H3
Instrument: Q Exactive Orbitrap (Thermo Scientific)
Instrument type: LC-ESI-QFT
Ms type: MS2
Ion mode: POSITIVE
Ionization: ESI
Fragmentation mode: HCD
Collision energy: 75
Resolution: 17500
Column name: Acquity BEH C18 1.7um, 2.1x150mm (Waters)
Retention time: 17.863 min
Base peak: 79.0212
Precursor m/z: 278.1176
Precursor type: [M+H]+
Precursor intensity: 3783621.90625
m/z	relative intensity	assigned
51.023	10	C4H3+
53.0386	73	C4H5+
55.0177	3	C3H3O+
68.997	20	C3HO2+
75.0228	6	C6H3+
77.0384	32	C6H5+
81.0333	11	C5H5O+
91.0542	8	C7H7+
94.0413	7	C6H6O+
95.0491	257	C6H7O+
101.0384	6	C8H5+
103.0541	11	C8H7+
104.0494	187	C7H6N+
105.0335	767	C7H5O+
116.0494	5	C8H6N+
119.0491	7	C8H7O+
128.0494	42	C9H6N+
129.0334	71	C9H5O+
130.0286	9	C8H4NO+
146.0598	10	C9H8NO+
147.0439	6	C9H7O2+
151.0544	5	C12H7+
152.062	7	C12H8+
153.07	35	C12H9+
154.0287	20	C10H4NO+
154.0399	10	C11H6O+
157.0285	8	C10H5O2+
165.0698	31	C13H9+
167.0854	8	C13H11+
168.0572	4	C12H8O+
169.0647	122	C12H9O+
175.0541	4	C14H7+
176.062	728	C14H8+
177.0698	617	C14H9+
178.0655	23	C13H8N+
178.0776	199	C14H10+
179.0853	11	C14H11+
181.0647	43	C13H9O+
182.0964	5	C13H12N+
186.1273	4	C13H16N+
189.0699	9	C15H9+
190.0772	5	C15H10+
193.0649	7	C14H9O+
195.0804	57	C14H11O+
196.0756	12	C13H10NO+
201.0575	16	C15H7N+
202.0651	35	C15H8N+
203.0729	999	C15H9N+
204.0807	701	C15H10N+
205.0653	6	C15H9O+
206.0963	15	C15H12N+
215.0855	12	C17H11+
220.0751	38	C15H10NO+
232.0756	137	C16H10NO+
234.1274	16	C17H16N+
250.0854	5	C16H12NO2+
