Mass spectrum: Kinetin; LC-ESI-QFT; MS2; CE: 90; R=17500; [M-H]-
Name: Kinetin
Name: N-(furan-2-ylmethyl)-7H-purin-6-amine
Formula: C10H9N5O
Exact mass: 215.0807
SMILES: C(NC1=C2N=CN=C2N=CN1)C1=CC=CO1
InChI: InChI=1S/C10H9N5O/c1-2-7(16-3-1)4-11-9-8-10(13-5-12-8)15-6-14-9/h1-3,5-6H,4H2,(H2,11,12,13,14,15)
Instrument: Q Exactive Orbitrap (Thermo Scientific)
Instrument type: LC-ESI-QFT
Ms type: MS2
Ion mode: NEGATIVE
Ionization: ESI
Fragmentation mode: HCD
Collision energy: 90
Resolution: 17500
Column name: Acquity BEH C18 1.7um, 2.1x150mm (Waters)
Retention time: 11.237 min
Base peak: 214.0735
Precursor m/z: 214.0734
Precursor type: [M-H]-
Precursor intensity: 6385114.183594
m/z	relative intensity	assigned
64.0067	8	C3N2-
65.0145	53	C3HN2-
66.0098	187	C2N3-
67.019	2	C4H3O-
68.0254	9	C2H2N3-
69.0346	8	C4H5O-
78.0098	8	C3N3-
79.0176	83	C3HN3-
80.0254	8	C3H2N3-
90.0098	52	C4N3-
91.0302	4	C5H3N2-
92.0254	165	C4H2N3-
105.0206	29	C4HN4-
106.0285	275	C4H2N4-
107.0363	312	C4H3N4-
115.0303	3	C7H3N2-
117.0207	282	C5HN4-
119.0363	24	C5H3N4-
121.0407	4	C6H5N2O-
132.0316	999	C5H2N5-
133.0394	690	C5H3N5-
134.0472	293	C5H4N5-
142.041	19	C8H4N3-
143.0363	15	C7H3N4-
144.0316	33	C6H2N5-
146.0472	17	C6H4N5-
157.0392	2	C7H3N5-
158.0472	6	C7H4N5-
160.063	4	C7H6N5-
169.0522	5	C9H5N4-
170.047	12	C8H4N5-
184.0632	10	C9H6N5-
