Mass spectrum: Probenecid; LC-ESI-QFT; MS2; CE: 60; R=17500; [M-H]-
Name: Probenecid
Name: 4-(dipropylsulfamoyl)benzoic acid
Formula: C13H19NO4S
Exact mass: 285.1035
SMILES: CCCN(CCC)S(=O)(=O)C1=CC=C(C=C1)C(O)=O
InChI: InChI=1S/C13H19NO4S/c1-3-9-14(10-4-2)19(17,18)12-7-5-11(6-8-12)13(15)16/h5-8H,3-4,9-10H2,1-2H3,(H,15,16)
Instrument: Q Exactive Orbitrap (Thermo Scientific)
Instrument type: LC-ESI-QFT
Ms type: MS2
Ion mode: NEGATIVE
Ionization: ESI
Fragmentation mode: HCD
Collision energy: 60
Resolution: 17500
Column name: Acquity BEH C18 1.7um, 2.1x150mm (Waters)
Retention time: 17.130 min
Base peak: 284.0962
Precursor m/z: 284.0962
Precursor type: [M-H]-
Precursor intensity: 32761910.65527
m/z	relative intensity	assigned
56.9805	1	C2HS-
62.0162	2	C5H2-
63.024	5	C5H3-
63.9625	999	O2S-
64.9703	678	HO2S-
66.0111	2	C4H2O-
67.019	7	C4H3O-
69.0345	1	C4H5O-
79.019	7	C5H3O-
79.9574	29	O3S-
89.0034	4	C6HO-
91.019	101	C6H3O-
92.0267	2	C6H4O-
93.0346	3	C6H5O-
95.0139	20	C5H3O2-
107.0138	1	C6H3O2-
108.0217	14	C6H4O2-
110.9909	1	C5H3OS-
123.0087	3	C6H3O3-
138.9861	1	C6H3O2S-
139.9938	165	C6H4O2S-
141.0015	3	C6H5O2S-
154.9808	2	C6H3O3S-
155.9887	28	C6H4O3S-
164.0751	120	C6H14NO2S-
198.0597	3	C9H12NO2S-
240.1068	1	C12H18NO2S-
