Mass spectrum: FR130739; LC-ESI-QFT; MS2; CE: 90; R=17500; [M+H]+
Name: FR130739
Name: FK-739 free acid
Name: 2-butyl-3-[[4-[2-(2H-tetrazol-5-yl)phenyl]phenyl]methyl]imidazo[4,5-b]pyridine
Formula: C24H23N7
Exact mass: 409.2015
SMILES: CCCCC1=NC2=C(N=CC=C2)N1CC1=CC=C(C=C1)C1=CC=CC=C1C1=NN=NN1
InChI: InChI=1S/C24H23N7/c1-2-3-10-22-26-21-9-6-15-25-24(21)31(22)16-17-11-13-18(14-12-17)19-7-4-5-8-20(19)23-27-29-30-28-23/h4-9,11-15H,2-3,10,16H2,1H3,(H,27,28,29,30)
Instrument: Q Exactive Orbitrap (Thermo Scientific)
Instrument type: LC-ESI-QFT
Ms type: MS2
Ion mode: POSITIVE
Ionization: ESI
Fragmentation mode: HCD
Collision energy: 90
Resolution: 17500
Column name: Acquity BEH C18 1.7um, 2.1x150mm (Waters)
Retention time: 16.703 min
Base peak: 79.0212
Precursor m/z: 410.2088
Precursor type: [M+H]+
Precursor intensity: 21251005
m/z	relative intensity	assigned
51.0229	3	C4H3+
53.0386	40	C4H5+
63.0229	3	C5H3+
67.0416	2	C4H5N+
75.0229	3	C6H3+
77.0385	20	C6H5+
78.0336	7	C5H4N+
79.0542	23	C6H7+
80.0494	77	C5H6N+
89.0385	4	C7H5+
93.0446	11	C5H5N2+
95.0491	97	C4H5N3+
96.0443	17	C3H4N4+
103.0541	7	C8H7+
104.0494	7	C7H6N+
105.0447	49	C6H5N2+
111.0553	7	C3H5N5+
113.0383	7	C9H5+
115.0542	37	C9H7+
116.0493	8	C8H6N+
117.0572	12	C8H7N+
120.0442	4	C5H4N4+
120.0556	16	C6H6N3+
122.06	2	C5H6N4+
127.0542	14	C10H7+
128.0494	23	C9H6N+
128.062	9	C10H8+
129.0446	29	C8H5N2+
129.0698	6	C10H9+
130.0399	13	C7H4N3+
131.0603	2	C8H7N2+
132.0557	20	C7H6N3+
133.0634	513	C7H7N3+
134.0711	13	C7H8N3+
139.0542	49	C11H7+
140.0494	118	C10H6N+
140.0621	14	C11H8+
141.0572	14	C10H7N+
141.0697	3	C11H9+
142.0524	4	C9H6N2+
145.0647	27	C8H7N3+
146.0605	8	C7H6N4+
146.0712	39	C8H8N3+
147.0787	7	C8H9N3+
150.0464	18	C12H6+
151.0541	26	C12H7+
152.062	738	C12H8+
153.0698	187	C12H9+
154.065	35	C11H8N+
154.0769	2	C12H10+
155.0489	5	C9H5N3+
155.0603	42	C10H7N2+
155.0853	5	C12H11+
158.0711	1	C9H8N3+
161.0708	1	C7H7N5+
163.0542	187	C13H7+
164.0495	81	C12H6N+
164.0615	28	C13H8+
165.0583	46	C12H7N+
165.0698	474	C13H9+
166.0651	69	C12H8N+
166.0769	9	C13H10+
167.0729	79	C12H9N+
168.0569	49	C10H6N3+
168.0681	22	C11H8N2+
169.0647	303	C10H7N3+
170.0599	16	C9H6N4+
176.1182	100	C10H14N3+
177.0572	119	C13H7N+
177.0697	15	C14H9+
178.0651	205	C13H8N+
178.0775	67	C14H10+
179.0604	94	C12H7N2+
179.0728	306	C13H9N+
180.0806	405	C13H10N+
181.0759	21	C12H9N2+
182.06	20	C10H6N4+
183.0677	25	C10H7N4+
183.0804	5	C11H9N3+
188.0494	9	C14H6N+
189.0571	17	C14H7N+
190.0651	627	C14H8N+
191.0604	41	C13H7N2+
191.0728	112	C14H9N+
192.068	261	C13H8N2+
192.0802	52	C14H10N+
193.0522	22	C11H5N4+
194.0599	42	C11H6N4+
195.068	1	C11H7N4+
196.052	14	C9H4N6+
196.0757	63	C11H8N4+
204.0556	5	C13H6N3+
204.0683	3	C14H8N2+
205.0759	999	C14H9N2+
206.0837	112	C14H10N2+
207.0677	15	C12H7N4+
207.0915	22	C14H11N2+
208.0756	11	C12H8N4+
209.0831	3	C12H9N4+
211.0627	32	C9H5N7+
221.0469	10	C10H3N7+
