Mass spectrum: 3,3`,5,5`-Tetramethylbenzidine; LC-ESI-QFT; MS2; CE: 15; R=17500; [M+H]+
Name: 3,3',5,5'-Tetramethylbenzidine
Name: 4-(4-amino-3,5-dimethylphenyl)-2,6-dimethylaniline
Formula: C16H20N2
Exact mass: 240.1626
SMILES: CC1=CC(=CC(C)=C1N)C1=CC(C)=C(N)C(C)=C1
InChI: InChI=1S/C16H20N2/c1-9-5-13(6-10(2)15(9)17)14-7-11(3)16(18)12(4)8-14/h5-8H,17-18H2,1-4H3
Instrument: Q Exactive Orbitrap (Thermo Scientific)
Instrument type: LC-ESI-QFT
Ms type: MS2
Ion mode: POSITIVE
Ionization: ESI
Fragmentation mode: HCD
Collision energy: 15
Resolution: 17500
Column name: Acquity BEH C18 1.7um, 2.1x150mm (Waters)
Retention time: 13.421 min
Base peak: 79.0211
Precursor m/z: 241.1699
Precursor type: [M+H]+
Precursor intensity: 18330270.5
m/z	relative intensity	assigned
224.1436	1	C16H18N+
226.1463	3	C15H18N2+
240.1586	1	C16H20N2+
241.1664	999	C16H21N2+
