Mass spectrum: Isoxaben; LC-ESI-QFT; MS2; CE: 45; R=17500; [M-H]-
Name: Isoxaben
Name: 2,6-dimethoxy-N-[3-(3-methylpentan-3-yl)-1,2-oxazol-5-yl]benzamide
Formula: C18H24N2O4
Exact mass: 332.1736
SMILES: CCC(C)(CC)C1=NOC(NC(=O)C2=C(OC)C=CC=C2OC)=C1
InChI: InChI=1S/C18H24N2O4/c1-6-18(3,7-2)14-11-15(24-20-14)19-17(21)16-12(22-4)9-8-10-13(16)23-5/h8-11H,6-7H2,1-5H3,(H,19,21)
Instrument: Q Exactive Orbitrap (Thermo Scientific)
Instrument type: LC-ESI-QFT
Ms type: MS2
Ion mode: NEGATIVE
Ionization: ESI
Fragmentation mode: HCD
Collision energy: 45
Resolution: 17500
Column name: Acquity BEH C18 1.7um, 2.1x150mm (Waters)
Retention time: 17.361 min
Base peak: 341.0253
Precursor m/z: 331.1663
Precursor type: [M-H]-
Precursor intensity: 5121300.652344
m/z	relative intensity	assigned
65.0146	34	C3HN2-
65.9986	402	C3NO-
72.9932	999	C2HO3-
81.0096	26	C3HN2O-
93.0346	625	C6H5O-
95.0139	28	C5H3O2-
102.035	187	C7H4N-
105.0346	67	C7H5O-
107.0504	133	C7H7O-
108.0218	59	C6H4O2-
108.082	38	C7H10N-
118.0299	210	C7H4NO-
120.0094	34	C6H2NO2-
121.0295	754	C7H5O2-
123.0453	92	C7H7O2-
132.0455	871	C8H6NO-
133.0172	54	C7H3NO2-
133.0296	400	C8H5O2-
134.025	69	C7H4NO2-
134.0374	204	C8H6O2-
135.0091	45	C7H3O3-
135.0452	174	C8H7O2-
136.0405	33	C7H6NO2-
137.0608	590	C8H9O2-
146.025	122	C8H4NO2-
148.0404	550	C8H6NO2-
151.0402	82	C8H7O3-
160.0403	34	C9H6NO2-
161.0245	382	C9H5O3-
162.0199	86	C8H4NO3-
162.0324	313	C9H6O3-
162.0561	286	C9H8NO2-
164.0355	106	C8H6NO3-
164.0718	68	C9H10NO2-
166.1112	146	C9H14N2O-
173.012	47	C9H3NO3-
176.0352	80	C9H6NO3-
181.0508	33	C9H9O4-
188.0353	57	C10H6NO3-
190.0147	126	C9H4NO4-
205.0382	91	C10H7NO4-
206.0458	47	C10H8NO4-
220.0615	351	C11H10NO4-
331.1667	259	C18H23N2O4-
