Mass spectrum: SB281832; LC-ESI-QFT; MS2; CE: 60; R=17500; [M+H]+
Name: SB281832
Name: 2-[4-(4-fluorophenyl)-5-(2-phenoxypyrimidin-4-yl)imidazol-1-yl]propane-1,3-diol
Formula: C22H19FN4O3
Exact mass: 406.1441
SMILES: OCC(CO)N1C=NC(=C1C1=CC=NC(OC2=CC=CC=C2)=N1)C1=CC=C(F)C=C1
InChI: InChI=1S/C22H19FN4O3/c23-16-8-6-15(7-9-16)20-21(27(14-25-20)17(12-28)13-29)19-10-11-24-22(26-19)30-18-4-2-1-3-5-18/h1-11,14,17,28-29H,12-13H2
Instrument: Q Exactive Orbitrap (Thermo Scientific)
Instrument type: LC-ESI-QFT
Ms type: MS2
Ion mode: POSITIVE
Ionization: ESI
Fragmentation mode: HCD
Collision energy: 60
Resolution: 17500
Column name: Acquity BEH C18 1.7um, 2.1x150mm (Waters)
Retention time: 15.228 min
Base peak: 79.0211
Precursor m/z: 407.1514
Precursor type: [M+H]+
Precursor intensity: 20395897.625
m/z	relative intensity	assigned
50.0151	1	C4H2+
51.0229	3	C4H3+
53.0022	8	C3HO+
53.0386	61	C4H5+
54.0338	1	C3H4N+
55.0178	3	C3H3O+
57.0335	4	C3H5O+
71.0239	1	C2H3N2O+
74.0964	2	C4H12N+
78.0466	1	C6H6+
81.0334	7	C5H5O+
81.0446	11	C4H5N2+
82.0286	2	C4H4NO+
91.0542	22	C7H7+
92.0494	1	C6H6N+
92.0575	3	C2H8N2O2+
93.0447	1	C5H5N2+
95.0491	188	C6H7O+
97.0447	7	C6H6F+
104.0494	722	C2H5FN4+
105.0446	71	C6H5N2+
109.0396	31	C5H5N2O+
109.0446	10	C7H6F+
109.0648	1	C7H9O+
116.0496	5	C8H6N+
117.0572	3	C8H7N+
117.0651	1	C4H9N2O2+
117.0696	1	C4H8FN3+
118.0398	4	C6H4N3+
119.0729	3	C8H9N+
120.0444	5	C7H6NO+
120.0763	1	C3H10N3O2+
122.04	22	C7H5FN+
124.0557	61	C7H7FN+
127.05	2	C5H7N2O2+
128.0621	3	C10H8+
129.0573	2	C9H7N+
129.0651	2	C5H9N2O2+
129.0698	3	C10H9+
130.0652	8	C9H8N+
130.0731	4	C5H10N2O2+
131.0855	22	C10H11+
132.0441	1	C3H5FN4O+
132.0888	18	C5H12N2O2+
133.0447	219	C9H6F+
134.0398	7	C8H5FN+
134.0594	1	C3H7FN4O+
135.0425	2	C6H5N3O+
135.0479	1	C8H6FN+
136.0504	11	C6H6N3O+
136.0557	13	C8H7FN+
141.0447	2	C9H5N2+
142.0651	41	C10H8N+
143.0604	9	C9H7N2+
145.0649	2	C10H9O+
145.0755	4	C9H9N2+
147.0551	9	C8H7N2O+
148.0837	3	C5H12N2O3+
155.06	11	C10H7N2+
156.0387	4	C5H6N3O3+
156.0681	1	C10H8N2+
157.0423	2	C6H6FN2O2+
157.076	43	C10H9N2+
158.04	29	C10H5FN+
158.0794	7	C5H10N4O2+
159.0804	11	C11H11O+
160.0556	387	C10H7FN+
160.0755	112	C5H9FN4O+
161.0396	94	C10H6FO+
161.0508	10	C9H6FN2+
163.0664	12	C9H8FN2+
167.0603	14	C11H7N2+
168.0556	1	C10H6N3+
168.0679	18	C11H8N2+
169.0758	326	C11H9N2+
171.0551	38	C10H7N2O+
172.0557	1	C11H7FN+
173.0509	10	C10H6FN2+
174.0591	1	C10H7FN2+
174.0912	1	C6H11FN4O+
175.0666	1	C10H8FN2+
176.0502	1	C10H7FNO+
178.0661	264	C10H9FNO+
182.0712	14	C11H8N3+
184.0631	2	C11H8N2O+
184.0868	31	C11H10N3+
185.0509	49	C11H6FN2+
185.0706	11	C11H9N2O+
186.0586	34	C11H7FN2+
187.0664	999	C11H8FN2+
188.0616	306	C10H7FN3+
189.0453	1	C10H6FN2O+
192.0819	11	C11H11FNO+
194.0712	15	C12H8N3+
195.055	1	C12H7N2O+
197.0508	17	C12H6FN2+
201.0461	1	C11H6FN2O+
203.0614	15	C11H8FN2O+
204.0566	2	C10H7FN3O+
206.0895	1	C10H12N3O2+
207.0564	12	C10H8FN2O2+
210.0661	4	C12H8N3O+
211.0528	1	C12H6FN3+
212.0618	169	C12H7FN3+
212.0811	98	C12H10N3O+
213.0464	19	C12H6FN2O+
213.0578	7	C16H7N+
213.0694	131	C12H8FN3+
214.0772	15	C12H9FN3+
215.0611	2	C12H8FN2O+
216.0809	1	C16H10N+
219.0663	1	C13H7N4+
222.0457	2	C13H5FN3+
230.0722	184	C12H9FN3O+
234.0716	1	C16H9FN+
235.0793	5	C16H10FN+
236.0869	20	C16H11FN+
237.0767	5	C10H10FN4O2+
239.0725	76	C13H8FN4+
240.0565	128	C13H7FN3O+
241.0643	47	C13H8FN3O+
243.091	4	C17H11N2+
257.083	91	C13H10FN4O+
261.0816	3	C17H10FN2+
262.0896	3	C17H11FN2+
263.0977	72	C17H12FN2+
264.0929	118	C16H11FN3+
270.1019	8	C18H12N3+
273.0816	6	C18H10FN2+
275.0845	2	C17H10FN3+
288.0928	38	C18H11FN3+
289.1007	2	C18H12FN3+
290.1085	757	C18H13FN3+
291.1162	1	C18H14FN3+
305.1194	13	C18H14FN4+
306.1034	33	C18H13FN3O+
313.1084	3	C19H13N4O+
331.0996	1	C19H12FN4O+
333.1143	281	C19H14FN4O+
359.1296	1	C21H16FN4O+
