Mass spectrum: Carboxin; LC-ESI-QFT; MS2; CE: 45; R=17500; [M+H]+
Name: Carboxin
Name: 6-methyl-N-phenyl-2,3-dihydro-1,4-oxathiine-5-carboxamide
Formula: C12H13NO2S
Exact mass: 235.0667
SMILES: CC1=C(SCCO1)C(=O)NC1=CC=CC=C1
InChI: InChI=1S/C12H13NO2S/c1-9-11(16-8-7-15-9)12(14)13-10-5-3-2-4-6-10/h2-6H,7-8H2,1H3,(H,13,14)
Instrument: Q Exactive Orbitrap (Thermo Scientific)
Instrument type: LC-ESI-QFT
Ms type: MS2
Ion mode: POSITIVE
Ionization: ESI
Fragmentation mode: HCD
Collision energy: 45
Resolution: 17500
Column name: Acquity BEH C18 1.7um, 2.1x150mm (Waters)
Retention time: 15.686 min
Base peak: 79.0211
Precursor m/z: 236.074
Precursor type: [M+H]+
Precursor intensity: 10940699.25
m/z	relative intensity	assigned
57.0335	1	C3H5O+
58.995	10	C2H3S+
61.0284	8	C2H5O2+
73.0106	12	C3H5S+
75.044	5	C3H7O2+
86.9898	12	C3H3OS+
89.0056	4	C3H5OS+
92.0495	3	C6H6N+
93.0573	118	C6H7N+
94.0651	1	C6H8N+
99.0262	8	C5H7S+
104.0494	2	C7H6N+
115.0213	5	C5H7OS+
117.0369	16	C5H9OS+
120.0444	5	C7H6NO+
124.0216	90	C6H6NS+
132.0444	26	C8H6NO+
138.0374	2	C7H8NS+
143.0161	999	C6H7O2S+
146.06	12	C9H8NO+
148.0214	1	C8H6NS+
162.0372	6	C9H8NS+
164.0167	1	C8H6NOS+
165.0243	16	C8H7NOS+
166.0321	25	C8H8NOS+
174.0549	3	C10H8NO2+
190.0317	4	C10H8NOS+
208.0428	12	C10H10NO2S+
218.0635	1	C12H12NOS+
236.0742	9	C12H14NO2S+
