Mass spectrum: 2-Chloro-4-phenylphenol; LC-ESI-QFT; MS2; CE: 30; R=17500; [M-H]-
Name: 2-Chloro-4-phenylphenol
Name: 4-Hydroxy-2-chlorobiphenyl
Name: 3-chloro-4-phenylphenol
Formula: C12H9ClO
Exact mass: 204.0342
SMILES: OC1=CC(Cl)=C(C=C1)C1=CC=CC=C1
InChI: InChI=1S/C12H9ClO/c13-12-8-10(14)6-7-11(12)9-4-2-1-3-5-9/h1-8,14H
Instrument: Q Exactive Orbitrap (Thermo Scientific)
Instrument type: LC-ESI-QFT
Ms type: MS2
Ion mode: NEGATIVE
Ionization: ESI
Fragmentation mode: HCD
Collision energy: 30
Resolution: 17500
Column name: Acquity BEH C18 1.7um, 2.1x150mm (Waters)
Retention time: 18.329 min
Base peak: 112.9857
Precursor m/z: 203.0269
Precursor type: [M-H]-
Precursor intensity: 4163122.706055
m/z	relative intensity	assigned
167.0503	21	C12H7O-
203.027	999	C12H8ClO-
