Mass spectrum: Quinine; LC-ESI-QFT; MS2; CE: 45; R=17500; [M+H]+
Name: Quinine
Name: (R)-[(2S,4S,5R)-5-ethenyl-1-azabicyclo[2.2.2]octan-2-yl]-(6-methoxyquinolin-4-yl)methanol
Formula: C20H24N2O2
Exact mass: 324.1838
SMILES: C=C[C@H]1CN2CC[C@H]1C[C@H]2[C@H](O)c1ccnc2ccc(OC)cc12
InChI: InChI=1S/C20H24N2O2/c1-3-13-12-22-9-7-14(13)10-19(22)20(23)16-6-8-21-18-5-4-15(24-2)11-17(16)18/h3-6,8,11,13-14,19-20,23H,1,7,9-10,12H2,2H3/t13-,14-,19-,20+/m0/s1
Instrument: Q Exactive Orbitrap (Thermo Scientific)
Instrument type: LC-ESI-QFT
Ms type: MS2
Ion mode: POSITIVE
Ionization: ESI
Fragmentation mode: HCD
Collision energy: 45
Resolution: 17500
Column name: Acquity BEH C18 1.7um, 2.1x150mm (Waters)
Retention time: 11.420 min
Base peak: 79.0211
Precursor m/z: 325.1911
Precursor type: [M+H]+
Precursor intensity: 31631109.5
m/z	relative intensity	assigned
53.0022	2	C3HO+
53.0386	17	C4H5+
53.9973	1	C2NO+
55.0542	38	C4H7+
56.0495	15	C3H6N+
57.0573	1	C3H7N+
58.0651	16	C3H8N+
65.0385	8	C5H5+
66.0464	2	C5H6+
67.0542	97	C5H7+
68.0494	21	C4H6N+
69.0572	8	C4H7N+
69.0699	4	C5H9+
70.0651	20	C4H8N+
77.0387	2	C6H5+
79.0542	260	C6H7+
80.0494	40	C5H6N+
81.0699	611	C6H9+
82.0651	85	C5H8N+
84.0808	18	C5H10N+
86.0602	2	C4H8NO+
91.0542	26	C7H7+
93.0575	4	C6H7N+
93.0699	37	C7H9+
94.0651	22	C6H8N+
95.0492	9	C6H7O+
95.0729	10	C6H9N+
95.0856	29	C7H11+
96.0807	44	C6H10N+
105.0447	3	C6H5N2+
105.0699	29	C8H9+
106.0653	19	C7H8N+
107.073	9	C7H9N+
107.0855	24	C8H11+
108.0808	54	C7H10N+
109.0649	6	C7H9O+
109.0886	5	C7H11N+
109.1013	6	C8H13+
110.0964	136	C7H12N+
117.0697	7	C9H9+
119.0732	2	C8H9N+
119.0854	3	C9H11+
120.0808	20	C8H10N+
121.0649	2	C8H9O+
121.0886	7	C8H11N+
122.0964	52	C8H12N+
124.1121	51	C8H14N+
131.0732	1	C9H9N+
131.0853	1	C10H11+
132.0811	6	C9H10N+
134.0964	101	C9H12N+
135.1043	21	C9H13N+
136.0757	4	C8H10NO+
136.1121	32	C9H14N+
138.1277	12	C9H16N+
143.0731	3	C10H9N+
144.0808	3	C10H10N+
145.0524	4	C9H7NO+
146.0965	5	C10H12N+
148.076	1	C9H10NO+
148.112	10	C10H14N+
152.1072	4	C9H14NO+
154.0653	5	C11H8N+
155.0731	6	C11H9N+
156.0809	3	C11H10N+
158.06	9	C10H8NO+
159.0679	8	C10H9NO+
160.0757	342	C10H10NO+
162.0913	26	C10H12NO+
166.0653	5	C12H8N+
166.1227	78	C10H16NO+
167.0725	9	C12H9N+
168.0808	6	C12H10N+
169.0518	8	C11H7NO+
169.0885	2	C12H11N+
170.0604	6	C11H8NO+
171.0678	4	C11H9NO+
172.0757	256	C11H10NO+
173.0835	110	C11H11NO+
174.0914	101	C11H12NO+
175.0623	1	C10H9NO2+
176.0705	2	C10H10NO2+
180.0807	6	C13H10N+
181.0885	3	C13H11N+
182.0602	8	C12H8NO+
182.084	1	C12H10N2+
183.0681	14	C12H9NO+
183.1035	1	C13H13N+
184.0757	419	C12H10NO+
185.0835	24	C12H11NO+
186.0914	204	C12H12NO+
187.0992	6	C12H13NO+
188.0705	10	C11H10NO2+
188.1069	4	C12H14NO+
189.0785	22	C11H11NO2+
190.0867	2	C11H12NO2+
192.0813	1	C14H10N+
194.0968	3	C14H12N+
195.0686	4	C13H9NO+
195.104	1	C14H13N+
196.0758	38	C13H10NO+
197.0725	2	C12H9N2O+
197.0835	23	C13H11NO+
198.0914	198	C13H12NO+
199.0868	32	C12H11N2O+
199.0991	10	C13H13NO+
200.0707	9	C12H10NO2+
200.107	22	C13H14NO+
201.0784	2	C12H11NO2+
201.1022	4	C12H13N2O+
202.0863	33	C12H12NO2+
204.0813	2	C15H10N+
205.0887	2	C15H11N+
206.0967	5	C15H12N+
207.1045	3	C15H13N+
208.0753	1	C14H10NO+
209.0837	4	C14H11NO+
210.0913	59	C14H12NO+
211.0868	18	C13H11N2O+
211.0992	8	C14H13NO+
212.0948	5	C13H12N2O+
212.1071	24	C14H14NO+
213.1022	31	C13H13N2O+
214.0862	19	C13H12NO2+
214.1227	1	C14H16NO+
215.0941	4	C13H13NO2+
216.102	4	C13H14NO2+
218.0966	4	C16H12N+
219.0921	3	C15H11N2+
219.1046	3	C16H13N+
220.0754	2	C15H10NO+
220.1127	1	C16H14N+
221.0834	4	C15H11NO+
221.107	4	C15H13N2+
221.1193	2	C16H15N+
222.0915	10	C15H12NO+
223.0988	6	C15H13NO+
224.0946	3	C14H12N2O+
224.1069	45	C15H14NO+
225.1023	18	C14H13N2O+
225.1148	6	C15H15NO+
226.1225	52	C15H16NO+
227.1179	60	C14H15N2O+
230.0962	1	C17H12N+
232.112	2	C17H14N+
233.0835	1	C16H11NO+
233.1088	1	C16H13N2+
233.12	7	C17H15N+
234.0916	11	C16H12NO+
235.0996	5	C16H13NO+
236.1067	21	C16H14NO+
237.1039	7	C15H13N2O+
237.1132	7	C16H15NO+
238.1098	3	C15H14N2O+
238.1224	22	C16H16NO+
239.118	22	C15H15N2O+
239.1306	3	C16H17NO+
240.1255	4	C15H16N2O+
240.1386	9	C16H18NO+
242.1172	2	C15H16NO2+
246.0925	2	C17H12NO+
246.1281	1	C18H16N+
247.0992	3	C17H13NO+
247.1356	3	C18H17N+
248.1067	12	C17H14NO+
249.1013	2	C16H13N2O+
249.115	13	C17H15NO+
250.1095	1	C16H14N2O+
250.1229	21	C17H16NO+
251.1179	88	C16H15N2O+
252.1257	41	C16H16N2O+
252.1388	19	C17H18NO+
253.1335	268	C16H17N2O+
254.154	17	C17H20NO+
260.1055	1	C18H14NO+
261.1146	2	C18H15NO+
262.1228	13	C18H16NO+
263.1175	4	C17H15N2O+
263.1312	5	C18H17NO+
264.1384	102	C18H18NO+
265.1333	33	C17H17N2O+
266.1408	10	C17H18N2O+
266.1542	22	C18H20NO+
268.1339	1	C17H18NO2+
268.1695	5	C18H22NO+
274.123	1	C19H16NO+
275.1545	5	C19H19N2+
276.1383	11	C19H18NO+
276.1625	4	C19H20N2+
277.1326	8	C18H17N2O+
278.1543	46	C19H20NO+
279.1491	123	C18H19N2O+
280.1698	5	C19H22NO+
282.1489	27	C18H20NO2+
290.1545	5	C20H20NO+
291.1496	4	C19H19N2O+
292.1566	8	C19H20N2O+
296.1644	8	C19H22NO2+
297.1961	23	C19H25N2O+
305.1652	8	C20H21N2O+
307.1805	569	C20H23N2O+
325.191	999	C20H25N2O2+
