Mass spectrum: Metribuzin; LC-ESI-QFT; MS2; CE: 30; R=17500; [M+H]+
Name: Metribuzin
Name: 4-amino-6-tert-butyl-3-methylsulfanyl-1,2,4-triazin-5-one
Formula: C8H14N4OS
Exact mass: 214.0888
SMILES: CSC1=NN=C(C(=O)N1N)C(C)(C)C
InChI: InChI=1S/C8H14N4OS/c1-8(2,3)5-6(13)12(9)7(14-4)11-10-5/h9H2,1-4H3
Instrument: Q Exactive Orbitrap (Thermo Scientific)
Instrument type: LC-ESI-QFT
Ms type: MS2
Ion mode: POSITIVE
Ionization: ESI
Fragmentation mode: HCD
Collision energy: 30
Resolution: 17500
Column name: Acquity BEH C18 1.7um, 2.1x150mm (Waters)
Retention time: 15.295 min
Base peak: 79.0211
Precursor m/z: 215.0961
Precursor type: [M+H]+
Precursor intensity: 11855986.75
m/z	relative intensity	assigned
57.0699	13	C4H9+
58.04	4	CH4N3+
61.0106	1	C2H5S+
62.0059	2	CH4NS+
69.0698	1	C5H9+
74.0057	4	C2H4NS+
76.0215	3	C2H6NS+
79.0212	2	C2H7OS+
79.0541	2	C6H7+
82.0651	6	C5H8N+
83.0239	2	C3H3N2O+
84.0808	23	C5H10N+
86.9899	1	C3H3OS+
87.0012	3	C2H3N2S+
88.009	1	C2H4N2S+
89.0168	13	C2H5N2S+
89.042	3	C4H9S+
94.0651	1	C6H8N+
97.0648	10	C6H9O+
99.0917	3	C5H11N2+
104.0277	4	C2H6N3S+
110.0601	2	C6H8NO+
111.0679	1	C6H9NO+
112.0757	1	C6H10NO+
114.9961	14	C3H3N2OS+
130.0686	5	C6H12NS+
131.0274	10	C4H7N2OS+
131.0386	2	C3H7N4S+
132.0226	1	C3H6N3OS+
139.0867	1	C7H11N2O+
140.1056	1	C6H12N4+
145.0542	9	C4H9N4S+
155.0638	1	C7H11N2S+
157.0431	1	C6H9N2OS+
167.0927	4	C7H11N4O+
169.1084	1	C7H13N4O+
171.0586	5	C7H11N2OS+
172.0665	1	C7H12N2OS+
183.046	1	C7H9N3OS+
186.0822	18	C8H14N2OS+
187.1012	135	C7H15N4S+
198.07	1	C8H12N3OS+
200.0727	2	C7H12N4OS+
215.096	999	C8H15N4OS+
