Mass spectrum: Benodanil; LC-ESI-QFT; MS2; CE: 45; R=17500; [M+H]+
Name: Benodanil
Name: 2-iodo-N-phenylbenzamide
Formula: C13H10INO
Exact mass: 322.9807
SMILES: IC1=C(C=CC=C1)C(=O)NC1=CC=CC=C1
InChI: InChI=1S/C13H10INO/c14-12-9-5-4-8-11(12)13(16)15-10-6-2-1-3-7-10/h1-9H,(H,15,16)
Instrument: Q Exactive Orbitrap (Thermo Scientific)
Instrument type: LC-ESI-QFT
Ms type: MS2
Ion mode: POSITIVE
Ionization: ESI
Fragmentation mode: HCD
Collision energy: 45
Resolution: 17500
Column name: Acquity BEH C18 1.7um, 2.1x150mm (Waters)
Retention time: 16.272 min
Base peak: 79.0211
Precursor m/z: 323.988
Precursor type: [M+H]+
Precursor intensity: 10645221.0625
m/z	relative intensity	assigned
52.0308	1	C4H4+
53.0386	2	C4H5+
76.0311	2	C6H4+
92.0495	17	C6H6N+
94.0413	134	C6H6O+
95.0492	8	C6H7O+
104.0254	1	C7H4O+
105.0335	89	C7H5O+
120.0444	19	C7H6NO+
196.0756	1	C13H10NO+
197.0835	2	C13H11NO+
202.9351	2	C6H4I+
220.9458	2	C6H6IO+
230.9302	999	C7H4IO+
305.9772	2	C13H9IN+
323.9882	23	C13H11INO+
