Mass spectrum: Fenamiphos; LC-ESI-QFT; MS2; CE: 45; R=17500; [M+H]+
Name: Fenamiphos
Name: N-[ethoxy-(3-methyl-4-methylsulfanylphenoxy)phosphoryl]propan-2-amine
Formula: C13H22NO3PS
Exact mass: 303.1058
SMILES: CCOP(=O)(NC(C)C)OC1=CC=C(SC)C(C)=C1
InChI: InChI=1S/C13H22NO3PS/c1-6-16-18(15,14-10(2)3)17-12-7-8-13(19-5)11(4)9-12/h7-10H,6H2,1-5H3,(H,14,15)
Instrument: Q Exactive Orbitrap (Thermo Scientific)
Instrument type: LC-ESI-QFT
Ms type: MS2
Ion mode: POSITIVE
Ionization: ESI
Fragmentation mode: HCD
Collision energy: 45
Resolution: 17500
Column name: Acquity BEH C18 1.7um, 2.1x150mm (Waters)
Retention time: 18.218 min
Base peak: 79.0212
Precursor m/z: 304.1131
Precursor type: [M+H]+
Precursor intensity: 46128028.34375
m/z	relative intensity	assigned
58.995	2	C2H3S+
60.0808	58	C3H10N+
79.0542	1	C6H7+
91.0541	2	C7H7+
93.0699	1	C7H9+
97.0107	4	C5H5S+
97.0648	2	C6H9O+
98.0001	4	H5NO3P+
103.0542	2	C8H7+
107.0491	21	C7H7O+
108.057	5	C7H8O+
109.0648	3	C7H9O+
122.0185	1	C7H6S+
135.0262	1	C8H7S+
137.042	8	C8H9S+
139.0213	3	C7H7OS+
140.0471	1	C3H11NO3P+
150.0495	1	C9H10S+
153.0369	28	C8H9OS+
154.0448	1	C8H10OS+
155.0525	52	C8H11OS+
165.0484	1	C6H14OPS+
168.9871	14	C7H6OPS+
186.9977	1	C7H8O2PS+
198.9979	7	C8H8O2PS+
201.0011	1	C7H8NO2PS+
201.9848	115	C7H7O3PS+
202.9927	11	C7H8O3PS+
216.0245	5	C8H11NO2PS+
217.0082	999	C8H10O3PS+
230.0162	7	C9H11O3PS+
234.0348	72	C8H13NO3PS+
235.0187	1	C11H10NOPS+
245.0394	8	C10H14O3PS+
249.0339	2	C12H12NOPS+
262.0671	1	C10H17NO3PS+
276.0817	4	C11H19NO3PS+
