Mass spectrum: Forskolin; LC-ESI-QFT; MS2; CE: 60; R=17500; [M-H]-
Name: Forskolin
Name: [(3R,4aR,5S,6S,6aS,10S,10aR,10bS)-3-ethenyl-6,10,10b-trihydroxy-3,4a,7,7,10a-pentamethyl-1-oxo-5,6,6a,8,9,10-hexahydro-2H-benzo[f]chromen-5-yl] acetate
Formula: C22H34O7
Exact mass: 410.2305
SMILES: CC(=O)O[C@H]1[C@@H](O)[C@H]2C(C)(C)CC[C@H](O)[C@]2(C)[C@@]2(O)C(=O)C[C@@](C)(O[C@]12C)C=C
InChI: InChI=1S/C22H34O7/c1-8-19(5)11-14(25)22(27)20(6)13(24)9-10-18(3,4)16(20)15(26)17(28-12(2)23)21(22,7)29-19/h8,13,15-17,24,26-27H,1,9-11H2,2-7H3/t13-,15-,16-,17-,19-,20-,21+,22-/m0/s1
Instrument: Q Exactive Orbitrap (Thermo Scientific)
Instrument type: LC-ESI-QFT
Ms type: MS2
Ion mode: NEGATIVE
Ionization: ESI
Fragmentation mode: HCD
Collision energy: 60
Resolution: 17500
Column name: Acquity BEH C18 1.7um, 2.1x150mm (Waters)
Retention time: 17.494 min
Base peak: 307.0977
Precursor m/z: 409.2232
Precursor type: [M-H]-
Precursor intensity: 7215137.75
m/z	relative intensity	assigned
57.0346	17	C3H5O-
59.0138	999	C2H3O2-
71.0138	2	C3H3O2-
71.0503	3	C4H7O-
73.0296	4	C3H5O2-
83.0502	2	C5H7O-
85.0295	2	C4H5O2-
95.0503	10	C6H7O-
97.066	12	C6H9O-
107.0504	6	C7H7O-
109.0296	3	C6H5O2-
109.0659	3	C7H9O-
111.0815	3	C7H11O-
121.0658	5	C8H9O-
122.0376	5	C7H6O2-
123.045	5	C7H7O2-
123.0815	5	C8H11O-
135.082	2	C9H11O-
137.0972	7	C9H13O-
139.0763	5	C8H11O2-
149.0978	3	C10H13O-
151.0768	4	C9H11O2-
151.1129	7	C10H15O-
161.0975	5	C11H13O-
163.1129	8	C11H15O-
173.0972	3	C12H13O-
179.1076	2	C11H15O2-
189.0926	2	C12H13O2-
205.1236	2	C13H17O2-
