Mass spectrum: 3-Hydroxy-2-naphthoic acid; LC-ESI-QFT; MS2; CE: 60; R=17500; [M+H]+
Name: 3-Hydroxy-2-naphthoic acid
Name: 3-hydroxynaphthalene-2-carboxylic acid
Formula: C11H8O3
Exact mass: 188.0473
SMILES: OC(=O)C1=CC2=C(C=CC=C2)C=C1O
InChI: InChI=1S/C11H8O3/c12-10-6-8-4-2-1-3-7(8)5-9(10)11(13)14/h1-6,12H,(H,13,14)
Instrument: Q Exactive Orbitrap (Thermo Scientific)
Instrument type: LC-ESI-QFT
Ms type: MS2
Ion mode: POSITIVE
Ionization: ESI
Fragmentation mode: HCD
Collision energy: 60
Resolution: 17500
Column name: Acquity BEH C18 1.7um, 2.1x150mm (Waters)
Retention time: 17.376 min
Base peak: 79.0212
Precursor m/z: 189.0546
Precursor type: [M+H]+
Precursor intensity: 2058835.890625
m/z	relative intensity	assigned
53.0386	362	C4H5+
65.0385	522	C5H5+
91.0543	737	C7H7+
95.0492	428	C6H7O+
103.0543	532	C8H7+
105.0695	395	C8H9+
117.0698	999	C9H9+
145.0648	927	C10H9O+
