Mass spectrum: Kinetin; LC-ESI-QFT; MS2; CE: 30; R=17500; [M+H]+
Name: Kinetin
Name: N-(furan-2-ylmethyl)-7H-purin-6-amine
Formula: C10H9N5O
Exact mass: 215.0807
SMILES: C(NC1=C2N=CN=C2N=CN1)C1=CC=CO1
InChI: InChI=1S/C10H9N5O/c1-2-7(16-3-1)4-11-9-8-10(13-5-12-8)15-6-14-9/h1-3,5-6H,4H2,(H2,11,12,13,14,15)
Instrument: Q Exactive Orbitrap (Thermo Scientific)
Instrument type: LC-ESI-QFT
Ms type: MS2
Ion mode: POSITIVE
Ionization: ESI
Fragmentation mode: HCD
Collision energy: 30
Resolution: 17500
Column name: Acquity BEH C18 1.7um, 2.1x150mm (Waters)
Retention time: 11.252 min
Base peak: 79.0211
Precursor m/z: 216.088
Precursor type: [M+H]+
Precursor intensity: 12063928.46875
m/z	relative intensity	assigned
53.0385	8	C4H5+
81.0334	999	C5H5O+
136.0617	18	C5H6N5+
148.0616	231	C6H6N5+
166.0722	1	C6H8N5O+
171.0666	1	C9H7N4+
173.0695	23	C8H7N5+
188.0929	70	C9H10N5+
198.0774	3	C10H8N5+
216.0878	668	C10H10N5O+
