Mass spectrum: 2-(Propan-2-yl)-9H-thioxanthen-9-one; LC-ESI-QFT; MS2; CE: 90; R=17500; [M+H]+
Name: 2-(Propan-2-yl)-9H-thioxanthen-9-one
Name: 2-Isopropylthioxanthone
Name: 2-propan-2-ylthioxanthen-9-one
Formula: C16H14OS
Exact mass: 254.0765
SMILES: CC(C)C1=CC2=C(SC3=C(C=CC=C3)C2=O)C=C1
InChI: InChI=1S/C16H14OS/c1-10(2)11-7-8-15-13(9-11)16(17)12-5-3-4-6-14(12)18-15/h3-10H,1-2H3
Instrument: Q Exactive Orbitrap (Thermo Scientific)
Instrument type: LC-ESI-QFT
Ms type: MS2
Ion mode: POSITIVE
Ionization: ESI
Fragmentation mode: HCD
Collision energy: 90
Resolution: 17500
Column name: Acquity BEH C18 1.7um, 2.1x150mm (Waters)
Retention time: 20.292 min
Base peak: 79.0211
Precursor m/z: 255.0838
Precursor type: [M+H]+
Precursor intensity: 4274013.875
m/z	relative intensity	assigned
53.0023	18	C3HO+
95.0493	3	C6H7O+
105.0337	7	C7H5O+
115.0546	4	C9H7+
139.0542	10	C11H7+
141.0699	20	C11H9+
152.0621	44	C12H8+
180.0568	3	C13H8O+
181.0651	1	C13H9O+
183.0265	14	C12H7S+
184.0343	999	C12H8S+
185.0421	43	C12H9S+
197.0423	14	C13H9S+
201.0367	2	C12H9OS+
212.0293	8	C13H8OS+
213.037	258	C13H9OS+
221.0419	3	C15H9S+
224.0296	7	C14H8OS+
225.0366	7	C14H9OS+
239.0527	40	C15H11OS+
