Mass spectrum: Ingliforib; LC-ESI-QFT; MS2; CE: 75; R=17500; [M-H]-
Name: Ingliforib
Name: 5-chloro-N-[(2S,3R)-4-[(3R,4S)-3,4-dihydroxypyrrolidin-1-yl]-3-hydroxy-4-oxo-1-phenylbutan-2-yl]-1H-indole-2-carboxamide
Formula: C23H24ClN3O5
Exact mass: 457.1404
SMILES: O[C@H]([C@H](CC1=CC=CC=C1)NC(=O)C1=CC2=CC(Cl)=CC=C2N1)C(=O)N1C[C@H](O)[C@H](O)C1
InChI: InChI=1S/C23H24ClN3O5/c24-15-6-7-16-14(9-15)10-18(25-16)22(31)26-17(8-13-4-2-1-3-5-13)21(30)23(32)27-11-19(28)20(29)12-27/h1-7,9-10,17,19-21,25,28-30H,8,11-12H2,(H,26,31)/t17-,19-,20+,21+/m0/s1
Instrument: Q Exactive Orbitrap (Thermo Scientific)
Instrument type: LC-ESI-QFT
Ms type: MS2
Ion mode: NEGATIVE
Ionization: ESI
Fragmentation mode: HCD
Collision energy: 75
Resolution: 17500
Column name: Acquity BEH C18 1.7um, 2.1x150mm (Waters)
Retention time: 17.367 min
Base peak: 329.1063
Precursor m/z: 456.1332
Precursor type: [M-H]-
Precursor intensity: 16067016.75977
m/z	relative intensity	assigned
57.0346	2	C3H5O-
58.0298	4	C2H4NO-
59.0138	2	C2H3O2-
66.0349	211	C4H4N-
68.0141	4	C3H2NO-
70.0298	7	C3H4NO-
71.0139	20	C3H3O2-
72.9933	1	C2HO3-
73.0295	10	C3H5O2-
75.0086	1	C2H3O3-
76.0193	3	C5H2N-
81.9934	1	C3NO2-
82.0298	9	C4H4NO-
84.009	4	C3H2NO2-
84.0455	6	C4H6NO-
85.0168	1	C3H3NO2-
86.0247	2	C3H4NO2-
88.0404	5	C3H6NO2-
91.0555	2	C7H7-
94.03	1	C5H4NO-
96.0454	2	C5H6NO-
98.0248	4	C4H4NO2-
100.0405	29	C4H6NO2-
101.0271	26	C7H3N-
102.056	19	C4H8NO2-
111.0007	2	C6H4Cl-
114.0349	105	C8H4N-
116.0352	2	C4H6NO3-
116.0506	14	C8H6N-
117.0217	2	C7H3NO-
117.0343	3	C8H5O-
118.0299	1	C7H4NO-
118.0661	2	C8H8N-
119.0501	2	C8H7O-
125.004	3	C6H4ClN-
126.9958	7	C6H4ClO-
131.0375	1	C8H5NO-
131.0502	2	C9H7O-
135.996	2	C7H3ClN-
139.0303	10	C9H3N2-
144.0454	3	C9H6NO-
146.0249	1	C8H4NO2-
146.0484	3	C8H6N2O-
146.0609	3	C9H8NO-
147.0327	1	C8H5NO2-
149.0036	12	C8H4ClN-
150.0116	999	C8H5ClN-
151.9906	3	C7H3ClNO-
154.9908	1	C7H4ClO2-
164.0271	1	C9H7ClN-
164.9987	130	C8H4ClNO-
174.0117	4	C10H5ClN-
174.0436	1	C9H6N2O2-
175.0068	71	C9H4ClN2-
178.0067	12	C9H5ClNO-
179.9857	2	C8H3ClNO2-
180.0227	1	C9H7ClNO-
188.0146	8	C10H5ClN2-
189.0223	2	C10H6ClN2-
191.0019	6	C9H4ClN2O-
193.0174	72	C9H6ClN2O-
195.0092	1	C9H6ClNO2-
202.0386	1	C10H6N2O3-
205.0174	22	C10H6ClN2O-
207.0328	1	C13H5NO2-
216.0097	6	C11H5ClN2O-
217.0172	7	C11H6ClN2O-
232.0045	1	C11H5ClN2O2-
233.0124	7	C11H6ClN2O2-
234.0201	15	C11H7ClN2O2-
238.0147	3	C13H4NO4-
