Mass spectrum: Celecoxib; LC-ESI-QFT; MS2; CE: 90; R=17500; [M-H]-
Name: Celecoxib
Name: 4-[5-(4-methylphenyl)-3-(trifluoromethyl)pyrazol-1-yl]benzenesulfonamide
Formula: C17H14F3N3O2S
Exact mass: 381.0759
SMILES: CC1=CC=C(C=C1)C1=CC(=NN1C1=CC=C(C=C1)S(N)(=O)=O)C(F)(F)F
InChI: InChI=1S/C17H14F3N3O2S/c1-11-2-4-12(5-3-11)15-10-16(17(18,19)20)22-23(15)13-6-8-14(9-7-13)26(21,24)25/h2-10H,1H3,(H2,21,24,25)
Instrument: Q Exactive Orbitrap (Thermo Scientific)
Instrument type: LC-ESI-QFT
Ms type: MS2
Ion mode: NEGATIVE
Ionization: ESI
Fragmentation mode: HCD
Collision energy: 90
Resolution: 17500
Column name: Acquity BEH C18 1.7um, 2.1x150mm (Waters)
Retention time: 17.965 min
Base peak: 203.0131
Precursor m/z: 380.0686
Precursor type: [M-H]-
Precursor intensity: 25202035.62988
m/z	relative intensity	assigned
61.9706	480	NOS-
63.9625	246	O2S-
64.0193	18	C4H2N-
65.0146	19	C3HN2-
68.9958	999	CF3-
74.0037	5	C5N-
75.0052	1	C3HF2-
77.9655	351	NO2S-
78.9734	81	HNO2S-
79.9812	170	H2NO2S-
88.0004	64	C3F2N-
88.0193	56	C6H2N-
89.0146	9	C5HN2-
103.043	1	C7H5N-
106.0537	2	C6H6N2-
107.0378	1	C6H5NO-
108.0256	8	C6H3FN-
112.0193	44	C8H2N-
115.0301	7	C7H3N2-
116.0509	3	C8H6N-
117.046	5	C7H5N2-
118.0302	3	C7H4NO-
129.0459	10	C8H5N2-
130.0538	8	C8H6N2-
131.0377	4	C8H5NO-
132.0255	11	C8H3FN-
138.0226	2	C9H2N2-
139.0302	155	C9H3N2-
140.0145	1	C9H2NO-
142.0414	3	C8H4N3-
155.0489	8	C9H5N3-
155.0618	2	C10H7N2-
156.0571	5	C9H6N3-
157.046	51	C11H6F-
159.0364	38	C9H4FN2-
160.0209	6	C9H3FNO-
166.0415	2	C10H4N3-
177.0521	27	C11H7F2-
178.0666	2	C13H8N-
183.0125	2	C11H2FNO-
198.0417	3	C9H5F3N2-
222.081	1	C11H11FN2O2-
224.0576	4	C11H7F3N2-
225.0646	34	C11H8F3N2-
248.0757	12	C16H9FN2-
249.0831	10	C16H10FN2-
254.0735	3	C14H9FN3O-
255.0814	5	C14H10FN3O-
