Mass spectrum: 2,4-Dinitrophenol; LC-ESI-QFT; MS2; CE: 15; R=17500; [M-H]-
Name: 2,4-Dinitrophenol
Formula: C6H4N2O5
Exact mass: 184.0120
SMILES: OC1=C(C=C(C=C1)[N+]([O-])=O)[N+]([O-])=O
InChI: InChI=1S/C6H4N2O5/c9-6-2-1-4(7(10)11)3-5(6)8(12)13/h1-3,9H
Instrument: Q Exactive Orbitrap (Thermo Scientific)
Instrument type: LC-ESI-QFT
Ms type: MS2
Ion mode: NEGATIVE
Ionization: ESI
Fragmentation mode: HCD
Collision energy: 15
Resolution: 17500
Column name: Acquity BEH C18 1.7um, 2.1x150mm (Waters)
Retention time: 14.528 min
Base peak: 183.0047
Precursor m/z: 183.0047
Precursor type: [M-H]-
Precursor intensity: 34410931.08301
m/z	relative intensity	assigned
67.019	1	C4H3O-
68.9983	1	C3HO2-
79.019	1	C5H3O-
95.0139	11	C5H3O2-
109.0166	2	C5H3NO2-
123.0088	64	C6H3O3-
137.0117	5	C6H3NO3-
153.0068	109	C6H3NO4-
183.0047	999	C6H3N2O5-
