Mass spectrum: PharmaGSID_48507; LC-ESI-QFT; MS2; CE: 30; R=17500; [M+H]+
Name: PharmaGSID_48507
Name: 5-(2,4-Difluorophenoxy)-2-[(2-hydroxy-2-methylpropyl)amino]-8-methylpyrido[2,3-d]pyrimidin-7(8H)-one
Formula: C18H18F2N4O3
Exact mass: 376.1347
SMILES: CN1C(=O)C=C(OC2=C(F)C=C(F)C=C2)C2=C1N=C(NCC(C)(C)O)N=C2
InChI: InChI=1S/C18H18F2N4O3/c1-18(2,26)9-22-17-21-8-11-14(7-15(25)24(3)16(11)23-17)27-13-5-4-10(19)6-12(13)20/h4-8,26H,9H2,1-3H3,(H,21,22,23)
Instrument: Q Exactive Orbitrap (Thermo Scientific)
Instrument type: LC-ESI-QFT
Ms type: MS2
Ion mode: POSITIVE
Ionization: ESI
Fragmentation mode: HCD
Collision energy: 30
Resolution: 17500
Column name: Acquity BEH C18 1.7um, 2.1x150mm (Waters)
Retention time: 16.626 min
Base peak: 79.0211
Precursor m/z: 377.142
Precursor type: [M+H]+
Precursor intensity: 25336720.75
m/z	relative intensity	assigned
55.0546	2	C4H7+
213.1136	2	C12H13N4+
215.0928	13	C11H11N4O+
217.1079	1	C11H13N4O+
229.1084	1	C12H13N4O+
230.1163	2	C12H14N4O+
303.0686	1	C14H9F2N4O2+
304.0768	28	C14H10F2N4O2+
305.0846	4	C14H11F2N4O2+
343.0996	1	C17H13F2N4O2+
359.1314	999	C18H17F2N4O2+
377.1421	49	C18H19F2N4O3+
