Mass spectrum: Tolbutamide; LC-ESI-QFT; MS2; CE: 15; R=17500; [M-H]-
Name: Tolbutamide
Name: 1-butyl-3-(4-methylphenyl)sulfonylurea
Formula: C12H18N2O3S
Exact mass: 270.1038
SMILES: CCCCNC(=O)NS(=O)(=O)C1=CC=C(C)C=C1
InChI: InChI=1S/C12H18N2O3S/c1-3-4-9-13-12(15)14-18(16,17)11-7-5-10(2)6-8-11/h5-8H,3-4,9H2,1-2H3,(H2,13,14,15)
Instrument: Q Exactive Orbitrap (Thermo Scientific)
Instrument type: LC-ESI-QFT
Ms type: MS2
Ion mode: NEGATIVE
Ionization: ESI
Fragmentation mode: HCD
Collision energy: 15
Resolution: 17500
Column name: Acquity BEH C18 1.7um, 2.1x150mm (Waters)
Retention time: 16.151 min
Base peak: 112.9857
Precursor m/z: 269.0965
Precursor type: [M-H]-
Precursor intensity: 2986065.171387
m/z	relative intensity	assigned
78.9734	4	HNO2S-
106.0663	1	C7H8N-
170.0282	999	C7H8NO2S-
174.9722	11	C8HNO2S-
269.0967	431	C12H17N2O3S-
