Mass spectrum: Mifepristone; LC-ESI-QFT; MS2; CE: 60; R=17500; [M+H]+
Name: Mifepristone
Name: (8S,11R,13S,14S,17S)-11-[4-(dimethylamino)phenyl]-17-hydroxy-13-methyl-17-prop-1-ynyl-1,2,6,7,8,11,12,14,15,16-decahydrocyclopenta[a]phenanthren-3-one
Formula: C29H35NO2
Exact mass: 429.2668
SMILES: CC#C[C@]1(O)CC[C@H]2[C@@H]3CCC4=CC(=O)CCC4=C3[C@H](C[C@]12C)C1=CC=C(C=C1)N(C)C
InChI: InChI=1S/C29H35NO2/c1-5-15-29(32)16-14-26-24-12-8-20-17-22(31)11-13-23(20)27(24)25(18-28(26,29)2)19-6-9-21(10-7-19)30(3)4/h6-7,9-10,17,24-26,32H,8,11-14,16,18H2,1-4H3/t24-,25+,26-,28-,29-/m0/s1
Instrument: Q Exactive Orbitrap (Thermo Scientific)
Instrument type: LC-ESI-QFT
Ms type: MS2
Ion mode: POSITIVE
Ionization: ESI
Fragmentation mode: HCD
Collision energy: 60
Resolution: 17500
Column name: Acquity BEH C18 1.7um, 2.1x150mm (Waters)
Retention time: 16.426 min
Base peak: 79.0211
Precursor m/z: 430.2741
Precursor type: [M+H]+
Precursor intensity: 9322901
m/z	relative intensity	assigned
53.0386	9	C4H5+
55.0179	33	C3H3O+
55.0543	24	C4H7+
56.0494	2	C3H6N+
57.0334	2	C3H5O+
58.065	4	C3H8N+
65.0385	11	C5H5+
67.0177	9	C4H3O+
67.0541	52	C5H7+
69.0333	10	C4H5O+
69.0697	12	C5H9+
70.0649	5	C4H8N+
71.049	4	C4H7O+
79.0541	104	C6H7+
81.0334	3	C5H5O+
81.0698	55	C6H9+
83.0491	42	C5H7O+
84.0806	2	C5H10N+
91.0542	221	C7H7+
92.0618	4	C7H8+
93.0699	95	C7H9+
95.0491	41	C6H7O+
95.0855	24	C7H11+
97.0648	55	C6H9O+
103.0541	23	C8H7+
105.0699	172	C8H9+
106.0653	7	C7H8N+
107.0491	77	C7H7O+
107.0729	56	C7H9N+
107.0854	43	C8H11+
108.0806	4	C7H10N+
109.0648	76	C7H9O+
109.1011	6	C8H13+
111.0805	5	C7H11O+
115.0542	45	C9H7+
116.0621	21	C9H8+
117.0571	7	C8H7N+
117.0699	137	C9H9+
118.065	30	C8H8N+
119.0855	109	C9H11+
120.0807	116	C8H10N+
121.0647	27	C8H9O+
121.0886	136	C8H11N+
121.1012	9	C9H13+
122.0964	115	C8H12N+
123.0803	19	C8H11O+
125.096	3	C8H13O+
128.062	69	C10H8+
129.0698	139	C10H9+
130.0651	9	C9H8N+
130.0777	25	C10H10+
131.049	23	C9H7O+
131.0734	17	C9H9N+
131.0855	123	C10H11+
132.0568	8	C9H8O+
132.0808	38	C9H10N+
132.0933	6	C10H12+
133.0647	130	C9H9O+
133.0886	61	C9H11N+
133.1011	38	C10H13+
134.0964	999	C9H12N+
135.0803	151	C9H11O+
136.1123	5	C9H14N+
137.0958	3	C9H13O+
141.0698	74	C11H9+
142.0778	31	C11H10+
143.0728	7	C10H9N+
143.0855	86	C11H11+
144.057	21	C10H8O+
144.0807	51	C10H10N+
144.0933	8	C11H12+
145.0647	72	C10H9O+
145.0887	37	C10H11N+
145.101	51	C11H13+
146.0725	29	C10H10O+
146.0964	76	C10H12N+
147.0804	46	C10H11O+
147.1041	59	C10H13N+
147.1166	4	C11H15+
148.0755	42	C9H10NO+
148.112	154	C10H14N+
149.096	20	C10H13O+
150.0915	5	C9H12NO+
151.075	5	C9H11O2+
152.0622	8	C12H8+
153.0699	31	C12H9+
154.0778	26	C12H10+
155.0854	96	C12H11+
156.0811	13	C11H10N+
156.0933	15	C12H12+
157.0647	41	C11H9O+
157.0887	50	C11H11N+
157.1008	35	C12H13+
158.0726	12	C11H10O+
158.0964	188	C11H12N+
159.0804	118	C11H11O+
159.1042	73	C11H13N+
159.1169	9	C12H15+
160.0881	11	C11H12O+
160.112	94	C11H14N+
161.096	73	C11H13O+
161.1199	13	C11H15N+
162.1276	25	C11H16N+
165.0699	51	C13H9+
166.0777	28	C13H10+
167.0855	62	C13H11+
168.0933	16	C13H12+
169.0646	7	C12H9O+
169.0886	3	C12H11N+
169.1011	58	C13H13+
170.0728	6	C12H10O+
170.0963	31	C12H12N+
170.109	4	C13H14+
171.0806	25	C12H11O+
171.1042	89	C12H13N+
171.1164	11	C13H15+
172.112	297	C12H14N+
173.0961	52	C12H13O+
173.1198	43	C12H15N+
174.0911	5	C11H12NO+
174.1038	50	C12H14O+
174.1278	27	C12H16N+
175.1117	9	C12H15O+
175.1355	12	C12H17N+
177.0698	2	C14H9+
178.0777	29	C14H10+
179.0854	69	C14H11+
180.0931	23	C14H12+
181.065	12	C13H9O+
181.1011	52	C14H13+
182.0727	11	C13H10O+
182.0967	11	C13H12N+
182.1091	10	C14H14+
183.0806	23	C13H11O+
183.1043	27	C13H13N+
183.1168	30	C14H15+
184.0884	6	C13H12O+
184.112	75	C13H14N+
185.0962	21	C13H13O+
185.1199	52	C13H15N+
185.1318	5	C14H17+
186.104	4	C13H14O+
186.1277	48	C13H16N+
187.1114	9	C13H15O+
187.1358	6	C13H17N+
188.1068	3	C12H14NO+
188.1434	6	C13H18N+
190.0776	5	C15H10+
190.1222	2	C12H16NO+
191.0853	33	C15H11+
192.0933	42	C15H12+
193.0904	4	C14H11N+
193.1012	54	C15H13+
194.0726	8	C14H10O+
194.0966	25	C14H12N+
194.1091	12	C15H14+
195.0805	16	C14H11O+
195.1057	17	C14H13N+
195.1162	23	C15H15+
196.0884	12	C14H12O+
196.1121	18	C14H14N+
196.1235	3	C15H16+
197.0961	30	C14H13O+
197.12	34	C14H15N+
197.132	7	C15H17+
198.1039	8	C14H14O+
198.1277	64	C14H16N+
199.1118	15	C14H15O+
199.1355	34	C14H17N+
200.1078	3	C13H14NO+
200.1195	4	C14H16O+
200.1433	15	C14H18N+
201.1273	6	C14H17O+
202.0782	8	C16H10+
203.0855	16	C16H11+
204.0935	11	C16H12+
205.1012	24	C16H13+
206.0971	4	C15H12N+
206.109	16	C16H14+
207.0805	8	C15H11O+
207.1042	32	C15H13N+
207.1167	27	C16H15+
208.0884	9	C15H12O+
208.1122	72	C15H14N+
208.1245	7	C16H16+
209.0961	19	C15H13O+
209.1199	56	C15H15N+
209.1324	15	C16H17+
210.1038	10	C15H14O+
210.1276	64	C15H16N+
211.101	4	C14H13NO+
211.1116	30	C15H15O+
211.1354	23	C15H17N+
212.108	4	C14H14NO+
212.1197	6	C15H16O+
212.1433	28	C15H18N+
213.1147	6	C14H15NO+
213.1274	8	C15H17O+
213.1514	13	C15H19N+
214.1232	6	C14H16NO+
214.135	2	C15H18O+
214.1592	3	C15H20N+
215.0855	10	C17H11+
215.1074	2	C14H15O2+
216.0934	9	C17H12+
217.1012	22	C17H13+
218.109	14	C17H14+
219.081	4	C16H11O+
219.1047	3	C16H13N+
219.1169	21	C17H15+
220.0879	6	C16H12O+
220.112	19	C16H14N+
220.1235	4	C17H16+
221.0956	17	C16H13O+
221.1201	50	C16H15N+
221.1324	9	C17H17+
222.1039	8	C16H14O+
222.1277	105	C16H16N+
223.1118	23	C16H15O+
223.1356	73	C16H17N+
223.1477	7	C17H19+
224.1076	4	C15H14NO+
224.1433	61	C16H18N+
225.1147	9	C15H15NO+
225.1275	13	C16H17O+
225.1512	17	C16H19N+
226.1223	7	C15H16NO+
226.1585	10	C16H20N+
227.1307	4	C15H17NO+
227.1432	6	C16H19O+
228.0937	5	C18H12+
228.1381	3	C15H18NO+
229.1015	22	C18H13+
230.1092	6	C18H14+
231.105	4	C17H13N+
231.116	11	C18H15+
232.112	6	C17H14N+
232.1245	4	C18H16+
233.0961	8	C17H13O+
233.1196	11	C17H15N+
233.133	10	C18H17+
234.1046	4	C17H14O+
234.1277	35	C17H16N+
234.1403	4	C18H18+
235.112	12	C17H15O+
235.1355	38	C17H17N+
235.1478	3	C18H19+
236.1202	7	C17H16O+
236.1433	97	C17H18N+
237.1156	3	C16H15NO+
237.128	11	C17H17O+
237.1511	29	C17H19N+
238.1228	11	C16H16NO+
238.159	33	C17H20N+
239.107	2	C16H15O2+
239.1304	7	C16H17NO+
239.1431	3	C17H19O+
239.1662	4	C17H21N+
240.1384	16	C16H18NO+
240.1746	3	C17H22N+
241.1462	4	C16H19NO+
242.1093	4	C19H14+
242.1538	5	C16H20NO+
243.1169	15	C19H15+
244.1115	3	C18H14N+
244.1246	5	C19H16+
245.1199	5	C18H15N+
245.1332	6	C19H17+
246.1044	3	C18H14O+
246.1272	19	C18H16N+
247.1114	7	C18H15O+
247.1355	26	C18H17N+
248.1432	46	C18H18N+
249.1509	31	C18H19N+
249.1649	3	C19H21+
250.123	5	C17H16NO+
250.1363	4	C18H18O+
250.1588	29	C18H20N+
251.1305	5	C17H17NO+
251.1434	7	C18H19O+
251.1675	9	C18H21N+
252.1384	18	C17H18NO+
252.1515	4	C18H20O+
252.1734	4	C18H22N+
253.1462	4	C17H19NO+
254.1543	3	C17H20NO+
255.117	5	C20H15+
257.12	5	C19H15N+
258.1278	42	C19H16N+
259.1354	18	C19H17N+
260.1433	51	C19H18N+
261.1279	4	C19H17O+
261.151	31	C19H19N+
262.159	35	C19H20N+
263.1297	3	C18H17NO+
263.1661	10	C19H21N+
264.1387	9	C18H18NO+
264.175	8	C19H22N+
265.1459	13	C18H19NO+
266.1537	24	C18H20NO+
267.1614	6	C18H21NO+
269.1538	5	C18H21O2+
271.1355	9	C20H17N+
272.1434	40	C20H18N+
273.151	47	C20H19N+
274.1589	88	C20H20N+
275.1663	13	C20H21N+
276.1376	4	C19H18NO+
276.1742	16	C20H22N+
277.1825	3	C20H23N+
278.1542	9	C19H20NO+
278.1903	4	C20H24N+
279.1616	6	C19H21NO+
280.1698	18	C19H22NO+
281.1765	3	C19H23NO+
284.1432	12	C21H18N+
285.1514	7	C21H19N+
286.1588	40	C21H20N+
287.1668	14	C21H21N+
288.1745	137	C21H22N+
289.1832	5	C21H23N+
290.1901	6	C21H24N+
291.1621	6	C20H21NO+
296.1438	4	C22H18N+
297.1518	4	C22H19N+
298.159	20	C22H20N+
299.1671	34	C22H21N+
300.1742	14	C22H22N+
301.1828	4	C22H23N+
302.1542	3	C21H20NO+
302.1908	3	C22H24N+
304.1707	3	C21H22NO+
305.1762	4	C21H23NO+
306.1852	10	C21H24NO+
310.1593	7	C23H20N+
311.1664	6	C23H21N+
312.176	4	C23H22N+
313.182	4	C23H23N+
314.19	34	C23H24N+
315.1993	2	C23H25N+
316.1695	13	C22H22NO+
317.1771	24	C22H23NO+
318.1851	13	C22H24NO+
319.1937	4	C22H25NO+
320.2013	5	C22H26NO+
324.1746	9	C24H22N+
326.1903	5	C24H24N+
328.1707	2	C23H22NO+
328.2068	3	C24H26N+
330.1854	9	C23H24NO+
332.2011	17	C23H26NO+
333.2091	3	C23H27NO+
338.1907	4	C25H24N+
339.1967	3	C25H25N+
340.2066	3	C25H26N+
342.1868	3	C24H24NO+
344.2015	4	C24H26NO+
346.2169	4	C24H28NO+
354.2224	3	C26H28N+
358.217	9	C25H28NO+
372.2322	6	C26H30NO+
400.2286	2	C27H30NO2+
415.2511	7	C28H33NO2+
