Mass spectrum: PharmaGSID_48518; LC-ESI-QFT; MS2; CE: 75; R=17500; [M+H]+
Name: PharmaGSID_48518
Name: 2-bromo-4-fluoro-N-[(E)-2-thiophen-2-ylethenyl]sulfonylbenzamide
Formula: C13H9BrFNO3S2
Exact mass: 388.9191
SMILES: FC1=CC(Br)=C(C=C1)C(=O)NS(=O)(=O)\C=C\C1=CC=CS1
InChI: InChI=1S/C13H9BrFNO3S2/c14-12-8-9(15)3-4-11(12)13(17)16-21(18,19)7-5-10-2-1-6-20-10/h1-8H,(H,16,17)/b7-5+
Instrument: Q Exactive Orbitrap (Thermo Scientific)
Instrument type: LC-ESI-QFT
Ms type: MS2
Ion mode: POSITIVE
Ionization: ESI
Fragmentation mode: HCD
Collision energy: 75
Resolution: 17500
Column name: Acquity BEH C18 1.7um, 2.1x150mm (Waters)
Retention time: 16.424 min
Base peak: 79.0212
Precursor m/z: 389.9264
Precursor type: [M+H]+
Precursor intensity: 852681.3125
m/z	relative intensity	assigned
65.0386	531	C5H5+
68.9793	58	C3HS+
82.995	11	C4H3S+
83.0126	3	C4H3O2+
84.0027	7	C4H4S+
86.9899	5	C3H3OS+
94.0213	19	C6H3F+
97.0109	21	C5H5S+
102.967	11	C3H3S2+
108.0029	24	C6H4S+
109.0108	999	C6H5S+
112.032	18	C6H5FO+
126.967	20	C5H3S2+
154.9617	10	C6H3OS2+
172.9399	5	C5FNOS2+
190.9503	6	C6H5BrFO+
200.9346	57	C7H3BrFO+
200.9457	71	C3H8BrNO2S+
