Mass spectrum: PD-0333941; LC-ESI-QFT; MS2; CE: 30; R=17500; [M+H]+
Name: PD-0333941
Name: 3-[4-[2-(5-methyl-2-phenyl-1,3-oxazol-4-yl)ethoxy]indol-1-yl]propanoic acid
Formula: C23H22N2O4
Exact mass: 390.1580
SMILES: CC1=C(CCOC2=CC=CC3=C2C=CN3CCC(O)=O)N=C(O1)C1=CC=CC=C1
InChI: InChI=1S/C23H22N2O4/c1-16-19(24-23(29-16)17-6-3-2-4-7-17)12-15-28-21-9-5-8-20-18(21)10-13-25(20)14-11-22(26)27/h2-10,13H,11-12,14-15H2,1H3,(H,26,27)
Instrument: Q Exactive Orbitrap (Thermo Scientific)
Instrument type: LC-ESI-QFT
Ms type: MS2
Ion mode: POSITIVE
Ionization: ESI
Fragmentation mode: HCD
Collision energy: 30
Resolution: 17500
Column name: Acquity BEH C18 1.7um, 2.1x150mm (Waters)
Retention time: 18.720 min
Base peak: 79.0211
Precursor m/z: 391.1652
Precursor type: [M+H]+
Precursor intensity: 23638698.75
m/z	relative intensity	assigned
83.0491	45	C5H7O+
104.0494	94	C7H6N+
105.0335	13	C7H5O+
122.0599	2	C7H8NO+
143.0731	1	C10H9N+
144.0808	32	C10H10N+
146.0599	5	C9H8NO+
149.0471	1	C8H7NO2+
162.0546	1	C9H8NO2+
163.0632	6	C9H9NO2+
164.0715	1	C9H10NO2+
174.0914	20	C11H12NO+
186.0913	999	C12H12NO+
187.0989	6	C12H13NO+
188.0701	1	C11H10NO2+
194.0811	1	C10H12NO3+
205.0737	1	C11H11NO3+
206.0812	23	C11H12NO3+
210.0911	3	C14H12NO+
218.0811	55	C12H12NO3+
228.1017	2	C14H14NO2+
270.1124	19	C16H16NO3+
299.0584	1	C19H9NO3+
323.0189	1	C20H5NO4+
391.1653	124	C23H23N2O4+
