Mass spectrum: CP-114271; LC-ESI-QFT; MS2; CE: 60; R=17500; [M+H]+
Name: CP-114271
Name: 2-[4-[2-[[2-hydroxy-2-[2-(trifluoromethyl)-1,3-thiazol-4-yl]ethyl]amino]propyl]phenoxy]acetic acid
Formula: C17H19F3N2O4S
Exact mass: 404.1018
SMILES: CC(CC1=CC=C(OCC(O)=O)C=C1)NCC(O)C1=CSC(=N1)C(F)(F)F
InChI: InChI=1S/C17H19F3N2O4S/c1-10(6-11-2-4-12(5-3-11)26-8-15(24)25)21-7-14(23)13-9-27-16(22-13)17(18,19)20/h2-5,9-10,14,21,23H,6-8H2,1H3,(H,24,25)
Instrument: Q Exactive Orbitrap (Thermo Scientific)
Instrument type: LC-ESI-QFT
Ms type: MS2
Ion mode: POSITIVE
Ionization: ESI
Fragmentation mode: HCD
Collision energy: 60
Resolution: 17500
Column name: Acquity BEH C18 1.7um, 2.1x150mm (Waters)
Retention time: 13.776 min
Base peak: 79.0211
Precursor m/z: 405.109
Precursor type: [M+H]+
Precursor intensity: 19375733.25
m/z	relative intensity	assigned
51.023	1	C4H3+
53.0022	2	C3HO+
53.0386	6	C4H5+
55.0178	12	C3H3O+
55.0543	1	C4H7+
63.0228	1	C5H3+
65.0384	5	C5H5+
67.0415	10	C4H5N+
69.0334	3	C4H5O+
77.0385	7	C6H5+
78.0463	1	C6H6+
79.0542	35	C6H7+
81.0334	2	C5H5O+
90.0463	1	C7H6+
91.0542	999	C7H7+
93.0447	1	C5H5N2+
93.0699	13	C7H9+
95.049	17	C6H7O+
98.0057	1	C4H4NS+
100.0215	19	C4H6NS+
102.0464	2	C8H6+
103.0542	15	C8H7+
104.062	7	C8H8+
105.0335	24	C7H5O+
105.0445	5	C6H5N2+
105.0699	45	C8H9+
107.0491	980	C7H7O+
109.0648	2	C7H9O+
115.0542	431	C9H7+
116.0304	2	C2H9FO2S+
116.062	24	C9H8+
117.0698	193	C9H9+
118.0411	1	C8H6O+
119.0855	554	C9H11+
121.0647	3	C8H9O+
128.0618	7	C10H8+
129.0697	29	C10H9+
131.0414	3	C5H5F2N2+
131.0491	1	C9H7O+
131.0602	1	C8H7N2+
132.057	36	C9H8O+
133.0647	41	C9H9O+
134.0725	48	C9H10O+
135.0803	308	C9H11O+
136.0366	7	C2H10F2O2S+
137.0596	2	C8H9O2+
143.0602	1	C9H7N2+
145.0759	281	C9H9N2+
146.0728	2	C10H10O+
147.0803	491	C10H11O+
148.0025	3	C5H4F2NS+
149.0961	1	C10H13O+
155.0603	2	C10H7N2+
157.0762	1	C10H9N2+
161.032	10	C6H4F3N2+
165.0545	677	C9H9O3+
168.0087	2	C5H5F3NS+
175.0134	3	C6H5F2N2S+
179.1065	2	C11H15O2+
193.0859	48	C11H13O3+
195.0198	25	C6H6F3N2S+
