Mass spectrum: Troglitazone; LC-ESI-QFT; MS2; CE: 60; R=17500; [M+H]+
Name: Troglitazone
Name: 5-[[4-[(6-hydroxy-2,5,7,8-tetramethyl-3,4-dihydrochromen-2-yl)methoxy]phenyl]methyl]-1,3-thiazolidine-2,4-dione
Formula: C24H27NO5S
Exact mass: 441.161
SMILES: CC1=C(O)C(C)=C2CCC(C)(COC3=CC=C(CC4SC(=O)NC4=O)C=C3)OC2=C1C
InChI: InChI=1S/C24H27NO5S/c1-13-14(2)21-18(15(3)20(13)26)9-10-24(4,30-21)12-29-17-7-5-16(6-8-17)11-19-22(27)25-23(28)31-19/h5-8,19,26H,9-12H2,1-4H3,(H,25,27,28)
Instrument: Q Exactive Orbitrap (Thermo Scientific)
Instrument type: LC-ESI-QFT
Ms type: MS2
Ion mode: POSITIVE
Ionization: ESI
Fragmentation mode: HCD
Collision energy: 60
Resolution: 17500
Column name: Acquity BEH C18 1.7um, 2.1x150mm (Waters)
Retention time: 18.792 min
Base peak: 79.0212
Precursor m/z: 442.1683
Precursor type: [M+H]+
Precursor intensity: 422945.15625
m/z	relative intensity	assigned
55.0542	12	C4H7+
67.0543	104	C5H7+
79.0544	10	C6H7+
81.0699	79	C6H9+
83.0493	23	C5H7O+
91.0544	36	C7H7+
93.07	20	C7H9+
95.0856	22	C7H11+
107.0855	12	C8H11+
109.1012	160	C8H13+
117.0699	14	C9H9+
119.0857	102	C9H11+
121.0648	10	C8H9O+
122.0727	73	C8H10O+
130.0773	10	C10H10+
131.0494	20	C9H7O+
131.0858	28	C10H11+
135.0806	34	C9H11O+
137.0962	441	C9H13O+
145.0652	17	C10H9O+
145.1014	38	C11H13+
149.0963	66	C10H13O+
155.0857	41	C12H11+
158.0727	75	C11H10O+
159.0806	41	C11H11O+
162.0677	13	C10H10O2+
163.1113	13	C11H15O+
165.0911	999	C10H13O2+
173.0962	107	C12H13O+
175.0755	12	C11H11O2+
189.091	39	C12H13O2+
