Mass spectrum: Etoxazole; LC-ESI-QFT; MS2; CE: 60; R=17500; [M+H]+
Name: Etoxazole
Name: 4-(4-tert-butyl-2-ethoxyphenyl)-2-(2,6-difluorophenyl)-4,5-dihydro-1,3-oxazole
Formula: C21H23F2NO2
Exact mass: 359.1697
SMILES: CCOC1=C(C=CC(=C1)C(C)(C)C)C1COC(=N1)C1=C(F)C=CC=C1F
InChI: InChI=1S/C21H23F2NO2/c1-5-25-18-11-13(21(2,3)4)9-10-14(18)17-12-26-20(24-17)19-15(22)7-6-8-16(19)23/h6-11,17H,5,12H2,1-4H3
Instrument: Q Exactive Orbitrap (Thermo Scientific)
Instrument type: LC-ESI-QFT
Ms type: MS2
Ion mode: POSITIVE
Ionization: ESI
Fragmentation mode: HCD
Collision energy: 60
Resolution: 17500
Column name: Acquity BEH C18 1.7um, 2.1x150mm (Waters)
Retention time: 19.911 min
Base peak: 79.0212
Precursor m/z: 360.177
Precursor type: [M+H]+
Precursor intensity: 129875703.3438
m/z	relative intensity	assigned
53.0022	2	C3HO+
56.0495	1	C3H6N+
57.0699	123	C4H9+
63.0228	3	C5H3+
91.0542	33	C7H7+
93.0699	1	C7H9+
107.0492	2	C7H7O+
111.024	2	C6H4FO+
113.0195	2	C6H3F2+
119.0492	9	C8H7O+
119.0855	5	C9H11+
121.0648	6	C8H9O+
127.0352	2	C7H5F2+
129.0701	1	C10H9+
131.0304	2	C6H5F2O+
139.0357	2	C8H5F2+
140.0308	4	C7H4F2N+
141.0146	999	C7H3F2O+
144.0932	1	C11H12+
147.0803	6	C10H11O+
158.0412	13	C7H6F2NO+
159.0805	9	C11H11O+
159.1165	1	C12H15+
161.0958	1	C11H13O+
162.1039	5	C11H14O+
163.1114	1	C11H15O+
173.0963	2	C12H13O+
177.1274	9	C12H17O+
182.0416	1	C9H6F2NO+
187.1118	1	C13H15O+
188.1193	1	C13H16O+
204.1384	4	C13H18NO+
258.0722	1	C15H10F2NO+
273.1081	1	C17H15F2O+
