Mass spectrum: 2-Amino-5-azotoluene; LC-ESI-QFT; MS2; CE: 30; R=17500; [M+H]+
Name: 2-Amino-5-azotoluene
Name: o-Aminoazotoluene
Name: 2-methyl-4-[(2-methylphenyl)diazenyl]aniline
Formula: C14H15N3
Exact mass: 225.1266
SMILES: CC1=C(N)C=CC(=C1)N=NC1=C(C)C=CC=C1
InChI: InChI=1S/C14H15N3/c1-10-5-3-4-6-14(10)17-16-12-7-8-13(15)11(2)9-12/h3-9H,15H2,1-2H3
Instrument: Q Exactive Orbitrap (Thermo Scientific)
Instrument type: LC-ESI-QFT
Ms type: MS2
Ion mode: POSITIVE
Ionization: ESI
Fragmentation mode: HCD
Collision energy: 30
Resolution: 17500
Column name: Acquity BEH C18 1.7um, 2.1x150mm (Waters)
Retention time: 18.780 min
Base peak: 79.0212
Precursor m/z: 226.1339
Precursor type: [M+H]+
Precursor intensity: 32432120.96875
m/z	relative intensity	assigned
55.0542	2	C4H7+
65.0386	15	C5H5+
67.0416	3	C4H5N+
67.0543	5	C5H7+
68.0495	1	C4H6N+
77.0386	1	C6H5+
79.0542	9	C6H7+
80.0496	4	C5H6N+
81.0574	1	C5H7N+
82.0652	13	C5H8N+
91.0543	189	C7H7+
92.0494	2	C6H6N+
93.0335	4	C4H3N3+
93.0573	2	C6H7N+
94.0652	19	C6H8N+
95.0491	2	C4H5N3+
106.0414	19	C5H4N3+
106.0652	243	C7H8N+
107.0491	23	C5H5N3+
107.073	17	C7H9N+
108.0569	3	C5H6N3+
108.0808	8	C7H10N+
109.0649	142	C5H7N3+
119.0605	99	C7H7N2+
120.0809	44	C8H10N+
121.0761	232	C7H9N2+
122.0839	4	C7H10N2+
123.0803	2	C6H9N3+
133.0761	155	C8H9N2+
134.0713	17	C7H8N3+
182.0966	6	C13H12N+
183.1043	5	C13H13N+
184.0996	1	C12H12N2+
194.0838	2	C13H10N2+
195.0911	1	C13H11N2+
196.0871	1	C12H10N3+
197.1198	6	C14H15N+
198.1153	1	C13H14N2+
199.1231	17	C13H15N2+
209.1074	76	C14H13N2+
210.1032	1	C13H12N3+
210.1152	4	C14H14N2+
211.1104	18	C13H13N3+
225.1264	1	C14H15N3+
226.1339	999	C14H16N3+
