Mass spectrum: 1-(2,6-Dichlorophenyl)-2-indolinone; LC-ESI-QFT; MS2; CE: 30; R=17500; [M+H]+
Name: 1-(2,6-Dichlorophenyl)-2-indolinone
Name: 1-(2,6-dichlorophenyl)-3H-indol-2-one
Formula: C14H9Cl2NO
Exact mass: 277.0061
SMILES: ClC1=CC=CC(Cl)=C1N1C(=O)CC2=C1C=CC=C2
InChI: InChI=1S/C14H9Cl2NO/c15-10-5-3-6-11(16)14(10)17-12-7-2-1-4-9(12)8-13(17)18/h1-7H,8H2
Instrument: Q Exactive Orbitrap (Thermo Scientific)
Instrument type: LC-ESI-QFT
Ms type: MS2
Ion mode: POSITIVE
Ionization: ESI
Fragmentation mode: HCD
Collision energy: 30
Resolution: 17500
Column name: Acquity BEH C18 1.7um, 2.1x150mm (Waters)
Retention time: 17.314 min
Base peak: 79.0212
Precursor m/z: 278.0134
Precursor type: [M+H]+
Precursor intensity: 3075889.8125
m/z	relative intensity	assigned
132.0443	8	C8H6NO+
165.9381	1	C8Cl2+
171.9714	17	C7H4Cl2N+
180.0804	3	C13H10N+
199.9666	1	C8H4Cl2NO+
208.0757	21	C14H10NO+
214.0416	40	C13H9ClN+
215.0495	89	C13H10ClN+
242.0365	1	C14H9ClNO+
243.0444	23	C14H10ClNO+
250.0184	11	C13H10Cl2N+
278.0133	999	C14H10Cl2NO+
