Mass spectrum: Indole-3-butyric acid; LC-ESI-QFT; MS2; CE: 60; R=17500; [M-H]-
Name: Indole-3-butyric acid
Name: 4-(1H-indol-3-yl)butanoic acid
Formula: C12H13NO2
Exact mass: 203.0946
SMILES: OC(=O)CCCC1=CNC2=C1C=CC=C2
InChI: InChI=1S/C12H13NO2/c14-12(15)7-3-4-9-8-13-11-6-2-1-5-10(9)11/h1-2,5-6,8,13H,3-4,7H2,(H,14,15)
Instrument: Q Exactive Orbitrap (Thermo Scientific)
Instrument type: LC-ESI-QFT
Ms type: MS2
Ion mode: NEGATIVE
Ionization: ESI
Fragmentation mode: HCD
Collision energy: 60
Resolution: 17500
Column name: Acquity BEH C18 1.7um, 2.1x150mm (Waters)
Retention time: 15.810 min
Base peak: 112.9857
Precursor m/z: 202.0874
Precursor type: [M-H]-
Precursor intensity: 11938588.13477
m/z	relative intensity	assigned
57.0346	22	C3H5O-
59.0138	25	C2H3O2-
71.0138	14	C3H3O2-
73.0295	41	C3H5O2-
111.0814	11	C7H11O-
116.0505	999	C8H6N-
128.0505	9	C9H6N-
129.0584	19	C9H7N-
130.0661	35	C9H8N-
142.066	41	C10H8N-
156.0817	74	C11H10N-
158.0975	129	C11H12N-
161.0482	39	C9H7NO2-
166.0664	8	C12H8N-
184.0766	33	C12H10NO-
202.0871	27	C12H12NO2-
