Mass spectrum: Tolclofos-methyl; LC-ESI-QFT; MS2; CE: 60; R=17500; [M+H]+
Name: Tolclofos-methyl
Name: (2,6-dichloro-4-methylphenoxy)-dimethoxy-sulfanylidene-lambda5-phosphane
Formula: C9H11Cl2O3PS
Exact mass: 299.9544
SMILES: COP(=S)(OC)OC1=C(Cl)C=C(C)C=C1Cl
InChI: InChI=1S/C9H11Cl2O3PS/c1-6-4-7(10)9(8(11)5-6)14-15(16,12-2)13-3/h4-5H,1-3H3
Instrument: Q Exactive Orbitrap (Thermo Scientific)
Instrument type: LC-ESI-QFT
Ms type: MS2
Ion mode: POSITIVE
Ionization: ESI
Fragmentation mode: HCD
Collision energy: 60
Resolution: 17500
Column name: Acquity BEH C18 1.7um, 2.1x150mm (Waters)
Retention time: 17.784 min
Base peak: 79.0211
Precursor m/z: 300.9616
Precursor type: [M+H]+
Precursor intensity: 1748557.90625
m/z	relative intensity	assigned
62.0185	42	C2H6S+
65.0385	54	C5H5+
78.9943	256	CH4O2P+
79.0543	23	C6H7+
91.0542	41	C7H7+
93.01	77	C2H6O2P+
93.0336	25	C6H5O+
107.0491	28	C7H7O+
108.0569	15	C7H8O+
112.0076	12	C6H5Cl+
112.9378	78	CH3ClPS+
121.0284	33	C7H5O2+
129.0101	35	C6H6ClO+
139.0059	50	C4H9ClOP+
139.0387	12	C7H7O3+
142.9928	573	C3H8ClO2S+
146.9764	130	C6H5Cl2+
155.0259	22	C8H8ClO+
157.0085	18	C4H10ClO2S+
158.9763	33	C7H5Cl2+
159.9796	19	Cl2H11O3P+
171.0211	29	C8H8ClO2+
174.9714	326	C7H5Cl2O+
186.9715	60	C8H5Cl2O+
202.9661	960	C8H5Cl2O2+
220.9767	135	C8H7Cl2O3+
221.9402	28	C7H5Cl2O2P+
236.9269	62	C7H4Cl2O3P+
237.935	999	C7H5Cl2O3P+
252.9584	119	C8H8Cl2O3P+
