Mass spectrum: Apomorphine; LC-ESI-QFT; MS2; CE: 30; R=17500; [M+H]+
Name: Apomorphine
Name: (6aR)-6-methyl-5,6,6a,7-tetrahydro-4H-dibenzo[de,g]quinoline-10,11-diol
Formula: C17H17NO2
Exact mass: 267.1259
SMILES: CN1CCc2cccc3c2[C@H]1Cc1ccc(O)c(O)c1-3
InChI: InChI=1S/C17H17NO2/c1-18-8-7-10-3-2-4-12-15(10)13(18)9-11-5-6-14(19)17(20)16(11)12/h2-6,13,19-20H,7-9H2,1H3/t13-/m1/s1
Instrument: Q Exactive Orbitrap (Thermo Scientific)
Instrument type: LC-ESI-QFT
Ms type: MS2
Ion mode: POSITIVE
Ionization: ESI
Fragmentation mode: HCD
Collision energy: 30
Resolution: 17500
Column name: Acquity BEH C18 1.7um, 2.1x150mm (Waters)
Retention time: 11.124 min
Base peak: 79.0211
Precursor m/z: 268.1332
Precursor type: [M+H]+
Precursor intensity: 19861854.75
m/z	relative intensity	assigned
152.0625	1	C12H8+
189.0708	1	C15H9+
191.0855	46	C15H11+
207.0804	5	C15H11O+
219.0805	346	C16H11O+
225.0913	4	C15H13O2+
233.0963	1	C17H13O+
237.091	999	C16H13O2+
268.1332	240	C17H18NO2+
