Mass spectrum: Propranolol; LC-ESI-QFT; MS2; CE: 60; R=17500; [M+H]+
Name: Propranolol
Name: 1-naphthalen-1-yloxy-3-(propan-2-ylamino)propan-2-ol
Formula: C16H21NO2
Exact mass: 259.1572
SMILES: CC(C)NCC(O)COC1=C2C=CC=CC2=CC=C1
InChI: InChI=1S/C16H21NO2/c1-12(2)17-10-14(18)11-19-16-9-5-7-13-6-3-4-8-15(13)16/h3-9,12,14,17-18H,10-11H2,1-2H3
Instrument: Q Exactive Orbitrap (Thermo Scientific)
Instrument type: LC-ESI-QFT
Ms type: MS2
Ion mode: POSITIVE
Ionization: ESI
Fragmentation mode: HCD
Collision energy: 60
Resolution: 17500
Column name: Acquity BEH C18 1.7um, 2.1x150mm (Waters)
Retention time: 14.293 min
Base peak: 79.0212
Precursor m/z: 260.1645
Precursor type: [M+H]+
Precursor intensity: 24434859.25
m/z	relative intensity	assigned
53.0021	10	C3HO+
55.0178	15	C3H3O+
56.0495	999	C3H6N+
57.0335	4	C3H5O+
57.0572	2	C3H7N+
58.0651	612	C3H8N+
60.0444	4	C2H6NO+
60.0808	16	C3H10N+
70.0651	3	C4H8N+
71.0728	4	C4H9N+
72.0807	585	C4H10N+
74.06	752	C3H8NO+
81.0698	2	C6H9+
84.0807	45	C5H10N+
86.0963	11	C5H12N+
90.055	2	C3H8NO2+
91.0542	7	C7H7+
95.0491	2	C6H7O+
98.0964	195	C6H12N+
100.112	147	C6H14N+
102.0913	4	C5H12NO+
103.0545	3	C8H7+
115.0542	51	C9H7+
116.107	351	C6H14NO+
117.0697	17	C9H9+
127.0543	3	C10H7+
128.062	27	C10H8+
129.0698	263	C10H9+
141.0698	80	C11H9+
143.0492	25	C10H7O+
143.0857	3	C11H11+
144.0569	6	C10H8O+
145.0648	98	C10H9O+
152.0621	3	C12H8+
153.0699	136	C12H9+
154.0777	34	C12H10+
155.0855	569	C12H11+
157.0648	308	C11H9O+
165.0699	182	C13H9+
168.0569	44	C12H8O+
171.0805	13	C12H11O+
181.0647	9	C13H9O+
182.0723	8	C13H10O+
183.0804	162	C13H11O+
218.1173	2	C13H16NO2+
260.165	2	C16H22NO2+
