Mass spectrum: 2,2`-(Tetradecylimino)diethanol; LC-ESI-QFT; MS2; CE: 60; R=17500; [M+H]+
Name: 2,2'-(Tetradecylimino)diethanol
Name: Tetradecyldiethanolamine
Formula: C18H39NO2
Exact mass: 301.2981
SMILES: CCCCCCCCCCCCCCN(CCO)CCO
InChI: InChI=1S/C18H39NO2/c1-2-3-4-5-6-7-8-9-10-11-12-13-14-19(15-17-20)16-18-21/h20-21H,2-18H2,1H3
Instrument: Q Exactive Orbitrap (Thermo Scientific)
Instrument type: LC-ESI-QFT
Ms type: MS2
Ion mode: POSITIVE
Ionization: ESI
Fragmentation mode: HCD
Collision energy: 60
Resolution: 17500
Column name: Acquity BEH C18 1.7um, 2.1x150mm (Waters)
Retention time: 18.110 min
Base peak: 79.0211
Precursor m/z: 302.3054
Precursor type: [M+H]+
Precursor intensity: 26329547.75
m/z	relative intensity	assigned
53.0022	51	C3HO+
53.9975	7	C2NO+
54.0101	1	C3H2O+
55.0417	2	C3H5N+
55.0542	22	C4H7+
56.0495	5	C3H6N+
57.0699	633	C4H9+
58.0651	50	C3H8N+
60.0444	10	C2H6NO+
62.06	33	C2H8NO+
67.9893	2	C3O2+
68.0494	17	C4H6N+
68.9971	1	C3HO2+
69.0698	12	C5H9+
70.065	999	C4H8N+
71.0854	203	C5H11+
72.0807	6	C4H10N+
74.0599	8	C3H8NO+
83.0855	3	C6H11+
84.0808	3	C5H10N+
85.1011	60	C6H13+
86.06	16	C4H8NO+
88.0757	903	C4H10NO+
91.054	1	C7H7+
102.0913	222	C5H12NO+
104.0707	3	C4H10NO2+
106.0862	271	C4H12NO2+
240.2686	10	C16H34N+
256.2628	1	C16H34NO+
258.2791	13	C16H36NO+
284.2946	45	C18H38NO+
302.3052	63	C18H40NO2+
