Mass spectrum: Triphenylphosphine oxide; LC-ESI-QFT; MS2; CE: 60; R=17500; [M+H]+
Name: Triphenylphosphine oxide
Name: diphenylphosphorylbenzene
Formula: C18H15OP
Exact mass: 278.0861
SMILES: O=P(C1=CC=CC=C1)(C1=CC=CC=C1)C1=CC=CC=C1
InChI: InChI=1S/C18H15OP/c19-20(16-10-4-1-5-11-16,17-12-6-2-7-13-17)18-14-8-3-9-15-18/h1-15H
Instrument: Q Exactive Orbitrap (Thermo Scientific)
Instrument type: LC-ESI-QFT
Ms type: MS2
Ion mode: POSITIVE
Ionization: ESI
Fragmentation mode: HCD
Collision energy: 60
Resolution: 17500
Column name: Acquity BEH C18 1.7um, 2.1x150mm (Waters)
Retention time: 16.902 min
Base peak: 79.0211
Precursor m/z: 279.0933
Precursor type: [M+H]+
Precursor intensity: 48890444
m/z	relative intensity	assigned
51.0231	1	C4H3+
53.0386	37	C4H5+
55.0178	2	C3H3O+
77.0387	24	C6H5+
78.0465	1	C6H6+
81.0335	2	C5H5O+
91.0541	4	C7H7+
94.0413	3	C6H6O+
95.0045	62	C5H4P+
95.0491	104	C6H7O+
97.0203	1	C5H6P+
105.0336	6	C7H5O+
107.0045	3	C6H4P+
113.0151	3	C5H6OP+
115.0544	2	C9H7+
122.9994	12	C6H4OP+
125.015	5	C6H6OP+
128.062	52	C10H8+
129.0698	50	C10H9+
133.0201	17	C8H6P+
141.07	9	C11H9+
145.0202	1	C9H6P+
147.036	6	C9H8P+
152.0623	2	C12H8+
153.0699	5	C12H9+
154.0776	48	C12H10+
155.0856	1	C12H11+
159.0358	3	C10H8P+
171.0358	114	C11H8P+
173.0514	517	C11H10P+
183.0358	77	C12H8P+
185.0514	5	C12H10P+
186.0237	1	C11H7OP+
199.0308	11	C12H8OP+
201.0463	999	C12H10OP+
279.0932	204	C18H16OP+
