Mass spectrum: 3,3`,5,5`-Tetramethylbenzidine; LC-ESI-QFT; MS2; CE: 75; R=17500; [M+H]+
Name: 3,3',5,5'-Tetramethylbenzidine
Name: 4-(4-amino-3,5-dimethylphenyl)-2,6-dimethylaniline
Formula: C16H20N2
Exact mass: 240.1626
SMILES: CC1=CC(=CC(C)=C1N)C1=CC(C)=C(N)C(C)=C1
InChI: InChI=1S/C16H20N2/c1-9-5-13(6-10(2)15(9)17)14-7-11(3)16(18)12(4)8-14/h5-8H,17-18H2,1-4H3
Instrument: Q Exactive Orbitrap (Thermo Scientific)
Instrument type: LC-ESI-QFT
Ms type: MS2
Ion mode: POSITIVE
Ionization: ESI
Fragmentation mode: HCD
Collision energy: 75
Resolution: 17500
Column name: Acquity BEH C18 1.7um, 2.1x150mm (Waters)
Retention time: 13.490 min
Base peak: 79.0211
Precursor m/z: 241.1699
Precursor type: [M+H]+
Precursor intensity: 25449234.46875
m/z	relative intensity	assigned
79.0541	18	C6H7+
94.0651	22	C6H8N+
95.0728	5	C6H9N+
106.0651	23	C7H8N+
118.0651	10	C8H8N+
120.0808	58	C8H10N+
121.0886	41	C8H11N+
133.0891	3	C9H11N+
134.0965	28	C9H12N+
144.0809	39	C10H10N+
145.0887	7	C10H11N+
146.0965	7	C10H12N+
158.0972	13	C11H12N+
159.1055	3	C11H13N+
165.0699	14	C13H9+
170.0975	12	C12H12N+
180.0808	19	C13H10N+
181.0884	8	C13H11N+
182.097	16	C13H12N+
191.0858	34	C15H11+
192.0937	43	C15H12+
193.0886	76	C14H11N+
193.1009	38	C15H13+
194.0966	999	C14H12N+
195.0915	31	C13H11N2+
207.1165	6	C16H15+
208.1123	290	C15H14N+
209.1198	530	C15H15N+
222.1267	6	C16H16N+
224.1429	92	C16H18N+
226.1438	382	C15H18N2+
239.1526	5	C16H19N2+
