Mass spectrum: N2-(4-Nitrophenyl)-L-glutamine; LC-ESI-QFT; MS2; CE: 15; R=17500; [M+H]+
Name: N2-(4-Nitrophenyl)-L-glutamine
Name: (2S)-5-amino-2-(4-nitroanilino)-5-oxopentanoic acid
Formula: C11H13N3O5
Exact mass: 267.0855
SMILES: NC(=O)CC[C@H](NC1=CC=C(C=C1)[N+]([O-])=O)C(O)=O
InChI: InChI=1S/C11H13N3O5/c12-10(15)6-5-9(11(16)17)13-7-1-3-8(4-2-7)14(18)19/h1-4,9,13H,5-6H2,(H2,12,15)(H,16,17)/t9-/m0/s1
Instrument: Q Exactive Orbitrap (Thermo Scientific)
Instrument type: LC-ESI-QFT
Ms type: MS2
Ion mode: POSITIVE
Ionization: ESI
Fragmentation mode: HCD
Collision energy: 15
Resolution: 17500
Column name: Acquity BEH C18 1.7um, 2.1x150mm (Waters)
Retention time: 11.256 min
Base peak: 79.0211
Precursor m/z: 268.0928
Precursor type: [M+H]+
Precursor intensity: 7709926.75
m/z	relative intensity	assigned
84.0444	246	C4H6NO+
102.0549	19	C4H8NO2+
122.0475	5	C6H6N2O+
130.0499	999	C5H8NO3+
139.0502	272	C6H7N2O2+
222.0873	100	C10H12N3O3+
250.0821	2	C11H12N3O4+
251.0662	226	C11H11N2O5+
