Mass spectrum: Octylparaben; LC-ESI-QFT; MS2; CE: 75; R=17500; [M-H]-
Name: Octylparaben
Name: octyl 4-hydroxybenzoate
Formula: C15H22O3
Exact mass: 250.1569
SMILES: CCCCCCCCOC(=O)C1=CC=C(O)C=C1
InChI: InChI=1S/C15H22O3/c1-2-3-4-5-6-7-12-18-15(17)13-8-10-14(16)11-9-13/h8-11,16H,2-7,12H2,1H3
Instrument: Q Exactive Orbitrap (Thermo Scientific)
Instrument type: LC-ESI-QFT
Ms type: MS2
Ion mode: NEGATIVE
Ionization: ESI
Fragmentation mode: HCD
Collision energy: 75
Resolution: 17500
Column name: Acquity BEH C18 1.7um, 2.1x150mm (Waters)
Retention time: 19.955 min
Base peak: 249.1496
Precursor m/z: 249.1496
Precursor type: [M-H]-
Precursor intensity: 81774962.55469
m/z	relative intensity	assigned
53.0034	1	C3HO-
65.0033	3	C4HO-
65.0397	8	C5H5-
67.019	5	C4H3O-
68.9982	12	C3HO2-
69.0346	11	C4H5O-
70.006	7	C3H2O2-
71.0139	5	C3H3O2-
72.9931	6	C2HO3-
78.0112	2	C5H2O-
79.0189	7	C5H3O-
79.9905	5	C4O2-
80.9983	4	C4HO2-
82.0061	35	C4H2O2-
83.014	2	C4H3O2-
86.001	2	C3H2O3-
91.019	104	C6H3O-
92.0268	168	C6H4O-
93.0346	999	C6H5O-
95.0138	433	C5H3O2-
97.0295	6	C5H5O2-
98.0011	2	C4H2O3-
106.006	26	C6H2O2-
107.0138	3	C6H3O2-
108.0217	416	C6H4O2-
119.0138	5	C7H3O2-
121.0295	41	C7H5O2-
123.0088	54	C6H3O3-
125.0244	1	C6H5O3-
125.0973	4	C8H13O-
127.1128	35	C8H15O-
136.0165	40	C7H4O3-
137.0243	38	C7H5O3-
149.0241	2	C8H5O3-
