Mass spectrum: Nilutamide; LC-ESI-QFT; MS2; CE: 75; R=17500; [M-H]-
Name: Nilutamide
Name: 5,5-dimethyl-3-[4-nitro-3-(trifluoromethyl)phenyl]imidazolidine-2,4-dione
Formula: C12H10F3N3O4
Exact mass: 317.0623
SMILES: CC1(C)NC(=O)N(C1=O)C1=CC(=C(C=C1)[N+]([O-])=O)C(F)(F)F
InChI: InChI=1S/C12H10F3N3O4/c1-11(2)9(19)17(10(20)16-11)6-3-4-8(18(21)22)7(5-6)12(13,14)15/h3-5H,1-2H3,(H,16,20)
Instrument: Q Exactive Orbitrap (Thermo Scientific)
Instrument type: LC-ESI-QFT
Ms type: MS2
Ion mode: NEGATIVE
Ionization: ESI
Fragmentation mode: HCD
Collision energy: 75
Resolution: 17500
Column name: Acquity BEH C18 1.7um, 2.1x150mm (Waters)
Retention time: 16.669 min
Base peak: 316.0549
Precursor m/z: 316.0551
Precursor type: [M-H]-
Precursor intensity: 72073036.63184
m/z	relative intensity	assigned
50.0035	18	C3N-
55.0189	301	C3H3O-
65.0146	5	C3HN2-
65.9985	96	C3NO-
68.9957	18	CF3-
70.9938	28	C3FO-
74.0037	24	C5N-
76.0192	3	C5H2N-
77.0146	4	C4HN2-
84.0455	9	C4H6NO-
86.9888	26	C3FO2-
87.0115	15	C6HN-
89.0145	3	C5HN2-
89.9985	11	C5NO-
90.0348	3	C6H4N-
91.0063	5	C5HNO-
92.0141	8	C5H2NO-
92.9957	3	C3F3-
93.0094	8	C4HN2O-
98.0035	6	C7N-
100.0193	7	C7H2N-
101.0144	10	C6HN2-
106.0097	14	C6HFN-
107.0176	10	C6H2FN-
108.9906	7	C3F3O-
110.0048	3	C5HFNO-
110.0249	3	C5H4NO2-
111	4	C4FN2O-
113.9985	23	C7NO-
114.0158	3	C5H2F2N-
114.0347	12	C8H4N-
115.0301	4	C7H3N2-
116.014	4	C7H2NO-
118.0099	42	C7HFN-
118.0296	4	C7H4NO-
120.0091	4	C6H2NO2-
123.0125	10	C6H2FNO-
126.016	41	C6H2F2N-
126.0349	8	C9H4N-
131.0014	3	C7HNO2-
131.0302	18	C9H4F-
132.0253	3	C8H3FN-
134.0047	60	C7HFNO-
134.041	6	C8H5FN-
135.0128	5	C7H2FNO-
135.025	4	C3H3F2N3O-
136.0205	8	C7H3FNO-
138.0159	35	C7H2F2N-
138.035	16	C10H4N-
139.0304	4	C9H3N2-
141.0459	15	C9H5N2-
142.03	4	C9H4NO-
143.0134	13	C7HN3O-
145.0293	5	C4H4FN3O2-
146.0227	11	C6H3F3N-
149.0284	5	C8H4FNO-
151.0075	4	C7H2FNO2-
154.011	108	C7H2F2NO-
155.0188	20	C7H3F2NO-
155.0375	9	C10H5NO-
156.0265	5	C7H4F2NO-
156.0455	33	C10H6NO-
157.0406	4	C9H5N2O-
158.0223	11	C7H3F3N-
158.041	16	C10H5FN-
158.0609	4	C10H8NO-
159.025	12	C5H3F2N3O-
160.038	355	C7H5F3N-
161.9996	52	C8HFNO2-
162.0171	4	C6H3F3NO-
163.001	5	C6H2F3O2-
163.0364	9	C10H5F2-
166.011	11	C8H2F2NO-
166.0298	21	C11H4NO-
167.0375	11	C11H5NO-
173.0094	15	C7H2F3NO-
173.0481	6	C10H7NO2-
174.0172	11	C7H3F3NO-
175.025	125	C7H4F3NO-
176.0091	70	C7H3F3O2-
178.0474	3	C10H6F2N-
179.0314	105	C10H5F2O-
180.0268	15	C9H4F2NO-
182.0059	487	C8H2F2NO2-
183.0426	100	C10H6F3-
184.0379	15	C9H5F3N-
185.0094	10	C8H2F3NO-
185.0218	57	C9H4F3O-
186.0172	129	C8H3F3NO-
186.036	160	C11H5FNO-
187.0439	28	C11H6FNO-
187.9966	8	C7HF3NO2-
188.0334	8	C8H5F3NO-
189.0172	4	C8H4F3O2-
190.0121	133	C7H3F3NO2-
192.0265	10	C10H4F2NO-
194.0418	8	C10H6F2NO-
195.014	4	C9H3F2NO2-
198.0534	32	C10H7F3N-
199.0376	381	C10H6F3O-
200.0228	3	C10H4N2O3-
200.0327	15	C9H5F3NO-
200.0451	10	C10H7F3O-
200.0694	3	C10H9F3N-
201.0047	5	C8H2F3NO2-
202.0122	999	C8H3F3NO2-
204.0276	11	C8H5F3NO2-
205.023	134	C7H4F3N2O2-
206.007	126	C7H3F3NO3-
206.0422	139	C11H6F2NO-
207.0262	4	C6H4F3N3O2-
208.0217	15	C10H4F2NO2-
209.029	5	C10H5F2NO2-
211.0255	8	C10H4F3NO-
211.0375	13	C11H6F3O-
212.0325	36	C10H5F3NO-
214.0485	6	C10H7F3NO-
215.0319	5	C10H6F3O2-
215.0568	4	C10H8F3NO-
222.0373	82	C11H6F2NO2-
224.0331	5	C11H5F3NO-
225.0407	19	C11H6F3NO-
226.0485	468	C11H7F3NO-
227.0323	3	C11H6F3O2-
227.0564	71	C11H8F3NO-
228.0278	34	C10H5F3NO2-
229.048	12	C11H8F3O2-
230.0433	12	C10H7F3NO2-
231.0024	7	C8H2F3N2O3-
232.009	3	C11H2F2N2O2-
241.0361	6	C11H6F3NO2-
242.0435	67	C11H7F3NO2-
243.0511	9	C11H8F3NO2-
254.0314	5	C11H5F3N2O2-
271.0341	8	C11H6F3N2O3-
273.0494	113	C11H8F3N2O3-
