Mass spectrum: Tris(2-hydroxyethyl) isocyanurate; LC-ESI-QFT; MS2; CE: 45; R=17500; [M+H]+
Name: Tris(2-hydroxyethyl) isocyanurate
Name: 1,3,5-tris(2-hydroxyethyl)-1,3,5-triazinane-2,4,6-trione
Formula: C9H15N3O6
Exact mass: 261.0961
SMILES: OCCN1C(=O)N(CCO)C(=O)N(CCO)C1=O
InChI: InChI=1S/C9H15N3O6/c13-4-1-10-7(16)11(2-5-14)9(18)12(3-6-15)8(10)17/h13-15H,1-6H2
Instrument: Q Exactive Orbitrap (Thermo Scientific)
Instrument type: LC-ESI-QFT
Ms type: MS2
Ion mode: POSITIVE
Ionization: ESI
Fragmentation mode: HCD
Collision energy: 45
Resolution: 17500
Column name: Acquity BEH C18 1.7um, 2.1x150mm (Waters)
Retention time: 4.809 min
Base peak: 79.0211
Precursor m/z: 262.1034
Precursor type: [M+H]+
Precursor intensity: 2324792.828125
m/z	relative intensity	assigned
69.9923	20	C2NO2+
70.0287	100	C3H4NO+
88.0393	10	C3H6NO2+
113.0346	999	C4H5N2O2+
156.0404	94	C5H6N3O3+
182.0562	416	C7H8N3O3+
200.0667	260	C7H10N3O4+
226.0825	16	C9H12N3O4+
244.093	143	C9H14N3O5+
