Mass spectrum: Ametryn; LC-ESI-QFT; MS2; CE: 90; R=17500; [M+H]+
Name: Ametryn
Name: 4-N-ethyl-6-methylsulfanyl-2-N-propan-2-yl-1,3,5-triazine-2,4-diamine
Formula: C9H17N5S
Exact mass: 227.1205
SMILES: CCNC1=NC(SC)=NC(NC(C)C)=N1
InChI: InChI=1S/C9H17N5S/c1-5-10-7-12-8(11-6(2)3)14-9(13-7)15-4/h6H,5H2,1-4H3,(H2,10,11,12,13,14)
Instrument: Q Exactive Orbitrap (Thermo Scientific)
Instrument type: LC-ESI-QFT
Ms type: MS2
Ion mode: POSITIVE
Ionization: ESI
Fragmentation mode: HCD
Collision energy: 90
Resolution: 17500
Column name: Acquity BEH C18 1.7um, 2.1x150mm (Waters)
Retention time: 15.455 min
Base peak: 79.0211
Precursor m/z: 228.1277
Precursor type: [M+H]+
Precursor intensity: 49534140.21875
m/z	relative intensity	assigned
57.0447	1	C2H5N2+
68.0243	999	C2H2N3+
69.0448	1	C3H5N2+
70.0399	2	C2H4N3+
71.0603	296	C3H7N2+
74.0058	262	C2H4NS+
85.0509	71	C2H5N4+
91.0325	162	C2H7N2S+
96.0556	271	C4H6N3+
99.0011	2	C3H3N2S+
102.0373	4	C4H8NS+
110.0461	40	C3H4N5+
113.0821	15	C4H9N4+
116.0277	169	C3H6N3S+
138.0774	29	C5H8N5+
143.0262	1	C3H5N5S+
144.059	25	C5H10N3S+
158.0495	20	C4H8N5S+
170.0496	1	C5H8N5S+
184.0651	1	C6H10N5S+
186.0808	19	C6H12N5S+
