Mass spectrum: Isoproturon; LC-ESI-QFT; MS2; CE: 90; R=17500; [M+H]+
Name: Isoproturon
Name: 1,1-dimethyl-3-(4-propan-2-ylphenyl)urea
Formula: C12H18N2O
Exact mass: 206.1419
SMILES: CC(C)C1=CC=C(NC(=O)N(C)C)C=C1
InChI: InChI=1S/C12H18N2O/c1-9(2)10-5-7-11(8-6-10)13-12(15)14(3)4/h5-9H,1-4H3,(H,13,15)
Instrument: Q Exactive Orbitrap (Thermo Scientific)
Instrument type: LC-ESI-QFT
Ms type: MS2
Ion mode: POSITIVE
Ionization: ESI
Fragmentation mode: HCD
Collision energy: 90
Resolution: 17500
Column name: Acquity BEH C18 1.7um, 2.1x150mm (Waters)
Retention time: 16.558 min
Base peak: 79.0211
Precursor m/z: 207.1492
Precursor type: [M+H]+
Precursor intensity: 27827314.5
m/z	relative intensity	assigned
53.0022	2	C3HO+
53.0386	2	C4H5+
56.0131	20	C2H2NO+
65.0385	3	C5H5+
72.0443	999	C3H6NO+
79.0542	5	C6H7+
91.0542	45	C7H7+
92.0495	9	C6H6N+
93.0698	3	C7H9+
94.0651	2	C6H8N+
95.0492	6	C6H7O+
103.0542	2	C8H7+
104.0621	2	C8H8+
105.0446	2	C6H5N2+
105.0699	4	C8H9+
106.0651	3	C7H8N+
107.0855	16	C8H11+
109.0649	2	C7H9O+
115.0542	3	C9H7+
117.0699	7	C9H9+
118.0651	6	C8H8N+
119.073	17	C8H9N+
120.0443	3	C7H6NO+
132.0807	2	C9H10N+
134.0964	19	C9H12N+
147.0917	1	C9H11N2+
