Mass spectrum: Methyl red; LC-ESI-QFT; MS2; CE: 75; R=17500; [M+H]+
Name: Methyl red
Name: 2-[[4-(dimethylamino)phenyl]diazenyl]benzoic acid
Formula: C15H15N3O2
Exact mass: 269.1164
SMILES: CN(C)C1=CC=C(C=C1)N=NC2=CC=CC=C2C(=O)O
InChI: InChI=1S/C15H15N3O2/c1-18(2)12-9-7-11(8-10-12)16-17-14-6-4-3-5-13(14)15(19)20/h3-10H,1-2H3,(H,19,20)
Instrument: Q Exactive Orbitrap (Thermo Scientific)
Instrument type: LC-ESI-QFT
Ms type: MS2
Ion mode: POSITIVE
Ionization: ESI
Fragmentation mode: HCD
Collision energy: 75
Resolution: 17500
Column name: Acquity BEH C18 1.7um, 2.1x150mm (Waters)
Retention time: 18.101 min
Base peak: 79.0211
Precursor m/z: 270.1237
Precursor type: [M+H]+
Precursor intensity: 22191349.875
m/z	relative intensity	assigned
53.0021	2	C3HO+
53.0386	20	C4H5+
54.0339	2	C3H4N+
55.0179	1	C3H3O+
57.0699	12	C4H9+
58.0652	7	C3H8N+
63.0228	1	C5H3+
65.0386	18	C5H5+
67.0542	5	C5H7+
68.0494	9	C4H6N+
72.0444	4	C3H6NO+
72.0808	9	C4H10N+
74.0964	40	C4H12N+
77.0385	11	C6H5+
78.0464	3	C6H6+
79.0542	174	C6H7+
80.0495	26	C5H6N+
81.0335	16	C5H5O+
81.0573	6	C5H7N+
90.0104	2	C6H2O+
91.0542	146	C7H7+
92.0495	14	C6H6N+
92.062	29	C7H8+
93.0573	7	C6H7N+
93.0699	56	C7H9+
94.0652	30	C6H8N+
95.0491	70	C6H7O+
96.0442	3	C5H6NO+
96.0807	16	C6H10N+
103.0542	49	C8H7+
104.0495	21	C7H6N+
105.0448	21	C6H5N2+
105.0573	151	C7H7N+
109.0647	2	C7H9O+
110.0601	15	C6H8NO+
115.0542	85	C9H7+
117.0571	5	C8H7N+
118.0651	49	C8H8N+
119.0605	4	C7H7N2+
119.0729	21	C8H9N+
120.0808	233	C8H10N+
121.0395	1	C6H5N2O+
122.0602	2	C7H8NO+
124.0756	18	C7H10NO+
127.054	8	C10H7+
128.062	20	C10H8+
129.0697	20	C10H9+
130.0653	4	C9H8N+
131.0731	7	C9H9N+
132.0808	6	C9H10N+
133.0761	4	C8H9N2+
134.0837	3	C8H10N2+
136.0758	2	C8H10NO+
137.0472	2	C7H7NO2+
138.0911	5	C8H12NO+
139.0541	26	C11H7+
140.0495	7	C10H6N+
140.0622	14	C11H8+
141.0699	39	C11H9+
145.065	14	C10H9O+
146.0959	2	C10H12N+
147.1044	8	C10H13N+
148.0757	595	C9H10NO+
150.0466	2	C12H6+
151.0544	13	C12H7+
151.0629	3	C8H9NO2+
152.0621	999	C12H8+
153.0698	723	C12H9+
154.0662	11	C11H8N+
154.0776	74	C12H10+
155.0492	2	C11H7O+
155.0605	16	C10H7N2+
155.0733	7	C11H9N+
155.0855	24	C12H11+
157.0882	2	C11H11N+
162.1274	4	C11H16N+
165.0699	124	C13H9+
166.0652	517	C12H8N+
167.0491	9	C12H7O+
167.0732	9	C12H9N+
167.0854	22	C13H11+
168.0569	16	C12H8O+
168.0807	7	C12H10N+
168.0933	2	C13H12+
169.0648	63	C12H9O+
169.0888	3	C12H11N+
171.0803	7	C12H11O+
176.0622	3	C14H8+
177.07	4	C14H9+
178.0651	5	C13H8N+
178.0777	16	C14H10+
179.0502	2	C13H7O+
179.0605	27	C12H7N2+
179.073	26	C13H9N+
179.0859	2	C14H11+
180.0571	122	C13H8O+
180.0807	661	C13H10N+
181.0648	92	C13H9O+
181.0885	272	C13H11N+
182.0731	3	C13H10O+
182.0839	2	C12H10N2+
183.0802	2	C13H11O+
184.0753	1	C12H10NO+
190.0652	4	C14H8N+
192.0807	3	C14H10N+
193.0652	7	C14H9O+
193.0888	6	C14H11N+
194.0602	24	C13H8NO+
194.0964	90	C14H12N+
195.1043	60	C14H13N+
196.0758	47	C13H10NO+
196.1121	11	C14H14N+
204.0809	10	C15H10N+
206.0601	17	C14H8NO+
207.0556	6	C13H7N2O+
207.0677	48	C14H9NO+
208.0758	281	C14H10NO+
209.0835	48	C14H11NO+
212.0471	12	C11H6N3O2+
222.0913	117	C15H12NO+
222.1021	6	C14H12N3+
223.0996	14	C15H13NO+
236.0817	6	C14H10N3O+
251.1051	6	C15H13N3O+
