Mass spectrum: Fabesetron; LC-ESI-QFT; MS2; CE: 90; R=17500; [M+H]+
Name: Fabesetron
Name: (7R)-10-methyl-7-[(5-methyl-1H-imidazol-4-yl)methyl]-8,9-dihydro-7H-pyrido[1,2-a]indol-6-one
Formula: C18H19N3O
Exact mass: 293.1528
SMILES: Cc1[nH]cnc1C[C@H]1CCc2c(C)c3ccccc3n2C1=O
InChI: InChI=1S/C18H19N3O/c1-11-14-5-3-4-6-17(14)21-16(11)8-7-13(18(21)22)9-15-12(2)19-10-20-15/h3-6,10,13H,7-9H2,1-2H3,(H,19,20)/t13-/m1/s1
Instrument: Q Exactive Orbitrap (Thermo Scientific)
Instrument type: LC-ESI-QFT
Ms type: MS2
Ion mode: POSITIVE
Ionization: ESI
Fragmentation mode: HCD
Collision energy: 90
Resolution: 17500
Column name: Acquity BEH C18 1.7um, 2.1x150mm (Waters)
Retention time: 15.378 min
Base peak: 79.0211
Precursor m/z: 294.1601
Precursor type: [M+H]+
Precursor intensity: 21487867.25
m/z	relative intensity	assigned
53.0022	4	C3HO+
53.0386	19	C4H5+
54.0339	100	C3H4N+
55.0178	1	C3H3O+
65.0386	6	C5H5+
67.0542	53	C5H7+
68.0494	34	C4H6N+
69.0573	7	C4H7N+
70.0652	1	C4H8N+
77.0384	5	C6H5+
78.0338	2	C5H4N+
79.0542	2	C6H7+
80.0495	288	C5H6N+
81.0447	24	C4H5N2+
81.0699	6	C6H9+
82.0651	2	C5H8N+
83.0604	3	C4H7N2+
91.0542	25	C7H7+
92.0495	1	C6H6N+
93.0574	33	C6H7N+
94.0652	310	C6H8N+
95.0604	999	C5H7N2+
96.0682	157	C5H8N2+
97.0762	1	C5H9N2+
102.0465	1	C8H6+
103.0542	15	C8H7+
104.0495	24	C7H6N+
105.0447	12	C6H5N2+
105.0575	1	C7H7N+
106.0652	5	C7H8N+
107.0604	20	C6H7N2+
108.0808	15	C7H10N+
109.0761	6	C6H9N2+
115.0543	29	C9H7+
117.0573	17	C8H7N+
117.0699	60	C9H9+
118.0651	8	C8H8N+
119.0604	13	C7H7N2+
120.0683	14	C7H8N2+
121.076	306	C7H9N2+
122.06	1	C7H8NO+
122.0837	5	C7H10N2+
123.0916	5	C7H11N2+
127.0543	4	C10H7+
127.0864	3	C6H11N2O+
128.0495	17	C9H6N+
128.062	6	C10H8+
129.0575	1	C9H7N+
129.0698	4	C10H9+
130.0651	19	C9H8N+
131.073	11	C9H9N+
131.0856	2	C10H11+
132.0808	2	C9H10N+
133.0761	1	C8H9N2+
135.0917	8	C8H11N2+
137.071	2	C7H9N2O+
141.0699	3	C11H9+
142.0652	5	C10H8N+
143.073	181	C10H9N+
144.0808	416	C10H10N+
145.0648	11	C10H9O+
145.0886	2	C10H11N+
146.0601	7	C9H8NO+
146.0962	1	C10H12N+
149.071	165	C8H9N2O+
153.0699	1	C12H9+
154.0652	4	C11H8N+
155.0604	19	C10H7N2+
155.0723	4	C11H9N+
156.0808	7	C11H10N+
157.0888	5	C11H11N+
158.0965	44	C11H12N+
167.0731	8	C12H9N+
168.0809	4	C12H10N+
169.0886	3	C12H11N+
170.0962	5	C12H12N+
180.0808	23	C13H10N+
181.0887	3	C13H11N+
182.0965	2	C13H12N+
183.0678	1	C12H9NO+
184.0759	1	C12H10NO+
184.112	1	C13H14N+
246.1029	1	C16H12N3+
260.1181	2	C17H14N3+
