Mass spectrum: 1,4-Bis(N-isopropylamino)anthraquinone; LC-ESI-QFT; MS2; CE: 45; R=17500; [M+H]+
Name: 1,4-Bis(N-isopropylamino)anthraquinone
Name: Solvent Blue 36
Name: 1,4-bis(propan-2-ylamino)anthracene-9,10-dione
Formula: C20H22N2O2
Exact mass: 322.1681
SMILES: CC(C)NC1=CC=C(NC(C)C)C2=C1C(=O)C1=CC=CC=C1C2=O
InChI: InChI=1S/C20H22N2O2/c1-11(2)21-15-9-10-16(22-12(3)4)18-17(15)19(23)13-7-5-6-8-14(13)20(18)24/h5-12,21-22H,1-4H3
Instrument: Q Exactive Orbitrap (Thermo Scientific)
Instrument type: LC-ESI-QFT
Ms type: MS2
Ion mode: POSITIVE
Ionization: ESI
Fragmentation mode: HCD
Collision energy: 45
Resolution: 17500
Column name: Acquity BEH C18 1.7um, 2.1x150mm (Waters)
Retention time: 20.132 min
Base peak: 79.0211
Precursor m/z: 323.1754
Precursor type: [M+H]+
Precursor intensity: 2072619.078125
m/z	relative intensity	assigned
58.065	7	C3H8N+
222.0908	3	C15H12NO+
223.063	15	C14H9NO2+
223.0866	28	C14H11N2O+
224.0708	68	C14H10NO2+
225.0787	4	C14H11NO2+
238.074	12	C14H10N2O2+
239.0818	37	C14H11N2O2+
246.0912	11	C17H12NO+
247.0861	26	C16H11N2O+
248.0936	3	C16H12N2O+
249.1021	7	C16H13N2O+
250.0861	8	C16H12NO2+
262.1112	5	C17H14N2O+
263.1182	26	C17H15N2O+
264.1019	4	C17H14NO2+
264.1246	5	C17H16N2O+
265.0973	999	C16H13N2O2+
266.1047	8	C16H14N2O2+
280.1208	356	C17H16N2O2+
281.1285	98	C17H17N2O2+
308.1477	217	C19H20N2O2+
