Mass spectrum: MK-547; LC-ESI-QFT; MS2; CE: 30; R=17500; [M-H]-
Name: MK-547
Name: J-104132
Name: (5S,6R,7R)-5-(1,3-benzodioxol-5-yl)-2-butyl-7-[2-[(2S)-2-carboxypropyl]-4-methoxyphenyl]-6,7-dihydro-5H-cyclopenta[b]pyridine-6-carboxylic acid
Formula: C31H33NO7
Exact mass: 531.2257
SMILES: CCCCc1ccc2c(n1)[C@@H](c1ccc(OC)cc1C[C@H](C)C(O)=O)[C@H](C(O)=O)[C@H]2c1ccc2c(c1)OCO2
InChI: InChI=1S/C31H33NO7/c1-4-5-6-20-8-10-23-26(18-7-12-24-25(15-18)39-16-38-24)28(31(35)36)27(29(23)32-20)22-11-9-21(37-3)14-19(22)13-17(2)30(33)34/h7-12,14-15,17,26-28H,4-6,13,16H2,1-3H3,(H,33,34)(H,35,36)/t17-,26-,27-,28+/m0/s1
Instrument: Q Exactive Orbitrap (Thermo Scientific)
Instrument type: LC-ESI-QFT
Ms type: MS2
Ion mode: NEGATIVE
Ionization: ESI
Fragmentation mode: HCD
Collision energy: 30
Resolution: 17500
Column name: Acquity BEH C18 1.7um, 2.1x150mm (Waters)
Retention time: 18.559 min
Base peak: 112.9856
Precursor m/z: 530.2184
Precursor type: [M-H]-
Precursor intensity: 9574195.054688
m/z	relative intensity	assigned
73.0295	10	C3H5O2-
91.0189	2	C6H3O-
93.0346	6	C6H5O-
107.0504	3	C7H7O-
109.0294	6	C6H5O2-
121.0294	5	C7H5O2-
147.0449	2	C9H7O2-
147.0817	5	C10H11O-
150.0922	8	C9H12NO-
173.0607	15	C11H9O2-
174.0687	3	C11H10O2-
193.087	14	C11H13O3-
238.1237	16	C16H16NO-
240.0668	5	C14H10NO3-
240.1391	12	C16H18NO-
250.1242	5	C17H16NO-
254.1188	2	C16H16NO2-
263.1314	2	C18H17NO-
264.1394	15	C18H18NO-
266.1188	13	C17H16NO2-
266.1548	7	C18H20NO-
268.1343	18	C17H18NO2-
279.1631	12	C19H21NO-
284.1291	12	C17H18NO3-
292.1344	16	C19H18NO2-
294.1498	11	C19H20NO2-
304.1338	2	C20H18NO2-
318.1506	2	C21H20NO2-
320.2019	2	C22H26NO-
331.1579	2	C22H21NO2-
364.1345	6	C25H18NO2-
370.1822	4	C25H24NO2-
378.1134	40	C25H16NO3-
380.2016	3	C27H26NO-
382.2183	5	C27H28NO-
384.1606	34	C25H22NO3-
384.2334	4	C27H30NO-
385.1693	9	C25H23NO3-
392.1295	5	C26H18NO3-
393.1371	26	C26H19NO3-
394.1809	3	C27H24NO2-
396.1596	3	C26H22NO3-
396.1964	4	C27H26NO2-
397.2045	16	C27H27NO2-
398.1816	2	C26H24NO3-
398.2126	7	C27H28NO2-
399.1843	3	C26H25NO3-
399.2199	12	C27H29NO2-
405.1764	2	C28H23NO2-
407.1883	9	C28H25NO2-
408.1979	5	C28H26NO2-
409.2051	13	C28H27NO2-
410.1436	2	C26H20NO4-
410.1759	6	C27H24NO3-
410.2126	14	C28H28NO2-
412.1921	6	C27H26NO3-
412.2278	57	C28H30NO2-
413.2353	24	C28H31NO2-
414.2097	7	C27H28NO3-
414.2435	74	C28H32NO2-
420.1968	75	C29H26NO2-
423.1503	3	C27H21NO4-
423.1836	9	C28H25NO3-
424.1912	12	C28H26NO3-
425.1996	42	C28H27NO3-
426.2064	24	C28H28NO3-
427.2151	439	C28H29NO3-
434.1753	19	C29H24NO3-
435.1835	43	C29H25NO3-
436.1927	4	C29H26NO3-
438.171	16	C28H24NO4-
438.2071	55	C29H28NO3-
439.2152	49	C29H29NO3-
440.2231	72	C29H30NO3-
442.2388	84	C29H32NO3-
450.2075	86	C30H28NO3-
452.187	25	C29H26NO4-
453.1946	641	C29H27NO4-
456.2181	135	C29H30NO4-
468.2178	603	C30H30NO4-
484.213	84	C30H30NO5-
486.2284	999	C30H32NO5-
512.2075	345	C31H30NO6-
530.2184	469	C31H32NO7-
