Mass spectrum: Imazapic; LC-ESI-QFT; MS2; CE: 30; R=17500; [M+H]+
Name: Imazapic
Name: 5-methyl-2-(4-methyl-5-oxo-4-propan-2-yl-1H-imidazol-2-yl)pyridine-3-carboxylic acid
Formula: C14H17N3O3
Exact mass: 275.1270
SMILES: CC(C)C1(C)NC(=NC1=O)C1=NC=C(C)C=C1C(O)=O
InChI: InChI=1S/C14H17N3O3/c1-7(2)14(4)13(20)16-11(17-14)10-9(12(18)19)5-8(3)6-15-10/h5-7H,1-4H3,(H,18,19)(H,16,17,20)
Instrument: Q Exactive Orbitrap (Thermo Scientific)
Instrument type: LC-ESI-QFT
Ms type: MS2
Ion mode: POSITIVE
Ionization: ESI
Fragmentation mode: HCD
Collision energy: 30
Resolution: 17500
Column name: Acquity BEH C18 1.7um, 2.1x150mm (Waters)
Retention time: 13.617 min
Base peak: 79.0211
Precursor m/z: 276.1343
Precursor type: [M+H]+
Precursor intensity: 20418200.25
m/z	relative intensity	assigned
58.0651	4	C3H8N+
69.0698	14	C5H9+
71.0855	1	C5H11+
86.0964	66	C5H12N+
97.0647	5	C6H9O+
114.0913	5	C6H12NO+
119.0602	4	C7H7N2+
161.0707	2	C9H9N2O+
162.0661	10	C8H8N3O+
163.0501	31	C8H7N2O2+
180.0768	3	C8H10N3O2+
187.1229	42	C12H15N2+
188.0815	2	C10H10N3O+
189.1024	2	C11H13N2O+
190.0864	1	C11H12NO2+
190.0974	3	C10H12N3O+
204.1497	5	C12H18N3+
205.0852	2	C10H11N3O2+
213.1023	8	C13H13N2O+
216.0767	59	C11H10N3O2+
230.1289	54	C13H16N3O+
231.1128	277	C13H15N2O2+
232.1442	2	C13H18N3O+
233.0793	6	C11H11N3O3+
234.0872	231	C11H12N3O3+
248.1393	166	C13H18N3O2+
258.1236	22	C14H16N3O2+
276.1341	999	C14H18N3O3+
