Mass spectrum: Hydrochlorothiazide; LC-ESI-QFT; MS2; CE: 90; R=17500; [M-H]-
Name: Hydrochlorothiazide
Name: 6-chloro-1,1-dioxo-3,4-dihydro-2H-1lambda6,2,4-benzothiadiazine-7-sulfonamide
Formula: C7H8ClN3O4S2
Exact mass: 296.9645
SMILES: NS(=O)(=O)C1=CC2=C(NCNS2(=O)=O)C=C1Cl
InChI: InChI=1S/C7H8ClN3O4S2/c8-4-1-5-7(2-6(4)16(9,12)13)17(14,15)11-3-10-5/h1-2,10-11H,3H2,(H2,9,12,13)
Instrument: Q Exactive Orbitrap (Thermo Scientific)
Instrument type: LC-ESI-QFT
Ms type: MS2
Ion mode: NEGATIVE
Ionization: ESI
Fragmentation mode: HCD
Collision energy: 90
Resolution: 17500
Column name: Acquity BEH C18 1.7um, 2.1x150mm (Waters)
Retention time: 8.152 min
Base peak: 218.1034
Precursor m/z: 295.9572
Precursor type: [M-H]-
Precursor intensity: 2078732.333984
m/z	relative intensity	assigned
61.9706	38	NOS-
63.9625	68	O2S-
65.0146	4	C3HN2-
65.9985	5	C3NO-
76.0193	24	C5H2N-
77.9656	999	NO2S-
78.9734	43	HNO2S-
79.9811	32	H2NO2S-
80.9654	3	HO3S-
87.0115	7	C6HN-
90.035	56	C6H4N-
93.9605	26	NO3S-
94.0299	122	C5H4NO-
104.038	64	C6H4N2-
105.0219	2	C6H3NO-
105.0458	9	C6H5N2-
114.9516	8	H3O3S2-
115.0302	30	C7H3N2-
117.0459	10	C7H5N2-
119.0251	7	C6H3N2O-
121.0408	73	C6H5N2O-
123.9959	131	C6H3ClN-
126.0116	60	C6H5ClN-
132.0328	3	C7H4N2O-
146.0357	3	C7H4N3O-
178.9921	25	C7H3N2O2S-
188.9652	3	C6H4ClNO2S-
194.0027	2	C7H4N3O2S-
202.9689	14	C6H4ClN2O2S-
