Mass spectrum: Sulfasalazine; LC-ESI-QFT; MS2; CE: 75; R=17500; [M-H]-
Name: Sulfasalazine
Name: 2-hydroxy-5-[[4-(pyridin-2-ylsulfamoyl)phenyl]diazenyl]benzoic acid
Formula: C18H14N4O5S
Exact mass: 398.0685
SMILES: C1=CC=NC(=C1)NS(=O)(=O)C2=CC=C(C=C2)N=NC3=CC(=C(C=C3)O)C(=O)O
InChI: InChI=1S/C18H14N4O5S/c23-16-9-6-13(11-15(16)18(24)25)21-20-12-4-7-14(8-5-12)28(26,27)22-17-3-1-2-10-19-17/h1-11,23H,(H,19,22)(H,24,25)
Instrument: Q Exactive Orbitrap (Thermo Scientific)
Instrument type: LC-ESI-QFT
Ms type: MS2
Ion mode: NEGATIVE
Ionization: ESI
Fragmentation mode: HCD
Collision energy: 75
Resolution: 17500
Column name: Acquity BEH C18 1.7um, 2.1x150mm (Waters)
Retention time: 17.048 min
Base peak: 221.1182
Precursor m/z: 397.0612
Precursor type: [M-H]-
Precursor intensity: 5292451.53418
m/z	relative intensity	assigned
65.9985	15	C3NO-
67.019	10	C4H3O-
68.0143	9	C3H2NO-
68.9982	26	C3HO2-
69.0345	28	C4H5O-
71.014	21	C3H3O2-
72.993	14	C2HO3-
78.0349	54	C5H4N-
79.9904	9	C4O2-
82.0061	31	C4H2O2-
90.035	87	C6H4N-
91.019	55	C6H3O-
91.0302	174	C5H3N2-
92.0267	81	C6H4O-
92.038	10	C5H4N2-
93.022	12	C5H3NO-
93.0346	50	C6H5O-
93.0459	28	C5H5N2-
94.0299	18	C5H4NO-
95.0139	999	C5H3O2-
96.0092	12	C4H2NO2-
97.0295	19	C5H5O2-
106.006	56	C6H2O2-
106.0299	30	C6H4NO-
107.0378	12	C6H5NO-
108.0217	909	C6H4O2-
115.0552	6	C9H7-
116.0508	10	C8H6N-
118.03	42	C7H4NO-
120.0088	8	C6H2NO2-
121.0172	6	C6H3NO2-
122.0248	584	C6H4NO2-
123.0089	104	C6H3O3-
136.0168	8	C7H4O3-
139.0556	13	C11H7-
141.0713	20	C11H9-
143.0504	47	C10H7O-
144.0455	13	C9H6NO-
148.0404	9	C8H6NO2-
156.0581	12	C11H8O-
158.0488	34	C9H6N2O-
167.0503	281	C12H7O-
167.0614	22	C11H7N2-
168.0693	7	C11H8N2-
169.0659	83	C12H9O-
183.0454	39	C12H7O2-
183.0564	115	C11H7N2O-
184.0532	16	C12H8O2-
195.0567	45	C12H7N2O-
196.0643	89	C12H8N2O-
197.0721	322	C12H9N2O-
199.0516	45	C11H7N2O2-
202.0386	11	C10H6N2O3-
212.0592	201	C12H8N2O2-
