Mass spectrum: 5HPP-33; LC-ESI-QFT; MS2; CE: 60; R=17500; [M-H]-
Name: 5HPP-33
Name: 2-(2,6-Diisopropylphenyl)-5-hydroxyisoindoline-1,3-dione
Name: 2-[2,6-di(propan-2-yl)phenyl]-5-hydroxyisoindole-1,3-dione
Formula: C20H21NO3
Exact mass: 323.1521
SMILES: CC(C)C1=CC=CC(C(C)C)=C1N1C(=O)C2=C(C=C(O)C=C2)C1=O
InChI: InChI=1S/C20H21NO3/c1-11(2)14-6-5-7-15(12(3)4)18(14)21-19(23)16-9-8-13(22)10-17(16)20(21)24/h5-12,22H,1-4H3
Instrument: Q Exactive Orbitrap (Thermo Scientific)
Instrument type: LC-ESI-QFT
Ms type: MS2
Ion mode: NEGATIVE
Ionization: ESI
Fragmentation mode: HCD
Collision energy: 60
Resolution: 17500
Column name: Acquity BEH C18 1.7um, 2.1x150mm (Waters)
Retention time: 18.689 min
Base peak: 322.1447
Precursor m/z: 322.1449
Precursor type: [M-H]-
Precursor intensity: 80756420.47852
m/z	relative intensity	assigned
91.019	8	C6H3O-
93.0346	6	C6H5O-
95.0138	1	C5H3O2-
108.0217	10	C6H4O2-
118.0298	2	C7H4NO-
119.0138	1	C7H3O2-
122.0009	1	C6H2O3-
123.0089	2	C6H3O3-
133.017	3	C7H3NO2-
158.0611	1	C10H8NO-
158.0976	6	C11H12N-
160.0166	6	C9H4O3-
161.0118	44	C8H3NO3-
162.0195	1	C8H4NO3-
173.0245	4	C10H5O3-
173.0845	4	C11H11NO-
174.0561	4	C10H8NO2-
176.0716	1	C10H10NO2-
177.1281	1	C12H17O-
186.0925	1	C12H12NO-
187.1004	4	C12H13NO-
202.1236	1	C13H16NO-
220.0766	1	C15H10NO-
220.1136	1	C16H14N-
221.0848	5	C15H11NO-
223.0639	10	C14H9NO2-
223.1002	1	C15H13NO-
224.0716	3	C14H10NO2-
233.0846	4	C16H11NO-
234.0925	9	C16H12NO-
234.1287	1	C17H16N-
235.0635	1	C15H9NO2-
235.1004	20	C16H13NO-
235.1124	1	C17H15O-
235.1361	2	C17H17N-
236.0717	27	C15H10NO2-
236.108	3	C16H14NO-
236.1207	1	C17H16O-
239.0952	20	C15H13NO2-
246.0924	1	C17H12NO-
247.1001	2	C17H13NO-
248.1081	105	C17H14NO-
249.0929	1	C17H13O2-
250.0876	4	C16H12NO2-
250.1237	1	C17H16NO-
251.0952	32	C16H13NO2-
252.1032	1	C16H14NO2-
254.0823	1	C15H12NO3-
260.1087	3	C18H14NO-
262.1237	107	C18H16NO-
263.1093	2	C18H15O2-
263.1315	15	C18H17NO-
264.0664	6	C16H10NO3-
264.1028	20	C17H14NO2-
264.1151	1	C18H16O2-
267.09	6	C16H13NO3-
276.1389	1	C19H18NO-
278.0823	1	C17H12NO3-
278.1187	10	C18H16NO2-
279.127	1	C18H17NO2-
280.0984	3	C17H14NO3-
288.1027	1	C19H14NO2-
290.0821	9	C18H12NO3-
290.1186	4	C19H16NO2-
291.0888	8	C18H13NO3-
291.1035	1	C19H15O3-
292.0979	6	C18H14NO3-
293.1063	1	C18H15NO3-
306.1136	999	C19H16NO3-
307.1212	36	C19H17NO3-
322.1448	187	C20H20NO3-
