Mass spectrum: Prochloraz; LC-ESI-QFT; MS2; CE: 60; R=17500; [M+H]+
Name: Prochloraz
Name: N-propyl-N-[2-(2,4,6-trichlorophenoxy)ethyl]imidazole-1-carboxamide
Formula: C15H16Cl3N3O2
Exact mass: 375.0308
SMILES: CCCN(CCOC1=C(Cl)C=C(Cl)C=C1Cl)C(=O)N1C=CN=C1
InChI: InChI=1S/C15H16Cl3N3O2/c1-2-4-20(15(22)21-5-3-19-10-21)6-7-23-14-12(17)8-11(16)9-13(14)18/h3,5,8-10H,2,4,6-7H2,1H3
Instrument: Q Exactive Orbitrap (Thermo Scientific)
Instrument type: LC-ESI-QFT
Ms type: MS2
Ion mode: POSITIVE
Ionization: ESI
Fragmentation mode: HCD
Collision energy: 60
Resolution: 17500
Column name: Acquity BEH C18 1.7um, 2.1x150mm (Waters)
Retention time: 18.455 min
Base peak: 79.0211
Precursor m/z: 376.0381
Precursor type: [M+H]+
Precursor intensity: 11638731.375
m/z	relative intensity	assigned
53.0022	49	C3HO+
56.0495	262	C3H6N+
57.0574	43	C3H7N+
70.0287	999	C3H4NO+
70.0651	672	C4H8N+
74.0601	29	C3H8NO+
85.0883	21	C5H11N+
98.0601	29	C5H8NO+
123.024	41	C10H3+
158.9763	54	C7H5Cl2+
160.9555	22	C6H3Cl2O+
161.9634	77	C6H4Cl2O+
166.9219	56	C5H2Cl3+
194.9168	151	C6H2Cl3O+
196.9323	81	C6H4Cl3O+
206.928	239	C6H2Cl3N2+
222.9484	48	C8H6Cl3O+
265.9535	29	C9H7Cl3NO2+
