Mass spectrum: Pyriproxyfen; LC-ESI-QFT; MS2; CE: 60; R=17500; [M+H]+
Name: Pyriproxyfen
Name: 2-[1-(4-phenoxyphenoxy)propan-2-yloxy]pyridine
Formula: C20H19NO3
Exact mass: 321.1365
SMILES: CC(COC1=CC=C(OC2=CC=CC=C2)C=C1)OC1=NC=CC=C1
InChI: InChI=1S/C20H19NO3/c1-16(23-20-9-5-6-14-21-20)15-22-17-10-12-19(13-11-17)24-18-7-3-2-4-8-18/h2-14,16H,15H2,1H3
Instrument: Q Exactive Orbitrap (Thermo Scientific)
Instrument type: LC-ESI-QFT
Ms type: MS2
Ion mode: POSITIVE
Ionization: ESI
Fragmentation mode: HCD
Collision energy: 60
Resolution: 17500
Column name: Acquity BEH C18 1.7um, 2.1x150mm (Waters)
Retention time: 19.691 min
Base peak: 79.0211
Precursor m/z: 322.1438
Precursor type: [M+H]+
Precursor intensity: 28855422.5
m/z	relative intensity	assigned
53.0386	16	C4H5+
55.0178	2	C3H3O+
65.0385	1	C5H5+
77.0383	6	C6H5+
78.0337	18	C5H4N+
79.0542	4	C6H7+
81.0334	2	C5H5O+
91.0542	29	C7H7+
94.0412	3	C6H6O+
95.0492	50	C6H7O+
96.0443	999	C5H6NO+
103.0539	2	C8H7+
105.0699	34	C8H9+
106.0414	1	C7H6O+
106.0773	2	C8H10+
107.0492	5	C7H7O+
110.0599	5	C6H8NO+
115.0542	20	C9H7+
116.062	3	C9H8+
117.07	2	C9H9+
119.0491	151	C8H7O+
128.062	25	C10H8+
129.0698	187	C10H9+
131.049	1	C9H7O+
133.0647	24	C9H9O+
134.0725	53	C9H10O+
136.0757	5	C8H10NO+
141.0698	41	C11H9+
142.0776	2	C11H10+
143.0855	3	C11H11+
145.0648	3	C10H9O+
152.0619	1	C12H8+
153.0698	5	C12H9+
157.0647	30	C11H9O+
158.0723	1	C11H10O+
165.0699	2	C13H9+
166.0774	3	C13H10+
168.057	1	C12H8O+
169.0647	4	C12H9O+
170.0725	6	C12H10O+
171.0801	3	C12H11O+
181.0645	4	C13H9O+
184.0517	1	C12H8O2+
185.0596	99	C12H9O2+
186.0675	3	C12H10O2+
194.0727	4	C14H10O+
197.0596	2	C13H9O2+
198.0676	1	C13H10O2+
199.0753	5	C13H11O2+
