Mass spectrum: PharmaGSID_48505; LC-ESI-QFT; MS2; CE: 90; R=17500; [M-H]-
Name: PharmaGSID_48505
Name: 5-(2-chlorophenyl)-3-methyl-7-nitro-1,2-dihydropyrazolo[3,4-b][1,4]benzodiazepine
Formula: C17H12ClN5O2
Exact mass: 353.0680
SMILES: CC1=C2N=C(C3=CC=CC=C3Cl)C3=C(NC2=NN1)C=CC(=C3)[N+]([O-])=O
InChI: InChI=1S/C17H12ClN5O2/c1-9-15-17(22-21-9)19-14-7-6-10(23(24)25)8-12(14)16(20-15)11-4-2-3-5-13(11)18/h2-8H,1H3,(H2,19,21,22)
Instrument: Q Exactive Orbitrap (Thermo Scientific)
Instrument type: LC-ESI-QFT
Ms type: MS2
Ion mode: NEGATIVE
Ionization: ESI
Fragmentation mode: HCD
Collision energy: 90
Resolution: 17500
Column name: Acquity BEH C18 1.7um, 2.1x150mm (Waters)
Retention time: 17.775 min
Base peak: 112.9857
Precursor m/z: 352.0607
Precursor type: [M-H]-
Precursor intensity: 15241478.03906
m/z	relative intensity	assigned
50.0036	35	C3N-
65.0146	31	C3HN2-
65.9987	49	C3NO-
66.0099	70	C2N3-
88.0193	99	C6H2N-
92.014	26	C5H2NO-
114.035	88	C8H4N-
115.0303	146	C7H3N2-
139.0303	68	C9H3N2-
140.0508	62	C10H6N-
142.041	99	C8H4N3-
143.025	205	C8H3N2O-
147.0201	33	C7H3N2O2-
154.0539	22	C10H6N2-
155.0378	40	C10H5NO-
165.0458	153	C11H5N2-
170.0362	85	C9H4N3O-
182.0485	60	C11H6N2O-
188.0507	53	C14H6N-
189.0458	380	C13H5N2-
190.0407	24	C12H4N3-
191.0617	174	C13H7N2-
194.0608	29	C13H8NO-
201.0455	24	C14H5N2-
202.0538	174	C14H6N2-
205.0533	21	C14H7NO-
213.0419	109	C10H5N4O2-
214.0656	24	C16H8N-
215.0615	141	C15H7N2-
216.0567	999	C14H6N3-
219.0565	95	C14H7N2O-
225.0227	66	C13H6ClN2-
227.0491	33	C15H5N3-
228.0574	45	C15H6N3-
228.0697	73	C16H8N2-
229.0529	54	C16H7NO-
229.0651	32	C15H7N3-
229.0771	20	C16H9N2-
230.048	127	C15H6N2O-
241.0773	22	C17H9N2-
244.0516	368	C15H6N3O-
249.0222	151	C15H6ClN2-
254.06	45	C16H6N4-
256.0642	298	C17H8N2O-
257.0711	35	C15H7N5-
257.0852	21	C16H9N4-
266.0263	18	C15H7ClN2O-
285.0784	43	C17H9N4O-
