Mass spectrum: Methyldopa; LC-ESI-QFT; MS2; CE: 30; R=17500; [M+H]+
Name: Methyldopa
Name: (2S)-2-amino-3-(3,4-dihydroxyphenyl)-2-methylpropanoic acid
Formula: C10H13NO4
Exact mass: 211.0845
SMILES: C[C@](N)(Cc1ccc(O)c(O)c1)C(=O)O
InChI: InChI=1S/C10H13NO4/c1-10(11,9(14)15)5-6-2-3-7(12)8(13)4-6/h2-4,12-13H,5,11H2,1H3,(H,14,15)/t10-/m0/s1
Instrument: Q Exactive Orbitrap (Thermo Scientific)
Instrument type: LC-ESI-QFT
Ms type: MS2
Ion mode: POSITIVE
Ionization: ESI
Fragmentation mode: HCD
Collision energy: 30
Resolution: 17500
Column name: Acquity BEH C18 1.7um, 2.1x150mm (Waters)
Retention time: 3.672 min
Base peak: 79.0211
Precursor m/z: 212.0917
Precursor type: [M+H]+
Precursor intensity: 2785850.9375
m/z	relative intensity	assigned
57.0335	3	C3H5O+
88.0394	8	C3H6NO2+
105.07	7	C8H9+
111.0441	9	C6H7O2+
123.0441	35	C7H7O2+
125.0597	6	C7H9O2+
131.0494	3	C9H7O+
133.0648	12	C9H9O+
139.0391	801	C7H7O3+
149.0599	22	C9H9O2+
151.0755	55	C9H11O2+
159.0438	2	C10H7O2+
166.0864	999	C9H12NO2+
167.0703	3	C9H11O3+
177.0546	18	C10H9O3+
194.0814	6	C10H12NO3+
195.0653	291	C10H11O4+
212.0918	111	C10H14NO4+
