Mass spectrum: Tebufenpyrad; LC-ESI-QFT; MS2; CE: 30; R=17500; [M+H]+
Name: Tebufenpyrad
Name: N-[(4-tert-butylphenyl)methyl]-4-chloro-5-ethyl-2-methylpyrazole-3-carboxamide
Formula: C18H24ClN3O
Exact mass: 333.1608
SMILES: CCC1=NN(C)C(C(=O)NCC2=CC=C(C=C2)C(C)(C)C)=C1Cl
InChI: InChI=1S/C18H24ClN3O/c1-6-14-15(19)16(22(5)21-14)17(23)20-11-12-7-9-13(10-8-12)18(2,3)4/h7-10H,6,11H2,1-5H3,(H,20,23)
Instrument: Q Exactive Orbitrap (Thermo Scientific)
Instrument type: LC-ESI-QFT
Ms type: MS2
Ion mode: POSITIVE
Ionization: ESI
Fragmentation mode: HCD
Collision energy: 30
Resolution: 17500
Column name: Acquity BEH C18 1.7um, 2.1x150mm (Waters)
Retention time: 19.491 min
Base peak: 79.0211
Precursor m/z: 334.1681
Precursor type: [M+H]+
Precursor intensity: 18015184.0625
m/z	relative intensity	assigned
57.0699	7	C4H9+
91.0543	11	C7H7+
105.0699	3	C8H9+
117.0214	10	C4H6ClN2+
119.0856	3	C9H11+
132.0931	1	C10H12+
145.0528	120	C6H10ClN2+
147.1168	131	C11H15+
171.032	36	C7H8ClN2O+
200.0586	8	C8H11ClN3O+
278.1055	15	C14H17ClN3O+
319.1454	1	C17H22ClN3O+
334.1681	999	C18H25ClN3O+
