Mass spectrum: 6-Pentyl-2H-pyran-2-one; LC-ESI-QFT; MS2; CE: 75; R=17500; [M+H]+
Name: 6-Pentyl-2H-pyran-2-one
Name: 6-pentylpyran-2-one
Formula: C10H14O2
Exact mass: 166.0994
SMILES: CCCCCC1=CC=CC(=O)O1
InChI: InChI=1S/C10H14O2/c1-2-3-4-6-9-7-5-8-10(11)12-9/h5,7-8H,2-4,6H2,1H3
Instrument: Q Exactive Orbitrap (Thermo Scientific)
Instrument type: LC-ESI-QFT
Ms type: MS2
Ion mode: POSITIVE
Ionization: ESI
Fragmentation mode: HCD
Collision energy: 75
Resolution: 17500
Column name: Acquity BEH C18 1.7um, 2.1x150mm (Waters)
Retention time: 16.695 min
Base peak: 79.0211
Precursor m/z: 167.1067
Precursor type: [M+H]+
Precursor intensity: 713166.5
m/z	relative intensity	assigned
53.0022	56	C3HO+
53.0386	105	C4H5+
55.0179	329	C3H3O+
55.0543	512	C4H7+
57.0335	50	C3H5O+
65.0386	560	C5H5+
67.0543	878	C5H7+
69.0335	441	C4H5O+
69.0699	109	C5H9+
79.0179	117	C5H3O+
79.0543	688	C6H7+
81.07	297	C6H9+
82.0414	32	C5H6O+
83.0492	512	C5H7O+
91.0544	113	C7H7+
93.0336	103	C6H5O+
93.07	127	C7H9+
95.0492	158	C6H7O+
97.0285	999	C5H5O2+
105.07	35	C8H9+
107.0493	143	C7H7O+
107.0858	26	C8H11+
110.0364	115	C6H6O2+
111.0442	44	C6H7O2+
121.065	25	C8H9O+
167.107	90	C10H15O2+
