Mass spectrum: CP-671305; LC-ESI-QFT; MS2; CE: 45; R=17500; [M-H]-
Name: CP-671305
Name: (2R)-2-[4-[[[2-(1,3-benzodioxol-5-yloxy)pyridine-3-carbonyl]amino]methyl]-3-fluorophenoxy]propanoic acid
Formula: C23H19FN2O7
Exact mass: 454.1176
SMILES: C[C@@H](OC1=CC=C(CNC(=O)C2=CC=CN=C2OC2=CC=C3OCOC3=C2)C(F)=C1)C(O)=O
InChI: InChI=1S/C23H19FN2O7/c1-13(23(28)29)32-15-5-4-14(18(24)9-15)11-26-21(27)17-3-2-8-25-22(17)33-16-6-7-19-20(10-16)31-12-30-19/h2-10,13H,11-12H2,1H3,(H,26,27)(H,28,29)/t13-/m1/s1
Instrument: Q Exactive Orbitrap (Thermo Scientific)
Instrument type: LC-ESI-QFT
Ms type: MS2
Ion mode: NEGATIVE
Ionization: ESI
Fragmentation mode: HCD
Collision energy: 45
Resolution: 17500
Column name: Acquity BEH C18 1.7um, 2.1x150mm (Waters)
Retention time: 16.733 min
Base peak: 316.055
Precursor m/z: 453.1104
Precursor type: [M-H]-
Precursor intensity: 12549740.62793
m/z	relative intensity	assigned
65.9986	1	C3NO-
66.0349	4	C4H4N-
68.0142	1	C3H2NO-
71.0138	14	C3H3O2-
78.0349	3	C5H4N-
81.0219	8	C4H3NO-
91.0302	5	C5H3N2-
92.0143	5	C5H2NO-
93.0346	1	C6H5O-
94.0298	356	C5H4NO-
106.0297	11	C6H4NO-
107.0376	89	C6H5NO-
108.0455	223	C6H6NO-
109.0167	2	C5H3NO2-
109.0293	2	C6H5O2-
117.0458	1	C7H5N2-
118.0298	179	C7H4NO-
119.0249	22	C6H3N2O-
120.009	2	C6H2NO2-
122.0246	12	C6H4NO2-
134.0247	297	C7H4NO2-
135.0325	10	C7H5NO2-
136.0403	425	C7H6NO2-
137.0352	1	C6H5N2O2-
146.0247	7	C8H4NO2-
152.0352	1	C7H6NO3-
155.0614	2	C10H7N2-
158.0609	8	C10H8NO-
162.0197	38	C8H4NO3-
170.0485	2	C10H6N2O-
183.0563	39	C11H7N2O-
184.0404	3	C11H6NO2-
184.0643	11	C11H8N2O-
185.072	131	C11H9N2O-
186.0565	6	C11H8NO2-
195.0561	7	C12H7N2O-
199.0514	3	C11H7N2O2-
210.0434	3	C12H6N2O2-
211.0512	999	C12H7N2O2-
213.067	13	C12H9N2O2-
227.0463	36	C12H7N2O3-
228.0541	478	C12H8N2O3-
229.0617	959	C12H9N2O3-
239.0462	131	C13H7N2O3-
243.0405	3	C12H7N2O4-
255.0417	7	C10H8FN2O5-
255.0776	2	C14H11N2O3-
256.0494	12	C13H8N2O4-
257.0568	826	C13H9N2O4-
