Mass spectrum: Meloxicam; LC-ESI-QFT; MS2; CE: 75; R=17500; [M-H]-
Name: Meloxicam
Name: 4-hydroxy-2-methyl-N-(5-methyl-1,3-thiazol-2-yl)-1,1-dioxo-1lambda6,2-benzothiazine-3-carboxamide
Formula: C14H13N3O4S2
Exact mass: 351.0347
SMILES: CN1C(C(=O)NC2=NC=C(C)S2)=C(O)C2=C(C=CC=C2)S1(=O)=O
InChI: InChI=1S/C14H13N3O4S2/c1-8-7-15-14(22-8)16-13(19)11-12(18)9-5-3-4-6-10(9)23(20,21)17(11)2/h3-7,18H,1-2H3,(H,15,16,19)
Instrument: Q Exactive Orbitrap (Thermo Scientific)
Instrument type: LC-ESI-QFT
Ms type: MS2
Ion mode: NEGATIVE
Ionization: ESI
Fragmentation mode: HCD
Collision energy: 75
Resolution: 17500
Column name: Acquity BEH C18 1.7um, 2.1x150mm (Waters)
Retention time: 16.796 min
Base peak: 189.0169
Precursor m/z: 350.0275
Precursor type: [M-H]-
Precursor intensity: 7839439.207031
m/z	relative intensity	assigned
56.9804	17	C2HS-
57.9757	113	CNS-
58.996	6	C2H3S-
63.9625	16	O2S-
65.0033	7	C4HO-
65.0145	33	C3HN2-
65.0397	7	C5H5-
65.9985	28	C3NO-
71.9914	11	C2H2NS-
75.024	16	C6H3-
79.0302	45	C4H3N2-
81.9757	9	C3NS-
83.9912	7	C3H2NS-
86.007	59	C3H4NS-
91.0553	10	C7H7-
92.0254	35	C4H2N3-
93.0345	25	C6H5O-
97.9945	201	C3H2N2S-
101.0395	24	C8H5-
102.0349	28	C7H4N-
105.0219	9	C6H3NO-
106.9961	162	C6H3S-
107.9914	15	C5H2NS-
109.0117	29	C6H5S-
111.0024	16	C4H3N2S-
112.0101	38	C4H4N2S-
113.0179	675	C4H5N2S-
116.0504	44	C8H6N-
118.0411	9	C6H4N3-
119.0502	999	C8H7O-
120.9992	202	C6H3NS-
122.9908	27	C6H3OS-
123.9862	9	C5H2NOS-
124.9939	26	C5H3NOS-
128.0504	8	C9H6N-
131.0376	192	C8H5NO-
132.0455	6	C8H6NO-
134.007	132	C7H4NS-
134.9911	7	C7H3OS-
135.9864	15	C6H2NOS-
136.0225	47	C7H6NS-
137.0069	9	C7H5OS-
138.0131	25	C5H4N3S-
144.0455	410	C9H6NO-
145.0297	61	C9H5O2-
145.0408	31	C8H5N2O-
146.0612	101	C9H8NO-
148.0225	9	C8H6NS-
148.9941	31	C7H3NOS-
150.986	18	C7H3O2S-
151.9812	21	C6H2NO2S-
162.002	22	C8H4NOS-
163.0098	17	C8H5NOS-
164.0177	17	C8H6NOS-
164.9891	19	C7H3NO2S-
166.0083	6	C6H4N3OS-
176.989	11	C8H3NO2S-
208.0881	19	C13H10N3-
