Mass spectrum: 2,5-Dimethoxy-4-chloroaniline; LC-ESI-QFT; MS2; CE: 60; R=17500; [M+H]+
Name: 2,5-Dimethoxy-4-chloroaniline
Name: 4-chloro-2,5-dimethoxyaniline
Formula: C8H10ClNO2
Exact mass: 187.0400
SMILES: COC1=CC(N)=C(OC)C=C1Cl
InChI: InChI=1S/C8H10ClNO2/c1-11-7-4-6(10)8(12-2)3-5(7)9/h3-4H,10H2,1-2H3
Instrument: Q Exactive Orbitrap (Thermo Scientific)
Instrument type: LC-ESI-QFT
Ms type: MS2
Ion mode: POSITIVE
Ionization: ESI
Fragmentation mode: HCD
Collision energy: 60
Resolution: 17500
Column name: Acquity BEH C18 1.7um, 2.1x150mm (Waters)
Retention time: 13.442 min
Base peak: 79.0211
Precursor m/z: 188.0473
Precursor type: [M+H]+
Precursor intensity: 1927575.75
m/z	relative intensity	assigned
65.0386	2	C5H5+
78.0342	2	C5H4N+
80.013	4	C4H2NO+
81.0574	1	C5H7N+
92.0495	8	C6H6N+
93.0573	9	C6H7N+
95.0493	2	C6H7O+
96.0443	3	C5H6NO+
106.0288	6	C6H4NO+
108.0443	1	C6H6NO+
109.0522	8	C6H7NO+
110.0601	17	C6H8NO+
122.0603	1	C7H8NO+
123.0313	1	C6H5NO2+
123.0681	1	C7H9NO+
124.0395	13	C6H6NO2+
124.0757	8	C7H10NO+
129.0102	13	C6H6ClO+
130.0055	257	C5H5ClNO+
138.055	467	C7H8NO2+
142.0055	1	C6H5ClNO+
144.0212	6	C6H7ClNO+
153.0785	127	C8H11NO2+
156.0213	6	C7H7ClNO+
157.029	3	C7H8ClNO+
158.0004	318	C6H5ClNO2+
172.0162	17	C7H7ClNO2+
173.0239	999	C7H8ClNO2+
188.0474	11	C8H11ClNO2+
