Mass spectrum: Butoxycarboxim; LC-ESI-QFT; MS2; CE: 30; R=17500; [M+H]+
Name: Butoxycarboxim
Name: [(E)-3-methylsulfonylbutan-2-ylideneamino] N-methylcarbamate
Formula: C7H14N2O4S
Exact mass: 222.0674
SMILES: CNC(=O)O\N=C(/C)C(C)S(C)(=O)=O
InChI: InChI=1S/C7H14N2O4S/c1-5(6(2)14(4,11)12)9-13-7(10)8-3/h6H,1-4H3,(H,8,10)/b9-5+
Instrument: Q Exactive Orbitrap (Thermo Scientific)
Instrument type: LC-ESI-QFT
Ms type: MS2
Ion mode: POSITIVE
Ionization: ESI
Fragmentation mode: HCD
Collision energy: 30
Resolution: 17500
Column name: Acquity BEH C18 1.7um, 2.1x150mm (Waters)
Retention time: 9.653 min
Base peak: 79.0211
Precursor m/z: 223.0747
Precursor type: [M+H]+
Precursor intensity: 1140512.875
m/z	relative intensity	assigned
61.0107	999	C2H5S+
106.0322	339	C3H8NOS+
130.9817	496	C7HNS+
146.9943	354	C7HNO3+
167.0859	300	C5H15N2O2S+
195.0808	325	C6H15N2O3S+
223.0743	270	C7H15N2O4S+
