Mass spectrum: Haloxyfop; LC-ESI-QFT; MS2; CE: 75; R=17500; [M-H]-
Name: Haloxyfop
Name: 2-[4-[3-chloro-5-(trifluoromethyl)pyridin-2-yl]oxyphenoxy]propanoic acid
Formula: C15H11ClF3NO4
Exact mass: 361.0329
SMILES: CC(OC1=CC=C(OC2=NC=C(C=C2Cl)C(F)(F)F)C=C1)C(O)=O
InChI: InChI=1S/C15H11ClF3NO4/c1-8(14(21)22)23-10-2-4-11(5-3-10)24-13-12(16)6-9(7-20-13)15(17,18)19/h2-8H,1H3,(H,21,22)
Instrument: Q Exactive Orbitrap (Thermo Scientific)
Instrument type: LC-ESI-QFT
Ms type: MS2
Ion mode: NEGATIVE
Ionization: ESI
Fragmentation mode: HCD
Collision energy: 75
Resolution: 17500
Column name: Acquity BEH C18 1.7um, 2.1x150mm (Waters)
Retention time: 18.614 min
Base peak: 360.0257
Precursor m/z: 360.0256
Precursor type: [M-H]-
Precursor intensity: 20854866.18359
m/z	relative intensity	assigned
67.019	6	C4H3O-
69.0345	23	C4H5O-
71.0139	188	C3H3O2-
95.0303	4	C6H4F-
97.0296	16	C5H5O2-
108.0217	551	C6H4O2-
126.035	3	C9H4N-
127.0189	11	C9H3O-
136.0193	8	C10H2N-
142.0111	7	C6H2F2NO-
147.0248	3	C9H4FO-
150.0161	2	C8H2F2N-
156.0256	46	C10H3FN-
162.0168	18	C6H3F3NO-
164.0142	14	C11H2NO-
168.0257	8	C11H3FN-
170.0223	221	C8H3F3N-
175.972	51	C6HClF2NO-
176.0317	21	C10H4F2N-
177.0159	36	C10H3F2O-
179.9832	14	C6H2ClF3N-
182.0246	6	C11H4NO2-
184.0203	68	C11H3FNO-
188.0314	5	C11H4F2N-
195.9782	999	C6H2ClF3NO-
197.022	39	C10H4F3O-
204.0266	67	C11H4F2NO-
208.0381	5	C11H5F3N-
212.015	20	C12H3FNO2-
214.0491	5	C10H7F3NO-
224.033	23	C11H5F3NO-
232.0216	26	C12H4F2NO2-
252.0278	35	C12H5F3NO2-
