Mass spectrum: Lauryldiethanolamine; LC-ESI-QFT; MS2; CE: 90; R=17500; [M+H]+
Name: Lauryldiethanolamine
Name: 2-[dodecyl(2-hydroxyethyl)amino]ethanol
Formula: C16H35NO2
Exact mass: 273.2668
SMILES: CCCCCCCCCCCCN(CCO)CCO
InChI: InChI=1S/C16H35NO2/c1-2-3-4-5-6-7-8-9-10-11-12-17(13-15-18)14-16-19/h18-19H,2-16H2,1H3
Instrument: Q Exactive Orbitrap (Thermo Scientific)
Instrument type: LC-ESI-QFT
Ms type: MS2
Ion mode: POSITIVE
Ionization: ESI
Fragmentation mode: HCD
Collision energy: 90
Resolution: 17500
Column name: Acquity BEH C18 1.7um, 2.1x150mm (Waters)
Retention time: 17.298 min
Base peak: 79.0211
Precursor m/z: 274.2741
Precursor type: [M+H]+
Precursor intensity: 41290235.5
m/z	relative intensity	assigned
53.0022	145	C3HO+
53.9974	21	C2NO+
55.0416	9	C3H5N+
55.0543	53	C4H7+
56.0495	18	C3H6N+
57.0699	632	C4H9+
58.0651	71	C3H8N+
60.0444	15	C2H6NO+
62.06	15	C2H8NO+
67.9892	9	C3O2+
68.0494	58	C4H6N+
69.0699	8	C5H9+
70.0651	999	C4H8N+
71.0855	40	C5H11+
72.0807	6	C4H10N+
74.0601	12	C3H8NO+
84.0809	4	C5H10N+
85.101	3	C6H13+
86.0601	6	C4H8NO+
88.0757	241	C4H10NO+
102.0914	40	C5H12NO+
106.0862	20	C4H12NO2+
