Mass spectrum: Furosemide; LC-ESI-QFT; MS2; CE: 45; R=17500; [M-H]-
Name: Furosemide
Name: 4-chloro-2-(furan-2-ylmethylamino)-5-sulfamoylbenzoic acid
Formula: C12H11ClN2O5S
Exact mass: 330.0077
SMILES: NS(=O)(=O)C1=C(Cl)C=C(NCC2=CC=CO2)C(=C1)C(O)=O
InChI: InChI=1S/C12H11ClN2O5S/c13-9-5-10(15-6-7-2-1-3-20-7)8(12(16)17)4-11(9)21(14,18)19/h1-5,15H,6H2,(H,16,17)(H2,14,18,19)
Instrument: Q Exactive Orbitrap (Thermo Scientific)
Instrument type: LC-ESI-QFT
Ms type: MS2
Ion mode: NEGATIVE
Ionization: ESI
Fragmentation mode: HCD
Collision energy: 45
Resolution: 17500
Column name: Acquity BEH C18 1.7um, 2.1x150mm (Waters)
Retention time: 14.699 min
Base peak: 329.0005
Precursor m/z: 329.0004
Precursor type: [M-H]-
Precursor intensity: 10320184.27197
m/z	relative intensity	assigned
61.9706	2	NOS-
63.9624	7	O2S-
66.0349	1	C4H4N-
76.0192	2	C5H2N-
77.9655	708	NO2S-
78.9733	15	HNO2S-
79.0189	22	C5H3O-
79.9811	12	H2NO2S-
90.0349	2	C6H4N-
93.9605	8	NO3S-
94.0298	7	C5H4NO-
104.0379	5	C6H4N2-
105.0458	6	C6H5N2-
115.0303	3	C7H3N2-
116.0504	1	C8H6N-
117.0457	2	C7H5N2-
119.025	1	C6H3N2O-
120.0455	1	C7H6NO-
121.0407	39	C6H5N2O-
126.0116	263	C6H5ClN-
131.0612	1	C8H7N2-
140.0147	3	C6H5ClN2-
140.0509	2	C10H6N-
140.9987	2	C6H4ClNO-
141.0458	3	C9H5N2-
142.0662	8	C10H8N-
143.0613	2	C9H7N2-
144.0457	5	C9H6NO-
146.0611	1	C9H8NO-
150.0115	3	C8H5ClN-
155.0612	2	C10H7N2-
155.9856	3	C6H3ClNO2-
156.0693	8	C10H8N2-
157.0532	4	C10H7NO-
157.0771	10	C10H9N2-
158.0485	3	C9H6N2O-
167.0615	6	C11H7N2-
168.0456	1	C11H6NO-
169.0077	16	C6H5N2O2S-
170.0611	12	C11H8NO-
172.0642	4	C10H8N2O-
173.0721	9	C10H9N2O-
177.0224	1	C9H6ClN2-
178.0428	10	C10H9ClN-
183.0565	4	C11H7N2O-
184.0642	4	C11H8N2O-
185.0479	5	C11H7NO2-
185.072	22	C11H9N2O-
187.9577	9	C6H3ClNO2S-
188.966	2	C6H4ClNO2S-
189.9736	1	C6H5ClNO2S-
201.0666	4	C11H9N2O2-
203.038	3	C11H8ClN2-
203.9767	1	C6H5ClN2O2S-
204.0224	1	C11H7ClNO-
204.9843	999	C6H6ClN2O2S-
206.0377	116	C11H9ClNO-
221.0247	3	C11H8ClNO2-
221.0489	1	C11H10ClN2O-
228.9845	2	C8H6ClN2O2S-
239.9889	1	C10H7ClNO2S-
242.9995	5	C12H5NO3S-
249.0335	7	C11H9N2O3S-
257.0154	3	C10H10ClN2O2S-
257.9997	1	C10H9ClNO3S-
267.0012	4	C11H8ClN2O2S-
268.9918	1	C11H8ClNO3S-
285.0106	47	C11H10ClN2O3S-
