Mass spectrum: AVE3247; LC-ESI-QFT; MS2; CE: 45; R=17500; [M+H]+
Name: AVE3247
Name: 1-[[5-(5-chlorothiophen-2-yl)-1,2-oxazol-3-yl]methyl]-2-[(1-cyclopropylpiperidin-4-yl)carbamoyl]benzimidazole-5-carboxylic acid
Formula: C25H24ClN5O4S
Exact mass: 525.1238
SMILES: OC(=O)C1=CC=C2N(CC3=NOC(=C3)C3=CC=C(Cl)S3)C(=NC2=C1)C(=O)NC1CCN(CC1)C1CC1
InChI: InChI=1S/C25H24ClN5O4S/c26-22-6-5-21(36-22)20-12-16(29-35-20)13-31-19-4-1-14(25(33)34)11-18(19)28-23(31)24(32)27-15-7-9-30(10-8-15)17-2-3-17/h1,4-6,11-12,15,17H,2-3,7-10,13H2,(H,27,32)(H,33,34)
Instrument: Q Exactive Orbitrap (Thermo Scientific)
Instrument type: LC-ESI-QFT
Ms type: MS2
Ion mode: POSITIVE
Ionization: ESI
Fragmentation mode: HCD
Collision energy: 45
Resolution: 17500
Column name: Acquity BEH C18 1.7um, 2.1x150mm (Waters)
Retention time: 15.907 min
Base peak: 79.0211
Precursor m/z: 526.131
Precursor type: [M+H]+
Precursor intensity: 2390922.5625
m/z	relative intensity	assigned
53.0386	2	C4H5+
55.0542	44	C4H7+
56.0495	9	C3H6N+
67.0542	7	C5H7+
68.0494	11	C4H6N+
69.0698	5	C5H9+
70.0651	51	C4H8N+
72.0807	25	C4H10N+
79.0541	5	C6H7+
80.0132	2	C4H2NO+
80.0494	4	C5H6N+
81.0699	13	C6H9+
82.0651	35	C5H8N+
83.0728	2	C5H9N+
84.0443	1	C4H6NO+
84.0808	28	C5H10N+
94.0651	1	C6H8N+
95.0856	10	C7H11+
96.0807	63	C6H10N+
109.0885	4	C7H11N+
114.055	1	C5H8NO2+
119.0602	2	C7H7N2+
122.0964	41	C8H12N+
124.1121	357	C8H14N+
125.0709	34	C6H9N2O+
135.0136	3	C7H5NS+
139.0864	7	C7H11N2O+
142.9716	14	C6H4ClS+
144.9509	34	C5H2ClOS+
145.0397	5	C8H5N2O+
163.0085	2	C8H5NOS+
163.0503	13	C8H7N2O2+
167.1179	999	C9H15N2O+
169.9827	22	C7H5ClNS+
170.966	1	C7H4ClOS+
175.0502	35	C9H7N2O2+
176.058	24	C9H8N2O2+
197.9775	34	C8H5ClNOS+
214.0605	3	C3H12N5O4S+
215.0689	8	C11H9N3O2+
333.0088	10	C21H4ClN3+
360.0205	124	C16H11ClN3O3S+
