Mass spectrum: 1H-Benzotriazol-1-ol; LC-ESI-QFT; MS2; CE: 30; R=17500; [M+H]+
Name: 1H-Benzotriazol-1-ol
Name: 1-hydroxybenzotriazole
Formula: C6H5N3O
Exact mass: 135.0433
SMILES: ON1N=NC2=C1C=CC=C2
InChI: InChI=1S/C6H5N3O/c10-9-6-4-2-1-3-5(6)7-8-9/h1-4,10H
Instrument: Q Exactive Orbitrap (Thermo Scientific)
Instrument type: LC-ESI-QFT
Ms type: MS2
Ion mode: POSITIVE
Ionization: ESI
Fragmentation mode: HCD
Collision energy: 30
Resolution: 17500
Column name: Acquity BEH C18 1.7um, 2.1x150mm (Waters)
Retention time: 9.600 min
Base peak: 79.0211
Precursor m/z: 136.0505
Precursor type: [M+H]+
Precursor intensity: 7667657
m/z	relative intensity	assigned
53.0386	20	C4H5+
63.023	1	C5H3+
64.0308	1	C5H4+
65.0386	1	C5H5+
78.0464	9	C6H6+
80.0494	27	C5H6N+
81.0337	1	C5H5O+
90.0338	1	C6H4N+
91.0417	99	C6H5N+
106.0527	1	C6H6N2+
108.0443	1	C6H6NO+
119.0479	43	C6H5N3+
136.0506	999	C6H6N3O+
