Mass spectrum: Formononetin; LC-ESI-QFT; MS2; CE: 60; R=17500; [M+H]+
Name: Formononetin
Name: 7-hydroxy-3-(4-methoxyphenyl)chromen-4-one
Formula: C16H12O4
Exact mass: 268.0736
SMILES: COC1=CC=C(C=C1)C1=COC2=C(C=CC(O)=C2)C1=O
InChI: InChI=1S/C16H12O4/c1-19-12-5-2-10(3-6-12)14-9-20-15-8-11(17)4-7-13(15)16(14)18/h2-9,17H,1H3
Instrument: Q Exactive Orbitrap (Thermo Scientific)
Instrument type: LC-ESI-QFT
Ms type: MS2
Ion mode: POSITIVE
Ionization: ESI
Fragmentation mode: HCD
Collision energy: 60
Resolution: 17500
Column name: Acquity BEH C18 1.7um, 2.1x150mm (Waters)
Retention time: 16.857 min
Base peak: 79.0211
Precursor m/z: 269.0808
Precursor type: [M+H]+
Precursor intensity: 15688663.71875
m/z	relative intensity	assigned
52.0307	2	C4H4+
53.0386	5	C4H5+
55.0178	21	C3H3O+
65.0384	3	C5H5+
66.0464	4	C5H6+
68.997	38	C3HO2+
77.0385	3	C6H5+
79.0542	34	C6H7+
81.0334	10	C5H5O+
89.0384	4	C7H5+
90.0463	16	C7H6+
91.0543	13	C7H7+
92.0253	2	C6H4O+
95.0491	16	C6H7O+
102.0461	2	C8H6+
103.0542	31	C8H7+
105.0334	17	C7H5O+
105.0698	36	C8H9+
107.0491	281	C7H7O+
108.0205	77	C6H4O2+
109.0284	3	C6H5O2+
111.044	2	C6H7O2+
115.0543	7	C9H7+
118.0412	714	C8H6O+
119.049	7	C8H7O+
120.0571	2	C8H8O+
121.0284	6	C7H5O2+
123.044	23	C7H7O2+
127.039	3	C6H7O3+
127.054	1	C10H7+
128.0619	10	C10H8+
129.0698	13	C10H9+
130.0777	3	C10H10+
131.0489	9	C9H7O+
132.0207	4	C8H4O2+
132.057	4	C9H8O+
133.0283	42	C8H5O2+
133.0647	136	C9H9O+
134.0362	2	C8H6O2+
135.0439	10	C8H7O2+
136.0154	39	C7H4O3+
137.0232	275	C7H5O3+
140.062	2	C11H8+
141.07	9	C11H9+
142.0777	15	C11H10+
144.0569	6	C10H8O+
145.0286	3	C9H5O2+
145.0649	11	C10H9O+
147.0439	21	C9H7O2+
148.0519	15	C9H8O2+
149.023	2	C8H5O3+
151.0388	7	C8H7O3+
152.0619	55	C12H8+
153.0698	68	C12H9+
154.0259	282	C7H6O4+
155.049	4	C11H7O+
155.0854	14	C12H11+
156.0568	137	C11H8O+
157.0648	43	C11H9O+
158.0725	54	C11H10O+
159.0439	2	C10H7O2+
163.0388	53	C9H7O3+
165.0699	34	C13H9+
166.0775	2	C13H10+
167.0853	15	C13H11+
168.0415	11	C8H8O4+
168.057	6	C12H8O+
169.0647	52	C12H9O+
170.0725	167	C12H10O+
171.044	2	C11H7O2+
171.0804	24	C12H11O+
172.0517	5	C11H8O2+
176.0469	5	C10H8O3+
180.0569	34	C13H8O+
181.0646	250	C13H9O+
182.0725	151	C13H10O+
183.0439	2	C12H7O2+
183.0805	22	C13H11O+
184.0518	57	C12H8O2+
185.0595	6	C12H9O2+
185.096	31	C13H13O+
186.0311	5	C11H6O3+
186.0675	7	C12H10O2+
188.0834	3	C12H12O2+
194.0734	2	C14H10O+
195.0804	60	C14H11O+
196.0516	19	C13H8O2+
196.0882	6	C14H12O+
197.0596	671	C13H9O2+
198.0674	313	C13H10O2+
199.0751	19	C13H11O2+
200.0468	43	C12H8O3+
208.0521	11	C14H8O2+
209.0597	48	C14H9O2+
210.0675	27	C14H10O2+
211.039	8	C13H7O3+
211.075	14	C14H11O2+
212.0465	9	C13H8O3+
212.0829	12	C14H12O2+
213.0909	869	C14H13O2+
223.0753	5	C15H11O2+
225.0545	303	C14H9O3+
226.0623	954	C14H10O3+
227.0702	5	C14H11O3+
228.0418	13	C13H8O4+
236.047	13	C15H8O3+
237.0544	902	C15H9O3+
238.0629	3	C15H10O3+
239.0703	9	C15H11O3+
241.0858	18	C15H13O3+
251.07	6	C16H11O3+
253.0493	999	C15H9O4+
254.0571	621	C15H10O4+
269.0806	766	C16H13O4+
