Mass spectrum: Fipronil; LC-ESI-QFT; MS2; CE: 60; R=17500; [M-H]-
Name: Fipronil
Name: 5-amino-1-[2,6-dichloro-4-(trifluoromethyl)phenyl]-4-(trifluoromethylsulfinyl)pyrazole-3-carbonitrile
Formula: C12H4Cl2F6N4OS
Exact mass: 435.9387
SMILES: NC1=C(C(=NN1C1=C(Cl)C=C(C=C1Cl)C(F)(F)F)C#N)S(=O)C(F)(F)F
InChI: InChI=1S/C12H4Cl2F6N4OS/c13-5-1-4(11(15,16)17)2-6(14)8(5)24-10(22)9(7(3-21)23-24)26(25)12(18,19)20/h1-2H,22H2
Instrument: Q Exactive Orbitrap (Thermo Scientific)
Instrument type: LC-ESI-QFT
Ms type: MS2
Ion mode: NEGATIVE
Ionization: ESI
Fragmentation mode: HCD
Collision energy: 60
Resolution: 17500
Column name: Acquity BEH C18 1.7um, 2.1x150mm (Waters)
Retention time: 18.222 min
Base peak: 434.9313
Precursor m/z: 434.9314
Precursor type: [M-H]-
Precursor intensity: 94122042.18555
m/z	relative intensity	assigned
50.0035	6	C3N-
57.9756	121	CNS-
64.0067	1	C3N2-
65.9985	5	C3NO-
66.0098	10	C2N3-
66.9415	2	ClS-
74.0036	1	C5N-
76.0067	4	C4N2-
77.0145	40	C4HN2-
81.9757	12	C3NS-
84.9907	10	CF3O-
88.0067	5	C5N2-
89.0145	2	C5HN2-
90.0099	4	CH2F4-
100.0067	2	C6N2-
112.0004	2	C5F2N-
112.0067	2	C7N2-
113.0145	88	C7HN2-
130.9989	2	C5F3N-
138.0036	2	C6F2N2-
148.9911	11	C7H2ClN2-
150.0035	7	C7F2N2-
154.9992	7	C7F3N-
157.0018	1	C6F3N2-
158.0097	4	C6HF3N2-
160.0017	4	C6HF3NO-
162.0037	3	C8F2N2-
163.0113	237	C8HF2N2-
170.0097	77	C7HF3N2-
174.0033	5	C9F2N2-
181.0024	2	C8F3N2-
182.0098	158	C8HF3N2-
183.0175	999	C8H2F3N2-
188.0068	6	C6H2F6-
191.9835	4	C7H2ClF3N-
196.9724	1	C8ClF2N2-
198.004	5	C11F2N2-
199.0114	4	C11HF2N2-
201.9985	22	C10F2N2O-
203.9765	5	CHClF6N3-
207.0006	1	C9H3ClFN3-
208.0124	10	C9HF3N3-
208.958	6	ClF5H3N2OS-
212.007	2	C8H2F6-
212.9492	43	C7H2Cl2F3-
213.9731	1	C3HClF6N2-
214.9896	11	C8H2F3N2S-
216.9785	23	C8HClF3N2-
217.9863	32	C8H2ClF3N2-
218.0097	13	C11HF3N2-
222.0048	3	C10HF3N2O-
223.9833	22	C6H3ClF6-
227.0175	2	C8H3F6N-
228.9448	3	C8ClF2N2S-
229.9524	5	C8HClF2N2S-
232.0127	3	C11HF3N3-
233.9808	23	C8H2ClF3N2O-
236.9847	2	C8H2ClF4N2-
240.9445	3	C9ClF2N2S-
242.9847	6	C9H2F3N2OS-
243.9894	145	C9H2ClF3N3-
244.9212	6	C7H2Cl2F3S-
246.0156	11	C11HF3N4-
247.9831	7	C11HClF2N3-
249.9584	465	C8H2ClF3N2S-
253.9863	38	C11H2ClF3N2-
267.9895	145	C11H2ClF3N3-
271.9845	16	C10H2ClF3N3O-
277.9533	73	C9H2ClF3N2OS-
280.957	14	C9H2ClF4N2S-
281.9926	58	C11H2ClF3N4-
282.9997	2	C11H3ClF3N4-
287.9617	27	C10H2ClF3N3S-
303.9562	3	C10H2ClF3N3OS-
