Mass spectrum: Karbutilate; LC-ESI-QFT; MS2; CE: 60; R=17500; [M+H]+
Name: Karbutilate
Name: [3-(dimethylcarbamoylamino)phenyl] N-tert-butylcarbamate
Formula: C14H21N3O3
Exact mass: 279.1583
SMILES: CN(C)C(=O)NC1=CC=CC(OC(=O)NC(C)(C)C)=C1
InChI: InChI=1S/C14H21N3O3/c1-14(2,3)16-13(19)20-11-8-6-7-10(9-11)15-12(18)17(4)5/h6-9H,1-5H3,(H,15,18)(H,16,19)
Instrument: Q Exactive Orbitrap (Thermo Scientific)
Instrument type: LC-ESI-QFT
Ms type: MS2
Ion mode: POSITIVE
Ionization: ESI
Fragmentation mode: HCD
Collision energy: 60
Resolution: 17500
Column name: Acquity BEH C18 1.7um, 2.1x150mm (Waters)
Retention time: 15.141 min
Base peak: 79.0211
Precursor m/z: 280.1656
Precursor type: [M+H]+
Precursor intensity: 6741064.5
m/z	relative intensity	assigned
57.07	3	C4H9+
65.0385	5	C5H5+
72.0444	999	C3H6NO+
88.0758	20	C4H10NO+
108.0445	24	C6H6NO+
111.0441	17	C6H7O2+
117.0699	15	C9H9+
121.0398	3	C6H5N2O+
128.107	6	C7H14NO+
136.0394	85	C7H6NO2+
146.073	5	C10H10O+
160.1123	7	C11H14N+
181.0975	13	C9H13N2O2+
