Mass spectrum: MK-547; LC-ESI-QFT; MS2; CE: 90; R=17500; [M-H]-
Name: MK-547
Name: J-104132
Name: (5S,6R,7R)-5-(1,3-benzodioxol-5-yl)-2-butyl-7-[2-[(2S)-2-carboxypropyl]-4-methoxyphenyl]-6,7-dihydro-5H-cyclopenta[b]pyridine-6-carboxylic acid
Formula: C31H33NO7
Exact mass: 531.2257
SMILES: CCCCc1ccc2c(n1)[C@@H](c1ccc(OC)cc1C[C@H](C)C(O)=O)[C@H](C(O)=O)[C@H]2c1ccc2c(c1)OCO2
InChI: InChI=1S/C31H33NO7/c1-4-5-6-20-8-10-23-26(18-7-12-24-25(15-18)39-16-38-24)28(31(35)36)27(29(23)32-20)22-11-9-21(37-3)14-19(22)13-17(2)30(33)34/h7-12,14-15,17,26-28H,4-6,13,16H2,1-3H3,(H,33,34)(H,35,36)/t17-,26-,27-,28+/m0/s1
Instrument: Q Exactive Orbitrap (Thermo Scientific)
Instrument type: LC-ESI-QFT
Ms type: MS2
Ion mode: NEGATIVE
Ionization: ESI
Fragmentation mode: HCD
Collision energy: 90
Resolution: 17500
Column name: Acquity BEH C18 1.7um, 2.1x150mm (Waters)
Retention time: 18.559 min
Base peak: 112.9856
Precursor m/z: 530.2184
Precursor type: [M-H]-
Precursor intensity: 7935281.022461
m/z	relative intensity	assigned
65.0033	575	C4HO-
65.0397	113	C5H5-
91.019	426	C6H3O-
93.0346	999	C6H5O-
107.0501	44	C7H7O-
108.0216	46	C6H4O2-
119.0502	203	C8H7O-
121.0293	206	C7H5O2-
131.0506	47	C9H7O-
133.0659	117	C9H9O-
135.0816	121	C9H11O-
145.0295	206	C9H5O2-
158.0374	48	C10H6O2-
159.0451	79	C10H7O2-
161.0608	35	C10H9O2-
195.0688	26	C13H9NO-
220.0767	471	C15H10NO-
221.0849	125	C15H11NO-
250.1237	55	C17H16NO-
263.1314	27	C18H17NO-
288.14	42	C20H18NO-
326.1548	37	C23H20NO-
350.119	25	C24H16NO2-
354.1501	78	C24H20NO2-
366.1494	56	C25H20NO2-
378.1485	29	C26H20NO2-
