Mass spectrum: Chrysin; LC-ESI-QFT; MS2; CE: 45; R=17500; [M+H]+
Name: Chrysin
Name: 5,7-dihydroxy-2-phenylchromen-4-one
Formula: C15H10O4
Exact mass: 254.0579
SMILES: OC1=CC2=C(C(O)=C1)C(=O)C=C(O2)C1=CC=CC=C1
InChI: InChI=1S/C15H10O4/c16-10-6-11(17)15-12(18)8-13(19-14(15)7-10)9-4-2-1-3-5-9/h1-8,16-17H
Instrument: Q Exactive Orbitrap (Thermo Scientific)
Instrument type: LC-ESI-QFT
Ms type: MS2
Ion mode: POSITIVE
Ionization: ESI
Fragmentation mode: HCD
Collision energy: 45
Resolution: 17500
Column name: Acquity BEH C18 1.7um, 2.1x150mm (Waters)
Retention time: 17.852 min
Base peak: 79.0212
Precursor m/z: 255.0652
Precursor type: [M+H]+
Precursor intensity: 2432257.34375
m/z	relative intensity	assigned
67.0178	4	C4H3O+
68.9971	1	C3HO2+
103.0543	5	C8H7+
105.0336	3	C7H5O+
129.0335	5	C9H5O+
147.0441	4	C9H7O2+
153.0183	28	C7H5O4+
187.0756	3	C12H11O2+
209.0597	5	C14H9O2+
213.0546	1	C13H9O3+
231.0652	4	C13H11O4+
255.0653	999	C15H11O4+
