Mass spectrum: Candoxatril; LC-ESI-QFT; MS2; CE: 90; R=17500; [M+H]+
Name: Candoxatril
Formula: C29H41NO7
Exact mass: 515.2883
SMILES: COCCOC[C@H](CC1(CCCC1)C(=O)N[C@H]1CC[C@H](CC1)C(O)=O)C(=O)OC1=CC2=C(CCC2)C=C1
InChI: InChI=1S/C29H41NO7/c1-35-15-16-36-19-23(27(33)37-25-12-9-20-5-4-6-22(20)17-25)18-29(13-2-3-14-29)28(34)30-24-10-7-21(8-11-24)26(31)32/h9,12,17,21,23-24H,2-8,10-11,13-16,18-19H2,1H3,(H,30,34)(H,31,32)/t21-,23-,24+/m0/s1
Instrument: Q Exactive Orbitrap (Thermo Scientific)
Instrument type: LC-ESI-QFT
Ms type: MS2
Ion mode: POSITIVE
Ionization: ESI
Fragmentation mode: HCD
Collision energy: 90
Resolution: 17500
Column name: Acquity BEH C18 1.7um, 2.1x150mm (Waters)
Retention time: 18.625 min
Base peak: 79.0211
Precursor m/z: 516.2956
Precursor type: [M+H]+
Precursor intensity: 8365136
m/z	relative intensity	assigned
53.0022	12	C3HO+
53.0386	63	C4H5+
55.0179	31	C3H3O+
55.0543	40	C4H7+
56.0495	5	C3H6N+
57.0335	10	C3H5O+
58.0652	12	C3H8N+
59.0492	62	C3H7O+
65.0386	54	C5H5+
66.0464	5	C5H6+
67.0542	189	C5H7+
68.0495	3	C4H6N+
69.0335	40	C4H5O+
72.0442	2	C3H6NO+
77.0386	11	C6H5+
79.0543	999	C6H7+
81.07	559	C6H9+
83.0855	30	C6H11+
84.0809	3	C5H10N+
86.0601	20	C4H8NO+
91.0543	480	C7H7+
92.0495	10	C6H6N+
92.0622	10	C7H8+
93.07	147	C7H9+
94.0414	3	C6H6O+
94.0653	5	C6H8N+
95.0492	94	C6H7O+
96.0444	6	C5H6NO+
96.081	13	C6H10N+
98.0965	8	C6H12N+
105.07	105	C8H9+
106.0652	6	C7H8N+
107.0492	27	C7H7O+
107.0856	179	C8H11+
108.0809	13	C7H10N+
109.0649	51	C7H9O+
109.1012	18	C8H13+
110.0603	3	C6H8NO+
110.0968	3	C7H12N+
115.0543	182	C9H7+
116.0621	7	C9H8+
117.07	206	C9H9+
119.0731	8	C8H9N+
119.0857	4	C9H11+
124.1123	5	C8H14N+
126.0914	96	C7H12NO+
131.0858	6	C10H11+
132.0808	6	C9H10N+
134.0965	29	C9H12N+
135.0805	63	C9H11O+
138.0919	2	C8H12NO+
147.0807	8	C10H11O+
152.1073	12	C9H14NO+
161.0599	4	C10H9O2+
162.0913	4	C10H12NO+
180.1015	3	C10H14NO2+
187.0756	2	C12H11O2+
