Mass spectrum: Danazol; LC-ESI-QFT; MS2; CE: 15; R=17500; [M+H]+
Name: Danazol
Name: (1S,2R,13R,14S,17R,18S)-17-ethynyl-2,18-dimethyl-7-oxa-6-azapentacyclo[11.7.0.02,10.04,8.014,18]icosa-4(8),5,9-trien-17-ol
Formula: C22H27NO2
Exact mass: 337.2042
SMILES: C[C@]12CC[C@H]3[C@@H](CCC4=CC5=C(C[C@]34C)C=NO5)[C@@H]1CC[C@@]2(O)C#C
InChI: InChI=1S/C22H27NO2/c1-4-22(24)10-8-18-16-6-5-15-11-19-14(13-23-25-19)12-20(15,2)17(16)7-9-21(18,22)3/h1,11,13,16-18,24H,5-10,12H2,2-3H3/t16-,17+,18+,20+,21+,22+/m1/s1
Instrument: Q Exactive Orbitrap (Thermo Scientific)
Instrument type: LC-ESI-QFT
Ms type: MS2
Ion mode: POSITIVE
Ionization: ESI
Fragmentation mode: HCD
Collision energy: 15
Resolution: 17500
Column name: Acquity BEH C18 1.7um, 2.1x150mm (Waters)
Retention time: 18.811 min
Base peak: 79.0211
Precursor m/z: 338.2115
Precursor type: [M+H]+
Precursor intensity: 7852103.75
m/z	relative intensity	assigned
70.0286	1	C3H4NO+
148.0756	2	C9H10NO+
310.2161	5	C21H28NO+
338.2114	999	C22H28NO2+
