Mass spectrum: Flamprop-isopropyl; LC-ESI-QFT; MS2; CE: 75; R=17500; [M+H]+
Name: Flamprop-isopropyl
Name: propan-2-yl 2-(N-benzoyl-3-chloro-4-fluoroanilino)propanoate
Formula: C19H19ClFNO3
Exact mass: 363.1037
SMILES: CC(C)OC(=O)C(C)N(C(=O)C1=CC=CC=C1)C1=CC(Cl)=C(F)C=C1
InChI: InChI=1S/C19H19ClFNO3/c1-12(2)25-19(24)13(3)22(15-9-10-17(21)16(20)11-15)18(23)14-7-5-4-6-8-14/h4-13H,1-3H3
Instrument: Q Exactive Orbitrap (Thermo Scientific)
Instrument type: LC-ESI-QFT
Ms type: MS2
Ion mode: POSITIVE
Ionization: ESI
Fragmentation mode: HCD
Collision energy: 75
Resolution: 17500
Column name: Acquity BEH C18 1.7um, 2.1x150mm (Waters)
Retention time: 18.490 min
Base peak: 79.0211
Precursor m/z: 364.111
Precursor type: [M+H]+
Precursor intensity: 13578149.25
m/z	relative intensity	assigned
50.0152	12	C4H2+
51.023	25	C4H3+
53.0386	266	C4H5+
55.0179	10	C3H3O+
77.0386	71	C6H5+
81.0336	22	C5H5O+
81.07	2	C6H9+
94.0414	26	C6H6O+
95.0492	731	C6H7O+
105.0336	999	C7H5O+
106.0417	2	C4H9ClN+
109.0648	11	C7H9O+
136.0559	4	C8H7FN+
137.0639	4	C8H8FN+
172.0324	5	C8H8ClFN+
