Mass spectrum: Imazaquin; LC-ESI-QFT; MS2; CE: 15; R=17500; [M+H]+
Name: Imazaquin
Name: 2-(4-methyl-5-oxo-4-propan-2-yl-1H-imidazol-2-yl)quinoline-3-carboxylic acid
Formula: C17H17N3O3
Exact mass: 311.1270
SMILES: CC(C)C1(C)N=C(NC1=O)C1=NC2=C(C=CC=C2)C=C1C(O)=O
InChI: InChI=1S/C17H17N3O3/c1-9(2)17(3)16(23)19-14(20-17)13-11(15(21)22)8-10-6-4-5-7-12(10)18-13/h4-9H,1-3H3,(H,21,22)(H,19,20,23)
Instrument: Q Exactive Orbitrap (Thermo Scientific)
Instrument type: LC-ESI-QFT
Ms type: MS2
Ion mode: POSITIVE
Ionization: ESI
Fragmentation mode: HCD
Collision energy: 15
Resolution: 17500
Column name: Acquity BEH C18 1.7um, 2.1x150mm (Waters)
Retention time: 15.221 min
Base peak: 79.0212
Precursor m/z: 312.1343
Precursor type: [M+H]+
Precursor intensity: 22706108
m/z	relative intensity	assigned
266.1292	1	C16H16N3O+
267.1127	2	C16H15N2O2+
270.0878	4	C14H12N3O3+
284.1395	3	C16H18N3O2+
294.1242	3	C17H16N3O2+
312.1342	999	C17H18N3O3+
