Mass spectrum: Halofenozide; LC-ESI-QFT; MS2; CE: 90; R=17500; [M-H]-
Name: Halofenozide
Name: N'-benzoyl-N'-tert-butyl-4-chlorobenzohydrazide
Formula: C18H19ClN2O2
Exact mass: 330.1135
SMILES: CC(C)(C)N(NC(=O)C1=CC=C(Cl)C=C1)C(=O)C1=CC=CC=C1
InChI: InChI=1S/C18H19ClN2O2/c1-18(2,3)21(17(23)14-7-5-4-6-8-14)20-16(22)13-9-11-15(19)12-10-13/h4-12H,1-3H3,(H,20,22)
Instrument: Q Exactive Orbitrap (Thermo Scientific)
Instrument type: LC-ESI-QFT
Ms type: MS2
Ion mode: NEGATIVE
Ionization: ESI
Fragmentation mode: HCD
Collision energy: 90
Resolution: 17500
Column name: Acquity BEH C18 1.7um, 2.1x150mm (Waters)
Retention time: 17.298 min
Base peak: 329.1061
Precursor m/z: 329.1062
Precursor type: [M-H]-
Precursor intensity: 105218875.1699
m/z	relative intensity	assigned
93.0346	76	C6H5O-
108.0218	23	C6H4O2-
111.0007	233	C6H4Cl-
117.0457	11	C7H5N2-
121.0296	999	C7H5O2-
154.9908	12	C7H4ClO2-
