Mass spectrum: CI-959; LC-ESI-QFT; MS2; CE: 15; R=17500; [M+H]+
Name: CI-959
Name: CI-959 free acid
Name: 5-methoxy-3-propan-2-yloxy-N-(2H-tetrazol-5-yl)-1-benzothiophene-2-carboxamide
Formula: C14H15N5O3S
Exact mass: 333.0896
SMILES: COC1=CC2=C(SC(C(=O)NC3=NN=NN3)=C2OC(C)C)C=C1
InChI: InChI=1S/C14H15N5O3S/c1-7(2)22-11-9-6-8(21-3)4-5-10(9)23-12(11)13(20)15-14-16-18-19-17-14/h4-7H,1-3H3,(H2,15,16,17,18,19,20)
Instrument: Q Exactive Orbitrap (Thermo Scientific)
Instrument type: LC-ESI-QFT
Ms type: MS2
Ion mode: POSITIVE
Ionization: ESI
Fragmentation mode: HCD
Collision energy: 15
Resolution: 17500
Column name: Acquity BEH C18 1.7um, 2.1x150mm (Waters)
Retention time: 17.398 min
Base peak: 79.0211
Precursor m/z: 334.0968
Precursor type: [M+H]+
Precursor intensity: 5668280
m/z	relative intensity	assigned
86.0461	23	CH4N5+
112.0253	17	C2H2N5O+
128.0931	58	C4H10N5+
154.0723	68	C5H8N5O+
179.0162	24	C9H7O2S+
181.0317	28	C9H9O2S+
194.0267	2	C9H8NO2S+
207.0111	584	C10H7O3S+
221.0631	69	C12H13O2S+
223.0784	18	C12H15O2S+
249.058	206	C13H13O3S+
264.0438	51	C11H10N3O3S+
292.0499	999	C11H10N5O3S+
