Mass spectrum: Dimethenamid; LC-ESI-QFT; MS2; CE: 75; R=17500; [M+H]+
Name: Dimethenamid
Name: 2-chloro-N-(2,4-dimethylthiophen-3-yl)-N-(1-methoxypropan-2-yl)acetamide
Formula: C12H18ClNO2S
Exact mass: 275.0747
SMILES: COCC(C)N(C(=O)CCl)C1=C(C)SC=C1C
InChI: InChI=1S/C12H18ClNO2S/c1-8-7-17-10(3)12(8)14(11(15)5-13)9(2)6-16-4/h7,9H,5-6H2,1-4H3
Instrument: Q Exactive Orbitrap (Thermo Scientific)
Instrument type: LC-ESI-QFT
Ms type: MS2
Ion mode: POSITIVE
Ionization: ESI
Fragmentation mode: HCD
Collision energy: 75
Resolution: 17500
Column name: Acquity BEH C18 1.7um, 2.1x150mm (Waters)
Retention time: 17.366 min
Base peak: 79.0211
Precursor m/z: 276.082
Precursor type: [M+H]+
Precursor intensity: 11282647.9375
m/z	relative intensity	assigned
50.0152	2	C4H2+
51.023	3	C4H3+
53.0022	16	C3HO+
53.0386	48	C4H5+
55.0178	8	C3H3O+
55.0543	7	C4H7+
56.0495	20	C3H6N+
58.995	75	C2H3S+
65.0385	22	C5H5+
67.0542	64	C5H7+
69.0699	3	C5H9+
70.065	2	C4H8N+
70.9949	13	C3H3S+
73.0106	15	C3H5S+
73.0648	84	C4H9O+
75.0229	11	C6H3+
75.9948	10	C2H3ClN+
76.9788	136	C2H2ClO+
77.0385	16	C6H5+
78.0464	20	C6H6+
79.0179	3	C5H3O+
79.0542	43	C6H7+
80.0495	11	C5H6N+
81.0335	6	C5H5O+
81.0574	2	C5H7N+
81.0699	2	C6H9+
82.0651	13	C5H8N+
85.0106	18	C4H5S+
86.9996	27	C4H4Cl+
91.0543	206	C7H7+
92.0495	3	C6H6N+
93.0574	22	C6H7N+
93.0699	191	C7H9+
94.0413	12	C6H6O+
94.0652	72	C6H8N+
95.0492	152	C6H7O+
95.073	142	C6H9N+
96.0567	2	C6H8O+
96.0808	5	C6H10N+
97.0107	38	C5H5S+
98.0186	5	C5H6S+
99.0263	64	C5H7S+
100.0216	3	C4H6NS+
101.0421	29	C5H9S+
102.0465	4	C8H6+
103.0542	209	C8H7+
104.0495	17	C7H6N+
105.0573	32	C7H7N+
105.0699	10	C8H9+
106.0651	11	C7H8N+
107.073	8	C7H9N+
107.0855	11	C8H11+
108.0808	57	C7H10N+
109.0106	7	C6H5S+
110.0185	10	C6H6S+
110.0604	3	C6H8NO+
111.0263	999	C6H7S+
112.0216	12	C5H6NS+
112.0341	85	C6H8S+
113.0295	23	C5H7NS+
113.0419	70	C6H9S+
114.0371	12	C5H8NS+
115.0542	9	C9H7+
116.0262	3	C5H7ClN+
117.0574	23	C8H7N+
117.0699	43	C9H9+
118.0651	33	C8H8N+
118.0777	10	C9H10+
119.0731	24	C8H9N+
120.0808	95	C8H10N+
121.0648	182	C8H9O+
122.0963	21	C8H12N+
123.0139	5	C6H5NS+
123.0262	23	C7H7S+
124.0216	19	C6H6NS+
124.0342	47	C7H8S+
125.0295	25	C6H7NS+
125.042	112	C7H9S+
126.0372	637	C6H8NS+
127.0212	26	C6H7OS+
127.045	58	C6H9NS+
127.0576	26	C7H11S+
128.029	7	C6H8OS+
128.0528	133	C6H10NS+
129.0102	76	C6H6ClO+
129.0369	24	C6H9OS+
132.0807	8	C9H10N+
133.0886	15	C9H11N+
134.0964	69	C9H12N+
135.0262	15	C8H7S+
135.1042	128	C9H13N+
136.0216	35	C7H6NS+
136.0342	13	C8H8S+
137.0294	100	C7H7NS+
138.0373	269	C7H8NS+
138.9946	250	C7H4ClO+
139.0056	177	C9HNO+
140.0528	31	C7H10NS+
141.0735	4	C8H13S+
142.0082	5	C6H6O2S+
144.9873	3	C6H6ClS+
147.0033	6	C6H8ClS+
149.042	17	C9H9S+
150.0372	121	C8H8NS+
151.0455	29	C8H9NS+
151.0576	91	C9H11S+
152.0166	113	C7H6NOS+
152.0529	283	C8H10NS+
153.0243	124	C7H7NOS+
153.0607	79	C8H11NS+
154.032	34	C7H8NOS+
154.0685	16	C8H12NS+
158.0368	7	C7H9ClNO+
159.0028	6	C7H8ClS+
166.0321	39	C8H8NOS+
166.0685	39	C9H12NS+
167.0763	35	C9H13NS+
168.0477	20	C8H10NOS+
168.0842	400	C9H14NS+
171.998	5	C7H7ClNS+
174.0137	5	C7H9ClNS+
183.9981	2	C8H7ClNS+
186.0139	38	C8H9ClNS+
202.0092	5	C8H9ClNOS+
203.0167	13	C8H10ClNOS+
244.0557	24	C11H15ClNOS+
