Mass spectrum: Norflurazon; LC-ESI-QFT; MS2; CE: 15; R=17500; [M-H]-
Name: Norflurazon
Name: 4-chloro-5-(methylamino)-2-[3-(trifluoromethyl)phenyl]pyridazin-3-one
Formula: C12H9ClF3N3O
Exact mass: 303.0386
SMILES: CNC1=C(Cl)C(=O)N(N=C1)C1=CC=CC(=C1)C(F)(F)F
InChI: InChI=1S/C12H9ClF3N3O/c1-17-9-6-18-19(11(20)10(9)13)8-4-2-3-7(5-8)12(14,15)16/h2-6,17H,1H3
Instrument: Q Exactive Orbitrap (Thermo Scientific)
Instrument type: LC-ESI-QFT
Ms type: MS2
Ion mode: NEGATIVE
Ionization: ESI
Fragmentation mode: HCD
Collision energy: 15
Resolution: 17500
Column name: Acquity BEH C18 1.7um, 2.1x150mm (Waters)
Retention time: 16.609 min
Base peak: 179.0714
Precursor m/z: 302.0313
Precursor type: [M-H]-
Precursor intensity: 8979368.738281
m/z	relative intensity	assigned
74.9644	1	C2ClO-
79.0302	6	C4H3N2-
87.9959	7	C3H3ClN-
115.0069	10	C4H4ClN2-
185.0331	8	C8H4F3N2-
217.9989	109	C9H4ClF3N-
224.0205	1	C10H3F3N2O-
252.0385	2	C11H5F3N3O-
275.0207	8	C11H7ClF3N2O-
302.0313	999	C12H8ClF3N3O-
