Mass spectrum: 1,2-Dimethyl-5-nitroimidazole; LC-ESI-QFT; MS2; CE: 30; R=17500; [M+H]+
Name: 1,2-Dimethyl-5-nitroimidazole
Name: Dimetridazole
Formula: C5H7N3O2
Exact mass: 141.0538
SMILES: CN1C(C)=NC=C1[N+]([O-])=O
InChI: InChI=1S/C5H7N3O2/c1-4-6-3-5(7(4)2)8(9)10/h3H,1-2H3
Instrument: Q Exactive Orbitrap (Thermo Scientific)
Instrument type: LC-ESI-QFT
Ms type: MS2
Ion mode: POSITIVE
Ionization: ESI
Fragmentation mode: HCD
Collision energy: 30
Resolution: 17500
Column name: Acquity BEH C18 1.7um, 2.1x150mm (Waters)
Retention time: 7.630 min
Base peak: 79.0211
Precursor m/z: 142.0611
Precursor type: [M+H]+
Precursor intensity: 4242971.71875
m/z	relative intensity	assigned
54.0338	3	C3H4N+
55.0416	12	C3H5N+
56.0495	277	C3H6N+
72.0681	2	C3H8N2+
81.0447	14	C4H5N2+
83.0603	1	C4H7N2+
95.0604	35	C5H7N2+
96.0682	56	C5H8N2+
97.0396	1	C4H5N2O+
112.0631	163	C5H8N2O+
142.0611	999	C5H8N3O2+
