Mass spectrum: CP-457920; LC-ESI-QFT; MS2; CE: 90; R=17500; [M+H]+
Name: CP-457920
Name: 1,5-Naphthyridine-3-carboxamide, 6-ethoxy-1,4-dihydro-4-oxo-N-(phenylmethyl)-
Name: N-benzyl-6-ethoxy-4-oxo-1H-1,5-naphthyridine-3-carboxamide
Formula: C18H17N3O3
Exact mass: 323.1270
SMILES: CCOC1=NC2=C(NC=C(C(=O)NCC3=CC=CC=C3)C2=O)C=C1
InChI: InChI=1S/C18H17N3O3/c1-2-24-15-9-8-14-16(21-15)17(22)13(11-19-14)18(23)20-10-12-6-4-3-5-7-12/h3-9,11H,2,10H2,1H3,(H,19,22)(H,20,23)
Instrument: Q Exactive Orbitrap (Thermo Scientific)
Instrument type: LC-ESI-QFT
Ms type: MS2
Ion mode: POSITIVE
Ionization: ESI
Fragmentation mode: HCD
Collision energy: 90
Resolution: 17500
Column name: Acquity BEH C18 1.7um, 2.1x150mm (Waters)
Retention time: 16.966 min
Base peak: 79.0212
Precursor m/z: 324.1343
Precursor type: [M+H]+
Precursor intensity: 13361580.375
m/z	relative intensity	assigned
52.0181	4	C3H2N+
53.0022	5	C3HO+
54.0339	6	C3H4N+
55.0179	1	C3H3O+
63.0229	7	C5H3+
64.0182	12	C4H2N+
65.0386	169	C5H5+
66.0338	3	C4H4N+
78.0338	74	C5H4N+
80.0131	6	C4H2NO+
81.0446	1	C4H5N2+
88.0182	26	C6H2N+
89.0382	1	C7H5+
90.0339	4	C6H4N+
91.0542	999	C7H7+
93.0447	20	C5H5N2+
103.0291	3	C6H3N2+
105.0447	127	C6H5N2+
106.0288	23	C6H4NO+
112.0394	2	C5H6NO2+
115.0291	33	C7H3N2+
117.0447	8	C7H5N2+
120.0316	4	C6H4N2O+
121.0396	7	C6H5N2O+
133.0396	103	C7H5N2O+
143.024	316	C8H3N2O+
145.0396	81	C8H5N2O+
147.0549	3	C8H7N2O+
151.05	1	C7H7N2O2+
157.0397	2	C9H5N2O+
161.0345	685	C8H5N2O2+
163.0386	1	C9H7O3+
163.0502	9	C8H7N2O2+
171.0189	24	C9H3N2O2+
175.0502	25	C9H7N2O2+
177.0657	8	C9H9N2O2+
179.0451	30	C8H7N2O3+
189.0294	28	C9H5N2O3+
193.0613	1	C9H9N2O3+
207.04	170	C12H5N3O+
221.0554	5	C13H7N3O+
