Mass spectrum: Triamcinolone acetonide; LC-ESI-QFT; MS2; CE: 45; R=17500; [M+H]+
Name: Triamcinolone acetonide
Name: (1S,2S,4R,8S,9S,11S,12R,13S)-12-fluoro-11-hydroxy-8-(2-hydroxyacetyl)-6,6,9,13-tetramethyl-5,7-dioxapentacyclo[10.8.0.02,9.04,8.013,18]icosa-14,17-dien-16-one
Formula: C24H31FO6
Exact mass: 434.2105
SMILES: CC1(C)O[C@@H]2C[C@H]3[C@@H]4CCC5=CC(=O)C=C[C@]5(C)[C@@]4(F)[C@@H](O)C[C@]3(C)[C@@]2(O1)C(=O)CO
InChI: InChI=1S/C24H31FO6/c1-20(2)30-19-10-16-15-6-5-13-9-14(27)7-8-21(13,3)23(15,25)17(28)11-22(16,4)24(19,31-20)18(29)12-26/h7-9,15-17,19,26,28H,5-6,10-12H2,1-4H3/t15-,16-,17-,19+,21-,22-,23-,24+/m0/s1
Instrument: Q Exactive Orbitrap (Thermo Scientific)
Instrument type: LC-ESI-QFT
Ms type: MS2
Ion mode: POSITIVE
Ionization: ESI
Fragmentation mode: HCD
Collision energy: 45
Resolution: 17500
Column name: Acquity BEH C18 1.7um, 2.1x150mm (Waters)
Retention time: 16.761 min
Base peak: 79.0211
Precursor m/z: 435.2177
Precursor type: [M+H]+
Precursor intensity: 4362222.5
m/z	relative intensity	assigned
55.0179	143	C3H3O+
59.0492	250	C3H7O+
67.0542	54	C5H7+
69.0335	101	C4H5O+
69.0699	23	C5H9+
71.0491	23	C4H7O+
79.0542	59	C6H7+
81.0335	25	C5H5O+
81.0699	126	C6H9+
83.0491	32	C5H7O+
87.0441	21	C4H7O2+
91.0542	57	C7H7+
93.07	311	C7H9+
95.0492	108	C6H7O+
95.0857	193	C7H11+
97.0283	54	C5H5O2+
97.0648	72	C6H9O+
99.0439	45	C5H7O2+
101.0233	44	C4H5O3+
105.07	295	C8H9+
107.0491	23	C7H7O+
107.0854	92	C8H11+
109.0649	180	C7H9O+
111.0443	48	C6H7O2+
111.0803	29	C7H11O+
115.0391	29	C5H7O3+
115.0542	23	C9H7+
117.0698	41	C9H9+
119.0489	21	C8H7O+
119.0857	73	C9H11+
121.0649	565	C8H9O+
123.0441	41	C7H7O2+
123.0805	70	C8H11O+
125.0598	77	C7H9O2+
128.062	24	C10H8+
129.0696	33	C10H9+
131.0857	108	C10H11+
133.0648	212	C9H9O+
135.0805	217	C9H11O+
137.0596	79	C8H9O2+
139.0754	67	C8H11O2+
141.0545	47	C7H9O3+
143.0856	127	C11H11+
144.0573	24	C10H8O+
145.0648	173	C10H9O+
145.101	48	C11H13+
147.0806	927	C10H11O+
151.0755	76	C9H11O2+
153.0549	23	C8H9O3+
155.0854	91	C12H11+
157.1013	37	C12H13+
158.0726	69	C11H10O+
159.0806	576	C11H11O+
161.0599	61	C10H9O2+
161.0962	259	C11H13O+
167.0858	42	C13H11+
169.0649	61	C12H9O+
169.1016	47	C13H13+
171.0806	712	C12H11O+
173.0963	397	C12H13O+
179.086	39	C14H11+
181.1014	45	C14H13+
183.0804	84	C13H11O+
185.0961	194	C13H13O+
187.0755	251	C12H11O2+
187.112	52	C13H15O+
189.0705	33	C12H10FO+
191.0855	30	C15H11+
192.0932	48	C15H12+
193.1014	73	C15H13+
195.0806	63	C14H11O+
195.1167	80	C15H15+
196.0885	87	C14H12O+
197.0962	253	C14H13O+
197.1327	132	C15H17+
198.1039	27	C14H14O+
199.1121	102	C14H15O+
205.1012	81	C16H13+
206.1087	34	C16H14+
207.1171	150	C16H15+
208.0884	115	C15H12O+
209.0963	234	C15H13O+
210.1041	109	C15H14O+
211.1119	212	C15H15O+
212.1197	61	C15H16O+
213.0909	59	C14H13O2+
213.1275	999	C15H17O+
215.0856	23	C17H11+
216.0931	23	C17H12+
218.1095	40	C17H14+
219.0801	27	C16H11O+
219.1168	23	C17H15+
220.0882	35	C16H12O+
221.0964	109	C16H13O+
221.1323	61	C17H17+
222.1043	120	C16H14O+
223.1119	410	C16H15O+
224.1199	127	C16H16O+
225.1157	37	C9H18FO5+
225.1276	512	C16H17O+
227.1066	36	C15H15O2+
227.1434	62	C16H19O+
228.0929	23	C18H12+
229.0999	23	C18H13+
230.1096	30	C15H15FO+
231.117	38	C18H15+
233.0962	85	C17H13O+
233.1322	59	C18H17+
234.1044	132	C17H14O+
235.112	296	C17H15O+
235.1483	74	C18H19+
236.1207	39	C14H17FO2+
237.1276	269	C17H17O+
239.1433	135	C17H19O+
241.1224	86	C16H17O2+
243.1174	30	C19H15+
245.0966	61	C18H13O+
245.1327	65	C19H17+
246.1042	72	C18H14O+
247.1118	74	C18H15O+
248.12	169	C18H16O+
249.1275	160	C18H17O+
251.1075	28	C14H16FO3+
251.143	179	C18H19O+
253.1228	116	C17H17O2+
253.1589	92	C18H21O+
257.133	37	C20H17+
258.1042	24	C19H14O+
259.1122	46	C19H15O+
260.1197	146	C19H16O+
262.1353	57	C19H18O+
263.1434	331	C19H19O+
264.1132	21	C18H16O2+
265.1583	73	C19H21O+
270.1026	28	C20H14O+
277.122	60	C19H17O2+
278.1298	37	C19H18O2+
279.1379	74	C19H19O2+
280.1461	37	C19H20O2+
281.1536	68	C19H21O2+
288.1147	32	C20H16O2+
291.1387	32	C17H20FO3+
293.1539	65	C20H21O2+
303.1392	22	C18H20FO3+
311.1641	29	C20H23O3+
321.1485	47	C21H21O3+
