Mass spectrum: Oxycarboxin; LC-ESI-QFT; MS2; CE: 45; R=17500; [M+H]+
Name: Oxycarboxin
Name: 6-methyl-4,4-dioxo-N-phenyl-2,3-dihydro-1,4-oxathiine-5-carboxamide
Formula: C12H13NO4S
Exact mass: 267.0565
SMILES: CC1=C(C(=O)NC2=CC=CC=C2)S(=O)(=O)CCO1
InChI: InChI=1S/C12H13NO4S/c1-9-11(18(15,16)8-7-17-9)12(14)13-10-5-3-2-4-6-10/h2-6H,7-8H2,1H3,(H,13,14)
Instrument: Q Exactive Orbitrap (Thermo Scientific)
Instrument type: LC-ESI-QFT
Ms type: MS2
Ion mode: POSITIVE
Ionization: ESI
Fragmentation mode: HCD
Collision energy: 45
Resolution: 17500
Column name: Acquity BEH C18 1.7um, 2.1x150mm (Waters)
Retention time: 13.629 min
Base peak: 79.0211
Precursor m/z: 268.0638
Precursor type: [M+H]+
Precursor intensity: 4240936.03125
m/z	relative intensity	assigned
61.0107	5	C2H5S+
62.0185	35	C2H6S+
67.0179	4	C4H3O+
68.997	14	C3HO2+
83.0128	24	C4H3O2+
119.0603	7	CH13NO3S+
120.0445	19	C7H6NO+
132.9954	13	C4H5O3S+
146.9747	29	C4H3O4S+
175.0061	999	C6H7O4S+
179.0008	10	C11HNO2+
182.9958	8	C10HNO3+
189.0893	4	C12H13O2+
193.0167	261	C12H3NO2+
207.0321	37	C10H9NO2S+
