Mass spectrum: Exifone; LC-ESI-QFT; MS2; CE: 75; R=17500; [M-H]-
Name: Exifone
Name: (2,3,4-trihydroxyphenyl)-(3,4,5-trihydroxyphenyl)methanone
Formula: C13H10O7
Exact mass: 278.0427
SMILES: OC1=CC=C(C(=O)C2=CC(O)=C(O)C(O)=C2)C(O)=C1O
InChI: InChI=1S/C13H10O7/c14-7-2-1-6(11(18)13(7)20)10(17)5-3-8(15)12(19)9(16)4-5/h1-4,14-16,18-20H
Instrument: Q Exactive Orbitrap (Thermo Scientific)
Instrument type: LC-ESI-QFT
Ms type: MS2
Ion mode: NEGATIVE
Ionization: ESI
Fragmentation mode: HCD
Collision energy: 75
Resolution: 17500
Column name: Acquity BEH C18 1.7um, 2.1x150mm (Waters)
Retention time: 11.414 min
Base peak: 169.0441
Precursor m/z: 277.0354
Precursor type: [M-H]-
Precursor intensity: 1262718.300781
m/z	relative intensity	assigned
53.0034	7	C3HO-
67.0189	33	C4H3O-
68.998	7	C3HO2-
69.0346	118	C4H5O-
79.019	10	C5H3O-
81.0346	26	C5H5O-
95.0138	116	C5H3O2-
97.0295	103	C5H5O2-
107.0139	126	C6H3O2-
123.0088	229	C6H3O3-
124.0166	25	C6H4O3-
125.0244	999	C6H5O3-
151.0035	21	C7H3O4-
