Mass spectrum: Buturon; LC-ESI-QFT; MS2; CE: 60; R=17500; [M+H]+
Name: Buturon
Name: 1-but-3-yn-2-yl-3-(4-chlorophenyl)-1-methylurea
Formula: C12H13ClN2O
Exact mass: 236.0716
SMILES: CC(C#C)N(C)C(=O)NC1=CC=C(Cl)C=C1
InChI: InChI=1S/C12H13ClN2O/c1-4-9(2)15(3)12(16)14-11-7-5-10(13)6-8-11/h1,5-9H,2-3H3,(H,14,16)
Instrument: Q Exactive Orbitrap (Thermo Scientific)
Instrument type: LC-ESI-QFT
Ms type: MS2
Ion mode: POSITIVE
Ionization: ESI
Fragmentation mode: HCD
Collision energy: 60
Resolution: 17500
Column name: Acquity BEH C18 1.7um, 2.1x150mm (Waters)
Retention time: 16.576 min
Base peak: 79.0212
Precursor m/z: 237.0789
Precursor type: [M+H]+
Precursor intensity: 1847665.25
m/z	relative intensity	assigned
51.0229	12	C4H3+
53.0386	520	C4H5+
55.0542	142	C4H7+
56.0495	82	C3H6N+
57.07	13	C4H9+
58.0287	63	C2H4NO+
58.0651	200	C3H8N+
67.0415	8	C4H5N+
68.0494	248	C4H6N+
69.0334	129	C4H5O+
69.0572	16	C4H7N+
70.065	18	C4H8N+
72.0806	20	C4H10N+
82.0652	24	C5H8N+
84.0808	999	C5H10N+
90.0338	11	C6H4N+
93.0573	181	C6H7N+
98.9996	53	C5H4Cl+
118.0651	89	C8H8N+
126.0105	958	C6H5ClN+
127.0184	67	C6H6ClN+
128.0261	289	C6H7ClN+
130.0652	67	C9H8N+
139.0058	14	C6H4ClN2+
143.0731	24	C10H9N+
144.0808	65	C10H10N+
145.0887	25	C10H11N+
152.0262	38	C8H7ClN+
152.9976	83	C7H4ClNO+
153.0339	26	C8H8ClN+
154.0053	95	C7H5ClNO+
159.0917	119	C10H11N2+
164.0254	10	C12H4O+
167.037	179	C8H8ClN2+
178.0417	39	C10H9ClN+
185.0477	24	C8H10ClN2O+
193.0292	17	C10H8ClNO+
193.053	48	C10H10ClN2+
194.0613	16	C10H11ClN2+
207.0321	94	C10H8ClN2O+
222.0555	71	C11H11ClN2O+
237.0789	306	C12H14ClN2O+
