Mass spectrum: 4-Pentylaniline; LC-ESI-QFT; MS2; CE: 15; R=17500; [M+H]+
Name: 4-Pentylaniline
Formula: C11H17N
Exact mass: 163.1361
SMILES: CCCCCC1=CC=C(N)C=C1
InChI: InChI=1S/C11H17N/c1-2-3-4-5-10-6-8-11(12)9-7-10/h6-9H,2-5,12H2,1H3
Instrument: Q Exactive Orbitrap (Thermo Scientific)
Instrument type: LC-ESI-QFT
Ms type: MS2
Ion mode: POSITIVE
Ionization: ESI
Fragmentation mode: HCD
Collision energy: 15
Resolution: 17500
Column name: Acquity BEH C18 1.7um, 2.1x150mm (Waters)
Retention time: 15.630 min
Base peak: 79.0211
Precursor m/z: 164.1434
Precursor type: [M+H]+
Precursor intensity: 22701289.625
m/z	relative intensity	assigned
71.0855	1	C5H11+
91.054	3	C7H7+
94.0651	41	C6H8N+
107.0726	2	C7H9N+
164.1434	999	C11H18N+
