Mass spectrum: Kaempferol; LC-ESI-QFT; MS2; CE: 90; R=17500; [M-H]-
Name: Kaempferol
Name: 3,5,7-trihydroxy-2-(4-hydroxyphenyl)chromen-4-one
Formula: C15H10O6
Exact mass: 286.0477
SMILES: OC1=CC=C(C=C1)C1=C(O)C(=O)C2=C(O1)C=C(O)C=C2O
InChI: InChI=1S/C15H10O6/c16-8-3-1-7(2-4-8)15-14(20)13(19)12-10(18)5-9(17)6-11(12)21-15/h1-6,16-18,20H
Instrument: Q Exactive Orbitrap (Thermo Scientific)
Instrument type: LC-ESI-QFT
Ms type: MS2
Ion mode: NEGATIVE
Ionization: ESI
Fragmentation mode: HCD
Collision energy: 90
Resolution: 17500
Column name: Acquity BEH C18 1.7um, 2.1x150mm (Waters)
Retention time: 16.377 min
Base peak: 112.9856
Precursor m/z: 285.0405
Precursor type: [M-H]-
Precursor intensity: 5878606.925781
m/z	relative intensity	assigned
55.0189	18	C3H3O-
63.024	414	C5H3-
65.0033	581	C4HO-
65.0397	80	C5H5-
67.019	149	C4H3O-
68.9982	74	C3HO2-
75.024	12	C6H3-
79.019	48	C5H3O-
80.0268	55	C5H4O-
81.0346	14	C5H5O-
83.0139	133	C4H3O2-
89.0397	80	C7H5-
91.019	134	C6H3O-
91.0554	11	C7H7-
93.0346	934	C6H5O-
95.0139	130	C5H3O2-
95.0503	91	C6H7O-
107.0139	125	C6H3O2-
108.0217	244	C6H4O2-
109.0295	99	C6H5O2-
115.0552	82	C9H7-
117.0346	999	C8H5O-
119.014	31	C7H3O2-
119.0503	102	C8H7O-
121.0294	79	C7H5O2-
123.0086	10	C6H3O3-
123.0451	93	C7H7O2-
124.0165	13	C6H4O3-
129.0346	51	C9H5O-
130.0424	122	C9H6O-
131.0502	100	C9H7O-
132.0217	134	C8H4O2-
133.0295	90	C8H5O2-
133.066	17	C9H9O-
135.0088	48	C7H3O3-
135.0453	33	C8H7O2-
137.0247	20	C7H5O3-
139.0556	19	C11H7-
141.0346	94	C10H5O-
141.0709	11	C11H9-
143.0503	251	C10H7O-
145.0295	263	C9H5O2-
145.0659	30	C10H9O-
147.0454	23	C9H7O2-
154.0423	109	C11H6O-
155.0503	121	C11H7O-
156.0217	45	C10H4O2-
156.0579	65	C11H8O-
157.0295	107	C10H5O2-
157.0658	43	C11H9O-
158.0373	171	C10H6O2-
159.0451	218	C10H7O2-
161.0245	177	C9H5O3-
163.0038	61	C8H3O4-
167.0501	104	C12H7O-
169.0294	37	C11H5O2-
171.0455	65	C11H7O2-
173.0243	40	C10H5O3-
173.0606	17	C11H9O2-
182.0374	216	C12H6O2-
183.0452	235	C12H7O2-
184.053	41	C12H8O2-
185.0245	39	C11H5O3-
185.0606	20	C12H9O2-
187.0401	78	C11H7O3-
190.9987	25	C9H3O5-
195.0451	31	C13H7O2-
197.0245	17	C12H5O3-
199.0403	29	C12H7O3-
201.0554	11	C12H9O3-
210.0324	62	C13H6O3-
211.0401	151	C13H7O3-
213.0193	38	C12H5O4-
223.0406	18	C14H7O3-
226.0271	13	C13H6O4-
227.035	199	C13H7O4-
238.0273	14	C14H6O4-
239.0346	49	C14H7O4-
240.0422	12	C14H8O4-
255.0297	65	C14H7O5-
267.0302	37	C15H7O5-
