Mass spectrum: Milrinone; LC-ESI-QFT; MS2; CE: 30; R=17500; [M-H]-
Name: Milrinone
Name: 6-methyl-2-oxo-5-pyridin-4-yl-1H-pyridine-3-carbonitrile
Formula: C12H9N3O
Exact mass: 211.0746
SMILES: CC1=C(C=C(C#N)C(=O)N1)C1=CC=NC=C1
InChI: InChI=1S/C12H9N3O/c1-8-11(9-2-4-14-5-3-9)6-10(7-13)12(16)15-8/h2-6H,1H3,(H,15,16)
Instrument: Q Exactive Orbitrap (Thermo Scientific)
Instrument type: LC-ESI-QFT
Ms type: MS2
Ion mode: NEGATIVE
Ionization: ESI
Fragmentation mode: HCD
Collision energy: 30
Resolution: 17500
Column name: Acquity BEH C18 1.7um, 2.1x150mm (Waters)
Retention time: 3.062 min
Base peak: 210.0672
Precursor m/z: 210.0673
Precursor type: [M-H]-
Precursor intensity: 3211337.013916
m/z	relative intensity	assigned
65.9985	1	C3NO-
143.0616	5	C9H7N2-
166.0411	2	C10H4N3-
167.0615	7	C11H7N2-
168.0566	1	C10H6N3-
183.0566	1	C11H7N2O-
194.0361	1	C11H4N3O-
210.0673	999	C12H8N3O-
