Mass spectrum: Propylparaben; LC-ESI-QFT; MS2; CE: 45; R=17500; [M-H]-
Name: Propylparaben
Name: propyl 4-hydroxybenzoate
Formula: C10H12O3
Exact mass: 180.0786
SMILES: CCCOC(=O)C1=CC=C(O)C=C1
InChI: InChI=1S/C10H12O3/c1-2-7-13-10(12)8-3-5-9(11)6-4-8/h3-6,11H,2,7H2,1H3
Instrument: Q Exactive Orbitrap (Thermo Scientific)
Instrument type: LC-ESI-QFT
Ms type: MS2
Ion mode: NEGATIVE
Ionization: ESI
Fragmentation mode: HCD
Collision energy: 45
Resolution: 17500
Column name: Acquity BEH C18 1.7um, 2.1x150mm (Waters)
Retention time: 16.598 min
Base peak: 179.0714
Precursor m/z: 179.0714
Precursor type: [M-H]-
Precursor intensity: 41569496.77344
m/z	relative intensity	assigned
57.0345	19	C3H5O-
59.0503	3	C3H7O-
67.019	2	C4H3O-
68.9982	6	C3HO2-
69.0346	5	C4H5O-
70.0061	2	C3H2O2-
71.0139	5	C3H3O2-
72.9931	3	C2HO3-
79.019	3	C5H3O-
79.9903	3	C4O2-
80.9983	2	C4HO2-
82.0061	19	C4H2O2-
86.0012	1	C3H2O3-
91.019	27	C6H3O-
92.0267	101	C6H4O-
93.0346	902	C6H5O-
95.0139	285	C5H3O2-
97.0296	2	C5H5O2-
98.0008	1	C4H2O3-
106.0061	14	C6H2O2-
107.0138	2	C6H3O2-
108.0217	264	C6H4O2-
119.0138	26	C7H3O2-
121.0295	21	C7H5O2-
123.0088	35	C6H3O3-
135.0815	3	C9H11O-
136.0166	999	C7H4O3-
137.0244	704	C7H5O3-
151.0766	7	C9H11O2-
179.0714	751	C10H11O3-
