Mass spectrum: 4-Acetylaminophenylacetic acid; LC-ESI-QFT; MS2; CE: 15; R=17500; [M+H]+
Name: 4-Acetylaminophenylacetic acid
Name: Actarit
Name: 2-(4-acetamidophenyl)acetic acid
Formula: C10H11NO3
Exact mass: 193.0739
SMILES: CC(=O)NC1=CC=C(CC(O)=O)C=C1
InChI: InChI=1S/C10H11NO3/c1-7(12)11-9-4-2-8(3-5-9)6-10(13)14/h2-5H,6H2,1H3,(H,11,12)(H,13,14)
Instrument: Q Exactive Orbitrap (Thermo Scientific)
Instrument type: LC-ESI-QFT
Ms type: MS2
Ion mode: POSITIVE
Ionization: ESI
Fragmentation mode: HCD
Collision energy: 15
Resolution: 17500
Column name: Acquity BEH C18 1.7um, 2.1x150mm (Waters)
Retention time: 11.791 min
Base peak: 79.0212
Precursor m/z: 194.0812
Precursor type: [M+H]+
Precursor intensity: 9505829.375
m/z	relative intensity	assigned
67.0178	1	C4H3O+
106.0652	288	C7H8N+
107.0492	12	C7H7O+
148.0757	999	C9H10NO+
152.0706	27	C8H10NO2+
166.0864	3	C9H12NO2+
176.0707	1	C10H10NO2+
194.0813	808	C10H12NO3+
