Mass spectrum: Epoxiconazole; LC-ESI-QFT; MS2; CE: 60; R=17500; [M+H]+
Name: Epoxiconazole
Name: 1-[[3-(2-chlorophenyl)-2-(4-fluorophenyl)oxiran-2-yl]methyl]-1,2,4-triazole
Formula: C17H13ClFN3O
Exact mass: 329.0731
SMILES: FC1=CC=C(C=C1)C1(CN2C=NC=N2)OC1C1=C(Cl)C=CC=C1
InChI: InChI=1S/C17H13ClFN3O/c18-15-4-2-1-3-14(15)16-17(23-16,9-22-11-20-10-21-22)12-5-7-13(19)8-6-12/h1-8,10-11,16H,9H2
Instrument: Q Exactive Orbitrap (Thermo Scientific)
Instrument type: LC-ESI-QFT
Ms type: MS2
Ion mode: POSITIVE
Ionization: ESI
Fragmentation mode: HCD
Collision energy: 60
Resolution: 17500
Column name: Acquity BEH C18 1.7um, 2.1x150mm (Waters)
Retention time: 18.034 min
Base peak: 79.0212
Precursor m/z: 330.0804
Precursor type: [M+H]+
Precursor intensity: 16470200.375
m/z	relative intensity	assigned
51.023	1	C4H3+
53.0022	1	C3HO+
53.0386	4	C4H5+
55.0179	1	C3H3O+
70.0399	138	C2H4N3+
71.0291	3	C4H4F+
75.0228	18	CH2FN3+
91.0542	49	C7H7+
95.0288	2	C6H4F+
95.0491	14	C6H7O+
101.0385	17	C8H5+
105.0333	1	C2H4FN3O+
105.0447	6	C6H5N2+
109.0447	5	C7H6F+
111.044	1	C3H10ClNO+
113.0152	23	C6H6Cl+
113.0396	21	C6H6FO+
118.0415	1	C8H6O+
119.0492	40	C8H7O+
121.0447	999	C8H6F+
123.0239	218	C7H4FO+
123.0348	46	C6H4FN2+
129.0446	169	C8H5N2+
130.0415	1	C9H6O+
137.0152	2	C8H6Cl+
138.9944	14	C2H3ClFN3O+
141.01	31	C2H5ClFN3O+
183.0604	1	C13H8F+
196.0682	3	C14H9F+
197.0763	1	C14H10F+
198.0838	1	C14H11F+
