Mass spectrum: Methoxyfenozide; LC-ESI-QFT; MS2; CE: 30; R=17500; [M+H]+
Name: Methoxyfenozide
Name: N'-tert-butyl-N'-(3,5-dimethylbenzoyl)-3-methoxy-2-methylbenzohydrazide
Formula: C22H28N2O3
Exact mass: 368.2100
SMILES: COC1=CC=CC(C(=O)NN(C(=O)C2=CC(C)=CC(C)=C2)C(C)(C)C)=C1C
InChI: InChI=1S/C22H28N2O3/c1-14-11-15(2)13-17(12-14)21(26)24(22(4,5)6)23-20(25)18-9-8-10-19(27-7)16(18)3/h8-13H,1-7H3,(H,23,25)
Instrument: Q Exactive Orbitrap (Thermo Scientific)
Instrument type: LC-ESI-QFT
Ms type: MS2
Ion mode: POSITIVE
Ionization: ESI
Fragmentation mode: HCD
Collision energy: 30
Resolution: 17500
Column name: Acquity BEH C18 1.7um, 2.1x150mm (Waters)
Retention time: 17.500 min
Base peak: 79.0211
Precursor m/z: 369.2173
Precursor type: [M+H]+
Precursor intensity: 8728506.09375
m/z	relative intensity	assigned
72.0807	22	C4H10N+
133.0649	225	C9H9O+
149.0599	999	C9H9O2+
309.099	20	C21H13N2O+
