Mass spectrum: Glipizide; LC-ESI-QFT; MS2; CE: 30; R=17500; [M-H]-
Name: Glipizide
Name: N-[2-[4-(cyclohexylcarbamoylsulfamoyl)phenyl]ethyl]-5-methylpyrazine-2-carboxamide
Formula: C21H27N5O4S
Exact mass: 445.1784
SMILES: CC1=NC=C(N=C1)C(=O)NCCC1=CC=C(C=C1)S(=O)(=O)NC(=O)NC1CCCCC1
InChI: InChI=1S/C21H27N5O4S/c1-15-13-24-19(14-23-15)20(27)22-12-11-16-7-9-18(10-8-16)31(29,30)26-21(28)25-17-5-3-2-4-6-17/h7-10,13-14,17H,2-6,11-12H2,1H3,(H,22,27)(H2,25,26,28)
Instrument: Q Exactive Orbitrap (Thermo Scientific)
Instrument type: LC-ESI-QFT
Ms type: MS2
Ion mode: NEGATIVE
Ionization: ESI
Fragmentation mode: HCD
Collision energy: 30
Resolution: 17500
Column name: Acquity BEH C18 1.7um, 2.1x150mm (Waters)
Retention time: 16.333 min
Base peak: 202.9785
Precursor m/z: 444.1711
Precursor type: [M-H]-
Precursor intensity: 6691770.251953
m/z	relative intensity	assigned
63.9624	2	O2S-
64.9702	3	HO2S-
78.9733	13	HNO2S-
79.9814	2	H2NO2S-
80.9652	1	HO3S-
93.9604	6	NO3S-
136.0516	5	C6H6N3O-
154.0094	1	C7H6O2S-
170.0281	632	C7H8NO2S-
182.0281	17	C8H8NO2S-
196.0074	23	C8H6NO3S-
225.034	6	C9H9N2O3S-
255.1253	1	C14H15N4O-
319.0869	999	C14H15N4O3S-
345.0668	2	C15H13N4O4S-
444.1711	42	C21H26N5O4S-
