Mass spectrum: Flusilazole; LC-ESI-QFT; MS2; CE: 30; R=17500; [M+H]+
Name: Flusilazole
Name: bis(4-fluorophenyl)-methyl-(1,2,4-triazol-1-ylmethyl)silane
Formula: C16H15F2N3Si
Exact mass: 315.1003
SMILES: C[Si](CN1C=NC=N1)(C1=CC=C(F)C=C1)C1=CC=C(F)C=C1
InChI: InChI=1S/C16H15F2N3Si/c1-22(12-21-11-19-10-20-21,15-6-2-13(17)3-7-15)16-8-4-14(18)5-9-16/h2-11H,12H2,1H3
Instrument: Q Exactive Orbitrap (Thermo Scientific)
Instrument type: LC-ESI-QFT
Ms type: MS2
Ion mode: POSITIVE
Ionization: ESI
Fragmentation mode: HCD
Collision energy: 30
Resolution: 17500
Column name: Acquity BEH C18 1.7um, 2.1x150mm (Waters)
Retention time: 18.340 min
Base peak: 79.0211
Precursor m/z: 316.1076
Precursor type: [M+H]+
Precursor intensity: 35481905.5
m/z	relative intensity	assigned
53.0386	3	C4H5+
70.0399	1	C2H4N3+
77.0385	3	CH4FN3+
81.0002	7	C4FN+
91.0542	41	C7H7+
95.0158	28	C5H2FN+
95.0491	11	C4H5N3+
103.0542	1	C8H7+
105.0447	4	C6H5N2+
105.0699	5	C8H9+
109.0315	6	C6H4FN+
109.0451	3	C7H6F+
115.0543	1	C9H7+
128.062	1	C10H8+
141.0003	2	C9FN+
141.0698	8	C6H8FN3+
151.0372	3	C3H7F2N3Si+
152.0621	11	C12H8+
153.0698	9	C12H9+
158.0269	4	C9H3FN2+
165.0698	259	C13H9+
166.0776	74	C13H10+
167.0855	1	C13H11+
169.0283	4	C8H7F2Si+
169.0477	36	C11H9Si+
171.0434	20	C8H9F2Si+
171.0802	1	C10H9N3+
173.0429	1	C8H7N3Si+
175.0218	2	C10H3F2N+
178.0779	2	C14H10+
179.0855	9	C14H11+
181.0758	1	C12H9N2+
181.101	5	C9H12FN3+
182.0427	1	C11H8NSi+
185.0431	1	C9H7N3Si+
185.0761	26	C13H10F+
187.0584	999	C9H9N3Si+
189.0374	3	C11H5F2N+
193.0762	3	C13H9N2+
201.074	124	C10H11N3Si+
205.0689	13	C12H9F2N+
217.0476	3	C15H9Si+
219.0438	1	C12H9F2Si+
232.0517	3	C13H10F2Si+
235.0585	3	C13H9N3Si+
237.0537	3	C15H10FSi+
243.0833	1	C15H11F2N+
245.0587	2	C14H11F2Si+
245.0794	7	C12H12FN3Si+
249.0743	1	C14H11N3Si+
263.0903	1	C15H13N3Si+
267.0643	1	C14H10FN3Si+
316.1074	439	C16H16F2N3Si+
