Mass spectrum: Ethiofencarb; LC-ESI-QFT; MS2; CE: 45; R=17500; [M+H]+
Name: Ethiofencarb
Name: [2-(ethylsulfanylmethyl)phenyl] N-methylcarbamate
Formula: C11H15NO2S
Exact mass: 225.0823
SMILES: CCSCC1=C(OC(=O)NC)C=CC=C1
InChI: InChI=1S/C11H15NO2S/c1-3-15-8-9-6-4-5-7-10(9)14-11(13)12-2/h4-7H,3,8H2,1-2H3,(H,12,13)
Instrument: Q Exactive Orbitrap (Thermo Scientific)
Instrument type: LC-ESI-QFT
Ms type: MS2
Ion mode: POSITIVE
Ionization: ESI
Fragmentation mode: HCD
Collision energy: 45
Resolution: 17500
Column name: Acquity BEH C18 1.7um, 2.1x150mm (Waters)
Retention time: 15.974 min
Base peak: 79.0212
Precursor m/z: 226.0896
Precursor type: [M+H]+
Precursor intensity: 2268802.25
m/z	relative intensity	assigned
57.0698	93	C4H9+
86.035	545	C4H6O2+
91.0544	137	C7H7+
96.0557	318	C6H8O+
100.0506	837	C5H8O2+
106.0652	110	C7H8N+
107.0492	86	C7H7O+
110.0712	113	C7H10O+
114.0662	354	C6H10O2+
120.0022	106	C7H4S+
120.0809	154	C8H10N+
128.0821	122	C7H12O2+
138.0124	823	C7H6OS+
147.9966	90	C8H4OS+
152.0284	169	C8H8OS+
156.0233	435	C7H8O2S+
166.0074	999	C8H6O2S+
180.0236	262	C9H8O2S+
