Mass spectrum: Metalaxyl; LC-ESI-QFT; MS2; CE: 75; R=17500; [M+H]+
Name: Metalaxyl
Name: methyl 2-(N-(2-methoxyacetyl)-2,6-dimethylanilino)propanoate
Formula: C15H21NO4
Exact mass: 279.1471
SMILES: COCC(=O)N(C(C)C(=O)OC)C1=C(C)C=CC=C1C
InChI: InChI=1S/C15H21NO4/c1-10-7-6-8-11(2)14(10)16(13(17)9-19-4)12(3)15(18)20-5/h6-8,12H,9H2,1-5H3
Instrument: Q Exactive Orbitrap (Thermo Scientific)
Instrument type: LC-ESI-QFT
Ms type: MS2
Ion mode: POSITIVE
Ionization: ESI
Fragmentation mode: HCD
Collision energy: 75
Resolution: 17500
Column name: Acquity BEH C18 1.7um, 2.1x150mm (Waters)
Retention time: 16.409 min
Base peak: 79.0211
Precursor m/z: 280.1543
Precursor type: [M+H]+
Precursor intensity: 34658523.9375
m/z	relative intensity	assigned
53.0386	5	C4H5+
56.0495	9	C3H6N+
59.0492	9	C3H7O+
77.0387	2	C6H5+
79.0542	55	C6H7+
91.0543	85	C7H7+
93.07	8	C7H9+
95.0492	12	C6H7O+
103.0543	29	C8H7+
104.0623	4	C8H8+
105.0699	293	C8H9+
106.0652	11	C7H8N+
106.0778	29	C8H10+
107.0856	31	C8H11+
115.0542	18	C9H7+
116.0621	4	C9H8+
117.0574	56	C8H7N+
117.07	29	C9H9+
118.0651	90	C8H8N+
118.0778	11	C9H10+
119.073	20	C8H9N+
119.0856	75	C9H11+
120.0809	46	C8H10N+
121.0887	44	C8H11N+
121.1012	7	C9H13+
122.0963	3	C8H12N+
123.0805	15	C8H11O+
128.0622	26	C10H8+
129.0699	4	C10H9+
130.0652	271	C9H8N+
131.073	114	C9H9N+
131.0854	19	C10H11+
132.0809	631	C9H10N+
133.0887	239	C9H11N+
133.1008	22	C10H13+
134.0965	586	C9H12N+
135.068	8	C8H9NO+
135.1044	10	C9H13N+
143.0732	7	C10H9N+
143.0858	10	C11H11+
144.0809	187	C10H10N+
145.0887	663	C10H11N+
146.0965	121	C10H12N+
147.1044	25	C10H13N+
148.1121	419	C10H14N+
149.0837	9	C9H11NO+
150.0914	52	C9H12NO+
158.0966	17	C11H12N+
159.1041	8	C11H13N+
160.1122	999	C11H14N+
161.0833	6	C10H11NO+
161.1201	7	C11H15N+
162.1278	219	C11H16N+
164.1071	30	C10H14NO+
192.1385	18	C12H18NO+
