Mass spectrum: 2-formylbenzenesulfonate; LC-ESI-QFT; MS2; CE: 15; R=17500; [M-H]-
Name: 2-formylbenzenesulfonate
Name: 2-formylbenzenesulfonic acid
Formula: C7H6O4S
Exact mass: 185.9987
SMILES: OS(=O)(=O)C1=CC=CC=C1C=O
InChI: InChI=1S/C7H6O4S/c8-5-6-3-1-2-4-7(6)12(9,10)11/h1-5H,(H,9,10,11)
Instrument: Q Exactive Orbitrap (Thermo Scientific)
Instrument type: LC-ESI-QFT
Ms type: MS2
Ion mode: NEGATIVE
Ionization: ESI
Fragmentation mode: HCD
Collision energy: 15
Resolution: 17500
Column name: Acquity BEH C18 1.7um, 2.1x150mm (Waters)
Retention time: 8.771 min
Base peak: 184.9913
Precursor m/z: 184.9914
Precursor type: [M-H]-
Precursor intensity: 10766258.89771
m/z	relative intensity	assigned
79.957	15	O3S-
93.0346	35	C6H5O-
121.0295	24	C7H5O2-
156.9965	168	C6H5O3S-
184.9913	999	C7H5O4S-
