Mass spectrum: GSK232420A; LC-ESI-QFT; MS2; CE: 90; R=17500; [M-H]-
Name: GSK232420A
Name: 2-[4-cyano-N-(2,2,2-trifluoroethyl)-3-(trifluoromethyl)anilino]acetamide
Formula: C12H9F6N3O
Exact mass: 325.0650
SMILES: NC(=O)CN(CC(F)(F)F)C1=CC(=C(C=C1)C#N)C(F)(F)F
InChI: InChI=1S/C12H9F6N3O/c13-11(14,15)6-21(5-10(20)22)8-2-1-7(4-19)9(3-8)12(16,17)18/h1-3H,5-6H2,(H2,20,22)
Instrument: Q Exactive Orbitrap (Thermo Scientific)
Instrument type: LC-ESI-QFT
Ms type: MS2
Ion mode: NEGATIVE
Ionization: ESI
Fragmentation mode: HCD
Collision energy: 90
Resolution: 17500
Column name: Acquity BEH C18 1.7um, 2.1x150mm (Waters)
Retention time: 15.748 min
Base peak: 284.0451
Precursor m/z: 324.0577
Precursor type: [M-H]-
Precursor intensity: 2893178.924805
m/z	relative intensity	assigned
65.0146	570	C3HN2-
65.9986	722	C3NO-
93.0094	364	C4HN2O-
100.0195	113	C7H2N-
112.0068	191	C7N2-
113.0157	694	C4H2FN2O-
122.0037	603	C9N-
130.0099	346	C8HFN-
139.0304	226	C9H3N2-
150.0161	266	C8H2F2N-
162.0165	275	C9H2F2N-
168.0067	71	C8HF3N-
169.0207	999	C10H2FN2-
170.0223	169	C8H3F3N-
175.0114	438	C9HF2N2-
176.0188	125	C9H2F2N2-
185.0333	625	C8H4F3N2-
189.0273	128	C10H3F2N2-
190.0113	75	C10H2F2NO-
195.0176	78	C9H2F3N2-
209.0332	304	C10H4F3N2-
210.0176	219	C10H3F3NO-
