Mass spectrum: 5,7-Dimethoxy-2H-chromen-2-one; LC-ESI-QFT; MS2; CE: 75; R=17500; [M+H]+
Name: 5,7-Dimethoxy-2H-chromen-2-one
Name: 5,7-dimethoxychromen-2-one
Formula: C11H10O4
Exact mass: 206.0579
SMILES: COC1=CC2=C(C=CC(=O)O2)C(OC)=C1
InChI: InChI=1S/C11H10O4/c1-13-7-5-9(14-2)8-3-4-11(12)15-10(8)6-7/h3-6H,1-2H3
Instrument: Q Exactive Orbitrap (Thermo Scientific)
Instrument type: LC-ESI-QFT
Ms type: MS2
Ion mode: POSITIVE
Ionization: ESI
Fragmentation mode: HCD
Collision energy: 75
Resolution: 17500
Column name: Acquity BEH C18 1.7um, 2.1x150mm (Waters)
Retention time: 15.959 min
Base peak: 79.0211
Precursor m/z: 207.0652
Precursor type: [M+H]+
Precursor intensity: 11975594.5
m/z	relative intensity	assigned
51.023	3	C4H3+
52.0307	1	C4H4+
53.0022	4	C3HO+
53.0386	92	C4H5+
55.0178	50	C3H3O+
57.0335	2	C3H5O+
63.0229	2	C5H3+
65.0385	95	C5H5+
66.0464	38	C5H6+
67.0179	2	C4H3O+
67.0541	22	C5H7+
68.0256	5	C4H4O+
68.997	30	C3HO2+
69.0335	2	C4H5O+
71.0129	2	C3H3O2+
77.0385	37	C6H5+
78.0464	152	C6H6+
79.0542	168	C6H7+
80.0621	18	C6H8+
81.0335	44	C5H5O+
81.0699	3	C6H9+
82.0049	6	C4H2O2+
82.0413	10	C5H6O+
83.0128	2	C4H3O2+
85.0284	14	C4H5O2+
89.0385	31	C7H5+
90.0464	73	C7H6+
91.0542	967	C7H7+
92.0257	12	C6H4O+
92.062	18	C7H8+
93.0335	18	C6H5O+
93.0699	36	C7H9+
94.0413	25	C6H6O+
95.0492	233	C6H7O+
96.057	3	C6H8O+
102.0464	12	C8H6+
103.0542	165	C8H7+
104.0621	4	C8H8+
105.0336	52	C7H5O+
105.0699	33	C8H9+
106.0413	118	C7H6O+
107.0492	108	C7H7O+
108.0207	9	C6H4O2+
108.057	81	C7H8O+
109.0285	8	C6H5O2+
109.0648	24	C7H9O+
110.0363	13	C6H6O2+
111.0441	4	C6H7O2+
115.0544	6	C9H7+
117.0335	10	C8H5O+
118.0413	170	C8H6O+
119.0492	129	C8H7O+
120.057	79	C8H8O+
121.0285	95	C7H5O2+
121.0648	908	C8H9O+
122.0362	6	C7H6O2+
123.0442	11	C7H7O2+
123.0804	42	C8H11O+
124.0518	3	C7H8O2+
125.0597	7	C7H9O2+
129.0334	3	C9H5O+
130.0412	2	C9H6O+
131.0127	2	C8H3O2+
131.0492	7	C9H7O+
132.0205	3	C8H4O2+
132.0571	16	C9H8O+
133.0284	116	C8H5O2+
133.0648	72	C9H9O+
134.0362	101	C8H6O2+
135.044	228	C8H7O2+
136.0519	69	C8H8O2+
137.0234	11	C7H5O3+
137.0597	8	C8H9O2+
138.0311	5	C7H6O3+
139.0754	88	C8H11O2+
145.0285	18	C9H5O2+
146.0363	101	C9H6O2+
147.0441	61	C9H7O2+
148.0519	228	C9H8O2+
149.0234	893	C8H5O3+
151.0754	231	C9H11O2+
152.0469	3	C8H8O3+
153.0547	11	C8H9O3+
155.0339	3	C7H7O4+
161.0601	2	C10H9O2+
162.0312	146	C9H6O3+
163.039	705	C9H7O3+
163.0754	98	C10H11O2+
164.0467	999	C9H8O3+
165.0549	2	C9H9O3+
173.0232	3	C10H5O3+
174.0311	2	C10H6O3+
175.0389	16	C10H7O3+
177.0184	3	C9H5O4+
177.0546	5	C10H9O3+
179.0702	15	C10H11O3+
191.0339	171	C10H7O4+
192.0417	536	C10H8O4+
207.0652	111	C11H11O4+
