Mass spectrum: 4-Androstene-3,17-dione; LC-ESI-QFT; MS2; CE: 45; R=17500; [M+H]+
Name: 4-Androstene-3,17-dione
Name: Androstenedione
Name: (8R,9S,10R,13S,14S)-10,13-dimethyl-2,6,7,8,9,11,12,14,15,16-decahydro-1H-cyclopenta[a]phenanthrene-3,17-dione
Formula: C19H26O2
Exact mass: 286.1933
SMILES: [H][C@@]12CCC(=O)[C@@]1(C)CC[C@@]1([H])[C@@]2([H])CCC2=CC(=O)CC[C@]12C
InChI: InChI=1S/C19H26O2/c1-18-9-7-13(20)11-12(18)3-4-14-15-5-6-17(21)19(15,2)10-8-16(14)18/h11,14-16H,3-10H2,1-2H3/t14-,15-,16-,18-,19-/m0/s1
Instrument: Q Exactive Orbitrap (Thermo Scientific)
Instrument type: LC-ESI-QFT
Ms type: MS2
Ion mode: POSITIVE
Ionization: ESI
Fragmentation mode: HCD
Collision energy: 45
Resolution: 17500
Column name: Acquity BEH C18 1.7um, 2.1x150mm (Waters)
Retention time: 17.321 min
Base peak: 79.0211
Precursor m/z: 287.2006
Precursor type: [M+H]+
Precursor intensity: 711489.75
m/z	relative intensity	assigned
69.0698	6	C5H9+
79.0543	20	C6H7+
81.0699	20	C6H9+
83.0492	30	C5H7O+
93.0699	13	C7H9+
95.0856	11	C7H11+
97.0649	999	C6H9O+
105.07	8	C8H9+
107.0856	10	C8H11+
109.0649	707	C7H9O+
111.0804	5	C7H11O+
119.0856	17	C9H11+
121.0646	6	C8H9O+
121.1014	11	C9H13+
123.0805	64	C8H11O+
131.0855	12	C10H11+
133.1011	21	C10H13+
135.1175	5	C10H15+
137.0965	6	C9H13O+
143.0856	6	C11H11+
145.1014	22	C11H13+
147.117	9	C11H15+
157.1013	7	C12H13+
159.1168	14	C12H15+
161.133	5	C12H17+
169.1012	10	C13H13+
171.117	7	C13H15+
173.1328	29	C13H17+
183.1172	8	C14H15+
185.1323	18	C14H17+
187.1481	10	C14H19+
195.1165	7	C15H15+
209.132	7	C16H17+
211.1485	21	C16H19+
217.1586	4	C15H21O+
225.1644	5	C17H21+
229.1585	12	C16H21O+
251.1799	11	C19H23+
269.1894	19	C19H25O+
287.2011	39	C19H27O2+
