Mass spectrum: 2-Ethylhexyl 4-(dimethylamino)benzoate; LC-ESI-QFT; MS2; CE: 45; R=17500; [M+H]+
Name: 2-Ethylhexyl 4-(dimethylamino)benzoate
Formula: C17H27NO2
Exact mass: 277.2042
SMILES: CCCCC(CC)COC(=O)C1=CC=C(C=C1)N(C)C
InChI: InChI=1S/C17H27NO2/c1-5-7-8-14(6-2)13-20-17(19)15-9-11-16(12-10-15)18(3)4/h9-12,14H,5-8,13H2,1-4H3
Instrument: Q Exactive Orbitrap (Thermo Scientific)
Instrument type: LC-ESI-QFT
Ms type: MS2
Ion mode: POSITIVE
Ionization: ESI
Fragmentation mode: HCD
Collision energy: 45
Resolution: 17500
Column name: Acquity BEH C18 1.7um, 2.1x150mm (Waters)
Retention time: 20.789 min
Base peak: 79.0211
Precursor m/z: 278.2115
Precursor type: [M+H]+
Precursor intensity: 24245478.78125
m/z	relative intensity	assigned
57.0699	1	C4H9+
107.0729	20	C7H9N+
120.0807	1	C8H10N+
121.0883	2	C8H11N+
122.0964	14	C8H12N+
134.0599	4	C8H8NO+
148.0759	2	C9H10NO+
150.055	10	C8H8NO2+
151.0628	609	C8H9NO2+
152.0705	1	C8H10NO2+
166.0862	999	C9H12NO2+
263.1879	1	C16H25NO2+
278.2115	79	C17H28NO2+
