Mass spectrum: 4-Phenoxyphenol; LC-ESI-QFT; MS2; CE: 75; R=17500; [M-H]-
Name: 4-Phenoxyphenol
Formula: C12H10O2
Exact mass: 186.0681
SMILES: OC1=CC=C(OC2=CC=CC=C2)C=C1
InChI: InChI=1S/C12H10O2/c13-10-6-8-12(9-7-10)14-11-4-2-1-3-5-11/h1-9,13H
Instrument: Q Exactive Orbitrap (Thermo Scientific)
Instrument type: LC-ESI-QFT
Ms type: MS2
Ion mode: NEGATIVE
Ionization: ESI
Fragmentation mode: HCD
Collision energy: 75
Resolution: 17500
Column name: Acquity BEH C18 1.7um, 2.1x150mm (Waters)
Retention time: 16.146 min
Base peak: 112.9857
Precursor m/z: 185.0608
Precursor type: [M-H]-
Precursor intensity: 426831.8762207
m/z	relative intensity	assigned
167.0503	999	C12H7O-
