Mass spectrum: Cyanazine; LC-ESI-QFT; MS2; CE: 60; R=17500; [M+H]+
Name: Cyanazine
Name: 2-[[4-chloro-6-(ethylamino)-1,3,5-triazin-2-yl]amino]-2-methylpropanenitrile
Formula: C9H13ClN6
Exact mass: 240.0890
SMILES: CCNC1=NC(NC(C)(C)C#N)=NC(Cl)=N1
InChI: InChI=1S/C9H13ClN6/c1-4-12-7-13-6(10)14-8(15-7)16-9(2,3)5-11/h4H2,1-3H3,(H2,12,13,14,15,16)
Instrument: Q Exactive Orbitrap (Thermo Scientific)
Instrument type: LC-ESI-QFT
Ms type: MS2
Ion mode: POSITIVE
Ionization: ESI
Fragmentation mode: HCD
Collision energy: 60
Resolution: 17500
Column name: Acquity BEH C18 1.7um, 2.1x150mm (Waters)
Retention time: 14.784 min
Base peak: 79.0211
Precursor m/z: 241.0963
Precursor type: [M+H]+
Precursor intensity: 6208845.0625
m/z	relative intensity	assigned
58.0651	28	C3H8N+
61.9792	54	CHClN+
67.029	7	C3H3N2+
68.0243	610	C2H2N3+
69.0446	3	C3H5N2+
70.0652	9	C4H8N+
71.0603	615	C3H7N2+
72.0444	13	ClH9N2+
78.0105	6	C2H5ClN+
79.0057	259	CH4ClN2+
83.0604	258	C4H7N2+
85.0759	27	C4H9N2+
90.0105	86	C3H5ClN+
95.0603	10	C5H7N2+
96.0556	914	C4H6N3+
102.0105	3	C4H5ClN+
103.0056	13	C3H4ClN2+
104.001	976	C2H3ClN3+
107.0371	8	C3H8ClN2+
108.0556	47	C5H6N3+
110.0462	51	C3H4N5+
110.0713	147	C5H8N3+
111.0791	40	C5H9N3+
111.0917	14	C6H11N2+
119.0371	259	C4H8ClN2+
128.0567	3	ClH9N6+
129.048	7	C7H10Cl+
132.0323	695	C4H7ClN3+
135.0667	15	C6H7N4+
136.087	274	C7H10N3+
138.0774	73	C5H8N5+
144.0323	55	C5H7ClN3+
145.0275	11	C4H6ClN4+
146.0228	158	C3H5ClN5+
150.0775	29	C6H8N5+
153.1135	5	C7H13N4+
157.0273	6	C5H6ClN4+
162.0649	2	C6H6N6+
163.098	16	C8H11N4+
171.043	8	C6H8ClN4+
172.0383	3	C5H7ClN5+
173.0589	99	C6H10ClN4+
174.0541	204	C5H9ClN5+
177.0884	38	C7H9N6+
178.1087	73	C8H12N5+
180.1245	5	C8H14N5+
186.0541	59	C6H9ClN5+
190.0962	4	C8H10N6+
197.0587	16	C8H10ClN4+
205.1196	36	C9H13N6+
214.0854	999	C8H13ClN5+
241.0965	25	C9H14ClN6+
