Mass spectrum: Benalaxyl; LC-ESI-QFT; MS2; CE: 75; R=17500; [M+H]+
Name: Benalaxyl
Name: methyl 2-(2,6-dimethyl-N-(2-phenylacetyl)anilino)propanoate
Formula: C20H23NO3
Exact mass: 325.1678
SMILES: COC(=O)C(C)N(C(=O)CC1=CC=CC=C1)C1=C(C)C=CC=C1C
InChI: InChI=1S/C20H23NO3/c1-14-9-8-10-15(2)19(14)21(16(3)20(23)24-4)18(22)13-17-11-6-5-7-12-17/h5-12,16H,13H2,1-4H3
Instrument: Q Exactive Orbitrap (Thermo Scientific)
Instrument type: LC-ESI-QFT
Ms type: MS2
Ion mode: POSITIVE
Ionization: ESI
Fragmentation mode: HCD
Collision energy: 75
Resolution: 17500
Column name: Acquity BEH C18 1.7um, 2.1x150mm (Waters)
Retention time: 18.580 min
Base peak: 79.0211
Precursor m/z: 326.1751
Precursor type: [M+H]+
Precursor intensity: 59205996.34375
m/z	relative intensity	assigned
53.0022	10	C3HO+
53.0386	1	C4H5+
53.9975	1	C2NO+
55.0542	4	C4H7+
57.0699	85	C4H9+
58.0651	93	C3H8N+
63.0229	1	C5H3+
65.0385	46	C5H5+
67.9892	1	C3O2+
71.0854	8	C5H11+
77.0386	1	C6H5+
79.0541	14	C6H7+
85.1011	3	C6H13+
91.0542	999	C7H7+
93.0699	1	C7H9+
95.0491	2	C6H7O+
103.0542	9	C8H7+
104.0622	1	C8H8+
105.0699	65	C8H9+
106.0651	95	C7H8N+
106.0776	5	C8H10+
107.0729	11	C7H9N+
107.0854	5	C8H11+
108.0806	1	C7H10N+
116.0622	3	C9H8+
118.0651	26	C8H8N+
119.0855	11	C9H11+
120.0808	42	C8H10N+
121.0886	420	C8H11N+
122.0964	12	C8H12N+
123.0804	2	C8H11O+
129.0696	3	C10H9+
131.0732	1	C9H9N+
131.0855	13	C10H11+
132.0807	11	C9H10N+
133.0885	62	C9H11N+
134.0964	1	C9H12N+
146.0965	6	C10H12N+
148.112	505	C10H14N+
181.0874	1	C13H11N+
196.1122	2	C14H14N+
