Mass spectrum: Florasulam; LC-ESI-QFT; MS2; CE: 60; R=17500; [M-H]-
Name: Florasulam
Name: N-(2,6-difluorophenyl)-8-fluoro-5-methoxy-[1,2,4]triazolo[1,5-c]pyrimidine-2-sulfonamide
Formula: C12H8F3N5O3S
Exact mass: 359.0300
SMILES: COC1=NC=C(F)C2=NC(=NN12)S(=O)(=O)NC1=C(F)C=CC=C1F
InChI: InChI=1S/C12H8F3N5O3S/c1-23-12-16-5-8(15)10-17-11(18-20(10)12)24(21,22)19-9-6(13)3-2-4-7(9)14/h2-5,19H,1H3
Instrument: Q Exactive Orbitrap (Thermo Scientific)
Instrument type: LC-ESI-QFT
Ms type: MS2
Ion mode: NEGATIVE
Ionization: ESI
Fragmentation mode: HCD
Collision energy: 60
Resolution: 17500
Column name: Acquity BEH C18 1.7um, 2.1x150mm (Waters)
Retention time: 13.928 min
Base peak: 358.0229
Precursor m/z: 358.0227
Precursor type: [M-H]-
Precursor intensity: 6897051.637695
m/z	relative intensity	assigned
55.0301	100	C2H3N2-
58.0098	3	C2HFN-
58.9938	4	C2FO-
60.0255	3	C2H3FN-
64.0067	139	C3N2-
65.0146	2	C3HN2-
66.0098	356	C2N3-
77.0145	5	C4HN2-
80.0016	40	C3N2O-
80.0252	2	C3H2N3-
83.0051	155	C3FN2-
85.0207	8	C3H2FN2-
87.0001	1	C2FN2O-
90.0098	171	C4N3-
92.0255	2	C4H2N3-
97.0082	2	C3FN3-
97.0208	7	C4H2FN2-
99.0364	4	C4H4FN2-
104.0129	289	C4N4-
104.0254	40	C5H2N3-
107.0126	3	C4HN3O-
109.0081	3	C4FN3-
110.016	47	C4HFN3-
110.9999	14	C4FN2O-
113.0156	4	C4H2FN2O-
119.0363	3	C5H3N4-
120.0203	6	C5H2N3O-
124.019	18	C4HFN4-
124.0314	1	C5H3FN3-
132.0077	50	C5N4O-
137.0268	3	C5H2FN4-
138.0108	4	C5HFN3O-
140.0266	28	C5H3FN3O-
147.0312	6	C6H3N4O-
148.0025	4	C5N4O2-
152.014	492	C5HFN4O-
160.0318	1	C8H3FN3-
167.0374	999	C6H4FN4O-
231.0354	1	C10H3F2N5-
