Mass spectrum: Norethindrone; LC-ESI-QFT; MS2; CE: 90; R=17500; [M+H]+
Name: Norethindrone
Name: (8R,9S,10R,13S,14S,17R)-17-ethynyl-17-hydroxy-13-methyl-1,2,6,7,8,9,10,11,12,14,15,16-dodecahydrocyclopenta[a]phenanthren-3-one
Formula: C20H26O2
Exact mass: 298.1933
SMILES: C[C@]12CC[C@H]3[C@@H](CCC4=CC(=O)CC[C@H]34)[C@@H]1CC[C@@]2(O)C#C
InChI: InChI=1S/C20H26O2/c1-3-20(22)11-9-18-17-6-4-13-12-14(21)5-7-15(13)16(17)8-10-19(18,20)2/h1,12,15-18,22H,4-11H2,2H3/t15-,16+,17+,18-,19-,20-/m0/s1
Instrument: Q Exactive Orbitrap (Thermo Scientific)
Instrument type: LC-ESI-QFT
Ms type: MS2
Ion mode: POSITIVE
Ionization: ESI
Fragmentation mode: HCD
Collision energy: 90
Resolution: 17500
Column name: Acquity BEH C18 1.7um, 2.1x150mm (Waters)
Retention time: 17.309 min
Base peak: 79.0211
Precursor m/z: 299.2006
Precursor type: [M+H]+
Precursor intensity: 2743415.78125
m/z	relative intensity	assigned
51.023	12	C4H3+
53.0022	27	C3HO+
53.0386	138	C4H5+
55.0179	73	C3H3O+
55.0543	180	C4H7+
57.0335	5	C3H5O+
65.0385	118	C5H5+
66.0462	7	C5H6+
67.0542	246	C5H7+
69.0334	15	C4H5O+
69.0698	20	C5H9+
77.0385	21	C6H5+
79.0542	738	C6H7+
81.0335	27	C5H5O+
81.0699	451	C6H9+
83.0491	438	C5H7O+
91.0543	999	C7H7+
92.0622	9	C7H8+
93.0699	172	C7H9+
94.0413	18	C6H6O+
95.0492	233	C6H7O+
95.0855	56	C7H11+
97.0649	12	C6H9O+
103.0543	107	C8H7+
104.062	26	C8H8+
105.0699	366	C8H9+
107.0492	159	C7H7O+
107.0855	52	C8H11+
109.0648	485	C7H9O+
115.0542	242	C9H7+
116.0621	76	C9H8+
117.0699	202	C9H9+
118.0778	7	C9H10+
119.0856	112	C9H11+
121.0647	18	C8H9O+
121.1012	12	C9H13+
123.0807	19	C8H11O+
128.0621	277	C10H8+
129.0699	214	C10H9+
130.0777	46	C10H10+
131.0856	87	C10H11+
133.0649	24	C9H9O+
133.1013	21	C10H13+
135.0803	39	C9H11O+
141.0699	141	C11H9+
142.0778	89	C11H10+
143.0856	68	C11H11+
144.057	13	C10H8O+
144.0935	7	C11H12+
145.0648	27	C10H9O+
145.1012	29	C11H13+
146.0726	8	C10H10O+
147.0806	16	C10H11O+
149.0958	8	C10H13O+
152.0623	24	C12H8+
153.07	62	C12H9+
154.078	34	C12H10+
155.0854	54	C12H11+
156.0936	20	C12H12+
157.1015	22	C12H13+
159.0809	6	C11H11O+
161.0964	19	C11H13O+
165.07	66	C13H9+
166.0777	14	C13H10+
167.0859	31	C13H11+
168.0936	8	C13H12+
169.1012	18	C13H13+
170.1088	5	C13H14+
171.1167	10	C13H15+
178.0779	28	C14H10+
179.0855	26	C14H11+
180.0944	7	C14H12+
181.1011	14	C14H13+
191.0857	13	C15H11+
192.0935	11	C15H12+
193.1017	13	C15H13+
197.0976	5	C14H13O+
205.1013	9	C16H13+
207.1175	7	C16H15+
