Mass spectrum: Brucine; LC-ESI-QFT; MS2; CE: 60; R=17500; [M+H]+
Name: Brucine
Name: (4aR,5aS,8aR,13aS,15aS,15bR)-10,11-dimethoxy-4a,5,5a,7,8,13a,15,15a,15b,16-decahydro-2H-4,6-methanoindolo[3,2,1-ij]oxepino[2,3,4-de]pyrrolo[2,3-h]quinolin-14-one
Formula: C23H26N2O4
Exact mass: 394.1893
SMILES: COC1=CC2=C(C=C1OC)[C@@]13CCN4CC5=CCO[C@H]6CC(=O)N2[C@H]1[C@H]6[C@H]5C[C@@H]34
InChI: InChI=1S/C23H26N2O4/c1-27-16-8-14-15(9-17(16)28-2)25-20(26)10-18-21-13-7-19-23(14,22(21)25)4-5-24(19)11-12(13)3-6-29-18/h3,8-9,13,18-19,21-22H,4-7,10-11H2,1-2H3/t13-,18-,19-,21-,22-,23+/m0/s1
Instrument: Q Exactive Orbitrap (Thermo Scientific)
Instrument type: LC-ESI-QFT
Ms type: MS2
Ion mode: POSITIVE
Ionization: ESI
Fragmentation mode: HCD
Collision energy: 60
Resolution: 17500
Column name: Acquity BEH C18 1.7um, 2.1x150mm (Waters)
Retention time: 11.177 min
Base peak: 79.0211
Precursor m/z: 395.1965
Precursor type: [M+H]+
Precursor intensity: 9177726.21875
m/z	relative intensity	assigned
53.0387	13	C4H5+
55.0178	13	C3H3O+
55.0542	5	C4H7+
56.0495	39	C3H6N+
65.0385	5	C5H5+
67.0542	18	C5H7+
68.0494	32	C4H6N+
69.0335	15	C4H5O+
70.0651	31	C4H8N+
79.0542	39	C6H7+
80.0494	43	C5H6N+
81.0573	6	C5H7N+
81.0699	38	C6H9+
82.0652	14	C5H8N+
83.0491	6	C5H7O+
84.0443	4	C4H6NO+
86.0601	4	C4H8NO+
91.0542	33	C7H7+
92.0493	4	C6H6N+
93.0573	58	C6H7N+
93.0699	24	C7H9+
94.0652	41	C6H8N+
95.0491	36	C6H7O+
95.0729	3	C6H9N+
95.0855	7	C7H11+
96.0444	3	C5H6NO+
96.0807	38	C6H10N+
98.0601	9	C5H8NO+
105.0699	11	C8H9+
106.0651	109	C7H8N+
107.0493	4	C7H7O+
107.0729	10	C7H9N+
107.0852	4	C8H11+
108.0808	127	C7H10N+
109.0648	3	C7H9O+
110.0602	5	C6H8NO+
110.0964	3	C7H12N+
115.0544	2	C9H7+
117.0697	2	C9H9+
118.0652	7	C8H8N+
119.0727	3	C8H9N+
119.0855	4	C9H11+
120.0444	4	C7H6NO+
120.0807	13	C8H10N+
121.0646	11	C8H9O+
122.06	101	C7H8NO+
122.0965	5	C8H12N+
123.0679	4	C7H9NO+
124.0757	80	C7H10NO+
130.065	6	C9H8N+
131.0855	2	C10H11+
132.0807	5	C9H10N+
134.0599	2	C8H8NO+
134.0964	3	C9H12N+
136.0757	6	C8H10NO+
138.0913	4	C8H12NO+
144.0806	14	C10H10N+
145.0646	2	C10H9O+
146.0599	7	C9H8NO+
146.0965	3	C10H12N+
147.0679	15	C9H9NO+
148.0392	2	C8H6NO2+
148.0759	27	C9H10NO+
154.0655	2	C11H8N+
156.0805	4	C11H10N+
158.0604	5	C10H8NO+
159.0682	3	C10H9NO+
160.0757	10	C10H10NO+
161.0835	5	C10H11NO+
162.0547	6	C9H8NO2+
162.0913	9	C10H12NO+
163.0625	13	C9H9NO2+
164.0708	2	C9H10NO2+
166.0862	3	C9H12NO2+
170.0601	10	C11H8NO+
171.0681	2	C11H9NO+
172.0755	10	C11H10NO+
173.0836	7	C11H11NO+
175.0629	4	C10H9NO2+
176.0707	17	C10H10NO2+
177.0787	16	C10H11NO2+
178.0863	75	C10H12NO2+
182.0601	3	C12H8NO+
183.0683	6	C12H9NO+
184.0758	36	C12H10NO+
185.0835	82	C12H11NO+
186.0548	10	C11H8NO2+
186.0913	8	C12H12NO+
187.0625	6	C11H9NO2+
188.0705	7	C11H10NO2+
189.0783	10	C11H11NO2+
189.0908	4	C12H13O2+
190.0863	53	C11H12NO2+
192.0654	42	C10H10NO3+
192.1018	6	C11H14NO2+
196.0759	7	C13H10NO+
197.0836	36	C13H11NO+
198.0549	35	C12H8NO2+
198.0914	4	C13H12NO+
199.0626	5	C12H9NO2+
199.0995	2	C13H13NO+
200.0708	22	C12H10NO2+
201.0785	27	C12H11NO2+
202.0863	11	C12H12NO2+
203.0938	7	C12H13NO2+
204.0656	9	C11H10NO3+
204.102	32	C12H14NO2+
210.0913	12	C14H12NO+
211.0628	10	C13H9NO2+
211.0996	7	C14H13NO+
212.0706	39	C13H10NO2+
213.0784	507	C13H11NO2+
214.0498	57	C12H8NO3+
214.086	24	C13H12NO2+
215.0832	2	C12H11N2O2+
215.0939	13	C13H13NO2+
216.1019	267	C13H14NO2+
218.0815	13	C12H12NO3+
220.0761	4	C15H10NO+
220.0968	7	C12H14NO3+
221.0837	3	C15H11NO+
222.0915	9	C15H12NO+
223.0991	17	C15H13NO+
224.0708	6	C14H10NO2+
224.1072	2	C15H14NO+
225.0786	6	C14H11NO2+
226.0867	24	C14H12NO2+
227.094	64	C14H13NO2+
228.0654	30	C13H10NO3+
228.102	44	C14H14NO2+
229.0734	546	C13H11NO3+
230.0812	24	C13H12NO3+
230.1174	13	C14H16NO2+
231.1131	3	C13H15N2O2+
232.0967	7	C13H14NO3+
234.0911	17	C16H12NO+
235.0992	16	C16H13NO+
236.0708	32	C15H10NO2+
236.1067	17	C16H14NO+
237.0786	4	C15H11NO2+
237.115	3	C16H15NO+
238.0862	21	C15H12NO2+
239.0938	15	C15H13NO2+
240.0651	6	C14H10NO3+
240.102	21	C15H14NO2+
241.0732	13	C14H11NO3+
241.11	9	C15H15NO2+
242.0809	18	C14H12NO3+
242.1178	8	C15H16NO2+
243.0889	37	C14H13NO3+
244.0969	999	C14H14NO3+
245.1051	9	C14H15NO3+
246.0911	2	C17H12NO+
246.1121	19	C14H16NO3+
247.063	8	C16H9NO2+
247.0993	9	C17H13NO+
248.0708	17	C16H10NO2+
248.1071	12	C17H14NO+
249.0784	20	C16H11NO2+
249.1148	17	C17H15NO+
250.0504	4	C15H8NO3+
250.0863	21	C16H12NO2+
250.1227	7	C17H16NO+
251.0941	168	C16H13NO2+
252.0657	62	C15H10NO3+
252.1018	19	C16H14NO2+
253.0743	2	C15H11NO3+
253.1098	9	C16H15NO2+
254.0814	19	C15H12NO3+
254.1176	139	C16H16NO2+
255.0893	5	C15H13NO3+
255.1127	4	C15H15N2O2+
256.0968	73	C15H14NO3+
257.1047	9	C15H15NO3+
258.0767	12	C14H12NO4+
258.0904	3	C18H12NO+
258.1125	36	C15H16NO3+
260.0917	21	C14H14NO4+
260.1073	7	C18H14NO+
261.1147	6	C18H15NO+
262.0864	36	C17H12NO2+
262.1229	7	C18H16NO+
263.0941	298	C17H13NO2+
264.0655	22	C16H10NO3+
264.1018	40	C17H14NO2+
265.0732	30	C16H11NO3+
265.1099	18	C17H15NO2+
266.0813	17	C16H12NO3+
266.1175	28	C17H16NO2+
267.089	228	C16H13NO3+
268.0971	17	C16H14NO3+
268.1334	8	C17H18NO2+
269.1047	7	C16H15NO3+
270.1125	7	C16H16NO3+
272.0922	16	C15H14NO4+
272.1072	3	C19H14NO+
273.0781	2	C18H11NO2+
273.1152	8	C19H15NO+
274.0864	12	C18H12NO2+
274.107	4	C15H16NO4+
275.0942	6	C18H13NO2+
276.1022	26	C18H14NO2+
277.0955	3	C17H13N2O2+
277.1103	16	C18H15NO2+
278.0813	8	C17H12NO3+
278.1177	58	C18H16NO2+
279.089	28	C17H13NO3+
279.1257	8	C18H17NO2+
280.0969	129	C17H14NO3+
280.1333	23	C18H18NO2+
281.105	26	C17H15NO3+
282.1125	187	C17H16NO3+
283.0841	10	C16H13NO4+
283.1209	6	C17H17NO3+
284.0914	7	C16H14NO4+
284.1281	5	C17H18NO3+
286.0864	11	C19H12NO2+
286.1058	4	C16H16NO4+
288.1029	15	C19H14NO2+
289.1106	21	C19H15NO2+
290.0807	5	C18H12NO3+
290.1176	21	C19H16NO2+
291.0893	5	C18H13NO3+
291.1258	43	C19H17NO2+
292.0969	26	C18H14NO3+
292.12	8	C18H16N2O2+
292.1341	7	C19H18NO2+
293.1057	14	C18H15NO3+
294.1126	94	C18H16NO3+
294.1494	14	C19H20NO2+
295.1205	10	C18H17NO3+
296.0912	5	C17H14NO4+
296.1288	21	C18H18NO3+
296.1632	3	C19H22NO2+
297.0997	11	C17H15NO4+
297.1227	3	C17H17N2O3+
298.1073	14	C17H16NO4+
300.1021	4	C20H14NO2+
301.1099	50	C20H15NO2+
302.0816	14	C19H12NO3+
302.118	7	C20H16NO2+
303.1264	7	C20H17NO2+
304.0967	13	C19H14NO3+
304.1336	9	C20H18NO2+
305.1267	3	C19H17N2O2+
306.1127	98	C19H16NO3+
307.121	39	C19H17NO3+
307.1412	4	C19H19N2O2+
308.093	4	C18H14NO4+
309.1232	9	C18H17N2O3+
310.1075	7	C18H16NO4+
310.1447	3	C19H20NO3+
312.1235	6	C18H18NO4+
316.0973	13	C20H14NO3+
317.105	23	C20H15NO3+
318.1129	10	C20H16NO3+
318.1364	12	C20H18N2O2+
319.1427	5	C20H19N2O2+
320.0926	7	C19H14NO4+
320.1288	13	C20H18NO3+
321.1365	89	C20H19NO3+
322.1439	107	C20H20NO3+
323.1376	14	C19H19N2O3+
324.1232	384	C19H18NO4+
326.1408	5	C22H18N2O+
331.1215	5	C21H17NO3+
332.1282	41	C21H18NO3+
333.1228	5	C20H17N2O3+
334.1316	13	C20H18N2O3+
335.1159	15	C20H17NO4+
336.1473	17	C20H20N2O3+
337.1184	6	C19H17N2O4+
337.1549	9	C20H21N2O3+
338.1392	15	C20H20NO4+
339.1709	3	C20H23N2O3+
340.1537	4	C20H22NO4+
349.1551	25	C21H21N2O3+
350.1389	102	C21H20NO4+
351.1341	8	C20H19N2O4+
351.17	19	C21H23N2O3+
352.141	36	C20H20N2O4+
365.1494	5	C21H21N2O4+
366.1699	8	C22H24NO4+
367.1654	119	C21H23N2O4+
379.1657	60	C22H23N2O4+
380.1719	12	C22H24N2O4+
395.1968	214	C23H27N2O4+
