Mass spectrum: SSR126768; LC-ESI-QFT; MS2; CE: 15; R=17500; [M+H]+
Name: SSR126768
Name: 3-chloro-2-[(3R)-5-chloro-1-[(2,4-dimethoxyphenyl)methyl]-3-methyl-2-oxoindol-3-yl]-N-ethyl-N-(pyridin-3-ylmethyl)benzamide
Formula: C33H31Cl2N3O4
Exact mass: 603.1692
SMILES: CCN(Cc1cccnc1)C(=O)c1cccc(Cl)c1[C@]1(C)C(=O)N(Cc2ccc(OC)cc2OC)c2ccc(Cl)cc21
InChI: InChI=1S/C33H31Cl2N3O4/c1-5-37(19-21-8-7-15-36-18-21)31(39)25-9-6-10-27(35)30(25)33(2)26-16-23(34)12-14-28(26)38(32(33)40)20-22-11-13-24(41-3)17-29(22)42-4/h6-18H,5,19-20H2,1-4H3/t33-/m1/s1
Instrument: Q Exactive Orbitrap (Thermo Scientific)
Instrument type: LC-ESI-QFT
Ms type: MS2
Ion mode: POSITIVE
Ionization: ESI
Fragmentation mode: HCD
Collision energy: 15
Resolution: 17500
Column name: Acquity BEH C18 1.7um, 2.1x150mm (Waters)
Retention time: 18.525 min
Base peak: 79.0211
Precursor m/z: 604.1764
Precursor type: [M+H]+
Precursor intensity: 8747418.25
m/z	relative intensity	assigned
121.0647	1	C8H9O+
151.0754	901	C9H11O2+
466.1087	320	C25H22Cl2N3O2+
604.1768	999	C33H32Cl2N3O4+
