Mass spectrum: PharmaGSID_48516; LC-ESI-QFT; MS2; CE: 90; R=17500; [M+H]+
Name: 2-chloro-4-fluoro-N-[(E)-2-phenylethenyl]sulfonylbenzamide
Name: 2-Chloro-4-fluoro-N-{[(E)-2-phenylethenyl]sulfonyl}benzamide
Name: PharmaGSID_48516
Formula: C15H11ClFNO3S
Exact mass: 339.0132
SMILES: O=C(NS(=O)(=O)/C=C/c1ccccc1)c1ccc(F)cc1Cl
InChI: InChI=1S/C15H11ClFNO3S/c16-14-10-12(17)6-7-13(14)15(19)18-22(20,21)9-8-11-4-2-1-3-5-11/h1-10H,(H,18,19)/b9-8+
Instrument: Q Exactive Orbitrap (Thermo Scientific)
Instrument type: LC-ESI-QFT
Ms type: MS2
Ion mode: POSITIVE
Ionization: ESI
Fragmentation mode: HCD
Collision energy: 90
Resolution: 17500
Column name: Acquity BEH C18 1.7um, 2.1x150mm (Waters)
Retention time: 16.772 min
Base peak: 79.0211
Precursor m/z: 340.0205
Precursor type: [M+H]+
Precursor intensity: 2035932.96875
m/z	relative intensity	assigned
50.0152	12	C4H2+
51.023	33	C4H3+
53.0386	224	C4H5+
55.0179	13	C3H3O+
74.0152	12	C6H2+
77.0386	93	C6H5+
79.0543	5	C6H7+
81.0335	28	C5H5O+
84.9841	35	C4H2Cl+
86.9632	19	C3ClO+
91.0543	9	C7H7+
94.0414	22	C6H6O+
95.0492	639	C6H7O+
102.0465	63	C8H6+
103.0543	999	C8H7+
104.9903	13	C4H3ClF+
105.0448	255	H11NO3S+
108.984	95	C6H2Cl+
109.0649	6	C7H9O+
111.0241	43	C6H4FO+
112.032	25	C6H5FO+
128.9902	68	C6H3ClF+
129.0348	6	C6H6FO2+
147.0009	35	C6H5ClFO+
148.0304	9	C12H4+
156.9853	149	C7H3ClFO+
156.9965	344	ClFH9NO3S+
165.0701	12	C13H9+
167.0861	5	C13H11+
