Mass spectrum: Fenarimol; LC-ESI-QFT; MS2; CE: 45; R=17500; [M+H]+
Name: Fenarimol
Name: (2-chlorophenyl)-(4-chlorophenyl)-pyrimidin-5-ylmethanol
Formula: C17H12Cl2N2O
Exact mass: 330.0327
SMILES: OC(C1=CC=C(Cl)C=C1)(C1=CN=CN=C1)C1=CC=CC=C1Cl
InChI: InChI=1S/C17H12Cl2N2O/c18-14-7-5-12(6-8-14)17(22,13-9-20-11-21-10-13)15-3-1-2-4-16(15)19/h1-11,22H
Instrument: Q Exactive Orbitrap (Thermo Scientific)
Instrument type: LC-ESI-QFT
Ms type: MS2
Ion mode: POSITIVE
Ionization: ESI
Fragmentation mode: HCD
Collision energy: 45
Resolution: 17500
Column name: Acquity BEH C18 1.7um, 2.1x150mm (Waters)
Retention time: 18.058 min
Base peak: 79.0211
Precursor m/z: 331.0399
Precursor type: [M+H]+
Precursor intensity: 19384721.0625
m/z	relative intensity	assigned
52.0181	1	C3H2N+
54.0338	60	C3H4N+
71.0369	2	ClH8N2+
75.0228	3	C6H3+
81.0447	999	C4H5N2+
91.0542	6	C7H7+
97.0648	5	C6H9O+
101.0386	3	C8H5+
109.0649	4	C7H9O+
113.0152	7	C6H6Cl+
113.0395	4	C9H5+
119.0492	3	C8H7O+
122.0481	482	C6H6N2O+
123.0241	146	C10H3+
124.0274	96	CH12Cl2NO+
125.0152	5	C7H6Cl+
129.0448	20	C8H5N2+
130.0653	1	C9H8N+
137.0151	2	C8H6Cl+
138.9945	360	C7H4ClO+
140.0263	8	C7H7ClN+
141.0102	49	C7H6ClO+
146.0597	1	C9H8NO+
149.0154	15	C9H6Cl+
155.0603	6	C10H7N2+
156.0682	29	C10H8N2+
157.0759	18	C10H9N2+
164.0261	15	C9H7ClN+
165.0104	3	C9H6ClO+
165.0699	2	C13H9+
176.0623	1	C14H8+
183.0553	19	C11H7N2O+
184.0631	10	C11H8N2O+
185.0716	3	C11H9N2O+
189.0698	61	C15H9+
190.0774	1	C15H10+
191.0371	17	C10H8ClN2+
192.021	9	C10H7ClNO+
192.045	20	C10H9ClN2+
199.0307	6	C13H8Cl+
200.0385	7	C13H9Cl+
204.081	23	C15H10N+
205.0646	6	C15H9O+
205.0885	7	C15H11N+
210.0317	3	C7H12Cl2N2O+
216.0809	2	C16H10N+
217.065	6	C16H9O+
219.0319	26	C11H8ClN2O+
220.0394	5	C11H9ClN2O+
223.031	37	C15H8Cl+
224.0386	18	C15H9Cl+
225.0463	8	C15H10Cl+
231.0918	4	C16H11N2+
232.0759	17	C13H13ClN2+
232.0988	4	C16H12N2+
232.9912	3	C13H7Cl2+
233.0837	40	C16H11NO+
235.0077	36	C13H9Cl2+
238.0418	33	C15H9ClN+
239.0502	3	C15H10ClN+
240.0576	43	C15H11ClN+
241.0644	10	C15H12ClN+
242.0836	5	C17H10N2+
243.0921	11	C17H11N2+
250.0419	30	C16H9ClN+
251.0025	129	C13H9Cl2O+
251.0496	61	C16H10ClN+
252.0336	185	C16H9ClO+
256.0525	4	C15H11ClNO+
259.0076	421	C15H9Cl2+
260.0934	3	C17H12N2O+
266.0367	16	C16H9ClNO+
267.0448	17	C13H13Cl2N2+
267.0683	37	C16H12ClN2+
268.0524	967	C16H11ClNO+
275.0022	3	C15H9Cl2O+
276.0341	28	C15H12Cl2N+
277.0181	2	C15H11Cl2O+
277.0527	13	C17H10ClN2+
278.0604	64	C17H11ClN2+
279.0682	7	C17H12ClN2+
285.0089	1	C16H9Cl2N+
286.0183	16	C16H10Cl2N+
287.0024	13	C16H9Cl2O+
295.0633	19	C17H12ClN2O+
302.0143	2	C16H10Cl2NO+
302.0369	8	C16H12Cl2N2+
303.0449	2	C16H13Cl2N2+
304.0291	44	C16H12Cl2NO+
313.0291	11	C17H11Cl2N2+
331.04	100	C17H13Cl2N2O+
