Mass spectrum: Tridecanedioic acid; LC-ESI-QFT; MS2; CE: 75; R=17500; [M-H]-
Name: Tridecanedioic acid
Formula: C13H24O4
Exact mass: 244.1675
SMILES: OC(=O)CCCCCCCCCCCC(O)=O
InChI: InChI=1S/C13H24O4/c14-12(15)10-8-6-4-2-1-3-5-7-9-11-13(16)17/h1-11H2,(H,14,15)(H,16,17)
Instrument: Q Exactive Orbitrap (Thermo Scientific)
Instrument type: LC-ESI-QFT
Ms type: MS2
Ion mode: NEGATIVE
Ionization: ESI
Fragmentation mode: HCD
Collision energy: 75
Resolution: 17500
Column name: Acquity BEH C18 1.7um, 2.1x150mm (Waters)
Retention time: 18.111 min
Base peak: 243.1602
Precursor m/z: 243.1602
Precursor type: [M-H]-
Precursor intensity: 22590634.92969
m/z	relative intensity	assigned
57.0346	211	C3H5O-
179.144	219	C12H19O-
181.1599	999	C12H21O-
225.1499	500	C13H21O3-
