Mass spectrum: Clodinafop-propargyl; LC-ESI-QFT; MS2; CE: 60; R=17500; [M+H]+
Name: Clodinafop-propargyl
Name: prop-2-ynyl (2R)-2-[4-(5-chloro-3-fluoropyridin-2-yl)oxyphenoxy]propanoate
Formula: C17H13ClFNO4
Exact mass: 349.0517
SMILES: C[C@@H](OC1=CC=C(OC2=NC=C(Cl)C=C2F)C=C1)C(=O)OCC#C
InChI: InChI=1S/C17H13ClFNO4/c1-3-8-22-17(21)11(2)23-13-4-6-14(7-5-13)24-16-15(19)9-12(18)10-20-16/h1,4-7,9-11H,8H2,2H3/t11-/m1/s1
Instrument: Q Exactive Orbitrap (Thermo Scientific)
Instrument type: LC-ESI-QFT
Ms type: MS2
Ion mode: POSITIVE
Ionization: ESI
Fragmentation mode: HCD
Collision energy: 60
Resolution: 17500
Column name: Acquity BEH C18 1.7um, 2.1x150mm (Waters)
Retention time: 18.291 min
Base peak: 79.0212
Precursor m/z: 350.059
Precursor type: [M+H]+
Precursor intensity: 14731457.5
m/z	relative intensity	assigned
53.0022	3	C3HO+
53.0385	5	C4H5+
55.0178	9	C3H3O+
56.0256	1	C3H4O+
63.0227	4	C5H3+
65.0385	93	C5H5+
67.0542	2	C5H7+
69.0334	1	C4H5O+
75.0229	7	C6H3+
77.0386	2	C6H5+
78.0464	1	C6H6+
79.0542	2	C6H7+
80.0622	1	C6H8+
81.0335	2	C5H5O+
89.0383	1	C7H5+
90.0462	1	C7H6+
91.0542	999	C7H7+
92.0256	12	C6H4O+
92.062	49	C7H8+
92.9902	1	C3H3ClF+
93.0336	1	C6H5O+
93.0699	8	C7H9+
94.0413	10	C6H6O+
95.0491	8	C6H7O+
102.0464	9	C8H6+
103.0542	19	C8H7+
105.0334	2	C7H5O+
105.0444	3	FH8NO4+
107.049	2	C7H7O+
108.057	1	C7H8O+
109.0284	8	C6H5O2+
109.0648	14	C7H9O+
111.044	3	C6H7O2+
113.0386	1	C9H5+
115.0542	3	C9H7+
118.0414	1	C8H6O+
119.0491	54	C8H7O+
119.0599	7	CH10FNO4+
120.0569	59	C8H8O+
121.0283	23	C7H5O2+
121.0647	23	C8H9O+
127.0543	1	C10H7+
128.0621	8	C10H8+
129.0334	2	C9H5O+
129.0697	5	C10H9+
129.9854	3	C5H2ClFN+
130.0414	2	C9H6O+
131.0491	34	C9H7O+
132.0012	5	C5H4ClFN+
132.0571	5	C9H8O+
133.0445	1	C9H6F+
136.0519	1	C8H8O2+
143.9847	2	C5H3ClNO2+
144.001	1	C6H4ClFN+
145.0647	2	C10H9O+
146.988	3	C5H3ClFNO+
147.0436	3	C3H11ClFNO2+
147.0605	6	C10H8F+
147.9959	79	C5H4ClFNO+
149.0398	1	C9H6FO+
154.065	8	C11H8N+
155.0603	3	C4H10FNO4+
155.0728	1	C11H9N+
156.0009	1	C7H4ClFN+
157.0648	2	C11H9O+
158.0166	5	C7H6ClFN+
158.0401	19	C10H5FN+
159.0478	87	C4H11ClFNO2+
160.0557	1	C10H7FN+
160.0682	1	C11H9F+
162.0115	10	C6H6ClFNO+
167.0058	8	C9H5ClF+
167.0365	1	C11H5NO+
168.0012	3	C8H4ClFN+
169.0088	14	C8H5ClFN+
170.0165	4	C8H6ClFN+
172.0554	1	C11H7FN+
174.0108	7	C10H5ClN+
174.0712	5	C11H9FN+
175.0792	7	C11H10FN+
176.0506	68	C10H7FNO+
178.0065	1	C6H6ClFNO2+
182.0166	22	C9H6ClFN+
182.0602	2	C12H8NO+
183.0681	2	C12H9NO+
184.0555	6	C12H7FN+
185.0636	15	C12H8FN+
186.0115	1	C8H6ClFNO+
186.071	1	C12H9FN+
187.0427	39	C11H6FNO+
188.0508	4	C11H7FNO+
190.0414	2	C14H6O+
192.0209	2	C10H7ClNO+
193.0087	4	C10H5ClFN+
194.0168	22	C10H6ClFN+
195.0244	12	C10H7ClFN+
196.0325	3	C10H8ClFN+
201.0585	1	C12H8FNO+
202.0662	14	C12H9FNO+
203.074	21	C15H9N+
204.0209	1	C11H7ClNO+
204.0455	9	C11H7FNO2+
206.017	1	C11H6ClFN+
210.0116	13	C10H6ClFNO+
211.0196	13	C10H7ClFNO+
213.0585	1	C13H8FNO+
214.0664	4	C13H9FNO+
216.0455	6	C12H7FNO2+
218.0367	2	C12H9ClNO+
219.0242	5	C15H4FO+
219.0328	5	C11H6FNO3+
220.0162	2	C11H7ClNO2+
220.0322	15	C12H8ClFN+
222.0115	436	C11H6ClFNO+
223.0191	5	C14H4FO2+
224.0273	3	C11H8ClFNO+
230.0609	10	C13H9FNO2+
231.069	6	C13H10FNO2+
232.033	1	C13H8ClFN+
238.0065	127	C11H6ClFNO2+
238.0427	46	C12H10ClFNO+
239.0141	24	C14H4FO3+
240.0219	1	C14H5FO3+
248.0268	5	C16H5FO2+
251.0148	1	C12H7ClFNO2+
252.0224	1	C12H8ClFNO2+
260.0273	2	C14H8ClFNO+
276.0221	18	C14H8ClFNO2+
