Mass spectrum: 1-(2-Hydroxyethyl)pyrrolidin-2-one; LC-ESI-QFT; MS2; CE: 90; R=17500; [M+H]+
Name: 1-(2-Hydroxyethyl)pyrrolidin-2-one
Formula: C6H11NO2
Exact mass: 129.0790
SMILES: OCCN1CCCC1=O
InChI: InChI=1S/C6H11NO2/c8-5-4-7-3-1-2-6(7)9/h8H,1-5H2
Instrument: Q Exactive Orbitrap (Thermo Scientific)
Instrument type: LC-ESI-QFT
Ms type: MS2
Ion mode: POSITIVE
Ionization: ESI
Fragmentation mode: HCD
Collision energy: 90
Resolution: 17500
Column name: Acquity BEH C18 1.7um, 2.1x150mm (Waters)
Retention time: 4.089 min
Base peak: 79.0211
Precursor m/z: 130.0863
Precursor type: [M+H]+
Precursor intensity: 2909789.25
m/z	relative intensity	assigned
53.0022	52	C3HO+
53.9975	7	C2NO+
55.0543	8	C4H7+
56.0495	58	C3H6N+
57.0699	9	C4H9+
67.0417	5	C4H5N+
67.0542	30	C5H7+
68.0494	10	C4H6N+
69.0334	999	C4H5O+
71.049	7	C4H7O+
82.0651	54	C5H8N+
84.0808	219	C5H10N+
86.06	6	C4H8NO+
94.0651	10	C6H8N+
112.0757	270	C6H10NO+
130.0864	5	C6H12NO2+
