Mass spectrum: Quinmerac; LC-ESI-QFT; MS2; CE: 15; R=17500; [M+H]+
Name: Quinmerac
Name: 7-chloro-3-methylquinoline-8-carboxylic acid
Formula: C11H8ClNO2
Exact mass: 221.0244
SMILES: CC1=CC2=C(N=C1)C(C(O)=O)=C(Cl)C=C2
InChI: InChI=1S/C11H8ClNO2/c1-6-4-7-2-3-8(12)9(11(14)15)10(7)13-5-6/h2-5H,1H3,(H,14,15)
Instrument: Q Exactive Orbitrap (Thermo Scientific)
Instrument type: LC-ESI-QFT
Ms type: MS2
Ion mode: POSITIVE
Ionization: ESI
Fragmentation mode: HCD
Collision energy: 15
Resolution: 17500
Column name: Acquity BEH C18 1.7um, 2.1x150mm (Waters)
Retention time: 13.186 min
Base peak: 79.0211
Precursor m/z: 222.0316
Precursor type: [M+H]+
Precursor intensity: 13637912.625
m/z	relative intensity	assigned
77.0389	10	C6H5+
87.9948	1	C3H3ClN+
92.0497	5	C6H6N+
94.0652	2	C6H8N+
104.0494	15	C7H6N+
146.0114	2	C6H7ClO2+
204.0212	999	C11H7ClNO+
