Mass spectrum: Carboxin; LC-ESI-QFT; MS2; CE: 30; R=17500; [M+H]+
Name: Carboxin
Name: 6-methyl-N-phenyl-2,3-dihydro-1,4-oxathiine-5-carboxamide
Formula: C12H13NO2S
Exact mass: 235.0667
SMILES: CC1=C(SCCO1)C(=O)NC1=CC=CC=C1
InChI: InChI=1S/C12H13NO2S/c1-9-11(16-8-7-15-9)12(14)13-10-5-3-2-4-6-10/h2-6H,7-8H2,1H3,(H,13,14)
Instrument: Q Exactive Orbitrap (Thermo Scientific)
Instrument type: LC-ESI-QFT
Ms type: MS2
Ion mode: POSITIVE
Ionization: ESI
Fragmentation mode: HCD
Collision energy: 30
Resolution: 17500
Column name: Acquity BEH C18 1.7um, 2.1x150mm (Waters)
Retention time: 15.686 min
Base peak: 79.0211
Precursor m/z: 236.074
Precursor type: [M+H]+
Precursor intensity: 9317748.8125
m/z	relative intensity	assigned
58.9951	1	C2H3S+
61.0284	1	C2H5O2+
73.0106	3	C3H5S+
86.9896	4	C3H3OS+
89.0056	1	C3H5OS+
93.0573	15	C6H7N+
99.0263	3	C5H7S+
117.0369	22	C5H9OS+
120.0443	1	C7H6NO+
124.0216	36	C6H6NS+
132.0444	13	C8H6NO+
143.0161	999	C6H7O2S+
146.0602	2	C9H8NO+
162.0372	1	C9H8NS+
165.0242	5	C8H7NOS+
166.0321	17	C8H8NOS+
174.0549	5	C10H8NO2+
190.0321	1	C10H8NOS+
208.0427	30	C10H10NO2S+
218.0627	1	C12H12NOS+
236.074	137	C12H14NO2S+
