Mass spectrum: Pymetrozine; LC-ESI-QFT; MS2; CE: 15; R=17500; [M+H]+
Name: Pymetrozine
Name: 6-methyl-4-[(E)-pyridin-3-ylmethylideneamino]-2,5-dihydro-1,2,4-triazin-3-one
Formula: C10H11N5O
Exact mass: 217.0964
SMILES: CC1=NNC(=O)N(C1)\N=C\C1=CC=CN=C1
InChI: InChI=1S/C10H11N5O/c1-8-7-15(10(16)14-13-8)12-6-9-3-2-4-11-5-9/h2-6H,7H2,1H3,(H,14,16)/b12-6+
Instrument: Q Exactive Orbitrap (Thermo Scientific)
Instrument type: LC-ESI-QFT
Ms type: MS2
Ion mode: POSITIVE
Ionization: ESI
Fragmentation mode: HCD
Collision energy: 15
Resolution: 17500
Column name: Acquity BEH C18 1.7um, 2.1x150mm (Waters)
Retention time: 5.130 min
Base peak: 79.0211
Precursor m/z: 218.1036
Precursor type: [M+H]+
Precursor intensity: 11724279.21875
m/z	relative intensity	assigned
79.042	2	C5H5N+
80.0494	1	C5H6N+
92.0495	1	C6H6N+
93.0573	1	C6H7N+
105.0447	505	C6H5N2+
106.0524	3	C6H6N2+
107.0603	17	C6H7N2+
114.0662	1	C4H8N3O+
134.0713	4	C7H8N3+
218.1035	999	C10H12N5O+
