Mass spectrum: Oxazepam; LC-ESI-QFT; MS2; CE: 90; R=17500; [M-H]-
Name: Oxazepam
Name: 7-chloro-3-hydroxy-5-phenyl-1,3-dihydro-1,4-benzodiazepin-2-one
Formula: C15H11ClN2O2
Exact mass: 286.0509
SMILES: OC1N=C(C2=CC=CC=C2)C2=CC(Cl)=CC=C2NC1=O
InChI: InChI=1S/C15H11ClN2O2/c16-10-6-7-12-11(8-10)13(9-4-2-1-3-5-9)18-15(20)14(19)17-12/h1-8,15,20H,(H,17,19)
Instrument: Q Exactive Orbitrap (Thermo Scientific)
Instrument type: LC-ESI-QFT
Ms type: MS2
Ion mode: NEGATIVE
Ionization: ESI
Fragmentation mode: HCD
Collision energy: 90
Resolution: 17500
Column name: Acquity BEH C18 1.7um, 2.1x150mm (Waters)
Retention time: 16.709 min
Base peak: 127.0068
Precursor m/z: 285.0436
Precursor type: [M-H]-
Precursor intensity: 4704768.615234
m/z	relative intensity	assigned
63.024	488	C5H3-
65.0033	756	C4HO-
65.0397	155	C5H5-
67.0189	173	C4H3O-
83.0139	105	C4H3O2-
89.0398	74	C7H5-
91.019	168	C6H3O-
91.0302	83	C5H3N2-
93.0346	999	C6H5O-
95.0138	144	C5H3O2-
107.0139	118	C6H3O2-
108.0216	327	C6H4O2-
109.0294	101	C6H5O2-
117.0346	973	C8H5O-
119.0502	116	C8H7O-
123.0453	87	C7H7O2-
130.0423	176	C9H6O-
131.0499	98	C9H7O-
143.0503	275	C10H7O-
145.0294	326	C9H5O2-
151.0068	248	C7H4ClN2-
154.0425	109	C11H6O-
155.0503	113	C11H7O-
156.0583	106	C11H8O-
158.0374	181	C10H6O2-
159.0452	250	C10H7O2-
161.0245	156	C6H8ClNO2-
183.0449	229	C12H7O2-
211.0402	93	C10H10ClNO2-
