Mass spectrum: Quinoxyfen; LC-ESI-QFT; MS2; CE: 90; R=17500; [M+H]+
Name: Quinoxyfen
Name: 5,7-dichloro-4-(4-fluorophenoxy)quinoline
Formula: C15H8Cl2FNO
Exact mass: 306.9967
SMILES: FC1=CC=C(OC2=CC=NC3=CC(Cl)=CC(Cl)=C23)C=C1
InChI: InChI=1S/C15H8Cl2FNO/c16-9-7-12(17)15-13(8-9)19-6-5-14(15)20-11-3-1-10(18)2-4-11/h1-8H
Instrument: Q Exactive Orbitrap (Thermo Scientific)
Instrument type: LC-ESI-QFT
Ms type: MS2
Ion mode: POSITIVE
Ionization: ESI
Fragmentation mode: HCD
Collision energy: 90
Resolution: 17500
Column name: Acquity BEH C18 1.7um, 2.1x150mm (Waters)
Retention time: 19.951 min
Base peak: 79.0211
Precursor m/z: 308.004
Precursor type: [M+H]+
Precursor intensity: 26274684.25
m/z	relative intensity	assigned
51.023	1	C4H3+
53.0022	16	C3HO+
55.0179	1	C3H3O+
57.0135	1	C3H2F+
63.023	2	C5H3+
65.0386	4	C5H5+
69.0135	2	C4H2F+
71.0291	17	C4H4F+
72.9839	2	C3H2Cl+
74.015	56	C6H2+
75.0229	332	C6H3+
79.0178	4	C5H3O+
83.0291	8	C5H4F+
87.0229	1	C7H3+
88.0307	1	C7H4+
89.0386	11	C7H5+
90.0339	2	C6H4N+
91.0416	5	C6H5N+
91.0543	1	C7H7+
93.0335	1	C6H5O+
95.0292	61	C6H4F+
98.9997	4	C5H4Cl+
104.0494	1	C7H6N+
109.0448	7	C7H6F+
112.0318	3	C6H5FO+
113.0397	92	C6H6FO+
114.0338	18	C8H4N+
115.0417	54	C8H5N+
118.0287	7	C7H4NO+
119.0365	1	C7H5NO+
122.9996	126	C7H4Cl+
123.9948	4	C6H3ClN+
124.0075	3	C7H5Cl+
126.0106	8	C6H5ClN+
127.0417	40	C9H5N+
132.0444	14	C8H6NO+
133.0523	10	C8H7NO+
138.0104	5	C7H5ClN+
142.0287	2	C9H4NO+
144.0445	6	C9H6NO+
149.0026	2	C8H4ClN+
150.0106	68	C8H5ClN+
151.0183	69	C8H6ClN+
154.0057	3	C7H5ClNO+
154.0401	12	C11H6O+
156.9605	7	C7H3Cl2+
158.9762	1	C7H5Cl2+
161.0027	14	C9H4ClN+
162.0105	999	C9H5ClN+
163.0057	9	C11HNO+
164.9975	1	C8H4ClNO+
166.0054	9	C8H5ClNO+
167.013	1	C8H6ClNO+
168.021	47	C8H7ClNO+
169.9685	38	C8H4Cl2+
171.9716	13	C7H4Cl2N+
172.9667	5	C9ClNO+
172.9795	1	C7H5Cl2N+
178.0055	9	C9H5ClNO+
178.0166	16	C10H7ClO+
179.0133	73	C9H6ClNO+
180.0211	29	C9H7ClNO+
181.0447	4	C13H6F+
182.0527	3	C13H7F+
183.0605	34	C13H8F+
183.9715	6	C8H4Cl2N+
184.0557	3	C12H7FN+
184.9794	95	C8H5Cl2N+
185.9872	2	C8H6Cl2N+
186.0476	4	C12H7FO+
189.0573	2	C14H7N+
190.0651	27	C14H8N+
191.0729	2	C14H9N+
194.0003	1	C15N+
194.0369	8	C10H9ClNO+
195.9716	9	C9H4Cl2N+
196.9794	159	C9H5Cl2N+
197.9874	1	C9H6Cl2N+
199.9663	2	C8H4Cl2NO+
200.9745	1	C8H5Cl2NO+
201.034	1	C12H8ClN+
204.0133	1	C12H6ClF+
208.0557	38	C14H7FN+
209.0635	54	C14H8FN+
210.0714	23	C14H9FN+
211.0027	1	C15HNO+
211.9669	3	C9H4Cl2NO+
212.9746	2	C9H5Cl2NO+
213.9821	308	C9H6Cl2NO+
217.0215	10	C13H7ClF+
217.0524	1	C15H7NO+
218.0603	2	C15H8NO+
219.0247	4	C12H7ClFN+
221.9872	1	C11H6Cl2N+
224.0263	4	C14H7ClN+
225.034	15	C14H8ClN+
226.0417	2	C14H9ClN+
228.9692	120	C15ClN+
231.0242	1	C13H7ClFN+
232.9917	1	C13H7Cl2+
236.0504	2	C15H7FNO+
237.0584	71	C15H8FNO+
238.0661	4	C15H9FNO+
243.0245	12	C14H7ClFN+
244.0326	18	C14H8ClFN+
245.0401	15	C14H9ClFN+
253.0289	5	C15H8ClNO+
254.0369	3	C15H9ClNO+
255.0248	1	C15H7ClFN+
271.0193	2	C15H7ClFNO+
272.0273	25	C15H8ClFNO+
278.9998	1	C14H8Cl2FN+
