Mass spectrum: 5,6-Benzoflavone; LC-ESI-QFT; MS2; CE: 60; R=17500; [M+H]+
Name: 5,6-Benzoflavone
Name: beta-Naphthoflavone
Name: 3-phenylbenzo[f]chromen-1-one
Formula: C19H12O2
Exact mass: 272.0837
SMILES: O=C1C=C(OC2=C1C1=C(C=CC=C1)C=C2)C1=CC=CC=C1
InChI: InChI=1S/C19H12O2/c20-16-12-18(14-7-2-1-3-8-14)21-17-11-10-13-6-4-5-9-15(13)19(16)17/h1-12H
Instrument: Q Exactive Orbitrap (Thermo Scientific)
Instrument type: LC-ESI-QFT
Ms type: MS2
Ion mode: POSITIVE
Ionization: ESI
Fragmentation mode: HCD
Collision energy: 60
Resolution: 17500
Column name: Acquity BEH C18 1.7um, 2.1x150mm (Waters)
Retention time: 19.580 min
Base peak: 79.0211
Precursor m/z: 273.091
Precursor type: [M+H]+
Precursor intensity: 23012750.625
m/z	relative intensity	assigned
53.0386	2	C4H5+
68.9971	23	C3HO2+
75.0229	1	C6H3+
77.0386	2	C6H5+
95.0492	7	C6H7O+
102.0464	1	C8H6+
103.0542	196	C8H7+
105.0335	39	C7H5O+
114.0464	1	C9H6+
115.0542	474	C9H7+
117.07	4	C9H9+
126.0464	1	C10H6+
127.0542	31	C10H7+
128.0618	1	C10H8+
129.0334	472	C9H5O+
130.0411	1	C9H6O+
131.049	1	C9H7O+
139.0541	3	C11H7+
143.0492	171	C10H7O+
144.0568	2	C10H8O+
145.0648	107	C10H9O+
156.0573	1	C11H8O+
159.0801	1	C11H11O+
161.0597	11	C10H9O2+
167.049	4	C12H7O+
169.0647	1	C12H9O+
171.044	312	C11H7O2+
175.0754	6	C11H11O2+
190.0776	2	C15H10+
202.0777	166	C16H10+
203.0853	7	C16H11+
204.0934	1	C16H12+
205.1015	4	C16H13+
215.0855	34	C17H11+
216.0933	24	C17H12+
217.1011	140	C17H13+
219.0802	1	C16H11O+
226.0777	19	C18H10+
227.0854	29	C18H11+
228.0933	40	C18H12+
229.1011	7	C18H13+
231.0806	6	C17H11O+
244.0882	5	C18H12O+
245.0963	12	C18H13O+
255.0802	5	C19H11O+
272.083	1	C19H12O2+
273.0909	999	C19H13O2+
