Mass spectrum: N-Butyl-p-toluenesulfonamide; LC-ESI-QFT; MS2; CE: 30; R=17500; [M+H]+
Name: N-Butyl-p-toluenesulfonamide
Name: N-butyl-4-methylbenzenesulfonamide
Formula: C11H17NO2S
Exact mass: 227.0980
SMILES: CCCCNS(=O)(=O)C1=CC=C(C)C=C1
InChI: InChI=1S/C11H17NO2S/c1-3-4-9-12-15(13,14)11-7-5-10(2)6-8-11/h5-8,12H,3-4,9H2,1-2H3
Instrument: Q Exactive Orbitrap (Thermo Scientific)
Instrument type: LC-ESI-QFT
Ms type: MS2
Ion mode: POSITIVE
Ionization: ESI
Fragmentation mode: HCD
Collision energy: 30
Resolution: 17500
Column name: Acquity BEH C18 1.7um, 2.1x150mm (Waters)
Retention time: 16.819 min
Base peak: 79.0212
Precursor m/z: 228.1053
Precursor type: [M+H]+
Precursor intensity: 2555536.75
m/z	relative intensity	assigned
57.0699	17	C4H9+
65.0386	32	C5H5+
67.0542	21	C5H7+
72.0808	74	C4H10N+
91.0542	72	C7H7+
95.0492	8	C6H7O+
108.0566	3	C7H8O+
109.0649	245	C7H9O+
120.0577	3	C8H8O+
155.0162	999	C7H7O2S+
172.0428	172	C7H10NO2S+
228.1055	21	C11H18NO2S+
