Mass spectrum: 4-(1,1,3,3-Tetramethylbutyl)phenol; LC-ESI-QFT; MS2; CE: 45; R=17500; [M-H]-
Name: 4-(1,1,3,3-Tetramethylbutyl)phenol
Name: 4-Tert-Octylphenol
Name: 4-(2,4,4-trimethylpentan-2-yl)phenol
Formula: C14H22O
Exact mass: 206.1671
SMILES: CC(C)(C)CC(C)(C)C1=CC=C(O)C=C1
InChI: InChI=1S/C14H22O/c1-13(2,3)10-14(4,5)11-6-8-12(15)9-7-11/h6-9,15H,10H2,1-5H3
Instrument: Q Exactive Orbitrap (Thermo Scientific)
Instrument type: LC-ESI-QFT
Ms type: MS2
Ion mode: NEGATIVE
Ionization: ESI
Fragmentation mode: HCD
Collision energy: 45
Resolution: 17500
Column name: Acquity BEH C18 1.7um, 2.1x150mm (Waters)
Retention time: 19.671 min
Base peak: 205.1597
Precursor m/z: 205.1598
Precursor type: [M-H]-
Precursor intensity: 21504459.66016
m/z	relative intensity	assigned
149.0973	1	C10H13O-
189.1285	20	C13H17O-
205.1597	999	C14H21O-
