Mass spectrum: 4-(4-Hydroxyphenyl)butan-2-one; LC-ESI-QFT; MS2; CE: 15; R=17500; [M+H]+
Name: 4-(4-Hydroxyphenyl)butan-2-one
Name: 4-(4-Hydroxyphenyl)-2-butanone
Formula: C10H12O2
Exact mass: 164.0837
SMILES: CC(=O)CCC1=CC=C(O)C=C1
InChI: InChI=1S/C10H12O2/c1-8(11)2-3-9-4-6-10(12)7-5-9/h4-7,12H,2-3H2,1H3
Instrument: Q Exactive Orbitrap (Thermo Scientific)
Instrument type: LC-ESI-QFT
Ms type: MS2
Ion mode: POSITIVE
Ionization: ESI
Fragmentation mode: HCD
Collision energy: 15
Resolution: 17500
Column name: Acquity BEH C18 1.7um, 2.1x150mm (Waters)
Retention time: 15.236 min
Base peak: 79.0212
Precursor m/z: 165.091
Precursor type: [M+H]+
Precursor intensity: 3685062.25
m/z	relative intensity	assigned
51.0231	1	C4H3+
53.0386	2	C4H5+
55.0542	84	C4H7+
67.0543	1	C5H7+
77.0384	1	C6H5+
91.0542	6	C7H7+
95.0491	1	C6H7O+
109.0284	3	C6H5O2+
111.044	9	C6H7O2+
119.0495	1	C8H7O+
119.0856	20	C9H11+
121.0649	1	C8H9O+
123.044	999	C7H7O2+
137.0597	73	C8H9O2+
137.096	3	C9H13O+
147.0805	27	C10H11O+
165.091	428	C10H13O2+
