Mass spectrum: 2-Methyl-4,6-dinitrophenol; LC-ESI-QFT; MS2; CE: 60; R=17500; [M-H]-
Name: 2-Methyl-4,6-dinitrophenol
Name: 4,6-Dinitro-O-cresol
Formula: C7H6N2O5
Exact mass: 198.0277
SMILES: CC1=C(O)C(=CC(=C1)[N+]([O-])=O)[N+]([O-])=O
InChI: InChI=1S/C7H6N2O5/c1-4-2-5(8(11)12)3-6(7(4)10)9(13)14/h2-3,10H,1H3
Instrument: Q Exactive Orbitrap (Thermo Scientific)
Instrument type: LC-ESI-QFT
Ms type: MS2
Ion mode: NEGATIVE
Ionization: ESI
Fragmentation mode: HCD
Collision energy: 60
Resolution: 17500
Column name: Acquity BEH C18 1.7um, 2.1x150mm (Waters)
Retention time: 16.349 min
Base peak: 197.0204
Precursor m/z: 197.0204
Precursor type: [M-H]-
Precursor intensity: 50353909.88672
m/z	relative intensity	assigned
55.0189	5	C3H3O-
63.0115	1	C4HN-
63.0241	12	C5H3-
64.0193	50	C4H2N-
65.0145	12	C3HN2-
65.0397	152	C5H5-
65.9986	23	C3NO-
66.035	9	C4H4N-
67.0189	19	C4H3O-
68.0142	3	C3H2NO-
68.9982	8	C3HO2-
69.0346	7	C4H5O-
76.0192	5	C5H2N-
78.035	4	C5H4N-
79.0189	4	C5H3O-
80.0267	9	C5H4O-
81.0346	39	C5H5O-
82.0298	2	C4H4NO-
88.0193	15	C6H2N-
92.0141	2	C5H2NO-
93.0346	75	C6H5O-
94.0298	3	C5H4NO-
95.0139	9	C5H3O2-
105.0224	1	C6H3NO-
106.0299	2	C6H4NO-
108.0218	7	C6H4O2-
109.0295	999	C6H5O2-
110.0247	32	C5H4NO2-
111.0089	1	C5H3O3-
121.0295	69	C7H5O2-
122.0247	73	C6H4NO2-
123.0085	3	C6H3O3-
123.0326	45	C6H5NO2-
125.0118	2	C5H3NO3-
125.0243	2	C6H5O3-
134.0249	14	C7H4NO2-
136.0167	3	C7H4O3-
137.0244	824	C7H5O3-
138.0197	115	C6H4NO3-
139.0275	41	C6H5NO3-
150.0196	368	C7H4NO3-
151.0279	27	C7H5NO3-
166.0146	64	C7H4NO4-
167.0224	174	C7H5NO4-
180.0177	750	C7H4N2O4-
183.0173	2	C7H5NO5-
197.0204	289	C7H5N2O5-
