Mass spectrum: Amiloride; LC-ESI-QFT; MS2; CE: 60; R=17500; [M+H]+
Name: Amiloride
Name: 3,5-diamino-6-chloro-N-(diaminomethylidene)pyrazine-2-carboxamide
Formula: C6H8ClN7O
Exact mass: 229.0479
SMILES: NC(=N)NC(=O)C1=NC(Cl)=C(N)N=C1N
InChI: InChI=1S/C6H8ClN7O/c7-2-4(9)13-3(8)1(12-2)5(15)14-6(10)11/h(H4,8,9,13)(H4,10,11,14,15)
Instrument: Q Exactive Orbitrap (Thermo Scientific)
Instrument type: LC-ESI-QFT
Ms type: MS2
Ion mode: POSITIVE
Ionization: ESI
Fragmentation mode: HCD
Collision energy: 60
Resolution: 17500
Column name: Acquity BEH C18 1.7um, 2.1x150mm (Waters)
Retention time: 9.322 min
Base peak: 79.0211
Precursor m/z: 230.0552
Precursor type: [M+H]+
Precursor intensity: 16749937.6875
m/z	relative intensity	assigned
55.0291	1	C2H3N2+
60.0556	999	CH6N3+
61.0396	2	CH5N2O+
61.9791	4	CHClN+
63.9948	21	CH3ClN+
69.0082	1	C2HN2O+
86.0348	17	C2H4N3O+
88.99	14	C2H2ClN2+
91.0057	7	C2H4ClN2+
100.99	18	C3H2ClN2+
107.0007	1	C2H4ClN2O+
107.035	3	C4H3N4+
108.0429	48	C4H4N4+
116.0009	506	C3H3ClN3+
125.0457	8	C4H5N4O+
143.0118	50	C4H4ClN4+
145.0274	1	C4H6ClN4+
161.0223	683	C4H6ClN4O+
170.0227	1	C5H5ClN5+
171.0066	173	C5H4ClN4O+
189.0172	709	C3H4ClN7O+
196.0015	3	C6H3ClN5O+
203.0328	7	C4H6ClN7O+
