Mass spectrum: SR125047; LC-ESI-QFT; MS2; CE: 30; R=17500; [M+H]+
Name: SR125047
Name: 1-[(2Z)-3-(2-Chloro-3'-methoxybiphenyl-4-yl)prop-2-en-1-yl]azepane
Name: 1-[(Z)-3-[3-chloro-4-(3-methoxyphenyl)phenyl]prop-2-enyl]azepane
Formula: C22H26ClNO
Exact mass: 355.1703
SMILES: COc1cccc(-c2ccc(/C=C\CN3CCCCCC3)cc2Cl)c1
InChI: InChI=1S/C22H26ClNO/c1-25-20-10-6-9-19(17-20)21-12-11-18(16-22(21)23)8-7-15-24-13-4-2-3-5-14-24/h6-12,16-17H,2-5,13-15H2,1H3/b8-7-
Instrument: Q Exactive Orbitrap (Thermo Scientific)
Instrument type: LC-ESI-QFT
Ms type: MS2
Ion mode: POSITIVE
Ionization: ESI
Fragmentation mode: HCD
Collision energy: 30
Resolution: 17500
Column name: Acquity BEH C18 1.7um, 2.1x150mm (Waters)
Retention time: 15.993 min
Base peak: 79.0212
Precursor m/z: 356.1776
Precursor type: [M+H]+
Precursor intensity: 27509075.46875
m/z	relative intensity	assigned
55.0179	1	C3H3O+
98.0964	42	C6H12N+
100.1119	4	C6H14N+
165.0704	1	C13H9+
178.0774	2	C14H10+
191.0854	1	C15H11+
192.0932	1	C15H12+
193.1013	9	C15H13+
194.1089	10	C15H14+
201.0467	2	C13H10Cl+
204.0934	1	C16H12+
206.0728	2	C15H10O+
215.026	1	C13H8ClO+
221.0962	76	C16H13O+
222.1038	776	C16H14O+
225.0464	5	C15H10Cl+
226.0542	2	C15H11Cl+
227.0619	1	C15H12Cl+
229.0415	112	C14H10ClO+
229.0776	97	C15H14Cl+
239.062	1	C16H12Cl+
242.0491	58	C15H11ClO+
255.0565	2	C16H12ClO+
255.9709	1	C17HClO+
257.0726	999	C16H14ClO+
267.0674	1	C19H9NO+
356.1773	41	C22H27ClNO+
