Mass spectrum: {4-[({2-[3-Fluoro-4-(trifluoromethyl)phenyl]-4-methyl-1,3-thiazol-5-yl}methyl)sulfanyl]-2-methylphenoxy}acetic acid; LC-ESI-QFT; MS2; CE: 45; R=17500; [M+H]+
Name: {4-[({2-[3-Fluoro-4-(trifluoromethyl)phenyl]-4-methyl-1,3-thiazol-5-yl}methyl)sulfanyl]-2-methylphenoxy}acetic acid
Name: GW0742
Name: 2-[4-[[2-[3-fluoro-4-(trifluoromethyl)phenyl]-4-methyl-1,3-thiazol-5-yl]methylsulfanyl]-2-methylphenoxy]acetic acid
Formula: C21H17F4NO3S2
Exact mass: 471.0586
SMILES: CC1=C(CSC2=CC(C)=C(OCC(O)=O)C=C2)SC(=N1)C1=CC=C(C(F)=C1)C(F)(F)F
InChI: InChI=1S/C21H17F4NO3S2/c1-11-7-14(4-6-17(11)29-9-19(27)28)30-10-18-12(2)26-20(31-18)13-3-5-15(16(22)8-13)21(23,24)25/h3-8H,9-10H2,1-2H3,(H,27,28)
Instrument: Q Exactive Orbitrap (Thermo Scientific)
Instrument type: LC-ESI-QFT
Ms type: MS2
Ion mode: POSITIVE
Ionization: ESI
Fragmentation mode: HCD
Collision energy: 45
Resolution: 17500
Column name: Acquity BEH C18 1.7um, 2.1x150mm (Waters)
Retention time: 20.126 min
Base peak: 79.0211
Precursor m/z: 472.0659
Precursor type: [M+H]+
Precursor intensity: 5358641.171875
m/z	relative intensity	assigned
70.995	11	C3H3S+
85.0106	8	C4H5S+
86.0185	11	C4H6S+
116.9829	3	C4H5S2+
139.0215	4	C7H7OS+
153.0367	1	C8H9OS+
165.017	5	C3H5F4O3+
165.0369	2	C9H9OS+
190.0279	2	C8H11FS2+
198.0344	3	C9H10O3S+
201.0327	5	C10H5F4+
206.0435	55	C5H8F4NO3+
206.9883	2	C8H3F4S+
233.0042	2	C10H5F4S+
242.0587	4	C12H8F4N+
274.031	98	C14H6F2NO3+
275.0386	999	C12H9F4NS+
