Mass spectrum: Bupropion; LC-ESI-QFT; MS2; CE: 60; R=17500; [M+H]+
Name: Bupropion
Name: 2-(tert-butylamino)-1-(3-chlorophenyl)propan-1-one
Formula: C13H18ClNO
Exact mass: 239.1077
SMILES: CC(NC(C)(C)C)C(=O)C1=CC=CC(Cl)=C1
InChI: InChI=1S/C13H18ClNO/c1-9(15-13(2,3)4)12(16)10-6-5-7-11(14)8-10/h5-9,15H,1-4H3
Instrument: Q Exactive Orbitrap (Thermo Scientific)
Instrument type: LC-ESI-QFT
Ms type: MS2
Ion mode: POSITIVE
Ionization: ESI
Fragmentation mode: HCD
Collision energy: 60
Resolution: 17500
Column name: Acquity BEH C18 1.7um, 2.1x150mm (Waters)
Retention time: 13.415 min
Base peak: 79.0211
Precursor m/z: 240.115
Precursor type: [M+H]+
Precursor intensity: 23870015.15625
m/z	relative intensity	assigned
53.0022	2	C3HO+
57.0699	211	C4H9+
72.0445	1	C3H6NO+
77.0385	1	C6H5+
95.049	1	C6H7O+
103.0542	74	C8H7+
104.0621	1	C8H8+
130.0652	63	C9H8N+
131.073	999	C9H9N+
132.0569	9	C9H8O+
139.0309	345	C8H8Cl+
148.0757	4	C9H10NO+
151.0183	11	C8H6ClN+
158.0717	1	C11H10O+
166.0419	255	C9H9ClN+
167.0258	119	C9H8ClO+
184.0524	17	C9H11ClNO+
