Mass spectrum: Aziprotryne; LC-ESI-QFT; MS2; CE: 30; R=17500; [M-H]-
Name: Aziprotryne
Name: 4-azido-6-methylsulfanyl-N-propan-2-yl-1,3,5-triazin-2-amine
Formula: C7H11N7S
Exact mass: 225.0797
SMILES: CSC1=NC(NC(C)C)=NC(N=[N+]=[N-])=N1
InChI: InChI=1S/C7H11N7S/c1-4(2)9-5-10-6(13-14-8)12-7(11-5)15-3/h4H,1-3H3,(H,9,10,11,12)
Instrument: Q Exactive Orbitrap (Thermo Scientific)
Instrument type: LC-ESI-QFT
Ms type: MS2
Ion mode: NEGATIVE
Ionization: ESI
Fragmentation mode: HCD
Collision energy: 30
Resolution: 17500
Column name: Acquity BEH C18 1.7um, 2.1x150mm (Waters)
Retention time: 17.809 min
Base peak: 253.0506
Precursor m/z: 224.0724
Precursor type: [M-H]-
Precursor intensity: 333812.5517578
m/z	relative intensity	assigned
57.9756	74	CNS-
66.0098	999	C2N3-
80.0127	48	C2N4-
83.0615	90	C4H7N2-
87.0022	46	C2H3N2S-
96.0567	99	C4H6N3-
123.0677	48	C5H7N4-
134.0471	78	C5H4N5-
137.9881	97	C3N5S-
138.9957	60	C3HN5S-
151.074	167	C5H7N6-
153.0114	400	C4H3N5S-
154.0192	128	C4H4N5S-
169.0554	128	C6H9N4S-
181.0426	47	C6H7N5S-
196.0662	328	C7H10N5S-
224.0723	498	C7H10N7S-
