Mass spectrum: 4-(4-Hydroxyphenyl)butan-2-one; LC-ESI-QFT; MS2; CE: 75; R=17500; [M+H]+
Name: 4-(4-Hydroxyphenyl)butan-2-one
Name: 4-(4-Hydroxyphenyl)-2-butanone
Formula: C10H12O2
Exact mass: 164.0837
SMILES: CC(=O)CCC1=CC=C(O)C=C1
InChI: InChI=1S/C10H12O2/c1-8(11)2-3-9-4-6-10(12)7-5-9/h4-7,12H,2-3H2,1H3
Instrument: Q Exactive Orbitrap (Thermo Scientific)
Instrument type: LC-ESI-QFT
Ms type: MS2
Ion mode: POSITIVE
Ionization: ESI
Fragmentation mode: HCD
Collision energy: 75
Resolution: 17500
Column name: Acquity BEH C18 1.7um, 2.1x150mm (Waters)
Retention time: 15.236 min
Base peak: 79.0212
Precursor m/z: 165.091
Precursor type: [M+H]+
Precursor intensity: 3882522.3125
m/z	relative intensity	assigned
50.0152	1	C4H2+
51.0231	3	C4H3+
53.0022	4	C3HO+
53.0386	36	C4H5+
55.0179	18	C3H3O+
55.0543	166	C4H7+
65.0386	26	C5H5+
67.0542	97	C5H7+
77.0386	48	C6H5+
79.0542	7	C6H7+
81.0335	9	C5H5O+
81.0699	3	C6H9+
91.0543	130	C7H7+
93.0335	2	C6H5O+
93.0701	1	C7H9+
94.0413	3	C6H6O+
95.0492	163	C6H7O+
103.0542	9	C8H7+
104.062	6	C8H8+
105.0336	78	C7H5O+
107.0491	7	C7H7O+
109.0285	4	C6H5O2+
109.065	3	C7H9O+
110.0363	4	C6H6O2+
111.0441	12	C6H7O2+
115.0542	3	C9H7+
117.0699	8	C9H9+
119.0492	19	C8H7O+
119.0856	12	C9H11+
123.0441	999	C7H7O2+
128.0621	1	C10H8+
131.0492	2	C9H7O+
132.0569	3	C9H8O+
133.0649	1	C9H9O+
137.0598	20	C8H9O2+
147.0804	3	C10H11O+
150.0677	1	C9H10O2+
