Mass spectrum: Kaempferol; LC-ESI-QFT; MS2; CE: 45; R=17500; [M-H]-
Name: Kaempferol
Name: 3,5,7-trihydroxy-2-(4-hydroxyphenyl)chromen-4-one
Formula: C15H10O6
Exact mass: 286.0477
SMILES: OC1=CC=C(C=C1)C1=C(O)C(=O)C2=C(O1)C=C(O)C=C2O
InChI: InChI=1S/C15H10O6/c16-8-3-1-7(2-4-8)15-14(20)13(19)12-10(18)5-9(17)6-11(12)21-15/h1-6,16-18,20H
Instrument: Q Exactive Orbitrap (Thermo Scientific)
Instrument type: LC-ESI-QFT
Ms type: MS2
Ion mode: NEGATIVE
Ionization: ESI
Fragmentation mode: HCD
Collision energy: 45
Resolution: 17500
Column name: Acquity BEH C18 1.7um, 2.1x150mm (Waters)
Retention time: 16.377 min
Base peak: 112.9856
Precursor m/z: 285.0405
Precursor type: [M-H]-
Precursor intensity: 6459846.507813
m/z	relative intensity	assigned
63.024	10	C5H3-
65.0032	7	C4HO-
67.0189	2	C4H3O-
79.0189	2	C5H3O-
83.0139	17	C4H3O2-
91.0189	3	C6H3O-
93.0346	37	C6H5O-
95.014	4	C5H3O2-
97.0297	1	C5H5O2-
107.0139	27	C6H3O2-
108.0216	4	C6H4O2-
109.0295	15	C6H5O2-
117.0346	6	C8H5O-
119.0139	3	C7H3O2-
119.0505	1	C8H7O-
121.0295	4	C7H5O2-
123.0088	7	C6H3O3-
123.0452	4	C7H7O2-
130.0424	3	C9H6O-
131.05	4	C9H7O-
132.0217	1	C8H4O2-
133.0295	9	C8H5O2-
135.0088	15	C7H3O3-
136.0165	3	C7H4O3-
137.0246	14	C7H5O3-
141.0708	4	C11H9-
143.0502	21	C10H7O-
145.0294	12	C9H5O2-
145.0658	5	C10H9O-
147.0088	2	C8H3O3-
147.0453	2	C9H7O2-
151.0037	27	C7H3O4-
152.0113	1	C7H4O4-
153.0194	3	C7H5O4-
154.0424	21	C11H6O-
155.0502	12	C11H7O-
156.0582	3	C11H8O-
157.0295	4	C10H5O2-
157.066	17	C11H9O-
158.0372	2	C10H6O2-
159.0452	20	C10H7O2-
161.0245	9	C9H5O3-
161.0612	2	C10H9O2-
163.0038	20	C8H3O4-
164.0115	7	C8H4O4-
165.0193	11	C8H5O4-
167.0502	9	C12H7O-
168.058	7	C12H8O-
169.0142	3	C7H5O5-
169.0659	38	C12H9O-
171.0452	23	C11H7O2-
173.0245	13	C10H5O3-
173.0606	5	C11H9O2-
174.0323	2	C10H6O3-
175.0399	3	C10H7O3-
182.0376	1	C12H6O2-
183.045	3	C12H7O2-
184.053	6	C12H8O2-
185.0608	55	C12H9O2-
187.0402	38	C11H7O3-
189.0556	5	C11H9O3-
190.9981	1	C9H3O5-
191.0349	3	C10H7O4-
192.0062	4	C9H4O5-
195.0452	10	C13H7O2-
196.0531	3	C13H8O2-
197.061	7	C13H9O2-
198.0327	5	C12H6O3-
199.0402	10	C12H7O3-
201.0557	13	C12H9O3-
211.0402	22	C13H7O3-
212.0485	5	C13H8O3-
213.0557	25	C13H9O3-
214.0272	21	C12H6O4-
215.0352	18	C12H7O4-
217.0506	2	C12H9O4-
219.03	5	C11H7O5-
223.04	1	C14H7O3-
226.0268	1	C13H6O4-
227.0351	12	C13H7O4-
228.0428	1	C13H8O4-
229.0506	51	C13H9O4-
239.035	39	C14H7O4-
240.0428	10	C14H8O4-
241.0506	9	C14H9O4-
243.03	19	C13H7O5-
255.0299	11	C14H7O5-
256.0376	6	C14H8O5-
257.0459	19	C14H9O5-
267.0302	5	C15H7O5-
268.0376	6	C15H8O5-
284.0327	6	C15H8O6-
285.0405	999	C15H9O6-
