Mass spectrum: Pyrithiobac; LC-ESI-QFT; MS2; CE: 75; R=17500; [M+H]+
Name: Pyrithiobac
Name: 2-chloro-6-(4,6-dimethoxypyrimidin-2-yl)sulfanylbenzoic acid
Formula: C13H11ClN2O4S
Exact mass: 326.0128
SMILES: COC1=CC(OC)=NC(SC2=C(C(O)=O)C(Cl)=CC=C2)=N1
InChI: InChI=1S/C13H11ClN2O4S/c1-19-9-6-10(20-2)16-13(15-9)21-8-5-3-4-7(14)11(8)12(17)18/h3-6H,1-2H3,(H,17,18)
Instrument: Q Exactive Orbitrap (Thermo Scientific)
Instrument type: LC-ESI-QFT
Ms type: MS2
Ion mode: POSITIVE
Ionization: ESI
Fragmentation mode: HCD
Collision energy: 75
Resolution: 17500
Column name: Acquity BEH C18 1.7um, 2.1x150mm (Waters)
Retention time: 17.367 min
Base peak: 79.0211
Precursor m/z: 327.0201
Precursor type: [M+H]+
Precursor intensity: 7705206.9375
m/z	relative intensity	assigned
53.0022	6	C3HO+
53.0387	13	C4H5+
54.0338	17	C3H4N+
55.018	5	C3H3O+
55.0291	4	C2H3N2+
56.0132	11	C2H2NO+
57.0448	5	C2H5N2+
63.0229	6	C5H3+
65.0386	8	C5H5+
66.0211	3	C3H2N2+
68.013	3	C3H2NO+
68.9971	179	C3HO2+
69.9924	9	C2NO2+
70.0288	8	C3H4NO+
71.0604	300	C3H7N2+
71.9902	32	C2H2NS+
72.0443	17	C3H6NO+
74.0058	6	C2H4NS+
74.9899	18	C2H3OS+
75.0229	15	C6H3+
77.0387	9	C6H5+
79.0291	6	C4H3N2+
80.0369	9	C4H4N2+
81.0336	6	C5H5O+
81.0448	55	C4H5N2+
82.0287	61	C4H4NO+
83.0128	63	C4H3O2+
83.024	573	C3H3N2O+
85.9695	120	C2NOS+
86.9997	4	C4H4Cl+
88.0216	6	C3H6NS+
89.0386	6	C7H5+
90.034	18	C6H4N+
91.0543	33	C7H7+
92.0257	7	C6H4O+
93.0084	222	C4HN2O+
94.0161	4	C4H2N2O+
94.9951	3	C5H3S+
95.0492	27	C6H7O+
98.9841	25	CH4ClO3+
98.9997	20	C5H4Cl+
100.0183	3	C7H2N+
101.9973	3	C6NO+
102.0465	13	C8H6+
104.0495	4	C7H6N+
105.0448	12	C6H5N2+
105.07	8	C8H9+
107.0241	39	C5H3N2O+
108.0028	5	C6H4S+
108.0444	3	C6H6NO+
109.0397	57	C5H5N2O+
109.9695	10	C4NOS+
110.0238	8	C5H4NO2+
110.9997	8	C6H4Cl+
113.0153	8	C6H6Cl+
114.0339	22	C8H4N+
115.0543	13	C9H7+
116.0497	6	C8H6N+
117.0573	46	C8H7N+
119.0367	3	C7H5NO+
119.0492	6	C8H7O+
120.0446	6	C7H6NO+
122.9996	210	C7H4Cl+
123.9949	40	C6H3ClN+
124.0183	7	C9H2N+
125.0026	5	C6H4ClN+
125.0155	13	C7H6Cl+
125.0347	4	C5H5N2O2+
125.9867	176	C6H3ClO+
126.0107	10	C6H5ClN+
127.0417	17	C9H5N+
127.05	19	C5H7N2O2+
128.0495	92	C9H6N+
129.0101	19	C6H6ClO+
129.0448	21	C8H5N2+
129.0574	50	C9H7N+
129.9636	3	C5H3ClS+
130.0402	4	CH10N2O3S+
132.0113	3	C4H6NO2S+
132.0445	9	C8H6NO+
132.0809	7	C9H10N+
132.9981	20	C7H3NS+
133.0522	10	C8H7NO+
137.0029	7	C7H4ClN+
137.0155	8	C8H6Cl+
138.0106	14	C7H5ClN+
138.9947	22	C7H4ClO+
139.0058	35	C6H4ClN2+
139.0503	424	C6H7N2O2+
140.0496	3	C10H6N+
141.021	24	C9H3NO+
141.9637	17	C6H3ClS+
141.9956	29	C5H4NO2S+
142.0287	5	C9H4NO+
142.9717	8	C6H4ClS+
145.052	3	C9H7NO+
146.0061	7	C8H4NS+
146.0602	26	C9H8NO+
147.9949	273	C8H3ClN+
149.0026	16	C8H4ClN+
150.0105	47	C8H5ClN+
151.0187	9	C8H6ClN+
152.0262	8	C8H7ClN+
152.0368	6	C10H4N2+
153.9817	29	C7H3ClO2+
154.0054	13	C7H5ClNO+
154.9716	7	C7H4ClS+
155.0241	4	C9H3N2O+
156.0212	9	C7H7ClNO+
156.0444	8	C10H6NO+
157.0531	8	C7H10ClN2+
157.0609	106	C6H9N2O3+
159.9952	4	C9H3ClN+
161.0027	7	C9H4ClN+
161.0471	9	C9H7NO2+
161.9981	8	C5H6O4S+
162.0105	50	C9H5ClN+
163.0059	15	C5H7O4S+
163.0183	15	C9H6ClN+
163.9898	115	C8H3ClNO+
164.0261	78	C9H7ClN+
164.9975	19	C8H4ClNO+
166.0055	40	C8H5ClNO+
167.0131	4	C8H6ClNO+
167.967	13	C7H3ClNS+
168.0212	37	C8H7ClNO+
168.9755	3	C7H4ClNS+
169.0051	27	C8H6ClO2+
169.9588	164	C7H3ClOS+
169.9825	15	C7H5ClNS+
170.9665	10	C7H4ClOS+
171.0012	62	C9H3N2S+
171.0082	5	C7H6ClNO2+
171.9922	50	C7H5ClO3+
173.0174	5	C9H5N2S+
174.0244	4	C9H6N2S+
174.0549	5	C10H8NO2+
175.0058	59	C9H4ClN2+
175.9899	130	C9H3ClNO+
176.9977	62	C9H4ClNO+
178.0055	194	C9H5ClNO+
179.0007	9	C8H4ClN2O+
179.0137	4	C3H12ClO4S+
179.0351	5	C6H10ClNO3+
179.9671	24	C8H3ClNS+
179.9847	147	C8H3ClNO2+
180.0211	56	C9H7ClNO+
180.9751	5	C8H4ClNS+
181.9826	23	C8H5ClNS+
183.0006	5	C10H3N2S+
183.0084	16	C8H6ClNO2+
183.9992	4	C8H7ClNS+
184.0088	32	C10H4N2S+
184.9699	69	C7H4ClNOS+
185.9773	14	C7H5ClNOS+
187.0059	47	C7H7O4S+
187.9899	313	C10H3ClNO+
188.0002	18	C12N2O+
189.0217	9	C7H9O4S+
190.0055	9	C10H5ClNO+
191.0135	6	C10H6ClNO+
191.9671	12	C9H3ClNS+
192.0213	7	C10H7ClNO+
192.9747	5	C9H4ClNS+
193.0166	29	C9H6ClN2O+
193.9702	79	C8H3ClN2S+
194.978	17	C8H4ClN2S+
195.9618	41	C8H3ClNOS+
196.0161	27	C9H7ClNO2+
198.9855	4	C8H6ClNOS+
199.9932	41	C8H7ClNOS+
200.9773	4	C8H6ClO2S+
201.0115	4	C10H5N2OS+
201.9938	6	C4H9ClNO4S+
203.0008	9	C10H4ClN2O+
203.9848	999	C10H3ClNO2+
205.0164	12	C10H6ClN2O+
206.0005	197	C10H5ClNO2+
206.9777	7	C9H4ClN2S+
207.9625	3	C9H3ClNOS+
208.9699	8	C9H4ClNOS+
208.9934	45	C9H6ClN2S+
209.9774	7	C9H5ClNOS+
210.032	14	C10H9ClNO2+
218.9779	63	C10H4ClN2S+
219.0323	6	C11H8ClN2O+
219.9619	7	C10H3ClNOS+
220.0159	34	C11H7ClNO2+
220.9939	17	C10H6ClN2S+
222.0021	15	C10H7ClN2S+
222.9727	6	C9H4ClN2OS+
224.0109	25	C10H7ClNO3+
226.991	10	C11H3N2O2S+
227.0032	2	C12H5NO2S+
233.9649	40	C10H3ClN2OS+
236.011	63	C11H7ClNO3+
236.9884	28	C10H6ClN2OS+
237.9966	7	C10H7ClN2OS+
238.0262	13	C11H9ClNO3+
246.9724	21	C11H4ClN2OS+
248.9883	7	C11H6ClN2OS+
250.025	3	C12H9ClNO3+
250.9681	12	C10H4ClN2O2S+
260.9527	3	C11H2ClN2O2S+
261.9602	23	C11H3ClN2O2S+
264.9833	3	C11H6ClN2O2S+
265.9917	2	C11H7ClN2O2S+
267.9838	5	C11H7ClNO3S+
278.9627	19	C11H4ClN2O3S+
279.9705	21	C11H5ClN2O3S+
292.9785	17	C12H6ClN2O3S+
309.0094	3	C13H10ClN2O3S+
