Mass spectrum: Meloxicam; LC-ESI-QFT; MS2; CE: 90; R=17500; [M-H]-
Name: Meloxicam
Name: 4-hydroxy-2-methyl-N-(5-methyl-1,3-thiazol-2-yl)-1,1-dioxo-1lambda6,2-benzothiazine-3-carboxamide
Formula: C14H13N3O4S2
Exact mass: 351.0347
SMILES: CN1C(C(=O)NC2=NC=C(C)S2)=C(O)C2=C(C=CC=C2)S1(=O)=O
InChI: InChI=1S/C14H13N3O4S2/c1-8-7-15-14(22-8)16-13(19)11-12(18)9-5-3-4-6-10(9)23(20,21)17(11)2/h3-7,18H,1-2H3,(H,15,16,19)
Instrument: Q Exactive Orbitrap (Thermo Scientific)
Instrument type: LC-ESI-QFT
Ms type: MS2
Ion mode: NEGATIVE
Ionization: ESI
Fragmentation mode: HCD
Collision energy: 90
Resolution: 17500
Column name: Acquity BEH C18 1.7um, 2.1x150mm (Waters)
Retention time: 16.796 min
Base peak: 189.0169
Precursor m/z: 350.0275
Precursor type: [M-H]-
Precursor intensity: 17365484.1582
m/z	relative intensity	assigned
56.9804	103	C2HS-
57.9757	446	CNS-
58.9961	10	C2H3S-
63.9624	41	O2S-
65.0145	247	C3HN2-
65.9985	82	C3NO-
70.9835	35	C2HNS-
71.9913	10	C2H2NS-
75.024	34	C6H3-
79.0302	168	C4H3N2-
80.9804	25	C4HS-
81.9757	70	C3NS-
83.9913	26	C3H2NS-
86.007	87	C3H4NS-
91.0555	13	C7H7-
92.0254	70	C4H2N3-
93.0346	111	C6H5O-
97.9945	894	C3H2N2S-
101.0397	58	C8H5-
102.0348	48	C7H4N-
105.022	24	C6H3NO-
106.9961	397	C6H3S-
107.9914	39	C5H2NS-
109.0117	70	C6H5S-
111.0022	37	C4H3N2S-
112.0101	66	C4H4N2S-
113.0179	478	C4H5N2S-
116.0505	94	C8H6N-
118.041	37	C6H4N3-
119.0502	999	C8H7O-
120.9991	625	C6H3NS-
122.9906	56	C6H3OS-
124.994	10	C5H3NOS-
131.0376	157	C8H5NO-
132.0455	11	C8H6NO-
134.007	190	C7H4NS-
134.9916	10	C7H3OS-
135.9865	10	C6H2NOS-
136.0225	37	C7H6NS-
136.9939	10	C6H3NOS-
138.0133	17	C5H4N3S-
144.0455	656	C9H6NO-
145.0296	70	C9H5O2-
145.0406	67	C8H5N2O-
146.0611	26	C9H8NO-
148.994	25	C7H3NOS-
151.9809	16	C6H2NO2S-
162.0019	31	C8H4NOS-
164.9884	8	C7H3NO2S-
208.0876	11	C13H10N3-
