Mass spectrum: Cyclopamine; LC-ESI-QFT; MS2; CE: 45; R=17500; [M+H]+
Name: Cyclopamine
Name: (3S,3'R,3'aS,6'S,6aS,6bS,7'aR,9R,11aS,11bR)-3',6',10,11b-tetramethylspiro[2,3,4,6,6a,6b,7,8,11,11a-decahydro-1H-benzo[a]fluorene-9,2'-3a,4,5,6,7,7a-hexahydro-3H-furo[3,2-b]pyridine]-3-ol
Formula: C27H41NO2
Exact mass: 411.3137
SMILES: C[C@@H]1[C@@H]2NC[C@@H](C)C[C@H]2O[C@]11CC[C@H]2[C@@H]3CC=C4C[C@@H](O)CC[C@]4(C)[C@H]3CC2=C1C
InChI: InChI=1S/C27H41NO2/c1-15-11-24-25(28-14-15)17(3)27(30-24)10-8-20-21-6-5-18-12-19(29)7-9-26(18,4)23(21)13-22(20)16(27)2/h5,15,17,19-21,23-25,28-29H,6-14H2,1-4H3/t15-,17+,19-,20-,21-,23-,24+,25-,26-,27-/m0/s1
Instrument: Q Exactive Orbitrap (Thermo Scientific)
Instrument type: LC-ESI-QFT
Ms type: MS2
Ion mode: POSITIVE
Ionization: ESI
Fragmentation mode: HCD
Collision energy: 45
Resolution: 17500
Column name: Acquity BEH C18 1.7um, 2.1x150mm (Waters)
Retention time: 15.350 min
Base peak: 79.0211
Precursor m/z: 412.321
Precursor type: [M+H]+
Precursor intensity: 8551359
m/z	relative intensity	assigned
53.0022	2	C3HO+
53.0387	3	C4H5+
55.0178	2	C3H3O+
55.0542	24	C4H7+
56.0494	3	C3H6N+
57.0335	2	C3H5O+
57.0698	17	C4H9+
58.0287	1	C2H4NO+
58.0651	4	C3H8N+
65.0385	7	C5H5+
67.0541	437	C5H7+
68.0494	3	C4H6N+
69.0335	3	C4H5O+
69.0574	2	C4H7N+
69.0698	18	C5H9+
70.065	53	C4H8N+
72.0444	4	C3H6NO+
77.0387	1	C6H5+
79.0541	31	C6H7+
80.0496	2	C5H6N+
81.0698	159	C6H9+
82.065	12	C5H8N+
83.049	22	C5H7O+
83.0855	7	C6H11+
84.0807	528	C5H10N+
85.0647	231	C5H9O+
91.0541	20	C7H7+
93.0698	47	C7H9+
94.0651	3	C6H8N+
95.0492	2	C6H7O+
95.0855	43	C7H11+
96.0807	57	C6H10N+
97.0647	5	C6H9O+
97.1012	4	C7H13+
98.0963	58	C6H12N+
99.0803	9	C6H11O+
100.0756	19	C5H10NO+
102.0913	177	C5H12NO+
105.0699	53	C8H9+
107.0855	83	C8H11+
109.1011	999	C8H13+
110.0963	20	C7H12N+
111.0805	4	C7H11O+
112.0756	62	C6H10NO+
112.1121	4	C7H14N+
114.0913	947	C6H12NO+
117.0697	12	C9H9+
119.0855	51	C9H11+
121.0649	3	C8H9O+
121.1011	50	C9H13+
123.0805	4	C8H11O+
123.1166	9	C9H15+
124.112	36	C8H14N+
125.096	14	C8H13O+
126.1276	309	C8H16N+
128.0623	1	C10H8+
129.0701	8	C10H9+
131.0854	32	C10H11+
133.1011	183	C10H13+
135.1167	41	C10H15+
137.0964	5	C9H13O+
140.1069	50	C8H14NO+
141.0698	3	C11H9+
142.0779	3	C11H10+
142.1228	13	C8H16NO+
143.0854	41	C11H11+
144.0936	2	C11H12+
145.1011	144	C11H13+
147.1167	49	C11H15+
148.1119	4	C10H14N+
149.096	3	C10H13O+
149.1323	7	C11H17+
150.1278	11	C10H16N+
151.1117	33	C10H15O+
155.0854	14	C12H11+
156.0932	2	C12H12+
157.1011	168	C12H13+
159.1167	122	C12H15+
161.096	4	C11H13O+
161.1323	59	C12H17+
162.1274	3	C11H16N+
163.1116	17	C11H15O+
163.1483	4	C12H19+
167.0854	2	C13H11+
169.101	23	C13H13+
170.1083	2	C13H14+
171.1167	94	C13H15+
173.1324	60	C13H17+
175.1116	11	C12H15O+
175.148	7	C13H19+
177.1273	4	C12H17O+
181.101	8	C14H13+
183.1168	33	C14H15+
184.1241	3	C14H16+
185.1324	49	C14H17+
187.1482	13	C14H19+
189.1276	2	C13H17O+
195.1168	24	C15H15+
196.1249	2	C15H16+
197.1324	44	C15H17+
198.1403	2	C15H18+
199.1479	21	C15H19+
201.1638	5	C15H21+
203.1435	2	C14H19O+
207.117	5	C16H15+
208.1246	1	C16H16+
209.1322	19	C16H17+
210.1414	1	C16H18+
211.148	42	C16H19+
213.1635	102	C16H21+
221.1322	3	C17H17+
223.148	17	C17H19+
224.1561	2	C17H20+
225.1631	13	C17H21+
227.143	3	C16H19O+
227.1791	6	C17H23+
229.1587	2	C16H21O+
233.1318	1	C18H17+
235.1483	5	C18H19+
237.1636	15	C18H21+
239.1793	12	C18H23+
241.1952	5	C18H25+
247.1478	2	C19H19+
249.1643	5	C19H21+
250.1721	3	C19H22+
251.1793	14	C19H23+
253.1948	41	C19H25+
264.1876	4	C20H24+
265.1955	5	C20H25+
269.1902	7	C19H25O+
271.205	3	C19H27O+
275.1792	2	C21H23+
279.2107	37	C21H27+
281.1898	11	C20H25O+
281.2261	11	C21H29+
287.2004	15	C19H27O2+
289.1941	1	C22H25+
295.2061	14	C21H27O+
297.2213	23	C21H29O+
299.2377	5	C21H31O+
303.2105	3	C23H27+
307.2057	5	C22H27O+
311.2379	2	C22H31O+
319.2411	2	C24H31+
321.2212	81	C23H29O+
335.2365	25	C24H31O+
337.2519	2	C24H33O+
359.2737	5	C27H35+
377.2839	45	C27H37O+
394.3104	61	C27H40NO+
395.2952	4	C27H39O2+
412.3209	331	C27H42NO2+
