Mass spectrum: Prodiamine; LC-ESI-QFT; MS2; CE: 15; R=17500; [M-H]-
Name: Prodiamine
Name: 2,4-dinitro-3-N,3-N-dipropyl-6-(trifluoromethyl)benzene-1,3-diamine
Formula: C13H17F3N4O4
Exact mass: 350.1202
SMILES: CCCN(CCC)C1=C(C(N)=C(C=C1[N+]([O-])=O)C(F)(F)F)[N+]([O-])=O
InChI: InChI=1S/C13H17F3N4O4/c1-3-5-18(6-4-2)11-9(19(21)22)7-8(13(14,15)16)10(17)12(11)20(23)24/h7H,3-6,17H2,1-2H3
Instrument: Q Exactive Orbitrap (Thermo Scientific)
Instrument type: LC-ESI-QFT
Ms type: MS2
Ion mode: NEGATIVE
Ionization: ESI
Fragmentation mode: HCD
Collision energy: 15
Resolution: 17500
Column name: Acquity BEH C18 1.7um, 2.1x150mm (Waters)
Retention time: 19.704 min
Base peak: 349.1128
Precursor m/z: 349.1129
Precursor type: [M-H]-
Precursor intensity: 62682246.74414
m/z	relative intensity	assigned
231.9979	1	C12H2F2O3-
248.9999	1	C7H2F3N3O4-
286.1177	2	C13H15F3N3O-
302.1124	1	C13H15F3N3O2-
306.1061	1	C12H15F3N3O3-
349.1128	999	C13H16F3N4O4-
