Mass spectrum: Sulfaquinoxaline; LC-ESI-QFT; MS2; CE: 30; R=17500; [M+H]+
Name: Sulfaquinoxaline
Name: 4-amino-N-quinoxalin-2-ylbenzenesulfonamide
Formula: C14H12N4O2S
Exact mass: 300.0681
SMILES: NC1=CC=C(C=C1)S(=O)(=O)NC1=CN=C2C=CC=CC2=N1
InChI: InChI=1S/C14H12N4O2S/c15-10-5-7-11(8-6-10)21(19,20)18-14-9-16-12-3-1-2-4-13(12)17-14/h1-9H,15H2,(H,17,18)
Instrument: Q Exactive Orbitrap (Thermo Scientific)
Instrument type: LC-ESI-QFT
Ms type: MS2
Ion mode: POSITIVE
Ionization: ESI
Fragmentation mode: HCD
Collision energy: 30
Resolution: 17500
Column name: Acquity BEH C18 1.7um, 2.1x150mm (Waters)
Retention time: 13.985 min
Base peak: 79.0211
Precursor m/z: 301.0754
Precursor type: [M+H]+
Precursor intensity: 7896082
m/z	relative intensity	assigned
53.0386	1	C4H5+
65.0384	2	C5H5+
68.0495	13	C4H6N+
78.0337	1	C5H4N+
79.0178	1	C5H3O+
92.0494	31	C6H6N+
94.0651	3	C6H8N+
96.0444	1	C5H6NO+
108.0444	112	C6H6NO+
110.0601	4	C6H8NO+
120.0557	2	C6H6N3+
144.0555	1	C8H6N3+
145.0634	1	C8H7N3+
146.0713	91	C8H8N3+
152.082	1	C7H10N3O+
156.0113	999	C6H6NO2S+
174.0219	1	C12H2N2+
208.0174	7	C8H6N3O2S+
226.0281	9	C14H2N4+
235.0979	13	C14H11N4+
237.1135	3	C14H13N4+
301.0754	195	C14H13N4O2S+
