Mass spectrum: N,N-Dimethyl-4-nitrosoaniline; LC-ESI-QFT; MS2; CE: 45; R=17500; [M+H]+
Name: N,N-Dimethyl-4-nitrosoaniline
Formula: C8H10N2O
Exact mass: 150.0793
SMILES: CN(C)C1=CC=C(C=C1)N=O
InChI: InChI=1S/C8H10N2O/c1-10(2)8-5-3-7(9-11)4-6-8/h3-6H,1-2H3
Instrument: Q Exactive Orbitrap (Thermo Scientific)
Instrument type: LC-ESI-QFT
Ms type: MS2
Ion mode: POSITIVE
Ionization: ESI
Fragmentation mode: HCD
Collision energy: 45
Resolution: 17500
Column name: Acquity BEH C18 1.7um, 2.1x150mm (Waters)
Retention time: 4.494 min
Base peak: 79.0211
Precursor m/z: 151.0866
Precursor type: [M+H]+
Precursor intensity: 6567560.96875
m/z	relative intensity	assigned
68.0493	3	C4H6N+
81.0573	1	C5H7N+
82.0651	2	C5H8N+
93.0447	5	C5H5N2+
94.0652	2	C6H8N+
95.0856	1	C7H11+
96.0808	1	C6H10N+
106.0651	1	C7H8N+
107.0729	2	C7H9N+
119.0604	9	C7H7N2+
120.0808	33	C8H10N+
121.0886	50	C8H11N+
124.0758	2	C7H10NO+
133.0761	66	C8H9N2+
134.0838	379	C8H10N2+
136.0759	3	C8H10NO+
139.0869	1	C7H11N2O+
151.0866	999	C8H11N2O+
