Mass spectrum: Fenarimol; LC-ESI-QFT; MS2; CE: 75; R=17500; [M+H]+
Name: Fenarimol
Name: (2-chlorophenyl)-(4-chlorophenyl)-pyrimidin-5-ylmethanol
Formula: C17H12Cl2N2O
Exact mass: 330.0327
SMILES: OC(C1=CC=C(Cl)C=C1)(C1=CN=CN=C1)C1=CC=CC=C1Cl
InChI: InChI=1S/C17H12Cl2N2O/c18-14-7-5-12(6-8-14)17(22,13-9-20-11-21-10-13)15-3-1-2-4-16(15)19/h1-11,22H
Instrument: Q Exactive Orbitrap (Thermo Scientific)
Instrument type: LC-ESI-QFT
Ms type: MS2
Ion mode: POSITIVE
Ionization: ESI
Fragmentation mode: HCD
Collision energy: 75
Resolution: 17500
Column name: Acquity BEH C18 1.7um, 2.1x150mm (Waters)
Retention time: 18.058 min
Base peak: 79.0211
Precursor m/z: 331.0399
Precursor type: [M+H]+
Precursor intensity: 18670853.625
m/z	relative intensity	assigned
50.0151	4	C4H2+
52.0182	11	C3H2N+
53.0022	5	C3HO+
53.0386	9	C4H5+
54.0339	338	C3H4N+
55.0179	3	C3H3O+
65.0387	2	C5H5+
71.037	8	ClH8N2+
75.0229	44	C6H3+
77.0385	21	C6H5+
79.0178	4	C5H3O+
79.054	1	C6H7+
81.0447	999	C4H5N2+
86.9997	21	C4H4Cl+
91.0543	57	C7H7+
93.0334	4	C6H5O+
94.0414	6	C6H6O+
95.0492	17	C6H7O+
97.0648	3	C6H9O+
101.0386	24	C8H5+
102.0464	6	C8H6+
103.0543	4	C8H7+
104.0494	2	C7H6N+
105.0335	4	C7H5O+
105.0447	9	C6H5N2+
109.0649	4	C7H9O+
110.9995	10	C6H4Cl+
111.0441	21	C3H10ClNO+
113.0152	10	C6H6Cl+
113.0397	34	C9H5+
119.0492	61	C8H7O+
122.0482	276	C6H6N2O+
123.0241	70	C10H3+
123.0353	64	C2H13Cl2O+
124.0275	53	CH12Cl2NO+
124.0386	30	C3H9ClN2O+
125.0152	5	C7H6Cl+
128.0026	2	C6H5ClO+
128.0495	19	C9H6N+
129.0101	65	C6H6ClO+
129.0447	189	C8H5N2+
129.0565	9	C9H7N+
130.0652	24	C9H8N+
131.0492	3	C9H7O+
137.0153	10	C8H6Cl+
138.0108	5	C7H5ClN+
138.9946	848	C7H4ClO+
140.0261	10	C7H7ClN+
141.0104	5	C7H6ClO+
146.0602	7	C9H8NO+
149.0151	9	C9H6Cl+
152.0623	5	C12H8+
155.0603	4	C10H7N2+
156.0444	2	C10H6NO+
156.0681	12	C10H8N2+
157.0762	12	C10H9N2+
158.0602	9	C10H8NO+
164.0261	15	C9H7ClN+
164.0625	2	C13H8+
165.07	32	C13H9+
169.0648	2	C12H9O+
174.0108	4	C10H5ClN+
176.0621	13	C14H8+
177.0701	10	C14H9+
178.0778	65	C14H10+
183.0548	3	C11H7N2O+
184.0634	5	C11H8N2O+
185.0711	8	C11H9N2O+
187.0545	4	C15H7+
188.0623	5	C15H8+
189.0699	569	C15H9+
190.0656	2	C14H8N+
190.0779	5	C15H10+
191.0374	4	C10H8ClN2+
192.0212	8	C10H7ClNO+
192.057	5	C14H8O+
199.031	31	C13H8Cl+
200.0391	3	C13H9Cl+
203.0731	22	C15H9N+
204.0809	137	C15H10N+
205.0649	80	C15H9O+
205.0884	22	C15H11N+
206.0728	11	C15H10O+
206.0965	7	C15H12N+
212.0384	17	C14H9Cl+
214.0649	10	C16H8N+
215.0728	7	C16H9N+
216.0808	68	C16H10N+
217.0649	28	C16H9O+
217.089	8	C16H11N+
219.032	14	C11H8ClN2O+
220.0517	4	C12H11ClNO+
223.031	162	C15H8Cl+
224.0388	11	C15H9Cl+
231.0911	4	C16H11N2+
232.0757	36	C16H10NO+
232.0997	5	C16H12N2+
232.9923	35	C13H7Cl2+
233.0837	68	C16H11NO+
238.0419	78	C15H9ClN+
240.0575	49	C15H11ClN+
241.0415	63	C15H10ClO+
241.0634	3	C15H12ClN+
242.084	25	C17H10N2+
243.0919	14	C17H11N2+
244.1	4	C17H12N2+
250.0418	35	C16H9ClN+
251.0259	7	C16H8ClO+
251.0496	24	C16H10ClN+
252.0336	76	C16H9ClO+
259.0076	45	C15H9Cl2+
266.0367	39	C16H9ClNO+
267.0449	7	C13H13Cl2N2+
267.0682	3	C16H12ClN2+
268.0521	33	C16H11ClNO+
277.0522	9	C17H10ClN2+
278.0606	11	C17H11ClN2+
279.0694	3	C17H12ClN2+
