Mass spectrum: Theophylline; LC-ESI-QFT; MS2; CE: 60; R=17500; [M+H]+
Name: Theophylline
Name: 1,3-dimethyl-7H-purine-2,6-dione
Formula: C7H8N4O2
Exact mass: 180.0647
SMILES: CN1C2=C(NC=N2)C(=O)N(C)C1=O
InChI: InChI=1S/C7H8N4O2/c1-10-5-4(8-3-9-5)6(12)11(2)7(10)13/h3H,1-2H3,(H,8,9)
Instrument: Q Exactive Orbitrap (Thermo Scientific)
Instrument type: LC-ESI-QFT
Ms type: MS2
Ion mode: POSITIVE
Ionization: ESI
Fragmentation mode: HCD
Collision energy: 60
Resolution: 17500
Column name: Acquity BEH C18 1.7um, 2.1x150mm (Waters)
Retention time: 10.150 min
Base peak: 79.0211
Precursor m/z: 181.072
Precursor type: [M+H]+
Precursor intensity: 2423695.609375
m/z	relative intensity	assigned
65.0386	4	C5H5+
69.0447	144	C3H5N2+
79.0541	2	C6H7+
81.0447	4	C4H5N2+
83.024	14	C3H3N2O+
83.0603	2	C4H7N2+
91.0544	1	C7H7+
93.0336	1	C6H5O+
93.0447	5	C5H5N2+
93.07	2	C7H9+
94.04	6	C4H4N3+
95.0241	1	C4H3N2O+
95.0491	2	C6H7O+
96.0556	257	C4H6N3+
97.0397	12	C4H5N2O+
108.0555	10	C5H6N3+
109.0269	3	C4H3N3O+
110.0712	10	C5H8N3+
113.0345	3	C4H5N2O2+
120.0555	6	C6H6N3+
121.0285	13	C7H5O2+
121.0396	3	C6H5N2O+
122.059	3	C5H6N4+
124.0506	999	C5H6N3O+
133.0283	4	C6H3N3O+
135.044	5	C6H5N3O+
137.0822	18	C6H9N4+
140.0456	3	C5H6N3O2+
142.0612	115	C5H8N3O2+
149.0234	27	C6H3N3O2+
149.0455	3	C6H5N4O+
163.0389	13	C7H5N3O2+
163.0615	3	C7H7N4O+
166.0486	1	C6H6N4O2+
167.056	10	C6H7N4O2+
181.072	258	C7H9N4O2+
