Mass spectrum: CI-1044; LC-ESI-QFT; MS2; CE: 90; R=17500; [M+H]+
Name: CI-1044
Name: N-[(11R)-6-amino-12-oxo-9-phenyl-1,10-diazatricyclo[6.4.1.04,13]trideca-4(13),5,7,9-tetraen-11-yl]pyridine-3-carboxamide
Formula: C23H19N5O2
Exact mass: 397.1539
SMILES: NC1=CC2=C3N(CCC3=C1)C(=O)[C@H](NC(=O)C1=CC=CN=C1)N=C2C1=CC=CC=C1
InChI: InChI=1S/C23H19N5O2/c24-17-11-15-8-10-28-20(15)18(12-17)19(14-5-2-1-3-6-14)26-21(23(28)30)27-22(29)16-7-4-9-25-13-16/h1-7,9,11-13,21H,8,10,24H2,(H,27,29)/t21-/m0/s1
Instrument: Q Exactive Orbitrap (Thermo Scientific)
Instrument type: LC-ESI-QFT
Ms type: MS2
Ion mode: POSITIVE
Ionization: ESI
Fragmentation mode: HCD
Collision energy: 90
Resolution: 17500
Column name: Acquity BEH C18 1.7um, 2.1x150mm (Waters)
Retention time: 12.998 min
Base peak: 79.0211
Precursor m/z: 398.1612
Precursor type: [M+H]+
Precursor intensity: 7529620.125
m/z	relative intensity	assigned
65.0386	11	C5H5+
67.0543	3	C5H7+
78.0338	47	C5H4N+
79.0542	2	C6H7+
80.0495	6	C5H6N+
89.0386	16	C7H5+
91.0542	233	C7H7+
94.0651	2	C6H8N+
95.0492	12	C6H7O+
96.0444	19	C5H6NO+
104.0495	56	C7H6N+
105.0447	8	C6H5N2+
105.0571	6	C7H7N+
106.029	8	C6H4NO+
110.0603	3	C6H8NO+
116.0495	80	C8H6N+
117.0573	118	C8H7N+
118.0651	207	C8H8N+
119.0605	3	C7H7N2+
123.0553	2	C6H7N2O+
128.0495	230	C9H6N+
129.0448	12	C8H5N2+
129.0574	4	C9H7N+
131.0604	21	C8H7N2+
132.0682	78	C8H8N2+
133.076	3	C8H9N2+
134.06	51	C8H8NO+
136.0756	14	C8H10NO+
142.0525	13	C9H6N2+
143.0604	112	C9H7N2+
144.0683	53	C9H8N2+
145.076	593	C9H9N2+
146.0601	34	C9H8NO+
152.0619	6	C12H8+
153.0447	56	C10H5N2+
153.07	5	C12H9+
154.0651	4	C11H8N+
155.0603	8	C10H7N2+
156.0558	4	C9H6N3+
159.0555	5	C9H7N2O+
160.0757	1	C10H10NO+
161.0708	4	C9H9N2O+
165.0698	6	C13H9+
167.0857	7	C13H11+
170.0713	153	C10H8N3+
171.0555	3	C10H7N2O+
171.0789	7	C10H9N3+
176.0621	18	C14H8+
177.0698	22	C14H9+
180.0807	26	C13H10N+
191.0604	9	C13H7N2+
191.0726	2	C14H9N+
192.0812	3	C14H10N+
193.0762	2	C13H9N2+
193.0888	9	C14H11N+
194.0965	21	C14H12N+
203.0729	40	C15H9N+
204.0808	119	C15H10N+
205.0761	24	C14H9N2+
205.0886	10	C15H11N+
206.0839	30	C14H10N2+
207.0914	15	C14H11N2+
208.1	2	C14H12N2+
214.0651	3	C16H8N+
216.0683	6	C15H8N2+
218.0839	3	C15H10N2+
219.0916	48	C15H11N2+
220.0762	1	C15H10NO+
220.0871	9	C14H10N3+
220.0997	13	C15H12N2+
221.0952	3	C14H11N3+
221.1071	26	C15H13N2+
229.076	22	C16H9N2+
230.084	33	C16H10N2+
231.0917	123	C16H11N2+
232.0869	15	C15H10N3+
232.0997	25	C16H12N2+
233.0947	39	C15H11N3+
233.1081	2	C16H13N2+
234.079	3	C15H10N2O+
246.1026	106	C16H12N3+
247.1104	28	C16H13N3+
248.1182	999	C16H14N3+
257.095	2	C17H11N3+
258.1028	1	C17H12N3+
259.0863	1	C17H11N2O+
262.0738	4	C16H10N2O2+
274.0976	2	C17H12N3O+
