Mass spectrum: Oxycarboxin; LC-ESI-QFT; MS2; CE: 90; R=17500; [M-H]-
Name: Oxycarboxin
Name: 6-methyl-4,4-dioxo-N-phenyl-2,3-dihydro-1,4-oxathiine-5-carboxamide
Formula: C12H13NO4S
Exact mass: 267.0565
SMILES: CC1=C(C(=O)NC2=CC=CC=C2)S(=O)(=O)CCO1
InChI: InChI=1S/C12H13NO4S/c1-9-11(18(15,16)8-7-17-9)12(14)13-10-5-3-2-4-6-10/h2-6H,7-8H2,1H3,(H,13,14)
Instrument: Q Exactive Orbitrap (Thermo Scientific)
Instrument type: LC-ESI-QFT
Ms type: MS2
Ion mode: NEGATIVE
Ionization: ESI
Fragmentation mode: HCD
Collision energy: 90
Resolution: 17500
Column name: Acquity BEH C18 1.7um, 2.1x150mm (Waters)
Retention time: 13.600 min
Base peak: 112.9857
Precursor m/z: 266.0493
Precursor type: [M-H]-
Precursor intensity: 586173.6911621
m/z	relative intensity	assigned
57.0346	999	C3H5O-
60.9754	84	CHOS-
63.9625	127	O2S-
78.9861	102	CH3O2S-
83.014	35	C4H3O2-
83.0503	123	C5H7O-
92.0507	404	C6H6N-
