Mass spectrum: 4-Hexyloxyaniline; LC-ESI-QFT; MS2; CE: 15; R=17500; [M+H]+
Name: 4-Hexyloxyaniline
Name: 4-hexoxyaniline
Formula: C12H19NO
Exact mass: 193.1467
SMILES: CCCCCCOC1=CC=C(N)C=C1
InChI: InChI=1S/C12H19NO/c1-2-3-4-5-10-14-12-8-6-11(13)7-9-12/h6-9H,2-5,10,13H2,1H3
Instrument: Q Exactive Orbitrap (Thermo Scientific)
Instrument type: LC-ESI-QFT
Ms type: MS2
Ion mode: POSITIVE
Ionization: ESI
Fragmentation mode: HCD
Collision energy: 15
Resolution: 17500
Column name: Acquity BEH C18 1.7um, 2.1x150mm (Waters)
Retention time: 15.896 min
Base peak: 79.0211
Precursor m/z: 194.1539
Precursor type: [M+H]+
Precursor intensity: 15284328.875
m/z	relative intensity	assigned
92.0494	1	C6H6N+
109.0518	2	C6H7NO+
110.06	65	C6H8NO+
194.1539	999	C12H20NO+
