Mass spectrum: Ronidazole; LC-ESI-QFT; MS2; CE: 60; R=17500; [M+H]+
Name: Ronidazole
Name: (1-methyl-5-nitroimidazol-2-yl)methyl carbamate
Formula: C6H8N4O4
Exact mass: 200.0546
SMILES: CN1C(COC(N)=O)=NC=C1[N+]([O-])=O
InChI: InChI=1S/C6H8N4O4/c1-9-4(3-14-6(7)11)8-2-5(9)10(12)13/h2H,3H2,1H3,(H2,7,11)
Instrument: Q Exactive Orbitrap (Thermo Scientific)
Instrument type: LC-ESI-QFT
Ms type: MS2
Ion mode: POSITIVE
Ionization: ESI
Fragmentation mode: HCD
Collision energy: 60
Resolution: 17500
Column name: Acquity BEH C18 1.7um, 2.1x150mm (Waters)
Retention time: 8.082 min
Base peak: 79.0211
Precursor m/z: 201.0618
Precursor type: [M+H]+
Precursor intensity: 971841
m/z	relative intensity	assigned
54.0339	92	C3H4N+
55.0417	999	C3H5N+
67.0416	34	C4H5N+
72.0444	49	C3H6NO+
94.0527	53	C5H6N2+
110.0475	53	C5H6N2O+
140.0455	263	C5H6N3O2+
