Mass spectrum: Furalaxyl; LC-ESI-QFT; MS2; CE: 30; R=17500; [M+H]+
Name: Furalaxyl
Name: methyl 2-[N-(furan-2-carbonyl)-2,6-dimethylanilino]propanoate
Formula: C17H19NO4
Exact mass: 301.1314
SMILES: COC(=O)C(C)N(C(=O)C1=CC=CO1)C1=C(C)C=CC=C1C
InChI: InChI=1S/C17H19NO4/c1-11-7-5-8-12(2)15(11)18(13(3)17(20)21-4)16(19)14-9-6-10-22-14/h5-10,13H,1-4H3
Instrument: Q Exactive Orbitrap (Thermo Scientific)
Instrument type: LC-ESI-QFT
Ms type: MS2
Ion mode: POSITIVE
Ionization: ESI
Fragmentation mode: HCD
Collision energy: 30
Resolution: 17500
Column name: Acquity BEH C18 1.7um, 2.1x150mm (Waters)
Retention time: 17.020 min
Base peak: 79.0212
Precursor m/z: 302.1387
Precursor type: [M+H]+
Precursor intensity: 29607122.25
m/z	relative intensity	assigned
95.0127	688	C5H3O2+
146.0966	3	C10H12N+
198.0914	2	C13H12NO+
206.118	3	C12H16NO2+
215.0939	5	C13H13NO2+
241.1099	1	C15H15NO2+
242.1175	999	C15H16NO2+
270.1125	43	C16H16NO3+
302.1379	2	C17H20NO4+
