Mass spectrum: 6-Thioguanine; LC-ESI-QFT; MS2; CE: 90; R=17500; [M+H]+
Name: 6-Thioguanine
Name: 2-amino-7H-purine-6-thiol
Formula: C5H5N5S
Exact mass: 167.0266
SMILES: NC1=NC2=C(NC=N2)C(=S)N1
InChI: InChI=1S/C5H5N5S/c6-5-9-3-2(4(11)10-5)7-1-8-3/h1H,(H4,6,7,8,9,10,11)
Instrument: Q Exactive Orbitrap (Thermo Scientific)
Instrument type: LC-ESI-QFT
Ms type: MS2
Ion mode: POSITIVE
Ionization: ESI
Fragmentation mode: HCD
Collision energy: 90
Resolution: 17500
Column name: Acquity BEH C18 1.7um, 2.1x150mm (Waters)
Retention time: 3.077 min
Base peak: 79.0211
Precursor m/z: 168.0338
Precursor type: [M+H]+
Precursor intensity: 6695958
m/z	relative intensity	assigned
55.0291	32	C2H3N2+
61.0107	1	C2H5S+
62.0059	7	CH4NS+
65.0135	5	C3HN2+
67.029	15	C3H3N2+
68.0242	8	C2H2N3+
69.9746	5	C2NS+
71.9902	49	C2H2NS+
80.0243	70	C3H2N3+
81.9746	102	C3NS+
82.04	15	C3H4N3+
83.9903	113	C3H2NS+
87.001	9	C2H3N2S+
92.0243	121	C4H2N3+
93.0322	10	C4H3N3+
96.9855	48	C3HN2S+
99.0011	133	C3H3N2S+
107.0352	550	C4H3N4+
108.9855	330	C4HN2S+
109.0509	39	C4H5N4+
114.0124	1	C3H4N3S+
123.9964	77	C4H2N3S+
126.0121	464	C4H4N3S+
134.0461	573	C5H4N5+
136.0618	1	C5H6N5+
141.0232	1	C4H5N4S+
151.0073	999	C5H3N4S+
168.0339	52	C5H6N5S+
