Mass spectrum: 4-Methoxyaniline; LC-ESI-QFT; MS2; CE: 60; R=17500; [M+H]+
Name: 4-Methoxyaniline
Name: p-Anisidine
Formula: C7H9NO
Exact mass: 123.0684
SMILES: COC1=CC=C(N)C=C1
InChI: InChI=1S/C7H9NO/c1-9-7-4-2-6(8)3-5-7/h2-5H,8H2,1H3
Instrument: Q Exactive Orbitrap (Thermo Scientific)
Instrument type: LC-ESI-QFT
Ms type: MS2
Ion mode: POSITIVE
Ionization: ESI
Fragmentation mode: HCD
Collision energy: 60
Resolution: 17500
Column name: Acquity BEH C18 1.7um, 2.1x150mm (Waters)
Retention time: 3.937 min
Base peak: 79.0211
Precursor m/z: 124.0757
Precursor type: [M+H]+
Precursor intensity: 3574854.125
m/z	relative intensity	assigned
53.0386	21	C4H5+
65.0386	56	C5H5+
66.0464	3	C5H6+
67.0542	3	C5H7+
68.0494	3	C4H6N+
77.0386	4	C6H5+
79.0543	23	C6H7+
80.0495	30	C5H6N+
81.0573	168	C5H7N+
82.0412	1	C5H6O+
92.0258	61	C6H4O+
92.0495	467	C6H6N+
93.0573	999	C6H7N+
94.0652	20	C6H8N+
95.0492	69	C6H7O+
96.0445	9	C5H6NO+
96.081	2	C6H10N+
97.0648	11	C6H9O+
107.0493	3	C7H7O+
108.0444	19	C6H6NO+
108.0569	1	C7H8O+
109.0523	362	C6H7NO+
110.0601	39	C6H8NO+
123.068	47	C7H9NO+
124.0758	796	C7H10NO+
