Mass spectrum: Pirinixic acid; LC-ESI-QFT; MS2; CE: 75; R=17500; [M-H]-
Name: Pirinixic acid
Name: 2-[4-chloro-6-(2,3-dimethylanilino)pyrimidin-2-yl]sulfanylacetic acid
Formula: C14H14ClN3O2S
Exact mass: 323.0495
SMILES: CC1=C(C)C(NC2=NC(SCC(O)=O)=NC(Cl)=C2)=CC=C1
InChI: InChI=1S/C14H14ClN3O2S/c1-8-4-3-5-10(9(8)2)16-12-6-11(15)17-14(18-12)21-7-13(19)20/h3-6H,7H2,1-2H3,(H,19,20)(H,16,17,18)
Instrument: Q Exactive Orbitrap (Thermo Scientific)
Instrument type: LC-ESI-QFT
Ms type: MS2
Ion mode: NEGATIVE
Ionization: ESI
Fragmentation mode: HCD
Collision energy: 75
Resolution: 17500
Column name: Acquity BEH C18 1.7um, 2.1x150mm (Waters)
Retention time: 17.852 min
Base peak: 429.0791
Precursor m/z: 322.0422
Precursor type: [M-H]-
Precursor intensity: 12987363.76953
m/z	relative intensity	assigned
57.9757	343	CNS-
64.0067	47	C3N2-
65.0145	999	C3HN2-
70.9836	7	C2HNS-
71.9914	14	C2H2NS-
90.0098	39	C4N3-
95.9789	12	C3N2S-
130.0663	81	C9H8N-
145.0273	14	C7H3N3O-
145.0772	53	C9H9N2-
154.0538	19	C10H6N2-
168.0697	14	C11H8N2-
169.0773	185	C11H9N2-
194.0725	21	C12H8N3-
196.0884	9	C12H10N3-
199.034	10	C11H7N2S-
226.0444	37	C12H8N3S-
227.0528	8	C12H9N3S-
262.0215	104	C12H9ClN3S-
278.0541	9	C13H13ClN3S-
