Mass spectrum: Carbutamide; LC-ESI-QFT; MS2; CE: 90; R=17500; [M+H]+
Name: Carbutamide
Name: 1-(4-aminophenyl)sulfonyl-3-butylurea
Formula: C11H17N3O3S
Exact mass: 271.0991
SMILES: CCCCNC(=O)NS(=O)(=O)C1=CC=C(N)C=C1
InChI: InChI=1S/C11H17N3O3S/c1-2-3-8-13-11(15)14-18(16,17)10-6-4-9(12)5-7-10/h4-7H,2-3,8,12H2,1H3,(H2,13,14,15)
Instrument: Q Exactive Orbitrap (Thermo Scientific)
Instrument type: LC-ESI-QFT
Ms type: MS2
Ion mode: POSITIVE
Ionization: ESI
Fragmentation mode: HCD
Collision energy: 90
Resolution: 17500
Column name: Acquity BEH C18 1.7um, 2.1x150mm (Waters)
Retention time: 13.516 min
Base peak: 79.0211
Precursor m/z: 272.1063
Precursor type: [M+H]+
Precursor intensity: 7083822.125
m/z	relative intensity	assigned
53.0022	14	C3HO+
53.0386	11	C4H5+
54.0338	1	C3H4N+
55.0179	3	C3H3O+
57.0699	93	C4H9+
58.0651	5	C3H8N+
65.0386	999	C5H5+
68.0494	29	C4H6N+
69.0334	2	C4H5O+
74.0964	31	C4H12N+
78.0339	3	C5H4N+
79.0178	4	C5H3O+
80.0495	214	C5H6N+
83.0492	3	C5H7O+
92.0495	522	C6H6N+
93.0573	24	C6H7N+
96.0446	3	C5H6NO+
107.0604	13	C6H7N2+
108.0444	441	C6H6NO+
109.0523	2	C6H7NO+
110.0601	129	C6H8NO+
120.0558	5	C6H6N3+
124.0761	3	C7H10NO+
128.0621	6	C10H8+
