Mass spectrum: Pyraflufen-ethyl; LC-ESI-QFT; MS2; CE: 75; R=17500; [M+H]+
Name: Pyraflufen-ethyl
Name: ethyl 2-[2-chloro-5-[4-chloro-5-(difluoromethoxy)-1-methylpyrazol-3-yl]-4-fluorophenoxy]acetate
Formula: C15H13Cl2F3N2O4
Exact mass: 412.0204
SMILES: CCOC(=O)COC1=C(Cl)C=C(F)C(=C1)C1=NN(C)C(OC(F)F)=C1Cl
InChI: InChI=1S/C15H13Cl2F3N2O4/c1-3-24-11(23)6-25-10-4-7(9(18)5-8(10)16)13-12(17)14(22(2)21-13)26-15(19)20/h4-5,15H,3,6H2,1-2H3
Instrument: Q Exactive Orbitrap (Thermo Scientific)
Instrument type: LC-ESI-QFT
Ms type: MS2
Ion mode: POSITIVE
Ionization: ESI
Fragmentation mode: HCD
Collision energy: 75
Resolution: 17500
Column name: Acquity BEH C18 1.7um, 2.1x150mm (Waters)
Retention time: 18.455 min
Base peak: 79.0211
Precursor m/z: 413.0277
Precursor type: [M+H]+
Precursor intensity: 5739563.6875
m/z	relative intensity	assigned
58.0287	54	C2H4NO+
62.9632	38	CClO+
75.9948	14	C2H3ClN+
78.0105	35	C2H5ClN+
83.0291	6	C5H4F+
87.995	3	C3H3ClN+
97.0396	25	C4H5N2O+
100.0183	4	C7H2N+
107.0292	16	C7H4F+
108.0244	6	C6H3FN+
109.0446	4	C7H6F+
111.0241	8	C6H4FO+
114.034	9	C8H4N+
115.0543	11	C9H7+
115.9897	24	C4H3ClNO+
116.9902	4	C5H3ClF+
119.0291	3	C8H4F+
120.0371	9	C8H5F+
121.0323	16	C7H4FN+
121.045	5	C8H6F+
122.04	18	C7H5FN+
122.9996	22	C7H4Cl+
123.0241	7	C7H4FO+
123.0352	5	C6H4FN2+
124.0216	10	F3H5NO3+
129.9979	6	C6H4ClF+
131.0056	3	C6H5ClF+
132.0243	17	C8H3FN+
133.0322	5	C8H4FN+
133.0448	77	C9H6F+
134.0401	53	C8H5FN+
134.0528	24	C9H7F+
135.0479	86	C8H6FN+
136.0558	9	C8H7FN+
137.0272	8	C7H4FNO+
137.0511	4	C7H6FN2+
140.9901	107	C7H3ClF+
142.0526	51	C9H6N2+
143.006	12	C7H5ClF+
143.0604	24	C9H7N2+
145.0326	4	C9H4FN+
146.0402	13	C9H5FN+
147.0243	45	C9H4FO+
147.0353	59	C8H4FN2+
148.0194	94	C8H3FNO+
148.056	15	C9H7FN+
149.0154	10	C9H6Cl+
149.0511	8	C8H6FN2+
150.0105	35	C8H5ClN+
150.0349	29	C8H5FNO+
150.0589	5	C8H7FN2+
151.0185	10	C8H6ClN+
151.0429	15	C8H6FNO+
152.0507	13	C8H7FNO+
153.045	4	C10H5N2+
153.9981	27	C8H4ClF+
154.0053	7	C7H5ClNO+
154.9934	9	C7H3ClFN+
156.0011	200	C7H4ClFN+
156.9608	17	C7H3Cl2+
156.9851	14	C7H3ClFO+
156.9963	6	C6H3ClFN2+
158.0168	8	C7H6ClFN+
158.0839	4	C10H10N2+
159.0555	8	C9H7N2O+
160.0432	10	C9H5FN2+
161.0399	46	C10H6FO+
161.051	246	C9H6FN2+
162.035	33	C9H5FNO+
162.0472	7	C10H7FO+
162.0588	98	C9H7FN2+
162.9946	18	C9H4ClO+
163.0057	12	C8H4ClN2+
163.0667	62	C9H8FN2+
163.9899	9	C8H3ClNO+
164.001	15	Cl2FH11O4+
164.0508	33	C9H7FNO+
165.0219	3	C8H4FNO2+
165.0458	3	C8H6FN2O+
166.0299	75	C8H5FNO2+
167.0377	7	C8H6FNO2+
168.0011	317	C8H4ClFN+
168.9853	40	C8H3ClFO+
169.0089	248	C8H5ClFN+
169.9683	7	C8H4Cl2+
170.0167	17	C8H6ClFN+
171.0554	30	C10H7N2O+
171.9715	39	C7H4Cl2N+
172.0629	4	C10H8N2O+
173.0514	17	C10H6FN2+
174.035	13	C10H5FNO+
174.9515	9	C7H2Cl2F+
175.0193	25	C7H7ClFNO+
175.0303	122	C9H4FN2O+
175.0664	16	C10H8FN2+
176.038	11	C9H5FN2O+
176.0505	11	C10H7FNO+
176.9669	102	C7H4Cl2F+
177.0215	259	C9H6ClN2+
178.0056	10	C9H5ClNO+
179.0375	8	C9H6FNO2+
179.0613	6	C9H8FN2O+
180.0455	15	C9H7FNO2+
180.9851	10	C9H3ClFO+
182.0013	21	C5H6ClFNO3+
182.0168	6	C9H6ClFN+
183.0009	63	C9H5ClFO+
183.0119	28	C8H5ClFN2+
183.0251	4	C9H5F2O2+
183.9715	21	C8H4Cl2N+
183.9961	187	C8H4ClFNO+
184.0197	20	C8H6ClFN2+
185.004	35	C8H5ClFNO+
185.0275	20	C8H7ClFN2+
185.071	8	C11H9N2O+
186.0117	50	C8H6ClFNO+
189.0458	100	C10H6FN2O+
190.0538	548	C10H7FN2O+
191.0616	136	C10H8FN2O+
191.9779	45	C7H5Cl2FN+
195.012	38	C9H5ClFN2+
195.0327	15	C9H6FNO3+
195.9961	90	C9H4ClFNO+
197.0043	97	C6H8Cl2FN2+
197.0168	27	C5H4F3N2O3+
197.0276	352	C9H7ClFN2+
198.0117	62	C9H6ClFNO+
198.0355	12	C9H8ClFN2+
198.9826	5	C11FO3+
199.0194	11	C9H7ClFNO+
199.9911	6	C8H4ClFNO2+
201.046	19	C11H6FN2O+
201.9622	144	C8H3Cl2FN+
203.9778	34	C8H5Cl2FN+
204.9621	4	C3HClF3N2O3+
204.973	10	C7H4Cl2FN2+
205.0164	57	C10H6ClN2O+
205.0404	5	C10H6FN2O2+
206.0241	42	C10H7ClN2O+
206.0483	6	C10H7FN2O2+
207.0118	7	C10H5ClFN2+
207.0318	19	C10H8ClN2O+
207.0452	10	C11H8FO3+
209.0004	15	C7H9Cl2NO2+
209.0278	5	C10H7ClFN2+
209.988	7	C10H4ClFO2+
209.999	63	C9H4ClFN2O+
210.0115	15	C10H6ClFNO+
210.9955	11	C10H5ClFO2+
211.007	18	C9H5ClFN2O+
211.967	5	C9H2ClFO3+
211.9908	32	C9H4ClFNO2+
212.0821	47	C14H12O2+
213.0226	999	C9H7ClFN2O+
214.0066	87	C9H6ClFNO2+
217.0409	26	C11H6FN2O2+
217.0607	7	C11H9N2O3+
218.0487	55	C11H7FN2O2+
218.9646	38	C8H4Cl2FNO+
219.0564	72	C11H8FN2O2+
219.9727	22	C8H5Cl2FNO+
223.991	102	C10H4ClFNO2+
225.0226	238	C10H7ClFN2O+
226.0304	383	C10H8ClFN2O+
229.9573	14	C9H3Cl2FNO+
230.9775	10	C10H6Cl2FO+
231.9727	6	C9H5Cl2FNO+
233.0118	16	C11H4FNO4+
233.9882	12	C7HF3N2O4+
234.0191	46	C11H7ClN2O2+
235.027	24	C11H8ClN2O2+
237.0226	7	C11H7ClFN2O+
239.002	9	C10H5ClFN2O2+
240.0097	23	C10H6ClFN2O2+
240.9935	12	C10H5ClFNO3+
241.0175	74	C10H7ClFN2O2+
242.0021	22	C7H9Cl2FN2O2+
242.0254	18	C10H8ClFN2O2+
245.9758	25	C9H5Cl2FN2O+
246.984	33	C12HF2O4+
247.9914	284	C9H7Cl2FN2O+
252.0099	9	C11H6ClFN2O2+
253.0175	536	C11H7ClFN2O2+
254.0253	141	C11H8ClFN2O2+
255.0333	8	C11H9ClFN2O2+
256.0172	13	C11H8ClFNO3+
260.9993	161	C10H8Cl2FN2O+
263.02	6	C12H11Cl2F2+
268.9879	13	C11H7Cl2N2O2+
275.9864	180	C10H7Cl2FN2O2+
