Mass spectrum: Amoxapine; LC-ESI-QFT; MS2; CE: 90; R=17500; [M+H]+
Name: Amoxapine
Name: 8-chloro-6-piperazin-1-ylbenzo[b][1,4]benzoxazepine
Formula: C17H16ClN3O
Exact mass: 313.0982
SMILES: ClC1=CC=C2OC3=C(C=CC=C3)N=C(N3CCNCC3)C2=C1
InChI: InChI=1S/C17H16ClN3O/c18-12-5-6-15-13(11-12)17(21-9-7-19-8-10-21)20-14-3-1-2-4-16(14)22-15/h1-6,11,19H,7-10H2
Instrument: Q Exactive Orbitrap (Thermo Scientific)
Instrument type: LC-ESI-QFT
Ms type: MS2
Ion mode: POSITIVE
Ionization: ESI
Fragmentation mode: HCD
Collision energy: 90
Resolution: 17500
Column name: Acquity BEH C18 1.7um, 2.1x150mm (Waters)
Retention time: 15.206 min
Base peak: 79.0211
Precursor m/z: 314.1055
Precursor type: [M+H]+
Precursor intensity: 20587037.40625
m/z	relative intensity	assigned
53.0022	2	C3HO+
53.0386	5	C4H5+
55.0417	1	C3H5N+
56.0495	6	C3H6N+
65.0385	8	C5H5+
66.0464	2	C5H6+
68.0494	8	C4H6N+
70.0651	105	C4H8N+
71.0603	16	C3H7N2+
77.0386	1	C6H5+
79.0542	8	C6H7+
80.0495	3	C5H6N+
81.0335	2	C5H5O+
83.0604	1	C4H7N2+
84.0684	2	C4H8N2+
91.0542	9	C7H7+
92.0257	3	C6H4O+
92.0621	2	C7H8+
93.0573	16	C6H7N+
95.0492	11	C6H7O+
104.0495	29	C7H6N+
105.0447	5	C6H5N2+
106.065	3	C7H8N+
107.0491	1	C7H7O+
116.0495	2	C8H6N+
117.0573	5	C8H7N+
118.0651	39	C8H8N+
119.073	6	C8H9N+
120.0444	2	C7H6NO+
125.0154	1	C7H6Cl+
125.9867	11	C6H3ClO+
128.0495	1	C9H6N+
130.0652	2	C9H8N+
134.0601	1	C8H8NO+
137.0155	1	C8H6Cl+
139.0541	4	C11H7+
140.0494	14	C10H6N+
143.0729	1	C10H9N+
144.0809	1	C10H10N+
149.0152	9	C9H6Cl+
150.0105	3	C8H5ClN+
152.062	5	C12H8+
153.0572	2	C11H7N+
153.0699	1	C12H9+
154.0055	1	C7H5ClNO+
164.0494	262	C12H6N+
165.0574	49	C12H7N+
165.0689	5	C13H9+
166.065	10	C12H8N+
167.0729	15	C12H9N+
168.0445	1	C11H6NO+
168.0571	3	C12H8O+
169.052	4	C11H7NO+
169.0649	1	C12H9O+
170.0599	1	C11H8NO+
173.0153	51	C11H6Cl+
174.0105	31	C10H5ClN+
177.0572	2	C13H7N+
178.0652	3	C13H8N+
179.0604	5	C12H7N2+
179.0729	5	C13H9N+
180.0683	6	C12H8N2+
180.0808	19	C13H10N+
181.0759	2	C12H9N2+
181.0886	6	C13H11N+
182.06	2	C12H8NO+
182.084	1	C12H10N2+
183.0679	14	C12H9NO+
188.0263	1	C11H7ClN+
190.0651	7	C14H8N+
191.0731	9	C14H9N+
192.0443	2	C13H6NO+
192.0685	3	C13H8N2+
192.0808	3	C14H10N+
193.0523	999	C13H7NO+
194.0597	4	C13H8NO+
195.0678	1	C13H9NO+
196.0757	1	C13H10NO+
199.0307	1	C13H8Cl+
200.0262	105	C12H7ClN+
201.0338	7	C12H8ClN+
202.0181	1	C12H7ClO+
203.0372	1	C11H8ClN2+
204.0212	1	C11H7ClNO+
204.0808	1	C15H10N+
205.0525	1	C11H10ClN2+
205.0762	11	C14H9N2+
206.084	14	C14H10N2+
207.0678	5	C14H9NO+
207.0917	22	C14H11N2+
208.0756	5	C14H10NO+
208.0995	12	C14H12N2+
209.0833	6	C14H11NO+
210.0549	16	C10H11ClN2O+
214.0293	1	C12H7ClN2+
214.042	4	C13H9ClN+
215.0257	2	C13H8ClO+
215.0372	3	C12H8ClN2+
216.0211	3	C12H7ClNO+
216.0453	1	C12H9ClN2+
217.0763	1	C15H9N2+
218.0368	3	C12H9ClNO+
218.0841	3	C15H10N2+
219.0676	10	C15H9NO+
219.092	2	C15H11N2+
220.0508	7	C13H6N3O+
220.0752	5	C15H10NO+
221.071	3	C14H9N2O+
226.0296	2	C13H7ClN2+
227.0132	6	C13H6ClNO+
227.037	1	C13H8ClN2+
228.0211	34	C13H7ClNO+
229.0168	1	C12H6ClN2O+
229.0289	3	C13H8ClNO+
229.0534	1	C13H10ClN2+
230.0367	4	C13H9ClNO+
232.0992	1	C16H12N2+
233.1073	2	C16H13N2+
234.0787	4	C15H10N2O+
234.091	1	C16H12NO+
235.0866	35	C15H11N2O+
236.0941	1	C15H12N2O+
239.0369	2	C14H8ClN2+
240.0212	1	C14H7ClNO+
241.03	2	C14H8ClNO+
241.0524	7	C17H7NO+
242.0371	1	C14H9ClNO+
242.0604	3	C14H11ClN2+
243.0452	1	C14H10ClNO+
243.0687	1	C14H12ClN2+
244.0524	2	C14H11ClNO+
247.0872	1	C13H14ClN3+
253.0286	1	C15H8ClNO+
253.0523	4	C15H10ClN2+
254.0239	8	C14H7ClN2O+
254.037	11	C15H9ClNO+
255.0315	3	C14H8ClN2O+
256.0397	1	C14H9ClN2O+
267.0689	1	C16H12ClN2+
269.0471	8	C15H10ClN2O+
271.0632	25	C15H12ClN2O+
281.0482	3	C16H10ClN2O+
282.0553	1	C16H11ClN2O+
295.0632	4	C17H12ClN2O+
297.0789	1	C17H14ClN2O+
