Mass spectrum: 1-Phenylurea; LC-ESI-QFT; MS2; CE: 60; R=17500; [M+H]+
Name: 1-Phenylurea
Name: phenylurea
Formula: C7H8N2O
Exact mass: 136.0637
SMILES: NC(=O)NC1=CC=CC=C1
InChI: InChI=1S/C7H8N2O/c8-7(10)9-6-4-2-1-3-5-6/h1-5H,(H3,8,9,10)
Instrument: Q Exactive Orbitrap (Thermo Scientific)
Instrument type: LC-ESI-QFT
Ms type: MS2
Ion mode: POSITIVE
Ionization: ESI
Fragmentation mode: HCD
Collision energy: 60
Resolution: 17500
Column name: Acquity BEH C18 1.7um, 2.1x150mm (Waters)
Retention time: 11.084 min
Base peak: 79.0211
Precursor m/z: 137.0709
Precursor type: [M+H]+
Precursor intensity: 6410396.90625
m/z	relative intensity	assigned
53.0386	6	C4H5+
54.0339	1	C3H4N+
55.0179	1	C3H3O+
65.0385	31	C5H5+
68.0495	19	C4H6N+
69.0336	1	C4H5O+
77.0387	1	C6H5+
78.0338	2	C5H4N+
79.0177	3	C5H3O+
82.0287	1	C4H4NO+
86.0036	40	C6N+
91.0544	1	C7H7+
92.0495	123	C6H6N+
93.0573	2	C6H7N+
94.0652	244	C6H8N+
95.0492	14	C6H7O+
96.0442	2	C5H6NO+
105.0447	7	C6H5N2+
108.0443	3	C6H6NO+
110.0601	48	C6H8NO+
119.0604	1	C7H7N2+
120.0444	999	C7H6NO+
137.071	24	C7H9N2O+
