Mass spectrum: 5-Hydroxyanthranillic acid; GC-EI-TOF; MS; n TMS; RT:713.572 sec
Name: 5-Hydroxyanthranillic acid
Class: Natural Product
Formula: C7H7NO3
Exact mass: 153.04259
SMILES: Oc(c1)cc(C(O)=O)c(N)c1
InChI: InChI=1S/C7H7NO3/c8-6-2-1-4(9)3-5(6)7(10)11/h1-3,9H,8H2,(H,10,11)
Instrument: Pegasus III TOF-MS system, Leco; GC 6890, Agilent Technologies
Instrument type: GC-EI-TOF
Ms type: MS
Ion mode: POSITIVE
Column name: CP-SIL 8 CB LOW BLEED/MS
Retention time: 713.572  sec
m/z	relative intensity
85	15
86	9
87	12
88	5
89	21
90	12
91	27
92	8
93	18
94	9
95	16
96	10
97	11
98	7
99	8
100	9
101	6
102	11
103	36
104	27
105	41
106	37
107	18
108	9
109	22
110	11
111	8
112	3
113	4
114	2
115	23
116	28
117	32
118	21
119	37
120	24
121	25
122	10
123	6
124	5
125	3
126	4
127	4
128	6
129	7
130	48
131	61
132	52
133	144
134	74
135	44
136	36
137	28
138	7
139	4
140	3
141	7
142	4
143	11
144	9
145	10
146	23
147	251
148	80
149	92
150	41
151	20
152	10
153	5
154	3
155	3
156	3
157	7
158	6
159	5
160	19
161	11
162	50
163	36
164	38
165	19
166	10
167	6
168	4
169	4
170	6
171	2
172	4
173	2
174	7
175	3
176	18
177	20
178	26
179	45
180	25
181	11
182	5
183	2
184	3
185	1
186	3
187	1
188	7
189	7
190	36
191	18
192	27
193	21
194	19
195	13
196	7
197	3
198	2
199	1
200	1
201	1
202	5
203	2
204	10
205	9
206	39
207	64
208	40
209	16
210	10
211	4
212	2
213	1
215	1
216	2
217	1
218	10
219	6
220	23
221	16
222	109
223	33
224	19
225	5
226	2
227	1
228	1
230	1
231	1
232	6
233	4
234	11
235	7
236	49
237	21
238	33
239	11
240	5
241	1
244	1
245	1
246	6
247	3
248	13
249	6
250	15
251	10
252	8
253	7
254	3
255	1
258	1
260	1
261	1
262	10
263	6
264	20
265	9
266	69
267	21
268	9
269	3
270	1
271	1
276	1
277	1
278	5
279	5
280	33
281	42
282	23
283	8
284	3
285	1
290	1
291	1
292	2
293	2
294	4
295	3
296	27
297	37
298	16
299	7
300	2
304	2
305	1
306	2
307	2
308	2
309	1
310	5
311	3
312	4
313	3
314	3
315	1
320	7
321	6
322	5
323	2
324	3
325	2
326	1
327	1
336	1
337	2
338	6
339	4
340	2
341	1
347	1
350	1
351	1
352	7
353	51
354	999
355	375
356	172
357	43
358	11
359	3
360	1
361	1
362	1
363	1
364	1
368	6
369	70
370	29
371	13
372	4
373	1
