Mass spectrum: D-Ribulose 1,5-diphosphate; GC-EI-TOF; MS; n TMS; RT:944.8926846 sec
Name: Ribulose-1,5-Bisphosphate
Name: D-Ribulose 1,5-diphosphate
Class: Natural Product
Formula: C5H12O11P2
Exact mass: 309.98548
SMILES: OC(COP(O)(O)=O)C(O)C(=O)COP(O)(O)=O
InChI: InChI=1S/C5H12O11P2/c6-3(1-15-17(9,10)11)5(8)4(7)2-16-18(12,13)14/h3,5-6,8H,1-2H2,(H2,9,10,11)(H2,12,13,14)
Instrument: Pegasus III TOF-MS system, Leco; GC 6890, Agilent Technologies
Instrument type: GC-EI-TOF
Ms type: MS
Ion mode: POSITIVE
Column name: CP-SIL 8 CB LOW BLEED/MS
Retention time: 944.8926846 sec
m/z	relative intensity
85	25
86	10
87	30
88	14
89	320
90	54
91	50
93	40
94	8
95	23
96	55
97	4
98	18
99	47
100	36
101	377
102	64
103	216
104	18
105	52
106	10
107	10
108	6
111	23
112	23
113	54
114	32
115	106
116	97
117	56
119	65
120	13
121	72
122	5
124	3
125	50
126	256
127	53
128	20
129	348
130	39
131	141
133	577
134	46
135	192
136	37
137	84
140	25
141	31
142	202
143	65
144	25
145	25
146	28
147	567
148	104
149	75
150	9
151	98
152	59
153	3
154	44
155	32
156	24
157	7
159	25
161	23
163	38
164	1
165	30
166	42
167	32
168	73
169	29
170	15
172	10
173	340
174	36
175	25
176	5
177	22
179	25
181	91
182	35
183	58
184	37
185	7
186	8
188	16
189	6
191	68
192	41
193	121
194	30
195	126
196	62
197	33
198	24
199	17
200	1
203	12
204	3
205	10
207	157
209	25
210	37
211	555
212	86
213	35
216	9
217	69
218	32
219	10
223	2
225	314
226	83
227	120
228	38
229	20
234	8
236	77
237	29
239	7
240	8
241	68
242	17
243	36
244	4
245	3
247	16
251	2
253	57
254	8
255	8
256	46
257	32
258	12
262	3
265	9
266	14
267	10
271	27
272	35
273	16
274	29
275	2
276	9
277	22
278	12
282	41
283	53
284	13
285	13
286	7
287	12
292	10
294	19
297	16
298	19
299	999
300	316
301	160
302	7
305	3
308	12
309	10
311	1
312	9
313	35
314	51
315	252
316	55
317	46
322	8
323	18
325	2
327	22
328	24
331	10
332	3
333	6
337	4
338	11
339	3
340	30
341	77
342	51
343	22
348	22
352	9
354	65
355	46
356	51
357	988
358	358
359	137
360	27
361	4
363	4
364	13
365	10
366	6
368	18
369	5
370	18
372	3
373	10
374	7
376	7
379	6
380	7
381	2
385	27
386	78
387	804
388	353
389	170
390	47
391	5
392	19
395	22
396	12
398	27
402	28
405	2
407	17
409	17
411	1
412	5
414	47
416	10
418	5
420	7
427	9
428	3
429	6
432	8
433	4
434	8
440	16
441	15
442	38
443	4
444	9
445	4
447	8
450	9
451	35
452	2
453	21
454	1
459	26
460	18
464	9
469	2
471	6
475	2
480	24
484	4
489	6
491	3
493	14
497	1
