Mass spectrum: D-(+)-Glucosamine; GC-EI-TOF; MS; n TMS; RT:741.056 sec
Name: D-Glucosamine
Name: D-(+)-Glucosamine
Class: Natural Product
Formula: C6H13NO5
Exact mass: 179.07937
SMILES: OCC(O1)C(O)C(O)C(N)C(O)1
InChI: InChI=1S/C6H13NO5/c7-3-5(10)4(9)2(1-8)12-6(3)11/h2-6,8-11H,1,7H2/t2-,3-,4-,5-,6-/m1/s1
Instrument: Pegasus III TOF-MS system, Leco; GC 6890, Agilent Technologies
Instrument type: GC-EI-TOF
Ms type: MS
Ion mode: POSITIVE
Column name: CP-SIL 8 CB LOW BLEED/MS
Retention time: 741.056  sec
m/z	relative intensity
85	15
86	38
87	33
88	17
89	176
90	18
91	8
92	1
93	3
94	2
95	2
96	6
97	6
98	10
99	23
100	80
101	81
102	46
103	280
104	30
105	30
106	5
107	1
108	1
109	1
110	5
111	9
112	8
113	49
114	14
115	19
116	25
117	229
118	30
119	21
120	3
121	1
123	1
124	1
125	4
126	8
127	24
128	46
129	309
130	59
131	79
132	24
133	113
134	18
135	10
136	2
137	6
138	1
139	2
140	6
141	28
142	25
143	38
144	43
145	13
146	13
147	616
148	103
149	61
150	8
151	4
152	4
153	6
154	5
155	4
156	6
157	169
158	31
159	999
160	133
161	46
162	7
163	13
164	3
165	3
166	1
167	2
168	20
169	8
170	5
171	9
172	12
173	10
174	4
175	9
176	3
177	5
178	2
179	3
180	1
181	2
182	2
183	2
184	1
185	6
186	5
187	4
188	9
189	36
190	17
191	16
192	4
193	2
195	5
196	1
197	1
198	2
199	4
200	9
201	34
202	14
203	28
204	63
205	367
206	74
207	36
208	6
209	3
211	1
212	1
213	5
214	9
215	14
216	29
217	121
218	27
219	13
220	3
221	9
222	2
223	1
226	1
227	9
228	5
229	55
230	18
231	16
232	29
233	10
234	5
235	1
239	2
240	7
241	5
242	7
243	9
244	9
245	3
246	2
247	1
253	1
255	2
256	1
257	1
258	5
259	2
260	2
261	7
262	2
267	4
268	3
269	2
273	21
274	7
275	3
276	1
277	7
278	4
279	1
285	2
288	1
289	1
290	4
291	14
292	4
293	2
301	1
302	1
303	7
304	14
305	12
306	7
307	7
308	2
309	1
316	3
317	2
318	8
319	209
320	73
321	33
322	9
323	2
330	2
332	3
333	2
334	1
335	1
357	2
358	1
359	1
375	1
420	1
422	1
447	4
448	2
449	1
450	1
463	1
