Mass spectrum: 5-Keto-D-Gluconic acid; GC-EI-TOF; MS; n TMS; RT:739.488 sec
Name: 5-Keto-D-Gluconate
Name: 5-Keto-D-Gluconic acid
Class: Natural Product
Formula: C6H10O7
Exact mass: 194.04265
SMILES: OCC(O)C(O)C(O)C(=O)C(O)=O
InChI: InChI=1S/C6H10O7/c7-1-2(8)3(9)4(10)5(11)6(12)13/h2-4,7-10H,1H2,(H,12,13)/t2-,3+,4-/m1/s1
Instrument: Pegasus III TOF-MS system, Leco; GC 6890, Agilent Technologies
Instrument type: GC-EI-TOF
Ms type: MS
Ion mode: POSITIVE
Column name: CP-SIL 8 CB LOW BLEED/MS
Retention time: 739.488  sec
m/z	relative intensity
85	35
86	17
87	29
88	17
89	392
90	36
91	18
92	3
93	3
94	4
95	4
96	3
97	3
98	11
99	22
100	70
101	64
102	57
103	416
104	46
105	75
106	8
107	3
108	2
109	1
110	8
111	6
112	5
113	19
114	135
115	45
116	32
117	129
118	20
119	53
120	7
121	4
122	1
123	1
124	2
125	3
126	14
127	12
128	19
129	91
130	57
131	115
132	24
133	270
134	40
135	24
136	3
137	2
138	2
139	1
140	7
141	6
142	52
143	106
144	21
145	18
146	4
147	999
148	162
149	112
150	14
151	9
152	5
153	2
154	6
155	3
156	8
157	12
158	13
159	11
160	5
161	9
162	2
163	39
164	7
165	4
166	4
167	3
168	8
169	3
170	28
171	18
172	45
173	132
174	34
175	18
176	4
177	13
178	3
179	2
181	1
182	8
183	4
184	4
185	3
186	10
187	6
188	15
189	470
190	100
191	81
192	15
193	7
194	3
195	1
196	1
198	16
199	3
200	9
201	27
202	36
203	15
204	82
205	25
206	10
207	19
208	5
209	3
210	5
211	1
212	5
213	2
214	16
215	8
216	18
217	134
218	30
219	56
220	14
221	56
222	14
223	9
224	2
225	1
226	3
227	2
228	6
229	4
230	8
231	16
232	11
233	7
234	3
235	2
236	1
237	1
238	1
239	1
240	8
241	3
242	11
243	5
244	8
245	13
246	6
247	5
248	2
249	1
250	1
254	2
255	1
256	7
257	4
258	2
259	2
260	3
261	2
262	65
263	63
264	18
265	8
266	2
268	1
269	1
270	5
271	2
272	4
273	1
274	5
275	2
276	3
277	273
278	87
279	54
280	14
281	5
282	2
283	1
284	2
286	2
287	1
288	11
289	4
290	3
291	9
292	80
293	61
294	26
295	10
296	3
300	1
302	5
303	2
304	4
305	39
306	14
307	8
308	2
314	3
315	1
316	2
317	1
318	5
319	6
320	5
321	69
322	24
323	11
324	3
328	3
329	1
330	4
331	2
332	6
333	52
334	43
335	27
336	23
337	9
338	3
344	2
345	1
346	1
347	1
348	1
349	2
350	1
356	1
358	1
363	5
364	152
365	63
366	29
367	9
368	2
374	1
376	4
377	2
378	1
379	1
380	1
403	1
404	3
405	1
407	2
420	1
447	1
448	1
449	1
450	2
451	1
462	1
463	1
477	2
478	15
479	10
480	5
481	3
482	1
