Mass spectrum: Myricetin; GC-EI-TOF; MS; n TMS; RT:1141.753 sec
Name: Myricetin
Class: Natural Product
Formula: C15H10O8
Exact mass: 318.03757
SMILES: Oc(c3)cc(O1)c(c(O)3)C(=O)C(O)=C1c(c2)cc(O)c(O)c(O)2
InChI: InChI=1S/C15H10O8/c16-6-3-7(17)11-10(4-6)23-15(14(22)13(11)21)5-1-8(18)12(20)9(19)2-5/h1-4,16-20,22H
Instrument: Pegasus III TOF-MS system, Leco; GC 6890, Agilent Technologies
Instrument type: GC-EI-TOF
Ms type: MS
Ion mode: POSITIVE
Column name: CP-SIL 8 CB LOW BLEED/MS
Retention time: 1141.753  sec
m/z	relative intensity
85	60
86	21
87	67
88	38
89	93
90	25
91	75
92	25
93	45
94	1
95	15
96	17
97	39
98	21
99	111
100	16
101	34
102	29
103	156
104	33
105	133
106	9
107	60
108	12
109	35
110	3
111	38
112	3
113	33
114	3
115	149
116	23
117	93
118	22
119	133
120	28
121	44
122	10
123	21
124	5
125	11
126	12
127	34
128	44
129	69
130	21
131	237
132	42
133	625
134	95
135	145
136	24
137	34
138	19
139	42
140	11
141	52
142	16
143	50
144	9
145	64
146	11
147	999
148	184
149	166
150	46
151	59
152	46
153	44
154	17
155	33
156	13
157	41
158	12
159	31
160	11
161	41
162	17
163	80
164	34
165	117
166	41
167	51
168	16
169	28
170	12
171	33
172	10
173	26
174	15
175	36
176	42
177	104
178	64
179	249
180	58
181	69
182	17
183	15
185	27
187	28
188	10
189	114
190	52
191	208
192	69
193	273
194	66
195	80
196	16
197	18
198	13
199	16
200	21
201	27
202	58
203	76
204	20
205	68
206	23
207	251
208	71
209	87
210	26
211	28
212	4
213	22
214	12
215	40
216	15
217	53
218	18
219	50
220	22
221	62
222	24
223	66
224	26
225	27
226	17
227	22
228	12
229	17
230	9
231	26
232	3
233	22
234	21
235	52
236	25
237	65
238	25
239	33
240	19
241	20
242	14
243	19
244	9
245	16
246	7
247	25
248	15
249	61
250	27
251	112
252	29
253	84
254	35
255	27
256	11
257	23
258	7
259	15
260	4
261	30
262	11
263	29
264	21
265	51
266	29
267	63
268	23
269	32
270	5
271	14
272	10
273	18
274	8
275	27
276	3
277	34
278	26
279	54
280	19
281	84
282	27
283	34
284	7
285	13
286	13
287	9
288	4
289	14
290	14
291	28
292	16
293	38
294	16
295	74
296	26
297	26
298	13
299	17
301	17
302	5
303	23
304	17
305	23
306	15
307	33
308	21
309	34
310	15
311	24
312	15
313	14
314	7
315	28
316	171
317	101
318	19
319	15
320	15
321	29
322	14
323	46
324	37
325	38
326	17
327	44
328	12
329	14
330	9
331	15
332	6
333	9
334	3
335	20
336	15
337	41
338	14
339	27
340	17
341	27
342	10
343	15
344	7
345	7
346	13
347	10
348	7
349	12
350	13
351	27
352	19
353	31
354	27
355	39
356	19
357	29
358	17
359	14
360	12
361	9
362	9
363	6
364	9
365	19
366	19
367	48
368	71
369	69
370	26
371	29
372	10
373	14
374	5
375	48
376	33
377	18
378	18
379	31
380	18
381	38
382	21
383	27
384	12
385	31
386	16
387	14
388	6
389	7
390	10
391	6
392	15
393	76
394	47
395	43
396	26
397	35
398	22
399	47
400	18
401	15
402	9
403	7
405	7
406	3
407	13
408	8
409	18
410	15
411	30
412	28
413	33
414	22
415	19
416	18
417	9
419	6
420	8
421	6
422	9
423	13
424	8
425	22
426	21
427	33
428	24
429	39
430	23
431	24
432	17
433	9
435	5
436	7
437	8
438	3
439	14
440	9
441	23
442	23
443	25
444	11
445	15
446	6
447	7
448	8
449	5
450	2
451	9
452	7
453	13
454	17
455	24
456	28
457	33
458	24
459	21
460	12
461	4
463	4
464	5
465	5
467	15
468	13
469	19
470	26
471	46
472	31
473	37
474	23
475	16
476	7
477	6
480	4
481	7
482	14
483	14
484	21
485	40
486	29
487	45
488	29
489	24
490	14
491	4
492	4
494	2
495	7
496	8
497	13
498	22
499	25
500	32
