Mass spectrum: 5-Hydroxy-L-tryptophan; GC-EI-TOF; MS; n TMS; RT:921.609 sec
Name: 5-Hydroxy-L-tryptophan
Class: Natural Product
Formula: C11H12N2O3
Exact mass: 220.08479
SMILES: C1=CC2=C(C=C1O)C(=CN2)C[C@@H](C(=O)O)N
InChI: InChI=1S/C11H12N2O3/c12-9(11(15)16)3-6-5-13-10-2-1-7(14)4-8(6)10/h1-2,4-5,9,13-14H,3,12H2,(H,15,16)/t9-/m0/s1
Instrument: Pegasus III TOF-MS system, Leco; GC 6890, Agilent Technologies
Instrument type: GC-EI-TOF
Ms type: MS
Ion mode: POSITIVE
Column name: CP-SIL 8 CB LOW BLEED/MS
Retention time: 921.609  sec
m/z	relative intensity
85	4
86	9
87	5
88	3
89	5
93	2
97	1
100	72
101	31
102	12
103	8
105	5
112	1
113	1
115	12
116	5
117	10
118	2
119	5
121	3
128	10
129	12
130	14
131	17
132	28
133	19
134	4
135	3
140	1
141	1
142	6
143	3
144	5
145	5
146	16
147	78
148	15
149	7
154	3
155	3
156	4
157	1
158	5
159	6
160	5
161	2
163	1
169	3
170	3
171	2
172	13
173	3
174	9
175	7
176	3
177	2
182	2
184	4
185	3
186	17
187	6
188	7
189	3
190	7
191	2
192	1
193	1
194	1
196	4
198	2
199	2
200	10
201	6
202	91
203	30
204	18
205	6
206	1
214	3
215	3
216	10
217	10
218	61
219	16
220	3
227	1
228	1
229	1
230	4
231	3
232	5
233	4
244	1
245	1
246	5
248	5
249	1
258	2
260	14
261	5
262	4
272	3
274	4
275	5
276	7
277	3
278	6
279	2
286	2
287	3
288	41
289	30
290	999
291	399
292	144
293	38
294	7
295	2
303	2
304	2
315	1
318	6
320	1
321	1
329	1
330	1
362	1
391	3
392	2
403	4
405	1
465	1
485	1
491	1
493	3
494	2
