Mass spectrum: trans-4-Hydroxy-L-proline; GC-EI-TOF; MS; n TMS; RT:560.844 sec
Name: trans-4-Hydroxy-L-proline
Class: Natural Product
Formula: C5H9NO3
Exact mass: 131.05824
SMILES: [H]C(O)(C1)CC([H])(N1)C(O)=O
InChI: InChI=1S/C5H9NO3/c7-3-1-4(5(8)9)6-2-3/h3-4,6-7H,1-2H2,(H,8,9)/t3-,4+/m1/s1
Instrument: Pegasus III TOF-MS system, Leco; GC 6890, Agilent Technologies
Instrument type: GC-EI-TOF
Ms type: MS
Ion mode: POSITIVE
Column name: CP-SIL 8 CB LOW BLEED/MS
Retention time: 560.844  sec
m/z	relative intensity
85	24
86	27
87	15
88	6
89	14
90	2
91	1
92	2
93	2
94	7
95	6
96	11
97	11
98	17
99	22
100	60
101	55
102	16
103	30
104	4
105	10
106	2
107	1
108	3
109	2
110	4
111	11
112	14
113	21
114	13
115	22
116	23
117	25
118	6
119	14
120	2
121	1
122	1
124	42
125	7
126	12
127	3
128	11
129	40
130	10
131	45
132	12
133	94
134	16
135	9
136	2
138	6
139	17
140	986
141	142
142	115
143	20
144	6
145	3
146	2
147	243
148	39
149	34
150	5
151	2
152	5
153	1
154	2
155	1
156	10
157	5
158	51
159	10
160	3
161	1
166	5
167	1
168	3
169	1
170	14
171	3
172	12
173	4
174	4
175	8
176	2
177	3
178	1
179	1
182	4
183	1
184	1
185	1
186	2
187	7
188	22
189	8
190	4
191	4
192	1
196	2
197	1
198	3
199	1
200	3
201	1
202	1
203	3
204	1
205	1
212	1
214	31
215	8
216	10
217	2
218	3
219	1
221	1
228	12
229	8
230	999
231	223
232	95
233	16
234	3
240	5
242	2
244	1
255	1
258	1
259	1
260	4
304	29
305	11
306	5
307	1
332	18
333	7
334	2
