Mass spectrum: 1,6-Anhydro-beta-D-glucose; GC-EI-TOF; MS; n TMS; RT:645.412 sec
Name: 1,6-Anhydroglucose
Name: 1,6-Anhydro-beta-D-glucose
Class: Natural Product
Formula: C6H10O5
Exact mass: 162.05282
SMILES: C1[C@@H]2[C@H]([C@@H]([C@H]([C@H](O1)O2)O)O)O
InChI: InChI=1S/C6H10O5/c7-3-2-1-10-6(11-2)5(9)4(3)8/h2-9H,1H2/t2-,3-,4+,5-,6-/m1/s1
Instrument: Pegasus III TOF-MS system, Leco; GC 6890, Agilent Technologies
Instrument type: GC-EI-TOF
Ms type: MS
Ion mode: POSITIVE
Column name: CP-SIL 8 CB LOW BLEED/MS
Retention time: 645.412  sec
m/z	relative intensity
85	70
86	14
87	36
88	15
89	47
90	10
91	8
92	2
93	2
94	4
95	9
96	8
97	27
98	16
99	62
100	10
101	230
102	33
103	418
104	41
105	37
106	3
107	3
108	1
109	23
110	3
111	40
112	7
113	68
114	13
115	62
116	129
117	213
118	28
119	46
120	6
121	5
122	1
123	1
124	2
125	9
126	5
127	34
128	9
129	442
130	61
131	141
132	25
133	296
134	44
135	36
136	6
137	6
138	1
139	6
140	3
141	16
142	66
143	153
144	24
145	34
146	8
147	627
148	104
149	101
150	14
151	11
152	16
153	9
154	5
155	76
156	13
157	34
158	5
159	29
160	5
161	75
162	11
163	22
164	4
165	2
167	1
168	3
169	36
170	20
171	58
172	11
173	11
174	11
175	15
176	2
177	37
178	6
179	3
181	1
182	1
183	22
184	3
185	4
186	1
187	6
188	2
189	228
190	63
191	204
192	37
193	20
194	3
195	3
196	3
197	4
198	4
199	15
200	7
201	7
202	2
203	18
204	999
205	205
206	94
207	17
208	3
209	1
213	1
214	1
215	15
216	9
217	868
218	190
219	85
220	15
221	13
222	3
223	1
227	3
229	6
230	6
231	17
232	4
233	3
234	2
239	1
241	2
242	9
243	55
244	18
245	22
246	6
247	3
249	1
255	1
257	3
259	5
260	17
261	9
262	3
263	1
265	1
271	1
273	10
274	2
275	1
291	1
304	3
305	5
306	2
317	15
318	5
319	1
331	1
332	12
333	105
334	40
335	19
336	4
363	1
