Mass spectrum: Gly-Gly; GC-EI-TOF; MS; n TMS; RT:699.131 sec
Name: Glycyl-Glycine
Name: Gly-Gly
Class: Natural Product
Formula: C4H8N2O3
Exact mass: 132.05349
SMILES: NCC(=O)NCC(O)=O
InChI: InChI=1S/C4H8N2O3/c5-1-3(7)6-2-4(8)9/h1-2,5H2,(H,6,7)(H,8,9)
Instrument: Pegasus III TOF-MS system, Leco; GC 6890, Agilent Technologies
Instrument type: GC-EI-TOF
Ms type: MS
Ion mode: POSITIVE
Column name: CP-SIL 8 CB LOW BLEED/MS
Retention time: 699.131  sec
m/z	relative intensity
85	11
86	320
87	43
88	28
89	5
91	1
93	1
97	6
98	4
99	8
100	171
101	44
102	76
103	20
104	5
105	1
111	1
113	6
114	12
115	14
116	49
117	51
118	10
119	12
126	1
127	3
128	3
129	32
130	57
131	36
132	17
133	49
134	9
135	4
141	20
142	8
143	9
144	16
145	5
146	17
147	175
148	40
149	28
150	4
151	1
153	1
157	2
158	14
159	8
160	31
161	7
162	4
163	1
169	5
170	3
171	2
172	38
173	11
174	999
175	202
176	181
177	35
178	10
179	1
187	21
188	10
189	3
190	2
191	1
199	1
200	2
201	6
202	3
203	2
204	4
213	2
214	8
215	28
216	9
217	5
218	3
232	1
243	30
244	11
245	6
246	2
247	1
258	1
259	1
318	1
332	2
333	69
334	56
335	19
336	4
438	1
