Mass spectrum: beta-Lactose; GC-EI-TOF; MS; n TMS; RT:992.394 sec
Name: b-Lactose
Name: beta-Lactose
Class: Natural Product
Formula: C12H22O11
Exact mass: 342.11621
SMILES: OCC(O1)C(O)C(O)C(O)C1OC(C(CO)2)C(O)C(O)C(O)O2
InChI: InChI=1S/C12H22O11/c13-1-3-5(15)6(16)9(19)12(22-3)23-10-4(2-14)21-11(20)8(18)7(10)17/h3-20H,1-2H2/t3-,4-,5+,6+,7-,8-,9-,10-,11-,12+/m1/s1
Instrument: Pegasus III TOF-MS system, Leco; GC 6890, Agilent Technologies
Instrument type: GC-EI-TOF
Ms type: MS
Ion mode: POSITIVE
Column name: CP-SIL 8 CB LOW BLEED/MS
Retention time: 992.394  sec
m/z	relative intensity
85	25
86	16
87	21
88	23
89	248
90	24
91	16
92	3
93	3
94	4
95	7
96	6
97	47
98	9
99	26
100	52
101	78
102	42
103	520
104	55
105	94
106	13
107	7
108	3
109	22
110	7
111	18
112	7
113	30
114	29
115	33
116	37
117	406
118	44
119	33
120	4
121	3
122	1
123	2
124	2
125	5
126	7
127	22
128	17
129	458
130	77
131	98
132	19
133	203
134	29
135	21
136	3
137	2
138	5
139	10
140	7
141	19
142	25
143	121
144	19
145	34
146	9
147	999
148	164
149	121
150	16
151	11
152	7
153	14
154	7
155	79
156	20
157	101
158	25
159	19
160	188
161	41
162	14
163	39
164	7
165	5
166	2
167	8
168	11
169	319
170	52
171	30
172	11
173	25
174	10
175	17
176	3
177	15
178	4
179	4
180	6
181	7
182	5
183	14
184	5
185	9
186	11
187	8
188	4
189	93
190	26
191	180
192	34
193	18
194	4
195	6
196	6
197	5
198	7
199	11
200	5
201	12
202	5
203	30
204	844
205	357
206	114
207	38
208	8
209	3
210	24
211	6
212	5
213	2
214	4
215	20
216	24
217	550
218	137
219	61
220	13
221	33
222	8
223	8
224	2
225	1
226	1
227	10
228	7
229	41
230	26
231	54
232	19
233	34
234	10
235	6
236	1
237	1
238	1
239	2
240	5
241	13
242	8
243	94
244	32
245	31
246	15
247	23
248	6
249	3
250	1
252	1
253	1
254	4
255	7
256	10
257	12
258	6
259	24
260	9
261	5
262	8
263	5
264	1
265	6
266	2
267	1
268	8
269	13
270	10
271	90
272	25
273	15
274	6
275	8
276	8
277	4
278	3
279	3
281	1
282	1
283	1
284	1
285	2
286	2
287	3
288	2
289	3
290	1
291	16
292	6
293	4
294	1
295	1
297	1
299	1
300	22
301	8
302	4
303	2
304	5
305	26
306	12
307	8
308	3
309	1
313	2
315	1
316	1
317	10
318	12
319	165
320	60
321	29
322	7
323	2
328	1
329	1
330	2
331	32
332	21
333	13
334	5
335	2
336	1
337	4
338	1
343	4
344	4
345	8
346	4
347	2
348	1
349	1
358	4
359	15
360	23
361	317
362	129
363	62
364	19
365	6
366	1
373	1
374	4
375	1
376	2
377	3
378	2
379	1
389	1
390	7
391	3
392	1
393	2
405	1
408	1
409	11
410	6
411	3
421	1
422	2
423	1
427	2
428	1
435	1
436	1
449	2
450	3
451	14
452	9
453	4
454	1
464	3
465	2
466	2
479	4
480	19
481	14
482	6
483	2
484	1
