Mass spectrum: Maleamic acid; GC-EI-TOF; MS; n TMS; RT:518.758 sec
Name: Maleamic acid
Class: Natural Product
Formula: C4H5NO3
Exact mass: 115.02694
SMILES: NC(=O)C=CC(O)=O
InChI: InChI=1S/C4H5NO3/c5-3(6)1-2-4(7)8/h1-2H,(H2,5,6)(H,7,8)/b2-1-
Instrument: Pegasus III TOF-MS system, Leco; GC 6890, Agilent Technologies
Instrument type: GC-EI-TOF
Ms type: MS
Ion mode: POSITIVE
Column name: CP-SIL 8 CB LOW BLEED/MS
Retention time: 518.758  sec
m/z	relative intensity
85	36
86	28
87	14
88	6
89	10
90	2
91	2
92	1
93	1
94	1
95	1
96	5
97	9
98	31
99	22
100	80
101	23
102	15
103	14
104	2
105	4
106	1
110	16
111	8
112	29
113	25
114	4
115	32
116	10
117	23
118	3
119	6
120	1
124	6
125	3
126	40
127	31
128	12
129	37
130	9
131	26
132	25
133	87
134	13
135	6
140	4
141	52
142	274
143	51
144	17
145	3
146	7
147	999
148	164
149	144
150	19
151	4
154	171
155	21
156	11
157	5
158	3
159	2
168	2
169	102
170	30
171	7
172	4
173	2
174	1
200	1
201	2
213	1
214	13
215	4
216	4
217	1
228	105
229	27
230	10
242	3
243	1
244	170
245	37
246	14
247	1
259	12
260	1
261	1
