Mass spectrum: Uridine; GC-EI-TOF; MS; n TMS; RT:925.844 sec
Name: Uridine
Class: Natural Product
Formula: C9H12N2O6
Exact mass: 244.06954
SMILES: OC[C@@H](O1)[C@@H](O)[C@@H](O)[C@@H]1N(C=2)C(=O)NC(=O)C2
InChI: InChI=1S/C9H12N2O6/c12-3-4-6(14)7(15)8(17-4)11-2-1-5(13)10-9(11)16/h1-2,4,6-8,12,14-15H,3H2,(H,10,13,16)/t4-,6-,7-,8-/m1/s1
Instrument: Pegasus III TOF-MS system, Leco; GC 6890, Agilent Technologies
Instrument type: GC-EI-TOF
Ms type: MS
Ion mode: POSITIVE
Column name: CP-SIL 8 CB LOW BLEED/MS
Retention time: 925.844  sec
m/z	relative intensity
85	66
86	42
87	41
88	21
89	93
90	11
91	7
92	7
93	11
94	20
95	28
96	80
97	58
98	53
99	475
100	280
101	193
102	88
103	504
104	53
105	43
106	7
107	2
108	9
109	18
110	25
111	63
112	30
113	121
114	29
115	118
116	83
117	171
118	26
119	48
120	8
121	2
122	2
123	5
124	17
125	24
126	91
127	60
128	30
129	294
130	91
131	161
132	34
133	300
134	53
135	43
136	8
137	6
138	16
139	11
140	67
141	48
142	55
143	178
144	39
145	87
146	13
147	999
148	224
149	164
150	32
151	17
152	14
153	115
154	53
155	53
156	31
157	63
158	23
159	27
160	9
161	4
162	1
163	27
164	4
165	2
166	9
167	115
168	137
169	731
170	123
171	88
172	11
173	24
174	19
175	17
176	5
177	17
178	2
179	2
181	9
182	11
183	81
184	30
185	138
186	23
187	9
188	3
189	45
190	9
191	96
192	21
193	16
194	5
195	5
196	151
197	32
198	13
199	8
200	4
201	11
202	8
203	33
204	27
205	12
206	3
207	14
208	6
209	26
210	5
211	10
212	3
213	12
214	3
215	72
216	23
217	864
218	256
219	108
220	23
221	14
222	4
223	7
224	453
225	95
226	34
227	12
228	4
229	18
230	76
231	42
232	14
233	4
235	1
236	1
237	1
238	3
239	7
240	8
241	297
242	84
243	426
244	110
245	470
246	111
247	49
248	8
250	1
252	1
253	3
255	47
256	37
257	318
258	451
259	208
260	68
261	21
262	3
263	12
265	1
267	1
269	6
270	6
271	4
280	2
281	2
283	22
284	6
285	27
286	27
287	10
288	3
289	1
295	1
296	2
297	3
298	2
299	24
300	5
301	3
304	1
306	1
307	1
310	2
311	20
312	8
313	16
314	42
315	143
316	41
317	15
318	8
323	8
324	3
326	4
327	1
329	2
331	2
332	3
333	2
337	2
338	1
339	7
340	2
342	2
346	2
347	1
348	50
349	21
350	8
351	2
352	4
353	2
358	1
362	1
370	1
371	11
372	4
373	3
374	1
384	2
386	5
387	11
388	3
389	1
395	1
399	1
401	3
403	3
404	2
407	1
408	1
409	2
413	1
414	4
415	4
417	1
424	1
430	2
434	1
440	2
442	6
453	1
464	1
465	1
