Mass spectrum: 3-Hydroxy-DL-kynurenine; GC-EI-TOF; MS; n TMS; RT:919.235 sec
Name: 3-Hydroxy-DL-kynurenine
Class: Natural Product
Formula: C10H12N2O4
Exact mass: 224.07971
SMILES: OC(=O)C(N)CC(=O)c(c1)c(N)c(O)cc1
InChI: InChI=1S/C10H12N2O4/c11-6(10(15)16)4-8(14)5-2-1-3-7(13)9(5)12/h1-3,6,13H,4,11-12H2,(H,15,16)
Instrument: Pegasus III TOF-MS system, Leco; GC 6890, Agilent Technologies
Instrument type: GC-EI-TOF
Ms type: MS
Ion mode: POSITIVE
Column name: CP-SIL 8 CB LOW BLEED/MS
Retention time: 919.235  sec
m/z	relative intensity
85	9
86	26
87	12
88	8
89	20
90	8
91	11
92	7
93	7
94	4
95	6
96	2
97	2
98	4
99	6
100	200
101	35
102	27
103	45
104	17
105	15
106	14
107	5
108	3
109	9
110	4
111	2
112	2
113	3
114	15
115	25
116	22
117	24
118	10
119	13
120	9
121	7
122	4
123	3
124	1
125	6
126	2
127	2
128	8
129	9
130	92
131	44
132	47
133	60
134	27
135	23
136	46
137	18
138	5
139	1
140	2
141	3
142	12
143	6
144	11
145	7
146	17
147	206
148	56
149	35
150	31
151	10
152	4
153	2
154	2
155	1
156	4
157	4
158	9
159	26
160	22
161	12
162	25
163	20
164	55
165	22
166	15
167	3
168	1
169	2
170	7
171	4
172	22
173	12
174	41
175	20
176	22
177	9
178	20
179	13
180	6
181	4
182	3
183	1
184	3
185	4
186	7
187	7
188	17
189	35
190	255
191	78
192	139
193	32
194	14
195	4
196	2
197	1
198	6
199	2
200	6
201	8
202	55
203	25
204	24
205	12
206	61
207	26
208	41
209	11
210	3
211	1
213	1
214	8
215	14
216	24
217	43
218	999
219	217
220	110
221	22
222	24
223	11
224	5
225	1
227	2
228	2
229	1
230	5
231	6
232	16
233	29
234	31
235	12
236	12
237	4
238	3
239	1
241	1
242	1
243	3
244	4
245	5
246	25
247	14
248	15
249	9
250	7
251	5
252	3
253	2
254	1
255	1
256	1
257	1
258	2
259	4
260	6
261	4
262	10
263	7
264	26
265	17
266	9
267	3
268	1
271	1
272	1
273	4
274	9
275	6
276	6
277	4
278	10
279	22
280	463
281	184
282	67
283	17
284	3
285	1
286	1
287	2
288	6
289	17
290	86
291	59
292	26
293	11
294	9
295	18
296	20
297	10
298	3
299	2
300	1
301	1
302	3
303	6
304	11
305	47
306	139
307	104
308	45
309	15
310	3
311	1
315	1
317	4
318	6
319	5
320	3
321	8
322	8
323	10
324	5
325	1
332	2
333	6
334	8
335	4
336	2
347	1
349	2
350	2
351	3
352	16
353	10
354	5
355	2
362	1
363	1
364	1
365	1
366	2
367	2
368	2
370	1
377	4
378	14
379	23
380	47
381	31
382	14
383	4
384	1
392	1
393	5
394	9
395	37
396	26
397	12
398	4
399	1
405	1
406	5
407	15
408	15
409	8
410	3
411	1
421	8
422	31
423	32
424	18
425	8
426	3
427	1
468	1
497	3
498	3
499	1
