Mass spectrum: L-Serine; GC-EI-QQ; MS; 3 TBDMS; RT:760.32 sec
Name: L-Serine
Class: Natural Product
Formula: C3H7NO3
Exact mass: 105.04259
SMILES: OC[C@H](N)C(O)=O
InChI: InChI=1S/C3H7NO3/c4-2(1-5)3(6)7/h2,5H,1,4H2,(H,6,7)/t2-/m0/s1
Instrument: Agilent 7000B QqQMS, Agilent; Agilent 7898A series GC system, Agilent Technologies
Instrument type: GC-EI-QQ
Ms type: MS
Ion mode: POSITIVE
Column name: CP-SIL 8 CB LOW BLEED/MS
Retention time: 760.32 sec
Derivative form: C21H52NO3Si3
Derivative mass: 450.32549
Derivative type: 3 TBDMS
m/z	relative intensity
51	2
52	2
53	2
54	2
55	17
56	14
57	22
58	10
59	49
60	6
61	7
69	3
70	8
71	4
73	999
74	91
75	111
76	8
77	9
78	2
79	7
81	3
82	1
83	3
84	3
85	16
86	9
87	7
88	7
89	19
90	2
91	2
95	1
96	3
97	3
98	4
99	21
100	75
101	21
102	15
103	42
104	4
105	7
112	3
113	4
114	5
115	130
116	46
117	59
118	12
119	12
120	2
121	1
126	3
128	17
129	15
130	10
131	20
132	56
133	130
134	24
135	17
136	2
140	2
142	100
143	16
144	17
145	12
147	393
148	68
149	54
150	8
151	4
154	1
155	1
156	6
157	4
158	21
159	21
160	34
161	7
162	4
163	2
168	1
170	8
171	2
172	15
173	15
174	46
175	12
176	7
177	5
178	1
184	4
185	2
186	3
187	2
188	6
189	38
190	13
191	9
192	3
193	3
200	4
201	2
202	9
203	3
204	2
205	4
206	9
207	32
208	9
209	3
214	2
216	14
218	36
219	9
220	5
221	25
222	6
223	4
230	149
231	53
232	21
233	6
234	2
242	1
244	6
245	8
246	4
247	3
248	2
249	1
256	2
258	41
259	11
260	8
261	2
263	1
272	10
273	4
274	2
275	5
276	2
281	2
286	2
288	514
289	128
290	50
291	7
292	9
293	2
300	9
302	247
303	63
304	28
305	6
306	1
316	4
317	1
320	7
321	2
346	2
362	252
363	81
364	37
365	9
366	2
390	263
391	90
392	41
393	11
394	3
404	6
432	16
433	6
434	2
