Mass spectrum: beta-N-Methyl-amino-L-alanine; GC-EI-TOF; MS; n TMS; RT:530.945 sec
Name: b-N-Methyl-amino-L-alanine
Name: beta-N-Methyl-amino-L-alanine
Class: Natural Product
Formula: C4H10N2O2
Exact mass: 118.07423
SMILES: CNCC([H])(N)C(O)=O
InChI: InChI=1S/C4H10N2O2/c1-6-2-3(5)4(7)8/h3,6H,2,5H2,1H3,(H,7,8)/t3-/m0/s1
Instrument: Pegasus III TOF-MS system, Leco; GC 6890, Agilent Technologies
Instrument type: GC-EI-TOF
Ms type: MS
Ion mode: POSITIVE
Column name: CP-SIL 8 CB LOW BLEED/MS
Retention time: 530.945  sec
m/z	relative intensity
85	5
86	45
87	8
88	17
89	6
90	1
92	1
93	1
97	1
98	4
99	7
100	64
101	117
102	28
103	12
104	3
105	2
112	2
113	6
114	13
115	19
116	999
117	122
118	45
119	7
120	1
127	3
128	9
129	56
130	18
131	18
132	30
133	21
134	5
135	1
141	1
142	1
143	2
144	6
145	2
146	6
147	57
148	11
149	6
155	1
156	4
157	1
158	2
159	5
160	6
161	1
171	1
172	3
173	1
174	26
175	6
176	3
186	3
187	1
188	1
191	1
201	3
202	1
203	7
204	3
205	1
216	3
217	5
218	5
219	8
220	2
221	2
248	11
249	4
250	1
276	6
277	1
291	86
292	26
293	13
294	2
