Mass spectrum: Gluconic acid; GC-EI-TOF; MS; n TMS; RT:764.344 sec
Name: Gluconic acid
Class: Natural Product
Formula: C6H12O7
Exact mass: 196.05830
SMILES: OC[C@@H](O)[C@@H](O)[C@H](O)[C@@H](O)C(O)=O
InChI: InChI=1S/C6H12O7/c7-1-2(8)3(9)4(10)5(11)6(12)13/h2-5,7-11H,1H2,(H,12,13)/t2-,3-,4+,5-/m1/s1
Instrument: Pegasus III TOF-MS system, Leco; GC 6890, Agilent Technologies
Instrument type: GC-EI-TOF
Ms type: MS
Ion mode: POSITIVE
Column name: CP-SIL 8 CB LOW BLEED/MS
Retention time: 764.344  sec
m/z	relative intensity
85	13
86	3
87	20
88	14
89	57
90	6
91	2
92	2
93	2
95	2
97	19
98	3
99	16
100	3
101	53
102	58
103	406
104	42
105	23
106	2
107	7
109	1
111	8
112	1
113	16
114	4
115	19
116	20
117	233
118	26
119	28
120	4
121	2
125	3
126	1
127	9
128	2
129	187
130	51
131	94
132	17
133	182
134	28
135	17
136	2
139	1
141	7
142	5
143	117
144	16
145	17
146	4
147	999
148	163
149	107
150	14
151	7
153	9
154	1
155	5
156	2
157	85
158	12
159	10
160	2
161	11
162	1
163	12
164	2
165	1
169	23
170	3
171	26
172	4
173	6
174	1
175	20
176	3
177	9
178	1
185	1
187	2
188	1
189	124
190	35
191	73
192	16
193	7
194	1
195	1
197	13
198	2
199	2
200	1
201	6
202	2
203	15
204	115
205	210
206	47
207	39
208	8
209	3
211	1
215	7
216	2
217	248
218	55
219	49
220	20
221	56
222	15
223	8
227	4
228	1
229	30
230	9
231	16
232	5
233	2
235	1
241	4
242	1
243	10
244	4
245	20
246	5
247	3
249	1
250	1
257	3
258	1
259	5
261	2
263	1
265	5
266	1
269	6
270	1
271	4
272	1
277	41
278	16
279	10
280	2
281	1
289	1
291	25
292	219
293	74
294	37
295	8
296	2
304	5
305	101
306	37
307	34
308	10
309	3
310	1
315	5
316	1
317	4
318	5
319	97
320	36
321	24
322	5
323	1
330	1
331	18
332	17
333	217
334	81
335	39
336	10
337	2
343	2
344	1
345	13
346	5
347	2
349	1
358	2
359	36
360	14
361	8
362	1
379	3
380	1
389	1
390	1
393	4
394	2
395	1
405	4
406	5
407	3
408	1
421	3
422	5
423	29
424	16
425	7
426	2
432	1
433	18
434	13
435	20
436	10
437	5
438	1
