Mass spectrum: D-(-)-Fructose; GC-EI-TOF; MS; n TMS; RT:715.909 sec
Name: D-(-)-Fructose
Class: Natural Product
Formula: C6H12O6
Exact mass: 180.06339
SMILES: OC[C@@H](O)[C@@H](O)[C@H](O)C(=O)CO
InChI: InChI=1S/C6H12O6/c7-1-3(9)5(11)6(12)4(10)2-8/h3,5-9,11-12H,1-2H2/t3-,5-,6-/m1/s1
Instrument: Pegasus III TOF-MS system, Leco; GC 6890, Agilent Technologies
Instrument type: GC-EI-TOF
Ms type: MS
Ion mode: POSITIVE
Column name: CP-SIL 8 CB LOW BLEED/MS
Retention time: 715.909  sec
m/z	relative intensity
85	26
86	13
87	20
88	19
89	212
90	19
91	10
92	1
94	2
95	1
96	1
97	2
98	7
99	11
100	30
101	49
102	16
103	999
104	100
105	65
106	6
107	1
110	3
111	5
112	2
113	19
114	136
115	30
116	21
117	149
118	19
119	26
120	3
121	1
124	1
125	1
126	7
127	7
128	10
129	106
130	24
131	54
132	10
133	140
134	19
135	13
136	1
140	2
141	4
142	15
143	22
144	6
145	12
146	3
147	490
148	80
149	57
150	7
151	3
152	2
154	2
155	2
156	8
157	20
158	8
159	6
160	2
161	4
162	1
163	16
164	2
165	1
166	1
168	6
169	2
170	7
171	2
172	19
173	35
174	12
175	16
176	3
177	7
178	1
180	3
182	1
184	1
185	1
186	4
187	2
188	5
189	57
190	15
191	43
192	9
193	4
196	3
198	7
199	1
200	4
201	18
202	17
203	11
204	42
205	56
206	14
207	11
208	2
214	5
215	3
216	9
217	538
218	118
219	54
220	8
221	17
222	4
223	2
228	2
229	5
230	5
231	14
232	5
233	2
240	2
241	1
242	2
243	1
244	10
245	5
246	3
247	1
254	1
255	1
256	4
257	1
258	1
260	2
261	1
262	27
263	18
264	6
265	3
268	2
269	1
270	2
272	1
275	1
276	3
277	36
278	16
279	7
280	1
288	2
289	1
291	7
292	2
293	1
300	1
302	1
305	3
306	5
307	165
308	54
309	25
310	6
311	1
318	2
319	6
320	2
321	1
330	2
332	1
333	4
334	5
335	11
336	6
337	2
350	2
358	1
363	1
364	23
365	9
366	4
367	1
376	1
390	1
464	1
