Mass spectrum: Citramalic acid; GC-EI-TOF; MS; n TMS; RT:532.894 sec
Name: Citramalic acid
Class: Natural Product
Formula: C5H8O5
Exact mass: 148.03717
SMILES: C[C@@](CC(=O)O)(C(=O)O)O
InChI: InChI=1S/C5H8O5/c1-5(10,4(8)9)2-3(6)7/h10H,2H2,1H3,(H,6,7)(H,8,9)/t5-/m1/s1
Instrument: Pegasus III TOF-MS system, Leco; GC 6890, Agilent Technologies
Instrument type: GC-EI-TOF
Ms type: MS
Ion mode: POSITIVE
Column name: CP-SIL 8 CB LOW BLEED/MS
Retention time: 532.894  sec
m/z	relative intensity
85	146
86	10
87	15
88	4
89	15
91	1
94	1
95	3
97	4
98	7
99	24
100	5
101	20
102	4
103	23
104	5
105	14
106	2
107	3
108	1
110	1
111	3
112	2
113	9
114	1
115	320
116	49
117	122
118	16
119	23
120	1
121	1
122	5
123	1
125	3
127	3
128	1
129	25
130	8
131	82
132	14
133	195
134	36
135	30
136	6
137	4
139	1
141	6
142	3
143	52
144	12
145	34
146	7
147	999
148	171
149	195
150	28
151	18
152	4
154	2
155	4
156	4
157	45
158	6
159	11
160	2
161	5
162	1
163	77
164	12
165	10
166	3
167	2
169	3
173	4
175	5
176	4
177	5
178	3
179	2
182	2
184	2
185	65
186	12
187	4
188	3
189	58
190	23
191	23
192	4
193	4
194	1
196	1
197	1
199	2
200	2
201	2
202	1
203	84
204	28
205	24
206	4
207	8
208	1
209	1
210	1
215	6
216	5
217	55
218	18
219	10
221	44
222	13
223	9
224	5
225	3
226	1
227	1
229	2
231	76
232	20
233	54
234	13
235	5
236	2
237	5
238	4
239	1
240	2
243	1
245	2
246	5
247	431
248	96
249	47
250	10
251	1
252	1
256	2
259	102
260	28
261	16
262	6
263	1
267	2
268	1
269	1
274	1
275	2
276	2
277	11
278	4
279	2
282	1
284	1
286	2
288	2
293	1
295	1
299	1
300	1
303	1
305	7
306	4
307	5
308	2
309	3
311	1
321	39
322	25
323	12
324	6
333	3
334	2
338	3
341	3
347	1
348	2
349	39
350	14
351	8
352	2
367	1
370	1
375	1
376	1
384	1
388	1
391	1
395	1
398	2
407	1
417	2
421	1
426	3
434	1
435	1
455	1
463	1
474	2
476	1
478	1
