Mass spectrum: L-Phenylalanine; GC-EI-QQ; MS; 2 TBDMS; RT:803.76 sec
Name: L-Phenylalanine
Class: Natural Product
Formula: C9H11NO2
Exact mass: 165.07898
SMILES: C1=CC=C(C=C1)C[C@@H](C(=O)O)N
InChI: InChI=1S/C9H11NO2/c10-8(9(11)12)6-7-4-2-1-3-5-7/h1-5,8H,6,10H2,(H,11,12)/t8-/m0/s1
Instrument: Agilent 7000B QqQMS, Agilent; Agilent 7899A series GC system, Agilent Technologies
Instrument type: GC-EI-QQ
Ms type: MS
Ion mode: POSITIVE
Column name: CP-SIL 8 CB LOW BLEED/MS
Retention time: 803.76 sec
Derivative form: C21H39NO2Si2
Derivative mass: 393.25193
Derivative type: 2 TBDMS
m/z	relative intensity
55	2
56	3
57	14
58	8
59	30
60	4
61	3
65	4
66	1
70	1
73	658
74	61
75	72
76	5
77	5
78	2
79	1
83	2
84	4
85	9
86	6
87	6
88	3
89	3
91	41
92	5
93	2
97	2
98	1
99	11
100	9
101	4
102	6
103	51
104	14
105	8
107	2
112	2
113	3
115	68
116	12
117	21
118	11
119	13
120	30
121	16
122	2
123	1
124	1
126	6
127	1
128	9
129	5
130	30
132	89
133	98
134	21
135	25
136	4
137	1
139	34
142	31
143	6
144	4
145	20
147	466
148	83
149	48
150	6
151	2
155	1
156	2
157	2
158	4
159	11
160	84
161	21
162	40
163	7
164	2
172	4
173	6
174	13
175	6
176	41
177	45
178	22
179	6
180	1
186	2
187	2
188	10
189	30
190	7
191	3
193	4
194	3
195	7
196	1
202	9
204	49
205	15
206	7
207	4
209	2
216	10
218	33
219	8
220	4
221	1
222	2
230	1
231	1
232	5
234	999
235	207
236	54
237	7
245	32
246	12
247	4
248	1
250	2
258	1
262	2
278	3
279	1
287	3
302	935
303	245
304	96
305	16
306	3
308	337
309	96
310	34
311	6
312	1
318	1
336	348
337	100
338	38
339	8
340	1
350	11
351	3
378	18
379	5
380	2
