Mass spectrum: Sucrose; GC-EI-TOF; MS; n TMS; RT:977.543 sec
Name: Sucrose
Class: Natural Product
Formula: C12H22O11
Exact mass: 342.11621
SMILES: OC[C@@H](O1)[C@@H](O)[C@H](O)[C@@H](O)[C@H]1O[C@](CO)(O2)[C@@H](O)[C@H](O)[C@@H](CO)2
InChI: InChI=1S/C12H22O11/c13-1-4-6(16)8(18)9(19)11(21-4)23-12(3-15)10(20)7(17)5(2-14)22-12/h4-11,13-20H,1-3H2/t4-,5-,6-,7-,8+,9-,10+,11-,12+/m1/s1
Instrument: Pegasus III TOF-MS system, Leco; GC 6890, Agilent Technologies
Instrument type: GC-EI-TOF
Ms type: MS
Ion mode: POSITIVE
Column name: CP-SIL 8 CB LOW BLEED/MS
Retention time: 977.543  sec
m/z	relative intensity
85	34
86	7
87	32
88	31
89	71
90	10
91	9
92	2
93	3
94	3
95	10
96	4
97	20
98	7
99	38
100	7
101	87
102	38
103	947
104	95
105	46
106	4
107	3
108	1
109	62
110	5
111	30
112	6
113	47
114	12
115	37
116	39
117	226
118	24
119	30
120	4
121	3
123	1
125	9
126	4
127	30
128	9
129	668
130	93
131	138
132	28
133	216
134	32
135	25
136	3
137	3
139	21
140	8
141	33
142	32
143	123
144	19
145	34
146	8
147	999
148	161
149	142
150	18
151	17
152	3
153	23
154	9
155	101
156	20
157	123
158	20
159	20
160	4
161	14
162	3
163	22
164	5
165	3
166	2
167	10
168	4
169	548
170	87
171	52
172	8
173	23
174	6
175	19
176	4
177	23
178	5
179	4
180	1
181	12
182	5
183	38
184	7
185	16
186	3
187	8
188	3
189	117
190	29
191	174
192	32
193	17
194	3
195	2
197	3
198	2
199	19
200	4
201	14
202	8
203	44
204	114
205	79
206	22
207	20
208	5
209	3
211	2
213	4
214	1
215	37
216	13
217	913
218	223
219	102
220	19
221	43
222	11
223	7
224	1
225	1
227	13
228	5
229	48
230	64
231	53
232	17
233	19
234	6
235	2
237	1
239	4
240	1
241	13
242	7
243	175
244	50
245	51
246	14
247	17
248	4
249	3
252	1
253	1
254	1
255	10
256	6
257	59
258	16
259	22
260	7
261	4
262	1
263	4
264	1
265	5
266	2
267	1
268	1
269	1
270	4
271	197
272	51
273	35
274	8
275	5
276	1
277	3
278	3
279	2
280	1
281	1
283	1
284	1
287	2
288	2
289	5
290	2
291	20
292	8
293	9
294	3
295	1
296	1
297	1
303	6
304	5
305	19
306	11
307	6
308	2
309	1
310	1
317	10
318	7
319	57
320	29
321	14
322	4
323	1
330	1
331	27
332	16
333	11
334	4
335	2
345	12
346	6
347	9
348	3
349	3
350	1
359	2
360	33
361	862
362	325
363	158
364	42
365	14
366	3
367	1
374	1
375	1
377	1
378	1
379	1
393	1
394	1
435	6
436	19
437	118
438	64
439	33
440	11
441	3
449	1
450	16
451	58
452	34
453	17
454	5
455	1
463	1
464	1
