Mass spectrum: 1-Methylhistamine; GC-EI-TOF; MS; n TMS; RT:676.867 sec
Name: 1-Methylhistamine
Class: Natural Product
Formula: C6H11N3
Exact mass: 125.09530
SMILES: NCCc(n1)cn(C)c1
InChI: InChI=1S/C6H11N3/c1-9-4-6(2-3-7)8-5-9/h4-5H,2-3,7H2,1H3
Instrument: Pegasus III TOF-MS system, Leco; GC 6890, Agilent Technologies
Instrument type: GC-EI-TOF
Ms type: MS
Ion mode: POSITIVE
Column name: CP-SIL 8 CB LOW BLEED/MS
Retention time: 676.867  sec
m/z	relative intensity
85	23
86	652
87	65
88	29
89	2
90	2
91	1
92	2
93	2
94	4
95	93
96	60
97	33
98	23
99	13
100	338
101	49
102	34
103	6
104	3
105	1
107	8
108	12
109	18
110	9
111	7
112	51
113	20
114	15
115	10
116	26
117	28
118	6
119	3
120	6
121	2
122	2
123	7
124	6
125	8
126	33
127	14
128	6
129	4
130	94
131	23
132	14
133	3
134	1
135	9
136	3
137	7
138	3
139	16
140	7
141	6
142	3
143	1
144	6
145	2
146	33
147	6
148	3
149	3
150	6
151	7
152	3
153	15
154	7
155	3
156	2
158	7
159	1
160	2
164	4
165	7
166	6
167	10
168	170
169	29
170	11
171	2
172	12
173	4
174	999
175	186
176	84
177	10
178	4
179	3
180	95
181	18
182	13
183	2
184	1
194	2
195	1
196	7
197	1
222	1
224	2
225	1
238	3
239	1
252	3
253	2
254	152
255	38
256	14
257	2
268	3
269	1
