Mass spectrum: D-Fructose 6-phosphate; GC-EI-TOF; MS; n TMS; RT:885.5035469 sec
Name: D-Fructose-6-Phosphate
Name: D-Fructose 6-phosphate
Class: Natural Product
Formula: C6H13O9P
Exact mass: 260.02972
SMILES: OCC(=O)C(O)C(O)C(O)COP(O)(O)=O
InChI: InChI=1S/C6H13O9P/c7-1-3(8)5(10)6(11)4(9)2-15-16(12,13)14/h4-7,9-11H,1-2H2,(H2,12,13,14)/t4-,5-,6-/m1/s1
Instrument: Pegasus III TOF-MS system, Leco; GC 6890, Agilent Technologies
Instrument type: GC-EI-TOF
Ms type: MS
Ion mode: POSITIVE
Column name: CP-SIL 8 CB LOW BLEED/MS
Retention time: 885.5035469 sec
m/z	relative intensity
85	63
86	28
87	38
88	12
89	515
90	40
91	55
92	4
96	9
97	23
98	4
99	49
100	87
101	425
102	101
103	552
104	73
105	109
106	29
107	4
109	9
111	43
112	39
113	53
114	57
115	79
116	178
117	169
118	25
119	66
120	14
121	14
122	15
124	20
125	3
126	13
127	23
128	21
129	654
130	170
131	319
132	33
133	542
134	85
135	124
136	13
137	39
138	7
140	4
141	13
142	29
143	65
144	9
145	40
147	999
148	167
149	139
150	26
151	52
152	19
153	6
154	29
156	28
157	338
158	73
159	38
160	309
161	107
162	14
163	42
164	11
165	7
168	11
169	39
171	14
172	28
173	17
174	21
175	12
176	7
177	33
178	7
179	21
180	29
181	43
182	12
183	22
184	12
186	21
187	18
188	14
189	73
190	36
191	79
192	10
193	68
194	10
195	56
196	1
197	10
198	9
200	14
201	2
203	10
204	105
205	48
206	4
207	120
208	16
209	26
210	15
211	287
212	51
213	17
214	24
215	4
216	21
217	293
218	85
219	21
220	31
221	21
224	4
225	103
226	38
227	73
228	26
229	19
230	15
231	34
232	10
233	19
235	12
237	10
238	5
239	15
241	9
242	23
243	48
244	21
247	92
248	38
249	29
253	36
257	8
259	12
260	3
261	7
262	3
268	17
269	14
271	7
272	16
273	22
274	3
275	12
278	10
280	9
281	5
282	7
283	36
284	18
285	29
286	21
288	17
289	1
291	22
297	6
298	39
299	725
300	272
301	123
302	46
303	13
304	12
305	17
307	7
313	7
314	47
315	366
316	100
317	73
318	3
319	17
320	14
321	3
322	14
323	14
325	10
327	7
328	19
330	8
331	41
332	33
333	21
334	10
335	4
336	8
339	5
340	4
341	46
342	19
343	23
344	7
348	4
352	4
356	8
357	261
358	84
359	29
360	21
362	4
367	7
368	1
369	17
370	12
371	17
372	17
374	12
376	9
380	4
381	8
382	5
384	22
385	21
386	117
387	840
388	464
389	230
390	80
391	24
392	5
395	7
399	15
401	9
403	12
404	9
405	16
407	10
408	8
409	13
412	4
420	4
423	4
428	2
430	4
437	14
441	2
443	12
444	9
446	9
453	9
455	1
456	9
459	9
463	5
465	9
470	9
471	73
472	53
473	36
474	4
475	22
478	19
480	2
481	6
483	12
485	1
487	7
493	21
494	4
497	3
500	24
