Mass spectrum: L-Ornithine; GC-EI-TOF; MS; n TMS; RT:693.694 sec
Name: L-(+)-Ornithine
Name: L-Ornithine
Class: Natural Product
Formula: C5H12N2O2
Exact mass: 132.08988
SMILES: NCCC[C@H](N)C(O)=O
InChI: InChI=1S/C5H12N2O2/c6-3-1-2-4(7)5(8)9/h4H,1-3,6-7H2,(H,8,9)/t4-/m0/s1
Instrument: Pegasus III TOF-MS system, Leco; GC 6890, Agilent Technologies
Instrument type: GC-EI-TOF
Ms type: MS
Ion mode: POSITIVE
Column name: CP-SIL 8 CB LOW BLEED/MS
Retention time: 693.694  sec
m/z	relative intensity
85	13
86	166
87	22
88	10
89	4
90	8
91	1
92	1
93	1
94	1
95	2
96	6
97	6
98	17
99	16
100	139
101	25
102	69
103	24
104	5
105	3
110	11
111	2
112	26
113	13
114	39
115	29
116	20
117	25
118	7
119	6
120	1
124	4
125	2
126	24
127	18
128	64
129	20
130	71
131	37
132	35
133	38
134	8
135	3
136	1
138	1
139	2
140	14
141	14
142	999
143	141
144	59
145	9
146	52
147	136
148	27
149	13
150	2
151	1
152	8
153	5
154	8
155	3
156	5
157	2
158	8
159	6
160	13
161	6
162	4
163	1
167	1
168	4
169	11
170	8
171	4
172	44
173	10
174	327
175	63
176	36
177	5
178	1
182	1
184	1
185	1
186	18
187	14
188	11
189	17
190	6
191	8
192	2
198	3
199	2
200	67
201	16
202	12
203	8
204	16
205	4
206	2
212	1
213	2
214	35
215	12
216	40
217	15
218	20
219	5
220	6
221	3
225	1
226	2
227	1
228	1
229	2
230	3
231	3
232	4
233	1
241	6
242	5
243	3
244	7
245	1
246	2
258	23
259	23
260	7
261	2
262	1
287	2
288	1
289	1
303	5
304	1
305	1
315	5
316	3
317	1
330	7
331	4
332	2
403	1
405	2
406	1
419	1
420	15
421	9
422	5
423	1
