Mass spectrum: Tryptamine; GC-EI-TOF; MS; n TMS; RT:856.221 sec
Name: Tryptamine
Class: Natural Product
Formula: C10H12N2
Exact mass: 160.10005
SMILES: C1=CC=C2C(=C1)C(=CN2)CCN
InChI: InChI=1S/C10H12N2/c11-6-5-8-7-12-10-4-2-1-3-9(8)10/h1-4,7,12H,5-6,11H2
Instrument: Pegasus III TOF-MS system, Leco; GC 6890, Agilent Technologies
Instrument type: GC-EI-TOF
Ms type: MS
Ion mode: POSITIVE
Column name: CP-SIL 8 CB LOW BLEED/MS
Retention time: 856.221  sec
m/z	relative intensity
85	10
86	465
87	47
88	20
89	12
90	6
91	7
92	2
93	1
98	1
99	6
100	211
101	43
102	62
103	52
104	8
105	3
113	7
114	8
115	34
116	28
117	47
118	9
119	5
120	2
127	4
128	20
129	17
130	205
131	47
132	14
133	4
134	7
135	2
136	1
137	33
138	4
140	1
141	1
142	9
143	23
144	27
145	12
146	43
147	9
148	7
149	1
154	1
155	2
156	5
157	1
158	13
159	4
160	17
161	3
162	1
169	1
170	5
171	2
172	19
173	7
174	999
175	188
176	84
177	10
178	2
184	6
185	2
186	8
187	3
188	24
189	5
190	2
199	4
200	4
201	36
202	9
203	3
214	4
215	29
216	7
217	2
287	2
288	1
289	26
290	8
291	3
304	2
