Mass spectrum: 1-Methyl Histidine; GC-EI-TOF; MS; n TMS; RT:789.867 sec
Name: 1-Methyl Histidine
Class: Natural Product
Formula: C7H11N3O2
Exact mass: 169.08513
SMILES: OC(=O)C(N)Cc(n1)cn(C)c1
InChI: InChI=1S/C7H11N3O2/c1-10-3-5(9-4-10)2-6(8)7(11)12/h3-4,6H,2,8H2,1H3,(H,11,12)
Instrument: Pegasus III TOF-MS system, Leco; GC 6890, Agilent Technologies
Instrument type: GC-EI-TOF
Ms type: MS
Ion mode: POSITIVE
Column name: CP-SIL 8 CB LOW BLEED/MS
Retention time: 789.867  sec
m/z	relative intensity
85	49
86	58
87	29
88	12
89	5
90	3
91	1
92	6
93	8
94	13
95	808
96	460
97	199
98	46
99	27
100	914
101	113
102	55
103	124
104	24
105	19
106	8
107	38
108	24
109	32
110	30
111	15
112	139
113	48
114	39
115	34
116	24
117	32
118	7
119	20
120	7
121	12
122	12
123	23
124	26
125	20
126	118
127	30
128	17
129	2
130	142
131	133
132	47
133	145
134	32
135	63
136	11
137	29
138	8
139	44
140	30
141	17
142	14
143	8
144	8
146	55
147	920
148	163
149	87
150	29
151	36
152	14
153	87
154	29
155	11
156	9
157	5
158	24
159	7
160	7
161	8
162	3
163	17
164	20
165	42
166	13
167	44
168	292
169	340
170	65
171	19
172	221
173	44
174	38
175	8
176	4
177	2
178	15
179	25
180	232
181	75
182	23
183	7
184	4
186	1
187	3
188	15
189	8
190	14
191	535
192	110
193	55
194	83
195	24
196	60
197	19
198	5
199	2
200	3
202	13
203	3
204	34
205	12
206	13
207	4
208	10
209	10
210	4
211	5
212	2
213	3
214	2
215	1
216	2
217	2
218	12
219	4
220	4
221	3
222	8
223	4
224	4
225	2
226	2
227	7
228	4
229	1
230	2
232	6
233	3
234	2
235	1
236	4
237	5
238	10
239	6
240	4
241	7
242	2
243	14
244	4
245	1
246	63
247	22
248	10
249	2
250	2
251	2
252	58
253	26
254	18
255	7
256	3
257	1
259	1
260	2
261	1
263	1
265	1
266	4
267	8
268	999
269	323
270	121
271	31
272	5
273	1
275	20
276	6
277	1
278	1
280	11
281	4
282	11
283	2
284	1
289	8
290	566
291	210
292	96
293	26
294	6
295	2
296	3
297	1
298	1
326	1
327	1
329	2
331	2
341	6
342	157
343	106
344	58
345	20
346	5
354	1
355	1
356	1
357	1
358	1
360	1
361	1
369	15
370	231
371	125
372	54
373	15
374	2
384	1
385	4
386	1
418	1
