Mass spectrum: L-Leucine; GC-EI-TOF; MS; n TMS; RT:423.044 sec
Name: L-Leucine
Class: Natural Product
Formula: C6H13NO2
Exact mass: 131.09463
SMILES: CC(C)C[C@H](N)C(O)=O
InChI: InChI=1S/C6H13NO2/c1-4(2)3-5(7)6(8)9/h4-5H,3,7H2,1-2H3,(H,8,9)/t5-/m0/s1
Instrument: Pegasus III TOF-MS system, Leco; GC 6890, Agilent Technologies
Instrument type: GC-EI-TOF
Ms type: MS
Ion mode: POSITIVE
Column name: CP-SIL 8 CB LOW BLEED/MS
Retention time: 423.044  sec
m/z	relative intensity
85	8
86	83
87	13
88	5
89	3
90	1
91	1
92	1
93	1
94	1
95	1
96	5
97	3
98	7
99	10
100	99
101	19
102	169
103	46
104	11
105	6
110	2
112	4
113	3
114	7
115	31
116	37
117	22
118	6
119	7
120	1
126	2
127	1
128	26
129	12
130	45
131	22
132	24
133	43
134	9
135	4
142	20
143	6
144	7
145	1
146	7
147	134
148	24
149	12
150	1
156	5
157	3
158	999
159	149
160	46
161	5
170	14
171	4
172	2
174	4
175	1
176	2
177	3
188	4
189	1
202	1
203	2
204	1
216	1
218	29
219	7
220	3
231	1
232	36
233	11
234	4
260	11
261	3
262	1
