Mass spectrum: D-Lyxose; GC-EI-TOF; MS; n TMS; RT:615.494 sec
Name: D-Lyxose
Class: Natural Product
Formula: C5H10O5
Exact mass: 150.05282
SMILES: OC(C1)C(O)C(O)C(O)O1
InChI: InChI=1S/C5H10O5/c6-2-1-10-5(9)4(8)3(2)7/h2-9H,1H2/t2-,3+,4+,5?/m0/s1
Instrument: Pegasus III TOF-MS system, Leco; GC 6890, Agilent Technologies
Instrument type: GC-EI-TOF
Ms type: MS
Ion mode: POSITIVE
Column name: CP-SIL 8 CB LOW BLEED/MS
Retention time: 615.494  sec
m/z	relative intensity
85	9
86	7
87	14
88	10
89	156
90	14
91	7
94	1
98	4
99	11
100	57
101	42
102	24
103	999
104	97
105	62
106	3
107	1
109	1
111	4
112	4
113	9
114	9
115	11
116	12
117	112
118	12
119	19
120	1
121	1
126	6
127	5
128	4
129	109
130	24
131	52
132	10
133	126
134	18
135	13
140	3
141	1
142	5
143	18
144	3
145	12
146	2
147	338
148	56
149	37
150	5
151	1
152	1
154	1
156	1
157	12
158	8
159	5
160	74
161	24
162	6
163	17
164	3
165	1
168	2
171	1
172	6
173	7
174	13
175	13
176	2
177	6
184	1
188	3
189	119
190	24
191	34
192	6
193	3
200	4
201	7
202	2
203	8
204	29
205	41
206	8
207	8
208	1
214	3
215	1
216	3
217	380
218	81
219	39
220	6
221	11
222	2
223	1
229	1
230	1
231	6
232	5
233	36
234	10
235	5
238	1
240	1
241	1
247	1
248	3
256	5
257	1
258	1
261	1
262	9
263	2
274	2
275	1
277	30
278	12
279	5
280	2
291	4
292	1
305	1
306	2
307	119
308	38
309	19
310	4
320	1
467	1
