Mass spectrum: Anthracene; GC-EI-TOF; MS; n TMS; RT:710.694 sec
Name: Anthracene
Class: Natural Product
Formula: C14H10
Exact mass: 178.07825
SMILES: c(c3)cc(c1)c(c3)cc(c2)c(ccc2)1
InChI: InChI=1S/C14H10/c1-2-6-12-10-14-8-4-3-7-13(14)9-11(12)5-1/h1-10H
Instrument: Pegasus III TOF-MS system, Leco; GC 6890, Agilent Technologies
Instrument type: GC-EI-TOF
Ms type: MS
Ion mode: POSITIVE
Column name: CP-SIL 8 CB LOW BLEED/MS
Retention time: 710.694  sec
m/z	relative intensity
85	9
86	30
87	61
88	132
89	184
90	3
97	3
98	36
99	24
100	12
101	9
102	13
103	1
109	3
110	11
111	14
112	2
113	11
114	1
115	7
117	1
121	1
122	9
123	6
124	5
125	10
126	29
127	12
128	13
129	2
132	1
133	1
134	2
135	2
137	5
138	3
139	17
140	1
146	1
149	17
150	92
151	100
152	138
153	21
154	2
161	1
162	3
163	6
164	2
169	1
173	2
174	29
175	39
176	235
177	126
178	999
179	156
180	13
181	1
