Mass spectrum: Phenoxyacetic acid; GC-EI-TOF; MS; n TMS; RT:516.121 sec
Name: Phenoxyacetic acid
Class: Natural Product
Formula: C8H8O3
Exact mass: 152.04734
SMILES: OC(=O)COc(c1)cccc1
InChI: InChI=1S/C8H8O3/c9-8(10)6-11-7-4-2-1-3-5-7/h1-5H,6H2,(H,9,10)
Instrument: Pegasus III TOF-MS system, Leco; GC 6890, Agilent Technologies
Instrument type: GC-EI-TOF
Ms type: MS
Ion mode: POSITIVE
Column name: CP-SIL 8 CB LOW BLEED/MS
Retention time: 516.121  sec
m/z	relative intensity
85	16
86	2
87	12
88	73
89	138
90	29
91	946
92	91
93	107
94	60
95	129
96	12
97	13
98	3
99	4
100	3
101	105
102	14
103	31
104	11
105	133
106	26
107	100
108	14
109	20
110	2
111	3
115	9
116	74
117	143
118	20
119	18
120	8
121	59
122	8
123	23
124	3
125	2
129	8
130	14
131	15
132	2
133	17
134	14
135	999
136	164
137	105
138	13
139	3
145	4
146	2
147	39
148	17
149	77
150	14
151	198
152	38
153	34
154	5
155	2
161	45
162	10
163	463
164	84
165	846
166	136
167	44
168	5
170	1
171	1
172	1
175	1
177	2
179	39
180	7
181	258
182	55
183	16
184	2
191	1
193	1
196	1
207	1
209	64
210	13
211	4
224	545
225	95
226	29
227	3
