Mass spectrum: L-Histidinol; GC-EI-TOF; MS; n TMS; RT:710.972 sec
Name: L-Histidinol
Class: Natural Product
Formula: C6H11N3O
Exact mass: 141.09021
SMILES: C1=C(NC=N1)C[C@@H](CO)N
InChI: InChI=1S/C6H11N3O/c7-5(3-10)1-6-2-8-4-9-6/h2,4-5,10H,1,3,7H2,(H,8,9)/t5-/m0/s1
Instrument: Pegasus III TOF-MS system, Leco; GC 6890, Agilent Technologies
Instrument type: GC-EI-TOF
Ms type: MS
Ion mode: POSITIVE
Column name: CP-SIL 8 CB LOW BLEED/MS
Retention time: 710.972  sec
m/z	relative intensity
85	32
86	27
87	14
88	41
89	32
90	4
92	3
93	3
94	5
95	18
96	17
97	13
98	37
99	16
100	160
101	25
102	18
103	17
104	4
105	5
106	2
107	8
108	2
109	7
110	31
111	16
112	44
113	15
114	57
115	26
116	148
117	37
118	13
119	6
120	2
121	3
122	1
123	4
124	7
125	14
126	24
127	11
128	10
129	10
130	35
131	35
132	36
133	38
134	6
135	5
136	5
137	4
138	7
139	23
140	10
141	10
142	4
143	4
144	4
145	2
146	12
147	98
148	20
149	11
150	9
151	11
152	6
153	169
154	999
155	383
156	76
157	15
158	9
159	4
162	2
163	2
164	2
165	5
166	42
167	39
168	10
169	5
170	3
172	7
173	2
176	3
177	1
178	1
179	11
180	8
181	8
182	47
183	13
184	8
185	2
186	1
188	72
189	26
190	10
191	1
192	1
193	2
194	5
195	5
196	4
197	5
198	3
199	3
202	2
203	13
204	722
205	147
206	60
207	9
208	4
209	1
211	9
212	4
213	4
223	1
224	1
225	11
226	192
227	51
228	20
229	4
238	41
239	19
240	9
241	1
242	2
252	30
253	23
254	573
255	146
256	55
257	12
267	2
268	6
269	1
282	1
285	1
341	1
342	34
343	15
344	5
345	1
384	1
