Mass spectrum: Coniferyl aldehyde; GC-EI-TOF; MS; n TMS; RT:756.392 sec
Name: Coniferyl aldehyde
Class: Natural Product
Formula: C10H10O3
Exact mass: 178.06299
SMILES: [H]C(=O)C=Cc(c1)cc(OC)c(O)c1
InChI: InChI=1S/C10H10O3/c1-13-10-7-8(3-2-6-11)4-5-9(10)12/h2-7,12H,1H3/b3-2+
Instrument: Pegasus III TOF-MS system, Leco; GC 6890, Agilent Technologies
Instrument type: GC-EI-TOF
Ms type: MS
Ion mode: POSITIVE
Column name: CP-SIL 8 CB LOW BLEED/MS
Retention time: 756.392  sec
m/z	relative intensity
85	22
86	17
87	27
88	138
89	371
90	77
91	109
92	24
93	17
94	45
95	52
96	7
97	3
98	5
99	9
100	8
101	168
102	148
103	78
104	86
105	56
106	13
107	31
108	10
109	75
110	8
111	6
113	6
114	22
115	109
116	401
117	186
118	60
119	37
120	14
121	22
122	2
123	10
124	16
125	10
126	5
127	12
128	37
129	39
130	56
131	45
132	80
133	52
134	11
135	80
136	48
137	66
138	7
140	9
141	5
142	32
143	24
144	229
145	59
146	43
147	45
148	19
149	39
150	16
151	15
152	3
153	2
154	1
156	16
157	11
158	14
159	30
160	109
161	93
162	29
163	38
164	10
165	28
166	7
167	2
169	3
170	4
172	28
173	57
174	65
175	105
176	88
177	26
178	7
179	35
180	7
181	2
185	9
186	26
187	132
188	154
189	83
190	90
191	69
192	25
193	16
194	4
195	4
198	5
200	19
201	9
202	199
203	84
204	51
205	33
206	50
207	13
208	3
209	1
211	1
212	1
213	1
214	4
215	4
216	47
217	615
218	999
219	280
220	92
221	35
222	7
224	2
226	2
228	5
229	3
230	13
231	18
232	279
233	121
234	42
235	8
237	1
238	1
240	3
241	4
242	1
243	4
246	11
247	56
248	898
249	291
250	92
251	10
252	3
259	1
261	3
262	3
263	2
264	68
265	12
267	3
271	1
277	2
278	384
279	470
280	124
281	31
314	1
317	1
346	1
382	1
388	1
433	1
444	2
492	1
