Mass spectrum: Cyanine; GC-EI-TOF; MS; n TMS; RT:1062.193 sec
Name: Cyanine
Class: Natural Product
Formula: [C29H35N2]+
Exact mass: 411.28002
SMILES: c(c14)cccc1c(cc[n+1]4CCC(C)C)C=C(C=3)c(c2)c(N(C3)CCC(C)C)ccc2
InChI: InChI=1S/C29H35N2/c1-22(2)13-17-30-19-15-24(26-9-5-7-11-28(26)30)21-25-16-20-31(18-14-23(3)4)29-12-8-6-10-27(25)29/h5-12,15-16,19-23H,13-14,17-18H2,1-4H3/q+1
Instrument: Pegasus III TOF-MS system, Leco; GC 6890, Agilent Technologies
Instrument type: GC-EI-TOF
Ms type: MS
Ion mode: POSITIVE
Column name: CP-SIL 8 CB LOW BLEED/MS
Retention time: 1062.193  sec
m/z	relative intensity
85	6
86	2
87	3
88	2
89	71
90	10
91	31
92	1
93	4
95	3
96	2
97	7
99	11
100	2
101	1
102	4
103	23
104	5
105	17
106	4
107	7
109	3
110	1
111	4
112	5
113	1
114	3
115	13
116	6
117	20
118	2
119	21
120	1
121	8
122	1
124	1
126	1
127	2
129	2
130	2
131	17
132	1
133	78
134	9
135	17
136	1
137	5
138	1
139	1
143	5
144	1
145	5
147	112
148	17
149	31
150	5
151	3
153	2
157	2
158	3
159	3
160	1
161	28
162	4
163	6
164	1
165	10
166	3
167	7
168	1
169	1
170	2
171	4
172	2
174	2
175	3
176	30
177	22
178	6
179	16
180	2
181	4
182	1
183	1
185	2
186	2
188	1
189	2
190	2
191	39
192	17
193	35
194	5
195	5
196	1
198	1
200	2
204	1
205	7
206	2
207	20
208	3
209	3
210	1
211	1
213	2
214	2
215	3
216	2
217	1
220	3
221	8
222	1
223	8
225	2
226	5
229	2
233	4
234	4
235	7
236	3
237	5
238	6
239	14
240	6
241	3
242	1
243	1
246	1
247	1
248	1
249	19
250	6
251	23
252	6
253	24
254	11
255	5
256	2
258	1
261	2
262	4
263	8
264	89
265	66
266	24
267	58
268	13
269	4
271	1
272	1
279	44
280	13
281	26
282	14
283	10
284	4
288	2
290	1
291	1
293	4
294	1
295	1
296	1
298	1
299	2
303	1
305	2
306	2
308	2
309	5
310	5
311	3
312	2
313	3
314	3
319	1
320	7
321	5
322	1
323	5
324	4
325	10
326	4
327	3
328	3
329	3
330	1
331	2
333	1
336	1
337	8
338	12
339	59
340	37
341	18
342	8
343	2
346	3
347	5
348	2
350	3
352	6
353	52
354	99
355	999
356	429
357	190
358	63
359	14
360	2
361	1
363	1
364	1
369	1
370	2
371	6
372	3
373	2
374	1
382	4
383	6
384	3
385	2
392	1
393	1
402	1
405	1
406	1
415	3
417	2
419	1
420	1
427	1
429	1
430	1
434	1
438	1
446	1
458	1
461	1
463	3
467	1
494	1
