Mass spectrum: DL-Malic acid; GC-EI-TOF; MS; n TMS; RT:540.743 sec
Name: DL-Malic acid
Class: Natural Product
Formula: C4H6O5
Exact mass: 134.02152
SMILES: OC(=O)CC(O)C(O)=O
InChI: InChI=1S/C4H6O5/c5-2(4(8)9)1-3(6)7/h2,5H,1H2,(H,6,7)(H,8,9)
Instrument: Pegasus III TOF-MS system, Leco; GC 6890, Agilent Technologies
Instrument type: GC-EI-TOF
Ms type: MS
Ion mode: POSITIVE
Column name: CP-SIL 8 CB LOW BLEED/MS
Retention time: 540.743  sec
m/z	relative intensity
85	16
86	2
87	13
88	4
89	8
90	1
92	5
93	10
94	1
95	4
97	1
98	2
99	19
100	3
101	181
102	21
103	34
104	4
105	11
106	1
107	1
111	1
113	5
114	1
115	26
116	29
117	111
118	14
119	24
120	3
121	2
127	2
128	2
129	27
130	3
131	85
132	15
133	274
134	40
135	30
136	3
137	2
142	2
143	47
144	8
145	12
146	4
147	999
148	161
149	113
150	13
151	19
152	2
153	1
155	1
156	1
157	4
159	5
161	4
162	1
163	3
171	49
172	6
173	10
174	1
175	97
176	17
177	34
178	5
179	3
185	3
189	109
190	93
191	81
192	19
193	8
194	1
201	1
203	13
204	7
205	8
206	1
207	5
208	1
215	1
216	1
217	51
218	12
219	7
220	1
221	23
222	6
223	4
231	1
232	1
233	190
234	39
235	18
236	2
245	117
246	25
247	18
248	3
249	1
259	1
260	4
263	26
264	8
265	33
266	10
267	5
268	1
291	1
305	5
306	11
307	32
308	17
309	8
310	2
319	11
320	4
321	2
334	1
335	36
336	12
337	6
350	1
