Mass spectrum: Niacinamide; GC-EI-TOF; MS; n TMS; RT:546.944 sec
Name: Nicotinamide
Name: Niacinamide
Class: Natural Product
Formula: C6H6N2O
Exact mass: 122.04801
SMILES: NC(=O)c(c1)cncc1
InChI: InChI=1S/C6H6N2O/c7-6(9)5-2-1-3-8-4-5/h1-4H,(H2,7,9)
Instrument: Pegasus III TOF-MS system, Leco; GC 6890, Agilent Technologies
Instrument type: GC-EI-TOF
Ms type: MS
Ion mode: POSITIVE
Column name: CP-SIL 8 CB LOW BLEED/MS
Retention time: 546.944  sec
m/z	relative intensity
85	11
86	130
87	15
88	7
89	32
90	12
91	4
92	8
93	15
94	16
95	5
96	9
97	3
98	5
99	6
100	111
101	14
102	16
103	13
104	140
105	179
106	53
107	8
108	6
109	6
110	4
111	1
112	8
113	5
114	7
115	3
116	8
117	8
118	2
119	16
120	14
121	5
122	20
123	3
124	1
126	4
127	2
128	5
129	4
130	18
131	7
132	5
133	3
134	6
135	6
136	374
137	49
138	18
139	2
140	1
144	2
145	1
146	4
147	1
148	1
149	6
150	8
151	7
152	3
153	1
156	1
158	2
159	1
160	1
161	5
162	1
163	14
164	3
165	9
166	3
167	2
169	37
170	8
171	1
172	5
174	280
175	61
176	26
177	7
178	4
179	999
180	153
181	45
182	4
183	1
184	1
185	1
186	4
187	1
193	74
194	51
195	10
196	2
