Mass spectrum: L-Glutamine; GC-EI-QQ; MS; 3 TBDMS; RT:916.38 sec
Name: L-Glutamine
Class: Natural Product
Formula: C5H10N2O3
Exact mass: 146.06914
SMILES: NC(=O)CC[C@H](N)C(O)=O
InChI: InChI=1S/C5H10N2O3/c6-3(5(9)10)1-2-4(7)8/h3H,1-2,6H2,(H2,7,8)(H,9,10)/t3-/m0/s1
Instrument: Agilent 7000B QqQMS, Agilent; Agilent 7905A series GC system, Agilent Technologies
Instrument type: GC-EI-QQ
Ms type: MS
Ion mode: POSITIVE
Column name: CP-SIL 8 CB LOW BLEED/MS
Retention time: 916.38 sec
Derivative form: C23H55N2O3Si3
Derivative mass: 491.35204
Derivative type: 3 TBDMS
m/z	relative intensity
51	1
53	2
54	3
55	7
56	24
57	20
58	11
59	44
60	7
61	6
66	1
67	1
68	3
69	2
70	3
71	2
73	999
74	123
75	226
76	17
77	13
78	1
79	3
81	2
83	36
84	26
85	21
86	12
87	7
88	5
89	2
91	3
92	1
93	1
94	3
95	2
96	4
97	4
98	11
99	32
100	69
101	23
102	15
103	21
104	3
105	3
107	3
110	2
111	5
112	15
113	8
114	37
115	141
116	40
117	87
118	15
119	12
120	2
121	3
124	4
125	2
126	9
128	98
129	25
130	31
131	31
132	67
133	123
134	23
135	15
136	2
137	1
139	35
140	15
142	257
143	37
144	30
145	8
147	449
148	101
149	110
150	16
151	9
152	2
153	2
154	9
155	11
156	25
157	19
158	27
159	16
160	31
161	10
162	7
163	2
165	3
166	1
168	233
169	40
170	77
171	17
172	21
173	31
174	35
175	19
176	7
177	6
178	10
181	10
182	7
183	3
184	20
185	8
186	21
187	16
188	17
189	62
190	19
191	13
192	3
193	3
195	2
197	215
198	467
199	86
200	27
201	8
202	11
203	5
204	4
205	5
206	6
207	31
208	8
209	6
210	1
211	1
212	1
213	9
214	26
215	11
216	10
217	3
218	5
219	3
221	16
222	4
223	3
224	1
225	7
226	3
227	3
228	3
230	58
231	28
232	12
233	4
234	2
235	3
239	1
241	5
242	9
243	5
244	9
245	26
246	21
247	8
248	3
249	1
253	6
254	2
255	7
256	7
258	76
259	22
260	10
261	2
263	4
265	1
267	1
269	1
271	183
272	86
273	29
274	13
275	4
276	1
281	7
282	4
283	5
284	4
285	1
287	4
288	3
290	7
291	2
297	1
299	92
300	41
301	15
302	31
303	16
304	8
305	2
311	27
312	8
313	7
314	3
315	2
316	17
317	6
318	3
327	4
329	207
330	59
331	21
332	7
333	2
337	2
338	1
339	6
341	17
342	8
343	4
355	2
357	118
358	39
359	15
360	6
361	2
373	1
385	51
386	20
387	9
388	2
406	1
413	24
414	11
415	7
416	2
417	9
418	4
419	1
431	465
432	175
433	78
434	19
435	5
455	2
456	1
470	4
471	2
473	17
474	7
475	4
488	11
489	5
490	2
545	1
