Mass spectrum: L-(-)-Mandelic acid; GC-EI-TOF; MS; n TMS; RT:537.621 sec
Name: L-Mandelic acid
Name: L-(-)-Mandelic acid
Class: Natural Product
Formula: C8H8O3
Exact mass: 152.04734
SMILES: OC(=O)[C@H](O)c(c1)cccc1
InChI: InChI=1S/C8H8O3/c9-7(8(10)11)6-4-2-1-3-5-6/h1-5,7,9H,(H,10,11)/t7-/m1/s1
Instrument: Pegasus III TOF-MS system, Leco; GC 6890, Agilent Technologies
Instrument type: GC-EI-TOF
Ms type: MS
Ion mode: POSITIVE
Column name: CP-SIL 8 CB LOW BLEED/MS
Retention time: 537.621  sec
m/z	relative intensity
85	2
86	1
87	7
88	2
89	50
90	54
91	32
92	3
93	4
95	2
97	1
99	1
101	2
102	4
103	22
104	23
105	81
106	17
107	9
108	1
109	1
111	3
112	1
113	1
115	10
116	2
117	19
118	21
119	34
120	5
121	9
122	1
123	2
129	1
131	32
132	6
133	54
134	9
135	21
136	3
137	6
138	1
143	1
145	9
146	3
147	382
148	68
149	100
150	14
151	4
159	1
161	4
162	1
163	55
164	17
165	12
166	2
177	7
178	3
179	999
180	176
181	53
182	5
191	1
193	2
195	1
209	2
237	1
252	2
253	71
254	20
255	8
256	1
281	9
282	2
