Mass spectrum: Adenine; GC-EI-TOF; MS; n TMS; RT:722.309 sec
Name: Adenine
Class: Natural Product
Formula: C5H5N5
Exact mass: 135.05450
SMILES: C1=NC2=C(N1)C(=NC=N2)N
InChI: InChI=1S/C5H5N5/c6-4-3-5(9-1-7-3)10-2-8-4/h1-2H,(H3,6,7,8,9,10)
Instrument: Pegasus III TOF-MS system, Leco; GC 6890, Agilent Technologies
Instrument type: GC-EI-TOF
Ms type: MS
Ion mode: POSITIVE
Column name: CP-SIL 8 CB LOW BLEED/MS
Retention time: 722.309  sec
m/z	relative intensity
85	143
86	43
87	11
88	8
89	13
90	2
91	1
92	10
93	15
94	8
95	30
96	20
97	20
98	30
99	133
100	95
101	37
102	9
103	4
104	4
107	9
108	9
109	12
110	19
111	93
112	17
113	15
114	7
115	2
116	9
117	1
119	11
120	5
121	5
122	14
123	30
124	16
125	27
126	11
127	4
128	1
129	1
130	26
131	4
132	6
133	1
134	4
135	25
136	11
137	28
138	30
139	12
140	8
141	10
142	2
143	1
144	1
147	2
148	1
149	17
150	14
151	15
152	17
153	6
154	5
155	6
156	3
157	10
158	2
161	1
162	13
163	3
164	34
165	97
166	24
167	14
168	11
169	2
170	2
171	6
172	1
173	1
175	2
176	33
177	10
178	8
179	23
180	29
181	7
182	7
183	10
184	3
185	1
186	1
190	4
191	33
192	237
193	40
194	21
195	4
196	5
197	2
204	3
205	2
206	57
207	27
208	9
209	3
210	5
211	3
213	9
214	20
215	2
221	13
222	13
223	6
224	2
234	8
235	5
236	5
237	31
238	20
239	5
240	1
241	1
248	19
249	7
250	4
251	4
252	1
262	4
263	20
264	999
265	260
266	99
267	18
268	3
270	1
271	1
273	1
274	1
275	1
278	29
279	208
280	57
281	23
282	3
286	1
290	1
337	1
452	1
477	1
