Mass spectrum: 3-Pyridylacetic acid; GC-EI-TOF; MS; n TMS; RT:496.561 sec
Name: 3-Pyridylacetic acid
Class: Natural Product
Formula: C7H7NO2
Exact mass: 137.04768
SMILES: OC(=O)Cc(c1)cncc1
InChI: InChI=1S/C7H7NO2/c9-7(10)4-6-2-1-3-8-5-6/h1-3,5H,4H2,(H,9,10)
Instrument: Pegasus III TOF-MS system, Leco; GC 6890, Agilent Technologies
Instrument type: GC-EI-TOF
Ms type: MS
Ion mode: POSITIVE
Column name: CP-SIL 8 CB LOW BLEED/MS
Retention time: 496.561  sec
m/z	relative intensity
85	9
86	3
87	5
88	6
89	16
90	21
91	318
92	403
93	67
94	7
95	13
96	2
97	93
98	6
99	1
100	1
101	8
103	1
104	2
105	1
106	17
107	6
108	6
109	4
110	2
111	1
116	12
117	116
118	14
119	106
120	649
121	60
122	12
123	6
124	2
130	1
131	1
132	5
133	1
134	16
135	7
136	12
137	5
138	17
139	1
146	2
147	1
148	7
149	12
150	13
151	5
152	2
163	1
164	6
165	999
166	168
167	49
168	3
178	3
193	2
194	685
195	115
196	37
197	3
209	159
210	30
211	6
