Mass spectrum: D-(+)-Trehalose; GC-EI-TOF; MS; n TMS; RT:1009.540 sec
Name: D-(+)-Trehalose
Class: Natural Product
Formula: C12H22O11
Exact mass: 342.11621
SMILES: OC[C@@H](O1)[C@@H](O)[C@H](O)[C@@H](O)[C@H]1O[C@@H](O2)[C@H](O)[C@@H](O)[C@H](O)[C@@H](CO)2
InChI: InChI=1S/C12H22O11/c13-1-3-5(15)7(17)9(19)11(21-3)23-12-10(20)8(18)6(16)4(2-14)22-12/h3-20H,1-2H2/t3-,4-,5-,6-,7+,8+,9-,10-,11-,12-/m1/s1
Instrument: Pegasus III TOF-MS system, Leco; GC 6890, Agilent Technologies
Instrument type: GC-EI-TOF
Ms type: MS
Ion mode: POSITIVE
Column name: CP-SIL 8 CB LOW BLEED/MS
Retention time: 1009.540  sec
m/z	relative intensity
85	30
86	6
87	22
88	9
89	57
90	7
91	6
92	2
93	2
94	2
95	6
96	3
97	16
98	4
99	28
100	4
101	75
102	17
103	777
104	76
105	38
106	3
107	2
108	1
109	48
110	4
111	23
112	3
113	46
114	12
115	31
116	48
117	248
118	27
119	29
120	3
121	2
123	2
125	6
126	3
127	23
128	8
129	632
130	81
131	130
132	20
133	192
134	28
135	21
136	3
137	2
138	1
139	16
140	4
141	19
142	22
143	93
144	14
145	31
146	7
147	962
148	153
149	129
150	17
151	13
152	3
153	21
154	7
155	106
156	20
157	92
158	14
159	18
160	4
161	13
162	3
163	20
164	4
165	3
166	2
167	7
168	3
169	441
170	77
171	45
172	7
173	30
174	7
175	20
176	5
177	21
178	4
179	3
180	1
181	8
182	3
183	27
184	5
185	8
186	2
187	8
188	2
189	129
190	35
191	999
192	182
193	86
194	11
195	4
196	1
197	3
198	2
199	17
200	4
201	11
202	9
203	49
204	314
205	125
206	41
207	26
208	5
209	3
211	2
213	2
214	1
215	20
216	8
217	594
218	152
219	71
220	13
221	43
222	10
223	7
224	1
225	1
227	13
228	5
229	47
230	27
231	45
232	13
233	28
234	10
235	4
236	1
239	3
240	1
241	16
242	9
243	175
244	49
245	48
246	12
247	13
248	3
249	2
250	1
253	1
255	8
256	4
257	20
258	6
259	16
260	5
261	3
262	1
263	15
264	5
265	11
266	3
267	2
268	1
269	1
270	3
271	168
272	44
273	28
274	6
275	3
276	1
277	2
278	3
279	11
280	3
281	2
287	5
288	3
289	6
290	11
291	32
292	11
293	7
294	2
295	1
296	1
297	1
303	2
304	5
305	28
306	13
307	7
308	2
309	1
315	1
317	12
318	8
319	54
320	22
321	11
322	4
323	4
324	1
330	2
331	55
332	33
333	19
334	7
335	3
336	1
345	9
346	5
347	4
348	1
349	2
359	2
360	28
361	913
362	322
363	154
364	40
365	11
366	2
373	1
377	10
378	4
379	3
380	1
393	1
407	1
408	1
435	9
436	5
437	3
450	1
451	7
452	4
453	2
463	3
464	1
465	1
