Mass spectrum: alpha-MethylBenzylamine; GC-EI-TOF; MS; n TMS; RT:395.658 sec
Name: a-MethylBenzylamine
Name: alpha-MethylBenzylamine
Class: Natural Product
Formula: C8H11N
Exact mass: 121.08915
SMILES: CC(N)c(c1)cccc1
InChI: InChI=1S/C8H11N/c1-7(9)8-5-3-2-4-6-8/h2-7H,9H2,1H3
Instrument: Pegasus III TOF-MS system, Leco; GC 6890, Agilent Technologies
Instrument type: GC-EI-TOF
Ms type: MS
Ion mode: POSITIVE
Column name: CP-SIL 8 CB LOW BLEED/MS
Retention time: 395.658  sec
m/z	relative intensity
85	3
86	15
87	3
88	2
89	21
90	6
91	49
92	8
93	15
94	3
95	4
96	2
98	3
99	1
100	48
101	7
102	13
103	79
104	94
105	110
106	57
107	21
108	3
109	4
110	1
114	10
115	10
116	95
117	21
118	16
119	24
120	27
121	19
122	3
123	1
129	1
130	3
131	7
132	25
133	18
134	7
135	338
136	50
137	14
138	1
143	2
144	1
145	22
146	16
147	8
148	9
149	3
150	1
159	9
160	7
161	25
162	34
163	7
164	2
174	1
176	26
177	8
178	999
179	166
180	47
181	5
190	1
191	1
192	8
193	6
