Mass spectrum: 1-Kestose; GC-EI-TOF; MS; n TMS; RT:1180.936 sec
Name: 1-Kestose
Class: Natural Product
Formula: C19H34O16
Exact mass: 518.18469
SMILES: OCC(O1)C(O)C(O)C(O)C1OC(COOC(CC)(O3)C(O)C(O)C(CO)3)(O2)C(O)C(O)C(CO)2
InChI: InChI=1S/C19H34O16/c1-2-18(15(28)11(24)8(4-21)32-18)35-30-6-19(16(29)12(25)9(5-22)33-19)34-17-14(27)13(26)10(23)7(3-20)31-17/h7-17,20-29H,2-6H2,1H3/t7-,8-,9-,10-,11-,12-,13+,14-,15+,16+,17-,18+,19+/m1/s1
Instrument: Pegasus III TOF-MS system, Leco; GC 6890, Agilent Technologies
Instrument type: GC-EI-TOF
Ms type: MS
Ion mode: POSITIVE
Column name: CP-SIL 8 CB LOW BLEED/MS
Retention time: 1180.936  sec
m/z	relative intensity
85	23
86	4
87	16
88	11
89	31
90	4
91	5
92	1
93	2
94	3
95	7
96	2
97	14
98	4
99	21
100	4
101	43
102	31
103	566
104	57
105	29
106	2
107	3
108	1
109	37
110	3
111	21
112	4
113	27
114	6
115	26
116	18
117	113
118	13
119	17
120	2
121	2
123	1
125	6
126	3
127	24
128	7
129	464
130	70
131	73
132	12
133	109
134	15
135	13
136	1
137	1
139	13
140	7
141	23
142	36
143	88
144	14
145	32
146	6
147	506
148	81
149	75
150	10
151	9
152	2
153	16
154	11
155	59
156	13
157	87
158	13
159	14
160	2
161	9
162	2
163	14
164	3
165	2
166	1
167	11
168	3
169	386
170	59
171	37
172	5
173	28
174	5
175	11
176	2
177	17
178	4
179	4
180	1
181	10
182	5
183	35
184	6
185	16
186	3
187	6
188	2
189	66
190	18
191	113
192	22
193	12
194	1
195	4
196	1
197	4
198	1
199	18
200	3
201	9
202	5
203	23
204	69
205	40
206	12
207	10
208	2
209	2
211	3
213	2
214	1
215	36
216	13
217	999
218	219
219	108
220	18
221	25
222	6
223	4
224	1
225	1
226	1
227	7
228	2
229	31
230	92
231	51
232	17
233	19
234	6
235	4
236	1
237	1
239	3
240	1
241	8
242	4
243	100
244	31
245	31
246	8
247	10
248	2
249	2
251	3
252	1
253	1
254	1
255	8
256	4
257	44
258	11
259	20
260	5
261	3
262	1
263	7
264	2
265	4
266	1
267	1
269	2
270	2
271	119
272	36
273	28
274	7
275	5
276	1
277	2
278	1
279	1
281	1
283	2
284	1
285	4
286	1
287	5
288	3
289	5
290	2
291	10
292	4
293	4
294	1
295	1
297	1
299	1
301	2
302	1
303	2
304	2
305	15
306	6
307	4
308	1
309	1
315	1
317	5
318	4
319	26
320	20
321	9
322	3
323	1
325	1
331	18
332	10
333	6
334	2
335	1
345	5
346	3
347	5
348	2
349	2
357	1
359	2
360	13
361	445
362	170
363	87
364	25
365	7
366	1
373	1
379	1
407	1
435	1
436	8
437	73
438	39
439	20
440	7
441	2
450	7
451	59
452	32
453	16
454	6
455	2
