Mass spectrum: Daidzein; GC-EI-TOF; MS; n TMS; RT:1078.841 sec
Name: Daidzein
Class: Natural Product
Formula: C15H10O4
Exact mass: 254.05791
SMILES: Oc(c3)ccc(c3)C(=C1)C(=O)c(c2)c(cc(O)c2)O1
InChI: InChI=1S/C15H10O4/c16-10-3-1-9(2-4-10)13-8-19-14-7-11(17)5-6-12(14)15(13)18/h1-8,16-17H
Instrument: Pegasus III TOF-MS system, Leco; GC 6890, Agilent Technologies
Instrument type: GC-EI-TOF
Ms type: MS
Ion mode: POSITIVE
Column name: CP-SIL 8 CB LOW BLEED/MS
Retention time: 1078.841  sec
m/z	relative intensity
85	39
86	13
87	26
88	28
89	102
90	23
91	85
92	16
93	59
94	14
95	49
96	15
97	17
98	12
99	58
100	14
101	61
102	22
103	34
104	22
105	58
106	30
107	43
108	23
109	40
110	13
111	21
112	9
113	24
114	16
115	144
116	27
117	31
118	13
119	110
120	23
121	80
122	18
123	20
124	8
125	16
126	27
127	23
128	18
129	20
130	5
131	30
132	36
133	64
134	24
135	78
136	21
137	60
138	17
139	39
140	24
141	33
142	16
143	15
144	8
145	63
146	20
147	81
148	35
149	77
150	50
151	66
152	90
153	37
154	35
155	41
156	23
157	13
158	3
159	44
160	15
161	46
162	38
163	90
164	45
165	74
166	24
167	17
168	13
169	80
170	59
171	22
172	3
173	22
174	18
175	288
176	120
177	84
178	52
179	41
180	29
181	37
182	12
183	24
184	590
185	105
186	12
187	9
188	9
189	27
190	119
191	62
192	40
193	49
194	14
195	22
196	7
197	11
198	4
199	5
200	1
201	3
202	7
203	9
204	5
205	19
206	9
207	24
208	38
209	35
210	10
211	23
212	2
213	6
214	3
215	4
216	2
217	7
218	5
219	23
220	13
221	29
222	15
223	33
224	19
225	25
226	10
227	7
228	2
229	1
230	1
231	3
232	1
233	10
234	9
235	23
236	18
237	51
238	17
239	24
240	12
241	8
242	1
243	8
244	2
245	2
247	5
248	2
249	10
250	12
251	26
252	15
253	58
254	37
255	21
256	7
257	4
259	1
260	2
261	5
263	8
264	6
265	23
266	22
267	32
268	13
269	16
270	7
271	2
272	1
275	3
276	4
277	7
278	4
279	14
280	11
281	34
282	37
283	100
284	27
285	10
286	1
287	2
288	1
289	2
291	4
292	2
293	22
294	20
295	28
296	14
297	27
298	7
299	5
300	2
301	2
302	1
305	3
306	3
307	6
308	10
309	35
310	33
311	68
312	24
313	14
314	4
315	1
316	1
317	2
320	2
321	4
322	2
323	13
324	13
325	79
326	31
327	27
328	14
329	7
330	4
331	1
334	1
335	3
336	3
337	6
338	5
339	15
340	10
341	14
342	6
343	4
344	2
345	1
347	1
349	1
350	3
351	4
352	6
353	19
354	37
355	141
356	110
357	56
358	23
359	7
360	1
361	1
364	1
365	4
366	6
367	24
368	20
369	14
370	11
371	4
372	4
373	4
374	2
375	3
376	1
377	3
379	2
380	5
381	21
382	96
383	781
384	425
385	163
386	49
387	12
388	6
389	6
390	3
391	7
392	4
393	8
394	5
395	9
396	38
397	244
398	999
399	433
400	162
401	49
402	12
403	5
404	1
405	1
413	1
416	1
418	1
429	1
450	1
453	1
464	1
467	2
468	1
485	1
493	1
