Mass spectrum: L-Glutamic acid; GC-EI-QQ; MS; 3 TBDMS; RT:864.9 sec
Name: L-Glutamic acid
Class: Natural Product
Formula: C5H9NO4
Exact mass: 147.05316
SMILES: OC(=O)CC[C@H](N)C(O)=O
InChI: InChI=1S/C5H9NO4/c6-3(5(9)10)1-2-4(7)8/h3H,1-2,6H2,(H,7,8)(H,9,10)/t3-/m0/s1
Instrument: Agilent 7000B QqQMS, Agilent; Agilent 7902A series GC system, Agilent Technologies
Instrument type: GC-EI-QQ
Ms type: MS
Ion mode: POSITIVE
Column name: CP-SIL 8 CB LOW BLEED/MS
Retention time: 864.9 sec
Derivative form: C23H54NO4Si3
Derivative mass: 492.33606
Derivative type: 3 TBDMS
m/z	relative intensity
51	15
52	15
53	6
54	2
55	17
56	43
57	40
58	15
59	47
60	8
61	10
63	7
64	4
65	2
67	9
68	6
69	25
70	5
71	5
73	999
74	122
75	425
76	36
77	78
78	16
79	99
81	23
83	11
84	106
85	42
86	9
87	10
89	26
90	5
91	6
92	5
93	10
94	4
95	10
96	23
97	9
98	11
99	42
100	120
101	39
102	16
103	41
104	8
105	5
107	7
108	5
109	3
110	7
111	77
112	22
113	25
114	37
115	82
116	14
117	41
118	9
119	15
120	8
121	9
124	8
126	11
127	11
129	168
131	62
132	56
133	184
134	33
135	25
137	3
138	4
140	17
142	50
143	17
144	11
145	13
147	606
148	119
149	162
150	18
151	22
152	20
153	3
155	20
156	14
157	11
159	284
160	36
161	133
162	13
165	5
166	3
168	8
169	7
170	134
171	45
172	23
173	23
174	41
175	25
176	9
177	15
178	4
180	3
182	6
184	11
186	27
187	18
188	13
189	63
190	19
191	24
192	11
193	3
194	2
195	3
198	66
199	11
200	7
201	5
202	17
203	12
204	6
205	6
207	151
208	30
209	26
210	3
211	1
214	15
215	4
216	14
218	5
221	33
222	12
223	10
224	10
225	8
226	10
227	7
228	8
229	8
230	10
231	12
232	14
233	6
234	8
235	8
237	6
238	7
239	8
241	7
242	11
244	30
245	25
246	35
247	8
248	10
249	8
250	8
251	6
253	9
254	7
256	18
258	12
259	10
260	12
261	9
262	7
263	12
265	2
267	6
269	4
270	2
272	420
273	124
274	42
275	6
278	1
281	21
282	7
283	5
286	56
288	35
289	8
291	2
292	1
295	1
300	116
301	30
302	24
303	10
304	2
306	2
311	23
312	10
314	9
315	15
317	5
320	1
326	2
327	4
328	1
330	493
331	147
332	51
333	7
334	2
337	2
342	24
344	3
355	2
356	2
358	70
359	16
360	6
383	2
401	1
404	41
405	9
416	6
417	2
432	333
433	139
434	60
435	17
436	2
447	2
473	1
474	8
475	7
488	3
