Mass spectrum: Imidazolelactic acid; GC-EI-TOF; MS; n TMS; RT:723.004 sec
Name: Imidazolelactate
Name: Imidazolelactic acid
Class: Natural Product
Formula: C6H8N2O3
Exact mass: 156.05349
SMILES: C1=C(NC=N1)C[C@@H](C(=O)O)O
InChI: InChI=1S/C6H8N2O3/c9-5(6(10)11)1-4-2-7-3-8-4/h2-3,5,9H,1H2,(H,7,8)(H,10,11)/t5-/m0/s1
Instrument: Pegasus III TOF-MS system, Leco; GC 6890, Agilent Technologies
Instrument type: GC-EI-TOF
Ms type: MS
Ion mode: POSITIVE
Column name: CP-SIL 8 CB LOW BLEED/MS
Retention time: 723.004  sec
m/z	relative intensity
85	23
86	8
87	11
88	2
89	6
91	1
92	6
93	11
94	6
95	6
96	8
97	11
98	22
99	12
100	12
101	12
102	33
103	24
104	4
105	10
106	5
107	6
108	4
109	4
110	8
111	13
112	16
113	10
114	3
115	13
116	6
117	20
118	4
119	13
120	6
121	19
122	3
123	2
124	15
125	11
126	13
127	5
128	3
129	5
130	21
131	53
132	13
133	73
134	13
135	13
136	5
137	10
138	5
139	8
140	9
141	3
142	4
143	5
144	3
145	2
146	1
147	362
148	61
149	36
150	6
151	27
152	11
153	999
154	169
155	53
156	10
157	5
158	5
159	2
161	1
163	3
164	3
165	20
166	20
167	73
168	14
169	7
170	5
171	2
172	2
173	1
174	1
175	4
177	2
179	5
180	27
181	13
182	11
183	34
184	15
185	6
186	1
189	1
190	11
191	6
192	2
193	11
194	4
195	6
196	2
197	3
198	3
199	3
200	2
204	9
205	2
206	1
207	4
209	3
210	11
211	13
212	7
213	4
214	1
215	1
217	1
219	3
220	1
223	5
224	1
225	12
226	31
227	33
228	13
229	4
230	2
237	10
238	3
239	70
240	25
241	17
242	5
243	1
251	1
252	1
253	9
254	8
255	543
256	142
257	59
258	11
259	2
266	1
267	51
268	23
269	11
270	3
271	1
281	6
282	110
283	35
284	16
285	4
286	1
292	23
293	7
294	4
295	1
301	1
312	1
313	16
314	8
315	7
316	1
318	1
327	4
328	3
329	38
330	25
331	13
332	4
333	1
356	3
357	58
358	26
359	12
360	3
371	1
372	12
373	6
374	2
