Mass spectrum: N-alpha-Acetyl-L-ornithine; GC-EI-TOF; MS; n TMS; RT:756.638 sec
Name: N-a-Acetyl-L-Ornithine
Name: N-alpha-Acetyl-L-ornithine
Class: Natural Product
Formula: C7H14N2O3
Exact mass: 174.10044
SMILES: NCCCC(NC(C)=O)C(O)=O
InChI: InChI=1S/C7H14N2O3/c1-5(10)9-6(7(11)12)3-2-4-8/h6H,2-4,8H2,1H3,(H,9,10)(H,11,12)/t6-/m0/s1
Instrument: Pegasus III TOF-MS system, Leco; GC 6890, Agilent Technologies
Instrument type: GC-EI-TOF
Ms type: MS
Ion mode: POSITIVE
Column name: CP-SIL 8 CB LOW BLEED/MS
Retention time: 756.638  sec
m/z	relative intensity
85	30
86	386
87	55
88	23
89	8
90	2
91	1
92	3
93	3
94	33
95	7
96	21
97	11
98	26
99	37
100	251
101	53
102	63
103	29
104	6
105	6
106	1
107	1
108	1
109	3
110	11
111	6
112	74
113	34
114	290
115	69
116	118
117	61
118	16
119	19
120	2
121	4
122	2
123	2
124	5
125	4
126	27
127	11
128	38
129	44
130	140
131	102
132	63
133	109
134	21
135	12
136	1
137	1
138	3
139	5
140	27
141	16
142	345
143	69
144	43
145	12
146	66
147	392
148	68
149	54
150	9
151	5
152	19
153	5
154	23
155	11
156	37
157	50
158	233
159	40
160	27
161	11
162	3
163	2
166	3
167	3
168	28
169	10
170	43
171	36
172	389
173	99
174	999
175	195
176	86
177	14
178	5
179	1
180	1
181	1
182	5
183	6
184	52
185	64
186	26
187	169
188	49
189	25
190	26
191	9
192	3
193	2
194	1
195	2
196	3
197	1
198	13
199	5
200	816
201	168
202	78
203	17
204	15
205	9
206	3
207	3
209	1
210	5
211	10
212	16
213	7
214	12
215	4
216	30
217	10
218	13
219	3
220	4
221	16
222	3
223	1
226	8
227	3
228	5
229	2
230	12
231	3
232	2
240	1
241	2
242	4
243	1
244	10
245	11
246	5
247	2
248	7
249	1
256	1
258	26
259	8
260	6
261	7
262	5
263	1
271	2
272	3
273	1
274	7
275	13
276	3
277	1
285	1
286	27
287	9
288	21
289	7
290	2
299	14
300	12
301	7
302	25
303	9
304	2
315	1
316	2
317	3
318	1
330	2
331	3
332	2
333	2
334	2
335	27
336	12
337	5
357	1
358	1
359	2
360	1
372	2
373	3
374	1
375	2
389	1
446	3
447	26
448	19
449	8
450	2
461	1
462	6
463	5
464	2
465	1
