Mass spectrum: D-(-)-Mannitol; GC-EI-TOF; MS; n TMS; RT:735.894 sec
Name: D-(-)-Mannitol
Class: Natural Product
Formula: C6H14O6
Exact mass: 182.07904
SMILES: OCC([H])(O)C([H])(O)C([H])(O)C([H])(O)CO
InChI: InChI=1S/C6H14O6/c7-1-3(9)5(11)6(12)4(10)2-8/h3-12H,1-2H2/t3-,4-,5-,6-/m1/s1
Instrument: Pegasus III TOF-MS system, Leco; GC 6890, Agilent Technologies
Instrument type: GC-EI-TOF
Ms type: MS
Ion mode: POSITIVE
Column name: CP-SIL 8 CB LOW BLEED/MS
Retention time: 735.894  sec
m/z	relative intensity
85	11
86	3
87	21
88	20
89	91
90	9
91	5
93	1
94	1
95	2
96	1
97	20
98	2
99	12
100	2
101	71
102	14
103	637
104	63
105	31
106	2
107	1
109	1
111	8
112	2
113	17
114	3
115	17
116	23
117	379
118	39
119	31
120	3
121	2
125	2
127	8
128	2
129	263
130	34
131	85
132	13
133	185
134	28
135	17
136	2
137	1
139	1
140	1
141	6
142	5
143	45
144	6
145	11
146	4
147	999
148	161
149	103
150	11
151	6
152	1
153	2
154	1
155	12
156	4
157	214
158	29
159	17
160	2
161	9
162	2
163	16
164	3
165	1
167	3
168	1
169	11
170	2
171	2
172	1
173	3
174	1
175	20
176	4
177	10
178	2
179	1
181	1
182	1
183	22
184	4
185	3
186	1
187	3
188	1
189	98
190	27
191	88
192	17
193	8
194	1
201	5
202	3
203	14
204	117
205	485
206	100
207	55
208	8
209	3
210	1
215	6
216	2
217	491
218	108
219	48
220	7
221	32
222	8
223	4
224	1
225	1
228	1
229	59
230	21
231	38
232	8
233	4
234	1
235	1
237	1
239	3
240	1
241	1
242	1
243	5
244	2
245	2
246	2
247	3
248	1
249	1
254	1
255	20
256	5
257	7
258	2
259	10
260	3
261	1
263	1
265	6
266	2
267	1
273	2
277	20
278	11
279	5
280	2
291	23
292	8
293	4
294	1
304	1
305	24
306	13
307	68
308	21
309	10
310	2
317	2
318	7
319	443
320	143
321	70
322	16
323	4
329	2
330	1
331	25
332	8
333	5
334	1
344	1
345	21
346	7
347	4
348	1
408	1
409	4
410	2
411	1
419	6
420	4
421	11
422	5
423	3
434	1
