Mass spectrum: O-Phospho-L-serine; GC-EI-TOF; MS; n TMS; RT:699.745 sec
Name: O-Phospho-L-serine
Class: Natural Product
Formula: C3H8NO6P
Exact mass: 185.00892
SMILES: N[C@@H](COP(O)(O)=O)C(O)=O
InChI: InChI=1S/C3H8NO6P/c4-2(3(5)6)1-10-11(7,8)9/h2H,1,4H2,(H,5,6)(H2,7,8,9)/t2-/m0/s1
Instrument: Pegasus III TOF-MS system, Leco; GC 6890, Agilent Technologies
Instrument type: GC-EI-TOF
Ms type: MS
Ion mode: POSITIVE
Column name: CP-SIL 8 CB LOW BLEED/MS
Retention time: 699.745  sec
m/z	relative intensity
85	55
86	92
87	74
88	123
89	68
90	14
91	35
92	13
93	15
94	2
95	2
96	9
97	5
98	66
99	45
100	579
101	88
102	52
103	117
104	19
105	53
106	8
107	27
108	2
109	8
112	6
113	37
114	329
115	224
116	518
117	138
118	36
119	76
120	10
121	51
122	4
123	22
124	1
125	1
126	3
127	2
128	10
129	77
130	35
131	114
132	63
133	515
134	88
135	181
136	20
137	83
138	8
139	5
140	5
141	5
142	20
143	25
144	260
145	35
146	19
147	704
148	124
149	84
150	8
151	56
152	6
153	10
155	1
156	2
158	10
159	25
160	12
161	8
162	3
163	20
164	4
165	20
166	5
167	22
168	2
169	2
170	1
172	42
173	12
174	12
175	3
176	3
177	14
178	10
179	19
180	6
181	95
182	20
183	34
184	12
185	3
186	4
187	2
188	200
189	77
190	30
191	86
192	22
193	103
194	21
195	108
196	19
197	22
198	4
199	1
200	3
202	5
203	6
204	4
205	14
206	6
207	128
208	25
209	22
210	13
211	358
212	68
213	36
214	7
215	2
216	258
217	62
218	178
219	33
220	13
221	10
222	4
223	2
224	2
225	85
226	18
227	71
228	8
229	3
230	4
231	11
232	206
233	44
234	20
235	1
236	2
237	1
238	2
239	1
240	2
241	20
242	2
243	14
244	3
250	1
252	13
253	6
254	3
255	5
256	6
258	1
260	1
262	1
264	1
266	1
267	4
268	24
269	16
270	8
271	1
277	1
282	1
283	40
284	28
285	28
286	9
287	3
289	1
298	58
299	999
300	332
301	171
302	35
303	10
305	1
307	1
308	2
309	3
310	2
311	3
313	11
314	73
315	257
316	88
317	49
318	9
319	3
326	1
327	3
328	69
329	23
330	8
331	2
339	1
340	7
341	3
342	5
343	3
345	1
347	1
354	1
355	59
356	846
357	311
358	148
359	34
360	6
361	1
368	3
369	1
370	4
371	2
372	1
373	4
386	1
401	1
413	1
416	1
429	1
430	2
431	1
432	1
440	1
454	1
457	2
458	12
459	7
460	3
461	1
465	1
474	1
