Mass spectrum: Urocanic acid; GC-EI-TOF; MS; n TMS; RT:774.504 sec
Name: Urocanate
Name: Urocanic acid
Class: Natural Product
Formula: C6H6N2O2
Exact mass: 138.04293
SMILES: C1=C(NC=N1)C=CC(=O)O
InChI: InChI=1S/C6H6N2O2/c9-6(10)2-1-5-3-7-4-8-5/h1-4H,(H,7,8)(H,9,10)/b2-1+
Instrument: Pegasus III TOF-MS system, Leco; GC 6890, Agilent Technologies
Instrument type: GC-EI-TOF
Ms type: MS
Ion mode: POSITIVE
Column name: CP-SIL 8 CB LOW BLEED/MS
Retention time: 774.504  sec
m/z	relative intensity
85	41
86	65
87	7
88	4
89	39
92	56
93	91
94	81
95	20
96	21
97	44
98	50
100	21
102	35
103	12
106	27
108	26
111	22
112	19
115	13
120	46
123	18
124	50
126	63
131	52
132	47
133	56
134	26
135	101
136	87
137	16
139	52
140	3
141	21
147	999
148	176
149	72
150	47
151	122
152	145
153	27
154	42
155	9
158	14
165	351
166	125
167	128
180	375
181	103
182	4
193	457
194	150
195	55
198	6
199	2
204	3
207	3
211	1
223	2
224	22
226	18
229	9
232	12
237	12
238	57
239	140
241	3
242	5
243	3
250	2
253	14
267	777
268	99
269	10
271	18
273	7
279	5
281	33
282	223
283	171
284	86
285	12
292	6
295	2
299	17
301	13
323	6
329	6
332	10
354	5
355	3
368	7
370	6
383	10
419	3
424	3
442	5
460	2
472	2
483	16
