Mass spectrum: 3-Hydroxypyruvic acid; GC-EI-TOF; MS; n TMS; RT:458.644 sec
Name: 3-Hydroxypyruvate
Name: 3-Hydroxypyruvic acid
Class: Natural Product
Formula: C3H4O4
Exact mass: 104.01096
SMILES: OCC(=O)C(O)=O
InChI: InChI=1S/C3H4O4/c4-1-2(5)3(6)7/h4H,1H2,(H,6,7)
Instrument: Pegasus III TOF-MS system, Leco; GC 6890, Agilent Technologies
Instrument type: GC-EI-TOF
Ms type: MS
Ion mode: POSITIVE
Column name: CP-SIL 8 CB LOW BLEED/MS
Retention time: 458.644  sec
m/z	relative intensity
85	106
86	84
87	45
88	47
89	779
90	74
91	37
92	6
93	6
94	3
95	1
96	3
97	1
98	36
99	18
100	177
101	29
102	38
103	233
104	30
105	37
106	4
107	2
112	1
113	13
114	980
115	124
116	53
117	46
118	5
119	52
120	6
121	2
124	6
125	1
126	2
127	2
128	75
129	15
130	26
131	109
132	21
133	126
134	20
135	12
141	1
142	10
143	4
144	10
145	2
146	4
147	999
148	163
149	88
150	10
151	3
156	9
157	15
158	39
159	11
160	14
161	3
162	2
163	87
164	14
165	9
167	1
169	1
172	60
173	15
174	9
175	1
176	2
177	31
178	4
183	1
186	86
187	39
188	32
189	6
190	3
191	31
192	5
193	1
194	1
195	2
198	1
200	1
201	51
202	10
203	6
204	16
205	5
206	1
209	1
211	1
215	2
216	5
217	3
218	1
219	4
220	4
226	1
227	1
230	2
231	5
232	2
234	8
235	3
236	1
246	61
247	12
248	5
249	2
258	1
261	1
262	419
263	95
264	40
265	5
277	1
278	1
297	1
299	1
309	1
315	1
316	1
324	1
351	1
352	1
357	1
360	1
394	1
407	1
410	1
414	1
433	1
465	1
481	1
496	1
