Mass spectrum: (-)-Shikimic acid; GC-EI-TOF; MS; n TMS; RT:687.344 sec
Name: (-)-Shikimic acid
Class: Natural Product
Formula: C7H10O5
Exact mass: 174.05282
SMILES: OC(=O)C(C1)=CC([H])(O)C([H])(O)C([H])(O)1
InChI: InChI=1S/C7H10O5/c8-4-1-3(7(11)12)2-5(9)6(4)10/h1,4-6,8-10H,2H2,(H,11,12)/t4-,5-,6-/m1/s1
Instrument: Pegasus III TOF-MS system, Leco; GC 6890, Agilent Technologies
Instrument type: GC-EI-TOF
Ms type: MS
Ion mode: POSITIVE
Column name: CP-SIL 8 CB LOW BLEED/MS
Retention time: 687.344  sec
m/z	relative intensity
85	7
86	3
87	7
88	3
89	6
90	2
91	19
92	7
93	29
94	6
95	11
96	6
97	6
98	3
99	8
100	1
101	27
102	5
103	42
104	6
105	23
106	4
107	4
108	2
109	10
110	2
111	12
112	2
113	5
114	1
115	10
116	20
117	17
118	4
119	14
120	3
121	13
122	2
123	9
124	2
125	9
126	3
127	3
128	1
129	11
130	2
131	43
132	7
133	111
134	16
135	17
136	3
137	6
138	2
139	7
140	3
141	22
142	4
143	7
144	1
145	3
146	1
147	414
148	67
149	52
150	7
151	23
152	5
153	7
154	3
155	4
156	3
157	4
158	1
159	3
161	3
162	1
163	4
164	2
165	9
166	7
167	29
168	6
169	9
170	2
171	2
173	1
175	2
177	8
178	1
179	6
180	11
181	19
182	7
183	5
184	1
185	1
187	1
189	53
190	14
191	34
192	7
193	28
194	6
195	18
196	4
197	4
198	1
199	2
200	1
201	1
203	2
204	999
205	197
206	88
207	19
208	4
209	6
210	4
211	3
212	1
213	1
215	4
216	1
217	6
218	1
221	19
222	5
223	9
224	2
225	5
226	1
227	2
228	1
229	3
230	1
237	1
239	16
240	6
241	6
242	2
243	11
244	2
245	1
251	1
253	5
254	40
255	55
256	16
257	8
258	6
259	1
265	6
266	1
267	15
268	4
269	4
270	1
271	1
281	4
282	24
283	15
284	6
285	3
299	1
305	3
306	1
312	3
313	2
314	1
329	3
330	1
331	9
332	4
333	2
341	1
342	2
343	3
344	2
345	1
346	1
355	3
356	8
357	25
358	10
359	6
360	1
371	2
372	23
373	10
374	6
375	1
447	4
448	3
449	1
461	1
462	7
463	5
464	2
