Mass spectrum: 2,3-Dihydroxybenzoic acid; GC-EI-TOF; MS; n TMS; RT:662.886 sec
Name: 2,3-Dihydroxybenzoate
Name: 2,3-Dihydroxybenzoic acid
Class: Natural Product
Formula: C7H6O4
Exact mass: 154.02661
SMILES: OC(=O)c(c1)c(O)c(O)cc1
InChI: InChI=1S/C7H6O4/c8-5-3-1-2-4(6(5)9)7(10)11/h1-3,8-9H,(H,10,11)
Instrument: Pegasus III TOF-MS system, Leco; GC 6890, Agilent Technologies
Instrument type: GC-EI-TOF
Ms type: MS
Ion mode: POSITIVE
Column name: CP-SIL 8 CB LOW BLEED/MS
Retention time: 662.886  sec
m/z	relative intensity
85	17
86	3
87	14
88	7
89	49
90	11
91	66
92	15
93	44
94	7
95	23
96	5
97	8
98	14
99	7
100	1
101	6
102	8
103	53
104	21
105	147
106	18
107	74
108	10
109	43
110	7
111	10
112	2
113	5
114	1
115	37
116	8
117	34
118	10
119	66
120	12
121	28
122	10
123	23
124	3
125	6
126	12
127	5
128	5
129	13
130	2
131	60
132	12
133	185
134	29
135	65
136	19
137	304
138	43
139	16
140	1
141	4
142	1
143	11
144	1
145	10
146	3
147	254
148	46
149	77
150	13
151	33
152	6
153	5
154	1
155	2
157	3
159	5
160	4
161	10
162	6
163	43
164	18
165	62
166	22
167	9
168	2
169	2
171	1
173	1
174	1
175	7
176	4
177	15
178	8
179	24
180	6
181	14
182	4
183	3
184	1
185	1
187	1
189	7
190	5
191	89
192	21
193	659
194	106
195	105
196	29
197	11
198	2
199	1
203	2
204	1
205	7
206	3
207	48
208	11
209	20
210	5
211	16
212	4
213	2
215	1
217	1
219	2
220	1
221	5
222	3
223	98
224	24
225	19
226	4
227	1
233	2
234	1
235	3
236	1
237	17
238	5
239	4
240	1
241	1
245	1
247	4
248	3
249	165
250	70
251	28
252	8
253	8
254	3
255	2
256	1
257	1
258	1
259	1
260	1
261	3
262	1
263	10
264	5
265	94
266	27
267	84
268	24
269	10
270	2
279	2
280	2
281	9
282	12
283	6
284	2
295	1
297	3
298	1
299	1
309	1
311	1
312	1
323	1
324	1
325	1
326	1
339	1
353	10
354	29
355	999
356	368
357	178
358	43
359	10
360	2
370	6
371	2
372	1
