Mass spectrum: n-Butylamine; GC-EI-TOF; MS; n TMS; RT:320.794 sec
Name: n-Butylamine
Class: Natural Product
Formula: C4H11N
Exact mass: 73.08915
SMILES: CCCCN
InChI: InChI=1S/C4H11N/c1-2-3-4-5/h2-5H2,1H3
Instrument: Pegasus III TOF-MS system, Leco; GC 6890, Agilent Technologies
Instrument type: GC-EI-TOF
Ms type: MS
Ion mode: POSITIVE
Column name: CP-SIL 8 CB LOW BLEED/MS
Retention time: 320.794  sec
m/z	relative intensity
85	26
86	596
87	64
88	34
89	4
94	3
95	1
96	1
97	2
98	10
99	22
100	321
101	54
102	67
103	13
104	4
110	1
111	1
112	12
113	17
114	46
115	23
116	38
117	44
118	9
119	3
126	8
127	2
128	467
129	67
130	168
131	60
132	18
133	5
134	1
140	1
142	14
143	4
144	17
145	6
146	14
147	3
148	1
156	1
158	21
159	5
160	9
161	2
162	1
170	1
172	22
173	6
174	999
175	187
176	83
177	11
178	2
184	1
186	9
187	2
188	2
200	9
201	2
202	167
203	35
204	15
205	2
215	1
216	3
217	16
218	4
219	1
