Mass spectrum: Sakuranetin; GC-EI-TOF; MS; n TMS; RT:1058.834 sec
Name: Sakuranetin
Class: Natural Product
Formula: C16H14O5
Exact mass: 286.08412
SMILES: COc(c3)cc(O1)c(c(O)3)C(=O)CC1c(c2)ccc(O)c2
InChI: InChI=1S/C16H14O5/c1-20-11-6-12(18)16-13(19)8-14(21-15(16)7-11)9-2-4-10(17)5-3-9/h2-7,14,17-18H,8H2,1H3/t14-/m0/s1
Instrument: Pegasus III TOF-MS system, Leco; GC 6890, Agilent Technologies
Instrument type: GC-EI-TOF
Ms type: MS
Ion mode: POSITIVE
Column name: CP-SIL 8 CB LOW BLEED/MS
Retention time: 1058.834  sec
m/z	relative intensity
85	62
86	4
87	28
88	33
89	192
90	52
91	184
92	34
93	53
94	20
95	85
96	23
97	39
98	26
99	91
100	4
101	45
102	64
103	103
104	28
105	74
106	45
107	64
108	54
109	79
110	20
111	35
112	6
113	22
114	7
115	122
116	27
117	77
118	19
119	76
120	19
121	78
122	28
123	76
124	19
125	43
126	22
127	32
128	22
129	29
130	13
131	45
132	15
133	94
134	32
135	189
136	41
137	108
138	33
139	69
140	27
141	32
142	12
143	33
144	7
145	41
146	17
147	102
148	34
149	183
150	80
151	238
152	102
153	49
154	20
155	20
156	19
157	24
158	10
159	18
160	12
161	141
162	46
163	109
164	57
165	105
166	72
167	201
168	47
169	28
170	16
171	15
172	13
173	22
175	51
176	45
177	501
178	152
179	775
180	174
181	206
182	51
183	30
185	73
186	19
187	17
188	7
189	24
190	16
191	65
192	552
193	184
194	65
195	98
196	45
197	55
198	19
199	48
200	658
201	136
202	14
203	18
204	8
205	29
206	74
207	76
208	90
209	123
210	226
211	73
212	25
213	7
214	2
215	7
216	6
217	18
218	12
219	44
220	5
221	45
222	17
223	45
224	22
225	60
226	14
227	16
230	2
231	16
232	5
233	24
234	31
235	33
236	37
237	82
238	876
239	202
240	82
241	34
242	6
243	5
244	4
248	33
249	232
250	57
251	38
252	20
253	39
254	17
255	16
256	11
257	4
258	4
259	4
260	2
262	3
263	9
264	26
265	128
266	39
267	21
268	2
269	29
270	14
271	8
273	5
274	7
277	3
279	7
280	3
281	10
282	4
283	17
284	7
287	7
289	2
294	3
295	7
296	3
297	24
298	17
299	9
301	5
303	1
306	3
307	6
308	2
309	2
310	11
311	73
312	30
313	38
314	16
315	13
316	10
317	2
318	5
319	3
323	8
324	28
325	21
326	16
328	2
330	3
331	3
336	1
337	2
338	8
339	2
340	10
341	37
342	55
343	21
344	7
345	2
353	9
355	8
356	4
357	15
358	14
360	1
362	1
368	2
369	6
370	9
371	8
372	10
373	3
374	3
380	7
383	1
384	1
385	17
386	4
387	11
388	9
389	5
395	7
397	4
398	8
399	5
400	10
401	13
402	23
403	8
404	4
408	2
409	4
410	4
411	2
412	21
413	99
414	225
415	999
416	465
417	189
418	51
419	9
420	3
421	3
426	1
428	17
429	131
430	109
431	45
432	12
434	6
437	2
442	3
444	4
453	4
455	2
456	4
458	2
460	1
463	1
467	1
468	1
478	5
480	3
486	2
489	5
493	3
494	3
495	2
