Mass spectrum: Sarcosine; GC-EI-TOF; MS; n TMS; RT:339.929 sec
Name: Sarcosine
Class: Natural Product
Formula: C3H7NO2
Exact mass: 89.04768
SMILES: CNCC(O)=O
InChI: InChI=1S/C3H7NO2/c1-4-2-3(5)6/h4H,2H2,1H3,(H,5,6)
Instrument: Pegasus III TOF-MS system, Leco; GC 6890, Agilent Technologies
Instrument type: GC-EI-TOF
Ms type: MS
Ion mode: POSITIVE
Column name: CP-SIL 8 CB LOW BLEED/MS
Retention time: 339.929  sec
m/z	relative intensity
85	1
86	29
87	13
88	9
89	3
94	2
99	1
100	14
101	13
102	12
103	20
104	2
105	4
113	1
114	6
115	8
116	999
117	123
118	43
119	8
120	1
131	17
132	3
133	17
134	3
135	1
144	15
145	2
146	5
147	198
148	32
149	16
150	1
151	2
161	2
175	5
190	39
191	8
192	3
204	1
218	20
219	4
220	1
233	13
234	2
