Mass spectrum: D-(-)-alpha-Phenylglycine; GC-EI-TOF; MS; n TMS; RT:560.909 sec
Name: D-(-)-a-Phenylglycine
Name: D-(-)-alpha-Phenylglycine
Class: Natural Product
Formula: C13H12N2O4S
Exact mass: 292.05178
SMILES: Cc(c2)ccc(c2)NS(=O)(=O)c(c1)cc(cc1)N(=O)=O
InChI: InChI=1S/C13H12N2O4S/c1-10-5-7-11(8-6-10)14-20(18,19)13-4-2-3-12(9-13)15(16)17/h2-9,14H,1H3
Instrument: Pegasus III TOF-MS system, Leco; GC 6890, Agilent Technologies
Instrument type: GC-EI-TOF
Ms type: MS
Ion mode: POSITIVE
Column name: CP-SIL 8 CB LOW BLEED/MS
Retention time: 560.909  sec
m/z	relative intensity
85	2
86	5
87	4
88	1
89	13
90	12
91	12
92	2
93	5
95	1
99	1
100	4
101	2
102	4
103	33
104	48
105	35
106	33
107	9
108	1
109	1
111	1
115	4
116	3
117	14
118	9
119	16
120	5
121	8
122	1
123	1
125	1
129	1
130	32
131	18
132	34
133	27
134	7
135	42
136	7
137	4
143	1
144	1
145	4
146	16
147	110
148	38
149	14
150	2
160	5
161	2
162	75
163	22
164	7
165	1
174	1
175	1
176	17
177	9
178	999
179	174
180	50
181	7
190	13
191	2
192	1
193	1
252	29
253	16
254	6
255	1
264	1
280	8
281	3
