Mass spectrum: p-Hydroxybenzaldehyde; GC-EI-TOF; MS; n TMS; RT:551.844 sec
Name: p-Hydroxybenzaldehyde
Class: Natural Product
Formula: C7H6O2
Exact mass: 122.03678
SMILES: [H]C(=O)c(c1)ccc(O)c1
InChI: InChI=1S/C7H6O2/c8-5-6-1-3-7(9)4-2-6/h1-5,9H
Instrument: Pegasus III TOF-MS system, Leco; GC 6890, Agilent Technologies
Instrument type: GC-EI-TOF
Ms type: MS
Ion mode: POSITIVE
Column name: CP-SIL 8 CB LOW BLEED/MS
Retention time: 551.844  sec
m/z	relative intensity
85	42
86	9
87	9
88	23
89	182
90	83
91	276
92	58
93	53
94	14
95	51
96	17
97	10
98	3
99	13
100	3
101	6
102	70
103	31
104	107
105	53
106	17
107	35
108	11
109	26
110	5
111	4
114	3
115	5
116	38
117	17
118	15
119	36
120	84
121	86
122	19
123	24
124	4
125	2
130	4
131	9
132	9
133	22
134	18
135	317
136	54
137	26
138	3
139	2
145	5
146	34
147	32
148	31
149	145
150	267
151	94
152	20
153	5
158	2
159	2
160	40
161	18
162	32
163	23
164	11
165	49
166	32
167	7
168	1
172	1
174	8
175	4
176	719
177	649
178	175
179	42
180	7
181	27
182	5
183	1
188	1
189	2
190	18
191	43
192	135
193	49
194	16
195	4
196	2
197	1
198	1
199	1
200	1
201	1
206	1
207	2
208	619
209	142
210	37
211	5
214	1
215	1
216	1
217	1
218	1
219	1
222	2
223	999
224	182
225	54
226	6
