Mass spectrum: D-Glucosamine 6-phosphate; GC-EI-TOF; MS; n TMS; RT:890.7591155 sec
Name: D-Glucosamine-6-Phosphate
Name: D-Glucosamine 6-phosphate
Class: Natural Product
Formula: C6H14NO8P
Exact mass: 259.04570
SMILES: OC(O1)[C@H](N)[C@@H](O)[C@H](O)[C@H]1COP(O)(O)=O
InChI: InChI=1S/C6H14NO8P/c7-3-5(9)4(8)2(15-6(3)10)1-14-16(11,12)13/h2-6,8-10H,1,7H2,(H2,11,12,13)/t2-,3-,4-,5-,6?/m1/s1
Instrument: Pegasus III TOF-MS system, Leco; GC 6890, Agilent Technologies
Instrument type: GC-EI-TOF
Ms type: MS
Ion mode: POSITIVE
Column name: CP-SIL 8 CB LOW BLEED/MS
Retention time: 890.7591155 sec
m/z	relative intensity
85	41
86	15
87	1
89	154
90	27
93	7
98	11
99	6
100	76
101	181
102	58
103	116
105	11
106	27
107	6
109	15
110	1
112	4
113	66
115	54
116	71
117	7
118	12
120	6
122	12
126	1
128	36
129	251
130	36
131	73
132	23
133	242
134	9
135	70
141	50
142	23
143	3
144	43
146	19
147	618
148	39
149	39
150	12
151	1
152	3
153	6
157	66
158	9
159	999
160	73
161	41
164	12
168	41
169	23
171	109
172	6
177	7
184	12
187	20
188	28
189	33
190	9
191	43
192	22
193	27
194	28
195	114
196	46
197	30
198	20
204	207
205	63
206	27
207	57
211	143
212	14
216	38
217	337
218	70
219	31
220	25
221	7
225	7
227	50
228	22
237	1
240	15
241	7
242	33
243	4
244	19
248	4
250	6
253	23
256	4
258	22
263	17
264	7
266	9
267	6
268	17
270	14
274	43
277	1
280	9
285	87
286	19
288	31
289	14
290	17
298	17
299	492
300	325
301	111
302	41
307	14
310	4
314	23
315	140
316	94
317	58
319	27
320	7
325	11
326	4
330	9
332	6
339	41
342	9
345	1
346	6
347	4
351	7
355	6
357	71
358	65
360	14
368	17
373	28
375	35
376	41
377	9
381	6
386	119
387	642
388	511
389	202
390	55
392	49
393	3
397	4
400	6
404	7
405	9
406	23
413	4
415	19
416	39
419	4
423	7
430	4
439	11
449	11
461	19
463	17
464	11
466	7
470	20
471	20
472	47
475	20
482	3
484	22
489	19
496	22
497	9
498	7
