Mass spectrum: Paeonol; GC-EI-TOF; MS; n TMS; RT:625.978 sec
Name: Paeonol
Class: Natural Product
Formula: C9H10O3
Exact mass: 166.06299
SMILES: COc(c1)cc(O)c(c1)C(C)=O
InChI: InChI=1S/C9H10O3/c1-6(10)8-4-3-7(12-2)5-9(8)11/h3-5,11H,1-2H3
Instrument: Pegasus III TOF-MS system, Leco; GC 6890, Agilent Technologies
Instrument type: GC-EI-TOF
Ms type: MS
Ion mode: POSITIVE
Column name: CP-SIL 8 CB LOW BLEED/MS
Retention time: 625.978  sec
m/z	relative intensity
85	36
86	9
87	6
88	9
89	999
90	137
91	150
92	60
93	34
94	16
95	42
96	21
97	7
98	8
99	23
100	15
101	9
102	12
103	46
104	45
105	58
106	106
107	69
108	21
109	31
110	17
111	15
113	3
114	3
115	7
116	6
117	10
118	12
119	26
120	118
121	125
122	36
123	14
124	8
125	14
126	12
128	3
130	2
131	1
132	18
133	27
134	29
135	62
136	21
137	58
138	16
139	3
145	3
146	24
147	30
148	158
149	73
150	43
151	42
152	19
153	7
159	5
160	10
161	14
162	31
163	137
164	51
165	220
166	53
167	19
176	18
177	23
178	15
179	77
180	104
181	82
182	9
183	1
189	3
190	4
191	111
192	28
193	39
194	26
195	97
196	33
197	8
198	2
204	7
205	17
206	208
207	83
208	24
209	28
210	5
211	1
218	2
219	8
220	29
221	188
222	195
223	56
224	7
225	3
229	3
231	1
234	5
236	87
237	25
238	8
241	1
242	1
244	2
252	314
253	90
254	24
263	3
266	4
267	288
268	57
269	12
270	3
303	2
348	1
354	4
360	2
365	1
372	1
376	2
380	4
390	1
398	1
404	1
412	1
426	1
434	2
467	1
491	1
