Mass spectrum: L-(+)-Lactic acid; GC-EI-TOF; MS; n TMS; RT:286.799 sec
Name: L-(+)-Lactic acid
Class: Natural Product
Formula: C3H6O3
Exact mass: 90.03169
SMILES: [H]C(C)(O)C(O)=O
InChI: InChI=1S/C3H6O3/c1-2(4)3(5)6/h2,4H,1H3,(H,5,6)/t2-/m0/s1
Instrument: Pegasus III TOF-MS system, Leco; GC 6890, Agilent Technologies
Instrument type: GC-EI-TOF
Ms type: MS
Ion mode: POSITIVE
Column name: CP-SIL 8 CB LOW BLEED/MS
Retention time: 286.799  sec
m/z	relative intensity
85	6
86	11
87	46
88	99
89	18
90	1
91	2
92	1
93	1
94	5
95	1
99	4
100	8
101	61
102	40
103	32
104	5
105	12
106	1
107	1
113	3
115	24
116	17
117	933
118	102
119	49
120	4
121	1
129	20
130	32
131	61
132	12
133	107
134	15
135	9
136	1
143	1
144	1
145	2
146	1
147	999
148	161
149	86
150	9
151	2
174	30
175	11
176	3
177	1
189	6
190	127
191	164
192	45
193	15
194	3
203	6
204	1
219	59
220	12
221	5
