Mass spectrum: Picolinic acid; GC-EI-TOF; MS; n TMS; RT:459.821 sec
Name: 2-Picolinate
Name: Picolinic acid
Class: Natural Product
Formula: C6H5NO2
Exact mass: 123.03203
SMILES: OC(=O)c(c1)nccc1
InChI: InChI=1S/C6H5NO2/c8-6(9)5-3-1-2-4-7-5/h1-4H,(H,8,9)
Instrument: Pegasus III TOF-MS system, Leco; GC 6890, Agilent Technologies
Instrument type: GC-EI-TOF
Ms type: MS
Ion mode: POSITIVE
Column name: CP-SIL 8 CB LOW BLEED/MS
Retention time: 459.821  sec
m/z	relative intensity
85	6
86	4
87	1
90	3
91	2
92	23
93	85
94	20
95	14
96	6
97	7
98	3
99	4
100	2
103	1
104	3
105	1
106	157
107	34
108	29
109	29
110	10
111	1
119	1
120	21
121	3
122	38
123	4
124	2
132	2
134	6
135	4
136	636
137	88
138	27
139	2
147	1
148	2
149	13
150	91
151	61
152	132
153	20
154	6
155	1
164	1
165	1
166	21
167	64
168	11
169	3
179	1
180	999
181	144
182	47
183	4
194	2
195	1
