Mass spectrum: L-Valine; GC-EI-TOF; MS; 2 TMS; n TMS; RT:389.793 sec
Name: L-Valine
Class: Natural Product
Formula: C5H11NO2
Exact mass: 117.07898
SMILES: CC(C)[C@H](N)C(O)=O
InChI: InChI=1S/C5H11NO2/c1-3(2)4(6)5(7)8/h3-4H,6H2,1-2H3,(H,7,8)/t4-/m0/s1
Instrument: Pegasus III TOF-MS system, Leco; GC 6890, Agilent Technologies
Instrument type: GC-EI-TOF
Ms type: MS
Ion mode: POSITIVE
Column name: CP-SIL 8 CB LOW BLEED/MS
Retention time: 389.793  sec
Derivative type: 2 TMS
m/z	relative intensity
85	10
86	25
87	10
88	5
89	2
90	1
91	1
92	1
93	1
96	3
97	2
98	9
99	6
100	138
101	24
102	14
103	30
104	4
105	3
110	2
111	1
112	10
113	5
114	21
115	12
116	5
117	17
118	5
119	7
120	1
126	2
128	29
129	16
130	23
131	21
132	28
133	35
134	7
135	3
142	9
143	8
144	999
145	138
146	55
147	169
148	30
149	18
150	2
156	25
157	5
158	6
159	5
160	6
161	1
163	4
172	1
174	8
175	1
202	1
203	8
204	1
218	152
219	38
220	16
221	3
230	1
246	9
247	1
