Mass spectrum: Histamine; GC-EI-TOF; MS; n TMS; RT:723.828 sec
Name: Histamine
Class: Natural Product
Formula: C5H9N3
Exact mass: 111.07965
SMILES: C1=C(NC=N1)CCN
InChI: InChI=1S/C5H9N3/c6-2-1-5-3-7-4-8-5/h3-4H,1-2,6H2,(H,7,8)
Instrument: Pegasus III TOF-MS system, Leco; GC 6890, Agilent Technologies
Instrument type: GC-EI-TOF
Ms type: MS
Ion mode: POSITIVE
Column name: CP-SIL 8 CB LOW BLEED/MS
Retention time: 723.828  sec
m/z	relative intensity
85	21
86	439
87	46
88	21
90	1
93	1
94	2
95	4
96	3
97	4
98	14
99	8
100	215
101	35
102	24
103	3
104	1
107	1
109	1
110	4
111	7
112	20
113	9
114	8
115	7
116	22
117	19
118	3
119	1
121	1
123	3
124	2
125	4
126	4
127	4
128	2
129	3
130	84
131	22
132	11
133	2
134	1
135	1
136	1
137	3
138	4
139	5
140	5
141	4
142	3
143	1
144	4
145	1
146	17
147	1
148	1
149	4
150	5
151	4
152	4
153	18
154	35
155	10
156	4
158	6
160	1
164	5
165	2
166	19
167	6
168	6
169	1
170	6
171	2
172	12
173	3
174	999
175	184
176	87
177	10
178	3
180	2
181	2
182	3
183	1
184	3
185	3
186	2
189	1
194	2
195	2
196	2
197	4
198	2
199	1
200	1
208	2
210	1
211	4
212	5
213	1
222	2
223	2
224	47
225	16
226	147
227	38
228	13
229	2
238	8
239	3
240	13
241	3
254	2
255	1
264	1
268	1
271	1
285	1
301	1
310	2
311	3
312	89
313	33
314	15
315	2
316	1
326	2
327	2
393	1
397	1
447	1
