Mass spectrum: O-Phosphoethanolamine; GC-EI-TOF; MS; n TMS; RT:679.123 sec
Name: O-Phosphoethanolamine
Class: Natural Product
Formula: C2H8NO4P
Exact mass: 141.01909
SMILES: NCCOP(O)(O)=O
InChI: InChI=1S/C2H8NO4P/c3-1-2-7-8(4,5)6/h1-3H2,(H2,4,5,6)
Instrument: Pegasus III TOF-MS system, Leco; GC 6890, Agilent Technologies
Instrument type: GC-EI-TOF
Ms type: MS
Ion mode: POSITIVE
Column name: CP-SIL 8 CB LOW BLEED/MS
Retention time: 679.123  sec
m/z	relative intensity
85	11
86	322
87	51
88	7
89	14
98	4
99	7
100	999
101	119
102	48
103	22
105	6
113	10
114	520
115	334
116	74
117	27
119	22
121	9
130	173
131	64
132	20
133	279
134	23
135	121
137	44
147	90
151	22
154	3
156	4
158	2
159	4
162	4
165	1
167	6
172	636
173	118
174	612
175	102
176	28
179	2
181	49
183	6
187	48
188	413
189	89
190	36
191	45
193	86
194	8
195	54
205	7
206	4
207	50
208	4
210	7
211	143
212	16
225	31
226	7
227	7
231	1
275	2
283	22
284	3
285	3
293	9
298	9
299	507
300	130
301	56
310	8
314	22
315	114
316	15
317	2
319	3
326	13
328	97
329	10
330	3
339	5
353	1
363	1
372	2
373	8
380	3
381	1
390	5
395	5
399	8
414	13
416	3
445	3
450	7
472	1
476	3
483	3
