Mass spectrum: Glycolic acid; GC-EI-TOF; MS; n TMS; RT:298.444 sec
Name: Glycolic acid
Class: Natural Product
Formula: C2H4O3
Exact mass: 76.01604
SMILES: OCC(O)=O
InChI: InChI=1S/C2H4O3/c3-1-2(4)5/h3H,1H2,(H,4,5)
Instrument: Pegasus III TOF-MS system, Leco; GC 6890, Agilent Technologies
Instrument type: GC-EI-TOF
Ms type: MS
Ion mode: POSITIVE
Column name: CP-SIL 8 CB LOW BLEED/MS
Retention time: 298.444  sec
m/z	relative intensity
85	2
86	2
87	16
88	46
89	23
90	4
91	2
92	1
93	1
95	11
96	1
99	2
100	1
101	15
102	14
103	59
104	9
105	15
106	2
107	1
113	3
115	17
116	8
117	43
118	7
119	14
120	2
121	1
129	1
130	2
131	49
132	9
133	113
134	17
135	9
136	1
145	1
146	2
147	999
148	164
149	98
150	12
151	4
161	58
162	11
163	5
175	1
176	2
177	151
178	37
179	15
180	2
190	5
191	1
192	1
205	109
206	20
207	10
208	1
