Mass spectrum: Suberic acid; GC-EI-TOF; MS; n TMS; RT:644.017 sec
Name: Suberic acid
Class: Natural Product
Formula: C8H14O4
Exact mass: 174.08921
SMILES: OC(=O)CCCCCCC(O)=O
InChI: InChI=1S/C8H14O4/c9-7(10)5-3-1-2-4-6-8(11)12/h1-6H2,(H,9,10)(H,11,12)
Instrument: Pegasus III TOF-MS system, Leco; GC 6890, Agilent Technologies
Instrument type: GC-EI-TOF
Ms type: MS
Ion mode: POSITIVE
Column name: CP-SIL 8 CB LOW BLEED/MS
Retention time: 644.017  sec
m/z	relative intensity
85	93
86	88
87	48
88	45
89	80
90	13
91	65
92	17
93	356
94	45
95	386
96	49
97	404
98	38
99	104
100	17
101	98
102	22
103	77
104	12
105	24
106	3
107	5
108	3
109	180
110	136
111	188
112	20
113	29
114	11
115	60
116	198
117	745
118	91
119	63
120	10
121	185
122	42
123	7
124	2
125	8
126	3
127	24
128	14
129	999
130	154
131	115
132	88
133	219
134	49
135	32
136	8
137	43
138	452
139	633
140	69
141	37
142	20
143	107
144	46
145	89
146	15
147	625
148	111
149	772
150	120
151	69
152	7
153	6
155	52
156	21
157	74
158	24
159	26
160	5
161	3
162	5
163	6
165	2
166	2
167	7
168	7
169	780
170	137
171	157
172	61
173	19
174	23
175	5
176	1
177	3
179	2
180	2
181	1
182	3
183	13
184	25
185	183
186	65
187	658
188	120
189	49
190	17
191	59
192	10
193	7
194	1
195	2
197	2
199	7
200	63
201	16
202	6
203	30
204	199
205	57
206	19
207	3
210	6
211	71
212	13
213	134
214	28
215	11
216	2
217	215
218	61
219	23
220	4
221	1
223	1
227	1
228	39
229	28
230	7
231	18
232	6
233	2
234	1
241	1
243	16
244	7
245	6
246	4
247	2
248	2
249	1
250	1
251	1
252	1
255	1
256	1
257	2
258	2
259	46
260	19
261	10
262	5
263	2
264	1
265	1
268	1
269	1
271	2
273	1
274	1
275	4
276	10
277	6
278	2
286	3
287	1
302	5
303	345
304	186
305	63
306	15
307	2
319	1
338	1
422	1
449	1
473	1
492	1
