Mass spectrum: L-Histidine; GC-EI-TOF; MS; n TMS; RT:739.259 sec
Name: L-Histidine
Class: Natural Product
Formula: C6H9N3O2
Exact mass: 155.06948
SMILES: C1=C(NC=N1)C[C@@H](C(=O)O)N
InChI: InChI=1S/C6H9N3O2/c7-5(6(10)11)1-4-2-8-3-9-4/h2-3,5H,1,7H2,(H,8,9)(H,10,11)/t5-/m0/s1
Instrument: Pegasus III TOF-MS system, Leco; GC 6890, Agilent Technologies
Instrument type: GC-EI-TOF
Ms type: MS
Ion mode: POSITIVE
Column name: CP-SIL 8 CB LOW BLEED/MS
Retention time: 739.259  sec
m/z	relative intensity
85	16
86	13
87	4
88	1
89	1
90	1
92	1
93	2
95	1
96	5
97	5
98	13
99	4
100	90
101	17
102	7
103	8
105	2
108	1
109	2
110	14
111	7
112	17
113	4
114	2
115	5
116	3
117	7
118	3
119	2
120	2
121	2
122	1
123	2
124	4
125	4
126	15
127	4
128	5
129	2
130	13
131	14
132	22
133	16
134	4
135	2
136	2
137	2
138	3
139	8
140	3
141	3
142	1
144	2
146	3
147	55
148	11
149	7
150	4
151	3
152	2
153	39
154	999
155	223
156	57
157	9
158	3
159	3
160	3
163	2
165	2
166	23
167	8
168	3
172	2
174	2
175	1
180	1
181	2
182	17
183	6
184	3
190	1
194	1
198	1
202	1
203	3
208	1
211	2
212	1
218	48
219	10
220	4
223	1
224	1
225	3
226	15
227	4
228	2
237	1
238	34
239	11
240	4
241	1
252	1
253	1
254	159
255	41
256	17
257	12
258	3
266	8
267	2
268	2
328	4
329	2
330	1
338	1
356	14
357	5
358	2
371	4
372	2
