Mass spectrum: Salicyl alcohol-beta-glucoside; GC-EI-TOF; MS; n TMS; RT:943.120 sec
Name: Salicyl alcohol-b-glucoside
Name: Salicyl alcohol-beta-glucoside
Class: Natural Product
Formula: C13H18O7
Exact mass: 286.10525
SMILES: OCc(c2)c(ccc2)OC(O1)C(O)C(O)C(O)C(CO)1
InChI: InChI=1S/C13H18O7/c14-5-7-3-1-2-4-8(7)19-13-12(18)11(17)10(16)9(6-15)20-13/h1-4,9-18H,5-6H2/t9-,10-,11+,12-,13-/m1/s1
Instrument: Pegasus III TOF-MS system, Leco; GC 6890, Agilent Technologies
Instrument type: GC-EI-TOF
Ms type: MS
Ion mode: POSITIVE
Column name: CP-SIL 8 CB LOW BLEED/MS
Retention time: 943.120  sec
m/z	relative intensity
85	40
86	8
87	32
88	13
89	89
90	15
91	55
92	7
93	6
94	4
95	13
96	5
97	19
98	7
99	37
100	6
101	98
102	22
103	641
104	81
105	64
106	75
107	36
108	6
109	56
110	5
111	31
112	5
113	39
114	11
115	46
116	42
117	255
118	32
119	58
120	8
121	14
122	3
123	3
124	1
125	8
126	3
127	24
128	8
129	566
130	74
131	182
132	29
133	247
134	38
135	76
136	9
137	10
138	2
139	22
140	6
141	22
142	16
143	91
144	15
145	38
146	8
147	999
148	165
149	156
150	22
151	41
152	7
153	28
154	7
155	96
156	18
157	97
158	15
159	21
160	4
161	55
162	11
163	51
164	13
165	41
166	8
167	9
168	3
169	487
170	76
171	49
172	8
173	12
174	4
175	16
176	4
177	29
178	8
179	210
180	50
181	36
182	8
183	32
184	5
185	9
186	2
187	7
188	2
189	96
190	24
191	171
192	34
193	26
194	5
195	16
196	8
197	6
198	2
199	14
200	4
201	10
202	6
203	41
204	111
205	95
206	25
207	24
208	6
209	26
210	8
211	5
212	2
213	2
214	1
215	14
216	7
217	462
218	108
219	61
220	12
221	27
222	7
223	10
224	3
225	8
226	3
227	15
228	6
229	52
230	22
231	60
232	21
233	16
234	4
235	6
236	2
237	13
238	6
239	8
240	3
241	20
242	8
243	200
244	56
245	60
246	14
247	16
248	4
249	3
250	1
251	2
252	1
253	78
254	23
255	15
256	5
257	16
258	6
259	15
260	5
261	4
262	1
263	2
264	1
265	7
266	3
267	24
268	239
269	64
270	27
271	177
272	45
273	27
274	6
275	3
276	1
277	2
278	2
279	2
280	1
281	1
282	1
283	1
285	1
287	4
288	2
289	3
290	2
291	10
292	4
293	4
294	2
295	1
296	1
297	1
303	2
304	4
305	14
306	6
307	5
308	2
309	1
310	1
316	1
317	8
318	6
319	43
320	15
321	9
322	4
323	3
329	1
330	1
331	32
332	17
333	14
334	5
335	3
336	1
341	1
343	1
345	7
346	4
347	3
348	1
349	1
359	1
360	21
361	565
362	196
363	96
364	23
365	6
366	1
377	1
378	1
379	2
380	1
435	2
436	1
450	6
451	6
452	3
453	1
