Mass spectrum: Maltotriose; GC-EI-TOF; MS; n TMS; RT:1250.265 sec
Name: Maltotriose
Class: Natural Product
Formula: C18H32O16
Exact mass: 504.16903
SMILES: OCC(O1)C(O)C(O)C(O)C1OC(C(CO)3)C(O)C(O)C(O3)OC(C(CO)2)C(O)C(O)C(O)O2
InChI: InChI=1S/C18H32O16/c19-1-4-7(22)8(23)12(27)17(31-4)34-15-6(3-21)32-18(13(28)10(15)25)33-14-5(2-20)30-16(29)11(26)9(14)24/h4-29H,1-3H2/t4-,5-,6-,7-,8+,9-,10-,11-,12-,13-,14-,15-,16?,17-,18-/m1/s1
Instrument: Pegasus III TOF-MS system, Leco; GC 6890, Agilent Technologies
Instrument type: GC-EI-TOF
Ms type: MS
Ion mode: POSITIVE
Column name: CP-SIL 8 CB LOW BLEED/MS
Retention time: 1250.265  sec
m/z	relative intensity
87	59
88	37
89	107
90	19
91	49
95	3
99	19
100	55
101	80
102	61
103	349
104	27
105	33
109	52
110	43
111	8
112	16
114	8
115	2
116	54
117	232
118	50
119	61
128	3
129	189
130	15
131	68
132	10
133	153
136	12
137	4
143	105
145	74
147	755
148	54
149	52
150	34
152	40
155	3
157	36
158	29
160	97
161	5
164	21
165	15
166	11
168	29
169	133
171	156
172	60
173	6
174	11
178	1
180	8
182	19
183	17
187	25
188	10
189	48
190	5
191	203
195	2
198	14
199	17
200	58
202	30
203	17
204	999
205	327
206	123
208	12
209	34
212	5
213	21
217	373
218	20
219	93
221	26
226	5
228	12
229	51
230	31
231	75
232	36
233	72
235	25
238	8
239	12
241	2
244	68
245	41
246	11
247	47
250	1
251	28
255	8
257	52
258	23
259	8
260	1
267	5
268	18
270	20
271	136
272	45
275	15
276	16
277	30
282	11
283	10
287	12
288	11
289	11
292	12
293	15
297	13
299	34
302	5
304	17
305	41
308	11
314	11
316	1
319	49
321	23
322	23
327	21
329	43
330	2
331	15
332	37
333	24
334	31
335	12
336	18
338	24
347	2
358	37
360	73
361	286
362	168
363	23
364	19
374	4
376	15
377	11
385	7
390	20
391	41
393	16
399	25
401	17
402	9
407	3
409	14
414	18
421	14
422	1
423	11
424	8
429	25
430	1
441	3
448	3
449	12
450	29
453	48
455	2
458	13
459	3
460	39
462	12
463	13
464	1
466	8
468	29
471	14
479	2
480	1
495	4
497	1
