Mass spectrum: D-(+)-Galacturonic acid; GC-EI-TOF; MS; n TMS; RT:742.491 sec
Name: D-(+)-Galacturonic acid
Class: Natural Product
Formula: C6H10O7
Exact mass: 194.04265
SMILES: OC(=O)[C@@H](O1)[C@H](O)[C@H](O)[C@@H](O)C(O)1
InChI: InChI=1S/C6H10O7/c7-1-2(8)4(5(10)11)13-6(12)3(1)9/h1-4,6-9,12H,(H,10,11)/t1-,2+,3+,4-,6?/m0/s1
Instrument: Pegasus III TOF-MS system, Leco; GC 6890, Agilent Technologies
Instrument type: GC-EI-TOF
Ms type: MS
Ion mode: POSITIVE
Column name: CP-SIL 8 CB LOW BLEED/MS
Retention time: 742.491  sec
m/z	relative intensity
85	25
86	27
87	25
88	11
89	233
90	22
91	13
92	2
93	3
94	3
95	3
96	2
97	4
98	8
99	33
100	45
101	52
102	61
103	157
104	20
105	104
106	12
107	5
108	1
109	1
110	4
111	10
112	11
113	16
114	45
115	39
116	27
117	52
118	10
119	29
120	5
121	3
122	1
123	1
124	2
125	3
126	11
127	20
128	22
129	98
130	46
131	113
132	24
133	245
134	37
135	24
136	3
137	1
138	2
139	2
140	5
141	9
142	22
143	280
144	41
145	34
146	8
147	999
148	162
149	110
150	15
151	9
152	6
153	2
154	4
155	5
156	7
157	14
158	24
159	14
160	812
161	113
162	40
163	42
164	8
165	4
166	4
167	1
168	10
169	4
170	9
171	112
172	29
173	25
174	16
175	18
176	4
177	11
178	2
179	1
181	1
182	5
183	3
184	2
185	4
186	8
187	5
188	5
189	205
190	53
191	83
192	17
193	10
194	4
195	1
196	1
198	4
199	2
200	7
201	7
202	4
203	10
204	106
205	33
206	13
207	27
208	6
209	4
210	4
211	1
212	1
213	1
214	6
215	13
216	41
217	154
218	36
219	96
220	21
221	56
222	13
223	8
224	3
225	1
226	3
227	1
228	7
229	8
230	9
231	36
232	15
233	13
234	12
235	4
236	2
237	1
238	1
239	1
240	7
241	3
242	6
243	5
244	6
245	26
246	13
247	7
248	6
249	3
250	1
251	1
254	1
255	1
256	12
257	7
258	3
259	2
260	2
261	6
262	10
263	7
264	2
265	3
266	1
267	1
268	2
269	1
270	1
272	2
273	2
274	33
275	10
276	4
277	36
278	14
279	10
280	3
281	1
282	2
283	1
284	1
286	1
288	1
289	1
290	2
291	18
292	34
293	17
294	8
295	2
302	2
303	3
304	5
305	70
306	34
307	17
308	6
309	1
314	18
315	6
316	3
317	2
318	12
319	6
320	4
321	6
322	2
323	1
328	2
330	5
331	4
332	19
333	816
334	276
335	139
336	34
337	10
338	2
344	3
345	8
346	3
347	3
348	2
349	1
351	3
352	1
353	1
361	3
362	1
363	2
364	36
365	15
366	7
367	4
368	1
372	1
373	1
374	1
376	1
379	2
380	1
388	9
389	4
390	2
391	1
392	1
393	13
394	8
395	6
396	2
397	1
404	1
418	1
419	6
420	3
421	2
422	4
423	47
424	26
425	13
426	4
427	1
451	1
478	2
479	1
