Mass spectrum: Albiflorin; GC-EI-TOF; MS; n TMS; RT:1251.828 sec
Name: Albiflorin
Class: Natural Product
Formula: C23H28O11
Exact mass: 480.16316
SMILES: C[C@]12C[C@H]([C@@H]3C[C@]1([C@@]3(C(=O)O2)COC(=O)C4=CC=CC=C4)O[C@H]5[C@@H]([C@H]([C@@H]([C@H](O5)CO)O)O)O)O
InChI: InChI=1S/C23H28O11/c1-21-8-13(25)12-7-23(21,33-19-17(28)16(27)15(26)14(9-24)32-19)22(12,20(30)34-21)10-31-18(29)11-5-3-2-4-6-11/h2-6,12-17,19,24-28H,7-10H2,1H3/t12-,13+,14+,15+,16-,17+,19-,21-,22-,23-/m0/s1
Instrument: Pegasus III TOF-MS system, Leco; GC 6890, Agilent Technologies
Instrument type: GC-EI-TOF
Ms type: MS
Ion mode: POSITIVE
Column name: CP-SIL 8 CB LOW BLEED/MS
Retention time: 1251.828  sec
m/z	relative intensity
95	209
104	251
106	117
107	369
108	377
109	218
111	528
116	251
118	999
119	218
120	83
131	495
134	411
136	243
141	117
143	486
147	8
151	159
152	260
155	8
156	201
157	67
158	176
160	75
165	268
172	125
180	226
181	75
189	377
192	125
193	453
197	251
200	184
202	159
203	218
204	604
206	545
213	503
218	738
220	352
222	285
223	747
226	92
231	226
232	125
235	67
237	25
241	33
242	159
243	495
244	478
246	201
247	134
249	193
250	75
252	688
253	461
254	75
258	16
259	50
260	16
265	92
268	654
270	50
272	33
273	260
274	83
275	352
280	125
282	58
284	25
288	58
290	151
294	109
301	193
304	16
308	58
312	8
313	83
327	151
329	201
331	167
332	226
335	75
338	33
343	41
348	100
351	226
362	495
364	50
367	310
372	58
376	260
377	260
378	58
382	235
384	243
385	25
388	58
391	327
392	125
393	83
394	50
398	25
402	33
406	579
407	327
408	50
412	302
413	117
415	83
416	142
417	310
421	67
425	184
427	41
429	16
446	134
450	33
452	25
453	58
455	109
456	50
457	134
458	134
459	67
461	134
467	184
472	50
473	83
475	41
476	92
477	209
482	201
487	201
488	58
491	973
492	151
500	109
