Mass spectrum: Benzoic acid; GC-EI-TOF; MS; n TMS; RT:415.493 sec
Name: Benzoic acid
Class: Natural Product
Formula: C7H6O2
Exact mass: 122.03678
SMILES: OC(=O)c(c1)cccc1
InChI: InChI=1S/C7H6O2/c8-7(9)6-4-2-1-3-5-6/h1-5H,(H,8,9)
Instrument: Pegasus III TOF-MS system, Leco; GC 6890, Agilent Technologies
Instrument type: GC-EI-TOF
Ms type: MS
Ion mode: POSITIVE
Column name: CP-SIL 8 CB LOW BLEED/MS
Retention time: 415.493  sec
m/z	relative intensity
85	3
89	4
90	9
91	15
92	4
93	6
94	1
95	3
96	1
103	5
104	10
105	999
106	79
107	12
108	1
109	2
117	1
118	1
119	13
120	4
121	15
122	7
123	1
131	1
133	3
134	9
135	674
136	95
137	29
138	2
149	6
150	2
151	1
161	1
163	4
164	3
165	1
175	1
178	5
179	837
180	128
181	40
182	4
193	16
194	75
195	12
196	3
