Mass spectrum: Glycine; GC-EI-TOF; MS; n TMS; RT:444.794 sec
Name: Glycine
Class: Natural Product
Formula: C2H5NO2
Exact mass: 75.03203
SMILES: NCC(O)=O
InChI: InChI=1S/C2H5NO2/c3-1-2(4)5/h1,3H2,(H,4,5)
Instrument: Pegasus III TOF-MS system, Leco; GC 6890, Agilent Technologies
Instrument type: GC-EI-TOF
Ms type: MS
Ion mode: POSITIVE
Column name: CP-SIL 8 CB LOW BLEED/MS
Retention time: 444.794  sec
m/z	relative intensity
85	11
86	482
87	56
88	23
89	5
90	1
91	1
95	3
98	2
99	8
100	267
101	57
102	60
103	28
104	5
105	7
113	9
114	10
115	15
116	23
117	62
118	11
119	19
120	2
121	1
128	2
129	6
130	55
131	60
132	19
133	170
134	26
135	14
136	1
142	1
143	2
144	17
145	5
146	8
147	388
148	63
149	31
150	4
158	24
159	8
160	12
161	4
162	1
172	15
173	6
174	999
175	190
176	85
177	20
178	4
179	1
187	1
188	15
189	4
190	4
191	2
202	6
203	1
204	9
205	2
246	12
247	5
248	141
249	43
250	21
251	4
252	1
262	1
276	43
277	12
278	6
279	1
