Mass spectrum: Nicotinic acid; GC-EI-TOF; MS; n TMS; RT:443.793 sec
Name: Nicotinic acid
Class: Natural Product
Formula: C6H5NO2
Exact mass: 123.03203
SMILES: OC(=O)c(c1)cncc1
InChI: InChI=1S/C6H5NO2/c8-6(9)5-2-1-3-7-4-5/h1-4H,(H,8,9)
Instrument: Pegasus III TOF-MS system, Leco; GC 6890, Agilent Technologies
Instrument type: GC-EI-TOF
Ms type: MS
Ion mode: POSITIVE
Column name: CP-SIL 8 CB LOW BLEED/MS
Retention time: 443.793  sec
m/z	relative intensity
85	4
86	3
87	1
90	53
91	6
92	7
93	15
94	12
95	5
96	3
97	1
99	1
104	3
105	32
106	782
107	61
108	10
109	14
110	6
119	1
120	19
121	3
122	19
123	8
124	2
132	2
134	8
135	8
136	910
137	125
138	39
139	3
150	6
151	2
152	1
153	1
162	5
164	6
165	2
166	1
179	6
180	999
181	148
182	48
183	4
194	11
195	45
196	8
197	1
