Mass spectrum: Caffeic acid; GC-EI-TOF; MS; n TMS; RT:821.893 sec
Name: Caffeic acid
Class: Natural Product
Formula: C9H8O4
Exact mass: 180.04226
SMILES: C1=CC(=C(C=C1/C=C/C(=O)O)O)O
InChI: InChI=1S/C9H8O4/c10-7-3-1-6(5-8(7)11)2-4-9(12)13/h1-5,10-11H,(H,12,13)/b4-2+
Instrument: Pegasus III TOF-MS system, Leco; GC 6890, Agilent Technologies
Instrument type: GC-EI-TOF
Ms type: MS
Ion mode: POSITIVE
Column name: CP-SIL 8 CB LOW BLEED/MS
Retention time: 821.893  sec
m/z	relative intensity
85	6
86	1
87	5
88	22
89	44
90	5
91	11
92	3
93	4
94	1
95	3
97	1
99	4
100	1
101	5
102	14
103	21
104	5
105	15
106	2
107	6
108	1
109	6
110	1
111	1
113	3
114	2
115	49
116	15
117	57
118	7
119	16
120	3
121	6
123	1
127	5
128	10
129	18
130	3
131	36
132	6
133	48
134	7
135	39
136	6
137	14
138	2
139	3
141	5
142	3
143	10
144	3
145	14
146	3
147	62
148	14
149	14
150	3
151	3
153	1
155	1
157	2
159	7
160	20
161	23
162	6
163	29
164	7
165	4
166	2
167	1
169	1
171	2
172	2
173	7
174	3
175	30
176	7
177	9
178	2
179	15
180	3
181	2
182	1
183	1
185	3
186	2
187	4
188	3
189	16
190	18
191	175
192	55
193	18
194	3
195	5
196	1
201	2
202	1
203	18
204	7
205	13
206	4
207	5
208	2
209	4
210	1
215	1
216	4
217	8
218	8
219	999
220	176
221	58
222	8
223	9
224	3
225	1
231	4
232	2
233	26
234	8
235	4
236	1
237	1
247	5
248	3
249	72
250	19
251	9
252	1
259	1
261	2
263	5
264	2
265	5
266	2
267	12
268	3
269	1
275	1
277	4
278	5
279	4
280	8
281	3
282	1
289	1
290	1
291	7
292	9
293	35
294	11
295	5
296	1
305	2
306	2
307	38
308	15
309	7
310	2
321	1
323	1
324	1
337	2
338	1
339	1
380	5
381	64
382	32
383	15
384	5
385	1
388	1
389	1
390	1
391	1
392	1
394	1
395	18
396	201
397	86
398	40
399	11
400	3
