Mass spectrum: N-Acetyl-L-aspartic acid; GC-EI-TOF; MS; n TMS; RT:625.081 sec
Name: N-Acetyl-L-aspartic acid
Class: Natural Product
Formula: C6H9NO5
Exact mass: 175.04807
SMILES: CC(=O)N[C@@H](CC(O)=O)C(O)=O
InChI: InChI=1S/C6H9NO5/c1-3(8)7-4(6(11)12)2-5(9)10/h4H,2H2,1H3,(H,7,8)(H,9,10)(H,11,12)/t4-/m0/s1
Instrument: Pegasus III TOF-MS system, Leco; GC 6890, Agilent Technologies
Instrument type: GC-EI-TOF
Ms type: MS
Ion mode: POSITIVE
Column name: CP-SIL 8 CB LOW BLEED/MS
Retention time: 625.081  sec
m/z	relative intensity
85	48
86	35
87	32
88	22
89	28
90	1
91	10
92	4
93	5
96	3
97	1
98	27
99	30
100	172
101	60
102	52
103	36
104	4
105	6
108	1
111	33
112	82
113	10
114	34
115	41
116	397
117	159
118	52
119	20
120	2
121	2
123	1
125	1
126	5
127	3
128	16
129	116
130	168
131	69
132	31
133	95
134	15
135	10
136	2
139	6
140	3
141	7
142	155
143	41
144	300
145	53
146	41
147	441
148	77
149	63
150	3
151	2
155	8
156	11
157	15
158	999
159	147
160	502
161	64
162	22
163	3
170	4
171	13
172	56
173	28
174	12
175	5
182	1
183	1
184	24
185	13
186	104
187	18
188	7
190	2
191	6
192	2
193	4
198	2
200	3
201	24
202	316
203	57
204	16
205	3
206	1
209	1
214	114
215	15
216	7
217	46
218	7
219	3
220	2
228	1
229	12
231	2
232	5
234	10
235	2
240	2
245	97
246	19
247	9
248	1
257	1
259	1
262	1
263	2
273	1
275	48
276	32
277	11
278	5
296	2
303	4
304	126
305	27
306	7
307	1
309	1
312	1
317	1
319	1
324	1
328	1
333	1
340	1
341	1
344	1
354	1
360	1
369	1
381	2
387	1
388	1
399	1
400	1
402	1
403	2
404	1
416	1
418	1
426	1
430	1
432	1
437	1
439	1
444	1
448	1
452	2
453	2
463	1
465	2
468	2
473	1
474	1
477	1
484	1
486	1
490	2
497	1
499	1
