Mass spectrum: Maleic acid; GC-EI-TOF; MS; n TMS; RT:443.612 sec
Name: Maleic acid
Class: Natural Product
Formula: C4H4O4
Exact mass: 116.01096
SMILES: C(=C\C(=O)O)\C(=O)O
InChI: InChI=1S/C4H4O4/c5-3(6)1-2-4(7)8/h1-2H,(H,5,6)(H,7,8)/b2-1-
Instrument: Pegasus III TOF-MS system, Leco; GC 6890, Agilent Technologies
Instrument type: GC-EI-TOF
Ms type: MS
Ion mode: POSITIVE
Column name: CP-SIL 8 CB LOW BLEED/MS
Retention time: 443.612  sec
m/z	relative intensity
85	21
86	4
87	7
88	1
89	5
92	2
93	7
94	1
95	3
97	2
98	23
99	11
100	3
101	5
102	3
103	14
104	2
105	6
107	1
111	4
113	16
114	2
115	47
116	6
117	17
118	3
119	6
126	24
127	7
128	7
129	5
131	20
132	7
133	58
134	9
135	6
141	1
142	6
143	35
144	4
145	2
146	1
147	999
148	159
149	86
150	9
151	3
155	15
156	3
157	10
158	1
159	3
170	25
171	8
172	2
173	4
201	1
215	9
216	3
217	2
242	6
243	1
245	74
246	15
247	7
248	1
