Mass spectrum: 2'-Deoxyuridine; GC-EI-TOF; MS; n TMS; RT:901.257 sec
Name: 2'-Deoxyuridine
Class: Natural Product
Formula: C9H12N2O5
Exact mass: 228.07462
SMILES: OC[C@@H](O1)[C@@H](O)C[C@@H]1N(C=2)C(=O)NC(=O)C2
InChI: InChI=1S/C9H12N2O5/c12-4-6-5(13)3-8(16-6)11-2-1-7(14)10-9(11)15/h1-2,5-6,8,12-13H,3-4H2,(H,10,14,15)/t5-,6+,8+/m0/s1
Instrument: Pegasus III TOF-MS system, Leco; GC 6890, Agilent Technologies
Instrument type: GC-EI-TOF
Ms type: MS
Ion mode: POSITIVE
Column name: CP-SIL 8 CB LOW BLEED/MS
Retention time: 901.257  sec
m/z	relative intensity
85	26
86	8
87	17
88	6
89	24
90	3
91	3
92	3
94	4
95	12
96	38
97	13
98	9
99	59
100	23
101	100
102	13
103	999
104	102
105	51
106	3
107	1
108	9
109	2
110	1
111	24
112	19
113	34
114	5
115	22
116	14
117	179
118	21
119	15
120	3
122	2
124	7
125	10
126	8
127	25
128	8
129	143
130	19
131	35
132	5
133	67
134	8
135	7
136	2
137	1
138	1
139	2
140	3
141	7
142	12
143	30
144	5
145	83
146	8
147	80
148	13
149	11
150	3
151	7
152	1
153	2
154	2
155	71
156	16
157	34
158	4
159	3
163	3
167	1
168	2
169	67
170	46
171	216
172	36
173	19
174	1
175	2
177	1
179	1
183	3
184	11
185	7
186	1
189	21
190	3
191	2
192	5
193	2
195	5
196	3
204	2
211	17
212	2
213	1
217	15
218	3
219	3
240	2
241	2
242	4
243	2
244	1
245	6
246	1
249	1
261	37
262	6
263	3
264	2
267	4
282	2
283	1
453	1
454	1
483	1
