Mass spectrum: 5-Aminolevulinic acid; GC-EI-TOF; MS; n TMS; RT:671.656 sec
Name: 5-Amino-Levulinate
Name: 5-Aminolevulinic acid
Class: Natural Product
Formula: C5H9NO3
Exact mass: 131.05824
SMILES: NCC(=O)CCC(O)=O
InChI: InChI=1S/C5H9NO3/c6-3-4(7)1-2-5(8)9/h1-3,6H2,(H,8,9)
Instrument: Pegasus III TOF-MS system, Leco; GC 6890, Agilent Technologies
Instrument type: GC-EI-TOF
Ms type: MS
Ion mode: POSITIVE
Column name: CP-SIL 8 CB LOW BLEED/MS
Retention time: 671.656  sec
m/z	relative intensity
85	47
86	747
87	86
88	45
89	337
90	31
91	22
92	4
93	4
94	6
95	4
96	5
97	7
98	22
99	33
100	419
101	122
102	179
103	38
104	13
105	7
106	1
107	1
108	1
109	2
110	9
111	18
112	40
113	32
114	45
115	31
116	74
117	117
118	32
119	17
120	3
121	1
122	1
123	1
124	7
125	13
126	17
127	20
128	49
129	62
130	145
131	61
132	31
133	75
134	13
135	8
136	2
137	2
138	2
139	22
140	40
141	17
142	16
143	10
144	62
145	14
146	38
147	194
148	34
149	20
150	3
151	5
152	3
153	5
154	8
155	6
156	257
157	42
158	109
159	28
160	42
161	10
162	4
163	19
164	4
165	3
166	2
167	37
168	12
169	7
170	14
171	14
172	617
173	227
174	999
175	193
176	84
177	12
178	3
181	3
182	3
183	39
184	11
185	61
186	28
187	43
188	12
189	11
190	7
191	5
192	1
195	1
196	2
197	37
198	14
199	222
200	50
201	22
202	11
203	3
204	3
205	1
206	1
211	6
212	50
213	58
214	49
215	18
216	7
217	11
218	3
219	1
223	1
225	5
226	3
227	8
228	6
229	3
230	11
231	5
232	1
239	37
240	14
241	16
242	8
243	7
244	134
245	32
246	36
247	8
248	5
249	1
254	1
255	16
256	6
257	14
258	5
259	1
260	1
269	1
270	1
271	1
272	1
273	17
274	5
275	2
276	1
285	8
286	4
287	9
288	4
289	2
302	1
303	1
313	2
314	1
315	1
328	2
329	108
330	161
331	78
332	33
333	10
334	2
344	7
345	121
346	52
347	23
348	7
349	2
360	1
361	23
362	11
363	5
364	1
