Mass spectrum: L-Alanine; GC-EI-QQ; MS; 2 TBDMS; RT:565.74 sec
Name: L-Alanine
Class: Natural Product
Formula: C3H7NO2
Exact mass: 89.04768
SMILES: CC(N)C(O)=O
InChI: InChI=1S/C3H7NO2/c1-2(4)3(5)6/h2H,4H2,1H3,(H,5,6)/t2-/m0/s1
Instrument: Agilent 7000B QqQMS, Agilent; Agilent 7890A series GC system, Agilent Technologies
Instrument type: GC-EI-QQ
Ms type: MS
Ion mode: POSITIVE
Column name: CP-SIL 8 CB LOW BLEED/MS
Retention time: 565.74 sec
Derivative form: C15H35NO2Si2
Derivative mass: 317.22063
Derivative type: 2 TBDMS
m/z	relative intensity
55	1
56	2
57	9
58	6
59	25
60	3
61	3
66	3
70	2
73	294
74	27
75	36
76	2
77	1
83	1
84	1
85	5
86	16
87	7
89	1
92	1
94	12
99	7
100	36
101	22
102	24
103	63
104	6
105	4
113	1
114	5
115	21
116	4
117	16
118	8
119	15
120	2
128	17
129	6
130	6
131	10
132	27
133	56
134	10
135	6
142	11
143	3
144	3
145	15
147	449
148	73
149	38
150	4
151	1
156	4
158	999
159	146
160	62
161	7
162	2
170	3
173	2
174	7
175	4
176	2
186	3
188	3
189	31
190	6
191	3
202	4
203	2
216	5
217	2
232	441
233	94
234	39
235	5
258	1
260	410
261	93
262	36
263	5
264	1
274	13
275	3
276	1
302	19
303	5
304	2
