Mass spectrum: Galactitol; GC-EI-TOF; MS; n TMS; RT:740.694 sec
Name: Galactitol
Class: Natural Product
Formula: C6H14O6
Exact mass: 182.07904
SMILES: OCC([H])(O)C([H])(O)C([H])(O)C([H])(O)CO
InChI: InChI=1S/C6H14O6/c7-1-3(9)5(11)6(12)4(10)2-8/h3-12H,1-2H2/t3-,4+,5+,6-
Instrument: Pegasus III TOF-MS system, Leco; GC 6890, Agilent Technologies
Instrument type: GC-EI-TOF
Ms type: MS
Ion mode: POSITIVE
Column name: CP-SIL 8 CB LOW BLEED/MS
Retention time: 740.694  sec
m/z	relative intensity
85	12
86	4
87	23
88	20
89	86
90	9
91	5
92	1
93	1
94	1
95	2
96	1
97	35
98	4
99	14
100	2
101	71
102	14
103	827
104	80
105	39
106	3
107	1
109	2
111	9
112	2
113	19
114	3
115	19
116	23
117	350
118	37
119	30
120	3
121	1
125	3
127	9
128	2
129	230
130	30
131	86
132	14
133	193
134	29
135	18
136	2
137	1
139	1
140	1
141	7
142	5
143	48
144	7
145	16
146	4
147	999
148	160
149	105
150	12
151	7
152	1
153	3
154	1
155	13
156	4
157	108
158	15
159	13
160	2
161	11
162	2
163	15
164	3
165	2
167	4
168	1
169	22
170	5
171	3
172	1
173	4
174	1
175	24
176	5
177	12
178	2
179	2
181	1
182	1
183	23
184	4
185	3
186	1
187	3
188	1
189	97
190	29
191	128
192	24
193	12
194	2
201	4
202	3
203	13
204	132
205	343
206	73
207	43
208	7
209	3
215	6
216	4
217	912
218	199
219	89
220	14
221	34
222	8
223	5
224	1
229	31
230	14
231	54
232	12
233	6
234	1
235	1
237	1
239	3
240	1
241	1
242	1
243	7
244	2
245	2
246	1
247	4
248	1
249	1
253	1
254	1
255	23
256	6
257	8
258	2
259	22
260	5
261	3
262	1
263	1
264	1
265	7
266	2
267	1
273	1
277	31
278	16
279	8
280	2
281	1
291	20
292	7
293	4
294	1
305	24
306	22
307	170
308	53
309	26
310	6
311	1
317	2
318	6
319	224
320	73
321	36
322	8
323	2
329	3
330	3
331	49
332	16
333	9
334	2
335	1
344	2
345	18
346	7
347	4
348	1
349	1
409	3
410	1
418	1
419	9
420	6
421	15
422	8
423	3
424	1
434	1
