Mass spectrum: L-Cysteine Sulfinic acid; GC-EI-TOF; MS; n TMS; RT:635.296 sec
Name: L-Cysteine Sulfonic acid
Name: L-Cysteine Sulfinic acid
Class: Natural Product
Formula: C3H7NO4S
Exact mass: 153.00958
SMILES: N[C@H](C(O)=O)CS(O)=O
InChI: InChI=1S/C3H7NO4S/c4-2(3(5)6)1-9(7)8/h2H,1,4H2,(H,5,6)(H,7,8)/t2-/m0/s1
Instrument: Pegasus III TOF-MS system, Leco; GC 6890, Agilent Technologies
Instrument type: GC-EI-TOF
Ms type: MS
Ion mode: POSITIVE
Column name: CP-SIL 8 CB LOW BLEED/MS
Retention time: 635.296  sec
m/z	relative intensity
85	22
86	39
87	24
88	13
89	18
90	11
91	8
92	9
93	11
94	1
95	3
96	3
97	3
98	33
99	19
100	683
101	91
102	49
103	42
104	7
105	14
106	6
107	4
108	5
109	1
110	3
112	4
113	11
114	321
115	999
116	162
117	81
118	15
119	21
120	5
121	5
122	76
123	7
124	6
125	1
126	2
128	17
129	28
130	40
131	70
132	66
133	164
134	35
135	73
136	9
137	635
138	63
139	58
140	5
141	3
142	18
143	8
144	93
145	13
146	31
147	553
148	110
149	83
150	12
151	7
152	1
156	2
157	2
158	11
159	8
160	15
161	6
162	14
163	32
164	5
165	4
166	1
170	1
171	1
172	56
173	21
174	68
175	16
176	8
177	3
178	1
179	1
180	9
181	1
182	1
184	1
185	1
186	2
187	1
188	233
189	65
190	31
191	9
192	3
193	1
194	1
196	4
197	2
198	1
200	7
201	2
202	35
203	13
204	9
205	3
206	1
207	1
208	1
209	8
210	10
211	24
212	5
213	2
214	2
215	1
216	182
217	69
218	98
219	25
220	15
221	6
222	2
223	1
225	1
230	3
231	4
232	470
233	137
234	51
235	11
236	4
237	1
251	2
252	622
253	190
254	97
255	24
256	5
264	6
265	3
266	2
292	5
293	2
294	1
325	1
326	2
327	1
354	1
355	1
