Mass spectrum: Benzen-1,3-Dicarboxylic acid; GC-EI-TOF; MS; n TMS; RT:673.896 sec
Name: Benzen-1,3-Dicarboxylic acid
Class: Natural Product
Formula: C8H6O4
Exact mass: 166.02661
SMILES: OC(=O)c(c1)cc(cc1)C(O)=O
InChI: InChI=1S/C8H6O4/c9-7(10)5-2-1-3-6(4-5)8(11)12/h1-4H,(H,9,10)(H,11,12)
Instrument: Pegasus III TOF-MS system, Leco; GC 6890, Agilent Technologies
Instrument type: GC-EI-TOF
Ms type: MS
Ion mode: POSITIVE
Column name: CP-SIL 8 CB LOW BLEED/MS
Retention time: 673.896  sec
m/z	relative intensity
85	21
86	4
87	11
88	9
89	113
90	45
91	104
92	18
93	29
94	4
95	16
96	15
97	10
98	4
99	3
100	1
101	9
102	8
103	537
104	345
105	93
106	13
107	20
108	3
109	10
110	11
111	7
112	4
113	2
114	1
115	34
116	7
117	29
118	66
119	106
120	21
121	68
122	10
123	8
124	1
125	18
126	62
127	31
128	4
129	10
130	3
131	27
132	14
133	121
134	51
135	277
136	40
137	20
138	2
139	2
140	260
141	36
142	2
143	4
144	1
145	17
146	11
147	69
148	21
149	75
150	19
151	21
152	3
153	9
154	1
155	1
157	1
159	3
160	1
161	7
162	3
163	33
164	6
165	23
166	6
167	2
173	1
175	20
176	11
177	151
178	85
179	61
180	21
181	8
182	2
183	1
185	1
189	1
191	6
192	16
193	74
194	24
195	16
196	3
197	2
203	1
204	1
205	239
206	42
207	143
208	33
209	19
210	4
211	8
212	1
213	1
217	8
218	2
219	15
220	11
221	222
222	41
223	22
224	3
225	1
233	17
234	6
235	30
236	17
237	11
238	4
239	1
241	1
242	1
243	15
244	10
245	6
246	2
247	1
249	3
250	2
251	42
252	14
253	10
254	3
255	1
256	1
257	1
259	1
260	1
261	10
262	11
263	6
264	4
265	4
266	2
267	1
268	1
269	1
270	1
271	1
272	1
273	1
277	5
278	5
279	240
280	129
281	41
282	11
283	2
284	1
285	2
286	3
287	3
288	3
289	3
290	4
291	3
292	1
293	4
294	10
295	999
296	258
297	106
298	19
299	4
308	1
309	44
310	76
311	23
312	8
313	1
