Mass spectrum: Tyramine; GC-EI-TOF; MS; n TMS; RT:737.844 sec
Name: Tyramine
Class: Natural Product
Formula: C8H11NO
Exact mass: 137.08406
SMILES: NCCc(c1)ccc(O)c1
InChI: InChI=1S/C8H11NO/c9-6-5-7-1-3-8(10)4-2-7/h1-4,10H,5-6,9H2
Instrument: Pegasus III TOF-MS system, Leco; GC 6890, Agilent Technologies
Instrument type: GC-EI-TOF
Ms type: MS
Ion mode: POSITIVE
Column name: CP-SIL 8 CB LOW BLEED/MS
Retention time: 737.844  sec
m/z	relative intensity
85	9
86	366
87	37
88	15
89	16
90	12
91	23
92	2
93	2
95	3
97	1
99	4
100	163
101	27
102	44
103	15
104	7
105	11
106	2
107	5
109	2
113	4
114	4
115	9
116	17
117	30
118	6
119	8
120	1
121	6
122	1
123	2
125	2
128	1
129	3
130	39
131	27
132	8
133	14
134	4
135	13
136	2
137	2
142	1
143	2
144	9
145	7
146	9
147	11
148	5
149	30
150	6
151	6
152	1
158	10
159	4
160	5
161	6
162	7
163	16
164	13
165	12
166	2
169	1
172	10
173	4
174	999
175	187
176	85
177	19
178	4
179	42
180	11
181	3
190	10
191	3
192	4
193	8
194	2
195	2
206	1
207	6
208	2
209	2
219	1
221	2
222	1
223	5
224	1
232	1
233	1
234	1
235	1
237	2
248	5
249	2
250	14
251	4
252	1
264	12
265	4
266	2
337	1
338	30
339	12
340	5
341	1
