Mass spectrum: Adipic acid; GC-EI-TOF; MS; n TMS; RT:552.809 sec
Name: Adipic acid
Class: Natural Product
Formula: C6H10O4
Exact mass: 146.05791
SMILES: OC(=O)CCCCC(O)=O
InChI: InChI=1S/C6H10O4/c7-5(8)3-1-2-4-6(9)10/h1-4H2,(H,7,8)(H,9,10)
Instrument: Pegasus III TOF-MS system, Leco; GC 6890, Agilent Technologies
Instrument type: GC-EI-TOF
Ms type: MS
Ion mode: POSITIVE
Column name: CP-SIL 8 CB LOW BLEED/MS
Retention time: 552.809  sec
m/z	relative intensity
85	31
86	44
87	16
88	12
89	14
90	2
91	5
92	4
93	7
95	4
97	7
98	6
99	66
100	7
101	24
102	6
103	14
104	2
105	5
107	1
109	4
110	7
111	999
112	70
113	18
114	2
115	23
116	51
117	183
118	20
119	14
120	1
123	1
125	3
126	1
127	2
128	4
129	162
130	47
131	34
132	17
133	71
134	11
135	9
136	1
139	2
140	1
141	380
142	59
143	34
144	5
145	11
146	4
147	408
148	66
149	102
150	14
151	7
154	1
155	7
156	8
157	45
158	13
159	111
160	15
161	5
162	1
163	1
171	6
172	173
173	30
174	9
175	1
183	1
185	138
186	19
187	7
189	1
190	1
191	1
200	16
201	9
202	1
203	4
204	38
205	8
206	3
215	9
216	2
217	42
218	11
219	4
229	1
231	12
232	2
233	1
245	1
247	8
248	2
275	97
276	24
277	10
278	1
