Mass spectrum: L-Kynurenine; GC-EI-TOF; MS; n TMS; RT:841.093 sec
Name: L-Kynurenine
Class: Natural Product
Formula: C10H12N2O3
Exact mass: 208.08479
SMILES: OC(=O)C(N)CC(=O)c(c1)c(N)ccc1
InChI: InChI=1S/C10H12N2O3/c11-7-4-2-1-3-6(7)9(13)5-8(12)10(14)15/h1-4,8H,5,11-12H2,(H,14,15)/t8-/m0/s1
Instrument: Pegasus III TOF-MS system, Leco; GC 6890, Agilent Technologies
Instrument type: GC-EI-TOF
Ms type: MS
Ion mode: POSITIVE
Column name: CP-SIL 8 CB LOW BLEED/MS
Retention time: 841.093  sec
m/z	relative intensity
85	19
86	57
87	21
88	16
89	53
90	41
91	109
92	68
93	28
94	13
95	9
96	6
97	3
98	12
99	10
100	319
101	61
102	51
103	58
104	18
105	37
106	19
107	9
108	4
109	3
110	4
112	2
113	4
114	69
115	60
116	38
117	111
118	416
119	82
120	140
121	27
122	9
123	6
124	2
125	1
126	2
127	2
128	23
129	20
130	235
131	94
132	125
133	113
134	171
135	56
136	23
137	5
138	1
140	1
141	2
142	17
143	20
144	40
145	130
146	122
147	338
148	172
149	78
150	178
151	28
152	27
153	4
154	4
155	4
156	14
157	7
158	28
159	18
160	35
161	21
162	39
163	27
164	19
165	20
166	5
167	2
168	1
169	2
170	6
171	9
172	30
173	13
174	326
175	96
176	91
177	21
178	24
179	7
180	3
181	2
182	3
183	2
184	10
185	9
186	12
187	9
188	28
189	10
190	28
191	57
192	999
193	182
194	60
195	8
196	2
197	1
198	2
199	4
200	7
201	36
202	114
203	38
204	23
205	11
206	17
207	18
208	136
209	26
210	9
211	1
212	1
213	1
214	3
215	25
216	67
217	156
218	832
219	261
220	78
221	16
222	4
225	1
227	1
228	1
229	8
230	9
231	7
232	40
233	30
234	12
235	11
236	3
237	1
241	1
242	1
243	2
244	3
245	14
246	17
247	9
248	6
249	2
250	2
251	1
252	1
253	1
255	1
256	1
257	1
258	2
259	3
260	3
261	4
262	11
263	5
264	38
265	13
266	7
267	2
268	1
269	1
271	1
272	1
273	1
274	3
275	3
276	4
277	4
278	5
279	7
280	5
281	2
282	1
283	1
284	1
285	1
288	2
289	9
290	16
291	34
292	15
293	8
294	2
301	2
302	3
303	4
304	9
305	21
306	23
307	413
308	134
309	49
310	11
311	2
317	2
318	4
319	30
320	27
321	10
322	4
323	1
332	1
333	3
334	41
335	20
336	9
337	2
352	1
365	1
381	2
382	2
383	1
391	1
392	2
393	1
395	1
408	1
409	2
410	1
423	15
424	102
425	55
426	23
427	8
428	2
