Mass spectrum: beta-N-Methyl-amino-L-alanine; GC-EI-TOF; MS; n TMS; RT:444.040 sec
Name: b-N-Methyl-amino-L-alanine
Name: beta-N-Methyl-amino-L-alanine
Class: Natural Product
Formula: C4H10N2O2
Exact mass: 118.07423
SMILES: CNCC([H])(N)C(O)=O
InChI: InChI=1S/C4H10N2O2/c1-6-2-3(5)4(7)8/h3,6H,2,5H2,1H3,(H,7,8)/t3-/m0/s1
Instrument: Pegasus III TOF-MS system, Leco; GC 6890, Agilent Technologies
Instrument type: GC-EI-TOF
Ms type: MS
Ion mode: POSITIVE
Column name: CP-SIL 8 CB LOW BLEED/MS
Retention time: 444.040  sec
m/z	relative intensity
85	35
86	267
87	132
88	83
89	24
90	9
91	1
92	5
93	4
95	2
96	2
97	1
98	19
99	60
100	475
101	851
102	234
103	96
104	18
105	18
110	3
112	1
113	22
114	139
115	83
116	84
117	60
118	25
119	26
120	5
121	2
122	3
123	1
125	5
126	1
127	10
128	33
129	427
130	102
131	181
132	374
133	179
134	52
135	17
136	3
137	1
138	2
139	1
140	2
141	2
142	4
143	12
144	72
145	93
146	33
147	772
148	220
149	91
150	17
151	5
152	1
155	2
156	3
157	7
158	39
159	114
160	73
161	16
162	5
163	13
166	1
170	1
171	1
172	5
173	1
174	34
175	7
176	135
177	38
178	11
179	2
188	6
190	3
192	1
200	1
202	2
203	110
204	291
205	61
206	26
216	3
217	1
218	49
219	999
220	202
221	92
222	9
223	2
232	4
290	1
367	1
406	1
459	1
498	1
