Mass spectrum: 2-Methylglutaric acid; GC-EI-TOF; MS; n TMS; RT:505.385 sec
Name: 2-MethylGlutarate
Name: 2-Methylglutaric acid
Class: Natural Product
Formula: C6H10O4
Exact mass: 146.05791
SMILES: OC(=O)CCC(C)C(O)=O
InChI: InChI=1S/C6H10O4/c1-4(6(9)10)2-3-5(7)8/h4H,2-3H2,1H3,(H,7,8)(H,9,10)
Instrument: Pegasus III TOF-MS system, Leco; GC 6890, Agilent Technologies
Instrument type: GC-EI-TOF
Ms type: MS
Ion mode: POSITIVE
Column name: CP-SIL 8 CB LOW BLEED/MS
Retention time: 505.385  sec
m/z	relative intensity
85	31
86	59
87	24
88	28
89	24
90	2
91	3
92	2
93	3
95	6
97	6
98	2
99	40
100	8
101	60
102	13
103	22
104	4
105	10
106	1
107	1
109	3
110	3
111	35
112	5
113	36
114	6
115	43
116	120
117	90
118	14
119	14
120	1
123	1
125	4
127	3
128	5
129	217
130	146
131	86
132	21
133	116
134	21
135	11
136	1
139	1
141	15
142	4
143	97
144	107
145	38
146	67
147	999
148	169
149	312
150	44
151	20
152	1
155	1
156	2
157	181
158	26
159	23
160	2
161	1
162	22
163	9
164	2
165	2
171	3
172	302
173	75
174	20
175	4
176	1
185	4
188	1
189	52
190	24
191	9
192	2
199	1
200	47
201	23
202	5
203	18
204	190
205	47
206	19
207	3
217	22
218	22
219	7
220	1
231	104
232	50
233	22
234	5
235	1
240	1
243	1
247	81
248	44
249	22
250	5
251	1
266	1
275	189
276	79
277	27
278	5
