Mass spectrum: Aconitic acid; GC-EI-TOF; MS; n TMS; RT:663.645 sec
Name: Aconitate
Name: Aconitic acid
Class: Natural Product
Formula: C6H6O6
Exact mass: 174.01644
SMILES: OC(=O)CC(=CC(O)=O)C(O)=O
InChI: InChI=1S/C6H6O6/c7-4(8)1-3(6(11)12)2-5(9)10/h1H,2H2,(H,7,8)(H,9,10)(H,11,12)/b3-1-
Instrument: Pegasus III TOF-MS system, Leco; GC 6890, Agilent Technologies
Instrument type: GC-EI-TOF
Ms type: MS
Ion mode: POSITIVE
Column name: CP-SIL 8 CB LOW BLEED/MS
Retention time: 663.645  sec
m/z	relative intensity
85	12
86	3
87	10
88	4
89	9
90	1
91	1
92	2
93	18
94	3
95	24
96	21
97	69
98	13
99	15
100	3
101	8
102	4
103	19
104	3
105	8
106	1
107	3
108	2
109	4
110	6
111	13
112	8
113	10
114	1
115	17
116	8
117	30
118	5
119	15
120	2
121	5
122	1
123	6
124	1
125	4
126	2
127	5
128	2
129	4
130	1
131	39
132	8
133	151
134	22
135	20
136	2
137	2
138	1
139	9
140	7
141	23
142	5
143	13
144	2
145	4
146	1
147	999
148	163
149	181
150	23
151	11
152	1
153	1
154	2
155	12
156	8
157	19
158	4
159	5
160	1
161	3
163	3
168	1
169	19
170	4
171	9
172	2
173	4
174	1
175	1
177	7
178	1
179	1
182	4
183	12
184	24
185	10
186	3
187	1
189	2
190	1
191	5
192	1
193	1
195	2
197	1
199	4
200	1
201	4
202	2
203	1
205	2
207	9
208	2
209	1
211	191
212	32
213	21
214	5
215	83
216	18
217	9
218	1
221	15
222	4
223	2
227	2
228	14
229	282
230	63
231	28
232	4
233	1
243	3
244	1
245	5
246	1
256	5
257	17
258	7
259	5
260	1
271	2
272	15
273	10
274	3
275	2
276	1
285	84
286	20
287	23
288	5
289	2
300	16
301	5
302	2
303	6
304	3
305	1
331	1
333	1
346	15
347	6
348	3
374	4
375	83
376	32
377	15
378	4
