Mass spectrum: L-Norleucine; GC-EI-TOF; MS; n TMS; RT:383.494 sec
Name: L-Norleucine
Class: Natural Product
Formula: C6H13NO2
Exact mass: 131.09463
SMILES: CCCC[C@H](N)C(O)=O
InChI: InChI=1S/C6H13NO2/c1-2-3-4-5(7)6(8)9/h5H,2-4,7H2,1H3,(H,8,9)/t5-/m0/s1
Instrument: Pegasus III TOF-MS system, Leco; GC 6890, Agilent Technologies
Instrument type: GC-EI-TOF
Ms type: MS
Ion mode: POSITIVE
Column name: CP-SIL 8 CB LOW BLEED/MS
Retention time: 383.494  sec
m/z	relative intensity
85	8
86	999
87	78
88	5
89	3
91	4
92	2
93	1
99	4
100	4
101	2
102	8
103	46
104	6
105	2
114	1
116	1
117	4
128	21
129	10
130	21
131	10
132	1
142	12
143	4
144	3
146	24
147	2
158	1
160	1
170	25
171	11
172	2
188	29
189	3
