Mass spectrum: L-Methionine; GC-EI-QQ; MS; 2 TBDMS; RT:755.64 sec
Name: L-Methionine
Class: Natural Product
Formula: C5H11NO2S
Exact mass: 149.05105
SMILES: N[C@@H](CCSC)C(O)=O
InChI: InChI=1S/C5H11NO2S/c1-9-3-2-4(6)5(7)8/h4H,2-3,6H2,1H3,(H,7,8)/t4-/m0/s1
Instrument: Agilent 7000B QqQMS, Agilent; Agilent 7897A series GC system, Agilent Technologies
Instrument type: GC-EI-QQ
Ms type: MS
Ion mode: POSITIVE
Column name: CP-SIL 8 CB LOW BLEED/MS
Retention time: 755.64 sec
Derivative form: C17H39NO2SSi2
Derivative mass: 377.22400
Derivative type: 2 TBDMS
m/z	relative intensity
55	3
56	11
57	15
58	7
59	31
60	5
61	44
62	1
63	2
70	1
71	1
73	395
74	39
75	58
76	4
77	4
82	1
83	2
84	3
85	9
86	8
87	5
88	4
89	2
90	1
91	5
94	2
96	1
97	2
98	11
99	10
100	25
101	5
102	5
103	34
104	5
105	34
106	4
107	4
110	1
112	9
113	8
114	37
115	26
116	7
117	14
118	8
119	8
120	2
126	2
128	8
129	11
130	16
131	24
132	43
133	76
134	16
135	8
136	1
140	3
141	5
142	11
143	4
144	8
145	13
147	411
148	68
149	41
150	5
151	6
154	3
156	6
157	10
158	12
159	9
160	43
161	8
162	9
163	2
164	1
165	3
170	155
171	25
172	14
173	9
174	18
175	6
176	2
178	5
179	8
180	2
181	1
184	1
186	3
188	51
189	27
190	8
191	3
192	5
193	2
198	3
200	2
202	21
203	4
204	3
205	1
214	2
215	2
216	13
218	999
219	166
220	92
221	12
222	3
230	15
231	4
232	2
234	2
244	99
245	33
246	14
247	4
248	4
258	3
260	1
262	1
272	10
273	6
274	2
276	1
286	1
287	1
292	478
293	115
294	65
295	12
296	3
302	23
303	24
304	8
305	9
306	2
316	4
317	1
320	364
321	92
322	53
323	10
324	3
334	11
335	3
336	2
362	13
363	4
364	2
377	6
378	2
379	1
