Mass spectrum: Hypoxanthine; GC-EI-TOF; MS; n TMS; RT:695.675 sec
Name: Hypoxanthine
Class: Natural Product
Formula: C5H4N4O
Exact mass: 136.03851
SMILES: C1=NC2=C(N1)C(=O)N=CN2
InChI: InChI=1S/C5H4N4O/c10-5-3-4(7-1-6-3)8-2-9-5/h1-2H,(H2,6,7,8,9,10)
Instrument: Pegasus III TOF-MS system, Leco; GC 6890, Agilent Technologies
Instrument type: GC-EI-TOF
Ms type: MS
Ion mode: POSITIVE
Column name: CP-SIL 8 CB LOW BLEED/MS
Retention time: 695.675  sec
m/z	relative intensity
85	114
86	62
87	12
89	6
90	2
91	3
92	16
93	16
94	9
95	54
96	23
97	22
98	52
99	62
100	104
101	18
102	9
103	7
105	3
106	3
108	2
109	7
110	43
111	93
112	38
113	9
114	6
115	8
116	8
117	13
118	2
119	12
120	4
121	3
122	3
123	44
124	27
125	118
126	24
127	7
128	14
129	1
130	7
131	72
132	22
133	25
134	4
136	12
137	7
138	40
139	32
141	4
142	4
143	8
144	5
147	87
148	19
149	10
150	18
151	8
152	33
153	22
154	7
155	1
156	5
157	7
158	87
159	16
160	7
163	6
164	3
165	29
166	105
167	17
168	7
170	5
171	3
172	103
173	47
174	4
175	6
177	14
178	1
179	6
180	30
181	94
182	12
183	9
184	2
185	4
191	24
192	27
193	139
194	20
195	7
197	5
198	1
205	2
206	147
207	93
208	46
209	5
211	13
212	6
213	2
220	1
221	1
222	18
223	11
224	10
225	6
235	9
236	5
237	3
238	43
239	25
240	12
247	2
249	25
250	6
251	3
252	2
264	16
265	999
266	259
267	108
268	12
271	1
279	37
280	333
281	96
282	36
313	2
340	1
374	1
410	1
477	1
499	1
