Mass spectrum: 4-HydroxyMandelic acid; GC-EI-TOF; MS; n TMS; RT:677.741 sec
Name: 4-HydroxyMandelate
Name: 4-HydroxyMandelic acid
Class: Natural Product
Formula: C10H12O4
Exact mass: 196.07356
SMILES: CCOC(=O)C(O)c(c1)ccc(O)c1
InChI: InChI=1S/C10H12O4/c1-2-14-10(13)9(12)7-3-5-8(11)6-4-7/h3-6,9,11-12H,2H2,1H3
Instrument: Pegasus III TOF-MS system, Leco; GC 6890, Agilent Technologies
Instrument type: GC-EI-TOF
Ms type: MS
Ion mode: POSITIVE
Column name: CP-SIL 8 CB LOW BLEED/MS
Retention time: 677.741  sec
m/z	relative intensity
85	6
86	1
87	7
88	3
89	21
90	5
91	36
92	5
93	6
95	23
96	3
97	4
99	2
101	3
102	5
103	19
104	9
105	24
106	3
107	5
108	1
109	4
111	2
113	1
115	11
116	3
117	18
118	5
119	14
120	4
121	9
122	2
123	6
124	1
125	1
126	1
129	1
131	36
132	8
133	81
134	12
135	40
136	7
137	7
138	1
143	2
145	6
146	3
147	271
148	48
149	41
150	8
151	52
152	11
153	4
157	1
159	2
160	1
161	23
162	9
163	39
164	10
165	6
166	1
167	1
173	1
174	1
175	3
176	3
177	23
178	17
179	77
180	14
181	8
182	2
183	1
189	1
190	1
191	12
192	11
193	97
194	26
195	10
196	2
197	1
205	1
206	7
207	8
208	2
209	9
210	2
211	1
219	2
220	1
221	5
222	2
223	6
224	2
225	3
226	1
235	3
236	4
237	23
238	12
239	4
240	1
249	1
250	1
251	29
252	17
253	10
254	3
255	1
265	15
266	11
267	999
268	289
269	112
270	22
271	4
281	3
282	1
295	1
296	1
340	2
341	52
342	37
343	17
344	6
345	1
369	12
370	8
371	3
