Mass spectrum: D-(+)-Raffinose; GC-EI-TOF; MS; n TMS; RT:1179.948 sec
Name: D-(+)-Raffinose
Class: Natural Product
Formula: C18H32O16
Exact mass: 504.16903
SMILES: OC[C@@H](O1)[C@H](O)[C@H](O)[C@@H](O)[C@@H](OC[C@@H](O2)[C@@H](O)[C@H](O)[C@@H](O)[C@H]2O[C@](CO)(O3)[C@@H](O)[C@H](O)[C@@H](CO)3)1
InChI: InChI=1S/C18H32O16/c19-1-5-8(22)11(25)13(27)16(31-5)30-3-7-9(23)12(26)14(28)17(32-7)34-18(4-21)15(29)10(24)6(2-20)33-18/h5-17,19-29H,1-4H2/t5-,6-,7-,8+,9-,10-,11+,12+,13-,14-,15+,16+,17-,18+/m1/s1
Instrument: Pegasus III TOF-MS system, Leco; GC 6890, Agilent Technologies
Instrument type: GC-EI-TOF
Ms type: MS
Ion mode: POSITIVE
Column name: CP-SIL 8 CB LOW BLEED/MS
Retention time: 1179.948  sec
m/z	relative intensity
85	42
86	6
87	21
88	17
89	46
90	4
91	5
92	1
93	3
94	2
95	9
96	2
97	23
98	5
99	25
100	4
101	74
102	22
103	786
104	77
105	37
106	2
107	3
108	1
109	57
110	5
111	22
112	4
113	36
114	11
115	33
116	38
117	178
118	23
119	24
120	3
121	3
122	1
123	3
125	9
126	3
127	27
128	8
129	862
130	115
131	121
132	19
133	161
134	25
135	20
136	2
137	2
138	1
139	21
140	6
141	33
142	33
143	128
144	20
145	37
146	8
147	792
148	133
149	118
150	16
151	14
152	3
153	21
154	10
155	107
156	22
157	129
158	20
159	23
160	4
161	28
162	4
163	21
164	4
165	2
166	2
167	13
168	3
169	525
170	85
171	68
172	12
173	24
174	7
175	22
176	4
177	27
178	6
179	4
180	1
181	12
182	4
183	34
184	5
185	11
186	2
187	11
188	2
189	108
190	36
191	200
192	38
193	21
194	4
195	5
196	3
197	6
198	1
199	25
200	4
201	15
202	6
203	54
204	644
205	173
206	72
207	28
208	6
209	2
211	3
212	1
213	4
214	1
215	38
216	15
217	999
218	240
219	115
220	21
221	46
222	10
223	8
224	1
225	3
227	15
228	5
229	46
230	66
231	63
232	22
233	19
234	6
235	3
236	1
237	1
239	3
240	1
241	16
242	8
243	180
244	58
245	59
246	16
247	18
248	4
249	3
250	1
251	1
252	1
253	1
254	1
255	9
256	5
257	61
258	17
259	24
260	8
261	4
262	2
263	4
264	1
265	10
266	2
267	2
268	1
269	2
270	3
271	179
272	50
273	41
274	11
275	7
276	2
277	4
278	4
279	3
280	2
281	1
282	1
283	2
284	1
285	3
286	1
287	1
288	3
289	16
290	5
291	28
292	11
293	11
294	3
295	1
296	2
297	1
301	1
302	1
303	6
304	8
305	29
306	15
307	11
308	3
311	1
312	1
313	1
316	1
317	20
318	13
319	58
320	33
321	16
322	6
323	1
325	1
329	1
330	1
331	24
332	20
333	15
334	7
335	3
336	1
339	1
345	8
346	4
347	7
348	3
349	2
359	2
360	14
361	778
362	275
363	142
364	41
365	14
366	4
367	1
375	1
378	1
379	1
381	1
391	2
393	1
395	1
396	1
400	1
402	1
403	1
405	1
406	2
407	1
408	1
410	1
413	1
414	1
415	1
419	1
420	1
421	1
431	1
435	4
436	14
437	142
438	84
439	44
440	14
441	3
449	1
450	22
451	105
452	61
453	29
454	11
455	2
464	1
466	1
467	3
468	1
481	1
