Mass spectrum: 6-Hydroxynicotinic acid; GC-EI-TOF; MS; n TMS; RT:588.095 sec
Name: 6-Hydroxynicotinic acid
Class: Natural Product
Formula: C6H5NO3
Exact mass: 139.02694
SMILES: O=C(C=1)NC=C(C1)C(O)=O
InChI: InChI=1S/C6H5NO3/c8-5-2-1-4(3-7-5)6(9)10/h1-3H,(H,7,8)(H,9,10)
Instrument: Pegasus III TOF-MS system, Leco; GC 6890, Agilent Technologies
Instrument type: GC-EI-TOF
Ms type: MS
Ion mode: POSITIVE
Column name: CP-SIL 8 CB LOW BLEED/MS
Retention time: 588.095  sec
m/z	relative intensity
85	36
86	32
87	13
88	4
89	8
90	11
91	25
92	16
93	25
94	39
95	120
96	34
97	23
98	11
99	21
100	48
101	9
102	19
103	23
104	8
105	17
106	15
107	8
108	31
109	37
110	23
111	9
112	11
113	10
114	2
115	23
116	5
117	15
118	5
119	25
120	19
121	16
122	65
123	50
124	26
125	12
126	10
127	43
128	8
129	4
130	2
131	40
132	9
133	59
134	20
135	13
136	71
137	14
138	8
139	3
140	2
141	2
142	4
143	7
144	5
145	1
146	1
147	79
148	16
149	13
150	66
151	51
152	90
153	15
154	6
155	2
156	1
157	4
158	12
159	2
160	1
162	2
164	15
165	34
166	20
167	7
168	3
169	3
170	4
171	1
178	5
179	3
180	37
181	7
182	10
183	2
184	5
185	1
192	5
193	6
194	147
195	25
196	102
197	15
198	8
199	1
206	1
208	5
209	9
210	21
211	4
212	1
222	4
223	2
224	170
225	42
226	18
227	3
228	1
238	9
239	4
240	1
252	8
253	2
254	4
255	1
265	1
266	6
267	14
268	999
269	245
270	103
271	17
272	3
280	1
281	7
282	237
283	175
284	54
285	16
286	2
