Mass spectrum: DOPA; GC-EI-TOF; MS; n TMS; RT:804.360 sec
Name: DOPA
Class: Natural Product
Formula: C9H11NO4
Exact mass: 197.06881
SMILES: OC(=O)C([H])(N)Cc(c1)cc(O)c(O)c1
InChI: InChI=1S/C9H11NO4/c10-6(9(13)14)3-5-1-2-7(11)8(12)4-5/h1-2,4,6,11-12H,3,10H2,(H,13,14)/t6-/m0/s1
Instrument: Pegasus III TOF-MS system, Leco; GC 6890, Agilent Technologies
Instrument type: GC-EI-TOF
Ms type: MS
Ion mode: POSITIVE
Column name: CP-SIL 8 CB LOW BLEED/MS
Retention time: 804.360  sec
m/z	relative intensity
85	4
86	16
87	6
88	2
89	5
90	2
91	9
92	2
93	3
95	2
97	1
98	1
99	4
100	232
101	43
102	17
103	21
104	12
105	15
106	2
107	2
109	1
113	1
114	1
115	13
116	5
117	15
118	4
119	14
120	1
121	2
128	2
129	6
130	30
131	28
132	30
133	37
134	8
135	7
136	1
137	2
143	1
144	4
145	4
146	7
147	136
148	24
149	31
150	6
151	6
152	1
153	1
157	1
158	3
159	6
160	6
161	7
162	3
163	13
164	3
165	5
166	5
167	2
172	3
173	1
174	6
175	3
176	1
177	7
178	2
179	148
180	26
181	28
182	4
183	1
184	1
188	2
189	2
190	4
191	12
192	4
193	7
194	1
195	3
196	1
202	3
203	9
204	3
205	3
206	2
207	6
208	2
209	4
210	1
216	1
217	4
218	999
219	199
220	90
221	14
222	4
223	4
224	1
233	1
235	1
237	7
238	1
248	1
249	1
250	1
251	3
252	1
253	2
264	1
265	6
266	2
267	105
268	36
269	13
270	3
278	1
279	2
280	28
281	12
282	4
283	1
291	7
292	2
293	1
294	1
295	3
296	1
306	2
307	2
308	1
353	2
354	2
355	1
366	1
367	7
368	39
369	18
370	8
371	2
379	1
380	8
381	4
382	2
441	1
442	7
443	5
444	2
445	1
469	1
470	5
471	3
472	1
485	1
486	1
