Mass spectrum: D-Fructose 6-phosphate; GC-EI-TOF; MS; n TMS; RT:874.5699741 sec
Name: D-Fructose-6-Phosphate
Name: D-Fructose 6-phosphate
Class: Natural Product
Formula: C6H13O9P
Exact mass: 260.02972
SMILES: OCC(=O)C(O)C(O)C(O)COP(O)(O)=O
InChI: InChI=1S/C6H13O9P/c7-1-3(8)5(10)6(11)4(9)2-15-16(12,13)14/h4-7,9-11H,1-2H2,(H2,12,13,14)/t4-,5-,6-/m1/s1
Instrument: Pegasus III TOF-MS system, Leco; GC 6890, Agilent Technologies
Instrument type: GC-EI-TOF
Ms type: MS
Ion mode: POSITIVE
Column name: CP-SIL 8 CB LOW BLEED/MS
Retention time: 874.5699741 sec
m/z	relative intensity
85	68
86	46
87	46
88	16
89	345
90	37
91	28
92	6
93	2
94	5
95	8
96	11
97	15
98	15
99	56
100	88
101	330
102	92
103	258
104	31
105	160
106	24
107	21
108	4
109	9
110	8
111	20
112	22
113	53
114	106
115	86
116	131
117	128
118	19
119	57
120	5
121	23
122	5
123	8
124	6
125	3
126	14
127	27
128	33
129	578
130	127
131	224
132	39
133	455
134	72
135	104
136	8
137	33
138	26
139	11
140	12
141	24
142	37
143	88
144	14
145	42
146	6
147	999
148	153
149	143
150	17
151	41
152	11
153	11
154	7
155	9
156	19
157	290
158	69
159	33
160	547
161	129
162	33
163	37
164	1
165	7
166	3
167	10
168	8
169	32
170	17
171	7
172	16
173	21
174	14
175	8
176	3
177	8
179	6
180	2
181	42
182	14
183	20
184	4
185	2
186	10
187	3
188	3
189	58
190	19
191	84
192	28
193	63
194	13
195	51
196	19
197	16
198	5
199	4
200	1
201	10
202	5
203	16
204	90
205	42
206	9
207	98
208	19
209	23
210	21
211	234
212	79
213	24
214	9
215	21
216	37
217	306
218	77
219	27
220	6
221	20
224	1
225	85
226	17
227	60
228	43
229	31
230	14
231	42
232	12
233	6
234	4
235	3
237	2
240	8
241	15
242	9
243	42
244	9
245	7
246	16
247	87
248	13
249	9
250	1
253	21
254	2
255	5
256	6
259	12
260	1
261	4
262	3
267	2
268	11
269	26
270	13
271	5
272	3
274	19
275	3
279	2
280	2
283	27
284	13
285	27
286	9
287	1
288	2
290	1
291	10
292	6
293	1
297	1
298	21
299	594
300	230
301	108
302	31
303	3
305	8
307	2
309	1
311	1
312	1
313	16
314	37
315	300
316	100
317	61
318	11
319	10
320	2
327	1
328	4
329	1
330	5
331	104
332	41
333	14
334	2
335	2
340	1
341	29
342	25
343	12
344	1
345	2
348	1
356	14
357	244
358	101
359	47
360	14
364	2
370	3
371	3
372	4
373	16
374	8
375	1
377	3
382	1
383	2
384	1
385	9
386	105
387	815
388	400
389	222
390	96
391	25
392	9
403	14
404	3
407	2
408	1
412	1
414	1
422	2
429	2
431	1
443	2
444	1
459	4
461	6
470	11
471	89
472	55
473	30
474	14
475	9
