Mass spectrum: Prephenic acid; GC-EI-TOF; MS; n TMS; RT:597.718 sec
Name: Prephenate
Name: Prephenic acid
Class: Natural Product
Formula: C10H10O6
Exact mass: 226.04774
SMILES: OC(C=1)C=CC(C1)(C(O)=O)CC(=O)C(O)=O
InChI: InChI=1S/C10H10O6/c11-6-1-3-10(4-2-6,9(15)16)5-7(12)8(13)14/h1-4,6,11H,5H2,(H,13,14)(H,15,16)
Instrument: Pegasus III TOF-MS system, Leco; GC 6890, Agilent Technologies
Instrument type: GC-EI-TOF
Ms type: MS
Ion mode: POSITIVE
Column name: CP-SIL 8 CB LOW BLEED/MS
Retention time: 597.718  sec
m/z	relative intensity
85	24
86	21
87	40
88	26
89	819
90	357
91	924
92	81
93	12
94	1
95	4
96	2
98	7
99	5
100	11
101	4
102	18
103	29
104	17
105	55
106	7
107	6
108	4
109	1
110	8
114	12
115	26
116	999
117	340
118	44
119	11
120	3
121	30
122	19
123	2
125	10
126	1
127	1
128	4
129	4
130	16
131	14
132	14
133	17
134	3
135	15
136	2
137	6
142	10
143	18
144	28
145	9
146	24
147	73
148	35
149	8
150	2
151	22
152	3
158	2
159	1
160	9
161	2
162	4
163	2
164	1
173	1
174	33
175	36
176	14
177	3
179	4
188	2
189	230
190	51
191	60
192	12
193	4
204	1
218	2
219	1
220	1
234	1
235	2
250	200
251	39
252	12
253	1
264	1
265	114
266	26
267	8
