Mass spectrum: L-Serine; GC-EI-TOF; MS; 3 TMS; n TMS; RT:472.656 sec
Name: L-Serine
Class: Natural Product
Formula: C3H7NO3
Exact mass: 105.04259
SMILES: OC[C@H](N)C(O)=O
InChI: InChI=1S/C3H7NO3/c4-2(1-5)3(6)7/h2,5H,1,4H2,(H,6,7)/t2-/m0/s1
Instrument: Pegasus III TOF-MS system, Leco; GC 6890, Agilent Technologies
Instrument type: GC-EI-TOF
Ms type: MS
Ion mode: POSITIVE
Column name: CP-SIL 8 CB LOW BLEED/MS
Retention time: 472.656  sec
Derivative type: 3 TMS
m/z	relative intensity
85	14
86	41
87	23
88	44
89	35
90	6
91	4
92	2
93	3
95	1
96	1
98	11
99	11
100	555
101	89
102	45
103	99
104	12
105	14
106	2
110	1
111	1
112	2
113	9
114	73
115	55
116	229
117	99
118	26
119	25
120	5
121	3
126	2
127	1
128	8
129	13
130	50
131	67
132	127
133	160
134	31
135	18
136	3
140	1
142	7
143	7
144	29
145	7
146	21
147	387
148	66
149	43
150	7
151	3
152	1
156	2
157	2
158	14
159	16
160	9
161	4
162	5
163	19
164	3
165	2
169	1
170	1
171	1
172	19
173	6
174	30
175	11
176	6
177	3
184	1
186	1
187	1
188	159
189	64
190	29
191	13
192	3
193	1
194	1
195	1
196	1
197	1
198	1
199	1
200	3
201	1
202	4
203	22
204	999
205	201
206	89
207	14
208	3
216	40
217	13
218	587
219	121
220	56
221	16
222	4
223	1
230	1
231	2
232	1
233	1
234	2
235	1
262	2
277	1
278	54
279	19
280	11
281	2
291	1
306	27
307	10
308	4
309	1
