Mass spectrum: L-Asparagine; GC-EI-QQ; MS; 3 TBDMS; RT:876.24 sec
Name: L-Asparagine
Class: Natural Product
Formula: C4H8N2O3
Exact mass: 132.05349
SMILES: NC(=O)C[C@@H](N)C(O)=O
InChI: InChI=1S/C4H8N2O3/c5-2(4(8)9)1-3(6)7/h2H,1,5H2,(H2,6,7)(H,8,9)/t2-/m0/s1
Instrument: Agilent 7000B QqQMS, Agilent; Agilent 7903A series GC system, Agilent Technologies
Instrument type: GC-EI-QQ
Ms type: MS
Ion mode: POSITIVE
Column name: CP-SIL 8 CB LOW BLEED/MS
Retention time: 876.24 sec
Derivative form: C22H53N2O3Si3
Derivative mass: 477.33639
Derivative type: 3 TBDMS
m/z	relative intensity
54	2
55	4
56	6
57	20
58	10
59	40
60	7
61	5
69	2
70	4
71	2
73	999
74	129
75	171
76	13
77	7
83	2
84	4
85	13
86	12
87	9
88	4
89	1
96	1
97	3
98	8
99	25
100	74
101	18
102	24
103	24
104	4
105	2
110	3
111	2
112	2
113	6
115	128
116	184
117	58
118	19
119	10
120	2
125	12
126	6
128	80
129	21
130	45
131	30
132	63
133	102
134	23
135	12
136	2
137	2
140	3
142	34
143	17
144	78
145	14
147	442
148	84
149	76
150	11
151	5
153	4
154	4
155	5
156	64
158	331
159	58
160	45
161	9
162	7
163	2
168	2
169	2
170	6
171	5
172	22
174	260
175	40
176	17
177	9
178	2
180	3
183	43
184	16
185	7
186	12
188	33
189	78
190	19
191	10
192	3
193	1
199	13
200	9
201	17
202	18
203	6
204	14
205	11
206	9
207	8
208	2
209	1
211	5
212	3
213	2
214	4
216	11
217	6
218	8
219	2
220	2
221	6
222	2
227	3
228	3
230	78
232	116
233	23
234	10
235	2
241	2
242	3
244	195
245	61
246	23
247	6
248	13
249	3
250	1
257	73
258	40
259	22
260	10
261	3
262	11
263	3
264	1
270	3
272	36
273	9
274	5
275	2
276	2
285	47
286	39
287	12
288	9
289	2
290	1
297	12
298	4
299	4
300	5
302	235
303	63
304	25
305	4
313	1
315	85
316	27
317	12
318	4
319	1
326	14
327	12
328	4
329	1
342	7
343	8
344	3
346	2
359	2
376	3
389	2
400	32
401	12
402	6
417	320
418	117
419	52
420	12
421	3
459	6
460	2
461	1
474	2
475	1
