Mass spectrum: O-Succinyl-L-Homoserine; GC-EI-TOF; MS; n TMS; RT:785.748 sec
Name: O-Succinyl-L-Homoserine
Class: Natural Product
Formula: C8H13NO6
Exact mass: 219.07429
SMILES: OC(=O)CCC(=O)OCCC(N)C(O)=O
InChI: InChI=1S/C8H13NO6/c9-5(8(13)14)3-4-15-7(12)2-1-6(10)11/h5H,1-4,9H2,(H,10,11)(H,13,14)/t5-/m0/s1
Instrument: Pegasus III TOF-MS system, Leco; GC 6890, Agilent Technologies
Instrument type: GC-EI-TOF
Ms type: MS
Ion mode: POSITIVE
Column name: CP-SIL 8 CB LOW BLEED/MS
Retention time: 785.748  sec
m/z	relative intensity
85	8
86	16
87	6
88	2
89	4
92	1
93	2
94	1
95	1
96	2
97	2
98	9
99	5
100	63
101	18
102	10
103	17
104	2
105	2
110	4
111	1
112	12
113	3
114	24
115	14
116	6
117	11
118	2
119	3
126	6
127	5
128	999
129	159
130	86
131	21
132	12
133	22
134	4
135	2
138	3
139	1
140	2
142	2
143	2
144	7
145	2
146	5
147	89
148	15
149	19
150	2
151	1
152	1
156	13
157	9
158	13
159	3
160	2
161	1
172	3
173	39
174	9
175	23
176	3
177	1
186	1
188	1
191	1
202	57
203	16
204	7
205	1
216	2
217	1
218	27
219	10
220	3
221	1
228	6
229	2
230	23
231	5
232	3
245	3
246	16
247	8
248	3
249	1
256	2
274	3
275	1
292	1
318	34
319	11
320	6
321	1
330	2
420	2
421	1
