Mass spectrum: 5-Methylthioadenosine; GC-EI-TOF; MS; n TMS; RT:1034.275 sec
Name: 5-Methylthioadenosine
Class: Natural Product
Formula: C11H15N5O3S
Exact mass: 297.08956
SMILES: CSC[C@@H](O1)[C@@H](O)[C@@H](O)[C@@H]1n(c3)c(n2)c(n3)c(N)nc2
InChI: InChI=1S/C11H15N5O3S/c1-20-2-5-7(17)8(18)11(19-5)16-4-15-6-9(12)13-3-14-10(6)16/h3-5,7-8,11,17-18H,2H2,1H3,(H2,12,13,14)/t5-,7-,8-,11-/m1/s1
Instrument: Pegasus III TOF-MS system, Leco; GC 6890, Agilent Technologies
Instrument type: GC-EI-TOF
Ms type: MS
Ion mode: POSITIVE
Column name: CP-SIL 8 CB LOW BLEED/MS
Retention time: 1034.275  sec
m/z	relative intensity
85	76
86	25
87	74
88	10
89	20
90	8
91	14
92	7
93	9
94	6
95	14
96	10
97	35
98	14
99	76
100	24
101	76
102	15
103	98
104	9
105	52
106	9
107	10
108	12
109	32
110	11
111	69
112	11
113	22
114	8
115	48
116	38
117	33
118	8
119	28
120	7
121	8
122	7
123	14
124	9
125	12
126	9
127	37
128	7
129	166
130	25
131	52
132	15
133	77
134	14
135	26
136	15
137	15
138	26
139	7
140	7
141	19
142	42
143	78
144	14
145	24
146	7
147	225
148	40
149	48
150	14
151	14
152	7
153	12
154	5
155	10
156	6
157	19
158	8
159	8
160	4
161	7
162	20
163	12
164	21
165	103
166	25
167	9
168	3
169	353
170	56
171	38
172	8
173	22
174	8
175	516
176	96
177	57
178	13
179	12
180	26
181	11
182	4
183	2
184	2
185	4
186	2
187	4
188	771
189	134
190	85
191	40
192	330
193	59
194	18
195	3
196	2
198	1
199	2
200	1
201	13
202	4
203	4
204	21
205	13
206	71
207	106
208	169
209	44
210	13
211	2
212	1
215	9
216	7
217	53
218	18
219	16
220	17
221	7
222	4
223	3
224	2
225	1
227	1
228	1
229	2
230	9
231	9
232	7
233	5
234	18
235	11
236	999
237	186
238	56
239	9
240	1
241	1
242	2
243	21
244	7
245	89
246	25
247	11
248	7
249	4
250	3
251	2
252	1
253	1
254	1
257	1
258	8
259	8
260	5
261	2
262	9
263	4
264	25
265	8
266	7
267	1
274	2
275	1
276	1
277	2
278	16
279	11
280	36
281	10
282	4
283	1
286	1
288	1
289	14
290	6
291	8
292	3
293	2
294	4
295	1
304	1
305	1
306	21
307	7
308	6
309	1
320	1
321	1
322	10
323	3
324	1
332	1
333	1
334	15
335	6
336	4
337	2
338	13
339	4
340	1
350	1
362	1
376	9
377	4
378	2
379	1
408	2
410	1
423	1
440	1
466	6
467	4
468	2
497	5
498	31
499	20
500	10
