Mass spectrum: N-FormylGlycine; GC-EI-TOF; MS; n TMS; RT:485.882 sec
Name: N-FormylGlycine
Class: Natural Product
Formula: C3H5NO3
Exact mass: 103.02694
SMILES: O=CNCC(O)=O
InChI: InChI=1S/C3H5NO3/c5-2-4-1-3(6)7/h2H,1H2,(H,4,5)(H,6,7)
Instrument: Pegasus III TOF-MS system, Leco; GC 6890, Agilent Technologies
Instrument type: GC-EI-TOF
Ms type: MS
Ion mode: POSITIVE
Column name: CP-SIL 8 CB LOW BLEED/MS
Retention time: 485.882  sec
m/z	relative intensity
85	17
86	50
87	25
88	15
89	14
90	2
91	2
92	4
93	3
95	4
98	124
99	18
100	93
101	42
102	267
103	57
104	19
105	13
106	1
109	5
112	1
113	5
114	7
115	30
116	32
117	111
118	15
119	15
120	1
128	2
129	40
130	570
131	118
132	47
133	100
134	16
135	8
142	21
143	3
144	2
145	1
146	2
147	999
148	168
149	91
150	11
151	2
156	1
157	84
158	14
159	5
160	15
161	2
162	2
163	19
164	2
165	1
174	3
175	1
176	46
177	18
178	6
179	1
188	92
189	25
190	13
191	3
203	28
204	273
205	70
206	29
207	5
219	3
232	163
233	35
234	16
235	1
247	13
248	2
