Mass spectrum: Indole-3-Acetaldehyde; GC-EI-TOF; MS; n TMS; RT:693.642 sec
Name: Indole-3-Acetaldehyde
Class: Natural Product
Formula: C10H11NO4S
Exact mass: 241.04088
SMILES: C1=CC=C2C(=C1)C(=CN2)CC(O)S(=O)(=O)O
InChI: InChI=1S/C10H11NO4S/c12-10(16(13,14)15)5-7-6-11-9-4-2-1-3-8(7)9/h1-4,6,10-12H,5H2,(H,13,14,15)
Instrument: Pegasus III TOF-MS system, Leco; GC 6890, Agilent Technologies
Instrument type: GC-EI-TOF
Ms type: MS
Ion mode: POSITIVE
Column name: CP-SIL 8 CB LOW BLEED/MS
Retention time: 693.642  sec
m/z	relative intensity
85	5
86	5
87	11
88	11
89	30
90	10
91	15
92	6
93	14
94	7
95	1
98	3
99	3
100	5
101	38
102	109
103	74
104	19
105	28
106	7
107	5
108	1
113	7
114	7
115	82
116	22
117	27
118	6
119	21
120	6
121	2
127	7
128	49
129	116
130	158
131	32
132	16
133	7
134	8
135	1
139	1
140	7
141	9
142	31
143	32
144	20
145	53
146	20
147	4
148	2
154	8
155	4
156	45
157	13
158	6
159	12
160	13
161	3
163	1
168	1
169	14
170	39
171	12
172	28
173	8
174	7
175	1
182	5
183	3
184	13
185	12
186	42
187	14
188	13
189	4
198	3
199	5
200	55
201	18
202	999
203	232
204	58
205	8
206	1
214	1
215	11
216	33
217	8
218	1
228	1
230	4
231	205
232	44
233	12
234	1
236	1
257	1
302	2
331	1
354	1
420	1
428	1
486	1
