Mass spectrum: alpha-MethylBenzylamine; GC-EI-TOF; MS; n TMS; RT:290.670 sec
Name: a-MethylBenzylamine
Name: alpha-MethylBenzylamine
Class: Natural Product
Formula: C8H11N
Exact mass: 121.08915
SMILES: CC(N)c(c1)cccc1
InChI: InChI=1S/C8H11N/c1-7(9)8-5-3-2-4-6-8/h2-7H,9H2,1H3
Instrument: Pegasus III TOF-MS system, Leco; GC 6890, Agilent Technologies
Instrument type: GC-EI-TOF
Ms type: MS
Ion mode: POSITIVE
Column name: CP-SIL 8 CB LOW BLEED/MS
Retention time: 290.670  sec
m/z	relative intensity
85	3
86	3
87	3
88	1
89	13
90	5
91	34
92	6
93	5
94	1
100	1
102	13
103	50
104	96
105	41
106	999
107	83
108	2
117	2
118	5
119	4
120	45
121	13
147	3
221	3
389	1
