Mass spectrum: Lactitol; GC-EI-TOF; MS; n TMS; RT:1014.840 sec
Name: Lactitol
Class: Natural Product
Formula: C12H24O11
Exact mass: 344.13186
SMILES: OCC(O)C(O)C(C(O)CO)OC(O1)C(O)C(O)C(O)C(CO)1
InChI: InChI=1S/C12H24O11/c13-1-4(16)7(18)11(5(17)2-14)23-12-10(21)9(20)8(19)6(3-15)22-12/h4-21H,1-3H2/t4-,5+,6+,7+,8-,9-,10+,11+,12-/m0/s1
Instrument: Pegasus III TOF-MS system, Leco; GC 6890, Agilent Technologies
Instrument type: GC-EI-TOF
Ms type: MS
Ion mode: POSITIVE
Column name: CP-SIL 8 CB LOW BLEED/MS
Retention time: 1014.840  sec
m/z	relative intensity
85	14
86	4
87	16
88	13
89	63
90	7
91	5
92	1
93	2
94	2
95	7
96	2
97	29
98	4
99	13
100	3
101	61
102	12
103	522
104	51
105	24
106	2
107	2
109	12
110	1
111	12
112	2
113	18
114	4
115	17
116	28
117	395
118	41
119	26
120	3
121	1
123	1
125	4
126	1
127	14
128	4
129	347
130	44
131	70
132	11
133	130
134	17
135	13
136	2
137	2
139	6
140	2
141	13
142	14
143	102
144	14
145	21
146	5
147	875
148	145
149	100
150	12
151	9
152	2
153	10
154	4
155	51
156	10
157	52
158	8
159	12
160	3
161	12
162	3
163	17
164	3
165	2
166	1
167	12
168	3
169	144
170	23
171	17
172	3
173	12
174	4
175	16
176	4
177	12
178	3
179	3
180	1
181	4
182	2
183	49
184	8
185	7
186	1
187	5
188	2
189	78
190	21
191	230
192	43
193	21
194	4
195	4
196	1
197	3
198	1
199	5
200	2
201	6
202	3
203	27
204	999
205	402
206	126
207	41
208	7
209	3
210	1
211	1
213	1
214	1
215	14
216	6
217	653
218	158
219	68
220	12
221	32
222	8
223	6
224	1
225	1
227	4
228	2
229	21
230	15
231	101
232	24
233	40
234	9
235	5
236	1
239	4
240	2
241	6
242	4
243	61
244	17
245	16
246	5
247	8
248	2
249	1
250	1
255	29
256	8
257	16
258	5
259	19
260	5
261	3
262	1
263	3
264	1
265	6
266	2
267	1
268	1
269	2
270	2
271	39
272	11
273	17
274	4
275	4
276	1
277	5
278	4
279	3
280	1
281	1
283	1
285	1
287	1
289	3
290	1
291	15
292	6
293	4
294	1
295	1
297	1
301	1
303	2
304	4
305	31
306	13
307	17
308	6
309	3
313	1
315	1
317	9
318	7
319	70
320	24
321	12
322	3
323	1
329	2
330	2
331	33
332	15
333	9
334	3
335	1
337	1
343	1
344	5
345	102
346	39
347	19
348	5
349	2
359	6
360	7
361	131
362	51
363	25
364	8
365	2
373	1
393	1
407	1
408	1
409	4
410	2
411	1
419	5
420	4
421	6
422	3
423	1
434	1
435	4
436	2
437	1
450	5
451	35
452	19
453	10
454	4
455	1
