Mass spectrum: L-(+)-Lysine; GC-EI-TOF; MS; n TMS; RT:737.193 sec
Name: L-Lysine
Name: L-(+)-Lysine
Class: Natural Product
Formula: C6H14N2O2
Exact mass: 146.10553
SMILES: NCCCC[C@H](N)C(O)=O
InChI: InChI=1S/C6H14N2O2/c7-4-2-1-3-5(8)6(9)10/h5H,1-4,7-8H2,(H,9,10)/t5-/m0/s1
Instrument: Pegasus III TOF-MS system, Leco; GC 6890, Agilent Technologies
Instrument type: GC-EI-TOF
Ms type: MS
Ion mode: POSITIVE
Column name: CP-SIL 8 CB LOW BLEED/MS
Retention time: 737.193  sec
m/z	relative intensity
85	34
86	322
87	44
88	153
89	19
90	11
91	1
92	4
93	3
94	13
95	4
96	5
97	9
98	31
99	23
100	322
101	51
102	97
103	42
104	9
105	4
108	2
109	2
110	9
111	6
112	77
113	24
114	89
115	117
116	45
117	57
118	14
119	13
120	2
121	1
123	2
124	9
125	3
126	34
127	11
128	352
129	60
130	134
131	80
132	56
133	76
134	15
135	6
136	1
138	8
139	5
140	67
141	16
142	48
143	13
144	16
145	7
146	78
147	244
148	48
149	25
150	6
151	16
152	5
153	2
154	73
155	39
156	999
157	155
158	68
159	13
160	26
161	8
162	6
163	1
164	4
165	1
166	15
167	10
168	14
169	5
170	13
171	5
172	40
173	11
174	848
175	160
176	76
177	11
178	2
181	1
182	4
183	2
184	10
185	5
186	33
187	10
188	13
189	9
190	5
191	19
192	3
193	1
196	1
198	4
199	3
200	87
201	20
202	31
203	9
204	7
205	2
206	1
207	1
212	8
213	10
214	31
215	14
216	17
217	10
218	36
219	16
220	12
221	5
222	3
223	1
224	1
225	1
226	2
227	5
228	58
229	19
230	182
231	41
232	21
233	4
234	1
235	1
236	1
239	3
240	7
241	3
242	3
243	4
244	6
245	2
246	3
247	1
248	2
249	1
250	1
252	1
253	1
254	2
255	6
256	4
257	3
258	7
259	2
260	4
261	1
262	1
263	1
271	1
272	10
273	12
274	6
275	2
301	1
302	2
304	1
305	1
316	5
317	190
318	70
319	31
320	8
321	1
329	19
330	9
331	3
332	1
362	1
391	3
392	2
393	1
419	5
420	2
421	1
433	2
434	17
435	10
436	5
437	1
