Mass spectrum: D-(+)-Galactosamine; GC-EI-TOF; MS; n TMS; RT:738.716 sec
Name: D-(+)-Galactosamine
Class: Natural Product
Formula: C6H13NO5
Exact mass: 179.07937
SMILES: O=CC(N)C(O)C(O)C(O)CO
InChI: InChI=1S/C6H13NO5/c7-3(1-8)5(11)6(12)4(10)2-9/h1,3-6,9-12H,2,7H2/t3-,4+,5+,6-/m0/s1
Instrument: Pegasus III TOF-MS system, Leco; GC 6890, Agilent Technologies
Instrument type: GC-EI-TOF
Ms type: MS
Ion mode: POSITIVE
Column name: CP-SIL 8 CB LOW BLEED/MS
Retention time: 738.716  sec
m/z	relative intensity
85	6
86	18
87	11
88	4
89	113
90	9
91	5
92	1
93	1
94	1
95	1
96	3
97	4
98	6
99	11
100	39
101	46
102	17
103	194
104	21
105	17
106	2
107	1
109	1
110	3
111	4
112	3
113	30
114	7
115	8
116	14
117	132
118	16
119	11
120	1
121	1
125	2
126	5
127	16
128	21
129	149
130	29
131	40
132	16
133	67
134	10
135	6
136	1
137	2
139	1
140	2
141	16
142	11
143	25
144	13
145	6
146	5
147	332
148	54
149	35
150	4
151	1
152	2
153	4
154	2
155	1
157	85
158	16
159	999
160	125
161	42
162	5
163	8
164	1
165	2
167	1
168	9
169	4
170	3
171	5
172	4
173	4
175	4
176	1
177	3
178	1
179	2
180	1
181	1
182	1
183	1
184	1
185	4
186	3
187	2
188	4
189	27
190	14
191	9
192	2
193	1
195	3
196	1
197	1
198	1
199	3
200	2
201	11
202	3
203	13
204	36
205	216
206	44
207	21
208	3
209	2
211	1
213	3
214	5
215	10
216	19
217	106
218	21
219	10
220	1
221	5
222	1
223	1
226	1
227	4
228	2
229	25
230	8
231	12
232	12
233	8
234	2
235	1
239	1
240	5
241	4
242	6
243	6
244	5
245	3
246	1
247	2
254	1
255	1
256	1
258	2
259	1
260	1
261	2
267	5
268	2
269	1
270	1
273	49
274	14
275	6
276	1
277	6
278	4
279	2
285	1
287	1
288	1
290	2
291	8
292	3
293	1
303	8
304	6
305	6
306	3
307	5
308	2
314	1
315	1
316	2
317	1
318	2
319	113
320	44
321	21
322	5
323	1
330	1
332	2
333	1
357	3
358	2
359	1
375	1
447	4
448	3
449	1
450	1
463	1
