Mass spectrum: L-(-)-Proline; GC-EI-TOF; MS; n TMS; RT:441.394 sec
Name: L-(-)-Proline
Class: Natural Product
Formula: C5H9NO2
Exact mass: 115.06333
SMILES: OC(=O)C([H])(C1)NCC1
InChI: InChI=1S/C5H9NO2/c7-5(8)4-2-1-3-6-4/h4,6H,1-3H2,(H,7,8)/t4-/m0/s1
Instrument: Pegasus III TOF-MS system, Leco; GC 6890, Agilent Technologies
Instrument type: GC-EI-TOF
Ms type: MS
Ion mode: POSITIVE
Column name: CP-SIL 8 CB LOW BLEED/MS
Retention time: 441.394  sec
m/z	relative intensity
85	9
86	12
87	6
88	1
89	1
92	1
94	1
95	2
96	3
97	4
98	7
99	14
100	24
101	10
102	6
103	17
104	1
105	3
107	2
110	2
111	1
112	2
113	10
114	2
115	8
116	2
117	8
118	2
119	2
122	1
124	6
125	1
126	5
127	4
128	3
129	1
130	1
131	14
132	3
133	19
134	2
139	2
140	13
141	10
142	999
143	137
144	44
145	4
146	1
147	92
148	16
149	8
150	1
154	1
156	1
158	2
170	11
171	1
172	6
173	1
174	1
175	5
216	43
217	9
218	6
244	5
259	1
