Mass spectrum: Stearic acid; GC-EI-TOF; MS; n TMS; RT:860.318 sec
Name: Octadecanoate
Name: Stearic acid
Class: Natural Product
Formula: C18H36O2
Exact mass: 284.27153
SMILES: CCCCCCCCCCCCCCCCCC(O)=O
InChI: InChI=1S/C18H36O2/c1-2-3-4-5-6-7-8-9-10-11-12-13-14-15-16-17-18(19)20/h2-17H2,1H3,(H,19,20)
Instrument: Pegasus III TOF-MS system, Leco; GC 6890, Agilent Technologies
Instrument type: GC-EI-TOF
Ms type: MS
Ion mode: POSITIVE
Column name: CP-SIL 8 CB LOW BLEED/MS
Retention time: 860.318  sec
m/z	relative intensity
85	35
86	14
87	11
88	8
89	33
90	5
91	11
92	3
93	25
94	3
95	59
96	9
97	57
98	43
99	25
100	4
101	16
102	4
103	5
105	28
106	2
107	12
108	1
109	18
110	3
111	25
112	12
113	5
114	2
115	10
116	64
117	999
118	101
119	44
120	2
121	10
122	1
123	5
124	1
125	7
126	4
127	5
128	4
129	478
130	62
131	154
132	453
133	101
134	24
135	10
136	1
137	2
139	3
140	2
141	3
142	2
143	41
144	5
145	242
146	33
147	11
148	1
149	2
153	2
154	5
155	3
157	10
158	1
159	24
160	3
161	1
163	1
167	2
168	1
169	1
171	20
172	3
173	6
174	4
181	1
185	28
186	5
187	17
188	6
199	7
200	1
201	46
202	8
203	2
210	1
213	5
214	1
215	6
216	1
223	2
227	6
228	1
229	3
230	1
241	7
242	1
243	6
244	1
255	3
256	1
257	10
258	2
269	1
271	3
283	1
297	7
298	4
299	2
300	1
311	1
313	8
314	3
327	1
340	5
341	110
342	45
343	13
344	2
355	1
356	18
357	9
358	1
