Mass spectrum: 2,6-Diaminopurine; GC-EI-TOF; MS; n TMS; RT:840.956 sec
Name: 2,6-Diaminopurine
Class: Natural Product
Formula: C5H6N6
Exact mass: 150.06539
SMILES: C1=NC2=C(N1)C(=NC(=N2)N)N
InChI: InChI=1S/C5H6N6/c6-3-2-4(9-1-8-2)11-5(7)10-3/h1H,(H5,6,7,8,9,10,11)
Instrument: Pegasus III TOF-MS system, Leco; GC 6890, Agilent Technologies
Instrument type: GC-EI-TOF
Ms type: MS
Ion mode: POSITIVE
Column name: CP-SIL 8 CB LOW BLEED/MS
Retention time: 840.956  sec
m/z	relative intensity
85	169
86	92
87	22
88	97
89	10
90	5
91	1
92	6
93	8
94	8
95	21
96	21
97	23
98	60
99	630
100	324
101	79
102	32
103	7
104	3
106	1
107	5
108	5
109	11
110	45
111	125
112	29
113	59
114	52
115	32
116	58
117	15
118	11
119	1
120	1
121	5
122	8
123	16
124	37
125	37
126	32
127	25
128	9
129	10
130	424
131	79
132	42
133	7
134	7
135	12
136	8
137	14
138	84
139	38
140	44
141	69
142	34
143	20
144	10
145	3
146	54
147	10
148	6
149	11
150	8
151	17
152	61
153	29
154	17
155	49
156	39
157	60
158	16
159	6
160	5
161	1
162	1
163	5
164	20
165	83
166	26
167	44
168	65
169	24
170	12
171	198
172	56
173	21
174	4
176	5
177	9
178	18
179	56
180	33
181	38
182	118
183	43
184	17
185	5
186	2
187	18
188	5
189	3
190	24
191	9
192	10
193	31
194	29
195	17
196	21
197	19
198	8
199	2
200	1
202	2
203	1
204	3
205	10
206	9
207	19
208	13
209	11
210	16
211	6
212	13
213	4
214	3
215	1
218	1
219	2
220	5
221	50
222	34
223	18
224	8
225	5
226	2
231	1
233	11
234	8
235	14
236	29
237	167
238	55
239	24
240	6
241	2
242	2
243	1
244	2
245	1
246	3
247	23
248	11
249	12
250	11
251	36
252	48
253	36
254	12
255	3
261	3
262	37
263	299
264	81
265	31
266	23
267	15
268	4
269	1
270	1
276	3
277	38
278	43
279	35
280	14
281	4
291	1
292	3
293	34
294	19
295	7
296	2
297	1
304	1
307	1
308	3
309	12
310	6
311	6
312	2
319	2
320	3
321	4
322	3
323	2
324	3
325	2
326	1
333	2
334	14
335	121
336	106
337	46
338	18
339	4
340	1
341	2
342	4
343	5
344	5
345	4
346	6
347	5
348	5
349	19
350	57
351	999
352	460
353	201
354	58
355	16
356	5
357	3
358	5
359	4
360	4
361	5
362	5
363	3
364	4
365	49
366	550
367	224
368	98
369	27
370	7
371	1
