Mass spectrum: Taurine; GC-EI-TOF; MS; n TMS; RT:631.412 sec
Name: Taurine
Class: Natural Product
Formula: C2H7NO3S
Exact mass: 125.01466
SMILES: NCCS(O)(=O)=O
InChI: InChI=1S/C2H7NO3S/c3-1-2-7(4,5)6/h1-3H2,(H,4,5,6)
Instrument: Pegasus III TOF-MS system, Leco; GC 6890, Agilent Technologies
Instrument type: GC-EI-TOF
Ms type: MS
Ion mode: POSITIVE
Column name: CP-SIL 8 CB LOW BLEED/MS
Retention time: 631.412  sec
m/z	relative intensity
85	27
86	263
87	40
88	20
89	11
90	4
91	1
92	5
93	41
94	5
95	21
96	1
97	2
98	15
99	18
100	505
101	71
102	51
103	29
104	8
105	10
106	3
107	1
108	3
110	1
111	1
112	1
113	32
114	116
115	63
116	51
117	55
118	12
119	33
120	5
121	3
122	11
123	8
124	1
125	1
127	1
128	2
129	15
130	260
131	127
132	48
133	345
134	52
135	34
136	3
137	6
138	1
142	3
143	2
144	5
145	4
146	34
147	999
148	163
149	94
150	11
151	7
152	6
153	15
154	2
155	1
156	4
158	16
159	3
160	90
161	19
162	7
164	1
165	4
170	1
171	2
172	99
173	23
174	378
175	72
176	35
177	6
178	1
180	2
184	1
186	2
187	6
188	196
189	41
190	18
191	4
194	1
195	2
196	11
197	2
198	1
204	5
205	2
206	1
210	3
211	22
212	4
213	2
222	1
225	124
226	24
227	18
228	2
238	72
239	14
240	11
241	4
246	1
248	32
249	8
250	3
252	3
253	1
254	10
255	1
315	1
325	23
326	533
327	168
328	106
329	26
330	8
