Mass spectrum: Genistein; GC-EI-TOF; MS; n TMS; RT:1077.930 sec
Name: Genistein
Class: Natural Product
Formula: C15H10O5
Exact mass: 270.05282
SMILES: Oc(c3)ccc(c3)C(=C1)C(=O)c(c(O)2)c(cc(O)c2)O1
InChI: InChI=1S/C15H10O5/c16-9-3-1-8(2-4-9)11-7-20-13-6-10(17)5-12(18)14(13)15(11)19/h1-7,16-18H
Instrument: Pegasus III TOF-MS system, Leco; GC 6890, Agilent Technologies
Instrument type: GC-EI-TOF
Ms type: MS
Ion mode: POSITIVE
Column name: CP-SIL 8 CB LOW BLEED/MS
Retention time: 1077.930  sec
m/z	relative intensity
85	10
86	2
87	6
88	7
89	20
90	5
91	17
92	6
93	10
94	1
95	6
97	2
98	4
99	25
100	2
101	10
102	4
103	22
104	4
105	14
106	2
107	7
108	1
109	5
111	5
113	4
114	1
115	22
116	3
117	9
118	4
119	16
120	2
121	9
123	4
124	3
126	4
127	11
128	4
129	7
131	11
132	4
133	66
134	10
135	27
136	1
137	21
138	5
139	14
140	3
141	5
142	4
143	6
145	11
146	3
147	73
148	10
149	18
150	15
151	22
152	14
153	8
154	4
155	9
156	2
157	2
159	9
160	3
161	10
162	7
163	25
164	8
165	29
166	7
167	7
168	5
169	9
171	3
172	2
173	5
174	2
175	27
176	14
177	52
178	20
179	19
180	1
181	7
182	4
183	12
184	15
185	6
188	1
189	10
190	9
191	16
192	21
193	16
194	6
195	7
196	3
197	2
198	2
199	4
200	1
201	3
202	3
203	6
204	1
205	8
207	16
208	3
209	10
210	2
211	3
212	1
213	13
214	4
215	1
218	3
219	11
220	11
221	16
222	5
223	20
224	7
225	7
226	2
227	10
228	269
229	74
230	3
232	1
233	3
234	5
235	13
236	10
237	9
238	1
239	10
240	1
241	4
247	3
249	9
250	5
251	6
252	5
253	19
254	5
255	4
257	2
259	4
261	1
264	1
265	3
266	2
267	7
269	10
270	1
271	1
273	2
277	2
278	3
279	7
280	6
281	19
282	8
283	4
285	3
290	1
291	4
292	1
293	4
294	2
295	8
296	5
297	10
298	6
299	5
307	4
308	2
309	25
310	10
311	9
312	3
313	5
321	1
323	9
324	5
325	10
326	3
327	31
328	7
329	2
336	1
338	2
339	7
340	6
341	11
342	4
351	1
352	3
353	8
354	6
355	9
356	2
357	1
359	1
361	1
365	1
366	1
367	7
368	8
369	27
370	39
371	21
372	5
374	1
380	2
381	12
382	9
383	19
384	10
385	2
395	2
396	7
397	18
398	43
399	123
400	62
401	37
402	12
403	2
413	9
414	6
415	4
416	1
425	3
427	1
429	1
430	2
439	2
440	2
441	11
442	6
443	3
446	1
452	1
453	3
454	1
455	5
456	1
457	1
466	2
467	1
468	11
469	58
470	270
471	999
472	574
473	267
474	90
475	22
476	3
477	2
484	1
485	5
486	9
487	5
488	1
496	1
