Mass spectrum: Sakuranetin; GC-EI-TOF; MS; n TMS; RT:1080.632 sec
Name: Sakuranetin
Class: Natural Product
Formula: C16H14O5
Exact mass: 286.08412
SMILES: COc(c3)cc(O1)c(c(O)3)C(=O)CC1c(c2)ccc(O)c2
InChI: InChI=1S/C16H14O5/c1-20-11-6-12(18)16-13(19)8-14(21-15(16)7-11)9-2-4-10(17)5-3-9/h2-7,14,17-18H,8H2,1H3/t14-/m0/s1
Instrument: Pegasus III TOF-MS system, Leco; GC 6890, Agilent Technologies
Instrument type: GC-EI-TOF
Ms type: MS
Ion mode: POSITIVE
Column name: CP-SIL 8 CB LOW BLEED/MS
Retention time: 1080.632  sec
m/z	relative intensity
85	41
86	10
87	14
88	29
89	507
90	72
91	172
92	29
93	24
94	18
95	57
96	19
97	40
98	11
99	68
100	15
101	27
102	46
103	64
104	41
105	54
106	10
107	27
108	12
109	42
110	16
111	16
112	2
113	15
114	4
115	95
116	26
117	50
118	17
119	74
120	39
121	54
122	7
123	69
124	23
125	20
126	6
127	21
128	17
129	8
130	8
131	28
133	45
134	31
135	133
136	31
137	56
138	19
139	15
140	24
141	3
142	8
143	16
144	7
145	23
146	21
147	45
148	30
149	114
150	42
151	166
152	45
153	18
154	10
155	1
156	11
157	5
159	5
160	5
161	111
162	38
163	56
164	30
165	47
166	27
167	33
168	9
169	13
170	15
171	8
172	23
173	10
174	5
175	70
176	38
177	269
178	106
179	286
180	73
181	75
182	11
183	13
184	19
185	22
186	20
187	7
188	4
189	16
190	67
191	165
192	320
193	114
194	55
195	33
196	13
197	18
199	43
200	26
202	33
203	48
204	20
205	50
206	36
207	61
208	27
209	999
210	201
211	66
212	15
214	26
215	65
216	13
217	16
218	21
219	27
220	40
221	39
222	88
223	61
224	24
225	5
226	8
227	6
230	5
232	54
233	21
234	13
235	22
236	23
238	17
239	10
241	2
242	8
243	6
244	6
245	2
246	5
247	10
248	53
249	13
250	4
251	9
252	2
253	15
254	1
255	10
256	6
257	6
258	6
260	2
261	6
262	49
263	14
264	27
266	25
267	2
268	18
269	8
272	5
275	6
277	5
278	9
279	7
280	10
281	9
282	9
283	6
284	10
286	6
288	4
289	6
294	71
295	23
296	26
297	12
298	8
299	1
300	6
305	1
306	6
307	8
308	1
309	10
310	20
311	7
312	9
313	9
314	1
315	4
316	3
318	1
319	2
322	18
323	8
324	29
325	11
326	19
327	11
328	13
333	2
336	7
338	13
339	11
340	32
341	15
342	3
350	3
353	9
354	24
355	26
356	14
357	9
358	13
359	9
367	7
368	18
369	27
370	32
371	20
372	8
373	11
374	9
375	8
376	1
377	1
379	6
380	9
381	9
382	5
383	4
384	17
385	11
386	17
387	16
389	3
395	7
396	11
397	31
398	16
399	6
400	11
401	14
402	5
403	9
404	4
408	3
410	19
411	44
412	144
413	97
414	53
415	28
416	2
418	2
425	18
426	81
427	140
428	387
429	249
430	97
431	34
432	2
435	1
436	2
438	2
439	3
442	4
443	9
444	51
445	32
446	13
447	6
448	5
457	19
458	128
459	181
460	95
461	34
464	1
475	4
479	6
483	2
485	3
489	2
493	6
495	1
496	5
