Mass spectrum: N-Acetyl-L-glutamic acid; GC-EI-TOF; MS; n TMS; RT:667.714 sec
Name: N-Acetyl-L-Glutamate
Name: N-Acetyl-L-glutamic acid
Class: Natural Product
Formula: C7H11NO5
Exact mass: 189.06372
SMILES: CC(=O)NC(CCC(O)=O)C(O)=O
InChI: InChI=1S/C7H11NO5/c1-4(9)8-5(7(12)13)2-3-6(10)11/h5H,2-3H2,1H3,(H,8,9)(H,10,11)(H,12,13)/t5-/m0/s1
Instrument: Pegasus III TOF-MS system, Leco; GC 6890, Agilent Technologies
Instrument type: GC-EI-TOF
Ms type: MS
Ion mode: POSITIVE
Column name: CP-SIL 8 CB LOW BLEED/MS
Retention time: 667.714  sec
m/z	relative intensity
85	73
86	26
87	22
88	18
89	20
90	4
91	5
92	10
93	7
94	5
95	25
96	8
97	15
98	35
99	32
100	79
101	97
102	27
103	54
104	8
105	11
106	2
107	2
108	27
109	5
110	8
111	21
112	31
113	19
114	42
115	41
116	300
117	85
118	25
119	20
120	2
121	1
124	4
125	5
126	62
127	18
128	80
129	167
130	51
131	72
132	30
133	148
134	26
135	21
136	3
137	1
138	7
139	4
140	57
141	20
142	104
143	43
144	33
145	12
146	8
147	453
148	81
149	129
150	20
151	12
152	5
153	22
154	27
155	25
156	999
157	227
158	119
159	32
160	9
161	5
162	5
163	16
164	2
165	1
166	2
167	1
168	7
169	10
170	67
171	63
172	24
173	10
174	20
175	8
176	3
177	4
178	2
179	1
180	1
181	1
182	28
183	11
184	267
185	49
186	67
187	14
188	8
189	15
190	10
191	21
192	4
193	2
196	1
197	24
198	245
199	48
200	29
201	7
202	7
203	19
204	106
205	27
206	12
207	4
208	1
210	4
211	1
212	1
213	1
214	13
215	5
216	37
217	11
218	29
219	7
220	3
221	6
222	1
224	1
226	10
227	4
228	25
229	6
230	57
231	24
232	14
233	4
234	1
242	1
243	4
244	349
245	88
246	57
247	12
248	4
249	1
250	1
256	2
257	1
258	9
259	5
260	7
261	34
262	9
263	4
264	1
265	1
270	1
271	1
272	10
273	5
274	162
275	41
276	22
277	6
278	2
279	1
280	1
284	1
286	1
287	39
288	131
289	38
290	17
291	3
292	1
300	16
301	4
302	3
314	1
315	38
316	15
317	5
318	9
319	3
320	1
347	1
348	29
349	19
350	10
351	4
352	1
361	1
362	17
363	11
364	5
365	2
389	3
390	43
391	20
392	9
393	1
404	1
405	13
406	4
407	2
