Mass spectrum: 5-Keto-D-Gluconic acid; GC-EI-TOF; MS; n TMS; RT:742.383 sec
Name: 5-Keto-D-Gluconate
Name: 5-Keto-D-Gluconic acid
Class: Natural Product
Formula: C6H10O7
Exact mass: 194.04265
SMILES: OCC(O)C(O)C(O)C(=O)C(O)=O
InChI: InChI=1S/C6H10O7/c7-1-2(8)3(9)4(10)5(11)6(12)13/h2-4,7-10H,1H2,(H,12,13)/t2-,3+,4-/m1/s1
Instrument: Pegasus III TOF-MS system, Leco; GC 6890, Agilent Technologies
Instrument type: GC-EI-TOF
Ms type: MS
Ion mode: POSITIVE
Column name: CP-SIL 8 CB LOW BLEED/MS
Retention time: 742.383  sec
m/z	relative intensity
85	37
86	15
87	32
88	26
89	323
90	27
91	16
92	3
93	2
94	3
95	3
96	4
97	3
98	13
99	22
100	77
101	67
102	71
103	869
104	90
105	66
106	6
107	3
108	1
110	3
111	6
112	6
113	26
114	56
115	40
116	29
117	224
118	30
119	49
120	7
121	4
122	1
124	1
125	2
126	17
127	11
128	18
129	57
130	62
131	129
132	26
133	429
134	57
135	30
136	4
137	1
138	1
139	1
140	7
141	6
142	46
143	108
144	22
145	18
146	9
147	999
148	164
149	108
150	15
151	8
152	4
153	2
154	8
155	3
156	11
157	13
158	17
159	16
160	7
161	12
162	2
163	56
164	10
165	6
166	2
167	1
168	5
169	2
170	8
171	27
172	112
173	159
174	35
175	21
176	4
177	33
178	7
179	4
182	1
183	1
184	3
185	3
186	12
187	9
188	18
189	544
190	111
191	92
192	17
193	9
194	3
195	1
196	1
198	3
199	2
200	13
201	33
202	28
203	14
204	80
205	31
206	12
207	35
208	8
209	4
210	2
211	1
212	3
213	1
214	19
215	8
216	30
217	79
218	20
219	55
220	15
221	54
222	14
223	8
224	2
225	1
226	2
227	1
228	6
229	4
230	18
231	18
232	13
233	8
234	2
235	17
236	4
237	2
238	2
239	1
240	4
241	2
242	14
243	4
244	9
245	13
246	13
247	13
248	6
249	3
250	1
253	1
254	1
256	3
257	1
258	2
259	1
260	7
261	3
262	15
263	62
264	15
265	8
266	1
270	10
271	2
272	2
274	9
275	14
276	8
277	304
278	97
279	62
280	16
281	5
282	1
286	1
288	14
289	6
290	3
291	12
292	91
293	71
294	29
295	13
296	3
297	1
301	1
302	8
303	4
304	4
305	25
306	11
307	6
308	2
315	1
316	8
317	4
318	5
319	7
320	5
321	73
322	27
323	14
324	3
328	1
330	1
331	1
332	6
333	36
334	44
335	30
336	16
337	6
338	1
344	4
345	1
348	2
349	21
350	9
351	4
352	1
363	6
364	158
365	66
366	31
367	10
368	2
376	5
377	2
378	3
379	3
380	1
407	2
408	1
434	3
435	1
449	1
463	1
478	1
479	1
480	1
481	1
