Mass spectrum: 3-Hydroxypyruvic acid; GC-EI-TOF; MS; n TMS; RT:431.597 sec
Name: 3-Hydroxypyruvate
Name: 3-Hydroxypyruvic acid
Class: Natural Product
Formula: C3H4O4
Exact mass: 104.01096
SMILES: OCC(=O)C(O)=O
InChI: InChI=1S/C3H4O4/c4-1-2(5)3(6)7/h4H,1H2,(H,6,7)
Instrument: Pegasus III TOF-MS system, Leco; GC 6890, Agilent Technologies
Instrument type: GC-EI-TOF
Ms type: MS
Ion mode: POSITIVE
Column name: CP-SIL 8 CB LOW BLEED/MS
Retention time: 431.597  sec
m/z	relative intensity
85	138
86	81
87	29
88	46
89	570
90	49
91	22
94	1
98	22
99	10
100	494
101	52
102	148
103	413
104	45
105	19
106	1
110	5
114	714
115	95
116	38
117	41
118	1
119	11
128	251
129	27
130	47
131	100
132	11
133	111
134	14
137	2
138	1
141	1
142	9
143	3
144	1
146	6
147	999
148	182
149	81
156	13
157	2
158	20
159	6
160	65
161	1
162	2
163	68
164	9
172	37
177	83
178	5
186	25
187	4
188	11
189	5
191	7
199	5
201	14
202	5
204	41
205	2
216	8
230	2
234	15
235	5
237	3
246	25
247	2
258	4
262	264
263	53
264	11
280	3
287	2
316	1
321	1
332	3
340	2
353	1
378	4
389	1
391	3
415	4
