Mass spectrum: L-Leucine; GC-EI-QQ; MS; 2 TBDMS; RT:639.66 sec
Name: L-Leucine
Class: Natural Product
Formula: C6H13NO2
Exact mass: 131.09463
SMILES: CC(C)C[C@H](N)C(O)=O
InChI: InChI=1S/C6H13NO2/c1-4(2)3-5(7)6(8)9/h4-5H,3,7H2,1-2H3,(H,8,9)/t5-/m0/s1
Instrument: Agilent 7000B QqQMS, Agilent; Agilent 7893A series GC system, Agilent Technologies
Instrument type: GC-EI-QQ
Ms type: MS
Ion mode: POSITIVE
Column name: CP-SIL 8 CB LOW BLEED/MS
Retention time: 639.66 sec
Derivative form: C18H41NO2Si2
Derivative mass: 359.26758
Derivative type: 2 TBDMS
m/z	relative intensity
55	2
56	2
57	6
58	3
59	18
60	2
61	2
69	2
73	215
74	22
75	24
76	2
77	2
79	1
84	2
85	4
86	6
87	2
88	5
96	2
97	1
98	1
99	7
100	12
101	5
102	2
103	25
104	3
105	5
112	2
113	2
114	2
115	12
116	2
117	7
118	3
119	4
126	2
128	24
129	10
130	9
131	6
132	15
133	38
134	7
135	4
142	20
143	6
144	8
145	9
147	192
148	32
149	19
150	2
156	1
157	2
158	2
159	4
160	10
161	3
162	2
170	18
171	4
172	3
173	3
174	7
175	2
184	9
185	2
186	2
188	3
189	13
190	3
191	1
198	5
200	999
201	174
202	52
203	7
212	2
216	4
217	1
218	3
219	1
228	1
231	1
244	1
245	2
246	2
258	2
260	1
274	200
275	50
276	19
277	3
302	194
303	51
304	21
305	4
316	6
317	2
344	9
345	2
346	1
