Mass spectrum: D-(+)-Galactose; GC-EI-TOF; MS; n TMS; RT:730.094 sec
Name: D-(+)-Galactose
Class: Natural Product
Formula: C6H12O6
Exact mass: 180.06339
SMILES: OC[C@@H](O1)[C@H](O)[C@H](O)[C@@H](O)C(O)1
InChI: InChI=1S/C6H12O6/c7-1-2-3(8)4(9)5(10)6(11)12-2/h2-11H,1H2/t2-,3+,4+,5-,6?/m1/s1
Instrument: Pegasus III TOF-MS system, Leco; GC 6890, Agilent Technologies
Instrument type: GC-EI-TOF
Ms type: MS
Ion mode: POSITIVE
Column name: CP-SIL 8 CB LOW BLEED/MS
Retention time: 730.094  sec
m/z	relative intensity
85	20
86	15
87	24
88	25
89	316
90	33
91	17
92	1
96	19
97	21
98	4
99	19
100	67
101	77
102	40
103	741
104	74
105	76
106	12
107	2
108	1
110	1
111	10
112	5
113	19
114	22
115	25
116	31
117	335
118	39
119	42
120	3
121	1
126	6
127	14
128	9
129	373
130	67
131	103
132	20
133	252
134	37
135	24
136	2
138	1
139	1
140	1
141	7
142	11
143	52
144	9
145	15
146	5
147	999
148	164
149	109
150	13
151	7
152	2
153	2
154	5
155	2
156	3
157	256
158	42
159	28
160	263
161	69
162	18
163	33
164	6
165	4
168	5
169	19
170	3
171	4
172	12
173	15
174	5
175	19
176	3
177	23
178	6
179	3
180	3
181	2
182	6
183	1
185	1
186	9
187	6
188	6
189	85
190	28
191	45
192	8
193	4
194	1
196	3
198	1
200	3
201	29
202	9
203	17
204	95
205	548
206	110
207	60
208	12
209	1
210	2
214	21
215	7
216	10
217	341
218	79
219	39
220	7
221	21
222	5
227	1
228	2
229	70
230	26
231	21
232	9
233	30
234	10
235	18
236	3
237	3
240	2
241	1
242	5
243	6
244	7
245	6
246	5
247	12
248	2
249	1
251	1
254	2
258	1
259	4
262	3
264	1
265	2
267	1
268	10
269	2
270	2
273	3
274	5
275	2
277	17
278	6
279	1
280	1
288	1
291	24
292	7
293	3
300	3
303	1
304	2
305	16
306	8
307	23
308	5
309	1
318	9
319	367
320	129
321	64
322	12
323	2
325	1
332	1
337	1
344	1
347	1
376	3
380	1
410	1
414	1
480	1
482	1
