Mass spectrum: Coniferyl aldehyde; GC-EI-TOF; MS; n TMS; RT:753.542 sec
Name: Coniferyl aldehyde
Class: Natural Product
Formula: C10H10O3
Exact mass: 178.06299
SMILES: [H]C(=O)C=Cc(c1)cc(OC)c(O)c1
InChI: InChI=1S/C10H10O3/c1-13-10-7-8(3-2-6-11)4-5-9(10)12/h2-7,12H,1H3/b3-2+
Instrument: Pegasus III TOF-MS system, Leco; GC 6890, Agilent Technologies
Instrument type: GC-EI-TOF
Ms type: MS
Ion mode: POSITIVE
Column name: CP-SIL 8 CB LOW BLEED/MS
Retention time: 753.542  sec
m/z	relative intensity
85	21
86	15
87	34
88	121
89	388
90	77
91	88
92	29
93	24
94	49
95	43
96	11
97	3
98	6
99	10
100	11
101	164
102	137
103	71
104	86
105	54
106	11
107	35
108	10
109	73
110	9
111	10
112	1
113	9
114	22
115	107
116	395
117	187
118	54
119	32
120	13
121	24
122	5
123	5
124	17
125	9
126	1
127	13
128	43
129	45
130	60
131	48
132	95
133	55
134	16
135	71
136	42
137	62
138	8
139	1
140	7
141	7
142	37
143	28
144	242
145	63
146	53
147	49
148	23
149	43
150	16
151	19
153	1
154	3
155	3
156	16
157	14
158	20
159	36
160	98
161	90
162	30
163	40
164	11
165	33
166	10
167	1
170	2
171	5
172	26
173	64
174	71
175	107
176	91
177	27
178	10
179	39
180	8
181	2
184	1
185	9
186	29
187	120
188	156
189	81
190	97
191	74
192	27
193	16
194	3
195	2
198	2
199	2
200	19
201	12
202	188
203	81
204	50
205	32
206	49
207	14
208	3
209	3
210	1
212	1
214	2
215	4
216	50
217	592
218	999
219	285
220	90
221	38
222	9
223	2
228	6
229	6
230	13
231	20
232	278
233	114
234	42
235	10
236	3
237	1
238	1
240	5
241	2
242	2
243	3
244	1
246	21
247	58
248	914
249	294
250	91
251	19
252	1
260	1
261	1
262	3
263	2
264	64
265	16
266	3
267	3
268	2
270	1
277	2
278	387
279	482
280	117
281	32
282	3
355	1
358	1
