Mass spectrum: Oxamic acid; GC-EI-TOF; MS; n TMS; RT:417.594 sec
Name: Oxamic acid
Class: Natural Product
Formula: C2H3NO3
Exact mass: 89.01129
SMILES: NC(=O)C(O)=O
InChI: InChI=1S/C2H3NO3/c3-1(4)2(5)6/h(H2,3,4)(H,5,6)
Instrument: Pegasus III TOF-MS system, Leco; GC 6890, Agilent Technologies
Instrument type: GC-EI-TOF
Ms type: MS
Ion mode: POSITIVE
Column name: CP-SIL 8 CB LOW BLEED/MS
Retention time: 417.594  sec
m/z	relative intensity
85	11
86	21
87	14
88	4
89	8
90	2
91	2
92	3
93	12
94	1
95	4
98	2
99	7
100	179
101	27
102	38
103	82
104	10
105	9
106	1
107	1
113	4
114	2
115	22
116	279
117	56
118	21
119	6
120	1
128	2
130	9
131	54
132	23
133	52
134	8
135	3
142	1
144	1
145	1
146	13
147	999
148	160
149	84
150	10
151	3
158	13
159	2
160	1
161	1
173	1
174	8
175	18
176	5
177	2
185	1
188	15
189	25
190	221
191	42
192	19
193	3
218	94
219	18
220	9
221	1
