Mass spectrum: 1,3-Diaminopropane; GC-EI-TOF; MS; n TMS; RT:620.432 sec
Name: 1,3-Propanediamine
Name: 1,3-Diaminopropane
Class: Natural Product
Formula: C3H10N2
Exact mass: 74.08440
SMILES: NCCCN
InChI: InChI=1S/C3H10N2/c4-2-1-3-5/h1-5H2
Instrument: Pegasus III TOF-MS system, Leco; GC 6890, Agilent Technologies
Instrument type: GC-EI-TOF
Ms type: MS
Ion mode: POSITIVE
Column name: CP-SIL 8 CB LOW BLEED/MS
Retention time: 620.432  sec
m/z	relative intensity
85	25
86	645
87	69
88	42
89	3
97	2
98	14
99	11
100	333
101	55
102	55
103	14
104	1
106	1
112	28
113	24
114	50
115	30
116	65
117	56
118	10
119	5
126	6
127	8
128	83
129	54
130	233
131	64
132	43
133	4
134	1
136	1
142	3
143	1
144	21
145	6
146	82
147	14
148	4
156	8
157	2
158	41
159	8
160	501
161	92
162	47
163	1
170	22
171	10
172	565
173	149
174	999
175	191
176	84
177	9
184	1
185	7
186	158
187	43
188	33
189	4
190	1
200	1
201	337
202	78
203	36
204	6
215	1
216	3
259	11
275	1
347	1
404	1
