Mass spectrum: D-Panose; GC-EI-TOF; MS; n TMS; RT:1276.130 sec
Name: D-Panose
Class: Natural Product
Formula: C18H32O16
Exact mass: 504.16903
SMILES: O=CC(O)C(O)C([H])(C(O)CO)OC(O1)C(O)C(O)C(O)C(COC(O2)C(O)C(O)C(O)C(CO)2)1
InChI: InChI=1S/C18H32O16/c19-1-5(22)9(24)16(6(23)2-20)34-18-15(30)13(28)11(26)8(33-18)4-31-17-14(29)12(27)10(25)7(3-21)32-17/h1,5-18,20-30H,2-4H2/t5-,6+,7+,8+,9+,10+,11+,12-,13-,14+,15+,16+,17-,18+/m0/s1
Instrument: Pegasus III TOF-MS system, Leco; GC 6890, Agilent Technologies
Instrument type: GC-EI-TOF
Ms type: MS
Ion mode: POSITIVE
Column name: CP-SIL 8 CB LOW BLEED/MS
Retention time: 1276.130  sec
m/z	relative intensity
85	44
86	12
87	22
88	20
89	133
90	19
91	14
93	1
94	3
95	8
96	11
97	28
98	9
99	27
100	48
101	56
102	34
103	441
104	40
105	50
106	14
107	5
108	2
109	37
110	2
111	25
112	7
113	34
114	21
115	35
116	43
117	359
118	34
119	24
121	2
122	1
123	4
124	2
125	6
126	8
127	27
128	14
129	475
130	85
131	83
132	18
133	167
134	28
135	13
136	3
137	2
138	6
139	13
140	3
141	16
142	32
143	100
144	13
145	42
146	11
147	750
148	113
149	102
150	13
151	13
152	6
153	21
154	8
155	77
156	24
157	109
158	24
159	17
160	147
161	47
162	14
163	30
164	4
165	1
166	1
167	10
168	11
169	237
170	52
171	36
172	4
173	30
174	10
175	19
176	4
177	18
178	5
179	6
180	7
181	15
182	10
183	33
184	6
185	12
186	12
187	12
188	4
189	124
190	42
191	224
192	46
193	21
194	5
195	14
196	7
197	8
198	8
199	28
200	7
201	12
202	9
203	48
204	999
205	381
206	96
207	38
208	8
209	1
210	27
211	6
212	5
214	4
215	23
216	27
217	590
218	110
219	67
220	15
221	22
222	8
223	11
224	1
226	2
227	9
228	6
229	29
230	26
231	67
232	21
233	38
234	13
235	6
236	3
237	1
238	1
240	5
241	13
242	4
243	103
244	44
245	40
246	19
247	19
248	4
249	3
252	2
254	4
255	9
256	12
257	22
258	5
259	16
260	6
261	7
262	8
263	4
264	2
265	5
267	3
268	1
269	8
270	10
271	112
272	46
273	34
274	13
275	6
276	8
277	4
279	1
281	3
283	1
285	4
286	3
288	4
289	8
290	1
291	23
292	4
293	5
297	3
300	17
301	6
302	2
303	4
304	4
305	28
306	12
307	7
308	2
309	1
311	2
313	3
314	1
317	27
318	15
319	72
320	39
321	20
322	4
323	2
325	2
327	1
328	2
329	1
330	1
331	25
332	23
333	21
334	3
335	1
336	1
343	3
345	8
346	7
347	2
349	2
351	1
353	1
354	2
358	3
359	4
360	35
361	462
362	209
363	86
364	31
365	8
366	1
368	2
371	1
373	1
375	1
377	1
378	1
390	4
391	4
392	1
393	2
396	1
401	1
405	4
406	2
407	8
408	1
409	4
413	1
416	1
421	8
422	4
423	1
427	2
428	1
432	1
434	1
435	2
436	1
441	1
449	1
450	4
451	31
452	16
453	12
454	1
459	1
464	2
475	2
478	1
479	1
480	18
481	14
482	7
483	3
484	1
491	1
493	1
500	1
