Mass spectrum: Methylsuccinic acid; GC-EI-TOF; MS; n TMS; RT:456.048 sec
Name: Methylsuccinic acid
Class: Natural Product
Formula: C5H8O4
Exact mass: 132.04226
SMILES: OC(=O)CC(C)C(O)=O
InChI: InChI=1S/C5H8O4/c1-3(5(8)9)2-4(6)7/h3H,2H2,1H3,(H,6,7)(H,8,9)
Instrument: Pegasus III TOF-MS system, Leco; GC 6890, Agilent Technologies
Instrument type: GC-EI-TOF
Ms type: MS
Ion mode: POSITIVE
Column name: CP-SIL 8 CB LOW BLEED/MS
Retention time: 456.048  sec
m/z	relative intensity
85	17
86	7
87	8
88	3
89	7
93	1
96	4
97	4
98	3
99	32
100	5
101	10
102	3
103	10
104	1
105	4
111	1
113	4
115	13
116	8
117	26
118	3
119	5
123	16
124	1
125	1
127	5
128	1
129	52
130	9
131	21
132	4
133	43
134	6
135	4
142	5
143	80
144	12
145	9
146	1
147	999
148	159
149	92
150	10
151	3
157	5
158	12
159	8
160	1
163	1
170	4
171	4
175	3
186	33
187	15
188	3
189	3
190	4
191	2
204	14
205	4
206	1
217	59
218	13
219	6
220	1
232	18
233	4
234	1
261	76
262	17
263	7
276	1
