Mass spectrum: DL-Pipecolic acid; GC-EI-TOF; MS; n TMS; RT:480.339 sec
Name: DL-Pipecolic acid
Class: Natural Product
Formula: C6H11NO2
Exact mass: 129.07898
SMILES: OC(=O)C([H])(C1)NCCC1
InChI: InChI=1S/C6H11NO2/c8-6(9)5-3-1-2-4-7-5/h5,7H,1-4H2,(H,8,9)/t5-/m0/s1
Instrument: Pegasus III TOF-MS system, Leco; GC 6890, Agilent Technologies
Instrument type: GC-EI-TOF
Ms type: MS
Ion mode: POSITIVE
Column name: CP-SIL 8 CB LOW BLEED/MS
Retention time: 480.339  sec
m/z	relative intensity
85	11
86	17
87	6
88	2
89	1
94	4
95	1
96	1
97	2
98	5
99	6
100	12
101	4
102	4
103	8
104	1
105	2
108	2
110	2
111	1
112	14
113	7
114	6
115	4
116	1
117	8
118	1
119	3
122	2
124	1
126	9
127	1
128	15
129	9
130	3
131	13
132	3
133	24
134	4
135	2
138	1
140	8
141	2
142	3
143	1
147	62
148	10
149	4
152	3
154	13
155	7
156	999
157	149
158	49
159	4
168	7
170	1
175	3
184	7
185	1
186	1
230	44
231	16
232	6
233	1
244	1
258	3
259	1
273	1
