Mass spectrum: Orotic acid; GC-EI-TOF; MS; n TMS; RT:662.494 sec
Name: Orotic acid
Class: Natural Product
Formula: C5H4N2O4
Exact mass: 156.01711
SMILES: O=C(N1)C=C(NC(=O)1)C(O)=O
InChI: InChI=1S/C5H4N2O4/c8-3-1-2(4(9)10)6-5(11)7-3/h1H,(H,9,10)(H2,6,7,8,11)
Instrument: Pegasus III TOF-MS system, Leco; GC 6890, Agilent Technologies
Instrument type: GC-EI-TOF
Ms type: MS
Ion mode: POSITIVE
Column name: CP-SIL 8 CB LOW BLEED/MS
Retention time: 662.494  sec
m/z	relative intensity
85	21
86	80
87	23
88	7
89	7
90	2
91	1
92	6
93	22
94	4
95	13
96	6
97	34
98	17
99	65
100	371
101	45
102	26
103	26
104	5
105	12
106	2
107	2
108	3
109	6
110	9
111	8
112	11
113	14
114	24
115	28
116	13
117	43
118	8
119	14
120	3
121	2
123	12
124	10
125	12
126	13
127	8
128	7
129	10
130	16
131	138
132	35
133	115
134	17
135	10
136	1
137	5
138	4
139	5
140	34
141	9
142	14
143	9
144	11
145	10
146	5
147	371
148	61
149	36
150	5
151	3
152	2
153	4
154	7
155	10
156	25
157	19
158	32
159	10
160	18
161	7
162	2
163	1
165	2
166	1
167	28
168	8
169	6
170	10
171	9
172	11
173	15
174	130
175	24
176	12
177	2
179	2
180	6
181	15
182	11
183	6
184	7
185	8
186	5
187	2
188	5
189	7
190	4
191	3
192	1
193	1
194	1
195	18
196	6
197	9
198	9
199	6
200	4
201	9
202	2
203	1
204	3
205	6
206	2
207	4
208	1
209	3
210	3
211	11
212	6
213	8
214	30
215	8
216	4
217	1
218	1
221	2
223	1
224	2
225	11
226	12
227	7
228	6
229	2
230	2
231	3
232	3
233	1
238	2
239	49
240	17
241	9
242	4
243	1
244	1
245	8
246	4
247	4
248	1
251	2
252	6
253	126
254	999
255	270
256	108
257	20
258	5
259	2
260	1
261	5
262	2
263	1
267	2
268	4
269	107
270	54
271	19
272	5
273	1
281	1
282	21
283	11
284	5
285	5
286	2
299	3
300	1
313	5
314	1
315	1
327	11
328	8
329	19
330	9
331	4
332	1
333	1
341	2
342	1
343	7
344	4
345	2
355	7
356	18
357	280
358	95
359	46
360	10
361	3
370	1
371	18
372	25
373	10
374	5
375	1
