Mass spectrum: Isobutylamine; GC-EI-TOF; MS; n TMS; RT:313.743 sec
Name: Isobutylamine
Class: Natural Product
Formula: C4H11N
Exact mass: 73.08915
SMILES: NCC(C)C
InChI: InChI=1S/C4H11N/c1-4(2)3-5/h4H,3,5H2,1-2H3
Instrument: Pegasus III TOF-MS system, Leco; GC 6890, Agilent Technologies
Instrument type: GC-EI-TOF
Ms type: MS
Ion mode: POSITIVE
Column name: CP-SIL 8 CB LOW BLEED/MS
Retention time: 313.743  sec
m/z	relative intensity
85	24
86	714
87	71
88	30
89	2
96	1
97	2
98	4
99	14
100	341
101	53
102	53
103	11
104	3
110	1
112	8
113	14
114	40
115	17
116	39
117	51
118	10
119	4
126	6
127	1
128	399
129	55
130	109
131	48
132	14
133	4
142	11
143	5
144	26
145	7
146	11
147	2
148	1
158	24
159	9
160	5
172	15
173	5
174	999
175	184
176	82
177	10
178	2
186	5
200	5
201	1
202	148
203	30
204	13
205	1
216	3
217	5
