Mass spectrum: 2-Aminoisobutyric acid; GC-EI-TOF; MS; n TMS; RT:343.808 sec
Name: 2-Aminoisobutyrate
Name: 2-Aminoisobutyric acid
Class: Natural Product
Formula: C4H9NO2
Exact mass: 103.06333
SMILES: OC(=O)C(C)(C)N
InChI: InChI=1S/C4H9NO2/c1-4(2,5)3(6)7/h5H2,1-2H3,(H,6,7)
Instrument: Pegasus III TOF-MS system, Leco; GC 6890, Agilent Technologies
Instrument type: GC-EI-TOF
Ms type: MS
Ion mode: POSITIVE
Column name: CP-SIL 8 CB LOW BLEED/MS
Retention time: 343.808  sec
m/z	relative intensity
85	5
86	6
87	7
88	2
89	2
94	2
95	3
96	2
97	2
98	9
99	4
100	34
101	27
102	7
103	21
104	3
105	3
109	2
112	2
113	2
114	85
115	23
116	16
117	11
118	3
119	2
126	6
127	1
128	3
129	8
130	999
131	150
132	56
133	24
134	3
135	1
142	39
143	13
144	9
145	1
146	6
147	140
148	23
149	12
150	1
160	1
174	1
175	2
188	3
189	1
204	51
205	11
206	5
232	13
233	3
234	1
