Mass spectrum: HydroxyButyric acid; GC-EI-TOF; MS; n TMS; RT:332.113 sec
Name: HydroxyButyrate
Name: HydroxyButyric acid
Class: Natural Product
Formula: C4H8O3
Exact mass: 104.04734
SMILES: CCC(O)C(O)=O
InChI: InChI=1S/C4H8O3/c1-2-3(5)4(6)7/h3,5H,2H2,1H3,(H,6,7)
Instrument: Pegasus III TOF-MS system, Leco; GC 6890, Agilent Technologies
Instrument type: GC-EI-TOF
Ms type: MS
Ion mode: POSITIVE
Column name: CP-SIL 8 CB LOW BLEED/MS
Retention time: 332.113  sec
m/z	relative intensity
85	26
86	4
87	22
88	5
89	9
90	1
91	1
92	1
93	1
94	2
95	27
96	3
97	2
98	1
99	25
100	3
101	34
102	12
103	25
104	4
105	11
106	1
107	1
109	7
110	1
111	1
112	1
113	4
114	1
115	52
116	12
117	30
118	4
119	10
120	1
129	9
130	19
131	999
132	129
133	149
134	17
135	8
143	20
144	2
145	2
146	1
147	860
148	140
149	82
150	8
151	2
161	1
175	5
176	1
189	3
190	52
191	14
192	5
193	1
204	1
205	76
206	19
207	8
208	1
217	2
219	6
220	1
233	44
234	9
235	4
