Mass spectrum: Phosphoenolpyruvic acid; GC-EI-TOF; MS; n TMS; RT:595.606 sec
Name: Phosphoenolpyruvic acid
Class: Natural Product
Formula: C3H5O6P
Exact mass: 167.98237
SMILES: C=C(C(O)=O)OP(O)(O)=O
InChI: InChI=1S/C3H5O6P/c1-2(3(4)5)9-10(6,7)8/h1H2,(H,4,5)(H2,6,7,8)
Instrument: Pegasus III TOF-MS system, Leco; GC 6890, Agilent Technologies
Instrument type: GC-EI-TOF
Ms type: MS
Ion mode: POSITIVE
Column name: CP-SIL 8 CB LOW BLEED/MS
Retention time: 595.606  sec
m/z	relative intensity
85	26
86	5
87	27
88	9
89	33
90	8
91	28
92	8
93	24
94	2
95	8
96	4
97	6
98	28
99	19
100	8
101	17
102	10
103	78
104	17
105	49
106	17
107	42
108	6
109	23
111	3
113	6
115	96
116	19
117	47
118	10
119	72
120	11
121	66
122	6
123	25
124	2
125	2
127	6
128	1
129	27
130	5
131	90
132	21
133	559
134	81
135	279
136	37
137	115
138	12
139	14
141	8
142	16
143	18
144	7
145	11
146	3
147	999
148	165
149	98
150	16
151	49
152	8
153	14
155	3
157	6
158	1
159	8
161	19
162	2
163	9
164	1
165	27
166	6
167	34
168	6
169	4
171	5
173	1
175	1
176	1
177	16
178	3
179	27
180	7
181	118
182	23
183	39
184	12
185	4
189	86
190	34
191	68
192	16
193	63
194	16
195	94
196	26
197	32
198	8
199	9
200	2
201	6
202	3
203	4
204	1
205	7
207	90
208	21
209	31
210	71
211	736
212	144
213	90
214	41
215	20
216	8
217	458
218	92
219	44
220	7
221	11
222	3
223	20
224	6
225	162
226	35
227	165
228	33
229	19
230	2
231	1
237	9
238	35
239	8
240	2
241	2
242	5
243	110
244	22
245	10
246	1
251	5
253	2
254	1
255	8
256	3
257	1
265	1
266	21
267	20
268	4
269	14
270	3
271	1
281	19
282	3
283	15
284	7
285	28
286	7
287	3
294	6
295	6
296	2
297	4
298	15
299	239
300	79
301	49
302	10
303	4
311	1
313	4
314	9
315	20
316	5
317	4
318	1
325	3
326	1
328	8
329	4
330	2
368	33
369	392
370	140
371	68
372	16
373	3
383	3
384	39
385	16
386	6
387	1
