Mass spectrum: Succinic acid; GC-EI-TOF; MS; n TMS; RT:449.444 sec
Name: Succinic acid
Class: Natural Product
Formula: C4H6O4
Exact mass: 118.02661
SMILES: OC(=O)CCC(O)=O
InChI: InChI=1S/C4H6O4/c5-3(6)1-2-4(7)8/h1-2H2,(H,5,6)(H,7,8)
Instrument: Pegasus III TOF-MS system, Leco; GC 6890, Agilent Technologies
Instrument type: GC-EI-TOF
Ms type: MS
Ion mode: POSITIVE
Column name: CP-SIL 8 CB LOW BLEED/MS
Retention time: 449.444  sec
m/z	relative intensity
85	12
86	12
87	8
88	4
89	8
90	1
92	1
93	3
95	1
99	7
100	1
101	9
102	2
103	7
104	1
105	4
113	11
114	1
115	13
116	23
117	16
118	2
119	4
128	3
129	84
130	12
131	22
132	4
133	39
134	5
135	4
143	6
145	7
146	1
147	999
148	157
149	87
150	9
151	2
156	2
157	5
163	2
172	45
173	23
174	4
175	3
190	1
203	3
217	2
218	6
219	1
247	76
248	15
249	7
262	4
