Mass spectrum: N-alpha-Acetyl-L-Lysine; GC-EI-TOF; MS; n TMS; RT:793.641 sec
Name: N-a-Acetyl-L-Lysine
Name: N-alpha-Acetyl-L-Lysine
Class: Natural Product
Formula: C8H16N2O3
Exact mass: 188.11609
SMILES: NCCCCC(NC(C)=O)C(O)=O
InChI: InChI=1S/C8H16N2O3/c1-6(11)10-7(8(12)13)4-2-3-5-9/h7H,2-5,9H2,1H3,(H,10,11)(H,12,13)/t7-/m0/s1
Instrument: Pegasus III TOF-MS system, Leco; GC 6890, Agilent Technologies
Instrument type: GC-EI-TOF
Ms type: MS
Ion mode: POSITIVE
Column name: CP-SIL 8 CB LOW BLEED/MS
Retention time: 793.641  sec
m/z	relative intensity
85	20
86	268
87	37
88	23
89	7
90	2
91	2
92	3
93	4
94	17
95	12
96	20
97	8
98	38
99	23
100	192
101	38
102	51
103	18
104	4
105	4
106	3
107	1
108	19
109	3
110	9
111	4
112	39
113	16
114	30
115	21
116	89
117	55
118	16
119	12
120	2
121	1
122	1
123	3
124	5
125	3
126	16
127	8
128	49
129	34
130	75
131	62
132	42
133	65
134	14
135	9
136	4
137	1
138	3
139	2
140	15
141	8
142	40
143	22
144	18
145	15
146	37
147	266
148	47
149	36
150	6
151	4
152	4
153	2
154	21
155	12
156	82
157	25
158	49
159	12
160	9
161	8
162	2
163	2
164	1
165	1
166	5
167	2
168	10
169	5
170	21
171	81
172	94
173	25
174	999
175	186
176	86
177	13
178	3
180	2
181	2
182	16
183	4
184	31
185	11
186	21
187	6
188	9
189	5
190	11
191	6
192	2
195	1
196	3
197	5
198	37
199	16
200	94
201	22
202	13
203	3
204	4
205	4
206	1
207	3
208	2
209	1
210	1
212	4
213	27
214	88
215	19
216	13
217	4
218	8
219	3
220	2
221	6
222	2
223	1
224	2
225	4
226	11
227	6
228	9
229	3
230	9
231	3
232	2
240	6
241	2
242	3
243	1
244	2
245	2
246	4
247	1
248	5
249	1
255	1
256	2
258	4
259	1
260	2
261	68
262	19
263	8
264	1
269	5
270	3
271	4
272	30
273	9
274	13
275	3
276	1
278	1
281	1
288	1
289	3
290	1
297	1
299	1
300	2
301	1
302	18
303	6
304	2
313	7
314	3
315	4
316	25
317	10
318	3
319	1
329	1
330	41
331	18
332	8
333	2
343	1
344	1
345	2
346	1
359	5
360	2
361	1
371	3
372	1
373	1
386	2
387	1
389	1
390	1
433	1
434	2
435	1
460	3
461	19
462	13
463	6
464	2
465	1
475	1
476	11
477	7
478	3
479	1
