Mass spectrum: Propylene glycol; GC-EI-TOF; MS; n TMS; RT:245.966 sec
Name: Propyleneglycol
Name: Propylene glycol
Class: Natural Product
Formula: C3H8O2
Exact mass: 76.05243
SMILES: OCC(C)O
InChI: InChI=1S/C3H8O2/c1-3(5)2-4/h3-5H,2H2,1H3
Instrument: Pegasus III TOF-MS system, Leco; GC 6890, Agilent Technologies
Instrument type: GC-EI-TOF
Ms type: MS
Ion mode: POSITIVE
Column name: CP-SIL 8 CB LOW BLEED/MS
Retention time: 245.966  sec
m/z	relative intensity
85	16
86	3
87	27
88	12
89	17
90	2
91	1
94	2
95	10
96	1
97	1
99	7
100	1
101	35
102	11
103	34
104	5
105	12
106	1
107	1
113	4
115	48
116	27
117	999
118	109
119	48
120	3
121	1
129	3
130	4
131	51
132	8
133	84
134	12
135	6
147	581
148	94
149	52
150	5
151	1
161	1
176	1
189	3
205	35
206	6
207	3
