Mass spectrum: D-Tagatose; GC-EI-TOF; MS; n TMS; RT:710.731 sec
Name: D-Tagatose
Class: Natural Product
Formula: C6H12O6
Exact mass: 180.06339
SMILES: OCC(O)C(O)C(O)C(=O)CO
InChI: InChI=1S/C6H12O6/c7-1-3(9)5(11)6(12)4(10)2-8/h3,5-9,11-12H,1-2H2/t3-,5+,6-/m1/s1
Instrument: Pegasus III TOF-MS system, Leco; GC 6890, Agilent Technologies
Instrument type: GC-EI-TOF
Ms type: MS
Ion mode: POSITIVE
Column name: CP-SIL 8 CB LOW BLEED/MS
Retention time: 710.731  sec
m/z	relative intensity
85	26
86	13
87	21
88	14
89	195
90	18
91	9
92	1
93	1
94	2
95	1
96	2
97	2
98	6
99	10
100	28
101	48
102	16
103	999
104	99
105	65
106	6
107	2
108	1
110	2
111	5
112	2
113	18
114	145
115	33
116	22
117	136
118	18
119	27
120	3
121	2
124	2
125	1
126	7
127	6
128	9
129	112
130	24
131	56
132	11
133	143
134	21
135	13
136	1
138	1
140	3
141	4
142	15
143	23
144	6
145	12
146	3
147	501
148	82
149	56
150	7
151	4
152	3
153	1
154	3
155	2
156	6
157	23
158	8
159	7
160	2
161	4
162	1
163	18
164	3
165	2
166	1
167	1
168	5
169	2
170	7
171	2
172	21
173	38
174	11
175	17
176	4
177	7
178	1
179	1
180	3
181	1
182	2
184	1
185	1
186	4
187	3
188	6
189	100
190	25
191	48
192	9
193	5
194	1
196	4
197	1
198	6
199	1
200	4
201	17
202	17
203	11
204	37
205	49
206	11
207	10
208	2
209	1
214	7
215	3
216	10
217	627
218	136
219	62
220	9
221	16
222	4
223	2
228	2
229	6
230	5
231	13
232	5
233	2
240	3
241	1
242	2
243	2
244	7
245	3
246	2
247	1
254	1
255	1
256	5
257	2
258	1
260	2
261	1
262	23
263	17
264	5
265	2
266	1
268	2
269	1
270	2
271	1
272	1
274	1
275	3
276	6
277	39
278	16
279	8
280	2
281	1
286	1
288	1
291	5
292	2
293	1
300	1
302	1
303	1
304	1
305	4
306	4
307	179
308	58
309	28
310	6
311	1
318	2
319	7
320	3
321	1
330	1
332	1
333	4
334	5
335	10
336	7
337	3
344	1
350	1
358	1
359	1
363	1
364	22
365	10
366	5
367	1
376	2
377	1
390	2
391	1
464	1
