Mass spectrum: 2-Hydroxyphenylacetic acid; GC-EI-TOF; MS; n TMS; RT:584.967 sec
Name: 2-Hydroxyphenylacetic acid
Class: Natural Product
Formula: C8H8O3
Exact mass: 152.04734
SMILES: OC(=O)Cc(c1)c(O)ccc1
InChI: InChI=1S/C8H8O3/c9-7-4-2-1-3-6(7)5-8(10)11/h1-4,9H,5H2,(H,10,11)
Instrument: Pegasus III TOF-MS system, Leco; GC 6890, Agilent Technologies
Instrument type: GC-EI-TOF
Ms type: MS
Ion mode: POSITIVE
Column name: CP-SIL 8 CB LOW BLEED/MS
Retention time: 584.967  sec
m/z	relative intensity
85	11
86	3
87	11
88	5
89	75
90	36
91	83
92	9
93	10
94	1
95	10
96	3
97	5
98	1
99	3
101	7
102	13
103	64
104	22
105	114
106	40
107	11
108	1
109	6
110	1
111	8
112	2
113	2
115	22
116	7
117	35
118	12
119	70
120	11
121	40
122	6
123	9
124	1
129	2
130	1
131	41
132	11
133	141
134	75
135	117
136	17
137	24
138	3
139	1
143	2
145	9
146	4
147	999
148	184
149	570
150	92
151	49
152	7
153	2
157	1
159	3
160	1
161	55
162	12
163	96
164	364
165	76
166	19
167	3
175	3
176	1
177	47
178	10
179	58
180	11
181	11
182	3
183	1
191	1
193	5
194	1
195	13
196	2
197	1
205	1
206	13
207	7
208	10
209	63
210	19
211	9
212	2
219	1
220	1
221	3
222	1
223	6
224	3
225	24
226	9
227	4
233	1
235	13
236	8
237	66
238	32
239	11
240	3
247	1
249	1
251	1
252	6
253	308
254	101
255	44
256	9
257	2
267	1
280	1
281	108
282	48
283	17
284	4
295	1
296	150
297	49
298	18
299	3
