Mass spectrum: Ethylmalonic acid; GC-EI-TOF; MS; n TMS; RT:428.809 sec
Name: Ethylmalonic acid
Class: Natural Product
Formula: C5H8O4
Exact mass: 132.04226
SMILES: CCC(C(O)=O)C(O)=O
InChI: InChI=1S/C5H8O4/c1-2-3(4(6)7)5(8)9/h3H,2H2,1H3,(H,6,7)(H,8,9)
Instrument: Pegasus III TOF-MS system, Leco; GC 6890, Agilent Technologies
Instrument type: GC-EI-TOF
Ms type: MS
Ion mode: POSITIVE
Column name: CP-SIL 8 CB LOW BLEED/MS
Retention time: 428.809  sec
m/z	relative intensity
85	16
86	3
87	8
88	2
89	6
90	1
92	2
93	4
95	2
97	14
98	4
99	28
100	5
101	7
102	3
103	11
104	2
105	6
111	1
113	3
115	11
116	3
117	21
118	3
119	7
123	6
127	14
128	2
129	64
130	8
131	36
132	6
133	75
134	11
135	7
142	2
143	40
144	7
145	6
146	2
147	999
148	159
149	106
150	12
151	4
157	3
158	1
159	8
160	2
161	1
171	13
172	1
173	16
174	3
175	2
186	4
187	1
189	2
190	2
191	2
203	1
204	13
205	4
206	1
217	97
218	21
219	9
220	1
232	15
233	6
234	2
245	4
246	1
248	13
249	3
250	1
261	42
262	10
263	4
276	1
