Mass spectrum: L-Valine; GC-EI-QQ; MS; 2 TBDMS; RT:621.9 sec
Name: L-Valine
Class: Natural Product
Formula: C5H11NO2
Exact mass: 117.07898
SMILES: CC(C)C(N)C(O)=O
InChI: InChI=1S/C5H11NO2/c1-3(2)4(6)5(7)8/h3-4H,6H2,1-2H3,(H,7,8)/t4-/m0/s1
Instrument: Agilent 7000B QqQMS, Agilent; Agilent 7892A series GC system, Agilent Technologies
Instrument type: GC-EI-QQ
Ms type: MS
Ion mode: POSITIVE
Column name: CP-SIL 8 CB LOW BLEED/MS
Retention time: 621.9 sec
Derivative form: C17H39NO2Si2
Derivative mass: 345.25193
Derivative type: 2 TBDMS
m/z	relative intensity
52	1
55	4
56	4
57	7
58	5
59	21
60	3
61	1
66	1
68	2
69	3
70	2
73	280
74	28
75	37
76	3
77	4
79	5
81	2
82	3
83	2
84	2
85	6
86	6
87	3
88	2
93	1
97	2
98	3
99	7
100	6
101	5
102	4
103	31
104	3
105	2
108	2
112	4
113	2
114	17
115	26
117	10
118	3
119	5
120	1
126	2
128	28
129	18
130	17
131	9
132	25
133	45
134	9
135	5
142	13
143	6
144	3
145	10
147	230
148	38
149	24
150	2
151	1
156	37
157	7
158	4
159	4
160	18
161	4
162	2
170	8
171	3
172	2
173	2
174	7
175	2
176	1
184	6
186	999
187	159
188	47
189	20
190	4
191	2
198	3
202	3
203	1
207	1
214	2
216	12
217	3
218	5
219	1
231	1
244	1
245	5
246	2
258	1
260	228
261	56
262	22
263	4
272	2
281	3
288	215
289	50
290	21
291	3
302	84
303	21
304	9
330	10
331	2
332	1
