Mass spectrum: Paeonol; GC-EI-TOF; MS; n TMS; RT:620.077 sec
Name: Paeonol
Class: Natural Product
Formula: C9H10O3
Exact mass: 166.06299
SMILES: COc(c1)cc(O)c(c1)C(C)=O
InChI: InChI=1S/C9H10O3/c1-6(10)8-4-3-7(12-2)5-9(8)11/h3-5,11H,1-2H3
Instrument: Pegasus III TOF-MS system, Leco; GC 6890, Agilent Technologies
Instrument type: GC-EI-TOF
Ms type: MS
Ion mode: POSITIVE
Column name: CP-SIL 8 CB LOW BLEED/MS
Retention time: 620.077  sec
m/z	relative intensity
85	30
86	1
87	2
88	5
89	53
90	16
91	45
92	18
93	16
94	4
95	28
96	2
97	6
99	8
101	3
102	1
103	18
104	137
105	36
106	19
107	24
108	10
109	12
110	13
111	9
112	4
113	4
116	3
118	3
119	10
120	3
121	39
122	7
123	13
124	1
125	2
129	1
130	1
131	4
133	7
134	3
135	18
136	4
137	31
138	6
139	4
147	18
148	5
149	41
150	64
151	79
152	8
153	2
161	6
162	8
163	15
164	4
165	68
166	20
167	9
169	3
176	1
177	8
179	38
180	279
181	103
182	21
183	9
184	1
189	4
191	12
192	7
193	43
194	11
195	3
196	4
201	1
205	49
206	16
207	19
208	18
209	13
214	1
217	3
221	2
222	2
223	999
224	191
225	60
226	7
228	1
229	1
238	14
239	2
245	1
246	2
251	1
275	1
302	2
322	1
324	1
330	3
333	1
339	1
367	2
392	1
441	1
464	1
