Mass spectrum: Acetylsalicylic acid; GC-EI-TOF; MS; n TMS; RT:556.862 sec
Name: Acetylsalicylic acid
Class: Natural Product
Formula: C9H8O4
Exact mass: 180.04226
SMILES: CC(=O)Oc(c1)c(ccc1)C(O)=O
InChI: InChI=1S/C9H8O4/c1-6(10)13-8-5-3-2-4-7(8)9(11)12/h2-5H,1H3,(H,11,12)
Instrument: Pegasus III TOF-MS system, Leco; GC 6890, Agilent Technologies
Instrument type: GC-EI-TOF
Ms type: MS
Ion mode: POSITIVE
Column name: CP-SIL 8 CB LOW BLEED/MS
Retention time: 556.862  sec
m/z	relative intensity
85	43
86	5
87	19
88	6
89	73
90	45
91	396
92	107
93	29
94	4
95	30
96	8
97	14
98	3
99	5
100	1
101	9
102	9
103	59
104	17
105	84
106	13
107	16
108	4
109	10
111	7
112	2
113	3
114	1
115	72
116	12
117	22
118	16
119	39
120	41
121	39
122	5
123	19
124	2
125	2
126	38
127	4
128	2
129	11
130	1
131	42
132	9
133	151
134	29
135	479
136	71
137	43
138	6
139	2
141	1
143	3
144	1
145	12
146	3
147	120
148	25
149	296
150	51
151	90
152	13
153	15
154	1
155	1
157	1
159	31
160	5
161	11
162	4
163	16
164	8
165	12
166	8
167	3
171	1
173	1
174	1
175	59
176	12
177	29
178	5
179	79
180	14
181	44
182	9
183	4
184	1
185	1
189	2
191	7
192	3
193	128
194	53
195	38
196	7
197	2
205	1
206	1
207	7
208	2
209	223
210	59
211	33
212	6
213	2
215	1
219	1
221	9
222	3
223	3
224	1
225	11
226	3
227	2
230	1
231	1
232	1
233	43
234	15
235	8
236	2
237	1
239	1
240	1
247	2
248	1
249	60
250	26
251	19
252	4
253	2
257	1
258	1
259	1
260	1
262	1
263	1
264	1
265	22
266	15
267	999
268	249
269	100
270	19
271	3
281	1
472	1
