Mass spectrum: 2-Isopropylmalic acid; GC-EI-TOF; MS; n TMS; RT:584.944 sec
Name: 2-Isopropylmalic acid
Class: Natural Product
Formula: C7H12O5
Exact mass: 176.06847
SMILES: OC(=O)CC(O)(C(C)C)C(O)=O
InChI: InChI=1S/C7H12O5/c1-4(2)7(12,6(10)11)3-5(8)9/h4,12H,3H2,1-2H3,(H,8,9)(H,10,11)
Instrument: Pegasus III TOF-MS system, Leco; GC 6890, Agilent Technologies
Instrument type: GC-EI-TOF
Ms type: MS
Ion mode: POSITIVE
Column name: CP-SIL 8 CB LOW BLEED/MS
Retention time: 584.944  sec
m/z	relative intensity
85	20
86	6
87	13
88	6
89	12
90	1
91	84
92	11
93	11
94	3
95	46
96	9
97	47
98	5
99	30
100	5
101	18
102	7
103	27
104	4
105	11
106	1
107	1
108	2
109	2
110	1
111	7
112	5
113	106
114	10
115	138
116	24
117	130
118	14
119	22
120	3
121	2
122	2
123	19
124	2
125	5
126	1
127	14
128	2
129	84
130	12
131	90
132	16
133	184
134	28
135	21
136	3
137	2
139	1
140	1
141	29
142	8
143	112
144	18
145	15
146	5
147	999
148	160
149	206
150	28
151	15
152	2
153	2
155	4
156	2
157	182
158	35
159	16
160	3
161	6
162	2
163	29
164	6
165	3
168	1
169	28
170	6
171	21
172	3
173	9
174	1
175	9
176	2
177	6
178	1
179	1
183	2
184	3
185	68
186	13
187	10
188	2
189	21
190	11
191	18
192	4
193	2
196	1
197	7
198	1
199	1
201	3
202	2
203	13
204	11
205	9
206	2
207	7
208	2
209	1
212	7
213	69
214	12
215	10
216	3
217	69
218	17
219	12
220	3
221	35
222	9
223	5
224	1
225	1
227	1
229	1
230	1
231	92
232	31
233	15
234	3
235	1
236	1
237	1
243	10
244	4
245	13
246	4
247	2
248	1
249	1
258	1
259	108
260	28
261	52
262	12
263	5
264	1
273	1
274	3
275	369
276	92
277	39
278	8
279	1
286	1
287	65
288	16
289	11
290	2
291	2
301	1
305	14
306	6
307	5
308	1
333	4
334	3
335	1
348	2
349	51
350	23
351	12
352	4
353	1
376	3
377	39
378	16
379	8
380	2
