Mass spectrum: 2-Hydroxypyridine; GC-EI-TOF; MS; n TMS; RT:275.693 sec
Name: 2-Hydroxypyridine
Class: Natural Product
Formula: C5H5NO
Exact mass: 95.03711
SMILES: Oc(c1)nccc1
InChI: InChI=1S/C5H5NO/c7-5-3-1-2-4-6-5/h1-4H,(H,6,7)
Instrument: Pegasus III TOF-MS system, Leco; GC 6890, Agilent Technologies
Instrument type: GC-EI-TOF
Ms type: MS
Ion mode: POSITIVE
Column name: CP-SIL 8 CB LOW BLEED/MS
Retention time: 275.693  sec
m/z	relative intensity
85	5
86	4
91	2
92	17
93	16
94	6
95	20
96	13
97	37
98	11
99	11
100	5
101	1
106	6
107	1
108	5
109	3
110	2
111	1
122	96
123	12
124	8
125	2
126	1
132	1
134	2
135	2
136	37
137	16
138	9
139	1
148	2
150	2
151	5
152	999
153	125
154	40
155	3
165	1
166	115
167	95
168	16
169	3
