Mass spectrum: L-Histidine; GC-EI-QQ; MS; 3 TBDMS; RT:969.54 sec
Name: L-Histidine
Class: Natural Product
Formula: C6H9N3O2
Exact mass: 155.06948
SMILES: C1=C(NC=N1)C[C@@H](C(=O)O)N
InChI: InChI=1S/C6H9N3O2/c7-5(6(10)11)1-4-2-8-3-9-4/h2-3,5H,1,7H2,(H,8,9)(H,10,11)/t5-/m0/s1
Instrument: Agilent 7000B QqQMS, Agilent; Agilent 7906A series GC system, Agilent Technologies
Instrument type: GC-EI-QQ
Ms type: MS
Ion mode: POSITIVE
Column name: CP-SIL 8 CB LOW BLEED/MS
Retention time: 969.54 sec
Derivative form: C24H54N3O2Si3
Derivative mass: 500.35238
Derivative type: 3 TBDMS
m/z	relative intensity
56	3
57	4
58	3
59	10
73	281
74	25
75	23
76	2
77	2
79	1
81	3
82	4
83	5
84	4
85	6
86	2
87	2
96	2
97	2
98	3
99	5
100	3
101	1
102	1
103	4
110	3
111	3
112	9
113	8
114	2
115	12
116	3
117	3
118	2
119	2
120	3
124	1
125	3
126	2
128	2
130	4
131	4
132	14
133	16
134	4
135	2
138	2
139	8
140	22
141	4
142	6
143	1
144	1
146	6
147	48
148	8
149	5
150	2
151	2
152	3
153	2
154	2
155	2
156	2
157	1
158	2
159	2
160	9
161	2
162	2
165	2
166	15
167	5
168	5
169	2
170	2
172	1
173	1
174	2
179	2
180	2
181	5
182	2
183	3
188	2
189	3
192	2
193	2
194	5
196	999
197	206
198	51
199	7
200	1
202	1
207	8
208	5
209	6
210	2
211	1
213	1
214	1
216	5
217	1
218	3
222	2
223	4
224	11
225	11
226	3
227	1
236	1
240	2
241	1
244	2
245	5
246	2
250	1
252	1
253	1
254	3
255	1
264	1
265	1
266	2
268	3
280	27
281	11
282	6
283	3
284	1
285	1
299	27
300	7
302	51
303	13
304	5
308	14
309	6
310	3
311	1
322	3
323	1
336	2
338	149
339	47
340	17
341	5
342	1
350	1
412	6
413	2
414	1
422	3
423	2
440	153
441	63
442	26
443	6
444	2
482	7
483	3
484	1
497	1
