Mass spectrum: L-(-)-Phenylalanine; GC-EI-TOF; MS; n TMS; RT:613.775 sec
Name: L-(-)-Phenylalanine
Class: Natural Product
Formula: C9H11NO2
Exact mass: 165.07898
SMILES: C1=CC=C(C=C1)C[C@@H](C(=O)O)N
InChI: InChI=1S/C9H11NO2/c10-8(9(11)12)6-7-4-2-1-3-5-7/h1-5,8H,6,10H2,(H,11,12)/t8-/m0/s1
Instrument: Pegasus III TOF-MS system, Leco; GC 6890, Agilent Technologies
Instrument type: GC-EI-TOF
Ms type: MS
Ion mode: POSITIVE
Column name: CP-SIL 8 CB LOW BLEED/MS
Retention time: 613.775  sec
m/z	relative intensity
85	14
86	57
87	20
88	8
89	48
90	25
91	392
92	65
93	16
94	2
95	3
96	2
97	1
98	6
99	4
100	595
101	85
102	45
103	87
104	23
105	22
106	3
107	8
108	1
109	1
110	1
112	1
113	2
114	2
115	26
116	14
117	48
118	32
119	29
120	94
121	31
122	4
123	1
128	6
129	6
130	114
131	72
132	83
133	84
134	20
135	25
136	4
137	1
142	1
143	3
144	10
145	12
146	56
147	372
148	68
149	36
150	5
151	1
158	8
159	12
160	45
161	16
162	19
163	24
164	5
165	1
172	2
173	1
174	16
175	5
176	26
177	31
178	8
179	2
188	3
189	2
190	12
191	14
192	677
193	124
194	34
195	6
196	1
202	4
203	17
204	31
205	9
206	4
207	1
217	4
218	999
219	200
220	91
221	14
222	6
235	1
266	54
267	23
268	10
269	2
276	1
278	1
294	15
295	4
296	2
