Mass spectrum: 4-Methylbenzoic acid; GC-EI-TOF; MS; n TMS; RT:483.949 sec
Name: 4-Methyl Benzoic acid
Name: 4-Methylbenzoic acid
Class: Natural Product
Formula: C8H8O2
Exact mass: 136.05243
SMILES: Cc(c1)ccc(c1)C(O)=O
InChI: InChI=1S/C8H8O2/c1-6-2-4-7(5-3-6)8(9)10/h2-5H,1H3,(H,9,10)
Instrument: Pegasus III TOF-MS system, Leco; GC 6890, Agilent Technologies
Instrument type: GC-EI-TOF
Ms type: MS
Ion mode: POSITIVE
Column name: CP-SIL 8 CB LOW BLEED/MS
Retention time: 483.949  sec
m/z	relative intensity
85	4
86	5
87	6
88	4
89	122
90	91
91	620
92	52
93	9
94	1
95	3
96	34
97	9
99	1
102	1
103	6
104	5
105	13
106	2
107	5
109	2
115	1
117	5
118	30
119	999
120	89
121	18
122	3
123	1
131	4
132	1
133	12
134	3
135	9
136	3
137	1
145	5
146	1
147	5
148	15
149	772
150	120
151	34
152	3
163	3
164	1
165	1
175	1
176	1
177	3
178	2
179	2
192	10
193	822
194	142
195	41
196	4
207	11
208	89
209	16
210	4
