Mass spectrum: L-Theanine; GC-EI-TOF; MS; n TMS; RT:670.981 sec
Name: L-Theanine
Class: Natural Product
Formula: C12H17NS
Exact mass: 207.10817
SMILES: C(C2)CN(C2)CCSc(c1)cccc1
InChI: InChI=1S/C12H17NS/c1-2-6-12(7-3-1)14-11-10-13-8-4-5-9-13/h1-3,6-7H,4-5,8-11H2
Instrument: Pegasus III TOF-MS system, Leco; GC 6890, Agilent Technologies
Instrument type: GC-EI-TOF
Ms type: MS
Ion mode: POSITIVE
Column name: CP-SIL 8 CB LOW BLEED/MS
Retention time: 670.981  sec
m/z	relative intensity
85	40
86	80
87	34
88	15
89	18
90	7
91	3
92	9
93	7
94	34
95	21
96	22
97	14
98	44
99	38
100	378
101	102
102	140
103	59
104	13
105	9
107	3
108	4
109	37
110	26
111	339
112	107
113	39
114	91
115	94
116	152
117	66
118	23
119	20
120	4
121	6
122	3
123	2
124	7
125	3
126	26
127	16
128	517
129	144
130	79
131	95
132	70
133	154
134	29
135	17
136	2
137	4
138	9
139	26
140	58
141	18
142	53
143	56
144	172
145	43
146	40
147	434
148	77
149	54
150	8
151	4
152	5
153	14
154	37
155	41
156	416
157	77
158	166
159	999
160	150
161	55
162	7
163	4
164	1
165	4
166	4
167	60
168	26
169	12
170	44
171	12
172	146
173	47
174	26
175	6
176	5
177	4
178	1
180	1
181	5
182	10
183	693
184	366
185	120
186	36
187	7
188	62
189	23
190	13
191	4
192	2
195	4
196	4
197	4
198	4
199	7
200	12
201	78
202	28
203	20
204	9
205	4
206	2
207	2
210	5
211	11
212	4
213	19
214	17
215	5
216	79
217	20
218	59
219	18
220	6
221	13
222	3
223	4
224	2
225	2
226	3
227	5
228	19
229	12
230	28
231	11
232	15
233	3
234	2
235	2
236	2
239	1
240	4
241	5
242	1
243	23
244	11
245	4
246	2
247	1
248	6
249	4
250	1
251	1
254	1
256	1
257	53
258	21
259	6
260	5
261	2
269	2
271	3
272	9
273	792
274	219
275	87
276	27
277	6
278	1
279	1
283	5
284	2
285	48
286	17
287	8
288	1
291	1
300	2
301	26
302	7
303	4
304	2
318	1
329	1
345	1
346	12
347	15
348	7
349	1
350	2
375	32
376	12
377	4
378	2
390	15
391	9
392	4
420	1
426	1
435	2
436	1
438	1
445	1
454	1
467	1
475	1
487	1
500	1
