Mass spectrum: Inositol; GC-EI-TOF; MS; n TMS; RT:800.609 sec
Name: Inositol
Class: Natural Product
Formula: C6H12O6
Exact mass: 180.06339
SMILES: O[C@H]([C@@H](O)1)[C@H](O)[C@@H](O)[C@@H](O)[C@@H](O)1
InChI: InChI=1S/C6H12O6/c7-1-2(8)4(10)6(12)5(11)3(1)9/h1-12H/t1-,2-,3-,4+,5-,6-
Instrument: Pegasus III TOF-MS system, Leco; GC 6890, Agilent Technologies
Instrument type: GC-EI-TOF
Ms type: MS
Ion mode: POSITIVE
Column name: CP-SIL 8 CB LOW BLEED/MS
Retention time: 800.609  sec
m/z	relative intensity
85	11
86	3
87	16
88	5
89	9
90	2
91	3
92	1
93	1
94	1
95	3
96	1
97	3
98	2
99	14
100	2
101	29
102	12
103	246
104	25
105	17
106	2
107	1
109	8
110	1
111	15
112	3
113	14
114	3
115	14
116	19
117	30
118	5
119	17
120	2
121	2
125	4
126	2
127	13
128	3
129	268
130	34
131	95
132	16
133	235
134	35
135	22
136	3
137	1
139	3
140	1
141	7
142	7
143	73
144	10
145	11
146	4
147	999
148	159
149	103
150	12
151	8
152	1
153	5
154	2
155	7
156	6
157	22
158	4
159	7
160	1
161	21
162	4
163	8
164	1
165	1
166	1
167	2
168	1
169	6
170	1
171	2
173	4
174	1
175	12
176	2
177	23
178	4
179	3
181	4
182	1
183	2
185	3
186	1
187	3
188	1
189	34
190	31
191	365
192	68
193	34
194	4
195	1
197	1
199	1
200	1
201	4
202	1
203	15
204	135
205	40
206	15
207	25
208	6
209	3
211	1
213	1
215	10
216	5
217	633
218	130
219	58
220	8
221	73
222	19
223	10
224	2
225	1
227	2
228	2
229	4
230	16
231	10
232	3
233	1
235	2
237	1
239	3
240	1
241	1
242	1
243	15
244	4
245	5
246	2
247	1
249	1
253	1
255	4
256	1
257	2
258	1
263	1
264	1
265	93
266	25
267	13
268	3
269	1
270	1
271	4
272	1
277	2
278	3
279	2
280	1
289	1
290	1
291	36
292	12
293	14
294	4
295	1
303	2
304	13
305	352
306	112
307	57
308	13
309	3
316	1
317	11
318	199
319	87
320	39
321	10
322	3
329	1
331	3
332	1
343	7
344	3
345	4
346	1
366	1
367	18
368	7
369	4
370	1
379	2
380	1
392	3
393	11
394	5
395	3
406	1
407	1
417	1
418	1
419	5
420	3
421	1
431	4
432	31
433	27
434	14
435	6
436	2
