Mass spectrum: Terephthalic acid; GC-EI-TOF; MS; n TMS; RT:687.405 sec
Name: Benzen-1,4-Dicarboxylic acid
Name: Terephthalic acid
Class: Natural Product
Formula: C8H6O4
Exact mass: 166.02661
SMILES: OC(=O)c(c1)ccc(c1)C(O)=O
InChI: InChI=1S/C8H6O4/c9-7(10)5-1-2-6(4-3-5)8(11)12/h1-4H,(H,9,10)(H,11,12)
Instrument: Pegasus III TOF-MS system, Leco; GC 6890, Agilent Technologies
Instrument type: GC-EI-TOF
Ms type: MS
Ion mode: POSITIVE
Column name: CP-SIL 8 CB LOW BLEED/MS
Retention time: 687.405  sec
m/z	relative intensity
85	19
86	3
87	7
88	6
89	137
90	41
91	85
92	14
93	20
94	3
95	10
96	11
97	7
98	3
99	3
100	1
101	7
102	6
103	967
104	504
105	80
106	9
107	18
108	3
109	6
110	4
111	6
112	3
113	1
115	14
116	5
117	16
118	68
119	53
120	13
121	45
122	7
123	5
125	13
126	50
127	10
128	1
129	4
130	1
131	14
132	12
133	75
134	74
135	244
136	37
137	13
138	1
140	230
141	25
142	1
143	2
145	8
146	2
147	19
148	19
149	53
150	32
151	14
152	3
153	1
159	1
161	3
162	2
163	12
164	3
165	4
175	3
176	2
177	48
178	86
179	29
180	8
181	2
191	3
192	33
193	74
194	17
195	6
205	8
206	3
207	22
208	6
209	4
210	1
217	1
219	3
220	8
221	365
222	65
223	27
224	4
225	1
235	2
236	3
237	5
238	1
249	2
250	6
251	225
252	68
253	55
254	12
255	4
265	1
266	2
267	3
268	2
269	1
270	1
271	1
272	1
273	1
275	1
276	1
277	1
278	1
279	2
280	3
281	2
282	1
283	1
284	1
293	1
294	15
295	999
296	261
297	105
298	18
299	4
309	8
310	53
311	15
312	6
313	1
