Mass spectrum: Glutaric acid; GC-EI-TOF; MS; n TMS; RT:499.994 sec
Name: Glutaric acid
Class: Natural Product
Formula: C5H8O4
Exact mass: 132.04226
SMILES: OC(=O)CCCC(O)=O
InChI: InChI=1S/C5H8O4/c6-4(7)2-1-3-5(8)9/h1-3H2,(H,6,7)(H,8,9)
Instrument: Pegasus III TOF-MS system, Leco; GC 6890, Agilent Technologies
Instrument type: GC-EI-TOF
Ms type: MS
Ion mode: POSITIVE
Column name: CP-SIL 8 CB LOW BLEED/MS
Retention time: 499.994  sec
m/z	relative intensity
85	62
86	10
87	14
88	24
89	15
90	1
95	4
96	2
97	202
98	14
99	19
100	6
101	54
102	12
103	11
104	4
105	5
107	1
109	1
111	3
112	3
113	12
114	2
115	20
116	134
117	63
118	13
119	5
120	2
123	15
124	4
127	10
128	6
129	198
130	78
131	45
132	13
133	77
134	11
135	6
136	2
137	1
139	2
141	1
142	4
143	19
145	21
146	2
147	999
148	172
149	135
150	21
151	7
158	213
159	57
160	15
161	5
162	10
163	4
169	1
171	10
172	4
173	2
175	1
176	1
179	1
180	1
186	68
187	31
188	9
189	20
190	5
191	3
202	2
203	50
204	56
205	17
206	8
207	1
210	1
217	6
219	4
225	1
232	2
233	47
234	15
235	10
236	1
245	2
246	1
249	1
250	1
252	1
254	1
259	1
260	1
261	145
262	35
263	16
264	1
269	1
286	1
290	1
317	1
334	1
390	1
398	1
481	1
489	1
493	1
