Mass spectrum: Behenic acid; GC-EI-TOF; MS; n TMS; RT:987.066 sec
Name: Behenic acid
Class: Natural Product
Formula: C22H44O2
Exact mass: 340.33413
SMILES: CCCCCCCCCCCCCCCCCCCCCC(O)=O
InChI: InChI=1S/C22H44O2/c1-2-3-4-5-6-7-8-9-10-11-12-13-14-15-16-17-18-19-20-21-22(23)24/h2-21H2,1H3,(H,23,24)
Instrument: Pegasus III TOF-MS system, Leco; GC 6890, Agilent Technologies
Instrument type: GC-EI-TOF
Ms type: MS
Ion mode: POSITIVE
Column name: CP-SIL 8 CB LOW BLEED/MS
Retention time: 987.066  sec
m/z	relative intensity
85	43
86	10
87	10
88	6
89	31
90	4
91	11
92	2
93	21
94	4
95	62
96	12
97	73
98	54
99	27
100	4
101	12
102	4
103	5
105	23
106	2
107	13
108	1
109	24
110	5
111	36
112	14
113	7
114	2
115	11
116	61
117	999
118	111
119	43
120	3
121	14
122	2
123	9
124	3
125	10
126	4
127	6
128	5
129	460
130	72
131	134
132	537
133	143
134	31
135	15
136	2
137	4
138	1
139	4
140	3
141	4
142	2
143	45
144	7
145	316
146	44
147	16
148	1
149	5
151	1
153	3
154	5
155	4
157	9
158	2
159	26
160	4
161	1
163	1
167	2
168	2
169	1
171	20
172	5
173	7
174	5
177	1
181	1
185	34
186	10
187	23
188	9
189	1
199	7
200	1
201	63
202	11
203	3
210	1
213	5
214	1
215	6
216	1
227	8
228	2
229	3
230	1
241	8
242	2
243	8
244	2
255	5
256	1
257	10
258	3
269	4
270	1
271	3
272	1
279	1
283	3
284	1
285	2
297	3
298	1
299	2
300	1
311	1
312	1
313	5
314	2
327	2
328	1
353	6
354	5
355	3
356	1
369	6
370	4
371	2
396	11
397	83
398	54
399	17
400	4
411	2
412	26
413	17
414	5
415	1
