Mass spectrum: Dehydroisoandrosterone-3-sulfate; GC-EI-TOF; MS; n TMS; RT:922.099 sec
Name: Dehydroisoandrosterone-3-sulfate
Class: Natural Product
Formula: C19H28O5S
Exact mass: 368.16574
SMILES: OS(=O)(=O)OC(C4)CC(=C3)C(C)(C4)C(C2)C(C3)C(C1)C(C)(C2)C(=O)C1
InChI: InChI=1S/C19H28O5S/c1-18-9-7-13(24-25(21,22)23)11-12(18)3-4-14-15-5-6-17(20)19(15,2)10-8-16(14)18/h3,13-16H,4-11H2,1-2H3,(H,21,22,23)
Instrument: Pegasus III TOF-MS system, Leco; GC 6890, Agilent Technologies
Instrument type: GC-EI-TOF
Ms type: MS
Ion mode: POSITIVE
Column name: CP-SIL 8 CB LOW BLEED/MS
Retention time: 922.099  sec
m/z	relative intensity
85	48
86	18
87	31
88	13
89	70
90	31
91	999
92	195
93	295
94	121
95	80
96	83
97	26
98	27
99	19
100	25
101	13
102	36
103	131
104	82
105	609
106	168
107	229
108	145
109	99
110	59
111	16
112	21
113	44
114	16
115	293
116	110
117	296
118	96
119	155
120	126
121	131
122	72
123	22
124	31
125	12
126	86
127	104
128	252
129	258
130	106
131	234
132	86
133	102
134	89
135	36
136	32
137	11
138	68
139	64
140	39
141	141
142	78
143	176
144	73
145	169
146	86
147	66
148	51
149	34
150	15
151	22
152	60
153	59
154	40
155	108
156	45
157	122
158	52
159	89
160	76
161	44
162	45
163	14
164	24
165	54
166	29
167	44
168	29
169	72
170	34
171	42
172	24
173	16
174	26
175	8
176	23
177	10
178	59
179	35
180	22
181	42
182	30
183	53
184	29
185	28
186	17
187	13
188	24
189	9
190	14
191	13
192	25
193	23
194	16
195	57
196	34
197	47
198	25
199	26
200	11
201	3
202	11
203	3
204	5
205	3
206	11
207	11
208	8
209	34
210	27
211	156
212	90
213	26
214	6
215	1
216	1
218	2
219	2
220	4
221	8
222	8
223	9
224	19
225	13
226	12
227	4
228	2
229	2
230	2
235	44
236	26
237	24
238	17
239	10
240	9
241	3
242	3
244	1
247	1
250	2
251	27
252	73
253	36
254	13
255	2
256	2
257	1
258	1
266	7
267	14
268	520
269	166
270	39
271	7
280	2
282	1
283	1
284	66
285	25
286	3
287	1
288	1
291	1
292	1
298	14
299	221
300	71
301	11
302	1
304	1
335	1
338	1
393	1
395	2
424	1
