Mass spectrum: Glycerol; GC-EI-TOF; MS; n TMS; RT:422.243 sec
Name: Glycerol
Class: Natural Product
Formula: C3H8O3
Exact mass: 92.04734
SMILES: OCC(O)CO
InChI: InChI=1S/C3H8O3/c4-1-3(6)2-5/h3-6H,1-2H2
Instrument: Pegasus III TOF-MS system, Leco; GC 6890, Agilent Technologies
Instrument type: GC-EI-TOF
Ms type: MS
Ion mode: POSITIVE
Column name: CP-SIL 8 CB LOW BLEED/MS
Retention time: 422.243  sec
m/z	relative intensity
85	21
86	4
87	23
88	19
89	72
90	7
91	4
94	1
95	1
97	1
98	1
99	12
100	2
101	131
102	19
103	477
104	49
105	33
106	3
107	2
111	2
113	13
114	2
115	45
116	45
117	571
118	60
119	57
120	6
121	3
128	4
129	105
130	16
131	96
132	16
133	330
134	47
135	30
136	3
137	1
143	3
144	1
145	5
146	3
147	999
148	160
149	113
150	13
151	6
159	7
160	1
161	4
162	2
163	17
164	3
165	2
173	1
174	5
175	56
176	11
177	40
178	7
179	4
180	1
187	1
189	13
190	4
191	45
192	11
193	5
203	45
204	64
205	381
206	75
207	36
208	5
209	1
217	26
218	164
219	36
220	15
221	8
222	1
223	1
263	2
293	10
294	3
295	1
