Mass spectrum: DL-Homocysteine; GC-EI-TOF; MS; n TMS; RT:627.661 sec
Name: DL-Homocysteine
Class: Natural Product
Formula: C4H9NO2S
Exact mass: 135.03540
SMILES: SCCC(N)C(O)=O
InChI: InChI=1S/C4H9NO2S/c5-3(1-2-8)4(6)7/h3,8H,1-2,5H2,(H,6,7)
Instrument: Pegasus III TOF-MS system, Leco; GC 6890, Agilent Technologies
Instrument type: GC-EI-TOF
Ms type: MS
Ion mode: POSITIVE
Column name: CP-SIL 8 CB LOW BLEED/MS
Retention time: 627.661  sec
m/z	relative intensity
85	16
86	28
87	16
88	8
89	10
90	21
91	55
92	8
93	8
94	1
95	1
96	6
97	4
98	28
99	10
100	244
101	52
102	30
103	31
104	6
105	13
106	6
107	1
110	3
111	1
112	27
113	10
114	82
115	35
116	13
117	31
118	18
119	252
120	28
121	22
122	1
126	17
127	9
128	999
129	159
130	85
131	49
132	44
133	82
134	15
135	11
136	1
137	1
140	2
141	1
142	3
143	1
144	12
145	4
146	18
147	268
148	49
149	40
150	6
151	3
156	5
157	3
158	9
159	6
160	13
161	8
162	16
163	14
164	4
165	4
166	1
167	1
170	1
172	21
173	13
174	17
175	5
176	3
177	2
178	1
179	2
186	4
187	1
188	12
189	7
190	4
191	2
192	2
193	1
200	5
201	2
202	65
203	20
204	9
205	2
206	1
207	1
214	1
216	4
217	1
218	58
219	108
220	25
221	11
222	1
230	20
231	6
232	21
233	5
234	632
235	138
236	86
237	15
238	4
245	13
246	16
247	4
248	3
261	26
262	6
263	4
264	1
279	1
308	25
309	11
310	6
311	1
336	4
337	1
350	1
351	36
352	15
353	8
354	1
