Mass spectrum: L-Saccharopine; GC-EI-TOF; MS; n TMS; RT:927.031 sec
Name: L-Saccharopine
Class: Natural Product
Formula: C11H20N2O6
Exact mass: 276.13214
SMILES: OC(=O)CCC(NCCCCC(N)C(O)=O)C(O)=O
InChI: InChI=1S/C11H20N2O6/c12-7(10(16)17)3-1-2-6-13-8(11(18)19)4-5-9(14)15/h7-8,13H,1-6,12H2,(H,14,15)(H,16,17)(H,18,19)/t7-,8-/m0/s1
Instrument: Pegasus III TOF-MS system, Leco; GC 6890, Agilent Technologies
Instrument type: GC-EI-TOF
Ms type: MS
Ion mode: POSITIVE
Column name: CP-SIL 8 CB LOW BLEED/MS
Retention time: 927.031  sec
m/z	relative intensity
85	111
86	59
87	8
88	6
89	13
90	12
92	33
93	11
94	106
95	16
96	77
97	41
98	109
99	27
100	289
101	68
102	70
103	130
104	25
105	18
108	21
109	12
110	52
111	24
112	53
113	17
114	84
115	126
116	41
117	78
118	68
119	10
120	80
121	15
122	195
123	16
124	51
125	10
126	30
127	23
128	291
129	81
130	75
131	60
132	205
133	174
134	44
135	15
136	13
137	15
138	49
139	13
140	96
141	36
142	137
143	24
144	35
145	6
146	12
147	419
148	94
149	143
150	51
151	25
152	18
154	123
155	282
156	999
157	175
158	86
159	33
160	8
161	14
162	13
163	1
165	9
166	24
167	45
168	285
169	46
170	99
171	54
172	53
173	19
174	49
175	10
177	28
180	5
181	5
182	13
184	86
185	28
186	40
187	18
188	7
189	8
190	4
191	9
192	24
193	4
194	1
195	22
198	24
199	12
200	28
203	12
205	5
208	1
209	7
211	12
212	10
213	9
214	19
215	7
216	3
217	8
218	94
219	15
222	39
223	9
224	16
225	9
227	1
228	8
229	1
230	30
236	9
237	16
238	6
239	16
240	417
241	156
242	44
243	16
245	12
246	1
248	11
250	7
251	6
253	26
254	15
256	7
257	3
258	9
259	10
260	12
261	3
263	6
265	10
267	257
268	96
269	27
270	10
272	4
273	2
274	274
275	110
276	34
277	19
279	18
280	14
281	3
284	5
286	10
288	4
292	5
298	3
299	7
300	4
301	1
304	13
305	6
307	10
309	6
312	15
313	13
314	68
315	48
316	37
317	14
318	4
328	6
331	21
332	6
334	14
335	8
336	1
337	1
341	21
342	10
344	5
346	2
348	28
349	19
350	6
351	1
354	1
356	74
357	936
358	611
359	219
360	59
361	19
362	12
363	3
364	9
367	5
368	1
369	24
370	12
372	13
373	7
375	7
377	10
378	1
379	10
380	5
387	5
389	5
391	2
393	3
395	4
398	5
406	1
411	9
413	11
416	4
417	2
420	3
421	7
422	4
425	2
429	6
430	7
431	20
432	19
433	1
437	1
438	9
439	9
443	9
444	4
446	1
449	9
450	5
451	8
453	9
455	3
456	12
457	5
459	38
460	7
461	15
462	4
463	13
464	3
465	13
467	6
469	3
470	10
473	15
474	4
475	16
480	6
481	9
482	1
485	2
489	1
493	7
494	3
495	7
497	2
