Mass spectrum: L-Homocitrulline; GC-EI-TOF; MS; n TMS; RT:734.864 sec
Name: L-Homocitrulline
Class: Natural Product
Formula: C7H15N3O3
Exact mass: 189.11134
SMILES: NC(=O)NCCCCC(N)C(O)=O
InChI: InChI=1S/C7H15N3O3/c8-5(6(11)12)3-1-2-4-10-7(9)13/h5H,1-4,8H2,(H,11,12)(H3,9,10,13)/t5-/m0/s1
Instrument: Pegasus III TOF-MS system, Leco; GC 6890, Agilent Technologies
Instrument type: GC-EI-TOF
Ms type: MS
Ion mode: POSITIVE
Column name: CP-SIL 8 CB LOW BLEED/MS
Retention time: 734.864  sec
m/z	relative intensity
85	53
86	33
87	4
88	4
89	4
90	1
97	14
98	33
99	116
100	130
101	25
102	36
103	20
109	6
110	2
111	2
112	21
113	8
114	33
115	37
116	29
117	13
125	4
126	12
127	24
128	99
129	17
130	18
131	21
132	18
133	37
134	5
135	1
136	1
137	1
139	4
140	4
141	9
142	5
147	87
148	16
149	7
153	14
154	20
155	138
156	55
157	20
158	28
159	3
166	1
167	2
168	8
169	32
170	33
171	999
172	176
173	53
181	4
182	7
183	3
184	5
186	4
187	1
192	2
200	2
206	1
218	27
219	3
227	1
229	2
245	6
254	3
258	1
266	2
269	1
270	99
271	22
272	4
281	1
282	5
283	1
333	1
344	1
363	1
372	2
373	1
387	10
388	5
400	1
420	1
424	1
434	2
440	1
459	2
497	2
