Mass spectrum: DL-Norvaline; GC-EI-TOF; MS; n TMS; RT:404.641 sec
Name: DL-Norvaline
Class: Natural Product
Formula: C5H11NO2
Exact mass: 117.07898
SMILES: CC(C)C(N)C(O)=O
InChI: InChI=1S/C5H11NO2/c1-3(2)4(6)5(7)8/h3-4H,6H2,1-2H3,(H,7,8)
Instrument: Pegasus III TOF-MS system, Leco; GC 6890, Agilent Technologies
Instrument type: GC-EI-TOF
Ms type: MS
Ion mode: POSITIVE
Column name: CP-SIL 8 CB LOW BLEED/MS
Retention time: 404.641  sec
m/z	relative intensity
85	11
86	20
87	10
88	5
89	3
94	3
95	1
96	2
97	2
98	10
99	7
100	83
101	16
102	25
103	34
104	4
105	7
107	1
110	2
111	1
112	4
113	3
114	25
115	24
116	8
117	19
118	4
119	7
120	1
126	1
128	21
129	9
130	15
131	21
132	17
133	37
134	7
135	3
142	7
143	3
144	999
145	138
146	49
147	178
148	30
149	17
150	2
156	21
157	5
158	9
159	3
160	2
163	1
172	3
174	5
175	1
202	5
203	2
204	1
218	63
219	18
220	7
221	1
246	11
247	2
