Mass spectrum: Allantoin; GC-EI-TOF; MS; n TMS; RT:722.293 sec
Name: Allantoin
Class: Natural Product
Formula: C4H6N4O3
Exact mass: 158.04399
SMILES: NC(=O)NC(N1)C(=O)NC(=O)1
InChI: InChI=1S/C4H6N4O3/c5-3(10)6-1-2(9)8-4(11)7-1/h1H,(H3,5,6,10)(H2,7,8,9,11)
Instrument: Pegasus III TOF-MS system, Leco; GC 6890, Agilent Technologies
Instrument type: GC-EI-TOF
Ms type: MS
Ion mode: POSITIVE
Column name: CP-SIL 8 CB LOW BLEED/MS
Retention time: 722.293  sec
m/z	relative intensity
85	58
86	109
87	40
88	9
89	21
90	9
91	2
93	7
96	4
97	3
98	15
99	193
100	999
101	153
102	98
103	34
104	9
105	3
106	2
107	5
110	2
111	11
112	2
113	19
114	33
115	84
116	154
117	79
118	19
119	6
122	1
123	1
125	3
126	9
127	30
128	11
129	20
130	178
131	152
132	131
133	91
134	24
135	4
137	1
139	2
140	3
141	18
142	20
143	56
144	23
145	9
146	153
147	623
148	124
149	58
150	3
151	2
154	5
155	27
156	6
157	82
158	63
159	43
160	21
161	9
162	2
168	7
169	2
170	7
171	151
172	82
173	171
174	121
175	33
176	14
182	3
185	7
186	21
187	270
188	352
189	209
190	62
191	18
192	5
197	3
198	11
199	17
200	37
201	158
202	48
203	21
204	33
205	6
206	1
213	2
214	12
215	24
216	9
217	14
218	1
228	18
229	6
230	8
231	10
238	1
240	1
241	5
242	15
243	149
244	33
245	52
246	22
247	7
250	1
256	2
257	6
258	32
259	47
260	18
261	65
262	21
263	6
264	9
267	1
269	1
270	2
274	1
277	1
278	3
284	1
285	6
286	3
288	8
294	1
302	9
303	3
311	1
314	6
315	9
316	60
317	20
318	6
319	2
326	1
330	48
331	386
332	155
333	74
334	14
335	1
338	1
339	1
356	24
357	36
358	17
359	8
360	3
369	1
370	1
371	1
374	3
379	2
387	1
389	1
401	1
410	1
417	1
430	9
431	80
432	40
433	23
434	6
435	3
437	3
445	6
446	56
447	37
448	17
449	6
451	1
470	2
486	2
488	1
490	2
497	3
499	1
500	2
