Mass spectrum: 2-Aminoadipic acid; GC-EI-TOF; MS; n TMS; RT:649.043 sec
Name: 2-Aminoadipic acid
Class: Natural Product
Formula: C6H11NO4
Exact mass: 161.06881
SMILES: OC(=O)CCC[C@H](N)C(O)=O
InChI: InChI=1S/C6H11NO4/c7-4(6(10)11)2-1-3-5(8)9/h4H,1-3,7H2,(H,8,9)(H,10,11)/t4-/m0/s1
Instrument: Pegasus III TOF-MS system, Leco; GC 6890, Agilent Technologies
Instrument type: GC-EI-TOF
Ms type: MS
Ion mode: POSITIVE
Column name: CP-SIL 8 CB LOW BLEED/MS
Retention time: 649.043  sec
m/z	relative intensity
85	67
86	56
87	61
88	33
89	57
90	3
91	8
92	2
93	3
96	38
97	16
98	187
99	57
100	449
101	53
102	51
103	340
104	82
105	59
106	20
107	1
108	41
109	16
110	6
111	5
112	23
113	31
114	53
115	262
116	109
117	276
118	51
119	26
120	6
121	5
124	3
126	16
127	10
128	679
129	781
130	186
131	223
132	85
133	257
134	71
135	40
136	11
137	4
138	9
139	4
140	4
141	14
142	45
143	16
144	19
145	34
146	23
147	561
148	203
149	185
150	35
151	9
152	8
153	8
154	86
155	27
156	41
157	36
158	26
159	19
160	9
161	12
163	41
164	6
165	6
166	1
167	2
168	14
169	8
170	122
171	32
172	59
173	22
174	45
175	26
176	11
177	1
178	12
181	9
182	31
183	6
184	3
185	8
186	8
187	2
188	47
189	182
190	60
191	89
192	23
193	17
194	2
195	7
197	5
198	6
200	9
201	6
202	35
203	82
204	83
205	209
206	106
207	61
208	13
212	2
213	8
216	20
217	999
218	413
219	187
220	56
221	42
222	2
223	10
224	1
226	8
228	22
229	5
230	16
231	3
232	6
233	1
234	10
235	1
236	2
237	4
238	5
239	1
240	1
241	10
242	15
243	28
244	194
245	53
246	29
247	12
248	2
249	1
252	5
253	2
254	1
256	2
257	1
259	11
260	847
261	213
262	86
263	17
264	5
265	4
266	8
270	3
272	74
273	20
274	8
275	3
277	20
278	17
279	1
280	3
284	2
286	4
287	3
288	18
290	6
291	29
292	2
293	8
294	2
303	4
305	15
306	19
307	4
308	15
309	15
310	8
318	12
320	13
321	17
322	15
323	3
324	1
325	1
331	3
334	17
336	6
362	39
363	19
364	10
365	6
366	2
368	4
376	2
377	14
378	9
379	4
381	2
389	1
397	3
398	2
407	3
409	5
411	2
413	1
421	1
423	2
425	3
426	4
446	1
491	1
498	1
