Mass spectrum: N-alpha-Acetyl-L-Lysine; GC-EI-TOF; MS; n TMS; RT:811.065 sec
Name: N-a-Acetyl-L-Lysine
Name: N-alpha-Acetyl-L-Lysine
Class: Natural Product
Formula: C8H16N2O3
Exact mass: 188.11609
SMILES: NCCCCC(NC(C)=O)C(O)=O
InChI: InChI=1S/C8H16N2O3/c1-6(11)10-7(8(12)13)4-2-3-5-9/h7H,2-5,9H2,1H3,(H,10,11)(H,12,13)/t7-/m0/s1
Instrument: Pegasus III TOF-MS system, Leco; GC 6890, Agilent Technologies
Instrument type: GC-EI-TOF
Ms type: MS
Ion mode: POSITIVE
Column name: CP-SIL 8 CB LOW BLEED/MS
Retention time: 811.065  sec
m/z	relative intensity
85	19
86	205
87	27
88	23
89	5
90	1
91	1
92	1
93	2
94	7
95	6
96	15
97	5
98	46
99	14
100	115
101	21
102	31
103	10
104	4
105	1
108	9
109	2
110	5
111	3
112	19
113	9
114	19
115	12
116	46
117	28
118	10
119	6
120	1
123	2
124	3
125	2
126	12
127	3
128	21
129	22
130	59
131	35
132	16
133	26
134	6
135	5
136	2
137	1
138	1
139	1
140	6
141	3
142	19
143	7
144	12
145	6
146	22
147	68
148	14
149	14
150	3
151	2
152	3
153	2
154	5
155	4
156	72
157	14
158	21
159	8
160	5
161	1
166	3
167	1
168	4
169	5
170	5
171	3
172	18
173	6
174	999
175	185
176	84
177	11
178	2
182	5
183	1
184	7
185	3
186	40
187	8
188	6
189	1
190	5
191	1
192	1
197	1
198	13
199	3
200	19
201	4
202	3
204	2
205	1
213	3
214	4
215	1
216	8
217	2
221	3
225	2
226	2
228	19
229	4
230	3
231	1
242	6
243	1
257	1
258	1
261	2
272	1
278	7
279	2
280	1
287	1
288	1
299	1
300	1
301	1
303	8
304	2
315	1
331	7
332	3
333	1
388	1
389	14
390	7
391	3
392	1
404	3
405	2
