Mass spectrum: Glycine; GC-EI-QQ; MS; 2 TBDMS; RT:578.64 sec
Name: Glycine
Class: Natural Product
Formula: C2H5NO2
Exact mass: 75.03203
SMILES: NCC(O)=O
InChI: InChI=1S/C2H5NO2/c3-1-2(4)5/h1,3H2,(H,4,5)
Instrument: Agilent 7000B QqQMS, Agilent; Agilent 7891A series GC system, Agilent Technologies
Instrument type: GC-EI-QQ
Ms type: MS
Ion mode: POSITIVE
Column name: CP-SIL 8 CB LOW BLEED/MS
Retention time: 578.64 sec
Derivative form: C14H33NO2Si2
Derivative mass: 303.20498
Derivative type: 2 TBDMS
m/z	relative intensity
51	1
52	2
53	1
55	3
56	8
57	16
58	19
59	52
60	7
61	6
66	14
67	3
69	1
70	2
71	3
73	622
74	56
75	84
76	6
77	6
78	1
79	6
81	18
83	2
84	2
85	12
86	31
87	24
88	68
89	8
90	3
91	2
94	13
97	2
98	1
99	12
100	11
101	6
102	6
103	80
104	23
105	9
106	1
112	1
113	3
114	5
115	39
116	11
117	33
118	16
119	24
120	4
121	2
128	11
129	3
130	6
131	18
132	36
133	76
134	14
135	8
142	3
144	176
145	31
147	999
148	160
149	78
150	8
151	3
156	2
157	1
158	3
159	8
160	12
161	3
162	6
163	1
172	1
173	3
174	12
175	8
176	2
189	117
190	25
191	10
192	2
200	2
202	3
204	2
207	2
216	7
218	642
219	126
220	56
221	7
222	2
231	6
232	1
244	1
246	521
247	112
248	46
249	7
250	2
260	12
261	3
262	1
288	19
289	5
290	2
