Mass spectrum: L-Theanine; GC-EI-TOF; MS; n TMS; RT:681.829 sec
Name: L-Theanine
Class: Natural Product
Formula: C12H17NS
Exact mass: 207.10817
SMILES: C(C2)CN(C2)CCSc(c1)cccc1
InChI: InChI=1S/C12H17NS/c1-2-6-12(7-3-1)14-11-10-13-8-4-5-9-13/h1-3,6-7H,4-5,8-11H2
Instrument: Pegasus III TOF-MS system, Leco; GC 6890, Agilent Technologies
Instrument type: GC-EI-TOF
Ms type: MS
Ion mode: POSITIVE
Column name: CP-SIL 8 CB LOW BLEED/MS
Retention time: 681.829  sec
m/z	relative intensity
85	26
86	48
87	45
88	13
89	8
90	2
91	2
92	3
93	6
94	28
95	9
96	13
97	7
98	30
99	22
100	146
101	112
102	98
103	36
104	10
105	5
106	1
108	3
109	7
110	10
111	999
112	125
113	21
114	95
115	36
116	37
117	32
118	13
119	9
120	3
124	3
125	1
126	8
127	12
128	125
129	59
130	35
131	47
132	35
133	60
134	10
135	7
136	1
138	2
139	7
140	24
141	6
142	59
143	26
144	43
145	13
146	8
147	156
148	30
149	24
150	1
151	2
152	2
153	3
154	8
155	7
156	405
157	73
158	50
159	207
160	37
161	14
162	2
163	3
165	1
166	2
167	6
168	15
169	5
170	5
171	2
172	14
173	18
174	8
175	1
176	2
178	1
179	1
181	1
182	1
183	17
184	45
185	35
186	13
187	2
188	6
190	1
191	1
193	1
194	1
196	1
197	1
198	1
199	3
200	27
201	695
202	123
203	43
204	17
205	4
208	1
211	1
213	31
214	12
215	3
216	3
217	1
218	29
219	6
220	2
223	1
228	5
229	20
230	18
231	5
232	11
233	3
244	1
245	2
246	1
257	46
258	20
259	9
260	2
272	1
273	3
274	4
275	11
276	2
282	1
285	1
286	1
301	1
303	9
304	3
317	1
318	14
319	4
320	1
379	1
385	1
488	1
