Mass spectrum: D-Glucuronic acid; GC-EI-TOF; MS; n TMS; RT:739.694 sec
Name: D-Glucuronate
Name: D-Glucuronic acid
Class: Natural Product
Formula: C6H10O7
Exact mass: 194.04265
SMILES: OC(=O)[C@@H](O1)[C@@H](O)[C@H](O)[C@@H](O)C(O)1
InChI: InChI=1S/C6H10O7/c7-1-2(8)4(5(10)11)13-6(12)3(1)9/h1-4,6-9,12H,(H,10,11)/t1-,2-,3+,4-,6?/m0/s1
Instrument: Pegasus III TOF-MS system, Leco; GC 6890, Agilent Technologies
Instrument type: GC-EI-TOF
Ms type: MS
Ion mode: POSITIVE
Column name: CP-SIL 8 CB LOW BLEED/MS
Retention time: 739.694  sec
m/z	relative intensity
85	25
86	28
87	24
88	11
89	223
90	22
91	12
92	3
93	2
94	2
95	2
96	2
97	4
98	7
99	31
100	49
101	50
102	65
103	144
104	20
105	117
106	13
107	5
108	1
109	1
110	4
111	9
112	10
113	16
114	47
115	37
116	27
117	51
118	9
119	27
120	4
121	3
122	1
123	1
124	1
125	2
126	10
127	20
128	23
129	96
130	54
131	114
132	28
133	236
134	38
135	24
136	3
137	1
138	2
139	2
140	4
141	7
142	22
143	255
144	39
145	33
146	8
147	981
148	162
149	108
150	14
151	9
152	6
153	2
154	4
155	4
156	6
157	14
158	24
159	14
160	999
161	145
162	51
163	42
164	7
165	4
166	3
167	1
168	8
169	4
170	7
171	98
172	28
173	24
174	14
175	19
176	4
177	11
178	2
179	1
180	1
181	1
182	5
183	3
184	2
185	4
186	9
187	5
188	5
189	196
190	55
191	83
192	20
193	11
194	3
195	1
196	1
198	4
199	2
200	6
201	7
202	4
203	11
204	96
205	33
206	13
207	29
208	7
209	4
210	6
211	1
212	1
213	2
214	5
215	14
216	40
217	154
218	40
219	89
220	24
221	60
222	18
223	9
224	3
225	1
226	3
227	2
228	8
229	9
230	10
231	35
232	18
233	14
234	11
235	4
236	2
237	2
238	1
239	1
240	7
241	5
242	6
243	6
244	7
245	25
246	16
247	9
248	5
249	3
250	2
251	1
252	1
253	1
254	2
255	2
256	14
257	10
258	4
259	2
260	2
261	5
262	13
263	10
264	4
265	4
266	2
267	1
268	2
269	2
270	1
271	1
272	3
273	3
274	45
275	23
276	9
277	30
278	19
279	11
280	3
281	1
282	2
283	1
284	2
285	1
286	2
287	1
288	2
289	2
290	2
291	23
292	50
293	29
294	13
295	4
300	1
302	3
303	4
304	5
305	70
306	54
307	26
308	10
309	2
314	30
315	18
316	6
317	3
318	8
319	9
320	6
321	6
322	3
323	1
325	1
328	1
329	1
330	2
331	4
332	25
333	765
334	404
335	175
336	57
337	16
338	3
339	1
344	1
345	7
346	5
347	5
348	3
349	1
350	1
351	3
352	1
353	1
360	1
361	4
362	3
363	4
364	59
365	42
366	18
367	8
368	2
369	1
374	1
376	2
377	1
378	1
379	3
380	2
381	1
388	10
389	8
390	3
391	1
392	1
393	12
394	10
395	7
396	3
404	2
405	1
406	1
408	1
409	1
418	1
419	5
420	5
421	3
422	5
423	34
424	30
425	13
426	5
427	1
435	1
447	1
450	1
451	1
452	1
478	2
479	1
