Mass spectrum: Lignoceric acid; GC-EI-TOF; MS; n TMS; RT:1043.988 sec
Name: Lignoceric acid
Class: Natural Product
Formula: C24H48O2
Exact mass: 368.36543
SMILES: CCCCCCCCCCCCCCCCCCCCCCCC(O)=O
InChI: InChI=1S/C24H48O2/c1-2-3-4-5-6-7-8-9-10-11-12-13-14-15-16-17-18-19-20-21-22-23-24(25)26/h2-23H2,1H3,(H,25,26)
Instrument: Pegasus III TOF-MS system, Leco; GC 6890, Agilent Technologies
Instrument type: GC-EI-TOF
Ms type: MS
Ion mode: POSITIVE
Column name: CP-SIL 8 CB LOW BLEED/MS
Retention time: 1043.988  sec
m/z	relative intensity
85	53
86	11
87	10
88	5
89	30
90	5
91	12
92	2
93	23
94	4
95	68
96	14
97	86
98	60
99	28
100	4
101	12
102	4
103	6
105	22
106	2
107	14
108	2
109	27
110	5
111	42
112	16
113	8
114	2
115	11
116	59
117	999
118	111
119	44
120	3
121	16
122	2
123	11
124	3
125	12
126	5
127	7
128	5
129	475
130	73
131	132
132	566
133	162
134	34
135	18
136	3
137	5
138	1
139	5
140	3
141	4
142	3
143	47
144	8
145	356
146	49
147	18
148	1
149	6
150	1
151	1
153	4
154	6
155	5
156	1
157	9
158	2
159	28
160	5
161	1
163	2
165	1
167	2
168	2
169	2
171	22
172	6
173	7
174	6
175	1
177	1
181	1
185	38
186	11
187	26
188	11
189	2
199	7
200	1
201	71
202	13
203	4
213	6
214	1
215	6
216	1
227	8
228	2
229	4
230	1
241	8
242	2
243	9
244	3
255	5
256	1
257	10
258	3
269	5
270	1
271	2
272	1
283	4
284	1
285	3
286	1
297	3
298	1
299	3
300	1
311	2
312	1
313	2
325	2
326	1
327	1
339	1
340	1
341	4
342	1
355	2
356	1
381	5
382	5
383	3
384	1
396	1
397	5
398	5
399	3
400	1
424	13
425	71
426	50
427	17
428	4
439	3
440	29
441	20
442	7
443	1
