Mass spectrum: Uridine; GC-EI-TOF; MS; n TMS; RT:930.644 sec
Name: Uridine
Class: Natural Product
Formula: C9H12N2O6
Exact mass: 244.06954
SMILES: OC[C@@H](O1)[C@@H](O)[C@@H](O)[C@@H]1N(C=2)C(=O)NC(=O)C2
InChI: InChI=1S/C9H12N2O6/c12-3-4-6(14)7(15)8(17-4)11-2-1-5(13)10-9(11)16/h1-2,4,6-8,12,14-15H,3H2,(H,10,13,16)/t4-,6-,7-,8-/m1/s1
Instrument: Pegasus III TOF-MS system, Leco; GC 6890, Agilent Technologies
Instrument type: GC-EI-TOF
Ms type: MS
Ion mode: POSITIVE
Column name: CP-SIL 8 CB LOW BLEED/MS
Retention time: 930.644  sec
m/z	relative intensity
85	53
86	13
87	23
88	10
89	68
90	5
91	3
92	7
93	5
94	9
95	25
96	31
97	57
98	23
99	186
100	49
101	124
102	33
103	538
104	66
105	35
106	4
107	1
108	5
110	11
111	41
112	23
113	68
114	15
115	131
116	39
117	112
118	11
119	34
120	6
121	3
123	1
124	18
125	22
126	41
127	31
128	19
129	246
130	35
131	96
132	19
133	219
134	32
135	22
136	11
137	8
138	15
139	1
140	30
141	23
142	24
143	110
144	14
145	34
146	7
147	478
148	149
149	115
150	17
151	9
152	4
153	46
154	16
155	23
156	17
157	33
158	11
159	17
160	3
161	2
163	15
164	2
165	4
167	6
168	39
169	412
170	68
171	60
172	6
173	9
174	6
175	2
177	6
179	6
181	5
182	3
183	43
184	10
185	100
186	17
187	5
189	53
190	11
191	134
192	18
193	6
196	10
197	5
200	3
201	2
202	1
203	23
204	28
205	9
206	3
207	3
211	35
212	10
213	85
214	9
215	52
216	18
217	999
218	255
219	115
220	24
221	8
222	3
225	2
226	16
227	8
228	1
229	18
230	60
231	43
232	14
234	5
239	7
240	2
241	14
242	4
243	138
244	26
245	62
246	8
249	3
250	3
252	1
255	3
257	19
258	13
259	212
260	43
261	24
262	2
265	38
267	20
268	3
271	8
272	2
277	1
280	7
281	3
282	2
283	2
285	1
289	4
290	1
299	39
300	8
301	3
302	1
315	28
316	2
317	8
318	8
323	3
329	2
332	4
333	9
334	1
338	3
341	5
342	1
346	2
347	2
348	3
349	5
350	7
352	1
354	6
357	3
358	2
362	1
371	2
372	1
374	4
383	2
395	1
408	2
422	4
432	1
434	1
444	2
445	7
446	7
448	2
465	2
468	2
471	1
482	1
491	1
495	2
496	4
