Mass spectrum: DL-3,4-Dihydroxymandelic acid; GC-EI-TOF; MS; n TMS; RT:735.394 sec
Name: DL-3,4-Dihydroxymandelic acid
Class: Natural Product
Formula: C8H8O5
Exact mass: 184.03717
SMILES: OC(=O)C(O)c(c1)cc(O)c(O)c1
InChI: InChI=1S/C8H8O5/c9-5-2-1-4(3-6(5)10)7(11)8(12)13/h1-3,7,9-11H,(H,12,13)
Instrument: Pegasus III TOF-MS system, Leco; GC 6890, Agilent Technologies
Instrument type: GC-EI-TOF
Ms type: MS
Ion mode: POSITIVE
Column name: CP-SIL 8 CB LOW BLEED/MS
Retention time: 735.394  sec
m/z	relative intensity
85	5
86	1
87	10
88	2
89	10
90	5
91	24
92	5
93	7
94	1
95	4
97	1
99	3
101	5
102	6
103	24
104	7
105	25
106	2
107	4
109	3
111	1
113	2
115	19
116	5
117	30
118	7
119	20
120	4
121	6
122	1
123	1
127	1
128	1
129	5
130	1
131	64
132	11
133	83
134	12
135	32
136	6
137	12
138	1
140	1
143	3
145	7
146	4
147	459
148	75
149	53
150	9
151	8
152	1
157	1
159	3
160	1
161	12
162	5
163	12
164	4
165	16
166	4
167	3
173	1
174	1
175	5
176	3
177	23
178	24
179	31
180	7
181	5
182	1
183	1
189	4
190	3
191	19
192	14
193	91
194	17
195	12
196	3
197	1
203	2
204	1
205	5
206	21
207	21
208	6
209	10
210	3
211	1
217	1
219	8
220	2
221	13
222	4
223	15
224	5
225	2
233	3
234	1
235	9
236	4
237	18
238	4
239	3
240	1
249	6
250	2
251	46
252	13
253	9
254	3
263	1
264	4
265	31
266	10
267	73
268	23
269	10
270	2
279	6
280	5
281	47
282	16
283	7
284	2
292	1
293	1
294	8
295	57
296	15
297	7
298	1
307	1
309	2
310	1
311	2
323	1
324	1
325	7
326	3
327	1
339	11
340	7
341	9
342	3
352	1
353	15
354	60
355	999
356	374
357	171
358	44
359	11
360	2
368	1
369	3
381	3
382	1
383	2
384	4
385	1
428	5
429	35
430	24
431	12
432	4
433	1
456	1
457	13
458	8
459	3
460	1
471	1
472	8
473	5
474	2
