Mass spectrum: Icosanoic acid; GC-EI-TOF; MS; n TMS; RT:926.071 sec
Name: Icosanoic acid
Class: Natural Product
Formula: C20H40O2
Exact mass: 312.30283
SMILES: CCCCCCCCCCCCCCCCCCCC(O)=O
InChI: InChI=1S/C20H40O2/c1-2-3-4-5-6-7-8-9-10-11-12-13-14-15-16-17-18-19-20(21)22/h2-19H2,1H3,(H,21,22)
Instrument: Pegasus III TOF-MS system, Leco; GC 6890, Agilent Technologies
Instrument type: GC-EI-TOF
Ms type: MS
Ion mode: POSITIVE
Column name: CP-SIL 8 CB LOW BLEED/MS
Retention time: 926.071  sec
m/z	relative intensity
85	35
86	10
87	11
88	7
89	31
90	4
91	11
92	2
93	21
94	3
95	55
96	10
97	61
98	47
99	25
100	4
101	14
102	4
103	5
105	25
106	2
107	12
108	2
109	20
110	4
111	30
112	12
113	6
114	2
115	10
116	65
117	999
118	105
119	45
120	3
121	12
122	2
123	9
124	3
125	9
126	4
127	6
128	5
129	482
130	68
131	149
132	526
133	127
134	30
135	13
136	2
137	3
138	1
139	4
140	3
141	4
142	3
143	45
144	7
145	298
146	41
147	15
148	1
149	4
151	1
153	3
154	5
155	5
156	1
157	10
158	2
159	27
160	5
161	1
163	1
167	2
168	2
169	1
171	22
172	5
173	7
174	5
181	1
182	1
183	1
185	35
186	9
187	24
188	9
189	2
195	1
196	1
199	8
200	1
201	60
202	11
203	3
209	1
213	7
214	1
215	6
216	1
227	9
228	2
229	6
230	1
238	1
241	8
242	2
243	10
244	3
251	1
255	5
256	1
257	8
258	2
269	5
270	1
271	3
272	1
283	4
284	1
285	7
286	2
297	1
299	5
300	1
311	1
313	2
325	8
326	5
327	3
328	1
339	1
340	1
341	9
342	4
343	3
355	1
368	10
369	117
370	54
371	15
372	3
383	1
384	29
385	14
386	4
