Mass spectrum: L-(-)-Sorbose; GC-EI-TOF; MS; n TMS; RT:713.865 sec
Name: L-(-)-Sorbose
Class: Natural Product
Formula: C6H12O6
Exact mass: 180.06339
SMILES: OCC(O)C(O)C(O)C(=O)CO
InChI: InChI=1S/C6H12O6/c7-1-3(9)5(11)6(12)4(10)2-8/h3,5-9,11-12H,1-2H2/t3-,5+,6+/m0/s1
Instrument: Pegasus III TOF-MS system, Leco; GC 6890, Agilent Technologies
Instrument type: GC-EI-TOF
Ms type: MS
Ion mode: POSITIVE
Column name: CP-SIL 8 CB LOW BLEED/MS
Retention time: 713.865  sec
m/z	relative intensity
85	27
86	13
87	21
88	17
89	206
90	19
91	8
92	1
93	1
94	2
95	1
96	2
97	2
98	6
99	10
100	28
101	48
102	15
103	999
104	99
105	65
106	5
107	2
108	1
109	1
110	3
111	5
112	2
113	18
114	137
115	31
116	21
117	146
118	18
119	27
120	3
121	1
124	3
125	1
126	6
127	6
128	9
129	105
130	22
131	53
132	10
133	136
134	19
135	12
136	1
138	1
140	3
141	4
142	13
143	21
144	5
145	11
146	3
147	493
148	79
149	55
150	7
151	4
152	2
153	1
154	2
155	2
156	6
157	21
158	7
159	6
160	2
161	4
162	1
163	19
164	4
165	2
166	2
167	1
168	5
169	2
170	6
171	2
172	18
173	37
174	12
175	16
176	4
177	6
178	1
179	1
180	4
181	1
182	2
183	1
184	1
185	1
186	3
187	3
188	5
189	72
190	19
191	43
192	8
193	4
194	1
196	4
197	1
198	6
199	1
200	4
201	16
202	16
203	10
204	40
205	55
206	14
207	10
208	2
209	1
214	5
215	3
216	8
217	568
218	125
219	55
220	9
221	15
222	4
223	2
228	2
229	5
230	5
231	13
232	4
233	2
240	3
241	1
242	2
243	2
244	6
245	3
246	1
247	1
254	1
255	1
256	4
257	1
258	1
260	1
261	1
262	26
263	17
264	5
265	3
266	1
268	2
269	1
270	3
271	1
272	1
274	1
275	2
276	4
277	35
278	15
279	7
280	2
281	1
286	1
288	2
289	1
291	5
292	1
293	1
300	2
302	1
303	1
304	1
305	4
306	4
307	169
308	51
309	25
310	5
311	1
318	2
319	7
320	3
321	1
330	1
332	1
333	3
334	5
335	10
336	8
337	3
338	1
344	1
350	3
351	1
359	1
363	1
364	20
365	8
366	4
367	1
376	1
390	2
391	1
464	1
465	1
466	1
