Mass spectrum: Allantoin; GC-EI-TOF; MS; n TMS; RT:728.893 sec
Name: Allantoin
Class: Natural Product
Formula: C4H6N4O3
Exact mass: 158.04399
SMILES: NC(=O)NC(N1)C(=O)NC(=O)1
InChI: InChI=1S/C4H6N4O3/c5-3(10)6-1-2(9)8-4(11)7-1/h1H,(H3,5,6,10)(H2,7,8,9,11)
Instrument: Pegasus III TOF-MS system, Leco; GC 6890, Agilent Technologies
Instrument type: GC-EI-TOF
Ms type: MS
Ion mode: POSITIVE
Column name: CP-SIL 8 CB LOW BLEED/MS
Retention time: 728.893  sec
m/z	relative intensity
85	39
86	58
87	5
88	7
92	1
93	21
94	15
98	9
99	86
100	741
101	100
102	52
103	5
104	12
105	11
108	4
109	1
111	13
114	15
115	20
116	80
117	47
118	19
119	1
125	1
128	2
130	102
131	144
132	62
133	78
134	9
137	8
138	6
141	34
142	22
143	6
144	2
146	40
147	558
148	73
149	34
151	15
153	2
154	4
155	11
157	42
158	38
159	19
160	8
163	21
168	1
169	7
170	11
171	130
172	140
173	70
174	98
175	11
178	14
184	14
186	18
187	24
188	999
189	266
190	111
191	15
199	17
200	4
201	7
202	31
204	9
206	9
214	20
215	24
221	7
225	22
230	3
231	4
240	22
242	5
243	89
244	16
245	71
246	24
250	8
257	1
259	9
266	15
268	4
270	2
271	10
273	19
275	9
284	4
291	5
299	2
303	3
311	7
315	18
316	8
317	14
318	5
321	4
325	8
326	8
328	7
329	2
330	29
331	48
332	32
333	4
334	19
348	1
356	22
357	26
358	12
362	8
364	1
384	4
388	21
397	7
398	16
402	2
403	75
404	30
405	30
406	1
408	3
410	1
428	117
429	68
430	22
431	4
434	5
441	4
446	7
449	12
451	4
453	5
470	5
473	1
492	3
