Mass spectrum: Malonic acid; GC-EI-TOF; MS; n TMS; RT:383.143 sec
Name: Malonic acid
Class: Natural Product
Formula: C3H4O4
Exact mass: 104.01096
SMILES: OC(=O)CC(O)=O
InChI: InChI=1S/C3H4O4/c4-2(5)1-3(6)7/h1H2,(H,4,5)(H,6,7)
Instrument: Pegasus III TOF-MS system, Leco; GC 6890, Agilent Technologies
Instrument type: GC-EI-TOF
Ms type: MS
Ion mode: POSITIVE
Column name: CP-SIL 8 CB LOW BLEED/MS
Retention time: 383.143  sec
m/z	relative intensity
85	3
86	2
87	18
88	9
89	6
90	1
91	1
92	1
93	3
95	1
98	1
99	47
100	5
101	22
102	6
103	13
104	2
105	8
109	15
110	1
113	2
115	15
116	10
117	19
118	3
119	5
130	1
131	36
132	7
133	48
134	7
135	4
143	26
144	3
145	2
146	2
147	999
148	161
149	90
150	10
151	2
159	1
162	1
173	4
189	5
190	1
204	1
217	6
218	1
233	48
234	10
235	4
248	7
249	1
