Mass spectrum: 2-Deoxyribose 5-phosphate; GC-EI-TOF; MS; n TMS; RT:774.5702191 sec
Name: 2'-Deoxyribose-5'-Phosphate
Name: 2-Deoxyribose 5-phosphate
Class: Natural Product
Formula: C5H11O7P
Exact mass: 214.02424
SMILES: OC(C1)O[C@H](COP(O)(O)=O)[C@@H](O)1
InChI: InChI=1S/C5H11O7P/c6-3-1-5(7)12-4(3)2-11-13(8,9)10/h3-7H,1-2H2,(H2,8,9,10)/t3-,4+,5?/m0/s1
Instrument: Pegasus III TOF-MS system, Leco; GC 6890, Agilent Technologies
Instrument type: GC-EI-TOF
Ms type: MS
Ion mode: POSITIVE
Column name: CP-SIL 8 CB LOW BLEED/MS
Retention time: 774.5702191 sec
m/z	relative intensity
85	62
86	57
87	68
88	7
89	389
90	33
91	47
92	1
93	7
94	27
95	6
96	63
97	13
98	42
99	65
100	39
101	999
102	129
103	268
104	26
105	190
106	26
107	34
108	8
109	13
110	425
111	46
112	16
113	31
114	17
115	119
116	517
117	155
118	21
119	60
120	9
121	35
123	13
124	4
126	120
127	109
128	79
129	462
130	67
131	143
132	17
133	563
134	79
135	184
136	19
137	52
139	10
140	36
141	19
142	277
143	132
144	38
145	26
146	1
147	664
148	113
149	87
150	14
151	46
152	46
153	16
154	17
155	8
156	9
157	4
158	68
159	19
161	3
163	32
165	20
167	12
168	293
169	70
170	28
171	18
172	26
173	581
174	179
175	37
177	13
178	11
179	12
180	6
181	89
182	12
183	33
184	31
185	9
186	32
188	5
189	11
190	4
191	54
192	11
193	82
194	14
195	77
196	22
197	34
198	46
199	25
200	112
201	11
202	23
203	7
204	3
205	2
207	139
208	26
209	7
210	4
211	528
212	119
213	56
214	13
215	6
216	9
217	251
218	35
219	9
221	4
222	7
225	105
226	18
227	232
228	42
229	22
232	6
241	11
242	24
243	114
244	21
245	4
253	21
254	1
255	7
256	9
257	1
258	18
259	8
260	7
261	1
263	2
264	1
266	3
269	10
270	1
274	1
276	3
283	33
284	6
285	50
286	14
290	1
298	18
299	711
300	343
301	145
302	34
311	1
313	16
314	48
315	899
316	322
317	158
318	22
319	7
320	1
322	1
327	1
330	10
332	7
338	1
340	4
341	36
342	10
349	4
354	3
356	23
357	393
358	158
359	61
360	10
362	7
364	1
366	1
369	5
370	1
373	8
374	3
380	4
386	4
387	51
388	25
389	17
390	14
417	1
418	1
423	4
456	1
459	1
467	3
478	2
500	4
