Mass spectrum: Glyceric acid; GC-EI-TOF; MS; n TMS; RT:455.644 sec
Name: Glyceric acid
Class: Natural Product
Formula: C3H6O4
Exact mass: 106.02661
SMILES: OC[C@@H](O)C(O)=O
InChI: InChI=1S/C3H6O4/c4-1-2(5)3(6)7/h2,4-5H,1H2,(H,6,7)/t2-/m1/s1
Instrument: Pegasus III TOF-MS system, Leco; GC 6890, Agilent Technologies
Instrument type: GC-EI-TOF
Ms type: MS
Ion mode: POSITIVE
Column name: CP-SIL 8 CB LOW BLEED/MS
Retention time: 455.644  sec
m/z	relative intensity
85	17
86	5
87	23
88	18
89	69
90	7
91	4
92	2
93	3
95	2
97	1
98	1
99	13
100	4
101	147
102	433
103	442
104	56
105	34
106	3
107	2
113	5
114	1
115	37
116	49
117	260
118	29
119	47
120	6
121	4
127	1
129	21
130	130
131	101
132	21
133	442
134	63
135	47
136	5
137	2
142	6
143	12
144	4
145	6
146	3
147	999
148	157
149	98
150	11
151	7
152	1
157	1
159	4
160	1
161	4
162	1
163	12
164	2
165	1
173	6
174	1
175	45
176	8
177	25
178	4
179	2
189	563
190	119
191	63
192	9
193	3
203	2
204	18
205	121
206	25
207	16
208	3
209	1
217	42
218	8
219	16
220	3
221	19
222	4
223	2
231	1
232	3
233	1
265	2
266	1
279	2
291	2
292	187
293	58
294	28
295	6
296	1
306	1
307	46
308	14
309	7
310	1
322	6
323	2
