Mass spectrum: (-)-Epicatechin; GC-EI-TOF; MS; n TMS; RT:1045.275 sec
Name: (-)-Epicatechin
Class: Natural Product
Formula: C15H14O6
Exact mass: 290.07904
SMILES: C1[C@H]([C@H](OC2=CC(=CC(=C21)O)O)C3=CC(=C(C=C3)O)O)O
InChI: InChI=1S/C15H14O6/c16-8-4-11(18)9-6-13(20)15(21-14(9)5-8)7-1-2-10(17)12(19)3-7/h1-5,13,15-20H,6H2/t13-,15-/m1/s1
Instrument: Pegasus III TOF-MS system, Leco; GC 6890, Agilent Technologies
Instrument type: GC-EI-TOF
Ms type: MS
Ion mode: POSITIVE
Column name: CP-SIL 8 CB LOW BLEED/MS
Retention time: 1045.275  sec
m/z	relative intensity
85	13
86	3
87	9
88	7
89	23
90	5
91	33
92	5
93	7
94	2
95	7
96	3
97	6
98	2
99	20
100	2
101	8
102	6
103	56
104	15
105	32
106	4
107	7
109	8
110	2
111	4
112	3
113	3
114	1
115	34
116	7
117	37
118	7
119	32
120	5
121	11
122	2
123	5
125	7
126	2
127	5
128	11
129	21
130	3
131	50
132	9
133	121
134	20
135	36
136	6
137	8
138	2
139	3
141	5
142	1
143	10
144	2
145	13
146	3
147	210
148	38
149	61
150	15
151	13
152	3
153	4
155	2
157	5
158	1
159	6
160	7
161	16
162	5
163	22
164	7
165	20
166	7
167	6
168	1
169	2
170	1
171	3
173	6
174	4
175	12
176	6
177	26
178	24
179	425
180	78
181	30
182	5
183	16
184	3
185	3
186	1
187	3
188	2
189	14
190	6
191	88
192	24
193	50
194	11
195	14
196	4
197	3
198	1
199	2
201	3
202	2
203	23
204	10
205	21
206	26
207	29
208	9
209	16
210	4
211	4
212	1
213	1
214	1
215	2
216	2
217	7
218	2
219	11
220	7
221	12
222	4
223	17
224	6
225	5
226	2
227	1
229	2
230	1
231	2
232	1
233	9
234	4
235	17
236	7
237	19
238	7
239	23
240	9
241	5
242	2
243	2
244	1
245	1
247	8
248	4
249	89
250	36
251	32
252	13
253	23
254	18
255	8
256	4
257	2
258	1
259	2
260	1
261	3
262	1
263	9
264	5
265	61
266	22
267	169
268	46
269	21
270	4
273	1
274	1
275	1
276	1
277	5
278	2
279	12
280	112
281	66
282	31
283	45
284	13
285	4
286	1
289	2
291	6
292	3
293	12
294	15
295	13
296	5
297	3
298	1
302	1
304	1
305	3
306	2
307	11
308	5
309	5
310	3
311	4
312	2
313	1
314	1
317	1
318	4
319	1
320	1
321	2
322	1
323	4
324	3
325	6
326	3
327	3
328	1
329	1
330	1
331	2
332	1
333	1
335	2
336	1
337	6
338	6
339	13
340	10
341	8
342	3
343	2
344	1
349	1
351	2
352	8
353	23
354	37
355	438
356	216
357	97
358	31
359	10
360	2
365	3
366	8
367	68
368	999
369	391
370	179
371	50
372	15
373	4
374	1
375	1
380	1
381	4
382	11
383	63
384	29
385	14
386	4
387	1
395	2
396	1
397	1
398	1
399	1
400	1
401	1
431	2
432	1
445	1
455	1
456	1
457	2
458	1
459	2
460	2
461	2
462	1
471	4
472	4
473	2
486	3
487	15
488	9
489	5
490	2
