Mass spectrum: Dihydroxyacetone; GC-EI-TOF; MS; n TMS; RT:411.145 sec
Name: Dihydroxyacetone
Class: Natural Product
Formula: C3H6O3
Exact mass: 90.03169
SMILES: OCC(=O)CO
InChI: InChI=1S/C3H6O3/c4-1-3(6)2-5/h4-5H,1-2H2
Instrument: Pegasus III TOF-MS system, Leco; GC 6890, Agilent Technologies
Instrument type: GC-EI-TOF
Ms type: MS
Ion mode: POSITIVE
Column name: CP-SIL 8 CB LOW BLEED/MS
Retention time: 411.145  sec
m/z	relative intensity
85	76
86	61
87	48
88	111
89	738
90	71
91	33
92	1
97	1
98	32
99	21
100	258
101	61
102	107
103	901
104	96
105	120
106	11
107	3
111	1
112	2
113	15
114	306
115	58
116	42
117	88
118	14
119	60
120	6
121	3
126	2
127	4
128	47
129	26
130	22
131	59
132	13
133	373
134	60
135	29
136	2
142	182
143	35
144	21
145	4
146	5
147	999
148	165
149	92
150	11
151	2
156	1
157	3
158	26
159	5
160	174
161	22
162	11
163	450
164	71
165	37
166	3
171	1
172	42
173	348
174	62
175	22
176	3
177	24
178	3
179	1
186	11
187	4
188	20
189	33
190	8
191	38
192	6
193	3
200	3
201	12
202	29
203	9
204	14
205	3
206	1
207	1
216	12
217	20
218	11
219	2
231	1
232	33
233	11
234	3
248	112
249	25
250	9
251	1
263	30
264	7
265	2
