Mass spectrum: 4-Hydroxyphenethyl alcohol; GC-EI-TOF; MS; n TMS; RT:587.367 sec
Name: 4-Hydroxyphenethyl alcohol
Class: Natural Product
Formula: C8H10O2
Exact mass: 138.06808
SMILES: OCCc(c1)ccc(O)c1
InChI: InChI=1S/C8H10O2/c9-6-5-7-1-3-8(10)4-2-7/h1-4,9-10H,5-6H2
Instrument: Pegasus III TOF-MS system, Leco; GC 6890, Agilent Technologies
Instrument type: GC-EI-TOF
Ms type: MS
Ion mode: POSITIVE
Column name: CP-SIL 8 CB LOW BLEED/MS
Retention time: 587.367  sec
m/z	relative intensity
85	8
86	1
87	6
88	8
89	28
90	16
91	49
92	5
93	4
95	9
96	2
97	2
98	1
99	2
101	3
102	7
103	168
104	25
105	25
106	3
107	7
108	1
109	5
110	1
111	3
115	22
116	5
117	31
118	4
119	12
120	3
121	12
122	1
123	4
124	1
126	34
127	4
128	1
129	1
131	9
132	2
133	17
134	5
135	27
136	4
137	5
138	1
143	2
145	6
146	2
147	45
148	10
149	53
150	11
151	25
152	5
153	1
159	1
161	21
162	5
163	32
164	17
165	5
166	2
175	6
176	2
177	36
178	8
179	999
180	152
181	43
182	4
189	1
191	5
192	17
193	95
194	17
195	5
207	1
209	1
221	1
235	1
249	4
250	2
251	1
252	2
267	57
268	17
269	6
270	1
280	1
281	1
282	76
283	21
284	8
285	1
