Mass spectrum: (-)-Epigallo catechin; GC-EI-TOF; MS; n TMS; RT:1063.329 sec
Name: Epigallocatechin
Name: (2R,3R)-2-(3,4,5-trihydroxyphenyl)-3,4-dihydro-2H-chromene-3,5,7-triol
Name: (-)-epigallocatechin
Name: (-)-Epigallo catechin
Class: Natural Product
Formula: C15H14O7
Exact mass: 306.07395
SMILES: C1[C@H]([C@H](OC2=CC(=CC(=C21)O)O)C3=CC(=C(C(=C3)O)O)O)O
InChI: InChI=1S/C15H14O7/c16-7-3-9(17)8-5-12(20)15(22-13(8)4-7)6-1-10(18)14(21)11(19)2-6/h1-4,12,15-21H,5H2/t12-,15-/m1/s1
Instrument: Pegasus III TOF-MS system, Leco; GC 6890, Agilent Technologies
Instrument type: GC-EI-TOF
Ms type: MS
Ion mode: POSITIVE
Column name: CP-SIL 8 CB LOW BLEED/MS
Retention time: 1063.329  sec
m/z	relative intensity
85	21
86	4
87	18
88	7
89	30
90	9
91	67
92	7
93	15
94	2
95	8
96	8
97	12
98	3
99	28
100	1
101	10
102	10
103	137
104	22
105	51
106	8
107	11
108	1
109	10
110	4
111	13
112	6
113	4
114	1
115	52
116	11
117	41
118	13
119	57
120	9
121	15
122	1
123	6
124	1
125	4
126	12
127	11
128	20
129	31
130	5
131	98
132	19
133	230
134	36
135	54
136	9
137	9
138	2
139	3
140	1
141	10
142	3
143	24
144	3
145	32
146	6
147	558
148	94
149	87
150	14
151	18
152	5
153	5
154	2
155	5
157	11
158	1
159	11
160	3
161	20
162	4
163	22
164	7
165	28
166	8
167	10
168	1
169	3
170	1
171	3
172	1
173	5
174	3
175	13
176	5
177	41
178	14
179	41
180	26
181	16
182	4
183	14
184	2
185	4
186	1
187	4
188	1
189	17
190	6
191	49
192	24
193	127
194	27
195	52
196	11
197	7
198	1
199	2
200	1
201	4
202	3
203	18
204	9
205	39
206	12
207	93
208	25
209	42
210	11
211	11
212	3
213	3
215	4
216	3
217	14
218	4
219	21
220	7
221	24
222	7
223	20
224	10
225	8
226	2
227	2
228	1
229	3
230	1
231	5
232	2
233	13
234	4
235	22
236	10
237	39
238	15
239	53
240	17
241	9
242	2
243	2
244	1
245	2
246	1
247	6
248	4
249	30
250	13
251	52
252	22
253	39
254	35
255	16
256	5
257	1
258	1
259	1
260	1
261	7
262	3
263	32
264	15
265	89
266	36
267	371
268	98
269	46
270	10
271	3
272	1
273	3
274	1
275	3
276	2
277	14
278	8
279	55
280	28
281	81
282	40
283	112
284	33
285	12
286	3
288	1
289	7
290	3
291	23
292	11
293	25
294	20
295	33
296	12
297	9
298	3
299	1
301	1
302	1
303	2
304	1
305	9
306	5
307	29
308	12
309	12
310	13
311	11
312	5
313	3
314	1
315	1
317	2
318	5
319	3
320	1
321	7
322	4
323	9
324	10
325	61
326	34
327	19
328	7
329	2
330	1
331	1
332	1
334	1
335	3
336	4
337	17
338	12
339	33
340	21
341	16
342	7
343	6
344	2
345	2
346	1
349	2
350	2
351	7
352	9
353	56
354	70
355	757
356	356
357	163
358	52
359	17
360	3
361	2
362	9
363	2
365	3
366	6
367	19
368	137
369	68
370	37
371	15
372	5
373	2
374	1
377	2
378	1
379	4
380	6
381	22
382	29
383	82
384	44
385	21
386	5
387	1
394	1
395	7
396	6
397	8
398	3
399	3
400	1
401	1
411	1
412	1
413	1
414	2
415	2
416	1
427	1
428	2
429	2
430	2
431	2
440	3
441	5
442	5
443	9
444	4
445	2
446	1
452	1
453	4
454	20
455	159
456	999
457	544
458	283
459	104
460	34
461	8
462	2
463	1
469	2
470	2
471	4
472	2
485	1
487	4
488	1
489	1
