Mass spectrum: L-Tyrosine; GC-EI-TOF; MS; n TMS; RT:745.562 sec
Name: L-Tyrosine
Class: Natural Product
Formula: C9H11NO3
Exact mass: 181.07389
SMILES: OC(=O)C(N)Cc(c1)ccc(O)c1
InChI: InChI=1S/C9H11NO3/c10-8(9(12)13)5-6-1-3-7(11)4-2-6/h1-4,8,11H,5,10H2,(H,12,13)/t8-/m0/s1
Instrument: Pegasus III TOF-MS system, Leco; GC 6890, Agilent Technologies
Instrument type: GC-EI-TOF
Ms type: MS
Ion mode: POSITIVE
Column name: CP-SIL 8 CB LOW BLEED/MS
Retention time: 745.562  sec
m/z	relative intensity
85	7
86	20
87	8
88	3
89	18
90	15
91	37
92	5
93	3
95	4
96	1
97	1
98	2
99	3
100	347
101	47
102	21
103	25
104	8
105	18
106	3
107	5
108	1
109	2
110	1
113	1
114	1
115	16
116	7
117	23
118	13
119	13
120	2
121	6
123	2
128	2
129	3
130	39
131	29
132	44
133	46
134	11
135	19
136	3
137	2
143	1
144	5
145	7
146	13
147	171
148	34
149	45
150	8
151	8
152	1
158	5
159	7
160	12
161	8
162	5
163	34
164	15
165	17
166	3
167	1
172	2
173	1
174	11
175	8
176	11
177	11
178	3
179	135
180	31
181	9
182	3
188	2
189	1
190	8
191	4
192	23
193	8
194	2
195	1
202	2
203	10
204	3
205	3
206	2
207	12
208	7
209	4
216	1
217	4
218	999
219	203
220	89
221	13
222	3
223	4
224	1
232	1
234	1
248	2
249	1
250	1
264	2
265	10
266	4
267	2
278	1
279	6
280	74
281	21
282	8
283	1
292	3
293	1
353	1
354	17
355	10
356	5
357	1
382	8
383	4
384	1
