Mass spectrum: L-Gulcono-1,4-lactone; GC-EI-TOF; MS; n TMS; RT:737.524 sec
Name: L-Gulcono-1,4-lactone
Class: Natural Product
Formula: C6H10O6
Exact mass: 178.04774
SMILES: OCC(O)C(O1)C(O)C(O)C(=O)1
InChI: InChI=1S/C6H10O6/c7-1-2(8)5-3(9)4(10)6(11)12-5/h2-5,7-10H,1H2
Instrument: Pegasus III TOF-MS system, Leco; GC 6890, Agilent Technologies
Instrument type: GC-EI-TOF
Ms type: MS
Ion mode: POSITIVE
Column name: CP-SIL 8 CB LOW BLEED/MS
Retention time: 737.524  sec
m/z	relative intensity
85	22
86	5
87	29
88	14
89	60
90	7
91	5
92	3
93	2
94	3
95	12
96	3
97	142
98	9
99	27
100	5
101	74
102	52
103	397
104	41
105	28
106	3
107	6
108	1
109	3
111	22
112	2
113	19
114	6
115	35
116	36
117	188
118	21
119	37
120	4
121	3
123	1
124	1
125	10
126	2
127	16
128	10
129	250
130	52
131	105
132	18
133	259
134	35
135	28
136	3
137	3
138	1
139	2
141	8
142	18
143	80
144	12
145	16
146	5
147	999
148	137
149	132
150	15
151	11
152	1
153	18
154	2
155	33
156	11
157	47
158	7
159	9
160	1
161	8
162	1
163	9
164	2
165	2
166	1
167	1
168	2
169	36
170	9
171	26
172	4
173	10
175	14
176	3
177	18
178	3
179	2
181	2
183	1
184	1
185	3
186	1
187	4
188	2
189	222
190	51
191	81
192	15
193	23
194	3
195	2
197	23
198	4
199	7
201	9
202	10
203	26
204	200
205	117
206	31
207	21
208	4
209	2
213	2
215	27
216	14
217	461
218	93
219	158
220	41
221	41
222	10
223	2
224	1
227	9
228	2
229	18
230	41
231	27
232	8
233	5
234	1
237	1
241	2
242	2
243	127
244	34
245	44
246	21
247	8
248	2
249	1
255	1
257	5
258	5
259	12
260	3
261	2
262	11
263	2
265	8
266	1
269	3
271	30
272	7
273	5
274	1
275	1
277	3
278	1
279	1
286	1
287	1
289	1
291	7
292	14
293	5
294	2
295	1
303	1
304	5
305	46
306	19
307	11
308	3
317	11
318	15
319	15
320	5
321	2
322	1
331	11
332	25
333	71
334	37
335	29
336	10
337	4
338	1
348	24
349	9
350	5
351	1
360	2
361	39
362	14
363	11
364	3
365	1
376	1
393	1
423	1
451	7
452	4
453	1
465	3
466	30
467	16
468	7
469	2
