Mass spectrum: D-Panose; GC-EI-TOF; MS; n TMS; RT:1289.380 sec
Name: D-Panose
Class: Natural Product
Formula: C18H32O16
Exact mass: 504.16903
SMILES: O=CC(O)C(O)C([H])(C(O)CO)OC(O1)C(O)C(O)C(O)C(COC(O2)C(O)C(O)C(O)C(CO)2)1
InChI: InChI=1S/C18H32O16/c19-1-5(22)9(24)16(6(23)2-20)34-18-15(30)13(28)11(26)8(33-18)4-31-17-14(29)12(27)10(25)7(3-21)32-17/h1,5-18,20-30H,2-4H2/t5-,6+,7+,8+,9+,10+,11+,12-,13-,14+,15+,16+,17-,18+/m0/s1
Instrument: Pegasus III TOF-MS system, Leco; GC 6890, Agilent Technologies
Instrument type: GC-EI-TOF
Ms type: MS
Ion mode: POSITIVE
Column name: CP-SIL 8 CB LOW BLEED/MS
Retention time: 1289.380  sec
m/z	relative intensity
87	10
89	72
91	1
97	15
99	4
100	39
101	18
102	7
103	537
104	56
105	19
109	11
110	2
113	23
116	15
117	224
118	11
124	1
126	2
129	454
130	33
131	51
133	144
134	1
135	8
139	3
141	6
142	6
143	78
145	24
147	641
148	75
149	54
155	26
157	91
158	6
159	6
160	62
161	24
163	14
169	205
170	37
171	6
173	12
177	3
183	15
186	2
189	104
190	13
191	141
192	4
193	9
203	26
204	999
205	336
206	111
207	17
208	9
215	10
216	2
217	428
218	122
219	48
221	8
224	5
229	3
231	31
232	23
233	36
243	100
244	17
245	17
259	9
268	2
271	93
272	23
273	9
281	19
282	2
303	2
305	15
306	8
317	2
318	11
319	43
331	3
332	4
349	3
351	1
355	3
360	13
361	377
362	170
363	66
370	1
371	4
388	7
413	3
415	4
448	2
460	1
462	1
470	8
476	1
479	2
487	6
