Mass spectrum: Methyldopa; GC-EI-TOF; MS; n TMS; RT:820.671 sec
Name: Methyl Dopa
Name: Methyldopa
Class: Natural Product
Formula: C10H13NO4
Exact mass: 211.08446
SMILES: OC(=O)C(C)(N)Cc(c1)cc(O)c(O)c1
InChI: InChI=1S/C10H13NO4/c1-10(11,9(14)15)5-6-2-3-7(12)8(13)4-6/h2-4,12-13H,5,11H2,1H3,(H,14,15)/t10-/m0/s1
Instrument: Pegasus III TOF-MS system, Leco; GC 6890, Agilent Technologies
Instrument type: GC-EI-TOF
Ms type: MS
Ion mode: POSITIVE
Column name: CP-SIL 8 CB LOW BLEED/MS
Retention time: 820.671  sec
m/z	relative intensity
85	2
86	1
87	4
88	1
89	4
90	1
91	6
92	1
93	1
95	1
97	1
98	2
99	4
100	22
101	4
102	4
103	14
104	10
105	9
106	1
113	2
114	330
115	51
116	24
117	12
118	3
119	10
120	1
121	1
128	2
129	4
130	4
131	24
132	14
133	33
134	6
135	5
136	1
142	2
143	2
144	25
145	6
146	9
147	136
148	25
149	30
150	6
151	3
158	2
159	2
160	14
161	7
162	3
163	10
164	2
165	4
166	1
167	1
172	5
173	3
174	28
175	7
176	3
177	5
178	2
179	94
180	18
181	7
182	1
188	9
189	4
190	3
191	6
192	2
193	5
194	1
195	3
196	1
202	1
203	1
204	1
205	4
206	1
207	3
208	1
209	3
210	1
216	3
217	9
218	4
219	2
220	1
221	1
222	1
223	2
231	3
232	999
233	237
234	99
235	17
236	4
237	7
238	2
239	1
248	1
251	1
252	1
253	1
264	1
265	2
267	25
268	17
269	7
270	1
293	1
294	23
295	14
296	4
297	1
304	1
305	2
306	1
311	1
320	1
353	1
368	1
369	1
381	1
382	15
383	12
384	5
385	1
393	1
394	10
395	8
396	3
397	1
455	1
456	8
457	8
458	5
459	2
483	1
484	7
485	6
486	3
487	1
