Mass spectrum: 5-Hydroxy-L-tryptophan; GC-EI-TOF; MS; n TMS; RT:929.009 sec
Name: 5-Hydroxy-L-tryptophan
Class: Natural Product
Formula: C11H12N2O3
Exact mass: 220.08479
SMILES: C1=CC2=C(C=C1O)C(=CN2)C[C@@H](C(=O)O)N
InChI: InChI=1S/C11H12N2O3/c12-9(11(15)16)3-6-5-13-10-2-1-7(14)4-8(6)10/h1-2,4-5,9,13-14H,3,12H2,(H,15,16)/t9-/m0/s1
Instrument: Pegasus III TOF-MS system, Leco; GC 6890, Agilent Technologies
Instrument type: GC-EI-TOF
Ms type: MS
Ion mode: POSITIVE
Column name: CP-SIL 8 CB LOW BLEED/MS
Retention time: 929.009  sec
m/z	relative intensity
85	3
86	12
87	8
88	5
89	8
90	5
91	6
92	1
93	1
95	1
98	1
99	1
100	99
101	28
102	25
103	13
104	2
105	2
114	4
115	15
116	6
117	13
118	6
119	4
121	1
127	2
128	16
129	25
130	30
131	15
132	21
133	15
134	5
135	3
140	1
141	2
142	10
143	10
144	13
145	8
146	43
147	73
148	16
149	7
152	2
154	2
155	2
156	4
157	3
158	4
159	5
160	8
161	3
162	3
163	5
164	1
168	1
169	1
170	5
171	2
172	7
173	3
174	9
175	3
176	9
177	3
178	1
184	3
185	4
186	6
187	3
188	23
189	9
190	8
191	2
198	1
199	1
200	4
201	3
202	32
203	19
204	22
205	6
206	7
207	1
213	1
214	4
215	3
216	20
217	19
218	999
219	245
220	96
221	17
222	3
229	2
230	2
231	4
232	4
233	1
242	1
246	8
247	2
248	1
257	1
258	1
259	1
288	1
290	5
291	2
303	1
304	1
318	2
319	16
320	4
321	1
331	6
332	2
393	4
394	3
395	1
421	3
422	1
436	6
437	3
438	1
