Mass spectrum: 3-Phenylpropionic acid; GC-EI-TOF; MS; n TMS; RT:512.822 sec
Name: Hydrocinnamate
Name: 3-Phenylpropionic acid
Class: Natural Product
Formula: C9H10O2
Exact mass: 150.06808
SMILES: OC(=O)CCc(c1)cccc1
InChI: InChI=1S/C9H10O2/c10-9(11)7-6-8-4-2-1-3-5-8/h1-5H,6-7H2,(H,10,11)
Instrument: Pegasus III TOF-MS system, Leco; GC 6890, Agilent Technologies
Instrument type: GC-EI-TOF
Ms type: MS
Ion mode: POSITIVE
Column name: CP-SIL 8 CB LOW BLEED/MS
Retention time: 512.822  sec
m/z	relative intensity
85	2
86	1
87	3
88	8
89	24
90	6
91	255
92	21
93	2
101	16
102	17
103	92
104	999
105	129
106	8
107	3
115	12
116	21
117	4
118	1
119	1
121	1
128	1
129	11
130	2
131	32
132	38
133	6
134	1
135	10
136	1
137	1
145	4
146	1
147	4
148	1
149	2
150	1
151	1
161	3
162	3
163	6
164	1
165	1
173	1
189	17
190	5
191	3
205	10
206	6
207	199
208	36
209	10
210	1
222	96
223	19
224	5
