Mass spectrum: GABA; GC-EI-TOF; MS; n TMS; RT:564.678 sec
Name: 4-Aminobutyric acid
Name: GABA
Class: Natural Product
Formula: C4H9NO2
Exact mass: 103.06333
SMILES: NCCCC(O)=O
InChI: InChI=1S/C4H9NO2/c5-3-1-2-4(6)7/h1-3,5H2,(H,6,7)
Instrument: Pegasus III TOF-MS system, Leco; GC 6890, Agilent Technologies
Instrument type: GC-EI-TOF
Ms type: MS
Ion mode: POSITIVE
Column name: CP-SIL 8 CB LOW BLEED/MS
Retention time: 564.678  sec
m/z	relative intensity
85	32
86	363
87	48
88	19
89	11
90	1
91	1
92	1
93	1
95	1
96	2
97	4
98	18
99	29
100	203
101	43
102	39
103	20
104	4
105	6
106	1
110	3
111	2
112	17
113	17
114	30
115	28
116	30
117	46
118	9
119	13
120	2
121	1
124	2
125	1
126	4
127	3
128	13
129	22
130	80
131	67
132	22
133	96
134	15
135	8
136	1
137	1
138	1
139	1
140	21
141	4
142	87
143	84
144	26
145	13
146	37
147	496
148	82
149	46
150	5
151	2
154	2
155	1
156	29
157	10
158	15
159	4
160	4
161	2
168	1
170	5
171	2
172	43
173	10
174	999
175	174
176	82
177	10
178	2
184	1
186	4
187	4
188	3
189	2
190	1
198	2
200	4
201	1
204	3
205	2
214	16
215	4
216	72
217	14
218	7
219	5
220	2
221	1
228	1
230	5
231	1
232	3
246	27
247	6
248	3
288	1
303	1
304	141
305	45
306	22
307	5
308	1
