Mass spectrum: Ketoisoleucine; GC-EI-TOF; MS; n TMS; RT:379.984 sec
Name: Ketoisoleucine
Class: Natural Product
Formula: C6H10O3
Exact mass: 130.06299
SMILES: CCC(C)C(=O)C(O)=O
InChI: InChI=1S/C6H10O3/c1-3-4(2)5(7)6(8)9/h4H,3H2,1-2H3,(H,8,9)
Instrument: Pegasus III TOF-MS system, Leco; GC 6890, Agilent Technologies
Instrument type: GC-EI-TOF
Ms type: MS
Ion mode: POSITIVE
Column name: CP-SIL 8 CB LOW BLEED/MS
Retention time: 379.984  sec
m/z	relative intensity
85	207
86	178
87	31
88	15
89	999
90	89
91	60
92	5
93	4
94	5
95	3
96	7
97	21
98	52
99	80
100	77
101	16
102	9
103	16
104	2
105	17
106	1
108	2
109	3
110	196
111	17
112	39
113	297
114	204
115	151
116	24
117	51
118	7
119	1
124	2
125	1
126	37
127	19
128	59
129	154
130	22
131	9
140	57
141	41
142	26
143	16
144	8
145	2
150	1
151	1
154	9
155	4
156	55
157	18
158	15
159	3
160	12
161	1
162	1
166	1
167	1
170	2
171	2
172	139
173	26
174	15
175	2
177	1
181	1
183	1
184	7
185	3
186	1
187	7
189	301
190	42
191	14
200	317
201	56
202	15
203	128
204	17
205	3
216	290
217	52
218	14
231	1
295	1
361	1
418	1
