Mass spectrum: D-Xylulose; GC-EI-TOF; MS; n TMS; RT:627.950 sec
Name: D-Xylulose
Class: Natural Product
Formula: C5H10O5
Exact mass: 150.05282
SMILES: OCC(O)C(O)C(=O)CO
InChI: InChI=1S/C5H10O5/c6-1-3(8)5(10)4(9)2-7/h3,5-8,10H,1-2H2/t3-,5+/m1/s1
Instrument: Pegasus III TOF-MS system, Leco; GC 6890, Agilent Technologies
Instrument type: GC-EI-TOF
Ms type: MS
Ion mode: POSITIVE
Column name: CP-SIL 8 CB LOW BLEED/MS
Retention time: 627.950  sec
m/z	relative intensity
85	23
86	2
87	13
88	21
89	275
90	24
95	5
96	13
97	1
98	16
99	1
100	36
101	52
102	18
103	347
104	22
105	39
107	4
108	3
111	4
112	3
113	9
114	53
115	28
116	25
117	668
118	63
119	43
120	9
122	4
123	3
125	2
126	18
127	3
128	5
129	29
130	17
131	65
132	16
133	223
134	18
135	12
136	3
137	8
139	10
141	3
142	53
143	30
144	15
145	14
146	3
147	999
148	116
149	89
150	5
154	10
155	4
156	11
157	11
158	16
159	37
161	9
162	6
163	56
168	5
170	17
171	1
172	62
173	380
174	51
175	33
176	1
177	16
178	5
181	6
182	4
183	2
184	6
186	15
187	6
188	9
189	24
190	6
191	32
192	11
193	8
195	2
198	5
199	6
200	16
201	41
202	32
203	23
204	23
205	498
206	89
207	57
208	4
209	1
213	3
214	18
216	25
217	43
218	7
219	18
220	8
221	10
222	15
223	7
224	4
225	7
226	2
227	1
228	14
229	2
230	8
231	5
232	14
233	4
234	3
235	6
236	2
238	6
239	3
240	2
241	7
242	4
243	2
244	5
246	14
247	2
249	6
256	1
258	4
259	2
260	11
262	9
263	256
264	70
265	24
266	3
267	3
268	5
269	5
273	1
275	1
276	2
277	3
281	2
286	5
288	7
289	4
290	4
291	19
293	2
294	1
296	1
297	1
302	8
303	3
305	2
306	2
309	5
311	1
313	1
315	3
317	3
318	11
319	1
320	6
325	1
332	3
334	3
335	9
336	3
337	10
338	4
343	1
344	3
345	3
346	1
347	7
353	2
361	1
362	3
363	2
364	8
365	9
366	3
375	1
377	2
380	3
382	2
384	2
390	3
392	3
394	3
396	2
403	2
410	2
417	1
421	13
429	3
432	3
436	1
438	5
453	5
463	1
467	4
468	2
469	3
471	1
474	2
484	3
487	2
490	1
494	1
498	3
