Mass spectrum: n-Propylamine; GC-EI-TOF; MS; n TMS; RT:264.863 sec
Name: n-Propylamine
Class: Natural Product
Formula: C3H9N
Exact mass: 59.07350
SMILES: CCCN
InChI: InChI=1S/C3H9N/c1-2-3-4/h2-4H2,1H3
Instrument: Pegasus III TOF-MS system, Leco; GC 6890, Agilent Technologies
Instrument type: GC-EI-TOF
Ms type: MS
Ion mode: POSITIVE
Column name: CP-SIL 8 CB LOW BLEED/MS
Retention time: 264.863  sec
m/z	relative intensity
85	29
86	722
87	84
88	32
89	4
94	1
95	1
96	1
97	2
98	9
99	18
100	400
101	63
102	53
103	13
104	4
110	1
111	1
112	12
113	20
114	776
115	105
116	77
117	52
118	10
119	4
126	1
127	1
128	19
129	10
130	141
131	62
132	18
133	4
134	1
142	2
143	2
144	10
145	3
146	11
147	2
148	1
156	1
158	17
159	4
160	4
170	2
172	26
173	6
174	999
175	193
176	84
177	10
178	2
186	11
187	3
188	215
189	42
190	18
191	2
201	1
202	3
203	20
204	4
205	1
