Mass spectrum: L-Aspartic acid; GC-EI-TOF; MS; n TMS; RT:556.794 sec
Name: L-Aspartic acid
Class: Natural Product
Formula: C4H7NO4
Exact mass: 133.03751
SMILES: OC(=O)CC(N)C(O)=O
InChI: InChI=1S/C4H7NO4/c5-2(4(8)9)1-3(6)7/h2H,1,5H2,(H,6,7)(H,8,9)/t2-/m0/s1
Instrument: Pegasus III TOF-MS system, Leco; GC 6890, Agilent Technologies
Instrument type: GC-EI-TOF
Ms type: MS
Ion mode: POSITIVE
Column name: CP-SIL 8 CB LOW BLEED/MS
Retention time: 556.794  sec
m/z	relative intensity
85	16
86	35
87	18
88	12
89	13
90	2
91	4
92	4
93	11
95	4
96	3
97	1
98	32
99	25
100	773
101	101
102	48
103	54
104	6
105	9
110	2
111	1
112	2
113	6
114	15
115	45
116	41
117	213
118	28
119	39
120	5
121	2
126	4
127	2
128	25
129	17
130	98
131	72
132	55
133	152
134	29
135	18
136	2
140	2
141	2
142	48
143	21
144	25
145	8
146	16
147	432
148	76
149	71
150	11
151	4
154	2
156	1
157	3
158	10
159	9
160	50
161	14
162	5
163	41
164	8
165	3
170	4
171	7
172	25
173	10
174	40
175	10
176	9
177	12
178	2
184	4
185	1
186	1
187	1
188	112
189	33
190	19
191	11
192	2
193	2
200	4
201	2
202	122
203	26
204	36
205	13
206	5
207	3
214	2
215	3
216	56
217	14
218	208
219	42
220	22
221	11
222	2
223	1
230	4
231	6
232	999
233	210
234	95
235	18
236	3
244	11
245	16
246	7
247	2
262	3
292	14
293	4
294	2
306	23
307	9
308	4
309	1
334	13
335	3
336	3
349	6
350	2
