Mass spectrum: 2-Dehydro-D-gluconic acid; GC-EI-TOF; MS; n TMS; RT:719.212 sec
Name: 2-Dehydro-D-gluconate
Name: 2-Dehydro-D-gluconic acid
Class: Natural Product
Formula: C6H10O7
Exact mass: 194.04265
SMILES: OCC(O)C(O)C(O)C(=O)C(O)=O
InChI: InChI=1S/C6H10O7/c7-1-2(8)3(9)4(10)5(11)6(12)13/h2-4,7-10H,1H2,(H,12,13)/t2-,3-,4+/m1/s1
Instrument: Pegasus III TOF-MS system, Leco; GC 6890, Agilent Technologies
Instrument type: GC-EI-TOF
Ms type: MS
Ion mode: POSITIVE
Column name: CP-SIL 8 CB LOW BLEED/MS
Retention time: 719.212  sec
m/z	relative intensity
85	21
86	16
87	19
88	12
89	220
90	21
91	10
92	2
93	3
94	5
95	3
96	6
97	2
98	12
99	15
100	12
101	51
102	23
103	999
104	100
105	53
106	4
107	1
110	1
111	5
112	4
113	24
114	33
115	19
116	18
117	193
118	21
119	31
120	4
121	2
122	1
124	3
125	1
126	15
127	7
128	10
129	123
130	25
131	92
132	17
133	246
134	35
135	20
136	2
137	1
138	1
139	1
140	4
141	4
142	10
143	26
144	7
145	13
146	5
147	680
148	109
149	71
150	9
151	5
152	5
153	1
154	4
155	2
156	5
157	25
158	13
159	11
160	3
161	7
162	2
163	23
164	4
165	3
166	5
167	3
168	5
169	1
170	5
171	4
172	128
173	33
174	15
175	18
176	4
177	17
178	4
179	2
180	1
181	1
182	4
183	2
184	13
185	5
186	181
187	55
188	31
189	86
190	25
191	63
192	14
193	9
194	14
195	4
196	3
197	1
198	6
199	2
200	10
201	189
202	42
203	30
204	49
205	56
206	14
207	16
208	3
209	1
210	6
211	1
212	2
214	20
215	8
216	15
217	373
218	81
219	44
220	9
221	23
222	5
223	3
224	1
226	1
228	3
229	5
230	11
231	10
232	4
233	2
235	18
236	4
237	2
240	6
241	1
242	10
243	2
244	2
245	2
246	7
247	3
248	1
254	2
255	1
256	5
257	2
258	8
259	3
260	2
261	4
262	1
263	1
264	1
265	1
266	1
268	5
269	2
270	3
271	1
272	2
273	1
274	2
275	2
276	17
277	36
278	13
279	6
280	2
281	1
282	2
283	2
284	6
285	2
286	3
287	1
288	12
289	5
290	5
291	9
292	3
293	2
298	1
302	2
303	3
304	2
305	3
306	4
307	39
308	14
309	7
310	1
314	8
315	3
316	2
318	1
319	2
320	1
328	1
329	1
330	1
331	1
332	1
333	1
342	1
344	1
345	1
346	1
347	2
348	10
349	190
350	74
351	34
352	9
353	2
356	1
357	1
358	2
359	1
364	1
372	2
373	1
377	2
378	28
379	13
380	6
381	1
388	1
390	4
391	2
404	1
