Mass spectrum: D-Fructose 6-phosphate; GC-EI-TOF; MS; n TMS; RT:880.7606729 sec
Name: D-Fructose-6-Phosphate
Name: D-Fructose 6-phosphate
Class: Natural Product
Formula: C6H13O9P
Exact mass: 260.02972
SMILES: OCC(=O)C(O)C(O)C(O)COP(O)(O)=O
InChI: InChI=1S/C6H13O9P/c7-1-3(8)5(10)6(11)4(9)2-15-16(12,13)14/h4-7,9-11H,1-2H2,(H2,12,13,14)/t4-,5-,6-/m1/s1
Instrument: Pegasus III TOF-MS system, Leco; GC 6890, Agilent Technologies
Instrument type: GC-EI-TOF
Ms type: MS
Ion mode: POSITIVE
Column name: CP-SIL 8 CB LOW BLEED/MS
Retention time: 880.7606729 sec
m/z	relative intensity
86	13
87	13
88	12
89	371
90	21
93	6
100	21
101	380
102	84
103	406
104	54
105	87
109	2
111	24
112	12
113	50
114	27
115	34
116	100
117	35
118	25
119	53
125	10
126	4
127	6
129	597
130	98
131	248
133	526
134	34
135	102
138	17
142	8
143	73
147	829
148	111
149	100
150	16
151	25
156	39
157	274
158	42
159	30
160	249
161	85
162	34
163	23
164	6
170	4
172	5
175	9
177	9
180	21
181	15
182	6
189	13
190	16
191	19
192	12
193	77
196	8
200	36
203	2
204	64
205	28
206	16
207	19
210	1
211	241
212	35
214	16
215	9
217	215
218	79
220	17
221	6
222	5
225	34
227	53
228	5
229	19
231	36
233	2
237	8
243	8
247	32
251	9
253	24
255	2
267	9
278	4
283	16
285	9
288	9
299	646
300	199
301	54
308	2
313	53
314	8
315	367
316	91
317	19
318	5
320	9
331	21
334	1
341	30
343	12
354	1
357	285
358	54
359	64
360	25
364	19
373	6
386	113
387	999
388	429
389	249
390	64
391	10
396	2
398	15
417	9
424	6
438	1
449	10
452	5
468	12
470	12
471	35
472	51
475	1
481	10
491	10
