Mass spectrum: Phenanthrene; GC-EI-TOF; MS; n TMS; RT:706.361 sec
Name: Phenanthrene
Class: Natural Product
Formula: C14H10
Exact mass: 178.07825
SMILES: c(c3)cc(c1)c(c3)c(c2)c(ccc2)c1
InChI: InChI=1S/C14H10/c1-3-7-13-11(5-1)9-10-12-6-2-4-8-14(12)13/h1-10H
Instrument: Pegasus III TOF-MS system, Leco; GC 6890, Agilent Technologies
Instrument type: GC-EI-TOF
Ms type: MS
Ion mode: POSITIVE
Column name: CP-SIL 8 CB LOW BLEED/MS
Retention time: 706.361  sec
m/z	relative intensity
85	11
86	31
87	63
88	148
89	157
90	3
97	3
98	38
99	24
100	11
101	8
102	11
103	1
109	4
110	11
111	13
112	2
113	10
114	1
115	4
120	1
121	2
122	10
123	6
124	4
125	9
126	26
127	9
128	9
129	1
134	2
135	2
137	4
138	3
139	15
140	2
146	1
148	1
149	18
150	96
151	106
152	159
153	27
154	2
162	3
163	5
164	1
173	3
174	33
175	41
176	243
177	142
178	999
179	154
180	12
181	1
184	4
