Mass spectrum: 1,5-Anhydro-D-glucitol; GC-EI-TOF; MS; n TMS; RT:708.133 sec
Name: 1,5-Anhydro-D-glucitol
Class: Natural Product
Formula: C6H12O5
Exact mass: 164.06847
SMILES: OCC([H])(O1)C([H])(O)C([H])(O)C([H])(O)C1
InChI: InChI=1S/C6H12O5/c7-1-4-6(10)5(9)3(8)2-11-4/h3-10H,1-2H2/t3-,4+,5+,6+/m0/s1
Instrument: Pegasus III TOF-MS system, Leco; GC 6890, Agilent Technologies
Instrument type: GC-EI-TOF
Ms type: MS
Ion mode: POSITIVE
Column name: CP-SIL 8 CB LOW BLEED/MS
Retention time: 708.133  sec
m/z	relative intensity
85	32
86	7
87	31
88	11
89	78
90	8
91	7
92	2
93	2
94	6
95	4
96	2
97	38
98	6
99	34
100	6
101	197
102	30
103	373
104	38
105	29
106	3
107	3
108	1
109	5
110	6
111	31
112	5
113	52
114	9
115	67
116	138
117	241
118	31
119	43
120	6
121	5
122	1
123	1
124	1
125	5
126	2
127	24
128	14
129	404
130	64
131	140
132	24
133	292
134	43
135	32
136	4
137	2
138	1
139	3
140	2
141	12
142	12
143	114
144	17
145	30
146	6
147	999
148	162
149	175
150	24
151	14
152	2
153	6
154	4
155	45
156	10
157	115
158	17
159	31
160	6
161	15
162	6
163	46
164	8
165	5
166	1
167	16
168	4
169	59
170	13
171	14
172	3
173	9
174	9
175	23
176	5
177	27
178	6
179	4
180	1
181	1
182	8
183	103
184	17
185	16
186	3
187	6
188	1
189	92
190	28
191	366
192	73
193	35
194	5
195	2
199	1
200	1
201	5
202	2
203	105
204	119
205	54
206	15
207	14
208	3
209	1
213	1
214	1
215	27
216	9
217	587
218	305
219	103
220	27
221	24
222	6
223	3
229	18
230	12
231	52
232	13
233	10
234	3
235	2
241	1
242	5
243	20
244	10
245	33
246	15
247	7
248	2
255	4
256	3
257	82
258	21
259	100
260	24
261	10
262	1
263	1
265	2
271	8
272	31
273	24
274	8
275	3
277	1
278	1
291	6
292	2
293	1
303	1
304	1
305	12
306	12
307	9
308	3
309	1
317	2
318	2
319	17
320	7
321	3
322	1
331	9
332	10
333	4
334	2
335	3
336	1
347	6
348	5
349	13
350	5
351	2
362	19
363	8
364	3
437	2
438	1
452	1
