Mass spectrum: Kojic acid; GC-EI-TOF; MS; n TMS; RT:637.333 sec
Name: Kojic acid
Class: Natural Product
Formula: C6H6O4
Exact mass: 142.02661
SMILES: OCC(O1)=CC(=O)C(O)=C1
InChI: InChI=1S/C6H6O4/c7-2-4-1-5(8)6(9)3-10-4/h1,3,7,9H,2H2
Instrument: Pegasus III TOF-MS system, Leco; GC 6890, Agilent Technologies
Instrument type: GC-EI-TOF
Ms type: MS
Ion mode: POSITIVE
Column name: CP-SIL 8 CB LOW BLEED/MS
Retention time: 637.333  sec
m/z	relative intensity
85	75
86	11
87	20
88	6
89	16
90	2
91	18
92	9
93	12
94	7
95	46
96	13
97	75
98	72
99	103
100	19
101	18
102	5
103	27
104	4
105	15
106	6
107	13
108	3
109	20
110	6
111	99
112	19
113	65
114	11
115	19
116	6
117	17
118	3
119	15
120	8
121	6
122	2
123	12
124	8
125	19
126	31
127	15
128	211
129	42
130	3
131	19
132	5
133	121
134	18
135	22
136	5
137	9
138	3
139	37
140	8
141	106
142	16
143	19
144	3
145	3
146	1
147	802
148	131
149	80
150	12
151	14
152	17
153	176
154	43
155	56
156	11
157	38
158	7
159	6
161	5
163	1
165	2
166	3
167	29
168	15
169	73
170	15
171	8
172	1
173	2
177	1
179	10
180	2
181	20
182	37
183	88
184	15
185	6
187	1
189	1
190	1
193	1
194	2
195	6
196	6
197	111
198	19
199	12
200	3
201	2
204	33
205	7
206	3
207	1
209	3
210	2
211	2
213	1
214	1
215	3
216	1
217	6
218	1
219	1
220	1
222	1
223	1
224	3
225	3
226	1
227	2
228	1
229	2
230	1
232	1
237	1
238	1
239	2
240	1
241	6
242	7
243	28
244	12
245	6
246	2
254	3
255	4
256	2
257	2
269	2
270	16
271	999
272	272
273	109
274	22
275	4
285	2
286	7
287	1
458	1
