Mass spectrum: D-(+)-Melezitose; GC-EI-TOF; MS; n TMS; RT:1206.690 sec
Name: D-Melezitose
Name: D-(+)-Melezitose
Class: Natural Product
Formula: C18H32O16
Exact mass: 504.16903
SMILES: OC[C@@H](O1)[C@@H](O)[C@H](O)[C@@H](O)[C@H]1O[C@@H]([C@H](O)3)[C@@](CO)(O[C@H](CO)3)O[C@@H](O2)[C@H](O)[C@@H](O)[C@H](O)[C@@H](CO)2
InChI: InChI=1S/C18H32O16/c19-1-5-8(23)11(26)13(28)16(30-5)32-15-10(25)7(3-21)33-18(15,4-22)34-17-14(29)12(27)9(24)6(2-20)31-17/h5-17,19-29H,1-4H2/t5-,6-,7-,8-,9-,10-,11+,12+,13-,14-,15+,16-,17-,18+/m1/s1
Instrument: Pegasus III TOF-MS system, Leco; GC 6890, Agilent Technologies
Instrument type: GC-EI-TOF
Ms type: MS
Ion mode: POSITIVE
Column name: CP-SIL 8 CB LOW BLEED/MS
Retention time: 1206.690  sec
m/z	relative intensity
85	26
86	19
87	31
88	30
89	51
90	9
91	3
93	12
95	18
96	16
97	23
98	8
99	40
101	86
102	3
103	999
104	57
105	68
106	1
107	1
109	105
110	23
111	12
112	4
113	59
114	16
115	52
116	40
117	214
118	3
119	17
121	12
124	6
125	10
126	5
127	48
128	9
129	503
130	110
131	116
132	21
133	152
134	19
135	16
136	1
137	12
140	19
141	29
142	27
143	106
144	9
145	17
146	15
147	778
148	118
149	79
150	4
151	12
152	6
153	29
154	26
155	137
156	22
157	86
158	6
159	13
160	3
161	7
162	1
163	31
166	1
167	20
168	34
169	660
170	101
171	34
172	16
173	8
174	7
175	20
180	6
181	15
182	3
183	90
184	13
185	28
186	10
188	4
189	81
190	16
191	206
192	58
193	4
194	1
196	5
197	12
198	5
199	49
200	1
201	6
202	12
203	58
204	382
205	126
206	35
207	20
209	5
211	12
214	5
215	14
216	27
217	683
218	158
219	84
220	3
221	38
222	14
223	9
224	1
229	25
230	20
231	69
232	44
233	22
234	3
235	1
236	1
237	9
238	5
240	1
241	1
242	19
243	156
244	34
245	53
247	8
248	18
250	7
251	1
252	10
253	3
254	3
255	11
257	52
258	16
259	4
260	8
262	11
263	25
268	9
269	2
270	1
271	204
272	84
273	30
275	13
276	9
280	11
281	8
283	2
284	8
285	10
286	3
287	4
288	13
289	14
290	7
291	12
292	13
293	10
297	2
299	5
302	4
303	2
304	5
305	41
306	12
309	7
310	7
311	8
313	14
318	22
319	36
320	29
321	2
322	10
325	3
326	2
328	3
329	1
331	39
332	6
333	24
334	7
335	11
338	4
340	1
344	2
345	17
346	25
347	3
349	5
350	9
351	1
353	1
358	4
359	6
361	931
362	267
363	168
364	37
365	14
366	6
371	7
374	5
375	6
378	2
380	1
381	1
383	3
387	4
389	3
391	6
393	1
394	7
395	4
396	10
400	2
404	2
406	4
408	4
412	1
415	3
417	1
422	8
435	10
436	4
451	46
452	12
453	5
454	12
455	4
464	3
469	1
470	1
474	1
476	7
477	3
478	9
479	7
480	10
482	1
484	1
488	3
490	4
