Mass spectrum: N-alpha-Acetyl-L-ornithine; GC-EI-TOF; MS; n TMS; RT:769.167 sec
Name: N-a-Acetyl-L-Ornithine
Name: N-alpha-Acetyl-L-ornithine
Class: Natural Product
Formula: C7H14N2O3
Exact mass: 174.10044
SMILES: NCCCC(NC(C)=O)C(O)=O
InChI: InChI=1S/C7H14N2O3/c1-5(10)9-6(7(11)12)3-2-4-8/h6H,2-4,8H2,1H3,(H,9,10)(H,11,12)/t6-/m0/s1
Instrument: Pegasus III TOF-MS system, Leco; GC 6890, Agilent Technologies
Instrument type: GC-EI-TOF
Ms type: MS
Ion mode: POSITIVE
Column name: CP-SIL 8 CB LOW BLEED/MS
Retention time: 769.167  sec
m/z	relative intensity
85	13
86	224
87	33
88	13
89	5
90	2
91	2
92	1
93	2
94	29
95	4
96	13
97	6
98	26
99	15
100	133
101	23
102	34
103	22
104	5
105	6
109	1
110	6
111	10
112	25
113	12
114	23
115	20
116	47
117	30
118	10
119	7
120	1
121	2
122	1
124	2
125	1
126	7
127	3
128	30
129	20
130	77
131	43
132	22
133	34
134	7
135	4
137	1
138	1
139	9
140	7
141	6
142	108
143	23
144	17
145	5
146	32
147	83
148	17
149	21
150	3
151	2
152	8
153	2
154	6
155	3
156	8
157	3
158	12
159	4
160	4
161	3
162	1
168	7
169	3
170	21
171	12
172	29
173	18
174	999
175	193
176	87
177	12
178	2
182	1
183	1
184	12
185	3
186	44
187	9
188	7
189	2
190	6
191	1
195	1
196	1
198	1
199	1
200	13
201	3
202	4
203	1
204	1
205	1
211	6
212	2
213	1
214	44
215	9
216	11
217	2
218	1
221	1
227	1
228	10
229	2
230	2
242	1
243	3
244	6
245	1
246	1
258	3
259	1
260	2
261	17
262	6
263	2
278	1
285	3
286	5
287	2
289	7
290	2
301	2
302	1
317	31
318	11
319	4
320	1
374	1
375	19
376	10
377	4
378	1
390	4
391	1
