Mass spectrum: D-Mannose; GC-EI-TOF; MS; n TMS; RT:725.212 sec
Name: D-Mannose
Class: Natural Product
Formula: C6H12O6
Exact mass: 180.06339
SMILES: OCC(O)C(O)C(O)C(O)C=O
InChI: InChI=1S/C6H12O6/c7-1-3(9)5(11)6(12)4(10)2-8/h1,3-6,8-12H,2H2/t3-,4-,5-,6-/m1/s1
Instrument: Pegasus III TOF-MS system, Leco; GC 6890, Agilent Technologies
Instrument type: GC-EI-TOF
Ms type: MS
Ion mode: POSITIVE
Column name: CP-SIL 8 CB LOW BLEED/MS
Retention time: 725.212  sec
m/z	relative intensity
85	18
86	12
87	22
88	23
89	302
90	28
91	16
94	1
95	2
96	12
97	18
98	5
99	18
100	69
101	73
102	43
103	645
104	67
105	78
106	13
107	2
111	7
112	4
113	15
114	23
115	27
116	31
117	342
118	37
119	44
120	4
126	2
127	12
128	11
129	381
130	66
131	109
132	17
133	291
134	40
135	22
136	1
138	2
140	3
141	5
142	14
143	48
144	6
145	13
146	5
147	999
148	165
149	106
150	11
151	4
152	3
154	2
155	6
156	3
157	258
158	47
159	26
160	418
161	93
162	25
163	36
164	5
169	14
170	5
171	3
172	11
173	13
174	3
175	17
177	20
178	5
181	3
182	2
184	1
185	3
186	7
187	6
188	6
189	88
190	27
191	43
192	7
193	2
194	1
196	5
200	5
201	30
202	9
203	16
204	80
205	536
206	110
207	65
208	9
209	3
210	2
212	1
213	1
214	15
215	5
216	5
217	247
218	60
219	27
220	2
221	21
222	2
226	2
228	2
229	73
230	24
231	23
232	5
233	34
234	13
235	10
237	1
240	2
242	5
243	6
244	5
245	8
246	1
247	5
259	3
260	1
261	2
268	6
269	2
270	5
273	3
274	3
275	2
277	13
278	6
285	1
291	20
292	8
300	3
301	1
303	1
305	12
306	5
307	11
308	2
309	1
313	1
316	1
318	10
319	388
320	139
321	69
322	14
323	3
333	1
334	1
337	2
338	1
347	1
365	2
374	5
376	2
383	1
403	1
430	3
438	2
442	2
494	1
496	1
