Mass spectrum: L-Glucose; GC-EI-TOF; MS; n TMS; RT:723.043 sec
Name: L-Glucose
Class: Natural Product
Formula: C6H12O6
Exact mass: 180.06339
SMILES: OCC(O)C(O)C(O)C(O)C=O
InChI: InChI=1S/C6H12O6/c7-1-3(9)5(11)6(12)4(10)2-8/h1,3-6,8-12H,2H2/t3-,4+,5+,6+/m1/s1
Instrument: Pegasus III TOF-MS system, Leco; GC 6890, Agilent Technologies
Instrument type: GC-EI-TOF
Ms type: MS
Ion mode: POSITIVE
Column name: CP-SIL 8 CB LOW BLEED/MS
Retention time: 723.043  sec
m/z	relative intensity
85	20
86	25
87	25
88	23
89	255
90	25
91	14
92	2
93	1
94	2
95	2
96	3
97	12
98	7
99	22
100	55
101	79
102	42
103	455
104	48
105	106
106	12
107	5
108	1
109	1
110	5
111	11
112	8
113	19
114	47
115	32
116	30
117	341
118	37
119	34
120	4
121	2
124	1
125	3
126	8
127	16
128	17
129	382
130	77
131	104
132	19
133	234
134	32
135	21
136	2
137	1
138	2
139	2
140	4
141	9
142	20
143	54
144	10
145	26
146	8
147	999
148	162
149	105
150	13
151	7
152	3
153	1
154	4
155	5
156	6
157	272
158	52
159	22
160	476
161	89
162	27
163	32
164	5
165	3
166	1
167	1
168	5
169	11
170	6
171	4
172	13
173	16
174	8
175	17
176	4
177	15
178	3
179	2
180	3
181	2
182	2
183	1
184	2
185	3
186	10
187	4
188	4
189	93
190	29
191	54
192	11
193	6
194	1
195	1
196	2
197	1
198	3
199	1
200	4
201	24
202	9
203	16
204	104
205	514
206	107
207	57
208	9
209	3
210	10
211	2
212	1
213	1
214	4
215	11
216	28
217	317
218	72
219	33
220	6
221	23
222	6
223	3
224	1
227	1
228	4
229	73
230	24
231	33
232	14
233	18
234	11
235	3
236	1
237	1
240	4
241	1
242	4
243	7
244	10
245	6
246	10
247	5
248	1
253	1
254	1
255	1
256	4
257	1
258	1
259	3
260	2
261	1
262	12
263	4
264	1
265	2
266	1
268	3
269	7
270	3
271	1
274	12
275	4
276	3
277	14
278	6
279	3
286	1
290	1
291	24
292	9
293	5
300	6
301	1
302	2
303	1
304	2
305	23
306	10
307	17
308	4
309	2
317	1
318	12
319	393
320	131
321	65
322	15
323	4
330	1
331	1
332	2
333	2
343	4
344	3
345	1
358	1
364	7
365	3
366	1
374	3
375	1
376	2
377	1
464	1
466	1
