Mass spectrum: D-(+)-Allose; GC-EI-TOF; MS; n TMS; RT:725.844 sec
Name: D-(+)-Allose
Class: Natural Product
Formula: C6H12O6
Exact mass: 180.06339
SMILES: OC[C@@H](O1)[C@@H](O)[C@H](O)[C@@H](O)C(O)1
InChI: InChI=1S/C6H12O6/c7-1-2-3(8)4(9)5(10)6(11)12-2/h2-11H,1H2/t2-,3-,4-,5-,6?/m1/s1
Instrument: Pegasus III TOF-MS system, Leco; GC 6890, Agilent Technologies
Instrument type: GC-EI-TOF
Ms type: MS
Ion mode: POSITIVE
Column name: CP-SIL 8 CB LOW BLEED/MS
Retention time: 725.844  sec
m/z	relative intensity
85	19
86	12
87	26
88	23
89	316
90	29
91	17
92	2
96	18
97	27
98	6
99	19
100	69
101	78
102	42
103	588
104	59
105	72
106	8
111	12
112	2
113	17
114	21
115	25
116	30
117	357
118	41
119	44
120	3
121	2
126	7
127	16
128	9
129	440
130	73
131	108
132	19
133	243
134	39
135	22
136	3
138	1
140	1
141	8
142	10
143	49
144	6
145	14
146	5
147	999
148	162
149	105
150	11
151	5
152	3
154	4
155	3
156	4
157	310
158	50
159	30
160	268
161	58
162	15
163	34
164	4
165	1
168	2
169	12
170	2
171	4
172	11
173	14
174	3
175	18
176	2
177	17
178	4
180	1
182	5
183	1
185	2
186	8
187	8
188	3
189	97
190	32
191	46
192	7
193	5
196	2
197	1
200	4
201	27
202	8
203	18
204	102
205	602
206	119
207	66
208	9
210	2
213	1
214	20
215	9
216	6
217	250
218	56
219	29
220	1
221	21
222	4
223	2
229	85
230	28
231	26
232	9
233	39
234	8
235	13
236	2
237	1
240	1
241	1
242	3
243	9
244	4
245	9
246	4
247	5
257	1
259	6
262	2
266	1
268	8
270	2
273	1
274	4
275	2
277	15
278	4
279	2
291	19
292	3
300	1
304	1
305	15
306	6
307	11
308	1
318	17
319	459
320	159
321	74
322	16
323	3
331	2
333	1
344	2
349	1
374	1
376	1
377	1
