Mass spectrum: DL-beta-Hydroxybutyric acid; GC-EI-TOF; MS; n TMS; RT:354.454 sec
Name: 3-Hydroxy-Butyrate
Name: DL-beta-Hydroxybutyric acid
Class: Natural Product
Formula: C4H8O3
Exact mass: 104.04734
SMILES: CC(O)CC(O)=O
InChI: InChI=1S/C4H8O3/c1-3(5)2-4(6)7/h3,5H,2H2,1H3,(H,6,7)
Instrument: Pegasus III TOF-MS system, Leco; GC 6890, Agilent Technologies
Instrument type: GC-EI-TOF
Ms type: MS
Ion mode: POSITIVE
Column name: CP-SIL 8 CB LOW BLEED/MS
Retention time: 354.454  sec
m/z	relative intensity
85	9
86	2
87	18
88	147
89	20
90	1
91	2
92	1
97	1
98	1
99	25
100	3
101	53
102	10
103	20
104	3
105	9
106	1
109	6
113	2
114	1
115	70
116	19
117	484
118	53
119	30
120	2
129	4
130	79
131	52
132	11
133	101
134	15
135	8
142	1
143	22
144	3
145	3
146	1
147	999
148	164
149	90
150	9
151	2
157	2
158	2
159	1
161	1
162	1
163	2
175	1
189	27
190	6
191	239
192	44
193	21
194	2
204	18
205	3
206	1
217	5
218	1
231	1
233	84
234	17
235	7
