Mass spectrum: 1-Methyl Histidine; GC-EI-TOF; MS; n TMS; RT:693.386 sec
Name: 1-Methyl Histidine
Class: Natural Product
Formula: C7H11N3O2
Exact mass: 169.08513
SMILES: OC(=O)C(N)Cc(n1)cn(C)c1
InChI: InChI=1S/C7H11N3O2/c1-10-3-5(9-4-10)2-6(8)7(11)12/h3-4,6H,2,8H2,1H3,(H,11,12)
Instrument: Pegasus III TOF-MS system, Leco; GC 6890, Agilent Technologies
Instrument type: GC-EI-TOF
Ms type: MS
Ion mode: POSITIVE
Column name: CP-SIL 8 CB LOW BLEED/MS
Retention time: 693.386  sec
m/z	relative intensity
85	7
86	15
87	1
88	5
91	1
93	6
95	79
96	999
97	265
98	20
99	2
100	115
101	16
102	4
103	10
104	1
106	4
107	5
109	9
110	3
111	1
112	22
113	1
115	3
116	1
117	4
119	2
120	2
121	2
122	2
123	2
124	27
125	5
126	6
130	8
131	5
132	17
133	17
134	3
135	5
137	1
139	11
141	4
147	57
148	10
149	10
151	1
153	5
155	1
159	4
164	5
165	5
166	2
167	11
168	46
169	9
174	1
179	4
180	91
181	32
182	4
183	1
186	1
195	4
196	347
197	66
198	14
199	17
200	1
203	2
206	1
208	20
217	1
218	75
219	17
220	9
223	2
224	1
240	2
241	1
251	1
257	2
270	10
271	1
272	1
281	1
296	1
298	5
299	2
306	1
308	1
313	4
314	3
326	1
328	1
331	1
342	1
352	1
381	2
418	2
476	1
483	1
