Mass spectrum: 2-Oxobutyric acid; GC-EI-TOF; MS; n TMS; RT:440.422 sec
Name: 2-Oxobutyrate
Name: 2-Oxobutyric acid
Class: Natural Product
Formula: C4H6O3
Exact mass: 102.03169
SMILES: CCC(=O)C(O)=O
InChI: InChI=1S/C4H6O3/c1-2-3(5)4(6)7/h2H2,1H3,(H,6,7)
Instrument: Pegasus III TOF-MS system, Leco; GC 6890, Agilent Technologies
Instrument type: GC-EI-TOF
Ms type: MS
Ion mode: POSITIVE
Column name: CP-SIL 8 CB LOW BLEED/MS
Retention time: 440.422  sec
m/z	relative intensity
85	52
86	31
87	33
88	4
89	392
90	15
91	18
98	8
99	2
100	80
101	332
102	50
103	37
104	7
105	8
112	146
113	6
114	5
115	20
116	21
117	999
118	109
119	41
126	7
127	1
128	69
129	10
130	4
131	57
132	10
133	103
134	8
135	1
142	4
143	1
144	3
145	10
146	2
147	657
148	102
149	54
157	2
158	7
160	2
163	21
164	3
168	1
172	42
173	8
174	14
175	3
177	2
186	274
187	18
188	14
190	1
191	14
200	1
204	2
208	1
215	28
216	21
218	1
244	4
245	2
255	1
260	159
261	53
262	9
276	98
277	32
278	6
280	1
317	1
363	1
426	1
468	2
486	3
493	1
