Mass spectrum: Gly-Gly; GC-EI-TOF; MS; n TMS; RT:691.692 sec
Name: Glycyl-Glycine
Name: Gly-Gly
Class: Natural Product
Formula: C4H8N2O3
Exact mass: 132.05349
SMILES: NCC(=O)NCC(O)=O
InChI: InChI=1S/C4H8N2O3/c5-1-3(7)6-2-4(8)9/h1-2,5H2,(H,6,7)(H,8,9)
Instrument: Pegasus III TOF-MS system, Leco; GC 6890, Agilent Technologies
Instrument type: GC-EI-TOF
Ms type: MS
Ion mode: POSITIVE
Column name: CP-SIL 8 CB LOW BLEED/MS
Retention time: 691.692  sec
m/z	relative intensity
85	8
86	234
87	29
88	17
89	5
97	1
98	8
99	5
100	133
101	32
102	35
103	15
104	3
105	3
112	1
113	5
114	7
115	11
116	38
117	41
118	8
119	10
120	1
127	3
128	3
129	14
130	46
131	46
132	17
133	63
134	12
135	6
140	2
141	5
142	16
143	6
144	14
145	4
146	12
147	189
148	32
149	20
150	2
151	1
156	1
157	1
158	16
159	8
160	13
161	4
162	1
169	1
171	1
172	39
173	11
174	999
175	193
176	91
177	13
178	2
185	1
186	1
187	8
188	11
189	5
190	5
191	1
199	2
200	2
201	3
202	3
203	2
204	12
205	3
206	1
213	3
214	6
215	6
216	8
217	2
218	12
219	4
220	1
221	4
222	1
229	2
230	2
231	1
232	1
234	4
235	1
241	1
243	2
244	2
245	1
246	5
247	2
248	89
249	36
250	16
251	4
258	1
259	7
260	2
261	2
262	2
273	1
274	1
287	1
288	3
289	3
290	1
306	5
307	3
308	1
316	1
317	6
318	4
319	1
333	2
334	1
404	7
405	62
406	51
407	24
408	9
409	2
420	5
421	4
422	2
