Mass spectrum: L-(+)-Tartaric acid; GC-EI-TOF; MS; n TMS; RT:611.094 sec
Name: L-(+)-Tartarate
Name: L-(+)-Tartaric acid
Class: Natural Product
Formula: C4H6O6
Exact mass: 150.01644
SMILES: OC(=O)C([H])(O)C([H])(O)C(O)=O
InChI: InChI=1S/C4H6O6/c5-1(3(7)8)2(6)4(9)10/h1-2,5-6H,(H,7,8)(H,9,10)/t1-,2-/m1/s1
Instrument: Pegasus III TOF-MS system, Leco; GC 6890, Agilent Technologies
Instrument type: GC-EI-TOF
Ms type: MS
Ion mode: POSITIVE
Column name: CP-SIL 8 CB LOW BLEED/MS
Retention time: 611.094  sec
m/z	relative intensity
85	12
86	4
87	16
88	5
89	8
90	1
91	1
92	2
93	6
95	3
96	2
97	1
98	1
99	20
100	4
101	25
102	142
103	73
104	13
105	13
106	1
107	1
113	5
114	1
115	27
116	11
117	47
118	7
119	20
120	3
121	2
125	1
127	4
129	6
130	88
131	99
132	20
133	170
134	25
135	16
136	2
141	1
142	4
143	136
144	18
145	12
146	3
147	999
148	162
149	109
150	13
151	5
157	7
158	1
159	5
160	1
161	6
162	1
163	17
164	3
165	2
171	52
172	6
173	10
174	1
175	67
176	11
177	14
178	2
179	1
185	2
187	1
188	1
189	316
190	65
191	71
192	16
193	9
194	2
201	2
203	1
204	18
205	11
206	4
207	20
208	5
209	3
215	3
216	1
217	55
218	12
219	219
220	43
221	104
222	23
223	12
224	2
231	11
232	4
233	2
245	2
259	3
261	1
263	21
264	6
265	3
277	19
278	7
279	9
280	2
281	1
291	3
292	271
293	83
294	41
295	9
296	2
304	1
305	61
306	23
307	12
308	3
321	9
322	3
323	1
333	28
334	10
335	6
336	1
351	6
352	3
353	2
354	1
367	5
368	3
369	2
395	1
396	1
422	2
423	43
424	22
425	11
426	3
438	2
