Mass spectrum: Ketovaline; GC-EI-TOF; MS; n TMS; RT:338.031 sec
Name: Ketovaline
Class: Natural Product
Formula: C5H8O3
Exact mass: 116.04734
SMILES: CC(C)C(=O)C(O)=O
InChI: InChI=1S/C5H8O3/c1-3(2)4(6)5(7)8/h3H,1-2H3,(H,7,8)
Instrument: Pegasus III TOF-MS system, Leco; GC 6890, Agilent Technologies
Instrument type: GC-EI-TOF
Ms type: MS
Ion mode: POSITIVE
Column name: CP-SIL 8 CB LOW BLEED/MS
Retention time: 338.031  sec
m/z	relative intensity
85	40
86	157
87	17
88	18
89	999
90	96
91	45
92	5
94	2
96	49
97	10
98	29
99	100
100	290
101	67
102	18
103	13
104	5
105	84
106	5
107	9
110	3
111	3
112	33
113	12
114	24
115	4
116	6
117	93
118	10
119	2
126	45
127	176
128	225
129	37
131	4
132	5
136	4
137	4
138	1
140	20
141	33
142	53
143	62
144	20
145	4
146	6
157	8
158	6
161	1
162	2
164	1
165	1
170	15
171	5
172	1
173	4
186	223
187	58
188	3
189	3
190	3
202	336
203	60
204	18
207	1
215	1
216	1
217	22
218	2
233	1
235	1
239	2
262	1
272	1
276	1
277	2
288	1
300	2
304	1
311	3
315	1
330	1
337	1
338	2
340	1
365	1
369	1
370	1
376	2
378	1
383	3
386	1
389	2
404	3
413	1
414	1
425	1
438	2
445	1
451	2
458	1
461	1
470	2
472	1
486	1
494	2
