Mass spectrum: Anthranilic acid; GC-EI-TOF; MS; n TMS; RT:607.543 sec
Name: Anthranilic acid
Class: Natural Product
Formula: C7H7NO2
Exact mass: 137.04768
SMILES: OC(=O)c(c1)c(N)ccc1
InChI: InChI=1S/C7H7NO2/c8-6-4-2-1-3-5(6)7(9)10/h1-4H,8H2,(H,9,10)
Instrument: Pegasus III TOF-MS system, Leco; GC 6890, Agilent Technologies
Instrument type: GC-EI-TOF
Ms type: MS
Ion mode: POSITIVE
Column name: CP-SIL 8 CB LOW BLEED/MS
Retention time: 607.543  sec
m/z	relative intensity
85	9
86	9
87	12
88	5
89	29
90	27
91	156
92	166
93	30
94	11
95	15
96	9
97	11
98	3
99	2
100	5
101	6
102	14
103	26
104	21
105	46
106	28
107	13
108	7
109	5
110	3
111	3
113	2
114	1
115	27
116	18
117	45
118	245
119	143
120	105
121	33
122	12
123	9
124	2
125	1
126	12
127	1
128	2
129	3
130	20
131	43
132	91
133	214
134	332
135	73
136	23
137	7
138	1
142	1
143	2
144	4
145	10
146	29
147	144
148	95
149	210
150	96
151	27
152	10
153	2
154	1
156	2
158	8
159	3
160	13
161	4
162	18
163	8
164	15
165	5
166	1
172	3
174	56
175	12
176	64
177	12
178	75
179	19
180	11
181	4
182	1
188	2
189	1
190	8
191	6
192	107
193	44
194	57
195	12
196	3
197	1
202	2
203	1
204	6
205	3
206	5
207	5
208	75
209	39
210	34
211	8
212	3
214	1
216	1
217	1
218	1
219	1
220	7
221	2
222	7
223	2
224	8
225	3
227	1
231	1
232	94
233	34
234	17
235	5
236	2
237	1
238	1
241	1
246	1
247	1
248	12
249	7
250	17
251	5
252	2
262	1
263	1
264	17
265	16
266	999
267	252
268	100
269	17
270	4
280	2
281	62
282	17
283	7
284	1
