Mass spectrum: Ascorbic acid; GC-EI-TOF; MS; n TMS; RT:746.643 sec
Name: Ascorbic acid
Class: Natural Product
Formula: C6H8O6
Exact mass: 176.03209
SMILES: OCC([H])(O)C(O1)C(O)=C(O)C(=O)1
InChI: InChI=1S/C6H8O6/c7-1-2(8)5-3(9)4(10)6(11)12-5/h2,5,7-10H,1H2/t2-,5+/m0/s1
Instrument: Pegasus III TOF-MS system, Leco; GC 6890, Agilent Technologies
Instrument type: GC-EI-TOF
Ms type: MS
Ion mode: POSITIVE
Column name: CP-SIL 8 CB LOW BLEED/MS
Retention time: 746.643  sec
m/z	relative intensity
85	17
86	5
87	19
88	15
89	86
90	9
91	6
92	3
93	6
94	2
95	16
96	4
97	10
98	5
99	32
100	6
101	45
102	13
103	79
104	9
105	14
106	3
107	2
109	4
111	10
112	3
113	13
114	6
115	27
116	10
117	488
118	49
119	41
120	4
121	2
123	7
124	1
125	6
126	1
127	25
128	6
129	16
130	3
131	67
132	15
133	226
134	34
135	27
136	4
137	3
139	2
140	7
141	19
142	43
143	39
144	5
145	7
146	3
147	999
148	162
149	135
150	19
151	10
152	1
153	10
154	2
155	8
156	5
157	20
158	2
159	8
160	2
161	5
163	7
164	1
165	1
166	1
167	6
168	3
169	30
170	21
171	11
172	2
173	11
174	3
175	9
176	4
177	8
178	1
179	2
180	1
181	2
183	6
184	1
185	5
186	2
187	6
188	2
189	15
190	7
191	15
192	3
193	6
194	1
195	2
197	9
198	1
199	11
200	2
201	11
202	2
203	3
204	9
205	173
206	36
207	36
208	7
209	5
210	1
211	1
213	3
214	5
215	50
216	17
217	17
218	2
219	1
221	40
222	11
223	6
227	3
228	1
229	5
230	5
231	8
232	2
233	1
235	1
241	8
242	3
243	14
244	11
245	8
246	2
254	2
255	3
256	1
257	19
258	21
259	33
260	23
261	7
262	1
269	5
270	1
271	6
272	1
273	1
274	1
275	1
285	2
286	1
287	1
289	4
290	2
291	1
302	1
303	23
304	35
305	24
306	12
307	4
309	1
315	2
316	2
317	4
318	3
319	1
320	1
330	2
331	34
332	284
333	106
334	49
335	13
336	3
339	1
343	1
344	2
345	28
346	18
347	7
348	3
358	2
359	31
360	16
361	18
362	7
363	1
373	4
374	36
375	18
376	9
377	2
378	1
404	1
405	3
406	1
407	1
419	5
420	4
448	2
449	13
450	6
451	3
452	1
461	1
464	3
465	2
