Mass spectrum: Oxamide; GC-EI-TOF; MS; n TMS; RT:459.294 sec
Name: Oxamide
Class: Natural Product
Formula: C2H4N2O2
Exact mass: 88.02728
SMILES: NC(=O)C(N)=O
InChI: InChI=1S/C2H4N2O2/c3-1(5)2(4)6/h(H2,3,5)(H2,4,6)
Instrument: Pegasus III TOF-MS system, Leco; GC 6890, Agilent Technologies
Instrument type: GC-EI-TOF
Ms type: MS
Ion mode: POSITIVE
Column name: CP-SIL 8 CB LOW BLEED/MS
Retention time: 459.294  sec
m/z	relative intensity
85	24
86	40
87	16
88	8
89	17
90	5
91	3
92	1
93	1
98	5
99	20
100	443
101	72
102	999
103	100
104	41
105	7
111	1
112	1
113	5
114	3
115	21
116	114
117	590
118	78
119	27
120	2
127	3
128	3
130	8
131	63
132	25
133	21
134	4
135	1
142	4
143	1
144	2
145	3
146	5
147	296
148	49
149	23
150	2
158	27
159	5
160	3
172	1
173	1
174	22
175	4
176	2
188	5
189	128
190	25
191	11
192	1
201	1
217	72
218	14
219	6
232	6
233	1
