Mass spectrum: Pimelic acid; GC-EI-TOF; MS; n TMS; RT:600.456 sec
Name: Heptanedioate
Name: Pimelic acid
Class: Natural Product
Formula: C7H12O4
Exact mass: 160.07356
SMILES: OC(=O)CCCCCC(O)=O
InChI: InChI=1S/C7H12O4/c8-6(9)4-2-1-3-5-7(10)11/h1-5H2,(H,8,9)(H,10,11)
Instrument: Pegasus III TOF-MS system, Leco; GC 6890, Agilent Technologies
Instrument type: GC-EI-TOF
Ms type: MS
Ion mode: POSITIVE
Column name: CP-SIL 8 CB LOW BLEED/MS
Retention time: 600.456  sec
m/z	relative intensity
85	57
86	29
87	24
88	36
89	40
90	7
91	8
92	5
93	8
94	2
95	43
96	53
97	348
98	30
99	66
100	13
101	79
102	16
103	24
104	3
105	11
106	1
107	7
108	1
109	2
110	1
111	8
112	4
113	26
114	9
115	28
116	195
117	392
118	47
119	30
120	3
121	2
122	1
123	10
124	91
125	863
126	75
127	19
128	11
129	406
130	65
131	69
132	46
133	140
134	25
135	17
136	2
137	23
138	2
139	2
140	1
141	3
142	22
143	42
144	9
145	29
146	7
147	593
148	103
149	222
150	33
151	20
152	2
153	4
154	3
155	999
156	153
157	113
158	46
159	19
160	12
161	2
162	3
163	2
167	1
168	3
169	26
170	28
171	100
172	65
173	355
174	53
175	17
176	2
177	1
185	15
186	131
187	27
188	7
189	8
190	4
191	10
192	1
196	2
197	6
198	1
199	121
200	19
201	7
202	1
203	10
204	94
205	22
206	9
207	1
213	1
214	48
215	21
216	4
217	110
218	24
219	11
220	1
229	5
230	1
231	4
232	2
233	1
243	4
244	2
245	18
246	4
247	2
261	5
262	8
263	2
264	1
286	1
288	1
289	198
290	54
291	21
292	3
304	1
