Mass spectrum: L-Threonine; GC-EI-QQ; MS; 2 TBDMS; RT:664.86 sec
Name: L-Threonine
Class: Natural Product
Formula: C4H9NO3
Exact mass: 119.05824
SMILES: CC(O)C(N)C(O)=O
InChI: InChI=1S/C4H9NO3/c1-2(6)3(5)4(7)8/h2-3,6H,5H2,1H3,(H,7,8)/t2-,3+/m1/s1
Instrument: Agilent 7000B QqQMS, Agilent; Agilent 7895A series GC system, Agilent Technologies
Instrument type: GC-EI-QQ
Ms type: MS
Ion mode: POSITIVE
Column name: CP-SIL 8 CB LOW BLEED/MS
Retention time: 664.86 sec
Derivative form: C16H37NO3Si2
Derivative mass: 347.23119
Derivative type: 2 TBDMS
m/z	relative intensity
54	1
55	3
56	31
57	23
58	12
59	39
60	6
61	9
66	1
68	1
69	5
70	5
71	2
73	785
74	89
75	194
76	14
77	9
79	3
81	6
82	2
83	3
84	13
85	15
86	15
87	30
88	45
89	7
90	2
93	1
94	1
96	1
97	3
98	14
99	20
100	15
101	8
102	14
103	49
104	7
105	4
107	2
112	8
113	6
114	93
115	127
116	59
117	26
118	9
119	15
120	2
121	2
126	3
127	2
128	14
130	999
131	177
132	121
133	118
134	26
135	19
136	3
137	1
140	4
141	3
142	33
143	11
144	16
145	11
147	371
148	119
149	73
150	13
151	5
154	1
155	2
156	14
158	182
159	57
160	43
161	9
162	6
163	1
170	17
171	29
172	182
173	41
174	22
175	6
176	4
177	3
184	1
186	11
188	503
189	116
190	34
191	7
198	2
200	17
201	4
202	19
203	5
204	3
207	2
214	2
216	14
218	35
219	8
220	4
228	2
230	3
231	2
232	4
233	2
244	13
246	226
247	49
248	21
249	3
259	1
260	2
262	61
263	14
264	6
272	11
273	4
274	5
275	1
287	17
288	45
290	458
291	107
292	44
293	7
294	1
302	342
303	215
304	71
305	20
306	4
314	1
316	2
332	12
333	3
334	1
