Mass spectrum: L-Cysteic acid; GC-EI-TOF; MS; n TMS; RT:749.340 sec
Name: L-Cysteic acid
Class: Natural Product
Formula: C3H7NO5S
Exact mass: 169.00449
SMILES: NC(C(O)=O)CS(O)(=O)=O
InChI: InChI=1S/C3H7NO5S/c4-2(3(5)6)1-10(7,8)9/h2H,1,4H2,(H,5,6)(H,7,8,9)/t2-/m0/s1
Instrument: Pegasus III TOF-MS system, Leco; GC 6890, Agilent Technologies
Instrument type: GC-EI-TOF
Ms type: MS
Ion mode: POSITIVE
Column name: CP-SIL 8 CB LOW BLEED/MS
Retention time: 749.340  sec
m/z	relative intensity
85	24
86	35
87	30
88	39
89	19
90	3
91	3
92	3
93	18
94	1
95	6
96	3
97	1
98	20
99	27
100	92
101	31
102	17
103	54
104	7
105	14
106	11
107	2
108	1
110	1
112	4
113	29
114	208
115	61
116	34
117	53
118	9
119	20
120	2
121	2
122	4
123	4
126	3
128	4
129	42
130	112
131	147
132	49
133	191
134	31
135	21
136	2
137	13
138	3
139	3
140	2
141	1
142	69
143	9
144	8
145	6
146	27
147	999
148	170
149	115
150	14
151	7
152	5
153	94
154	8
155	8
156	7
157	3
158	15
159	5
160	3
161	6
162	2
163	3
165	1
170	10
171	4
172	327
173	70
174	36
175	8
176	4
177	8
178	17
179	4
180	3
181	1
185	1
186	10
187	6
188	27
189	14
190	8
191	11
192	4
193	2
196	3
198	1
200	9
201	2
202	9
203	3
204	7
205	6
206	4
207	5
210	1
211	38
212	6
213	4
214	1
215	1
216	107
217	28
218	10
219	2
221	17
222	4
223	2
225	7
226	2
227	55
228	9
229	5
230	4
231	2
232	2
240	5
241	779
242	214
243	122
244	27
245	6
246	17
247	7
248	1
249	1
252	38
253	12
254	5
255	4
256	1
260	37
261	17
262	8
263	1
264	1
266	3
267	1
268	35
269	10
270	4
271	1
274	1
276	1
280	12
281	5
282	2
283	1
288	16
289	10
290	7
291	3
293	1
299	5
300	3
301	1
303	1
304	34
305	22
306	8
307	2
308	1
313	1
314	2
315	86
316	53
317	23
318	8
319	1
324	16
325	9
326	8
327	3
339	17
340	446
341	287
342	131
343	48
344	12
345	3
354	11
355	7
356	2
357	1
378	3
379	3
413	5
414	52
415	54
416	34
417	15
418	4
419	1
441	4
442	36
443	29
444	14
445	4
446	1
