Mass spectrum: D-Tagatose; GC-EI-TOF; MS; n TMS; RT:702.481 sec
Name: D-Tagatose
Class: Natural Product
Formula: C6H12O6
Exact mass: 180.06339
SMILES: OCC(O)C(O)C(O)C(=O)CO
InChI: InChI=1S/C6H12O6/c7-1-3(9)5(11)6(12)4(10)2-8/h3,5-9,11-12H,1-2H2/t3-,5+,6-/m1/s1
Instrument: Pegasus III TOF-MS system, Leco; GC 6890, Agilent Technologies
Instrument type: GC-EI-TOF
Ms type: MS
Ion mode: POSITIVE
Column name: CP-SIL 8 CB LOW BLEED/MS
Retention time: 702.481  sec
m/z	relative intensity
85	13
86	6
87	18
88	16
89	140
90	14
91	7
92	1
94	1
96	1
97	1
98	5
99	11
100	27
101	40
102	14
103	999
104	100
105	50
106	3
110	1
111	3
112	2
113	12
114	38
115	20
116	14
117	153
118	19
119	22
120	2
121	1
126	8
127	6
128	9
129	97
130	18
131	52
132	10
133	171
134	23
135	13
136	1
140	2
141	2
142	12
143	19
144	5
145	12
146	3
147	394
148	65
149	43
150	5
151	3
152	1
153	1
154	2
155	1
156	5
157	17
158	8
159	7
160	2
161	3
162	1
163	17
164	2
165	1
168	2
169	1
170	2
171	1
172	27
173	38
174	9
175	16
176	3
177	9
178	1
179	1
180	2
186	4
187	3
188	7
189	88
190	21
191	43
192	8
193	4
198	2
200	4
201	19
202	13
203	10
204	31
205	44
206	10
207	11
208	2
214	9
215	3
216	16
217	540
218	116
219	55
220	8
221	14
222	3
223	1
228	1
229	2
230	5
231	14
232	5
233	2
235	2
240	2
242	2
243	2
244	10
245	4
246	2
247	5
248	1
254	1
256	7
257	2
258	1
260	5
261	2
262	5
263	13
264	3
265	2
268	1
270	1
272	1
274	2
275	4
276	5
277	36
278	16
279	8
280	1
288	2
291	5
292	1
293	1
302	1
303	1
305	2
306	3
307	151
308	53
309	25
310	6
311	1
318	1
319	2
332	1
333	2
334	4
335	10
336	4
337	1
364	19
365	9
366	3
