Mass spectrum: 3-Hydroxyisovaleric acid; GC-EI-TOF; MS; n TMS; RT:386.846 sec
Name: 3-Hydroxyisovaleric acid
Class: Natural Product
Formula: C5H10O3
Exact mass: 118.06299
SMILES: OC(=O)CC(C)(C)O
InChI: InChI=1S/C5H10O3/c1-5(2,8)3-4(6)7/h8H,3H2,1-2H3,(H,6,7)
Instrument: Pegasus III TOF-MS system, Leco; GC 6890, Agilent Technologies
Instrument type: GC-EI-TOF
Ms type: MS
Ion mode: POSITIVE
Column name: CP-SIL 8 CB LOW BLEED/MS
Retention time: 386.846  sec
m/z	relative intensity
85	56
86	5
87	15
88	7
89	7
90	1
91	1
95	131
96	12
97	6
98	1
99	18
100	3
101	21
102	5
103	13
104	2
105	7
106	1
111	2
112	2
113	33
114	6
115	178
116	34
117	52
118	6
119	8
128	1
129	8
130	10
131	802
132	98
133	102
134	12
135	6
143	7
144	1
145	1
146	1
147	999
148	160
149	93
150	10
151	3
156	3
157	21
158	3
159	3
162	1
163	16
164	2
165	1
172	2
173	1
189	16
190	3
191	9
192	1
203	21
204	40
205	48
206	11
207	4
231	7
232	1
247	89
248	19
249	8
250	1
