Mass spectrum: D-Arabinose 5-phosphate; GC-EI-TOF; MS; n TMS; RT:803.445 sec
Name: D-Arabinose-5-phosphate
Name: D-Arabinose 5-phosphate
Class: Natural Product
Formula: C5H11O8P
Exact mass: 230.01915
SMILES: O=C[C@@H](O)[C@H](O)[C@H](O)COP(O)(O)=O
InChI: InChI=1S/C5H11O8P/c6-1-3(7)5(9)4(8)2-13-14(10,11)12/h1,3-5,7-9H,2H2,(H2,10,11,12)/t3-,4-,5+/m1/s1
Instrument: Pegasus III TOF-MS system, Leco; GC 6890, Agilent Technologies
Instrument type: GC-EI-TOF
Ms type: MS
Ion mode: POSITIVE
Column name: CP-SIL 8 CB LOW BLEED/MS
Retention time: 803.445  sec
m/z	relative intensity
85	35
86	24
87	31
88	16
89	315
90	29
91	34
92	5
93	8
94	31
95	5
96	4
97	2
98	21
99	45
100	39
101	253
102	55
103	179
104	22
105	69
106	11
107	15
108	2
109	5
110	3
111	18
112	8
113	40
114	18
115	83
116	86
117	113
118	13
119	68
120	8
121	26
123	8
124	3
125	8
126	35
127	38
128	17
129	636
130	154
131	144
132	26
133	391
134	58
135	112
136	9
137	39
138	8
140	6
141	13
142	22
143	64
144	8
145	22
146	8
147	720
148	129
149	118
150	14
151	47
152	9
153	9
155	3
156	9
157	60
158	140
159	44
160	99
161	26
162	6
163	36
164	6
165	13
166	7
167	14
168	30
169	14
170	7
171	4
172	10
173	33
174	34
175	12
176	7
177	19
178	2
179	14
180	7
181	56
182	13
183	27
184	15
185	7
186	2
188	2
189	50
190	10
191	57
192	11
193	62
194	10
195	62
196	12
197	15
198	25
199	6
200	17
201	4
203	10
204	27
205	68
206	12
207	102
208	16
209	13
210	5
211	333
212	58
213	30
214	8
215	21
216	15
217	758
218	180
219	77
220	13
221	12
222	4
223	3
225	81
226	16
227	84
228	19
229	10
230	5
231	12
233	5
234	1
235	1
238	1
239	4
240	3
241	8
242	7
243	16
244	7
246	4
247	3
249	2
251	2
252	1
253	17
254	7
255	10
256	24
257	15
258	6
260	2
263	2
265	4
267	1
268	5
269	10
270	2
271	4
272	12
274	6
275	2
278	2
281	1
283	24
284	10
285	33
286	7
287	5
288	4
290	2
291	3
292	1
294	5
295	3
296	2
298	22
299	759
300	268
301	129
302	30
303	3
304	7
305	7
306	7
307	7
308	3
309	3
310	2
311	4
313	5
314	37
315	999
316	310
317	158
318	36
319	11
321	2
323	1
324	1
328	17
329	11
330	6
331	7
332	5
333	3
337	3
341	17
342	9
343	5
344	1
345	1
347	2
349	1
354	1
357	51
358	23
359	5
360	4
362	3
363	1
364	1
369	6
371	2
372	3
373	15
374	6
377	3
379	3
383	1
385	3
387	26
388	9
389	13
390	3
391	4
392	1
396	1
401	2
402	2
403	20
404	9
405	2
406	4
423	1
424	1
429	1
431	3
441	3
442	2
443	1
446	3
449	1
450	1
452	1
455	1
458	3
459	53
460	33
461	11
462	3
465	2
467	1
468	2
469	2
472	3
476	1
480	1
481	1
494	1
495	2
496	4
499	2
