Mass spectrum: L-Citrulline; GC-EI-TOF; MS; n TMS; RT:697.043 sec
Name: L-Citrulline
Class: Natural Product
Formula: C6H13N3O3
Exact mass: 175.09569
SMILES: NC(=O)NCCC[C@H](N)C(O)=O
InChI: InChI=1S/C6H13N3O3/c7-4(5(10)11)2-1-3-9-6(8)12/h4H,1-3,7H2,(H,10,11)(H3,8,9,12)/t4-/m0/s1
Instrument: Pegasus III TOF-MS system, Leco; GC 6890, Agilent Technologies
Instrument type: GC-EI-TOF
Ms type: MS
Ion mode: POSITIVE
Column name: CP-SIL 8 CB LOW BLEED/MS
Retention time: 697.043  sec
m/z	relative intensity
85	73
86	54
87	16
88	18
90	25
92	5
94	5
95	2
96	16
97	17
98	48
99	163
100	181
101	44
102	20
103	51
104	4
111	10
112	23
113	32
114	50
115	106
116	40
117	22
118	11
119	12
120	2
121	10
122	19
124	1
125	31
126	20
127	77
128	58
129	44
130	43
131	60
132	53
133	65
134	16
136	7
137	2
139	27
140	77
141	202
142	398
143	90
144	20
146	4
147	134
148	44
149	17
152	9
153	12
154	34
155	68
156	62
157	999
158	164
159	83
160	17
166	10
167	21
168	35
169	16
170	22
171	65
172	89
173	21
174	16
175	2
176	1
177	7
180	2
181	8
182	15
183	2
184	23
185	9
186	14
187	34
188	17
189	4
190	4
194	2
197	15
198	6
200	3
201	1
202	15
203	6
204	6
206	1
210	10
214	8
215	21
216	43
217	7
218	46
219	14
222	1
226	5
230	15
231	7
232	9
239	5
240	21
241	10
242	10
244	43
245	24
246	12
249	4
250	6
252	5
256	355
257	98
258	44
259	1
261	5
262	12
263	1
266	1
268	4
269	17
273	8
275	2
277	8
281	3
283	8
285	2
292	5
296	2
300	3
301	8
306	5
307	5
312	6
313	3
315	2
317	4
318	5
319	3
320	3
322	7
324	4
327	5
328	3
330	16
332	10
336	3
341	8
343	3
345	3
349	1
353	3
355	1
357	3
358	14
363	1
366	7
370	6
373	11
376	8
377	1
379	2
381	5
383	5
384	6
391	6
392	1
393	5
395	4
399	5
403	2
408	5
410	5
411	5
414	9
416	7
417	19
420	4
422	1
427	2
428	3
429	7
433	14
437	3
441	3
443	4
446	3
448	5
450	2
451	7
453	1
464	5
470	1
471	10
474	6
475	6
480	4
482	1
491	5
492	2
493	1
498	2
499	5
