Mass spectrum: Spermine; GC-EI-TOF; MS; n TMS; RT:1016.767 sec
Name: Spermine
Class: Natural Product
Formula: C10H26N4
Exact mass: 202.21575
SMILES: NCCCNCCCCNCCCN
InChI: InChI=1S/C10H26N4/c11-5-3-9-13-7-1-2-8-14-10-4-6-12/h13-14H,1-12H2
Instrument: Pegasus III TOF-MS system, Leco; GC 6890, Agilent Technologies
Instrument type: GC-EI-TOF
Ms type: MS
Ion mode: POSITIVE
Column name: CP-SIL 8 CB LOW BLEED/MS
Retention time: 1016.767  sec
m/z	relative intensity
85	23
86	512
87	56
88	34
89	4
90	1
92	1
93	1
94	5
95	1
96	13
97	5
98	25
99	14
100	241
101	49
102	113
103	15
104	6
108	2
109	4
110	17
111	6
112	31
113	13
114	68
115	61
116	999
117	129
118	44
119	4
120	1
122	1
123	1
124	3
125	2
126	14
127	7
128	69
129	136
130	173
131	37
132	15
133	3
134	1
135	1
136	1
138	1
139	2
140	27
141	12
142	229
143	43
144	863
145	118
146	95
147	14
148	6
149	1
152	3
153	1
154	32
155	12
156	260
157	54
158	33
159	7
160	281
161	51
162	23
163	3
164	1
166	1
167	1
168	14
169	6
170	80
171	17
172	160
173	45
174	482
175	91
176	41
177	5
180	1
182	10
183	13
184	12
185	7
186	40
187	12
188	13
189	3
190	1
197	1
198	2
199	2
200	6
201	85
202	21
203	9
204	2
211	1
212	1
213	1
214	1
215	4
216	1
224	1
227	1
228	1
229	3
230	1
237	2
239	1
241	1
242	2
243	4
244	2
245	2
255	2
256	1
257	2
258	1
259	9
260	2
261	1
269	2
271	3
272	1
273	2
274	1
299	13
300	4
301	2
303	11
304	4
305	2
329	33
330	14
331	7
332	2
343	1
344	1
345	6
346	3
347	1
