Mass spectrum: Melibiose; GC-EI-TOF; MS; n TMS; RT:1051.140 sec
Name: Melibiose
Class: Natural Product
Formula: C12H22O11
Exact mass: 342.11621
SMILES: OC[C@@H](O1)[C@H](O)[C@H](O)[C@@H](O)[C@@H](OC[C@@H](O2)[C@@H](O)[C@H](O)[C@@H](O)C(O)2)1
InChI: InChI=1S/C12H22O11/c13-1-3-5(14)8(17)10(19)12(23-3)21-2-4-6(15)7(16)9(18)11(20)22-4/h3-20H,1-2H2/t3-,4-,5+,6-,7+,8+,9-,10-,11?,12+/m1/s1
Instrument: Pegasus III TOF-MS system, Leco; GC 6890, Agilent Technologies
Instrument type: GC-EI-TOF
Ms type: MS
Ion mode: POSITIVE
Column name: CP-SIL 8 CB LOW BLEED/MS
Retention time: 1051.140  sec
m/z	relative intensity
85	28
86	9
87	22
88	11
89	178
90	17
91	10
92	4
95	4
96	7
97	25
98	4
99	25
100	76
101	138
102	53
103	743
104	76
105	77
106	9
107	2
109	23
110	1
111	23
112	2
113	34
114	16
115	29
116	79
117	244
118	36
119	38
120	4
121	1
122	1
123	2
125	1
126	9
127	24
128	12
129	558
130	86
131	115
132	23
133	277
134	39
135	28
136	1
137	1
138	1
139	12
141	20
142	22
143	93
144	15
145	31
146	9
147	789
148	132
149	107
150	13
151	11
152	4
153	12
154	6
155	84
156	15
157	94
158	19
159	22
160	294
161	171
162	36
163	46
164	6
165	4
166	1
167	6
168	3
169	374
170	63
171	43
172	13
173	29
174	9
175	20
176	3
177	23
178	6
179	3
180	4
181	4
182	3
183	12
184	4
185	5
186	4
187	8
188	5
189	108
190	38
191	219
192	48
193	24
195	1
196	3
197	1
199	13
200	6
201	19
202	5
203	52
204	999
205	282
206	113
207	28
208	3
209	1
210	1
211	3
214	9
215	15
216	13
217	539
218	142
219	67
220	16
221	37
222	10
223	2
226	1
227	12
228	5
229	35
230	27
231	43
232	15
233	62
234	12
235	22
236	1
238	1
240	3
241	11
242	3
243	119
244	40
245	38
246	16
247	23
248	6
249	4
250	1
251	2
255	1
256	1
257	12
258	4
259	27
260	7
261	5
262	2
263	5
264	1
265	5
266	3
268	11
269	4
271	108
272	30
273	49
274	16
275	15
276	4
277	8
278	6
279	2
283	2
285	2
286	3
287	3
288	1
289	3
291	33
292	8
293	6
295	2
296	1
300	8
301	4
302	2
303	3
304	3
305	41
306	18
307	23
308	8
309	1
313	1
317	11
318	8
319	87
320	31
321	13
322	3
323	1
324	1
325	1
328	1
330	1
331	32
332	19
333	9
334	4
337	3
339	1
345	5
346	1
347	2
349	5
356	1
359	3
360	28
361	430
362	169
363	104
364	34
365	10
366	3
374	1
376	1
377	3
379	3
381	1
383	2
388	2
390	1
391	1
392	1
394	3
400	1
403	1
404	1
405	1
408	3
409	3
420	2
422	1
435	1
439	2
442	1
443	1
445	1
450	3
451	19
452	6
453	5
455	1
460	1
466	1
470	1
471	1
474	1
480	3
482	1
488	2
490	1
