Mass spectrum: 5-Methylcytosine; GC-EI-TOF; MS; n TMS; RT:576.447 sec
Name: 5-Methylcytosine
Class: Natural Product
Formula: C5H7N3O
Exact mass: 125.05891
SMILES: CC(=C1)C(N)=NC(=O)N1
InChI: InChI=1S/C5H7N3O/c1-3-2-7-5(9)8-4(3)6/h2H,1H3,(H3,6,7,8,9)
Instrument: Pegasus III TOF-MS system, Leco; GC 6890, Agilent Technologies
Instrument type: GC-EI-TOF
Ms type: MS
Ion mode: POSITIVE
Column name: CP-SIL 8 CB LOW BLEED/MS
Retention time: 576.447  sec
m/z	relative intensity
85	66
86	118
87	22
88	13
89	4
90	2
91	1
92	2
93	4
94	4
95	12
96	33
97	24
98	48
99	40
100	273
101	36
102	21
103	9
104	3
105	10
106	6
107	5
108	7
109	19
110	32
111	37
112	319
113	54
114	28
115	18
116	24
117	17
118	5
119	10
120	57
121	6
122	2
123	14
124	10
125	9
126	29
127	18
128	17
129	5
130	74
131	52
132	29
133	41
134	11
135	4
136	1
137	21
138	28
139	148
140	23
141	18
142	9
143	8
144	6
145	1
146	84
147	281
148	52
149	24
150	7
151	4
152	7
153	22
154	11
155	6
156	4
157	25
158	16
159	5
160	1
164	44
165	8
166	14
167	5
168	5
169	7
170	7
171	5
172	8
173	3
174	1
178	2
179	1
180	7
181	16
182	42
183	9
184	161
185	38
186	17
187	2
188	1
194	2
195	3
196	38
197	14
198	9
199	2
200	1
208	1
209	1
210	1
211	28
212	8
213	4
214	1
215	1
222	1
223	1
224	9
225	9
226	4
227	18
228	4
229	1
237	2
238	118
239	52
240	19
241	4
245	1
246	1
247	1
248	1
249	1
250	1
252	5
253	9
254	999
255	263
256	104
257	19
258	3
259	1
260	1
261	1
262	1
263	1
264	1
265	1
268	23
269	198
270	54
271	20
272	3
273	1
