Mass spectrum: 3-Amino-2,3-dihydrobenzoic acid; GC-EI-TOF; MS; n TMS; RT:593.072 sec
Name: 3-Amino-2,3-dihydrobenzoic acid
Class: Natural Product
Formula: C7H9NO2
Exact mass: 139.06333
SMILES: NC(C=1)CC(=CC1)C(O)=O
InChI: InChI=1S/C7H9NO2/c8-6-3-1-2-5(4-6)7(9)10/h1-3,6H,4,8H2,(H,9,10)
Instrument: Pegasus III TOF-MS system, Leco; GC 6890, Agilent Technologies
Instrument type: GC-EI-TOF
Ms type: MS
Ion mode: POSITIVE
Column name: CP-SIL 8 CB LOW BLEED/MS
Retention time: 593.072  sec
m/z	relative intensity
85	27
86	66
87	21
88	19
89	24
90	15
91	66
92	133
93	362
94	521
95	72
96	26
97	30
98	25
99	14
100	416
101	64
102	247
103	94
104	36
105	450
106	60
107	22
108	17
109	31
110	42
111	14
112	23
113	16
114	3
115	20
116	11
117	41
118	20
119	37
120	131
121	114
122	32
123	78
124	117
125	27
126	61
127	29
128	16
129	12
130	17
131	47
132	47
133	66
134	79
135	184
136	70
137	22
138	10
139	13
140	24
141	10
142	6
143	4
144	2
145	1
146	28
147	580
148	133
149	76
150	668
151	142
152	63
153	11
154	7
155	2
156	4
157	6
158	9
159	3
160	5
161	3
162	12
163	6
164	84
165	355
166	999
167	222
168	164
169	41
170	10
171	1
172	21
173	4
174	12
175	3
176	13
177	4
178	52
179	192
180	41
181	17
182	9
183	14
184	56
185	9
186	3
190	3
191	1
192	115
193	114
194	121
195	37
196	16
197	4
198	1
207	2
208	21
209	11
210	7
211	10
212	1
214	1
215	1
222	32
223	31
224	20
225	6
226	1
236	1
237	1
238	8
239	4
240	7
241	2
242	1
250	1
251	1
252	5
253	2
254	4
255	4
256	15
257	6
258	1
266	53
267	46
268	221
269	60
270	23
271	4
274	1
281	11
282	19
283	277
284	75
285	30
286	6
