Mass spectrum: Sebacic acid; GC-EI-TOF; MS; n TMS; RT:727.742 sec
Name: Sebacic acid
Class: Natural Product
Formula: C10H18O4
Exact mass: 202.12051
SMILES: OC(=O)CCCCCCCCC(O)=O
InChI: InChI=1S/C10H18O4/c11-9(12)7-5-3-1-2-4-6-8-10(13)14/h1-8H2,(H,11,12)(H,13,14)
Instrument: Pegasus III TOF-MS system, Leco; GC 6890, Agilent Technologies
Instrument type: GC-EI-TOF
Ms type: MS
Ion mode: POSITIVE
Column name: CP-SIL 8 CB LOW BLEED/MS
Retention time: 727.742  sec
m/z	relative intensity
85	98
86	76
87	41
88	43
89	81
90	17
91	94
92	22
93	315
94	43
95	222
96	67
97	354
98	100
99	104
100	19
101	81
102	18
103	53
104	8
105	90
106	11
107	217
108	24
109	38
110	48
111	59
112	26
113	18
114	3
115	55
116	245
117	828
118	98
119	123
120	44
121	271
122	33
123	40
124	37
125	290
126	29
127	12
128	11
129	999
130	146
131	233
132	101
133	165
134	33
135	26
136	5
137	73
138	208
139	77
140	10
141	20
142	11
143	99
144	18
145	99
146	20
147	443
148	116
149	731
150	109
151	74
152	7
153	6
155	32
156	56
157	72
158	38
159	67
160	10
161	8
162	5
163	8
165	10
166	186
167	60
168	12
169	17
170	40
171	45
172	9
173	48
174	7
175	3
176	1
177	7
178	3
179	3
181	14
182	5
183	32
184	8
185	148
186	25
187	19
188	5
189	21
190	3
191	11
192	1
194	2
195	6
197	23
198	3
199	44
200	14
201	10
202	25
203	44
204	257
205	70
206	27
207	3
210	1
211	10
213	63
214	28
215	404
216	72
217	222
218	55
219	23
220	3
223	30
224	5
225	2
227	2
228	80
229	16
230	6
231	9
232	3
238	3
239	10
240	3
241	4
245	2
246	1
255	2
256	1
257	14
259	12
260	4
263	1
265	1
273	3
286	1
287	36
288	6
289	4
297	2
313	2
314	3
315	39
316	14
317	6
318	3
322	2
327	2
329	2
330	16
331	370
332	122
333	47
334	8
348	2
349	3
350	1
357	1
362	1
393	2
398	3
409	2
420	1
423	1
468	1
494	1
