Mass spectrum: D-(-)-Fructose; GC-EI-TOF; MS; n TMS; RT:712.159 sec
Name: D-(-)-Fructose
Class: Natural Product
Formula: C6H12O6
Exact mass: 180.06339
SMILES: OC[C@@H](O)[C@@H](O)[C@H](O)C(=O)CO
InChI: InChI=1S/C6H12O6/c7-1-3(9)5(11)6(12)4(10)2-8/h3,5-9,11-12H,1-2H2/t3-,5-,6-/m1/s1
Instrument: Pegasus III TOF-MS system, Leco; GC 6890, Agilent Technologies
Instrument type: GC-EI-TOF
Ms type: MS
Ion mode: POSITIVE
Column name: CP-SIL 8 CB LOW BLEED/MS
Retention time: 712.159  sec
m/z	relative intensity
85	12
86	6
87	15
88	16
89	152
90	14
91	8
92	1
94	2
96	1
97	1
98	5
99	9
100	27
101	38
102	12
103	999
104	97
105	49
106	3
107	1
110	1
111	3
112	2
113	13
114	36
115	17
116	14
117	141
118	17
119	20
120	2
121	1
126	7
127	4
128	8
129	91
130	19
131	50
132	9
133	161
134	21
135	12
136	1
140	3
141	2
142	10
143	18
144	5
145	11
146	4
147	392
148	63
149	42
150	5
151	3
152	1
154	2
155	1
156	5
157	16
158	7
159	6
160	2
161	4
163	18
164	2
165	1
168	3
169	1
170	2
171	1
172	30
173	38
174	9
175	13
176	3
177	9
178	1
180	2
182	1
184	1
185	1
186	4
187	2
188	5
189	61
190	15
191	34
192	7
193	4
196	1
198	2
200	3
201	18
202	12
203	9
204	33
205	45
206	11
207	12
208	2
209	1
214	6
215	2
216	10
217	468
218	99
219	46
220	8
221	14
222	3
223	2
228	1
229	3
230	7
231	14
232	5
233	2
235	3
240	2
242	2
243	1
244	6
245	2
246	2
247	2
248	1
254	1
256	7
257	1
258	1
260	5
261	3
262	6
263	13
264	3
265	2
266	1
268	1
270	1
272	1
274	1
275	1
276	4
277	33
278	13
279	6
280	1
288	3
291	9
292	2
293	1
300	1
302	2
303	1
304	1
305	2
306	4
307	148
308	48
309	23
310	5
311	1
318	2
319	2
320	1
330	2
332	1
333	3
334	5
335	11
336	4
337	1
350	1
363	1
364	19
365	8
366	4
367	1
