Mass spectrum: Hippuric acid; GC-EI-TOF; MS; n TMS; RT:693.329 sec
Name: Hippurate
Name: Hippuric acid
Class: Natural Product
Formula: C9H9NO3
Exact mass: 179.05824
SMILES: OC(=O)CNC(=O)c(c1)cccc1
InChI: InChI=1S/C9H9NO3/c11-8(12)6-10-9(13)7-4-2-1-3-5-7/h1-5H,6H2,(H,10,13)(H,11,12)
Instrument: Pegasus III TOF-MS system, Leco; GC 6890, Agilent Technologies
Instrument type: GC-EI-TOF
Ms type: MS
Ion mode: POSITIVE
Column name: CP-SIL 8 CB LOW BLEED/MS
Retention time: 693.329  sec
m/z	relative intensity
85	3
86	21
87	8
88	8
89	36
90	22
91	321
92	27
93	4
95	1
96	1
99	1
100	12
101	11
102	6
103	30
104	25
105	999
106	82
107	8
114	1
115	6
116	49
117	76
118	12
119	9
120	1
121	6
129	1
130	8
131	12
132	7
133	34
134	8
135	13
136	1
137	1
143	1
144	10
145	2
146	10
147	91
148	19
149	16
150	2
151	1
158	1
159	1
160	1
161	6
162	10
163	17
164	3
165	1
174	8
175	2
176	3
177	18
178	41
179	9
180	2
189	1
190	29
191	6
192	23
193	4
194	1
204	32
205	18
206	176
207	34
208	10
209	1
218	9
219	1
220	1
232	1
233	35
234	8
235	2
236	4
237	1
264	3
265	1
278	8
279	2
280	24
281	11
282	3
283	1
306	1
308	29
309	9
310	3
322	13
323	17
324	5
325	2
