Mass spectrum: N-Acetyl-L-aspartic acid; GC-EI-TOF; MS; n TMS; RT:627.079 sec
Name: N-Acetyl-L-aspartic acid
Class: Natural Product
Formula: C6H9NO5
Exact mass: 175.04807
SMILES: CC(=O)N[C@@H](CC(O)=O)C(O)=O
InChI: InChI=1S/C6H9NO5/c1-3(8)7-4(6(11)12)2-5(9)10/h4H,2H2,1H3,(H,7,8)(H,9,10)(H,11,12)/t4-/m0/s1
Instrument: Pegasus III TOF-MS system, Leco; GC 6890, Agilent Technologies
Instrument type: GC-EI-TOF
Ms type: MS
Ion mode: POSITIVE
Column name: CP-SIL 8 CB LOW BLEED/MS
Retention time: 627.079  sec
m/z	relative intensity
85	66
86	46
87	38
88	21
89	44
90	7
91	6
92	11
93	14
94	12
95	7
96	23
97	9
98	57
99	64
100	320
101	141
102	62
103	54
104	8
105	20
106	2
107	1
108	2
110	3
111	21
112	777
113	72
114	110
115	90
116	434
117	177
118	41
119	42
120	5
121	3
124	4
125	1
126	13
127	25
128	48
129	199
130	122
131	183
132	50
133	371
134	59
135	47
136	6
137	2
139	9
140	32
141	9
142	226
143	59
144	135
145	37
146	18
147	999
148	171
149	214
150	34
151	16
152	1
153	1
154	7
155	37
156	280
157	70
158	209
159	43
160	78
161	19
162	4
163	18
164	2
165	1
166	1
167	1
168	8
169	11
170	11
171	27
172	39
173	20
174	27
175	31
176	14
177	13
178	2
179	2
182	2
183	27
184	960
185	154
186	93
187	14
188	31
189	26
190	22
191	25
192	6
193	3
198	2
200	6
201	9
202	53
203	31
204	37
205	17
206	6
207	7
208	1
209	1
211	14
212	3
213	5
214	32
215	9
216	31
217	35
218	100
219	30
220	11
221	10
222	2
223	2
226	1
227	1
228	2
229	4
230	324
231	76
232	200
233	50
234	23
235	3
236	1
237	1
240	2
242	2
243	1
244	6
245	268
246	61
247	30
248	4
249	2
256	1
258	84
259	30
260	53
261	11
262	5
263	2
265	1
272	6
273	44
274	874
275	223
276	93
277	16
278	4
286	36
287	8
288	6
289	2
300	1
301	75
302	23
303	8
304	17
305	3
306	20
307	5
308	2
309	1
317	7
318	2
319	2
348	38
349	23
350	9
351	3
375	4
376	104
377	43
378	17
379	3
391	27
392	9
393	3
394	1
