Mass spectrum: Podophyllotoxin; GC-EI-TOF; MS; n TMS; RT:1203.001 sec
Name: Podophyllotoxin
Class: Natural Product
Formula: C22H22O8
Exact mass: 414.13147
SMILES: COc(c(OC)5)cc(cc(OC)5)C(c21)C([H])(C(=O)4)C([H])(CO4)C(O)c(cc(O3)c(OC3)c2)1
InChI: InChI=1S/C22H22O8/c1-25-16-4-10(5-17(26-2)21(16)27-3)18-11-6-14-15(30-9-29-14)7-12(11)20(23)13-8-28-22(24)19(13)18/h4-7,13,18-20,23H,8-9H2,1-3H3/t13-,18+,19-,20-/m0/s1
Instrument: Pegasus III TOF-MS system, Leco; GC 6890, Agilent Technologies
Instrument type: GC-EI-TOF
Ms type: MS
Ion mode: POSITIVE
Column name: CP-SIL 8 CB LOW BLEED/MS
Retention time: 1203.001  sec
m/z	relative intensity
85	36
86	16
87	27
88	26
89	55
90	8
91	23
92	13
93	44
94	13
95	44
96	17
97	16
98	13
99	8
100	11
101	15
102	25
103	36
104	35
105	2
106	15
107	23
108	16
109	29
110	40
111	16
112	7
113	33
114	19
115	44
116	13
117	28
118	28
119	28
120	15
121	8
122	14
123	17
124	17
125	42
126	35
127	61
128	42
129	44
130	8
131	26
132	21
133	28
134	19
135	17
136	15
137	15
138	27
139	65
140	20
141	63
142	14
143	28
144	8
145	8
146	8
147	1
148	19
149	23
150	20
151	44
152	45
153	230
154	59
155	32
156	7
157	4
158	2
159	22
160	8
161	19
162	6
163	19
164	13
165	74
166	9
167	19
168	999
169	130
170	27
171	31
172	29
173	15
174	8
175	10
176	27
177	15
178	18
179	16
180	22
181	59
182	7
183	8
184	9
185	112
186	19
187	33
188	20
189	27
190	17
191	8
192	15
193	6
194	17
195	20
196	7
197	4
198	13
199	21
200	56
201	21
202	13
203	11
204	15
205	17
206	12
207	13
208	11
209	18
210	17
211	15
212	8
213	7
214	1
215	10
216	19
217	19
218	3
219	24
220	17
221	24
222	13
223	16
224	19
225	17
226	5
227	11
228	50
229	33
230	4
231	10
232	8
233	16
234	13
235	14
236	17
237	29
238	6
239	18
240	12
241	19
242	14
243	21
245	14
246	14
247	18
248	13
249	16
250	17
251	10
252	11
253	9
254	25
255	21
256	9
258	5
259	23
260	12
261	33
262	33
263	13
264	17
265	17
266	6
267	13
268	5
269	15
270	6
271	18
273	2
274	24
275	20
276	8
277	14
278	19
279	13
280	17
281	5
282	29
283	30
284	6
285	4
286	7
287	11
288	7
289	13
290	31
291	22
292	10
293	4
294	1
295	10
296	9
297	16
298	31
299	18
300	19
301	5
302	12
303	6
304	21
305	38
306	21
307	20
308	19
309	6
310	14
311	3
312	10
313	18
314	9
315	2
316	3
318	19
319	21
320	40
321	50
322	14
323	8
324	8
325	14
326	7
327	3
328	1
329	9
330	1
332	2
333	3
334	11
335	11
336	15
337	15
338	23
339	19
340	14
341	9
342	4
344	3
345	5
346	1
347	4
348	5
349	10
350	8
351	41
352	18
353	11
354	13
355	1
356	4
357	4
358	1
364	11
365	25
366	10
367	11
369	5
370	8
371	3
372	6
375	3
376	3
378	1
379	5
380	10
381	13
382	8
383	9
384	6
385	4
386	1
392	1
394	3
395	6
396	17
397	14
398	5
400	5
401	3
402	6
404	2
405	1
408	4
409	3
410	4
411	1
412	11
413	2
414	1
415	1
416	2
421	2
424	4
425	7
426	1
427	12
428	8
429	9
433	1
438	4
439	1
440	8
441	3
445	2
446	1
447	1
448	5
450	4
452	3
455	1
456	8
457	1
459	1
460	1
467	2
468	1
469	4
470	5
471	4
472	6
474	3
482	2
483	5
485	38
486	177
487	68
488	21
489	11
490	6
491	1
492	2
495	3
500	1
