Mass spectrum: D-Sorbitol 6-phosphate; GC-EI-TOF; MS; n TMS; RT:893.001 sec
Name: D-Sorbitol-6-phosphate
Name: D-Sorbitol 6-phosphate
Class: Natural Product
Formula: C6H15O9P
Exact mass: 262.04537
SMILES: OC[C@H](O)[C@@H](O)[C@H](O)[C@H](O)COP(O)(O)=O
InChI: InChI=1S/C6H15O9P/c7-1-3(8)5(10)6(11)4(9)2-15-16(12,13)14/h3-11H,1-2H2,(H2,12,13,14)/t3-,4+,5+,6+/m0/s1
Instrument: Pegasus III TOF-MS system, Leco; GC 6890, Agilent Technologies
Instrument type: GC-EI-TOF
Ms type: MS
Ion mode: POSITIVE
Column name: CP-SIL 8 CB LOW BLEED/MS
Retention time: 893.001  sec
m/z	relative intensity
85	23
86	6
87	30
88	17
89	79
90	11
91	13
92	4
93	6
94	3
95	3
96	3
97	17
98	6
99	25
100	4
101	208
102	31
103	398
104	42
105	36
106	6
107	10
108	1
109	6
110	1
111	20
112	3
113	36
114	5
115	57
116	112
117	328
118	38
119	46
120	6
121	15
122	1
123	6
125	5
126	2
127	20
128	7
129	315
130	45
131	115
132	20
133	311
134	45
135	66
136	8
137	22
138	2
139	5
140	3
141	16
142	13
143	76
144	11
145	19
146	4
147	999
148	166
149	130
150	18
151	34
152	4
153	11
154	5
155	30
156	10
157	109
158	16
159	19
160	3
161	11
162	2
163	24
164	4
165	10
166	3
167	22
168	4
169	35
170	14
171	8
172	1
173	7
174	3
175	21
176	6
177	18
178	4
179	9
180	3
181	28
182	10
183	57
184	10
185	9
186	2
187	6
188	2
189	71
190	23
191	139
192	30
193	53
194	10
195	29
196	7
197	8
198	2
199	2
200	2
201	6
202	3
203	26
204	146
205	176
206	44
207	80
208	18
209	16
210	4
211	156
212	27
213	16
214	4
215	41
216	12
217	290
218	110
219	40
220	10
221	28
222	7
223	5
224	1
225	50
226	10
227	36
228	11
229	23
230	27
231	50
232	14
233	6
234	1
235	1
237	1
239	5
240	2
241	6
242	2
243	25
244	17
245	7
246	4
247	3
248	1
249	1
251	1
253	10
254	4
255	36
256	11
257	29
258	7
259	49
260	12
261	4
265	2
267	2
269	11
270	3
271	3
272	22
273	13
274	3
275	1
277	4
278	3
279	1
283	21
284	9
285	21
286	5
287	3
289	1
291	12
292	3
293	1
297	2
298	17
299	471
300	142
301	75
302	17
303	4
304	2
305	15
306	7
307	11
308	3
309	2
310	1
311	1
313	15
314	31
315	305
316	89
317	51
318	13
319	31
320	10
321	4
327	1
328	25
329	14
330	6
331	21
332	8
333	3
341	15
342	9
343	6
344	11
345	17
346	7
347	5
348	1
349	9
350	3
351	1
356	6
357	126
358	46
359	23
360	5
361	1
362	6
363	2
364	1
369	3
370	18
371	12
372	6
373	15
374	7
375	3
383	3
384	2
385	6
386	45
387	424
388	182
389	116
390	37
391	14
392	3
393	1
415	2
416	1
431	1
442	1
443	1
457	1
459	5
460	3
461	8
462	4
463	1
470	2
471	32
472	20
473	10
474	3
