Mass spectrum: D-(+)-Allose; GC-EI-TOF; MS; n TMS; RT:715.294 sec
Name: D-(+)-Allose
Class: Natural Product
Formula: C6H12O6
Exact mass: 180.06339
SMILES: OC[C@@H](O1)[C@@H](O)[C@H](O)[C@@H](O)C(O)1
InChI: InChI=1S/C6H12O6/c7-1-2-3(8)4(9)5(10)6(11)12-2/h2-11H,1H2/t2-,3-,4-,5-,6?/m1/s1
Instrument: Pegasus III TOF-MS system, Leco; GC 6890, Agilent Technologies
Instrument type: GC-EI-TOF
Ms type: MS
Ion mode: POSITIVE
Column name: CP-SIL 8 CB LOW BLEED/MS
Retention time: 715.294  sec
m/z	relative intensity
85	19
86	24
87	24
88	23
89	256
90	26
91	12
92	2
93	1
94	2
95	2
96	3
97	13
98	7
99	20
100	51
101	77
102	40
103	399
104	42
105	99
106	11
107	5
108	1
109	1
110	5
111	10
112	8
113	17
114	47
115	30
116	29
117	356
118	38
119	35
120	3
121	2
124	1
125	2
126	7
127	15
128	16
129	422
130	74
131	102
132	18
133	230
134	32
135	21
136	2
137	1
138	2
139	2
140	4
141	9
142	17
143	52
144	10
145	30
146	8
147	999
148	160
149	105
150	13
151	7
152	3
153	2
154	4
155	6
156	6
157	311
158	53
159	25
160	321
161	55
162	18
163	31
164	5
165	3
166	1
167	1
168	5
169	10
170	6
171	4
172	10
173	15
174	7
175	17
176	4
177	11
178	3
179	2
180	2
181	2
182	3
183	1
184	2
185	2
186	10
187	5
188	4
189	109
190	32
191	50
192	11
193	5
194	1
195	1
196	2
198	2
199	1
200	5
201	23
202	9
203	16
204	112
205	594
206	122
207	62
208	10
209	3
210	7
211	2
212	1
213	1
214	5
215	11
216	28
217	260
218	58
219	26
220	5
221	18
222	5
223	3
224	1
226	1
227	1
228	6
229	89
230	27
231	35
232	13
233	19
234	15
235	5
236	1
237	1
238	1
239	1
240	3
241	2
242	2
243	8
244	8
245	7
246	11
247	6
248	2
249	1
254	1
255	1
256	3
257	1
258	1
259	3
260	2
261	1
262	11
263	3
264	1
265	2
266	1
268	2
269	3
270	2
271	1
272	1
274	9
275	3
276	1
277	12
278	6
279	3
281	1
284	1
290	1
291	18
292	6
293	3
300	4
301	1
302	1
304	2
305	21
306	9
307	14
308	4
309	1
317	1
318	14
319	495
320	159
321	76
322	18
323	4
330	1
331	2
332	1
333	2
343	3
344	4
345	2
346	1
358	1
374	3
375	1
376	4
377	2
464	1
