Mass spectrum: D-Fructose 6-phosphate; GC-EI-TOF; MS; n TMS; RT:878.3143483 sec
Name: D-Fructose-6-Phosphate
Name: D-Fructose 6-phosphate
Class: Natural Product
Formula: C6H13O9P
Exact mass: 260.02972
SMILES: OCC(=O)C(O)C(O)C(O)COP(O)(O)=O
InChI: InChI=1S/C6H13O9P/c7-1-3(8)5(10)6(11)4(9)2-15-16(12,13)14/h4-7,9-11H,1-2H2,(H2,12,13,14)/t4-,5-,6-/m1/s1
Instrument: Pegasus III TOF-MS system, Leco; GC 6890, Agilent Technologies
Instrument type: GC-EI-TOF
Ms type: MS
Ion mode: POSITIVE
Column name: CP-SIL 8 CB LOW BLEED/MS
Retention time: 878.3143483 sec
m/z	relative intensity
85	72
86	57
87	53
88	23
89	369
90	37
91	36
92	11
93	2
94	5
95	2
96	15
97	20
98	21
99	58
100	80
101	359
102	105
103	268
104	39
105	180
106	32
107	20
109	6
110	7
111	21
112	23
113	55
114	95
115	98
116	156
117	146
118	25
119	72
120	9
121	19
122	4
123	7
124	6
125	4
126	14
127	38
128	41
129	593
130	146
131	265
132	44
133	507
134	81
135	124
136	12
137	36
138	29
139	11
140	5
141	26
142	43
143	91
144	18
145	63
146	9
147	999
148	171
149	140
150	16
151	50
152	13
153	16
154	9
155	19
156	23
157	292
158	68
159	34
160	642
161	156
162	44
163	44
164	7
165	11
166	1
167	5
168	13
169	32
170	21
171	23
172	13
173	25
174	11
175	11
176	6
177	12
178	6
179	10
180	8
181	52
182	15
183	19
184	11
185	5
186	47
187	10
188	2
189	80
190	24
191	125
192	24
193	80
194	15
195	59
196	29
197	21
198	7
199	5
200	11
201	8
202	6
203	27
204	113
205	54
206	10
207	113
208	21
209	19
210	22
211	255
212	76
213	31
214	13
215	28
216	44
217	295
218	88
219	31
220	5
221	22
222	2
223	1
224	1
225	87
226	15
227	66
228	44
229	34
230	37
231	51
232	18
233	4
234	12
237	3
240	3
241	11
242	8
243	37
244	14
245	7
246	16
247	114
248	21
249	8
251	1
252	3
253	24
254	8
255	10
256	7
257	1
259	9
260	3
261	6
262	9
267	5
268	10
269	28
270	17
271	8
272	3
274	21
275	8
278	1
279	1
281	1
283	25
284	14
285	34
286	21
287	5
291	13
292	3
297	2
298	27
299	664
300	255
301	126
302	35
303	9
304	1
305	10
306	4
310	1
311	5
313	17
314	46
315	281
316	98
317	50
318	11
319	7
320	5
321	2
324	1
328	11
329	2
330	3
331	97
332	39
333	13
334	2
338	1
340	2
341	34
342	22
343	12
344	3
356	12
357	247
358	107
359	44
360	11
361	3
363	3
364	13
365	1
369	2
370	5
371	9
372	6
373	18
374	11
375	4
376	5
384	2
385	7
386	104
387	831
388	393
389	222
390	94
391	30
392	12
393	1
394	2
400	1
403	11
404	5
405	3
407	7
408	2
427	1
429	1
441	1
443	3
444	3
461	3
470	12
471	97
472	58
473	24
474	7
475	5
484	1
487	1
494	1
500	1
