Mass spectrum: Dopamine; GC-EI-TOF; MS; n TMS; RT:799.743 sec
Name: Dopamine
Class: Natural Product
Formula: C8H11NO2
Exact mass: 153.07898
SMILES: NCCc(c1)cc(O)c(O)c1
InChI: InChI=1S/C8H11NO2/c9-4-3-6-1-2-7(10)8(11)5-6/h1-2,5,10-11H,3-4,9H2
Instrument: Pegasus III TOF-MS system, Leco; GC 6890, Agilent Technologies
Instrument type: GC-EI-TOF
Ms type: MS
Ion mode: POSITIVE
Column name: CP-SIL 8 CB LOW BLEED/MS
Retention time: 799.743  sec
m/z	relative intensity
85	4
86	224
87	23
88	9
89	3
90	1
91	7
95	1
97	1
99	3
100	96
101	16
102	30
103	11
104	14
105	8
106	1
107	1
109	1
113	2
114	2
115	7
116	9
117	18
118	4
119	12
120	1
121	1
128	1
129	2
130	29
131	25
132	6
133	16
134	2
135	3
136	1
137	1
143	1
144	6
145	4
146	8
147	22
148	4
149	13
150	2
151	2
158	8
159	3
160	2
161	3
162	2
163	3
164	1
165	1
172	9
173	3
174	999
175	174
176	77
177	14
178	3
179	61
180	10
181	4
189	1
190	1
191	1
192	2
193	9
194	2
195	2
205	1
207	2
209	4
210	1
218	1
219	1
220	2
221	2
222	1
223	2
233	1
234	1
235	1
237	11
238	3
239	1
248	5
249	2
250	6
251	3
252	2
264	6
265	6
266	2
267	9
268	4
269	1
280	1
338	7
339	2
340	1
352	3
353	1
425	2
426	12
427	7
428	3
429	1
