Mass spectrum: Xanthine; GC-EI-TOF; MS; n TMS; RT:777.894 sec
Name: Xanthine
Class: Natural Product
Formula: C5H4N4O2
Exact mass: 152.03343
SMILES: C1=NC2=C(N1)C(=O)NC(=O)N2
InChI: InChI=1S/C5H4N4O2/c10-4-2-3(7-1-6-2)8-5(11)9-4/h1H,(H3,6,7,8,9,10,11)
Instrument: Pegasus III TOF-MS system, Leco; GC 6890, Agilent Technologies
Instrument type: GC-EI-TOF
Ms type: MS
Ion mode: POSITIVE
Column name: CP-SIL 8 CB LOW BLEED/MS
Retention time: 777.894  sec
m/z	relative intensity
85	35
86	63
87	18
89	2
95	6
97	2
98	33
99	48
100	297
101	38
102	21
103	30
105	13
111	28
112	5
113	10
114	1
115	31
116	6
117	47
118	1
119	7
125	14
126	7
127	3
128	14
129	3
130	27
131	221
132	64
133	115
134	16
139	6
140	10
141	5
142	18
143	5
144	20
145	4
147	999
148	161
149	92
150	9
151	3
152	3
156	6
157	28
158	159
159	29
160	10
164	6
166	5
169	15
170	8
171	14
172	16
173	7
174	18
177	3
181	3
182	3
196	4
197	9
198	3
205	9
206	3
207	1
208	5
212	7
219	1
221	5
222	15
224	2
228	5
236	18
237	10
238	39
239	2
246	1
251	5
252	8
256	2
264	5
265	91
266	10
278	44
279	155
280	61
281	45
282	2
293	8
294	195
295	92
296	27
297	4
312	3
337	7
338	1
339	2
352	42
353	589
354	243
355	112
356	32
357	2
358	1
367	33
368	232
369	100
370	33
371	6
399	2
418	2
427	2
462	1
464	2
498	1
