Mass spectrum: L-Tyrosine; GC-EI-QQ; MS; 3 TBDMS; RT:984.36 sec
Name: L-Tyrosine
Class: Natural Product
Formula: C9H11NO3
Exact mass: 181.07389
SMILES: OC(=O)C(N)Cc(c1)ccc(O)c1
InChI: InChI=1S/C9H11NO3/c10-8(9(12)13)5-6-1-3-7(11)4-2-6/h1-4,8,11H,5,10H2,(H,12,13)/t8-/m0/s1
Instrument: Agilent 7000B QqQMS, Agilent; Agilent 7907A series GC system, Agilent Technologies
Instrument type: GC-EI-QQ
Ms type: MS
Ion mode: POSITIVE
Column name: CP-SIL 8 CB LOW BLEED/MS
Retention time: 984.36 sec
Derivative form: C27H56NO3Si3
Derivative mass: 526.35679
Derivative type: 3 TBDMS
m/z	relative intensity
55	2
56	5
57	6
58	3
59	12
60	1
61	1
73	389
74	36
75	42
76	3
77	6
78	2
79	4
81	1
84	1
85	4
86	3
87	3
88	2
89	2
90	1
91	8
96	3
97	1
99	7
100	6
101	2
102	2
103	13
104	3
105	4
107	11
108	1
113	1
115	37
116	7
117	8
118	5
119	6
121	2
124	2
126	1
128	5
129	3
130	5
131	7
132	27
133	37
134	9
135	8
137	1
142	22
143	4
144	3
145	7
146	12
147	134
148	25
149	25
150	4
151	6
153	3
156	1
158	2
159	4
160	30
161	9
162	6
163	10
164	7
165	13
166	3
172	2
173	3
174	5
175	4
176	7
177	9
178	3
179	8
180	1
182	1
186	1
188	5
189	11
190	5
191	6
192	9
193	6
194	1
195	1
202	6
203	2
204	14
206	3
207	29
208	6
209	6
216	3
217	2
218	18
219	6
221	53
222	14
223	6
224	1
231	1
232	1
233	3
234	4
235	2
236	1
237	2
239	2
244	4
245	21
246	6
247	3
248	3
249	2
250	5
251	3
252	1
260	4
261	2
262	1
265	3
266	3
267	2
277	1
278	1
281	4
282	1
287	2
288	1
290	1
292	3
294	1
302	999
303	255
304	101
305	19
306	6
307	10
308	5
309	2
322	2
334	3
348	2
364	51
365	18
366	7
438	20
439	9
440	5
466	43
467	18
468	8
469	2
480	1
508	4
509	1
