Mass spectrum: Pyridoxamine; GC-EI-TOF; MS; n TMS; RT:809.217 sec
Name: Pyridoxamine
Class: Natural Product
Formula: C8H12N2O2
Exact mass: 168.08988
SMILES: OCc(c1)c(CN)c(O)c(C)n1
InChI: InChI=1S/C8H12N2O2/c1-5-8(12)7(2-9)6(4-11)3-10-5/h3,11-12H,2,4,9H2,1H3
Instrument: Pegasus III TOF-MS system, Leco; GC 6890, Agilent Technologies
Instrument type: GC-EI-TOF
Ms type: MS
Ion mode: POSITIVE
Column name: CP-SIL 8 CB LOW BLEED/MS
Retention time: 809.217  sec
m/z	relative intensity
85	14
86	42
87	13
88	6
89	8
90	3
91	13
92	7
93	8
94	5
95	9
96	4
97	12
98	6
99	8
100	52
101	12
102	14
103	19
104	12
105	13
106	15
107	8
108	4
109	9
110	5
111	6
112	2
113	14
114	11
115	12
116	15
117	24
118	14
119	17
120	15
121	9
122	6
123	7
124	6
125	4
126	2
127	2
128	2
129	4
130	125
131	80
132	34
133	94
134	21
135	14
136	13
137	7
138	5
139	2
140	2
141	2
142	2
143	5
144	5
145	6
146	136
147	281
148	63
149	36
150	14
151	8
152	5
153	2
154	1
155	2
156	2
157	3
158	4
159	3
160	7
161	8
162	17
163	9
164	28
165	11
166	9
167	4
168	2
169	2
170	1
171	2
172	4
173	2
174	14
175	7
176	14
177	9
178	32
179	27
180	27
181	8
182	4
183	2
184	1
185	1
186	2
187	3
188	7
189	10
190	13
191	11
192	43
193	18
194	23
195	8
196	10
197	2
198	1
201	1
202	3
203	6
204	13
205	30
206	40
207	33
208	21
209	6
210	3
211	1
212	1
216	1
217	2
218	4
219	7
220	15
221	48
222	27
223	9
224	5
225	1
232	1
233	2
234	4
235	4
236	9
237	5
238	6
239	2
240	1
246	1
247	2
248	3
249	6
250	18
251	12
252	28
253	12
254	6
255	2
261	1
262	2
263	7
264	13
265	14
266	11
267	6
268	5
269	1
277	9
278	10
279	34
280	999
281	378
282	135
283	31
284	8
285	3
286	4
287	4
288	4
289	4
290	4
291	5
292	5
293	47
294	28
295	419
296	134
297	51
298	11
299	2
308	1
310	1
323	4
324	2
325	1
337	3
338	5
339	2
340	1
351	5
352	3
353	8
354	4
355	1
365	1
366	1
367	7
368	5
369	3
370	1
381	1
440	6
441	31
442	21
443	10
444	4
445	1
