Mass spectrum: L-Tryptophan; GC-EI-QQ; MS; 2 TBDMS; RT:1004.1 sec
Name: L-Tryptophan
Class: Natural Product
Formula: C11H12N2O2
Exact mass: 204.08988
SMILES: C1=CC=C2C(=C1)C(=CN2)C[C@@H](C(=O)O)N
InChI: InChI=1S/C11H12N2O2/c12-9(11(14)15)5-7-6-13-10-4-2-1-3-8(7)10/h1-4,6,9,13H,5,12H2,(H,14,15)/t9-/m0/s1
Instrument: Agilent 7000B QqQMS, Agilent; Agilent 7908A series GC system, Agilent Technologies
Instrument type: GC-EI-QQ
Ms type: MS
Ion mode: POSITIVE
Column name: CP-SIL 8 CB LOW BLEED/MS
Retention time: 1004.1 sec
Derivative form: C23H40N2O2Si2
Derivative mass: 432.26283
Derivative type: 2 TBDMS
m/z	relative intensity
55	1
56	2
57	9
58	5
59	20
60	3
61	2
73	492
74	46
75	49
76	5
77	14
78	1
83	1
84	2
85	6
86	6
87	11
88	12
89	3
90	2
98	1
99	8
100	7
101	3
102	11
103	29
104	4
105	2
112	1
113	2
115	73
116	13
117	18
118	16
119	6
120	1
126	1
128	17
130	501
131	81
132	149
133	62
134	14
135	6
140	1
142	35
143	14
144	9
145	8
146	28
147	179
148	47
149	20
150	3
151	1
154	2
155	2
156	9
157	5
158	8
160	57
161	12
162	9
163	2
169	10
170	9
171	8
172	8
173	9
174	22
175	8
176	3
184	8
185	4
186	9
187	7
188	21
189	22
190	6
191	2
199	9
200	5
201	13
202	16
203	4
204	3
207	2
214	12
215	27
216	24
218	41
219	9
220	4
230	3
231	2
232	3
234	11
235	2
243	8
244	13
245	52
246	49
247	13
248	5
257	2
258	2
259	1
260	2
271	2
273	100
274	23
275	7
276	2
286	6
287	14
288	10
289	4
290	1
302	999
303	338
304	123
305	25
306	4
347	43
348	18
349	7
350	2
375	220
376	69
377	25
378	5
389	3
390	1
417	8
418	3
419	1
