Mass spectrum: Hippuric acid; GC-EI-TOF; MS; n TMS; RT:714.009 sec
Name: Hippurate
Name: Hippuric acid
Class: Natural Product
Formula: C9H9NO3
Exact mass: 179.05824
SMILES: OC(=O)CNC(=O)c(c1)cccc1
InChI: InChI=1S/C9H9NO3/c11-8(12)6-10-9(13)7-4-2-1-3-5-7/h1-5H,6H2,(H,10,13)(H,11,12)
Instrument: Pegasus III TOF-MS system, Leco; GC 6890, Agilent Technologies
Instrument type: GC-EI-TOF
Ms type: MS
Ion mode: POSITIVE
Column name: CP-SIL 8 CB LOW BLEED/MS
Retention time: 714.009  sec
m/z	relative intensity
85	1
86	16
87	19
88	15
89	11
90	6
91	12
92	1
93	2
96	10
100	5
101	5
102	9
103	14
104	29
105	999
106	84
107	6
116	17
117	24
118	17
119	3
121	4
130	5
131	2
132	4
133	7
134	16
135	12
146	1
147	1
148	4
149	5
161	6
162	3
163	10
164	1
176	1
177	12
178	2
179	2
190	45
191	11
192	14
193	1
204	2
205	1
206	356
207	94
208	24
209	3
236	49
237	8
238	1
251	1
