Mass spectrum: Ketoisoleucine; GC-EI-TOF; MS; n TMS; RT:367.303 sec
Name: Ketoisoleucine
Class: Natural Product
Formula: C6H10O3
Exact mass: 130.06299
SMILES: CCC(C)C(=O)C(O)=O
InChI: InChI=1S/C6H10O3/c1-3-4(2)5(7)6(8)9/h4H,3H2,1-2H3,(H,8,9)
Instrument: Pegasus III TOF-MS system, Leco; GC 6890, Agilent Technologies
Instrument type: GC-EI-TOF
Ms type: MS
Ion mode: POSITIVE
Column name: CP-SIL 8 CB LOW BLEED/MS
Retention time: 367.303  sec
m/z	relative intensity
85	169
86	59
87	11
88	11
89	999
90	87
91	51
92	3
93	3
94	9
95	2
96	3
97	7
98	29
99	54
100	50
101	8
102	2
103	12
104	2
105	11
106	1
109	1
110	120
111	11
112	17
113	201
114	136
115	27
116	62
117	34
118	7
119	1
126	20
127	11
128	22
129	18
130	5
131	2
133	1
140	19
141	7
142	7
143	6
144	3
145	2
147	1
154	5
155	1
156	30
157	7
158	11
159	1
160	2
166	1
172	107
173	20
174	8
175	1
182	1
183	1
184	5
185	2
187	1
189	205
190	29
191	9
200	174
201	29
202	6
203	79
204	11
205	2
216	29
217	3
