Mass spectrum: D-(+)-Glucosamine; GC-EI-TOF; MS; n TMS; RT:731.959 sec
Name: D-Glucosamine
Name: D-(+)-Glucosamine
Class: Natural Product
Formula: C6H13NO5
Exact mass: 179.07937
SMILES: OCC(O1)C(O)C(O)C(N)C(O)1
InChI: InChI=1S/C6H13NO5/c7-3-5(10)4(9)2(1-8)12-6(3)11/h2-6,8-11H,1,7H2/t2-,3-,4-,5-,6-/m1/s1
Instrument: Pegasus III TOF-MS system, Leco; GC 6890, Agilent Technologies
Instrument type: GC-EI-TOF
Ms type: MS
Ion mode: POSITIVE
Column name: CP-SIL 8 CB LOW BLEED/MS
Retention time: 731.959  sec
m/z	relative intensity
85	10
86	11
87	11
88	5
89	34
90	5
91	2
94	3
95	1
96	3
97	3
98	6
99	10
100	104
101	39
102	32
103	112
104	13
105	9
106	1
108	6
109	1
110	3
111	5
112	6
113	12
114	9
115	35
116	26
117	110
118	15
119	15
120	2
124	1
125	2
126	6
127	8
128	40
129	62
130	34
131	153
132	32
133	74
134	12
135	7
136	1
139	1
140	6
141	4
142	23
143	17
144	19
145	11
146	16
147	267
148	46
149	31
150	4
151	2
152	14
153	2
154	5
155	4
156	15
157	9
158	7
159	5
160	3
161	2
162	9
163	6
164	2
165	1
166	1
168	7
169	4
170	5
171	2
172	16
173	8
174	7
175	5
176	2
177	8
178	1
179	1
180	3
182	2
184	1
186	1
187	7
188	27
189	27
190	11
191	27
192	6
193	4
194	1
198	3
199	1
200	22
201	7
202	14
203	999
204	230
205	96
206	16
207	7
208	1
214	10
215	6
216	125
217	125
218	53
219	17
220	6
221	7
222	1
226	2
228	4
229	4
230	5
231	13
232	5
233	3
240	4
241	1
242	3
243	2
244	2
245	1
246	2
254	1
256	1
262	1
265	1
270	1
272	1
277	1
288	1
290	6
291	6
292	2
302	2
303	2
304	51
305	18
306	9
307	2
316	2
317	1
318	1
319	1
330	1
331	5
332	2
333	1
344	2
346	1
434	5
435	2
436	1
