Mass spectrum: L-Isoleucine; GC-EI-QQ; MS; 2 TBDMS; RT:654.3 sec
Name: L-Isoleucine
Class: Natural Product
Formula: C6H13NO2
Exact mass: 131.09463
SMILES: CC[C@H](C)[C@H](N)C(O)=O
InChI: InChI=1S/C6H13NO2/c1-3-4(2)5(7)6(8)9/h4-5H,3,7H2,1-2H3,(H,8,9)/t4-,5-/m0/s1
Instrument: Agilent 7000B QqQMS, Agilent; Agilent 7894A series GC system, Agilent Technologies
Instrument type: GC-EI-QQ
Ms type: MS
Ion mode: POSITIVE
Column name: CP-SIL 8 CB LOW BLEED/MS
Retention time: 654.3 sec
Derivative form: C18H41NO2Si2
Derivative mass: 359.26758
Derivative type: 2 TBDMS
m/z	relative intensity
55	1
56	2
57	7
58	3
59	16
60	3
61	1
68	1
69	6
73	235
74	24
75	27
76	2
77	1
79	1
80	3
82	1
83	1
84	2
85	5
86	9
87	3
88	3
96	3
97	2
98	2
99	7
100	4
101	2
102	2
103	22
104	2
105	4
107	3
112	2
113	2
114	9
115	21
116	4
117	8
118	3
119	5
122	4
126	2
128	19
129	3
130	4
131	6
132	21
133	41
134	8
135	4
142	27
143	18
144	12
145	11
147	186
148	32
149	19
150	2
156	2
157	2
158	2
159	5
160	17
161	9
162	3
170	33
171	8
172	3
173	3
174	5
175	2
176	1
184	8
185	3
186	2
188	4
189	12
190	3
191	2
198	6
200	999
201	176
202	50
203	6
212	2
216	11
217	3
218	6
219	2
228	1
230	1
244	1
245	5
246	2
258	1
272	1
274	206
275	53
276	20
277	4
302	287
303	75
304	29
305	5
316	7
317	2
330	1
344	8
345	2
