Mass spectrum: Naringenin; GC-EI-TOF; MS; n TMS; RT:1079.450 sec
Name: (+-)-Naringenin
Name: Naringenin
Class: Natural Product
Formula: C15H12O5
Exact mass: 272.06847
SMILES: Oc(c3)ccc(c3)[C@H](C1)Oc(c2)c(c(O)cc(O)2)C(=O)1
InChI: InChI=1S/C15H12O5/c16-9-3-1-8(2-4-9)13-7-12(19)15-11(18)5-10(17)6-14(15)20-13/h1-6,13,16-18H,7H2/t13-/m0/s1
Instrument: Pegasus III TOF-MS system, Leco; GC 6890, Agilent Technologies
Instrument type: GC-EI-TOF
Ms type: MS
Ion mode: POSITIVE
Column name: CP-SIL 8 CB LOW BLEED/MS
Retention time: 1079.450  sec
m/z	relative intensity
85	17
86	7
87	13
88	16
89	234
90	45
91	97
92	13
93	9
94	6
95	35
96	14
97	36
98	13
99	73
100	9
101	9
102	25
103	50
104	18
105	31
106	8
107	10
108	5
109	18
110	9
111	6
112	12
113	7
115	71
116	15
117	36
118	12
119	44
120	17
121	31
122	3
123	22
124	14
125	13
126	10
127	2
128	14
129	18
130	13
131	36
132	16
133	135
134	28
135	86
136	22
137	31
138	4
140	9
141	8
142	13
143	15
144	3
145	19
146	8
147	100
148	19
149	86
150	22
151	115
152	35
153	13
154	15
155	8
156	4
157	11
158	4
159	7
160	4
161	81
162	24
163	29
164	12
165	17
167	21
168	5
169	14
171	7
172	9
173	4
174	4
175	50
176	24
177	207
178	58
179	216
180	43
181	19
182	6
185	8
186	7
187	2
188	1
189	5
190	43
191	104
192	110
193	53
194	29
195	14
197	4
198	2
199	5
201	4
202	21
203	29
204	15
205	30
206	13
207	27
208	22
209	999
210	187
211	56
212	9
213	2
215	8
217	6
218	14
219	7
220	14
221	23
222	22
223	11
224	8
227	2
228	12
230	1
231	1
232	7
234	20
235	13
236	23
237	17
238	5
239	10
240	5
241	3
242	7
243	12
244	12
245	1
247	3
248	1
249	3
250	8
251	12
252	15
253	11
254	7
255	4
256	4
259	1
263	2
264	16
265	7
266	5
267	12
268	5
269	9
270	2
271	4
273	3
277	4
278	17
279	7
280	27
281	24
282	13
283	3
284	1
285	1
290	12
291	7
292	5
293	8
294	8
295	8
296	15
304	3
305	2
306	24
307	7
308	8
309	1
311	6
312	4
319	1
320	30
321	11
322	10
323	10
324	1
325	4
326	3
327	8
330	1
332	5
337	8
338	4
340	8
341	7
342	1
346	1
349	3
351	2
352	40
353	12
354	6
355	4
357	6
358	4
362	1
363	1
366	3
368	12
369	9
370	11
373	6
374	6
379	5
380	6
381	4
382	35
383	19
384	14
385	12
386	1
389	2
390	1
396	12
397	12
398	19
399	13
401	2
403	1
408	3
410	2
412	9
413	10
414	16
415	11
416	1
418	4
420	7
426	3
427	4
429	2
431	7
432	1
435	1
439	1
442	2
444	11
445	6
446	1
447	2
450	4
454	4
455	5
457	2
460	1
461	1
465	3
467	2
468	16
469	25
470	74
471	63
472	42
473	16
474	3
479	1
483	15
484	69
485	111
486	227
487	166
488	84
489	28
490	3
491	1
492	2
500	7
