Mass spectrum: Serotonin; GC-EI-TOF; MS; n TMS; RT:932.703 sec
Name: Serotonin
Class: Natural Product
Formula: C10H12N2O
Exact mass: 176.09496
SMILES: C1=CC2=C(C=C1O)C(=CN2)CCN
InChI: InChI=1S/C10H12N2O/c11-4-3-7-6-12-10-2-1-8(13)5-9(7)10/h1-2,5-6,12-13H,3-4,11H2
Instrument: Pegasus III TOF-MS system, Leco; GC 6890, Agilent Technologies
Instrument type: GC-EI-TOF
Ms type: MS
Ion mode: POSITIVE
Column name: CP-SIL 8 CB LOW BLEED/MS
Retention time: 932.703  sec
m/z	relative intensity
85	4
86	211
87	24
88	7
98	1
100	91
101	17
102	19
103	4
104	1
106	1
113	1
114	3
115	7
116	7
117	18
118	2
119	3
121	2
127	1
128	3
129	2
130	39
131	20
132	5
133	4
138	1
142	5
143	3
144	8
145	5
146	17
147	10
148	1
154	2
156	3
157	1
158	10
160	3
168	1
169	2
170	2
172	18
173	5
174	999
175	184
176	83
177	10
178	1
185	2
186	9
187	1
188	2
190	1
194	1
200	2
201	2
202	23
203	5
204	3
209	1
213	1
214	2
215	1
216	4
217	6
218	7
219	3
226	2
230	5
231	2
232	2
233	4
234	1
235	2
236	2
243	1
245	1
246	2
248	2
256	1
258	1
260	13
261	4
268	1
272	3
273	1
274	5
276	1
286	1
287	2
288	5
289	5
290	37
291	19
292	6
293	2
296	1
299	1
300	1
302	3
303	1
314	2
349	1
354	1
361	7
362	2
363	1
393	1
395	1
404	1
447	1
448	1
449	6
450	6
464	4
465	3
466	1
488	1
496	1
499	3
