Mass spectrum: D-(+)-Maltose; GC-EI-TOF; MS; n TMS; RT:1015.540 sec
Name: Maltose
Name: D-(+)-Maltose
Class: Natural Product
Formula: C12H22O11
Exact mass: 342.11621
SMILES: OC[C@@H](O1)[C@@H](O)[C@H](O)[C@@H](O)[C@H]1O[C@H]([C@@H](CO)2)[C@H](O)[C@@H](O)C(O)O2
InChI: InChI=1S/C12H22O11/c13-1-3-5(15)6(16)9(19)12(22-3)23-10-4(2-14)21-11(20)8(18)7(10)17/h3-20H,1-2H2/t3-,4-,5-,6+,7-,8-,9-,10-,11?,12-/m1/s1
Instrument: Pegasus III TOF-MS system, Leco; GC 6890, Agilent Technologies
Instrument type: GC-EI-TOF
Ms type: MS
Ion mode: POSITIVE
Column name: CP-SIL 8 CB LOW BLEED/MS
Retention time: 1015.540  sec
m/z	relative intensity
85	24
86	9
87	23
88	13
89	231
90	23
91	14
92	4
93	4
94	4
95	8
96	2
97	40
98	7
99	26
100	60
101	77
102	39
103	812
104	83
105	66
106	12
107	4
108	1
109	29
110	6
111	23
112	5
113	33
114	18
115	32
116	39
117	421
118	46
119	40
120	6
121	1
122	1
123	2
124	1
125	5
126	6
127	26
128	12
129	472
130	70
131	110
132	19
133	230
134	33
135	24
136	3
137	1
138	4
139	12
140	6
141	19
142	22
143	95
144	17
145	34
146	7
147	999
148	167
149	118
150	16
151	12
152	5
153	16
154	11
155	61
156	17
157	95
158	23
159	24
160	139
161	41
162	12
163	42
164	9
165	3
166	2
167	7
168	8
169	299
170	47
171	32
172	14
173	33
174	12
175	20
176	4
177	22
178	9
179	3
180	5
181	5
182	4
183	21
184	4
185	10
186	11
187	10
188	7
189	119
190	31
191	173
192	34
193	18
194	4
195	6
196	8
197	3
198	5
199	13
200	5
201	18
202	8
203	43
204	801
205	329
206	106
207	36
208	6
209	2
210	8
211	5
213	2
214	4
215	20
216	11
217	528
218	126
219	61
220	15
221	36
222	9
223	6
225	1
227	8
228	7
229	42
230	27
231	57
232	17
233	52
234	15
235	22
236	4
237	2
239	1
240	6
241	11
242	8
243	112
244	34
245	36
246	16
247	24
248	6
249	3
254	2
255	7
256	7
257	14
258	3
259	22
260	6
261	6
262	6
263	2
264	3
265	9
266	2
267	1
268	14
269	9
270	9
271	108
272	29
273	29
274	11
275	10
276	6
277	3
278	3
279	3
281	1
282	2
284	1
286	3
287	1
288	2
289	1
290	2
291	18
292	6
293	4
295	1
296	1
297	1
300	26
301	8
302	1
303	1
304	7
305	24
306	9
307	10
308	3
309	3
312	1
316	1
317	11
318	11
319	113
320	41
321	22
322	5
323	1
325	2
327	1
328	1
331	31
332	23
333	14
334	7
335	1
337	1
342	1
343	3
344	3
345	11
346	5
347	5
348	4
358	1
359	3
360	29
361	538
362	209
363	101
364	30
365	11
366	2
367	1
373	4
374	3
376	4
377	1
378	1
379	1
389	2
390	15
391	6
392	6
393	2
403	1
406	1
408	2
409	3
418	1
421	1
422	1
425	1
432	1
433	1
435	1
436	2
440	1
448	1
449	1
450	3
451	12
452	7
453	2
454	1
463	2
464	1
467	2
479	2
