Mass spectrum: DL-a,d-Diaminopimelic acid; GC-EI-TOF; MS; n TMS; RT:761.156 sec
Name: DL-a,d-Diaminopimelate
Name: DL-a,d-Diaminopimelic acid
Class: Natural Product
Formula: C7H14N2O4
Exact mass: 190.09536
SMILES: OC(=O)C(N)CCCC(N)C(O)=O
InChI: InChI=1S/C7H14N2O4/c8-4(6(10)11)2-1-3-5(9)7(12)13/h4-5H,1-3,8-9H2,(H,10,11)(H,12,13)/t4-,5+
Instrument: Pegasus III TOF-MS system, Leco; GC 6890, Agilent Technologies
Instrument type: GC-EI-TOF
Ms type: MS
Ion mode: POSITIVE
Column name: CP-SIL 8 CB LOW BLEED/MS
Retention time: 761.156  sec
m/z	relative intensity
85	20
86	28
87	11
88	12
89	8
90	14
91	4
92	13
93	10
94	3
95	3
96	11
97	6
98	22
99	12
100	216
101	33
102	66
103	47
104	9
105	11
106	2
107	4
108	6
109	26
110	31
111	3
112	24
113	16
114	56
115	58
116	40
117	52
118	14
119	15
120	6
122	32
123	1
124	2
125	2
126	90
127	18
128	558
129	88
130	65
131	45
132	49
133	74
134	14
135	10
136	1
138	6
139	2
140	14
141	12
142	51
143	10
144	44
145	13
146	30
147	358
148	55
149	45
150	10
151	4
152	3
153	5
154	91
155	111
156	72
157	22
158	12
159	13
160	5
161	6
162	9
163	8
164	1
165	7
166	14
167	10
168	10
169	8
170	13
171	22
172	41
173	11
174	13
175	4
176	1
177	3
179	2
180	2
181	116
182	112
183	33
184	64
185	12
186	15
187	6
188	19
189	4
190	33
191	34
192	9
193	2
194	5
196	3
197	2
198	5
199	4
200	999
201	154
202	79
203	18
204	9
206	1
207	6
212	1
214	3
215	6
216	16
217	5
218	65
219	37
220	18
221	14
222	3
223	2
224	3
225	2
226	5
227	3
228	8
229	4
230	17
231	5
232	11
233	4
238	1
239	2
242	8
243	4
244	9
245	4
246	5
247	4
249	3
250	2
251	1
252	1
255	20
256	10
257	2
258	6
259	4
260	8
261	1
262	1
263	3
265	4
267	1
270	4
271	76
272	663
273	158
274	70
275	15
276	2
278	2
279	1
283	7
284	10
287	3
288	3
290	2
297	1
298	3
300	4
303	1
311	1
313	1
317	2
321	1
322	1
329	1
335	1
344	1
345	4
346	9
347	6
349	1
357	1
358	2
361	11
362	5
369	1
373	17
374	16
375	5
376	3
377	1
378	1
387	1
388	1
390	1
392	2
404	1
409	1
421	1
426	1
440	1
461	1
463	3
475	1
477	4
478	22
479	18
480	7
481	1
483	1
494	1
