Mass spectrum: D-(+)-Galactosamine; GC-EI-TOF; MS; n TMS; RT:743.108 sec
Name: D-(+)-Galactosamine
Class: Natural Product
Formula: C6H13NO5
Exact mass: 179.07937
SMILES: O=CC(N)C(O)C(O)C(O)CO
InChI: InChI=1S/C6H13NO5/c7-3(1-8)5(11)6(12)4(10)2-9/h1,3-6,9-12H,2,7H2/t3-,4+,5+,6-/m0/s1
Instrument: Pegasus III TOF-MS system, Leco; GC 6890, Agilent Technologies
Instrument type: GC-EI-TOF
Ms type: MS
Ion mode: POSITIVE
Column name: CP-SIL 8 CB LOW BLEED/MS
Retention time: 743.108  sec
m/z	relative intensity
85	16
86	37
87	31
88	20
89	166
90	19
91	9
93	4
94	1
95	2
96	6
97	6
98	13
99	20
100	111
101	97
102	81
103	345
104	39
105	84
106	9
107	3
109	1
110	9
111	10
112	9
113	26
114	12
115	23
116	28
117	227
118	33
119	26
120	4
121	2
123	1
124	2
125	5
126	12
127	27
128	41
129	307
130	65
131	73
132	29
133	136
134	23
135	13
137	6
138	1
139	1
140	5
141	25
142	27
143	39
144	23
145	14
146	19
147	654
148	109
149	63
150	9
151	5
152	3
153	5
154	3
155	4
156	6
157	158
158	32
159	999
160	141
161	51
162	9
163	20
164	2
165	5
167	2
168	18
169	7
170	6
171	7
172	19
173	12
174	7
175	11
176	5
177	9
178	3
179	3
180	2
181	2
182	3
183	1
184	2
185	6
186	6
187	6
188	12
189	49
190	28
191	21
192	4
193	3
194	1
195	4
196	2
197	3
198	1
199	3
200	13
201	63
202	23
203	41
204	62
205	388
206	81
207	42
208	8
209	2
211	1
212	2
213	9
214	10
215	15
216	40
217	157
218	38
219	22
220	6
221	10
222	2
223	1
227	7
228	4
229	52
230	20
231	24
232	30
233	19
234	10
235	2
237	1
238	1
239	2
240	16
241	11
242	9
243	11
244	7
245	3
246	1
247	3
249	1
253	2
254	1
255	1
256	4
257	1
258	4
259	2
260	1
261	3
263	1
267	6
268	3
269	2
270	1
271	1
272	2
273	46
274	16
275	6
276	2
277	11
278	7
279	3
280	1
282	1
285	2
289	1
290	5
291	15
292	6
293	3
294	1
301	1
302	1
303	14
304	14
305	11
306	6
307	12
308	3
309	2
315	1
316	2
317	2
318	8
319	194
320	82
321	39
322	11
323	2
330	5
331	3
332	3
333	2
334	1
357	4
358	2
359	1
360	1
364	1
373	1
375	2
406	1
409	1
412	1
420	2
421	1
432	1
446	2
447	6
448	5
449	2
450	1
452	1
