Mass spectrum: D-Glutamine; GC-EI-TOF; MS; n TMS; RT:675.894 sec
Name: D-Glutamine
Class: Natural Product
Formula: C5H10N2O3
Exact mass: 146.06914
SMILES: NC(=O)CCC(N)C(O)=O
InChI: InChI=1S/C5H10N2O3/c6-3(5(9)10)1-2-4(7)8/h3H,1-2,6H2,(H2,7,8)(H,9,10)/t3-/m1/s1
Instrument: Pegasus III TOF-MS system, Leco; GC 6890, Agilent Technologies
Instrument type: GC-EI-TOF
Ms type: MS
Ion mode: POSITIVE
Column name: CP-SIL 8 CB LOW BLEED/MS
Retention time: 675.894  sec
m/z	relative intensity
85	10
86	7
87	2
89	7
90	11
92	9
93	4
98	20
99	10
100	111
101	23
102	10
103	15
105	5
112	18
113	19
114	79
115	56
116	62
117	23
121	1
124	4
126	17
127	3
128	120
129	32
130	50
131	113
132	45
133	68
134	18
135	6
139	73
140	27
141	1
142	32
144	13
145	55
146	15
147	225
148	48
149	46
150	2
151	1
152	3
155	351
156	999
157	164
158	59
159	7
164	5
167	10
170	3
172	4
173	8
174	6
175	3
177	2
178	2
181	3
183	3
187	1
188	19
189	3
198	2
203	87
204	14
210	1
216	12
218	19
219	4
222	3
224	4
225	4
227	2
229	27
230	16
232	7
233	2
245	117
246	25
247	4
257	3
258	3
259	4
261	2
265	3
273	4
276	2
277	3
281	1
282	1
284	5
285	2
292	2
296	3
297	5
303	5
317	1
319	6
327	5
333	4
334	2
347	2
370	9
371	6
377	4
379	1
380	4
390	1
394	5
398	1
400	1
405	7
409	3
419	1
425	3
443	1
446	1
455	5
465	2
469	2
473	3
475	1
482	2
488	3
490	5
492	1
