Mass spectrum: Oxalic acid; GC-EI-TOF; MS; n TMS; RT:336.159 sec
Name: Oxalate
Name: Oxalic acid
Class: Natural Product
Formula: C2H2O4
Exact mass: 89.99531
SMILES: OC(=O)C(O)=O
InChI: InChI=1S/C2H2O4/c3-1(4)2(5)6/h(H,3,4)(H,5,6)
Instrument: Pegasus III TOF-MS system, Leco; GC 6890, Agilent Technologies
Instrument type: GC-EI-TOF
Ms type: MS
Ion mode: POSITIVE
Column name: CP-SIL 8 CB LOW BLEED/MS
Retention time: 336.159  sec
m/z	relative intensity
85	2
86	1
87	17
88	3
89	8
91	1
92	1
93	4
95	1
99	1
101	8
102	27
103	28
104	4
105	10
106	1
113	2
115	16
116	5
117	24
118	4
119	4
131	46
132	9
133	60
134	9
135	4
146	1
147	999
148	161
149	84
150	9
151	2
175	22
176	6
177	2
190	57
191	10
192	4
219	36
220	6
221	3
