Mass spectrum: D-(+)-Fucose; GC-EI-TOF; MS; n TMS; RT:651.459 sec
Name: D-(+)-Fucose
Class: Natural Product
Formula: C6H12O5
Exact mass: 164.06847
SMILES: C[C@@H](O1)[C@H](O)[C@H](O)[C@@H](O)C(O)1
InChI: InChI=1S/C6H12O5/c1-2-3(7)4(8)5(9)6(10)11-2/h2-10H,1H3/t2-,3+,4+,5-,6?/m1/s1
Instrument: Pegasus III TOF-MS system, Leco; GC 6890, Agilent Technologies
Instrument type: GC-EI-TOF
Ms type: MS
Ion mode: POSITIVE
Column name: CP-SIL 8 CB LOW BLEED/MS
Retention time: 651.459  sec
m/z	relative intensity
85	7
86	8
87	8
88	2
89	46
90	5
91	2
98	1
99	6
100	30
101	18
102	11
103	16
104	1
105	22
106	2
107	1
111	2
112	3
113	3
114	16
115	19
116	9
117	999
118	117
119	45
120	4
125	1
126	2
127	6
128	4
129	58
130	23
131	57
132	10
133	51
134	9
135	4
141	2
142	5
143	19
144	4
145	6
146	2
147	128
148	23
149	18
150	3
155	2
156	2
158	3
159	3
160	117
161	55
162	9
163	10
164	2
171	1
173	5
174	2
175	2
177	1
182	1
186	2
187	1
188	2
189	9
190	2
191	16
192	3
193	2
202	1
203	9
204	16
205	4
206	2
207	2
215	1
216	4
217	10
218	3
219	26
220	6
221	6
222	2
228	2
229	1
230	2
231	15
232	5
233	19
234	8
235	1
240	1
243	1
244	2
245	1
246	1
256	2
261	1
262	3
270	1
274	1
277	40
278	12
279	5
280	2
282	1
291	2
293	2
294	1
301	1
305	2
306	2
318	1
321	14
322	4
323	3
324	1
361	1
364	1
