Mass spectrum: DL-Cystathionine; GC-EI-TOF; MS; n TMS; RT:844.915 sec
Name: DL-Cystathionine
Class: Natural Product
Formula: C7H14N2O4S
Exact mass: 222.06743
SMILES: OC(=O)[C@@H](N)CCSC[C@H](N)C(O)=O
InChI: InChI=1S/C7H14N2O4S/c8-4(6(10)11)1-2-14-3-5(9)7(12)13/h4-5H,1-3,8-9H2,(H,10,11)(H,12,13)
Instrument: Pegasus III TOF-MS system, Leco; GC 6890, Agilent Technologies
Instrument type: GC-EI-TOF
Ms type: MS
Ion mode: POSITIVE
Column name: CP-SIL 8 CB LOW BLEED/MS
Retention time: 844.915  sec
m/z	relative intensity
85	21
86	41
87	25
88	77
89	11
90	10
91	14
92	4
93	4
94	1
95	2
96	4
97	4
98	20
99	9
100	366
101	61
102	36
103	48
104	9
105	15
106	2
107	2
110	3
111	1
112	24
113	8
114	84
115	62
116	48
117	39
118	17
119	13
120	4
121	2
124	1
126	17
127	10
128	999
129	156
130	89
131	50
132	71
133	74
134	17
135	8
136	1
138	25
139	4
140	2
141	2
142	6
143	4
144	13
145	5
146	19
147	322
148	102
149	43
150	10
151	3
152	1
154	2
155	1
156	11
157	5
158	10
159	9
160	178
161	38
162	38
163	14
164	4
165	2
166	1
170	1
171	1
172	18
173	6
174	29
175	9
176	36
177	7
178	3
184	1
186	5
187	3
188	40
189	12
190	20
191	7
192	3
193	1
198	1
200	5
201	2
202	79
203	36
204	23
205	10
206	6
207	2
213	1
214	2
215	1
216	51
217	14
218	815
219	206
220	84
221	16
222	5
223	3
228	3
229	1
230	20
231	8
232	27
233	7
234	8
235	2
236	2
244	7
245	109
246	31
247	13
248	5
249	5
250	4
251	1
260	10
261	8
262	11
263	3
264	4
265	1
266	7
267	1
274	11
275	5
276	3
277	2
278	161
279	46
280	26
281	6
282	1
288	13
289	4
290	3
291	60
292	64
293	36
294	13
295	4
296	1
302	3
303	1
304	3
305	1
306	1
393	2
394	1
405	1
495	2
496	1
