Mass spectrum: L-Glutamic acid; GC-EI-TOF; MS; n TMS; RT:605.644 sec
Name: L-Glutamic acid
Class: Natural Product
Formula: C5H9NO4
Exact mass: 147.05316
SMILES: OC(=O)CC[C@H](N)C(O)=O
InChI: InChI=1S/C5H9NO4/c6-3(5(9)10)1-2-4(7)8/h3H,1-2,6H2,(H,7,8)(H,9,10)/t3-/m0/s1
Instrument: Pegasus III TOF-MS system, Leco; GC 6890, Agilent Technologies
Instrument type: GC-EI-TOF
Ms type: MS
Ion mode: POSITIVE
Column name: CP-SIL 8 CB LOW BLEED/MS
Retention time: 605.644  sec
m/z	relative intensity
85	75
86	48
87	25
88	15
89	18
90	6
91	3
92	5
93	10
94	3
95	15
96	7
97	8
98	36
99	33
100	268
101	59
102	33
103	50
104	6
105	13
106	1
108	2
110	7
111	4
112	41
113	41
114	68
115	63
116	34
117	58
118	11
119	20
120	1
121	1
124	2
125	2
126	9
127	6
128	795
129	183
130	74
131	87
132	59
133	172
134	33
135	20
136	1
139	2
140	87
141	14
142	14
143	13
144	13
145	9
146	9
147	555
148	102
149	140
150	21
151	9
152	1
153	1
154	11
155	9
156	490
157	89
158	108
159	25
160	10
161	3
162	2
163	3
168	6
169	1
170	3
171	2
172	13
173	8
174	54
175	9
176	5
177	6
179	1
182	1
184	4
185	2
186	16
187	3
188	8
189	7
190	4
191	4
192	2
193	1
195	1
198	2
199	1
200	3
201	4
202	21
203	13
204	57
205	15
206	7
207	2
208	1
209	1
213	1
214	21
215	7
216	12
217	2
218	62
219	19
220	5
221	25
222	6
223	4
228	2
229	3
230	202
231	49
232	26
233	4
244	3
245	23
246	999
247	227
248	98
249	17
250	2
258	36
259	9
260	5
261	1
272	1
273	3
274	9
275	4
276	4
285	1
316	1
320	9
321	3
322	1
332	1
348	47
349	18
350	7
362	2
363	23
364	9
365	3
366	1
378	1
383	1
395	1
431	1
462	1
498	1
