Mass spectrum: 6-Amino-1-MethylUracil; GC-EI-TOF; MS; n TMS; RT:722.008 sec
Name: 6-Amino-1-MethylUracil
Class: Natural Product
Formula: C5H7N3O2
Exact mass: 141.05383
SMILES: O=C(C=1)NC(=O)N(C)C(N)1
InChI: InChI=1S/C5H7N3O2/c1-8-3(6)2-4(9)7-5(8)10/h2H,6H2,1H3,(H,7,9,10)
Instrument: Pegasus III TOF-MS system, Leco; GC 6890, Agilent Technologies
Instrument type: GC-EI-TOF
Ms type: MS
Ion mode: POSITIVE
Column name: CP-SIL 8 CB LOW BLEED/MS
Retention time: 722.008  sec
m/z	relative intensity
85	196
86	60
87	25
88	17
89	3
90	20
91	18
92	3
94	4
95	1
96	9
97	11
98	38
99	999
100	205
101	63
102	21
103	3
104	1
107	1
109	1
110	6
111	29
112	13
113	56
114	47
115	194
116	54
117	14
118	3
119	2
120	3
123	1
124	8
125	30
126	21
127	14
128	7
129	18
130	180
131	39
132	18
133	3
137	2
138	2
139	69
140	41
141	107
142	25
143	13
144	7
145	1
146	7
147	1
148	13
149	3
150	1
151	7
152	4
153	4
154	3
155	100
156	130
157	115
158	28
159	9
160	2
165	1
166	1
167	37
168	10
169	7
170	6
171	926
172	202
173	80
174	12
175	2
180	5
181	212
182	56
183	42
184	10
185	30
186	17
187	23
188	11
189	4
190	1
191	1
192	1
193	1
194	1
195	9
196	6
197	247
198	50
199	25
200	4
201	1
202	2
203	1
209	3
210	1
211	25
212	25
213	183
214	39
215	17
216	2
217	1
222	6
223	2
224	1
225	1
226	2
227	21
228	12
229	6
230	2
237	1
238	22
239	116
240	26
241	10
242	2
243	1
244	15
245	4
246	2
253	14
254	6
255	9
256	3
257	1
269	14
270	8
271	4
272	1
283	1
284	1
285	109
286	42
287	46
288	15
289	6
290	1
293	1
297	1
298	1
299	1
300	1
305	1
306	1
310	10
311	13
312	6
313	2
314	1
317	1
325	3
326	12
327	563
328	237
329	104
330	28
331	7
332	2
333	2
334	2
335	2
336	2
337	2
338	2
339	1
340	2
341	31
342	264
343	97
344	43
345	11
346	2
