Mass spectrum: N-Acetyl-DL-Valine; GC-EI-TOF; MS; n TMS; RT:484.794 sec
Name: N-Acetyl-DL-Valine
Class: Natural Product
Formula: C7H13NO3
Exact mass: 159.08954
SMILES: CC(=O)NC(C(C)C)C(O)=O
InChI: InChI=1S/C7H13NO3/c1-4(2)6(7(10)11)8-5(3)9/h4,6H,1-3H3,(H,8,9)(H,10,11)
Instrument: Pegasus III TOF-MS system, Leco; GC 6890, Agilent Technologies
Instrument type: GC-EI-TOF
Ms type: MS
Ion mode: POSITIVE
Column name: CP-SIL 8 CB LOW BLEED/MS
Retention time: 484.794  sec
m/z	relative intensity
85	29
86	45
87	54
88	15
89	20
90	5
91	26
92	8
93	8
94	3
95	5
96	24
97	13
98	29
99	193
100	43
101	18
102	29
103	24
104	5
110	1
111	2
112	14
113	125
114	999
115	76
116	268
117	79
118	29
119	4
125	1
126	33
127	4
128	21
129	14
130	159
131	64
132	70
133	9
134	5
140	3
141	9
142	9
143	29
144	20
145	43
146	263
147	44
148	13
149	1
156	41
157	94
158	22
159	9
160	1
168	1
170	6
171	3
172	332
173	64
174	46
175	5
176	1
186	6
187	114
188	28
189	16
190	2
198	1
200	1
202	1
216	268
217	43
218	15
219	1
231	9
232	1
242	1
285	1
321	1
422	1
494	1
