Mass spectrum: Gallic acid; GC-EI-TOF; MS; n TMS; RT:749.744 sec
Name: Gallic acid
Class: Natural Product
Formula: C7H6O5
Exact mass: 170.02152
SMILES: OC(=O)c(c1)cc(O)c(O)c(O)1
InChI: InChI=1S/C7H6O5/c8-4-1-3(7(11)12)2-5(9)6(4)10/h1-2,8-10H,(H,11,12)
Instrument: Pegasus III TOF-MS system, Leco; GC 6890, Agilent Technologies
Instrument type: GC-EI-TOF
Ms type: MS
Ion mode: POSITIVE
Column name: CP-SIL 8 CB LOW BLEED/MS
Retention time: 749.744  sec
m/z	relative intensity
85	9
86	2
87	9
88	3
89	14
90	15
91	55
92	8
93	14
94	2
95	9
96	17
97	11
98	2
99	9
100	1
101	4
102	5
103	37
104	11
105	47
106	5
107	15
108	5
109	8
110	2
111	4
112	2
113	3
114	1
115	22
116	4
117	24
118	8
119	45
120	7
121	10
122	2
123	7
124	3
125	2
126	2
127	3
128	2
129	6
130	1
131	41
132	7
133	179
134	26
135	51
136	8
137	9
138	1
139	2
140	1
141	6
142	1
143	11
144	2
145	9
146	2
147	144
148	28
149	37
150	9
151	12
152	6
153	4
154	1
155	4
156	1
157	9
158	2
159	4
160	1
161	9
162	3
163	15
164	7
165	9
166	3
167	14
168	3
169	4
170	9
171	3
173	2
174	1
175	3
176	2
177	20
178	12
179	232
180	40
181	29
182	6
183	4
184	1
185	1
187	1
189	6
190	2
191	30
192	9
193	49
194	11
195	19
196	4
197	3
198	1
199	1
201	1
203	2
204	1
205	5
206	3
207	47
208	16
209	30
210	12
211	9
212	2
213	1
215	1
217	2
218	1
219	3
220	1
221	8
222	4
223	17
224	6
225	6
226	2
227	1
228	1
229	1
231	1
233	2
234	1
235	5
236	4
237	23
238	14
239	9
240	3
241	3
242	1
247	1
249	3
250	2
251	18
252	9
253	35
254	23
255	9
256	3
257	1
263	1
264	1
265	6
266	3
267	12
268	5
269	3
270	1
271	1
272	1
273	1
277	1
279	8
280	8
281	999
282	235
283	101
284	18
285	4
286	1
293	1
295	11
296	3
297	4
298	1
299	1
309	2
310	2
311	52
312	20
313	12
314	3
315	1
325	3
326	1
327	2
328	1
337	1
338	1
339	3
340	2
341	2
342	1
343	1
344	1
345	1
351	1
352	1
353	3
354	4
355	44
356	20
357	9
358	3
359	1
360	1
362	1
363	1
365	1
366	1
367	2
368	2
369	11
370	14
371	8
372	4
373	2
374	1
383	1
384	1
385	4
386	3
387	2
388	1
389	1
398	2
399	16
400	15
401	14
402	6
403	3
404	1
427	1
428	1
441	1
442	5
443	67
444	45
445	23
446	8
447	3
448	1
449	1
450	1
451	2
452	2
453	2
454	1
455	1
456	2
457	16
458	177
459	86
460	44
461	14
462	4
463	1
