Mass spectrum: 1-Aminocyclopropane-1-carboxylic acid; GC-EI-TOF; MS; n TMS; RT:386.494 sec
Name: 1-Aminocycropropane-1-carboxylic acid
Name: 1-Aminocyclopropane-1-carboxylic acid
Class: Natural Product
Formula: C4H7NO2
Exact mass: 101.04768
SMILES: OC(=O)C(N)(C1)C1
InChI: InChI=1S/C4H7NO2/c5-4(1-2-4)3(6)7/h1-2,5H2,(H,6,7)
Instrument: Pegasus III TOF-MS system, Leco; GC 6890, Agilent Technologies
Instrument type: GC-EI-TOF
Ms type: MS
Ion mode: POSITIVE
Column name: CP-SIL 8 CB LOW BLEED/MS
Retention time: 386.494  sec
m/z	relative intensity
85	50
86	47
87	23
88	7
89	4
90	2
91	1
92	2
93	2
94	6
95	1
96	11
97	6
98	62
99	21
100	65
101	16
102	15
103	23
104	4
105	9
106	1
110	9
111	6
112	87
113	28
114	37
115	23
116	21
117	27
118	9
119	8
120	1
124	1
126	34
127	58
128	373
129	55
130	38
131	63
132	52
133	100
134	18
135	8
140	6
141	2
142	4
143	2
144	4
145	3
146	11
147	999
148	169
149	89
150	11
151	2
156	9
157	12
158	24
159	7
160	5
161	1
162	2
169	2
170	3
171	1
172	12
173	14
174	21
175	11
176	4
177	1
186	35
187	8
188	10
189	1
190	14
191	2
192	1
196	1
200	2
202	315
203	75
204	32
205	5
214	3
216	16
217	12
218	3
219	1
230	78
231	19
232	7
233	1
245	38
246	9
247	2
