Mass spectrum: gamma-Glu-Cys; GC-EI-TOF; MS; n TMS; RT:888.002 sec
Name: g-Glutamyl cysteine
Name: gamma-Glu-Cys
Class: Natural Product
Formula: C8H14N2O5S
Exact mass: 250.06234
SMILES: SC[C@@H](C(O)=O)NC(=O)CC[C@H](N)C(O)=O
InChI: InChI=1S/C8H14N2O5S/c9-4(7(12)13)1-2-6(11)10-5(3-16)8(14)15/h4-5,16H,1-3,9H2,(H,10,11)(H,12,13)(H,14,15)/t4-,5-/m0/s1
Instrument: Pegasus III TOF-MS system, Leco; GC 6890, Agilent Technologies
Instrument type: GC-EI-TOF
Ms type: MS
Ion mode: POSITIVE
Column name: CP-SIL 8 CB LOW BLEED/MS
Retention time: 888.002  sec
m/z	relative intensity
85	59
86	78
87	732
88	40
89	60
90	34
91	135
92	26
93	28
94	13
95	21
96	13
97	14
98	30
99	34
100	250
101	59
102	235
103	82
104	20
105	24
106	33
107	73
108	30
109	10
110	9
111	9
112	118
113	32
114	107
115	95
116	100
117	94
118	17
119	79
120	7
121	7
122	1
123	1
124	32
125	5
126	37
127	24
128	435
129	218
130	81
131	132
132	104
133	192
134	35
135	35
136	20
137	5
138	8
139	34
140	60
141	18
142	32
143	18
144	40
145	20
146	25
147	999
148	194
149	138
150	20
151	9
152	28
153	21
154	55
155	86
156	592
157	96
158	61
159	30
160	15
161	54
162	4
163	22
164	1
165	14
166	22
167	8
168	46
169	11
170	41
171	16
172	53
173	12
174	31
175	8
176	7
177	6
179	28
180	28
181	22
182	29
183	20
184	159
185	31
186	29
187	10
188	50
189	14
190	22
191	21
192	3
193	4
194	5
195	2
196	34
197	12
198	34
199	8
200	14
201	4
202	21
203	16
204	169
205	36
206	14
207	8
208	5
209	8
210	6
211	8
212	4
213	13
214	22
215	63
216	75
217	26
218	61
219	19
220	22
221	17
222	6
223	5
225	14
226	30
227	25
228	50
229	24
230	36
231	11
232	34
233	167
234	37
235	23
236	3
237	5
239	5
240	6
241	7
242	15
243	29
244	21
245	9
246	9
247	4
248	36
249	98
250	20
251	10
253	5
254	4
255	3
256	18
257	6
258	18
259	3
260	8
261	5
262	16
264	3
266	1
268	2
269	7
270	9
271	12
272	5
273	8
274	348
275	85
276	42
277	5
278	5
280	3
283	3
284	8
285	4
286	14
288	11
289	3
290	3
292	6
294	3
295	1
297	13
298	50
299	11
300	7
301	3
302	9
303	1
304	2
305	5
306	3
310	1
311	1
315	4
316	7
319	1
322	2
324	3
325	2
326	3
329	5
330	1
331	6
332	9
333	2
334	2
342	1
344	2
345	2
346	28
347	9
348	15
349	3
357	1
371	1
372	1
373	1
374	1
376	3
379	5
381	1
382	2
386	4
387	34
388	18
389	10
390	1
391	2
392	2
393	1
395	1
399	7
401	3
402	3
403	11
404	36
405	20
406	8
407	4
408	2
409	3
415	9
416	6
420	2
423	1
430	1
432	4
436	2
448	1
460	1
461	2
467	2
474	1
475	2
480	1
488	1
489	8
490	10
491	3
492	49
493	280
494	204
495	110
496	38
497	10
