Mass spectrum: Fumaric acid; GC-EI-TOF; MS; n TMS; RT:470.094 sec
Name: Fumaric acid
Name: trans-Butenedioic acid
Class: Natural Product
Formula: C4H4O4
Exact mass: 116.01096
SMILES: C(=C/C(=O)O)\C(=O)O
InChI: InChI=1S/C4H4O4/c5-3(6)1-2-4(7)8/h1-2H,(H,5,6)(H,7,8)/b2-1+
Instrument: Pegasus III TOF-MS system, Leco; GC 6890, Agilent Technologies
Instrument type: GC-EI-TOF
Ms type: MS
Ion mode: POSITIVE
Column name: CP-SIL 8 CB LOW BLEED/MS
Retention time: 470.094  sec
m/z	relative intensity
85	50
86	9
87	12
88	2
89	16
90	1
91	2
92	2
93	7
94	1
95	3
96	2
97	13
98	27
99	26
100	6
101	8
102	4
103	23
104	4
105	10
107	1
108	1
111	6
112	2
113	34
114	5
115	132
116	15
117	31
118	6
119	15
120	2
121	1
125	1
126	21
127	53
128	26
129	13
130	3
131	30
132	12
133	176
134	25
135	18
136	1
141	5
142	12
143	288
144	35
145	17
146	3
147	794
148	128
149	114
150	14
151	8
152	1
155	90
156	17
157	47
158	8
159	11
160	2
161	2
170	18
171	19
172	4
173	15
174	3
175	2
176	1
185	1
187	1
199	1
201	9
202	3
203	1
215	8
216	2
217	48
218	15
219	7
220	2
230	2
231	1
242	4
243	1
244	6
245	999
246	206
247	96
248	14
249	3
