Mass spectrum: Citric acid; GC-EI-TOF; MS; n TMS; RT:692.409 sec
Name: Citric acid
Class: Natural Product
Formula: C6H8O7
Exact mass: 192.02700
SMILES: OC(=O)CC(O)(CC(O)=O)C(O)=O
InChI: InChI=1S/C6H8O7/c7-3(8)1-6(13,5(11)12)2-4(9)10/h13H,1-2H2,(H,7,8)(H,9,10)(H,11,12)
Instrument: Pegasus III TOF-MS system, Leco; GC 6890, Agilent Technologies
Instrument type: GC-EI-TOF
Ms type: MS
Ion mode: POSITIVE
Column name: CP-SIL 8 CB LOW BLEED/MS
Retention time: 692.409  sec
m/z	relative intensity
85	12
86	5
87	13
88	9
89	10
90	3
91	3
92	4
93	21
94	3
95	25
96	5
97	21
98	6
99	59
100	9
101	21
102	8
103	30
104	5
105	9
106	1
107	1
108	2
109	2
110	1
111	35
112	4
113	12
114	5
115	66
116	32
117	60
118	8
119	17
120	2
121	3
123	1
124	1
125	2
126	2
127	5
128	2
129	104
130	15
131	88
132	16
133	175
134	25
135	21
136	2
137	1
138	1
139	19
140	3
141	30
142	7
143	67
144	9
145	10
146	4
147	999
148	164
149	179
150	24
151	14
152	2
153	1
154	1
155	5
156	4
157	25
158	5
159	8
160	2
161	7
162	2
163	17
164	3
165	2
169	14
170	3
171	18
172	5
173	10
174	2
175	5
176	1
177	5
178	1
179	1
181	1
182	1
183	130
184	20
185	45
186	7
187	4
188	1
189	14
190	12
191	16
192	4
193	4
194	1
195	1
199	2
200	1
201	11
202	2
203	3
204	9
205	10
206	3
207	23
208	5
209	4
211	169
212	27
213	34
214	5
215	28
216	8
217	46
218	9
219	7
220	1
221	71
222	17
223	10
224	2
225	1
227	1
228	1
229	21
230	7
231	36
232	9
233	6
234	1
241	2
242	1
243	4
244	5
245	6
246	2
247	1
256	1
257	72
258	18
259	17
260	4
261	2
271	1
272	6
273	550
274	130
275	59
276	10
277	2
285	21
286	6
287	9
288	2
289	1
291	2
292	1
293	1
301	12
302	3
303	14
304	6
305	30
306	10
307	6
308	2
309	1
318	1
319	7
320	2
321	2
331	4
332	2
333	8
334	3
335	2
336	1
345	1
346	6
347	101
348	35
349	19
350	5
351	1
362	4
363	72
364	27
365	13
366	3
373	1
374	6
375	78
376	30
377	17
378	5
379	2
380	1
421	1
422	1
437	1
464	5
465	29
466	17
467	8
468	3
