Mass spectrum: N-Acetylneuraminic acid; GC-EI-TOF; MS; n TMS; RT:987.339 sec
Name: N-Acetylneuraminate
Name: N-Acetylneuraminic acid
Class: Natural Product
Formula: C11H19NO9
Exact mass: 309.10598
SMILES: OCC(O)C(O)C([H])(O1)C(NC(C)=O)C(O)CC(O)(C(O)=O)1
InChI: InChI=1S/C11H19NO9/c1-4(14)12-7-5(15)2-11(20,10(18)19)21-9(7)8(17)6(16)3-13/h5-9,13,15-17,20H,2-3H2,1H3,(H,12,14)(H,18,19)/t5-,6+,7+,8+,9+,11?/m0/s1
Instrument: Pegasus III TOF-MS system, Leco; GC 6890, Agilent Technologies
Instrument type: GC-EI-TOF
Ms type: MS
Ion mode: POSITIVE
Column name: CP-SIL 8 CB LOW BLEED/MS
Retention time: 987.339  sec
m/z	relative intensity
85	27
86	18
87	22
88	14
89	228
90	24
91	16
92	5
93	2
94	7
95	3
96	65
97	9
98	24
99	38
100	48
101	128
102	51
103	567
104	54
105	33
106	7
107	13
108	5
109	5
110	6
111	11
112	20
113	23
114	127
115	57
116	171
117	367
118	43
119	30
120	5
121	2
122	3
123	20
124	4
125	8
126	82
127	28
128	61
129	196
130	45
131	115
132	105
133	519
134	74
135	31
136	6
137	5
138	3
139	5
140	17
141	18
142	40
143	59
144	69
145	23
146	7
147	999
148	178
149	114
150	8
151	5
152	10
153	17
154	32
155	21
156	77
157	110
158	29
159	11
160	4
161	11
162	3
163	17
164	4
165	3
166	11
167	15
168	22
169	17
170	30
171	13
172	60
173	17
174	11
175	8
176	3
177	8
178	3
179	5
180	10
181	19
182	12
183	11
184	16
185	5
186	18
187	7
188	29
189	50
190	24
191	55
192	10
193	8
194	10
195	24
196	9
197	6
198	6
199	4
200	38
201	9
202	15
203	14
204	73
205	197
206	49
207	38
208	8
209	5
210	4
211	5
212	6
213	2
214	84
215	29
216	30
217	265
218	63
219	29
220	7
221	25
222	5
223	7
224	2
225	3
226	5
227	41
228	17
229	30
230	92
231	35
232	16
233	5
234	2
236	3
237	4
238	1
239	2
240	8
241	10
242	7
243	16
244	26
245	94
246	205
247	55
248	23
249	6
250	2
251	5
253	8
254	4
255	6
256	7
257	1
258	54
259	26
260	11
261	28
262	7
263	3
265	1
266	3
267	1
268	3
269	7
270	4
271	17
272	9
273	5
274	5
275	60
276	15
277	10
278	3
279	5
280	3
281	1
283	4
284	10
285	20
286	6
287	3
288	1
289	6
290	487
291	174
292	66
293	15
294	4
295	2
296	1
297	4
298	3
300	5
301	2
302	4
304	5
305	5
306	8
307	20
308	7
309	3
310	2
313	9
314	8
315	4
316	1
317	2
318	17
319	151
320	81
321	31
322	9
323	2
325	1
330	1
331	4
332	11
333	6
334	5
338	3
340	1
342	3
343	5
344	23
345	15
346	9
347	12
348	5
349	3
353	3
355	2
356	2
358	2
359	3
360	3
361	7
362	1
363	3
364	2
365	2
368	1
369	2
370	2
372	12
373	14
374	10
375	7
376	1
377	1
380	1
384	1
386	2
388	5
389	2
391	6
392	2
396	2
401	4
402	6
403	13
404	21
405	11
406	3
407	1
409	1
413	1
416	1
417	2
418	1
419	3
422	1
430	3
431	1
432	23
433	183
434	124
435	48
436	12
437	6
439	1
444	2
446	2
448	1
449	1
451	1
454	1
456	1
457	1
459	1
461	1
462	14
463	21
464	13
465	4
466	4
467	2
468	1
474	2
475	7
476	4
477	2
478	1
481	1
491	1
492	2
496	1
500	1
