Mass spectrum: DL-Glyceraldehyde; GC-EI-TOF; MS; n TMS; RT:390.859 sec
Name: DL-Glyceraldehyde
Class: Natural Product
Formula: C3H6O3
Exact mass: 90.03169
SMILES: [H]C([H])(O)C([H])(O)C=O
InChI: InChI=1S/C3H6O3/c4-1-3(6)2-5/h1,3,5-6H,2H2
Instrument: Pegasus III TOF-MS system, Leco; GC 6890, Agilent Technologies
Instrument type: GC-EI-TOF
Ms type: MS
Ion mode: POSITIVE
Column name: CP-SIL 8 CB LOW BLEED/MS
Retention time: 390.859  sec
m/z	relative intensity
85	59
86	81
87	60
88	82
89	613
90	60
91	43
97	1
98	20
99	43
100	571
101	312
102	263
103	999
104	109
105	291
106	27
107	12
111	2
112	22
113	12
114	80
115	79
116	65
117	369
118	47
119	66
120	9
121	4
122	1
124	1
126	16
127	18
128	56
129	35
130	23
131	115
132	22
133	663
134	84
135	56
136	6
139	4
142	25
143	18
144	12
145	9
146	9
147	978
148	166
149	121
150	15
158	29
159	5
160	451
161	59
162	18
163	295
164	54
165	29
172	14
173	18
174	35
175	32
176	5
186	12
187	6
188	2
189	48
190	24
191	90
192	10
193	4
197	1
201	15
202	61
203	8
204	18
205	15
206	4
208	1
216	48
217	129
218	32
219	11
232	41
233	15
235	1
238	1
248	20
250	3
263	46
264	8
265	1
269	1
274	4
276	2
279	1
284	3
301	2
314	1
328	4
339	1
344	4
360	1
386	4
390	1
391	1
415	1
430	2
433	2
446	1
452	1
471	1
483	1
489	2
492	1
