Mass spectrum: 3,4-Dihydroxyphenylacetic acid; GC-EI-TOF; MS; n TMS; RT:700.387 sec
Name: 3,4-Dihydroxyphenyl Acetic acid
Name: 3,4-Dihydroxyphenylacetic acid
Class: Natural Product
Formula: C8H8O4
Exact mass: 168.04226
SMILES: OC(=O)Cc(c1)cc(O)c(O)c1
InChI: InChI=1S/C8H8O4/c9-6-2-1-5(3-7(6)10)4-8(11)12/h1-3,9-10H,4H2,(H,11,12)
Instrument: Pegasus III TOF-MS system, Leco; GC 6890, Agilent Technologies
Instrument type: GC-EI-TOF
Ms type: MS
Ion mode: POSITIVE
Column name: CP-SIL 8 CB LOW BLEED/MS
Retention time: 700.387  sec
m/z	relative intensity
85	7
86	1
87	8
88	2
89	16
90	5
91	29
92	4
93	6
95	8
96	2
97	5
98	1
99	9
100	1
101	4
102	6
103	32
104	89
105	39
106	4
107	4
109	3
110	1
111	4
113	2
115	20
116	5
117	23
118	10
119	45
120	6
121	9
122	1
123	4
125	1
129	2
131	30
132	5
133	60
134	9
135	30
136	5
137	4
143	3
145	6
146	2
147	74
148	16
149	113
150	23
151	12
152	2
153	2
157	1
159	2
160	1
161	16
162	7
163	40
164	9
165	7
166	2
167	1
173	1
175	4
176	3
177	22
178	33
179	999
180	158
181	52
182	6
183	1
189	1
191	7
192	4
193	31
194	6
195	7
196	2
197	1
203	1
205	2
206	8
207	9
208	3
209	21
210	10
211	4
212	1
219	2
220	1
221	5
222	2
223	9
224	3
225	16
226	5
227	2
233	1
235	4
236	4
237	153
238	41
239	17
240	3
249	1
251	13
252	8
253	22
254	8
255	3
265	28
266	8
267	262
268	71
269	28
270	5
271	1
281	22
282	6
283	2
294	3
295	1
296	1
340	15
341	9
342	10
343	3
344	1
368	1
369	31
370	15
371	6
372	2
383	7
384	200
385	81
386	38
387	10
388	2
