Mass spectrum: L-Prolinamide; GC-EI-TOF; MS; n TMS; RT:518.996 sec
Name: L-Prolinamide
Class: Natural Product
Formula: C18H19N5
Exact mass: 305.16405
SMILES: CN(C4)CCN(C4)C(=C1)n(c32)c(nc(cccc3)2)C(C#N)=C(C)1
InChI: InChI=1S/C18H19N5/c1-13-11-17(22-9-7-21(2)8-10-22)23-16-6-4-3-5-15(16)20-18(23)14(13)12-19/h3-6,11H,7-10H2,1-2H3
Instrument: Pegasus III TOF-MS system, Leco; GC 6890, Agilent Technologies
Instrument type: GC-EI-TOF
Ms type: MS
Ion mode: POSITIVE
Column name: CP-SIL 8 CB LOW BLEED/MS
Retention time: 518.996  sec
m/z	relative intensity
85	17
86	14
87	3
88	1
89	1
92	1
93	1
94	1
95	2
96	2
97	2
98	8
99	12
100	65
101	13
102	13
103	3
104	1
105	1
106	1
110	1
111	1
112	2
113	8
114	6
115	21
116	8
117	4
118	1
119	1
124	4
125	1
126	8
127	5
128	5
129	1
130	6
131	8
132	3
133	4
139	1
140	9
141	9
142	999
143	141
144	49
145	4
146	7
147	18
148	3
149	1
153	9
154	2
158	2
167	1
169	5
170	1
174	9
175	1
188	1
215	3
216	9
217	2
243	3
