Mass spectrum: D-Lyxose; GC-EI-TOF; MS; n TMS; RT:620.294 sec
Name: D-Lyxose
Class: Natural Product
Formula: C5H10O5
Exact mass: 150.05282
SMILES: OC(C1)C(O)C(O)C(O)O1
InChI: InChI=1S/C5H10O5/c6-2-1-10-5(9)4(8)3(2)7/h2-9H,1H2/t2-,3+,4+,5?/m0/s1
Instrument: Pegasus III TOF-MS system, Leco; GC 6890, Agilent Technologies
Instrument type: GC-EI-TOF
Ms type: MS
Ion mode: POSITIVE
Column name: CP-SIL 8 CB LOW BLEED/MS
Retention time: 620.294  sec
m/z	relative intensity
85	10
86	13
87	15
88	10
89	122
90	11
91	6
92	1
93	1
94	2
95	1
96	1
97	1
98	5
99	10
100	42
101	44
102	22
103	999
104	95
105	70
106	5
107	2
110	1
111	4
112	5
113	12
114	23
115	18
116	15
117	106
118	12
119	17
120	2
121	1
126	6
127	7
128	8
129	90
130	22
131	48
132	9
133	123
134	17
135	11
136	1
140	3
141	3
142	9
143	21
144	4
145	16
146	3
147	349
148	56
149	40
150	5
151	3
152	1
154	1
155	1
156	2
157	8
158	12
159	5
160	86
161	21
162	5
163	19
164	3
165	2
166	1
168	8
169	3
170	2
172	6
173	8
174	11
175	12
176	2
177	4
178	1
184	2
185	1
186	2
187	1
188	1
189	108
190	23
191	37
192	6
193	3
198	5
199	1
200	4
201	9
202	3
203	6
204	34
205	38
206	9
207	7
208	1
214	1
215	2
216	12
217	398
218	86
219	38
220	5
221	9
222	2
223	1
228	2
229	1
230	2
231	7
232	5
233	27
234	18
235	5
236	1
240	1
242	4
243	1
244	1
246	2
248	3
256	5
257	3
258	2
262	9
263	2
264	1
272	2
274	3
275	1
277	27
278	11
279	5
280	1
288	3
289	1
290	1
291	4
292	1
305	2
306	3
307	131
308	39
309	20
310	4
311	1
316	1
319	1
330	2
331	1
332	1
362	2
364	1
467	1
