Mass spectrum: L-Cysteine; GC-EI-TOF; MS; n TMS; RT:874.744 sec
Name: L-Cysteine
Class: Natural Product
Formula: C3H7NO2S
Exact mass: 121.01975
SMILES: N[C@@H](CS)C(O)=O
InChI: InChI=1S/C3H7NO2S/c4-2(1-7)3(5)6/h2,7H,1,4H2,(H,5,6)/t2-/m0/s1
Instrument: Pegasus III TOF-MS system, Leco; GC 6890, Agilent Technologies
Instrument type: GC-EI-TOF
Ms type: MS
Ion mode: POSITIVE
Column name: CP-SIL 8 CB LOW BLEED/MS
Retention time: 874.744  sec
m/z	relative intensity
85	25
86	50
87	34
88	10
89	12
90	14
91	21
92	2
93	4
97	2
98	18
99	16
100	635
101	103
102	60
103	54
104	7
105	17
106	10
107	4
110	2
112	2
113	9
114	86
115	191
116	140
117	59
118	20
119	12
120	31
121	2
127	1
128	14
129	66
130	72
131	100
132	158
133	96
134	19
135	2
138	1
142	9
144	35
145	15
146	999
147	622
148	312
149	76
150	27
151	3
152	3
156	3
158	14
159	13
160	20
161	11
162	4
163	12
165	1
167	1
169	1
172	36
173	6
174	36
175	4
176	2
178	81
179	22
180	18
181	1
185	3
187	1
188	56
189	12
190	14
191	4
193	2
196	1
198	4
200	2
201	1
202	7
203	23
204	7
205	2
208	5
209	4
215	2
216	85
217	25
218	979
219	215
220	135
221	31
222	15
223	2
224	4
230	4
231	10
232	133
233	32
234	10
235	4
242	1
248	7
249	11
250	13
251	1
252	1
256	1
260	10
261	8
262	1
264	100
265	54
266	189
267	44
268	26
269	3
277	1
286	1
288	12
289	11
290	8
291	9
295	2
296	23
297	68
298	17
299	11
304	1
316	2
320	1
323	3
336	3
338	3
339	4
351	1
354	2
356	2
362	2
365	1
376	2
380	1
393	2
401	2
407	1
410	7
411	65
412	34
413	18
414	5
423	3
440	1
442	1
462	3
484	5
493	2
