Mass spectrum: (-)-Epinephrine; GC-EI-TOF; MS; n TMS; RT:752.714 sec
Name: (-)-Epinephrine
Class: Natural Product
Formula: C9H13NO3
Exact mass: 183.08954
SMILES: CNC[C@H](O)c(c1)cc(O)c(O)c1
InChI: InChI=1S/C9H13NO3/c1-10-5-9(13)6-2-3-7(11)8(12)4-6/h2-4,9-13H,5H2,1H3/t9-/m0/s1
Instrument: Pegasus III TOF-MS system, Leco; GC 6890, Agilent Technologies
Instrument type: GC-EI-TOF
Ms type: MS
Ion mode: POSITIVE
Column name: CP-SIL 8 CB LOW BLEED/MS
Retention time: 752.714  sec
m/z	relative intensity
85	1
86	9
87	2
88	3
89	2
90	1
91	3
100	5
101	3
102	2
103	3
104	1
105	3
114	2
115	6
116	999
117	116
118	41
119	6
121	1
129	1
130	1
131	7
132	1
133	11
134	1
135	2
137	1
144	1
145	1
146	1
147	41
148	7
149	5
150	1
151	1
160	3
161	2
162	2
163	2
165	1
174	1
175	1
177	4
178	1
179	10
180	2
181	1
191	2
192	3
193	9
194	2
195	1
205	2
207	2
209	1
220	2
221	2
222	1
223	1
235	1
237	2
251	5
252	1
253	1
265	3
266	1
267	4
268	1
279	1
280	1
281	5
282	1
294	2
308	1
309	1
339	1
354	2
355	34
356	13
357	6
358	1
366	4
367	2
368	1
456	3
457	2
458	1
