Mass spectrum: Elaidic acid; GC-EI-TOF; MS; n TMS; RT:853.930 sec
Name: Elaidic acid
Class: Natural Product
Formula: C12H12
Exact mass: 156.09390
SMILES: CCc(c1)c(c2)c(ccc2)cc1
InChI: InChI=1S/C12H12/c1-2-10-7-5-8-11-6-3-4-9-12(10)11/h3-9H,2H2,1H3
Instrument: Pegasus III TOF-MS system, Leco; GC 6890, Agilent Technologies
Instrument type: GC-EI-TOF
Ms type: MS
Ion mode: POSITIVE
Column name: CP-SIL 8 CB LOW BLEED/MS
Retention time: 853.930  sec
m/z	relative intensity
85	58
86	19
87	15
88	12
89	45
90	7
91	58
92	18
93	78
94	45
95	186
96	305
97	184
98	215
99	53
100	7
101	19
102	6
103	12
104	2
105	50
106	13
107	44
108	29
109	101
110	107
111	76
112	40
113	12
114	3
115	13
116	106
117	999
118	109
119	79
120	16
121	46
122	17
123	79
124	47
125	29
126	13
127	9
128	10
129	822
130	114
131	166
132	186
133	82
134	40
135	35
136	11
137	54
138	38
139	16
140	6
141	9
142	10
143	59
144	12
145	314
146	45
147	33
148	18
149	14
150	7
151	34
152	47
153	12
154	3
155	38
156	13
157	28
158	11
159	25
160	5
161	11
162	4
163	5
164	6
165	19
166	28
167	12
168	7
169	25
170	11
171	41
172	17
173	19
174	6
175	6
176	2
177	3
178	2
179	10
180	42
181	13
182	4
183	30
184	11
185	80
186	21
187	18
188	9
189	5
190	2
191	2
192	1
193	7
194	7
195	3
196	1
197	7
198	2
199	95
200	18
201	22
202	3
203	1
204	1
206	1
207	8
208	5
209	3
210	1
211	6
212	1
213	15
214	3
215	4
216	1
217	1
220	10
221	15
222	47
223	12
224	2
225	3
226	1
227	16
228	3
229	4
230	1
235	7
236	9
237	1
239	2
241	14
242	4
243	4
244	1
245	1
246	4
247	2
249	1
253	2
255	7
256	2
257	9
258	4
259	1
263	1
264	43
265	12
266	2
267	1
269	2
270	1
271	4
272	5
273	1
281	1
283	2
286	2
295	3
296	1
297	1
299	1
311	3
312	1
313	1
338	7
339	151
340	61
341	17
342	3
354	18
355	8
356	1
