Mass spectrum: ParaXanthine; GC-EI-TOF; MS; n TMS; RT:764.472 sec
Name: ParaXanthine
Class: Natural Product
Formula: C7H8N4O2
Exact mass: 180.06473
SMILES: O=C(N1)N(C)C(=O)c(n(C)2)c(nc2)1
InChI: InChI=1S/C7H8N4O2/c1-10-3-8-5-4(10)6(12)11(2)7(13)9-5/h3H,1-2H3,(H,9,13)
Instrument: Pegasus III TOF-MS system, Leco; GC 6890, Agilent Technologies
Instrument type: GC-EI-TOF
Ms type: MS
Ion mode: POSITIVE
Column name: CP-SIL 8 CB LOW BLEED/MS
Retention time: 764.472  sec
m/z	relative intensity
85	80
86	55
87	15
88	4
89	43
90	13
91	19
92	5
93	17
94	29
95	65
96	32
97	18
98	55
99	22
100	70
101	12
102	5
103	1
104	3
105	2
106	4
107	11
108	16
109	31
110	16
111	52
112	11
113	9
114	2
115	4
116	1
118	83
119	14
120	12
121	3
122	10
123	21
124	22
125	250
126	36
127	14
128	2
129	1
133	1
134	6
135	5
136	15
137	9
138	4
139	17
140	5
141	7
142	1
146	1
147	4
148	6
149	4
150	59
151	21
152	18
153	8
154	6
155	1
156	1
161	4
162	2
163	24
164	16
165	6
166	15
167	6
168	3
169	2
178	2
179	15
180	434
181	67
182	22
183	3
193	10
194	7
195	7
196	3
207	14
208	7
209	5
210	3
212	1
213	1
220	1
221	7
222	2
223	8
224	2
235	3
236	8
237	999
238	197
239	54
240	7
244	1
248	1
251	6
252	157
253	29
254	9
