Mass spectrum: N-Acetyl-D-glucosamine; GC-EI-TOF; MS; n TMS; RT:796.388 sec
Name: N-Acetyl-D-glucosamine
Class: Natural Product
Formula: C8H15NO6
Exact mass: 221.08994
SMILES: OC[C@@H](O1)[C@@H](O)[C@H](O)[C@@H](NC(C)=O)C(O)1
InChI: InChI=1S/C8H15NO6/c1-3(11)9-5-7(13)6(12)4(2-10)15-8(5)14/h4-8,10,12-14H,2H2,1H3,(H,9,11)/t4-,5-,6-,7-,8?/m1/s1
Instrument: Pegasus III TOF-MS system, Leco; GC 6890, Agilent Technologies
Instrument type: GC-EI-TOF
Ms type: MS
Ion mode: POSITIVE
Column name: CP-SIL 8 CB LOW BLEED/MS
Retention time: 796.388  sec
m/z	relative intensity
85	35
86	20
87	812
88	57
89	217
90	25
91	16
92	3
93	8
94	9
95	14
96	25
97	50
98	22
99	83
100	67
101	90
102	30
103	392
104	42
105	43
106	11
107	10
108	7
109	14
110	27
111	28
112	34
113	69
114	31
115	50
116	149
117	426
118	60
119	44
120	9
121	6
122	9
123	21
124	7
125	10
126	19
127	33
128	42
129	755
130	157
131	163
132	77
133	250
134	38
135	33
136	5
137	30
138	13
139	11
140	12
141	72
142	40
143	98
144	49
145	22
146	9
147	999
148	176
149	117
150	17
151	15
152	10
153	54
154	48
155	38
156	27
157	195
158	105
159	27
160	15
161	15
162	6
163	20
164	4
165	8
166	5
167	14
168	18
169	35
170	37
171	110
172	38
173	285
174	52
175	30
176	8
177	10
178	5
179	19
180	8
181	12
182	12
183	18
184	11
185	24
186	42
187	14
188	7
189	90
190	30
191	29
192	7
193	6
194	3
195	19
196	14
197	12
198	13
199	7
200	44
201	27
202	515
203	98
204	108
205	423
206	90
207	50
208	9
209	8
210	22
211	13
212	21
213	83
214	24
215	21
216	9
217	156
218	44
219	20
220	4
221	18
222	7
223	7
224	6
225	13
226	5
227	24
228	8
229	57
230	22
231	93
232	23
233	9
234	2
237	17
238	24
239	10
240	6
241	3
242	6
243	127
244	31
245	15
246	21
247	8
248	3
249	1
253	2
254	1
255	29
256	8
257	5
258	3
259	2
260	9
261	2
262	2
263	1
267	1
268	5
269	27
270	11
271	6
272	3
273	4
274	113
275	37
276	18
277	13
278	5
279	2
283	2
284	3
285	19
286	9
287	5
288	2
289	1
291	15
292	6
293	3
296	2
297	2
299	4
300	9
301	12
302	5
303	12
304	6
305	18
306	8
307	8
308	2
309	1
311	1
312	6
313	3
314	2
315	1
317	1
318	5
319	209
320	78
321	36
322	9
323	1
326	1
327	15
328	6
329	3
330	1
332	2
333	91
334	36
335	14
336	3
343	5
344	1
345	15
346	5
347	2
358	2
359	4
360	2
365	1
374	2
375	1
391	1
392	1
402	1
417	3
418	2
433	3
434	3
