Mass spectrum: Pyridoxine; GC-EI-TOF; MS; n TMS; RT:728.720 sec
Name: Pyridoxine
Class: Natural Product
Formula: C8H11NO3
Exact mass: 169.07389
SMILES: OCc(c1)c(CO)c(O)c(C)n1
InChI: InChI=1S/C8H11NO3/c1-5-8(12)7(4-11)6(3-10)2-9-5/h2,10-12H,3-4H2,1H3
Instrument: Pegasus III TOF-MS system, Leco; GC 6890, Agilent Technologies
Instrument type: GC-EI-TOF
Ms type: MS
Ion mode: POSITIVE
Column name: CP-SIL 8 CB LOW BLEED/MS
Retention time: 728.720  sec
m/z	relative intensity
85	17
86	6
87	12
88	4
89	18
90	6
91	30
92	11
93	12
94	7
95	13
96	6
97	16
98	7
99	10
100	5
101	6
102	6
103	39
104	15
105	27
106	93
107	16
108	5
109	13
110	5
111	12
112	2
113	5
114	2
115	19
116	10
117	31
118	19
119	26
120	21
121	12
122	10
123	11
124	5
125	6
126	1
127	2
128	1
129	2
130	14
131	63
132	26
133	141
134	65
135	27
136	15
137	9
138	5
139	5
140	1
141	1
142	1
143	6
144	4
145	4
146	9
147	431
148	88
149	57
150	24
151	12
152	6
153	3
154	1
155	1
156	1
157	4
158	2
159	1
160	4
161	4
162	17
163	9
164	37
165	17
166	15
167	7
168	2
169	2
170	1
171	1
172	2
173	1
174	5
175	4
176	21
177	11
178	35
179	29
180	31
181	16
182	6
183	2
184	1
186	1
188	4
189	4
190	25
191	15
192	71
193	24
194	30
195	12
196	5
197	1
198	1
202	1
203	1
204	10
205	12
206	60
207	50
208	53
209	14
210	5
211	1
218	1
219	1
220	9
221	19
222	86
223	22
224	12
225	2
226	1
232	1
234	2
235	1
236	6
237	2
238	10
239	4
240	3
241	1
248	1
249	1
250	18
251	10
252	56
253	25
254	14
255	3
256	1
264	12
265	13
266	16
267	9
268	4
269	1
278	3
279	8
280	999
281	320
282	137
283	30
284	7
285	2
286	2
287	2
288	2
289	2
290	2
291	2
292	1
293	1
294	11
295	347
296	108
297	51
298	13
299	3
326	2
327	4
328	1
354	1
369	1
370	35
371	15
372	7
373	1
