Mass spectrum: Biopterin; GC-EI-TOF; MS; n TMS; RT:923.251 sec
Name: Biopterin
Class: Natural Product
Formula: C9H11N5O3
Exact mass: 237.08619
SMILES: CC(O)C(O)c(c2)nc(C(=O)1)c(n2)N=C(N)N1
InChI: InChI=1S/C9H11N5O3/c1-3(15)6(16)4-2-11-7-5(12-4)8(17)14-9(10)13-7/h2-3,6,15-16H,1H3,(H3,10,11,13,14,17)/t3-,6-/m0/s1
Instrument: Pegasus III TOF-MS system, Leco; GC 6890, Agilent Technologies
Instrument type: GC-EI-TOF
Ms type: MS
Ion mode: POSITIVE
Column name: CP-SIL 8 CB LOW BLEED/MS
Retention time: 923.251  sec
m/z	relative intensity
85	48
86	32
87	33
88	10
89	21
90	8
91	9
92	11
93	12
94	14
95	14
96	11
97	14
98	34
99	197
100	92
101	76
102	24
103	32
104	12
105	24
106	12
107	7
108	7
109	11
110	20
111	21
112	11
113	16
114	11
115	37
116	20
117	790
118	96
119	58
120	14
121	10
122	12
123	15
124	25
125	25
126	23
127	18
128	11
129	9
130	34
131	140
132	55
133	166
134	30
135	23
136	13
137	11
138	14
139	13
140	14
141	19
142	15
143	16
144	16
145	14
146	17
147	555
148	96
149	73
150	20
151	18
152	16
153	24
154	10
155	21
156	12
157	41
158	48
159	18
160	10
161	7
162	6
163	8
164	16
165	15
166	11
167	15
168	12
169	10
170	6
171	147
172	38
173	28
174	12
175	8
176	10
177	12
178	23
179	17
180	15
181	13
182	18
183	10
184	10
185	3
186	3
187	7
188	6
189	12
190	12
191	12
192	21
193	15
194	43
195	17
196	8
197	8
198	11
199	4
200	3
201	4
202	8
203	12
204	14
205	28
206	15
207	11
208	10
209	14
210	8
211	4
212	5
213	3
214	4
215	7
216	18
217	11
218	10
219	11
220	11
221	10
222	47
223	16
224	10
225	4
226	2
227	2
228	8
229	6
230	15
231	18
232	13
233	7
234	10
235	8
236	13
237	11
238	7
239	4
240	3
241	2
242	4
243	3
244	13
245	9
246	20
247	10
248	15
249	11
250	10
251	10
252	10
253	4
254	1
255	2
256	3
257	2
258	16
259	6
260	9
261	7
262	10
263	12
264	15
265	11
266	9
267	7
268	3
269	1
271	1
272	3
273	2
274	8
275	4
276	7
277	13
278	11
279	14
280	7
281	4
282	1
284	1
288	6
289	8
290	40
291	23
292	16
293	8
294	4
295	2
296	1
297	1
299	1
300	1
301	1
302	4
303	11
304	22
305	32
306	25
307	13
308	6
309	2
310	2
312	1
313	1
314	1
315	1
316	4
317	5
318	52
319	39
320	99
321	61
322	24
323	9
324	4
325	1
326	1
328	1
329	1
330	7
331	5
332	17
333	11
334	18
335	29
336	22
337	13
338	9
339	5
340	2
342	1
344	2
345	2
346	10
347	9
348	26
349	13
350	7
351	5
352	4
353	1
354	1
358	1
359	1
360	3
361	3
362	13
363	22
364	22
365	20
366	11
367	5
368	2
369	1
370	1
371	2
372	2
373	2
374	2
375	2
376	5
377	11
378	38
379	45
380	37
381	25
382	10
383	5
384	2
385	2
386	1
387	2
388	2
389	2
390	4
391	9
392	28
393	59
394	64
395	36
396	17
397	8
398	2
399	4
400	4
401	4
402	4
403	3
404	4
405	4
406	11
407	33
408	286
409	999
410	444
411	197
412	57
413	18
414	4
415	1
418	3
419	2
420	8
421	4
422	4
423	2
434	2
435	3
436	2
437	2
442	1
443	1
450	1
451	3
452	5
453	5
454	2
455	1
456	1
465	1
466	3
467	2
468	3
469	1
470	1
479	1
480	7
481	32
482	25
483	15
484	6
485	1
486	1
493	1
494	2
495	2
496	2
497	1
