Mass spectrum: L-Alanine; GC-EI-TOF; MS; n TMS; RT:316.344 sec
Name: L-Alanine
Class: Natural Product
Formula: C3H7NO2
Exact mass: 89.04768
SMILES: CC(N)C(O)=O
InChI: InChI=1S/C3H7NO2/c1-2(4)3(5)6/h2H,4H2,1H3,(H,5,6)/t2-/m0/s1
Instrument: Pegasus III TOF-MS system, Leco; GC 6890, Agilent Technologies
Instrument type: GC-EI-TOF
Ms type: MS
Ion mode: POSITIVE
Column name: CP-SIL 8 CB LOW BLEED/MS
Retention time: 316.344  sec
m/z	relative intensity
85	3
86	27
87	9
88	9
89	3
92	1
93	1
94	18
95	2
98	3
99	2
100	63
101	17
102	17
103	46
104	5
105	5
112	1
113	1
114	12
115	15
116	999
117	123
118	43
119	8
128	20
129	4
130	6
131	17
132	9
133	25
134	4
135	2
144	4
146	6
147	180
148	30
149	15
150	1
174	4
175	1
190	39
191	10
192	4
218	14
219	2
220	1
