Mass spectrum: 4-Hydroxypyridine; GC-EI-TOF; MS; n TMS; RT:355.993 sec
Name: 4-Hydroxypyridine
Class: Natural Product
Formula: C5H5NO
Exact mass: 95.03711
SMILES: Oc(c1)ccnc1
InChI: InChI=1S/C5H5NO/c7-5-1-3-6-4-2-5/h1-4H,(H,6,7)
Instrument: Pegasus III TOF-MS system, Leco; GC 6890, Agilent Technologies
Instrument type: GC-EI-TOF
Ms type: MS
Ion mode: POSITIVE
Column name: CP-SIL 8 CB LOW BLEED/MS
Retention time: 355.993  sec
m/z	relative intensity
85	26
86	8
87	1
90	1
91	5
92	19
93	22
94	14
95	17
96	9
97	8
98	5
99	135
100	15
101	6
102	1
104	1
106	11
107	4
108	11
109	27
110	7
111	4
112	5
120	1
122	43
123	7
124	12
125	11
126	10
127	1
132	9
133	1
134	61
135	13
136	42
137	12
138	11
139	1
146	2
148	2
150	9
151	5
152	999
153	136
154	44
155	4
165	1
166	3
167	245
168	35
169	11
