Mass spectrum: D-(-)-Sorbitol; GC-EI-TOF; MS; n TMS; RT:738.796 sec
Name: D-(-)-Sorbitol
Class: Natural Product
Formula: C6H14O6
Exact mass: 182.07904
SMILES: OCC([H])(O)C([H])(O)C([H])(O)C([H])(O)CO
InChI: InChI=1S/C6H14O6/c7-1-3(9)5(11)6(12)4(10)2-8/h3-12H,1-2H2/t3-,4+,5-,6-/m1/s1
Instrument: Pegasus III TOF-MS system, Leco; GC 6890, Agilent Technologies
Instrument type: GC-EI-TOF
Ms type: MS
Ion mode: POSITIVE
Column name: CP-SIL 8 CB LOW BLEED/MS
Retention time: 738.796  sec
m/z	relative intensity
85	9
86	2
87	19
88	12
89	84
90	7
91	5
92	1
93	1
94	1
95	2
96	1
97	20
98	2
99	13
100	1
101	70
102	11
103	635
104	62
105	31
106	2
107	1
109	1
111	8
112	1
113	16
114	2
115	16
116	20
117	338
118	33
119	28
120	3
121	2
125	2
127	8
128	1
129	239
130	25
131	72
132	11
133	168
134	24
135	16
136	2
137	1
139	1
141	6
142	3
143	40
144	5
145	12
146	1
147	999
148	152
149	96
150	11
151	5
153	2
155	9
156	1
157	178
158	19
159	15
160	2
161	9
162	1
163	15
164	2
165	1
167	3
168	1
169	12
170	2
171	2
173	3
175	17
176	3
177	8
178	2
179	1
181	1
183	23
184	3
185	2
187	2
188	1
189	90
190	26
191	86
192	17
193	9
194	1
201	4
202	3
203	13
204	107
205	440
206	91
207	51
208	8
209	3
215	5
216	2
217	488
218	101
219	46
220	6
221	30
222	7
223	4
224	1
229	49
230	15
231	45
232	9
233	4
234	1
237	1
239	3
241	1
243	6
244	2
245	1
246	1
247	4
248	1
249	1
250	1
255	18
256	4
257	6
258	1
259	12
260	3
261	1
263	1
265	6
266	2
267	1
273	1
277	20
278	12
279	5
280	2
291	18
292	6
293	3
305	22
306	13
307	78
308	23
309	11
310	2
317	1
318	2
319	385
320	122
321	60
322	13
323	3
329	2
330	1
331	29
332	10
333	5
334	1
344	1
345	17
346	6
347	3
409	4
410	2
411	1
419	5
420	3
421	10
422	5
423	2
