Mass spectrum: Alanylalanine; GC-EI-TOF; MS; n TMS; RT:711.407 sec
Name: Alanylalanine
Class: Natural Product
Formula: C6H12N2O3
Exact mass: 160.08479
SMILES: CC(N)C(=O)NC(C)C(O)=O
InChI: InChI=1S/C6H12N2O3/c1-3(7)5(9)8-4(2)6(10)11/h3-4H,7H2,1-2H3,(H,8,9)(H,10,11)/t3-,4-/m0/s1
Instrument: Pegasus III TOF-MS system, Leco; GC 6890, Agilent Technologies
Instrument type: GC-EI-TOF
Ms type: MS
Ion mode: POSITIVE
Column name: CP-SIL 8 CB LOW BLEED/MS
Retention time: 711.407  sec
m/z	relative intensity
85	16
86	54
87	16
88	6
89	2
93	1
94	1
96	1
97	12
98	11
99	12
100	576
101	80
102	43
103	17
104	3
110	1
111	1
112	7
113	11
114	154
115	41
116	130
117	40
118	12
119	10
120	1
125	1
126	3
127	1
128	17
129	18
130	85
131	38
132	18
133	42
134	6
135	3
141	2
142	8
143	3
144	17
145	3
146	21
147	119
148	24
149	19
150	5
151	1
152	1
153	1
154	2
156	10
157	12
158	18
159	4
160	8
161	3
162	1
167	2
168	1
169	9
170	6
171	4
172	39
173	7
174	48
175	8
176	6
177	1
178	2
184	1
186	17
187	4
188	999
189	205
190	165
191	28
192	11
193	2
199	3
200	31
201	20
202	7
203	2
204	1
206	1
211	1
215	12
216	9
217	2
218	10
219	2
225	1
227	2
228	2
229	1
230	1
232	1
240	1
243	19
244	5
245	1
246	29
247	7
248	1
250	1
254	1
257	1
259	2
260	2
271	14
272	4
273	4
274	1
275	1
276	2
278	1
287	1
299	1
311	1
348	1
351	1
360	2
361	37
362	17
363	7
364	1
367	1
369	1
373	1
430	1
432	1
452	1
471	1
473	1
477	2
479	1
481	1
491	1
