Mass spectrum: N-Acetyl-L-Leucine; GC-EI-TOF; MS; n TMS; RT:519.208 sec
Name: N-Acetyl-L-Leucine
Class: Natural Product
Formula: C8H15NO3
Exact mass: 173.10519
SMILES: CC(C)C[C@H](NC(C)=O)C(O)=O
InChI: InChI=1S/C8H15NO3/c1-5(2)4-7(8(11)12)9-6(3)10/h5,7H,4H2,1-3H3,(H,9,10)(H,11,12)/t7-/m0/s1
Instrument: Pegasus III TOF-MS system, Leco; GC 6890, Agilent Technologies
Instrument type: GC-EI-TOF
Ms type: MS
Ion mode: POSITIVE
Column name: CP-SIL 8 CB LOW BLEED/MS
Retention time: 519.208  sec
m/z	relative intensity
85	44
86	999
87	83
88	9
89	14
90	3
91	10
92	3
93	4
94	4
95	9
96	17
97	14
98	6
99	124
100	38
101	12
102	16
103	15
104	18
105	3
106	1
109	1
110	4
111	4
112	62
113	10
114	5
115	5
116	137
117	47
118	16
119	2
125	2
126	7
127	16
128	515
129	88
130	59
131	27
132	10
133	1
134	2
137	1
140	10
141	1
142	37
143	12
144	18
145	17
146	69
147	17
148	4
154	1
155	6
156	4
157	1
158	348
159	51
160	42
161	6
162	1
170	5
171	31
172	6
173	6
174	2
184	3
185	1
186	8
187	2
188	22
189	33
190	4
191	1
201	23
202	11
203	2
230	163
231	28
232	9
245	3
