Mass spectrum: 3-Hydroxy-3-methylglutaric acid; GC-EI-TOF; MS; n TMS; RT:597.699 sec
Name: 3-Hydroxy-3-Methylglutarate
Name: 3-Hydroxy-3-methylglutaric acid
Class: Natural Product
Formula: C6H10O5
Exact mass: 162.05282
SMILES: OC(=O)CC(C)(O)CC(O)=O
InChI: InChI=1S/C6H10O5/c1-6(11,2-4(7)8)3-5(9)10/h11H,2-3H2,1H3,(H,7,8)(H,9,10)
Instrument: Pegasus III TOF-MS system, Leco; GC 6890, Agilent Technologies
Instrument type: GC-EI-TOF
Ms type: MS
Ion mode: POSITIVE
Column name: CP-SIL 8 CB LOW BLEED/MS
Retention time: 597.699  sec
m/z	relative intensity
85	135
86	10
87	20
88	15
89	17
90	4
91	3
92	5
93	5
94	1
95	4
96	3
97	14
98	4
99	58
100	8
101	39
102	9
103	25
104	5
105	13
106	2
107	2
108	4
109	451
110	32
111	16
112	6
113	27
114	18
115	571
116	109
117	203
118	23
119	29
120	4
121	2
125	2
126	3
127	7
128	2
129	38
130	10
131	90
132	18
133	233
134	35
135	27
136	3
137	1
139	4
140	1
141	9
142	6
143	24
144	4
145	6
146	3
147	999
148	167
149	223
150	30
151	16
152	2
153	1
155	44
156	11
157	54
158	9
159	38
160	5
161	6
162	3
163	53
164	10
165	5
166	1
169	2
170	19
171	14
172	4
173	10
174	2
175	4
176	1
177	1
183	132
184	22
185	9
186	1
187	3
188	1
189	64
190	15
191	35
192	7
193	4
194	1
197	1
198	31
199	357
200	58
201	30
202	4
203	105
204	90
205	57
206	14
207	9
208	2
215	3
216	1
217	9
218	3
219	1
221	17
222	5
223	3
229	16
230	5
231	269
232	57
233	37
234	7
235	2
244	2
245	3
246	1
247	377
248	83
249	36
250	5
251	1
257	6
258	3
259	1
271	1
272	1
273	200
274	48
275	26
276	5
277	2
288	1
319	7
320	2
321	5
322	1
362	3
363	94
364	36
365	16
366	4
