Mass spectrum: D-(+)-Turanose; GC-EI-TOF; MS; n TMS; RT:1017.749 sec
Name: D-(+)-Turanose
Class: Natural Product
Formula: C12H22O11
Exact mass: 342.11621
SMILES: OCC(O1)C(O)C(O)C(O)C([H])1OC(C(O)2)C(O)(CO)OCC(O)2
InChI: InChI=1S/C12H22O11/c13-1-5-7(17)8(18)9(19)11(22-5)23-10-6(16)4(15)2-21-12(10,20)3-14/h4-11,13-20H,1-3H2/t4-,5-,6-,7-,8+,9-,10+,11-,12?/m1/s1
Instrument: Pegasus III TOF-MS system, Leco; GC 6890, Agilent Technologies
Instrument type: GC-EI-TOF
Ms type: MS
Ion mode: POSITIVE
Column name: CP-SIL 8 CB LOW BLEED/MS
Retention time: 1017.749  sec
m/z	relative intensity
85	30
86	14
87	27
88	20
89	201
90	21
91	11
92	1
93	1
94	6
95	4
96	5
97	9
98	7
99	23
100	22
101	80
102	22
103	799
104	83
105	44
106	5
107	2
108	4
109	18
110	10
111	15
112	8
113	36
114	87
115	33
116	39
117	402
118	47
119	46
120	5
121	2
122	1
123	1
124	5
125	4
126	33
127	23
128	16
129	321
130	51
131	90
132	21
133	215
134	34
135	21
136	2
137	1
138	3
139	8
140	11
141	15
142	24
143	59
144	14
145	24
146	6
147	999
148	167
149	118
150	16
151	9
152	7
153	13
154	15
155	39
156	28
157	48
158	12
159	17
160	5
161	11
162	2
163	27
164	5
165	3
166	6
167	5
168	18
169	136
170	30
171	21
172	20
173	41
174	11
175	22
176	6
177	15
178	4
179	3
180	11
181	7
182	7
183	14
184	7
185	5
186	9
187	7
188	6
189	88
190	41
191	239
192	51
193	25
194	4
195	2
196	10
197	4
198	12
199	8
200	4
201	12
202	36
203	31
204	449
205	456
206	120
207	51
208	9
209	3
210	1
212	4
213	2
214	77
215	31
216	20
217	589
218	162
219	75
220	15
221	30
222	9
223	4
224	1
226	1
227	5
228	9
229	29
230	22
231	31
232	13
233	17
234	5
235	2
238	1
239	2
240	6
241	9
242	10
243	66
244	103
245	54
246	24
247	11
248	3
249	1
250	1
252	1
253	1
254	5
255	5
256	22
257	17
258	10
259	10
260	35
261	20
262	12
263	47
264	20
265	11
266	3
267	2
268	6
269	4
270	8
271	53
272	30
273	15
274	7
275	55
276	173
277	94
278	40
279	16
280	4
281	1
283	1
284	1
285	1
286	3
287	4
288	8
289	6
290	2
291	16
292	10
293	4
294	1
295	1
300	4
301	2
302	3
303	2
304	4
305	20
306	18
307	205
308	121
309	48
310	17
311	3
314	1
316	1
317	4
318	5
319	20
320	13
321	5
322	2
328	1
329	1
330	2
331	20
332	19
333	14
334	7
335	8
336	6
337	2
344	2
345	6
346	7
347	5
348	3
349	2
358	2
359	5
360	15
361	194
362	140
363	58
364	28
365	10
366	2
375	1
376	2
377	3
378	2
389	3
390	41
391	47
392	29
393	11
394	3
395	1
407	1
434	1
435	3
436	2
449	1
450	3
451	3
452	2
464	1
466	1
479	3
480	21
481	20
482	10
483	3
484	1
497	2
498	2
499	1
