Mass spectrum: L-Cysteine; GC-EI-QQ; MS; 3 TBDMS; RT:842.58 sec
Name: L-Cysteine
Class: Natural Product
Formula: C3H7NO2S
Exact mass: 121.01975
SMILES: N[C@@H](CS)C(O)=O
InChI: InChI=1S/C3H7NO2S/c4-2(1-7)3(5)6/h2,7H,1,4H2,(H,5,6)/t2-/m0/s1
Instrument: Agilent 7000B QqQMS, Agilent; Agilent 7901A series GC system, Agilent Technologies
Instrument type: GC-EI-QQ
Ms type: MS
Ion mode: POSITIVE
Column name: CP-SIL 8 CB LOW BLEED/MS
Retention time: 842.58 sec
Derivative form: C21H52NO2SSi3
Derivative mass: 466.30265
Derivative type: 3 TBDMS
m/z	relative intensity
54	2
55	6
56	6
57	34
58	10
59	51
60	6
61	4
69	1
70	3
71	3
73	999
74	94
75	89
76	6
77	5
83	3
84	5
85	11
86	13
87	6
88	3
89	2
90	4
91	21
92	2
93	2
97	2
98	6
99	26
100	172
101	41
102	15
103	39
104	5
105	19
106	2
107	2
112	2
113	4
115	93
116	40
117	17
118	15
119	9
120	2
126	3
128	23
129	19
130	12
131	21
132	77
133	134
134	25
135	15
136	2
140	2
142	49
143	8
144	22
145	11
147	374
148	80
149	84
150	14
151	8
152	1
156	6
157	7
158	14
159	13
160	40
161	10
162	7
163	14
164	4
165	6
168	2
170	2
172	10
173	15
174	34
175	13
176	6
177	2
184	5
185	1
186	3
187	2
188	15
189	27
190	24
191	8
192	4
193	2
200	6
202	18
203	5
204	3
205	3
206	4
207	3
208	1
214	4
215	1
216	7
218	31
219	7
220	4
221	2
222	3
223	3
224	1
230	11
231	4
232	3
234	16
235	3
236	2
242	1
244	5
245	19
246	43
247	24
248	16
249	5
250	2
256	2
258	33
259	8
260	5
261	1
262	1
264	1
265	1
274	53
275	16
276	11
277	2
286	1
288	4
289	2
290	2
300	5
302	769
303	211
304	734
305	195
306	97
307	19
308	5
316	18
317	7
318	3
330	3
332	2
333	2
378	269
379	97
380	55
381	14
382	4
406	314
407	115
408	64
409	16
410	5
411	1
420	5
421	2
422	1
448	13
449	5
450	3
