Mass spectrum: D-Glucosamine 6-phosphate; GC-EI-TOF; MS; n TMS; RT:895.1520147 sec
Name: D-Glucosamine-6-Phosphate
Name: D-Glucosamine 6-phosphate
Class: Natural Product
Formula: C6H14NO8P
Exact mass: 259.04570
SMILES: OC(O1)[C@H](N)[C@@H](O)[C@H](O)[C@H]1COP(O)(O)=O
InChI: InChI=1S/C6H14NO8P/c7-3-5(9)4(8)2(15-6(3)10)1-14-16(11,12)13/h2-6,8-10H,1,7H2,(H2,11,12,13)/t2-,3-,4-,5-,6?/m1/s1
Instrument: Pegasus III TOF-MS system, Leco; GC 6890, Agilent Technologies
Instrument type: GC-EI-TOF
Ms type: MS
Ion mode: POSITIVE
Column name: CP-SIL 8 CB LOW BLEED/MS
Retention time: 895.1520147 sec
m/z	relative intensity
85	1
86	47
87	56
88	47
89	219
90	23
91	34
93	18
95	25
96	23
98	34
99	12
100	219
101	320
102	109
103	128
104	5
105	124
106	14
108	40
112	12
113	71
115	40
116	111
117	36
118	14
119	36
126	25
127	14
128	96
129	314
130	84
131	67
132	27
133	367
134	53
135	64
137	31
138	1
141	21
142	53
143	60
144	128
145	3
147	715
148	89
149	84
150	16
151	31
152	12
153	1
154	1
155	10
157	106
158	29
159	999
160	75
161	34
162	12
163	3
165	18
166	14
167	7
168	124
169	10
170	29
171	115
172	62
173	10
174	58
177	16
183	31
184	9
188	36
189	78
190	27
191	69
192	12
193	67
194	29
195	225
196	23
197	25
201	31
203	53
204	274
205	100
206	27
207	104
208	38
211	214
212	38
213	20
214	45
215	1
216	85
217	440
218	95
219	20
221	42
225	64
226	12
227	91
228	23
229	29
230	51
231	31
232	3
234	9
235	31
237	27
240	56
241	31
242	1
244	14
245	18
246	42
247	1
254	58
256	14
257	21
258	58
261	20
267	7
269	3
276	1
279	12
280	14
281	34
283	3
284	27
285	85
286	87
287	51
289	7
290	23
291	3
292	10
293	16
295	12
296	1
297	14
299	620
300	322
301	84
302	23
303	25
304	12
308	5
311	3
314	18
315	245
316	146
317	58
319	21
320	10
324	10
331	29
332	16
333	12
334	1
336	1
338	9
342	16
343	3
344	43
345	3
347	31
348	1
353	1
354	21
357	111
358	78
359	25
360	7
363	16
364	10
373	23
374	45
375	45
376	62
379	21
380	12
382	16
386	100
387	799
388	676
389	237
390	104
391	36
392	25
394	5
395	12
397	25
400	3
401	12
403	21
404	60
407	12
408	10
409	5
410	12
411	1
420	14
423	9
424	3
428	1
432	14
433	32
436	21
437	21
438	7
440	27
443	9
449	3
455	14
459	3
460	21
463	3
464	3
468	12
471	23
472	23
474	23
475	14
478	12
479	12
484	23
489	16
492	40
494	12
495	1
498	25
