Mass spectrum: Xanthurenic acid; GC-EI-TOF; MS; n TMS; RT:866.388 sec
Name: Xanthurenate
Name: Xanthurenic acid
Class: Natural Product
Formula: C10H7NO4
Exact mass: 205.03751
SMILES: OC(=O)c(c1)nc(c(O)2)c(ccc2)c(O)1
InChI: InChI=1S/C10H7NO4/c12-7-3-1-2-5-8(13)4-6(10(14)15)11-9(5)7/h1-4,12H,(H,11,13)(H,14,15)
Instrument: Pegasus III TOF-MS system, Leco; GC 6890, Agilent Technologies
Instrument type: GC-EI-TOF
Ms type: MS
Ion mode: POSITIVE
Column name: CP-SIL 8 CB LOW BLEED/MS
Retention time: 866.388  sec
m/z	relative intensity
85	9
86	10
87	12
88	9
89	15
90	5
91	14
92	9
93	10
94	5
95	6
96	3
97	3
98	4
99	9
100	12
101	14
102	15
103	32
104	9
105	17
106	6
107	8
108	6
109	4
110	3
111	3
112	2
113	10
114	21
115	40
116	14
117	15
118	7
119	18
120	8
121	10
122	8
123	4
124	2
125	1
126	7
127	14
128	23
129	21
130	30
131	26
132	10
133	43
134	10
135	18
136	6
137	7
138	6
139	4
140	20
141	12
142	12
143	13
144	15
145	15
146	9
147	42
148	12
149	13
150	5
151	5
152	5
153	4
154	14
155	8
156	14
157	9
158	18
159	28
160	29
161	20
162	9
163	5
164	3
165	2
166	3
167	4
168	5
169	6
170	21
171	13
172	34
173	21
174	14
175	10
176	8
177	4
178	3
179	5
180	3
181	4
182	4
183	5
184	14
185	22
186	30
187	18
188	33
189	13
190	8
191	5
192	3
193	4
194	3
195	5
196	10
197	4
198	14
199	15
200	57
201	25
202	47
203	18
204	16
205	9
206	8
207	4
208	5
209	3
210	4
211	3
212	9
213	7
214	27
215	15
216	35
217	22
218	27
219	10
220	9
221	3
222	3
223	1
224	2
225	2
226	7
227	6
228	27
229	36
230	53
231	24
232	48
233	15
234	19
235	6
236	3
237	1
238	1
239	2
240	3
241	3
242	11
243	11
244	37
245	22
246	28
247	10
248	7
249	3
250	3
251	1
252	1
253	1
254	4
255	3
256	9
257	12
258	36
259	20
260	30
261	13
262	12
263	5
264	3
265	2
266	1
268	2
269	1
270	5
271	4
272	21
273	18
274	85
275	36
276	25
277	10
278	5
279	2
280	1
281	1
282	1
283	1
284	1
285	2
286	10
287	11
288	40
289	61
290	85
291	36
292	16
293	5
294	2
298	1
299	1
300	5
301	7
302	54
303	34
304	63
305	25
306	23
307	9
308	4
310	1
313	1
314	2
315	2
316	13
317	13
318	111
319	56
320	23
321	7
322	2
323	1
328	1
329	1
330	3
331	4
332	15
333	17
334	21
335	9
336	4
337	3
338	1
344	2
345	2
346	6
347	9
348	14
349	9
350	4
351	2
352	2
356	1
357	1
358	2
359	1
360	5
361	5
362	17
363	12
364	8
365	4
366	1
367	2
368	1
369	1
371	1
373	1
374	2
375	3
376	7
377	6
378	10
379	8
380	5
381	2
382	1
383	1
389	2
390	8
391	9
392	6
393	3
394	1
395	1
398	1
399	1
402	1
403	4
404	20
405	119
406	999
407	484
408	215
409	66
410	18
411	5
412	1
413	1
414	1
418	1
419	7
420	39
421	32
422	18
423	7
424	3
425	1
461	1
466	1
