Mass spectrum: Homovanillic acid; GC-EI-TOF; MS; n TMS; RT:677.867 sec
Name: Methoxy-4-Hydroxyphenylacetate
Name: Homovanillic acid
Class: Natural Product
Formula: C9H10O4
Exact mass: 182.05791
SMILES: COc(c1)c(O)ccc(CC(O)=O)1
InChI: InChI=1S/C9H10O4/c1-13-8-4-6(5-9(11)12)2-3-7(8)10/h2-4,10H,5H2,1H3,(H,11,12)
Instrument: Pegasus III TOF-MS system, Leco; GC 6890, Agilent Technologies
Instrument type: GC-EI-TOF
Ms type: MS
Ion mode: POSITIVE
Column name: CP-SIL 8 CB LOW BLEED/MS
Retention time: 677.867  sec
m/z	relative intensity
85	23
86	6
87	14
88	16
89	164
90	54
91	114
92	31
93	27
94	8
95	28
96	8
97	17
98	4
99	27
100	4
101	11
102	14
103	65
104	126
105	111
106	27
107	39
108	7
109	12
110	3
111	9
112	2
113	2
115	26
116	9
117	57
118	24
119	53
120	22
121	40
122	9
123	14
124	2
125	3
126	2
127	1
128	1
129	4
130	1
131	24
132	7
133	76
134	20
135	162
136	31
137	22
138	4
139	2
140	4
141	41
142	4
143	4
144	2
145	13
146	9
147	87
148	142
149	352
150	72
151	39
152	9
153	8
154	2
155	1
157	1
158	1
159	7
160	7
161	62
162	133
163	212
164	82
165	40
166	12
167	6
168	2
169	1
170	1
171	1
172	1
173	1
174	2
175	11
176	22
177	79
178	158
179	999
180	176
181	55
182	8
183	2
189	3
190	2
191	15
192	37
193	93
194	31
195	13
196	3
197	1
203	1
204	1
205	6
206	229
207	109
208	33
209	946
210	170
211	52
212	7
213	1
215	1
217	1
219	7
220	5
221	24
222	8
223	13
224	7
225	7
226	2
227	1
233	2
234	1
235	5
236	16
237	106
238	43
239	17
240	5
241	2
242	1
243	1
244	1
245	1
246	1
247	1
248	1
249	2
250	3
251	10
252	82
253	33
254	21
255	11
256	4
265	2
266	4
267	363
268	119
269	47
270	11
271	3
272	1
273	1
274	1
275	1
276	2
277	2
278	2
279	2
280	3
281	4
282	28
283	15
284	13
285	5
286	2
295	3
296	158
297	101
298	34
299	10
300	2
301	1
302	2
303	3
304	3
305	2
306	3
307	3
308	2
309	1
310	6
311	305
312	120
313	45
314	11
315	3
316	1
317	2
318	2
319	1
320	2
321	2
322	1
323	1
325	9
326	488
327	150
328	59
329	12
330	3
