Mass spectrum: N-Acetyl-D-glucosamine 6-phosphate; GC-EI-TOF; MS; n TMS; RT:942.4987761 sec
Name: N-Acetyl-D-Glucosamine-6-Phosphate
Name: N-Acetyl-D-glucosamine 6-phosphate
Class: Natural Product
Formula: C8H16NO9P
Exact mass: 301.05627
SMILES: CC(=O)NC(C(O)1)C(O)C(O)C(O1)COP(O)(O)=O
InChI: InChI=1S/C8H16NO9P/c1-3(10)9-5-7(12)6(11)4(18-8(5)13)2-17-19(14,15)16/h4-8,11-13H,2H2,1H3,(H,9,10)(H2,14,15,16)/t4-,5-,6-,7-,8?/m1/s1
Instrument: Pegasus III TOF-MS system, Leco; GC 6890, Agilent Technologies
Instrument type: GC-EI-TOF
Ms type: MS
Ion mode: POSITIVE
Column name: CP-SIL 8 CB LOW BLEED/MS
Retention time: 942.4987761 sec
m/z	relative intensity
85	39
86	78
87	999
88	49
89	212
90	6
91	15
96	55
97	36
98	4
99	65
100	141
101	425
102	40
103	135
104	18
105	42
106	6
107	10
108	2
110	5
111	25
112	13
113	123
114	110
115	64
116	289
117	108
118	45
119	26
121	10
125	6
127	35
128	58
129	770
130	87
131	216
132	47
133	418
134	32
135	124
137	110
141	13
142	25
143	47
144	104
145	41
146	8
147	847
148	107
149	106
150	8
151	20
153	42
154	19
156	5
157	271
158	47
159	15
162	4
163	16
165	2
168	54
169	33
170	48
171	29
172	10
173	12
174	6
178	16
179	6
180	12
181	58
186	31
188	21
189	25
191	39
193	19
195	65
196	5
197	19
198	25
201	17
202	21
204	83
205	25
207	74
209	6
210	36
211	444
212	61
213	12
214	16
215	22
216	16
217	184
218	18
221	12
223	12
225	86
226	5
227	118
228	8
229	20
230	42
231	113
232	2
237	17
239	2
243	142
244	12
248	2
257	5
259	8
261	11
269	16
274	102
275	5
276	4
285	34
287	11
295	2
298	22
299	554
300	146
301	92
302	24
303	13
313	10
314	32
315	376
316	99
317	78
318	31
319	2
324	2
328	9
331	2
333	84
334	6
341	29
343	10
357	354
358	101
359	78
360	2
361	10
362	12
372	10
383	8
386	58
387	594
388	249
389	119
390	5
391	12
400	9
414	8
415	8
421	4
428	6
434	5
450	5
454	6
457	2
466	2
467	6
471	29
474	8
492	2
