Mass spectrum: Dihydroorotic acid; GC-EI-TOF; MS; n TMS; RT:677.176 sec
Name: Dihydroorotate
Name: Dihydroorotic acid
Class: Natural Product
Formula: C5H6N2O4
Exact mass: 158.03276
SMILES: O=C(N1)CC(NC(=O)1)C(O)=O
InChI: InChI=1S/C5H6N2O4/c8-3-1-2(4(9)10)6-5(11)7-3/h2H,1H2,(H,9,10)(H2,6,7,8,11)/t2-/m0/s1
Instrument: Pegasus III TOF-MS system, Leco; GC 6890, Agilent Technologies
Instrument type: GC-EI-TOF
Ms type: MS
Ion mode: POSITIVE
Column name: CP-SIL 8 CB LOW BLEED/MS
Retention time: 677.176  sec
m/z	relative intensity
85	31
86	52
87	20
88	5
89	10
90	1
91	1
92	2
93	5
94	1
95	13
96	8
97	3
98	31
99	135
100	999
101	111
102	47
103	21
104	3
105	8
106	1
107	1
109	2
110	2
111	5
112	6
113	19
114	12
115	28
116	15
117	40
118	8
119	10
120	1
124	1
125	5
126	13
127	9
128	6
129	27
130	14
131	79
132	36
133	92
134	15
135	8
136	1
139	2
140	6
141	3
142	57
143	11
144	8
145	4
146	3
147	464
148	81
149	49
150	7
151	2
153	4
154	9
155	4
156	5
157	14
158	101
159	17
160	11
161	6
162	2
167	2
168	4
169	23
170	7
171	11
172	75
173	27
174	92
175	17
176	9
177	2
183	5
184	5
185	16
186	4
187	2
188	22
189	6
190	3
191	1
197	1
199	5
200	2
201	1
202	6
203	2
204	1
205	1
212	1
213	3
214	3
215	3
216	4
217	2
218	1
221	1
225	2
226	1
227	4
228	4
229	2
230	7
231	5
232	1
239	1
240	1
241	51
242	18
243	22
244	11
245	4
246	5
247	1
254	1
255	14
256	14
257	510
258	117
259	49
260	8
261	2
262	2
269	8
270	2
271	14
272	3
273	1
285	1
287	12
288	4
289	3
315	1
316	1
317	7
318	3
319	2
329	2
330	2
331	25
332	12
333	6
334	2
358	6
359	92
360	33
361	16
362	4
363	1
374	2
375	1
