Mass spectrum: Uric acid; GC-EI-TOF; MS; n TMS; RT:805.093 sec
Name: Uric acid
Class: Natural Product
Formula: C5H4N4O3
Exact mass: 168.02834
SMILES: O=C(N1)NC(N2)=C(NC(=O)2)C(=O)1
InChI: InChI=1S/C5H4N4O3/c10-3-1-2(7-4(11)6-1)8-5(12)9-3/h(H4,6,7,8,9,10,11,12)
Instrument: Pegasus III TOF-MS system, Leco; GC 6890, Agilent Technologies
Instrument type: GC-EI-TOF
Ms type: MS
Ion mode: POSITIVE
Column name: CP-SIL 8 CB LOW BLEED/MS
Retention time: 805.093  sec
m/z	relative intensity
85	49
86	101
87	44
88	11
89	11
90	2
91	2
92	5
93	8
94	4
95	7
96	7
97	10
98	48
99	56
100	546
101	70
102	41
103	38
104	7
105	19
106	2
107	3
108	2
109	3
110	13
111	30
112	13
113	27
114	32
115	51
116	29
117	82
118	17
119	19
120	4
121	3
122	3
123	3
124	12
125	23
126	14
127	27
128	20
129	19
130	72
131	296
132	78
133	132
134	21
135	12
136	3
137	5
138	4
139	10
140	12
141	87
142	36
143	22
144	30
145	19
146	12
147	999
148	166
149	87
150	13
151	11
152	10
153	9
154	9
155	25
156	30
157	51
158	127
159	31
160	37
161	9
162	4
164	2
165	2
166	4
167	14
168	17
169	27
170	17
171	97
172	141
173	40
174	91
175	17
176	10
177	3
178	4
179	5
180	6
181	12
182	22
183	26
184	26
185	26
186	11
187	9
188	30
189	15
190	11
191	7
192	3
193	3
194	5
195	18
196	9
197	18
198	24
199	55
200	14
201	9
202	4
203	3
204	15
205	11
206	5
207	6
208	6
209	8
210	10
211	13
212	9
213	15
214	7
215	12
216	5
217	4
218	2
219	3
220	3
221	8
222	9
223	5
224	20
225	14
226	9
227	7
228	5
229	7
230	7
231	7
232	10
233	3
234	2
235	2
236	5
237	3
238	13
239	7
240	15
241	7
242	8
243	4
244	4
245	20
246	8
247	3
248	2
249	3
250	3
251	8
252	23
253	14
254	13
255	6
256	7
257	3
258	2
259	2
260	1
261	1
262	1
263	2
264	1
265	5
266	7
267	14
268	13
269	7
270	5
271	2
272	1
273	2
276	1
277	3
278	3
279	17
280	9
281	12
282	6
283	4
284	7
285	3
286	3
287	1
288	1
291	3
292	4
293	16
294	23
295	21
296	12
297	7
298	7
299	4
300	2
301	1
302	1
306	1
307	2
308	11
309	12
310	14
311	13
312	8
313	5
314	3
315	2
316	1
317	1
318	1
321	1
322	1
323	4
324	10
325	14
326	37
327	21
328	21
329	9
330	3
331	1
334	1
335	1
337	4
338	4
339	7
340	7
341	12
342	7
343	3
344	2
349	1
350	2
351	22
352	22
353	80
354	41
355	20
356	8
357	2
358	2
359	2
361	1
362	1
364	2
365	7
366	28
367	156
368	158
369	93
370	41
371	16
372	6
373	3
374	3
375	3
376	4
377	3
378	3
379	3
380	3
381	15
382	193
383	176
384	98
385	48
386	17
387	6
388	2
396	1
397	1
398	1
399	2
400	3
401	4
402	2
403	1
409	1
410	1
411	3
412	3
413	5
414	5
415	4
416	3
417	2
418	1
420	1
423	1
424	2
425	9
426	10
427	6
428	3
429	2
430	1
431	1
433	1
435	1
436	1
437	1
438	3
439	10
440	64
441	544
442	433
443	211
444	83
445	26
446	10
447	5
448	5
449	4
450	5
451	5
452	4
453	4
454	7
455	64
456	409
457	278
458	141
459	52
460	17
461	4
462	1
