Mass spectrum: L-Glucose; GC-EI-TOF; MS; n TMS; RT:731.643 sec
Name: L-Glucose
Class: Natural Product
Formula: C6H12O6
Exact mass: 180.06339
SMILES: OCC(O)C(O)C(O)C(O)C=O
InChI: InChI=1S/C6H12O6/c7-1-3(9)5(11)6(12)4(10)2-8/h1,3-6,8-12H,2H2/t3-,4+,5+,6+/m1/s1
Instrument: Pegasus III TOF-MS system, Leco; GC 6890, Agilent Technologies
Instrument type: GC-EI-TOF
Ms type: MS
Ion mode: POSITIVE
Column name: CP-SIL 8 CB LOW BLEED/MS
Retention time: 731.643  sec
m/z	relative intensity
85	19
86	14
87	26
88	25
89	324
90	36
91	19
93	4
94	3
96	14
97	23
98	7
99	23
100	75
101	79
102	44
103	757
104	79
105	83
106	11
107	2
111	15
112	6
113	20
114	20
115	27
116	31
117	334
118	43
119	46
120	4
121	5
125	4
126	8
127	13
128	13
129	390
130	74
131	105
132	19
133	292
134	40
135	22
138	2
140	3
141	7
142	10
143	50
144	8
145	16
146	3
147	999
148	161
149	99
150	15
151	7
152	5
154	4
155	7
156	5
157	269
158	48
159	28
160	380
161	82
162	25
163	37
164	5
165	1
166	1
168	4
169	21
170	5
171	6
172	15
173	15
174	8
175	19
176	4
177	26
178	8
179	3
180	4
181	1
182	6
184	4
185	3
186	13
187	8
188	4
189	91
190	34
191	51
192	13
193	5
196	4
198	4
199	3
200	3
201	29
202	9
203	15
204	90
205	532
206	111
207	62
208	8
209	2
210	4
214	19
215	10
216	10
217	264
218	58
219	31
220	7
221	22
222	7
223	4
226	1
228	3
229	75
230	26
231	20
232	5
233	40
234	12
235	24
236	5
237	3
238	2
239	1
240	5
241	1
242	7
243	6
244	7
245	6
246	7
247	5
249	3
252	1
256	3
259	2
262	3
263	2
264	1
268	6
269	5
270	3
273	4
274	8
275	5
276	1
277	19
278	7
279	2
280	2
284	1
288	1
290	1
291	26
292	8
293	2
300	5
302	3
303	1
304	1
305	15
306	11
307	19
308	1
309	1
311	1
313	1
314	1
316	1
317	2
318	13
319	371
320	129
321	67
322	15
323	3
331	4
333	2
334	1
337	3
338	1
341	1
342	1
344	2
345	1
347	1
366	1
371	1
376	3
381	1
383	1
389	1
408	2
437	1
442	1
458	1
467	1
468	1
470	1
489	1
493	1
