Mass spectrum: 2'-Deoxyguanosine; GC-EI-TOF; MS; n TMS; RT:1027.340 sec
Name: 2-Deoxyguanosine
Name: 2'-Deoxyguanosine
Class: Natural Product
Formula: C10H13N5O4
Exact mass: 267.09675
SMILES: OC[C@@H](O1)[C@@H](O)C[C@@H]1n(c3)c(N=2)c(n3)C(=O)NC(N)2
InChI: InChI=1S/C10H13N5O4/c11-10-13-8-7(9(18)14-10)12-3-15(8)6-1-4(17)5(2-16)19-6/h3-6,16-17H,1-2H2,(H3,11,13,14,18)/t4-,5+,6+/m0/s1
Instrument: Pegasus III TOF-MS system, Leco; GC 6890, Agilent Technologies
Instrument type: GC-EI-TOF
Ms type: MS
Ion mode: POSITIVE
Column name: CP-SIL 8 CB LOW BLEED/MS
Retention time: 1027.340  sec
m/z	relative intensity
85	30
86	9
87	29
88	4
89	32
90	1
92	3
93	4
95	2
96	6
97	3
98	16
99	85
100	47
101	81
102	24
103	717
104	76
105	32
111	68
112	12
113	22
114	9
115	15
116	12
117	117
118	17
119	21
120	3
122	13
124	9
125	23
126	11
127	17
128	6
129	60
130	27
131	85
132	36
133	80
134	34
135	12
136	1
137	10
138	15
139	9
140	23
141	18
142	7
143	15
144	20
145	54
146	43
147	226
148	56
149	31
150	6
151	3
152	17
153	8
154	5
155	34
156	15
157	32
158	53
159	21
160	7
161	8
162	3
164	11
165	26
166	83
167	22
168	6
169	27
171	72
172	40
173	16
174	6
175	4
176	7
177	5
178	8
179	8
180	6
181	4
182	19
183	2
184	5
185	4
187	17
189	35
190	35
191	35
192	26
193	2
195	5
197	11
198	8
201	2
202	9
203	2
205	11
206	30
207	26
208	28
214	2
216	5
217	19
218	4
219	14
220	10
221	18
222	26
223	9
224	4
225	1
226	1
227	4
228	5
229	2
232	9
233	7
234	17
236	11
237	7
238	24
239	15
240	8
245	1
246	8
247	7
248	11
250	2
251	16
252	9
253	4
255	2
256	2
258	1
260	2
263	4
264	79
265	24
266	17
268	1
269	2
270	3
271	5
274	5
275	4
276	6
277	4
278	27
279	45
280	999
281	306
282	144
283	29
286	3
287	7
288	3
289	6
290	11
291	14
292	9
293	4
294	58
295	654
296	216
297	88
298	33
299	2
305	4
306	73
307	36
308	18
309	9
311	1
313	3
315	2
316	5
318	1
319	3
320	4
321	6
322	29
323	10
324	42
325	20
326	16
330	2
332	1
333	3
334	4
335	1
338	3
348	4
350	11
351	5
352	12
353	3
354	1
357	2
360	8
363	1
364	4
368	1
375	3
376	2
392	1
394	7
395	3
396	3
400	1
418	3
419	2
422	1
424	4
425	1
426	3
440	3
441	2
442	1
443	2
444	1
447	1
452	6
453	6
456	3
458	3
466	10
467	1
468	1
469	4
470	1
479	1
482	2
492	1
