Mass spectrum: Octanoic acid; GC-EI-TOF; MS; n TMS; RT:421.606 sec
Name: n-Caprylic acid
Name: Octanoic acid
Class: Natural Product
Formula: C8H16O2
Exact mass: 144.11503
SMILES: CCCCCCCC(O)=O
InChI: InChI=1S/C8H16O2/c1-2-3-4-5-6-7-8(9)10/h2-7H2,1H3,(H,9,10)
Instrument: Pegasus III TOF-MS system, Leco; GC 6890, Agilent Technologies
Instrument type: GC-EI-TOF
Ms type: MS
Ion mode: POSITIVE
Column name: CP-SIL 8 CB LOW BLEED/MS
Retention time: 421.606  sec
m/z	relative intensity
85	38
86	33
87	23
88	23
89	31
90	7
91	18
92	3
93	13
94	3
95	10
96	6
97	31
98	37
99	37
100	6
101	45
102	8
103	12
104	1
105	64
106	6
107	11
108	5
109	46
110	5
111	7
113	4
114	1
115	16
116	75
117	999
118	101
119	48
120	3
124	1
125	8
126	12
127	10
128	5
129	374
130	49
131	313
132	309
133	50
134	15
141	2
143	32
144	4
145	109
146	16
147	8
155	1
156	1
157	47
158	8
159	27
160	5
169	1
171	9
172	1
173	29
174	5
183	1
185	1
187	9
188	1
189	1
199	2
200	1
201	517
202	87
203	27
204	2
205	1
215	1
216	10
217	1
304	1
