Mass spectrum: Palmitoleic acid; GC-EI-TOF; MS; n TMS; RT:781.407 sec
Name: Palmitoleate
Name: Palmitoleic acid
Class: Natural Product
Formula: C16H30O2
Exact mass: 254.22458
SMILES: CCCCCCC=CCCCCCCCC(O)=O
InChI: InChI=1S/C16H30O2/c1-2-3-4-5-6-7-8-9-10-11-12-13-14-15-16(17)18/h7-8H,2-6,9-15H2,1H3,(H,17,18)/b8-7-
Instrument: Pegasus III TOF-MS system, Leco; GC 6890, Agilent Technologies
Instrument type: GC-EI-TOF
Ms type: MS
Ion mode: POSITIVE
Column name: CP-SIL 8 CB LOW BLEED/MS
Retention time: 781.407  sec
m/z	relative intensity
85	55
86	21
87	16
88	12
89	45
90	7
91	62
92	19
93	83
94	46
95	188
96	289
97	171
98	215
99	53
100	7
101	21
102	7
103	13
104	3
105	53
106	13
107	44
108	29
109	100
110	106
111	71
112	42
113	14
114	5
115	14
116	107
117	999
118	111
119	78
120	15
121	45
122	18
123	78
124	44
125	24
126	12
127	12
128	11
129	791
130	117
131	175
132	169
133	71
134	35
135	31
136	13
137	53
138	41
139	18
140	7
141	19
142	11
143	54
144	12
145	266
146	38
147	31
148	16
149	12
150	6
151	31
152	83
153	19
154	5
155	41
156	13
157	26
158	10
159	22
160	5
161	10
162	5
163	5
164	2
165	19
166	16
167	7
168	5
169	16
170	11
171	36
172	16
173	18
174	6
175	5
176	3
177	2
178	1
179	11
180	7
181	6
182	2
183	21
184	11
185	63
186	19
187	16
188	8
189	4
190	2
191	1
192	14
193	16
194	61
195	14
196	2
197	6
198	2
199	73
200	15
201	17
202	2
203	1
207	8
208	10
209	3
211	6
212	1
213	17
214	5
215	5
216	1
217	2
218	6
219	2
221	1
222	1
223	1
225	3
226	1
227	14
228	4
229	10
230	5
231	1
235	1
236	40
237	10
238	1
239	2
241	7
242	2
243	6
244	6
245	1
253	2
254	1
255	4
256	1
257	1
258	2
259	1
267	4
268	2
269	2
270	1
271	1
283	4
284	1
285	2
310	6
311	169
312	69
313	19
314	3
315	1
326	15
327	8
328	2
