Mass spectrum: Pyruvic acid; GC-EI-TOF; MS; n TMS; RT:281.244 sec
Name: Pyruvate
Name: Pyruvic acid
Class: Natural Product
Formula: C3H4O3
Exact mass: 88.01604
SMILES: CC(=O)C(O)=O
InChI: InChI=1S/C3H4O3/c1-2(4)3(5)6/h1H3,(H,5,6)
Instrument: Pegasus III TOF-MS system, Leco; GC 6890, Agilent Technologies
Instrument type: GC-EI-TOF
Ms type: MS
Ion mode: POSITIVE
Column name: CP-SIL 8 CB LOW BLEED/MS
Retention time: 281.244  sec
m/z	relative intensity
85	11
86	20
87	9
88	6
89	680
90	61
91	32
92	2
93	3
98	12
99	227
100	181
101	34
102	7
103	20
104	1
110	1
114	33
115	316
116	41
117	82
118	10
119	4
122	1
128	2
130	9
131	2
143	19
144	6
158	72
159	25
160	3
174	999
175	126
176	44
177	2
189	35
190	3
