Mass spectrum: beta-Cyano-L-alanine; GC-EI-TOF; MS; n TMS; RT:482.600 sec
Name: b-Cyano-L-Alanine
Name: beta-Cyano-L-alanine
Class: Natural Product
Formula: C4H6N2O2
Exact mass: 114.04293
SMILES: N#CC[C@H](N)C(O)=O
InChI: InChI=1S/C4H6N2O2/c5-2-1-3(6)4(7)8/h3H,1,6H2,(H,7,8)/t3-/m0/s1
Instrument: Pegasus III TOF-MS system, Leco; GC 6890, Agilent Technologies
Instrument type: GC-EI-TOF
Ms type: MS
Ion mode: POSITIVE
Column name: CP-SIL 8 CB LOW BLEED/MS
Retention time: 482.600  sec
m/z	relative intensity
85	10
86	30
87	12
88	5
89	5
92	2
93	2
95	3
96	2
97	3
98	75
99	15
100	104
101	16
102	13
103	66
104	6
105	6
106	1
110	1
111	11
112	3
113	4
114	23
115	22
116	10
117	16
118	3
119	3
125	9
126	5
127	2
128	2
129	2
130	76
131	32
132	19
133	18
134	3
135	1
139	1
140	5
141	999
142	124
143	43
144	9
145	1
146	2
147	302
148	48
149	24
150	2
153	7
154	3
156	1
158	4
159	1
160	3
172	3
173	1
174	3
175	1
190	1
199	1
202	52
203	13
204	5
205	1
215	36
216	9
217	4
218	12
219	2
220	1
243	22
244	5
245	2
