Mass spectrum: Apigenin; GC-EI-TOF; MS; n TMS; RT:1121.745 sec
Name: Apigenine
Name: Apigenin
Class: Natural Product
Formula: C15H10O5
Exact mass: 270.05282
SMILES: Oc(c3)ccc(c3)C(=C1)Oc(c2)c(c(O)cc(O)2)C(=O)1
InChI: InChI=1S/C15H10O5/c16-9-3-1-8(2-4-9)13-7-12(19)15-11(18)5-10(17)6-14(15)20-13/h1-7,16-18H
Instrument: Pegasus III TOF-MS system, Leco; GC 6890, Agilent Technologies
Instrument type: GC-EI-TOF
Ms type: MS
Ion mode: POSITIVE
Column name: CP-SIL 8 CB LOW BLEED/MS
Retention time: 1121.745  sec
m/z	relative intensity
85	71
86	17
87	23
88	9
89	45
90	30
91	112
92	50
93	53
94	24
95	66
96	20
97	16
98	10
99	259
100	37
101	87
102	15
103	41
104	8
105	62
106	19
107	86
108	13
109	32
111	62
112	2
113	40
114	7
115	156
116	20
117	24
118	13
119	53
120	13
121	104
122	24
123	170
124	9
125	73
126	2
127	3
128	52
130	8
131	26
133	52
134	23
135	126
136	36
137	47
139	63
140	52
141	13
142	9
143	24
144	6
145	63
146	27
147	40
148	28
149	70
150	54
151	74
152	47
153	104
154	6
155	60
156	6
157	38
159	39
160	14
161	59
162	11
163	61
164	33
165	74
166	15
167	46
168	35
169	17
170	17
171	26
172	9
173	28
174	2
175	245
176	91
177	104
178	50
179	57
180	21
181	31
182	27
183	15
184	26
185	41
187	8
189	21
190	10
191	67
192	472
193	278
194	45
195	53
196	29
197	26
199	12
200	23
201	5
203	8
204	13
206	10
207	43
208	15
209	32
210	6
211	20
212	9
213	2
215	8
217	30
219	17
220	5
221	17
222	19
223	61
224	34
225	163
226	17
227	28
228	2
229	4
230	7
231	3
233	7
234	18
236	2
238	5
239	8
241	16
242	4
245	2
247	5
251	6
252	20
253	13
254	9
255	15
256	6
258	13
260	5
261	8
264	8
265	2
267	4
269	13
270	18
274	13
276	2
277	11
279	6
280	12
281	10
283	24
284	17
285	11
289	8
293	10
295	31
296	2
297	30
298	7
299	6
302	10
306	9
307	10
309	71
310	14
311	46
312	20
313	69
314	11
316	29
321	8
323	40
324	8
325	39
326	32
327	51
328	25
329	15
330	2
331	7
333	4
336	5
338	4
339	13
340	143
341	45
342	48
347	6
353	20
357	6
359	8
360	6
361	14
362	13
367	18
369	15
370	8
371	34
372	8
374	17
379	8
381	19
382	8
383	2
385	10
386	8
387	19
390	3
391	3
396	48
397	47
398	80
399	542
400	299
401	120
402	27
404	1
405	10
408	3
409	19
410	14
411	15
412	28
413	274
414	999
415	489
416	211
417	63
418	8
419	18
420	2
421	4
422	2
424	4
425	3
429	6
430	3
436	4
437	4
441	10
442	19
444	6
454	1
460	18
462	2
466	6
467	2
469	8
472	7
475	1
476	6
477	6
483	8
486	10
490	10
492	2
494	4
