Mass spectrum: L-(-)-Threonine; GC-EI-TOF; MS; n TMS; RT:485.894 sec
Name: L-(-)-Threonine
Class: Natural Product
Formula: C4H9NO3
Exact mass: 119.05824
SMILES: [H]C(C)(O)C([H])(N)C(O)=O
InChI: InChI=1S/C4H9NO3/c1-2(6)3(5)4(7)8/h2-3,6H,5H2,1H3,(H,7,8)/t2-,3+/m1/s1
Instrument: Pegasus III TOF-MS system, Leco; GC 6890, Agilent Technologies
Instrument type: GC-EI-TOF
Ms type: MS
Ion mode: POSITIVE
Column name: CP-SIL 8 CB LOW BLEED/MS
Retention time: 485.894  sec
m/z	relative intensity
85	37
86	100
87	91
88	21
89	13
90	3
91	2
92	3
93	2
94	2
95	2
96	3
97	4
98	26
99	24
100	405
101	784
102	143
103	90
104	12
105	16
107	1
110	3
111	1
112	20
113	12
114	102
115	87
116	42
117	999
118	126
119	69
120	10
121	3
126	4
127	6
128	243
129	280
130	196
131	183
132	182
133	212
134	44
135	24
136	2
140	2
141	1
142	7
143	12
144	27
145	11
146	38
147	530
148	97
149	68
150	9
151	3
156	10
157	6
158	31
159	43
160	39
161	11
162	5
163	14
164	2
172	20
173	3
174	28
175	8
176	10
177	18
178	4
179	1
186	19
187	5
188	15
189	8
190	7
191	24
192	4
193	1
200	2
201	1
202	84
203	105
204	40
205	16
206	4
207	2
214	1
215	1
216	8
217	12
218	646
219	678
220	169
221	76
222	13
223	4
225	1
230	22
231	8
232	8
233	1
244	1
246	1
248	6
276	2
290	1
291	153
292	108
293	48
294	16
295	4
320	28
321	8
322	2
