Mass spectrum: 2'-Deoxyinosine; GC-EI-TOF; MS; n TMS; RT:960.390 sec
Name: 2'-Deoxyinosine
Class: Natural Product
Formula: C10H12N4O4
Exact mass: 252.08585
SMILES: OCC(O1)C(O)CC1n(c3)c(N=2)c(n3)C(=O)NC2
InChI: InChI=1S/C10H12N4O4/c15-2-6-5(16)1-7(18-6)14-4-13-8-9(14)11-3-12-10(8)17/h3-7,15-16H,1-2H2,(H,11,12,17)/t5-,6+,7+/m0/s1
Instrument: Pegasus III TOF-MS system, Leco; GC 6890, Agilent Technologies
Instrument type: GC-EI-TOF
Ms type: MS
Ion mode: POSITIVE
Column name: CP-SIL 8 CB LOW BLEED/MS
Retention time: 960.390  sec
m/z	relative intensity
85	42
86	17
87	19
88	7
89	24
90	4
91	5
92	7
93	9
94	6
95	11
96	9
97	43
98	14
99	37
100	21
101	98
102	15
103	999
104	99
105	48
106	6
107	3
108	3
109	9
110	39
111	64
112	14
113	36
114	7
115	21
116	28
117	140
118	21
119	27
120	7
121	3
122	3
123	9
124	11
125	21
126	7
127	32
128	9
129	80
130	12
131	33
132	8
133	77
134	19
135	11
136	15
137	13
138	38
139	13
140	5
141	11
142	42
143	40
144	8
145	92
146	14
147	107
148	23
149	20
150	10
151	6
152	7
153	5
154	3
155	137
156	27
157	34
158	8
159	5
160	3
161	1
162	2
163	18
164	8
165	12
166	44
167	17
168	5
169	111
170	141
171	63
172	13
173	5
174	1
175	3
176	5
177	18
178	7
179	10
180	5
181	9
182	3
183	1
187	1
189	34
190	9
191	9
192	24
193	441
194	83
195	23
196	3
197	1
201	1
203	4
204	3
205	6
206	9
207	79
208	95
209	850
210	142
211	43
212	5
215	11
216	2
217	94
218	22
219	80
220	17
221	9
222	6
223	4
224	1
230	1
231	8
232	2
233	5
234	6
235	30
236	8
237	171
238	50
239	13
240	3
242	3
243	3
244	2
245	10
246	3
247	6
248	1
249	1
250	5
251	2
259	4
260	5
261	3
262	2
263	2
264	1
265	9
266	3
267	6
268	1
275	2
279	1
280	4
281	25
282	8
283	4
284	1
288	7
289	3
290	1
307	12
308	4
309	3
323	1
324	1
335	4
336	6
337	3
338	1
349	1
350	5
351	3
352	7
353	2
363	2
364	1
365	5
366	2
378	4
379	1
453	8
454	5
455	1
467	1
468	11
469	7
470	2
