Mass spectrum: Pelargonic acid; GC-EI-TOF; MS; n TMS; RT:477.144 sec
Name: Nonanoic acid(C9)
Name: Pelargonic acid
Class: Natural Product
Formula: C9H18O2
Exact mass: 158.13068
SMILES: CCCCCCCCC(O)=O
InChI: InChI=1S/C9H18O2/c1-2-3-4-5-6-7-8-9(10)11/h2-8H2,1H3,(H,10,11)
Instrument: Pegasus III TOF-MS system, Leco; GC 6890, Agilent Technologies
Instrument type: GC-EI-TOF
Ms type: MS
Ion mode: POSITIVE
Column name: CP-SIL 8 CB LOW BLEED/MS
Retention time: 477.144  sec
m/z	relative intensity
85	29
86	23
87	14
88	16
89	30
90	4
91	10
93	12
94	3
95	12
96	10
97	27
98	29
99	34
100	4
101	36
102	5
103	5
105	56
106	2
107	3
111	15
112	13
113	3
114	1
115	14
116	68
117	999
118	96
119	44
121	5
123	2
124	2
125	1
128	2
129	401
130	54
131	274
132	330
133	52
134	14
139	5
140	3
141	5
143	35
144	3
145	121
146	17
147	5
157	12
159	22
160	1
171	33
172	2
173	3
185	10
187	25
188	4
201	18
215	449
216	80
217	27
218	1
230	10
231	1
254	2
256	1
273	1
311	2
458	1
476	1
498	1
