Mass spectrum: Cystamine; GC-EI-TOF; MS; n TMS; RT:848.580 sec
Name: Cystamine
Class: Natural Product
Formula: C4H12N2S2
Exact mass: 152.04419
SMILES: NCCSSCCN
InChI: InChI=1S/C4H12N2S2/c5-1-3-7-8-4-2-6/h1-6H2
Instrument: Pegasus III TOF-MS system, Leco; GC 6890, Agilent Technologies
Instrument type: GC-EI-TOF
Ms type: MS
Ion mode: POSITIVE
Column name: CP-SIL 8 CB LOW BLEED/MS
Retention time: 848.580  sec
m/z	relative intensity
85	11
86	318
87	32
88	15
89	7
90	3
91	16
92	1
93	1
98	8
99	8
100	308
101	44
102	26
103	6
104	4
105	19
106	2
107	1
113	11
114	34
115	14
116	61
117	20
118	20
119	5
120	2
128	1
129	5
130	101
131	29
132	44
133	9
134	5
135	1
142	1
144	5
145	1
146	24
147	9
148	15
149	7
150	2
151	1
158	8
159	2
160	1
163	1
172	44
173	9
174	999
175	188
176	90
177	11
178	2
187	2
188	63
189	13
190	70
191	13
192	9
193	1
204	7
205	3
206	3
220	89
221	18
222	12
223	1
