Mass spectrum: 2-Phenylpropionic acid; GC-EI-TOF; MS; n TMS; RT:453.918 sec
Name: 2-Phenylpropionate
Name: 2-Phenylpropionic acid
Class: Natural Product
Formula: C13H11BrO
Exact mass: 261.99933
SMILES: c(c2)ccc(c2)C(O)c(c1)ccc(Br)c1
InChI: InChI=1S/C13H11BrO/c14-12-8-6-11(7-9-12)13(15)10-4-2-1-3-5-10/h1-9,13,15H
Instrument: Pegasus III TOF-MS system, Leco; GC 6890, Agilent Technologies
Instrument type: GC-EI-TOF
Ms type: MS
Ion mode: POSITIVE
Column name: CP-SIL 8 CB LOW BLEED/MS
Retention time: 453.918  sec
m/z	relative intensity
85	9
86	13
87	21
88	7
89	150
90	82
91	89
92	16
93	10
94	2
95	3
96	46
97	6
98	1
99	3
100	1
101	15
102	105
103	574
104	495
105	770
106	79
107	16
108	2
109	4
110	2
115	20
116	5
117	179
118	34
119	18
120	6
121	14
122	3
123	1
124	1
125	1
129	33
131	43
132	67
133	24
134	2
135	55
136	10
137	109
138	14
139	3
145	24
146	5
147	23
148	14
149	11
150	9
151	1
152	1
156	1
161	12
162	7
163	13
164	6
165	1
166	1
176	2
177	2
178	999
179	182
180	44
181	2
182	1
189	1
190	3
192	6
193	1
205	4
206	6
207	745
208	121
209	35
210	5
220	1
221	3
222	44
223	7
257	1
320	2
327	1
352	1
353	1
422	1
476	1
