Mass spectrum: D-(+)-Maltose; GC-EI-TOF; MS; n TMS; RT:1007.440 sec
Name: Maltose
Name: D-(+)-Maltose
Class: Natural Product
Formula: C12H22O11
Exact mass: 342.11621
SMILES: OC[C@@H](O1)[C@@H](O)[C@H](O)[C@@H](O)[C@H]1O[C@H]([C@@H](CO)2)[C@H](O)[C@@H](O)C(O)O2
InChI: InChI=1S/C12H22O11/c13-1-3-5(15)6(16)9(19)12(22-3)23-10-4(2-14)21-11(20)8(18)7(10)17/h3-20H,1-2H2/t3-,4-,5-,6+,7-,8-,9-,10-,11?,12-/m1/s1
Instrument: Pegasus III TOF-MS system, Leco; GC 6890, Agilent Technologies
Instrument type: GC-EI-TOF
Ms type: MS
Ion mode: POSITIVE
Column name: CP-SIL 8 CB LOW BLEED/MS
Retention time: 1007.440  sec
m/z	relative intensity
85	25
86	14
87	22
88	16
89	210
90	20
91	13
92	3
93	3
94	4
95	7
96	6
97	31
98	9
99	24
100	51
101	75
102	42
103	593
104	60
105	82
106	11
107	6
108	2
109	26
110	7
111	19
112	8
113	33
114	30
115	36
116	39
117	408
118	43
119	34
120	5
121	3
122	1
123	1
124	2
125	5
126	7
127	24
128	14
129	459
130	78
131	107
132	21
133	229
134	32
135	20
136	3
137	2
138	5
139	12
140	7
141	19
142	29
143	95
144	16
145	36
146	8
147	999
148	164
149	125
150	16
151	11
152	7
153	15
154	8
155	66
156	17
157	92
158	25
159	18
160	169
161	43
162	12
163	39
164	8
165	5
166	3
167	8
168	11
169	274
170	46
171	27
172	12
173	30
174	13
175	19
176	4
177	15
178	4
179	3
180	6
181	8
182	5
183	18
184	7
185	9
186	12
187	9
188	5
189	113
190	30
191	169
192	33
193	17
194	4
195	5
196	7
197	5
198	7
199	12
200	5
201	10
202	7
203	40
204	744
205	309
206	98
207	35
208	8
209	3
210	24
211	7
212	5
213	3
214	5
215	21
216	29
217	547
218	130
219	63
220	13
221	33
222	9
223	7
224	1
225	1
226	2
227	9
228	7
229	37
230	23
231	65
232	21
233	32
234	14
235	6
236	2
237	2
238	1
239	2
240	6
241	13
242	10
243	111
244	41
245	36
246	16
247	21
248	6
249	3
250	1
253	2
254	4
255	7
256	11
257	15
258	6
259	17
260	7
261	6
262	9
263	5
264	2
265	7
266	2
267	2
268	9
269	12
270	9
271	105
272	28
273	17
274	12
275	8
276	10
277	4
278	3
279	2
280	1
281	1
283	1
284	2
286	3
287	2
288	3
289	4
290	2
291	16
292	6
293	4
294	1
295	1
297	1
298	1
299	1
300	20
301	6
302	4
303	3
304	7
305	24
306	10
307	9
308	3
309	1
313	1
315	1
316	1
317	10
318	10
319	120
320	43
321	21
322	6
323	2
329	1
330	2
331	25
332	18
333	13
334	5
335	2
336	1
337	2
338	1
342	1
343	4
344	3
345	10
346	6
347	4
348	3
349	1
357	1
358	4
359	5
360	24
361	584
362	211
363	103
364	28
365	9
366	2
367	1
373	5
374	4
375	1
376	3
377	4
378	3
379	2
389	2
390	5
391	3
392	2
393	1
409	4
410	2
427	1
434	1
435	2
436	2
448	1
449	2
450	5
451	14
452	9
453	4
454	2
463	2
464	3
465	1
466	1
476	1
478	1
479	5
480	22
481	13
482	7
483	2
