Mass spectrum: 1-Methyl uracil; GC-EI-TOF; MS; n TMS; RT:592.690 sec
Name: 1-Methyl uracil
Class: Natural Product
Formula: C6H6N2O4
Exact mass: 170.03276
SMILES: OC(=O)c(n1)c(C(O)=O)n(C)c1
InChI: InChI=1S/C6H6N2O4/c1-8-2-7-3(5(9)10)4(8)6(11)12/h2H,1H3,(H,9,10)(H,11,12)
Instrument: Pegasus III TOF-MS system, Leco; GC 6890, Agilent Technologies
Instrument type: GC-EI-TOF
Ms type: MS
Ion mode: POSITIVE
Column name: CP-SIL 8 CB LOW BLEED/MS
Retention time: 592.690  sec
m/z	relative intensity
85	35
86	136
87	17
88	10
89	11
90	1
91	7
92	13
93	8
94	3
95	11
96	15
97	11
98	15
99	56
100	705
101	72
102	47
103	5
104	1
105	2
107	3
108	2
109	25
110	9
111	11
112	34
113	38
114	16
115	5
116	2
117	2
118	1
119	1
120	1
122	3
123	3
124	30
125	19
126	77
127	17
128	15
129	3
130	2
131	2
135	1
136	1
137	2
138	2
139	31
140	28
141	21
142	31
143	5
144	1
152	1
153	25
154	8
155	17
156	16
157	5
158	1
159	2
162	1
163	1
165	2
167	15
168	5
169	6
170	7
171	3
175	1
179	2
180	3
181	3
182	7
183	999
184	146
185	51
186	6
187	1
190	2
191	1
193	2
194	1
195	1
196	4
197	366
198	302
199	57
200	17
201	1
209	2
212	1
222	1
233	1
248	2
260	1
268	1
277	1
281	1
299	1
301	1
302	1
310	1
312	1
314	1
320	1
330	1
333	1
334	1
337	1
339	1
353	1
358	1
374	1
376	1
385	1
390	2
392	1
401	1
405	1
421	1
429	2
430	1
434	1
439	1
443	1
447	1
450	1
454	1
456	1
457	1
482	1
499	1
