Mass spectrum: D-(+)-Galactose; GC-EI-TOF; MS; n TMS; RT:720.444 sec
Name: D-(+)-Galactose
Class: Natural Product
Formula: C6H12O6
Exact mass: 180.06339
SMILES: OC[C@@H](O1)[C@H](O)[C@H](O)[C@@H](O)C(O)1
InChI: InChI=1S/C6H12O6/c7-1-2-3(8)4(9)5(10)6(11)12-2/h2-11H,1H2/t2-,3+,4+,5-,6?/m1/s1
Instrument: Pegasus III TOF-MS system, Leco; GC 6890, Agilent Technologies
Instrument type: GC-EI-TOF
Ms type: MS
Ion mode: POSITIVE
Column name: CP-SIL 8 CB LOW BLEED/MS
Retention time: 720.444  sec
m/z	relative intensity
85	19
86	24
87	25
88	24
89	247
90	25
91	13
92	2
93	1
94	3
95	3
96	4
97	13
98	8
99	22
100	52
101	79
102	41
103	480
104	50
105	102
106	13
107	6
108	2
109	2
110	4
111	11
112	8
113	18
114	42
115	32
116	30
117	337
118	37
119	34
120	4
121	2
122	1
124	2
125	2
126	8
127	17
128	17
129	368
130	74
131	105
132	20
133	234
134	34
135	21
136	3
137	1
138	3
139	2
140	5
141	9
142	19
143	56
144	11
145	25
146	8
147	999
148	162
149	106
150	14
151	7
152	4
153	3
154	5
155	6
156	6
157	250
158	49
159	22
160	344
161	69
162	20
163	32
164	6
165	3
166	2
167	1
168	7
169	12
170	7
171	5
172	13
173	17
174	8
175	18
176	5
177	13
178	4
179	2
180	4
181	2
182	3
183	2
184	2
185	3
186	11
187	5
188	4
189	94
190	29
191	55
192	12
193	7
194	1
195	1
196	3
197	1
198	3
199	2
200	5
201	25
202	9
203	16
204	117
205	533
206	111
207	59
208	10
209	4
210	9
211	2
212	2
213	2
214	5
215	11
216	27
217	383
218	86
219	39
220	7
221	21
222	6
223	4
224	1
225	1
226	1
227	1
228	6
229	69
230	24
231	33
232	13
233	14
234	15
235	4
236	1
237	1
238	1
239	1
240	4
241	2
242	3
243	8
244	10
245	7
246	10
247	10
248	3
249	1
251	1
252	1
253	1
254	2
255	1
256	5
257	2
258	2
259	6
260	3
261	2
262	12
263	4
264	2
265	3
266	1
268	4
269	6
270	4
271	2
272	1
274	10
275	3
276	2
277	15
278	7
279	3
280	1
286	1
288	1
290	1
291	22
292	8
293	4
294	1
300	8
301	2
302	3
303	1
304	3
305	25
306	12
307	21
308	6
309	3
316	1
317	1
318	12
319	375
320	127
321	60
322	15
323	4
324	1
330	2
331	2
332	2
333	3
334	1
335	1
336	1
342	1
343	4
344	4
345	2
346	2
358	1
359	1
360	1
363	1
364	4
365	2
374	4
375	1
376	3
377	1
378	1
408	1
409	1
432	1
448	1
464	1
465	1
466	2
467	1
