Mass spectrum: 1-Hexadecanol; GC-EI-TOF; MS; n TMS; RT:754.885 sec
Name: 1-Hexadecanol
Class: Natural Product
Formula: C16H34O
Exact mass: 242.26097
SMILES: CCCCCCCCCCCCCCCCO
InChI: InChI=1S/C16H34O/c1-2-3-4-5-6-7-8-9-10-11-12-13-14-15-16-17/h17H,2-16H2,1H3
Instrument: Pegasus III TOF-MS system, Leco; GC 6890, Agilent Technologies
Instrument type: GC-EI-TOF
Ms type: MS
Ion mode: POSITIVE
Column name: CP-SIL 8 CB LOW BLEED/MS
Retention time: 754.885  sec
m/z	relative intensity
85	204
86	24
87	103
88	49
89	621
90	64
91	226
92	21
93	19
94	4
95	71
96	38
97	616
98	65
99	150
100	23
101	357
102	42
103	756
104	75
105	34
106	2
107	6
108	1
109	30
110	16
111	302
112	39
113	68
114	14
115	184
116	24
117	22
118	4
119	1
121	3
123	11
124	9
125	114
126	18
127	32
128	4
129	120
130	15
131	33
132	3
135	1
137	5
138	4
139	36
140	8
141	17
142	2
143	43
144	5
145	18
146	2
151	2
152	2
153	18
154	4
155	6
156	1
157	25
158	4
159	7
160	1
165	1
166	1
167	9
168	3
169	3
170	1
171	24
172	4
173	4
174	1
179	1
181	5
182	2
183	2
184	1
185	22
186	4
187	3
188	1
189	1
190	1
193	1
194	1
195	2
196	7
197	3
198	1
199	25
200	5
201	4
202	1
203	1
204	1
206	1
207	1
209	1
210	1
211	1
213	28
214	5
215	3
216	1
217	1
218	1
221	1
224	12
225	3
226	1
227	23
228	4
229	2
230	1
241	11
242	2
243	1
244	1
255	1
283	9
284	3
297	2
298	13
299	999
300	331
301	93
302	18
303	2
314	2
315	1
