Mass spectrum: L-Lysine; GC-EI-QQ; MS; 3 TBDMS; RT:491.38843
Name: L-Lysine
Class: Natural Product
Formula: C6H14N2O2
Exact mass: 146.10553
SMILES: NCCCC[C@H](N)C(O)=O
InChI: InChI=1S/C6H14N2O2/c7-4-2-1-3-5(8)6(9)10/h5H,1-4,7-8H2,(H,9,10)/t5-/m0/s1
Instrument: Agilent 7000B QqQMS, Agilent; Agilent 7904A series GC system, Agilent Technologies
Instrument type: GC-EI-QQ
Ms type: MS
Ion mode: POSITIVE
Column name: CP-SIL 8 CB LOW BLEED/MS
Retention time: 901.92 sec
Derivative form: C24H59N2O2Si3
Derivative mass: 491.38843
Derivative type: 3 TBDMS
m/z	relative intensity
54	1
55	3
56	16
57	12
58	7
59	40
60	6
61	3
67	5
68	2
69	2
70	5
71	2
73	700
74	127
75	64
76	6
77	3
79	1
80	1
82	11
84	231
85	25
86	21
87	11
88	68
89	7
90	4
92	2
94	11
95	2
96	4
97	4
98	12
99	21
100	53
101	15
102	11
103	29
104	11
105	3
107	2
108	1
109	2
110	3
111	10
112	23
113	9
114	55
115	46
116	37
117	17
118	8
119	9
120	2
124	6
125	2
126	14
127	5
128	29
130	119
131	32
132	67
133	102
134	21
135	10
136	8
138	4
140	88
141	19
142	92
143	22
144	132
145	28
146	42
147	299
148	111
149	52
150	12
151	4
152	2
153	2
154	6
155	9
156	39
157	26
158	48
159	23
160	22
161	6
162	6
163	2
167	235
168	167
169	35
170	367
171	58
172	35
173	30
174	21
175	7
176	7
177	2
182	12
183	10
184	54
185	19
186	35
187	11
188	23
189	23
190	12
191	5
192	2
194	1
196	15
198	999
199	178
200	56
201	9
202	12
203	3
204	9
205	3
206	9
207	8
208	41
209	19
210	14
211	4
212	6
213	9
214	16
215	14
216	15
217	5
218	5
219	2
220	3
221	4
222	2
223	3
225	61
226	43
227	10
228	5
229	2
230	8
231	5
232	4
233	2
234	4
241	3
242	14
243	7
244	25
245	11
246	6
247	2
248	4
254	2
256	31
257	9
258	12
259	9
260	6
261	2
262	3
270	7
272	276
273	70
274	61
275	22
276	7
277	2
281	2
282	6
283	6
284	5
285	2
286	3
287	2
288	10
289	3
290	3
299	218
300	720
301	201
302	102
303	28
304	8
305	2
314	63
315	17
316	12
317	3
320	4
321	1
326	2
327	2
329	183
330	57
331	21
332	4
339	32
340	14
341	28
342	23
343	7
344	3
355	1
356	4
357	2
358	1
359	1
403	1
431	85
432	33
433	15
473	8
474	3
475	2
488	41
489	18
490	8
491	2
