Mass spectrum: 5-Aminopentanoic acid; GC-EI-TOF; MS; n TMS; RT:612.492 sec
Name: 5-Aminovaleric acid
Name: 5-Aminopentanoic acid
Class: Natural Product
Formula: C5H11NO2
Exact mass: 117.07898
SMILES: NCCCCC(O)=O
InChI: InChI=1S/C5H11NO2/c6-4-2-1-3-5(7)8/h1-4,6H2,(H,7,8)
Instrument: Pegasus III TOF-MS system, Leco; GC 6890, Agilent Technologies
Instrument type: GC-EI-TOF
Ms type: MS
Ion mode: POSITIVE
Column name: CP-SIL 8 CB LOW BLEED/MS
Retention time: 612.492  sec
m/z	relative intensity
85	19
86	222
87	29
88	16
89	5
96	2
97	4
98	8
99	20
100	137
101	32
102	27
103	10
104	2
105	2
110	1
111	1
112	24
113	13
114	14
115	15
116	58
117	29
118	7
119	7
120	1
126	5
127	2
128	17
129	98
130	78
131	65
132	20
133	42
134	7
135	3
138	1
140	1
141	1
142	5
143	5
144	6
145	3
146	24
147	175
148	30
149	20
150	2
151	1
152	7
153	1
154	25
155	4
156	23
157	5
158	16
159	6
160	5
161	3
162	3
170	11
171	2
172	20
173	6
174	999
175	193
176	87
177	11
178	2
184	1
186	8
187	2
188	3
189	1
200	53
201	13
202	8
203	4
204	3
205	1
217	2
221	4
222	1
228	17
229	5
230	8
231	2
244	13
245	4
246	2
260	5
261	2
318	33
319	22
320	9
321	2
333	3
334	2
