Mass spectrum: Ciliatine; GC-EI-TOF; MS; n TMS; RT:661.621 sec
Name: Ciliatine
Class: Natural Product
Formula: C2H8NO3P
Exact mass: 125.02418
SMILES: NCCP(O)(O)=O
InChI: InChI=1S/C2H8NO3P/c3-1-2-7(4,5)6/h1-3H2,(H2,4,5,6)
Instrument: Pegasus III TOF-MS system, Leco; GC 6890, Agilent Technologies
Instrument type: GC-EI-TOF
Ms type: MS
Ion mode: POSITIVE
Column name: CP-SIL 8 CB LOW BLEED/MS
Retention time: 661.621  sec
m/z	relative intensity
85	28
86	281
87	49
88	22
89	22
90	5
91	15
92	4
93	4
95	1
96	9
97	6
98	13
99	14
100	217
101	38
102	34
103	45
104	12
105	31
106	5
107	17
108	1
109	3
110	1
112	4
113	28
114	185
115	95
116	52
117	55
118	16
119	61
120	11
121	62
122	6
123	5
125	2
126	3
127	1
128	3
129	18
130	280
131	134
132	72
133	236
134	54
135	261
136	37
137	29
138	3
139	2
140	1
141	2
142	6
143	6
144	7
145	11
146	122
147	242
148	49
149	43
150	7
151	30
152	4
153	3
154	1
156	10
157	3
158	17
159	5
160	17
161	6
162	6
163	15
164	5
165	23
166	6
167	8
168	2
170	5
171	3
172	324
173	72
174	555
175	112
176	52
177	35
178	16
179	26
180	9
181	47
182	15
183	5
184	2
185	1
186	3
187	11
188	28
189	25
190	19
191	81
192	68
193	72
194	30
195	71
196	20
197	8
198	2
200	1
201	1
202	2
203	4
204	8
205	14
206	13
207	145
208	59
209	165
210	45
211	43
212	8
213	2
216	2
218	2
219	2
220	4
221	9
222	8
223	9
224	12
225	95
226	27
227	10
228	2
234	4
235	3
236	19
237	33
238	11
239	6
240	3
241	2
242	1
243	1
244	1
246	1
247	1
248	2
249	2
250	4
251	5
252	7
253	5
254	4
255	3
256	1
257	1
258	1
260	1
261	1
262	1
263	1
264	3
265	3
266	23
267	21
268	11
269	7
270	3
271	1
272	1
273	1
274	1
275	1
276	1
277	1
278	2
279	2
280	3
281	8
282	34
283	34
284	22
285	8
286	3
292	1
293	1
294	14
295	8
296	7
297	80
298	179
299	93
300	40
301	13
302	2
303	1
304	1
307	1
308	5
309	10
310	137
311	78
312	82
313	52
314	22
315	8
316	1
323	1
324	7
325	15
326	16
327	7
328	2
329	1
337	1
338	1
339	8
340	90
341	58
342	24
343	7
344	1
345	1
353	1
354	1
356	1
359	1
367	1
368	4
369	4
370	2
371	1
373	1
382	9
383	8
384	4
385	1
395	2
396	21
397	107
398	999
399	669
400	318
401	119
402	34
403	7
412	2
413	2
