Mass spectrum: L-Aspartic acid; GC-EI-QQ; MS; 3 TBDMS; RT:822.9 sec
Name: L-Aspartic acid
Class: Natural Product
Formula: C4H7NO4
Exact mass: 133.03751
SMILES: OC(=O)CC(N)C(O)=O
InChI: InChI=1S/C4H7NO4/c5-2(4(8)9)1-3(6)7/h2H,1,5H2,(H,6,7)(H,8,9)/t2-/m0/s1
Instrument: Agilent 7000B QqQMS, Agilent; Agilent 7900A series GC system, Agilent Technologies
Instrument type: GC-EI-QQ
Ms type: MS
Ion mode: POSITIVE
Column name: CP-SIL 8 CB LOW BLEED/MS
Retention time: 822.9 sec
Derivative form: C22H52NO4Si3
Derivative mass: 478.32041
Derivative type: 3 TBDMS
m/z	relative intensity
51	5
52	11
53	3
54	3
55	9
56	12
57	22
58	14
59	49
60	6
61	5
66	1
67	1
68	1
69	4
70	9
71	3
73	999
74	151
75	180
76	14
77	16
78	6
79	41
80	3
81	2
82	2
83	3
84	5
85	17
86	10
87	10
88	5
89	2
93	1
95	1
96	2
97	4
98	8
99	32
100	68
101	19
102	10
103	33
104	4
105	3
110	2
111	2
112	3
113	8
115	200
116	37
117	140
118	19
119	17
120	2
121	2
126	6
127	5
128	38
129	18
130	57
131	30
132	74
133	145
134	30
135	17
136	3
137	1
140	2
142	70
143	14
144	18
145	10
147	572
148	93
149	77
150	11
151	6
152	1
154	3
155	2
156	6
157	8
158	18
159	40
160	42
161	11
162	7
163	2
168	1
170	5
171	3
172	12
173	23
174	26
175	14
176	7
177	7
178	2
180	2
184	35
185	12
186	8
187	5
188	50
189	130
190	30
191	19
192	5
193	4
200	5
201	2
202	36
203	10
204	12
205	5
206	14
207	27
208	6
209	3
213	7
214	5
216	65
217	13
218	18
219	5
220	3
221	17
222	4
223	3
228	2
230	8
231	10
232	6
233	10
234	3
235	4
242	1
244	286
245	71
246	36
247	7
248	3
249	2
256	2
258	83
259	19
260	12
261	3
262	1
263	3
270	2
272	17
273	12
274	4
275	1
276	2
277	16
278	3
279	2
281	2
283	2
286	71
287	66
288	20
289	15
290	3
291	1
300	6
302	748
303	183
304	70
305	12
306	2
314	1
316	356
317	92
318	36
319	9
320	2
328	3
329	3
332	1
344	1
346	10
347	3
348	2
376	47
377	17
378	7
379	2
390	129
391	43
392	19
393	4
400	2
401	1
402	1
418	223
419	77
420	35
421	9
432	2
460	9
461	3
462	1
