Mass spectrum: N-Acetylneuraminic acid; GC-EI-TOF; MS; n TMS; RT:977.256 sec
Name: N-Acetylneuraminate
Name: N-Acetylneuraminic acid
Class: Natural Product
Formula: C11H19NO9
Exact mass: 309.10598
SMILES: OCC(O)C(O)C([H])(O1)C(NC(C)=O)C(O)CC(O)(C(O)=O)1
InChI: InChI=1S/C11H19NO9/c1-4(14)12-7-5(15)2-11(20,10(18)19)21-9(7)8(17)6(16)3-13/h5-9,13,15-17,20H,2-3H2,1H3,(H,12,14)(H,18,19)/t5-,6+,7+,8+,9+,11?/m0/s1
Instrument: Pegasus III TOF-MS system, Leco; GC 6890, Agilent Technologies
Instrument type: GC-EI-TOF
Ms type: MS
Ion mode: POSITIVE
Column name: CP-SIL 8 CB LOW BLEED/MS
Retention time: 977.256  sec
m/z	relative intensity
85	28
86	26
87	28
88	25
89	240
90	31
91	20
92	8
93	12
94	17
95	10
96	80
97	19
98	41
99	52
100	68
101	122
102	44
103	628
104	73
105	44
106	24
107	25
108	18
109	16
110	16
111	24
112	41
113	34
114	72
115	78
116	295
117	415
118	67
119	43
120	13
121	10
122	21
123	29
124	13
125	9
126	85
127	34
128	97
129	251
130	74
131	235
132	153
133	498
134	76
135	61
136	12
137	9
138	24
139	13
140	33
141	25
142	63
143	116
144	120
145	49
146	19
147	999
148	180
149	138
150	24
151	25
152	20
153	28
154	56
155	60
156	78
157	98
158	83
159	28
160	17
161	17
162	5
163	45
164	10
165	11
166	20
167	38
168	43
169	34
170	51
171	63
172	62
173	120
174	43
175	29
176	9
177	10
178	5
179	10
180	14
181	42
182	28
183	39
184	39
185	22
186	79
187	23
188	14
189	64
190	40
191	52
192	14
193	20
194	20
195	34
196	23
197	27
198	33
199	12
200	37
201	19
202	20
203	56
204	134
205	194
206	52
207	52
208	15
209	13
210	29
211	15
212	17
213	21
214	18
215	22
216	23
217	589
218	142
219	66
220	15
221	39
222	17
223	19
224	12
225	22
226	13
227	105
228	34
229	40
230	37
231	26
232	23
233	10
234	4
235	4
236	4
237	16
238	6
239	15
240	20
241	14
242	16
243	24
244	22
245	26
246	556
247	147
248	68
249	16
250	5
251	5
252	3
253	43
254	21
255	12
256	15
257	10
258	80
259	61
260	38
261	21
262	7
263	4
264	2
265	4
266	3
267	4
268	10
269	10
270	14
271	57
272	48
273	21
274	24
275	11
276	5
277	11
278	9
279	6
280	3
281	4
282	3
283	20
284	32
285	25
286	15
287	10
288	9
289	8
290	201
291	82
292	35
293	13
294	5
295	5
296	4
297	9
298	6
299	5
300	43
301	17
302	7
303	4
304	3
305	10
306	7
307	22
308	9
309	5
310	3
311	4
312	20
313	32
314	29
315	16
316	9
317	7
318	14
319	78
320	41
321	21
322	7
323	3
324	1
325	7
326	5
327	4
328	3
329	9
330	36
331	20
332	14
333	5
334	2
335	2
336	1
337	2
338	1
339	3
340	5
341	4
342	4
343	6
344	71
345	31
346	14
347	8
348	16
349	8
350	3
351	3
352	2
353	2
354	3
355	4
356	4
357	2
358	4
359	5
360	17
361	123
362	57
363	22
364	7
365	3
366	1
368	1
369	2
370	1
371	2
372	6
373	29
374	31
375	19
376	8
377	2
378	1
379	2
380	3
381	1
382	1
383	1
384	1
385	7
386	4
387	3
388	2
389	2
390	14
391	7
392	2
393	1
395	2
396	2
397	6
398	3
399	2
401	2
402	8
403	14
404	12
405	7
406	2
407	1
410	1
411	2
412	2
413	1
414	1
415	3
416	4
417	2
418	6
419	38
420	26
421	10
422	3
423	1
432	1
433	5
434	20
435	10
436	4
437	1
442	1
443	2
444	2
445	2
446	1
447	1
448	1
449	1
459	1
460	1
461	1
462	8
463	41
464	30
465	14
466	5
467	1
469	1
474	1
475	3
476	3
477	1
478	1
479	2
480	5
481	3
482	1
