Mass spectrum: D-Arabitol; GC-EI-TOF; MS; n TMS; RT:647.044 sec
Name: D-Arabitol
Class: Natural Product
Formula: C5H12O5
Exact mass: 152.06847
SMILES: C([C@H](C([C@@H](CO)O)O)O)O
InChI: InChI=1S/C5H12O5/c6-1-3(8)5(10)4(9)2-7/h3-10H,1-2H2/t3-,4-/m1/s1
Instrument: Pegasus III TOF-MS system, Leco; GC 6890, Agilent Technologies
Instrument type: GC-EI-TOF
Ms type: MS
Ion mode: POSITIVE
Column name: CP-SIL 8 CB LOW BLEED/MS
Retention time: 647.044  sec
m/z	relative intensity
85	15
86	4
87	26
88	23
89	99
90	11
91	5
92	1
94	2
95	1
96	1
97	6
98	3
99	17
100	3
101	102
102	17
103	998
104	96
105	48
106	3
107	1
109	1
111	10
112	2
113	24
114	4
115	24
116	46
117	365
118	40
119	34
120	4
121	2
125	2
126	2
127	9
128	3
129	430
130	56
131	109
132	17
133	226
134	33
135	22
136	2
137	1
139	1
141	5
142	7
143	37
144	6
145	16
146	5
147	999
148	159
149	106
150	13
151	7
152	1
153	5
154	1
155	17
156	3
157	65
158	9
159	10
160	2
161	10
162	2
163	14
164	2
165	1
167	1
168	1
169	4
170	7
171	10
172	2
173	5
174	2
175	23
176	5
177	14
178	3
179	2
182	1
183	1
185	1
186	1
187	2
188	1
189	118
190	30
191	92
192	18
193	9
194	1
201	3
202	3
203	53
204	148
205	309
206	67
207	40
208	7
209	2
215	5
216	4
217	944
218	236
219	97
220	17
221	34
222	8
223	4
224	1
229	17
230	7
231	6
232	1
233	1
242	3
243	60
244	15
245	9
246	2
247	2
248	1
249	1
263	1
265	2
277	33
278	15
279	7
280	2
291	14
292	5
293	3
305	8
306	15
307	123
308	40
309	18
310	4
317	17
318	9
319	113
320	37
321	17
322	4
323	1
331	1
332	17
333	7
334	3
335	1
395	5
396	2
397	1
409	1
422	3
423	1
424	1
