Mass spectrum: 1-Methyladenosine; GC-EI-TOF; MS; n TMS; RT:1017.608 sec
Name: 1-Methyladenosine
Class: Natural Product
Formula: C11H15N5O4
Exact mass: 281.11240
SMILES: OCC([H])(O1)C([H])(O)C([H])(O)C([H])1n(c3)c(N=2)c(n3)C(=N)N(C)C2
InChI: InChI=1S/C11H15N5O4/c1-15-3-14-10-6(9(15)12)13-4-16(10)11-8(19)7(18)5(2-17)20-11/h3-5,7-8,11-12,17-19H,2H2,1H3/t5-,7-,8-,11-/m1/s1
Instrument: Pegasus III TOF-MS system, Leco; GC 6890, Agilent Technologies
Instrument type: GC-EI-TOF
Ms type: MS
Ion mode: POSITIVE
Column name: CP-SIL 8 CB LOW BLEED/MS
Retention time: 1017.608  sec
m/z	relative intensity
85	18
86	12
87	9
88	8
89	22
90	3
91	2
92	4
93	4
94	7
95	7
96	6
97	19
98	8
99	27
100	10
101	33
102	7
103	275
104	28
105	14
106	3
107	3
108	4
109	4
110	5
111	24
112	5
113	32
114	6
115	75
116	18
117	60
118	8
119	12
120	3
121	5
122	5
123	7
124	6
125	8
126	5
127	8
128	3
129	63
130	10
131	30
132	8
133	51
134	10
135	11
136	6
137	6
138	10
139	3
140	3
141	10
142	5
143	35
144	6
145	23
146	4
147	157
148	32
149	25
150	9
151	12
152	8
153	12
154	3
155	4
156	2
157	20
158	6
159	4
160	3
161	3
162	5
163	10
164	11
165	31
166	7
167	3
168	1
169	59
170	9
171	9
172	2
173	3
174	4
175	4
176	10
177	10
178	6
179	10
180	6
181	4
182	2
183	1
185	1
186	1
187	2
188	2
189	20
190	41
191	22
192	9
193	6
194	2
195	1
196	1
201	1
202	1
203	4
204	8
205	42
206	999
207	168
208	50
209	7
210	1
211	1
215	3
216	1
217	44
218	17
219	12
220	85
221	21
222	23
223	5
224	1
229	6
230	6
231	10
232	6
233	3
234	5
235	2
236	1
237	2
238	1
239	1
243	30
244	11
245	15
246	7
247	3
248	3
249	2
250	6
251	4
252	1
257	3
258	1
259	64
260	17
261	8
262	3
263	2
264	2
265	1
276	7
277	4
278	59
279	17
280	9
281	3
291	1
292	6
293	3
294	4
295	1
304	1
305	1
306	1
307	1
308	1
319	2
320	21
321	8
322	3
323	1
333	1
334	1
335	1
336	7
337	3
338	1
349	1
351	1
352	1
392	3
393	1
408	1
465	1
466	4
467	2
468	1
