Mass spectrum: 2'-Deoxyuridine; GC-EI-TOF; MS; n TMS; RT:925.664 sec
Name: 2'-Deoxyuridine
Class: Natural Product
Formula: C9H12N2O5
Exact mass: 228.07462
SMILES: OC[C@@H](O1)[C@@H](O)C[C@@H]1N(C=2)C(=O)NC(=O)C2
InChI: InChI=1S/C9H12N2O5/c12-4-6-5(13)3-8(16-6)11-2-1-7(14)10-9(11)15/h1-2,5-6,8,12-13H,3-4H2,(H,10,14,15)/t5-,6+,8+/m0/s1
Instrument: Pegasus III TOF-MS system, Leco; GC 6890, Agilent Technologies
Instrument type: GC-EI-TOF
Ms type: MS
Ion mode: POSITIVE
Column name: CP-SIL 8 CB LOW BLEED/MS
Retention time: 925.664  sec
m/z	relative intensity
85	53
86	30
87	27
88	9
89	30
90	5
91	4
92	4
93	4
94	17
95	26
96	56
97	22
98	22
99	165
100	195
101	147
102	31
103	999
104	102
105	54
106	4
107	3
108	11
109	14
110	3
111	57
112	18
113	85
114	15
115	33
116	37
117	145
118	20
119	20
120	4
121	2
122	3
123	4
124	10
125	31
126	37
127	48
128	14
129	149
130	22
131	47
132	13
133	104
134	16
135	13
136	8
137	4
138	2
139	7
140	5
141	14
142	100
143	55
144	11
145	94
146	13
147	197
148	38
149	37
150	6
151	5
152	5
153	45
154	13
155	240
156	44
157	50
158	8
159	7
160	1
161	2
163	5
164	1
165	2
166	5
167	11
168	23
169	581
170	315
171	122
172	28
173	7
174	4
175	5
177	2
179	2
182	6
183	52
184	38
185	324
186	50
187	15
188	1
189	10
190	1
191	9
192	2
194	1
195	29
196	6
197	5
198	86
199	19
200	5
203	3
204	4
207	2
209	3
210	1
211	6
212	1
213	2
215	7
216	2
217	97
218	27
219	9
223	2
224	1
225	1
226	35
227	7
228	1
230	1
231	1
236	4
237	8
238	11
239	4
240	1
241	53
242	12
243	14
244	2
245	12
246	2
251	13
252	1
253	2
255	13
256	8
257	58
258	13
259	12
260	6
261	3
262	1
264	1
267	1
269	4
270	8
271	3
283	11
284	1
285	1
298	3
299	4
300	6
301	1
311	3
312	7
313	3
326	1
327	1
339	9
341	8
342	2
390	1
442	1
444	2
445	1
446	1
469	1
