Mass spectrum: Cinnamyl alcohol; GC-EI-TOF; MS; n TMS; RT:517.744 sec
Name: Cinnamyl alcohol
Class: Natural Product
Formula: C9H10O
Exact mass: 134.07316
SMILES: OCC=Cc(c1)cccc1
InChI: InChI=1S/C9H10O/c10-8-4-7-9-5-2-1-3-6-9/h1-7,10H,8H2/b7-4+
Instrument: Pegasus III TOF-MS system, Leco; GC 6890, Agilent Technologies
Instrument type: GC-EI-TOF
Ms type: MS
Ion mode: POSITIVE
Column name: CP-SIL 8 CB LOW BLEED/MS
Retention time: 517.744  sec
m/z	relative intensity
85	15
86	9
87	19
88	23
89	100
90	16
91	266
92	25
93	3
94	1
95	4
96	10
98	2
99	3
101	7
102	41
103	56
104	26
105	44
106	3
107	4
109	1
110	1
111	4
113	30
114	16
115	713
116	426
117	999
118	109
119	9
120	1
121	4
127	3
128	11
129	29
130	6
131	40
132	19
133	8
134	3
135	141
136	21
137	8
143	1
145	14
146	2
147	7
148	2
149	4
154	1
159	2
161	15
162	4
163	3
173	12
174	1
175	26
176	4
177	16
178	2
179	27
180	3
189	2
190	1
191	265
192	52
193	14
204	1
205	118
206	284
207	57
208	14
209	1
