Mass spectrum: Maltotriose; GC-EI-TOF; MS; n TMS; RT:1236.537 sec
Name: Maltotriose
Class: Natural Product
Formula: C18H32O16
Exact mass: 504.16903
SMILES: OCC(O1)C(O)C(O)C(O)C1OC(C(CO)3)C(O)C(O)C(O3)OC(C(CO)2)C(O)C(O)C(O)O2
InChI: InChI=1S/C18H32O16/c19-1-4-7(22)8(23)12(27)17(31-4)34-15-6(3-21)32-18(13(28)10(15)25)33-14-5(2-20)30-16(29)11(26)9(14)24/h4-29H,1-3H2/t4-,5-,6-,7-,8+,9-,10-,11-,12-,13-,14-,15-,16?,17-,18-/m1/s1
Instrument: Pegasus III TOF-MS system, Leco; GC 6890, Agilent Technologies
Instrument type: GC-EI-TOF
Ms type: MS
Ion mode: POSITIVE
Column name: CP-SIL 8 CB LOW BLEED/MS
Retention time: 1236.537  sec
m/z	relative intensity
85	17
86	9
87	15
88	11
89	93
90	11
91	8
92	1
93	3
94	5
95	7
96	3
97	30
98	7
99	19
100	31
101	56
102	22
103	402
104	43
105	49
106	6
107	4
108	2
109	29
110	4
111	14
112	5
113	19
114	16
115	21
116	31
117	245
118	28
119	21
120	2
121	3
122	1
123	4
124	2
125	5
126	4
127	15
128	14
129	305
130	48
131	59
132	13
133	115
134	17
135	11
136	1
137	2
138	3
139	11
140	4
141	12
142	23
143	65
144	10
145	27
146	6
147	520
148	89
149	65
150	11
151	8
152	4
153	12
154	8
155	48
156	13
157	68
158	16
159	14
160	118
161	23
162	8
163	19
164	6
165	3
166	2
167	9
168	9
169	210
170	34
171	25
173	21
174	9
175	13
176	3
177	10
178	3
179	5
180	4
181	7
182	5
183	22
184	6
185	7
186	8
187	7
188	3
189	73
190	26
191	145
192	28
193	13
194	4
195	9
196	5
197	4
198	7
199	19
200	6
201	7
202	5
203	25
204	999
205	320
206	111
207	32
208	7
209	3
210	17
211	6
212	3
213	2
214	2
215	13
216	19
217	350
218	84
219	42
220	9
221	19
222	5
223	9
224	2
225	1
226	1
227	6
228	4
229	23
230	23
231	50
232	19
233	19
234	10
235	5
236	1
237	2
238	1
239	1
240	3
241	12
242	9
243	87
244	33
245	26
246	16
247	13
248	5
249	2
250	1
253	1
254	1
255	6
256	9
257	20
258	7
259	14
260	5
261	4
262	5
263	4
264	1
265	4
266	1
267	1
268	1
269	9
270	7
271	164
272	42
273	31
274	13
275	8
276	5
277	4
278	2
279	1
283	2
284	1
285	5
286	3
287	2
288	4
289	12
290	4
291	11
292	4
293	4
294	1
297	1
298	1
299	1
300	14
301	5
302	2
303	2
304	4
305	19
306	10
307	10
308	2
309	1
313	5
314	1
316	1
317	14
318	11
319	41
320	21
321	10
322	2
323	1
324	1
330	1
331	19
332	14
333	10
334	4
335	1
336	1
343	1
344	2
345	5
346	4
347	3
358	3
359	7
360	20
361	419
362	164
363	77
364	21
365	9
366	2
373	1
374	2
376	1
377	1
378	1
390	4
391	2
392	1
394	1
403	1
407	1
435	1
436	1
450	4
451	19
452	12
453	7
454	1
464	1
465	1
478	1
479	4
480	15
481	13
482	5
483	1
490	1
