Mass spectrum: beta-Lactose; GC-EI-TOF; MS; n TMS; RT:997.694 sec
Name: b-Lactose
Name: beta-Lactose
Class: Natural Product
Formula: C12H22O11
Exact mass: 342.11621
SMILES: OCC(O1)C(O)C(O)C(O)C1OC(C(CO)2)C(O)C(O)C(O)O2
InChI: InChI=1S/C12H22O11/c13-1-3-5(15)6(16)9(19)12(22-3)23-10-4(2-14)21-11(20)8(18)7(10)17/h3-20H,1-2H2/t3-,4-,5+,6+,7-,8-,9-,10-,11-,12+/m1/s1
Instrument: Pegasus III TOF-MS system, Leco; GC 6890, Agilent Technologies
Instrument type: GC-EI-TOF
Ms type: MS
Ion mode: POSITIVE
Column name: CP-SIL 8 CB LOW BLEED/MS
Retention time: 997.694  sec
m/z	relative intensity
85	27
86	8
87	21
88	19
89	229
90	25
91	13
92	1
93	2
94	1
95	8
96	2
97	53
98	8
99	24
100	64
101	80
102	41
103	667
104	67
105	74
106	16
107	5
108	1
109	22
110	7
111	22
112	6
113	31
114	17
115	29
116	37
117	405
118	38
119	46
120	4
121	4
125	3
126	7
127	24
128	10
129	490
130	78
131	99
132	18
133	190
134	31
135	23
136	1
138	2
139	7
140	4
141	21
142	20
143	138
144	23
145	33
146	9
147	991
148	165
149	118
150	18
151	11
152	4
153	11
154	8
155	77
156	16
157	95
158	20
159	21
160	139
161	42
162	11
163	45
164	7
165	3
166	3
167	8
168	9
169	315
170	54
171	34
172	14
173	28
174	7
175	19
176	4
177	18
178	10
179	4
180	4
181	4
182	3
183	14
185	9
186	12
187	10
188	6
189	109
190	33
191	176
192	37
193	16
194	4
195	7
196	4
197	4
198	2
199	10
200	2
201	12
202	5
203	36
204	999
205	395
206	127
207	46
208	9
209	4
210	10
211	3
212	2
214	3
215	16
216	12
217	531
218	138
219	65
220	13
221	33
222	7
223	3
225	1
226	1
227	7
228	7
229	52
230	30
231	48
232	12
233	55
234	14
235	16
236	3
238	1
240	3
241	11
242	7
243	98
244	33
245	28
246	12
247	25
248	3
251	1
255	3
256	2
257	9
258	3
259	23
260	6
261	3
262	5
263	3
264	2
265	6
267	2
268	11
269	9
270	9
271	90
272	29
273	25
274	7
275	5
276	2
277	4
278	2
279	1
280	1
281	1
286	4
288	2
291	16
292	6
293	3
294	1
296	1
297	1
299	1
300	29
301	8
302	5
303	2
304	6
305	29
306	11
307	11
308	3
310	1
313	2
314	1
316	1
317	14
318	9
319	149
320	57
321	30
322	5
325	1
329	1
330	2
331	29
332	19
333	12
334	6
335	1
336	1
337	3
339	1
341	2
342	1
345	3
347	5
349	2
358	2
359	13
360	25
361	289
362	118
363	61
364	17
365	4
373	1
376	1
377	2
379	1
389	2
390	14
391	3
392	3
393	1
394	1
395	2
398	1
399	1
400	1
405	2
406	2
409	7
410	3
411	2
413	1
420	1
422	3
423	2
425	1
427	2
430	1
434	1
449	1
450	2
451	12
452	7
453	1
477	1
478	1
480	2
488	1
