Mass spectrum: 2,3-Bisphospho-glyceric acid; GC-EI-TOF; MS; n TMS; RT:498.359 sec
Name: 2,3-Bisphospho-glycerate
Name: 2,3-Bisphospho-glyceric acid
Class: Natural Product
Formula: C3H8O10P2
Exact mass: 265.95927
SMILES: OC(=O)C(COP(O)(O)=O)OP(O)(O)=O
InChI: InChI=1S/C3H8O10P2/c4-3(5)2(13-15(9,10)11)1-12-14(6,7)8/h2H,1H2,(H,4,5)(H2,6,7,8)(H2,9,10,11)
Instrument: Pegasus III TOF-MS system, Leco; GC 6890, Agilent Technologies
Instrument type: GC-EI-TOF
Ms type: MS
Ion mode: POSITIVE
Column name: CP-SIL 8 CB LOW BLEED/MS
Retention time: 498.359  sec
m/z	relative intensity
85	17
86	24
87	24
88	49
89	62
90	21
91	5
92	4
93	1
94	6
95	2
96	2
97	3
98	21
99	16
100	67
101	35
102	125
103	412
104	59
105	32
106	3
107	1
110	4
111	6
112	18
113	24
114	54
115	46
116	57
117	62
118	17
119	23
120	4
121	3
124	1
125	2
126	4
127	9
128	268
129	340
130	75
131	65
132	37
133	141
134	29
135	21
136	3
137	2
138	1
139	1
140	4
141	2
142	41
143	21
144	506
145	80
146	37
147	387
148	79
149	100
150	15
151	7
156	6
157	3
158	9
159	3
160	2
161	3
162	2
163	4
164	1
170	1
172	5
173	1
174	2
175	2
176	6
177	6
178	2
179	1
185	1
186	3
187	3
188	9
189	141
190	35
191	17
192	3
193	1
195	1
199	1
200	4
201	3
202	3
203	117
204	45
205	126
206	44
207	16
208	3
209	1
215	3
216	4
217	35
218	16
219	7
220	1
221	4
222	1
223	1
230	2
232	5
233	13
234	999
235	216
236	94
237	15
238	3
239	1
249	1
