Mass spectrum: 4-Aminohippuric acid; GC-EI-TOF; MS; n TMS; RT:930.862 sec
Name: p-Aminohippuric acid
Name: 4-Aminohippuric acid
Class: Natural Product
Formula: C9H10N2O3
Exact mass: 194.06914
SMILES: OC(=O)CNC(=O)c(c1)ccc(N)c1
InChI: InChI=1S/C9H10N2O3/c10-7-3-1-6(2-4-7)9(14)11-5-8(12)13/h1-4H,5,10H2,(H,11,14)(H,12,13)
Instrument: Pegasus III TOF-MS system, Leco; GC 6890, Agilent Technologies
Instrument type: GC-EI-TOF
Ms type: MS
Ion mode: POSITIVE
Column name: CP-SIL 8 CB LOW BLEED/MS
Retention time: 930.862  sec
m/z	relative intensity
85	4
86	9
87	5
88	7
89	11
90	10
91	40
92	31
93	17
94	9
95	13
96	4
97	2
98	3
99	1
100	9
101	6
102	10
103	10
104	11
105	17
106	15
107	10
108	11
109	3
110	2
115	1
116	15
117	15
118	25
119	62
120	132
121	32
122	9
123	3
124	1
125	2
126	3
127	1
129	1
130	5
131	8
132	42
133	19
134	83
135	18
136	7
139	1
144	1
145	3
146	22
147	18
148	62
149	47
150	22
151	4
154	18
155	1
159	2
160	5
161	4
162	25
163	9
164	27
165	8
166	2
173	1
174	1
175	10
176	57
177	15
178	15
179	5
180	1
188	1
189	2
190	19
191	13
192	999
193	178
194	54
195	6
203	1
204	5
205	18
206	11
207	1
208	2
217	1
219	1
220	32
221	18
222	9
223	2
233	2
235	2
236	1
237	1
248	18
249	3
250	5
264	2
265	1
266	2
277	5
278	3
279	8
280	1
291	1
292	1
293	75
294	27
295	11
296	2
323	19
324	6
325	2
326	1
337	4
338	103
339	35
340	15
341	2
