Mass spectrum: Guanosine; GC-EI-TOF; MS; n TMS; RT:1021.540 sec
Name: Guanosine
Class: Natural Product
Formula: C10H13N5O5
Exact mass: 283.091669
SMILES: C1=NC2=C(N1[C@H]3[C@@H]([C@@H]([C@H](O3)CO)O)O)N=C(NC2=O)N
InChI: InChI=1S/C10H13N5O5/c11-10-13-7-4(8(19)14-10)12-2-15(7)9-6(18)5(17)3(1-16)20-9/h2-3,5-6,9,16-18H,1H2,(H3,11,13,14,19)/t3-,5-,6-,9-/m1/s1
Instrument: Pegasus III TOF-MS system, Leco; GC 6890, Agilent Technologies
Instrument type: GC-EI-TOF
Ms type: MS
Ion mode: POSITIVE
Column name: CP-SIL 8 CB LOW BLEED/MS
Retention time: 1021.540  sec
m/z	relative intensity
85	46
86	28
87	36
88	14
89	92
90	8
91	9
92	7
93	6
94	7
95	14
96	8
97	61
98	28
99	152
100	76
101	128
102	35
103	999
104	95
105	55
106	7
107	8
108	3
109	4
110	18
111	53
112	17
113	64
114	18
115	244
116	71
117	216
118	32
119	37
120	8
121	2
122	7
123	6
124	12
125	23
126	28
127	37
128	15
129	277
130	58
131	186
132	57
133	220
134	69
135	30
136	12
137	7
138	25
139	14
140	15
141	59
142	36
143	135
144	40
145	52
146	103
147	912
148	158
149	111
150	21
151	15
152	14
153	44
154	14
155	24
156	21
157	93
158	77
159	28
160	13
161	9
162	11
163	10
164	14
165	38
166	105
167	27
168	19
169	220
170	44
171	115
172	31
173	38
174	14
175	10
176	13
177	10
178	10
179	12
180	28
181	14
182	19
183	11
184	7
185	4
186	3
187	18
188	12
189	73
190	55
191	53
192	26
193	16
194	12
195	8
196	8
197	8
198	20
199	6
200	3
201	6
203	10
204	17
205	24
206	29
207	23
208	49
209	12
210	19
211	4
212	4
213	3
214	1
215	21
216	9
217	319
218	80
219	47
220	17
221	21
222	24
223	19
224	10
225	5
226	3
227	1
229	22
230	406
231	114
232	59
233	17
234	19
235	5
236	13
237	15
238	34
239	15
240	8
241	1
242	2
243	238
244	63
245	714
246	165
247	74
248	23
249	10
250	12
251	26
252	14
253	7
254	4
256	1
257	15
258	18
259	123
260	35
261	14
262	13
263	7
264	136
265	45
266	23
267	8
268	4
270	1
273	1
276	5
277	8
278	46
279	49
280	606
281	206
282	86
283	21
284	7
285	2
286	2
288	1
289	3
290	5
291	7
292	16
293	15
294	97
295	151
296	199
297	68
298	28
299	7
304	4
305	4
306	13
307	7
308	40
309	22
310	11
311	2
312	1
313	1
315	3
316	2
317	1
318	4
319	5
320	22
321	15
322	15
323	41
324	873
325	264
326	105
327	27
328	6
333	4
334	6
335	6
336	13
337	7
338	7
339	2
347	1
348	26
349	9
350	13
351	12
352	68
353	39
354	20
355	9
358	1
361	1
362	2
363	2
364	3
365	4
366	19
367	40
368	217
369	91
370	39
371	12
372	1
374	1
378	2
380	4
381	3
382	5
383	3
384	1
390	1
392	1
393	10
394	78
395	47
396	24
397	10
398	2
399	1
401	1
408	8
409	27
410	105
411	55
412	26
413	8
414	1
415	2
422	23
423	13
424	8
425	26
426	11
427	6
434	1
436	2
437	2
445	1
448	2
449	2
450	1
451	1
452	1
464	3
465	2
466	1
468	1
477	1
481	2
482	7
483	4
484	1
485	1
487	1
492	1
496	2
