Mass spectrum: Maltitol; GC-EI-TOF; MS; n TMS; RT:1036.131 sec
Name: Maltitol
Class: Natural Product
Formula: C12H24O11
Exact mass: 344.13186
SMILES: OCC(O)C(O)C([H])(C(O)CO)OC(O1)C(O)C(O)C(O)C(CO)1
InChI: InChI=1S/C12H24O11/c13-1-4(16)7(18)11(5(17)2-14)23-12-10(21)9(20)8(19)6(3-15)22-12/h4-21H,1-3H2/t4-,5+,6+,7+,8+,9-,10+,11+,12+/m0/s1
Instrument: Pegasus III TOF-MS system, Leco; GC 6890, Agilent Technologies
Instrument type: GC-EI-TOF
Ms type: MS
Ion mode: POSITIVE
Column name: CP-SIL 8 CB LOW BLEED/MS
Retention time: 1036.131  sec
m/z	relative intensity
85	5
86	21
87	14
88	63
89	7
90	5
91	1
92	3
93	3
94	6
95	2
96	23
97	3
98	18
99	3
100	67
101	14
102	658
103	64
104	31
105	2
106	2
107	1
108	17
109	2
110	17
111	3
112	25
113	6
114	21
115	29
116	385
117	40
118	28
119	3
120	2
122	1
124	4
125	2
126	15
127	4
128	351
129	45
130	82
131	13
132	144
133	22
134	15
135	2
136	1
138	7
139	2
140	12
141	14
142	71
143	11
144	21
145	5
146	999
147	161
148	114
149	14
150	9
151	2
152	11
153	4
154	51
155	11
156	53
157	8
158	12
159	2
160	11
161	2
162	17
163	3
164	2
165	2
166	10
167	3
168	165
169	27
170	17
171	3
172	10
173	3
174	16
175	4
176	12
177	3
178	3
179	1
180	4
181	2
182	44
183	8
184	6
185	1
186	6
187	2
188	90
189	27
190	186
191	34
192	17
193	2
194	2
195	1
196	1
198	5
199	1
200	6
201	5
202	31
203	670
204	335
205	99
206	37
207	6
208	2
210	1
212	1
214	14
215	6
216	653
217	153
218	71
219	12
220	33
221	8
222	5
223	1
224	1
226	4
227	2
228	22
229	14
230	93
231	22
232	16
233	4
234	2
236	1
238	3
239	1
240	7
241	4
242	73
243	21
244	20
245	5
246	9
247	2
248	2
254	26
255	8
256	17
257	5
258	17
259	4
260	3
261	1
262	2
264	8
265	2
266	2
268	1
269	1
270	72
271	19
272	19
273	4
274	3
276	6
277	4
278	3
279	1
282	1
284	1
286	1
287	1
288	2
289	1
290	16
291	6
292	4
293	1
296	1
302	1
303	3
304	21
305	15
306	42
307	15
308	6
309	2
316	8
317	6
318	69
319	26
320	13
321	3
322	1
328	1
329	1
330	31
331	17
332	10
333	4
334	1
343	1
344	51
345	21
346	11
347	3
348	1
358	2
359	9
360	437
361	154
362	77
363	19
364	5
365	1
372	2
373	1
408	3
409	1
418	6
419	4
420	9
421	5
422	2
433	1
434	4
435	2
436	1
449	2
450	19
451	10
452	5
453	2
462	2
463	3
464	2
465	1
474	1
475	1
