Mass spectrum: Pyrophosphoric acid; GC-EI-TOF; MS; n TMS; RT:422.743 sec
Name: Pyrophosphate
Name: Pyrophosphoric acid
Class: Natural Product
Formula: H4O7P2
Exact mass: 177.94323
SMILES: OP(O)(=O)OP(O)(O)=O
InChI: InChI=1S/H4O7P2/c1-8(2,3)7-9(4,5)6/h(H2,1,2,3)(H2,4,5,6)
Instrument: Pegasus III TOF-MS system, Leco; GC 6890, Agilent Technologies
Instrument type: GC-EI-TOF
Ms type: MS
Ion mode: POSITIVE
Column name: CP-SIL 8 CB LOW BLEED/MS
Retention time: 422.743  sec
m/z	relative intensity
85	10
86	2
87	19
88	6
89	25
90	4
91	17
92	5
93	5
94	1
95	1
96	3
97	1
98	3
99	2
100	1
101	4
102	6
103	79
104	17
105	46
106	8
107	27
108	3
109	8
113	4
115	86
116	13
117	41
118	8
119	62
120	10
121	47
122	6
123	21
124	1
125	1
126	2
129	2
131	55
132	12
133	353
134	52
135	134
136	17
137	72
138	8
139	7
143	1
145	6
146	1
147	98
148	16
149	15
150	5
151	60
152	7
153	10
154	1
159	1
161	4
162	1
163	16
164	4
165	31
166	8
167	28
168	5
169	3
175	3
176	4
177	19
178	8
179	21
180	7
181	74
182	13
183	26
184	7
185	3
186	1
187	1
189	30
190	8
191	112
192	27
193	138
194	27
195	34
196	7
197	10
198	2
199	1
200	1
201	1
202	1
203	2
204	1
205	22
206	6
207	125
208	27
209	22
210	7
211	234
212	37
213	20
214	2
215	1
221	12
222	2
223	3
224	1
225	68
226	12
227	21
228	3
229	1
239	2
253	5
254	2
255	4
256	1
267	5
268	3
269	10
270	4
271	1
283	58
284	21
285	10
286	2
297	1
298	15
299	999
300	259
301	142
302	27
303	7
304	1
305	1
306	1
307	1
308	1
310	1
313	4
314	171
315	46
316	24
317	4
318	1
