Mass spectrum: 5-Sulfosalicylic acid; GC-EI-TOF; MS; n TMS; RT:835.429 sec
Name: 5-Sulfosalicylate
Name: 5-Sulfosalicylic acid
Class: Natural Product
Formula: C11H8N2S
Exact mass: 200.04082
SMILES: Nc(s3)nc(c13)c(c2)c(ccc2)cc1
InChI: InChI=1S/C11H8N2S/c12-11-13-10-8-4-2-1-3-7(8)5-6-9(10)14-11/h1-6H,(H2,12,13)
Instrument: Pegasus III TOF-MS system, Leco; GC 6890, Agilent Technologies
Instrument type: GC-EI-TOF
Ms type: MS
Ion mode: POSITIVE
Column name: CP-SIL 8 CB LOW BLEED/MS
Retention time: 835.429  sec
m/z	relative intensity
85	36
86	4
87	24
88	9
89	82
90	37
91	139
92	29
93	111
94	10
95	106
96	34
97	16
98	4
99	19
100	4
101	9
102	10
103	99
104	42
105	135
106	32
107	67
108	11
109	35
110	5
111	18
112	2
113	4
114	2
115	71
116	12
117	51
118	24
119	155
120	29
121	111
122	29
123	27
124	7
125	2
126	2
127	8
128	6
129	21
130	3
131	87
132	12
133	272
134	69
135	149
136	44
137	50
138	5
139	5
140	1
141	8
142	1
143	22
144	4
145	20
146	5
147	350
148	78
149	363
150	60
151	38
152	5
153	9
154	2
155	6
156	1
157	4
158	4
159	25
160	3
161	23
162	11
163	81
164	30
165	43
166	11
167	33
168	6
169	11
170	1
173	8
174	3
175	10
176	2
177	63
178	16
179	45
180	26
181	19
182	15
183	5
185	1
189	6
190	4
191	71
192	46
193	329
194	61
195	61
196	14
197	6
202	4
203	2
205	10
206	7
207	71
208	17
209	164
210	30
211	13
212	2
213	6
214	1
215	1
217	2
219	6
220	3
221	50
222	18
223	57
224	13
225	9
226	4
227	1
228	2
229	2
231	2
232	1
233	20
234	7
235	14
236	11
237	26
238	6
239	10
240	4
241	19
242	3
243	3
245	1
247	7
248	3
249	15
250	9
251	357
252	91
253	43
254	7
255	6
256	2
257	324
258	55
259	33
260	5
261	2
263	3
264	2
265	25
266	21
267	19
268	4
269	1
270	1
271	1
272	1
273	19
274	1
275	2
276	2
278	1
279	2
280	3
281	10
282	4
283	3
284	1
285	1
286	1
287	8
288	3
291	1
297	4
298	1
301	3
303	1
305	1
309	1
311	2
314	4
315	32
316	11
317	5
318	2
323	2
325	2
329	11
330	7
331	136
332	35
333	17
334	4
335	1
338	1
345	24
346	7
347	7
361	3
362	2
363	1
371	1
373	1
403	2
404	1
413	1
416	1
417	5
418	97
419	999
420	467
421	257
422	84
423	21
424	6
425	1
435	1
