Mass spectrum: Apigenin; GC-EI-TOF; MS; n TMS; RT:1131.295 sec
Name: Apigenine
Name: Apigenin
Class: Natural Product
Formula: C15H10O5
Exact mass: 270.05282
SMILES: Oc(c3)ccc(c3)C(=C1)Oc(c2)c(c(O)cc(O)2)C(=O)1
InChI: InChI=1S/C15H10O5/c16-9-3-1-8(2-4-9)13-7-12(19)15-11(18)5-10(17)6-14(15)20-13/h1-7,16-18H
Instrument: Pegasus III TOF-MS system, Leco; GC 6890, Agilent Technologies
Instrument type: GC-EI-TOF
Ms type: MS
Ion mode: POSITIVE
Column name: CP-SIL 8 CB LOW BLEED/MS
Retention time: 1131.295  sec
m/z	relative intensity
85	15
86	6
87	11
88	4
89	18
90	5
91	24
92	6
93	13
94	1
95	8
96	6
97	5
98	4
99	40
100	5
101	15
102	6
103	22
104	7
105	20
106	6
107	14
108	1
109	7
110	2
111	6
112	1
113	9
114	4
115	33
116	7
117	15
118	8
119	22
120	6
121	23
122	7
123	14
124	4
125	8
126	6
127	9
128	8
129	12
130	3
131	15
132	7
133	58
134	15
135	36
136	6
137	23
138	8
139	16
140	5
141	10
142	6
143	13
144	1
145	18
146	9
147	67
148	14
149	25
150	17
151	23
152	13
153	12
154	6
155	12
156	7
157	5
158	2
159	12
160	4
161	14
162	10
163	19
164	9
165	28
166	8
167	12
168	8
169	15
170	6
171	5
172	1
173	4
174	3
175	36
176	18
177	38
178	24
179	19
180	5
181	8
182	3
183	19
184	12
185	8
186	4
187	4
188	1
189	14
190	9
191	16
192	25
193	28
194	5
195	11
196	4
197	4
198	2
199	4
200	3
201	3
202	5
203	6
204	2
205	14
206	5
207	15
208	5
209	13
210	6
211	5
212	5
213	17
214	3
215	5
216	1
217	16
218	5
219	9
220	15
221	21
222	11
223	22
224	8
225	12
226	5
227	18
228	238
229	68
230	8
231	4
232	1
233	5
234	3
235	13
236	5
237	10
238	4
239	7
240	3
241	3
242	3
243	3
245	1
247	5
248	1
249	7
250	3
251	10
252	6
253	17
254	5
255	5
256	1
258	1
259	7
260	2
261	2
262	2
263	3
264	1
265	8
266	4
267	9
268	5
269	9
270	5
271	2
272	1
274	1
275	3
277	5
278	3
279	11
280	11
281	31
282	13
283	9
284	1
285	1
289	1
290	2
291	7
292	4
293	10
294	6
295	18
296	8
297	32
298	29
299	16
300	6
301	2
302	1
305	1
306	3
307	5
308	5
309	40
310	18
311	15
312	7
313	8
314	2
315	1
320	1
321	3
322	4
323	9
324	19
325	21
326	16
327	87
328	30
329	17
330	4
331	2
333	1
335	1
337	3
338	4
339	11
340	21
341	17
342	9
343	4
344	1
345	1
350	2
351	3
352	4
353	9
354	14
355	11
356	6
357	15
358	7
359	4
360	1
363	3
364	1
365	2
366	2
367	9
368	21
369	39
370	53
371	33
372	13
373	3
380	3
381	19
382	19
383	23
384	12
385	29
386	13
387	3
390	1
395	6
396	16
397	24
398	42
399	108
400	57
401	38
402	20
403	6
406	1
411	3
412	1
413	5
414	12
415	6
416	1
423	1
425	3
426	3
427	2
428	2
429	1
430	1
431	1
432	1
434	1
437	1
438	1
439	3
440	6
441	24
442	18
443	7
444	4
445	1
446	1
452	1
453	2
454	3
455	6
456	4
457	2
466	1
467	5
468	16
469	64
470	262
471	999
472	553
473	255
474	87
475	28
476	6
477	2
479	1
485	12
486	7
487	4
488	2
492	1
