Mass spectrum: Gentisic acid; GC-EI-TOF; MS; n TMS; RT:677.138 sec
Name: Gentistic acid
Name: Gentisic acid
Class: Natural Product
Formula: C7H6O4
Exact mass: 154.02661
SMILES: Oc(c1)cc(C(O)=O)c(O)c1
InChI: InChI=1S/C7H6O4/c8-4-1-2-6(9)5(3-4)7(10)11/h1-3,8-9H,(H,10,11)
Instrument: Pegasus III TOF-MS system, Leco; GC 6890, Agilent Technologies
Instrument type: GC-EI-TOF
Ms type: MS
Ion mode: POSITIVE
Column name: CP-SIL 8 CB LOW BLEED/MS
Retention time: 677.138  sec
m/z	relative intensity
85	18
86	3
87	12
88	4
89	30
90	11
91	55
92	9
93	32
94	4
95	23
96	5
97	14
98	3
99	9
100	1
101	5
102	6
103	60
104	39
105	105
106	14
107	29
108	5
109	26
110	5
111	12
112	3
113	4
114	1
115	39
116	8
117	32
118	7
119	58
120	11
121	31
122	8
123	10
124	2
125	2
126	8
127	7
128	5
129	16
130	2
131	51
132	12
133	176
134	33
135	88
136	13
137	33
138	5
139	3
140	1
141	15
142	3
143	22
144	3
145	15
146	5
147	136
148	27
149	179
150	31
151	28
152	6
153	8
154	1
155	4
157	9
158	1
159	5
160	1
161	21
162	6
163	54
164	14
165	24
166	6
167	16
168	3
169	4
170	1
171	1
173	1
175	3
176	2
177	21
178	8
179	36
180	12
181	16
182	4
183	3
184	1
185	1
187	1
188	1
189	6
190	2
191	29
192	12
193	42
194	12
195	34
196	16
197	7
198	2
201	1
203	3
204	1
205	5
206	3
207	38
208	21
209	37
210	9
211	7
212	2
213	1
215	1
217	2
219	4
220	2
221	18
222	8
223	178
224	51
225	50
226	11
227	3
233	3
234	2
235	5
236	3
237	38
238	15
239	17
240	6
241	4
242	1
243	1
247	5
248	3
249	18
250	6
251	21
252	9
253	9
254	4
255	1
261	1
262	1
263	13
264	8
265	31
266	15
267	125
268	54
269	20
270	4
271	1
279	5
280	4
281	51
282	50
283	23
284	8
285	1
295	1
296	2
297	55
298	36
299	27
300	14
301	4
302	1
303	1
307	1
308	1
309	2
310	1
311	1
312	1
313	5
314	5
315	5
316	2
317	1
318	1
319	1
320	1
321	6
322	8
323	5
324	3
325	2
326	1
327	1
336	1
337	16
338	30
339	14
340	6
341	2
347	1
348	1
349	1
350	1
351	1
352	1
353	6
354	43
355	999
356	533
357	230
358	72
359	17
360	3
369	1
370	23
371	16
372	5
373	1
