Mass spectrum: Uracil; GC-EI-TOF; MS; n TMS; RT:463.394 sec
Name: Uracil
Class: Natural Product
Formula: C4H4N2O2
Exact mass: 112.02728
SMILES: O=C(C=1)NC(=O)NC1
InChI: InChI=1S/C4H4N2O2/c7-3-1-2-5-4(8)6-3/h1-2H,(H2,5,6,7,8)
Instrument: Pegasus III TOF-MS system, Leco; GC 6890, Agilent Technologies
Instrument type: GC-EI-TOF
Ms type: MS
Ion mode: POSITIVE
Column name: CP-SIL 8 CB LOW BLEED/MS
Retention time: 463.394  sec
m/z	relative intensity
85	82
86	37
87	20
88	4
89	5
90	1
91	4
92	4
93	3
94	4
95	8
96	27
97	14
98	45
99	999
100	212
101	82
102	18
103	18
104	3
105	31
106	8
107	1
108	1
109	33
110	7
111	15
112	11
113	247
114	27
115	20
116	8
117	31
118	5
119	7
120	5
121	1
123	2
124	6
125	5
126	226
127	36
128	13
129	5
130	3
131	90
132	17
133	47
134	7
135	3
137	1
138	3
139	5
140	7
141	7
142	7
143	4
144	5
145	1
146	2
147	486
148	77
149	40
150	4
151	1
152	1
153	19
154	3
155	2
156	11
157	17
158	17
159	5
160	3
161	1
166	6
167	8
168	5
169	25
170	6
171	3
172	5
173	2
174	6
175	1
181	2
182	7
183	18
184	10
185	19
186	4
187	2
196	1
197	4
198	3
199	3
200	1
201	1
210	1
211	4
212	4
213	3
214	1
225	5
226	2
227	1
239	21
240	10
241	498
242	108
243	47
244	7
245	2
246	1
247	1
253	1
254	2
255	249
256	220
257	60
258	19
259	3
260	1
