Mass spectrum: L-Saccharopine; GC-EI-TOF; MS; n TMS; RT:950.093 sec
Name: L-Saccharopine
Class: Natural Product
Formula: C11H20N2O6
Exact mass: 276.13214
SMILES: OC(=O)CCC(NCCCCC(N)C(O)=O)C(O)=O
InChI: InChI=1S/C11H20N2O6/c12-7(10(16)17)3-1-2-6-13-8(11(18)19)4-5-9(14)15/h7-8,13H,1-6,12H2,(H,14,15)(H,16,17)(H,18,19)/t7-,8-/m0/s1
Instrument: Pegasus III TOF-MS system, Leco; GC 6890, Agilent Technologies
Instrument type: GC-EI-TOF
Ms type: MS
Ion mode: POSITIVE
Column name: CP-SIL 8 CB LOW BLEED/MS
Retention time: 950.093  sec
m/z	relative intensity
86	57
96	92
98	69
102	135
103	206
112	34
114	75
115	94
117	36
118	18
122	186
128	61
130	184
131	133
132	184
133	88
142	112
147	999
148	229
149	210
154	69
155	176
156	603
157	153
158	165
168	165
184	42
208	12
230	75
240	135
241	45
243	14
250	24
253	8
259	22
274	194
285	16
286	4
321	2
357	859
358	505
359	239
366	24
367	16
383	12
389	10
409	16
413	24
414	22
432	30
439	12
459	63
473	4
481	18
482	2
491	2
