Mass spectrum: 2-Oxoglutaric acid; GC-EI-TOF; MS; n TMS; RT:585.793 sec
Name: Alpha-Ketoglutaric acid
Name: 2-Oxoglutaric acid
Class: Natural Product
Formula: C5H6O5
Exact mass: 146.02152
SMILES: OC(=O)CCC(=O)C(O)=O
InChI: InChI=1S/C5H6O5/c6-3(5(9)10)1-2-4(7)8/h1-2H2,(H,7,8)(H,9,10)
Instrument: Pegasus III TOF-MS system, Leco; GC 6890, Agilent Technologies
Instrument type: GC-EI-TOF
Ms type: MS
Ion mode: POSITIVE
Column name: CP-SIL 8 CB LOW BLEED/MS
Retention time: 585.793  sec
m/z	relative intensity
85	38
86	46
87	18
88	14
89	567
90	51
91	52
92	13
93	31
94	2
95	13
96	9
97	7
98	26
99	25
100	36
101	23
102	25
103	37
104	7
105	21
106	1
107	1
108	2
109	7
110	13
111	23
112	254
113	32
114	8
115	46
116	16
117	38
118	7
119	15
120	2
121	1
124	3
125	18
126	144
127	35
128	37
129	54
130	20
131	48
132	17
133	132
134	21
135	17
136	1
138	6
139	5
140	8
141	2
142	17
143	14
144	7
145	18
146	3
147	999
148	166
149	107
150	13
151	4
152	2
153	7
154	89
155	23
156	495
157	69
158	39
159	14
160	9
161	4
162	1
163	19
164	4
165	2
168	2
169	1
170	185
171	39
172	60
173	29
174	17
175	3
176	1
182	22
183	22
184	20
185	4
186	179
187	28
188	12
189	1
190	6
191	1
197	1
198	548
199	101
200	43
201	40
202	126
203	23
204	7
205	2
214	7
215	1
216	5
217	2
220	1
228	4
229	135
230	26
231	9
232	2
243	3
244	47
245	15
246	6
260	2
272	10
273	7
274	3
275	1
287	1
288	128
289	43
290	17
291	3
303	2
304	116
305	28
306	15
319	15
320	3
