Mass spectrum: L-Serine; GC-EI-TOF; MS; 2 TMS; n TMS; RT:416.207 sec
Name: L-Serine
Class: Natural Product
Formula: C3H7NO3
Exact mass: 105.04259
SMILES: OC[C@H](N)C(O)=O
InChI: InChI=1S/C3H7NO3/c4-2(1-5)3(6)7/h2,5H,1,4H2,(H,6,7)/t2-/m0/s1
Instrument: Pegasus III TOF-MS system, Leco; GC 6890, Agilent Technologies
Instrument type: GC-EI-TOF
Ms type: MS
Ion mode: POSITIVE
Column name: CP-SIL 8 CB LOW BLEED/MS
Retention time: 416.207  sec
Derivative type: 2 TMS
m/z	relative intensity
85	12
86	29
87	31
88	56
89	26
90	6
91	16
98	2
99	5
100	79
101	31
102	40
103	161
104	12
105	12
111	1
115	12
116	999
117	132
118	51
119	7
128	2
129	5
130	77
131	43
132	687
133	120
134	40
135	7
143	6
144	134
145	17
146	80
147	124
148	24
149	19
150	4
159	53
160	5
188	17
190	1
203	2
206	7
213	1
216	2
217	1
219	42
220	6
221	1
228	1
232	2
234	34
235	3
250	1
256	3
257	1
286	1
314	1
356	1
379	1
446	1
488	2
