Mass spectrum: beta-Glutamic acid; GC-EI-TOF; MS; n TMS; RT:602.144 sec
Name: b-Glutamic acid
Name: beta-Glutamic acid
Class: Natural Product
Formula: C5H9NO4
Exact mass: 147.05316
SMILES: NC(CC(O)=O)CC(O)=O
InChI: InChI=1S/C5H9NO4/c6-3(1-4(7)8)2-5(9)10/h3H,1-2,6H2,(H,7,8)(H,9,10)
Instrument: Pegasus III TOF-MS system, Leco; GC 6890, Agilent Technologies
Instrument type: GC-EI-TOF
Ms type: MS
Ion mode: POSITIVE
Column name: CP-SIL 8 CB LOW BLEED/MS
Retention time: 602.144  sec
m/z	relative intensity
85	23
86	25
87	21
88	21
89	16
90	5
91	4
92	6
93	8
94	2
95	50
96	7
97	7
98	41
99	70
100	976
101	140
102	57
103	28
104	5
105	10
106	2
107	1
108	1
109	1
110	35
111	4
112	11
113	9
114	101
115	71
116	74
117	313
118	38
119	27
120	3
121	1
122	1
124	2
125	3
126	8
127	2
128	22
129	9
130	16
131	84
132	58
133	140
134	25
135	14
136	2
137	1
139	1
140	6
141	6
142	71
143	16
144	99
145	15
146	22
147	706
148	125
149	86
150	11
151	5
152	1
154	1
155	1
156	6
157	6
158	23
159	9
160	45
161	8
162	5
163	41
164	11
165	5
166	1
167	1
168	3
169	15
170	3
171	3
172	49
173	31
174	93
175	19
176	9
177	2
178	1
182	1
183	1
184	3
185	11
186	4
187	2
188	105
189	58
190	26
191	26
192	6
193	3
199	1
200	27
201	5
202	6
203	2
204	9
205	10
206	4
207	3
208	1
214	3
215	6
216	134
217	33
218	16
219	3
220	1
221	6
222	1
223	1
229	1
230	28
231	10
232	999
233	209
234	92
235	13
236	3
244	1
245	2
246	18
247	5
248	2
258	33
259	37
260	12
261	4
262	3
263	1
272	1
273	1
274	1
290	1
306	48
307	20
308	10
309	3
310	1
331	13
332	10
333	4
334	1
347	3
348	74
349	35
350	14
351	4
352	1
362	1
363	2
364	1
