Mass spectrum: D-Mannose; GC-EI-TOF; MS; n TMS; RT:718.012 sec
Name: D-Mannose
Class: Natural Product
Formula: C6H12O6
Exact mass: 180.06339
SMILES: OCC(O)C(O)C(O)C(O)C=O
InChI: InChI=1S/C6H12O6/c7-1-3(9)5(11)6(12)4(10)2-8/h1,3-6,8-12H,2H2/t3-,4-,5-,6-/m1/s1
Instrument: Pegasus III TOF-MS system, Leco; GC 6890, Agilent Technologies
Instrument type: GC-EI-TOF
Ms type: MS
Ion mode: POSITIVE
Column name: CP-SIL 8 CB LOW BLEED/MS
Retention time: 718.012  sec
m/z	relative intensity
85	19
86	25
87	24
88	23
89	250
90	24
91	14
92	1
93	2
94	2
95	2
96	3
97	12
98	6
99	21
100	52
101	76
102	41
103	431
104	45
105	99
106	11
107	5
108	1
109	1
110	4
111	10
112	8
113	18
114	46
115	32
116	29
117	342
118	37
119	35
120	4
121	2
124	1
125	2
126	8
127	16
128	16
129	381
130	74
131	100
132	19
133	228
134	32
135	20
136	2
137	1
138	2
139	1
140	4
141	8
142	19
143	51
144	10
145	27
146	8
147	999
148	161
149	104
150	14
151	7
152	3
153	2
154	4
155	4
156	6
157	273
158	51
159	23
160	440
161	81
162	24
163	32
164	5
165	2
166	1
167	1
168	6
169	10
170	6
171	3
172	11
173	15
174	7
175	17
176	3
177	14
178	3
179	2
180	3
181	2
182	2
183	1
184	1
185	2
186	10
187	4
188	4
189	79
190	26
191	52
192	11
193	6
194	1
196	2
197	1
198	2
199	1
200	5
201	25
202	9
203	16
204	91
205	534
206	109
207	59
208	9
209	3
210	11
211	2
212	1
214	4
215	11
216	29
217	306
218	68
219	31
220	6
221	22
222	6
223	3
224	1
226	1
228	5
229	75
230	23
231	33
232	12
233	18
234	14
235	3
236	1
237	1
240	3
241	1
242	3
243	7
244	9
245	6
246	10
247	6
248	2
249	1
254	1
256	4
257	1
259	3
260	3
261	2
262	9
263	3
264	1
265	2
266	1
268	3
269	7
270	4
271	2
272	1
274	12
275	4
276	1
277	13
278	6
279	2
290	1
291	25
292	8
293	4
300	5
301	1
302	1
304	2
305	20
306	8
307	15
308	5
309	1
317	1
318	12
319	405
320	139
321	65
322	16
323	4
331	2
332	1
333	2
334	1
343	2
344	3
345	1
358	1
364	6
365	4
366	1
374	1
376	2
