Mass spectrum: D-Ribulose-5-phosphate; GC-EI-TOF; MS; n TMS; RT:802.235 sec
Name: D-Ribulose-5-phosphate
Class: Natural Product
Formula: C5H11O8P
Exact mass: 230.01915
SMILES: OCC(=O)C(O)C(O)COP(O)(O)=O
InChI: InChI=1S/C5H11O8P/c6-1-3(7)5(9)4(8)2-13-14(10,11)12/h4-6,8-9H,1-2H2,(H2,10,11,12)/t4-,5+/m1/s1
Instrument: Pegasus III TOF-MS system, Leco; GC 6890, Agilent Technologies
Instrument type: GC-EI-TOF
Ms type: MS
Ion mode: POSITIVE
Column name: CP-SIL 8 CB LOW BLEED/MS
Retention time: 802.235  sec
m/z	relative intensity
85	38
86	17
87	30
88	22
89	329
90	30
91	25
92	1
93	5
94	2
95	2
96	22
97	5
98	15
99	27
100	52
101	246
102	32
103	335
104	36
105	40
106	3
107	6
109	1
110	1
111	6
112	4
113	25
114	96
115	52
116	84
117	120
118	16
119	40
120	4
121	18
122	1
123	6
124	1
125	5
126	118
127	14
128	21
129	173
130	28
131	151
132	18
133	286
134	43
135	78
136	9
137	26
138	1
139	2
140	9
141	2
142	16
143	14
144	5
145	12
146	5
147	447
148	70
149	51
150	7
151	31
152	10
153	5
154	15
155	3
156	11
157	7
158	8
159	16
160	2
161	44
162	5
163	22
164	2
165	7
166	5
167	8
168	11
169	3
170	8
171	1
172	21
173	25
174	7
175	5
176	1
177	6
178	1
179	8
180	2
181	41
182	9
183	20
184	15
185	2
186	16
187	2
188	7
189	12
190	3
191	47
192	7
193	41
194	5
195	58
196	8
197	21
198	6
199	1
200	21
201	50
202	12
203	6
204	5
205	7
207	69
208	13
209	12
210	5
211	217
212	41
213	20
214	8
215	5
216	12
217	33
218	11
219	4
221	3
225	74
226	13
227	42
228	12
229	6
230	8
231	2
232	1
233	10
234	1
240	3
241	8
242	4
243	5
244	3
253	33
254	7
255	7
256	13
257	2
258	1
260	15
261	4
262	4
269	18
270	3
271	1
275	1
283	10
284	3
285	20
286	3
287	3
298	10
299	291
300	89
301	50
302	8
303	1
313	7
314	8
315	63
316	19
317	10
318	1
328	7
329	4
330	4
331	4
332	3
340	3
341	73
342	42
343	15
344	3
346	2
347	1
349	2
352	1
355	2
356	55
357	999
358	340
359	165
360	43
361	8
362	6
363	1
369	1
370	2
371	2
372	1
373	14
374	6
375	1
387	14
388	6
389	7
403	2
404	1
429	3
