Mass spectrum: Homogentisic acid; GC-EI-TOF; MS; n TMS; RT:702.424 sec
Name: Homogentisate
Name: Homogentisic acid
Class: Natural Product
Formula: C8H8O4
Exact mass: 168.04226
SMILES: OC(=O)Cc(c1)c(O)ccc(O)1
InChI: InChI=1S/C8H8O4/c9-6-1-2-7(10)5(3-6)4-8(11)12/h1-3,9-10H,4H2,(H,11,12)
Instrument: Pegasus III TOF-MS system, Leco; GC 6890, Agilent Technologies
Instrument type: GC-EI-TOF
Ms type: MS
Ion mode: POSITIVE
Column name: CP-SIL 8 CB LOW BLEED/MS
Retention time: 702.424  sec
m/z	relative intensity
85	25
86	5
87	20
88	8
89	44
90	12
91	103
92	17
93	25
94	4
95	35
96	13
97	24
98	5
99	15
100	2
101	10
102	17
103	78
104	38
105	100
106	13
107	30
108	5
109	24
110	15
111	70
112	10
113	6
114	1
115	55
116	15
117	69
118	18
119	103
120	17
121	43
122	7
123	13
124	2
125	6
126	3
127	5
128	3
129	11
130	4
131	71
132	17
133	224
134	38
135	87
136	17
137	19
138	3
139	2
140	2
141	12
142	2
143	18
144	3
145	27
146	9
147	999
148	173
149	159
150	29
151	47
152	10
153	5
154	1
155	4
156	1
157	7
158	1
159	12
160	4
161	60
162	21
163	157
164	37
165	31
166	9
167	13
168	3
169	3
170	1
171	1
173	3
174	1
175	17
176	9
177	85
178	80
179	68
180	16
181	20
182	5
183	3
184	1
185	6
187	1
189	9
190	4
191	57
192	18
193	98
194	86
195	37
196	12
197	5
198	2
201	1
203	3
204	2
205	8
206	6
207	47
208	15
209	39
210	14
211	8
212	2
213	1
215	1
217	4
218	2
219	11
220	7
221	29
222	31
223	47
224	18
225	30
226	8
227	4
228	1
229	1
231	1
232	1
233	11
234	6
235	30
236	22
237	264
238	114
239	50
240	15
241	4
242	1
243	2
244	2
245	2
246	1
247	5
248	4
249	38
250	24
251	77
252	336
253	126
254	52
255	14
256	3
257	1
258	1
259	1
261	1
262	1
263	6
264	4
265	61
266	24
267	107
268	68
269	25
270	8
271	2
278	1
279	3
280	2
281	22
282	9
283	5
284	1
293	1
294	14
295	8
296	16
297	42
298	31
299	24
300	9
301	3
302	1
305	1
307	1
308	1
309	3
310	3
311	8
312	37
313	50
314	34
315	18
316	6
317	2
318	1
323	4
324	6
325	33
326	34
327	17
328	7
329	3
330	1
331	1
332	1
333	2
334	2
335	2
336	1
337	1
339	4
340	27
341	404
342	218
343	147
344	54
345	18
346	4
352	1
353	1
354	2
355	3
356	2
357	2
358	2
359	2
360	2
361	1
362	1
363	1
364	1
367	1
368	5
369	43
370	32
371	16
372	7
373	1
375	1
376	1
377	2
378	2
379	2
380	3
381	2
382	1
383	27
384	483
385	223
386	99
387	29
388	7
389	1
