Mass spectrum: L-Proline; GC-EI-QQ; MS; 2 TBDMS; RT:674.82 sec
Name: L-Proline
Class: Natural Product
Formula: C5H9NO2
Exact mass: 115.06333
SMILES: OC(=O)C(C1)NCC1
InChI: InChI=1S/C5H9NO2/c7-5(8)4-2-1-3-6-4/h4,6H,1-3H2,(H,7,8)/t4-/m0/s1
Instrument: Agilent 7000B QqQMS, Agilent; Agilent 7896A series GC system, Agilent Technologies
Instrument type: GC-EI-QQ
Ms type: MS
Ion mode: POSITIVE
Column name: CP-SIL 8 CB LOW BLEED/MS
Retention time: 674.82 sec
Derivative form: C17H37NO2Si2
Derivative mass: 343.23628
Derivative type: 2 TBDMS
m/z	relative intensity
55	1
56	2
57	6
58	3
59	16
60	1
61	1
66	4
68	2
69	1
70	12
71	2
73	199
74	17
75	18
76	1
80	2
83	1
84	2
85	5
86	3
87	1
97	1
98	3
99	9
100	10
102	1
103	3
105	2
107	2
112	2
113	2
115	8
116	1
117	7
118	1
119	5
124	1
126	7
127	14
128	12
129	3
131	7
132	4
133	29
134	4
135	2
140	1
142	2
143	2
144	2
145	2
147	124
148	19
149	10
150	1
154	3
155	2
156	2
157	1
158	2
159	3
160	1
168	4
169	1
170	3
172	2
173	4
174	2
182	4
184	999
185	184
186	52
187	5
189	2
196	2
198	2
200	5
201	2
202	1
212	2
217	3
228	2
230	1
258	155
259	37
260	14
261	2
286	123
287	30
288	12
289	2
300	3
328	5
329	1
