Mass spectrum: Biotin; GC-EI-TOF; MS; n TMS; RT:938.702 sec
Name: Biotin
Class: Natural Product
Formula: C10H16N2O3S
Exact mass: 244.08816
SMILES: OC(=O)CCCC[C@H](S1)[C@@H](N2)[C@@H](NC(=O)2)C1
InChI: InChI=1S/C10H16N2O3S/c13-8(14)4-2-1-3-7-9-6(5-16-7)11-10(15)12-9/h6-7,9H,1-5H2,(H,13,14)(H2,11,12,15)/t6-,7-,9-/m0/s1
Instrument: Pegasus III TOF-MS system, Leco; GC 6890, Agilent Technologies
Instrument type: GC-EI-TOF
Ms type: MS
Ion mode: POSITIVE
Column name: CP-SIL 8 CB LOW BLEED/MS
Retention time: 938.702  sec
m/z	relative intensity
85	226
86	104
87	110
88	27
89	31
90	26
91	126
92	22
93	33
94	19
95	57
96	34
97	142
98	71
99	135
100	393
101	84
102	37
103	30
104	12
105	43
106	23
107	14
108	29
109	16
110	30
111	49
112	174
113	147
114	41
115	55
116	95
117	118
118	29
119	53
120	22
121	14
122	9
123	62
124	24
125	31
126	49
127	258
128	58
129	104
130	50
131	89
132	84
133	110
134	26
135	16
136	8
137	14
138	20
139	39
140	31
141	46
142	28
143	24
144	15
145	17
146	16
147	312
148	68
149	50
150	17
151	37
152	20
153	216
154	70
155	50
156	26
157	56
158	29
159	31
160	11
161	9
162	4
163	5
164	7
165	11
166	70
167	43
168	60
169	132
170	35
171	30
172	43
173	62
174	29
175	12
176	6
177	3
178	4
179	6
180	7
181	8
182	9
183	16
184	11
185	78
186	24
187	22
188	26
189	691
190	188
191	71
192	16
193	6
194	5
195	8
196	7
197	13
198	9
199	17
200	11
201	8
202	4
203	16
204	477
205	228
206	72
207	23
208	7
209	8
210	5
211	9
212	8
213	143
214	53
215	32
216	9
217	4
218	3
219	2
220	2
221	5
222	5
223	7
224	4
225	11
226	14
227	110
228	329
229	208
230	57
231	19
232	5
233	2
235	2
236	2
237	4
238	4
239	13
240	15
241	999
242	548
243	174
244	47
245	10
246	3
247	2
251	2
253	5
254	4
255	24
256	11
257	6
258	1
259	3
261	1
262	1
263	1
265	4
266	1
267	3
268	1
269	5
270	1
271	3
272	2
273	8
274	2
275	1
276	1
277	1
279	1
281	15
282	5
283	6
284	2
285	4
286	1
287	11
288	13
289	4
290	2
291	1
293	1
295	2
297	5
298	2
299	3
300	1
301	8
302	2
303	2
306	1
307	1
308	1
311	1
312	4
313	4
314	4
315	5
316	2
319	1
323	3
324	1
325	1
326	1
327	3
328	2
329	25
330	10
331	5
332	2
335	1
339	1
340	1
341	3
342	1
343	5
344	4
345	3
346	1
354	1
355	14
356	6
357	6
358	2
369	2
370	1
371	10
372	5
373	3
374	2
375	1
376	1
386	1
387	2
388	1
399	1
400	1
402	1
412	4
413	34
414	21
415	11
416	5
417	1
427	2
428	1
429	2
430	2
431	1
444	23
445	130
446	71
447	36
448	14
449	4
458	1
459	12
460	23
461	13
462	5
463	2
495	1
