Mass spectrum: 2-Deoxy-D-glucose; GC-EI-TOF; MS; n TMS; RT:679.694 sec
Name: 2-Deoxy-D-glucose
Class: Natural Product
Formula: C6H12O5
Exact mass: 164.06847
SMILES: OCC(O1)C(O)C(O)CC(O)1
InChI: InChI=1S/C6H12O5/c7-2-4-6(10)3(8)1-5(9)11-4/h3-10H,1-2H2
Instrument: Pegasus III TOF-MS system, Leco; GC 6890, Agilent Technologies
Instrument type: GC-EI-TOF
Ms type: MS
Ion mode: POSITIVE
Column name: CP-SIL 8 CB LOW BLEED/MS
Retention time: 679.694  sec
m/z	relative intensity
85	25
86	22
87	29
88	27
89	303
90	30
91	19
92	7
93	4
94	6
95	6
96	6
97	6
98	24
99	35
100	46
101	193
102	46
103	819
104	83
105	596
106	60
107	27
108	23
109	7
110	13
111	14
112	25
113	41
114	27
115	42
116	66
117	342
118	38
119	41
120	4
121	4
122	7
123	1
124	1
125	4
126	2
127	21
128	30
129	234
130	43
131	117
132	22
133	297
134	43
135	27
136	3
137	2
138	3
139	5
140	23
141	9
143	36
144	26
145	27
146	9
147	999
148	183
149	117
150	15
151	9
152	11
153	5
154	4
155	41
156	34
157	94
158	42
159	17
160	6
161	9
162	2
163	56
164	10
165	7
166	5
167	4
168	33
169	8
170	6
171	13
172	280
173	142
174	158
175	43
176	11
177	12
178	2
179	2
180	14
181	18
182	17
183	6
184	18
185	5
186	28
187	30
188	18
189	143
190	33
191	76
192	15
193	8
194	1
197	2
198	17
199	2
201	3
202	4
203	18
204	184
205	344
206	78
207	41
208	8
209	3
212	36
213	8
214	18
215	21
216	16
217	424
218	103
219	44
220	9
221	27
222	8
223	4
224	1
225	1
226	1
227	3
228	11
229	24
230	15
231	11
232	11
233	2
234	1
237	1
239	1
240	4
241	3
242	9
243	7
244	11
245	17
246	9
247	4
248	4
249	1
253	1
254	4
255	9
256	7
257	3
258	2
259	4
260	5
263	1
265	1
266	1
269	1
270	17
271	8
272	5
273	1
275	3
276	222
277	82
278	32
279	10
280	3
286	5
287	1
288	54
289	14
290	6
291	14
292	5
293	2
301	7
302	12
303	3
304	1
305	23
306	12
307	77
308	23
309	11
310	2
314	1
316	1
317	3
318	8
319	119
320	40
321	20
322	4
329	1
330	1
331	1
344	4
345	3
346	4
347	2
359	1
360	4
361	2
376	2
377	1
378	8
379	2
380	1
391	5
392	2
409	1
