Mass spectrum: Glycerol-2-phosphate; GC-EI-TOF; MS; n TMS; RT:650.6130907 sec
Name: Glycerol-2-phosphate
Class: Natural Product
Formula: C3H9O6P
Exact mass: 172.01367
SMILES: OCC(CO)OP(O)(O)=O
InChI: InChI=1S/C3H9O6P/c4-1-3(2-5)9-10(6,7)8/h3-5H,1-2H2,(H2,6,7,8)
Instrument: Pegasus III TOF-MS system, Leco; GC 6890, Agilent Technologies
Instrument type: GC-EI-TOF
Ms type: MS
Ion mode: POSITIVE
Column name: CP-SIL 8 CB LOW BLEED/MS
Retention time: 650.6130907 sec
m/z	relative intensity
85	36
86	8
87	46
88	13
89	39
90	8
91	12
92	7
93	6
94	2
95	2
96	3
97	5
98	10
99	35
100	6
101	302
102	41
103	336
104	34
105	36
106	7
107	14
108	1
109	5
110	1
111	12
112	2
113	49
114	8
115	90
116	30
117	37
118	10
119	43
120	7
121	22
122	3
123	9
125	2
127	9
128	4
129	483
130	72
131	185
132	27
133	367
134	52
135	106
136	13
137	43
138	5
139	6
142	1
143	12
144	1
145	8
146	2
147	515
148	85
149	71
150	10
151	30
152	3
153	11
154	1
155	21
156	3
157	3
159	12
160	2
161	2
162	1
163	25
164	4
165	18
166	4
167	16
168	2
169	2
170	1
173	1
174	1
175	7
176	2
177	18
178	5
179	19
180	4
181	75
182	14
183	31
184	9
185	3
186	1
187	1
188	1
189	20
190	6
191	113
192	27
193	87
194	19
195	44
196	10
197	25
198	4
199	2
200	2
201	1
203	29
204	11
205	16
206	5
207	131
208	31
209	25
210	9
211	805
212	193
213	86
214	15
215	3
216	1
217	39
218	38
219	17
220	8
221	8
222	3
223	5
224	2
225	43
226	9
227	117
228	33
229	14
230	1
233	1
234	1
235	2
236	2
237	11
238	4
239	5
240	1
241	4
242	4
243	999
244	179
245	90
246	12
247	2
249	1
251	1
253	14
254	4
255	18
256	6
257	3
267	2
268	4
269	24
270	8
271	6
277	1
283	19
284	8
285	86
286	24
287	14
288	2
295	1
297	2
298	14
299	551
300	155
301	85
302	18
303	5
304	1
307	4
311	3
312	2
313	9
314	7
315	107
316	30
317	17
318	2
327	17
328	6
329	3
341	12
342	10
343	6
344	2
345	1
355	3
356	2
357	22
358	8
359	5
360	1
362	1
369	2
370	5
371	2
372	3
373	50
374	27
375	14
376	4
377	1
383	1
385	1
387	11
388	9
389	67
390	34
391	23
392	8
393	2
415	7
416	4
417	1
429	1
430	1
444	4
445	44
446	27
447	12
448	3
449	1
