Mass spectrum: L-Valine; GC-EI-TOF; MS; 1 TMS; n TMS; RT:310.593 sec
Name: L-Valine
Class: Natural Product
Formula: C5H11NO2
Exact mass: 117.07898
SMILES: CC(C)[C@H](N)C(O)=O
InChI: InChI=1S/C5H11NO2/c1-3(2)4(6)5(7)8/h3-4H,6H2,1-2H3,(H,7,8)/t4-/m0/s1
Instrument: Pegasus III TOF-MS system, Leco; GC 6890, Agilent Technologies
Instrument type: GC-EI-TOF
Ms type: MS
Ion mode: POSITIVE
Column name: CP-SIL 8 CB LOW BLEED/MS
Retention time: 310.593  sec
Derivative type: 1 TMS
m/z	relative intensity
85	135
86	203
87	555
88	145
89	61
90	18
91	199
92	19
93	35
95	5
97	12
98	8
99	1
100	89
101	16
102	291
103	850
104	95
105	15
112	14
113	138
114	44
115	11
117	54
118	51
125	1
128	452
129	142
130	886
131	253
132	68
133	5
143	21
144	22
146	999
147	169
148	51
156	743
157	196
158	84
159	30
160	8
163	1
168	5
174	602
175	74
176	24
186	7
194	2
205	1
209	1
210	4
212	1
225	3
258	1
295	1
319	7
338	4
340	5
350	6
384	1
390	8
398	7
402	5
405	1
406	8
407	12
408	10
409	1
426	8
430	1
431	5
454	1
473	5
474	5
482	3
