Mass spectrum: Caffeine; GC-EI-TOF; MS; n TMS; RT:724.344 sec
Name: Caffeine
Class: Natural Product
Formula: C8H10N4O2
Exact mass: 194.08038
SMILES: Cn(c2)c(C(=O)1)c(n2)N(C)C(=O)N(C)1
InChI: InChI=1S/C8H10N4O2/c1-10-4-9-6-5(10)7(13)12(3)8(14)11(6)2/h4H,1-3H3
Instrument: Pegasus III TOF-MS system, Leco; GC 6890, Agilent Technologies
Instrument type: GC-EI-TOF
Ms type: MS
Ion mode: POSITIVE
Column name: CP-SIL 8 CB LOW BLEED/MS
Retention time: 724.344  sec
m/z	relative intensity
85	1
88	1
92	6
93	20
94	93
95	30
96	16
97	39
98	2
106	4
107	12
108	70
109	997
110	129
111	24
112	2
120	6
121	6
122	23
123	11
124	15
125	2
126	1
132	2
133	1
134	2
135	10
136	77
137	96
138	36
139	4
140	2
148	2
149	11
150	19
151	6
152	10
153	1
163	4
164	8
165	75
166	18
167	1
176	1
179	3
192	1
193	185
194	999
195	106
196	10
