Mass spectrum: N-Formyl-L-Methionine; GC-EI-TOF; MS; n TMS; RT:640.985 sec
Name: N-Formyl-L-Methionine
Class: Natural Product
Formula: C6H11NO3S
Exact mass: 177.04596
SMILES: [H]C(=O)N[C@@H](CCSC)C(O)=O
InChI: InChI=1S/C6H11NO3S/c1-11-3-2-5(6(9)10)7-4-8/h4-5H,2-3H2,1H3,(H,7,8)(H,9,10)/t5-/m0/s1
Instrument: Pegasus III TOF-MS system, Leco; GC 6890, Agilent Technologies
Instrument type: GC-EI-TOF
Ms type: MS
Ion mode: POSITIVE
Column name: CP-SIL 8 CB LOW BLEED/MS
Retention time: 640.985  sec
m/z	relative intensity
85	999
86	71
87	43
88	35
89	14
90	1
91	151
92	12
93	11
94	1
97	1
98	244
99	31
100	18
101	1
102	186
103	66
104	124
105	24
106	2
107	1
111	68
112	26
113	6
114	17
115	16
116	39
117	15
118	3
119	4
125	1
128	33
129	26
130	78
131	45
132	54
136	2
137	1
139	1
141	1
142	7
143	1
144	116
145	21
146	22
154	1
156	2
157	22
158	73
159	110
160	58
161	10
172	1
173	5
174	5
175	603
176	67
177	22
178	5
179	1
182	1
186	79
187	9
188	74
189	40
190	10
192	2
202	2
206	10
207	5
219	2
227	1
233	1
234	38
235	5
236	1
243	1
249	37
250	5
251	1
282	1
286	2
289	1
291	1
292	1
304	1
309	1
316	1
319	1
327	1
347	2
348	1
359	3
360	1
371	1
398	1
404	1
409	1
419	2
425	1
427	1
430	1
438	1
443	1
444	1
445	2
446	3
453	1
457	2
465	2
493	1
497	1
499	1
