Mass spectrum: Psicose; GC-EI-TOF; MS; n TMS; RT:710.250 sec
Name: Psicose
Class: Natural Product
Formula: C6H12O6
Exact mass: 180.06339
SMILES: OCC(O)C(O)C(O)C(=O)CO
InChI: InChI=1S/C6H12O6/c7-1-3(9)5(11)6(12)4(10)2-8/h3,5-9,11-12H,1-2H2/t3-,5-,6+/m1/s1
Instrument: Pegasus III TOF-MS system, Leco; GC 6890, Agilent Technologies
Instrument type: GC-EI-TOF
Ms type: MS
Ion mode: POSITIVE
Column name: CP-SIL 8 CB LOW BLEED/MS
Retention time: 710.250  sec
m/z	relative intensity
85	24
86	12
87	20
88	14
89	207
90	19
91	9
92	1
93	1
94	2
95	1
96	2
97	2
98	6
99	10
100	27
101	49
102	17
103	999
104	101
105	65
106	5
107	2
108	1
110	2
111	4
112	3
113	18
114	134
115	31
116	22
117	145
118	19
119	27
120	3
121	2
124	1
125	1
126	7
127	6
128	9
129	107
130	24
131	56
132	12
133	149
134	22
135	13
136	1
138	1
139	1
140	2
141	3
142	15
143	22
144	6
145	12
146	3
147	517
148	83
149	57
150	7
151	4
152	2
153	1
154	2
155	2
156	6
157	24
158	8
159	7
160	3
161	5
162	1
163	17
164	3
165	2
166	1
167	1
168	4
169	2
170	9
171	3
172	21
173	39
174	11
175	17
176	4
177	7
178	2
179	1
180	3
181	1
182	2
183	1
184	1
185	1
186	5
187	3
188	6
189	116
190	29
191	49
192	9
193	5
194	1
196	3
197	1
198	5
199	1
200	3
201	18
202	19
203	11
204	41
205	48
206	12
207	10
208	2
209	1
214	6
215	3
216	10
217	629
218	138
219	64
220	10
221	18
222	4
223	2
228	2
229	5
230	5
231	13
232	5
233	2
234	1
240	3
241	1
242	2
243	2
244	6
245	3
246	2
247	1
248	1
254	1
255	1
256	4
257	1
258	1
260	2
261	2
262	27
263	19
264	6
265	3
266	1
267	1
268	2
269	1
270	2
271	1
272	1
274	1
275	2
276	8
277	41
278	17
279	9
280	3
281	1
285	1
286	1
288	1
291	5
292	2
293	1
300	1
302	2
303	1
304	1
305	4
306	4
307	201
308	65
309	32
310	7
311	2
318	2
319	8
320	3
321	1
330	1
332	1
333	5
334	6
335	12
336	7
337	3
338	1
350	1
358	1
359	1
363	1
364	26
365	12
366	5
367	1
376	2
377	1
390	2
464	1
