Mass spectrum: Flavanone; GC-EI-TOF; MS; n TMS; RT:822.373 sec
Name: Flavanone
Class: Natural Product
Formula: C15H12O2
Exact mass: 224.08373
SMILES: c(c3)ccc(c3)C(C1)Oc(c2)c(ccc2)C(=O)1
InChI: InChI=1S/C15H12O2/c16-13-10-15(11-6-2-1-3-7-11)17-14-9-5-4-8-12(13)14/h1-9,15H,10H2
Instrument: Pegasus III TOF-MS system, Leco; GC 6890, Agilent Technologies
Instrument type: GC-EI-TOF
Ms type: MS
Ion mode: POSITIVE
Column name: CP-SIL 8 CB LOW BLEED/MS
Retention time: 822.373  sec
m/z	relative intensity
85	5
86	19
87	33
88	59
89	222
90	246
91	446
92	74
93	38
94	15
95	22
96	33
97	64
98	19
99	8
100	9
101	52
102	372
103	986
104	389
105	110
106	42
107	4
108	1
109	1
110	37
111	67
112	3
113	12
114	13
115	80
116	47
117	30
118	55
119	83
120	65
121	999
122	89
123	6
126	15
127	20
128	96
129	24
130	32
131	23
132	20
133	6
134	28
135	2
137	3
138	1
139	26
140	19
141	5
142	2
144	32
145	55
146	39
147	23
148	3
149	4
150	12
151	30
152	70
153	21
154	14
155	4
160	5
161	6
162	49
163	22
164	21
165	103
166	43
167	86
168	20
174	2
175	10
176	188
177	56
178	82
179	34
180	18
181	19
182	2
187	1
188	3
189	15
190	25
191	70
192	95
193	72
194	94
195	39
196	8
200	1
201	2
202	16
203	23
204	44
205	31
206	19
207	48
208	9
209	3
210	2
218	4
219	30
220	637
221	260
222	545
223	120
224	17
225	1
236	2
237	3
251	5
252	362
253	466
254	87
255	11
315	1
390	3
443	1
444	1
