Mass spectrum: 3-Methyladenine; GC-EI-TOF; MS; n TMS; RT:784.444 sec
Name: 3-Methyladenine
Class: Natural Product
Formula: C6H7N5
Exact mass: 149.07015
SMILES: CN(C=1)C(=N2)C(N=C2)=C(N)N1
InChI: InChI=1S/C6H7N5/c1-11-3-10-5(7)4-6(11)9-2-8-4/h2-3H,7H2,1H3
Instrument: Pegasus III TOF-MS system, Leco; GC 6890, Agilent Technologies
Instrument type: GC-EI-TOF
Ms type: MS
Ion mode: POSITIVE
Column name: CP-SIL 8 CB LOW BLEED/MS
Retention time: 784.444  sec
m/z	relative intensity
85	110
86	48
87	5
88	18
89	2
92	12
93	35
94	140
95	85
96	61
97	31
98	36
99	97
100	31
101	8
103	49
104	1
105	1
106	6
107	24
108	17
109	18
110	21
111	230
112	33
113	31
114	5
115	5
119	7
120	6
121	84
122	135
123	32
124	18
125	38
126	8
127	3
132	1
133	7
134	11
135	20
136	26
137	17
138	96
139	12
140	2
147	3
148	17
149	71
150	21
151	31
152	90
153	19
154	1
161	3
162	11
163	9
164	20
165	30
166	12
167	3
174	2
175	3
176	129
177	31
178	26
179	330
180	73
181	18
182	4
189	10
190	41
191	21
192	8
193	13
194	24
195	2
197	1
198	1
199	3
204	14
205	121
206	999
207	177
208	51
209	6
213	1
216	1
220	57
221	389
222	75
223	18
267	2
270	1
285	2
307	1
361	1
435	1
449	1
457	1
496	1
