Mass spectrum: L-Isoleucine; GC-EI-TOF; MS; n TMS; RT:435.894 sec
Name: L-Isoleucine
Class: Natural Product
Formula: C6H13NO2
Exact mass: 131.09463
SMILES: CC[C@H](C)[C@H](N)C(O)=O
InChI: InChI=1S/C6H13NO2/c1-3-4(2)5(7)6(8)9/h4-5H,3,7H2,1-2H3,(H,8,9)/t4-,5-/m0/s1
Instrument: Pegasus III TOF-MS system, Leco; GC 6890, Agilent Technologies
Instrument type: GC-EI-TOF
Ms type: MS
Ion mode: POSITIVE
Column name: CP-SIL 8 CB LOW BLEED/MS
Retention time: 435.894  sec
m/z	relative intensity
85	13
86	99
87	13
88	5
89	3
90	10
91	1
92	1
94	1
95	1
96	7
97	6
98	13
99	10
100	165
101	25
102	48
103	31
104	5
105	6
110	2
111	1
112	7
113	4
114	24
115	13
116	10
117	8
118	5
119	7
120	1
124	1
126	3
127	2
128	26
129	18
130	18
131	22
132	32
133	41
134	9
135	3
142	22
143	14
144	7
145	2
146	9
147	150
148	25
149	16
150	2
156	7
157	5
158	999
159	151
160	51
161	7
162	1
163	5
170	19
171	4
172	2
173	1
174	6
175	1
176	1
188	2
202	1
203	9
204	1
216	2
218	162
219	30
220	14
221	1
232	40
233	13
234	5
235	1
260	9
261	2
