Mass spectrum: L-2-Aminobutyric acid; GC-EI-TOF; MS; n TMS; RT:362.044 sec
Name: L-2-Aminobutyric acid
Class: Natural Product
Formula: C4H9NO2
Exact mass: 103.06333
SMILES: CC[C@H](N)C(O)=O
InChI: InChI=1S/C4H9NO2/c1-2-3(5)4(6)7/h3H,2,5H2,1H3,(H,6,7)/t3-/m0/s1
Instrument: Pegasus III TOF-MS system, Leco; GC 6890, Agilent Technologies
Instrument type: GC-EI-TOF
Ms type: MS
Ion mode: POSITIVE
Column name: CP-SIL 8 CB LOW BLEED/MS
Retention time: 362.044  sec
m/z	relative intensity
85	9
86	22
87	10
88	4
89	3
90	1
92	1
93	1
94	1
95	3
96	3
97	1
98	18
99	5
100	68
101	21
102	11
103	34
104	4
105	1
109	2
112	2
113	2
114	27
115	16
116	7
117	14
118	3
119	4
126	1
127	1
128	10
129	11
130	999
131	141
132	54
133	34
134	5
135	4
142	27
143	6
144	3
145	1
146	6
147	152
148	26
149	14
150	1
158	4
159	1
160	3
163	1
174	3
175	1
204	37
205	12
206	5
218	18
219	4
220	1
232	9
233	1
