Mass spectrum: DL-Allothreonine; GC-EI-TOF; MS; n TMS; RT:489.344 sec
Name: DL-Allothreonine
Class: Natural Product
Formula: C4H9NO3
Exact mass: 119.05824
SMILES: CC(O)C(N)C(O)=O
InChI: InChI=1S/C4H9NO3/c1-2(6)3(5)4(7)8/h2-3,6H,5H2,1H3,(H,7,8)/t2-,3-/m1/s1
Instrument: Pegasus III TOF-MS system, Leco; GC 6890, Agilent Technologies
Instrument type: GC-EI-TOF
Ms type: MS
Ion mode: POSITIVE
Column name: CP-SIL 8 CB LOW BLEED/MS
Retention time: 489.344  sec
m/z	relative intensity
85	35
86	95
87	79
88	19
89	12
90	3
91	1
92	2
93	2
94	2
95	1
96	4
97	6
98	26
99	36
100	383
101	790
102	134
103	86
104	11
105	15
107	1
111	4
112	15
113	9
114	83
115	72
116	37
117	999
118	124
119	69
120	7
121	4
125	1
126	3
127	4
128	140
129	261
130	151
131	167
132	164
133	185
134	39
135	21
136	2
139	1
140	1
141	1
142	5
143	9
144	26
145	10
146	25
147	488
148	89
149	59
150	9
151	2
154	1
155	5
156	7
157	5
158	28
159	42
160	38
161	10
162	1
163	11
164	1
165	2
167	1
169	2
170	1
172	17
173	4
174	23
175	5
176	10
177	15
178	3
186	13
187	4
188	12
189	6
190	8
191	20
192	3
193	1
200	1
202	72
203	97
204	37
205	12
206	4
207	2
214	2
216	5
217	8
218	384
219	596
220	140
221	70
222	11
223	3
230	16
231	8
232	7
233	4
246	1
248	5
276	2
277	1
290	2
291	153
292	94
293	42
294	13
295	1
296	2
320	24
321	7
322	1
418	1
446	1
