Mass spectrum: DL-Pyroglutamic acid; GC-EI-TOF; MS; n TMS; RT:563.643 sec
Name: DL-Pyroglutamic acid
Class: Natural Product
Formula: C5H7NO3
Exact mass: 129.04259
SMILES: O=C(C1)NC(C1)C(O)=O
InChI: InChI=1S/C5H7NO3/c7-4-2-1-3(6-4)5(8)9/h3H,1-2H2,(H,6,7)(H,8,9)
Instrument: Pegasus III TOF-MS system, Leco; GC 6890, Agilent Technologies
Instrument type: GC-EI-TOF
Ms type: MS
Ion mode: POSITIVE
Column name: CP-SIL 8 CB LOW BLEED/MS
Retention time: 563.643  sec
m/z	relative intensity
85	23
86	25
87	9
88	3
89	3
92	1
93	2
94	3
95	2
96	3
97	4
98	8
99	11
100	23
101	6
102	6
103	9
104	1
105	4
108	2
110	5
111	2
112	23
113	8
114	12
115	9
116	4
117	12
118	2
119	4
122	5
124	1
126	4
127	3
128	3
129	9
130	2
131	20
132	6
133	37
134	6
135	3
139	2
140	27
141	9
142	8
143	2
144	1
147	193
148	31
149	18
150	2
152	3
154	10
155	7
156	999
157	137
158	47
159	4
160	1
161	1
168	3
170	2
172	1
174	3
186	2
188	2
190	1
214	9
215	2
216	1
228	3
229	1
230	63
231	15
232	6
258	54
259	12
260	5
261	1
273	1
