Mass spectrum: 2'-Deoxyinosine; GC-EI-TOF; MS; n TMS; RT:968.127 sec
Name: 2'-Deoxyinosine
Class: Natural Product
Formula: C10H12N4O4
Exact mass: 252.08585
SMILES: OCC(O1)C(O)CC1n(c3)c(N=2)c(n3)C(=O)NC2
InChI: InChI=1S/C10H12N4O4/c15-2-6-5(16)1-7(18-6)14-4-13-8-9(14)11-3-12-10(8)17/h3-7,15-16H,1-2H2,(H,11,12,17)/t5-,6+,7+/m0/s1
Instrument: Pegasus III TOF-MS system, Leco; GC 6890, Agilent Technologies
Instrument type: GC-EI-TOF
Ms type: MS
Ion mode: POSITIVE
Column name: CP-SIL 8 CB LOW BLEED/MS
Retention time: 968.127  sec
m/z	relative intensity
85	150
89	35
95	107
96	7
101	237
103	999
104	35
109	122
111	79
112	43
117	194
123	158
129	309
133	28
139	64
143	35
145	100
147	395
159	57
160	71
172	43
178	64
179	14
193	280
194	21
196	28
201	28
207	86
208	21
209	596
214	43
235	21
239	28
252	43
254	79
267	93
271	114
278	71
279	7
303	14
312	21
315	158
317	86
319	86
320	21
329	64
335	129
339	7
344	43
352	28
354	50
361	21
367	93
382	64
395	71
396	64
397	71
398	50
404	100
410	50
414	7
419	7
421	71
435	86
442	35
456	7
458	50
471	21
472	21
476	50
479	28
