Mass spectrum: Serotonin; GC-EI-TOF; MS; n TMS; RT:945.851 sec
Name: Serotonin
Class: Natural Product
Formula: C10H12N2O
Exact mass: 176.09496
SMILES: C1=CC2=C(C=C1O)C(=CN2)CCN
InChI: InChI=1S/C10H12N2O/c11-4-3-7-6-12-10-2-1-8(13)5-9(7)10/h1-2,5-6,12-13H,3-4,11H2
Instrument: Pegasus III TOF-MS system, Leco; GC 6890, Agilent Technologies
Instrument type: GC-EI-TOF
Ms type: MS
Ion mode: POSITIVE
Column name: CP-SIL 8 CB LOW BLEED/MS
Retention time: 945.851  sec
m/z	relative intensity
85	4
86	257
87	27
88	11
89	5
90	2
91	3
92	1
93	1
99	2
100	112
101	22
102	33
103	9
104	2
105	1
113	4
114	4
115	17
116	13
117	22
118	5
119	3
120	1
121	1
127	2
128	13
129	21
130	44
131	20
132	8
133	4
134	2
135	2
136	1
137	1
140	1
141	2
142	8
143	9
144	15
145	6
146	43
147	10
148	4
149	1
154	2
155	1
156	5
157	2
158	9
159	4
160	6
161	3
162	2
163	1
169	1
170	6
171	2
172	16
173	6
174	999
175	183
176	84
177	10
178	2
181	1
184	3
185	2
186	6
187	3
188	27
189	6
190	3
198	1
199	1
200	4
201	2
202	15
203	5
204	7
205	2
206	1
213	1
214	1
215	2
216	7
217	3
218	45
219	13
220	4
229	1
230	4
231	4
232	5
233	3
234	1
244	1
246	2
248	2
260	4
261	2
262	2
263	1
272	1
273	1
274	2
275	1
276	3
277	1
287	1
288	2
289	14
290	6
291	2
302	1
303	8
304	3
305	1
375	1
376	2
377	16
378	7
379	3
392	3
393	1
