Mass spectrum: Sinapyl aldehyde; GC-EI-TOF; MS; n TMS; RT:814.012 sec
Name: Sinapyl aldehyde
Class: Natural Product
Formula: C11H12O4
Exact mass: 208.07356
SMILES: [H]C(=O)C=Cc(c1)cc(OC)c(O)c(OC)1
InChI: InChI=1S/C11H12O4/c1-14-9-6-8(4-3-5-12)7-10(15-2)11(9)13/h3-7,13H,1-2H3/b4-3+
Instrument: Pegasus III TOF-MS system, Leco; GC 6890, Agilent Technologies
Instrument type: GC-EI-TOF
Ms type: MS
Ion mode: POSITIVE
Column name: CP-SIL 8 CB LOW BLEED/MS
Retention time: 814.012  sec
m/z	relative intensity
85	11
86	5
87	12
88	20
89	140
90	41
91	105
92	30
93	17
94	9
95	19
96	15
97	5
98	3
99	18
100	5
101	18
102	35
103	73
104	36
105	30
106	16
107	17
108	6
109	32
110	14
111	6
112	1
113	2
114	6
115	28
116	50
117	104
118	152
119	61
120	22
121	16
122	7
123	6
124	23
125	5
126	3
127	4
128	36
129	16
130	38
131	34
132	38
133	27
134	24
135	36
136	12
137	17
138	3
139	6
140	8
141	2
142	9
143	10
144	51
145	23
146	625
147	129
148	28
149	19
150	11
151	13
152	4
153	3
154	1
156	6
157	7
158	12
159	17
160	20
161	24
162	33
163	23
164	7
165	11
166	8
167	5
168	1
170	1
171	2
172	16
173	19
174	999
175	143
176	38
177	33
178	15
179	13
180	4
181	2
185	1
186	8
187	16
188	22
189	20
190	28
191	26
192	12
193	8
194	3
195	4
196	2
198	1
199	1
200	4
201	5
202	26
203	23
204	50
205	57
206	32
207	10
208	2
209	4
210	1
212	1
214	1
215	2
216	11
217	49
218	49
219	28
220	52
221	21
222	9
223	4
224	1
228	3
229	1
230	9
231	13
232	66
233	110
234	39
235	22
236	28
237	7
238	1
239	1
240	1
243	1
244	4
245	3
246	24
247	98
248	293
249	72
250	29
251	10
252	3
253	1
260	2
261	1
262	19
263	7
264	2
276	5
277	12
278	67
279	31
280	11
281	2
294	26
295	7
296	1
308	3
309	115
310	30
311	10
312	1
