Mass spectrum: 2-MethylHippuric acid; GC-EI-TOF; MS; n TMS; RT:730.804 sec
Name: 2-MethylHippurate
Name: 2-MethylHippuric acid
Class: Natural Product
Formula: C10H11NO3
Exact mass: 193.07389
SMILES: OC(=O)CNC(=O)c(c1)c(C)ccc1
InChI: InChI=1S/C10H11NO3/c1-7-4-2-3-5-8(7)10(14)11-6-9(12)13/h2-5H,6H2,1H3,(H,11,14)(H,12,13)
Instrument: Pegasus III TOF-MS system, Leco; GC 6890, Agilent Technologies
Instrument type: GC-EI-TOF
Ms type: MS
Ion mode: POSITIVE
Column name: CP-SIL 8 CB LOW BLEED/MS
Retention time: 730.804  sec
m/z	relative intensity
85	4
86	16
87	19
88	14
89	97
90	112
91	437
92	43
93	5
94	1
95	2
96	9
97	1
98	2
99	2
100	8
101	9
102	12
103	21
104	14
105	16
106	3
107	1
108	1
109	1
113	1
114	2
115	2
116	24
117	20
118	417
119	999
120	96
121	12
122	1
125	2
126	1
127	1
128	4
129	1
130	19
131	8
132	17
133	5
134	2
135	2
136	2
138	1
144	1
145	3
146	20
147	27
148	8
149	9
150	1
155	1
156	1
159	2
160	2
161	1
162	5
163	2
166	1
167	1
169	1
174	2
175	84
176	11
177	25
178	5
179	2
180	1
181	1
187	1
189	2
190	20
191	10
192	4
193	2
194	1
195	1
197	1
198	1
203	1
204	21
205	8
206	149
207	35
208	10
209	1
214	1
216	2
218	1
220	56
221	17
222	4
230	1
247	1
248	2
249	1
250	42
251	13
252	3
255	1
256	1
265	69
266	27
267	5
268	1
276	1
286	1
299	1
300	1
323	1
329	1
333	1
338	2
339	1
346	1
362	1
378	1
394	1
401	1
402	1
412	1
424	1
436	1
445	1
456	1
479	1
500	1
