Mass spectrum: L-Asparagine; GC-EI-TOF; MS; n TMS; RT:629.559 sec
Name: L-Asparagine
Class: Natural Product
Formula: C4H8N2O3
Exact mass: 132.05349
SMILES: NC(=O)C[C@@H](N)C(O)=O
InChI: InChI=1S/C4H8N2O3/c5-2(4(8)9)1-3(6)7/h2H,1,5H2,(H2,6,7)(H,8,9)/t2-/m0/s1
Instrument: Pegasus III TOF-MS system, Leco; GC 6890, Agilent Technologies
Instrument type: GC-EI-TOF
Ms type: MS
Ion mode: POSITIVE
Column name: CP-SIL 8 CB LOW BLEED/MS
Retention time: 629.559  sec
m/z	relative intensity
85	16
86	46
87	22
88	11
89	11
90	17
91	5
92	3
93	6
94	2
96	3
97	6
98	37
99	19
100	312
101	48
102	37
103	44
104	4
105	7
106	2
110	2
111	2
112	1
113	8
114	74
115	81
116	999
117	140
118	66
119	17
120	2
125	27
126	6
127	8
128	56
129	23
130	109
131	176
132	496
133	135
134	36
135	8
136	1
140	4
141	296
142	65
143	35
144	41
145	8
146	15
147	328
148	63
149	53
150	7
151	2
153	5
154	12
157	2
158	12
159	121
160	18
161	10
163	5
167	1
168	2
169	19
170	7
171	1
172	28
173	5
174	17
175	2
176	8
181	1
183	1
185	3
186	5
187	2
188	239
189	57
190	43
191	13
192	2
193	1
194	1
195	1
198	1
199	8
200	5
201	3
202	80
203	23
204	27
205	7
206	5
207	3
209	1
213	8
214	7
215	45
216	28
217	10
218	76
219	12
220	6
221	2
229	2
230	4
231	280
232	69
233	30
234	4
242	4
243	19
244	8
245	9
246	1
258	50
259	11
260	2
264	1
284	1
301	1
308	2
316	7
326	1
333	14
334	6
335	1
336	1
343	1
348	11
349	2
378	1
412	1
414	1
436	1
438	1
447	1
471	1
482	2
