Mass spectrum: 3-Hydroxyanthranilic acid; GC-EI-TOF; MS; n TMS; RT:716.583 sec
Name: 3-Hydroxyanthranilic acid
Class: Natural Product
Formula: C7H7NO3
Exact mass: 153.04259
SMILES: OC(=O)c(c1)c(N)c(O)cc1
InChI: InChI=1S/C7H7NO3/c8-6-4(7(10)11)2-1-3-5(6)9/h1-3,9H,8H2,(H,10,11)
Instrument: Pegasus III TOF-MS system, Leco; GC 6890, Agilent Technologies
Instrument type: GC-EI-TOF
Ms type: MS
Ion mode: POSITIVE
Column name: CP-SIL 8 CB LOW BLEED/MS
Retention time: 716.583  sec
m/z	relative intensity
85	10
86	12
87	12
88	8
89	20
90	12
91	27
92	11
93	27
94	9
95	17
96	5
97	5
98	7
99	5
100	8
101	7
102	11
103	42
104	37
105	34
106	48
107	26
108	13
109	34
110	11
111	6
112	1
113	3
114	4
115	24
116	18
117	23
118	16
119	43
120	44
121	23
122	12
123	9
124	5
125	4
126	1
127	2
128	5
129	5
130	47
131	51
132	36
133	124
134	59
135	58
136	149
137	62
138	17
139	5
140	1
141	3
142	2
143	6
144	10
145	8
146	16
147	180
148	83
149	55
150	45
151	15
152	6
153	3
154	2
155	2
156	2
157	2
158	7
159	12
160	18
161	12
162	37
163	41
164	151
165	51
166	22
167	6
168	3
169	2
170	4
171	2
172	8
173	4
174	20
175	13
176	121
177	39
178	48
179	29
180	13
181	7
182	4
183	2
184	3
185	1
186	3
187	1
188	8
189	18
190	74
191	140
192	615
193	122
194	51
195	20
196	9
197	4
198	2
200	1
202	9
203	5
204	18
205	12
206	45
207	24
208	28
209	17
210	8
211	28
212	8
213	4
214	1
215	1
216	3
217	2
218	17
219	8
220	39
221	19
222	124
223	34
224	23
225	6
226	2
230	4
231	3
232	9
233	7
234	12
235	7
236	20
237	8
238	11
239	6
240	3
241	2
242	2
244	1
245	1
246	10
247	8
248	262
249	128
250	63
251	21
252	11
253	6
254	4
255	3
256	3
257	2
258	3
259	2
260	3
261	2
262	3
263	4
264	99
265	39
266	83
267	29
268	11
269	3
270	1
276	1
277	2
278	6
279	5
280	21
281	57
282	56
283	25
284	9
285	2
288	1
290	1
291	2
292	3
293	3
294	3
295	2
296	7
297	39
298	19
299	8
300	3
301	1
302	1
303	2
304	3
305	3
306	4
307	2
308	3
309	1
310	2
311	2
312	2
313	1
315	1
316	1
317	1
318	1
319	2
320	2
321	2
322	2
323	1
324	2
325	1
326	1
327	1
328	1
329	1
330	1
331	1
333	1
337	3
338	24
339	22
340	10
341	3
351	1
352	12
353	53
354	999
355	497
356	213
357	65
358	16
359	3
360	1
368	2
369	22
370	14
371	6
372	2
