Mass spectrum: Sinapic acid; GC-EI-TOF; MS; n TMS; RT:861.943 sec
Name: Sinapic acid
Name: 3,5-dimethoxy-4-hydroxycinnamic acid
Name: 3-(4-hydroxy-3,5-dimethoxy-phenyl)prop-2-enoic acid
Class: Natural Product
Formula: C11H12O5
Exact mass: 224.06847
SMILES: COC1=CC(=CC(=C1O)OC)/C=C/C(=O)O
InChI: InChI=1S/C11H12O5/c1-15-8-5-7(3-4-10(12)13)6-9(16-2)11(8)14/h3-6,14H,1-2H3,(H,12,13)/b4-3+
Instrument: Pegasus III TOF-MS system, Leco; GC 6890, Agilent Technologies
Instrument type: GC-EI-TOF
Ms type: MS
Ion mode: POSITIVE
Column name: CP-SIL 8 CB LOW BLEED/MS
Retention time: 861.943  sec
m/z	relative intensity
85	26
86	10
87	19
88	41
89	348
90	57
91	169
92	80
93	47
94	8
95	29
96	33
97	10
99	51
100	6
101	28
102	51
103	129
104	71
105	80
106	21
107	34
108	7
109	20
110	9
111	18
112	2
113	6
114	3
115	107
116	51
117	75
118	36
119	167
120	88
121	55
122	14
123	14
124	9
125	12
126	9
127	13
128	21
129	28
130	55
131	61
132	78
133	138
134	40
135	147
136	28
137	37
138	2
139	16
140	28
141	9
142	11
143	26
144	10
145	43
146	25
147	230
148	62
149	79
150	39
151	31
152	7
153	11
154	62
155	10
156	1
157	4
158	13
159	32
160	67
161	129
162	134
163	101
164	25
165	32
166	15
167	16
168	2
169	126
170	17
171	8
172	6
173	41
174	36
175	192
176	87
177	243
178	87
179	60
180	18
181	10
182	2
183	1
185	4
187	24
188	27
189	58
190	104
191	130
192	59
193	53
194	22
195	17
196	12
197	6
198	1
199	3
200	1
201	4
202	9
203	75
204	70
205	168
206	134
207	55
208	17
209	140
210	32
211	11
212	1
216	5
217	26
218	174
219	168
220	167
221	103
222	100
223	28
224	13
225	1
226	2
229	2
231	16
232	21
233	75
234	80
235	54
236	22
237	24
238	4
239	25
240	5
243	1
244	1
245	5
246	5
247	43
248	90
249	309
250	87
251	50
252	14
253	6
254	2
255	1
259	3
261	10
262	11
263	65
264	43
265	28
266	24
267	9
268	2
273	1
275	1
277	9
278	17
279	294
280	108
281	46
282	11
285	2
287	1
291	1
292	5
293	34
294	26
295	45
296	14
297	4
300	3
301	2
303	1
304	2
305	1
306	3
307	12
308	18
309	65
310	30
311	12
312	7
316	2
321	2
322	19
323	371
324	184
325	78
326	23
327	4
328	4
329	4
330	9
331	8
332	9
333	9
334	9
335	4
336	7
337	69
338	999
339	432
340	167
341	38
342	9
343	2
344	3
345	7
346	5
347	4
348	8
349	6
350	4
351	4
352	34
353	483
354	207
355	94
356	21
357	4
358	1
359	3
360	5
361	2
362	8
363	5
364	5
365	4
366	4
367	67
368	741
369	270
370	110
371	26
372	3
383	2
384	1
386	2
398	1
402	1
431	1
445	1
448	2
465	1
