Mass spectrum: Melibiose; GC-EI-TOF; MS; n TMS; RT:1042.290 sec
Name: Melibiose
Class: Natural Product
Formula: C12H22O11
Exact mass: 342.11621
SMILES: OC[C@@H](O1)[C@H](O)[C@H](O)[C@@H](O)[C@@H](OC[C@@H](O2)[C@@H](O)[C@H](O)[C@@H](O)C(O)2)1
InChI: InChI=1S/C12H22O11/c13-1-3-5(14)8(17)10(19)12(23-3)21-2-4-6(15)7(16)9(18)11(20)22-4/h3-20H,1-2H2/t3-,4-,5+,6-,7+,8+,9-,10-,11?,12+/m1/s1
Instrument: Pegasus III TOF-MS system, Leco; GC 6890, Agilent Technologies
Instrument type: GC-EI-TOF
Ms type: MS
Ion mode: POSITIVE
Column name: CP-SIL 8 CB LOW BLEED/MS
Retention time: 1042.290  sec
m/z	relative intensity
85	26
86	15
87	21
88	12
89	175
90	17
91	10
92	2
93	1
94	3
95	6
96	5
97	18
98	6
99	24
100	64
101	131
102	48
103	512
104	51
105	94
106	11
107	5
108	1
109	22
110	4
111	16
112	5
113	29
114	26
115	34
116	71
117	240
118	28
119	24
120	3
121	3
123	2
124	2
125	5
126	7
127	21
128	16
129	519
130	85
131	110
132	21
133	186
134	27
135	18
136	2
137	1
138	2
139	10
140	5
141	18
142	30
143	87
144	17
145	33
146	9
147	761
148	127
149	101
150	13
151	9
152	4
153	12
154	7
155	83
156	19
157	82
158	22
159	19
160	345
161	162
162	32
163	33
164	6
165	3
166	2
167	5
168	6
169	336
170	55
171	36
172	12
173	24
174	12
175	17
176	3
177	16
178	4
179	3
180	2
181	5
182	3
183	14
184	3
185	7
186	8
187	11
188	5
189	103
190	34
191	198
192	38
193	20
194	2
195	3
196	4
197	4
198	3
199	12
200	5
201	10
202	5
203	42
204	999
205	253
206	99
207	28
208	6
209	2
210	5
211	2
212	2
213	1
214	3
215	18
216	25
217	544
218	141
219	64
220	13
221	30
222	8
223	5
225	1
226	1
227	11
228	23
229	32
230	24
231	48
232	18
233	31
234	10
235	6
236	1
239	1
240	3
241	12
242	8
243	112
244	37
245	33
246	23
247	23
248	7
249	2
250	1
252	1
254	2
255	4
256	5
257	10
258	5
259	26
260	7
261	5
262	11
263	6
264	2
265	6
266	2
267	1
268	5
269	9
270	7
271	100
272	28
273	17
274	14
275	12
276	8
277	8
278	5
279	4
280	1
281	1
283	1
285	1
286	1
287	1
288	2
289	4
290	2
291	29
292	10
293	6
294	1
295	1
297	1
300	15
301	5
302	3
303	3
304	5
305	37
306	18
307	24
308	8
309	3
313	1
315	1
316	1
317	13
318	11
319	79
320	30
321	15
322	3
323	1
330	2
331	28
332	18
333	11
334	5
335	4
336	1
337	1
343	1
345	5
346	3
347	2
348	1
349	3
358	1
359	3
360	22
361	421
362	166
363	80
364	32
365	10
366	3
376	1
377	2
389	1
390	19
391	8
392	4
393	3
394	1
408	1
409	3
410	2
411	1
435	1
436	1
448	1
450	3
451	18
452	9
453	5
454	1
479	3
480	22
481	15
482	7
483	3
484	1
