Mass spectrum: D-Ribulose-5-phosphate; GC-EI-TOF; MS; n TMS; RT:807.735 sec
Name: D-Ribulose-5-phosphate
Class: Natural Product
Formula: C5H11O8P
Exact mass: 230.01915
SMILES: OCC(=O)C(O)C(O)COP(O)(O)=O
InChI: InChI=1S/C5H11O8P/c6-1-3(7)5(9)4(8)2-13-14(10,11)12/h4-6,8-9H,1-2H2,(H2,10,11,12)/t4-,5+/m1/s1
Instrument: Pegasus III TOF-MS system, Leco; GC 6890, Agilent Technologies
Instrument type: GC-EI-TOF
Ms type: MS
Ion mode: POSITIVE
Column name: CP-SIL 8 CB LOW BLEED/MS
Retention time: 807.735  sec
m/z	relative intensity
85	36
86	19
87	27
88	19
89	296
90	29
91	22
92	4
93	8
94	6
95	6
96	10
97	4
98	20
99	27
100	43
101	259
102	37
103	300
104	33
105	61
106	8
107	11
108	1
109	5
110	3
111	9
112	8
113	32
114	142
115	61
116	87
117	62
118	11
119	46
120	6
121	19
122	2
123	8
124	2
125	7
126	30
127	14
128	36
129	220
130	38
131	73
132	16
133	284
134	41
135	80
136	9
137	29
138	5
139	5
140	15
141	8
142	28
143	29
144	9
145	10
146	3
147	437
148	74
149	57
150	9
151	32
152	15
153	10
154	21
155	8
156	21
157	12
158	13
159	7
160	3
161	3
162	1
163	21
164	3
165	11
166	8
167	17
168	47
169	14
170	10
171	3
172	17
173	31
174	39
175	10
176	3
177	11
178	2
179	10
180	2
181	43
182	12
183	21
184	22
185	6
186	10
187	5
188	8
189	15
190	4
191	45
192	11
193	42
194	9
195	54
196	11
197	22
198	24
199	6
200	14
201	8
202	10
203	6
204	7
205	10
206	2
207	67
208	17
209	16
210	6
211	219
212	40
213	24
214	17
215	9
216	17
217	90
218	27
219	11
220	2
221	7
222	2
223	3
224	1
225	70
226	18
227	37
228	24
229	9
230	16
231	8
232	3
233	1
237	1
239	1
240	13
241	15
242	23
243	16
244	12
245	4
246	1
247	1
253	34
254	8
255	11
256	27
257	28
258	19
259	7
260	3
261	3
262	27
263	10
264	3
267	2
268	1
269	20
270	4
271	3
272	5
273	2
274	3
276	1
281	1
283	15
284	6
285	20
286	6
287	4
288	15
289	4
290	4
291	1
297	1
298	11
299	285
300	93
301	48
302	13
303	3
304	1
305	1
311	1
313	8
314	10
315	92
316	32
317	18
318	6
319	2
327	1
328	12
329	4
330	5
331	23
332	12
333	5
340	3
341	58
342	37
343	15
344	4
345	3
346	6
347	10
348	5
349	3
350	2
351	1
352	1
353	2
354	2
355	5
356	43
357	999
358	322
359	162
360	38
361	10
362	22
363	9
364	4
370	3
371	5
372	3
373	10
374	4
375	1
377	1
378	25
379	10
380	5
381	1
386	4
387	45
388	21
389	18
390	5
391	1
408	1
429	3
430	1
431	1
482	1
