Mass spectrum: Quinolinic acid; GC-EI-TOF; MS; n TMS; RT:659.632 sec
Name: Quinolinic acid
Class: Natural Product
Formula: C7H5NO4
Exact mass: 167.02186
SMILES: OC(=O)c(c1)c(ncc1)C(O)=O
InChI: InChI=1S/C7H5NO4/c9-6(10)4-2-1-3-8-5(4)7(11)12/h1-3H,(H,9,10)(H,11,12)
Instrument: Pegasus III TOF-MS system, Leco; GC 6890, Agilent Technologies
Instrument type: GC-EI-TOF
Ms type: MS
Ion mode: POSITIVE
Column name: CP-SIL 8 CB LOW BLEED/MS
Retention time: 659.632  sec
m/z	relative intensity
85	5
86	5
87	8
88	2
89	7
90	6
91	26
92	40
93	35
94	13
95	8
96	4
97	7
98	3
99	2
100	2
101	3
102	6
103	15
104	14
105	28
106	39
107	23
108	24
109	21
110	8
111	4
112	1
113	2
115	11
116	3
117	12
118	10
119	22
120	68
121	10
122	8
123	7
124	4
125	1
126	1
127	2
128	2
129	1
130	2
131	28
132	11
133	49
134	22
135	23
136	35
137	7
138	3
139	1
140	1
141	13
142	2
143	2
144	2
145	1
146	3
147	999
148	168
149	101
150	33
151	9
152	9
153	1
154	1
155	1
157	1
158	1
160	2
162	12
163	2
164	29
165	32
166	10
167	5
168	2
169	1
176	3
177	1
178	11
179	11
180	9
181	3
182	3
183	1
184	1
192	1
193	13
194	195
195	33
196	11
197	2
204	1
206	1
208	7
209	2
210	6
211	1
212	1
220	1
221	6
222	9
223	6
224	11
225	3
226	1
234	3
235	1
236	3
237	1
238	6
239	3
240	2
250	1
251	1
252	27
253	7
254	3
255	1
266	29
267	11
268	11
269	3
281	1
295	2
296	120
297	31
298	12
299	2
