Mass spectrum: L-Rhamnose; GC-EI-TOF; MS; n TMS; RT:651.493 sec
Name: L-Rhamnose
Name: (2R,3R,4S,5S)-2,3,4,5-tetrahydroxyhexanal
Class: Natural Product
Formula: C6H12O5
Exact mass: 164.06848
SMILES: C[C@@H]([C@@H]([C@H]([C@H](C=O)O)O)O)O
InChI: InChI=1S/C6H12O5/c1-3(8)5(10)6(11)4(9)2-7/h2-6,8-11H,1H3/t3-,4-,5-,6-/m0/s1
Instrument: Pegasus III TOF-MS system, Leco; GC 6890, Agilent Technologies
Instrument type: GC-EI-TOF
Ms type: MS
Ion mode: POSITIVE
Column name: CP-SIL 8 CB LOW BLEED/MS
Retention time: 651.493  sec
m/z	relative intensity
85	9
86	4
87	7
88	1
89	76
90	6
91	2
98	1
99	6
100	45
101	26
102	18
103	58
104	6
105	19
106	3
108	2
111	1
112	1
113	4
114	7
115	21
116	9
117	999
118	109
119	46
120	2
126	3
127	6
128	3
129	55
130	21
131	63
132	9
133	77
134	11
135	7
142	2
143	26
144	5
145	4
147	129
148	20
149	14
150	1
155	1
158	1
160	173
161	66
162	13
163	10
164	1
165	1
171	6
172	5
173	3
174	2
175	2
177	4
181	1
182	1
185	1
186	1
188	1
189	13
190	2
191	10
192	1
200	1
201	14
202	2
203	12
204	15
205	9
206	1
207	1
214	3
215	1
217	5
218	1
219	24
220	4
221	3
231	10
232	3
233	31
234	8
235	4
244	1
270	2
274	1
277	44
278	15
279	7
291	2
293	1
302	1
321	17
322	5
323	1
337	2
