Mass spectrum: 4-Coumaric acid; GC-EI-TOF; MS; n TMS; RT:750.360 sec
Name: p-Coumaric acid
Name: 4-Coumaric acid
Class: Natural Product
Formula: C9H8O3
Exact mass: 164.04734
SMILES: OC(=O)C=Cc(c1)ccc(O)c1
InChI: InChI=1S/C9H8O3/c10-8-4-1-7(2-5-8)3-6-9(11)12/h1-6,10H,(H,11,12)/b6-3+
Instrument: Pegasus III TOF-MS system, Leco; GC 6890, Agilent Technologies
Instrument type: GC-EI-TOF
Ms type: MS
Ion mode: POSITIVE
Column name: CP-SIL 8 CB LOW BLEED/MS
Retention time: 750.360  sec
m/z	relative intensity
85	40
86	7
87	30
88	92
89	165
90	87
91	131
92	46
93	32
94	7
95	23
96	6
97	13
98	5
99	28
100	9
101	113
102	166
103	75
104	22
105	75
106	11
107	28
108	4
109	23
110	6
111	5
112	1
113	8
114	14
115	293
116	98
117	100
118	93
119	73
120	14
121	49
122	9
123	8
124	17
125	24
126	4
127	14
128	20
129	33
130	20
131	76
132	22
133	124
134	23
135	144
136	21
137	12
138	2
139	173
140	21
141	14
142	39
143	50
144	21
145	105
146	60
147	212
148	69
149	93
150	30
151	31
152	3
153	2
155	2
157	9
158	5
159	76
160	21
161	82
162	16
163	15
164	11
165	3
166	4
167	3
168	1
171	4
172	2
173	32
174	13
175	173
176	54
177	80
178	17
179	335
180	58
181	22
184	1
185	24
186	6
187	19
188	6
189	31
190	58
191	119
192	100
193	33
194	5
195	3
198	1
199	1
201	5
202	11
203	174
204	44
205	29
206	5
207	10
208	4
209	7
210	2
211	1
212	1
215	1
216	4
217	32
218	15
219	999
220	244
221	78
222	15
223	84
224	36
225	14
226	1
231	5
232	2
233	115
234	43
235	19
236	11
237	2
243	1
244	3
245	2
247	16
248	9
249	618
250	189
251	78
252	18
253	1
263	4
264	2
265	1
266	1
267	3
268	1
269	1
270	1
271	2
272	1
273	1
274	1
275	2
276	1
277	4
278	3
279	3
280	2
281	2
291	1
292	18
293	751
294	239
295	92
296	20
297	2
298	1
299	2
300	3
301	2
302	3
303	1
304	2
305	2
306	1
307	37
308	473
309	146
310	56
311	12
312	2
