Mass spectrum: N-Methylethanolamine; GC-EI-TOF; MS; n TMS; RT:302.501 sec
Name: N-Methylethanolamine
Class: Natural Product
Formula: C3H9NO
Exact mass: 75.06841
SMILES: CNCCO
InChI: InChI=1S/C3H9NO/c1-4-2-3-5/h4-5H,2-3H2,1H3
Instrument: Pegasus III TOF-MS system, Leco; GC 6890, Agilent Technologies
Instrument type: GC-EI-TOF
Ms type: MS
Ion mode: POSITIVE
Column name: CP-SIL 8 CB LOW BLEED/MS
Retention time: 302.501  sec
m/z	relative intensity
85	3
86	31
87	14
88	27
89	17
90	3
92	1
95	1
96	2
98	4
99	2
100	21
101	13
102	8
103	18
104	2
105	5
113	1
114	13
115	15
116	999
117	122
118	43
119	10
120	1
128	1
129	1
130	53
131	25
132	10
133	22
134	3
135	1
146	1
147	223
148	37
149	18
150	1
204	14
205	2
219	19
220	3
221	1
