Mass spectrum: L-Tryptophan; GC-EI-TOF; MS; n TMS; RT:851.644 sec
Name: L-Tryptophan
Class: Natural Product
Formula: C11H12N2O2
Exact mass: 204.08988
SMILES: C1=CC=C2C(=C1)C(=CN2)C[C@@H](C(=O)O)N
InChI: InChI=1S/C11H12N2O2/c12-9(11(14)15)5-7-6-13-10-4-2-1-3-8(7)10/h1-4,6,9,13H,5,12H2,(H,14,15)/t9-/m0/s1
Instrument: Pegasus III TOF-MS system, Leco; GC 6890, Agilent Technologies
Instrument type: GC-EI-TOF
Ms type: MS
Ion mode: POSITIVE
Column name: CP-SIL 8 CB LOW BLEED/MS
Retention time: 851.644  sec
m/z	relative intensity
85	1
86	7
87	1
93	1
100	60
101	33
102	18
103	13
105	1
115	8
116	3
117	10
119	3
128	5
129	28
130	36
131	14
132	26
133	12
134	4
142	1
143	3
144	3
145	14
146	7
147	52
148	10
149	2
150	1
152	1
153	1
156	5
157	2
158	6
159	8
160	7
161	2
163	2
169	2
170	8
171	2
172	9
174	6
181	1
184	9
185	3
186	16
187	7
188	9
190	13
196	1
199	5
200	38
201	10
202	999
203	214
204	69
205	9
215	3
218	48
219	9
220	3
224	1
230	7
231	2
249	1
250	1
255	1
270	1
275	1
283	1
285	1
286	1
291	83
292	26
293	10
294	2
302	3
303	6
304	4
306	1
308	2
335	1
338	1
353	1
365	1
397	1
398	1
399	1
405	1
420	2
433	1
458	1
475	1
495	1
