Mass spectrum: Hypotaurine; GC-EI-TOF; MS; n TMS; RT:600.711 sec
Name: Hypotaurine
Class: Natural Product
Formula: C2H7NO2S
Exact mass: 109.01975
SMILES: NCCS(O)=O
InChI: InChI=1S/C2H7NO2S/c3-1-2-6(4)5/h1-3H2,(H,4,5)
Instrument: Pegasus III TOF-MS system, Leco; GC 6890, Agilent Technologies
Instrument type: GC-EI-TOF
Ms type: MS
Ion mode: POSITIVE
Column name: CP-SIL 8 CB LOW BLEED/MS
Retention time: 600.711  sec
m/z	relative intensity
85	14
86	163
87	24
88	11
89	5
90	3
91	7
92	3
93	2
95	1
97	1
98	9
99	11
100	999
101	115
102	57
103	13
104	5
105	6
106	3
107	1
108	1
112	1
113	18
114	165
115	39
116	66
117	26
118	8
119	16
120	4
121	3
122	21
123	2
124	2
128	1
129	9
130	160
131	52
132	31
133	94
134	16
135	19
136	3
137	10
138	2
139	1
142	2
143	1
144	3
145	2
146	32
147	248
148	52
149	28
150	5
151	2
156	2
157	1
158	6
159	2
160	6
161	3
162	1
163	1
164	1
165	1
170	1
172	112
173	22
174	181
175	33
176	50
177	9
178	4
179	1
186	2
187	18
188	832
189	165
190	70
191	9
192	2
194	7
195	1
204	1
205	1
206	1
209	6
210	1
211	1
220	2
221	1
222	4
248	15
249	4
250	2
310	20
311	6
312	4
