Mass spectrum: Guanine; GC-EI-TOF; MS; n TMS; RT:819.444 sec
Name: Guanine
Class: Natural Product
Formula: C5H5N5O
Exact mass: 151.04941
SMILES: C1=NC2=C(N1)C(=O)N=C(N2)N
InChI: InChI=1S/C5H5N5O/c6-5-9-3-2(4(11)10-5)7-1-8-3/h1H,(H4,6,7,8,9,10,11)
Instrument: Pegasus III TOF-MS system, Leco; GC 6890, Agilent Technologies
Instrument type: GC-EI-TOF
Ms type: MS
Ion mode: POSITIVE
Column name: CP-SIL 8 CB LOW BLEED/MS
Retention time: 819.444  sec
m/z	relative intensity
85	72
86	44
87	21
88	7
89	7
90	1
92	2
93	7
94	1
95	11
96	6
97	10
98	60
99	254
100	159
101	37
102	24
103	22
105	11
107	5
108	5
109	1
110	23
111	53
112	17
113	29
114	10
115	37
116	22
117	29
118	9
119	6
120	1
122	3
123	9
124	21
125	27
126	19
127	14
128	24
129	9
130	62
131	140
132	79
133	48
134	12
135	1
136	10
137	6
138	14
139	17
140	18
141	45
142	29
143	23
144	14
145	2
146	2
147	331
148	58
149	37
150	7
151	11
152	19
153	17
154	12
155	26
156	24
157	51
158	117
159	29
160	9
161	4
163	1
164	5
165	7
166	49
167	21
168	26
169	45
170	12
171	94
172	28
173	42
174	12
176	4
178	3
179	6
180	67
181	28
182	24
183	3
184	4
185	2
187	6
188	1
189	7
190	34
193	3
194	3
195	3
196	8
197	15
198	22
199	9
200	3
201	3
204	4
205	9
206	4
207	9
208	7
209	3
210	6
211	10
212	4
215	4
216	1
219	3
220	2
221	10
222	17
223	15
224	6
225	3
226	1
229	2
232	1
234	5
235	6
236	3
237	21
238	79
239	35
240	18
242	1
248	3
249	3
250	1
252	10
253	9
254	7
256	2
262	40
263	15
264	158
265	40
266	23
267	12
268	5
272	1
277	9
278	58
279	40
280	54
281	19
282	1
286	1
287	3
290	1
291	3
292	4
293	34
294	43
295	22
296	8
300	1
301	1
303	1
305	5
306	1
309	2
310	3
311	3
313	1
316	3
319	1
320	1
322	3
323	2
324	1
327	1
330	1
334	1
336	24
337	9
338	2
343	3
344	1
345	1
346	2
348	3
350	14
351	61
352	999
353	407
354	182
355	51
356	12
357	3
358	3
359	1
365	4
366	25
367	275
368	96
369	50
370	15
371	2
375	3
378	3
380	1
381	2
384	2
388	1
393	3
395	1
396	3
397	1
398	1
402	2
404	1
413	1
415	1
427	2
431	2
432	1
436	3
438	3
443	1
452	1
460	1
468	4
474	1
476	1
479	5
483	3
488	2
490	1
500	1
