Mass spectrum: Ketoleucine; GC-EI-TOF; MS; n TMS; RT:484.089 sec
Name: Ketoleucine
Class: Natural Product
Formula: C6H10O3
Exact mass: 130.06299
SMILES: CC(C)CC(=O)C(O)=O
InChI: InChI=1S/C6H10O3/c1-4(2)3-5(7)6(8)9/h4H,3H2,1-2H3,(H,8,9)
Instrument: Pegasus III TOF-MS system, Leco; GC 6890, Agilent Technologies
Instrument type: GC-EI-TOF
Ms type: MS
Ion mode: POSITIVE
Column name: CP-SIL 8 CB LOW BLEED/MS
Retention time: 484.089  sec
m/z	relative intensity
85	70
86	67
87	17
88	23
89	502
90	21
91	25
93	1
97	36
98	15
100	55
101	22
102	29
103	35
104	16
105	31
108	4
109	1
111	4
112	115
113	21
114	168
115	63
116	1
117	32
121	30
122	5
123	1
124	12
125	4
126	16
127	2
128	7
129	170
130	25
131	89
132	5
133	183
134	21
139	3
140	21
141	15
142	63
143	21
144	9
145	854
146	122
147	999
148	122
149	80
157	23
158	24
159	11
163	48
164	8
169	5
170	9
172	26
173	2
182	23
183	12
186	11
189	5
190	4
191	25
192	16
194	1
198	33
199	5
200	5
202	26
204	2
208	4
209	5
210	1
212	9
214	26
216	10
218	1
227	28
228	8
229	9
230	15
234	4
239	1
241	3
242	63
243	10
246	5
248	10
253	11
254	12
257	2
258	18
260	4
261	19
262	17
268	8
270	15
276	186
277	41
278	34
279	8
281	8
283	3
288	49
289	14
290	1
291	5
294	3
295	4
296	3
298	1
299	1
301	16
304	55
305	5
308	3
310	12
312	12
324	7
326	1
328	10
333	5
334	8
337	2
339	1
340	9
342	9
343	10
347	7
351	16
356	16
368	10
374	14
377	8
378	1
381	10
389	2
393	9
397	8
403	2
412	16
415	4
417	4
419	3
421	2
429	18
432	1
436	3
445	4
448	11
450	2
454	12
456	15
458	2
460	17
465	2
488	5
494	1
