Mass spectrum: Urea; GC-EI-TOF; MS; n TMS; RT:407.982 sec
Name: Urea
Class: Natural Product
Formula: CH4N2O
Exact mass: 60.03236
SMILES: NC(N)=O
InChI: InChI=1S/CH4N2O/c2-1(3)4/h(H4,2,3,4)
Instrument: Pegasus III TOF-MS system, Leco; GC 6890, Agilent Technologies
Instrument type: GC-EI-TOF
Ms type: MS
Ion mode: POSITIVE
Column name: CP-SIL 8 CB LOW BLEED/MS
Retention time: 407.982  sec
m/z	relative intensity
85	27
86	28
87	100
88	12
89	6
90	7
96	3
97	4
98	5
99	151
100	159
101	39
102	23
103	17
104	4
105	8
111	12
112	3
113	18
114	16
115	34
116	18
117	23
118	6
119	3
125	1
126	1
127	5
128	1
129	4
130	75
131	69
132	57
133	32
134	7
135	2
139	3
140	1
141	8
142	2
143	3
146	69
147	999
148	156
149	72
150	9
151	1
155	14
156	4
157	19
158	4
159	4
160	1
170	1
171	403
172	68
173	77
174	13
175	6
186	23
187	5
188	4
189	415
190	73
191	37
192	4
204	21
205	4
206	1
