Mass spectrum: N-Acetyl-L-glutamine; GC-EI-TOF; MS; n TMS; RT:746.034 sec
Name: N-Acetyl-L-glutamine
Class: Natural Product
Formula: C7H12N2O4
Exact mass: 188.07971
SMILES: NC(=O)CCC(NC(C)=O)C(O)=O
InChI: InChI=1S/C7H12N2O4/c1-4(10)9-5(7(12)13)2-3-6(8)11/h5H,2-3H2,1H3,(H2,8,11)(H,9,10)(H,12,13)/t5-/m0/s1
Instrument: Pegasus III TOF-MS system, Leco; GC 6890, Agilent Technologies
Instrument type: GC-EI-TOF
Ms type: MS
Ion mode: POSITIVE
Column name: CP-SIL 8 CB LOW BLEED/MS
Retention time: 746.034  sec
m/z	relative intensity
85	64
86	64
87	59
88	25
89	42
90	157
91	49
92	11
93	13
94	16
95	8
96	9
97	72
98	85
99	664
100	187
101	39
102	35
103	81
104	13
105	8
107	19
108	13
109	4
110	10
111	20
112	87
113	57
114	39
115	224
116	408
117	104
118	35
119	12
124	4
125	121
126	156
127	29
128	260
129	73
130	107
131	289
132	174
133	124
134	22
135	12
136	1
137	1
139	48
140	55
141	17
142	64
143	23
144	509
145	91
146	74
147	421
148	83
149	88
150	13
151	14
152	4
153	43
154	17
155	357
156	999
157	233
158	300
159	46
160	29
161	3
165	2
167	3
168	15
169	4
170	9
171	26
172	24
173	122
174	34
175	7
176	3
177	1
181	4
182	44
183	15
184	60
185	54
186	87
187	13
188	11
189	205
190	31
191	9
194	1
196	1
197	18
198	26
199	30
200	26
201	11
202	127
203	40
204	12
205	2
206	6
207	2
209	1
211	2
213	2
214	18
215	492
216	104
217	32
218	5
225	5
227	28
228	24
229	24
230	178
231	49
232	17
236	1
241	1
242	19
243	5
244	5
245	1
246	5
247	4
248	2
256	2
258	31
259	9
260	4
261	6
262	3
271	3
272	19
273	10
274	8
275	7
276	17
277	6
278	1
280	1
281	2
289	17
290	6
291	1
293	2
299	16
300	30
301	7
302	4
316	1
317	42
318	7
319	3
332	4
333	1
337	1
370	1
392	2
400	1
403	1
421	1
428	2
431	1
432	1
435	1
436	1
438	1
455	1
463	1
