Mass spectrum: 5-Dehydroquinic acid; GC-EI-TOF; MS; n TMS; RT:719.580 sec
Name: 5-Dehydroquinic acid
Class: Natural Product
Formula: C7H10O6
Exact mass: 190.04774
SMILES: OC(=O)C(O)(C1)CC(=O)C(O)C(O)1
InChI: InChI=1S/C7H10O6/c8-3-1-7(13,6(11)12)2-4(9)5(3)10/h3,5,8,10,13H,1-2H2,(H,11,12)/t3-,5+,7-/m1/s1
Instrument: Pegasus III TOF-MS system, Leco; GC 6890, Agilent Technologies
Instrument type: GC-EI-TOF
Ms type: MS
Ion mode: POSITIVE
Column name: CP-SIL 8 CB LOW BLEED/MS
Retention time: 719.580  sec
m/z	relative intensity
85	26
86	12
87	20
88	11
89	360
90	37
91	30
92	9
93	9
94	27
95	12
96	38
97	17
98	38
99	43
100	55
101	69
102	27
103	79
104	15
105	28
106	43
107	15
108	15
109	7
110	8
111	17
112	9
113	34
114	17
115	48
116	27
117	54
118	13
119	32
120	9
121	6
122	12
123	7
124	54
125	14
126	17
127	23
128	79
129	79
130	20
131	119
132	26
133	335
134	248
135	53
136	18
137	7
138	11
139	8
140	108
141	67
142	29
143	156
144	35
145	21
146	8
147	999
148	167
149	129
150	29
151	16
152	28
153	16
154	18
155	20
156	19
157	23
158	20
159	15
160	5
161	10
162	4
163	65
164	49
165	25
166	22
167	10
168	62
169	111
170	30
171	19
172	36
173	17
174	13
175	9
176	4
177	10
178	19
179	14
180	70
181	23
182	15
183	7
184	7
185	10
186	7
187	5
188	4
189	36
190	19
191	123
192	32
193	19
194	15
195	13
196	221
197	52
198	20
199	7
200	22
201	13
202	6
203	7
204	14
205	8
206	6
207	15
208	233
209	45
210	90
211	20
212	15
213	5
214	17
215	14
216	8
217	92
218	21
219	11
220	3
221	18
222	14
223	10
224	485
225	87
226	47
227	12
228	16
229	14
230	11
231	10
232	5
233	4
234	2
235	1
236	3
237	12
238	21
239	11
240	26
241	12
242	26
243	18
244	13
245	15
246	5
247	3
248	1
249	5
250	2
251	2
252	10
253	13
254	35
255	14
256	13
257	7
258	13
259	37
260	11
261	5
262	2
263	1
264	1
265	2
266	6
267	4
268	38
269	32
270	33
271	13
272	6
273	3
274	10
275	5
276	2
280	7
281	8
282	9
283	6
284	28
285	14
286	20
287	8
288	4
289	2
290	1
291	1
292	1
295	2
296	67
297	21
298	16
299	6
300	94
301	28
302	16
303	5
304	2
305	2
306	1
307	1
310	1
311	1
312	9
313	5
314	76
315	21
316	11
317	3
318	2
319	1
326	3
327	4
328	7
329	4
330	5
331	23
332	12
333	46
334	17
335	8
336	2
337	1
341	1
342	18
343	11
344	12
345	5
346	2
347	1
354	1
355	1
356	1
357	1
358	6
359	4
360	3
361	1
369	1
370	13
371	9
372	6
373	2
374	17
375	8
376	4
377	1
385	2
386	40
387	19
388	12
389	6
390	45
391	20
392	10
393	2
401	1
402	26
403	13
404	7
405	3
406	1
416	2
417	22
418	12
419	6
420	3
421	1
431	1
432	9
433	7
434	4
435	1
460	4
461	3
462	1
464	3
465	2
466	1
476	12
477	11
478	6
479	2
480	1
491	2
492	17
493	12
494	6
495	2
