Mass spectrum: D-Ribulose 1,5-diphosphate; GC-EI-TOF; MS; n TMS; RT:948.5431826 sec
Name: Ribulose-1,5-Bisphosphate
Name: D-Ribulose 1,5-diphosphate
Class: Natural Product
Formula: C5H12O11P2
Exact mass: 309.98548
SMILES: OC(COP(O)(O)=O)C(O)C(=O)COP(O)(O)=O
InChI: InChI=1S/C5H12O11P2/c6-3(1-15-17(9,10)11)5(8)4(7)2-16-18(12,13)14/h3,5-6,8H,1-2H2,(H2,9,10,11)(H2,12,13,14)
Instrument: Pegasus III TOF-MS system, Leco; GC 6890, Agilent Technologies
Instrument type: GC-EI-TOF
Ms type: MS
Ion mode: POSITIVE
Column name: CP-SIL 8 CB LOW BLEED/MS
Retention time: 948.5431826 sec
m/z	relative intensity
85	36
86	8
87	41
88	6
89	245
90	32
91	39
92	9
93	30
94	16
95	16
96	24
97	6
98	36
99	35
100	32
101	314
102	49
103	126
104	18
105	49
106	12
107	31
108	1
109	13
110	8
111	15
112	12
113	63
114	32
115	86
116	95
117	65
118	6
119	58
120	10
121	47
123	22
125	61
126	179
127	53
128	27
129	282
130	41
131	104
132	21
133	434
134	64
135	187
136	22
137	88
138	5
139	11
140	20
141	12
142	156
143	49
144	18
145	11
146	3
147	494
148	94
149	79
150	10
151	89
152	27
153	25
154	25
155	6
156	15
157	14
158	29
161	3
162	3
163	31
164	3
165	28
166	26
167	43
168	218
169	48
170	26
171	3
172	7
173	240
174	32
175	12
176	2
177	15
178	4
179	15
180	5
181	109
182	34
183	52
184	75
185	18
186	6
187	3
189	21
190	9
191	76
192	23
193	105
194	21
195	141
196	25
197	49
198	119
199	20
200	21
201	2
202	11
203	4
204	6
205	19
207	147
208	39
209	43
210	18
211	486
212	99
213	60
214	6
215	15
216	8
217	81
218	21
219	10
220	3
221	9
223	2
224	2
225	241
226	58
227	99
228	25
229	12
230	2
233	2
236	73
237	18
238	2
239	2
240	15
241	57
242	26
243	25
244	6
245	2
246	1
250	1
251	1
252	2
253	37
254	10
255	21
256	47
257	28
258	9
259	1
266	13
267	5
268	2
269	22
270	3
271	5
272	11
273	4
274	4
282	3
283	48
284	18
285	65
286	19
287	9
288	6
289	3
291	2
297	2
298	34
299	999
300	299
301	167
302	29
303	4
306	1
308	1
311	4
312	1
313	33
314	30
315	257
316	67
317	37
318	7
320	1
326	1
328	7
329	3
338	3
340	2
341	81
342	44
343	14
344	1
347	1
352	14
353	6
354	72
355	27
356	60
357	852
358	319
359	152
360	37
361	13
362	2
370	2
371	5
372	3
373	19
374	9
375	3
384	16
385	17
386	85
387	638
388	293
389	155
390	49
391	9
392	4
407	3
408	9
409	13
410	4
411	3
412	3
413	9
414	121
415	53
416	18
417	4
428	1
430	1
437	2
440	8
441	4
442	28
443	11
444	1
449	6
450	4
451	44
452	17
453	7
454	4
461	6
467	3
477	2
482	3
494	3
