Mass spectrum: Ketovaline; GC-EI-TOF; MS; n TMS; RT:321.308 sec
Name: Ketovaline
Class: Natural Product
Formula: C5H8O3
Exact mass: 116.04734
SMILES: CC(C)C(=O)C(O)=O
InChI: InChI=1S/C5H8O3/c1-3(2)4(6)5(7)8/h3H,1-2H3,(H,7,8)
Instrument: Pegasus III TOF-MS system, Leco; GC 6890, Agilent Technologies
Instrument type: GC-EI-TOF
Ms type: MS
Ion mode: POSITIVE
Column name: CP-SIL 8 CB LOW BLEED/MS
Retention time: 321.308  sec
m/z	relative intensity
85	18
86	36
87	4
88	8
89	999
90	88
91	43
92	2
93	2
95	1
96	29
97	5
98	10
99	43
100	176
101	22
102	4
103	7
104	2
105	49
106	4
107	1
110	1
111	1
112	8
113	5
114	4
115	1
116	38
117	53
118	7
119	2
126	10
127	61
128	26
129	3
130	2
131	2
133	1
140	8
141	20
142	22
143	8
144	4
146	1
147	1
156	1
157	4
158	2
159	1
170	4
171	1
172	2
174	6
186	118
187	19
188	6
189	1
202	38
203	5
204	1
217	18
218	3
