Mass spectrum: Ethanolamine; GC-EI-TOF; MS; n TMS; RT:420.944 sec
Name: 2-Aminoethanol
Name: Ethanolamine
Class: Natural Product
Formula: C2H7NO
Exact mass: 61.05276
SMILES: NCCO
InChI: InChI=1S/C2H7NO/c3-1-2-4/h4H,1-3H2
Instrument: Pegasus III TOF-MS system, Leco; GC 6890, Agilent Technologies
Instrument type: GC-EI-TOF
Ms type: MS
Ion mode: POSITIVE
Column name: CP-SIL 8 CB LOW BLEED/MS
Retention time: 420.944  sec
m/z	relative intensity
85	10
86	378
87	46
88	28
89	16
90	2
91	1
98	3
99	7
100	393
101	56
102	62
103	28
104	5
105	7
106	1
112	1
113	10
114	53
115	27
116	26
117	36
118	9
119	16
120	2
121	1
128	2
129	5
130	67
131	57
132	17
133	116
134	17
135	9
136	1
142	2
143	2
144	11
145	4
146	8
147	213
148	34
149	17
150	2
156	1
158	12
159	4
160	3
161	1
170	1
171	1
172	25
173	7
174	999
175	183
176	83
177	10
178	2
186	1
187	2
188	14
189	4
190	3
204	3
205	1
246	1
262	18
263	5
264	2
