Mass spectrum: D-(+)-Pantothenic acid; GC-EI-TOF; MS; n TMS; RT:765.743 sec
Name: Pantothenate
Name: D-(+)-Pantothenic acid
Class: Natural Product
Formula: C9H17NO5
Exact mass: 219.11067
SMILES: OCC(C)(C)[C@@H](O)C(=O)NCCC(O)=O
InChI: InChI=1S/C9H17NO5/c1-9(2,5-11)7(14)8(15)10-4-3-6(12)13/h7,11,14H,3-5H2,1-2H3,(H,10,15)(H,12,13)/t7-/m0/s1
Instrument: Pegasus III TOF-MS system, Leco; GC 6890, Agilent Technologies
Instrument type: GC-EI-TOF
Ms type: MS
Ion mode: POSITIVE
Column name: CP-SIL 8 CB LOW BLEED/MS
Retention time: 765.743  sec
m/z	relative intensity
85	45
86	39
87	29
88	26
89	39
90	6
91	29
92	6
93	4
94	6
95	12
96	10
97	6
98	100
99	28
100	56
101	52
102	99
103	999
104	108
105	59
106	5
107	1
108	4
109	2
110	8
111	6
112	9
113	21
114	10
115	69
116	59
117	655
118	82
119	51
120	6
121	3
122	1
123	1
124	40
125	6
126	5
127	10
128	34
129	223
130	79
131	76
132	18
133	94
134	15
135	13
136	3
137	1
138	4
139	1
140	5
141	9
142	10
143	109
144	123
145	94
146	46
147	217
148	38
149	55
150	9
151	5
152	1
153	3
154	6
155	6
156	23
157	430
158	89
159	248
160	41
161	16
162	7
163	20
164	5
165	3
166	12
167	2
168	5
169	3
170	10
171	7
172	20
173	12
174	13
175	9
176	15
177	9
178	3
179	1
180	1
182	3
183	2
184	8
185	7
186	10
187	5
188	16
189	5
190	4
191	14
192	3
193	2
196	1
197	1
198	6
199	2
200	5
201	341
202	55
203	43
204	12
205	7
206	2
207	1
212	5
213	1
214	3
215	2
216	3
217	29
218	23
219	11
220	4
221	2
226	2
227	3
228	5
229	1
230	4
231	8
232	3
233	5
234	2
235	1
236	1
240	8
241	2
242	6
243	2
244	5
245	2
246	24
247	161
248	39
249	16
250	3
251	1
256	3
257	1
258	3
259	4
260	4
261	53
262	17
263	7
264	2
273	3
274	3
275	10
276	5
277	1
288	1
289	1
290	6
291	357
292	87
293	36
294	6
295	1
302	5
303	2
316	3
317	1
318	1
330	12
331	4
332	7
333	2
334	1
348	1
349	1
363	1
364	1
419	4
420	40
421	19
422	9
423	2
