Mass spectrum: DL-Glyceraldehyde; GC-EI-TOF; MS; n TMS; RT:382.059 sec
Name: DL-Glyceraldehyde
Class: Natural Product
Formula: C3H6O3
Exact mass: 90.03169
SMILES: [H]C([H])(O)C([H])(O)C=O
InChI: InChI=1S/C3H6O3/c4-1-3(6)2-5/h1,3,5-6H,2H2
Instrument: Pegasus III TOF-MS system, Leco; GC 6890, Agilent Technologies
Instrument type: GC-EI-TOF
Ms type: MS
Ion mode: POSITIVE
Column name: CP-SIL 8 CB LOW BLEED/MS
Retention time: 382.059  sec
m/z	relative intensity
85	35
86	54
87	59
88	48
89	884
90	96
91	23
99	21
100	533
101	255
102	225
103	999
104	112
105	214
107	10
113	2
114	59
115	47
116	42
117	502
118	52
119	42
120	9
125	8
126	27
127	3
128	18
129	15
130	12
131	284
132	28
133	527
134	62
135	27
142	17
143	7
146	9
147	759
148	110
149	60
158	15
160	252
161	16
163	66
164	7
165	4
172	4
173	19
176	5
185	4
189	113
190	10
191	107
192	12
200	106
201	24
212	7
213	9
216	16
218	8
223	1
232	52
233	2
244	6
248	3
257	2
263	47
264	9
269	2
271	2
275	2
277	6
296	1
302	6
319	4
321	3
325	2
335	2
343	1
344	3
356	5
359	1
368	4
395	1
398	8
408	1
411	5
425	2
435	4
448	5
478	2
487	5
