Mass spectrum: D-(+)-Galacturonic acid; GC-EI-TOF; MS; n TMS; RT:750.776 sec
Name: D-(+)-Galacturonic acid
Class: Natural Product
Formula: C6H10O7
Exact mass: 194.04265
SMILES: OC(=O)[C@@H](O1)[C@H](O)[C@H](O)[C@@H](O)C(O)1
InChI: InChI=1S/C6H10O7/c7-1-2(8)4(5(10)11)13-6(12)3(1)9/h1-4,6-9,12H,(H,10,11)/t1-,2+,3+,4-,6?/m0/s1
Instrument: Pegasus III TOF-MS system, Leco; GC 6890, Agilent Technologies
Instrument type: GC-EI-TOF
Ms type: MS
Ion mode: POSITIVE
Column name: CP-SIL 8 CB LOW BLEED/MS
Retention time: 750.776  sec
m/z	relative intensity
85	25
86	16
87	24
88	12
89	302
90	30
91	16
92	1
93	3
94	2
95	1
96	10
97	3
98	6
99	32
100	49
101	52
102	70
103	362
104	40
105	75
106	6
107	1
110	1
111	10
112	5
113	15
114	27
115	32
116	27
117	61
118	10
119	39
120	5
121	3
125	2
126	11
127	22
128	12
129	102
130	55
131	123
132	27
133	307
134	44
135	27
136	3
138	1
139	1
140	3
141	7
142	13
143	274
144	43
145	32
146	7
147	999
148	164
149	112
150	16
151	8
152	2
153	1
154	6
155	4
156	5
157	13
158	13
159	12
160	441
161	69
162	24
163	44
164	7
165	3
166	2
167	1
168	3
169	2
170	5
171	117
172	35
173	25
174	10
175	18
176	3
177	17
178	3
179	2
182	6
183	8
184	2
185	3
186	3
187	7
188	4
189	185
190	52
191	80
192	17
193	9
194	3
198	1
199	1
200	5
201	7
202	3
203	12
204	99
205	48
206	15
207	29
208	6
209	4
210	3
211	1
212	1
213	1
214	17
215	13
216	10
217	146
218	37
219	89
220	27
221	53
222	13
223	6
224	2
225	1
228	5
229	12
230	9
231	24
232	9
233	21
234	7
235	11
236	4
237	2
240	3
241	2
242	3
243	3
244	3
245	37
246	12
247	7
248	3
249	1
251	1
254	1
255	1
256	5
257	6
258	2
259	1
260	1
261	5
262	3
263	4
264	1
265	2
271	1
273	2
274	11
275	3
276	2
277	28
278	11
279	5
280	2
282	2
283	1
284	1
287	3
288	2
289	2
290	1
291	22
292	156
293	58
294	26
295	5
296	1
302	1
303	1
304	4
305	68
306	33
307	18
308	4
314	3
316	1
317	1
318	10
319	8
320	5
321	6
322	2
328	3
330	1
331	1
332	24
333	748
334	287
335	140
336	38
337	14
338	3
344	1
345	10
346	4
347	6
348	3
349	1
351	1
356	1
360	1
361	8
362	2
363	1
364	1
367	1
377	1
378	1
379	2
381	1
388	1
392	1
393	11
394	7
395	3
396	1
397	1
418	1
419	6
420	4
421	2
422	4
423	47
424	28
425	13
426	3
437	1
451	2
452	2
