Mass spectrum: Thymine; GC-EI-TOF; MS; n TMS; RT:497.793 sec
Name: Thymine
Class: Natural Product
Formula: C5H6N2O2
Exact mass: 126.04293
SMILES: CC(=C1)C(=O)NC(=O)N1
InChI: InChI=1S/C5H6N2O2/c1-3-2-6-5(9)7-4(3)8/h2H,1H3,(H2,6,7,8,9)
Instrument: Pegasus III TOF-MS system, Leco; GC 6890, Agilent Technologies
Instrument type: GC-EI-TOF
Ms type: MS
Ion mode: POSITIVE
Column name: CP-SIL 8 CB LOW BLEED/MS
Retention time: 497.793  sec
m/z	relative intensity
85	64
86	96
87	30
88	8
89	10
90	2
91	7
92	4
93	17
94	3
95	12
96	14
97	15
98	28
99	73
100	248
101	34
102	21
103	25
104	5
105	25
106	93
107	22
108	3
109	11
110	29
111	26
112	39
113	956
114	109
115	65
116	16
117	49
118	8
119	10
120	201
121	21
122	2
123	16
124	6
125	10
126	13
127	40
128	16
129	11
130	8
131	154
132	32
133	87
134	13
135	6
136	6
137	3
138	4
139	28
140	203
141	29
142	20
143	8
144	13
145	3
146	4
147	628
148	101
149	55
150	7
151	3
152	2
153	6
154	22
155	8
156	5
157	19
158	64
159	15
160	9
161	1
165	1
167	4
168	2
169	19
170	10
171	4
172	4
173	1
174	12
175	1
179	1
180	12
181	15
182	18
183	28
184	16
185	52
186	11
187	5
188	1
195	2
196	7
197	26
198	14
199	7
200	2
202	1
210	1
211	5
212	11
213	6
214	2
215	1
223	1
224	1
225	9
226	2
227	2
228	1
239	64
240	24
241	8
242	1
246	1
247	1
251	1
253	5
254	10
255	999
256	248
257	100
258	18
259	4
260	1
261	2
262	1
263	2
264	2
265	2
266	2
267	1
269	20
270	324
271	79
272	32
273	4
