Mass spectrum: Lauric acid; GC-EI-TOF; MS; n TMS; RT:624.893 sec
Name: Lauric acid
Class: Natural Product
Formula: C12H24O2
Exact mass: 200.17763
SMILES: CCCCCCCCCCCC(O)=O
InChI: InChI=1S/C12H24O2/c1-2-3-4-5-6-7-8-9-10-11-12(13)14/h2-11H2,1H3,(H,13,14)
Instrument: Pegasus III TOF-MS system, Leco; GC 6890, Agilent Technologies
Instrument type: GC-EI-TOF
Ms type: MS
Ion mode: POSITIVE
Column name: CP-SIL 8 CB LOW BLEED/MS
Retention time: 624.893  sec
m/z	relative intensity
85	29
86	17
87	13
88	11
89	32
90	6
91	13
92	3
93	17
94	4
95	69
96	10
97	41
98	33
99	26
100	4
101	23
102	5
103	8
105	40
106	4
107	7
108	1
109	21
110	3
111	17
112	9
113	3
114	2
115	13
116	77
117	999
118	105
119	44
120	2
121	5
123	3
125	4
126	15
127	5
128	5
129	425
130	56
131	203
132	379
133	65
134	19
135	4
139	6
140	3
141	3
142	2
143	35
144	5
145	153
146	22
147	10
149	1
153	2
155	1
157	16
158	2
159	21
160	3
161	1
163	2
171	18
172	2
173	12
174	2
175	1
181	1
183	1
185	19
186	2
187	17
188	3
191	9
199	3
201	29
202	5
213	18
214	3
215	5
216	1
227	3
229	17
230	4
243	4
256	1
257	271
258	58
259	18
260	2
272	13
273	3
