Mass spectrum: 5-HydroxymethylUracil; GC-EI-TOF; MS; n TMS; RT:628.953 sec
Name: 5-HydroxymethylUracil
Class: Natural Product
Formula: C5H6N2O3
Exact mass: 142.03784
SMILES: OCc(c1)c(O)nc(O)n1
InChI: InChI=1S/C5H6N2O3/c8-2-3-1-6-5(10)7-4(3)9/h1,8H,2H2,(H2,6,7,9,10)
Instrument: Pegasus III TOF-MS system, Leco; GC 6890, Agilent Technologies
Instrument type: GC-EI-TOF
Ms type: MS
Ion mode: POSITIVE
Column name: CP-SIL 8 CB LOW BLEED/MS
Retention time: 628.953  sec
m/z	relative intensity
85	56
86	99
87	44
88	15
89	48
90	6
91	6
92	6
93	7
94	7
95	12
96	22
97	26
98	30
99	96
100	826
101	101
102	61
103	63
104	12
105	30
106	7
107	543
108	37
109	10
110	65
111	28
112	23
113	43
114	35
115	60
116	24
117	79
118	18
119	38
120	14
121	8
122	4
123	5
124	24
125	23
126	37
127	163
128	31
129	20
130	19
131	276
132	83
133	314
134	50
135	27
136	3
137	11
138	7
139	7
140	15
141	23
142	25
143	69
144	46
145	18
146	14
147	836
148	142
149	83
150	12
151	13
152	9
153	14
154	127
155	24
156	20
157	46
158	246
159	56
160	52
161	14
162	4
163	8
164	1
165	3
166	3
167	18
168	17
169	27
170	41
171	21
172	27
173	14
174	281
175	49
176	25
177	6
178	1
179	20
180	6
181	282
182	46
183	22
184	61
185	61
186	18
187	8
188	15
189	12
190	7
191	9
192	3
193	6
194	4
195	45
196	20
197	26
198	25
199	14
200	14
201	9
202	3
203	2
204	2
205	7
206	4
207	13
208	3
209	6
210	7
211	45
212	22
213	14
214	16
215	9
216	5
217	2
218	2
219	1
220	1
221	14
222	4
223	6
224	11
225	67
226	33
227	20
228	19
229	6
230	8
231	4
232	8
233	2
234	1
237	1
238	3
239	78
240	34
241	26
242	13
243	5
244	4
245	4
246	4
247	1
248	2
249	1
250	1
251	3
252	2
253	44
254	29
255	349
256	92
257	51
258	12
259	5
260	1
261	1
263	1
267	11
268	11
269	113
270	57
271	36
272	20
273	6
274	2
275	1
279	1
281	1
282	1
283	17
284	11
285	87
286	38
287	16
288	5
289	2
290	1
291	1
293	1
294	1
296	1
297	1
298	1
299	7
300	3
301	3
302	2
303	1
306	1
309	1
311	2
312	2
313	14
314	8
315	7
316	2
317	1
318	1
325	2
326	5
327	22
328	16
329	11
330	4
331	1
340	1
341	29
342	45
343	381
344	158
345	70
346	18
347	5
348	1
349	2
350	2
351	2
352	2
353	2
354	2
355	3
356	17
357	313
358	999
359	407
360	173
361	45
362	12
363	1
