Mass spectrum: Chlorogenic acid; GC-EI-TOF; MS; n TMS; RT:1111.990 sec
Name: Chlorogenic acid
Class: Natural Product
Formula: C16H18O9
Exact mass: 354.09508
SMILES: O=C(C=Cc(c2)cc(O)c(O)c2)O[C@H](C1)[C@H](O)[C@H](O)C[C@](O)(C(O)=O)1
InChI: InChI=1S/C16H18O9/c17-9-3-1-8(5-10(9)18)2-4-13(20)25-12-7-16(24,15(22)23)6-11(19)14(12)21/h1-5,11-12,14,17-19,21,24H,6-7H2,(H,22,23)/b4-2+/t11-,12-,14-,16+/m1/s1
Instrument: Pegasus III TOF-MS system, Leco; GC 6890, Agilent Technologies
Instrument type: GC-EI-TOF
Ms type: MS
Ion mode: POSITIVE
Column name: CP-SIL 8 CB LOW BLEED/MS
Retention time: 1111.990  sec
m/z	relative intensity
85	20
86	5
87	17
88	19
89	36
90	8
91	70
92	18
93	55
94	12
95	21
96	4
97	13
98	4
99	25
100	5
101	44
102	20
103	165
104	23
105	46
106	7
107	9
108	4
109	17
110	4
111	22
112	9
113	19
114	5
115	80
116	28
117	90
118	14
119	35
120	7
121	27
122	4
123	14
124	3
125	13
126	6
127	23
128	17
129	148
130	24
131	100
132	20
133	233
134	36
135	57
136	11
137	17
138	6
139	19
140	7
141	41
142	20
143	112
144	18
145	32
146	9
147	999
148	166
149	136
150	20
151	87
152	16
153	17
154	10
155	36
156	27
157	28
158	6
159	12
160	12
161	29
162	8
163	40
164	11
165	20
166	34
167	111
168	22
169	20
170	5
171	8
172	3
173	13
174	5
175	29
176	7
177	19
178	4
179	21
180	8
181	32
182	29
183	89
184	19
185	13
186	5
187	7
188	3
189	32
190	25
191	435
192	96
193	96
194	19
195	28
196	5
197	6
198	1
199	5
200	2
201	18
202	7
203	27
204	54
205	31
206	11
207	23
208	7
209	18
210	10
211	13
212	3
213	5
214	2
215	28
216	26
217	64
218	25
219	546
220	103
221	56
222	11
223	35
224	12
225	18
226	6
227	4
228	3
229	11
230	57
231	25
232	12
233	32
234	8
235	9
236	17
237	10
238	7
239	261
240	85
241	42
242	19
243	32
244	20
245	17
246	8
247	10
248	6
249	40
250	14
251	11
252	4
253	5
254	18
255	818
256	220
257	131
258	29
259	14
260	5
261	7
262	2
263	7
264	3
265	7
266	3
267	37
268	13
269	9
270	3
271	9
272	4
273	9
274	3
275	4
276	2
277	14
278	6
279	29
280	33
281	17
282	13
283	58
284	21
285	23
286	7
287	7
288	2
289	12
290	10
291	34
292	65
293	39
294	17
295	6
296	3
297	6
298	4
299	15
300	6
301	3
302	3
303	4
304	5
305	38
306	29
307	430
308	138
309	58
310	15
311	6
312	3
313	25
314	9
315	7
316	2
317	3
318	2
319	2
320	2
321	2
322	4
323	11
324	211
325	72
326	30
327	20
328	7
329	19
330	10
331	21
332	10
333	36
334	36
335	14
336	5
337	3
338	1
339	1
340	1
341	3
342	2
343	7
344	38
345	711
346	282
347	134
348	41
349	12
350	3
351	2
352	1
355	2
356	2
357	10
358	4
359	3
360	1
361	1
363	1
365	1
370	1
371	8
372	76
373	38
374	19
375	10
376	3
377	2
379	1
380	5
381	50
382	22
383	12
384	2
385	1
388	1
389	5
390	2
395	6
396	28
397	85
398	39
399	20
400	6
401	1
406	2
407	1
418	2
419	20
420	11
421	4
422	1
434	1
447	2
448	2
449	1
461	1
462	7
463	7
464	2
469	2
470	2
471	2
