Mass spectrum: Chlorogenic acid; GC-EI-TOF; MS; n TMS; RT:1078.990 sec
Name: Chlorogenic acid
Class: Natural Product
Formula: C16H18O9
Exact mass: 354.09508
SMILES: C1[C@H]([C@H]([C@@H](C[C@@]1(C(=O)O)O)OC(=O)/C=C/C2=CC(=C(C=C2)O)O)O)O
InChI: InChI=1S/C16H18O9/c17-9-3-1-8(5-10(9)18)2-4-13(20)25-12-7-16(24,15(22)23)6-11(19)14(12)21/h1-5,11-12,14,17-19,21,24H,6-7H2,(H,22,23)/b4-2+/t11-,12-,14-,16+/m1/s1
Instrument: Pegasus III TOF-MS system, Leco; GC 6890, Agilent Technologies
Instrument type: GC-EI-TOF
Ms type: MS
Ion mode: POSITIVE
Column name: CP-SIL 8 CB LOW BLEED/MS
Retention time: 1078.990  sec
m/z	relative intensity
85	16
87	18
88	17
89	36
91	72
92	14
93	72
94	5
95	26
96	7
97	10
98	10
99	12
100	2
101	47
102	13
103	164
104	19
105	61
106	4
109	6
110	6
111	11
113	8
114	3
115	85
116	27
117	85
118	6
119	56
120	10
121	22
122	3
123	15
126	10
127	28
128	19
129	163
130	29
131	109
132	24
133	237
134	34
135	61
137	22
139	24
140	6
141	40
142	30
143	121
144	3
145	31
146	2
147	999
148	163
149	145
150	18
151	84
152	6
153	14
154	6
155	33
156	21
157	24
159	10
160	13
161	27
162	5
163	39
164	11
165	14
166	35
167	149
168	24
169	22
171	5
172	5
173	2
174	11
175	24
176	9
177	22
179	13
180	3
181	29
182	36
183	84
184	18
185	9
187	7
188	9
189	34
190	25
191	444
192	95
193	109
194	22
195	20
196	7
197	3
199	3
201	14
202	9
203	25
204	52
205	25
207	30
208	7
209	11
210	1
211	15
212	5
213	1
215	33
216	33
217	69
218	28
219	552
220	110
221	73
222	11
223	30
224	11
225	20
226	6
227	2
229	4
230	59
231	18
232	5
233	30
234	4
235	10
236	15
237	13
238	8
239	282
240	103
241	48
242	11
243	35
244	16
245	4
246	8
247	9
249	33
250	5
251	10
252	1
253	3
254	26
255	833
256	250
257	146
258	38
259	10
260	3
261	7
263	3
265	6
266	3
267	47
268	10
269	17
271	3
274	6
275	8
276	6
277	20
279	18
280	32
281	18
282	10
283	59
284	19
285	21
286	4
287	6
289	6
291	46
292	68
293	57
294	10
296	7
297	13
298	1
299	23
300	7
301	1
302	4
304	12
305	26
306	20
307	460
308	157
309	59
310	7
311	3
312	1
313	17
314	9
315	11
317	3
319	2
320	5
321	6
323	9
324	212
325	69
326	22
327	3
328	5
329	15
330	8
331	14
332	10
333	30
334	35
335	20
336	18
338	15
341	2
344	36
345	674
346	299
347	129
348	45
349	12
350	4
352	6
356	3
359	1
360	9
361	6
363	3
365	3
369	4
370	6
371	8
372	70
373	24
374	15
378	6
381	26
382	12
384	2
385	9
386	1
388	1
389	3
391	1
392	6
395	1
396	25
397	69
398	31
399	16
400	1
405	1
414	4
418	2
419	7
424	7
425	2
428	3
429	7
434	7
438	2
440	10
443	6
445	7
447	11
448	3
449	2
450	5
453	6
457	3
463	4
471	11
473	3
485	5
488	8
494	1
496	5
497	2
500	2
