Mass spectrum: Naphthalen-2-yl 2-aminobenzoate; ESI-QTOF; MS2; CE: 40; [M+H]+
Name: Naphthalen-2-yl 2-aminobenzoate
Name: DTXSID7047697
Formula: C17H13NO2
Exact mass: 263.0946286667
SMILES: NC1C=CC=CC=1C(=O)OC1=CC2C=CC=CC=2C=C1
InChI: InChI=1S/C17H13NO2/c18-16-8-4-3-7-15(16)17(19)20-14-10-9-12-5-1-2-6-13(12)11-14/h1-11H,18H2
Instrument type: ESI-QTOF
Ms type: MS2
Ion mode: POSITIVE
Ionization: ESI
Collision energy: 40
Precursor m/z: 264.1019051184
Precursor type: [M+H]+
m/z	relative intensity
39.022927	17
65.038577	474
92.049476	999
92.083181	18
120.04439	570
