Mass spectrum: 3-{[3-(Dimethylamino)propyl]amino}propanenitrile; ESI-QTOF; MS2; CE: 40; [M+H]+
Name: 3-{[3-(Dimethylamino)propyl]amino}propanenitrile
Name: DTXSID1044980
Formula: C8H17N3
Exact mass: 155.1422475645
SMILES: CN(C)CCCNCCC#N
InChI: InChI=1S/C8H17N3/c1-11(2)8-4-7-10-6-3-5-9/h10H,3-4,6-8H2,1-2H3
Instrument type: ESI-QTOF
Ms type: MS2
Ion mode: POSITIVE
Ionization: ESI
Collision energy: 40
Precursor m/z: 156.1495240162
Precursor type: [M+H]+
m/z	relative intensity
41.038577	21
42.033826	257
43.041651	50
44.049476	11
46.065126	11
54.033826	138
56.049476	34
58.065126	999
70.065126	34
71.072951	12
79.016498	11
83.060375	29
86.096426	23
