Mass spectrum: Surinabant; ESI-QTOF; MS2; CE: 20; [M+H]+
Name: Surinabant
Name: DTXSID2047357
Formula: C23H23BrCl2N4O
Exact mass: 520.0432297056
SMILES: CCC1C(=NN(C=1C1C=CC(Br)=CC=1)C1=CC=C(Cl)C=C1Cl)C(=O)NN1CCCCC1
InChI: InChI=1S/C23H23BrCl2N4O/c1-2-18-21(23(31)28-29-12-4-3-5-13-29)27-30(20-11-10-17(25)14-19(20)26)22(18)15-6-8-16(24)9-7-15/h6-11,14H,2-5,12-13H2,1H3,(H,28,31)
Instrument type: ESI-QTOF
Ms type: MS2
Ion mode: POSITIVE
Ionization: ESI
Collision energy: 20
Precursor m/z: 521.0505061573
Precursor type: [M+H]+
m/z	relative intensity
84.080776	64
394.971193	11
420.950458	524
421.022742	12
521.050506	999
