Mass spectrum: N-(2-Methylphenyl)-3-oxobutanamide; ESI-QTOF; MS2; CE: 20; [M-H]-
Name: N-(2-Methylphenyl)-3-oxobutanamide
Formula: C11H13NO2
Exact mass: 191.0946286667
SMILES: CC(=O)CC(=O)NC1C=CC=CC=1C
InChI: InChI=1S/C11H13NO2/c1-8-5-3-4-6-10(8)12-11(14)7-9(2)13/h3-6H,7H2,1-2H3,(H,12,14)
Instrument type: ESI-QTOF
Ms type: MS2
Ion mode: NEGATIVE
Ionization: ESI
Collision energy: 20
Precursor m/z: 190.087352215
Precursor type: [M-H]-
m/z	relative intensity
39.024024	11
41.003288	150
57.034588	478
58.042413	16
83.013853	999
83.050238	24
84.021678	38
106.066223	719
107.074048	62
