Mass spectrum: Nefiracetam; ESI-QTOF; MS2; CE: 20; [M-H]-
Name: Nefiracetam
Name: DTXSID2020923
Formula: C14H18N2O2
Exact mass: 246.1368278336
SMILES: CC1C=CC=C(C)C=1NC(=O)CN1CCCC1=O
InChI: InChI=1S/C14H18N2O2/c1-10-5-3-6-11(2)14(10)15-12(17)9-16-8-4-7-13(16)18/h3,5-6H,4,7-9H2,1-2H3,(H,15,17)
Instrument type: ESI-QTOF
Ms type: MS2
Ion mode: NEGATIVE
Ionization: ESI
Collision energy: 20
Precursor m/z: 245.1295513819
Precursor type: [M-H]-
m/z	relative intensity
41.998537	15
43.018938	13
68.014187	28
84.045487	311
96.045487	11
120.081873	581
124.040402	176
146.061137	352
146.097523	13
177.103337	16
227.118987	144
245.129551	999
