Mass spectrum: 2,2'-(3-Chlorophenylimino)diethanol; ESI-QTOF; MS2; CE: 10; [M+H]+
Name: 2,2'-(3-Chlorophenylimino)diethanol
Formula: C10H14ClNO2
Exact mass: 215.0713064086
SMILES: OCCN(CCO)C1C=CC=C(Cl)C=1
InChI: InChI=1S/C10H14ClNO2/c11-9-2-1-3-10(8-9)12(4-6-13)5-7-14/h1-3,8,13-14H,4-7H2
Instrument type: ESI-QTOF
Ms type: MS2
Ion mode: POSITIVE
Ionization: ESI
Collision energy: 10
Precursor m/z: 216.0785828603
Precursor type: [M+H]+
m/z	relative intensity
45.033491	13
119.072951	18
132.080776	12
153.033978	17
154.041803	121
172.052368	27
180.057453	40
198.068018	200
216.078583	999
