Mass spectrum: N-Methylhydrazinecarbothioamide; ESI-QTOF; MS2; CE: 20; [M+H]+
Name: N-Methylhydrazinecarbothioamide
Name: DTXSID7044390
Formula: C2H7N3S
Exact mass: 105.0360679755
SMILES: CNC(=S)NN
InChI: InChI=1S/C2H7N3S/c1-4-2(6)5-3/h3H2,1H3,(H2,4,5,6)
Instrument type: ESI-QTOF
Ms type: MS2
Ion mode: POSITIVE
Ionization: ESI
Collision energy: 20
Precursor m/z: 106.0433444272
Precursor type: [M+H]+
m/z	relative intensity
28.018175	13
31.029075	21
32.049476	45
42.033826	59
43.029075	17
44.049476	14
45.032149	19
45.974596	12
47.990246	23
57.044725	328
58.982421	24
59.990246	21
62.005896	999
74.005896	57
75.001145	228
89.016795	118
