Mass spectrum: 6-Nitrobenzimidazole; ESI-QTOF; MS2; CE: 40; [M+H]+
Name: 6-Nitrobenzimidazole
Formula: C7H5N3O2
Exact mass: 163.0381764263
SMILES: [O-][N+](=O)C1=CC2N=CNC=2C=C1
InChI: InChI=1S/C7H5N3O2/c11-10(12)5-1-2-6-7(3-5)9-4-8-6/h1-4H,(H,8,9)
Instrument type: ESI-QTOF
Ms type: MS2
Ion mode: POSITIVE
Ionization: ESI
Collision energy: 40
Precursor m/z: 164.045452878
Precursor type: [M+H]+
m/z	relative intensity
41.026001	23
52.018175	26
52.030752	17
63.022927	48
64.030752	164
65.026001	36
67.041651	11
78.033826	14
79.041651	18
90.033826	22
91.041651	737
117.044725	68
118.05255	999
