Mass spectrum: 1-Hydroxybenzotriazole; ESI-QTOF; MS2; CE: 40; [M+H]+
Name: 1-Hydroxybenzotriazole
Name: DTXSID3044627
Formula: C6H5N3O
Exact mass: 135.043261804
SMILES: ON1N=NC2C=CC=CC1=2
InChI: InChI=1S/C6H5N3O/c10-9-6-4-2-1-3-5(6)7-8-9/h1-4,10H
Instrument type: ESI-QTOF
Ms type: MS2
Ion mode: POSITIVE
Ionization: ESI
Collision energy: 40
Precursor m/z: 136.0505382557
Precursor type: [M+H]+
m/z	relative intensity
38.015101	91
39.022927	13
41.026001	151
50.015101	11
51.022927	75
52.018175	486
53.038577	34
62.015101	58
63.022927	999
63.994366	12
64.030752	639
65.026001	212
76.018175	29
77.038577	64
90.033826	10
91.041651	252
