Mass spectrum: 1,1,2-Trimethyl-1H-benzo[e]indole; ESI-QTOF; MS2; CE: 10; [M+H]+
Name: 1,1,2-Trimethyl-1H-benzo[e]indole
Name: DTXSID4044668
Formula: C15H15N
Exact mass: 209.1204494859
SMILES: CC1=NC2C=CC3C=CC=CC=3C=2C1(C)C
InChI: InChI=1S/C15H15N/c1-10-15(2,3)14-12-7-5-4-6-11(12)8-9-13(14)16-10/h4-9H,1-3H3
Instrument type: ESI-QTOF
Ms type: MS2
Ion mode: POSITIVE
Ionization: ESI
Collision energy: 10
Precursor m/z: 210.1277259376
Precursor type: [M+H]+
m/z	relative intensity
86.096426	29
195.104251	137
210.127726	999
