Mass spectrum: Tripropyl phosphate; ESI-QTOF; MS2; CE: 40; [M+H]+
Name: Tripropyl phosphate
Name: DTXSID4052712
Formula: C9H21O4P
Exact mass: 224.1177456491
SMILES: CCCOP(=O)(OCCC)OCCC
InChI: InChI=1S/C9H21O4P/c1-4-7-11-14(10,12-8-5-2)13-9-6-3/h4-9H2,1-3H3
Instrument type: ESI-QTOF
Ms type: MS2
Ion mode: POSITIVE
Ionization: ESI
Collision energy: 40
Precursor m/z: 225.1250221008
Precursor type: [M+H]+
m/z	relative intensity
41.038577	36
43.054227	46
62.963042	14
80.973607	446
98.984172	999
99.022927	29
99.035813	16
