Mass spectrum: 1,3-Diphenylguanidine; ESI-QTOF; MS2; CE: 40; [M-H]-
Name: 1,3-Diphenylguanidine
Formula: C13H13N3
Exact mass: 211.1109474369
SMILES: N=C(NC1C=CC=CC=1)NC1C=CC=CC=1
InChI: InChI=1S/C13H13N3/c14-13(15-11-7-3-1-4-8-11)16-12-9-5-2-6-10-12/h1-10H,(H3,14,15,16)
Instrument type: ESI-QTOF
Ms type: MS2
Ion mode: NEGATIVE
Ionization: ESI
Collision energy: 40
Precursor m/z: 210.1036709852
Precursor type: [M-H]-
m/z	relative intensity
40.006697	13
41.014522	359
65.039674	18
92.050573	484
117.045822	999
