Mass spectrum: (S)-2-Hydroxypropionic acid; ESI-QTOF; MS2; CE: 10; [M-H]-
Name: (S)-2-Hydroxypropionic acid
Formula: C3H6O3
Exact mass: 90.0316940583
SMILES: C[C@H](O)C(O)=O
InChI: InChI=1S/C3H6O3/c1-2(4)3(5)6/h2,4H,1H3,(H,5,6)/t2-/m0/s1
Instrument type: ESI-QTOF
Ms type: MS2
Ion mode: NEGATIVE
Ionization: ESI
Collision energy: 10
Precursor m/z: 89.0244176066
Precursor type: [M-H]-
m/z	relative intensity
41.003288	14
43.018938	999
44.998203	49
71.013853	50
87.008768	37
89.024418	950
