Mass spectrum: N-Methylacetoacetamide; ESI-QTOF; MS2; CE: 10; [M+H]+
Name: N-Methylacetoacetamide
Name: DTXSID9040138
Formula: C5H9NO2
Exact mass: 115.0633285391
SMILES: CC(=O)CC(=O)NC
InChI: InChI=1S/C5H9NO2/c1-4(7)3-5(8)6-2/h3H2,1-2H3,(H,6,8)
Instrument type: ESI-QTOF
Ms type: MS2
Ion mode: POSITIVE
Ionization: ESI
Collision energy: 10
Precursor m/z: 116.0706049908
Precursor type: [M+H]+
m/z	relative intensity
32.049476	308
32.062052	12
43.017841	999
43.041651	16
43.054227	10
56.049476	42
58.02874	80
59.049141	390
70.065126	148
72.04439	10
74.06004	58
85.028406	235
98.06004	205
99.044056	18
116.070605	726
