Mass spectrum: Butyryl trihexyl citrate; ESI-QTOF; MS2; CE: 20; [M+H]+
Name: Butyryl trihexyl citrate
Formula: C28H50O8
Exact mass: 514.3505685734
SMILES: CCCC(=O)OC(CC(=O)OCCCCCC)(CC(=O)OCCCCCC)C(=O)OCCCCCC
InChI: InChI=1S/C28H50O8/c1-5-9-12-15-19-33-25(30)22-28(36-24(29)18-8-4,27(32)35-21-17-14-11-7-3)23-26(31)34-20-16-13-10-6-2/h5-23H2,1-4H3
Instrument type: ESI-QTOF
Ms type: MS2
Ion mode: POSITIVE
Ionization: ESI
Collision energy: 20
Precursor m/z: 515.3578450251
Precursor type: [M+H]+
m/z	relative intensity
43.017841	34
43.054227	216
57.069877	95
71.049141	668
85.101177	345
89.059706	96
119.085527	33
129.018235	497
130.02606	22
139.002585	192
151.075356	20
157.01315	508
171.137956	11
213.07575	15
213.112135	999
213.163777	15
231.1227	12
241.10705	74
245.065579	46
315.216601	163
325.20095	11
363.252986	19
