Mass spectrum: Arsenobetaine; ESI-QTOF; MS2; CE: 10; [M+H]+
Name: Arsenobetaine
Name: DTXSID0052833
Formula: C5H11AsO2
Exact mass: 177.9975011955
SMILES: C[As+](C)(C)CC([O-])=O
InChI: InChI=1S/C5H11AsO2/c1-6(2,3)4-5(7)8/h4H2,1-3H3
Instrument type: ESI-QTOF
Ms type: MS2
Ion mode: POSITIVE
Ionization: ESI
Collision energy: 10
Precursor m/z: 179.0047776472
Precursor type: [M+H]+
m/z	relative intensity
119.991473	49
179.004778	999
