Mass spectrum: 1,5-Dihydroxynaphthalene; ESI-QTOF; MS2; CE: 20; [M-H]-
Name: 1,5-Dihydroxynaphthalene
Formula: C10H8O2
Exact mass: 160.0524294998
SMILES: OC1C=CC=C2C=1C=CC=C2O
InChI: InChI=1S/C10H8O2/c11-9-5-1-3-7-8(9)4-2-6-10(7)12/h1-6,11-12H
Instrument type: ESI-QTOF
Ms type: MS2
Ion mode: NEGATIVE
Ionization: ESI
Collision energy: 20
Precursor m/z: 159.0451530481
Precursor type: [M-H]-
m/z	relative intensity
41.003288	46
102.047499	10
103.055324	22
115.055324	999
130.042413	69
131.050238	142
158.037328	289
159.045153	265
