Mass spectrum: 1,4-Bis[2-(3,5-dichloropyridyloxy)]benzene; ESI-QTOF; MS2; CE: 10; [M+H]+
Name: 1,4-Bis[2-(3,5-dichloropyridyloxy)]benzene
Name: DTXSID8020175
Formula: C16H8Cl4N2O2
Exact mass: 399.9339883546
SMILES: ClC1C=C(Cl)C=NC=1OC1C=CC(=CC=1)OC1=NC=C(Cl)C=C1Cl
InChI: InChI=1S/C16H8Cl4N2O2/c17-9-5-13(19)15(21-7-9)23-11-1-2-12(4-3-11)24-16-14(20)6-10(18)8-22-16/h1-8H
Instrument type: ESI-QTOF
Ms type: MS2
Ion mode: POSITIVE
Ionization: ESI
Collision energy: 10
Precursor m/z: 400.9412648063
Precursor type: [M+H]+
m/z	relative intensity
237.981608	52
400.941265	999
