Mass spectrum: Bromophenol blue; ESI-QTOF; MS2; CE: 20; [M-H]-
Name: Bromophenol blue
Formula: C19H10Br4O5S
Exact mass: 665.6982457605
SMILES: OC1C(Br)=CC(=CC=1Br)C1(OS(=O)(=O)C2C=CC=CC1=2)C1=CC(Br)=C(O)C(Br)=C1
InChI: InChI=1S/C19H10Br4O5S/c20-12-5-9(6-13(21)17(12)24)19(10-7-14(22)18(25)15(23)8-10)11-3-1-2-4-16(11)29(26,27)28-19/h1-8,24-25H
Instrument type: ESI-QTOF
Ms type: MS2
Ion mode: NEGATIVE
Ionization: ESI
Collision energy: 20
Precursor m/z: 664.6909693088
Precursor type: [M-H]-
m/z	relative intensity
78.918886	40
248.855614	69
520.712377	10
585.705594	19
585.772631	394
664.690969	999
