Mass spectrum: 1,3-Benzenediamine; ESI-QTOF; MS2; CE: 20; [M+H]+
Name: 1,3-Benzenediamine
Formula: C6H8N2
Exact mass: 108.06874827
SMILES: NC1=CC(N)=CC=C1
InChI: InChI=1S/C6H8N2/c7-5-2-1-3-6(8)4-5/h1-4H,7-8H2
Instrument type: ESI-QTOF
Ms type: MS2
Ion mode: POSITIVE
Ionization: ESI
Collision energy: 20
Precursor m/z: 109.0760247217
Precursor type: [M+H]+
m/z	relative intensity
39.022927	63
65.038577	908
66.033826	19
66.046402	10
67.041651	12
80.049476	36
82.065126	45
92.049476	999
93.057301	137
108.0682	140
109.076025	416
