Mass spectrum: N-(2,4-Dimethylphenyl)acetamide; ESI-QTOF; MS2; CE: 10; [M+H]+
Name: N-(2,4-Dimethylphenyl)acetamide
Name: DTXSID0044868
Formula: C10H13NO
Exact mass: 163.0997140444
SMILES: CC1C=C(C)C(=CC=1)NC(C)=O
InChI: InChI=1S/C10H13NO/c1-7-4-5-10(8(2)6-7)11-9(3)12/h4-6H,1-3H3,(H,11,12)
Instrument type: ESI-QTOF
Ms type: MS2
Ion mode: POSITIVE
Ionization: ESI
Collision energy: 10
Precursor m/z: 164.1069904961
Precursor type: [M+H]+
m/z	relative intensity
43.017841	13
105.069877	30
107.072951	70
122.096426	598
123.080441	27
146.096426	13
164.10699	999
