Mass spectrum: AVE5638; ESI-QTOF; MS2; CE: 10; [M+H]+
Name: AVE5638
Name: DTXSID0047371
Formula: C25H23FN2O2
Exact mass: 402.1743561931
SMILES: NCC1C=C(C=CC=1)C1CCN(CC1)C(=O)C1=CC=C(C#CC2=CC=CC=C2F)O1
InChI: InChI=1S/C25H23FN2O2/c26-23-7-2-1-5-20(23)8-9-22-10-11-24(30-22)25(29)28-14-12-19(13-15-28)21-6-3-4-18(16-21)17-27/h1-7,10-11,16,19H,12-15,17,27H2
Instrument type: ESI-QTOF
Ms type: MS2
Ion mode: POSITIVE
Ionization: ESI
Collision energy: 10
Precursor m/z: 403.1816326448
Precursor type: [M+H]+
m/z	relative intensity
56.049476	14
303.081584	106
358.160169	15
386.155084	93
403.181633	999
