Mass spectrum: 2,2,6,6-Tetramethyl-4-piperidone; ESI-QTOF; MS2; CE: 10; [M+H]+
Name: 2,2,6,6-Tetramethyl-4-piperidone
Formula: C9H17NO
Exact mass: 155.131014172
SMILES: CC1(C)CC(=O)CC(C)(C)N1
InChI: InChI=1S/C9H17NO/c1-8(2)5-7(11)6-9(3,4)10-8/h10H,5-6H2,1-4H3
Instrument type: ESI-QTOF
Ms type: MS2
Ion mode: POSITIVE
Ionization: ESI
Collision energy: 10
Precursor m/z: 156.1382906237
Precursor type: [M+H]+
m/z	relative intensity
55.054227	22
58.065126	999
63.994366	22
79.017841	468
79.054227	10
83.049141	69
156.138291	478
