Mass spectrum: N-Phenyldiethanolamine; ESI-QTOF; MS2; CE: 40; [M+H]+
Name: N-Phenyldiethanolamine
Formula: C10H15NO2
Exact mass: 181.1102787305
SMILES: OCCN(CCO)C1C=CC=CC=1
InChI: InChI=1S/C10H15NO2/c12-8-6-11(7-9-13)10-4-2-1-3-5-10/h1-5,12-13H,6-9H2
Instrument type: ESI-QTOF
Ms type: MS2
Ion mode: POSITIVE
Ionization: ESI
Collision energy: 40
Precursor m/z: 182.1175551822
Precursor type: [M+H]+
m/z	relative intensity
42.033826	10
44.049476	46
45.033491	224
51.022927	81
65.038577	50
66.046402	14
77.038577	930
77.083515	12
78.046402	99
79.054227	174
80.049476	10
91.054227	157
92.049476	60
93.057301	118
94.065126	61
103.054227	97
104.049476	24
105.057301	13
106.065126	999
117.057301	25
118.065126	306
119.072951	53
120.080776	152
130.065126	43
132.080776	13
