Mass spectrum: 4-Chloropyridine 1-oxide; ESI-QTOF; MS2; CE: 10; [M-H]-
Name: 4-Chloropyridine 1-oxide
Formula: C5H4ClNO
Exact mass: 128.9981414673
SMILES: [O-][N+]1C=CC(Cl)=CC=1
InChI: InChI=1S/C5H4ClNO/c6-5-1-3-7(8)4-2-5/h1-4H
Instrument type: ESI-QTOF
Ms type: MS2
Ion mode: NEGATIVE
Ionization: ESI
Collision energy: 10
Precursor m/z: 127.9908650156
Precursor type: [M-H]-
m/z	relative intensity
34.969401	87
127.990865	999
