Mass spectrum: 2-Chloro-N-(2-methyl-4-bromophenyl)acetamide; ESI-QTOF; MS2; CE: 40; [M-H]-
Name: 2-Chloro-N-(2-methyl-4-bromophenyl)acetamide
Formula: C9H9BrClNO
Exact mass: 260.9556045268
SMILES: CC1=CC(Br)=CC=C1NC(=O)CCl
InChI: InChI=1S/C9H9BrClNO/c1-6-4-7(10)2-3-8(6)12-9(13)5-11/h2-4H,5H2,1H3,(H,12,13)
Instrument type: ESI-QTOF
Ms type: MS2
Ion mode: NEGATIVE
Ionization: ESI
Collision energy: 40
Precursor m/z: 259.9483280751
Precursor type: [M-H]-
m/z	relative intensity
34.969401	999
64.008526	11
78.918886	26
