Mass spectrum: N-Ethyl-N-(3-methylphenyl)ethane-1,2-diamine; ESI-QTOF; MS2; CE: 10; [M+H]+
Name: N-Ethyl-N-(3-methylphenyl)ethane-1,2-diamine
Name: DTXSID5027803
Formula: C11H18N2
Exact mass: 178.146998589
SMILES: CC1C=C(C=CC=1)N(CCN)CC
InChI: InChI=1S/C11H18N2/c1-3-13(8-7-12)11-6-4-5-10(2)9-11/h4-6,9H,3,7-8,12H2,1-2H3
Instrument type: ESI-QTOF
Ms type: MS2
Ion mode: POSITIVE
Ionization: ESI
Collision energy: 10
Precursor m/z: 179.1542750407
Precursor type: [M+H]+
m/z	relative intensity
44.049476	26
132.080776	22
134.096426	19
136.112076	103
147.104251	47
160.112076	13
162.127726	999
179.154275	325
