Mass spectrum: Carabersat; ESI-QTOF; MS2; CE: 20; [M-H]-
Name: Carabersat
Name: DTXSID6047319
Formula: C20H20FNO4
Exact mass: 357.1376363346
SMILES: CC(=O)C1C=C2C(NC(=O)C3C=CC(F)=CC=3)C(O)C(C)(C)OC2=CC=1
InChI: InChI=1S/C20H20FNO4/c1-11(23)13-6-9-16-15(10-13)17(18(24)20(2,3)26-16)22-19(25)12-4-7-14(21)8-5-12/h4-10,17-18,24H,1-3H3,(H,22,25)
Instrument type: ESI-QTOF
Ms type: MS2
Ion mode: NEGATIVE
Ionization: ESI
Collision energy: 20
Precursor m/z: 356.1303598829
Precursor type: [M-H]-
m/z	relative intensity
41.998537	34
135.045153	104
137.040817	68
138.036066	148
160.040402	343
160.089364	10
162.056052	24
177.072117	78
217.087018	40
283.06502	26
284.072845	458
284.13036	20
285.079527	22
286.088495	22
298.088495	999
299.095177	10
320.109231	103
338.119795	272
356.13036	142
