Mass spectrum: 1-(2-Aminoethyl)piperazine; ESI-QTOF; MS2; CE: 10; [M+H]+
Name: 1-(2-Aminoethyl)piperazine
Name: DTXSID2021997
Formula: C6H15N3
Exact mass: 129.1265975007
SMILES: NCCN1CCNCC1
InChI: InChI=1S/C6H15N3/c7-1-4-9-5-2-8-3-6-9/h8H,1-7H2
Instrument type: ESI-QTOF
Ms type: MS2
Ion mode: POSITIVE
Ionization: ESI
Collision energy: 10
Precursor m/z: 130.1338739524
Precursor type: [M+H]+
m/z	relative intensity
44.049476	36
56.049476	42
58.065126	22
70.065126	17
84.0682	13
84.080776	50
87.091675	33
113.107325	999
130.133874	509
