Mass spectrum: AVE9423; ESI-QTOF; MS2; CE: 20; [M-H]-
Name: AVE9423
Formula: C23H12Cl2F2N2O5
Exact mass: 504.0091333291
SMILES: OC(=O)C1=CC=CC=C1N1C=C(C(=O)C2C=C(NC3C(Cl)=CC(F)=CC=3F)C(Cl)=CC1=2)C(O)=O
InChI: InChI=1S/C23H12Cl2F2N2O5/c24-14-8-19-12(7-17(14)28-20-15(25)5-10(26)6-16(20)27)21(30)13(23(33)34)9-29(19)18-4-2-1-3-11(18)22(31)32/h1-9,28H,(H,31,32)(H,33,34)
Instrument type: ESI-QTOF
Ms type: MS2
Ion mode: NEGATIVE
Ionization: ESI
Collision energy: 20
Precursor m/z: 503.0018568774
Precursor type: [M-H]-
m/z	relative intensity
34.969401	65
302.006395	13
323.062615	11
331.044378	205
332.047893	18
342.061018	13
343.068843	617
344.072845	47
351.050606	74
358.031467	27
359.039292	999
360.043295	67
367.020568	45
379.045521	802
380.050178	59
382.980728	89
386.050847	13
387.058672	38
395.01597	208
396.018798	16
403.029777	33
415.022198	165
416.025026	13
421.0197	46
422.027525	17
423.03535	244
424.043175	20
439.005799	12
458.004203	25
459.012028	45
