Mass spectrum: 3,5-Dichlorosalicyl-3,4-dichloroanilide; ESI-QTOF; MS2; CE: 10; [M-H]-
Name: 3,5-Dichlorosalicyl-3,4-dichloroanilide
Formula: C13H7Cl4NO2
Exact mass: 348.9230893153
SMILES: OC1=C(C=C(Cl)C=C1Cl)C(=O)NC1C=C(Cl)C(Cl)=CC=1
InChI: InChI=1S/C13H7Cl4NO2/c14-6-3-8(12(19)11(17)4-6)13(20)18-7-1-2-9(15)10(16)5-7/h1-5,19H,(H,18,20)
Instrument type: ESI-QTOF
Ms type: MS2
Ion mode: NEGATIVE
Ionization: ESI
Collision energy: 10
Precursor m/z: 347.9158128636
Precursor type: [M-H]-
m/z	relative intensity
160.956644	16
347.915813	999
