Mass spectrum: 4-(Methylnitrosamino)-1-(3-pyridyl)-1-butanol; ESI-QTOF; MS2; CE: 40; [M+H]+
Name: 4-(Methylnitrosamino)-1-(3-pyridyl)-1-butanol
Name: DTXSID8020880
Formula: C10H15N3O2
Exact mass: 209.1164267453
SMILES: CN(CCCC(O)C1C=NC=CC=1)N=O
InChI: InChI=1S/C10H15N3O2/c1-13(12-15)7-3-5-10(14)9-4-2-6-11-8-9/h2,4,6,8,10,14H,3,5,7H2,1H3
Instrument type: ESI-QTOF
Ms type: MS2
Ion mode: POSITIVE
Ionization: ESI
Collision energy: 40
Precursor m/z: 210.123703197
Precursor type: [M+H]+
m/z	relative intensity
42.033826	16
44.049476	19
52.030752	27
53.038577	13
65.038577	10
66.046402	25
67.041651	28
77.038577	14
78.033826	42
79.041651	687
79.075356	17
80.049476	324
84.080776	75
92.049476	36
93.057301	999
93.091006	27
93.114816	15
106.065126	172
108.04439	674
108.080776	17
109.052215	245
110.06004	10
117.057301	19
118.065126	24
120.080776	39
121.052215	44
122.06004	266
130.065126	31
136.07569	21
148.07569	47
