Mass spectrum: Methyl glyoxal; ESI-QTOF; MS2; CE: 40; [M+H]+
Name: Methyl glyoxal
Formula: C3H4O2
Exact mass: 72.0211293722
SMILES: CC(=O)C=O
InChI: InChI=1S/C3H4O2/c1-3(5)2-4/h2H,1H3
Instrument type: ESI-QTOF
Ms type: MS2
Ion mode: POSITIVE
Ionization: ESI
Collision energy: 40
Precursor m/z: 73.0284058239
Precursor type: [M+H]+
m/z	relative intensity
29.002191	12
31.017841	29
38.015101	15
39.022927	136
41.038577	16
42.010016	47
43.017841	999
45.033491	94
57.033491	50
