Mass spectrum: Diphenyl isophthalate; ESI-QTOF; MS2; CE: 40; [M+H]+
Name: Diphenyl isophthalate
Name: DTXSID8037752
Formula: C20H14O4
Exact mass: 318.0892089358
SMILES: O=C(OC1C=CC=CC=1)C1=CC(=CC=C1)C(=O)OC1C=CC=CC=1
InChI: InChI=1S/C20H14O4/c21-19(23-17-10-3-1-4-11-17)15-8-7-9-16(14-15)20(22)24-18-12-5-2-6-13-18/h1-14H
Instrument type: ESI-QTOF
Ms type: MS2
Ion mode: POSITIVE
Ionization: ESI
Collision energy: 40
Precursor m/z: 319.0964853875
Precursor type: [M+H]+
m/z	relative intensity
50.015101	10
76.030752	235
77.038577	11
104.025666	999
104.062052	16
105.033491	14
115.054227	201
141.069877	945
151.054227	18
152.062052	34
153.069877	27
168.056966	35
169.064791	106
171.044056	49
197.059706	53
225.054621	94
