Mass spectrum: SAR115740; ESI-QTOF; MS2; CE: 20; [M-H]-
Name: SAR115740
Name: DTXSID1047366
Formula: C24H17F2N3O
Exact mass: 401.1339685868
SMILES: O=C(NC1C=C2C=CNC2=CC=1)C1=CC2=CC(F)=CC=C2N1CC1=CC(F)=CC=C1
InChI: InChI=1S/C24H17F2N3O/c25-18-3-1-2-15(10-18)14-29-22-7-4-19(26)11-17(22)13-23(29)24(30)28-20-5-6-21-16(12-20)8-9-27-21/h1-13,27H,14H2,(H,28,30)
Instrument type: ESI-QTOF
Ms type: MS2
Ion mode: NEGATIVE
Ionization: ESI
Collision energy: 20
Precursor m/z: 400.1266921351
Precursor type: [M-H]-
m/z	relative intensity
95.030052	236
146.041151	294
157.040736	999
157.089698	31
157.103417	18
242.078679	96
291.080196	13
400.126692	270
