Mass spectrum: 2-Ethylhexylparaben; ESI-QTOF; MS2; CE: 40; [M-H]-
Name: 2-Ethylhexylparaben
Name: DTXSID4022525
Formula: C15H22O3
Exact mass: 250.1568945687
SMILES: CCCCC(COC(=O)C1C=CC(O)=CC=1)CC
InChI: InChI=1S/C15H22O3/c1-3-5-6-12(4-2)11-18-15(17)13-7-9-14(16)10-8-13/h7-10,12,16H,3-6,11H2,1-2H3
Instrument type: ESI-QTOF
Ms type: MS2
Ion mode: NEGATIVE
Ionization: ESI
Collision energy: 40
Precursor m/z: 249.149618117
Precursor type: [M-H]-
m/z	relative intensity
91.018938	26
92.026763	999
92.063149	37
93.034588	100
121.029503	11
127.112839	13
