Mass spectrum: 4-Oxopentanoic acid; ESI-QTOF; MS2; CE: 10; [M-H]-
Name: 4-Oxopentanoic acid
Formula: C5H8O3
Exact mass: 116.0473441221
SMILES: CC(=O)CCC(O)=O
InChI: InChI=1S/C5H8O3/c1-4(6)2-3-5(7)8/h2-3H2,1H3,(H,7,8)
Instrument type: ESI-QTOF
Ms type: MS2
Ion mode: NEGATIVE
Ionization: ESI
Collision energy: 10
Precursor m/z: 115.0400676704
Precursor type: [M-H]-
m/z	relative intensity
43.018938	12
69.034588	24
71.050238	999
97.029503	103
115.040068	463
