Mass spectrum: Hexahydro-1,3,5-tris(1-oxoallyl)-1,3,5-triazine; ESI-QTOF; MS2; CE: 40; [M+H]+
Name: Hexahydro-1,3,5-tris(1-oxoallyl)-1,3,5-triazine
Formula: C12H15N3O3
Exact mass: 249.1113413676
SMILES: C=CC(=O)N1CN(CN(C1)C(=O)C=C)C(=O)C=C
InChI: InChI=1S/C12H15N3O3/c1-4-10(16)13-7-14(11(17)5-2)9-15(8-13)12(18)6-3/h4-6H,1-3,7-9H2
Instrument type: ESI-QTOF
Ms type: MS2
Ion mode: POSITIVE
Ionization: ESI
Collision energy: 40
Precursor m/z: 250.1186178193
Precursor type: [M+H]+
m/z	relative intensity
42.033826	30
55.017841	999
55.041651	28
55.054227	19
84.04439	22
