Mass spectrum: 2-Acetamidophenol; ESI-QTOF; MS2; CE: 40; [M-H]-
Name: 2-Acetamidophenol
Name: DTXSID8022082
Formula: C8H9NO2
Exact mass: 151.0633285391
SMILES: CC(=O)NC1C=CC=CC=1O
InChI: InChI=1S/C8H9NO2/c1-6(10)9-7-4-2-3-5-8(7)11/h2-5,11H,1H3,(H,9,10)
Instrument type: ESI-QTOF
Ms type: MS2
Ion mode: NEGATIVE
Ionization: ESI
Collision energy: 40
Precursor m/z: 150.0560520874
Precursor type: [M-H]-
m/z	relative intensity
41.003288	17
41.998537	15
50.003623	10
65.003288	37
78.034923	14
81.034588	25
90.034923	18
91.018938	56
107.037662	999
108.045487	489
