Mass spectrum: 4-(2-Hydroxyethyl)morpholine; ESI-QTOF; MS2; CE: 10; [M+H]+
Name: 4-(2-Hydroxyethyl)morpholine
Name: DTXSID2022090
Formula: C6H13NO2
Exact mass: 131.0946286667
SMILES: OCCN1CCOCC1
InChI: InChI=1S/C6H13NO2/c8-4-1-7-2-5-9-6-3-7/h8H,1-6H2
Instrument type: ESI-QTOF
Ms type: MS2
Ion mode: POSITIVE
Ionization: ESI
Collision energy: 10
Precursor m/z: 132.1019051184
Precursor type: [M+H]+
m/z	relative intensity
45.033491	13
70.065126	43
88.07569	22
114.09134	111
132.101905	999
