Mass spectrum: 2,3,5-Triiodobenzoic acid; ESI-QTOF; MS2; CE: 40; [M-H]-
Name: 2,3,5-Triiodobenzoic acid
Formula: C7H3I3O2
Exact mass: 499.7267083403
SMILES: OC(=O)C1C=C(I)C=C(I)C=1I
InChI: InChI=1S/C7H3I3O2/c8-3-1-4(7(11)12)6(10)5(9)2-3/h1-2H,(H,11,12)
Instrument type: ESI-QTOF
Ms type: MS2
Ion mode: NEGATIVE
Ionization: ESI
Collision energy: 40
Precursor m/z: 498.7194318886
Precursor type: [M-H]-
m/z	relative intensity
126.905017	999
