Mass spectrum: 2-[2-(2-Propoxyethoxy)ethoxy]ethanol; ESI-QTOF; MS2; CE: 20; [M+H]+
Name: 2-[2-(2-Propoxyethoxy)ethoxy]ethanol
Name: DTXSID8044880
Formula: C9H20O4
Exact mass: 192.1361591272
SMILES: CCCOCCOCCOCCO
InChI: InChI=1S/C9H20O4/c1-2-4-11-6-8-13-9-7-12-5-3-10/h10H,2-9H2,1H3
Instrument type: ESI-QTOF
Ms type: MS2
Ion mode: POSITIVE
Ionization: ESI
Collision energy: 20
Precursor m/z: 193.1434355789
Precursor type: [M+H]+
m/z	relative intensity
41.038577	26
43.054227	126
45.033491	999
45.069877	11
69.069877	28
87.080441	22
89.059706	93
