Mass spectrum: 2,2',5,5'-Tetrachlorobenzidine; ESI-QTOF; MS2; CE: 40; [M-H]-
Name: 2,2',5,5'-Tetrachlorobenzidine
Name: DTXSID7021314
Formula: C12H8Cl4N2
Exact mass: 319.94415911
SMILES: NC1C=C(Cl)C(=CC=1Cl)C1C=C(Cl)C(N)=CC=1Cl
InChI: InChI=1S/C12H8Cl4N2/c13-7-3-11(17)9(15)1-5(7)6-2-10(16)12(18)4-8(6)14/h1-4H,17-18H2
Instrument type: ESI-QTOF
Ms type: MS2
Ion mode: NEGATIVE
Ionization: ESI
Collision energy: 40
Precursor m/z: 318.9368826583
Precursor type: [M-H]-
m/z	relative intensity
34.969401	999
50.003623	81
50.016199	23
74.003623	80
175.019425	79
175.030172	217
209.964956	110
209.988278	120
209.999024	410
211.006849	96
212.999177	16
214.899435	11
214.910181	15
218.905583	21
245.975702	936
246.983527	90
281.95238	70
