Mass spectrum: 1-Phenyltetrazole-5-thiol; ESI-QTOF; MS2; CE: 40; [M-H]-
Name: 1-Phenyltetrazole-5-thiol
Formula: C7H6N4S
Exact mass: 178.031316951
SMILES: S=C1N=NNN1C1C=CC=CC=1
InChI: InChI=1S/C7H6N4S/c12-7-8-9-10-11(7)6-4-2-1-3-5-6/h1-5H,(H,8,10,12)
Instrument type: ESI-QTOF
Ms type: MS2
Ion mode: NEGATIVE
Ionization: ESI
Collision energy: 40
Precursor m/z: 177.0240404993
Precursor type: [M-H]-
m/z	relative intensity
41.014522	35
42.009771	999
42.034923	31
57.975693	249
117.045822	47
