Mass spectrum: Salicylaldehyde oxime; ESI-QTOF; MS2; CE: 10; [M-H]-
Name: Salicylaldehyde oxime
Formula: C7H7NO2
Exact mass: 137.0476784753
SMILES: OC1=CC=CC=C1CN=O
InChI: InChI=1S/C7H7NO2/c9-7-4-2-1-3-6(7)5-8-10/h1-4,9H,5H2
Instrument type: ESI-QTOF
Ms type: MS2
Ion mode: NEGATIVE
Ionization: ESI
Collision energy: 10
Precursor m/z: 136.0404020236
Precursor type: [M-H]-
m/z	relative intensity
41.998537	18
65.003288	10
90.034923	16
91.018938	166
106.042413	126
116.014187	17
118.029837	999
136.040402	32
