Mass spectrum: 3-[5-(Aminosulfonyl)benzoxazol-2-yl]-7-(diethylamino)coumarin; ESI-QTOF; MS2; CE: 40; [M-H]-
Name: 3-[5-(Aminosulfonyl)benzoxazol-2-yl]-7-(diethylamino)coumarin
Name: DTXSID6041476
Formula: C20H19N3O5S
Exact mass: 413.1045414698
SMILES: CCN(CC)C1=CC=C2C=C(C3=NC4C=C(C=CC=4O3)S(N)(=O)=O)C(=O)OC2=C1
InChI: InChI=1S/C20H19N3O5S/c1-3-23(4-2)13-6-5-12-9-15(20(24)28-18(12)10-13)19-22-16-11-14(29(21,25)26)7-8-17(16)27-19/h5-11H,3-4H2,1-2H3,(H2,21,25,26)
Instrument type: ESI-QTOF
Ms type: MS2
Ion mode: NEGATIVE
Ionization: ESI
Collision energy: 40
Precursor m/z: 412.0972650181
Precursor type: [M-H]-
m/z	relative intensity
61.970608	53
63.962449	12
77.965523	59
78.034923	15
78.973348	41
79.981173	177
106.029837	11
144.045487	21
172.040402	20
198.043476	23
213.066951	298
304.074107	172
305.05678	18
319.09624	318
320.080255	16
368.034665	999
368.107436	13
369.039119	12
382.050315	56
412.097265	84
