Mass spectrum: C.I. Direct Black 38; ESI-QTOF; MS2; CE: 20; [M-H]-
Name: C.I. Direct Black 38
Name: DTXSID7020184
Formula: C34H27N9O7S2
Exact mass: 737.147485744
SMILES: NC1=CC(N)=C(C=C1)/N=N/C1C=CC(=CC=1)C1C=CC(=CC=1)/N=N/C1=C(C=C2C=C(C(/N=N/C3C=CC=CC=3)=C(O)C2=C1N)S(O)(=O)=O)S(O)(=O)=O
InChI: InChI=1S/C34H27N9O7S2/c35-22-10-15-27(26(36)18-22)41-38-24-11-6-19(7-12-24)20-8-13-25(14-9-20)40-42-32-28(51(45,46)47)16-21-17-29(52(48,49)50)33(34(44)30(21)31(32)37)43-39-23-4-2-1-3-5-23/h1-18,44H,35-37H2,(H,45,46,47)(H,48,49,50)/b41-38+,42-40+,43-39+
Instrument type: ESI-QTOF
Ms type: MS2
Ion mode: NEGATIVE
Ionization: ESI
Collision energy: 20
Precursor m/z: 736.1402092923
Precursor type: [M-H]-
m/z	relative intensity
421.005042	12
631.094245	13
644.089494	20
672.178309	55
736.140209	999
