Mass spectrum: 2,4-Dihydroxybenzaldehyde; ESI-QTOF; MS2; CE: 10; [M-H]-
Name: 2,4-Dihydroxybenzaldehyde
Formula: C7H6O3
Exact mass: 138.0316940583
SMILES: OC1=CC(O)=C(C=O)C=C1
InChI: InChI=1S/C7H6O3/c8-4-5-1-2-6(9)3-7(5)10/h1-4,9-10H
Instrument type: ESI-QTOF
Ms type: MS2
Ion mode: NEGATIVE
Ionization: ESI
Collision energy: 10
Precursor m/z: 137.0244176066
Precursor type: [M-H]-
m/z	relative intensity
41.003288	18
65.039674	31
67.018938	18
91.018938	192
93.034588	118
109.029503	106
135.008768	429
137.024418	999
