Mass spectrum: Methyl 2-methoxybenzoate; ESI-QTOF; MS2; CE: 20; [M+H]+
Name: Methyl 2-methoxybenzoate
Name: DTXSID5047087
Formula: C9H10O3
Exact mass: 166.0629941859
SMILES: COC(=O)C1C=CC=CC=1OC
InChI: InChI=1S/C9H10O3/c1-11-8-6-4-3-5-7(8)9(10)12-2/h3-6H,1-2H3
Instrument type: ESI-QTOF
Ms type: MS2
Ion mode: POSITIVE
Ionization: ESI
Collision energy: 20
Precursor m/z: 167.0702706376
Precursor type: [M+H]+
m/z	relative intensity
57.069877	33
61.007276	71
62.015101	10
63.994366	168
77.038577	15
79.017841	999
79.054227	23
107.049141	85
121.028406	16
149.02332	25
