Mass spectrum: Carminic acid; ESI-QTOF; MS2; CE: 40; [M+H]+
Name: Carminic acid
Formula: C22H20O13
Exact mass: 492.0903907279
SMILES: CC1C(=C(O)C=C2C=1C(=O)C1=C(C2=O)C(O)=C(O)C(C2OC(CO)C(O)C(O)C2O)=C1O)C(O)=O
InChI: InChI=1S/C22H20O13/c1-4-8-5(2-6(24)9(4)22(33)34)13(25)10-11(15(8)27)16(28)12(18(30)17(10)29)21-20(32)19(31)14(26)7(3-23)35-21/h2,7,14,19-21,23-24,26,28-32H,3H2,1H3,(H,33,34)
Instrument type: ESI-QTOF
Ms type: MS2
Ion mode: POSITIVE
Ionization: ESI
Collision energy: 40
Precursor m/z: 493.0976671796
Precursor type: [M+H]+
m/z	relative intensity
45.033491	46
57.033491	42
58.062446	13
69.033491	39
73.028406	23
85.028406	42
103.038971	26
119.085527	27
135.080441	10
225.054621	17
227.070271	10
231.0288	28
241.049535	12
243.071058	11
251.070271	12
253.049535	49
255.065185	13
267.065185	32
269.008064	10
269.038577	13
271.0601	162
281.04445	42
285.039364	11
291.0288	10
293.04445	11
295.0601	40
297.039364	25
298.047189	11
299.055015	134
307.0601	16
309.039364	87
319.023714	13
319.0601	12
321.039364	10
323.060888	37
325.034279	488
327.049929	99
337.034279	331
337.070665	38
339.049929	17
341.029194	47
343.044844	12
347.055015	40
349.034279	32
351.049929	164
353.029194	14
355.044844	999
363.049929	22
365.065579	33
375.049929	65
379.044844	162
391.044844	116
393.060494	38
403.044844	252
409.055408	14
421.055408	28
