Mass spectrum: Phenylparaben; ESI-QTOF; MS2; CE: 40; [M-H]-
Name: Phenylparaben
Name: DTXSID4047882
Formula: C13H10O3
Exact mass: 214.0629941859
SMILES: OC1C=CC(=CC=1)C(=O)OC1C=CC=CC=1
InChI: InChI=1S/C13H10O3/c14-11-8-6-10(7-9-11)13(15)16-12-4-2-1-3-5-12/h1-9,14H
Instrument type: ESI-QTOF
Ms type: MS2
Ion mode: NEGATIVE
Ionization: ESI
Collision energy: 40
Precursor m/z: 213.0557177342
Precursor type: [M-H]-
m/z	relative intensity
65.039674	43
93.034588	999
93.070974	53
