Mass spectrum: 2-Methylimidazole; ESI-QTOF; MS2; CE: 10; [M+H]+
Name: 2-Methylimidazole
Name: DTXSID4022107
Formula: C4H6N2
Exact mass: 82.0530982062
SMILES: CC1NC=CN=1
InChI: InChI=1S/C4H6N2/c1-4-5-2-3-6-4/h2-3H,1H3,(H,5,6)
Instrument type: ESI-QTOF
Ms type: MS2
Ion mode: POSITIVE
Ionization: ESI
Collision energy: 10
Precursor m/z: 83.0603746579
Precursor type: [M+H]+
m/z	relative intensity
42.033826	48
83.060375	999
