Mass spectrum: N-(3-Amino-4-methoxyphenyl)acetamide; ESI-QTOF; MS2; CE: 40; [M+H]+
Name: N-(3-Amino-4-methoxyphenyl)acetamide
Name: DTXSID2027620
Formula: C9H12N2O2
Exact mass: 180.0898776422
SMILES: CC(=O)NC1=CC(N)=C(C=C1)OC
InChI: InChI=1S/C9H12N2O2/c1-6(12)11-7-3-4-9(13-2)8(10)5-7/h3-5H,10H2,1-2H3,(H,11,12)
Instrument type: ESI-QTOF
Ms type: MS2
Ion mode: POSITIVE
Ionization: ESI
Collision energy: 40
Precursor m/z: 181.0971540939
Precursor type: [M+H]+
m/z	relative intensity
41.038577	14
43.017841	140
51.022927	12
52.030752	24
53.038577	71
54.033826	11
63.022927	14
65.038577	40
67.054227	11
77.038577	36
78.033826	12
79.041651	92
80.049476	603
80.083181	12
81.033491	38
81.057301	173
90.033826	13
91.041651	17
92.049476	27
93.057301	15
94.065126	19
95.049141	52
95.060375	178
96.0682	77
97.052215	13
107.036565	18
107.060375	364
108.04439	44
108.0682	999
109.052215	27
122.06004	28
123.055289	53
124.063114	116
