Mass spectrum: Piragliatin; ESI-QTOF; MS2; CE: 10; [M-H]-
Name: Piragliatin
Name: DTXSID3048520
Formula: C19H20ClN3O4S
Exact mass: 421.0863045894
SMILES: CS(=O)(=O)C1=CC=C(C=C1Cl)C(CC1CC(=O)CC1)C(=O)NC1C=NC=CN=1
InChI: InChI=1S/C19H20ClN3O4S/c1-28(26,27)17-5-3-13(10-16(17)20)15(9-12-2-4-14(24)8-12)19(25)23-18-11-21-6-7-22-18/h3,5-7,10-12,15H,2,4,8-9H2,1H3,(H,22,23,25)
Instrument type: ESI-QTOF
Ms type: MS2
Ion mode: NEGATIVE
Ionization: ESI
Collision energy: 10
Precursor m/z: 420.0790281377
Precursor type: [M-H]-
m/z	relative intensity
299.051416	999
299.116307	25
299.140116	10
325.029338	12
420.079028	90
