Mass spectrum: (E,E)-2,4-Decadienal; ESI-QTOF; MS2; CE: 10; [M+H]+
Name: (E,E)-2,4-Decadienal
Name: DTXSID6024911
Formula: C10H16O
Exact mass: 152.1201151327
SMILES: CCCCC/C=C/C=C/C=O
InChI: InChI=1S/C10H16O/c1-2-3-4-5-6-7-8-9-10-11/h6-10H,2-5H2,1H3/b7-6+,9-8+
Instrument type: ESI-QTOF
Ms type: MS2
Ion mode: POSITIVE
Ionization: ESI
Collision energy: 10
Precursor m/z: 153.1273915844
Precursor type: [M+H]+
m/z	relative intensity
45.033491	53
61.007276	15
62.015101	10
63.994366	48
79.017841	999
79.054227	18
151.111742	13
