Mass spectrum: PD 0343701; ESI-QTOF; MS2; CE: 10; [M-H]-
Name: PD 0343701
Name: DTXSID7047271
Formula: C25H30N4OS
Exact mass: 434.2140323389
SMILES: CC1=CC(CCN2CCN(CC2)C2=NSC3=CC=CC=C32)=CC2=C1NC(=O)CC2(C)C
InChI: InChI=1S/C25H30N4OS/c1-17-14-18(15-20-23(17)26-22(30)16-25(20,2)3)8-9-28-10-12-29(13-11-28)24-19-6-4-5-7-21(19)31-27-24/h4-7,14-15H,8-13,16H2,1-3H3,(H,26,30)
Instrument type: ESI-QTOF
Ms type: MS2
Ion mode: NEGATIVE
Ionization: ESI
Collision energy: 10
Precursor m/z: 433.2067558872
Precursor type: [M-H]-
m/z	relative intensity
59.01251	430
69.033246	10
85.02816	441
97.02816	103
115.042748	229
127.042748	43
133.065888	171
134.064508	10
145.05197	400
163.078481	12
189.094131	27
219.105348	82
279.125135	999
279.186672	15
280.125749	26
433.206756	279
