Mass spectrum: dl-Tartaric acid; ESI-QTOF; MS2; CE: 40; [M-H]-
Name: dl-Tartaric acid
Name: DTXSID5046986
Formula: C4H6O6
Exact mass: 150.0164379252
SMILES: OC(=O)C(O)C(O)C(O)=O
InChI: InChI=1S/C4H6O6/c5-1(3(7)8)2(6)4(9)10/h1-2,5-6H,(H,7,8)(H,9,10)
Instrument type: ESI-QTOF
Ms type: MS2
Ion mode: NEGATIVE
Ionization: ESI
Collision energy: 40
Precursor m/z: 149.0091614735
Precursor type: [M-H]-
m/z	relative intensity
41.003288	809
43.018938	999
44.998203	388
56.998203	37
59.013853	220
68.998203	59
72.993117	243
