Mass spectrum: Cyanoguanidine; ESI-QTOF; MS2; CE: 40; [M+H]+
Name: Cyanoguanidine
Name: DTXSID1020354
Formula: C2H4N4
Exact mass: 84.0435961572
SMILES: NC(=N)NC#N
InChI: InChI=1S/C2H4N4/c3-1-6-2(4)5/h(H4,4,5,6)
Instrument type: ESI-QTOF
Ms type: MS2
Ion mode: POSITIVE
Ionization: ESI
Collision energy: 40
Precursor m/z: 85.0508726089
Precursor type: [M+H]+
m/z	relative intensity
41.013424	303
43.029075	841
43.041651	19
44.0369	25
67.016498	20
68.024324	999
