Mass spectrum: GW0742; ESI-QTOF; MS2; CE: 10; [M-H]-
Name: GW0742
Name: DTXSID9040760
Formula: C21H17F4NO3S2
Exact mass: 471.0585976766
SMILES: CC1C=C(C=CC=1OCC(O)=O)SCC1SC(=NC=1C)C1C=C(F)C(=CC=1)C(F)(F)F
InChI: InChI=1S/C21H17F4NO3S2/c1-11-7-14(4-6-17(11)29-9-19(27)28)30-10-18-12(2)26-20(31-18)13-3-5-15(16(22)8-13)21(23,24)25/h3-8H,9-10H2,1-2H3,(H,27,28)
Instrument type: ESI-QTOF
Ms type: MS2
Ion mode: NEGATIVE
Ionization: ESI
Collision energy: 10
Precursor m/z: 470.0513212249
Precursor type: [M-H]-
m/z	relative intensity
123.027395	13
138.014484	544
139.020081	10
196.019963	12
412.045842	579
413.049844	24
470.051321	999
