Mass spectrum: UK-156819; ESI-QTOF; MS2; CE: 20; [M+H]+
Name: UK-156819
Name: DTXSID2047309
Formula: C19H20N2O2
Exact mass: 308.1524778974
SMILES: CC1=C(C2C=CC=CC=2N1CCCCC(O)=O)C1=CN=CC=C1
InChI: InChI=1S/C19H20N2O2/c1-14-19(15-7-6-11-20-13-15)16-8-2-3-9-17(16)21(14)12-5-4-10-18(22)23/h2-3,6-9,11,13H,4-5,10,12H2,1H3,(H,22,23)
Instrument type: ESI-QTOF
Ms type: MS2
Ion mode: POSITIVE
Ionization: ESI
Collision energy: 20
Precursor m/z: 309.1597543491
Precursor type: [M+H]+
m/z	relative intensity
55.054227	10
208.0995	25
209.107325	41
221.107325	14
291.14919	10
309.159754	999
