Mass spectrum: Dexamethasone phosphate; ESI-QTOF; MS2; CE: 20; [M+H]+
Name: Dexamethasone phosphate
Name: DTXSID3047429
Formula: C22H30FO8P
Exact mass: 472.1662326254
SMILES: CC1CC2C3CCC4=CC(=O)C=CC4(C)C3(F)C(O)CC2(C)C1(O)C(=O)COP(O)(O)=O
InChI: InChI=1S/C22H30FO8P/c1-12-8-16-15-5-4-13-9-14(24)6-7-19(13,2)21(15,23)17(25)10-20(16,3)22(12,27)18(26)11-31-32(28,29)30/h6-7,9,12,15-17,25,27H,4-5,8,10-11H2,1-3H3,(H2,28,29,30)
Instrument type: ESI-QTOF
Ms type: MS2
Ion mode: POSITIVE
Ionization: ESI
Collision energy: 20
Precursor m/z: 473.1735090771
Precursor type: [M+H]+
m/z	relative intensity
36.093352	15
43.017841	65
53.039719	17
55.017841	16
59.062028	65
69.033491	38
80.973607	12
81.103893	17
95.085527	69
97.064791	48
98.984172	247
99.044056	15
105.069877	48
107.085527	168
109.064791	126
109.101177	68
110.984172	15
111.080441	55
113.059706	11
115.054227	13
115.075356	63
117.069877	13
119.049141	30
119.085527	145
121.065934	52
121.101177	107
123.080441	69
125.059706	19
125.096091	96
127.075356	30
131.085527	89
131.106656	24
133.101177	61
135.080441	186
135.116827	50
136.064768	35
137.059706	29
137.096091	205
138.979086	18
139.075356	61
139.111742	55
141.069877	17
143.08667	64
145.064791	12
147.080441	658
147.11797	49
149.059706	17
149.096091	184
151.111742	61
157.065934	13
157.10232	54
159.080441	158
159.101571	12
161.059706	66
161.096091	439
161.132477	18
161.145364	10
166.054203	13
167.106656	62
169.064791	43
171.080441	337
171.116827	19
173.059706	14
173.096091	147
175.075356	12
175.111742	30
177.091006	110
183.080441	67
185.059706	71
185.096091	202
187.030728	25
187.075356	291
187.112884	97
189.092149	67
190.055346	10
191.106656	48
195.078072	18
195.114457	23
197.052606	15
197.093722	50
197.132477	83
199.111742	23
201.091006	11
201.128534	10
202.083575	10
203.119543	12
203.144185	12
205.122306	16
206.109002	33
209.096091	80
209.110121	25
209.130107	12
210.103916	38
211.111742	132
213.127392	151
215.046772	20
215.070271	20
215.106656	40
219.114457	13
221.096091	109
222.103916	61
223.111742	137
223.134014	13
224.120709	24
225.083906	11
225.125022	165
227.104287	86
227.143042	362
229.122306	40
233.132477	12
234.137933	22
235.109372	244
236.117197	15
237.127392	647
239.106656	76
239.143042	223
239.18057	11
241.122306	60
243.114457	19
245.088992	20
246.101547	26
249.125022	87
249.161408	18
251.143042	206
253.122306	134
253.158692	246
255.114457	17
255.135587	146
255.187228	10
259.112884	21
259.14927	15
260.117197	30
261.125022	44
262.132847	13
262.96927	13
263.104287	27
263.140672	110
263.1853	10
265.119937	43
265.158692	125
267.139099	88
267.171972	146
271.112884	23
272.119567	17
273.127392	21
273.161408	33
275.140672	61
275.177058	15
276.150867	30
277.119937	54
277.156322	253
278.16766	27
279.137956	69
279.171972	140
280.146924	12
281.153606	34
281.189992	188
283.170399	15
285.148521	11
286.132847	46
286.149246	18
289.158692	105
289.192708	12
291.130856	13
291.171972	823
292.175067	23
293.151237	145
293.182892	14
294.162574	21
295.132871	37
295.169256	295
297.182537	129
301.087064	19
301.158692	289
307.166887	238
309.184906	628
311.165314	11
313.179821	38
319.145758	12
319.166887	999
321.161408	11
325.179821	122
327.195471	158
337.179821	873
343.183286	41
355.190386	394
375.135587	22
378.122676	11
395.150058	20
399.135587	22
417.146151	32
435.156716	395
453.167281	16
455.162944	27
473.173509	51
