Mass spectrum: 2,2'-[(3-Aminopropyl)imino]diethanol; ESI-QTOF; MS2; CE: 10; [M+H]+
Name: 2,2'-[(3-Aminopropyl)imino]diethanol
Name: DTXSID2044680
Formula: C7H18N2O2
Exact mass: 162.1368278336
SMILES: NCCCN(CCO)CCO
InChI: InChI=1S/C7H18N2O2/c8-2-1-3-9(4-6-10)5-7-11/h10-11H,1-8H2
Instrument type: ESI-QTOF
Ms type: MS2
Ion mode: POSITIVE
Ionization: ESI
Collision energy: 10
Precursor m/z: 163.1441042853
Precursor type: [M+H]+
m/z	relative intensity
58.065126	194
88.07569	13
102.09134	14
106.086255	183
118.086255	177
146.117555	538
163.144104	999
