Mass spectrum: 3-Methoxypropylamine; ESI-QTOF; MS2; CE: 10; [M+H]+
Name: 3-Methoxypropylamine
Name: DTXSID7027596
Formula: C4H11NO
Exact mass: 89.0840639806
SMILES: COCCCN
InChI: InChI=1S/C4H11NO/c1-6-4-2-3-5/h2-5H2,1H3
Instrument type: ESI-QTOF
Ms type: MS2
Ion mode: POSITIVE
Ionization: ESI
Collision energy: 10
Precursor m/z: 90.0913404323
Precursor type: [M+H]+
m/z	relative intensity
30.033826	29
41.038577	84
45.033491	191
58.065126	999
73.064791	132
90.09134	259
