Mass spectrum: Ethyl 5-oxo-1-phenyl-4,5-dihydro-1H-pyrazole-3-carboxylate; ESI-QTOF; MS2; CE: 10; [M-H]-
Name: Ethyl 5-oxo-1-phenyl-4,5-dihydro-1H-pyrazole-3-carboxylate
Formula: C12H12N2O3
Exact mass: 232.0847922645
SMILES: CCOC(=O)C1CC(=O)N(N=1)C1C=CC=CC=1
InChI: InChI=1S/C12H12N2O3/c1-2-17-12(16)10-8-11(15)14(13-10)9-6-4-3-5-7-9/h3-7H,2,8H2,1H3
Instrument type: ESI-QTOF
Ms type: MS2
Ion mode: NEGATIVE
Ionization: ESI
Collision energy: 10
Precursor m/z: 231.0775158128
Precursor type: [M-H]-
m/z	relative intensity
40.019273	59
65.998537	22
116.050573	22
117.045822	21
157.040736	36
159.056386	35
231.077516	999
