Mass spectrum: (2S,3S)-3-Methyl-2-(3-oxo-1,2-benzothiazol-2(3H)-yl)pentanoic acid; ESI-QTOF; MS2; CE: 40; [M-H]-
Name: (2S,3S)-3-Methyl-2-(3-oxo-1,2-benzothiazol-2(3H)-yl)pentanoic acid
Name: DTXSID3047261
Formula: C13H15NO3S
Exact mass: 265.0772640828
SMILES: CC(CC)C(C(O)=O)N1SC2C=CC=CC=2C1=O
InChI: InChI=1S/C13H15NO3S/c1-3-8(2)11(13(16)17)14-12(15)9-6-4-5-7-10(9)18-14/h4-8,11H,3H2,1-2H3,(H,16,17)
Instrument type: ESI-QTOF
Ms type: MS2
Ion mode: NEGATIVE
Ionization: ESI
Collision energy: 40
Precursor m/z: 264.0699876311
Precursor type: [M-H]-
m/z	relative intensity
32.980444	102
41.998537	106
106.996094	12
108.003919	254
109.011744	999
109.053312	11
110.016199	12
137.006659	16
150.001908	73
