Mass spectrum: CP-612372; ESI-QTOF; MS2; CE: 40; [M-H]-
Name: CP-612372
Name: DTXSID1047281
Formula: C22H20N4O4
Exact mass: 404.1484551568
SMILES: CC(C)(O)C1C=CC(CNC(=O)C2=CC=CN=C2OC2=CC3=NON=C3C=C2)=CC=1
InChI: InChI=1S/C22H20N4O4/c1-22(2,28)15-7-5-14(6-8-15)13-24-20(27)17-4-3-11-23-21(17)29-16-9-10-18-19(12-16)26-30-25-18/h3-12,28H,13H2,1-2H3,(H,24,27)
Instrument type: ESI-QTOF
Ms type: MS2
Ion mode: NEGATIVE
Ionization: ESI
Collision energy: 40
Precursor m/z: 403.1411787051
Precursor type: [M-H]-
m/z	relative intensity
41.998537	458
50.003623	12
52.019273	14
57.034588	18
65.014522	21
65.998537	17
77.014522	12
78.022347	27
89.014522	39
90.022347	270
91.030172	17
93.022012	21
94.029837	344
102.034923	15
103.030172	20
106.017261	13
116.025421	18
117.045822	17
118.041071	11
119.025086	70
122.024752	24
133.02816	999
133.073099	20
134.033305	26
135.020001	49
138.019667	80
144.032911	20
146.097523	11
159.020001	34
168.045487	13
170.035985	11
170.097523	14
172.027826	22
173.084613	25
185.035651	87
188.108088	25
198.043476	11
211.051301	11
220.051635	11
238.111162	23
251.118987	45
255.113901	46
264.114236	31
265.122061	45
270.113567	12
282.1248	124
293.093166	14
308.116641	59
324.111556	10
324.135365	27
326.0935	22
334.119715	24
349.109485	24
351.088749	24
351.122455	16
353.104399	11
358.119715	12
360.09898	19
363.122455	40
367.120049	79
369.099314	39
369.135699	28
376.13028	39
387.109879	27
