Mass spectrum: 5-Methoxypsoralen; ESI-QTOF; MS2; CE: 10; [M+H]+
Name: 5-Methoxypsoralen
Name: DTXSID1025560
Formula: C12H8O4
Exact mass: 216.0422587444
SMILES: COC1=C2C=COC2=CC2OC(=O)C=CC=21
InChI: InChI=1S/C12H8O4/c1-14-12-7-2-3-11(13)16-10(7)6-9-8(12)4-5-15-9/h2-6H,1H3
Instrument type: ESI-QTOF
Ms type: MS2
Ion mode: POSITIVE
Ionization: ESI
Collision energy: 10
Precursor m/z: 217.0495351961
Precursor type: [M+H]+
m/z	relative intensity
101.02332	24
173.059706	11
202.02606	74
217.049535	999
