Mass spectrum: Ethyl 3-hydroxybenzoate; ESI-QTOF; MS2; CE: 40; [M-H]-
Name: Ethyl 3-hydroxybenzoate
Formula: C9H10O3
Exact mass: 166.0629941859
SMILES: CCOC(=O)C1C=CC=C(O)C=1
InChI: InChI=1S/C9H10O3/c1-2-12-9(11)7-4-3-5-8(10)6-7/h3-6,10H,2H2,1H3
Instrument type: ESI-QTOF
Ms type: MS2
Ion mode: NEGATIVE
Ionization: ESI
Collision energy: 40
Precursor m/z: 165.0557177342
Precursor type: [M-H]-
m/z	relative intensity
39.024024	35
41.003288	18
43.018938	15
65.039674	324
67.018938	12
75.024024	24
92.026763	999
92.063149	17
93.034588	695
93.055718	17
