Mass spectrum: Tetrahydrocurcumin; ESI-QTOF; MS2; CE: 40; [M+H]+
Name: Tetrahydrocurcumin
Name: DTXSID30865801
Formula: C21H24O6
Exact mass: 372.1572884994
SMILES: COC1C=C(CCC(=O)CC(=O)CCC2C=C(OC)C(O)=CC=2)C=CC=1O
InChI: InChI=1S/C21H24O6/c1-26-20-11-14(5-9-18(20)24)3-7-16(22)13-17(23)8-4-15-6-10-19(25)21(12-15)27-2/h5-6,9-12,24-25H,3-4,7-8,13H2,1-2H3
Instrument type: ESI-QTOF
Ms type: MS2
Ion mode: POSITIVE
Ionization: ESI
Collision energy: 40
Precursor m/z: 373.1645649511
Precursor type: [M+H]+
m/z	relative intensity
66.046402	12
79.054227	11
94.041316	46
117.069877	11
122.036231	116
122.05736	10
137.059706	999
145.064791	13
179.070271	27
