Mass spectrum: 2-(N-Ethyl-m-toluidino)ethanol; ESI-QTOF; MS2; CE: 20; [M+H]+
Name: 2-(N-Ethyl-m-toluidino)ethanol
Formula: C11H17NO
Exact mass: 179.131014172
SMILES: CC1C=C(C=CC=1)N(CCO)CC
InChI: InChI=1S/C11H17NO/c1-3-12(7-8-13)11-6-4-5-10(2)9-11/h4-6,9,13H,3,7-8H2,1-2H3
Instrument type: ESI-QTOF
Ms type: MS2
Ion mode: POSITIVE
Ionization: ESI
Collision energy: 20
Precursor m/z: 180.1382906237
Precursor type: [M+H]+
m/z	relative intensity
45.033491	27
91.054227	28
93.069877	13
106.065126	16
107.072951	45
108.080776	66
118.065126	19
119.072951	55
120.080776	999
121.088601	22
132.080776	77
133.088601	37
134.096426	321
135.104251	285
136.112076	125
147.104251	45
151.099165	80
152.10699	62
160.112076	11
162.127726	145
180.138291	134
