Mass spectrum: CI-1044; ESI-QTOF; MS2; CE: 40; [M-H]-
Name: CI-1044
Formula: C23H19N5O2
Exact mass: 397.1538748877
SMILES: NC1C=C2CCN3C2=C(C=1)C(=NC(NC(=O)C1=CN=CC=C1)C3=O)C1C=CC=CC=1
InChI: InChI=1S/C23H19N5O2/c24-17-11-15-8-10-28-20(15)18(12-17)19(14-5-2-1-3-6-14)26-21(23(28)30)27-22(29)16-7-4-9-25-13-16/h1-7,9,11-13,21H,8,10,24H2,(H,27,29)
Instrument type: ESI-QTOF
Ms type: MS2
Ion mode: NEGATIVE
Ionization: ESI
Collision energy: 40
Precursor m/z: 396.146598436
Precursor type: [M-H]-
m/z	relative intensity
41.998537	999
42.022347	19
59.013853	13
78.034923	188
102.034923	65
103.030172	45
116.050573	15
121.040736	183
131.061472	16
132.031569	56
133.040736	10
133.077122	10
143.061472	28
145.077122	22
146.035985	35
156.056721	37
158.072371	149
159.076173	10
160.027826	11
170.073714	9
184.051635	10
186.067285	19
193.077122	20
209.070694	11
219.092772	58
220.088021	27
221.108422	159
231.092772	14
235.087687	342
236.084278	30
238.099928	11
244.089364	16
245.095846	20
246.103671	195
247.087687	63
247.111496	34
248.119321	11
249.101994	27
250.099928	33
257.072037	10
260.082936	13
261.090761	14
261.11457	15
262.098586	75
263.095177	14
272.082936	11
273.090761	16
274.098586	93
275.106411	50
289.109485	85
290.11731	13
298.130948	10
324.115578	15
325.14587	20
326.131228	19
335.13022	16
348.125469	10
350.141119	170
351.125135	18
352.13296	30
352.156769	70
353.140785	64
378.136034	59
