Mass spectrum: 3-(Octyloxy)propan-1-amine; ESI-QTOF; MS2; CE: 20; [M+H]+
Name: 3-(Octyloxy)propan-1-amine
Name: DTXSID2044844
Formula: C11H25NO
Exact mass: 187.1936144272
SMILES: CCCCCCCCOCCCN
InChI: InChI=1S/C11H25NO/c1-2-3-4-5-6-7-10-13-11-8-9-12/h2-12H2,1H3
Instrument type: ESI-QTOF
Ms type: MS2
Ion mode: POSITIVE
Ionization: ESI
Collision energy: 20
Precursor m/z: 188.2008908789
Precursor type: [M+H]+
m/z	relative intensity
30.033826	19
41.038577	82
43.054227	141
57.069877	168
58.065126	999
59.049141	60
71.085527	94
76.07569	55
188.200891	12
