Mass spectrum: Tyrphostin; ESI-QTOF; MS2; CE: 10; [M+H]+
Name: Tyrphostin
Name: DTXSID0051447
Formula: C16H14ClN3O2
Exact mass: 315.0774544234
SMILES: COC1=CC2=C(NC3C=C(Cl)C=CC=3)N=CN=C2C=C1OC
InChI: InChI=1S/C16H14ClN3O2/c1-21-14-7-12-13(8-15(14)22-2)18-9-19-16(12)20-11-5-3-4-10(17)6-11/h3-9H,1-2H3,(H,18,19,20)
Instrument type: ESI-QTOF
Ms type: MS2
Ion mode: POSITIVE
Ionization: ESI
Collision energy: 10
Precursor m/z: 316.0847308751
Precursor type: [M+H]+
m/z	relative intensity
300.053431	18
316.084731	999
