Mass spectrum: Resorcinol monobenzoate; ESI-QTOF; MS2; CE: 40; [M-H]-
Name: Resorcinol monobenzoate
Name: DTXSID1038878
Formula: C13H10O3
Exact mass: 214.0629941859
SMILES: OC1=CC(=CC=C1)OC(=O)C1C=CC=CC=1
InChI: InChI=1S/C13H10O3/c14-11-7-4-8-12(9-11)16-13(15)10-5-2-1-3-6-10/h1-9,14H
Instrument type: ESI-QTOF
Ms type: MS2
Ion mode: NEGATIVE
Ionization: ESI
Collision energy: 40
Precursor m/z: 213.0557177342
Precursor type: [M-H]-
m/z	relative intensity
41.003288	111
63.024024	19
65.003288	67
65.039674	10
67.018938	37
77.039674	999
91.018938	62
101.039674	22
121.029503	75
141.070974	18
143.050238	19
169.065888	12
