Mass spectrum: Sulfotobias acid; ESI-QTOF; MS2; CE: 20; [M-H]-
Name: Sulfotobias acid
Name: DTXSID9044611
Formula: C10H9NO6S2
Exact mass: 302.9871284883
SMILES: NC1C=CC2C(=CC=CC=2C=1S(O)(=O)=O)S(O)(=O)=O
InChI: InChI=1S/C10H9NO6S2/c11-8-5-4-6-7(10(8)19(15,16)17)2-1-3-9(6)18(12,13)14/h1-5H,11H2,(H,12,13,14)(H,15,16,17)
Instrument type: ESI-QTOF
Ms type: MS2
Ion mode: NEGATIVE
Ionization: ESI
Collision energy: 20
Precursor m/z: 301.9798520366
Precursor type: [M-H]-
m/z	relative intensity
79.957363	14
158.061137	12
222.023037	999
301.979852	25
