Mass spectrum: 5HPP-33; ESI-QTOF; MS2; CE: 20; [M-H]-
Name: 5HPP-33
Formula: C20H21NO3
Exact mass: 323.1521435442
SMILES: CC(C)C1C=CC=C(C(C)C)C=1N1C(=O)C2C=C(O)C=CC=2C1=O
InChI: InChI=1S/C20H21NO3/c1-11(2)14-6-5-7-15(12(3)4)18(14)21-19(23)16-9-8-13(22)10-17(16)20(21)24/h5-12,22H,1-4H3
Instrument type: ESI-QTOF
Ms type: MS2
Ion mode: NEGATIVE
Ionization: ESI
Collision energy: 20
Precursor m/z: 322.1448670925
Precursor type: [M-H]-
m/z	relative intensity
306.113567	20
307.121392	19
322.144867	999
