Mass spectrum: N-Hydroxybenzamide; ESI-QTOF; MS2; CE: 40; [M-H]-
Name: N-Hydroxybenzamide
Name: DTXSID7025421
Formula: C7H7NO2
Exact mass: 137.0476784753
SMILES: ONC(=O)C1C=CC=CC=1
InChI: InChI=1S/C7H7NO2/c9-7(8-10)6-4-2-1-3-5-6/h1-5,10H,(H,8,9)
Instrument type: ESI-QTOF
Ms type: MS2
Ion mode: NEGATIVE
Ionization: ESI
Collision energy: 40
Precursor m/z: 136.0404020236
Precursor type: [M-H]-
m/z	relative intensity
40.019273	10
41.998537	999
42.034923	10
57.993452	40
65.039674	37
