Mass spectrum: N-Vinyl-2-pyrrolidone; ESI-QTOF; MS2; CE: 10; [M+H]+
Name: N-Vinyl-2-pyrrolidone
Formula: C6H9NO
Exact mass: 111.0684139168
SMILES: C=CN1CCCC1=O
InChI: InChI=1S/C6H9NO/c1-2-7-5-3-4-6(7)8/h2H,1,3-5H2
Instrument type: ESI-QTOF
Ms type: MS2
Ion mode: POSITIVE
Ionization: ESI
Collision energy: 10
Precursor m/z: 112.0756903685
Precursor type: [M+H]+
m/z	relative intensity
41.038577	162
42.033826	14
44.049476	56
56.049476	20
67.054227	10
69.033491	751
69.069877	54
82.065126	20
84.080776	177
94.065126	13
112.07569	999
