Mass spectrum: Lactose; ESI-QTOF; MS2; CE: 20; [M-H]-
Name: Lactose
Name: DTXSID2023193
Formula: C12H22O11
Exact mass: 342.1162115471
SMILES: O[C@H](CO)[C@@H](O[C@@H]1O[C@H](CO)[C@H](O)[C@H](O)[C@H]1O)[C@H](O)[C@@H](O)C=O
InChI: InChI=1S/C12H22O11/c13-1-4(16)7(18)11(5(17)2-14)23-12-10(21)9(20)8(19)6(3-15)22-12/h1,4-12,14-21H,2-3H2/t4-,5+,6+,7+,8-,9-,10+,11+,12-/m0/s1
Instrument type: ESI-QTOF
Ms type: MS2
Ion mode: NEGATIVE
Ionization: ESI
Collision energy: 20
Precursor m/z: 341.1089350954
Precursor type: [M-H]-
m/z	relative intensity
41.003288	10
43.018938	129
44.998203	225
53.039674	29
57.034588	12
59.013853	675
69.034588	27
71.013853	584
71.050238	16
73.029503	999
73.065888	18
79.018938	13
81.034588	110
83.013853	152
85.029503	40
87.008768	87
89.024418	477
95.013853	12
97.029503	527
99.045153	18
101.024418	853
101.060803	14
113.024418	211
115.040068	83
119.034982	63
125.024418	74
131.034982	20
143.034982	54
161.045547	146
179.056112	15
