Mass spectrum: Triethyl phosphonoacetate; ESI-QTOF; MS2; CE: 10; [M+H]+
Name: Triethyl phosphonoacetate
Formula: C8H17O5P
Exact mass: 224.0813601438
SMILES: CCOC(=O)CP(=O)(OCC)OCC
InChI: InChI=1S/C8H17O5P/c1-4-11-8(9)7-14(10,12-5-2)13-6-3/h4-7H2,1-3H3
Instrument type: ESI-QTOF
Ms type: MS2
Ion mode: POSITIVE
Ionization: ESI
Collision energy: 10
Precursor m/z: 225.0886365955
Precursor type: [M+H]+
m/z	relative intensity
80.973607	23
104.973607	33
109.004907	82
122.984172	999
123.0288	28
123.044056	18
137.036207	23
140.994736	91
151.015472	820
151.0601	24
169.026036	630
179.046772	873
179.0914	23
197.057336	565
225.088637	447
