Mass spectrum: 4-Methylphthalic anhydride; ESI-QTOF; MS2; CE: 10; [M+H]+
Name: 4-Methylphthalic anhydride
Name: DTXSID5027805
Formula: C9H6O3
Exact mass: 162.0316940583
SMILES: CC1=CC2=C(C=C1)C(=O)OC2=O
InChI: InChI=1S/C9H6O3/c1-5-2-3-6-7(4-5)9(11)12-8(6)10/h2-4H,1H3
Instrument type: ESI-QTOF
Ms type: MS2
Ion mode: POSITIVE
Ionization: ESI
Collision energy: 10
Precursor m/z: 163.03897051
Precursor type: [M+H]+
m/z	relative intensity
77.038577	45
79.054227	17
107.049141	47
135.044056	134
163.038971	999
