Mass spectrum: 2,5-Dithiobiurea; ESI-QTOF; MS2; CE: 20; [M-H]-
Name: 2,5-Dithiobiurea
Name: DTXSID8020545
Formula: C2H6N4S2
Exact mass: 150.003387681
SMILES: NC(=S)NNC(N)=S
InChI: InChI=1S/C2H6N4S2/c3-1(7)5-6-2(4)8/h(H3,3,5,7)(H3,4,6,8)
Instrument type: ESI-QTOF
Ms type: MS2
Ion mode: NEGATIVE
Ionization: ESI
Collision energy: 20
Precursor m/z: 148.9961112293
Precursor type: [M-H]-
m/z	relative intensity
32.980444	24
40.006697	60
41.014522	233
45.975693	131
56.025421	225
57.975693	999
64.952515	20
72.986592	989
75.002242	429
81.02067	42
83.03632	29
89.947764	45
90.013141	235
115.00839	111
