Mass spectrum: 2,3-Diaminotoluene; ESI-QTOF; MS2; CE: 20; [M+H]+
Name: 2,3-Diaminotoluene
Name: DTXSID4027494
Formula: C7H10N2
Exact mass: 122.0843983338
SMILES: CC1C=CC=C(N)C=1N
InChI: InChI=1S/C7H10N2/c1-5-3-2-4-6(8)7(5)9/h2-4H,8-9H2,1H3
Instrument type: ESI-QTOF
Ms type: MS2
Ion mode: POSITIVE
Ionization: ESI
Collision energy: 20
Precursor m/z: 123.0916747855
Precursor type: [M+H]+
m/z	relative intensity
39.022927	14
51.022927	25
66.033826	15
66.046402	25
67.041651	19
77.038577	631
78.033826	49
79.054227	973
80.049476	26
81.057301	12
96.080776	16
106.065126	999
107.072951	10
108.0682	196
122.08385	10
123.091675	299
