Mass spectrum: 4',5'-Dibromofluorescein; ESI-QTOF; MS2; CE: 40; [M-H]-
Name: 4',5'-Dibromofluorescein
Name: DTXSID7024904
Formula: C20H10Br2O5
Exact mass: 487.8894992305
SMILES: OC1C=CC2=C(OC3=C(C=CC(O)=C3Br)C32OC(=O)C2=CC=CC=C32)C=1Br
InChI: InChI=1S/C20H10Br2O5/c21-15-13(23)7-5-11-17(15)26-18-12(6-8-14(24)16(18)22)20(11)10-4-2-1-3-9(10)19(25)27-20/h1-8,23-24H
Instrument type: ESI-QTOF
Ms type: MS2
Ion mode: NEGATIVE
Ionization: ESI
Collision energy: 40
Precursor m/z: 486.8822227788
Precursor type: [M-H]-
m/z	relative intensity
78.918886	999
227.050238	23
255.045153	24
256.052978	36
333.963491	449
334.971316	110
360.950581	150
361.92202	17
361.958406	132
362.966231	486
440.876743	25
441.884569	45
