Mass spectrum: 4,4'-Propane-1,3-diyldipyridine; ESI-QTOF; MS2; CE: 20; [M+H]+
Name: 4,4'-Propane-1,3-diyldipyridine
Name: DTXSID6044852
Formula: C13H14N2
Exact mass: 198.1156984614
SMILES: C(CCC1C=CN=CC=1)C1C=CN=CC=1
InChI: InChI=1S/C13H14N2/c1(2-12-4-8-14-9-5-12)3-13-6-10-15-11-7-13/h4-11H,1-3H2
Instrument type: ESI-QTOF
Ms type: MS2
Ion mode: POSITIVE
Ionization: ESI
Collision energy: 20
Precursor m/z: 199.1229749131
Precursor type: [M+H]+
m/z	relative intensity
93.057301	296
94.065126	13
106.065126	285
107.072951	113
199.122975	999
