Mass spectrum: (1,1-Dimethylethyl)urea; ESI-QTOF; MS2; CE: 20; [M-H]-
Name: (1,1-Dimethylethyl)urea
Formula: C5H12N2O
Exact mass: 116.0949630199
SMILES: CC(C)(C)NC(N)=O
InChI: InChI=1S/C5H12N2O/c1-5(2,3)7-4(6)8/h1-3H3,(H3,6,7,8)
Instrument type: ESI-QTOF
Ms type: MS2
Ion mode: NEGATIVE
Ionization: ESI
Collision energy: 20
Precursor m/z: 115.0876865682
Precursor type: [M-H]-
m/z	relative intensity
40.019273	14
41.014522	31
41.998537	999
42.022347	18
43.018938	15
59.025086	13
81.045822	41
97.077122	12
