Mass spectrum: GSK232420A; ESI-QTOF; MS2; CE: 10; [M-H]-
Name: GSK232420A
Formula: C12H9F6N3O
Exact mass: 325.0649811316
SMILES: NC(=O)CN(CC(F)(F)F)C1=CC(=C(C=C1)C#N)C(F)(F)F
InChI: InChI=1S/C12H9F6N3O/c13-11(14,15)6-21(5-10(20)22)8-2-1-7(4-19)9(3-8)12(16,17)18/h1-3H,5-6H2,(H2,20,22)
Instrument type: ESI-QTOF
Ms type: MS2
Ion mode: NEGATIVE
Ionization: ESI
Collision energy: 10
Precursor m/z: 324.0577046799
Precursor type: [M-H]-
m/z	relative intensity
113.015664	20
264.037918	118
284.045248	999
