Mass spectrum: DL-Glutamic acid; ESI-QTOF; MS2; CE: 10; [M-H]-
Name: DL-Glutamic acid
Name: DTXSID6047155
Formula: C5H9NO4
Exact mass: 147.0531577837
SMILES: NC(CCC(O)=O)C(O)=O
InChI: InChI=1S/C5H9NO4/c6-3(5(9)10)1-2-4(7)8/h3H,1-2,6H2,(H,7,8)(H,9,10)
Instrument type: ESI-QTOF
Ms type: MS2
Ion mode: NEGATIVE
Ionization: ESI
Collision energy: 10
Precursor m/z: 146.045881332
Precursor type: [M-H]-
m/z	relative intensity
84.045487	15
85.029503	15
101.024418	20
102.032243	12
102.056052	999
128.011507	19
128.035317	429
146.045881	431
