Mass spectrum: 1,10-Phenanthroline; ESI-QTOF; MS2; CE: 10; [M+H]+
Name: 1,10-Phenanthroline
Name: DTXSID1025857
Formula: C12H8N2
Exact mass: 180.06874827
SMILES: C1=CC2C=CC=NC=2C2N=CC=CC=21
InChI: InChI=1S/C12H8N2/c1-3-9-5-6-10-4-2-8-14-12(10)11(9)13-7-1/h1-8H
Instrument type: ESI-QTOF
Ms type: MS2
Ion mode: POSITIVE
Ionization: ESI
Collision energy: 10
Precursor m/z: 181.0760247217
Precursor type: [M+H]+
m/z	relative intensity
181.076025	999
