Mass spectrum: 3-[Ethyl(phenyl)amino]propanenitrile; ESI-QTOF; MS2; CE: 40; [M+H]+
Name: 3-[Ethyl(phenyl)amino]propanenitrile
Name: DTXSID4044587
Formula: C11H14N2
Exact mass: 174.1156984614
SMILES: CCN(CCC#N)C1C=CC=CC=1
InChI: InChI=1S/C11H14N2/c1-2-13(10-6-9-12)11-7-4-3-5-8-11/h3-5,7-8H,2,6,10H2,1H3
Instrument type: ESI-QTOF
Ms type: MS2
Ion mode: POSITIVE
Ionization: ESI
Collision energy: 40
Precursor m/z: 175.1229749131
Precursor type: [M+H]+
m/z	relative intensity
42.033826	15
51.022927	38
70.065126	10
77.038577	395
78.046402	52
79.054227	132
80.049476	10
90.046402	10
93.057301	35
106.065126	999
118.065126	18
