Mass spectrum: 1,1'-Disulfanediyldiazepan-2-one; ESI-QTOF; MS2; CE: 40; [M+H]+
Name: 1,1'-Disulfanediyldiazepan-2-one
Name: DTXSID1044481
Formula: C12H20N2O2S2
Exact mass: 288.0966193574
SMILES: O=C1CCCCCN1SSN1CCCCCC1=O
InChI: InChI=1S/C12H20N2O2S2/c15-11-7-3-1-5-9-13(11)17-18-14-10-6-2-4-8-12(14)16/h1-10H2
Instrument type: ESI-QTOF
Ms type: MS2
Ion mode: POSITIVE
Ionization: ESI
Collision energy: 40
Precursor m/z: 289.1038958091
Precursor type: [M+H]+
m/z	relative intensity
41.038577	98
42.033826	75
43.054227	22
44.049476	19
45.033491	74
54.033826	28
55.054227	362
56.049476	136
57.069877	14
61.010647	16
65.038577	14
66.046402	12
67.054227	30
68.049476	76
69.069877	444
69.102239	11
70.065126	11
70.073679	25
79.054227	108
80.052846	10
81.057301	17
82.065126	328
83.072951	331
84.080776	31
94.065126	15
95.049141	15
96.080776	999
96.117852	30
96.129085	18
97.010647	14
97.079396	66
104.982718	38
110.06004	11
112.07569	12
114.09134	223
115.045021	11
115.099165	14
148.024917	14
