Mass spectrum: FR130739; ESI-QTOF; MS2; CE: 40; [M+H]+
Name: FR130739
Name: DTXSID1048178
Formula: C24H23N7
Exact mass: 409.2014937855
SMILES: CCCCC1=NC2C=CC=NC=2N1CC1C=CC(=CC=1)C1=CC=CC=C1C1NN=NN=1
InChI: InChI=1S/C24H23N7/c1-2-3-10-22-26-21-9-6-15-25-24(21)31(22)16-17-11-13-18(14-12-17)19-7-4-5-8-20(19)23-27-29-30-28-23/h4-9,11-15H,2-3,10,16H2,1H3,(H,27,28,29,30)
Instrument type: ESI-QTOF
Ms type: MS2
Ion mode: POSITIVE
Ionization: ESI
Collision energy: 40
Precursor m/z: 410.2087702372
Precursor type: [M+H]+
m/z	relative intensity
77.038577	12
79.054227	12
80.049476	15
133.063449	20
140.049476	10
151.054227	16
152.062052	18
153.069877	36
165.069877	19
167.072951	16
176.118224	221
178.065126	37
178.077702	153
179.072951	49
180.080776	276
190.065126	119
191.072951	68
192.080776	110
205.076025	95
206.08385	211
207.091675	999
207.147847	29
207.172999	13
