Mass spectrum: 2-Acetylpyrrole; ESI-QTOF; MS2; CE: 40; [M-H]-
Name: 2-Acetylpyrrole
Formula: C6H7NO
Exact mass: 109.052763853
SMILES: CC(=O)C1=CC=CN1
InChI: InChI=1S/C6H7NO/c1-5(8)6-3-2-4-7-6/h2-4,7H,1H3
Instrument type: ESI-QTOF
Ms type: MS2
Ion mode: NEGATIVE
Ionization: ESI
Collision energy: 40
Precursor m/z: 108.0454874013
Precursor type: [M-H]-
m/z	relative intensity
39.011448	66
39.024024	312
40.019273	274
40.031849	11
41.003288	196
49.008374	20
64.019273	999
65.027098	162
66.034923	640
