Mass spectrum: 2,4,5-Trimethoxybenzaldehyde; ESI-QTOF; MS2; CE: 10; [M+H]+
Name: 2,4,5-Trimethoxybenzaldehyde
Name: DTXSID1022217
Formula: C10H12O4
Exact mass: 196.073558872
SMILES: COC1=CC(C=O)=C(C=C1OC)OC
InChI: InChI=1S/C10H12O4/c1-12-8-5-10(14-3)9(13-2)4-7(8)6-11/h4-6H,1-3H3
Instrument type: ESI-QTOF
Ms type: MS2
Ion mode: POSITIVE
Ionization: ESI
Collision energy: 10
Precursor m/z: 197.0808353237
Precursor type: [M+H]+
m/z	relative intensity
123.044056	18
138.067531	239
139.038971	15
139.075356	31
154.062446	267
167.033885	12
167.070271	66
169.085921	599
182.05736	43
197.080835	999
