Mass spectrum: N,N-Bis(2-hydroxyethyl)formamide; ESI-QTOF; MS2; CE: 10; [M+H]+
Name: N,N-Bis(2-hydroxyethyl)formamide
Name: DTXSID3044625
Formula: C5H11NO3
Exact mass: 133.0738932252
SMILES: OCCN(CCO)C=O
InChI: InChI=1S/C5H11NO3/c7-3-1-6(5-9)2-4-8/h5,7-8H,1-4H2
Instrument type: ESI-QTOF
Ms type: MS2
Ion mode: POSITIVE
Ionization: ESI
Collision energy: 10
Precursor m/z: 134.0811696769
Precursor type: [M+H]+
m/z	relative intensity
42.033826	52
44.049476	109
45.033491	86
62.06004	11
70.065126	351
70.086255	10
72.04439	82
88.07569	673
106.086255	999
116.070605	561
134.08117	210
