Mass spectrum: 3,3'-Sulphonyldianiline; ESI-QTOF; MS2; CE: 20; [M+H]+
Name: 3,3'-Sulphonyldianiline
Name: DTXSID3044962
Formula: C12H12N2O2S
Exact mass: 248.0619483722
SMILES: NC1C=C(C=CC=1)S(=O)(=O)C1=CC(N)=CC=C1
InChI: InChI=1S/C12H12N2O2S/c13-9-3-1-5-11(7-9)17(15,16)12-6-2-4-10(14)8-12/h1-8H,13-14H2
Instrument type: ESI-QTOF
Ms type: MS2
Ion mode: POSITIVE
Ionization: ESI
Collision energy: 20
Precursor m/z: 249.0692248239
Precursor type: [M+H]+
m/z	relative intensity
65.038577	46
92.049476	537
92.083181	12
93.057301	999
93.091006	18
108.04439	15
110.06004	12
133.064791	15
156.011376	37
167.072951	11
168.080776	11
185.107325	13
249.069225	45
