Mass spectrum: dl-Tryptophan; ESI-QTOF; MS2; CE: 20; [M+H]+
Name: dl-Tryptophan
Name: DTXSID0021418
Formula: C11H12N2O2
Exact mass: 204.0898776422
SMILES: NC(CC1=CNC2=CC=CC=C21)C(O)=O
InChI: InChI=1S/C11H12N2O2/c12-9(11(14)15)5-7-6-13-10-4-2-1-3-8(7)10/h1-4,6,9,13H,5,12H2,(H,14,15)
Instrument type: ESI-QTOF
Ms type: MS2
Ion mode: POSITIVE
Ionization: ESI
Collision energy: 20
Precursor m/z: 205.0971540939
Precursor type: [M+H]+
m/z	relative intensity
43.017841	17
58.065126	14
62.06004	12
74.023655	39
91.054227	31
117.057301	11
117.065854	36
118.065126	360
130.065126	47
132.080776	105
142.065126	52
143.072951	47
144.080776	334
146.06004	999
159.091675	103
170.06004	92
188.070605	206
