Mass spectrum: N-(2,4-Dimethylphenyl)-3-oxobutanamide; ESI-QTOF; MS2; CE: 10; [M+H]+
Name: N-(2,4-Dimethylphenyl)-3-oxobutanamide
Formula: C12H15NO2
Exact mass: 205.1102787305
SMILES: CC(=O)CC(=O)NC1=CC=C(C)C=C1C
InChI: InChI=1S/C12H15NO2/c1-8-4-5-11(9(2)6-8)13-12(15)7-10(3)14/h4-6H,7H2,1-3H3,(H,13,15)
Instrument type: ESI-QTOF
Ms type: MS2
Ion mode: POSITIVE
Ionization: ESI
Collision energy: 10
Precursor m/z: 206.1175551822
Precursor type: [M+H]+
m/z	relative intensity
43.017841	105
59.049141	103
85.028406	11
120.080776	14
122.096426	999
146.096426	19
148.07569	304
188.10699	64
206.117555	232
