Mass spectrum: Methyl phenylacetate; ESI-QTOF; MS2; CE: 20; [M+H]+
Name: Methyl phenylacetate
Formula: C9H10O2
Exact mass: 150.0680795636
SMILES: COC(=O)CC1C=CC=CC=1
InChI: InChI=1S/C9H10O2/c1-11-9(10)7-8-5-3-2-4-6-8/h2-6H,7H2,1H3
Instrument type: ESI-QTOF
Ms type: MS2
Ion mode: POSITIVE
Ionization: ESI
Collision energy: 20
Precursor m/z: 151.0753560153
Precursor type: [M+H]+
m/z	relative intensity
45.033491	49
61.007276	58
62.015101	30
63.994366	296
79.017841	999
79.054227	21
