Mass spectrum: 2,6-Diisopropylaniline; ESI-QTOF; MS2; CE: 20; [M+H]+
Name: 2,6-Diisopropylaniline
Name: DTXSID5022279
Formula: C12H19N
Exact mass: 177.1517496135
SMILES: CC(C)C1=CC=CC(C(C)C)=C1N
InChI: InChI=1S/C12H19N/c1-8(2)10-6-5-7-11(9(3)4)12(10)13/h5-9H,13H2,1-4H3
Instrument type: ESI-QTOF
Ms type: MS2
Ion mode: POSITIVE
Ionization: ESI
Collision energy: 20
Precursor m/z: 178.1590260652
Precursor type: [M+H]+
m/z	relative intensity
41.038577	49
43.054227	287
91.054227	406
94.065126	146
105.069877	91
106.065126	18
117.069877	20
119.085527	37
120.080776	109
133.101177	533
134.096426	48
136.112076	199
148.112076	28
160.112076	12
162.127726	366
176.143376	209
178.159026	999
