Mass spectrum: 2-Butenedioic acid (2Z)-, dioctyl ester; ESI-QTOF; MS2; CE: 40; [M+H]+
Name: 2-Butenedioic acid (2Z)-, dioctyl ester
Name: DTXSID1027508
Formula: C20H36O4
Exact mass: 340.2613596376
SMILES: CCCCCCCCOC(=O)/C=C/C(=O)OCCCCCCCC
InChI: InChI=1S/C20H36O4/c1-3-5-7-9-11-13-17-23-19(21)15-16-20(22)24-18-14-12-10-8-6-4-2/h15-16H,3-14,17-18H2,1-2H3/b16-15+
Instrument type: ESI-QTOF
Ms type: MS2
Ion mode: POSITIVE
Ionization: ESI
Collision energy: 40
Precursor m/z: 341.2686360893
Precursor type: [M+H]+
m/z	relative intensity
41.038577	32
43.054227	153
57.069877	191
71.012756	71
71.085527	77
99.00767	999
99.044056	22
99.065185	12
