Mass spectrum: 1,5-Dihydroxynaphthalene; ESI-QTOF; MS2; CE: 40; [M-H]-
Name: 1,5-Dihydroxynaphthalene
Formula: C10H8O2
Exact mass: 160.0524294998
SMILES: OC1C=CC=C2C=1C=CC=C2O
InChI: InChI=1S/C10H8O2/c11-9-5-1-3-7-8(9)4-2-6-10(7)12/h1-6,11-12H
Instrument type: ESI-QTOF
Ms type: MS2
Ion mode: NEGATIVE
Ionization: ESI
Collision energy: 40
Precursor m/z: 159.0451530481
Precursor type: [M-H]-
m/z	relative intensity
41.003288	448
49.008374	30
53.003288	16
65.039674	37
75.024024	11
77.039674	19
88.031849	43
93.034588	16
101.039674	25
102.047499	41
103.055324	31
114.047499	28
115.055324	999
130.042413	74
131.050238	39
158.037328	89
