Mass spectrum: 4-Propylaniline; ESI-QTOF; MS2; CE: 40; [M+H]+
Name: 4-Propylaniline
Name: DTXSID5048180
Formula: C9H13N
Exact mass: 135.1047994221
SMILES: CCCC1=CC=C(N)C=C1
InChI: InChI=1S/C9H13N/c1-2-3-8-4-6-9(10)7-5-8/h4-7H,2-3,10H2,1H3
Instrument type: ESI-QTOF
Ms type: MS2
Ion mode: POSITIVE
Ionization: ESI
Collision energy: 40
Precursor m/z: 136.1120758738
Precursor type: [M+H]+
m/z	relative intensity
39.022927	273
40.030752	15
41.038577	386
42.046402	14
43.054227	56
50.015101	17
51.022927	366
52.030752	29
53.038577	41
62.015101	15
63.022927	117
64.030752	55
65.038577	999
66.046402	112
67.041651	14
67.054227	19
75.022927	20
77.038577	793
78.046402	143
79.054227	119
80.062052	22
89.038577	499
90.046402	332
91.054227	729
92.049476	21
92.062052	82
93.057301	163
94.065126	29
102.046402	13
103.054227	90
104.062052	36
106.065126	200
107.072951	19
115.054227	52
