Mass spectrum: (2-Methylphenoxy)acetic acid; ESI-QTOF; MS2; CE: 40; [M-H]-
Name: (2-Methylphenoxy)acetic acid
Name: DTXSID9041441
Formula: C9H10O3
Exact mass: 166.0629941859
SMILES: CC1C=CC=CC=1OCC(O)=O
InChI: InChI=1S/C9H10O3/c1-7-4-2-3-5-8(7)12-6-9(10)11/h2-5H,6H2,1H3,(H,10,11)
Instrument type: ESI-QTOF
Ms type: MS2
Ion mode: NEGATIVE
Ionization: ESI
Collision energy: 40
Precursor m/z: 165.0557177342
Precursor type: [M-H]-
m/z	relative intensity
41.003288	11
64.031849	13
77.039674	14
79.055324	21
92.026763	36
106.042413	243
107.050238	999
