Mass spectrum: 3-(Trifluoromethyl)phenol; ESI-QTOF; MS2; CE: 40; [M-H]-
Name: 3-(Trifluoromethyl)phenol
Formula: C7H5F3O
Exact mass: 162.0292493818
SMILES: OC1=CC(=CC=C1)C(F)(F)F
InChI: InChI=1S/C7H5F3O/c8-7(9,10)5-2-1-3-6(11)4-5/h1-4,11H
Instrument type: ESI-QTOF
Ms type: MS2
Ion mode: NEGATIVE
Ionization: ESI
Collision energy: 40
Precursor m/z: 161.0219729301
Precursor type: [M-H]-
m/z	relative intensity
42.998952	18
49.008374	12
65.003288	13
68.995758	28
70.993866	12
72.000549	13
73.008374	999
93.014602	92
101.003288	24
121.009516	60
