Mass spectrum: FD and C Red 4; ESI-QTOF; MS2; CE: 10; [M-H]-
Name: FD and C Red 4
Name: DTXSID2021234
Formula: C18H16N2O7S2
Exact mass: 436.0398923413
SMILES: CC1C=C(C)C(=CC=1S(O)(=O)=O)/N=N/C1=CC(=C2C=CC=CC2=C1O)S(O)(=O)=O
InChI: InChI=1S/C18H16N2O7S2/c1-10-7-11(2)16(28(22,23)24)8-14(10)19-20-15-9-17(29(25,26)27)12-5-3-4-6-13(12)18(15)21/h3-9,21H,1-2H3,(H,22,23,24)(H,25,26,27)/b20-19+
Instrument type: ESI-QTOF
Ms type: MS2
Ion mode: NEGATIVE
Ionization: ESI
Collision energy: 10
Precursor m/z: 435.0326158896
Precursor type: [M-H]-
m/z	relative intensity
171.032577	12
200.037997	12
228.002399	14
236.002302	16
355.075801	387
369.055066	12
435.032616	999
