Mass spectrum: 2-Amino-6-chloro-4-nitrophenol; ESI-QTOF; MS2; CE: 40; [M-H]-
Name: 2-Amino-6-chloro-4-nitrophenol
Formula: C6H5ClN2O3
Exact mass: 187.9988697512
SMILES: NC1C=C(C=C(Cl)C=1O)[N+]([O-])=O
InChI: InChI=1S/C6H5ClN2O3/c7-4-1-3(9(11)12)2-5(8)6(4)10/h1-2,10H,8H2
Instrument type: ESI-QTOF
Ms type: MS2
Ion mode: NEGATIVE
Ionization: ESI
Collision energy: 40
Precursor m/z: 186.9915932995
Precursor type: [M-H]-
m/z	relative intensity
34.969401	209
41.003288	65
41.998537	439
45.993452	999
46.017261	19
46.029837	11
49.008374	65
50.003623	174
51.011448	25
51.024024	11
52.019273	20
63.011448	34
65.011842	14
65.998537	153
67.006849	12
68.014187	61
76.019273	167
78.011113	43
79.006362	15
89.998537	19
92.014187	17
93.022012	13
120.009102	89
