Mass spectrum: 4,4'-Methylenebis(N,N-diglycidylaniline); ESI-QTOF; MS2; CE: 40; [M+H]+
Name: 4,4'-Methylenebis(N,N-diglycidylaniline)
Name: DTXSID0042248
Formula: C25H30N2O4
Exact mass: 422.220557461
SMILES: C(C1C=CC(=CC=1)N(CC1CO1)CC1CO1)C1C=CC(=CC=1)N(CC1CO1)CC1CO1
InChI: InChI=1S/C25H30N2O4/c1-5-20(26(10-22-14-28-22)11-23-15-29-23)6-2-18(1)9-19-3-7-21(8-4-19)27(12-24-16-30-24)13-25-17-31-25/h1-8,22-25H,9-17H2
Instrument type: ESI-QTOF
Ms type: MS2
Ion mode: POSITIVE
Ionization: ESI
Collision energy: 40
Precursor m/z: 423.2278339127
Precursor type: [M+H]+
m/z	relative intensity
29.038577	16
42.033826	12
43.054227	19
45.033491	14
54.033826	13
55.054227	26
57.033491	147
71.049141	22
83.049141	22
90.046402	15
91.054227	63
103.054227	10
104.062052	10
105.069877	202
106.065126	27
107.049141	10
115.054227	20
116.049476	59
117.057301	23
117.069877	53
118.065126	532
119.072951	49
120.080776	11
130.065126	139
131.072951	32
132.080776	213
133.064791	11
133.088601	31
142.065126	14
143.072951	43
144.080776	248
145.088601	67
146.096426	152
156.080776	32
157.088601	16
158.096426	33
160.07569	30
162.09134	125
165.069877	29
166.077702	10
170.096426	21
174.09134	61
175.099165	39
186.09134	27
188.10699	24
192.080776	16
193.088601	16
194.096426	10
208.112076	16
209.117221	27
218.117555	999
218.17507	17
219.091675	64
219.116827	15
221.117221	57
223.122975	12
233.107325	12
235.122975	68
237.138625	108
247.122975	34
249.138625	39
251.130466	70
251.154275	68
261.138625	20
263.154275	81
265.13354	17
273.138625	14
275.154275	63
277.13354	14
277.169925	16
279.14919	37
281.16484	45
293.16484	162
305.16484	37
307.17781	16
319.18049	13
323.175404	85
337.191054	58
349.191054	33
