Mass spectrum: Nicotine sulfate; ESI-QTOF; MS2; CE: 10; [M+H]+
Name: Nicotine sulfate
Name: DTXSID8021725
Formula: C10H14N2
Exact mass: 162.1156984614
SMILES: CN1CCCC1C1=CN=CC=C1
InChI: InChI=1S/C10H14N2/c1-12-7-3-5-10(12)9-4-2-6-11-8-9/h2,4,6,8,10H,3,5,7H2,1H3
Instrument type: ESI-QTOF
Ms type: MS2
Ion mode: POSITIVE
Ionization: ESI
Collision energy: 10
Precursor m/z: 163.1229749131
Precursor type: [M+H]+
m/z	relative intensity
44.049476	13
80.049476	36
84.080776	83
106.065126	118
117.057301	45
120.080776	48
130.065126	153
132.080776	312
163.122975	999
