Mass spectrum: PharmaGSID_48507; ESI-QTOF; MS2; CE: 40; [M+H]+
Name: PharmaGSID_48507
Name: DTXSID0048507
Formula: C18H18F2N4O3
Exact mass: 376.1346968707
SMILES: CN1C(=O)C=C(OC2C=CC(F)=CC=2F)C2C=NC(NCC(C)(C)O)=NC1=2
InChI: InChI=1S/C18H18F2N4O3/c1-18(2,26)9-22-17-21-8-11-14(7-15(25)24(3)16(11)23-17)27-13-5-4-10(19)6-12(13)20/h4-8,26H,9H2,1-3H3,(H,21,22,23)
Instrument type: ESI-QTOF
Ms type: MS2
Ion mode: POSITIVE
Ionization: ESI
Collision energy: 40
Precursor m/z: 377.1419733224
Precursor type: [M+H]+
m/z	relative intensity
39.022927	20
53.038577	16
55.054227	725
55.079179	12
59.049141	19
70.065126	20
95.060375	30
120.055624	15
127.035383	39
135.066523	11
136.050538	26
137.050953	10
141.014648	218
146.071274	10
147.066523	75
148.050538	50
148.071668	47
148.084244	28
149.04713	23
152.049476	14
159.066523	11
160.071668	11
160.086924	19
161.058363	17
162.066188	24
162.102574	20
163.061437	465
164.045453	10
164.069262	22
166.064926	19
172.086924	29
173.082173	29
174.089998	19
175.061437	12
176.064337	16
176.081838	50
177.077087	59
178.064926	169
180.04419	199
186.089998	10
187.097823	20
189.077087	37
189.113473	318
190.097488	92
191.056352	103
200.081838	150
201.089663	35
201.113473	33
202.084912	466
202.116373	49
205.072002	27
213.113473	59
215.092737	370
216.100562	12
217.108387	999
218.116213	22
229.108387	25
231.087652	110
245.103302	84
273.058244	19
275.073894	59
276.081919	20
277.089544	25
284.070405	24
285.07823	312
287.072751	108
288.056766	42
289.054501	11
289.088401	13
290.068594	20
303.068808	935
303.130346	12
304.076633	815
304.138171	10
305.084458	558
317.084458	219
318.10486	26
327.081384	14
329.084458	135
331.100109	12
331.136494	11
342.10486	25
343.100109	28
359.131409	520
377.141973	45
