Mass spectrum: N-(2-Methoxyphenyl)-3-oxobutanamide; ESI-QTOF; MS2; CE: 10; [M+H]+
Name: N-(2-Methoxyphenyl)-3-oxobutanamide
Formula: C11H13NO3
Exact mass: 207.089543289
SMILES: CC(=O)CC(=O)NC1C=CC=CC=1OC
InChI: InChI=1S/C11H13NO3/c1-8(13)7-11(14)12-9-5-3-4-6-10(9)15-2/h3-6H,7H2,1-2H3,(H,12,14)
Instrument type: ESI-QTOF
Ms type: MS2
Ion mode: POSITIVE
Ionization: ESI
Collision energy: 10
Precursor m/z: 208.0968197407
Precursor type: [M+H]+
m/z	relative intensity
43.017841	86
59.049141	12
85.028406	31
109.052215	26
124.07569	999
148.07569	32
150.054955	227
190.086255	83
208.09682	116
