Mass spectrum: 1,4-Diazabicyclo[2.2.2]octane; ESI-QTOF; MS2; CE: 20; [M+H]+
Name: 1,4-Diazabicyclo[2.2.2]octane
Name: DTXSID0022016
Formula: C6H12N2
Exact mass: 112.1000483976
SMILES: C1CN2CCN1CC2
InChI: InChI=1S/C6H12N2/c1-2-8-5-3-7(1)4-6-8/h1-6H2
Instrument type: ESI-QTOF
Ms type: MS2
Ion mode: POSITIVE
Ionization: ESI
Collision energy: 20
Precursor m/z: 113.1073248493
Precursor type: [M+H]+
m/z	relative intensity
42.033826	26
43.054227	16
44.049476	14
56.049476	98
58.065126	41
70.065126	65
84.0682	26
84.080776	95
113.107325	999
