Mass spectrum: 4-Ethenylbenzenesulfonic acid; ESI-QTOF; MS2; CE: 20; [M-H]-
Name: 4-Ethenylbenzenesulfonic acid
Name: DTXSID7044635
Formula: C8H8O3S
Exact mass: 184.0194148521
SMILES: C=CC1=CC=C(C=C1)S(O)(=O)=O
InChI: InChI=1S/C8H8O3S/c1-2-7-3-5-8(6-4-7)12(9,10)11/h2-6H,1H2,(H,9,10,11)
Instrument type: ESI-QTOF
Ms type: MS2
Ion mode: NEGATIVE
Ionization: ESI
Collision energy: 20
Precursor m/z: 183.0121384004
Precursor type: [M-H]-
m/z	relative intensity
79.957363	718
79.990378	10
80.965188	41
93.034588	11
117.034588	10
119.050238	999
183.012138	787
