Mass spectrum: 2-Methyl-4-amino-6-methoxy-s-triazine; ESI-QTOF; MS2; CE: 20; [M+H]+
Name: 2-Methyl-4-amino-6-methoxy-s-triazine
Name: DTXSID4041230
Formula: C5H8N4O
Exact mass: 140.0698109071
SMILES: CC1N=C(N=C(N)N=1)OC
InChI: InChI=1S/C5H8N4O/c1-3-7-4(6)9-5(8-3)10-2/h1-2H3,(H2,6,7,8,9)
Instrument type: ESI-QTOF
Ms type: MS2
Ion mode: POSITIVE
Ionization: ESI
Collision energy: 20
Precursor m/z: 141.0770873588
Precursor type: [M+H]+
m/z	relative intensity
42.033826	249
43.029075	405
56.049476	208
57.044725	999
57.069877	24
58.02874	290
68.024324	87
83.023989	23
84.055624	17
85.039639	129
100.050538	190
141.077087	425
