Mass spectrum: N,N,N?,N?-Tetrakis(2-hydroxypropyl)ethylenediamine; ESI-QTOF; MS2; CE: 40; [M+H]+
Name: N,N,N?,N?-Tetrakis(2-hydroxypropyl)ethylenediamine
Formula: C14H32N2O4
Exact mass: 292.2362075248
SMILES: CC(O)CN(CC(C)O)CCN(CC(C)O)CC(C)O
InChI: InChI=1S/C14H32N2O4/c1-11(17)7-15(8-12(2)18)5-6-16(9-13(3)19)10-14(4)20/h11-14,17-20H,5-10H2,1-4H3
Instrument type: ESI-QTOF
Ms type: MS2
Ion mode: POSITIVE
Ionization: ESI
Collision energy: 40
Precursor m/z: 293.2434839765
Precursor type: [M+H]+
m/z	relative intensity
31.017841	28
39.022927	11
41.038577	390
41.059706	10
42.033826	180
43.054227	46
44.049476	72
45.033491	88
55.054227	107
56.049476	265
57.069877	42
58.065126	88
59.049141	555
59.09408	10
60.04439	11
67.054227	70
68.049476	13
69.069877	18
70.065126	68
72.04439	18
72.080776	43
79.054227	17
81.069877	35
82.065126	70
84.080776	999
84.114481	36
84.125715	25
85.088601	13
86.096426	19
96.080776	29
97.088601	13
98.096426	140
100.07569	83
102.09134	313
112.112076	50
114.09134	13
114.127726	11
116.10699	20
124.112076	23
127.099165	15
142.122641	303
160.133205	323
