Mass spectrum: 3-Butyl-1-methyl-1H-imidazol-3-ium; ESI-QTOF; MS2; CE: 20; [M+H]+
Name: 3-Butyl-1-methyl-1H-imidazol-3-ium
Formula: [C8H15N2]+
Exact mass: 139.1235234933
SMILES: CCCCN1C=[N+](C)C=C1
InChI: InChI=1S/C8H15N2/c1-3-4-5-10-7-6-9(2)8-10/h6-8H,3-5H2,1-2H3/q+1
Instrument type: ESI-QTOF
Ms type: MS2
Ion mode: POSITIVE
Ionization: ESI
Collision energy: 20
Precursor m/z: 140.130799945
Precursor type: [M+H]+
m/z	relative intensity
41.038577	161
42.033826	72
42.046402	92
43.041651	27
56.049476	19
57.057301	20
57.069877	97
58.077702	100
83.060375	999
84.0682	952
97.076025	12
140.1308	271
