Mass spectrum: PD 0343701; ESI-QTOF; MS2; CE: 40; [M-H]-
Name: PD 0343701
Name: DTXSID7047271
Formula: C25H30N4OS
Exact mass: 434.2140323389
SMILES: CC1=CC(CCN2CCN(CC2)C2=NSC3=CC=CC=C32)=CC2=C1NC(=O)CC2(C)C
InChI: InChI=1S/C25H30N4OS/c1-17-14-18(15-20-23(17)26-22(30)16-25(20,2)3)8-9-28-10-12-29(13-11-28)24-19-6-4-5-7-21(19)31-27-24/h4-7,14-15H,8-13,16H2,1-3H3,(H,26,30)
Instrument type: ESI-QTOF
Ms type: MS2
Ion mode: NEGATIVE
Ionization: ESI
Collision energy: 40
Precursor m/z: 433.2067558872
Precursor type: [M-H]-
m/z	relative intensity
41.039674	11
43.018938	21
57.034588	78
59.01251	999
59.037662	19
59.050238	13
69.034588	138
71.01251	44
79.018938	43
81.033246	17
85.02816	356
97.02816	111
105.070974	22
133.065888	174
143.086624	12
159.081539	12
163.075111	31
189.090761	12
201.115913	111
433.206756	27
