Mass spectrum: beta-D-Lactose; ESI-QTOF; MS2; CE: 40; [M-H]-
Name: beta-D-Lactose
Name: DTXSID5058723
Formula: C12H22O11
Exact mass: 342.1162115471
SMILES: O[C@@H]1O[C@H](CO)[C@@H](O[C@@H]2O[C@H](CO)[C@H](O)[C@H](O)[C@H]2O)[C@H](O)[C@H]1O
InChI: InChI=1S/C12H22O11/c13-1-3-5(15)6(16)9(19)12(22-3)23-10-4(2-14)21-11(20)8(18)7(10)17/h3-20H,1-2H2/t3-,4-,5+,6+,7-,8-,9-,10-,11-,12+/m1/s1
Instrument type: ESI-QTOF
Ms type: MS2
Ion mode: NEGATIVE
Ionization: ESI
Collision energy: 40
Precursor m/z: 341.1089350954
Precursor type: [M-H]-
m/z	relative intensity
41.003288	48
43.018938	248
44.998203	60
53.039674	34
55.018938	103
56.998203	11
57.034588	64
58.006028	31
58.042413	13
59.013853	999
69.034588	24
71.013853	408
72.021678	17
73.029503	549
79.018938	27
81.034588	26
83.013853	65
85.008374	19
85.029503	56
87.008768	39
87.045153	13
89.024418	94
95.013853	34
97.029503	96
101.024418	26
113.024418	68
131.034982	15
