Mass spectrum: Clonidine; ESI-QTOF; MS2; CE: 40; [M+H]+
Name: Clonidine
Name: DTXSID8044670
Formula: C9H9Cl2N3
Exact mass: 229.0173527293
SMILES: ClC1C=CC=C(Cl)C=1N=C1NCCN1
InChI: InChI=1S/C9H9Cl2N3/c10-6-2-1-3-7(11)8(6)14-9-12-4-5-13-9/h1-3H,4-5H2,(H2,12,13,14)
Instrument type: ESI-QTOF
Ms type: MS2
Ion mode: POSITIVE
Ionization: ESI
Collision energy: 40
Precursor m/z: 230.024629181
Precursor type: [M+H]+
m/z	relative intensity
42.0338255548	45
44.0494756186	999
59.0603746579	35
69.0447245941	22
108.9839541936	24
123.9948532329	51
131.0603746579	10
132.0681996898	11
132.9606319355	44
135.9948532329	44
144.9606319355	71
151.0183283286	28
152.0135773041	17
153.021402336	14
158.0712736972	15
159.0790987291	15
159.9715309748	96
160.086923761	19
171.9715309748	56
184.9667799503	23
185.9871810386	24
186.9824300141	57
194.0479514391	27
212.9980800779	63
230.024629181	47
