Mass spectrum: Dehydrothio-4-toluidine; ESI-QTOF; MS2; CE: 10; [M+H]+
Name: Dehydrothio-4-toluidine
Formula: C14H12N2S
Exact mass: 240.0721191276
SMILES: CC1C=C2SC(=NC2=CC=1)C1C=CC(N)=CC=1
InChI: InChI=1S/C14H12N2S/c1-9-2-7-12-13(8-9)17-14(16-12)10-3-5-11(15)6-4-10/h2-8H,15H2,1H3
Instrument type: ESI-QTOF
Ms type: MS2
Ion mode: POSITIVE
Ionization: ESI
Collision energy: 10
Precursor m/z: 241.0793955793
Precursor type: [M+H]+
m/z	relative intensity
241.079396	999
