Mass spectrum: Butylphthalyl butylglycolate; ESI-QTOF; MS2; CE: 40; [M+H]+
Name: Butylphthalyl butylglycolate
Formula: C18H24O6
Exact mass: 336.1572884994
SMILES: CCCCOC(=O)COC(=O)C1=CC=CC=C1C(=O)OCCCC
InChI: InChI=1S/C18H24O6/c1-3-5-11-22-16(19)13-24-18(21)15-10-8-7-9-14(15)17(20)23-12-6-4-2/h7-10H,3-6,11-13H2,1-2H3
Instrument type: ESI-QTOF
Ms type: MS2
Ion mode: POSITIVE
Ionization: ESI
Collision energy: 40
Precursor m/z: 337.1645649511
Precursor type: [M+H]+
m/z	relative intensity
41.038577	68
43.017841	16
55.054227	16
57.069877	276
65.038577	72
93.033491	100
121.028406	197
149.02332	999
