Mass spectrum: Besonprodil; ESI-QTOF; MS2; CE: 40; [M-H]-
Name: Besonprodil
Name: DTXSID2047270
Formula: C21H23FN2O3S
Exact mass: 402.1413415454
SMILES: O=C1NC2=CC=C(C=C2O1)S(=O)CCN1CCC(CC2C=CC(F)=CC=2)CC1
InChI: InChI=1S/C21H23FN2O3S/c22-17-3-1-15(2-4-17)13-16-7-9-24(10-8-16)11-12-28(26)18-5-6-19-20(14-18)27-21(25)23-19/h1-6,14,16H,7-13H2,(H,23,25)
Instrument type: ESI-QTOF
Ms type: MS2
Ion mode: NEGATIVE
Ionization: ESI
Collision energy: 40
Precursor m/z: 401.1340650937
Precursor type: [M-H]-
m/z	relative intensity
57.975693	29
82.983518	17
83.991343	20
93.988269	18
112.994083	17
120.009102	20
124.994083	13
133.016927	23
136.994083	38
137.978099	19
149.011842	199
152.988998	25
164.988998	117
180.983912	999
181.034017	21
181.056683	10
181.991737	36
