Mass spectrum: 4,4'-Methylenebis(N,N-diglycidylaniline); ESI-QTOF; MS2; CE: 20; [M+H]+
Name: 4,4'-Methylenebis(N,N-diglycidylaniline)
Name: DTXSID0042248
Formula: C25H30N2O4
Exact mass: 422.220557461
SMILES: C(C1C=CC(=CC=1)N(CC1CO1)CC1CO1)C1C=CC(=CC=1)N(CC1CO1)CC1CO1
InChI: InChI=1S/C25H30N2O4/c1-5-20(26(10-22-14-28-22)11-23-15-29-23)6-2-18(1)9-19-3-7-21(8-4-19)27(12-24-16-30-24)13-25-17-31-25/h1-8,22-25H,9-17H2
Instrument type: ESI-QTOF
Ms type: MS2
Ion mode: POSITIVE
Ionization: ESI
Collision energy: 20
Precursor m/z: 423.2278339127
Precursor type: [M+H]+
m/z	relative intensity
105.069877	17
118.065126	27
132.080776	24
144.080776	21
146.096426	11
162.09134	16
188.10699	38
218.117555	999
218.17507	26
218.19888	14
219.116827	13
293.16484	16
307.18049	10
323.175404	24
337.191054	40
349.191054	82
363.206705	10
366.193794	21
375.206705	14
379.201619	154
393.217269	93
405.217269	91
423.227834	458
