Mass spectrum: Raloxifene; ESI-QTOF; MS2; CE: 40; [M-H]-
Name: Raloxifene
Name: Evista
Name: Keoxifene
Formula: C28H27NO4S
Exact mass: 473.1660790879
SMILES: OC1C=CC(=CC=1)C1SC2=CC(O)=CC=C2C=1C(=O)C1C=CC(=CC=1)OCCN1CCCCC1
InChI: InChI=1S/C28H27NO4S/c30-21-8-4-20(5-9-21)28-26(24-13-10-22(31)18-25(24)34-28)27(32)19-6-11-23(12-7-19)33-17-16-29-14-2-1-3-15-29/h4-13,18,30-31H,1-3,14-17H2
Instrument type: ESI-QTOF
Ms type: MS2
Ion mode: NEGATIVE
Ionization: ESI
Collision energy: 40
Precursor m/z: 472.1588026362
Precursor type: [M-H]-
m/z	relative intensity
93.034588	23
211.022309	14
212.030134	15
239.017224	245
240.025049	134
241.032874	112
267.012138	77
267.045153	10
316.056349	10
331.043439	10
332.050573	30
343.042748	21
359.038353	21
360.046178	999
360.118949	17
361.053312	273
472.158803	79
