Mass spectrum: 6-Chloro-2-picolinic acid; ESI-QTOF; MS2; CE: 10; [M+H]+
Name: 6-Chloro-2-picolinic acid
Name: DTXSID7040289
Formula: C6H4ClNO2
Exact mass: 156.9930560896
SMILES: OC(=O)C1C=CC=C(Cl)N=1
InChI: InChI=1S/C6H4ClNO2/c7-5-3-1-2-4(8-5)6(9)10/h1-3H,(H,9,10)
Instrument type: ESI-QTOF
Ms type: MS2
Ion mode: POSITIVE
Ionization: ESI
Collision energy: 10
Precursor m/z: 158.0003325413
Precursor type: [M+H]+
m/z	relative intensity
61.007276	10
63.994853	47
65.002191	13
79.017841	999
80.025666	835
81.020915	20
111.994853	40
139.989768	62
158.000333	12
