Mass spectrum: CP-409092; ESI-QTOF; MS2; CE: 10; [M+H]+
Name: CP-409092
Name: DTXSID2047276
Formula: C17H19N3O2
Exact mass: 297.1477268729
SMILES: CNCC1C=CC(=CC=1)NC(=O)C1=CNC2CCCC(=O)C=21
InChI: InChI=1S/C17H19N3O2/c1-18-9-11-5-7-12(8-6-11)20-17(22)13-10-19-14-3-2-4-15(21)16(13)14/h5-8,10,18-19H,2-4,9H2,1H3,(H,20,22)
Instrument type: ESI-QTOF
Ms type: MS2
Ion mode: POSITIVE
Ionization: ESI
Collision energy: 10
Precursor m/z: 298.1550033246
Precursor type: [M+H]+
m/z	relative intensity
106.065126	503
137.107325	14
162.054955	133
193.097154	10
267.112804	999
280.144439	27
298.155003	96
