Mass spectrum: (+/-)-Apomorphinee; ESI-QTOF; MS2; CE: 20; [M-H]-
Name: (+/-)-Apomorphinee
Name: DTXSID0048185
Formula: C17H17NO2
Exact mass: 267.1259287943
SMILES: CN1CCC2=CC=CC3C4=C(CC1C2=3)C=CC(O)=C4O
InChI: InChI=1S/C17H17NO2/c1-18-8-7-10-3-2-4-12-15(10)13(18)9-11-5-6-14(19)17(20)16(11)12/h2-6,13,19-20H,7-9H2,1H3
Instrument type: ESI-QTOF
Ms type: MS2
Ion mode: NEGATIVE
Ionization: ESI
Collision energy: 20
Precursor m/z: 266.1186523426
Precursor type: [M-H]-
m/z	relative intensity
222.068628	26
223.076453	227
250.087352	12
266.118652	999
