Mass spectrum: Pyrazolone T; ESI-QTOF; MS2; CE: 10; [M-H]-
Name: Pyrazolone T
Formula: C10H8N2O6S
Exact mass: 284.0103067338
SMILES: OC(=O)C1CC(=O)N(N=1)C1C=CC(=CC=1)S(O)(=O)=O
InChI: InChI=1S/C10H8N2O6S/c13-9-5-8(10(14)15)11-12(9)6-1-3-7(4-2-6)19(16,17)18/h1-4H,5H2,(H,14,15)(H,16,17,18)
Instrument type: ESI-QTOF
Ms type: MS2
Ion mode: NEGATIVE
Ionization: ESI
Collision energy: 10
Precursor m/z: 283.0030302821
Precursor type: [M-H]-
m/z	relative intensity
65.998537	424
79.957363	40
172.007387	999
197.986652	275
239.013201	123
283.00303	338
