Mass spectrum: PharmaGSID_48507; ESI-QTOF; MS2; CE: 40; [M-H]-
Name: PharmaGSID_48507
Name: DTXSID0048507
Formula: C18H18F2N4O3
Exact mass: 376.1346968707
SMILES: CN1C(=O)C=C(OC2C=CC(F)=CC=2F)C2C=NC(NCC(C)(C)O)=NC1=2
InChI: InChI=1S/C18H18F2N4O3/c1-18(2,26)9-22-17-21-8-11-14(7-15(25)24(3)16(11)23-17)27-13-5-4-10(19)6-12(13)20/h4-8,26H,9H2,1-3H3,(H,21,22,23)
Instrument type: ESI-QTOF
Ms type: MS2
Ion mode: NEGATIVE
Ionization: ESI
Collision energy: 40
Precursor m/z: 375.127420419
Precursor type: [M-H]-
m/z	relative intensity
89.003088	13
93.014402	14
103.030172	42
109.009516	15
113.02083	40
118.041071	10
127.019881	21
129.015745	897
129.058198	11
130.041071	15
133.02816	13
135.06762	14
148.028969	10
148.051635	157
175.062534	45
176.04655	999
176.095512	12
177.054375	37
185.04937	10
190.049624	137
203.057449	166
204.065274	15
213.046965	10
216.045288	22
254.037328	121
255.044953	17
261.046965	13
270.068428	15
283.06482	13
303.069906	16
