Mass spectrum: 1-Dodecanamine; ESI-QTOF; MS2; CE: 40; [M+H]+
Name: 1-Dodecanamine
Formula: C12H27N
Exact mass: 185.2143498687
SMILES: CCCCCCCCCCCCN
InChI: InChI=1S/C12H27N/c1-2-3-4-5-6-7-8-9-10-11-12-13/h2-13H2,1H3
Instrument type: ESI-QTOF
Ms type: MS2
Ion mode: POSITIVE
Ionization: ESI
Collision energy: 40
Precursor m/z: 186.2216263204
Precursor type: [M+H]+
m/z	relative intensity
29.038577	23
39.022927	31
41.038577	636
43.054227	999
55.054227	31
57.069877	323
71.085527	10
