Mass spectrum: 1,4-Bis(N-isopropylamino)anthraquinone; ESI-QTOF; MS2; CE: 40; [M+H]+
Name: 1,4-Bis(N-isopropylamino)anthraquinone
Name: DTXSID2041250
Formula: C20H22N2O2
Exact mass: 322.1681279612
SMILES: CC(C)NC1=CC=C(NC(C)C)C2=C1C(=O)C1=CC=CC=C1C2=O
InChI: InChI=1S/C20H22N2O2/c1-11(2)21-15-9-10-16(22-12(3)4)18-17(15)19(23)13-7-5-6-8-14(13)20(18)24/h5-12,21-22H,1-4H3
Instrument type: ESI-QTOF
Ms type: MS2
Ion mode: POSITIVE
Ionization: ESI
Collision energy: 40
Precursor m/z: 323.1754044129
Precursor type: [M+H]+
m/z	relative intensity
58.065126	22
210.09134	18
222.09134	10
223.06278	24
223.086589	151
224.070605	76
225.07843	11
236.094414	12
237.102239	53
238.073679	26
239.081504	28
246.09134	21
247.086589	587
247.144104	14
248.070605	35
248.094414	18
249.102239	14
261.102239	10
263.11789	13
265.097154	999
265.158692	40
265.182501	17
266.104979	13
280.120629	14
