Mass spectrum: 2-Chlorobenzamide; ESI-QTOF; MS2; CE: 20; [M+H]+
Name: 2-Chlorobenzamide
Name: DTXSID3052278
Formula: C7H6ClNO
Exact mass: 155.0137915311
SMILES: NC(=O)C1=CC=CC=C1Cl
InChI: InChI=1S/C7H6ClNO/c8-6-4-2-1-3-5(6)7(9)10/h1-4H,(H2,9,10)
Instrument type: ESI-QTOF
Ms type: MS2
Ion mode: POSITIVE
Ionization: ESI
Collision energy: 20
Precursor m/z: 156.0210679828
Precursor type: [M+H]+
m/z	relative intensity
31.017841	14
44.01309	77
44.025666	10
61.007276	54
62.015101	30
62.987028	22
63.994853	327
64.007429	28
75.022927	43
79.018328	999
79.041651	83
79.054227	31
110.999604	160
113.015254	10
136.966293	19
138.994519	255
140.002344	22
156.021068	15
