Mass spectrum: FR167356; ESI-QTOF; MS2; CE: 40; [M+H]+
Name: FR167356
Name: DTXSID1048174
Formula: C19H17Cl2NO3
Exact mass: 377.0585488366
SMILES: CC1OC2C(=CC=CC=2C=1C(C)(C)O)NC(=O)C1C(Cl)=CC=CC=1Cl
InChI: InChI=1S/C19H17Cl2NO3/c1-10-16(19(2,3)24)11-6-4-9-14(17(11)25-10)22-18(23)15-12(20)7-5-8-13(15)21/h4-9,24H,1-3H3,(H,22,23)
Instrument type: ESI-QTOF
Ms type: MS2
Ion mode: POSITIVE
Ionization: ESI
Collision energy: 40
Precursor m/z: 378.0658252883
Precursor type: [M+H]+
m/z	relative intensity
43.017841	19
59.049628	21
108.983954	12
128.062052	35
129.069877	12
143.085527	19
144.960632	76
171.080441	12
172.955547	999
173.002678	15
318.044696	12
342.044696	21
360.055261	20
