Mass spectrum: AVE3247; ESI-QTOF; MS2; CE: 40; [M+H]+
Name: AVE3247
Name: DTXSID4047383
Formula: C25H24ClN5O4S
Exact mass: 525.1237527318
SMILES: OC(=O)C1C=C2N=C(C(=O)NC3CCN(CC3)C3CC3)N(CC3C=C(ON=3)C3=CC=C(Cl)S3)C2=CC=1
InChI: InChI=1S/C25H24ClN5O4S/c26-22-6-5-21(36-22)20-12-16(29-35-20)13-31-19-4-1-14(25(33)34)11-18(19)28-23(31)24(32)27-15-7-9-30(10-8-15)17-2-3-17/h1,4-6,11-12,15,17H,2-3,7-10,13H2,(H,27,32)(H,33,34)
Instrument type: ESI-QTOF
Ms type: MS2
Ion mode: POSITIVE
Ionization: ESI
Collision energy: 40
Precursor m/z: 526.1310291835
Precursor type: [M+H]+
m/z	relative intensity
41.038577	11
55.054227	49
56.049476	15
70.065126	45
72.080776	22
82.065126	23
84.080776	26
96.080776	41
102.09134	12
122.096426	28
124.112076	385
125.070939	26
144.95094	17
163.050691	11
167.11789	999
167.166851	18
169.982087	12
175.050204	24
176.058516	20
197.977489	27
333.008826	10
360.020416	266
385.999681	15
