Mass spectrum: 1,10-Phenanthroline; ESI-QTOF; MS2; CE: 40; [M+H]+
Name: 1,10-Phenanthroline
Name: DTXSID1025857
Formula: C12H8N2
Exact mass: 180.06874827
SMILES: C1=CC2C=CC=NC=2C2N=CC=CC=21
InChI: InChI=1S/C12H8N2/c1-3-9-5-6-10-4-2-8-14-12(10)11(9)13-7-1/h1-8H
Instrument type: ESI-QTOF
Ms type: MS2
Ion mode: POSITIVE
Ionization: ESI
Collision energy: 40
Precursor m/z: 181.0760247217
Precursor type: [M+H]+
m/z	relative intensity
51.022927	18
75.022927	18
77.038577	196
101.038577	114
125.038577	23
126.046402	86
127.054227	650
128.049476	180
129.057301	14
141.057301	16
142.05255	13
152.049476	80
153.057301	131
154.065126	976
155.060375	64
179.060375	219
180.0682	46
181.076025	999
