Mass spectrum: 4-Nitrosodiphenylamine; ESI-QTOF; MS2; CE: 40; [M-H]-
Name: 4-Nitrosodiphenylamine
Name: DTXSID1021031
Formula: C12H10N2O
Exact mass: 198.0793129561
SMILES: O=NC1C=CC(=CC=1)NC1C=CC=CC=1
InChI: InChI=1S/C12H10N2O/c15-14-12-8-6-11(7-9-12)13-10-4-2-1-3-5-10/h1-9,13H
Instrument type: ESI-QTOF
Ms type: MS2
Ion mode: NEGATIVE
Ionization: ESI
Collision energy: 40
Precursor m/z: 197.0720365044
Precursor type: [M-H]-
m/z	relative intensity
38.016199	40
39.024024	13
40.019273	25
50.003623	168
64.019273	130
75.024024	25
90.034923	999
91.042748	49
92.050573	28
121.040736	25
128.050573	11
140.050573	13
165.058398	37
166.066223	774
167.074048	327
