Mass spectrum: Dehydroabietylamine acetate; ESI-QTOF; MS2; CE: 20; [M+H]+
Name: Dehydroabietylamine acetate
Name: DTXSID1047102
Formula: C20H31N
Exact mass: 285.2456499963
SMILES: CC(C)C1C=CC2=C(CCC3C2(C)CCCC3(C)CN)C=1
InChI: InChI=1S/C20H31N/c1-14(2)15-6-8-17-16(12-15)7-9-18-19(3,13-21)10-5-11-20(17,18)4/h6,8,12,14,18H,5,7,9-11,13,21H2,1-4H3
Instrument type: ESI-QTOF
Ms type: MS2
Ion mode: POSITIVE
Ionization: ESI
Collision energy: 20
Precursor m/z: 286.252926448
Precursor type: [M+H]+
m/z	relative intensity
43.054227	21
55.054227	25
69.069877	15
83.085527	54
97.101177	25
117.069877	23
123.116827	10
129.069877	10
131.085527	120
143.085527	19
145.101177	20
159.116827	99
171.116827	21
173.132477	999
185.132477	148
187.148127	48
199.148127	20
213.163777	22
269.226377	15
286.252926	44
