Mass spectrum: 2,5-Dimercapto-1,3,4-thiadiazole; ESI-QTOF; MS2; CE: 40; [M-H]-
Name: 2,5-Dimercapto-1,3,4-thiadiazole
Formula: C2H2N2S3
Exact mass: 149.9380102686
SMILES: SC1=NN=C(S)S1
InChI: InChI=1S/C2H2N2S3/c5-1-3-4-2(6)7-1/h(H,3,5)(H,4,6)
Instrument type: ESI-QTOF
Ms type: MS2
Ion mode: NEGATIVE
Ionization: ESI
Collision energy: 40
Precursor m/z: 148.9307338169
Precursor type: [M-H]-
m/z	relative intensity
41.014522	33
57.975693	999
89.947764	28
