Mass spectrum: N,N'-Dimethylthiourea; ESI-QTOF; MS2; CE: 20; [M+H]+
Name: N,N'-Dimethylthiourea
Name: DTXSID2042191
Formula: C3H8N2S
Exact mass: 104.040819
SMILES: CNC(=S)NC
InChI: InChI=1S/C3H8N2S/c1-4-3(6)5-2/h1-2H3,(H2,4,5,6)
Instrument type: ESI-QTOF
Ms type: MS2
Ion mode: POSITIVE
Ionization: ESI
Collision energy: 20
Precursor m/z: 105.0480954517
Precursor type: [M+H]+
m/z	relative intensity
32.049476	37
42.033826	26
46.994997	38
58.982421	16
74.005896	999
