Mass spectrum: Bismaleimide; ESI-QTOF; MS2; CE: 20; [M+H]+
Name: Bismaleimide
Name: DTXSID8044381
Formula: C21H14N2O4
Exact mass: 358.0953569506
SMILES: O=C1C=CC(=O)N1C1C=CC(CC2C=CC(=CC=2)N2C(=O)C=CC2=O)=CC=1
InChI: InChI=1S/C21H14N2O4/c24-18-9-10-19(25)22(18)16-5-1-14(2-6-16)13-15-3-7-17(8-4-15)23-20(26)11-12-21(23)27/h1-12H,13H2
Instrument type: ESI-QTOF
Ms type: MS2
Ion mode: POSITIVE
Ionization: ESI
Collision energy: 20
Precursor m/z: 359.1026334023
Precursor type: [M+H]+
m/z	relative intensity
79.017841	13
102.09134	11
109.101177	13
158.06004	39
186.054955	999
186.103916	13
