Mass spectrum: Tripropylene glycol butyl ether; ESI-QTOF; MS2; CE: 10; [M+H]+
Name: Tripropylene glycol butyl ether
Name: DTXSID8042503
Formula: C13H28O4
Exact mass: 248.1987593824
SMILES: CC(COC(O)CC)OC(CC)OCCCC
InChI: InChI=1S/C13H28O4/c1-5-8-9-15-13(7-3)17-11(4)10-16-12(14)6-2/h11-14H,5-10H2,1-4H3
Instrument type: ESI-QTOF
Ms type: MS2
Ion mode: POSITIVE
Ionization: ESI
Collision energy: 10
Precursor m/z: 249.2060358341
Precursor type: [M+H]+
m/z	relative intensity
41.038577	19
57.033491	24
57.069877	111
59.049141	999
59.085527	18
115.111742	93
117.091006	38
173.153606	44
