Mass spectrum: CP-728663; ESI-QTOF; MS2; CE: 10; [M+H]+
Name: CP-728663
Name: DTXSID1047283
Formula: C26H33N3O2
Exact mass: 419.2572773195
SMILES: CCC1CCC(NCC2=CC3=C(C=C2OC)C2CC2C(=O)N3C)C(N1)C1C=CC=CC=1
InChI: InChI=1S/C26H33N3O2/c1-4-18-10-11-22(25(28-18)16-8-6-5-7-9-16)27-15-17-12-23-20(14-24(17)31-3)19-13-21(19)26(30)29(23)2/h5-9,12,14,18-19,21-22,25,27-28H,4,10-11,13,15H2,1-3H3
Instrument type: ESI-QTOF
Ms type: MS2
Ion mode: POSITIVE
Ionization: ESI
Collision energy: 10
Precursor m/z: 420.2645537712
Precursor type: [M+H]+
m/z	relative intensity
188.143376	82
216.101905	249
420.264554	999
