Mass spectrum: C.I. Disperse Orange 25; ESI-QTOF; MS2; CE: 10; [M+H]+
Name: C.I. Disperse Orange 25
Name: DTXSID5051999
Formula: C17H17N5O2
Exact mass: 323.1382248239
SMILES: CCN(CCC#N)C1C=CC(=CC=1)/N=N/C1C=CC(=CC=1)[N+]([O-])=O
InChI: InChI=1S/C17H17N5O2/c1-2-21(13-3-12-18)16-8-4-14(5-9-16)19-20-15-6-10-17(11-7-15)22(23)24/h4-11H,2-3,13H2,1H3/b20-19+
Instrument type: ESI-QTOF
Ms type: MS2
Ion mode: POSITIVE
Ionization: ESI
Collision energy: 10
Precursor m/z: 324.1455012756
Precursor type: [M+H]+
m/z	relative intensity
122.023655	15
283.118952	307
324.145501	999
