Mass spectrum: SB281832; ESI-QTOF; MS2; CE: 10; [M-H]-
Name: SB281832
Name: DTXSID5047324
Formula: C22H19FN4O3
Exact mass: 406.1441187026
SMILES: OCC(CO)N1C=NC(=C1C1=CC=NC(=N1)OC1C=CC=CC=1)C1C=CC(F)=CC=1
InChI: InChI=1S/C22H19FN4O3/c23-16-8-6-15(7-9-16)20-21(27(14-25-20)17(12-28)13-29)19-10-11-24-22(26-19)30-18-4-2-1-3-5-18/h1-11,14,17,28-29H,12-13H2
Instrument type: ESI-QTOF
Ms type: MS2
Ion mode: NEGATIVE
Ionization: ESI
Collision energy: 10
Precursor m/z: 405.1368422509
Precursor type: [M-H]-
m/z	relative intensity
41.014522	315
41.027098	11
93.034389	300
135.056386	22
161.05205	16
175.0677	45
253.061866	10
253.089498	82
281.084613	100
330.104814	16
331.100063	872
332.104065	12
343.100063	111
345.117056	33
357.115713	314
359.131363	28
375.126278	144
387.126278	999
388.134103	20
