Mass spectrum: 2-Amino-6-nitrobenzothiazole; ESI-QTOF; MS2; CE: 10; [M-H]-
Name: 2-Amino-6-nitrobenzothiazole
Name: DTXSID3024491
Formula: C7H5N3O2S
Exact mass: 195.0102471563
SMILES: NC1=NC2=CC=C(C=C2S1)[N+]([O-])=O
InChI: InChI=1S/C7H5N3O2S/c8-7-9-5-2-1-4(10(11)12)3-6(5)13-7/h1-3H,(H2,8,9)
Instrument type: ESI-QTOF
Ms type: MS2
Ion mode: NEGATIVE
Ionization: ESI
Collision energy: 10
Precursor m/z: 194.0029707046
Precursor type: [M-H]-
m/z	relative intensity
57.975693	11
148.010067	43
162.0309	23
164.004982	28
177.000231	11
194.002971	999
