Mass spectrum: 5-Amino-1,2-dihydro-3H-1,2,4-triazole-3-thione; ESI-QTOF; MS2; CE: 40; [M+H]+
Name: 5-Amino-1,2-dihydro-3H-1,2,4-triazole-3-thione
Name: DTXSID7044849
Formula: C2H4N4S
Exact mass: 116.0156668872
SMILES: NC1NNC(=S)N=1
InChI: InChI=1S/C2H4N4S/c3-1-4-2(7)6-5-1/h(H4,3,4,5,6,7)
Instrument type: ESI-QTOF
Ms type: MS2
Ion mode: POSITIVE
Ionization: ESI
Collision energy: 40
Precursor m/z: 117.0229433389
Precursor type: [M+H]+
m/z	relative intensity
42.021249	27
43.029075	999
44.979347	59
47.990246	48
58.039974	27
59.047799	59
59.990246	111
68.024324	11
75.001145	50
