Mass spectrum: Arsenobetaine; ESI-QTOF; MS2; CE: 20; [M+H]+
Name: Arsenobetaine
Name: DTXSID0052833
Formula: C5H11AsO2
Exact mass: 177.9975011955
SMILES: C[As+](C)(C)CC([O-])=O
InChI: InChI=1S/C5H11AsO2/c1-6(2,3)4-5(7)8/h4H2,1-3H3
Instrument type: ESI-QTOF
Ms type: MS2
Ion mode: POSITIVE
Ionization: ESI
Collision energy: 20
Precursor m/z: 179.0047776472
Precursor type: [M+H]+
m/z	relative intensity
90.952348	11
100.936698	10
102.952348	63
104.967998	254
116.967998	13
118.983648	20
119.991473	999
130.947263	13
135.014948	18
136.994213	95
148.957827	17
160.994213	103
179.004778	640
