Mass spectrum: Acetone thiosemicarbazide; ESI-QTOF; MS2; CE: 40; [M+H]+
Name: Acetone thiosemicarbazide
Name: DTXSID6044480
Formula: C4H9N3S
Exact mass: 131.0517180393
SMILES: CC(C)/N=N/C(N)=S
InChI: InChI=1S/C4H9N3S/c1-3(2)6-7-4(5)8/h3H,1-2H3,(H2,5,8)/b7-6+
Instrument type: ESI-QTOF
Ms type: MS2
Ion mode: POSITIVE
Ionization: ESI
Collision energy: 40
Precursor m/z: 132.058994491
Precursor type: [M+H]+
m/z	relative intensity
32.979347	57
39.022927	41
41.038577	154
41.041947	16
42.033826	414
42.049772	13
43.029075	453
43.041651	154
43.054227	21
47.990246	273
48.002822	10
54.033826	46
56.049476	999
57.057301	15
58.065126	703
75.001145	64
75.013721	10
