Mass spectrum: Temafloxacin; ESI-QTOF; MS2; CE: 40; [M-H]-
Name: Temafloxacin
Formula: C21H18F3N3O3
Exact mass: 417.1300260633
SMILES: CC1CN(CCN1)C1=CC2=C(C=C1F)C(=O)C(=CN2C1=CC=C(F)C=C1F)C(O)=O
InChI: InChI=1S/C21H18F3N3O3/c1-11-9-26(5-4-25-11)19-8-18-13(7-16(19)24)20(28)14(21(29)30)10-27(18)17-3-2-12(22)6-15(17)23/h2-3,6-8,10-11,25H,4-5,9H2,1H3,(H,29,30)
Instrument type: ESI-QTOF
Ms type: MS2
Ion mode: NEGATIVE
Ionization: ESI
Collision energy: 40
Precursor m/z: 416.1227496116
Precursor type: [M-H]-
m/z	relative intensity
152.031729	13
206.041151	169
214.03098	14
226.048522	10
234.036066	999
234.092438	12
240.050453	16
246.057195	10
254.042294	304
262.05479	20
268.050533	84
272.032872	12
274.053647	22
275.062615	24
281.053193	84
282.059875	52
286.048522	39
287.043771	41
288.059206	18
293.05205	21
300.060349	17
313.059421	46
327.075071	30
332.120464	78
352.126692	82
