Mass spectrum: 5,5-Dimethylhydantoin; ESI-QTOF; MS2; CE: 20; [M-H]-
Name: 5,5-Dimethylhydantoin
Formula: C5H8N2O2
Exact mass: 128.0585775146
SMILES: CC1(C)NC(=O)NC1=O
InChI: InChI=1S/C5H8N2O2/c1-5(2)3(8)6-4(9)7-5/h1-2H3,(H2,6,7,8,9)
Instrument type: ESI-QTOF
Ms type: MS2
Ion mode: NEGATIVE
Ionization: ESI
Collision energy: 20
Precursor m/z: 127.0513010629
Precursor type: [M-H]-
m/z	relative intensity
41.998537	999
42.022347	16
112.027826	15
127.051301	85
