Mass spectrum: N,N-Dimethyl-2-(morpholin-4-yl)ethanamine; ESI-QTOF; MS2; CE: 20; [M+H]+
Name: N,N-Dimethyl-2-(morpholin-4-yl)ethanamine
Formula: C8H18N2O
Exact mass: 158.1419132113
SMILES: CN(C)CCN1CCOCC1
InChI: InChI=1S/C8H18N2O/c1-9(2)3-4-10-5-7-11-8-6-10/h3-8H2,1-2H3
Instrument type: ESI-QTOF
Ms type: MS2
Ion mode: POSITIVE
Ionization: ESI
Collision energy: 20
Precursor m/z: 159.149189663
Precursor type: [M+H]+
m/z	relative intensity
42.033826	59
44.049476	40
56.049476	12
57.057301	10
61.007276	65
62.015101	10
63.01035	62
63.994366	177
64.018175	31
65.99744	158
70.065126	143
72.080776	937
72.125715	15
79.017841	999
79.054227	27
80.025666	20
81.020915	985
81.069877	19
84.080776	44
86.096426	19
114.09134	859
114.127726	20
