Mass spectrum: Dodecanedioic acid; ESI-QTOF; MS2; CE: 10; [M-H]-
Name: Dodecanedioic acid
Name: DTXSID3027297
Formula: C12H22O4
Exact mass: 230.151809191
SMILES: OC(=O)CCCCCCCCCCC(O)=O
InChI: InChI=1S/C12H22O4/c13-11(14)9-7-5-3-1-2-4-6-8-10-12(15)16/h1-10H2,(H,13,14)(H,15,16)
Instrument type: ESI-QTOF
Ms type: MS2
Ion mode: NEGATIVE
Ionization: ESI
Collision energy: 10
Precursor m/z: 229.1445327393
Precursor type: [M-H]-
m/z	relative intensity
167.144139	107
211.133968	401
229.144533	999
