Mass spectrum: Vatalanib; ESI-QTOF; MS2; CE: 40; [M-H]-
Name: Vatalanib
Name: DTXSID5049073
Formula: C20H15ClN4
Exact mass: 346.0985242181
SMILES: ClC1C=CC(=CC=1)NC1=NN=C(CC2C=CN=CC=2)C2C=CC=CC=21
InChI: InChI=1S/C20H15ClN4/c21-15-5-7-16(8-6-15)23-20-18-4-2-1-3-17(18)19(24-25-20)13-14-9-11-22-12-10-14/h1-12H,13H2,(H,23,25)
Instrument type: ESI-QTOF
Ms type: MS2
Ion mode: NEGATIVE
Ionization: ESI
Collision energy: 40
Precursor m/z: 345.0912477664
Precursor type: [M-H]-
m/z	relative intensity
34.969401	619
40.006697	13
65.014522	17
76.019273	28
78.034923	316
92.050573	387
93.045822	22
98.988125	12
99.000701	11
102.034923	369
103.030172	94
111.000701	150
115.030172	74
116.037997	26
117.033246	12
117.045822	138
125.003775	42
126.0116	164
127.030172	89
131.048896	25
141.045822	14
142.041071	235
151.006849	999
151.055324	13
156.056721	20
190.041071	17
190.053647	12
191.050726	19
193.077122	19
205.077122	35
206.049049	13
206.061625	10
208.088021	31
209.059948	12
212.025421	10
215.048896	19
216.033399	10
216.056721	76
217.0538	37
218.036473	24
218.072371	175
227.025574	10
227.03815	24
230.074201	15
231.06762	17
231.080196	14
232.088021	10
233.0851	11
235.09892	14
238.030325	39
239.03815	14
241.05197	25
242.049049	30
250.017748	54
252.033399	592
265.041224	14
267.056874	27
279.092772	18
280.088021	28
282.103671	58
291.06945	12
293.095846	10
306.067773	13
306.091095	73
307.09892	89
308.106745	168
309.091248	22
309.11457	73
314.049049	12
316.064699	45
317.072524	10
318.080349	35
328.064699	22
341.059948	29
342.067773	11
343.075598	194
344.083423	29
345.091248	190
