Mass spectrum: 3-(Dimethylphosphono)-N-methylolpropionamide; ESI-QTOF; MS2; CE: 40; [M+H]+
Name: 3-(Dimethylphosphono)-N-methylolpropionamide
Name: DTXSID9040215
Formula: C6H14NO5P
Exact mass: 211.0609590555
SMILES: COP(=O)(CCC(=O)NCO)OC
InChI: InChI=1S/C6H14NO5P/c1-11-13(10,12-2)4-3-6(9)7-5-8/h8H,3-5H2,1-2H3,(H,7,9)
Instrument type: ESI-QTOF
Ms type: MS2
Ion mode: POSITIVE
Ionization: ESI
Collision energy: 40
Precursor m/z: 212.0682355072
Precursor type: [M+H]+
m/z	relative intensity
27.022927	10
45.033491	114
46.968128	10
55.017841	573
55.054537	12
58.065126	12
62.999428	65
70.065126	13
77.038887	15
78.994342	409
79.017841	14
87.044056	24
93.009992	111
94.065126	13
94.989257	31
109.004907	999
109.041292	16
118.02606	10
