Mass spectrum: CI-1044; ESI-QTOF; MS2; CE: 20; [M-H]-
Name: CI-1044
Formula: C23H19N5O2
Exact mass: 397.1538748877
SMILES: NC1C=C2CCN3C2=C(C=1)C(=NC(NC(=O)C1=CN=CC=C1)C3=O)C1C=CC=CC=1
InChI: InChI=1S/C23H19N5O2/c24-17-11-15-8-10-28-20(15)18(12-17)19(14-5-2-1-3-6-14)26-21(23(28)30)27-22(29)16-7-4-9-25-13-16/h1-7,9,11-13,21H,8,10,24H2,(H,27,29)
Instrument type: ESI-QTOF
Ms type: MS2
Ion mode: NEGATIVE
Ionization: ESI
Collision energy: 20
Precursor m/z: 396.146598436
Precursor type: [M-H]-
m/z	relative intensity
41.998537	359
78.034923	21
103.030172	13
121.040736	205
132.032911	15
146.035985	11
148.051635	21
158.072371	24
209.072037	20
221.108422	41
235.087687	123
237.066951	121
246.103671	51
247.087687	24
247.111496	18
249.101994	11
250.099928	31
262.098586	162
263.093835	32
264.114236	11
274.098586	105
289.110827	22
293.104399	59
317.104399	28
325.14587	49
326.129886	59
341.140785	24
350.141119	52
352.156769	228
353.140785	999
354.14861	47
368.151684	178
369.135699	27
378.136034	147
396.146598	417
