Mass spectrum: 4-Nitroanthranilic acid; ESI-QTOF; MS2; CE: 10; [M-H]-
Name: 4-Nitroanthranilic acid
Name: DTXSID8020963
Formula: C7H6N2O4
Exact mass: 182.0327566954
SMILES: NC1C=C(C=CC=1C(O)=O)[N+]([O-])=O
InChI: InChI=1S/C7H6N2O4/c8-6-3-4(9(12)13)1-2-5(6)7(10)11/h1-3H,8H2,(H,10,11)
Instrument type: ESI-QTOF
Ms type: MS2
Ion mode: NEGATIVE
Ionization: ESI
Collision energy: 10
Precursor m/z: 181.0254802437
Precursor type: [M-H]-
m/z	relative intensity
45.993452	146
107.037662	147
137.035651	999
181.02548	90
