Mass spectrum: FD and C Red 4; ESI-QTOF; MS2; CE: 40; [M-H]-
Name: FD and C Red 4
Name: DTXSID2021234
Formula: C18H16N2O7S2
Exact mass: 436.0398923413
SMILES: CC1C=C(C)C(=CC=1S(O)(=O)=O)/N=N/C1=CC(=C2C=CC=CC2=C1O)S(O)(=O)=O
InChI: InChI=1S/C18H16N2O7S2/c1-10-7-11(2)16(28(22,23)24)8-14(10)19-20-15-9-17(29(25,26)27)12-5-3-4-6-13(12)18(15)21/h3-9,21H,1-2H3,(H,22,23,24)(H,25,26,27)/b20-19+
Instrument type: ESI-QTOF
Ms type: MS2
Ion mode: NEGATIVE
Ionization: ESI
Collision energy: 40
Precursor m/z: 435.0326158896
Precursor type: [M-H]-
m/z	relative intensity
59.013853	55
63.962449	56
69.034588	13
79.957363	393
80.965188	99
85.029503	21
122.061137	24
126.034923	23
134.061137	101
168.045487	22
170.024752	871
170.073714	13
171.011448	11
171.030765	71
172.040402	92
184.019963	231
185.023766	23
186.023037	20
197.014522	14
198.023037	466
199.030172	999
199.085006	17
200.037997	128
211.018286	53
220.991403	22
223.018286	14
236.001611	178
264.103002	10
273.100657	14
275.118987	16
315.057077	16
327.069653	14
328.064902	29
353.057471	12
355.075801	135
