Mass spectrum: N-Methylhydrazinecarbothioamide; ESI-QTOF; MS2; CE: 40; [M+H]+
Name: N-Methylhydrazinecarbothioamide
Name: DTXSID7044390
Formula: C2H7N3S
Exact mass: 105.0360679755
SMILES: CNC(=S)NN
InChI: InChI=1S/C2H7N3S/c1-4-2(6)5-3/h3H2,1H3,(H2,4,5,6)
Instrument type: ESI-QTOF
Ms type: MS2
Ion mode: POSITIVE
Ionization: ESI
Collision energy: 40
Precursor m/z: 106.0433444272
Precursor type: [M+H]+
m/z	relative intensity
30.033826	109
31.029075	74
32.049476	24
34.994997	20
42.021249	21
42.033826	96
43.029075	68
44.979347	123
45.032149	61
45.044725	11
45.974596	102
46.982421	552
46.994997	151
50.005896	39
51.026297	27
55.029075	201
57.044725	999
58.982421	251
59.990246	106
62.005896	771
74.005896	167
75.001145	20
