Mass spectrum: 3-(3-Methyl-5-oxo-4,5-dihydro-1H-pyrazol-1-yl)benzenesulfonic acid; ESI-QTOF; MS2; CE: 20; [M-H]-
Name: 3-(3-Methyl-5-oxo-4,5-dihydro-1H-pyrazol-1-yl)benzenesulfonic acid
Formula: C10H10N2O4S
Exact mass: 254.036127553
SMILES: CC1CC(=O)N(N=1)C1=CC(=CC=C1)S(O)(=O)=O
InChI: InChI=1S/C10H10N2O4S/c1-7-5-10(13)12(11-7)8-3-2-4-9(6-8)17(14,15)16/h2-4,6H,5H2,1H3,(H,14,15,16)
Instrument type: ESI-QTOF
Ms type: MS2
Ion mode: NEGATIVE
Ionization: ESI
Collision energy: 20
Precursor m/z: 253.0288511013
Precursor type: [M-H]-
m/z	relative intensity
41.998537	36
79.957363	635
79.990378	12
80.011507	10
80.965188	19
118.029837	45
120.045487	50
130.066223	13
131.061472	39
132.012473	11
132.045487	858
133.040736	11
147.032577	17
148.040402	182
155.988663	153
170.999562	150
173.048227	10
173.072037	208
181.991737	118
184.007387	388
189.066951	29
197.986652	135
210.023037	23
210.994477	24
211.018286	46
212.002302	295
225.033936	214
238.005376	12
253.028851	999
