Mass spectrum: Tetraethylenepentamine; ESI-QTOF; MS2; CE: 10; [M+H]+
Name: Tetraethylenepentamine
Formula: C8H23N5
Exact mass: 189.1953457707
SMILES: NCCNCCNCCNCCN
InChI: InChI=1S/C8H23N5/c9-1-3-11-5-7-13-8-6-12-4-2-10/h11-13H,1-10H2
Instrument type: ESI-QTOF
Ms type: MS2
Ion mode: POSITIVE
Ionization: ESI
Collision energy: 10
Precursor m/z: 190.2026222224
Precursor type: [M+H]+
m/z	relative intensity
44.049476	67
70.065126	14
87.091675	405
104.118224	250
113.107325	193
130.133874	480
156.149524	18
173.176073	65
190.202622	999
