Mass spectrum: Arotinoid acid; ESI-QTOF; MS2; CE: 20; [M-H]-
Name: Arotinoid acid
Name: DTXSID6040743
Formula: C24H28O2
Exact mass: 348.2089301378
SMILES: C/C(=C/C1C=CC(=CC=1)C(O)=O)/C1=CC2=C(C=C1)C(C)(C)CCC2(C)C
InChI: InChI=1S/C24H28O2/c1-16(14-17-6-8-18(9-7-17)22(25)26)19-10-11-20-21(15-19)24(4,5)13-12-23(20,2)3/h6-11,14-15H,12-13H2,1-5H3,(H,25,26)/b16-14-
Instrument type: ESI-QTOF
Ms type: MS2
Ion mode: NEGATIVE
Ionization: ESI
Collision energy: 20
Precursor m/z: 347.2016536861
Precursor type: [M-H]-
m/z	relative intensity
303.211824	870
347.201654	999
