Mass spectrum: Benzyltrimethylammonium; ESI-QTOF; MS2; CE: 20; [M+H]+
Name: Benzyltrimethylammonium
Name: DTXSID8024600
Formula: [C10H16N]+
Exact mass: 150.1282745178
SMILES: C[N+](C)(C)CC1C=CC=CC=1
InChI: InChI=1S/C10H16N/c1-11(2,3)9-10-7-5-4-6-8-10/h4-8H,9H2,1-3H3/q+1
Instrument type: ESI-QTOF
Ms type: MS2
Ion mode: POSITIVE
Ionization: ESI
Collision energy: 20
Precursor m/z: 151.1355509695
Precursor type: [M+H]+
m/z	relative intensity
58.065126	95
59.072951	39
66.046402	13
91.054227	494
92.062052	999
151.135551	64
