Mass spectrum: Tri-o-cresyl phosphate; ESI-QTOF; MS2; CE: 40; [M+H]+
Name: Tri-o-cresyl phosphate
Formula: C21H21O4P
Exact mass: 368.1177456491
SMILES: CC1C=CC=CC=1OP(=O)(OC1C=CC=CC=1C)OC1C=CC=CC=1C
InChI: InChI=1S/C21H21O4P/c1-16-10-4-7-13-19(16)23-26(22,24-20-14-8-5-11-17(20)2)25-21-15-9-6-12-18(21)3/h4-15H,1-3H3
Instrument type: ESI-QTOF
Ms type: MS2
Ion mode: POSITIVE
Ionization: ESI
Collision energy: 40
Precursor m/z: 369.1250221008
Precursor type: [M+H]+
m/z	relative intensity
65.038577	146
91.054227	999
91.088243	22
105.069877	15
107.049141	49
109.064791	13
115.054227	12
121.064791	17
141.069877	26
152.062052	11
153.009992	34
153.069877	25
165.069877	323
166.077702	281
169.101177	12
178.077702	76
179.085527	88
181.101177	31
182.072616	12
189.031122	13
195.080441	14
196.088266	10
197.096091	23
241.101177	36
243.056943	20
255.116827	19
256.124652	13
279.078072	35
