Mass spectrum: N,N-Diethyldodecanamide; ESI-QTOF; MS2; CE: 10; [M+H]+
Name: N,N-Diethyldodecanamide
Name: DTXSID5044655
Formula: C16H33NO
Exact mass: 255.2562146824
SMILES: CCCCCCCCCCCC(=O)N(CC)CC
InChI: InChI=1S/C16H33NO/c1-4-7-8-9-10-11-12-13-14-15-16(18)17(5-2)6-3/h4-15H2,1-3H3
Instrument type: ESI-QTOF
Ms type: MS2
Ion mode: POSITIVE
Ionization: ESI
Collision energy: 10
Precursor m/z: 256.2634911341
Precursor type: [M+H]+
m/z	relative intensity
74.096426	21
256.263491	999
