Mass spectrum: 1-(Hydroxymethyl)-5,5-dimethylhydantoin; ESI-QTOF; MS2; CE: 40; [M+H]+
Name: 1-(Hydroxymethyl)-5,5-dimethylhydantoin
Formula: C6H10N2O3
Exact mass: 158.0691422007
SMILES: CC1(C)C(=O)NC(=O)N1CO
InChI: InChI=1S/C6H10N2O3/c1-6(2)4(10)7-5(11)8(6)3-9/h9H,3H2,1-2H3,(H,7,10,11)
Instrument type: ESI-QTOF
Ms type: MS2
Ion mode: POSITIVE
Ionization: ESI
Collision energy: 40
Precursor m/z: 159.0764186524
Precursor type: [M+H]+
m/z	relative intensity
45.992355	29
47.00018	259
47.984195	35
48.99202	269
61.007276	141
62.015101	71
62.995094	44
63.00767	142
63.994366	999
64.015495	152
64.026729	29
64.039305	14
65.002191	24
65.99744	912
66.021249	23
66.033826	13
79.017841	293
81.020915	262
