Mass spectrum: Dulcin; ESI-QTOF; MS2; CE: 40; [M+H]+
Name: Dulcin
Name: DTXSID9020580
Formula: C9H12N2O2
Exact mass: 180.0898776422
SMILES: CCOC1C=CC(=CC=1)NC(N)=O
InChI: InChI=1S/C9H12N2O2/c1-2-13-8-5-3-7(4-6-8)11-9(10)12/h3-6H,2H2,1H3,(H3,10,11,12)
Instrument type: ESI-QTOF
Ms type: MS2
Ion mode: POSITIVE
Ionization: ESI
Collision energy: 40
Precursor m/z: 181.0971540939
Precursor type: [M+H]+
m/z	relative intensity
39.022927	105
42.033826	17
44.01309	39
51.022927	10
53.038577	84
55.054227	22
65.038577	999
65.070939	22
65.083515	10
66.046402	14
67.041651	42
67.050204	14
68.01309	40
77.038577	28
80.049476	147
81.033491	592
81.057301	54
82.065126	42
90.033826	10
92.049476	100
93.033491	188
93.057301	133
108.04439	511
109.052215	108
110.06004	85
