Mass spectrum: Benzenecarboximidamide; ESI-QTOF; MS2; CE: 10; [M+H]+
Name: Benzenecarboximidamide
Name: DTXSID9044401
Formula: C7H8N2
Exact mass: 120.06874827
SMILES: NC(=N)C1C=CC=CC=1
InChI: InChI=1S/C7H8N2/c8-7(9)6-4-2-1-3-5-6/h1-5H,(H3,8,9)
Instrument type: ESI-QTOF
Ms type: MS2
Ion mode: POSITIVE
Ionization: ESI
Collision energy: 10
Precursor m/z: 121.0760247217
Precursor type: [M+H]+
m/z	relative intensity
77.038577	24
104.049476	459
121.076025	999
