Mass spectrum: Ethylenesulfonic acid; ESI-QTOF; MS2; CE: 40; [M-H]-
Name: Ethylenesulfonic acid
Name: DTXSID0027513
Formula: C2H4O3S
Exact mass: 107.9881147245
SMILES: C=CS(O)(=O)=O
InChI: InChI=1S/C2H4O3S/c1-2-6(3,4)5/h2H,1H2,(H,3,4,5)
Instrument type: ESI-QTOF
Ms type: MS2
Ion mode: NEGATIVE
Ionization: ESI
Collision energy: 40
Precursor m/z: 106.9808382728
Precursor type: [M-H]-
m/z	relative intensity
41.003288	12
63.962449	26
79.957363	999
80.965188	41
