Mass spectrum: CI-1029; ESI-QTOF; MS2; CE: 20; [M+H]+
Name: CI-1029
Name: DTXSID8047262
Formula: C28H37NO4S
Exact mass: 483.2443294069
SMILES: CC(C)(C)C1C=C(CO)C(C)=CC=1SC1C(=O)OC(CC1=O)(CCC1C=CC(N)=CC=1)C(C)C
InChI: InChI=1S/C28H37NO4S/c1-17(2)28(12-11-19-7-9-21(29)10-8-19)15-23(31)25(26(32)33-28)34-24-13-18(3)20(16-30)14-22(24)27(4,5)6/h7-10,13-14,17,25,30H,11-12,15-16,29H2,1-6H3
Instrument type: ESI-QTOF
Ms type: MS2
Ion mode: POSITIVE
Ionization: ESI
Collision energy: 20
Precursor m/z: 484.2516058586
Precursor type: [M+H]+
m/z	relative intensity
45.033491	20
57.069877	17
71.085527	20
85.101177	21
89.059706	91
106.065126	360
120.080776	101
123.116827	10
132.080776	45
133.085921	58
161.132477	12
172.112076	26
177.036862	10
177.112135	26
186.127726	16
188.143376	12
216.123034	11
216.138291	12
219.047427	22
273.242421	12
277.088601	45
282.094711	16
308.073976	74
327.201522	16
338.154631	14
343.172627	14
361.182501	36
364.172962	16
382.147141	15
392.167876	999
392.240647	15
410.178441	133
420.235562	16
448.230476	341
466.241041	124
