Mass spectrum: CP-863187; ESI-QTOF; MS2; CE: 40; [M+H]+
Name: CP-863187
Name: DTXSID0047294
Formula: C18H14F2N4O
Exact mass: 340.1135674985
SMILES: CC(C)C1=NN=C2C=CC(=CN21)C1OC=NC=1C1=CC(F)=CC=C1F
InChI: InChI=1S/C18H14F2N4O/c1-10(2)18-23-22-15-6-3-11(8-24(15)18)17-16(21-9-25-17)13-7-12(19)4-5-14(13)20/h3-10H,1-2H3
Instrument type: ESI-QTOF
Ms type: MS2
Ion mode: POSITIVE
Ionization: ESI
Collision energy: 40
Precursor m/z: 341.1208439502
Precursor type: [M+H]+
m/z	relative intensity
103.029075	13
105.045867	15
152.030632	11
163.035383	21
170.040054	38
190.046282	999
190.097488	47
190.11523	27
197.050953	99
202.046282	27
209.050953	24
217.057181	301
218.041197	43
224.062052	73
227.041531	26
228.049356	34
229.057181	54
243.060455	15
244.06828	17
245.052096	14
272.062995	121
325.089544	32
341.120844	30
