Mass spectrum: N,N-Dimethylacetoacetamide; ESI-QTOF; MS2; CE: 40; [M+H]+
Name: N,N-Dimethylacetoacetamide
Name: DTXSID8027454
Formula: C6H11NO2
Exact mass: 129.0789786029
SMILES: CC(=O)CC(=O)N(C)C
InChI: InChI=1S/C6H11NO2/c1-5(8)4-6(9)7(2)3/h4H2,1-3H3
Instrument type: ESI-QTOF
Ms type: MS2
Ion mode: POSITIVE
Ionization: ESI
Collision energy: 40
Precursor m/z: 130.0862550546
Precursor type: [M+H]+
m/z	relative intensity
41.038577	32
42.033826	61
43.017841	999
44.049476	114
45.057301	11
46.065126	546
56.01309	144
72.04439	472
85.028406	14
