Mass spectrum: 5-Methyl-2-furancarboxylic acid; ESI-QTOF; MS2; CE: 20; [M-H]-
Name: 5-Methyl-2-furancarboxylic acid
Name: DTXSID5021627
Formula: C6H6O3
Exact mass: 126.0316940583
SMILES: CC1=CC=C(O1)C(O)=O
InChI: InChI=1S/C6H6O3/c1-4-2-3-5(9-4)6(7)8/h2-3H,1H3,(H,7,8)
Instrument type: ESI-QTOF
Ms type: MS2
Ion mode: NEGATIVE
Ionization: ESI
Collision energy: 20
Precursor m/z: 125.0244176066
Precursor type: [M-H]-
m/z	relative intensity
39.024024	600
41.003288	524
55.018938	57
63.024024	104
65.003288	58
81.034588	999
