Mass spectrum: epsilon-Decalactone; ESI-QTOF; MS2; CE: 10; [M+H]+
Name: epsilon-Decalactone
Name: DTXSID8047551
Formula: C10H18O2
Exact mass: 170.1306798188
SMILES: CCCCC1CCCCC(=O)O1
InChI: InChI=1S/C10H18O2/c1-2-3-6-9-7-4-5-8-10(11)12-9/h9H,2-8H2,1H3
Instrument type: ESI-QTOF
Ms type: MS2
Ion mode: POSITIVE
Ionization: ESI
Collision energy: 10
Precursor m/z: 171.1379562705
Precursor type: [M+H]+
m/z	relative intensity
41.038577	137
43.017841	92
43.054227	110
55.017841	35
55.054227	258
57.033491	51
57.069877	178
59.049141	18
67.054227	82
69.033491	35
69.069877	999
71.049141	47
71.085527	82
73.028406	12
79.054227	93
79.075356	12
81.069877	92
83.049141	42
83.085527	227
83.106656	25
87.080441	54
93.033491	12
93.069877	106
95.085527	30
97.064791	306
97.101177	17
101.059706	12
107.085527	196
109.101177	86
111.044056	18
111.080441	75
111.116827	107
115.075356	68
125.132477	71
135.116827	581
153.127392	649
171.137956	150
