Mass spectrum: 2,3-Diaminotoluene; ESI-QTOF; MS2; CE: 40; [M+H]+
Name: 2,3-Diaminotoluene
Name: DTXSID4027494
Formula: C7H10N2
Exact mass: 122.0843983338
SMILES: CC1C=CC=C(N)C=1N
InChI: InChI=1S/C7H10N2/c1-5-3-2-4-6(8)7(5)9/h2-4H,8-9H2,1H3
Instrument type: ESI-QTOF
Ms type: MS2
Ion mode: POSITIVE
Ionization: ESI
Collision energy: 40
Precursor m/z: 123.0916747855
Precursor type: [M+H]+
m/z	relative intensity
39.022927	68
50.015101	12
51.022927	620
53.038577	143
54.033826	33
63.022927	29
65.038577	12
66.033826	22
66.046402	23
67.041651	39
77.038577	999
78.033826	12
78.046402	34
79.054227	91
80.049476	107
81.057301	22
91.041651	20
106.065126	32
107.060375	20
108.0682	17
