Mass spectrum: 4-Fluoro-3-nitroaniline; ESI-QTOF; MS2; CE: 40; [M-H]-
Name: 4-Fluoro-3-nitroaniline
Name: DTXSID5052042
Formula: C6H5FN2O2
Exact mass: 156.0335056189
SMILES: NC1=CC(=C(F)C=C1)[N+]([O-])=O
InChI: InChI=1S/C6H5FN2O2/c7-5-2-1-4(8)3-6(5)9(10)11/h1-3H,8H2
Instrument type: ESI-QTOF
Ms type: MS2
Ion mode: NEGATIVE
Ionization: ESI
Collision energy: 40
Precursor m/z: 155.0262291672
Precursor type: [M-H]-
m/z	relative intensity
45.993452	999
46.017261	18
46.029837	10
88.019273	31
