Mass spectrum: PharmaGSID_48516; ESI-QTOF; MS2; CE: 10; [M-H]-
Name: PharmaGSID_48516
Formula: C15H11ClFNO3S
Exact mass: 339.0132198652
SMILES: O=C(NS(=O)(=O)/C=C/C1C=CC=CC=1)C1=CC=C(F)C=C1Cl
InChI: InChI=1S/C15H11ClFNO3S/c16-14-10-12(17)6-7-13(14)15(19)18-22(20,21)9-8-11-4-2-1-3-5-11/h1-10H,(H,18,19)/b9-8+
Instrument type: ESI-QTOF
Ms type: MS2
Ion mode: NEGATIVE
Ionization: ESI
Collision energy: 10
Precursor m/z: 338.0059434135
Precursor type: [M-H]-
m/z	relative intensity
41.998537	10
119.050726	54
171.997093	19
338.005943	999
