Mass spectrum: (6)-Gingerol; ESI-QTOF; MS2; CE: 40; [M+H]+
Name: (6)-Gingerol
Name: DTXSID3041035
Formula: C17H26O4
Exact mass: 294.1831093186
SMILES: CCCCCC(O)CC(=O)CCC1C=CC(O)=C(C=1)OC
InChI: InChI=1S/C17H26O4/c1-3-4-5-6-14(18)12-15(19)9-7-13-8-10-16(20)17(11-13)21-2/h8,10-11,14,18,20H,3-7,9,12H2,1-2H3
Instrument type: ESI-QTOF
Ms type: MS2
Ion mode: POSITIVE
Ionization: ESI
Collision energy: 40
Precursor m/z: 295.1903857703
Precursor type: [M+H]+
m/z	relative intensity
41.038577	18
43.017841	34
43.054227	19
55.017841	26
55.054227	40
56.025666	11
58.062446	12
66.046402	17
67.054227	13
69.069877	14
73.028406	10
77.038577	12
79.054227	20
81.069877	36
91.054227	55
94.041316	160
99.044056	21
101.02332	14
105.069877	13
107.049141	15
109.028406	12
115.054227	41
116.062052	10
117.069877	68
122.036231	287
137.059706	999
137.096091	14
145.064791	64
162.067531	19
