Mass spectrum: N,N'-Di-tert-butylethane-1,2-diamine; ESI-QTOF; MS2; CE: 20; [M+H]+
Name: N,N'-Di-tert-butylethane-1,2-diamine
Name: DTXSID9044667
Formula: C10H24N2
Exact mass: 172.1939487804
SMILES: CC(C)(C)NCCNC(C)(C)C
InChI: InChI=1S/C10H24N2/c1-9(2,3)11-7-8-12-10(4,5)6/h11-12H,7-8H2,1-6H3
Instrument type: ESI-QTOF
Ms type: MS2
Ion mode: POSITIVE
Ionization: ESI
Collision energy: 20
Precursor m/z: 173.2012252321
Precursor type: [M+H]+
m/z	relative intensity
41.038577	15
44.049476	999
57.069877	211
61.076025	152
100.112076	227
117.138625	25
