Mass spectrum: 2-Amino-6-nitrobenzothiazole; ESI-QTOF; MS2; CE: 20; [M+H]+
Name: 2-Amino-6-nitrobenzothiazole
Name: DTXSID3024491
Formula: C7H5N3O2S
Exact mass: 195.0102471563
SMILES: NC1=NC2=CC=C(C=C2S1)[N+]([O-])=O
InChI: InChI=1S/C7H5N3O2S/c8-7-9-5-2-1-4(10(11)12)3-6(5)13-7/h1-3H,(H2,8,9)
Instrument type: ESI-QTOF
Ms type: MS2
Ion mode: POSITIVE
Ionization: ESI
Collision energy: 20
Precursor m/z: 196.017523608
Precursor type: [M+H]+
m/z	relative intensity
79.019869	23
101.026001	10
123.013721	27
138.02462	25
150.02462	999
166.019535	50
196.017524	156
