Mass spectrum: 4,4'-(Oxydiethylene)bis(morpholine); ESI-QTOF; MS2; CE: 40; [M+H]+
Name: 4,4'-(Oxydiethylene)bis(morpholine)
Name: DTXSID9042170
Formula: C12H24N2O3
Exact mass: 244.1786926473
SMILES: C1COCCN1CCOCCN1CCOCC1
InChI: InChI=1S/C12H24N2O3/c1-7-15-8-2-13(1)5-11-17-12-6-14-3-9-16-10-4-14/h1-12H2
Instrument type: ESI-QTOF
Ms type: MS2
Ion mode: POSITIVE
Ionization: ESI
Collision energy: 40
Precursor m/z: 245.185969099
Precursor type: [M+H]+
m/z	relative intensity
41.038577	81
42.033826	450
43.054227	56
44.049476	14
45.033491	76
56.049476	47
58.065126	50
68.049476	49
70.065126	863
70.098831	33
70.110065	17
84.080776	238
86.096426	78
114.09134	999
114.127726	48
158.117555	74
