Mass spectrum: CP-457920; ESI-QTOF; MS2; CE: 40; [M+H]+
Name: CP-457920
Name: DTXSID4047254
Formula: C18H17N3O3
Exact mass: 323.1269914314
SMILES: CCOC1C=CC2N=CC(C(=O)NCC3C=CC=CC=3)C(=O)C=2N=1
InChI: InChI=1S/C18H17N3O3/c1-2-24-15-9-8-14-16(21-15)17(22)13(11-19-14)18(23)20-10-12-6-4-3-5-7-12/h3-9,11,13H,2,10H2,1H3,(H,20,23)
Instrument type: ESI-QTOF
Ms type: MS2
Ion mode: POSITIVE
Ionization: ESI
Collision energy: 40
Precursor m/z: 324.1342678831
Precursor type: [M+H]+
m/z	relative intensity
65.038577	40
78.033826	10
91.054227	920
91.086589	20
91.107719	12
105.044725	30
115.029075	12
133.039639	43
143.023989	375
145.039639	59
161.034554	127
171.018904	33
175.050204	14
189.029468	999
189.07843	23
189.102239	12
217.060769	111
