Mass spectrum: C.I. Direct Yellow 12; ESI-QTOF; MS2; CE: 10; [M-H]-
Name: C.I. Direct Yellow 12
Name: DTXSID5041728
Formula: C30H28N4O8S2
Exact mass: 636.1348553612
SMILES: CCOC1C=CC(=CC=1)/N=N/C1C=C(C(/C=C/C2=CC=C(C=C2S(O)(=O)=O)/N=N/C2C=CC(=CC=2)OCC)=CC=1)S(O)(=O)=O
InChI: InChI=1S/C30H28N4O8S2/c1-3-41-27-15-11-23(12-16-27)31-33-25-9-7-21(29(19-25)43(35,36)37)5-6-22-8-10-26(20-30(22)44(38,39)40)34-32-24-13-17-28(18-14-24)42-4-2/h5-20H,3-4H2,1-2H3,(H,35,36,37)(H,38,39,40)/b6-5+,33-31+,34-32+
Instrument type: ESI-QTOF
Ms type: MS2
Ion mode: NEGATIVE
Ionization: ESI
Collision energy: 10
Precursor m/z: 635.1275789095
Precursor type: [M-H]-
m/z	relative intensity
635.127579	999
