Mass spectrum: 4-(2-Hydroxyethyl)-1-piperazineethanesulfonic acid; ESI-QTOF; MS2; CE: 20; [M+H]+
Name: 4-(2-Hydroxyethyl)-1-piperazineethanesulfonic acid
Name: DTXSID4044458
Formula: C8H18N2O4S
Exact mass: 238.0987278082
SMILES: [O-]S(=O)(=O)CCN1CC[NH+](CCO)CC1
InChI: InChI=1S/C8H18N2O4S/c11-7-5-9-1-3-10(4-2-9)6-8-15(12,13)14/h11H,1-8H2,(H,12,13,14)
Instrument type: ESI-QTOF
Ms type: MS2
Ion mode: POSITIVE
Ionization: ESI
Collision energy: 20
Precursor m/z: 239.1060042599
Precursor type: [M+H]+
m/z	relative intensity
42.033826	14
44.049476	19
45.033491	35
58.065126	11
70.065126	83
84.080776	72
88.07569	196
97.076025	22
99.091675	28
100.07569	13
112.0995	85
128.094414	47
131.11789	411
143.11789	44
152.03759	117
157.13354	10
164.03759	21
192.056314	39
195.07979	15
221.09544	28
237.090354	23
239.106004	999
