Mass spectrum: 6-Methyl-3-hydroxypyridine; ESI-QTOF; MS2; CE: 20; [M+H]+
Name: 6-Methyl-3-hydroxypyridine
Formula: C6H7NO
Exact mass: 109.052763853
SMILES: CC1C=CC(O)=CN=1
InChI: InChI=1S/C6H7NO/c1-5-2-3-6(8)4-7-5/h2-4,8H,1H3
Instrument type: ESI-QTOF
Ms type: MS2
Ion mode: POSITIVE
Ionization: ESI
Collision energy: 20
Precursor m/z: 110.0600403047
Precursor type: [M+H]+
m/z	relative intensity
39.022927	27
41.038577	37
42.033826	36
53.038577	15
55.054227	102
65.038577	54
67.041651	242
80.049476	73
81.057301	15
82.065126	243
92.049476	49
94.02874	151
109.052215	17
110.06004	999
