Mass spectrum: 2-Methyl-1-phenylpropan-2-ol; ESI-QTOF; MS2; CE: 10; [M+H]+
Name: 2-Methyl-1-phenylpropan-2-ol
Formula: C10H14O
Exact mass: 150.1044650689
SMILES: CC(C)(O)CC1C=CC=CC=1
InChI: InChI=1S/C10H14O/c1-10(2,11)8-9-6-4-3-5-7-9/h3-7,11H,8H2,1-2H3
Instrument type: ESI-QTOF
Ms type: MS2
Ion mode: POSITIVE
Ionization: ESI
Collision energy: 10
Precursor m/z: 151.1117415206
Precursor type: [M+H]+
m/z	relative intensity
61.007276	11
63.994366	25
79.017841	999
79.054227	37
80.025666	21
