Mass spectrum: Trelanserin; ESI-QTOF; MS2; CE: 40; [M-H]-
Name: Trelanserin
Name: DTXSID2047355
Formula: C24H24FN5O2S
Exact mass: 465.1634739772
SMILES: NC(=O)CN1C2C=C(F)C=CC=2C(CCN2CCN(CC2)C2=NC=CC3SC=CC=32)=CC1=O
InChI: InChI=1S/C24H24FN5O2S/c25-17-1-2-18-16(13-23(32)30(15-22(26)31)20(18)14-17)4-7-28-8-10-29(11-9-28)24-19-5-12-33-21(19)3-6-27-24/h1-3,5-6,12-14H,4,7-11,15H2,(H2,26,31)
Instrument type: ESI-QTOF
Ms type: MS2
Ion mode: NEGATIVE
Ionization: ESI
Collision energy: 40
Precursor m/z: 464.1561975255
Precursor type: [M-H]-
m/z	relative intensity
41.003288	11
41.998537	999
42.022347	16
42.998952	14
44.998203	48
59.013853	145
60.986592	18
61.983184	13
68.998203	11
69.034588	23
85.029503	32
94.983518	21
97.02816	16
102.977171	29
133.065888	16
149.017693	68
163.033343	34
175.034685	19
187.043891	24
188.051716	12
189.048993	11
190.067366	78
192.060092	39
199.043891	16
200.051716	18
201.057746	10
202.067366	46
203.070025	13
218.074856	25
220.056801	17
220.089164	11
227.061472	18
234.071799	12
245.074065	20
407.134734	13
