Mass spectrum: 2,4-Dihydroxypyridine; ESI-QTOF; MS2; CE: 20; [M-H]-
Name: 2,4-Dihydroxypyridine
Name: DTXSID90274238
Formula: C5H5NO2
Exact mass: 111.0320284115
SMILES: OC1=CC(O)=NC=C1
InChI: InChI=1S/C5H5NO2/c7-4-1-2-6-5(8)3-4/h1-3H,(H2,6,7,8)
Instrument type: ESI-QTOF
Ms type: MS2
Ion mode: NEGATIVE
Ionization: ESI
Collision energy: 20
Precursor m/z: 110.0247519598
Precursor type: [M-H]-
m/z	relative intensity
39.024024	313
40.019273	131
41.003288	999
41.027098	24
41.998537	15
49.008374	22
64.019273	14
65.998537	44
66.034923	700
67.018938	18
68.014187	545
68.998203	159
110.024752	115
