Mass spectrum: CI-1029; ESI-QTOF; MS2; CE: 20; [M-H]-
Name: CI-1029
Name: DTXSID8047262
Formula: C28H37NO4S
Exact mass: 483.2443294069
SMILES: CC(C)(C)C1C=C(CO)C(C)=CC=1SC1C(=O)OC(CC1=O)(CCC1C=CC(N)=CC=1)C(C)C
InChI: InChI=1S/C28H37NO4S/c1-17(2)28(12-11-19-7-9-21(29)10-8-19)15-23(31)25(26(32)33-28)34-24-13-18(3)20(16-30)14-22(24)27(4,5)6/h7-10,13-14,17,25,30H,11-12,15-16,29H2,1-6H3
Instrument type: ESI-QTOF
Ms type: MS2
Ion mode: NEGATIVE
Ionization: ESI
Collision energy: 20
Precursor m/z: 482.2370529552
Precursor type: [M-H]-
m/z	relative intensity
249.095474	16
482.237053	999
