Mass spectrum: PharmaGSID_48518; ESI-QTOF; MS2; CE: 40; [M+H]+
Name: PharmaGSID_48518
Formula: C13H9BrFNO3S2
Exact mass: 388.9191257214
SMILES: O=C(NS(=O)(=O)/C=C/C1=CC=CS1)C1C=CC(F)=CC=1Br
InChI: InChI=1S/C13H9BrFNO3S2/c14-12-8-9(15)3-4-11(12)13(17)16-21(18,19)7-5-10-2-1-6-20-10/h1-8H,(H,16,17)/b7-5+
Instrument type: ESI-QTOF
Ms type: MS2
Ion mode: POSITIVE
Ionization: ESI
Collision energy: 40
Precursor m/z: 389.9264021731
Precursor type: [M+H]+
m/z	relative intensity
65.038577	155
68.979347	20
82.994997	10
83.012756	20
84.002822	19
86.989912	13
97.008419	20
102.967068	40
109.010647	999
109.048176	19
109.064791	12
125.006705	10
154.961983	28
172.939668	33
172.972547	19
200.934582	89
