Mass spectrum: C.I. Pigment Red 22; ESI-QTOF; MS2; CE: 10; [M-H]-
Name: C.I. Pigment Red 22
Name: DTXSID1052329
Formula: C24H18N4O4
Exact mass: 426.132805093
SMILES: CC1=CC=C(C=C1/N=N/C1=C(O)C(=CC2=CC=CC=C21)C(=O)NC1C=CC=CC=1)[N+]([O-])=O
InChI: InChI=1S/C24H18N4O4/c1-15-11-12-18(28(31)32)14-21(15)26-27-22-19-10-6-5-7-16(19)13-20(23(22)29)24(30)25-17-8-3-2-4-9-17/h2-14,29H,1H3,(H,25,30)/b27-26+
Instrument type: ESI-QTOF
Ms type: MS2
Ion mode: NEGATIVE
Ionization: ESI
Collision energy: 10
Precursor m/z: 425.1255286413
Precursor type: [M-H]-
m/z	relative intensity
288.07785	42
397.119381	18
407.114964	83
425.125529	999
