Mass spectrum: l-Perillaldehyde; ESI-QTOF; MS2; CE: 10; [M+H]+
Name: l-Perillaldehyde
Name: DTXSID5041190
Formula: C10H14O
Exact mass: 150.1044650689
SMILES: CC(=C)C1CC=C(CC1)C=O
InChI: InChI=1S/C10H14O/c1-8(2)10-5-3-9(7-11)4-6-10/h3,7,10H,1,4-6H2,2H3
Instrument type: ESI-QTOF
Ms type: MS2
Ion mode: POSITIVE
Ionization: ESI
Collision energy: 10
Precursor m/z: 151.1117415206
Precursor type: [M+H]+
m/z	relative intensity
45.033491	63
79.017841	999
79.054227	21
107.085527	34
151.111742	31
