Mass spectrum: 4-Hexylaniline; ESI-QTOF; MS2; CE: 40; [M+H]+
Name: 4-Hexylaniline
Name: DTXSID5040708
Formula: C12H19N
Exact mass: 177.1517496135
SMILES: CCCCCCC1C=CC(N)=CC=1
InChI: InChI=1S/C12H19N/c1-2-3-4-5-6-11-7-9-12(13)10-8-11/h7-10H,2-6,13H2,1H3
Instrument type: ESI-QTOF
Ms type: MS2
Ion mode: POSITIVE
Ionization: ESI
Collision energy: 40
Precursor m/z: 178.1590260652
Precursor type: [M+H]+
m/z	relative intensity
29.038577	18
39.022927	73
41.038577	503
43.054227	435
50.015101	11
51.022927	38
55.054227	33
57.069877	10
63.022927	17
65.038577	712
66.046402	30
77.038577	556
78.046402	26
79.054227	78
89.038577	212
90.046402	541
91.054227	999
92.049476	13
93.057301	109
94.065126	116
103.054227	124
104.062052	37
105.069877	21
106.065126	430
107.072951	72
120.080776	44
