Mass spectrum: 1,2,4-Benzenetricarboxylic acid; ESI-QTOF; MS2; CE: 40; [M+H]+
Name: 1,2,4-Benzenetricarboxylic acid
Name: DTXSID3021487
Formula: C9H6O6
Exact mass: 210.0164379252
SMILES: OC(=O)C1C=CC(=CC=1C(O)=O)C(O)=O
InChI: InChI=1S/C9H6O6/c10-7(11)4-1-2-5(8(12)13)6(3-4)9(14)15/h1-3H,(H,10,11)(H,12,13)(H,14,15)
Instrument type: ESI-QTOF
Ms type: MS2
Ion mode: POSITIVE
Ionization: ESI
Collision energy: 40
Precursor m/z: 211.0237143769
Precursor type: [M+H]+
m/z	relative intensity
41.038577	28
43.017841	39
44.025666	13
45.033491	50
53.038577	392
55.017841	261
55.054227	19
63.022927	14
67.054227	16
68.997106	51
77.038577	79
81.018235	14
81.033491	999
82.02606	12
91.017841	121
105.033491	21
107.012756	198
109.028406	329
119.012756	62
121.028406	11
127.038971	17
137.02332	84
165.018235	39
193.01315	14
