Mass spectrum: 4-(Diethylamino)salicylaldehyde; ESI-QTOF; MS2; CE: 40; [M+H]+
Name: 4-(Diethylamino)salicylaldehyde
Name: DTXSID5022271
Formula: C11H15NO2
Exact mass: 193.1102787305
SMILES: CCN(CC)C1C=C(O)C(C=O)=CC=1
InChI: InChI=1S/C11H15NO2/c1-3-12(4-2)10-6-5-9(8-13)11(14)7-10/h5-8,14H,3-4H2,1-2H3
Instrument type: ESI-QTOF
Ms type: MS2
Ion mode: POSITIVE
Ionization: ESI
Collision energy: 40
Precursor m/z: 194.1175551822
Precursor type: [M+H]+
m/z	relative intensity
29.038577	18
39.022927	27
41.026001	16
41.038577	17
42.033826	49
44.049476	67
51.022927	135
52.030752	10
54.033826	44
54.046402	11
55.017841	32
55.054227	32
56.049476	12
58.065126	77
63.022927	17
64.030752	81
65.038577	776
65.083515	10
66.033826	11
66.046402	53
67.041651	29
67.054227	80
68.049476	40
69.033491	19
70.065126	62
72.080776	30
76.030752	27
77.038577	999
77.083515	11
78.033826	143
78.046402	148
79.054227	125
80.049476	106
81.057301	44
81.069877	11
82.041316	51
82.065126	41
83.049141	20
89.038577	19
90.046402	11
91.041651	109
91.054227	315
92.025666	33
92.049476	201
93.033491	163
93.057301	33
93.069877	36
94.041316	641
94.065126	141
95.049141	174
102.033826	20
103.054227	54
104.049476	420
105.033491	24
105.057301	222
106.02874	10
106.065126	36
107.049141	158
107.072951	13
108.04439	60
108.080776	10
109.052215	159
109.088601	11
110.06004	44
110.096426	44
116.049476	24
117.057301	77
118.065126	353
119.049141	31
119.072951	35
120.04439	109
120.080776	35
121.028406	18
121.052215	19
122.036231	41
122.06004	936
122.096426	18
123.044056	12
131.072951	13
132.04439	95
132.080776	148
133.052215	19
133.088601	161
133.10973	15
134.06004	35
135.044056	22
135.067865	13
136.039305	20
136.051881	25
136.07569	113
136.112076	15
137.083515	29
138.054955	10
138.09134	51
146.06004	30
147.104251	12
148.039305	106
148.07569	38
149.083515	27
150.054955	851
150.09134	162
151.06278	13
160.07569	39
164.10699	13
166.086255	13
176.070605	14
178.086255	22
192.101905	13
