Mass spectrum: 5-Methyl-2-(4-methylphenyl)-2,4-dihydro-3H-pyrazol-3-one; ESI-QTOF; MS2; CE: 10; [M+H]+
Name: 5-Methyl-2-(4-methylphenyl)-2,4-dihydro-3H-pyrazol-3-one
Formula: C11H12N2O
Exact mass: 188.0949630199
SMILES: CC1CC(=O)N(N=1)C1C=CC(C)=CC=1
InChI: InChI=1S/C11H12N2O/c1-8-3-5-10(6-4-8)13-11(14)7-9(2)12-13/h3-6H,7H2,1-2H3
Instrument type: ESI-QTOF
Ms type: MS2
Ion mode: POSITIVE
Ionization: ESI
Collision energy: 10
Precursor m/z: 189.1022394716
Precursor type: [M+H]+
m/z	relative intensity
107.049141	11
147.091675	49
148.07569	11
161.107325	19
189.102239	999
