Mass spectrum: BPS-MPE4; ESI-QTOF; MS2; CE: 40; [M-H]-
Name: BPS-MPE4
Name: DTXSID4058655
Formula: C19H16O4S
Exact mass: 340.0769297296
SMILES: OC1C=CC=CC=1S(=O)(=O)C1C=CC(=CC=1)OCC1C=CC=CC=1
InChI: InChI=1S/C19H16O4S/c20-18-8-4-5-9-19(18)24(21,22)17-12-10-16(11-13-17)23-14-15-6-2-1-3-7-15/h1-13,20H,14H2
Instrument type: ESI-QTOF
Ms type: MS2
Ion mode: NEGATIVE
Ionization: ESI
Collision energy: 40
Precursor m/z: 339.0696532779
Precursor type: [M-H]-
m/z	relative intensity
41.003288	11
63.962449	19
82.996094	18
91.018938	145
92.026763	118
108.021678	253
128.063149	99
138.985924	20
139.993749	158
143.050238	18
155.988663	51
156.058063	318
183.045153	55
184.052978	999
199.040068	46
220.019963	30
247.007053	14
248.014878	509
