Mass spectrum: 4-(Diethylamino)salicylaldehyde; ESI-QTOF; MS2; CE: 20; [M+H]+
Name: 4-(Diethylamino)salicylaldehyde
Name: DTXSID5022271
Formula: C11H15NO2
Exact mass: 193.1102787305
SMILES: CCN(CC)C1C=C(O)C(C=O)=CC=1
InChI: InChI=1S/C11H15NO2/c1-3-12(4-2)10-6-5-9(8-13)11(14)7-10/h5-8,14H,3-4H2,1-2H3
Instrument type: ESI-QTOF
Ms type: MS2
Ion mode: POSITIVE
Ionization: ESI
Collision energy: 20
Precursor m/z: 194.1175551822
Precursor type: [M+H]+
m/z	relative intensity
44.049476	12
58.065126	29
70.065126	16
72.080776	39
77.038577	18
79.054227	21
91.054227	28
93.069877	10
95.049141	14
103.054227	12
105.069877	11
107.049141	15
109.052215	12
110.06004	28
116.070605	11
118.065126	15
119.072951	15
120.080776	31
122.06004	76
132.080776	14
133.088601	24
135.044056	64
136.07569	41
137.083515	76
138.09134	100
147.067865	11
148.07569	13
148.112076	33
150.054955	160
150.09134	65
161.083515	17
164.10699	58
165.07843	28
166.086255	36
166.122641	208
176.10699	49
178.086255	11
179.09408	20
192.101905	21
194.117555	999
