Mass spectrum: SAR115740; ESI-QTOF; MS2; CE: 10; [M+H]+
Name: SAR115740
Name: DTXSID1047366
Formula: C24H17F2N3O
Exact mass: 401.1339685868
SMILES: O=C(NC1C=C2C=CNC2=CC=1)C1=CC2=CC(F)=CC=C2N1CC1=CC(F)=CC=C1
InChI: InChI=1S/C24H17F2N3O/c25-18-3-1-2-15(10-18)14-29-22-7-4-19(26)11-17(22)13-23(29)24(30)28-20-5-6-21-16(12-20)8-9-27-21/h1-13,27H,14H2,(H,28,30)
Instrument type: ESI-QTOF
Ms type: MS2
Ion mode: POSITIVE
Ionization: ESI
Collision energy: 10
Precursor m/z: 402.1412450385
Precursor type: [M+H]+
m/z	relative intensity
109.044605	86
131.060375	51
132.0682	20
136.055704	129
159.055289	78
162.034968	52
171.055289	12
239.097903	18
241.113553	28
244.093232	701
244.144439	31
267.092818	59
293.094749	14
402.141245	999
