Mass spectrum: 4-(Diethylamino)salicylaldehyde; ESI-QTOF; MS2; CE: 20; [M-H]-
Name: 4-(Diethylamino)salicylaldehyde
Name: DTXSID5022271
Formula: C11H15NO2
Exact mass: 193.1102787305
SMILES: CCN(CC)C1C=C(O)C(C=O)=CC=1
InChI: InChI=1S/C11H15NO2/c1-3-12(4-2)10-6-5-9(8-13)11(14)7-10/h5-8,14H,3-4H2,1-2H3
Instrument type: ESI-QTOF
Ms type: MS2
Ion mode: NEGATIVE
Ionization: ESI
Collision energy: 20
Precursor m/z: 192.1030022788
Precursor type: [M-H]-
m/z	relative intensity
93.034588	10
107.037662	12
108.045487	11
120.045487	999
120.081873	22
120.103002	10
134.061137	23
135.068962	305
136.076788	76
148.040402	442
162.056052	12
163.063877	43
164.071702	17
164.108088	255
192.103002	103
