Mass spectrum: 1-Butyl-1-methylpyrrolidinium; ESI-QTOF; MS2; CE: 10; [M+H]+
Name: 1-Butyl-1-methylpyrrolidinium
Name: DTXSID1031460
Formula: [C9H20N]+
Exact mass: 142.1595746454
SMILES: CCCC[N+]1(C)CCCC1
InChI: InChI=1S/C9H20N/c1-3-4-7-10(2)8-5-6-9-10/h3-9H2,1-2H3/q+1
Instrument type: ESI-QTOF
Ms type: MS2
Ion mode: POSITIVE
Ionization: ESI
Collision energy: 10
Precursor m/z: 143.1668510971
Precursor type: [M+H]+
m/z	relative intensity
86.096426	21
87.104251	20
142.159026	18
143.166851	999
