Mass spectrum: 2,2'-(Tetradecylimino)diethanol; ESI-QTOF; MS2; CE: 20; [M+H]+
Name: 2,2'-(Tetradecylimino)diethanol
Name: DTXSID5044865
Formula: C18H39NO2
Exact mass: 301.2980794961
SMILES: CCCCCCCCCCCCCCN(CCO)CCO
InChI: InChI=1S/C18H39NO2/c1-2-3-4-5-6-7-8-9-10-11-12-13-14-19(15-17-20)16-18-21/h20-21H,2-18H2,1H3
Instrument type: ESI-QTOF
Ms type: MS2
Ion mode: POSITIVE
Ionization: ESI
Collision energy: 20
Precursor m/z: 302.3053559478
Precursor type: [M+H]+
m/z	relative intensity
43.054227	24
44.049476	11
57.069877	32
70.065126	28
71.085527	14
88.07569	70
102.09134	15
106.086255	59
284.294791	66
302.305356	999
