Mass spectrum: Diphenolic acid; ESI-QTOF; MS2; CE: 10; [M-H]-
Name: Diphenolic acid
Formula: C17H18O4
Exact mass: 286.1205090634
SMILES: CC(CCC(O)=O)(C1C=CC(O)=CC=1)C1C=CC(O)=CC=1
InChI: InChI=1S/C17H18O4/c1-17(11-10-16(20)21,12-2-6-14(18)7-3-12)13-4-8-15(19)9-5-13/h2-9,18-19H,10-11H2,1H3,(H,20,21)
Instrument type: ESI-QTOF
Ms type: MS2
Ion mode: NEGATIVE
Ionization: ESI
Collision energy: 10
Precursor m/z: 285.1132326117
Precursor type: [M-H]-
m/z	relative intensity
93.034588	140
147.081539	946
191.071368	59
213.092103	96
285.113233	999
