Mass spectrum: 2-(N-Ethyl-m-toluidino)ethanol; ESI-QTOF; MS2; CE: 40; [M+H]+
Name: 2-(N-Ethyl-m-toluidino)ethanol
Formula: C11H17NO
Exact mass: 179.131014172
SMILES: CC1C=C(C=CC=1)N(CCO)CC
InChI: InChI=1S/C11H17NO/c1-3-12(7-8-13)11-6-4-5-10(2)9-11/h4-6,9,13H,3,7-8H2,1-2H3
Instrument type: ESI-QTOF
Ms type: MS2
Ion mode: POSITIVE
Ionization: ESI
Collision energy: 40
Precursor m/z: 180.1382906237
Precursor type: [M+H]+
m/z	relative intensity
45.033491	35
65.038577	85
77.038577	57
79.054227	23
91.054227	573
92.062052	73
93.057301	34
93.069877	106
103.054227	14
105.069877	10
106.065126	115
107.072951	57
115.054227	11
117.057301	21
118.065126	94
119.072951	33
120.080776	999
132.080776	43
134.096426	22
