Mass spectrum: 4,4'-(Isopropylidenebis(4,1-phenyleneoxy))dianiline; ESI-QTOF; MS2; CE: 40; [M+H]+
Name: 4,4'-(Isopropylidenebis(4,1-phenyleneoxy))dianiline
Name: DTXSID5051650
Formula: C27H26N2O2
Exact mass: 410.1994280888
SMILES: CC(C)(C1C=CC(=CC=1)OC1C=CC(N)=CC=1)C1C=CC(=CC=1)OC1C=CC(N)=CC=1
InChI: InChI=1S/C27H26N2O2/c1-27(2,19-3-11-23(12-4-19)30-25-15-7-21(28)8-16-25)20-5-13-24(14-6-20)31-26-17-9-22(29)10-18-26/h3-18H,28-29H2,1-2H3
Instrument type: ESI-QTOF
Ms type: MS2
Ion mode: POSITIVE
Ionization: ESI
Collision energy: 40
Precursor m/z: 411.2067045405
Precursor type: [M+H]+
m/z	relative intensity
80.049476	89
93.057301	237
105.069877	15
108.04439	999
108.080776	21
109.052215	17
165.069877	20
167.085527	35
169.101177	19
179.085527	17
181.101177	17
182.072616	25
182.096426	15
182.109002	15
185.083515	12
195.080441	77
196.088266	14
197.096091	45
198.09134	24
209.096091	19
210.09134	321
211.099165	14
225.091006	11
226.122641	95
275.130466	11
303.12538	35
304.133205	64
379.15668	12
396.183229	24
