Mass spectrum: 2,3-Diaminotoluene; ESI-QTOF; MS2; CE: 10; [M+H]+
Name: 2,3-Diaminotoluene
Name: DTXSID4027494
Formula: C7H10N2
Exact mass: 122.0843983338
SMILES: CC1C=CC=C(N)C=1N
InChI: InChI=1S/C7H10N2/c1-5-3-2-4-6(8)7(5)9/h2-4H,8-9H2,1H3
Instrument type: ESI-QTOF
Ms type: MS2
Ion mode: POSITIVE
Ionization: ESI
Collision energy: 10
Precursor m/z: 123.0916747855
Precursor type: [M+H]+
m/z	relative intensity
77.038577	29
79.054227	110
106.065126	437
108.0682	44
123.091675	999
