Mass spectrum: Carbazole; ESI-QTOF; MS2; CE: 40; [M-H]-
Name: Carbazole
Formula: C12H9N
Exact mass: 167.0734992945
SMILES: C1=CC=CC2NC3=CC=CC=C3C=21
InChI: InChI=1S/C12H9N/c1-3-7-11-9(5-1)10-6-2-4-8-12(10)13-11/h1-8,13H
Instrument type: ESI-QTOF
Ms type: MS2
Ion mode: NEGATIVE
Ionization: ESI
Collision energy: 40
Precursor m/z: 166.0662228428
Precursor type: [M-H]-
m/z	relative intensity
49.008374	61
50.003623	12
64.019273	26
90.034923	46
113.039674	39
116.050573	63
117.058398	35
140.050573	141
164.050573	268
165.058398	346
166.066223	999
