Mass spectrum: SR58611; ESI-QTOF; MS2; CE: 20; [M+H]+
Name: SR58611
Formula: C22H26ClNO4
Exact mass: 403.155036036
SMILES: CCOC(=O)COC1C=CC2CCC(CC=2C=1)NCC(O)C1C=CC=C(Cl)C=1
InChI: InChI=1S/C22H26ClNO4/c1-2-27-22(26)14-28-20-9-7-15-6-8-19(11-17(15)12-20)24-13-21(25)16-4-3-5-18(23)10-16/h3-5,7,9-10,12,19,21,24-25H,2,6,8,11,13-14H2,1H3
Instrument type: ESI-QTOF
Ms type: MS2
Ion mode: POSITIVE
Ionization: ESI
Collision energy: 20
Precursor m/z: 404.1623124877
Precursor type: [M+H]+
m/z	relative intensity
131.085527	23
154.041803	145
157.064791	12
159.080441	148
172.051881	12
205.085921	16
233.117221	999
233.174736	35
233.198545	17
386.151748	348
404.162312	384
