Mass spectrum: 5-Nitro-2-mercaptobenzimidazole; ESI-QTOF; MS2; CE: 20; [M-H]-
Name: 5-Nitro-2-mercaptobenzimidazole
Name: DTXSID7064235
Formula: C7H5N3O2S
Exact mass: 195.0102471563
SMILES: [O-][N+](=O)C1C=C2N=C(S)NC2=CC=1
InChI: InChI=1S/C7H5N3O2S/c11-10(12)4-1-2-5-6(3-4)9-7(13)8-5/h1-3H,(H2,8,9,13)
Instrument type: ESI-QTOF
Ms type: MS2
Ion mode: NEGATIVE
Ionization: ESI
Collision energy: 20
Precursor m/z: 194.0029707046
Precursor type: [M-H]-
m/z	relative intensity
57.975693	528
58.004685	13
130.017261	52
132.032911	19
147.002242	10
148.010067	612
162.0309	366
162.997157	11
164.004982	564
194.002971	999
