Mass spectrum: SAR102608; ESI-QTOF; MS2; CE: 40; [M+H]+
Name: SAR102608
Formula: C20H16FN5O
Exact mass: 361.1338883697
SMILES: CC1N=C(N=CC=1C(=O)NN1C=C(C)C2=CC(F)=CC=C12)C1=CC=CC=N1
InChI: InChI=1S/C20H16FN5O/c1-12-11-26(18-7-6-14(21)9-15(12)18)25-20(27)16-10-23-19(24-13(16)2)17-5-3-4-8-22-17/h3-11H,1-2H3,(H,25,27)
Instrument type: ESI-QTOF
Ms type: MS2
Ion mode: POSITIVE
Ionization: ESI
Collision energy: 40
Precursor m/z: 362.1411648214
Precursor type: [M+H]+
m/z	relative intensity
53.002191	20
66.033826	33
67.041651	20
78.033826	31
79.041451	177
82.05255	23
94.02854	62
105.044725	262
119.060375	13
143.060175	25
144.068	10
145.063449	19
145.075825	12
148.055704	35
149.063529	14
155.060175	22
157.063449	301
158.071274	20
159.079099	13
170.071274	188
171.079099	999
171.129203	39
171.147847	21
172.086924	11
185.082173	102
186.089998	177
197.082173	220
198.066188	54
213.077087	81
