Mass spectrum: 4-Sulfophthalic acid; ESI-QTOF; MS2; CE: 40; [M-H]-
Name: 4-Sulfophthalic acid
Formula: C8H6O7S
Exact mass: 245.9834232775
SMILES: OC(=O)C1=CC=C(C=C1C(O)=O)S(O)(=O)=O
InChI: InChI=1S/C8H6O7S/c9-7(10)5-2-1-4(16(13,14)15)3-6(5)8(11)12/h1-3H,(H,9,10)(H,11,12)(H,13,14,15)
Instrument type: ESI-QTOF
Ms type: MS2
Ion mode: NEGATIVE
Ionization: ESI
Collision energy: 40
Precursor m/z: 244.9761468258
Precursor type: [M-H]-
m/z	relative intensity
41.003288	22
79.957363	546
79.990378	12
80.965188	999
80.998203	29
81.019332	15
91.018938	135
93.034588	98
119.013853	22
154.980838	65
156.996488	14
163.003682	16
