Mass spectrum: 2,6-Dimethoxybenzoic acid; ESI-QTOF; MS2; CE: 10; [M+H]+
Name: 2,6-Dimethoxybenzoic acid
Name: DTXSID4046999
Formula: C9H10O4
Exact mass: 182.0579088082
SMILES: COC1=CC=CC(OC)=C1C(O)=O
InChI: InChI=1S/C9H10O4/c1-12-6-4-3-5-7(13-2)8(6)9(10)11/h3-5H,1-2H3,(H,10,11)
Instrument type: ESI-QTOF
Ms type: MS2
Ion mode: POSITIVE
Ionization: ESI
Collision energy: 10
Precursor m/z: 183.0651852599
Precursor type: [M+H]+
m/z	relative intensity
107.012756	11
150.031145	22
165.054621	999
183.065185	26
