Mass spectrum: Pantothenic acid; ESI-QTOF; MS2; CE: 20; [M+H]+
Name: Pantothenic acid
Formula: C9H17NO5
Exact mass: 219.1106726612
SMILES: CC(C)(CO)C(O)C(=O)NCCC(O)=O
InChI: InChI=1S/C9H17NO5/c1-9(2,5-11)7(14)8(15)10-4-3-6(12)13/h7,11,14H,3-5H2,1-2H3,(H,10,15)(H,12,13)
Instrument type: ESI-QTOF
Ms type: MS2
Ion mode: POSITIVE
Ionization: ESI
Collision energy: 20
Precursor m/z: 220.1179491129
Precursor type: [M+H]+
m/z	relative intensity
30.033826	121
41.038577	38
43.017841	273
45.033491	74
55.017841	20
55.054227	15
57.069877	145
59.049141	109
67.054227	82
69.069877	82
70.02874	76
72.04439	301
73.028406	48
74.023655	16
83.049141	18
85.064791	230
86.096426	34
87.080441	28
90.054955	999
90.09134	21
90.103916	10
95.049141	102
96.080776	28
98.023655	323
100.039305	33
103.075356	92
112.07569	10
113.059706	45
116.034219	63
124.07569	270
142.086255	90
156.101905	18
160.09682	26
166.086255	20
174.11247	10
184.09682	110
202.107384	109
220.117949	20
