Mass spectrum: 3-Chloro-7-hydroxy-4-methyl-2-benzopyrone; ESI-QTOF; MS2; CE: 40; [M+H]+
Name: 3-Chloro-7-hydroxy-4-methyl-2-benzopyrone
Name: DTXSID8052724
Formula: C10H7ClO3
Exact mass: 210.0083718002
SMILES: CC1=C(Cl)C(=O)OC2C=C(O)C=CC=21
InChI: InChI=1S/C10H7ClO3/c1-5-7-3-2-6(12)4-8(7)14-10(13)9(5)11/h2-4,12H,1H3
Instrument type: ESI-QTOF
Ms type: MS2
Ion mode: POSITIVE
Ionization: ESI
Collision energy: 40
Precursor m/z: 211.0156482519
Precursor type: [M+H]+
m/z	relative intensity
39.022927	16
41.038577	26
51.022927	106
55.017841	37
63.022927	31
65.038577	374
66.046402	14
68.997106	133
72.983954	15
76.030752	10
77.038577	806
78.046402	44
79.017841	15
79.054227	25
81.033491	10
90.046402	11
91.054227	914
94.041316	25
101.038577	69
102.046402	172
103.054227	531
104.062052	22
105.033491	41
107.049141	45
115.054227	15
119.049141	322
120.056966	125
129.033491	16
131.049141	471
132.056966	64
134.036231	21
137.02332	13
147.044056	999
148.051881	220
149.015254	10
155.025819	51
175.038971	20
211.015648	23
