Mass spectrum: C.I. Basic Red 9; ESI-QTOF; MS2; CE: 40; [M+H]+
Name: C.I. Basic Red 9
Name: DTXSID1021247
Formula: C19H17N3
Exact mass: 287.1422475645
SMILES: NC1C=CC(=CC=1)C(C1C=CC(N)=CC=1)=C1C=CC(=N)C=C1
InChI: InChI=1S/C19H17N3/c20-16-7-1-13(2-8-16)19(14-3-9-17(21)10-4-14)15-5-11-18(22)12-6-15/h1-12,20H,21-22H2
Instrument type: ESI-QTOF
Ms type: MS2
Ion mode: POSITIVE
Ionization: ESI
Collision energy: 40
Precursor m/z: 288.1495240162
Precursor type: [M+H]+
m/z	relative intensity
141.069877	14
143.072951	12
151.054227	52
154.065126	11
167.072951	44
168.080776	130
178.065126	83
180.080776	12
194.08385	26
195.091675	999
230.096426	19
245.107325	29
254.096426	42
255.104251	12
256.112076	14
269.107325	24
270.11515	10
271.122975	96
272.118224	36
273.126049	41
286.133874	27
288.149524	88
