Mass spectrum: 1H-1,2,4-Triazole; ESI-QTOF; MS2; CE: 10; [M-H]-
Name: 1H-1,2,4-Triazole
Name: DTXSID6027131
Formula: C2H3N3
Exact mass: 69.0326971179
SMILES: C1=NNC=N1
InChI: InChI=1S/C2H3N3/c1-3-2-5-4-1/h1-2H,(H,3,4,5)
Instrument type: ESI-QTOF
Ms type: MS2
Ion mode: NEGATIVE
Ionization: ESI
Collision energy: 10
Precursor m/z: 68.0254206662
Precursor type: [M-H]-
m/z	relative intensity
41.014522	50
66.009771	10
68.025421	999
