Mass spectrum: N-Cyclohexyl-N-methylcyclohexanamine; ESI-QTOF; MS2; CE: 10; [M+H]+
Name: N-Cyclohexyl-N-methylcyclohexanamine
Name: DTXSID6044727
Formula: C13H25N
Exact mass: 195.1986998049
SMILES: CN(C1CCCCC1)C1CCCCC1
InChI: InChI=1S/C13H25N/c1-14(12-8-4-2-5-9-12)13-10-6-3-7-11-13/h12-13H,2-11H2,1H3
Instrument type: ESI-QTOF
Ms type: MS2
Ion mode: POSITIVE
Ionization: ESI
Collision energy: 10
Precursor m/z: 196.2059762566
Precursor type: [M+H]+
m/z	relative intensity
55.054227	16
83.085527	24
114.127726	83
196.205976	999
