Mass spectrum: PharmaGSID_48518; ESI-QTOF; MS2; CE: 20; [M+H]+
Name: PharmaGSID_48518
Formula: C13H9BrFNO3S2
Exact mass: 388.9191257214
SMILES: O=C(NS(=O)(=O)/C=C/C1=CC=CS1)C1C=CC(F)=CC=1Br
InChI: InChI=1S/C13H9BrFNO3S2/c14-12-8-9(15)3-4-11(12)13(17)16-21(18,19)7-5-10-2-1-6-20-10/h1-8H,(H,16,17)/b7-5+
Instrument type: ESI-QTOF
Ms type: MS2
Ion mode: POSITIVE
Ionization: ESI
Collision energy: 20
Precursor m/z: 389.9264021731
Precursor type: [M+H]+
m/z	relative intensity
41.038577	14
74.06004	23
81.033491	23
83.012756	41
85.01179	11
86.989912	50
97.010647	51
98.987684	13
102.967068	43
108.000594	21
109.010647	890
109.0356	32
109.052215	17
116.982718	21
125.003334	16
144.977633	108
154.963125	255
172.972547	999
173.02332	11
200.934582	544
217.963359	10
