Mass spectrum: Elzasonan; ESI-QTOF; MS2; CE: 10; [M+H]+
Name: Elzasonan
Name: DTXSID7047277
Formula: C22H23Cl2N3OS
Exact mass: 447.0938885282
SMILES: CN1CCN(CC1)C1=CC=CC=C1/C=C1/SCCN(C/1=O)C1=CC(Cl)=C(Cl)C=C1
InChI: InChI=1S/C22H23Cl2N3OS/c1-25-8-10-26(11-9-25)20-5-3-2-4-16(20)14-21-22(28)27(12-13-29-21)17-6-7-18(23)19(24)15-17/h2-7,14-15H,8-13H2,1H3/b21-14+
Instrument type: ESI-QTOF
Ms type: MS2
Ion mode: POSITIVE
Ionization: ESI
Collision energy: 10
Precursor m/z: 448.1011649799
Precursor type: [M+H]+
m/z	relative intensity
448.101165	999
