Mass spectrum: 3-(Trifluoromethyl)benzoic acid; ESI-QTOF; MS2; CE: 10; [M-H]-
Name: 3-(Trifluoromethyl)benzoic acid
Name: DTXSID2041460
Formula: C8H5F3O2
Exact mass: 190.0241640041
SMILES: OC(=O)C1=CC(=CC=C1)C(F)(F)F
InChI: InChI=1S/C8H5F3O2/c9-8(10,11)6-3-1-2-5(4-6)7(12)13/h1-4H,(H,12,13)
Instrument type: ESI-QTOF
Ms type: MS2
Ion mode: NEGATIVE
Ionization: ESI
Collision energy: 10
Precursor m/z: 189.0168875524
Precursor type: [M-H]-
m/z	relative intensity
145.027058	999
189.016888	466
