Mass spectrum: 1-Amino-2-propanol; ESI-QTOF; MS2; CE: 20; [M+H]+
Name: 1-Amino-2-propanol
Formula: C3H9NO
Exact mass: 75.0684139168
SMILES: CC(O)CN
InChI: InChI=1S/C3H9NO/c1-3(5)2-4/h3,5H,2,4H2,1H3
Instrument type: ESI-QTOF
Ms type: MS2
Ion mode: POSITIVE
Ionization: ESI
Collision energy: 20
Precursor m/z: 76.0756903685
Precursor type: [M+H]+
m/z	relative intensity
30.033826	55
31.017841	42
39.022927	245
41.038577	999
42.033826	144
43.017841	47
43.041651	955
44.025666	18
58.065126	556
59.049141	58
