Mass spectrum: Enterolactone; ESI-QTOF; MS2; CE: 20; [M-H]-
Name: Enterolactone
Formula: C18H18O4
Exact mass: 298.1205090634
SMILES: OC1C=C(CC2C(CC3C=CC=C(O)C=3)COC2=O)C=CC=1
InChI: InChI=1S/C18H18O4/c19-15-5-1-3-12(8-15)7-14-11-22-18(21)17(14)10-13-4-2-6-16(20)9-13/h1-6,8-9,14,17,19-20H,7,10-11H2
Instrument type: ESI-QTOF
Ms type: MS2
Ion mode: NEGATIVE
Ionization: ESI
Collision energy: 20
Precursor m/z: 297.1132326117
Precursor type: [M-H]-
m/z	relative intensity
106.042413	59
107.050238	685
107.086624	16
109.065888	11
119.050238	99
120.058063	26
121.065888	425
131.050238	61
132.058063	25
133.065888	104
143.050238	16
145.065888	106
146.073714	38
147.045153	33
165.055718	244
189.055718	381
251.107753	52
253.123403	999
297.113233	869
