Mass spectrum: N-(2-Hydroxyethyl)acetamide; ESI-QTOF; MS2; CE: 40; [M+H]+
Name: N-(2-Hydroxyethyl)acetamide
Name: DTXSID6044804
Formula: C4H9NO2
Exact mass: 103.0633285391
SMILES: CC(=O)NCCO
InChI: InChI=1S/C4H9NO2/c1-4(7)5-2-3-6/h6H,2-3H2,1H3,(H,5,7)
Instrument type: ESI-QTOF
Ms type: MS2
Ion mode: POSITIVE
Ionization: ESI
Collision energy: 40
Precursor m/z: 104.0706049908
Precursor type: [M+H]+
m/z	relative intensity
31.041651	47
42.033826	16
43.017841	999
43.041651	70
44.049476	874
45.033491	289
