Mass spectrum: 2-(Diisopropylamino)ethanol; ESI-QTOF; MS2; CE: 10; [M+H]+
Name: 2-(Diisopropylamino)ethanol
Formula: C8H19NO
Exact mass: 145.1466642358
SMILES: CC(C)N(CCO)C(C)C
InChI: InChI=1S/C8H19NO/c1-7(2)9(5-6-10)8(3)4/h7-8,10H,5-6H2,1-4H3
Instrument type: ESI-QTOF
Ms type: MS2
Ion mode: POSITIVE
Ionization: ESI
Collision energy: 10
Precursor m/z: 146.1539406875
Precursor type: [M+H]+
m/z	relative intensity
43.054227	29
44.049476	121
62.06004	133
86.096426	99
104.10699	314
146.153941	999
