Mass spectrum: 6-Ethoxy-2,3,4-trimethyl-1,2,3,4-tetrahydroquinoline; ESI-QTOF; MS2; CE: 10; [M+H]+
Name: 6-Ethoxy-2,3,4-trimethyl-1,2,3,4-tetrahydroquinoline
Name: DTXSID6042365
Formula: C14H21NO
Exact mass: 219.1623142996
SMILES: CCOC1C=C2C(C)CC(C)(C)NC2=CC=1
InChI: InChI=1S/C14H21NO/c1-5-16-11-6-7-13-12(8-11)10(2)9-14(3,4)15-13/h6-8,10,15H,5,9H2,1-4H3
Instrument type: ESI-QTOF
Ms type: MS2
Ion mode: POSITIVE
Ionization: ESI
Collision energy: 10
Precursor m/z: 220.1695907513
Precursor type: [M+H]+
m/z	relative intensity
135.067865	13
136.07569	19
164.10699	942
164.155952	37
220.169591	999
