Mass spectrum: N,N-Dicyclohexyl-2-benzothiazolesulfenamide; ESI-QTOF; MS2; CE: 40; [M+H]+
Name: N,N-Dicyclohexyl-2-benzothiazolesulfenamide
Name: DTXSID3027584
Formula: C19H26N2S2
Exact mass: 346.1537403042
SMILES: C1CCCCC1N(SC1=NC2C=CC=CC=2S1)C1CCCCC1
InChI: InChI=1S/C19H26N2S2/c1-3-9-15(10-4-1)21(16-11-5-2-6-12-16)23-19-20-17-13-7-8-14-18(17)22-19/h7-8,13-16H,1-6,9-12H2
Instrument type: ESI-QTOF
Ms type: MS2
Ion mode: POSITIVE
Ionization: ESI
Collision energy: 40
Precursor m/z: 347.1610167559
Precursor type: [M+H]+
m/z	relative intensity
55.054227	180
56.049476	296
70.065126	12
81.069877	15
83.085527	128
98.096426	169
100.112076	32
138.127726	999
152.143376	40
165.977967	270
180.174676	46
183.004516	28
