Mass spectrum: 6-Chloro-2-picolinic acid; ESI-QTOF; MS2; CE: 40; [M+H]+
Name: 6-Chloro-2-picolinic acid
Name: DTXSID7040289
Formula: C6H4ClNO2
Exact mass: 156.9930560896
SMILES: OC(=O)C1C=CC=C(Cl)N=1
InChI: InChI=1S/C6H4ClNO2/c7-5-3-1-2-4(8-5)6(9)10/h1-3H,(H,9,10)
Instrument type: ESI-QTOF
Ms type: MS2
Ion mode: POSITIVE
Ionization: ESI
Collision energy: 40
Precursor m/z: 158.0003325413
Precursor type: [M+H]+
m/z	relative intensity
45.992355	34
47.00018	273
47.999451	91
48.971378	52
61.007276	92
62.015101	98
62.987028	41
63.022927	37
63.994853	999
64.030752	23
65.002191	323
65.99744	11
76.018175	115
79.017841	201
80.025666	163
84.983954	12
111.994853	55
