Mass spectrum: FD and C Green No. 1; ESI-QTOF; MS2; CE: 40; [M+H]+
Name: FD and C Green No. 1
Name: DTXSID3020671
Formula: [C37H37N2O6S2]+
Exact mass: 669.2093033889
SMILES: CC[N+](CC1=CC(=CC=C1)S(O)(=O)=O)=C1C=CC(C=C1)=C(C1C=CC=CC=1)C1C=CC(=CC=1)N(CC1C=C(C=CC=1)S(O)(=O)=O)CC |c:14,t:21|
InChI: InChI=1S/C37H36N2O6S2/c1-3-38(26-28-10-8-14-35(24-28)46(40,41)42)33-20-16-31(17-21-33)37(30-12-6-5-7-13-30)32-18-22-34(23-19-32)39(4-2)27-29-11-9-15-36(25-29)47(43,44)45/h5-25H,3-4,26-27H2,1-2H3,(H-,40,41,42,43,44,45)/p+1
Instrument type: ESI-QTOF
Ms type: MS2
Ion mode: POSITIVE
Ionization: ESI
Collision energy: 40
Precursor m/z: 670.2165798406
Precursor type: [M+H]+
m/z	relative intensity
418.238361	11
419.242815	27
483.17101	39
484.175464	122
499.20231	29
500.207633	81
669.208755	26
670.21658	999
