Mass spectrum: 4-(Hydroxymethyl)-4-methyl-1-phenylpyrazolidin-3-one; ESI-QTOF; MS2; CE: 20; [M+H]+
Name: 4-(Hydroxymethyl)-4-methyl-1-phenylpyrazolidin-3-one
Name: DTXSID9044794
Formula: C11H14N2O2
Exact mass: 206.105527706
SMILES: CC1(CO)CN(NC1=O)C1C=CC=CC=1
InChI: InChI=1S/C11H14N2O2/c1-11(8-14)7-13(12-10(11)15)9-5-3-2-4-6-9/h2-6,14H,7-8H2,1H3,(H,12,15)
Instrument type: ESI-QTOF
Ms type: MS2
Ion mode: POSITIVE
Ionization: ESI
Collision energy: 20
Precursor m/z: 207.1128041577
Precursor type: [M+H]+
m/z	relative intensity
43.029075	12
43.054227	14
57.057301	14
59.049141	18
59.072951	16
69.033491	69
73.064791	22
77.038577	108
78.042379	19
79.017841	22
80.049476	16
86.06004	23
92.049476	14
93.057301	60
94.065126	117
104.049476	159
105.057301	21
105.065854	10
106.041316	12
106.065126	43
107.085527	14
115.054227	13
117.057301	67
118.065126	31
119.060375	20
119.072951	30
121.076025	602
121.101177	20
130.065126	50
131.072951	113
132.080776	11
133.076025	33
133.088601	30
134.096426	351
144.080776	82
145.088601	19
146.096426	150
151.029075	18
156.0682	23
158.06004	46
159.067865	44
159.091675	47
160.07569	999
162.103916	12
164.10699	26
174.078764	13
175.086589	40
176.094414	194
188.094414	13
189.102239	41
207.112804	181
