Mass spectrum: Candoxatril; ESI-QTOF; MS2; CE: 40; [M+H]+
Name: Candoxatril
Formula: C29H41NO7
Exact mass: 515.2883026714
SMILES: COCCOCC(CC1(CCCC1)C(=O)NC1CCC(CC1)C(O)=O)C(=O)OC1=CC2CCCC=2C=C1
InChI: InChI=1S/C29H41NO7/c1-35-15-16-36-19-23(27(33)37-25-12-9-20-5-4-6-22(20)17-25)18-29(13-2-3-14-29)28(34)30-24-10-7-21(8-11-24)26(31)32/h9,12,17,21,23-24H,2-8,10-11,13-16,18-19H2,1H3,(H,30,34)(H,31,32)
Instrument type: ESI-QTOF
Ms type: MS2
Ion mode: POSITIVE
Ionization: ESI
Collision energy: 40
Precursor m/z: 516.2955791231
Precursor type: [M+H]+
m/z	relative intensity
41.038577	10
59.049141	167
67.054227	16
69.033491	21
79.054227	261
81.069877	317
91.054227	35
93.069877	242
107.085527	828
109.064791	63
109.101177	44
117.069877	324
126.09134	760
126.127726	10
127.075356	28
134.096426	77
135.080441	999
135.116827	15
144.101905	56
147.080441	28
152.10699	364
153.091006	31
162.09134	80
163.075356	26
179.106656	18
180.101905	860
180.150867	12
183.137956	11
187.075356	33
211.132871	32
232.166911	29
256.154335	21
260.161825	167
269.153606	65
270.148855	26
278.17239	764
278.232585	10
288.15674	74
306.167305	145
354.221626	24
382.222414	124
440.24315	25
