Mass spectrum: Triethyl phosphonoacetate; ESI-QTOF; MS2; CE: 20; [M+H]+
Name: Triethyl phosphonoacetate
Formula: C8H17O5P
Exact mass: 224.0813601438
SMILES: CCOC(=O)CP(=O)(OCC)OCC
InChI: InChI=1S/C8H17O5P/c1-4-11-8(9)7-14(10,12-5-2)13-6-3/h4-7H2,1-3H3
Instrument type: ESI-QTOF
Ms type: MS2
Ion mode: POSITIVE
Ionization: ESI
Collision energy: 20
Precursor m/z: 225.0886365955
Precursor type: [M+H]+
m/z	relative intensity
80.973607	33
90.994342	10
94.989257	12
104.973607	62
109.004907	84
122.984172	999
123.0288	41
123.044056	27
123.056943	11
140.994736	18
151.015472	112
169.026036	30
179.046772	16
