Mass spectrum: 5-Methyl-2-(4-methylphenyl)-2,4-dihydro-3H-pyrazol-3-one; ESI-QTOF; MS2; CE: 40; [M-H]-
Name: 5-Methyl-2-(4-methylphenyl)-2,4-dihydro-3H-pyrazol-3-one
Formula: C11H12N2O
Exact mass: 188.0949630199
SMILES: CC1CC(=O)N(N=1)C1C=CC(C)=CC=1
InChI: InChI=1S/C11H12N2O/c1-8-3-5-10(6-4-8)13-11(14)7-9(2)12-13/h3-6H,7H2,1-2H3
Instrument type: ESI-QTOF
Ms type: MS2
Ion mode: NEGATIVE
Ionization: ESI
Collision energy: 40
Precursor m/z: 187.0876865682
Precursor type: [M-H]-
m/z	relative intensity
38.003623	20
39.011448	72
41.003288	259
41.998537	53
52.019273	68
65.998537	999
66.034923	21
66.047499	12
91.055324	10
96.032911	15
104.050573	55
106.066223	320
