Mass spectrum: FK 1052; ESI-QTOF; MS2; CE: 40; [M+H]+
Name: FK 1052
Formula: C18H19N3O
Exact mass: 293.1528122506
SMILES: CC1N=CNC=1CC1CCC2=C(C)C3=CC=CC=C3N2C1=O
InChI: InChI=1S/C18H19N3O/c1-11-14-5-3-4-6-17(14)21-16(11)8-7-13(18(21)22)9-15-12(2)19-10-20-15/h3-6,10,13H,7-9H2,1-2H3,(H,19,20)
Instrument type: ESI-QTOF
Ms type: MS2
Ion mode: POSITIVE
Ionization: ESI
Collision energy: 40
Precursor m/z: 294.1600887023
Precursor type: [M+H]+
m/z	relative intensity
41.038577	13
42.033826	18
54.033826	46
67.054227	22
68.049476	10
77.038577	15
80.049476	129
91.054227	10
93.057301	10
94.065126	187
95.060375	999
95.11789	13
96.0682	180
104.049476	13
107.060375	15
108.080776	19
117.069877	22
120.0682	15
121.076025	374
122.08385	19
123.091675	13
130.065126	14
131.072951	12
135.091675	35
137.070939	13
143.072951	71
144.080776	561
149.070939	680
149.119901	12
158.096426	111
170.096426	17
180.080776	15
181.088601	17
182.096426	11
294.160089	16
