Mass spectrum: N-(3-Amino-4-methoxyphenyl)acetamide; ESI-QTOF; MS2; CE: 10; [M+H]+
Name: N-(3-Amino-4-methoxyphenyl)acetamide
Name: DTXSID2027620
Formula: C9H12N2O2
Exact mass: 180.0898776422
SMILES: CC(=O)NC1=CC(N)=C(C=C1)OC
InChI: InChI=1S/C9H12N2O2/c1-6(12)11-7-3-4-9(13-2)8(10)5-7/h3-5H,10H2,1-2H3,(H,11,12)
Instrument type: ESI-QTOF
Ms type: MS2
Ion mode: POSITIVE
Ionization: ESI
Collision energy: 10
Precursor m/z: 181.0971540939
Precursor type: [M+H]+
m/z	relative intensity
101.002191	12
107.060375	98
108.04439	75
108.0682	66
122.06004	30
124.063114	26
139.086589	544
140.070605	214
149.070939	14
150.078764	15
163.086589	48
166.073679	38
181.097154	999
