Mass spectrum: Tributyl citrate; ESI-QTOF; MS2; CE: 20; [M+H]+
Name: Tributyl citrate
Formula: C18H32O7
Exact mass: 360.2148033769
SMILES: CCCCOC(=O)C(O)(CC(=O)OCCCC)CC(=O)OCCCC
InChI: InChI=1S/C18H32O7/c1-4-7-10-23-15(19)13-18(22,17(21)25-12-9-6-3)14-16(20)24-11-8-5-2/h22H,4-14H2,1-3H3
Instrument type: ESI-QTOF
Ms type: MS2
Ion mode: POSITIVE
Ionization: ESI
Collision energy: 20
Precursor m/z: 361.2220798286
Precursor type: [M+H]+
m/z	relative intensity
43.017841	103
57.069877	40
68.997106	23
111.00767	104
129.018235	999
139.002585	89
157.01315	43
185.080835	424
