Mass spectrum: Dibutyl nonanedioate; ESI-QTOF; MS2; CE: 20; [M+H]+
Name: Dibutyl nonanedioate
Name: DTXSID5044815
Formula: C17H32O4
Exact mass: 300.23005951
SMILES: CCCCOC(=O)CCCCCCCC(=O)OCCCC
InChI: InChI=1S/C17H32O4/c1-3-5-14-20-16(18)12-10-8-7-9-11-13-17(19)21-15-6-4-2/h3-15H2,1-2H3
Instrument type: ESI-QTOF
Ms type: MS2
Ion mode: POSITIVE
Ionization: ESI
Collision energy: 20
Precursor m/z: 301.2373359617
Precursor type: [M+H]+
m/z	relative intensity
41.038577	18
43.017841	51
55.017841	16
55.054227	191
57.033491	10
57.069877	94
67.054227	86
69.033491	51
69.069877	35
79.054227	49
81.069877	66
83.049141	16
83.085527	244
85.064791	15
93.069877	52
97.101177	740
97.143436	13
101.096091	11
107.085527	235
109.101177	48
111.080441	20
125.096091	999
125.132477	17
135.080441	128
143.106656	129
153.091006	132
171.101571	541
227.164171	21
