Mass spectrum: 4-Butylphenol; ESI-QTOF; MS2; CE: 20; [M-H]-
Name: 4-Butylphenol
Name: DTXSID3047425
Formula: C10H14O
Exact mass: 150.1044650689
SMILES: CCCCC1C=CC(O)=CC=1
InChI: InChI=1S/C10H14O/c1-2-3-4-9-5-7-10(11)8-6-9/h5-8,11H,2-4H2,1H3
Instrument type: ESI-QTOF
Ms type: MS2
Ion mode: NEGATIVE
Ionization: ESI
Collision energy: 20
Precursor m/z: 149.0971886172
Precursor type: [M-H]-
m/z	relative intensity
105.034588	11
106.042413	999
106.078799	14
149.097189	415
