Mass spectrum: 5HPP-33; ESI-QTOF; MS2; CE: 20; [M+H]+
Name: 5HPP-33
Formula: C20H21NO3
Exact mass: 323.1521435442
SMILES: CC(C)C1C=CC=C(C(C)C)C=1N1C(=O)C2C=C(O)C=CC=2C1=O
InChI: InChI=1S/C20H21NO3/c1-11(2)14-6-5-7-15(12(3)4)18(14)21-19(23)16-9-8-13(22)10-17(16)20(21)24/h5-12,22H,1-4H3
Instrument type: ESI-QTOF
Ms type: MS2
Ion mode: POSITIVE
Ionization: ESI
Collision energy: 20
Precursor m/z: 324.1594199959
Precursor type: [M+H]+
m/z	relative intensity
146.023655	12
240.06552	999
240.150867	10
282.11247	33
