Mass spectrum: DL-Goitrin; ESI-QTOF; MS2; CE: 20; [M-H]-
Name: DL-Goitrin
Name: DTXSID10274235
Formula: C5H7NOS
Exact mass: 129.024834583
SMILES: C=CC1CNC(=S)O1
InChI: InChI=1S/C5H7NOS/c1-2-4-3-6-5(8)7-4/h2,4H,1,3H2,(H,6,8)
Instrument type: ESI-QTOF
Ms type: MS2
Ion mode: NEGATIVE
Ionization: ESI
Collision energy: 20
Precursor m/z: 128.0175581313
Precursor type: [M-H]-
m/z	relative intensity
57.975693	999
71.991343	136
