Mass spectrum: Enadoline; ESI-QTOF; MS2; CE: 40; [M+H]+
Name: Enadoline
Formula: C24H32N2O3
Exact mass: 396.2412929025
SMILES: CN(C1CCC2(CC1N1CCCC1)CCCO2)C(=O)CC1C=CC=C2OC=CC2=1
InChI: InChI=1S/C24H32N2O3/c1-25(23(27)16-18-6-4-7-22-19(18)9-15-28-22)20-8-11-24(10-5-14-29-24)17-21(20)26-12-2-3-13-26/h4,6-7,9,15,20-21H,2-3,5,8,10-14,16-17H2,1H3
Instrument type: ESI-QTOF
Ms type: MS2
Ion mode: POSITIVE
Ionization: ESI
Collision energy: 40
Precursor m/z: 397.2485693542
Precursor type: [M+H]+
m/z	relative intensity
32.049476	17
41.038577	13
43.017841	15
43.054227	26
67.054227	175
69.033491	117
71.049141	234
79.054227	23
81.069877	19
91.054227	177
93.069877	77
95.049141	81
95.085527	62
97.064791	20
109.064791	13
109.088601	19
109.101177	51
119.085527	47
122.096426	17
131.049141	301
137.096091	450
140.10699	11
150.127726	33
168.138291	999
168.187252	40
190.086255	41
326.17507	212
