Mass spectrum: 5-Chlorosalicylanilide; ESI-QTOF; MS2; CE: 40; [M+H]+
Name: 5-Chlorosalicylanilide
Name: DTXSID9037749
Formula: C13H10ClNO2
Exact mass: 247.040006281
SMILES: OC1C=CC(Cl)=CC=1C(=O)NC1C=CC=CC=1
InChI: InChI=1S/C13H10ClNO2/c14-9-6-7-12(16)11(8-9)13(17)15-10-4-2-1-3-5-10/h1-8,16H,(H,15,17)
Instrument type: ESI-QTOF
Ms type: MS2
Ion mode: POSITIVE
Ionization: ESI
Collision energy: 40
Precursor m/z: 248.0472827327
Precursor type: [M+H]+
m/z	relative intensity
48.983954	16
51.022927	23
72.983954	101
77.038577	443
93.057301	22
94.065126	999
98.999604	565
126.994519	324
154.989434	495
