Mass spectrum: UK-156819; ESI-QTOF; MS2; CE: 40; [M-H]-
Name: UK-156819
Name: DTXSID2047309
Formula: C19H20N2O2
Exact mass: 308.1524778974
SMILES: CC1=C(C2C=CC=CC=2N1CCCCC(O)=O)C1=CN=CC=C1
InChI: InChI=1S/C19H20N2O2/c1-14-19(15-7-6-11-20-13-15)16-8-2-3-9-17(16)21(14)12-5-4-10-18(22)23/h2-3,6-9,11,13H,4-5,10,12H2,1H3,(H,22,23)
Instrument type: ESI-QTOF
Ms type: MS2
Ion mode: NEGATIVE
Ionization: ESI
Collision energy: 40
Precursor m/z: 307.1452014457
Precursor type: [M-H]-
m/z	relative intensity
130.066223	25
205.077122	120
207.092772	999
207.150287	23
208.100597	18
