Mass spectrum: Tri-o-cresyl phosphate; ESI-QTOF; MS2; CE: 10; [M+H]+
Name: Tri-o-cresyl phosphate
Formula: C21H21O4P
Exact mass: 368.1177456491
SMILES: CC1C=CC=CC=1OP(=O)(OC1C=CC=CC=1C)OC1C=CC=CC=1C
InChI: InChI=1S/C21H21O4P/c1-16-10-4-7-13-19(16)23-26(22,24-20-14-8-5-11-17(20)2)25-21-15-9-6-12-18(21)3/h4-15H,1-3H3
Instrument type: ESI-QTOF
Ms type: MS2
Ion mode: POSITIVE
Ionization: ESI
Collision energy: 10
Precursor m/z: 369.1250221008
Precursor type: [M+H]+
m/z	relative intensity
91.054227	11
369.125022	999
