Mass spectrum: Methyl red; ESI-QTOF; MS2; CE: 40; [M+H]+
Name: Methyl red
Name: DTXSID1042154
Formula: C15H15N3O2
Exact mass: 269.1164267453
SMILES: CN(C)C1C=CC(=CC=1)/N=N/C1=CC=CC=C1C(O)=O
InChI: InChI=1S/C15H15N3O2/c1-18(2)12-9-7-11(8-10-12)16-17-14-6-4-3-5-13(14)15(19)20/h3-10H,1-2H3,(H,19,20)/b17-16+
Instrument type: ESI-QTOF
Ms type: MS2
Ion mode: POSITIVE
Ionization: ESI
Collision energy: 40
Precursor m/z: 270.123703197
Precursor type: [M+H]+
m/z	relative intensity
42.033826	376
44.049476	22
65.038577	32
68.049476	12
77.038577	234
78.046402	10
79.054227	196
80.049476	29
91.054227	152
92.049476	26
92.062052	40
93.057301	11
93.069877	58
94.065126	26
103.054227	46
104.049476	56
105.057301	215
115.054227	97
118.065126	47
119.072951	35
120.080776	334
127.054227	41
128.062052	16
129.069877	25
139.054227	40
140.049476	15
140.062052	20
141.069877	34
148.07569	558
148.120629	13
151.054227	114
152.062052	999
152.10699	25
152.1308	15
153.069877	746
153.114816	18
154.077702	69
155.085527	24
164.062052	11
165.069877	113
166.065126	523
166.110065	10
167.085527	23
168.056966	17
178.065126	47
179.049141	12
179.072951	31
180.056966	171
180.080776	656
180.125715	17
181.064791	86
181.088601	301
194.06004	22
194.096426	100
195.104251	67
196.112076	14
206.06004	16
207.067865	52
208.07569	282
209.083515	62
222.09134	129
223.099165	17
