Mass spectrum: 2-Ethylaniline; ESI-QTOF; MS2; CE: 10; [M+H]+
Name: 2-Ethylaniline
Name: DTXSID0042242
Formula: C8H11N
Exact mass: 121.0891493583
SMILES: CCC1C=CC=CC=1N
InChI: InChI=1S/C8H11N/c1-2-7-5-3-4-6-8(7)9/h3-6H,2,9H2,1H3
Instrument type: ESI-QTOF
Ms type: MS2
Ion mode: POSITIVE
Ionization: ESI
Collision energy: 10
Precursor m/z: 122.09642581
Precursor type: [M+H]+
m/z	relative intensity
77.038577	44
79.054227	37
93.057301	93
94.065126	260
103.054227	45
105.069877	105
106.065126	51
107.072951	11
120.080776	67
122.096426	999
