Mass spectrum: SU-5416; ESI-QTOF; MS2; CE: 20; [M+H]+
Name: SU-5416
Name: DTXSID1041132
Formula: C15H14N2O
Exact mass: 238.1106130837
SMILES: CC1C=C(C)NC=1/C=C1\C(=O)NC2=CC=CC=C2\1
InChI: InChI=1S/C15H14N2O/c1-9-7-10(2)16-14(9)8-12-11-5-3-4-6-13(11)17-15(12)18/h3-8,16H,1-2H3,(H,17,18)/b12-8-
Instrument type: ESI-QTOF
Ms type: MS2
Ion mode: POSITIVE
Ionization: ESI
Collision energy: 20
Precursor m/z: 239.1178895354
Precursor type: [M+H]+
m/z	relative intensity
94.065126	116
107.072951	156
122.06004	29
130.065126	50
132.04439	15
158.06004	130
180.080776	27
182.06004	12
182.096426	11
194.096426	71
195.091675	26
196.0995	131
198.09134	31
204.080776	115
206.08385	83
207.091675	37
211.122975	138
221.107325	100
222.09134	134
223.086589	92
224.094414	799
238.110065	18
239.11789	999
