Mass spectrum: N,N'-Di-2-naphthyl-p-phenylenediamine; ESI-QTOF; MS2; CE: 20; [M-H]-
Name: N,N'-Di-2-naphthyl-p-phenylenediamine
Formula: C26H20N2
Exact mass: 360.1626486528
SMILES: C1=C2C=CC=CC2=CC=C1NC1C=CC(=CC=1)NC1C=C2C=CC=CC2=CC=1
InChI: InChI=1S/C26H20N2/c1-3-7-21-17-25(11-9-19(21)5-1)27-23-13-15-24(16-14-23)28-26-12-10-20-6-2-4-8-22(20)18-26/h1-18,27-28H
Instrument type: ESI-QTOF
Ms type: MS2
Ion mode: NEGATIVE
Ionization: ESI
Collision energy: 20
Precursor m/z: 359.1553722011
Precursor type: [M-H]-
m/z	relative intensity
357.139722	23
359.155372	999
