Mass spectrum: N,N-Diethylethanolamine; ESI-QTOF; MS2; CE: 40; [M+H]+
Name: N,N-Diethylethanolamine
Formula: C6H15NO
Exact mass: 117.1153641082
SMILES: CCN(CCO)CC
InChI: InChI=1S/C6H15NO/c1-3-7(4-2)5-6-8/h8H,3-6H2,1-2H3
Instrument type: ESI-QTOF
Ms type: MS2
Ion mode: POSITIVE
Ionization: ESI
Collision energy: 40
Precursor m/z: 118.1226405599
Precursor type: [M+H]+
m/z	relative intensity
29.002191	10
29.038577	37
30.033826	35
41.038577	12
42.033826	118
43.017841	64
44.049476	999
45.033491	660
45.057301	11
46.065126	13
56.049476	21
58.065126	417
65.038577	13
70.065126	21
72.080776	30
