Mass spectrum: Bis(3,5,5-trimethylhexyl) phthalate; ESI-QTOF; MS2; CE: 20; [M+H]+
Name: Bis(3,5,5-trimethylhexyl) phthalate
Name: DTXSID0057889
Formula: C26H42O4
Exact mass: 418.308309829
SMILES: CC(C)(C)C[C@@H](C)CCOC(=O)C1=CC=CC=C1C(=O)OCC[C@@H](C)CC(C)(C)C
InChI: InChI=1S/C26H42O4/c1-19(17-25(3,4)5)13-15-29-23(27)21-11-9-10-12-22(21)24(28)30-16-14-20(2)18-26(6,7)8/h9-12,19-20H,13-18H2,1-8H3/t19-,20+
Instrument type: ESI-QTOF
Ms type: MS2
Ion mode: POSITIVE
Ionization: ESI
Collision energy: 20
Precursor m/z: 419.3155862807
Precursor type: [M+H]+
m/z	relative intensity
43.054227	123
57.069877	468
71.085527	999
85.101177	519
127.148127	17
149.02332	525
167.033885	18
