Mass spectrum: Diisobutyldithiophosphinic acid; ESI-QTOF; MS2; CE: 10; [M-H]-
Name: Diisobutyldithiophosphinic acid
Name: DTXSID9044798
Formula: C8H19PS2
Exact mass: 210.0665785561
SMILES: CC(C)CP(S)(=S)CC(C)C
InChI: InChI=1S/C8H19PS2/c1-7(2)5-9(10,11)6-8(3)4/h7-8H,5-6H2,1-4H3,(H,10,11)
Instrument type: ESI-QTOF
Ms type: MS2
Ion mode: NEGATIVE
Ionization: ESI
Collision energy: 10
Precursor m/z: 209.0593021044
Precursor type: [M-H]-
m/z	relative intensity
94.918452	205
151.988877	65
209.059302	999
