Mass spectrum: 1,3-Benzenedicarboxylic acid, dihydrazide; ESI-QTOF; MS2; CE: 10; [M-H]-
Name: 1,3-Benzenedicarboxylic acid, dihydrazide
Name: DTXSID2038813
Formula: C8H10N4O2
Exact mass: 194.0803755932
SMILES: NNC(=O)C1=CC(=CC=C1)C(=O)NN
InChI: InChI=1S/C8H10N4O2/c9-11-7(13)5-2-1-3-6(4-5)8(14)12-10/h1-4H,9-10H2,(H,11,13)(H,12,14)
Instrument type: ESI-QTOF
Ms type: MS2
Ion mode: NEGATIVE
Ionization: ESI
Collision energy: 10
Precursor m/z: 193.0730991415
Precursor type: [M-H]-
m/z	relative intensity
41.998537	49
57.009436	235
135.056386	924
193.073099	999
