Mass spectrum: Bis(2-ethylhexyl) nonanedioate; ESI-QTOF; MS2; CE: 20; [M+H]+
Name: Bis(2-ethylhexyl) nonanedioate
Formula: C25H48O4
Exact mass: 412.3552600204
SMILES: CCCCC(COC(=O)CCCCCCCC(=O)OCC(CCCC)CC)CC
InChI: InChI=1S/C25H48O4/c1-5-9-16-22(7-3)20-28-24(26)18-14-12-11-13-15-19-25(27)29-21-23(8-4)17-10-6-2/h22-23H,5-21H2,1-4H3
Instrument type: ESI-QTOF
Ms type: MS2
Ion mode: POSITIVE
Ionization: ESI
Collision energy: 20
Precursor m/z: 413.3625364721
Precursor type: [M+H]+
m/z	relative intensity
43.054227	15
55.054227	11
57.069877	213
69.033491	17
71.085527	247
83.085527	28
97.101177	93
107.085527	37
125.096091	259
129.054621	22
133.064791	39
135.080441	24
143.106656	46
153.091006	43
171.101571	999
