Mass spectrum: dl-Tartaric acid; ESI-QTOF; MS2; CE: 10; [M-H]-
Name: dl-Tartaric acid
Name: DTXSID5046986
Formula: C4H6O6
Exact mass: 150.0164379252
SMILES: OC(=O)C(O)C(O)C(O)=O
InChI: InChI=1S/C4H6O6/c5-1(3(7)8)2(6)4(9)10/h1-2,5-6H,(H,7,8)(H,9,10)
Instrument type: ESI-QTOF
Ms type: MS2
Ion mode: NEGATIVE
Ionization: ESI
Collision energy: 10
Precursor m/z: 149.0091614735
Precursor type: [M-H]-
m/z	relative intensity
41.003288	17
43.018938	271
44.998203	47
47.013853	17
56.998203	41
59.013853	414
72.993117	564
73.029503	10
75.008768	65
87.008768	999
103.003682	167
105.019332	71
130.998597	24
149.009161	949
