Mass spectrum: 1-Naphthylamine; ESI-QTOF; MS2; CE: 40; [M+H]+
Name: 1-Naphthylamine
Name: DTXSID7020920
Formula: C10H9N
Exact mass: 143.0734992945
SMILES: NC1=CC=CC2C=CC=CC=21
InChI: InChI=1S/C10H9N/c11-10-7-3-5-8-4-1-2-6-9(8)10/h1-7H,11H2
Instrument type: ESI-QTOF
Ms type: MS2
Ion mode: POSITIVE
Ionization: ESI
Collision energy: 40
Precursor m/z: 144.0807757462
Precursor type: [M+H]+
m/z	relative intensity
51.022927	161
65.038577	26
75.022927	94
77.038577	999
78.046402	16
89.038577	24
91.054227	116
101.038577	226
102.046402	22
115.054227	348
116.062052	144
117.057301	14
117.069877	23
125.038577	25
126.046402	199
127.054227	791
128.062052	49
142.065126	23
143.072951	211
