Mass spectrum: N-Butylurea; ESI-QTOF; MS2; CE: 10; [M-H]-
Name: N-Butylurea
Name: DTXSID6020222
Formula: C5H12N2O
Exact mass: 116.0949630199
SMILES: CCCCNC(N)=O
InChI: InChI=1S/C5H12N2O/c1-2-3-4-7-5(6)8/h2-4H2,1H3,(H3,6,7,8)
Instrument type: ESI-QTOF
Ms type: MS2
Ion mode: NEGATIVE
Ionization: ESI
Collision energy: 10
Precursor m/z: 115.0876865682
Precursor type: [M-H]-
m/z	relative intensity
41.998537	999
42.022347	18
52.019273	28
59.025086	20
66.034923	22
68.050573	322
97.077122	77
115.087687	25
