Mass spectrum: Chlorendic acid; ESI-QTOF; MS2; CE: 20; [M-H]-
Name: Chlorendic acid
Formula: C9H4Cl6O4
Exact mass: 385.8240748768
SMILES: OC(=O)C1C(C(O)=O)C2(Cl)C(Cl)=C(Cl)C1(Cl)C2(Cl)Cl
InChI: InChI=1S/C9H4Cl6O4/c10-3-4(11)8(13)2(6(18)19)1(5(16)17)7(3,12)9(8,14)15/h1-2H,(H,16,17)(H,18,19)
Instrument type: ESI-QTOF
Ms type: MS2
Ion mode: NEGATIVE
Ionization: ESI
Collision energy: 20
Precursor m/z: 384.8167984251
Precursor type: [M-H]-
m/z	relative intensity
34.969401	639
70.946079	13
176.907107	83
204.902021	216
212.883784	21
232.896936	971
240.878699	69
248.860462	15
248.891851	999
268.873614	232
276.840121	17
276.886765	826
304.850291	63
340.826969	43
348.840121	53
