Mass spectrum: 2-Amino-5-(5-nitro-2-furyl)-1,3,4-oxadiazole; ESI-QTOF; MS2; CE: 10; [M-H]-
Name: 2-Amino-5-(5-nitro-2-furyl)-1,3,4-oxadiazole
Name: DTXSID2020058
Formula: C6H4N4O4
Exact mass: 196.0232546464
SMILES: NC1=NN=C(O1)C1=CC=C(O1)[N+]([O-])=O
InChI: InChI=1S/C6H4N4O4/c7-6-9-8-5(14-6)3-1-2-4(13-3)10(11)12/h1-2H,(H2,7,9)
Instrument type: ESI-QTOF
Ms type: MS2
Ion mode: NEGATIVE
Ionization: ESI
Collision energy: 10
Precursor m/z: 195.0159781947
Precursor type: [M-H]-
m/z	relative intensity
41.003288	10
41.014522	26
41.998537	440
45.993452	182
49.008374	13
50.003623	42
50.016199	11
52.019273	16
55.017596	48
63.011448	11
64.019273	143
65.003288	92
65.027098	65
65.998537	16
66.009771	14
77.003288	103
80.014187	48
82.004685	999
92.012845	80
94.006028	51
105.009436	42
108.009102	10
109.016927	10
110.000943	40
112.004017	19
120.020335	22
121.02816	138
123.020001	12
124.004017	144
136.004017	15
148.01525	165
165.01799	30
195.015978	147
