Mass spectrum: 2-(N-Ethyl-m-toluidino)ethanol; ESI-QTOF; MS2; CE: 10; [M+H]+
Name: 2-(N-Ethyl-m-toluidino)ethanol
Formula: C11H17NO
Exact mass: 179.131014172
SMILES: CC1C=C(C=CC=1)N(CCO)CC
InChI: InChI=1S/C11H17NO/c1-3-12(7-8-13)11-6-4-5-10(2)9-11/h4-6,9,13H,3,7-8H2,1-2H3
Instrument type: ESI-QTOF
Ms type: MS2
Ion mode: POSITIVE
Ionization: ESI
Collision energy: 10
Precursor m/z: 180.1382906237
Precursor type: [M+H]+
m/z	relative intensity
101.002191	10
120.080776	65
134.096426	47
135.104251	74
136.112076	51
147.104251	18
151.099165	48
152.10699	52
162.127726	113
180.138291	999
