Mass spectrum: Isophorone diamine; ESI-QTOF; MS2; CE: 20; [M+H]+
Name: Isophorone diamine
Name: DTXSID6027503
Formula: C10H22N2
Exact mass: 170.1782987166
SMILES: CC1(C)CC(N)CC(C)(C1)CN
InChI: InChI=1S/C10H22N2/c1-9(2)4-8(12)5-10(3,6-9)7-11/h8H,4-7,11-12H2,1-3H3
Instrument type: ESI-QTOF
Ms type: MS2
Ion mode: POSITIVE
Ionization: ESI
Collision energy: 20
Precursor m/z: 171.1855751683
Precursor type: [M+H]+
m/z	relative intensity
30.033826	27
41.038577	34
43.054227	51
44.049476	23
53.038577	10
55.054227	60
57.069877	134
67.054227	111
69.069877	154
71.085527	92
79.054227	39
81.069877	946
83.085527	13
93.069877	20
95.085527	909
109.101177	43
137.132477	556
154.159026	999
171.185575	27
