Mass spectrum: 4-Vinylpyridine; ESI-QTOF; MS2; CE: 20; [M+H]+
Name: 4-Vinylpyridine
Formula: C7H7N
Exact mass: 105.0578492307
SMILES: C=CC1C=CN=CC=1
InChI: InChI=1S/C7H7N/c1-2-7-3-5-8-6-4-7/h2-6H,1H2
Instrument type: ESI-QTOF
Ms type: MS2
Ion mode: POSITIVE
Ionization: ESI
Collision energy: 20
Precursor m/z: 106.0651256824
Precursor type: [M+H]+
m/z	relative intensity
44.049476	11
51.022927	58
53.038577	62
67.041651	10
70.065126	10
77.038577	419
78.033826	243
79.041651	14
79.054227	173
80.049476	85
104.049476	11
106.065126	999
