Mass spectrum: 2,2'-[(4-Methylphenyl)imino]diethanol; ESI-QTOF; MS2; CE: 20; [M+H]+
Name: 2,2'-[(4-Methylphenyl)imino]diethanol
Name: DTXSID0044650
Formula: C11H17NO2
Exact mass: 195.1259287943
SMILES: CC1=CC=C(C=C1)N(CCO)CCO
InChI: InChI=1S/C11H17NO2/c1-10-2-4-11(5-3-10)12(6-8-13)7-9-14/h2-5,13-14H,6-9H2,1H3
Instrument type: ESI-QTOF
Ms type: MS2
Ion mode: POSITIVE
Ionization: ESI
Collision energy: 20
Precursor m/z: 196.133205246
Precursor type: [M+H]+
m/z	relative intensity
45.033491	90
79.017841	10
91.054227	55
93.069877	13
106.065126	17
107.072951	50
108.080776	49
117.069877	11
118.065126	39
119.072951	96
120.080776	999
132.080776	135
133.088601	286
134.096426	803
135.104251	14
145.088601	27
151.099165	273
152.10699	70
158.096426	10
160.112076	83
178.122641	277
196.133205	186
