Mass spectrum: Methyl 3-sulfamoylthiophene-2-carboxylate; ESI-QTOF; MS2; CE: 20; [M-H]-
Name: Methyl 3-sulfamoylthiophene-2-carboxylate
Name: DTXSID0044490
Formula: C6H7NO4S2
Exact mass: 220.9816491799
SMILES: COC(=O)C1SC=CC=1S(N)(=O)=O
InChI: InChI=1S/C6H7NO4S2/c1-11-6(8)5-4(2-3-12-5)13(7,9)10/h2-3H,1H3,(H2,7,9,10)
Instrument type: ESI-QTOF
Ms type: MS2
Ion mode: NEGATIVE
Ionization: ESI
Collision energy: 20
Precursor m/z: 219.9743727282
Precursor type: [M-H]-
m/z	relative intensity
41.998537	270
61.970608	72
77.965523	75
80.980444	16
95.991343	30
96.003919	14
96.999168	27
105.960437	32
123.986258	25
140.988998	10
187.948158	999
