Mass spectrum: Thiocyclam (Evisekt); ESI-QTOF; MS2; CE: 10; [M+H]+
Name: Thiocyclam (Evisekt)
Name: DTXSID0047036
Name: 杀虫环
Name: チオシクラム
Formula: C5H11NS3
Exact mass: 181.0053615483
SMILES: CN(C)C1CSSSC1
InChI: InChI=1S/C5H11NS3/c1-6(2)5-3-7-9-8-4-5/h5H,3-4H2,1-2H3
Instrument type: ESI-QTOF
Ms type: MS2
Ion mode: POSITIVE
Ionization: ESI
Collision energy: 10
Precursor m/z: 182.012638
Precursor type: [M+H]+
m/z	relative intensity
46.065126	28
73.010647	138
86.096426	250
102.967068	15
103.974893	15
136.954789	999
182.012638	633
