Mass spectrum: 2,5,8,11,14-Pentaoxahexadecan-16-ol; ESI-QTOF; MS2; CE: 10; [M+H]+
Name: 2,5,8,11,14-Pentaoxahexadecan-16-ol
Name: DTXSID8041371
Formula: C11H24O6
Exact mass: 252.1572884994
SMILES: COCCOCCOCCOCCOCCO
InChI: InChI=1S/C11H24O6/c1-13-4-5-15-8-9-17-11-10-16-7-6-14-3-2-12/h12H,2-11H2,1H3
Instrument type: ESI-QTOF
Ms type: MS2
Ion mode: POSITIVE
Ionization: ESI
Collision energy: 10
Precursor m/z: 253.1645649511
Precursor type: [M+H]+
m/z	relative intensity
31.017841	15
45.033491	579
59.049141	999
59.085527	15
87.044056	11
89.059706	814
89.096091	19
103.075356	961
133.085921	494
147.101571	257
177.112135	85
