Mass spectrum: Ethyl diethanolamine; ESI-QTOF; MS2; CE: 40; [M+H]+
Name: Ethyl diethanolamine
Name: DTXSID8041955
Formula: C6H15NO2
Exact mass: 133.1102787305
SMILES: CCN(CCO)CCO
InChI: InChI=1S/C6H15NO2/c1-2-7(3-5-8)4-6-9/h8-9H,2-6H2,1H3
Instrument type: ESI-QTOF
Ms type: MS2
Ion mode: POSITIVE
Ionization: ESI
Collision energy: 40
Precursor m/z: 134.1175551822
Precursor type: [M+H]+
m/z	relative intensity
29.002191	14
41.038577	33
42.033826	209
43.017841	82
43.054227	13
44.049476	995
44.083181	21
45.033491	999
45.057301	77
45.069877	24
46.041316	24
47.00018	11
55.041651	23
56.049476	95
58.065126	144
63.994366	11
68.049476	12
70.065126	58
72.080776	43
74.06004	21
102.09134	38
