Mass spectrum: Methyl 3-sulfamoylthiophene-2-carboxylate; ESI-QTOF; MS2; CE: 40; [M-H]-
Name: Methyl 3-sulfamoylthiophene-2-carboxylate
Name: DTXSID0044490
Formula: C6H7NO4S2
Exact mass: 220.9816491799
SMILES: COC(=O)C1SC=CC=1S(N)(=O)=O
InChI: InChI=1S/C6H7NO4S2/c1-11-6(8)5-4(2-3-12-5)13(7,9)10/h2-3H,1H3,(H2,7,9,10)
Instrument type: ESI-QTOF
Ms type: MS2
Ion mode: NEGATIVE
Ionization: ESI
Collision energy: 40
Precursor m/z: 219.9743727282
Precursor type: [M-H]-
m/z	relative intensity
41.998537	999
47.967534	51
49.008374	16
50.003623	44
56.980444	22
61.970608	62
63.962449	41
68.980444	21
69.975693	42
70.983518	15
71.967534	17
72.975359	18
77.965523	387
78.968165	19
79.957363	11
80.980444	70
81.988269	65
82.996094	26
83.991343	36
85.983184	10
96.999168	56
97.983184	15
107.013853	12
123.986258	14
187.948158	43
