Mass spectrum: CI-1044; ESI-QTOF; MS2; CE: 10; [M-H]-
Name: CI-1044
Formula: C23H19N5O2
Exact mass: 397.1538748877
SMILES: NC1C=C2CCN3C2=C(C=1)C(=NC(NC(=O)C1=CN=CC=C1)C3=O)C1C=CC=CC=1
InChI: InChI=1S/C23H19N5O2/c24-17-11-15-8-10-28-20(15)18(12-17)19(14-5-2-1-3-6-14)26-21(23(28)30)27-22(29)16-7-4-9-25-13-16/h1-7,9,11-13,21H,8,10,24H2,(H,27,29)
Instrument type: ESI-QTOF
Ms type: MS2
Ion mode: NEGATIVE
Ionization: ESI
Collision energy: 10
Precursor m/z: 396.146598436
Precursor type: [M-H]-
m/z	relative intensity
41.998537	24
121.040736	14
262.098586	10
325.14587	13
352.156769	30
353.140785	94
368.151684	14
369.135699	15
378.136034	13
396.146598	999
