Mass spectrum: Diethyl decanedioate; ESI-QTOF; MS2; CE: 40; [M+H]+
Name: Diethyl decanedioate
Formula: C14H26O4
Exact mass: 258.1831093186
SMILES: CCOC(=O)CCCCCCCCC(=O)OCC
InChI: InChI=1S/C14H26O4/c1-3-17-13(15)11-9-7-5-6-8-10-12-14(16)18-4-2/h3-12H2,1-2H3
Instrument type: ESI-QTOF
Ms type: MS2
Ion mode: POSITIVE
Ionization: ESI
Collision energy: 40
Precursor m/z: 259.1903857703
Precursor type: [M+H]+
m/z	relative intensity
39.022927	18
41.038577	263
43.017841	186
43.054227	59
53.038577	16
55.017841	58
55.054227	999
57.033491	44
57.069877	56
59.049141	39
67.054227	150
69.033491	12
69.069877	658
73.064791	18
77.038577	52
79.054227	351
81.069877	155
83.049141	99
83.085527	12
87.044056	10
91.054227	75
93.069877	253
95.085527	127
97.064791	90
97.101177	66
105.069877	28
107.085527	12
121.101177	49
131.085527	14
139.111742	11
