Mass spectrum: 2-Ethyl-4-methyl-1H-imidazole; ESI-QTOF; MS2; CE: 40; [M+H]+
Name: 2-Ethyl-4-methyl-1H-imidazole
Formula: C6H10N2
Exact mass: 110.0843983338
SMILES: CC1=CNC(CC)=N1
InChI: InChI=1S/C6H10N2/c1-3-6-7-4-5(2)8-6/h4H,3H2,1-2H3,(H,7,8)
Instrument type: ESI-QTOF
Ms type: MS2
Ion mode: POSITIVE
Ionization: ESI
Collision energy: 40
Precursor m/z: 111.0916747855
Precursor type: [M+H]+
m/z	relative intensity
28.018175	17
39.022927	14
41.026001	25
41.038577	19
42.033826	355
43.041651	13
54.033826	490
55.041651	106
56.049476	607
68.049476	142
81.044725	999
83.060375	36
95.060375	417
96.0682	422
