Mass spectrum: Phenylthiol; ESI-QTOF; MS2; CE: 10; [M-H]-
Name: Phenylthiol
Formula: C6H6S
Exact mass: 110.0190209214
SMILES: SC1C=CC=CC=1
InChI: InChI=1S/C6H6S/c7-6-4-2-1-3-5-6/h1-5,7H
Instrument type: ESI-QTOF
Ms type: MS2
Ion mode: NEGATIVE
Ionization: ESI
Collision energy: 10
Precursor m/z: 109.0117444697
Precursor type: [M-H]-
m/z	relative intensity
109.011744	999
