Mass spectrum: Methyl 4-methoxybenzoate; ESI-QTOF; MS2; CE: 20; [M+H]+
Name: Methyl 4-methoxybenzoate
Formula: C9H10O3
Exact mass: 166.0629941859
SMILES: COC(=O)C1C=CC(=CC=1)OC
InChI: InChI=1S/C9H10O3/c1-11-8-5-3-7(4-6-8)9(10)12-2/h3-6H,1-2H3
Instrument type: ESI-QTOF
Ms type: MS2
Ion mode: POSITIVE
Ionization: ESI
Collision energy: 20
Precursor m/z: 167.0702706376
Precursor type: [M+H]+
m/z	relative intensity
41.038577	34
55.054227	12
57.069877	81
61.007276	125
62.015101	32
63.994366	218
64.015495	23
79.017841	999
79.054227	17
107.049141	24
149.02332	16
