Mass spectrum: 2-Amino-6-nitrobenzothiazole; ESI-QTOF; MS2; CE: 40; [M+H]+
Name: 2-Amino-6-nitrobenzothiazole
Name: DTXSID3024491
Formula: C7H5N3O2S
Exact mass: 195.0102471563
SMILES: NC1=NC2=CC=C(C=C2S1)[N+]([O-])=O
InChI: InChI=1S/C7H5N3O2S/c8-7-9-5-2-1-4(10(11)12)3-6(5)13-7/h1-3H,(H2,8,9)
Instrument type: ESI-QTOF
Ms type: MS2
Ion mode: POSITIVE
Ionization: ESI
Collision energy: 40
Precursor m/z: 196.017523608
Precursor type: [M+H]+
m/z	relative intensity
43.017841	39
45.032149	54
46.039974	16
52.018175	83
59.990246	76
63.022927	11
63.994366	34
64.030752	116
65.026001	47
65.038577	20
68.979347	11
69.974596	36
69.987172	106
75.042713	29
77.034554	20
78.029803	22
79.019869	18
79.041651	107
80.049476	58
81.987172	76
91.041651	214
92.045453	22
92.979347	15
94.994997	25
96.002822	999
96.031814	17
96.04439	10
96.055624	11
105.970573	12
106.05255	43
108.002822	37
109.006625	20
110.005896	24
111.013721	37
118.05255	46
120.04439	20
122.005896	113
123.013721	585
132.998071	38
138.02462	50
149.016795	93
150.02462	978
150.042379	81
151.019869	13
