Mass spectrum: Acetoacetanilide; ESI-QTOF; MS2; CE: 40; [M-H]-
Name: Acetoacetanilide
Formula: C10H11NO2
Exact mass: 177.0789786029
SMILES: CC(=O)CC(=O)NC1C=CC=CC=1
InChI: InChI=1S/C10H11NO2/c1-8(12)7-10(13)11-9-5-3-2-4-6-9/h2-6H,7H2,1H3,(H,11,13)
Instrument type: ESI-QTOF
Ms type: MS2
Ion mode: NEGATIVE
Ionization: ESI
Collision energy: 40
Precursor m/z: 176.0717021512
Precursor type: [M-H]-
m/z	relative intensity
39.024024	12
41.003288	169
57.034588	12
65.039674	39
83.013853	126
92.050573	999
