Mass spectrum: 3-(Octyloxy)propan-1-amine; ESI-QTOF; MS2; CE: 40; [M+H]+
Name: 3-(Octyloxy)propan-1-amine
Name: DTXSID2044844
Formula: C11H25NO
Exact mass: 187.1936144272
SMILES: CCCCCCCCOCCCN
InChI: InChI=1S/C11H25NO/c1-2-3-4-5-6-7-10-13-11-8-9-12/h2-12H2,1H3
Instrument type: ESI-QTOF
Ms type: MS2
Ion mode: POSITIVE
Ionization: ESI
Collision energy: 40
Precursor m/z: 188.2008908789
Precursor type: [M+H]+
m/z	relative intensity
29.038577	22
30.033826	113
31.017841	13
39.022927	51
41.038577	915
42.033826	18
43.041651	152
43.054227	767
55.054227	39
57.069877	191
58.065126	999
59.049141	24
