Mass spectrum: 5-Chlorosalicylanilide; ESI-QTOF; MS2; CE: 20; [M-H]-
Name: 5-Chlorosalicylanilide
Name: DTXSID9037749
Formula: C13H10ClNO2
Exact mass: 247.040006281
SMILES: OC1C=CC(Cl)=CC=1C(=O)NC1C=CC=CC=1
InChI: InChI=1S/C13H10ClNO2/c14-9-6-7-12(16)11(8-9)13(17)15-10-4-2-1-3-5-10/h1-8,16H,(H,15,17)
Instrument type: ESI-QTOF
Ms type: MS2
Ion mode: NEGATIVE
Ionization: ESI
Collision energy: 20
Precursor m/z: 246.0327298293
Precursor type: [M-H]-
m/z	relative intensity
34.969401	43
41.998537	24
91.018938	12
92.050573	21
126.995616	999
127.042748	40
127.055324	18
246.03273	600
