Mass spectrum: N,N'-Disalicylidene-1,2-diaminopropane; ESI-QTOF; MS2; CE: 10; [M-H]-
Name: N,N'-Disalicylidene-1,2-diaminopropane
Formula: C17H18N2O2
Exact mass: 282.1368278336
SMILES: CC(C/N=C/C1=CC=CC=C1O)/N=C/C1=CC=CC=C1O
InChI: InChI=1S/C17H18N2O2/c1-13(19-12-15-7-3-5-9-17(15)21)10-18-11-14-6-2-4-8-16(14)20/h2-9,11-13,20-21H,10H2,1H3/b18-11+,19-12+
Instrument type: ESI-QTOF
Ms type: MS2
Ion mode: NEGATIVE
Ionization: ESI
Collision energy: 10
Precursor m/z: 281.1295513819
Precursor type: [M-H]-
m/z	relative intensity
93.034588	13
118.029837	25
120.045487	999
120.081873	17
134.061137	94
148.076788	30
160.076788	69
173.072037	14
175.087687	553
264.103002	14
281.129551	202
