Mass spectrum: Dinitrostilbenedisulfonic acid; ESI-QTOF; MS2; CE: 10; [M-H]-
Name: Dinitrostilbenedisulfonic acid
Name: DTXSID7027542
Formula: C14H10N2O10S2
Exact mass: 429.9776860168
SMILES: [O-][N+](=O)C1C=C(C(/C=C/C2=CC=C(C=C2S(O)(=O)=O)[N+]([O-])=O)=CC=1)S(O)(=O)=O
InChI: InChI=1S/C14H10N2O10S2/c17-15(18)11-5-3-9(13(7-11)27(21,22)23)1-2-10-4-6-12(16(19)20)8-14(10)28(24,25)26/h1-8H,(H,21,22,23)(H,24,25,26)/b2-1+
Instrument type: ESI-QTOF
Ms type: MS2
Ion mode: NEGATIVE
Ionization: ESI
Collision energy: 10
Precursor m/z: 428.9704095651
Precursor type: [M-H]-
m/z	relative intensity
428.97041	999
