Mass spectrum: 2-Mercaptoethanol; ESI-QTOF; MS2; CE: 10; [M+H]+
Name: 2-Mercaptoethanol
Name: DTXSID4026343
Formula: C2H6OS
Exact mass: 78.0139355437
SMILES: OCCS
InChI: InChI=1S/C2H6OS/c3-1-2-4/h3-4H,1-2H2
Instrument type: ESI-QTOF
Ms type: MS2
Ion mode: POSITIVE
Ionization: ESI
Collision energy: 10
Precursor m/z: 79.0212119954
Precursor type: [M+H]+
m/z	relative intensity
46.994997	30
61.010647	129
62.018472	37
62.989912	18
63.997737	426
79.021212	999
