Mass spectrum: Pantothenic acid; ESI-QTOF; MS2; CE: 20; [M-H]-
Name: Pantothenic acid
Formula: C9H17NO5
Exact mass: 219.1106726612
SMILES: CC(C)(CO)C(O)C(=O)NCCC(O)=O
InChI: InChI=1S/C9H17NO5/c1-9(2,5-11)7(14)8(15)10-4-3-6(12)13/h7,11,14H,3-5H2,1-2H3,(H,10,15)(H,12,13)
Instrument type: ESI-QTOF
Ms type: MS2
Ion mode: NEGATIVE
Ionization: ESI
Collision energy: 20
Precursor m/z: 218.1033962095
Precursor type: [M-H]-
m/z	relative intensity
41.998537	14
44.014187	454
59.013853	50
71.013853	208
71.050238	655
71.086624	15
72.009102	29
72.045487	15
88.040402	999
88.076788	27
88.089364	12
99.045153	175
116.035317	14
116.071702	94
129.055718	17
146.082267	824
218.103396	17
