Mass spectrum: Propane-1,3-diyl bis(4-aminobenzoate); ESI-QTOF; MS2; CE: 20; [M-H]-
Name: Propane-1,3-diyl bis(4-aminobenzoate)
Name: DTXSID3044960
Formula: C17H18N2O4
Exact mass: 314.1266570782
SMILES: NC1C=CC(=CC=1)C(=O)OCCCOC(=O)C1C=CC(N)=CC=1
InChI: InChI=1S/C17H18N2O4/c18-14-6-2-12(3-7-14)16(20)22-10-1-11-23-17(21)13-4-8-15(19)9-5-13/h2-9H,1,10-11,18-19H2
Instrument type: ESI-QTOF
Ms type: MS2
Ion mode: NEGATIVE
Ionization: ESI
Collision energy: 20
Precursor m/z: 313.1193806265
Precursor type: [M-H]-
m/z	relative intensity
92.050573	157
135.032577	19
136.040402	999
136.085341	15
313.119381	10
