Mass spectrum: HC Red 3; ESI-QTOF; MS2; CE: 40; [M+H]+
Name: HC Red 3
Name: DTXSID2021236
Formula: C8H11N3O3
Exact mass: 197.08004124
SMILES: NC1=CC(=C(C=C1)NCCO)[N+]([O-])=O
InChI: InChI=1S/C8H11N3O3/c9-6-1-2-7(10-3-4-12)8(5-6)11(13)14/h1-2,5,10,12H,3-4,9H2
Instrument type: ESI-QTOF
Ms type: MS2
Ion mode: POSITIVE
Ionization: ESI
Collision energy: 40
Precursor m/z: 198.0873176917
Precursor type: [M+H]+
m/z	relative intensity
31.017841	12
39.022927	16
41.026001	47
41.038577	41
42.033826	19
45.033491	253
50.015101	10
51.022927	22
52.018175	49
52.030752	76
53.038577	10
54.033826	65
63.022927	20
64.018175	51
64.030752	25
65.026001	18
65.038577	43
66.033826	47
66.046402	17
67.029075	16
67.041651	50
68.0369	49
68.049476	29
76.018175	11
77.026001	15
77.034554	14
78.033826	43
78.042379	16
79.026394	56
79.041651	338
79.06278	13
80.0369	31
80.049476	362
81.044725	10
81.057301	47
82.05255	27
82.062446	12
90.033826	34
91.029075	91
91.038971	55
92.0369	153
93.042045	37
93.057301	87
94.065126	57
95.060375	204
103.026394	13
105.044725	212
106.05255	275
107.060375	262
108.0682	33
109.048193	15
116.049476	30
117.044725	47
117.057301	23
118.037293	20
118.05255	56
119.047799	98
119.060375	78
120.04439	13
121.076025	33
131.060375	14
132.055624	100
133.039639	11
133.063449	999
134.071274	147
137.070939	61
144.055624	27
145.063449	13
146.071274	16
162.066188	14
