Mass spectrum: 2,2',2'',2'''-(1,2-Ethanediyldinitrilo)tetrakisethanol; ESI-QTOF; MS2; CE: 40; [M+H]+
Name: 2,2',2'',2'''-(1,2-Ethanediyldinitrilo)tetrakisethanol
Name: DTXSID2041917
Formula: C10H24N2O4
Exact mass: 236.1736072696
SMILES: OCCN(CCO)CCN(CCO)CCO
InChI: InChI=1S/C10H24N2O4/c13-7-3-11(4-8-14)1-2-12(5-9-15)6-10-16/h13-16H,1-10H2
Instrument type: ESI-QTOF
Ms type: MS2
Ion mode: POSITIVE
Ionization: ESI
Collision energy: 40
Precursor m/z: 237.1808837213
Precursor type: [M+H]+
m/z	relative intensity
41.038577	55
42.033826	271
43.054227	55
44.049476	228
45.033491	456
45.057301	12
56.049476	18
58.065126	43
60.04439	14
68.049476	38
70.065126	999
70.098831	30
70.110065	18
72.04439	13
84.080776	66
86.096426	37
88.07569	301
114.09134	149
132.101905	187
