Mass spectrum: 3-Methyl-5-pyrazolone; ESI-QTOF; MS2; CE: 40; [M+H]+
Name: 3-Methyl-5-pyrazolone
Formula: C4H6N2O
Exact mass: 98.0480128285
SMILES: CC1CC(=O)N=N1
InChI: InChI=1S/C4H6N2O/c1-3-2-4(7)6-5-3/h3H,2H2,1H3
Instrument type: ESI-QTOF
Ms type: MS2
Ion mode: POSITIVE
Ionization: ESI
Collision energy: 40
Precursor m/z: 99.0552892802
Precursor type: [M+H]+
m/z	relative intensity
30.033826	22
31.017841	10
39.01035	10
39.022927	268
40.018175	59
41.026001	162
41.038577	331
42.021249	13
42.033826	313
42.046402	11
43.017841	23
43.029075	10
44.01309	999
44.0369	22
44.049476	97
45.033491	16
45.044725	14
52.018175	11
53.002191	19
54.033826	269
55.017841	82
55.041651	13
56.049476	73
58.02874	28
59.023989	15
66.021249	33
67.005265	14
67.029075	33
68.01309	101
69.033491	86
82.02874	77
84.031814	25
99.055289	16
