Mass spectrum: 4-Chlorobenzenesulfonic acid; ESI-QTOF; MS2; CE: 10; [M-H]-
Name: 4-Chlorobenzenesulfonic acid
Formula: C6H5ClO3S
Exact mass: 191.9647924664
SMILES: OS(=O)(=O)C1C=CC(Cl)=CC=1
InChI: InChI=1S/C6H5ClO3S/c7-5-1-3-6(4-2-5)11(8,9)10/h1-4H,(H,8,9,10)
Instrument type: ESI-QTOF
Ms type: MS2
Ion mode: NEGATIVE
Ionization: ESI
Collision energy: 10
Precursor m/z: 190.9575160147
Precursor type: [M-H]-
m/z	relative intensity
79.957363	23
126.995616	69
190.957516	999
