Mass spectrum: 2-[4-(Diethylamino)-2-hydroxybenzoyl]benzoic acid; ESI-QTOF; MS2; CE: 40; [M-H]-
Name: 2-[4-(Diethylamino)-2-hydroxybenzoyl]benzoic acid
Name: DTXSID4027604
Formula: C18H19NO4
Exact mass: 313.1314081027
SMILES: CCN(CC)C1=CC(O)=C(C=C1)C(=O)C1C=CC=CC=1C(O)=O
InChI: InChI=1S/C18H19NO4/c1-3-19(4-2)12-9-10-15(16(20)11-12)17(21)13-7-5-6-8-14(13)18(22)23/h5-11,20H,3-4H2,1-2H3,(H,22,23)
Instrument type: ESI-QTOF
Ms type: MS2
Ion mode: NEGATIVE
Ionization: ESI
Collision energy: 40
Precursor m/z: 312.124131651
Precursor type: [M-H]-
m/z	relative intensity
77.039674	51
120.045487	74
121.029503	133
135.068962	23
164.108088	17
196.076788	21
206.061137	41
210.056052	12
221.084613	13
223.076453	14
224.071702	999
224.129217	49
225.070974	12
238.087352	60
240.103002	11
