Mass spectrum: 4-Phenylphenol; ESI-QTOF; MS2; CE: 10; [M-H]-
Name: 4-Phenylphenol
Name: 4-Hydroxybiphenyl
Name: 4-Hydroxydiphenyl
Name: P-Phenylphenol
Name: Biphenyl-4-ol
Name: P-Hydroxybiphenyl
Formula: C12H10O
Exact mass: 170.0731649413
SMILES: OC1C=CC(=CC=1)C1C=CC=CC=1
InChI: InChI=1S/C12H10O/c13-12-8-6-11(7-9-12)10-4-2-1-3-5-10/h1-9,13H
Instrument type: ESI-QTOF
Ms type: MS2
Ion mode: NEGATIVE
Ionization: ESI
Collision energy: 10
Precursor m/z: 169.0658884896
Precursor type: [M-H]-
m/z	relative intensity
169.065888	999
