Mass spectrum: 2,2,4-Trimethylpentane-1,3-diyl dibenzoate; ESI-QTOF; MS2; CE: 10; [M+H]+
Name: 2,2,4-Trimethylpentane-1,3-diyl dibenzoate
Name: DTXSID8041242
Formula: C22H26O4
Exact mass: 354.1831093186
SMILES: CC(C)C(OC(=O)C1=CC=CC=C1)C(C)(C)COC(=O)C1=CC=CC=C1
InChI: InChI=1S/C22H26O4/c1-16(2)19(26-21(24)18-13-9-6-10-14-18)22(3,4)15-25-20(23)17-11-7-5-8-12-17/h5-14,16,19H,15H2,1-4H3
Instrument type: ESI-QTOF
Ms type: MS2
Ion mode: POSITIVE
Ionization: ESI
Collision energy: 10
Precursor m/z: 355.1903857703
Precursor type: [M+H]+
m/z	relative intensity
69.069877	95
105.033491	106
111.116827	999
123.044056	11
233.153606	191
