Mass spectrum: 4,4'-Propane-1,3-diyldipyridine; ESI-QTOF; MS2; CE: 40; [M+H]+
Name: 4,4'-Propane-1,3-diyldipyridine
Name: DTXSID6044852
Formula: C13H14N2
Exact mass: 198.1156984614
SMILES: C(CCC1C=CN=CC=1)C1C=CN=CC=1
InChI: InChI=1S/C13H14N2/c1(2-12-4-8-14-9-5-12)3-13-6-10-15-11-7-13/h4-11H,1-3H2
Instrument type: ESI-QTOF
Ms type: MS2
Ion mode: POSITIVE
Ionization: ESI
Collision energy: 40
Precursor m/z: 199.1229749131
Precursor type: [M+H]+
m/z	relative intensity
65.038577	18
66.046402	46
67.041651	55
77.038577	19
78.033826	23
79.041651	104
80.049476	57
92.049476	77
93.057301	999
94.065126	11
106.065126	627
107.072951	26
