Mass spectrum: 2-(Phenylsulfonyl)aniline; ESI-QTOF; MS2; CE: 40; [M+H]+
Name: 2-(Phenylsulfonyl)aniline
Name: DTXSID0044941
Formula: C12H11NO2S
Exact mass: 233.0510493329
SMILES: NC1=CC=CC=C1S(=O)(=O)C1C=CC=CC=1
InChI: InChI=1S/C12H11NO2S/c13-11-8-4-5-9-12(11)16(14,15)10-6-2-1-3-7-10/h1-9H,13H2
Instrument type: ESI-QTOF
Ms type: MS2
Ion mode: POSITIVE
Ionization: ESI
Collision energy: 40
Precursor m/z: 234.0583257846
Precursor type: [M+H]+
m/z	relative intensity
39.022927	52
51.022927	14
53.038577	27
65.038577	999
66.033826	26
66.046402	131
77.038577	115
80.049476	437
92.049476	859
92.083181	14
93.057301	826
108.04439	138
