Mass spectrum: Dimethyl phosphate; ESI-QTOF; MS2; CE: 10; [M+H]+
Name: Dimethyl phosphate
Formula: C2H7O4P
Exact mass: 126.0081952025
SMILES: COP(O)(=O)OC
InChI: InChI=1S/C2H7O4P/c1-5-7(3,4)6-2/h1-2H3,(H,3,4)
Instrument type: ESI-QTOF
Ms type: MS2
Ion mode: POSITIVE
Ionization: ESI
Collision energy: 10
Precursor m/z: 127.0154716542
Precursor type: [M+H]+
m/z	relative intensity
33.033491	24
78.994342	17
94.989257	102
109.004907	536
127.015472	999
