Mass spectrum: N-Benzylethanolamine; ESI-QTOF; MS2; CE: 10; [M+H]+
Name: N-Benzylethanolamine
Formula: C9H13NO
Exact mass: 151.0997140444
SMILES: OCCNCC1C=CC=CC=1
InChI: InChI=1S/C9H13NO/c11-7-6-10-8-9-4-2-1-3-5-9/h1-5,10-11H,6-8H2
Instrument type: ESI-QTOF
Ms type: MS2
Ion mode: POSITIVE
Ionization: ESI
Collision energy: 10
Precursor m/z: 152.1069904961
Precursor type: [M+H]+
m/z	relative intensity
60.04439	14
65.038577	10
91.054227	999
152.10699	194
