Mass spectrum: N-(2-Methylphenyl)-3-oxobutanamide; ESI-QTOF; MS2; CE: 40; [M-H]-
Name: N-(2-Methylphenyl)-3-oxobutanamide
Formula: C11H13NO2
Exact mass: 191.0946286667
SMILES: CC(=O)CC(=O)NC1C=CC=CC=1C
InChI: InChI=1S/C11H13NO2/c1-8-5-3-4-6-10(8)12-11(14)7-9(2)13/h3-6H,7H2,1-2H3,(H,12,14)
Instrument type: ESI-QTOF
Ms type: MS2
Ion mode: NEGATIVE
Ionization: ESI
Collision energy: 40
Precursor m/z: 190.087352215
Precursor type: [M-H]-
m/z	relative intensity
39.024024	46
41.003288	999
41.027098	19
41.039674	10
42.011113	19
57.034588	751
57.058398	13
58.042413	22
65.003288	29
65.998537	13
83.013853	730
83.050238	11
84.021678	33
106.066223	304
107.074048	27
