Mass spectrum: Mosapride citrate; ESI-QTOF; MS2; CE: 40; [M+H]+
Name: Mosapride citrate
Formula: C21H25ClFN3O3
Exact mass: 421.1568475966
SMILES: CCOC1C=C(N)C(Cl)=CC=1C(=O)NCC1CN(CC2=CC=C(F)C=C2)CCO1
InChI: InChI=1S/C21H25ClFN3O3/c1-2-28-20-10-19(24)18(22)9-17(20)21(27)25-11-16-13-26(7-8-29-16)12-14-3-5-15(23)6-4-14/h3-6,9-10,16H,2,7-8,11-13,24H2,1H3,(H,25,27)
Instrument type: ESI-QTOF
Ms type: MS2
Ion mode: POSITIVE
Ionization: ESI
Collision energy: 40
Precursor m/z: 422.1641240483
Precursor type: [M+H]+
m/z	relative intensity
64.978869	13
72.04439	13
78.031145	10
83.074094	12
98.06004	14
106.02874	24
106.061103	11
109.044805	24
114.010503	50
134.06004	13
135.067865	88
142.004931	36
142.041803	19
162.054955	43
169.030036	14
170.000333	802
170.037374	591
170.060527	61
171.037133	10
180.022211	87
198.032776	999
198.087318	13
