Mass spectrum: N'-[3-(Dimethylamino)propyl]-N,N-dimethylpropane-1,3-diamine; ESI-QTOF; MS2; CE: 10; [M+H]+
Name: N'-[3-(Dimethylamino)propyl]-N,N-dimethylpropane-1,3-diamine
Name: DTXSID7044974
Formula: C10H25N3
Exact mass: 187.2048478197
SMILES: CN(C)CCCNCCCN(C)C
InChI: InChI=1S/C10H25N3/c1-12(2)9-5-7-11-8-6-10-13(3)4/h11H,5-10H2,1-4H3
Instrument type: ESI-QTOF
Ms type: MS2
Ion mode: POSITIVE
Ionization: ESI
Collision energy: 10
Precursor m/z: 188.2121242714
Precursor type: [M+H]+
m/z	relative intensity
58.065126	89
86.096426	928
98.096426	111
143.154275	234
188.212124	999
