Mass spectrum: 1,3-Dichloro-6,7,8,9,10,12-hexahydroazepino[2,1-b]quinazoline; ESI-QTOF; MS2; CE: 40; [M+H]+
Name: 1,3-Dichloro-6,7,8,9,10,12-hexahydroazepino[2,1-b]quinazoline
Name: DTXSID9047259
Formula: C13H14Cl2N2
Exact mass: 268.0534038814
SMILES: ClC1C=C(Cl)C2CN3CCCCCC3=NC=2C=1
InChI: InChI=1S/C13H14Cl2N2/c14-9-6-11(15)10-8-17-5-3-1-2-4-13(17)16-12(10)7-9/h6-7H,1-5,8H2
Instrument type: ESI-QTOF
Ms type: MS2
Ion mode: POSITIVE
Ionization: ESI
Collision energy: 40
Precursor m/z: 269.0606803331
Precursor type: [M+H]+
m/z	relative intensity
41.038577	260
42.033826	166
43.054227	15
53.038577	15
54.033826	116
55.054227	580
56.049476	15
67.054227	24
68.049476	59
69.069877	841
77.038577	40
79.054227	228
80.049476	17
81.057301	90
94.065126	26
96.080776	971
110.999604	20
146.976282	19
151.018328	27
165.021402	10
165.033978	13
171.971531	52
172.979356	39
173.987181	999
174.033826	24
178.031057	15
179.038882	46
183.971531	11
185.987181	23
197.987181	61
198.98243	14
200.002831	25
202.041803	12
209.987181	16
210.995006	10
211.990255	47
212.99808	495
214.005905	600
215.01373	64
216.057453	10
224.99808	24
227.01373	662
228.034131	20
239.01373	95
240.021555	33
241.02938	21
252.034131	13
253.02938	31
254.037205	10
269.06068	995
