Mass spectrum: N,N-Dimethyl-4-nitrosoaniline; ESI-QTOF; MS2; CE: 20; [M+H]+
Name: N,N-Dimethyl-4-nitrosoaniline
Name: DTXSID7025138
Formula: C8H10N2O
Exact mass: 150.0793129561
SMILES: CN(C)C1C=CC(=CC=1)N=O
InChI: InChI=1S/C8H10N2O/c1-10(2)8-5-3-7(9-11)4-6-8/h3-6H,1-2H3
Instrument type: ESI-QTOF
Ms type: MS2
Ion mode: POSITIVE
Ionization: ESI
Collision energy: 20
Precursor m/z: 151.0865894078
Precursor type: [M+H]+
m/z	relative intensity
65.038577	34
66.033826	11
68.049476	115
79.017841	17
81.057301	17
82.065126	21
92.049476	96
93.044725	143
94.065126	31
106.065126	41
107.072951	29
108.080776	10
118.05255	14
119.060375	301
120.080776	188
121.088601	84
133.076025	965
134.08385	999
136.07569	19
151.086589	642
