Mass spectrum: 2-Ethylhexyl sulfate; ESI-QTOF; MS2; CE: 20; [M-H]-
Name: 2-Ethylhexyl sulfate
Name: DTXSID0057887
Formula: C8H18O4S
Exact mass: 210.0925797934
SMILES: CCCCC(COS(O)(=O)=O)CC
InChI: InChI=1S/C8H18O4S/c1-3-5-6-8(4-2)7-12-13(9,10)11/h8H,3-7H2,1-2H3,(H,9,10,11)
Instrument type: ESI-QTOF
Ms type: MS2
Ion mode: NEGATIVE
Ionization: ESI
Collision energy: 20
Precursor m/z: 209.0853033417
Precursor type: [M-H]-
m/z	relative intensity
79.957363	73
95.952278	30
96.960103	999
96.996488	48
97.011744	26
209.085303	271
