Mass spectrum: 3,4-Diaminotoluene; ESI-QTOF; MS2; CE: 20; [M+H]+
Name: 3,4-Diaminotoluene
Name: DTXSID9024930
Formula: C7H10N2
Exact mass: 122.0843983338
SMILES: CC1C=C(N)C(N)=CC=1
InChI: InChI=1S/C7H10N2/c1-5-2-3-6(8)7(9)4-5/h2-4H,8-9H2,1H3
Instrument type: ESI-QTOF
Ms type: MS2
Ion mode: POSITIVE
Ionization: ESI
Collision energy: 20
Precursor m/z: 123.0916747855
Precursor type: [M+H]+
m/z	relative intensity
51.022927	25
53.038577	13
54.033826	12
67.041651	12
77.038577	621
78.033826	30
79.054227	923
80.049476	53
81.057301	25
89.038577	16
91.041651	20
105.057301	12
106.065126	999
107.072951	15
108.0682	255
122.08385	26
123.091675	198
