Mass spectrum: 2,6-Dimethyl morpholine; ESI-QTOF; MS2; CE: 20; [M+H]+
Name: 2,6-Dimethyl morpholine
Name: DTXSID6022002
Formula: C6H13NO
Exact mass: 115.0997140444
SMILES: CC1CNCC(C)O1
InChI: InChI=1S/C6H13NO/c1-5-3-7-4-6(2)8-5/h5-7H,3-4H2,1-2H3
Instrument type: ESI-QTOF
Ms type: MS2
Ion mode: POSITIVE
Ionization: ESI
Collision energy: 20
Precursor m/z: 116.1069904961
Precursor type: [M+H]+
m/z	relative intensity
31.017841	10
39.022927	48
41.038577	999
42.033826	142
43.054227	250
44.049476	17
54.033826	18
55.054227	37
56.049476	213
58.065126	142
59.049141	65
68.049476	47
69.069877	10
70.065126	159
79.054227	45
81.069877	51
96.080776	12
98.096426	648
116.10699	106
