Mass spectrum: SB413217A; ESI-QTOF; MS2; CE: 40; [M+H]+
Name: SB413217A
Formula: C30H35FN4O2
Exact mass: 502.2744045907
SMILES: CC1=NC(=NO1)C1C=C2CCN(CCC2=CC=1)CCC1CCC(CC1)NC(=O)/C=C/C1=CC=C(F)C=C1
InChI: InChI=1S/C30H35FN4O2/c1-21-32-30(34-37-21)26-8-7-24-15-18-35(19-16-25(24)20-26)17-14-23-4-11-28(12-5-23)33-29(36)13-6-22-2-9-27(31)10-3-22/h2-3,6-10,13,20,23,28H,4-5,11-12,14-19H2,1H3,(H,33,36)/b13-6+
Instrument type: ESI-QTOF
Ms type: MS2
Ion mode: POSITIVE
Ionization: ESI
Collision energy: 40
Precursor m/z: 503.2816810424
Precursor type: [M+H]+
m/z	relative intensity
67.054227	60
81.069877	17
101.038577	12
109.101177	34
121.044805	80
149.039719	999
149.084658	30
149.103302	16
159.091675	15
166.066269	51
171.091675	13
188.118224	16
200.118224	37
201.102239	10
230.128789	47
242.128789	189
296.212124	33
338.222689	170
355.249238	29
461.271116	14
503.281681	31
