Mass spectrum: 3-Nitrobenzoic acid; ESI-QTOF; MS2; CE: 40; [M-H]-
Name: 3-Nitrobenzoic acid
Formula: C7H5NO4
Exact mass: 167.0218576561
SMILES: [O-][N+](=O)C1=CC(=CC=C1)C(O)=O
InChI: InChI=1S/C7H5NO4/c9-7(10)5-2-1-3-6(4-5)8(11)12/h1-4H,(H,9,10)
Instrument type: ESI-QTOF
Ms type: MS2
Ion mode: NEGATIVE
Ionization: ESI
Collision energy: 40
Precursor m/z: 166.0145812044
Precursor type: [M-H]-
m/z	relative intensity
45.993452	999
46.029837	21
