Mass spectrum: 2,6-Dimethoxybenzoic acid; ESI-QTOF; MS2; CE: 40; [M+H]+
Name: 2,6-Dimethoxybenzoic acid
Name: DTXSID4046999
Formula: C9H10O4
Exact mass: 182.0579088082
SMILES: COC1=CC=CC(OC)=C1C(O)=O
InChI: InChI=1S/C9H10O4/c1-12-6-4-3-5-7(13-2)8(6)9(10)11/h3-5H,1-2H3,(H,10,11)
Instrument type: ESI-QTOF
Ms type: MS2
Ion mode: POSITIVE
Ionization: ESI
Collision energy: 40
Precursor m/z: 183.0651852599
Precursor type: [M+H]+
m/z	relative intensity
51.022927	61
53.002191	12
55.017841	92
64.030752	51
66.046402	17
75.022927	56
77.038577	144
79.017841	84
92.025666	73
107.012756	999
107.049141	24
122.036231	145
150.031145	35
