Mass spectrum: 1-(2-Hydroxyethyl)pyrrolidin-2-one; ESI-QTOF; MS2; CE: 10; [M+H]+
Name: 1-(2-Hydroxyethyl)pyrrolidin-2-one
Name: DTXSID7044922
Formula: C6H11NO2
Exact mass: 129.0789786029
SMILES: OCCN1CCCC1=O
InChI: InChI=1S/C6H11NO2/c8-5-4-7-3-1-2-6(7)9/h8H,1-5H2
Instrument type: ESI-QTOF
Ms type: MS2
Ion mode: POSITIVE
Ionization: ESI
Collision energy: 10
Precursor m/z: 130.0862550546
Precursor type: [M+H]+
m/z	relative intensity
41.038577	18
44.049476	26
69.033491	170
69.069877	27
71.049141	14
84.080776	103
112.07569	999
130.086255	853
