Mass spectrum: 5-Methoxypsoralen; ESI-QTOF; MS2; CE: 20; [M+H]+
Name: 5-Methoxypsoralen
Name: DTXSID1025560
Formula: C12H8O4
Exact mass: 216.0422587444
SMILES: COC1=C2C=COC2=CC2OC(=O)C=CC=21
InChI: InChI=1S/C12H8O4/c1-14-12-7-2-3-11(13)16-10(7)6-9-8(12)4-5-15-9/h2-6H,1H3
Instrument type: ESI-QTOF
Ms type: MS2
Ion mode: POSITIVE
Ionization: ESI
Collision energy: 20
Precursor m/z: 217.0495351961
Precursor type: [M+H]+
m/z	relative intensity
43.017841	11
55.054227	17
69.069877	25
79.054227	10
81.018235	10
83.049141	16
101.02332	40
111.044056	13
115.054227	37
130.041316	10
131.049141	45
143.049141	21
146.036231	40
158.036231	20
161.059706	14
173.059706	51
174.031145	137
202.02606	999
217.049535	449
