Mass spectrum: HC Blue 2; ESI-QTOF; MS2; CE: 20; [M+H]+
Name: HC Blue 2
Name: DTXSID6020193
Formula: C12H19N3O5
Exact mass: 285.1324707398
SMILES: [O-][N+](=O)C1C=C(C=CC=1NCCO)N(CCO)CCO
InChI: InChI=1S/C12H19N3O5/c16-6-3-13-11-2-1-10(9-12(11)15(19)20)14(4-7-17)5-8-18/h1-2,9,13,16-18H,3-8H2
Instrument type: ESI-QTOF
Ms type: MS2
Ion mode: POSITIVE
Ionization: ESI
Collision energy: 20
Precursor m/z: 286.1397471915
Precursor type: [M+H]+
m/z	relative intensity
45.033491	30
89.059706	23
146.071274	21
162.066188	21
172.086924	25
177.089663	13
188.081838	10
190.097488	567
190.14645	16
191.102633	65
192.076753	10
195.100228	11
202.097488	13
210.087318	466
210.136279	13
211.095143	50
220.108053	33
221.115878	67
222.121023	19
224.102968	16
238.118618	33
241.105707	999
242.113532	109
243.110124	12
254.113532	361
255.121357	45
268.129183	60
269.137008	29
286.139747	157
