Mass spectrum: 2,4-Di-tert-pentylphenol; ESI-QTOF; MS2; CE: 40; [M-H]-
Name: 2,4-Di-tert-pentylphenol
Formula: C16H26O
Exact mass: 234.1983654517
SMILES: CC(C)(CC)C1C=C(C=CC=1O)C(C)(C)CC
InChI: InChI=1S/C16H26O/c1-7-15(3,4)12-9-10-14(17)13(11-12)16(5,6)8-2/h9-11,17H,7-8H2,1-6H3
Instrument type: ESI-QTOF
Ms type: MS2
Ion mode: NEGATIVE
Ionization: ESI
Collision energy: 40
Precursor m/z: 233.191089
Precursor type: [M-H]-
m/z	relative intensity
133.065888	13
173.097189	27
175.112839	10
203.144139	999
217.159789	32
233.191089	22
