Mass spectrum: 2,2',2'',2'''-(1,2-Ethanediyldinitrilo)tetrakisethanol; ESI-QTOF; MS2; CE: 20; [M+H]+
Name: 2,2',2'',2'''-(1,2-Ethanediyldinitrilo)tetrakisethanol
Name: DTXSID2041917
Formula: C10H24N2O4
Exact mass: 236.1736072696
SMILES: OCCN(CCO)CCN(CCO)CCO
InChI: InChI=1S/C10H24N2O4/c13-7-3-11(4-8-14)1-2-12(5-9-15)6-10-16/h13-16H,1-10H2
Instrument type: ESI-QTOF
Ms type: MS2
Ion mode: POSITIVE
Ionization: ESI
Collision energy: 20
Precursor m/z: 237.1808837213
Precursor type: [M+H]+
m/z	relative intensity
45.033491	15
70.065126	56
88.07569	54
114.09134	67
132.101905	999
