Mass spectrum: Imidazole; ESI-QTOF; MS2; CE: 10; [M-H]-
Name: Imidazole
Name: DTXSID2029616
Formula: C3H4N2
Exact mass: 68.0374481424
SMILES: C1NC=CN=1
InChI: InChI=1S/C3H4N2/c1-2-5-3-4-1/h1-3H,(H,4,5)
Instrument type: ESI-QTOF
Ms type: MS2
Ion mode: NEGATIVE
Ionization: ESI
Collision energy: 10
Precursor m/z: 67.0301716907
Precursor type: [M-H]-
m/z	relative intensity
40.019273	60
67.030172	999
