Mass spectrum: SR271425; ESI-QTOF; MS2; CE: 20; [M+H]+
Name: SR271425
Name: DTXSID8047347
Formula: C22H27N3O3S
Exact mass: 413.1773124804
SMILES: COC1C=CC2SC3C(=C(C=CC=3CNC=O)NCCN(CC)CC)C(=O)C=2C=1
InChI: InChI=1S/C22H27N3O3S/c1-4-25(5-2)11-10-24-18-8-6-15(13-23-14-26)22-20(18)21(27)17-12-16(28-3)7-9-19(17)29-22/h6-9,12,14,24H,4-5,10-11,13H2,1-3H3,(H,23,26)
Instrument type: ESI-QTOF
Ms type: MS2
Ion mode: POSITIVE
Ionization: ESI
Collision energy: 20
Precursor m/z: 414.1845889321
Precursor type: [M+H]+
m/z	relative intensity
44.049476	12
72.080776	21
100.112076	999
296.073976	71
341.09544	24
414.184589	55
