Mass spectrum: Tricyclodecanedimethanol diacrylate; ESI-QTOF; MS2; CE: 10; [M+H]+
Name: Tricyclodecanedimethanol diacrylate
Name: DTXSID5044940
Formula: C18H24O4
Exact mass: 304.1674592548
SMILES: C=CC(=O)OCC1CCC2C1C1CC2C(C1)COC(=O)C=C
InChI: InChI=1S/C18H24O4/c1-3-16(19)21-9-11-5-6-14-15-8-12(18(11)14)7-13(15)10-22-17(20)4-2/h3-4,11-15,18H,1-2,5-10H2
Instrument type: ESI-QTOF
Ms type: MS2
Ion mode: POSITIVE
Ionization: ESI
Collision energy: 10
Precursor m/z: 305.1747357065
Precursor type: [M+H]+
m/z	relative intensity
79.054227	15
81.069877	77
91.054227	14
105.069877	74
119.085527	54
133.101177	137
161.132477	999
233.153606	20
