Mass spectrum: Carbazole; ESI-QTOF; MS2; CE: 10; [M-H]-
Name: Carbazole
Formula: C12H9N
Exact mass: 167.0734992945
SMILES: C1=CC=CC2NC3=CC=CC=C3C=21
InChI: InChI=1S/C12H9N/c1-3-7-11-9(5-1)10-6-2-4-8-12(10)13-11/h1-8,13H
Instrument type: ESI-QTOF
Ms type: MS2
Ion mode: NEGATIVE
Ionization: ESI
Collision energy: 10
Precursor m/z: 166.0662228428
Precursor type: [M-H]-
m/z	relative intensity
166.066223	999
