Mass spectrum: Letrozole; ESI-QTOF; MS2; CE: 10; [M-H]-
Name: Letrozole
Name: Letocor
Name: Letoripe
Name: Lerozole
Name: Femara
Formula: C17H11N5
Exact mass: 285.1014453879
SMILES: N#CC1C=CC(=CC=1)C(C1C=CC(=CC=1)C#N)N1C=NC=N1
InChI: InChI=1S/C17H11N5/c18-9-13-1-5-15(6-2-13)17(22-12-20-11-21-22)16-7-3-14(10-19)4-8-16/h1-8,11-12,17H
Instrument type: ESI-QTOF
Ms type: MS2
Ion mode: NEGATIVE
Ionization: ESI
Collision energy: 10
Precursor m/z: 284.0941689362
Precursor type: [M-H]-
m/z	relative intensity
102.034923	14
127.030172	19
242.072371	71
284.094169	999
