Mass spectrum: 2-(2-Butoxyethoxy)ethyl acetate; ESI-QTOF; MS2; CE: 40; [M+H]+
Name: 2-(2-Butoxyethoxy)ethyl acetate
Formula: C10H20O4
Exact mass: 204.1361591272
SMILES: CCCCOCCOCCOC(C)=O
InChI: InChI=1S/C10H20O4/c1-3-4-5-12-6-7-13-8-9-14-10(2)11/h3-9H2,1-2H3
Instrument type: ESI-QTOF
Ms type: MS2
Ion mode: POSITIVE
Ionization: ESI
Collision energy: 40
Precursor m/z: 205.1434355789
Precursor type: [M+H]+
m/z	relative intensity
39.022927	14
41.038577	43
43.017841	999
45.033491	126
55.054227	20
57.069877	28
85.049535	11
87.044056	322
