Mass spectrum: 2-(Pyridin-2-yl)ethanol; ESI-QTOF; MS2; CE: 40; [M+H]+
Name: 2-(Pyridin-2-yl)ethanol
Formula: C7H9NO
Exact mass: 123.0684139168
SMILES: OCCC1C=CC=CN=1
InChI: InChI=1S/C7H9NO/c9-6-4-7-3-1-2-5-8-7/h1-3,5,9H,4,6H2
Instrument type: ESI-QTOF
Ms type: MS2
Ion mode: POSITIVE
Ionization: ESI
Collision energy: 40
Precursor m/z: 124.0756903685
Precursor type: [M+H]+
m/z	relative intensity
39.022927	15
40.030752	20
50.015101	31
51.022927	823
51.067865	23
52.018175	28
52.030752	38
53.038577	79
54.033826	34
65.038577	66
66.046402	141
67.041651	53
77.038577	110
78.033826	999
79.041651	53
79.054227	18
80.049476	35
92.049476	88
93.057301	216
94.065126	14
106.065126	63
