Mass spectrum: 4-Dodecylmorpholine; ESI-QTOF; MS2; CE: 40; [M+H]+
Name: 4-Dodecylmorpholine
Name: DTXSID4042171
Formula: C16H33NO
Exact mass: 255.2562146824
SMILES: CCCCCCCCCCCCN1CCOCC1
InChI: InChI=1S/C16H33NO/c1-2-3-4-5-6-7-8-9-10-11-12-17-13-15-18-16-14-17/h2-16H2,1H3
Instrument type: ESI-QTOF
Ms type: MS2
Ion mode: POSITIVE
Ionization: ESI
Collision energy: 40
Precursor m/z: 256.2634911341
Precursor type: [M+H]+
m/z	relative intensity
29.038577	10
41.038577	345
42.033826	126
43.054227	999
44.049476	194
45.033491	55
55.054227	37
57.069877	522
58.065126	31
68.049476	14
70.065126	425
71.085527	49
86.06004	16
88.07569	283
102.09134	24
