Mass spectrum: 4-(Diethylamino)salicylaldehyde; ESI-QTOF; MS2; CE: 10; [M-H]-
Name: 4-(Diethylamino)salicylaldehyde
Name: DTXSID5022271
Formula: C11H15NO2
Exact mass: 193.1102787305
SMILES: CCN(CC)C1C=C(O)C(C=O)=CC=1
InChI: InChI=1S/C11H15NO2/c1-3-12(4-2)10-6-5-9(8-13)11(14)7-10/h5-8,14H,3-4H2,1-2H3
Instrument type: ESI-QTOF
Ms type: MS2
Ion mode: NEGATIVE
Ionization: ESI
Collision energy: 10
Precursor m/z: 192.1030022788
Precursor type: [M-H]-
m/z	relative intensity
59.013853	10
120.045487	85
135.068962	138
136.076788	14
148.040402	73
163.063877	34
164.071702	19
164.108088	404
192.103002	999
