Mass spectrum: 2,2'-(3-Chlorophenylimino)diethanol; ESI-QTOF; MS2; CE: 20; [M-H]-
Name: 2,2'-(3-Chlorophenylimino)diethanol
Formula: C10H14ClNO2
Exact mass: 215.0713064086
SMILES: OCCN(CCO)C1C=CC=C(Cl)C=1
InChI: InChI=1S/C10H14ClNO2/c11-9-2-1-3-10(8-9)12(4-6-13)5-7-14/h1-3,8,13-14H,4-7H2
Instrument type: ESI-QTOF
Ms type: MS2
Ion mode: NEGATIVE
Ionization: ESI
Collision energy: 20
Precursor m/z: 214.0640299569
Precursor type: [M-H]-
m/z	relative intensity
34.969401	49
43.018938	38
126.995616	999
127.042748	18
140.027251	14
152.027251	43
