Mass spectrum: N-(4-Methoxyphenyl)-3-oxobutanamide; ESI-QTOF; MS2; CE: 40; [M+H]+
Name: N-(4-Methoxyphenyl)-3-oxobutanamide
Name: DTXSID7044689
Formula: C11H13NO3
Exact mass: 207.089543289
SMILES: CC(=O)CC(=O)NC1C=CC(=CC=1)OC
InChI: InChI=1S/C11H13NO3/c1-8(13)7-11(14)12-9-3-5-10(15-2)6-4-9/h3-6H,7H2,1-2H3,(H,12,14)
Instrument type: ESI-QTOF
Ms type: MS2
Ion mode: POSITIVE
Ionization: ESI
Collision energy: 40
Precursor m/z: 208.0968197407
Precursor type: [M+H]+
m/z	relative intensity
31.017841	12
39.022927	22
41.038577	44
43.017841	999
43.041651	22
51.022927	14
52.030752	12
53.026001	13
53.038577	22
59.049141	116
63.022927	12
64.030752	21
65.038577	159
66.046402	15
67.054227	46
77.038577	341
78.046402	14
79.041651	52
79.054227	31
80.049476	82
81.057301	226
85.028406	80
92.025666	149
92.049476	190
93.057301	765
94.062446	21
95.049141	446
107.036565	58
107.049141	31
108.04439	119
109.052215	201
121.064791	42
122.06004	565
123.067865	33
124.07569	153
