Mass spectrum: 3-(Trifluoromethyl)benzoic acid; ESI-QTOF; MS2; CE: 40; [M-H]-
Name: 3-(Trifluoromethyl)benzoic acid
Name: DTXSID2041460
Formula: C8H5F3O2
Exact mass: 190.0241640041
SMILES: OC(=O)C1=CC(=CC=C1)C(F)(F)F
InChI: InChI=1S/C8H5F3O2/c9-8(10,11)6-3-1-2-5(4-6)7(12)13/h1-4H,(H,12,13)
Instrument type: ESI-QTOF
Ms type: MS2
Ion mode: NEGATIVE
Ionization: ESI
Collision energy: 40
Precursor m/z: 189.0168875524
Precursor type: [M-H]-
m/z	relative intensity
49.008374	114
54.998952	12
68.995758	491
75.00518	34
75.006323	26
75.024024	556
84.000549	21
85.008374	999
105.014602	888
125.02083	198
145.027058	443
