Mass spectrum: 1,6-Hexanediamine; ESI-QTOF; MS2; CE: 20; [M+H]+
Name: 1,6-Hexanediamine
Formula: C6H16N2
Exact mass: 116.1313485252
SMILES: NCCCCCCN
InChI: InChI=1S/C6H16N2/c7-5-3-1-2-4-6-8/h1-8H2
Instrument type: ESI-QTOF
Ms type: MS2
Ion mode: POSITIVE
Ionization: ESI
Collision energy: 20
Precursor m/z: 117.1386249769
Precursor type: [M+H]+
m/z	relative intensity
30.033826	31
39.022927	18
41.038577	74
44.049476	10
55.054227	999
83.085527	58
100.112076	211
