Mass spectrum: Propane-1,3-diyl bis(4-aminobenzoate); ESI-QTOF; MS2; CE: 10; [M+H]+
Name: Propane-1,3-diyl bis(4-aminobenzoate)
Name: DTXSID3044960
Formula: C17H18N2O4
Exact mass: 314.1266570782
SMILES: NC1C=CC(=CC=1)C(=O)OCCCOC(=O)C1C=CC(N)=CC=1
InChI: InChI=1S/C17H18N2O4/c18-14-6-2-12(3-7-14)16(20)22-10-1-11-23-17(21)13-4-8-15(19)9-5-13/h2-9H,1,10-11,18-19H2
Instrument type: ESI-QTOF
Ms type: MS2
Ion mode: POSITIVE
Ionization: ESI
Collision energy: 10
Precursor m/z: 315.1339335299
Precursor type: [M+H]+
m/z	relative intensity
120.04439	788
120.089329	23
120.101905	10
178.086255	999
178.135217	28
