Mass spectrum: AVE5638; ESI-QTOF; MS2; CE: 40; [M+H]+
Name: AVE5638
Name: DTXSID0047371
Formula: C25H23FN2O2
Exact mass: 402.1743561931
SMILES: NCC1C=C(C=CC=1)C1CCN(CC1)C(=O)C1=CC=C(C#CC2=CC=CC=C2F)O1
InChI: InChI=1S/C25H23FN2O2/c26-23-7-2-1-5-20(23)8-9-22-10-11-24(30-22)25(29)28-14-12-19(13-15-28)21-6-3-4-18(16-21)17-27/h1-7,10-11,16,19H,12-15,17,27H2
Instrument type: ESI-QTOF
Ms type: MS2
Ion mode: POSITIVE
Ionization: ESI
Collision energy: 40
Precursor m/z: 403.1816326448
Precursor type: [M+H]+
m/z	relative intensity
42.033826	11
55.017841	30
55.054227	74
56.049476	585
67.054227	16
82.065126	34
84.080776	28
91.054227	83
95.012756	19
109.044805	40
115.054227	16
116.062052	18
117.069877	22
123.024069	11
129.069877	43
131.085527	157
133.044805	21
141.069877	13
142.077702	19
143.085527	16
144.080776	17
147.022927	12
151.054227	39
155.085527	24
157.044805	999
157.097154	36
158.047464	17
165.069877	13
170.05263	125
171.060455	182
172.07569	14
172.112076	65
199.054227	205
213.033491	825
213.091006	10
214.041316	10
220.06828	12
226.077702	84
227.049141	18
227.085527	129
233.076105	57
235.091755	24
245.076105	11
246.08393	228
247.091755	615
248.09958	13
252.093352	10
255.080441	29
257.076105	29
258.08393	25
259.091755	53
260.09958	21
261.107405	34
270.08393	26
271.091755	39
272.09958	21
273.107405	27
274.078845	20
275.085527	86
275.119032	15
284.09958	10
285.107405	44
289.10232	27
297.107405	10
303.080441	136
303.112804	17
331.111742	23
358.160169	19
