Mass spectrum: Triglycidyl isocyanurate; ESI-QTOF; MS2; CE: 40; [M+H]+
Name: Triglycidyl isocyanurate
Name: DTXSID4026262
Formula: C12H15N3O6
Exact mass: 297.0960852345
SMILES: O=C1N(CC2CO2)C(=O)N(CC2CO2)C(=O)N1CC1CO1
InChI: InChI=1S/C12H15N3O6/c16-10-13(1-7-4-19-7)11(17)15(3-9-6-21-9)12(18)14(10)2-8-5-20-8/h7-9H,1-6H2
Instrument type: ESI-QTOF
Ms type: MS2
Ion mode: POSITIVE
Ionization: ESI
Collision energy: 40
Precursor m/z: 298.1033616862
Precursor type: [M+H]+
m/z	relative intensity
41.038577	18
42.033826	35
43.017841	64
44.01309	428
44.049476	76
54.033826	620
55.017841	89
56.01309	236
56.025666	20
56.049476	80
57.033491	432
58.02874	24
69.008339	16
69.992355	753
70.02874	218
82.02874	999
82.062446	16
87.018904	675
87.052609	11
99.018904	71
112.998168	10
113.034554	33
130.024717	433
