Mass spectrum: beta-Butyrolactone; ESI-QTOF; MS2; CE: 20; [M-H]-
Name: beta-Butyrolactone
Name: DTXSID1020223
Formula: C4H6O2
Exact mass: 86.036779436
SMILES: CC1CC(=O)O1
InChI: InChI=1S/C4H6O2/c1-3-2-4(5)6-3/h3H,2H2,1H3
Instrument type: ESI-QTOF
Ms type: MS2
Ion mode: NEGATIVE
Ionization: ESI
Collision energy: 20
Precursor m/z: 85.0295029843
Precursor type: [M-H]-
m/z	relative intensity
65.003288	999
