Mass spectrum: FD and C Green No. 1; ESI-QTOF; MS2; CE: 20; [M-H]-
Name: FD and C Green No. 1
Name: DTXSID3020671
Formula: [C37H37N2O6S2]+
Exact mass: 669.2093033889
SMILES: CC[N+](CC1=CC(=CC=C1)S(O)(=O)=O)=C1C=CC(C=C1)=C(C1C=CC=CC=1)C1C=CC(=CC=1)N(CC1C=C(C=CC=1)S(O)(=O)=O)CC |c:14,t:21|
InChI: InChI=1S/C37H36N2O6S2/c1-3-38(26-28-10-8-14-35(24-28)46(40,41)42)33-20-16-31(17-21-33)37(30-12-6-5-7-13-30)32-18-22-34(23-19-32)39(4-2)27-29-11-9-15-36(25-29)47(43,44)45/h5-25H,3-4,26-27H2,1-2H3,(H-,40,41,42,43,44,45)/p+1
Instrument type: ESI-QTOF
Ms type: MS2
Ion mode: NEGATIVE
Ionization: ESI
Collision energy: 20
Precursor m/z: 668.2020269372
Precursor type: [M-H]-
m/z	relative intensity
170.004313	13
497.184386	12
498.194891	14
588.239161	24
640.170727	20
667.194202	199
668.202027	999
