Mass spectrum: N-(4-Methylpentan-2-yl)-N-phenylbenzene-1,4-diamine; ESI-QTOF; MS2; CE: 20; [M+H]+
Name: N-(4-Methylpentan-2-yl)-N-phenylbenzene-1,4-diamine
Name: DTXSID3044966
Formula: C18H24N2
Exact mass: 268.1939487804
SMILES: CC(C)CC(C)N(C1C=CC=CC=1)C1C=CC(N)=CC=1
InChI: InChI=1S/C18H24N2/c1-14(2)13-15(3)20(17-7-5-4-6-8-17)18-11-9-16(19)10-12-18/h4-12,14-15H,13,19H2,1-3H3
Instrument type: ESI-QTOF
Ms type: MS2
Ion mode: POSITIVE
Ionization: ESI
Collision energy: 20
Precursor m/z: 269.2012252321
Precursor type: [M+H]+
m/z	relative intensity
43.054227	45
57.069877	17
85.101177	12
93.057301	35
166.065126	51
167.072951	13
168.080776	21
183.091675	133
184.0995	999
185.107325	375
186.11515	42
211.122975	167
212.1308	28
253.169925	24
267.185575	42
268.1934	20
