Mass spectrum: N-Methylhydrazinecarbothioamide; ESI-QTOF; MS2; CE: 10; [M+H]+
Name: N-Methylhydrazinecarbothioamide
Name: DTXSID7044390
Formula: C2H7N3S
Exact mass: 105.0360679755
SMILES: CNC(=S)NN
InChI: InChI=1S/C2H7N3S/c1-4-2(6)5-3/h3H2,1H3,(H2,4,5,6)
Instrument type: ESI-QTOF
Ms type: MS2
Ion mode: POSITIVE
Ionization: ESI
Collision energy: 10
Precursor m/z: 106.0433444272
Precursor type: [M+H]+
m/z	relative intensity
32.049476	87
33.044725	33
42.033826	47
44.049476	12
47.990246	12
57.044725	111
59.990246	27
62.005896	844
72.055624	10
74.005896	38
75.001145	234
89.016795	999
106.043344	336
