Mass spectrum: N-Methylethanolamine; ESI-QTOF; MS2; CE: 40; [M+H]+
Name: N-Methylethanolamine
Formula: C3H9NO
Exact mass: 75.0684139168
SMILES: CNCCO
InChI: InChI=1S/C3H9NO/c1-4-2-3-5/h4-5H,2-3H2,1H3
Instrument type: ESI-QTOF
Ms type: MS2
Ion mode: POSITIVE
Ionization: ESI
Collision energy: 40
Precursor m/z: 76.0756903685
Precursor type: [M+H]+
m/z	relative intensity
29.002191	27
29.038577	32
30.010016	53
30.033826	84
32.049476	58
41.026001	70
42.010016	109
42.033826	999
43.017841	703
43.041651	347
43.054227	16
44.049476	402
44.062052	36
45.033491	515
56.049476	131
57.057301	43
58.065126	58
