Mass spectrum: Butylphthalyl butylglycolate; ESI-QTOF; MS2; CE: 20; [M+H]+
Name: Butylphthalyl butylglycolate
Formula: C18H24O6
Exact mass: 336.1572884994
SMILES: CCCCOC(=O)COC(=O)C1=CC=CC=C1C(=O)OCCCC
InChI: InChI=1S/C18H24O6/c1-3-5-11-22-16(19)13-24-18(21)15-10-8-7-9-14(15)17(20)23-12-6-4-2/h7-10H,3-6,11-13H2,1-2H3
Instrument type: ESI-QTOF
Ms type: MS2
Ion mode: POSITIVE
Ionization: ESI
Collision energy: 20
Precursor m/z: 337.1645649511
Precursor type: [M+H]+
m/z	relative intensity
41.038577	14
43.017841	19
55.054227	15
57.069877	147
149.02332	999
207.0288	58
263.0914	26
