Mass spectrum: 4,4'-Sulfonylbis[2-(prop-2-en-1-yl)phenol]; ESI-QTOF; MS2; CE: 40; [M-H]-
Name: 4,4'-Sulfonylbis[2-(prop-2-en-1-yl)phenol]
Name: DTXSID9047598
Formula: C18H18O4S
Exact mass: 330.0925797934
SMILES: C=CCC1C=C(C=CC=1O)S(=O)(=O)C1=CC(CC=C)=C(O)C=C1
InChI: InChI=1S/C18H18O4S/c1-3-5-13-11-15(7-9-17(13)19)23(21,22)16-8-10-18(20)14(12-16)6-4-2/h3-4,7-12,19-20H,1-2,5-6H2
Instrument type: ESI-QTOF
Ms type: MS2
Ion mode: NEGATIVE
Ionization: ESI
Collision energy: 40
Precursor m/z: 329.0853033417
Precursor type: [M-H]-
m/z	relative intensity
63.962449	15
131.050238	10
132.058063	999
132.09782	31
132.115578	18
133.065888	46
134.037328	10
148.052978	219
197.027788	10
235.076453	28
249.092103	12
299.038353	35
329.085303	17
