Mass spectrum: HMR1426; ESI-QTOF; MS2; CE: 40; [M+H]+
Name: HMR1426
Name: DTXSID9047338
Formula: C16H12ClNOS
Exact mass: 301.0328124525
SMILES: OC12N=C(SC1CC1=CC(Cl)=CC=C21)C1C=CC=CC=1
InChI: InChI=1S/C16H12ClNOS/c17-12-6-7-13-11(8-12)9-14-16(13,19)18-15(20-14)10-4-2-1-3-5-10/h1-8,14,19H,9H2
Instrument type: ESI-QTOF
Ms type: MS2
Ion mode: POSITIVE
Ionization: ESI
Collision energy: 40
Precursor m/z: 302.0400889042
Precursor type: [M+H]+
m/z	relative intensity
51.022927	10
77.038577	161
102.046402	21
104.049476	999
121.010647	39
137.015254	118
145.010647	26
146.018472	24
165.010169	13
180.987325	329
221.041947	49
250.044687	32
