Mass spectrum: (2,2,6,6-Tetramethyl-4-oxopiperidin-1-yl)oxidanyl; ESI-QTOF; MS2; CE: 20; [M+H]+
Name: (2,2,6,6-Tetramethyl-4-oxopiperidin-1-yl)oxidanyl
Name: DTXSID4044905
Formula: C9H17NO2
Exact mass: 171.1259287943
SMILES: CC1(C)CC(=O)CC(C)(C)N1O
InChI: InChI=1S/C9H17NO2/c1-8(2)5-7(11)6-9(3,4)10(8)12/h12H,5-6H2,1-4H3
Instrument type: ESI-QTOF
Ms type: MS2
Ion mode: POSITIVE
Ionization: ESI
Collision energy: 20
Precursor m/z: 172.133205246
Precursor type: [M+H]+
m/z	relative intensity
55.054227	40
56.049476	76
74.06004	999
74.096426	20
74.109002	12
83.049141	29
