Mass spectrum: Dipropyl hexanedioate; ESI-QTOF; MS2; CE: 20; [M+H]+
Name: Dipropyl hexanedioate
Formula: C12H22O4
Exact mass: 230.151809191
SMILES: CCCOC(=O)CCCCC(=O)OCCC
InChI: InChI=1S/C12H22O4/c1-3-9-15-11(13)7-5-6-8-12(14)16-10-4-2/h3-10H2,1-2H3
Instrument type: ESI-QTOF
Ms type: MS2
Ion mode: POSITIVE
Ionization: ESI
Collision energy: 20
Precursor m/z: 231.1590856427
Precursor type: [M+H]+
m/z	relative intensity
41.038577	10
43.017841	19
43.054227	56
55.054227	250
59.049141	60
83.049141	298
101.059706	769
111.044056	999
111.080441	12
129.054621	105
143.106656	20
171.101571	18
