Mass spectrum: N,N'-Dibutylurea; ESI-QTOF; MS2; CE: 40; [M+H]+
Name: N,N'-Dibutylurea
Name: DTXSID3042188
Formula: C9H20N2O
Exact mass: 172.1575632751
SMILES: CCCCNC(=O)NCCCC
InChI: InChI=1S/C9H20N2O/c1-3-5-7-10-9(12)11-8-6-4-2/h3-8H2,1-2H3,(H2,10,11,12)
Instrument type: ESI-QTOF
Ms type: MS2
Ion mode: POSITIVE
Ionization: ESI
Collision energy: 40
Precursor m/z: 173.1648397268
Precursor type: [M+H]+
m/z	relative intensity
29.038577	51
39.022927	97
41.038577	999
44.01309	31
55.054227	18
57.069877	403
