Mass spectrum: N-(4-Methylpentan-2-yl)-N-phenylbenzene-1,4-diamine; ESI-QTOF; MS2; CE: 10; [M+H]+
Name: N-(4-Methylpentan-2-yl)-N-phenylbenzene-1,4-diamine
Name: DTXSID3044966
Formula: C18H24N2
Exact mass: 268.1939487804
SMILES: CC(C)CC(C)N(C1C=CC=CC=1)C1C=CC(N)=CC=1
InChI: InChI=1S/C18H24N2/c1-14(2)13-15(3)20(17-7-5-4-6-8-17)18-11-9-16(19)10-12-18/h4-12,14-15H,13,19H2,1-3H3
Instrument type: ESI-QTOF
Ms type: MS2
Ion mode: POSITIVE
Ionization: ESI
Collision energy: 10
Precursor m/z: 269.2012252321
Precursor type: [M+H]+
m/z	relative intensity
43.054227	14
85.101177	16
166.065126	18
183.091675	102
184.0995	999
185.107325	770
186.11515	92
211.122975	133
212.1308	19
253.169925	16
267.185575	744
268.1934	512
269.201225	856
