Mass spectrum: PHA-00543613; ESI-QTOF; MS2; CE: 40; [M+H]+
Name: PHA-00543613
Name: DTXSID6047284
Formula: C15H17N3O2
Exact mass: 271.1320768091
SMILES: O=C(NC1CN2CCC1CC2)C1C=C2C=COC2=CN=1
InChI: InChI=1S/C15H17N3O2/c19-15(12-7-11-3-6-20-14(11)8-16-12)17-13-9-18-4-1-10(13)2-5-18/h3,6-8,10,13H,1-2,4-5,9H2,(H,17,19)
Instrument type: ESI-QTOF
Ms type: MS2
Ion mode: POSITIVE
Ionization: ESI
Collision energy: 40
Precursor m/z: 272.1393532608
Precursor type: [M+H]+
m/z	relative intensity
30.033826	10
41.038577	39
42.033826	232
43.054227	12
44.049476	97
53.038577	29
54.033826	28
55.054227	247
56.049476	250
63.022927	15
65.038577	17
67.041651	14
67.054227	54
68.049476	183
69.057301	41
69.069877	26
70.065126	12
77.038577	71
79.054227	134
80.049476	40
81.057301	44
81.069877	392
82.065126	449
82.098831	12
84.080776	50
91.054227	76
93.069877	92
94.065126	41
95.072951	97
98.096426	12
108.080776	72
110.096426	668
118.02874	999
118.073679	32
118.086255	19
120.04439	88
128.10699	149
132.04439	22
145.039639	147
146.023655	234
146.06004	11
153.102239	61
163.050204	26
175.050204	17
199.086589	16
254.128789	41
272.139353	58
