Mass spectrum: N,N-Dicyclohexyl-2-benzothiazolesulfenamide; ESI-QTOF; MS2; CE: 20; [M+H]+
Name: N,N-Dicyclohexyl-2-benzothiazolesulfenamide
Name: DTXSID3027584
Formula: C19H26N2S2
Exact mass: 346.1537403042
SMILES: C1CCCCC1N(SC1=NC2C=CC=CC=2S1)C1CCCCC1
InChI: InChI=1S/C19H26N2S2/c1-3-9-15(10-4-1)21(16-11-5-2-6-12-16)23-19-20-17-13-7-8-14-18(17)22-19/h7-8,13-16H,1-6,9-12H2
Instrument type: ESI-QTOF
Ms type: MS2
Ion mode: POSITIVE
Ionization: ESI
Collision energy: 20
Precursor m/z: 347.1610167559
Precursor type: [M+H]+
m/z	relative intensity
55.054227	26
56.049476	15
83.085527	64
98.096426	115
100.112076	127
125.119901	12
130.068497	10
138.127726	999
139.135551	13
152.143376	107
165.977967	78
180.174676	945
181.182501	797
183.004516	326
265.082766	523
347.161017	144
