Mass spectrum: 5-Phenyl-1H-tetrazole; ESI-QTOF; MS2; CE: 10; [M-H]-
Name: 5-Phenyl-1H-tetrazole
Name: DTXSID6044858
Formula: C7H6N4
Exact mass: 146.059246221
SMILES: C1=CC=CC=C1C1NN=NN=1
InChI: InChI=1S/C7H6N4/c1-2-4-6(5-3-1)7-8-10-11-9-7/h1-5H,(H,8,9,10,11)
Instrument type: ESI-QTOF
Ms type: MS2
Ion mode: NEGATIVE
Ionization: ESI
Collision energy: 10
Precursor m/z: 145.0519697693
Precursor type: [M-H]-
m/z	relative intensity
42.009771	15
89.039674	327
117.045822	999
145.05197	242
