Mass spectrum: N-Nitrosobis(2-oxopropyl)amine; ESI-QTOF; MS2; CE: 20; [M+H]+
Name: N-Nitrosobis(2-oxopropyl)amine
Name: DTXSID2021022
Formula: C6H10N2O3
Exact mass: 158.0691422007
SMILES: CC(=O)CN(CC(C)=O)N=O
InChI: InChI=1S/C6H10N2O3/c1-5(9)3-8(7-11)4-6(2)10/h3-4H2,1-2H3
Instrument type: ESI-QTOF
Ms type: MS2
Ion mode: POSITIVE
Ionization: ESI
Collision energy: 20
Precursor m/z: 159.0764186524
Precursor type: [M+H]+
m/z	relative intensity
47.00018	13
48.99202	14
58.065126	14
61.007276	67
62.015101	16
63.00767	61
63.994366	172
64.015495	26
65.99744	162
79.017841	999
79.054227	27
80.025666	21
81.020915	945
81.054621	28
81.065854	17
86.06004	46
