Mass spectrum: 3-Methoxy-5-methylphenol; ESI-QTOF; MS2; CE: 10; [M-H]-
Name: 3-Methoxy-5-methylphenol
Name: DTXSID1047443
Formula: C8H10O2
Exact mass: 138.0680795636
SMILES: CC1C=C(C=C(O)C=1)OC
InChI: InChI=1S/C8H10O2/c1-6-3-7(9)5-8(4-6)10-2/h3-5,9H,1-2H3
Instrument type: ESI-QTOF
Ms type: MS2
Ion mode: NEGATIVE
Ionization: ESI
Collision energy: 10
Precursor m/z: 137.0608031119
Precursor type: [M-H]-
m/z	relative intensity
122.037328	999
137.060803	449
