Mass spectrum: 4-Cyanobenzoic acid; ESI-QTOF; MS2; CE: 20; [M-H]-
Name: 4-Cyanobenzoic acid
Name: DTXSID9041659
Formula: C8H5NO2
Exact mass: 147.0320284115
SMILES: N#CC1C=CC(=CC=1)C(O)=O
InChI: InChI=1S/C8H5NO2/c9-5-6-1-3-7(4-2-6)8(10)11/h1-4H,(H,10,11)
Instrument type: ESI-QTOF
Ms type: MS2
Ion mode: NEGATIVE
Ionization: ESI
Collision energy: 20
Precursor m/z: 146.0247519598
Precursor type: [M-H]-
m/z	relative intensity
102.034923	999
