Mass spectrum: 2-Amino-6-nitrobenzothiazole; ESI-QTOF; MS2; CE: 40; [M-H]-
Name: 2-Amino-6-nitrobenzothiazole
Name: DTXSID3024491
Formula: C7H5N3O2S
Exact mass: 195.0102471563
SMILES: NC1=NC2=CC=C(C=C2S1)[N+]([O-])=O
InChI: InChI=1S/C7H5N3O2S/c8-7-9-5-2-1-4(10(11)12)3-6(5)13-7/h1-3H,(H2,8,9)
Instrument type: ESI-QTOF
Ms type: MS2
Ion mode: NEGATIVE
Ionization: ESI
Collision energy: 40
Precursor m/z: 194.0029707046
Precursor type: [M-H]-
m/z	relative intensity
41.014522	21
41.998537	17
44.980444	77
45.993452	91
50.003623	42
56.980444	176
57.975693	999
58.004685	21
58.017261	11
64.019273	30
65.014522	22
65.998537	12
70.983518	15
80.980444	29
81.975693	17
88.019273	12
104.980444	36
105.988269	19
106.996094	303
107.991343	31
115.030172	86
116.037997	64
120.999168	69
132.032911	66
135.002242	12
135.986258	10
147.002242	23
148.010067	73
162.0309	27
