Mass spectrum: Diallyldimethylammonium; ESI-QTOF; MS2; CE: 40; [M+H]+
Name: Diallyldimethylammonium
Name: DTXSID4027650
Formula: [C8H16N]+
Exact mass: 126.1282745178
SMILES: C[N+](C)(CC=C)CC=C
InChI: InChI=1S/C8H16N/c1-5-7-9(3,4)8-6-2/h5-6H,1-2,7-8H2,3-4H3/q+1
Instrument type: ESI-QTOF
Ms type: MS2
Ion mode: POSITIVE
Ionization: ESI
Collision energy: 40
Precursor m/z: 127.1355509695
Precursor type: [M+H]+
m/z	relative intensity
30.033826	10
39.022927	161
40.030752	81
41.038577	358
42.033826	575
42.046402	376
43.041651	218
44.049476	102
45.057301	30
56.049476	24
57.057301	15
58.065126	999
59.072951	640
68.049476	30
69.057301	38
70.065126	103
71.072951	78
84.080776	85
85.088601	87
