Mass spectrum: 2-(tert-Butylamino)ethyl 2-methylprop-2-enoate; ESI-QTOF; MS2; CE: 40; [M+H]+
Name: 2-(tert-Butylamino)ethyl 2-methylprop-2-enoate
Name: DTXSID6044931
Formula: C10H19NO2
Exact mass: 185.1415788581
SMILES: CC(=C)C(=O)OCCNC(C)(C)C
InChI: InChI=1S/C10H19NO2/c1-8(2)9(12)13-7-6-11-10(3,4)5/h11H,1,6-7H2,2-5H3
Instrument type: ESI-QTOF
Ms type: MS2
Ion mode: POSITIVE
Ionization: ESI
Collision energy: 40
Precursor m/z: 186.1488553098
Precursor type: [M+H]+
m/z	relative intensity
29.038577	27
39.022927	52
41.038577	999
41.059706	28
44.049476	902
44.083181	17
57.069877	410
69.033491	198
113.059706	36
