Mass spectrum: Acid Orange 156; ESI-QTOF; MS2; CE: 40; [M+H]+
Name: Acid Orange 156
Name: DTXSID7044718
Formula: C21H20N4O5S
Exact mass: 440.1154405091
SMILES: CC1=CC(/N=N/C2C=CC(=CC=2)OC)=C(C=C1/N=N/C1C=CC(=CC=1)S(O)(=O)=O)OC
InChI: InChI=1S/C21H20N4O5S/c1-14-12-20(25-23-15-4-8-17(29-2)9-5-15)21(30-3)13-19(14)24-22-16-6-10-18(11-7-16)31(26,27)28/h4-13H,1-3H3,(H,26,27,28)/b24-22+,25-23+
Instrument type: ESI-QTOF
Ms type: MS2
Ion mode: POSITIVE
Ionization: ESI
Collision energy: 40
Precursor m/z: 441.1227169608
Precursor type: [M+H]+
m/z	relative intensity
39.022927	13
44.979347	13
51.022927	33
63.022927	15
64.030752	19
65.038577	76
67.054227	13
75.022927	13
77.038577	999
77.070939	19
77.086886	11
79.054227	130
80.049476	14
81.033491	24
81.057301	14
89.038577	17
90.046402	51
91.054227	57
92.025666	205
92.049476	109
93.033491	11
93.054621	17
93.069877	28
94.065126	33
95.049141	52
102.09134	13
105.033491	170
106.041316	34
106.065126	30
107.012756	14
107.049141	772
107.085527	13
108.04439	102
109.028406	134
109.063449	10
120.043048	39
120.055624	24
121.050873	39
121.063449	28
122.06004	517
123.066523	80
133.036959	67
133.050873	118
134.06004	119
135.055289	29
135.067865	75
136.07569	213
150.054955	18
153.069225	14
154.065126	14
156.995391	210
166.065816	11
167.072299	21
179.061065	14
180.067548	61
181.075373	70
182.083198	37
183.088995	10
184.005599	31
192.067548	12
193.075373	87
194.083198	101
195.091023	30
196.084244	12
196.098848	13
197.070287	13
198.078764	17
209.070287	94
210.078112	66
211.085938	20
212.093763	13
213.101588	14
214.086255	12
222.067531	11
223.083909	14
224.090392	13
225.101588	30
226.073679	30
236.081838	21
238.097488	22
240.089329	12
241.096502	240
247.016498	11
255.112152	28
256.119977	219
261.033491	12
262.039974	26
263.047799	19
274.039974	32
275.047799	19
276.056314	11
277.063449	17
289.027063	15
290.036231	54
291.042713	48
302.023003	13
304.037962	12
305.058363	60
318.053612	98
345.134602	32
411.075767	13
425.091417	203
426.099242	10
441.122717	18
