Mass spectrum: 2-Isopropylaniline; ESI-QTOF; MS2; CE: 40; [M+H]+
Name: 2-Isopropylaniline
Name: DTXSID6052328
Formula: C9H13N
Exact mass: 135.1047994221
SMILES: CC(C)C1C=CC=CC=1N
InChI: InChI=1S/C9H13N/c1-7(2)8-5-3-4-6-9(8)10/h3-7H,10H2,1-2H3
Instrument type: ESI-QTOF
Ms type: MS2
Ion mode: POSITIVE
Ionization: ESI
Collision energy: 40
Precursor m/z: 136.1120758738
Precursor type: [M+H]+
m/z	relative intensity
39.022927	115
41.038577	211
43.054227	12
51.022927	302
53.038577	34
61.007276	22
63.022927	80
65.038577	999
67.054227	15
68.049476	24
77.038577	486
78.046402	63
79.054227	72
91.054227	852
93.057301	76
94.065126	20
103.054227	95
106.065126	41
115.054227	78
118.065126	34
119.072951	11
120.080776	24
