Mass spectrum: 2,4,6-Tris(dimethylaminomethyl)phenol; ESI-QTOF; MS2; CE: 40; [M+H]+
Name: 2,4,6-Tris(dimethylaminomethyl)phenol
Formula: C15H27N3O
Exact mass: 265.2154125058
SMILES: CN(C)CC1=CC(CN(C)C)=C(O)C(CN(C)C)=C1
InChI: InChI=1S/C15H27N3O/c1-16(2)9-12-7-13(10-17(3)4)15(19)14(8-12)11-18(5)6/h7-8,19H,9-11H2,1-6H3
Instrument type: ESI-QTOF
Ms type: MS2
Ion mode: POSITIVE
Ionization: ESI
Collision energy: 40
Precursor m/z: 266.2226889575
Precursor type: [M+H]+
m/z	relative intensity
44.049476	12
55.017841	11
77.038577	165
79.054227	508
79.086589	18
91.054227	296
103.054227	200
105.069877	999
133.064791	236
176.10699	17
