Mass spectrum: Isovaleronitrile; ESI-QTOF; MS2; CE: 40; [M+H]+
Name: Isovaleronitrile
Name: DTXSID0021620
Formula: C5H9N
Exact mass: 83.0734992945
SMILES: CC(C)CC#N
InChI: InChI=1S/C5H9N/c1-5(2)3-4-6/h5H,3H2,1-2H3
Instrument type: ESI-QTOF
Ms type: MS2
Ion mode: POSITIVE
Ionization: ESI
Collision energy: 40
Precursor m/z: 84.0807757462
Precursor type: [M+H]+
m/z	relative intensity
38.015101	32
39.01035	11
39.022927	395
40.018175	25
41.038577	392
42.033826	999
43.041651	13
43.054227	55
55.041651	11
