Mass spectrum: GSK232420A; ESI-QTOF; MS2; CE: 20; [M-H]-
Name: GSK232420A
Formula: C12H9F6N3O
Exact mass: 325.0649811316
SMILES: NC(=O)CN(CC(F)(F)F)C1=CC(=C(C=C1)C#N)C(F)(F)F
InChI: InChI=1S/C12H9F6N3O/c13-11(14,15)6-21(5-10(20)22)8-2-1-7(4-19)9(3-8)12(16,17)18/h1-3H,5-6H2,(H2,20,22)
Instrument type: ESI-QTOF
Ms type: MS2
Ion mode: NEGATIVE
Ionization: ESI
Collision energy: 20
Precursor m/z: 324.0577046799
Precursor type: [M-H]-
m/z	relative intensity
41.014522	37
41.998537	95
87.000014	10
93.009436	11
113.014522	353
170.022307	42
185.033206	37
195.017556	47
196.026524	14
199.031156	12
209.033206	137
210.017222	14
214.040912	12
224.020296	15
236.044105	56
237.028121	235
244.03149	31
257.034349	14
264.037918	698
284.045248	999
285.046806	11
