Mass spectrum: 4-Hydroxy-3-methoxypyridine; ESI-QTOF; MS2; CE: 10; [M+H]+
Name: 4-Hydroxy-3-methoxypyridine
Name: DTXSID80198757
Formula: C6H7NO2
Exact mass: 125.0476784753
SMILES: COC1C=NC=CC=1O
InChI: InChI=1S/C6H7NO2/c1-9-6-4-7-3-2-5(6)8/h2-4H,1H3,(H,7,8)
Instrument type: ESI-QTOF
Ms type: MS2
Ion mode: POSITIVE
Ionization: ESI
Collision energy: 10
Precursor m/z: 126.054954927
Precursor type: [M+H]+
m/z	relative intensity
83.036565	12
111.03148	183
126.054955	999
