Mass spectrum: 6-Nitrobenzimidazole; ESI-QTOF; MS2; CE: 40; [M-H]-
Name: 6-Nitrobenzimidazole
Formula: C7H5N3O2
Exact mass: 163.0381764263
SMILES: [O-][N+](=O)C1=CC2N=CNC=2C=C1
InChI: InChI=1S/C7H5N3O2/c11-10(12)5-1-2-6-7(3-5)9-4-8-6/h1-4H,(H,8,9)
Instrument type: ESI-QTOF
Ms type: MS2
Ion mode: NEGATIVE
Ionization: ESI
Collision energy: 40
Precursor m/z: 162.0308999746
Precursor type: [M-H]-
m/z	relative intensity
45.993452	34
50.003623	18
63.011448	17
64.019273	177
65.998537	11
88.019273	109
89.027098	97
104.037997	62
115.030172	999
116.037997	390
132.032911	56
