Mass spectrum: AVE6324; ESI-QTOF; MS2; CE: 20; [M-H]-
Name: AVE6324
Name: DTXSID0047377
Formula: C31H35ClN4O7S
Exact mass: 642.1914979422
SMILES: CC(C)N1CCC(CC1)NC(=O)C1=CC2C=C(C=CC=2N1CC1C=C(ON=1)C1=CC=C(Cl)S1)C(=O)OC(C)OC(=O)OCC
InChI: InChI=1S/C31H35ClN4O7S/c1-5-40-31(39)42-19(4)41-30(38)20-6-7-24-21(14-20)15-25(29(37)33-22-10-12-35(13-11-22)18(2)3)36(24)17-23-16-26(43-34-23)27-8-9-28(32)44-27/h6-9,14-16,18-19,22H,5,10-13,17H2,1-4H3,(H,33,37)
Instrument type: ESI-QTOF
Ms type: MS2
Ion mode: NEGATIVE
Ionization: ESI
Collision energy: 20
Precursor m/z: 641.1842214905
Precursor type: [M-H]-
m/z	relative intensity
89.023075	18
116.050573	10
159.986745	94
188.072189	30
195.962449	26
349.067917	12
354.181465	69
356.197965	999
356.270736	11
357.202438	16
385.042566	14
400.187795	191
401.192267	10
444.137886	12
444.21285	821
445.216652	34
473.056128	13
553.168177	17
641.184221	110
