Mass spectrum: 1,2,3,4-Butanetetracarboxylic acid; ESI-QTOF; MS2; CE: 20; [M-H]-
Name: 1,2,3,4-Butanetetracarboxylic acid
Name: DTXSID6024670
Formula: C8H10O8
Exact mass: 234.0375672974
SMILES: OC(=O)CC(C(CC(O)=O)C(O)=O)C(O)=O
InChI: InChI=1S/C8H10O8/c9-5(10)1-3(7(13)14)4(8(15)16)2-6(11)12/h3-4H,1-2H2,(H,9,10)(H,11,12)(H,13,14)(H,15,16)
Instrument type: ESI-QTOF
Ms type: MS2
Ion mode: NEGATIVE
Ionization: ESI
Collision energy: 20
Precursor m/z: 233.0302908457
Precursor type: [M-H]-
m/z	relative intensity
41.003288	26
55.018938	73
59.013853	197
67.018938	36
71.013853	199
73.029503	142
81.034588	121
83.050238	626
85.029503	33
99.008768	685
99.045153	28
101.060803	123
109.029503	76
111.008768	627
111.045153	11
115.003682	33
117.019332	117
125.024418	21
127.040068	999
153.019332	23
154.998597	14
171.029897	361
197.009161	14
215.019726	325
