Mass spectrum: 2-Nitroaniline; ESI-QTOF; MS2; CE: 20; [M-H]-
Name: 2-Nitroaniline
Formula: C6H6N2O2
Exact mass: 138.0429274508
SMILES: NC1=CC=CC=C1[N+]([O-])=O
InChI: InChI=1S/C6H6N2O2/c7-5-3-1-2-4-6(5)8(9)10/h1-4H,7H2
Instrument type: ESI-QTOF
Ms type: MS2
Ion mode: NEGATIVE
Ionization: ESI
Collision energy: 20
Precursor m/z: 137.0356509991
Precursor type: [M-H]-
m/z	relative intensity
40.019273	33
41.998537	93
45.993452	999
46.017261	22
46.029837	10
50.003623	107
65.998537	44
89.027098	45
90.034923	59
91.030172	42
91.042748	17
93.034588	27
107.037662	176
108.021678	24
119.025086	14
137.035651	212
