Mass spectrum: 4-(Diethylamino)salicylaldehyde; ESI-QTOF; MS2; CE: 40; [M-H]-
Name: 4-(Diethylamino)salicylaldehyde
Name: DTXSID5022271
Formula: C11H15NO2
Exact mass: 193.1102787305
SMILES: CCN(CC)C1C=C(O)C(C=O)=CC=1
InChI: InChI=1S/C11H15NO2/c1-3-12(4-2)10-6-5-9(8-13)11(14)7-10/h5-8,14H,3-4H2,1-2H3
Instrument type: ESI-QTOF
Ms type: MS2
Ion mode: NEGATIVE
Ionization: ESI
Collision energy: 40
Precursor m/z: 192.1030022788
Precursor type: [M-H]-
m/z	relative intensity
41.003288	11
65.039674	17
66.034923	12
92.014187	14
92.026763	49
93.034588	195
107.037662	11
108.045487	19
118.029837	43
119.050238	14
120.045487	999
120.081873	21
134.061137	45
148.040402	31
