Mass spectrum: 2-Ethylaniline; ESI-QTOF; MS2; CE: 40; [M+H]+
Name: 2-Ethylaniline
Name: DTXSID0042242
Formula: C8H11N
Exact mass: 121.0891493583
SMILES: CCC1C=CC=CC=1N
InChI: InChI=1S/C8H11N/c1-2-7-5-3-4-6-8(7)9/h3-6H,2,9H2,1H3
Instrument type: ESI-QTOF
Ms type: MS2
Ion mode: POSITIVE
Ionization: ESI
Collision energy: 40
Precursor m/z: 122.09642581
Precursor type: [M+H]+
m/z	relative intensity
39.022927	61
40.030752	15
41.038577	23
50.015101	17
51.022927	733
53.038577	17
64.030752	17
65.038577	68
66.046402	53
67.041651	18
77.038577	999
78.033826	17
78.046402	10
79.054227	104
89.038577	24
91.054227	11
92.049476	37
93.057301	83
103.054227	40
106.065126	56
