Mass spectrum: 4-(Butan-2-yl)phenol; ESI-QTOF; MS2; CE: 10; [M-H]-
Name: 4-(Butan-2-yl)phenol
Formula: C10H14O
Exact mass: 150.1044650689
SMILES: CC(CC)C1C=CC(O)=CC=1
InChI: InChI=1S/C10H14O/c1-3-8(2)9-4-6-10(11)7-5-9/h4-8,11H,3H2,1-2H3
Instrument type: ESI-QTOF
Ms type: MS2
Ion mode: NEGATIVE
Ionization: ESI
Collision energy: 10
Precursor m/z: 149.0971886172
Precursor type: [M-H]-
m/z	relative intensity
119.050238	40
120.058063	45
134.073714	15
149.097189	999
