Mass spectrum: 1,4-Diaminoanthraquinone; ESI-QTOF; MS2; CE: 20; [M+H]+
Name: 1,4-Diaminoanthraquinone
Formula: C14H10N2O2
Exact mass: 238.0742275784
SMILES: NC1=CC=C(N)C2=C1C(=O)C1=CC=CC=C1C2=O
InChI: InChI=1S/C14H10N2O2/c15-9-5-6-10(16)12-11(9)13(17)7-3-1-2-4-8(7)14(12)18/h1-6H,15-16H2
Instrument type: ESI-QTOF
Ms type: MS2
Ion mode: POSITIVE
Ionization: ESI
Collision energy: 20
Precursor m/z: 239.0815040301
Precursor type: [M+H]+
m/z	relative intensity
61.007276	43
83.00018	66
101.99744	17
113.013424	12
117.020915	178
161.013424	999
161.059706	16
162.010016	10
239.081504	165
