Mass spectrum: 6H-Dibenzo[c,e][1,2]oxaphosphinine 6-oxide; ESI-QTOF; MS2; CE: 40; [M+H]+
Name: 6H-Dibenzo[c,e][1,2]oxaphosphinine 6-oxide
Name: DTXSID6044563
Formula: C12H9O2P
Exact mass: 216.0340160217
SMILES: O=P1OC2C=CC=CC=2C2C=CC=CC1=2
InChI: InChI=1S/C12H9O2P/c13-15-12-8-4-2-6-10(12)9-5-1-3-7-11(9)14-15/h1-8,15H
Instrument type: ESI-QTOF
Ms type: MS2
Ion mode: POSITIVE
Ionization: ESI
Collision energy: 40
Precursor m/z: 217.0412924734
Precursor type: [M+H]+
m/z	relative intensity
126.046402	10
127.054227	49
141.069877	14
151.054227	73
152.062052	999
153.069877	39
168.056966	17
169.064791	11
170.027988	44
171.035813	13
199.030728	408
