Mass spectrum: 4-Nitrosodiphenylamine; ESI-QTOF; MS2; CE: 20; [M-H]-
Name: 4-Nitrosodiphenylamine
Name: DTXSID1021031
Formula: C12H10N2O
Exact mass: 198.0793129561
SMILES: O=NC1C=CC(=CC=1)NC1C=CC=CC=1
InChI: InChI=1S/C12H10N2O/c15-14-12-8-6-11(7-9-12)13-10-4-2-1-3-5-10/h1-9,13H
Instrument type: ESI-QTOF
Ms type: MS2
Ion mode: NEGATIVE
Ionization: ESI
Collision energy: 20
Precursor m/z: 197.0720365044
Precursor type: [M-H]-
m/z	relative intensity
166.066223	86
167.074048	999
197.072037	397
