Mass spectrum: 4-Chloro-3-nitroaniline; ESI-QTOF; MS2; CE: 40; [M-H]-
Name: 4-Chloro-3-nitroaniline
Name: DTXSID7052319
Formula: C6H5ClN2O2
Exact mass: 172.0039551289
SMILES: NC1=CC(=C(Cl)C=C1)[N+]([O-])=O
InChI: InChI=1S/C6H5ClN2O2/c7-5-2-1-4(8)3-6(5)9(10)11/h1-3H,8H2
Instrument type: ESI-QTOF
Ms type: MS2
Ion mode: NEGATIVE
Ionization: ESI
Collision energy: 40
Precursor m/z: 170.9966786772
Precursor type: [M-H]-
m/z	relative intensity
34.969401	30
41.998537	16
45.993452	999
46.017261	22
46.029837	12
