Mass spectrum: FR167356; ESI-QTOF; MS2; CE: 20; [M+H]+
Name: FR167356
Name: DTXSID1048174
Formula: C19H17Cl2NO3
Exact mass: 377.0585488366
SMILES: CC1OC2C(=CC=CC=2C=1C(C)(C)O)NC(=O)C1C(Cl)=CC=CC=1Cl
InChI: InChI=1S/C19H17Cl2NO3/c1-10-16(19(2,3)24)11-6-4-9-14(17(11)25-10)22-18(23)15-12(20)7-5-8-13(15)21/h4-9,24H,1-3H3,(H,22,23)
Instrument type: ESI-QTOF
Ms type: MS2
Ion mode: POSITIVE
Ionization: ESI
Collision energy: 20
Precursor m/z: 378.0658252883
Precursor type: [M+H]+
m/z	relative intensity
143.085527	11
171.080441	17
172.955547	216
214.086255	18
318.044696	21
320.02396	10
342.044696	22
360.055261	999
361.063086	20
378.065825	42
