Mass spectrum: MK-578; ESI-QTOF; MS2; CE: 40; [M+H]+
Name: MK-578
Name: DTXSID0047327
Formula: C35H47FN4O2
Exact mass: 574.3683049735
SMILES: CN(C(C(C)C)C(O)=O)C1CC(C(CN2CCC(CC2)C2=CC(CC3C=CC=CC=3)=NN2CC)C1)C1C=C(F)C=CC=1
InChI: InChI=1S/C35H47FN4O2/c1-5-40-33(21-30(37-40)18-25-10-7-6-8-11-25)26-14-16-39(17-15-26)23-28-20-31(38(4)34(24(2)3)35(41)42)22-32(28)27-12-9-13-29(36)19-27/h6-13,19,21,24,26,28,31-32,34H,5,14-18,20,22-23H2,1-4H3,(H,41,42)
Instrument type: ESI-QTOF
Ms type: MS2
Ion mode: POSITIVE
Ionization: ESI
Collision energy: 40
Precursor m/z: 575.3755814252
Precursor type: [M+H]+
m/z	relative intensity
58.065126	23
70.065126	16
84.080576	11
86.096226	24
91.054027	13
98.096226	51
109.044805	44
147.060455	30
175.091755	33
187.122975	10
206.133954	18
239.154275	14
270.196474	39
282.196474	98
416.24583	10
444.280953	999
444.358454	30
444.382264	13
475.319329	91
