Mass spectrum: N,N'-Dicyclohexylthiourea; ESI-QTOF; MS2; CE: 40; [M-H]-
Name: N,N'-Dicyclohexylthiourea
Formula: C13H24N2S
Exact mass: 240.1660195104
SMILES: S=C(NC1CCCCC1)NC1CCCCC1
InChI: InChI=1S/C13H24N2S/c16-13(14-11-7-3-1-4-8-11)15-12-9-5-2-6-10-12/h11-12H,1-10H2,(H2,14,15,16)
Instrument type: ESI-QTOF
Ms type: MS2
Ion mode: NEGATIVE
Ionization: ESI
Collision energy: 40
Precursor m/z: 239.1587430587
Precursor type: [M-H]-
m/z	relative intensity
32.980444	999
57.975693	77
123.092772	23
