Mass spectrum: AVE6324; ESI-QTOF; MS2; CE: 10; [M+H]+
Name: AVE6324
Name: DTXSID0047377
Formula: C31H35ClN4O7S
Exact mass: 642.1914979422
SMILES: CC(C)N1CCC(CC1)NC(=O)C1=CC2C=C(C=CC=2N1CC1C=C(ON=1)C1=CC=C(Cl)S1)C(=O)OC(C)OC(=O)OCC
InChI: InChI=1S/C31H35ClN4O7S/c1-5-40-31(39)42-19(4)41-30(38)20-6-7-24-21(14-20)15-25(29(37)33-22-10-12-35(13-11-22)18(2)3)36(24)17-23-16-26(43-34-23)27-8-9-28(32)44-27/h6-9,14-16,18-19,22H,5,10-13,17H2,1-4H3,(H,33,37)
Instrument type: ESI-QTOF
Ms type: MS2
Ion mode: POSITIVE
Ionization: ESI
Collision energy: 10
Precursor m/z: 643.1987743939
Precursor type: [M+H]+
m/z	relative intensity
509.140866	82
599.17256	11
643.198774	999
