Mass spectrum: CI-1018; ESI-QTOF; MS2; CE: 10; [M+H]+
Name: CI-1018
Formula: C24H20N4O2
Exact mass: 396.1586259122
SMILES: CC1C=C2CCN3C2=C(C=1)C(=NC(NC(=O)C1C=CN=CC=1)C3=O)C1C=CC=CC=1
InChI: InChI=1S/C24H20N4O2/c1-15-13-18-9-12-28-21(18)19(14-15)20(16-5-3-2-4-6-16)26-22(24(28)30)27-23(29)17-7-10-25-11-8-17/h2-8,10-11,13-14,22H,9,12H2,1H3,(H,27,29)
Instrument type: ESI-QTOF
Ms type: MS2
Ion mode: POSITIVE
Ionization: ESI
Collision energy: 10
Precursor m/z: 397.1659023639
Precursor type: [M+H]+
m/z	relative intensity
247.122975	51
275.11789	456
397.165902	999
