Mass spectrum: 2,4-Dichloro-N-(naphthalene-2-yl)benzamide; ESI-QTOF; MS2; CE: 40; [M-H]-
Name: 2,4-Dichloro-N-(naphthalene-2-yl)benzamide
Name: DTXSID7058707
Formula: C17H11Cl2NO
Exact mass: 315.0217694006
SMILES: O=C(NC1=CC2C=CC=CC=2C=C1)C1=CC=C(Cl)C=C1Cl
InChI: InChI=1S/C17H11Cl2NO/c18-13-6-8-15(16(19)10-13)17(21)20-14-7-5-11-3-1-2-4-12(11)9-14/h1-10H,(H,20,21)
Instrument type: ESI-QTOF
Ms type: MS2
Ion mode: NEGATIVE
Ionization: ESI
Collision energy: 40
Precursor m/z: 314.0144929489
Precursor type: [M-H]-
m/z	relative intensity
34.969401	999
41.998537	45
