Mass spectrum: Phenyl 1-hydroxy-2-naphthoate; ESI-QTOF; MS2; CE: 40; [M-H]-
Name: Phenyl 1-hydroxy-2-naphthoate
Name: DTXSID1038876
Formula: C17H12O3
Exact mass: 264.0786442497
SMILES: OC1C2C=CC=CC=2C=CC=1C(=O)OC1C=CC=CC=1
InChI: InChI=1S/C17H12O3/c18-16-14-9-5-4-6-12(14)10-11-15(16)17(19)20-13-7-2-1-3-8-13/h1-11,18H
Instrument type: ESI-QTOF
Ms type: MS2
Ion mode: NEGATIVE
Ionization: ESI
Collision energy: 40
Precursor m/z: 263.071367798
Precursor type: [M-H]-
m/z	relative intensity
65.039674	26
93.034588	999
93.070974	20
