Mass spectrum: HC Blue 2; ESI-QTOF; MS2; CE: 10; [M+H]+
Name: HC Blue 2
Name: DTXSID6020193
Formula: C12H19N3O5
Exact mass: 285.1324707398
SMILES: [O-][N+](=O)C1C=C(C=CC=1NCCO)N(CCO)CCO
InChI: InChI=1S/C12H19N3O5/c16-6-3-13-11-2-1-10(9-12(11)15(19)20)14(4-7-17)5-8-18/h1-2,9,13,16-18H,3-8H2
Instrument type: ESI-QTOF
Ms type: MS2
Ion mode: POSITIVE
Ionization: ESI
Collision energy: 10
Precursor m/z: 286.1397471915
Precursor type: [M+H]+
m/z	relative intensity
190.097488	85
210.087318	11
214.984924	15
221.115878	48
238.118618	18
241.105707	129
242.113532	14
254.113532	143
255.121357	18
268.129183	43
269.137008	13
285.131922	81
286.139747	999
