Mass spectrum: gamma-Cyclodextrin; ESI-QTOF; MS2; CE: 40; [M+H]+
Name: gamma-Cyclodextrin
Name: DTXSID5047033
Formula: C48H80O40
Exact mass: 1296.422587444
SMILES: OC1C2OC3OC(CO)C(OC4OC(CO)C(OC5OC(CO)C(OC6OC(CO)C(OC7OC(CO)C(OC8OC(CO)C(OC9OC(CO)C(OC(OC2CO)C1O)C(O)C9O)C(O)C8O)C(O)C7O)C(O)C6O)C(O)C5O)C(O)C4O)C(O)C3O
InChI: InChI=1S/C48H80O40/c49-1-9-33-17(57)25(65)41(73-9)82-34-10(2-50)75-43(27(67)19(34)59)84-36-12(4-52)77-45(29(69)21(36)61)86-38-14(6-54)79-47(31(71)23(38)63)88-40-16(8-56)80-48(32(72)24(40)64)87-39-15(7-55)78-46(30(70)22(39)62)85-37-13(5-53)76-44(28(68)20(37)60)83-35-11(3-51)74-42(81-33)26(66)18(35)58/h9-72H,1-8H2
Instrument type: ESI-QTOF
Ms type: MS2
Ion mode: POSITIVE
Ionization: ESI
Collision energy: 40
Precursor m/z: 1297.4298638957
Precursor type: [M+H]+
m/z	relative intensity
81.033491	15
85.028406	83
109.028406	16
127.038971	30
145.049535	211
163.0601	192
253.070665	13
271.081229	23
281.050323	11
282.052275	15
289.091794	53
325.112923	999
326.114875	41
355.065973	13
371.097273	11
487.165747	124
488.173572	13
504.114481	13
649.21857	19
