Mass spectrum: Temafloxacin; ESI-QTOF; MS2; CE: 20; [M-H]-
Name: Temafloxacin
Formula: C21H18F3N3O3
Exact mass: 417.1300260633
SMILES: CC1CN(CCN1)C1=CC2=C(C=C1F)C(=O)C(=CN2C1=CC=C(F)C=C1F)C(O)=O
InChI: InChI=1S/C21H18F3N3O3/c1-11-9-26(5-4-25-11)19-8-18-13(7-16(19)24)20(28)14(21(29)30)10-27(18)17-3-2-12(22)6-15(17)23/h2-3,6-8,10-11,25H,4-5,9H2,1H3,(H,29,30)
Instrument type: ESI-QTOF
Ms type: MS2
Ion mode: NEGATIVE
Ionization: ESI
Collision energy: 20
Precursor m/z: 416.1227496116
Precursor type: [M-H]-
m/z	relative intensity
234.036066	74
254.042294	999
254.103632	13
255.048976	60
268.056801	36
281.054336	10
282.061018	820
282.1248	10
283.0677	14
295.068843	20
308.076668	17
322.092318	18
332.120464	32
352.126692	393
371.125095	21
372.078993	10
372.13292	307
