Mass spectrum: CP-728663; ESI-QTOF; MS2; CE: 40; [M+H]+
Name: CP-728663
Name: DTXSID1047283
Formula: C26H33N3O2
Exact mass: 419.2572773195
SMILES: CCC1CCC(NCC2=CC3=C(C=C2OC)C2CC2C(=O)N3C)C(N1)C1C=CC=CC=1
InChI: InChI=1S/C26H33N3O2/c1-4-18-10-11-22(25(28-18)16-8-6-5-7-9-16)27-15-17-12-23-20(14-24(17)31-3)19-13-21(19)26(30)29(23)2/h5-9,12,14,18-19,21-22,25,27-28H,4,10-11,13,15H2,1-3H3
Instrument type: ESI-QTOF
Ms type: MS2
Ion mode: POSITIVE
Ionization: ESI
Collision energy: 40
Precursor m/z: 420.2645537712
Precursor type: [M+H]+
m/z	relative intensity
55.054227	26
56.049476	10
58.065126	13
69.069877	14
91.054227	63
97.088601	15
117.069877	21
120.080776	18
129.069877	27
130.065126	10
131.068928	10
131.085527	15
132.080776	34
134.096426	31
143.072951	28
144.080776	68
145.088601	74
146.096426	79
157.084578	12
158.096426	334
158.141365	11
160.07569	21
160.112076	384
160.157015	14
167.068928	16
168.076753	28
171.067865	12
173.083515	111
174.09134	216
186.09134	999
186.140302	57
186.160089	30
186.172665	10
187.099165	10
188.10699	249
188.139353	467
188.188315	24
188.212124	11
201.07843	13
214.086255	25
216.101905	767
216.150867	40
216.174676	23
