Mass spectrum: Methyl 12-hydroxyoctadecanoate; ESI-QTOF; MS2; CE: 20; [M+H]+
Name: Methyl 12-hydroxyoctadecanoate
Name: DTXSID8027086
Formula: C19H38O3
Exact mass: 314.2820950791
SMILES: CCCCCCC(O)CCCCCCCCCCC(=O)OC
InChI: InChI=1S/C19H38O3/c1-3-4-5-12-15-18(20)16-13-10-8-6-7-9-11-14-17-19(21)22-2/h18,20H,3-17H2,1-2H3
Instrument type: ESI-QTOF
Ms type: MS2
Ion mode: POSITIVE
Ionization: ESI
Collision energy: 20
Precursor m/z: 315.2893715308
Precursor type: [M+H]+
m/z	relative intensity
41.038577	35
43.017841	67
43.054227	236
53.038577	14
55.017841	18
55.054227	322
57.033491	41
57.069877	606
59.012756	19
59.049141	45
67.054227	373
69.033491	15
69.069877	999
71.049141	62
71.085527	422
73.028406	21
73.064791	31
79.054227	55
81.069877	469
83.049141	71
83.085527	772
85.064791	68
85.085921	20
85.101177	304
87.080441	30
91.054227	25
93.069877	309
95.085527	566
97.064791	332
97.101177	866
99.080441	28
101.059706	48
101.096091	17
107.085527	313
109.101177	446
111.080441	228
111.116827	324
113.096091	32
115.075356	44
115.111742	16
121.101177	585
123.116827	114
125.096091	193
125.132477	145
127.111742	35
129.091006	31
129.127392	15
135.116827	764
137.132477	100
139.111742	206
139.148127	40
141.069877	10
141.127392	35
143.106656	38
143.143042	17
149.132477	435
151.148127	101
153.127392	89
155.143042	14
157.122306	20
163.148127	241
164.155952	15
165.163777	105
167.143042	91
169.158692	11
171.137956	41
177.163777	252
179.179427	33
181.158692	40
185.153606	12
191.179427	216
195.174342	47
205.195077	86
209.189992	23
219.210727	18
221.226377	26
227.200557	12
247.242027	500
265.252592	289
