Mass spectrum: (3aR)-(+)-Sclareolide; ESI-QTOF; MS2; CE: 40; [M+H]+
Name: (3aR)-(+)-Sclareolide
Name: DTXSID8047686
Formula: C16H26O2
Exact mass: 250.193280074
SMILES: CC1(C)CCCC2(C)C1CCC1(C)OC(=O)CC12
InChI: InChI=1S/C16H26O2/c1-14(2)7-5-8-15(3)11(14)6-9-16(4)12(15)10-13(17)18-16/h11-12H,5-10H2,1-4H3
Instrument type: ESI-QTOF
Ms type: MS2
Ion mode: POSITIVE
Ionization: ESI
Collision energy: 40
Precursor m/z: 251.2005565257
Precursor type: [M+H]+
m/z	relative intensity
29.038577	13
41.038577	360
43.017841	78
43.054227	385
43.075356	12
51.022927	30
53.038577	18
55.017841	30
55.054227	671
57.069877	160
59.049141	99
65.038577	32
67.054227	664
67.075356	28
69.069877	486
70.077702	30
71.049141	45
71.085527	28
73.064791	22
77.038577	92
78.010016	25
79.054227	494
81.069877	999
83.085527	104
85.064791	36
91.054227	361
93.069877	712
94.077702	10
95.085527	836
97.064791	60
103.054227	30
104.062052	12
105.069877	204
107.085527	561
109.101177	430
111.080441	27
111.116827	42
117.069877	36
119.085527	64
121.064791	63
121.101177	486
130.077702	25
133.101177	105
135.116827	93
143.085527	29
144.093352	17
145.101177	62
148.124652	10
149.132477	79
159.116827	53
174.140302	46
191.179427	60
