Mass spectrum: Ilepatril; ESI-QTOF; MS2; CE: 20; [M+H]+
Name: Ilepatril
Name: DTXSID7047356
Formula: C22H28N2O5S
Exact mass: 432.1718927495
SMILES: CC(=O)SC(C(C)C)C(=O)NC1CC2C=CC=CC=2C2CCCC(C(O)=O)N2C1=O
InChI: InChI=1S/C22H28N2O5S/c1-12(2)19(30-13(3)25)20(26)23-16-11-14-7-4-5-8-15(14)17-9-6-10-18(22(28)29)24(17)21(16)27/h4-5,7-8,12,16-19H,6,9-11H2,1-3H3,(H,23,26)(H,28,29)
Instrument type: ESI-QTOF
Ms type: MS2
Ion mode: POSITIVE
Ionization: ESI
Collision energy: 20
Precursor m/z: 433.1791692012
Precursor type: [M+H]+
m/z	relative intensity
43.017841	26
55.054227	13
69.033491	23
89.041947	106
107.085527	12
111.044056	10
119.085527	331
120.089329	198
128.070605	10
129.054621	21
131.052512	436
135.080441	133
136.084244	82
147.065185	15
158.096426	17
159.047427	129
169.101177	24
182.096426	10
184.112076	612
186.127726	14
201.138625	90
216.101905	38
228.101905	31
229.13354	206
230.117555	596
240.101905	15
247.144104	39
257.128454	47
258.11247	14
271.144104	20
275.139019	292
299.139019	17
311.175404	58
317.168211	123
327.152561	11
345.163125	999
346.164899	15
357.180884	18
359.178775	255
373.15804	587
374.165865	11
387.17369	935
388.181515	16
391.168605	155
415.168605	548
433.179169	59
