Mass spectrum: Octyl sulfate; ESI-QTOF; MS2; CE: 10; [M-H]-
Name: Octyl sulfate
Name: DTXSID9036226
Formula: C8H18O4S
Exact mass: 210.0925797934
SMILES: CCCCCCCCOS(O)(=O)=O
InChI: InChI=1S/C8H18O4S/c1-2-3-4-5-6-7-8-12-13(9,10)11/h2-8H2,1H3,(H,9,10,11)
Instrument type: ESI-QTOF
Ms type: MS2
Ion mode: NEGATIVE
Ionization: ESI
Collision energy: 10
Precursor m/z: 209.0853033417
Precursor type: [M-H]-
m/z	relative intensity
96.960103	307
209.085303	999
