Mass spectrum: 6H-Dibenzo[c,e][1,2]oxaphosphinine 6-oxide; ESI-QTOF; MS2; CE: 40; [M-H]-
Name: 6H-Dibenzo[c,e][1,2]oxaphosphinine 6-oxide
Name: DTXSID6044563
Formula: C12H9O2P
Exact mass: 216.0340160217
SMILES: O=P1OC2C=CC=CC=2C2C=CC=CC1=2
InChI: InChI=1S/C12H9O2P/c13-15-12-8-4-2-6-10(12)9-5-1-3-7-11(9)14-15/h1-8,15H
Instrument type: ESI-QTOF
Ms type: MS2
Ion mode: NEGATIVE
Ionization: ESI
Collision energy: 40
Precursor m/z: 215.02673957
Precursor type: [M-H]-
m/z	relative intensity
46.969225	13
62.964139	999
215.02674	103
