Mass spectrum: Aminoguanidine; ESI-QTOF; MS2; CE: 20; [M+H]+
Name: Aminoguanidine
Name: DTXSID9044405
Formula: CH6N4
Exact mass: 74.059246221
SMILES: NNC(N)=N
InChI: InChI=1S/CH6N4/c2-1(3)5-4/h4H2,(H4,2,3,5)
Instrument type: ESI-QTOF
Ms type: MS2
Ion mode: POSITIVE
Ionization: ESI
Collision energy: 20
Precursor m/z: 75.0665226727
Precursor type: [M+H]+
m/z	relative intensity
31.029075	123
42.021249	17
43.029075	160
45.044725	87
58.039974	999
59.047799	34
75.066523	93
