Mass spectrum: 3-(3-Pyridyl)-1-propanol; ESI-QTOF; MS2; CE: 40; [M+H]+
Name: 3-(3-Pyridyl)-1-propanol
Name: DTXSID5022198
Formula: C8H11NO
Exact mass: 137.0840639806
SMILES: OCCCC1=CN=CC=C1
InChI: InChI=1S/C8H11NO/c10-6-2-4-8-3-1-5-9-7-8/h1,3,5,7,10H,2,4,6H2
Instrument type: ESI-QTOF
Ms type: MS2
Ion mode: POSITIVE
Ionization: ESI
Collision energy: 40
Precursor m/z: 138.0913404323
Precursor type: [M+H]+
m/z	relative intensity
39.022927	41
40.030752	22
41.026001	16
41.038577	43
51.022927	20
52.030752	58
53.038577	21
54.033826	24
65.038577	205
66.046402	227
67.041651	221
77.038577	61
78.033826	109
79.041651	185
80.049476	25
91.054227	10
92.049476	412
93.057301	999
94.065126	50
106.065126	399
118.065126	13
