Mass spectrum: SB243213A; ESI-QTOF; MS2; CE: 20; [M+H]+
Name: SB243213A
Name: DTXSID5047322
Formula: C22H19F3N4O2
Exact mass: 428.1460104803
SMILES: CC1=NC=CC=C1OC1=CC=C(C=N1)NC(=O)N1CCC2C=C(C)C(=CC1=2)C(F)(F)F
InChI: InChI=1S/C22H19F3N4O2/c1-13-10-15-7-9-29(18(15)11-17(13)22(23,24)25)21(30)28-16-5-6-20(27-12-16)31-19-4-3-8-26-14(19)2/h3-6,8,10-12H,7,9H2,1-2H3,(H,28,30)
Instrument type: ESI-QTOF
Ms type: MS2
Ion mode: POSITIVE
Ionization: ESI
Collision energy: 20
Precursor m/z: 429.153286932
Precursor type: [M+H]+
m/z	relative intensity
92.049476	13
228.076753	999
228.132023	52
228.155832	30
429.153287	586
