Mass spectrum: Thiamine thiozole; ESI-QTOF; MS2; CE: 40; [M+H]+
Name: Thiamine thiozole
Name: DTXSID3044382
Formula: C6H9NOS
Exact mass: 143.0404846468
SMILES: CC1N=CSC=1CCO
InChI: InChI=1S/C6H9NOS/c1-5-6(2-3-8)9-4-7-5/h4,8H,2-3H2,1H3
Instrument type: ESI-QTOF
Ms type: MS2
Ion mode: POSITIVE
Ionization: ESI
Collision energy: 40
Precursor m/z: 144.0477610985
Precursor type: [M+H]+
m/z	relative intensity
39.022927	38
41.038577	33
42.033826	185
43.041651	21
44.979347	148
46.994997	17
51.022927	14
53.038577	119
54.033826	50
55.041651	96
55.054227	59
58.994997	99
65.038577	153
68.049476	61
68.979347	14
69.057301	41
69.987172	10
70.994997	604
72.002822	142
78.033826	52
79.041651	13
80.049476	225
81.057301	12
84.002822	21
85.010647	276
86.005896	13
86.018472	75
96.002822	17
97.010647	25
98.005896	53
99.026297	30
112.021546	999
113.029371	594
126.037196	37
