Mass spectrum: CP-457920; ESI-QTOF; MS2; CE: 40; [M-H]-
Name: CP-457920
Name: DTXSID4047254
Formula: C18H17N3O3
Exact mass: 323.1269914314
SMILES: CCOC1C=CC2N=CC(C(=O)NCC3C=CC=CC=3)C(=O)C=2N=1
InChI: InChI=1S/C18H17N3O3/c1-2-24-15-9-8-14-16(21-15)17(22)13(11-19-14)18(23)20-10-12-6-4-3-5-7-12/h3-9,11,13H,2,10H2,1H3,(H,20,23)
Instrument type: ESI-QTOF
Ms type: MS2
Ion mode: NEGATIVE
Ionization: ESI
Collision energy: 40
Precursor m/z: 322.1197149797
Precursor type: [M-H]-
m/z	relative intensity
119.025086	12
132.032911	569
132.07785	11
133.040736	30
134.024752	27
160.027826	999
160.076788	26
160.097917	13
161.035651	964
161.084613	24
161.105742	11
294.088415	78
