Mass spectrum: (3aR)-(+)-Sclareolide; ESI-QTOF; MS2; CE: 20; [M+H]+
Name: (3aR)-(+)-Sclareolide
Name: DTXSID8047686
Formula: C16H26O2
Exact mass: 250.193280074
SMILES: CC1(C)CCCC2(C)C1CCC1(C)OC(=O)CC12
InChI: InChI=1S/C16H26O2/c1-14(2)7-5-8-15(3)11(14)6-9-16(4)12(15)10-13(17)18-16/h11-12H,5-10H2,1-4H3
Instrument type: ESI-QTOF
Ms type: MS2
Ion mode: POSITIVE
Ionization: ESI
Collision energy: 20
Precursor m/z: 251.2005565257
Precursor type: [M+H]+
m/z	relative intensity
43.054227	14
55.054227	26
57.069877	86
59.049141	14
67.054227	94
69.069877	221
79.054227	43
81.069877	125
83.085527	52
85.064791	11
87.080441	14
91.054227	23
93.069877	83
95.085527	346
97.064791	27
97.101177	55
99.044056	12
107.085527	97
109.101177	395
111.080441	10
111.116827	26
119.085527	39
121.064791	16
121.101177	197
123.080441	31
123.116827	131
127.075356	63
131.085527	12
132.093352	11
133.101177	42
135.116827	227
137.132477	137
139.075356	30
145.101177	12
147.116827	20
149.096091	48
149.132477	105
151.111742	21
153.091006	38
155.106656	18
159.116827	46
161.132477	32
163.111742	17
163.148127	13
173.132477	34
175.148127	13
176.119567	10
177.127392	43
181.122306	56
189.163777	18
191.179427	999
215.179427	69
233.189992	65
251.200557	55
