Mass spectrum: 4-(3-Methyl-5-oxo-4,5-dihydro-1H-pyrazol-1-yl)benzoic acid; ESI-QTOF; MS2; CE: 20; [M-H]-
Name: 4-(3-Methyl-5-oxo-4,5-dihydro-1H-pyrazol-1-yl)benzoic acid
Name: DTXSID8044963
Formula: C11H10N2O3
Exact mass: 218.0691422007
SMILES: CC1CC(=O)N(N=1)C1C=CC(=CC=1)C(O)=O
InChI: InChI=1S/C11H10N2O3/c1-7-6-10(14)13(12-7)9-4-2-8(3-5-9)11(15)16/h2-5H,6H2,1H3,(H,15,16)
Instrument type: ESI-QTOF
Ms type: MS2
Ion mode: NEGATIVE
Ionization: ESI
Collision energy: 20
Precursor m/z: 217.061865749
Precursor type: [M-H]-
m/z	relative intensity
41.003288	54
41.998537	122
52.019273	37
54.034923	24
65.998537	25
77.039674	27
80.014187	20
81.022012	10
92.050573	254
96.032911	18
97.040736	10
104.050573	32
117.045822	15
118.029837	12
118.066223	39
121.029503	14
130.042413	24
131.061472	12
132.045487	65
136.040402	89
145.040736	12
145.077122	12
146.061137	14
156.045487	34
157.040736	13
158.048561	15
173.072037	999
201.030566	10
217.061866	256
