Mass spectrum: 4-Hydroxy-2,2,6,6-tetramethylpiperidin-1-yl)oxidanyl; ESI-QTOF; MS2; CE: 40; [M+H]+
Name: 4-Hydroxy-2,2,6,6-tetramethylpiperidin-1-yl)oxidanyl
Name: DTXSID4041280
Formula: C9H19NO2
Exact mass: 173.1415788581
SMILES: CC1(C)CC(O)CC(C)(C)N1O
InChI: InChI=1S/C9H19NO2/c1-8(2)5-7(11)6-9(3,4)10(8)12/h7,11-12H,5-6H2,1-4H3
Instrument type: ESI-QTOF
Ms type: MS2
Ion mode: POSITIVE
Ionization: ESI
Collision energy: 40
Precursor m/z: 174.1488553098
Precursor type: [M+H]+
m/z	relative intensity
29.038577	20
34.02874	35
39.022927	24
41.038577	389
42.033826	205
43.017841	49
43.041651	10
43.054227	63
44.01309	24
44.049476	20
45.033491	42
53.038577	27
55.054227	66
56.049476	999
56.083181	27
57.033491	10
57.057301	37
57.069877	209
58.065126	31
59.049141	39
62.023655	34
65.038577	14
67.054227	80
68.049476	23
70.065126	15
72.080776	10
74.06004	904
74.096426	19
74.109002	10
75.067865	38
77.038577	18
79.054227	68
80.062052	14
81.069877	120
82.065126	27
83.072951	22
84.080776	18
85.064791	47
91.054227	12
