Mass spectrum: Acetyltriethyl citrate; ESI-QTOF; MS2; CE: 40; [M+H]+
Name: Acetyltriethyl citrate
Formula: C14H22O8
Exact mass: 318.1314676802
SMILES: CC(=O)OC(CC(=O)OCC)(CC(=O)OCC)C(=O)OCC
InChI: InChI=1S/C14H22O8/c1-5-19-11(16)8-14(22-10(4)15,13(18)21-7-3)9-12(17)20-6-2/h5-9H2,1-4H3
Instrument type: ESI-QTOF
Ms type: MS2
Ion mode: POSITIVE
Ionization: ESI
Collision energy: 40
Precursor m/z: 319.1387441319
Precursor type: [M+H]+
m/z	relative intensity
29.038577	20
41.038577	14
43.017841	999
43.054227	104
68.997106	399
85.028406	13
87.00767	31
111.00767	582
115.038971	637
115.075356	11
129.018235	87
139.002585	455
157.049535	161
