Mass spectrum: Acetyltriethyl citrate; ESI-QTOF; MS2; CE: 20; [M+H]+
Name: Acetyltriethyl citrate
Formula: C14H22O8
Exact mass: 318.1314676802
SMILES: CC(=O)OC(CC(=O)OCC)(CC(=O)OCC)C(=O)OCC
InChI: InChI=1S/C14H22O8/c1-5-19-11(16)8-14(22-10(4)15,13(18)21-7-3)9-12(17)20-6-2/h5-9H2,1-4H3
Instrument type: ESI-QTOF
Ms type: MS2
Ion mode: POSITIVE
Ionization: ESI
Collision energy: 20
Precursor m/z: 319.1387441319
Precursor type: [M+H]+
m/z	relative intensity
43.017841	29
115.038971	74
129.018235	27
139.002585	216
157.01315	38
157.049535	999
157.101177	36
157.122306	20
167.033885	65
185.04445	77
203.0914	38
213.07575	21
