Mass spectrum: N-Isopropyl-N'-phenyl-p-phenylenediamine; ESI-QTOF; MS2; CE: 10; [M+H]+
Name: N-Isopropyl-N'-phenyl-p-phenylenediamine
Formula: C15H18N2
Exact mass: 226.146998589
SMILES: CC(C)NC1C=CC(=CC=1)NC1C=CC=CC=1
InChI: InChI=1S/C15H18N2/c1-12(2)16-14-8-10-15(11-9-14)17-13-6-4-3-5-7-13/h3-12,16-17H,1-2H3
Instrument type: ESI-QTOF
Ms type: MS2
Ion mode: POSITIVE
Ionization: ESI
Collision energy: 10
Precursor m/z: 227.1542750407
Precursor type: [M+H]+
m/z	relative intensity
184.0995	999
185.107325	103
212.1308	25
227.154275	368
