Mass spectrum: Diphenyl phosphate; ESI-QTOF; MS2; CE: 40; [M-H]-
Name: Diphenyl phosphate
Formula: C12H11O4P
Exact mass: 250.0394953301
SMILES: OP(=O)(OC1C=CC=CC=1)OC1C=CC=CC=1
InChI: InChI=1S/C12H11O4P/c13-17(14,15-11-7-3-1-4-8-11)16-12-9-5-2-6-10-12/h1-10H,(H,13,14)
Instrument type: ESI-QTOF
Ms type: MS2
Ion mode: NEGATIVE
Ionization: ESI
Collision energy: 40
Precursor m/z: 249.0322188784
Precursor type: [M-H]-
m/z	relative intensity
65.0396737397	22
78.9590539371	55
93.034588362	999
