Mass spectrum: 4,4'-Methylenebis(2,6-diethylaniline); ESI-QTOF; MS2; CE: 20; [M+H]+
Name: 4,4'-Methylenebis(2,6-diethylaniline)
Name: DTXSID4048191
Formula: C21H30N2
Exact mass: 310.2408989718
SMILES: CCC1C=C(CC2=CC(CC)=C(N)C(CC)=C2)C=C(CC)C=1N
InChI: InChI=1S/C21H30N2/c1-5-16-10-14(11-17(6-2)20(16)22)9-15-12-18(7-3)21(23)19(8-4)13-15/h10-13H,5-9,22-23H2,1-4H3
Instrument type: ESI-QTOF
Ms type: MS2
Ion mode: POSITIVE
Ionization: ESI
Collision energy: 20
Precursor m/z: 311.2481754235
Precursor type: [M+H]+
m/z	relative intensity
117.069877	19
145.101177	44
162.127726	227
265.182501	14
294.221626	19
309.232525	11
311.248175	999
