Mass spectrum: N-Methylhydrazinecarbothioamide; ESI-QTOF; MS2; CE: 20; [M-H]-
Name: N-Methylhydrazinecarbothioamide
Name: DTXSID7044390
Formula: C2H7N3S
Exact mass: 105.0360679755
SMILES: CNC(=S)NN
InChI: InChI=1S/C2H7N3S/c1-4-2(6)5-3/h3H2,1H3,(H2,4,5,6)
Instrument type: ESI-QTOF
Ms type: MS2
Ion mode: NEGATIVE
Ionization: ESI
Collision energy: 20
Precursor m/z: 104.0287915238
Precursor type: [M-H]-
m/z	relative intensity
31.972619	43
32.980444	345
41.014522	32
47.991343	19
55.017596	16
55.030172	253
57.975693	999
71.978767	90
72.986592	17
