Mass spectrum: Tetrabutyl ethylidenebisphenol; ESI-QTOF; MS2; CE: 20; [M-H]-
Name: Tetrabutyl ethylidenebisphenol
Name: DTXSID4038899
Formula: C30H46O2
Exact mass: 438.349780712
SMILES: CC(C1C=C(C=C(C=1O)C(C)(C)C)C(C)(C)C)C1C=C(C=C(C=1O)C(C)(C)C)C(C)(C)C
InChI: InChI=1S/C30H46O2/c1-18(21-14-19(27(2,3)4)16-23(25(21)31)29(8,9)10)22-15-20(28(5,6)7)17-24(26(22)32)30(11,12)13/h14-18,31-32H,1-13H3
Instrument type: ESI-QTOF
Ms type: MS2
Ion mode: NEGATIVE
Ionization: ESI
Collision energy: 20
Precursor m/z: 437.3425042603
Precursor type: [M-H]-
m/z	relative intensity
205.159789	226
231.175439	18
437.342504	999
