Mass spectrum: 4-Chlororesorcinol; ESI-QTOF; MS2; CE: 10; [M-H]-
Name: 4-Chlororesorcinol
Formula: C6H5ClO2
Exact mass: 143.9978071141
SMILES: OC1C=C(O)C(Cl)=CC=1
InChI: InChI=1S/C6H5ClO2/c7-5-2-1-4(8)3-6(5)9/h1-3,8-9H
Instrument type: ESI-QTOF
Ms type: MS2
Ion mode: NEGATIVE
Ionization: ESI
Collision energy: 10
Precursor m/z: 142.9905306624
Precursor type: [M-H]-
m/z	relative intensity
34.969401	124
51.024024	104
60.985051	13
63.024024	37
79.018938	803
107.013853	297
142.990531	999
