Mass spectrum: 5-(5-Nitro-2-furyl)-1,3,4-oxadiazole-2-ol; ESI-QTOF; MS2; CE: 10; [M-H]-
Name: 5-(5-Nitro-2-furyl)-1,3,4-oxadiazole-2-ol
Name: DTXSID5020948
Formula: C6H3N3O5
Exact mass: 197.0072702294
SMILES: [O-][N+](=O)C1=CC=C(O1)C1=NN=C(O)O1
InChI: InChI=1S/C6H3N3O5/c10-6-8-7-5(14-6)3-1-2-4(13-3)9(11)12/h1-2H,(H,8,10)
Instrument type: ESI-QTOF
Ms type: MS2
Ion mode: NEGATIVE
Ionization: ESI
Collision energy: 10
Precursor m/z: 195.9999937777
Precursor type: [M-H]-
m/z	relative intensity
41.998537	240
45.993452	40
49.008374	120
50.016199	61
51.995463	11
65.003288	496
65.998537	14
66.011113	124
77.003288	217
79.990378	145
80.014187	176
82.006028	271
92.998203	226
94.006028	140
95.001277	35
110.000943	473
120.993117	189
122.012176	153
124.004017	514
148.999265	999
150.007091	13
166.002005	37
195.999994	431
