Mass spectrum: ECC; ESI-QTOF; MS2; CE: 40; [M+H]+
Name: ECC
Name: DTXSID2027466
Formula: C14H20O4
Exact mass: 252.1361591272
SMILES: O=C(OCC1CC2OC2CC1)C1CC2OC2CC1
InChI: InChI=1S/C14H20O4/c15-14(9-2-4-11-13(6-9)18-11)16-7-8-1-3-10-12(5-8)17-10/h8-13H,1-7H2
Instrument type: ESI-QTOF
Ms type: MS2
Ion mode: POSITIVE
Ionization: ESI
Collision energy: 40
Precursor m/z: 253.1434355789
Precursor type: [M+H]+
m/z	relative intensity
41.038577	193
43.017841	89
51.022927	55
53.038577	12
55.017841	74
55.054227	186
57.033491	16
65.038577	77
67.054227	265
69.069877	70
77.038577	999
77.080835	10
78.046402	40
79.054227	496
81.069877	309
83.049141	17
91.054227	439
93.069877	154
93.091006	13
97.064791	31
151.054227	17
