Mass spectrum: Monocyclohexyl phthalate; ESI-QTOF; MS2; CE: 10; [M+H]+
Name: Monocyclohexyl phthalate
Name: DTXSID3052729
Formula: C14H16O4
Exact mass: 248.1048589996
SMILES: OC(=O)C1C=CC=CC=1C(=O)OC1CCCCC1
InChI: InChI=1S/C14H16O4/c15-13(16)11-8-4-5-9-12(11)14(17)18-10-6-2-1-3-7-10/h4-5,8-10H,1-3,6-7H2,(H,15,16)
Instrument type: ESI-QTOF
Ms type: MS2
Ion mode: POSITIVE
Ionization: ESI
Collision energy: 10
Precursor m/z: 249.1121354513
Precursor type: [M+H]+
m/z	relative intensity
83.085527	20
149.02332	999
167.033885	192
