Mass spectrum: Elzasonan; ESI-QTOF; MS2; CE: 40; [M+H]+
Name: Elzasonan
Name: DTXSID7047277
Formula: C22H23Cl2N3OS
Exact mass: 447.0938885282
SMILES: CN1CCN(CC1)C1=CC=CC=C1/C=C1/SCCN(C/1=O)C1=CC(Cl)=C(Cl)C=C1
InChI: InChI=1S/C22H23Cl2N3OS/c1-25-8-10-26(11-9-25)20-5-3-2-4-16(20)14-21-22(28)27(12-13-29-21)17-6-7-18(23)19(24)15-17/h2-7,14-15H,8-13H2,1H3/b21-14+
Instrument type: ESI-QTOF
Ms type: MS2
Ion mode: POSITIVE
Ionization: ESI
Collision energy: 40
Precursor m/z: 448.1011649799
Precursor type: [M+H]+
m/z	relative intensity
42.033826	129
44.049476	46
56.049476	32
57.057301	27
58.065126	377
61.010647	49
70.065126	647
70.097488	13
71.072951	17
72.080776	396
82.065126	283
89.005562	12
91.054227	11
93.057301	21
97.076025	67
98.08385	175
106.065126	34
115.054227	14
117.069877	22
118.065126	47
120.080776	17
128.049476	13
129.069877	22
130.065126	171
131.072951	55
132.080776	67
142.065126	52
143.072951	67
144.080776	891
144.125715	17
145.076025	23
145.088601	152
146.096426	93
153.033978	47
154.065126	10
155.072951	10
156.04439	19
156.080776	317
157.088601	36
158.06004	57
158.096426	122
159.091675	109
160.021546	32
160.07569	27
160.0995	46
162.037196	33
167.072951	25
168.080776	136
169.079396	17
170.06004	58
170.096426	102
171.091675	196
172.07569	29
172.0995	83
173.107325	323
173.986694	24
174.037196	58
174.11515	999
174.160089	16
176.052846	91
183.091675	31
184.07569	59
184.0995	117
185.107325	180
186.09134	11
186.11515	27
186.995006	15
187.122975	164
188.002831	41
188.052846	32
188.1308	32
190.068497	45
196.07569	15
198.09134	11
198.11515	104
199.086589	82
199.122975	462
200.052846	13
200.1308	16
202.031057	55
202.068497	11
204.047761	426
211.122975	12
212.094902	11
213.102239	146
215.997746	32
216.047761	15
227.11789	44
228.125715	108
230.063411	15
231.095046	12
231.974415	175
245.990065	35
247.969816	10
257.988722	16
260.975812	10
285.000964	37
285.985467	17
300.996366	11
329.018625	11
347.017101	39
348.001117	61
389.027666	10
391.043316	100
403.043316	57
418.054215	52
433.07769	86
448.101165	15
