Mass spectrum: C.I. Disperse Blue 27; ESI-QTOF; MS2; CE: 40; [M+H]+
Name: C.I. Disperse Blue 27
Name: DTXSID3025209
Formula: C22H16N2O7
Exact mass: 420.0957508813
SMILES: [O-][N+](=O)C1C=CC(O)=C2C=1C(=O)C1=C(C2=O)C(O)=CC=C1NC1C=CC(CCO)=CC=1
InChI: InChI=1S/C22H16N2O7/c25-10-9-11-1-3-12(4-2-11)23-13-5-7-15(26)19-17(13)21(28)18-14(24(30)31)6-8-16(27)20(18)22(19)29/h1-8,23,25-27H,9-10H2
Instrument type: ESI-QTOF
Ms type: MS2
Ion mode: POSITIVE
Ionization: ESI
Collision energy: 40
Precursor m/z: 421.103027333
Precursor type: [M+H]+
m/z	relative intensity
41.038577	14
43.017841	15
43.054227	13
51.022927	22
55.017841	28
57.069877	154
58.077702	30
65.038577	12
73.028406	10
77.038577	25
78.033826	145
79.017841	16
79.054227	27
80.01309	33
82.02874	16
90.046402	12
91.054227	233
92.062052	69
95.012756	18
103.054227	34
104.062052	23
106.02874	374
106.065126	155
107.036565	15
107.049141	17
108.04439	13
115.054227	10
116.049476	48
117.057301	83
118.065126	96
119.072951	33
121.028406	39
122.023655	46
127.111742	14
129.069877	23
130.065126	35
132.04439	44
134.023655	141
136.039305	22
140.049476	13
141.069877	18
142.065126	15
143.085527	13
143.106656	14
144.04439	12
146.06004	41
148.039305	20
152.062052	13
153.054621	12
153.069877	34
154.065126	26
155.072951	20
156.04439	21
156.080776	247
160.039305	11
162.015889	27
162.054955	15
166.065126	31
167.072951	45
168.080776	78
169.088601	17
170.06004	33
170.093746	21
172.039305	30
174.054955	35
174.08866	16
178.013484	14
178.065126	34
179.072951	15
180.04439	10
180.080776	114
181.064791	39
181.085921	29
182.06004	36
183.067865	24
184.07569	116
186.027123	10
188.034219	34
188.070605	15
191.072951	13
192.080776	29
194.06004	14
195.067865	36
196.07569	165
197.055683	10
197.083515	15
198.054955	15
198.09134	123
199.038971	12
199.06278	102
200.0369	46
201.042045	17
202.04987	20
206.05736	29
207.065185	21
208.07569	96
209.04713	10
209.083515	55
210.09134	36
211.0601	26
212.034219	23
212.049476	10
212.067925	33
213.042045	23
213.07843	79
214.016164	17
214.086255	27
218.06004	12
220.07569	12
222.052275	15
223.06278	18
224.070605	319
225.07843	76
226.04987	14
226.086255	389
227.045119	26
227.09408	29
228.029134	42
228.050263	21
228.080776	13
229.036959	20
230.044784	53
230.096426	16
232.0995	11
234.052275	23
236.070605	47
238.086255	33
240.037687	26
240.06552	12
242.044784	16
242.08117	24
244.07301	13
244.09682	170
245.107325	22
250.04987	19
251.055015	35
252.06552	350
254.044784	20
254.07849	19
254.096426	20
255.040033	55
255.091675	24
256.024049	20
256.045178	12
256.07301	15
256.105373	26
258.08866	22
260.067925	17
260.094414	17
261.07575	14
261.102239	17
263.057695	18
264.06284	73
265.045512	23
266.042104	30
266.08117	12
266.096426	10
270.084638	47
271.086589	16
272.10431	18
273.102239	31
274.077702	10
275.057695	10
276.095202	11
278.07849	16
279.049929	15
280.057754	26
280.07569	24
281.083515	15
282.084638	23
283.096485	50
284.070605	14
284.100288	33
285.102239	45
286.083575	37
287.081504	12
288.0682	21
288.089329	16
289.103027	13
290.07849	13
290.104979	13
292.063114	17
294.09134	23
295.086589	16
296.070605	26
296.094414	13
298.083575	50
299.087377	33
300.06552	27
300.099225	85
301.070665	20
301.097154	46
302.07849	21
303.112804	32
304.057754	15
304.09414	11
305.068259	13
306.076084	10
308.070605	16
309.07575	25
310.086255	76
311.055015	11
311.087377	68
312.06552	129
312.099225	115
313.070665	80
313.097154	57
314.08117	148
315.076419	39
316.084244	35
317.092069	26
322.086255	22
323.081504	28
325.073345	80
326.07849	86
327.076419	66
328.060434	54
328.09414	286
329.065579	16
329.092069	126
330.073404	53
330.097214	29
331.081229	64
331.105039	30
332.089054	30
337.070665	16
338.08117	161
339.076419	168
340.057754	18
340.09414	200
341.068259	29
341.089389	60
342.076084	201
343.083909	152
344.091734	306
345.086983	54
346.092128	13
350.065914	11
351.076419	42
354.076084	109
355.081229	51
356.091734	513
357.099559	999
358.094808	37
359.099953	18
360.086649	28
367.068653	33
368.076478	44
369.086983	29
372.086649	22
373.094474	120
374.102299	20
386.089723	15
387.061163	12
387.097548	20
390.073404	13
403.092463	33
