Mass spectrum: Acid Yellow 11; ESI-QTOF; MS2; CE: 40; [M-H]-
Name: Acid Yellow 11
Name: DTXSID5047451
Formula: C16H14N4O4S
Exact mass: 358.0735756954
SMILES: CC1=NN(C2C=CC(=CC=2)S(O)(=O)=O)C(=O)C1/N=N/C1C=CC=CC=1
InChI: InChI=1S/C16H14N4O4S/c1-11-15(18-17-12-5-3-2-4-6-12)16(21)20(19-11)13-7-9-14(10-8-13)25(22,23)24/h2-10,15H,1H3,(H,22,23,24)/b18-17+
Instrument type: ESI-QTOF
Ms type: MS2
Ion mode: NEGATIVE
Ionization: ESI
Collision energy: 40
Precursor m/z: 357.0662992437
Precursor type: [M-H]-
m/z	relative intensity
79.957363	150
80.965188	574
90.034923	19
92.051264	20
106.028495	19
117.043142	71
118.029837	17
121.053312	34
132.032911	12
134.024752	57
141.04517	23
144.045487	90
145.05197	11
155.988663	85
169.991737	39
170.999562	15
172.064211	39
173.05946	25
180.996488	15
181.9996	12
184.006697	51
185.015212	291
197.986652	463
208.007387	999
208.060189	15
209.01387	46
210.010461	24
222.981901	32
236.013535	156
237.02136	138
277.109485	24
