Mass spectrum: 2-Acrylamido-2-methyl-1-propanesulfonic acid; ESI-QTOF; MS2; CE: 10; [M-H]-
Name: 2-Acrylamido-2-methyl-1-propanesulfonic acid
Name: DTXSID5027770
Formula: C7H13NO4S
Exact mass: 207.0565286413
SMILES: CC(C)(CS(O)(=O)=O)NC(=O)C=C
InChI: InChI=1S/C7H13NO4S/c1-4-6(9)8-7(2,3)5-13(10,11)12/h4H,1,5H2,2-3H3,(H,8,9)(H,10,11,12)
Instrument type: ESI-QTOF
Ms type: MS2
Ion mode: NEGATIVE
Ionization: ESI
Collision energy: 10
Precursor m/z: 206.0492521896
Precursor type: [M-H]-
m/z	relative intensity
70.029837	34
79.957363	97
80.965188	10
135.012138	232
206.049252	999
