Mass spectrum: 3-Pyridinamine; ESI-QTOF; MS2; CE: 20; [M+H]+
Name: 3-Pyridinamine
Name: DTXSID9047461
Formula: C5H6N2
Exact mass: 94.0530982062
SMILES: NC1=CN=CC=C1
InChI: InChI=1S/C5H6N2/c6-5-2-1-3-7-4-5/h1-4H,6H2
Instrument type: ESI-QTOF
Ms type: MS2
Ion mode: POSITIVE
Ionization: ESI
Collision energy: 20
Precursor m/z: 95.0603746579
Precursor type: [M+H]+
m/z	relative intensity
41.038577	99
42.033826	15
51.022927	23
52.018175	14
68.049476	438
78.033826	322
95.060375	999
