Mass spectrum: 7-(Dimethylamino)-4-methylcoumarin; ESI-QTOF; MS2; CE: 20; [M+H]+
Name: 7-(Dimethylamino)-4-methylcoumarin
Formula: C12H13NO2
Exact mass: 203.0946286667
SMILES: CC1=CC(=O)OC2C=C(C=CC1=2)N(C)C
InChI: InChI=1S/C12H13NO2/c1-8-6-12(14)15-11-7-9(13(2)3)4-5-10(8)11/h4-7H,1-3H3
Instrument type: ESI-QTOF
Ms type: MS2
Ion mode: POSITIVE
Ionization: ESI
Collision energy: 20
Precursor m/z: 204.1019051184
Precursor type: [M+H]+
m/z	relative intensity
91.054227	15
103.054227	10
105.069877	12
115.054227	10
116.062052	12
117.057301	13
117.069877	14
118.065126	25
130.065126	17
131.072951	20
132.080776	45
133.088601	31
144.080776	56
145.088601	57
146.096426	19
148.112076	191
158.096426	21
159.104251	10
160.07569	10
160.112076	62
161.083515	75
176.10699	53
188.070605	17
189.07843	42
204.101905	999
