Mass spectrum: Methyl 4-methoxybenzoate; ESI-QTOF; MS2; CE: 10; [M+H]+
Name: Methyl 4-methoxybenzoate
Formula: C9H10O3
Exact mass: 166.0629941859
SMILES: COC(=O)C1C=CC(=CC=1)OC
InChI: InChI=1S/C9H10O3/c1-11-8-5-3-7(4-6-8)9(10)12-2/h3-6H,1-2H3
Instrument type: ESI-QTOF
Ms type: MS2
Ion mode: POSITIVE
Ionization: ESI
Collision energy: 10
Precursor m/z: 167.0702706376
Precursor type: [M+H]+
m/z	relative intensity
45.033491	12
57.069877	12
61.007276	29
63.994366	14
69.069877	10
79.017841	999
79.054227	20
80.025666	12
107.049141	13
107.085527	12
149.02332	20
