Mass spectrum: 4-Hydroxy-2,2,6,6-tetramethylpiperidin-1-yl)oxidanyl; ESI-QTOF; MS2; CE: 10; [M+H]+
Name: 4-Hydroxy-2,2,6,6-tetramethylpiperidin-1-yl)oxidanyl
Name: DTXSID4041280
Formula: C9H19NO2
Exact mass: 173.1415788581
SMILES: CC1(C)CC(O)CC(C)(C)N1O
InChI: InChI=1S/C9H19NO2/c1-8(2)5-7(11)6-9(3,4)10(8)12/h7,11-12H,5-6H2,1-4H3
Instrument type: ESI-QTOF
Ms type: MS2
Ion mode: POSITIVE
Ionization: ESI
Collision energy: 10
Precursor m/z: 174.1488553098
Precursor type: [M+H]+
m/z	relative intensity
57.069877	11
74.06004	147
101.002191	999
101.038577	33
101.059706	20
102.010016	27
116.070605	10
118.086255	16
123.116827	21
172.133205	14
174.148855	345
