Mass spectrum: 4,4'-(Oxydiethylene)bis(morpholine); ESI-QTOF; MS2; CE: 20; [M+H]+
Name: 4,4'-(Oxydiethylene)bis(morpholine)
Name: DTXSID9042170
Formula: C12H24N2O3
Exact mass: 244.1786926473
SMILES: C1COCCN1CCOCCN1CCOCC1
InChI: InChI=1S/C12H24N2O3/c1-7-15-8-2-13(1)5-11-17-12-6-14-3-9-16-10-4-14/h1-12H2
Instrument type: ESI-QTOF
Ms type: MS2
Ion mode: POSITIVE
Ionization: ESI
Collision energy: 20
Precursor m/z: 245.185969099
Precursor type: [M+H]+
m/z	relative intensity
70.065126	27
84.080776	14
114.09134	999
114.127726	48
114.140302	24
158.117555	167
245.185969	118
