Mass spectrum: 1,4-Bis(N-isopropylamino)anthraquinone; ESI-QTOF; MS2; CE: 20; [M+H]+
Name: 1,4-Bis(N-isopropylamino)anthraquinone
Name: DTXSID2041250
Formula: C20H22N2O2
Exact mass: 322.1681279612
SMILES: CC(C)NC1=CC=C(NC(C)C)C2=C1C(=O)C1=CC=CC=C1C2=O
InChI: InChI=1S/C20H22N2O2/c1-11(2)21-15-9-10-16(22-12(3)4)18-17(15)19(23)13-7-5-6-8-14(13)20(18)24/h5-12,21-22H,1-4H3
Instrument type: ESI-QTOF
Ms type: MS2
Ion mode: POSITIVE
Ionization: ESI
Collision energy: 20
Precursor m/z: 323.1754044129
Precursor type: [M+H]+
m/z	relative intensity
224.070605	12
239.081504	25
265.097154	216
280.120629	999
281.128454	285
323.175404	153
