Mass spectrum: Diisopropyl methylphosphonate; ESI-QTOF; MS2; CE: 40; [M+H]+
Name: Diisopropyl methylphosphonate
Name: DTXSID5024051
Formula: C7H17O3P
Exact mass: 180.0915308992
SMILES: CP(=O)(OC(C)C)OC(C)C
InChI: InChI=1S/C7H17O3P/c1-6(2)9-11(5,8)10-7(3)4/h6-7H,1-5H3
Instrument type: ESI-QTOF
Ms type: MS2
Ion mode: POSITIVE
Ionization: ESI
Collision energy: 40
Precursor m/z: 181.0988073509
Precursor type: [M+H]+
m/z	relative intensity
41.038577	11
46.968128	148
78.994342	999
79.030728	22
79.038971	11
97.004907	120
