Mass spectrum: 4-Propylaniline; ESI-QTOF; MS2; CE: 10; [M+H]+
Name: 4-Propylaniline
Name: DTXSID5048180
Formula: C9H13N
Exact mass: 135.1047994221
SMILES: CCCC1=CC=C(N)C=C1
InChI: InChI=1S/C9H13N/c1-2-3-8-4-6-9(10)7-5-8/h4-7H,2-3,10H2,1H3
Instrument type: ESI-QTOF
Ms type: MS2
Ion mode: POSITIVE
Ionization: ESI
Collision energy: 10
Precursor m/z: 136.1120758738
Precursor type: [M+H]+
m/z	relative intensity
41.038577	19
43.054227	54
91.054227	44
93.057301	15
94.065126	227
95.072951	13
106.065126	11
107.072951	16
136.112076	999
