Mass spectrum: 1,3-Dihydro-1,3,3-trimethyl-2H-indol-2-ylidene acetaldehyde; ESI-QTOF; MS2; CE: 10; [M+H]+
Name: 1,3-Dihydro-1,3,3-trimethyl-2H-indol-2-ylidene acetaldehyde
Formula: C13H15NO
Exact mass: 201.1153641082
SMILES: CN1/C(=C/C=O)/C(C)(C)C2=CC=CC=C12
InChI: InChI=1S/C13H15NO/c1-13(2)10-6-4-5-7-11(10)14(3)12(13)8-9-15/h4-9H,1-3H3/b12-8+
Instrument type: ESI-QTOF
Ms type: MS2
Ion mode: POSITIVE
Ionization: ESI
Collision energy: 10
Precursor m/z: 202.1226405599
Precursor type: [M+H]+
m/z	relative intensity
62.06004	15
102.09134	31
158.096426	28
159.104251	21
187.099165	117
202.122641	999
