Mass spectrum: N-(4-Ethoxyphenyl)-3-oxobutanamide; ESI-QTOF; MS2; CE: 10; [M-H]-
Name: N-(4-Ethoxyphenyl)-3-oxobutanamide
Formula: C12H15NO3
Exact mass: 221.1051933528
SMILES: CC(=O)CC(=O)NC1C=CC(=CC=1)OCC
InChI: InChI=1S/C12H15NO3/c1-3-16-11-6-4-10(5-7-11)13-12(15)8-9(2)14/h4-7H,3,8H2,1-2H3,(H,13,15)
Instrument type: ESI-QTOF
Ms type: MS2
Ion mode: NEGATIVE
Ionization: ESI
Collision energy: 10
Precursor m/z: 220.0979169011
Precursor type: [M-H]-
m/z	relative intensity
41.003288	30
57.034588	999
57.058398	17
83.013853	970
83.050238	14
107.037662	310
136.076788	51
191.058792	53
220.097917	420
