Mass spectrum: Dehydroabietylamine acetate; ESI-QTOF; MS2; CE: 10; [M+H]+
Name: Dehydroabietylamine acetate
Name: DTXSID1047102
Formula: C20H31N
Exact mass: 285.2456499963
SMILES: CC(C)C1C=CC2=C(CCC3C2(C)CCCC3(C)CN)C=1
InChI: InChI=1S/C20H31N/c1-14(2)15-6-8-17-16(12-15)7-9-18-19(3,13-21)10-5-11-20(17,18)4/h6,8,12,14,18H,5,7,9-11,13,21H2,1-4H3
Instrument type: ESI-QTOF
Ms type: MS2
Ion mode: POSITIVE
Ionization: ESI
Collision energy: 10
Precursor m/z: 286.252926448
Precursor type: [M+H]+
m/z	relative intensity
83.085527	19
131.085527	22
159.116827	51
173.132477	616
185.132477	48
187.148127	42
213.163777	14
269.226377	40
286.252926	999
