Mass spectrum: 1,4-Diaminoanthraquinone; ESI-QTOF; MS2; CE: 10; [M-H]-
Name: 1,4-Diaminoanthraquinone
Formula: C14H10N2O2
Exact mass: 238.0742275784
SMILES: NC1=CC=C(N)C2=C1C(=O)C1=CC=CC=C1C2=O
InChI: InChI=1S/C14H10N2O2/c15-9-5-6-10(16)12-11(9)13(17)7-3-1-2-4-8(7)14(12)18/h1-6H,15-16H2
Instrument type: ESI-QTOF
Ms type: MS2
Ion mode: NEGATIVE
Ionization: ESI
Collision energy: 10
Precursor m/z: 237.0669511267
Precursor type: [M-H]-
m/z	relative intensity
210.056052	14
237.066951	999
