Mass spectrum: Acid Red 337; ESI-QTOF; MS2; CE: 40; [M-H]-
Name: Acid Red 337
Name: DTXSID2044713
Formula: C17H12F3N3O4S
Exact mass: 411.0500612242
SMILES: NC1=CC=C2C=C(C=C(O)C2=C1/N=N/C1=CC=CC=C1C(F)(F)F)S(O)(=O)=O
InChI: InChI=1S/C17H12F3N3O4S/c18-17(19,20)11-3-1-2-4-13(11)22-23-16-12(21)6-5-9-7-10(28(25,26)27)8-14(24)15(9)16/h1-8,24H,21H2,(H,25,26,27)/b23-22+
Instrument type: ESI-QTOF
Ms type: MS2
Ion mode: NEGATIVE
Ionization: ESI
Collision energy: 40
Precursor m/z: 410.0427847725
Precursor type: [M-H]-
m/z	relative intensity
79.957363	377
79.991521	11
80.965188	106
139.030172	29
140.037997	57
141.022012	83
141.044285	23
144.045487	39
167.025086	218
168.032911	999
168.078993	47
168.094249	23
169.040736	28
172.03975	68
173.048227	37
185.035651	57
186.043476	16
209.015212	11
236.001611	11
237.009436	91
248.997551	299
249.056661	12
250.004685	37
258.058338	12
342.02418	10
380.020987	17
