Mass spectrum: PD 0343701; ESI-QTOF; MS2; CE: 40; [M+H]+
Name: PD 0343701
Name: DTXSID7047271
Formula: C25H30N4OS
Exact mass: 434.2140323389
SMILES: CC1=CC(CCN2CCN(CC2)C2=NSC3=CC=CC=C32)=CC2=C1NC(=O)CC2(C)C
InChI: InChI=1S/C25H30N4OS/c1-17-14-18(15-20-23(17)26-22(30)16-25(20,2)3)8-9-28-10-12-29(13-11-28)24-19-6-4-5-7-21(19)31-27-24/h4-7,14-15H,8-13,16H2,1-3H3,(H,26,30)
Instrument type: ESI-QTOF
Ms type: MS2
Ion mode: POSITIVE
Ionization: ESI
Collision energy: 40
Precursor m/z: 435.2213087906
Precursor type: [M+H]+
m/z	relative intensity
57.069877	56
132.080776	64
160.074348	92
174.127726	25
177.048095	22
186.089998	13
201.113473	14
216.136948	999
216.194463	50
216.207039	28
232.088266	11
