Mass spectrum: 2-(Morpholin-4-yldithio)-1,3-benzothiazole; ESI-QTOF; MS2; CE: 40; [M+H]+
Name: 2-(Morpholin-4-yldithio)-1,3-benzothiazole
Formula: C11H12N2OS3
Exact mass: 284.0111752099
SMILES: C1CN(CCO1)SSC1=NC2C=CC=CC=2S1
InChI: InChI=1S/C11H12N2OS3/c1-2-4-10-9(3-1)12-11(15-10)16-17-13-5-7-14-8-6-13/h1-4H,5-8H2
Instrument type: ESI-QTOF
Ms type: MS2
Ion mode: POSITIVE
Ionization: ESI
Collision energy: 40
Precursor m/z: 285.0184516616
Precursor type: [M+H]+
m/z	relative intensity
30.033826	10
42.033826	50
44.049476	186
44.979347	10
46.994997	34
49.010647	16
55.041651	25
56.049476	379
57.033491	18
58.065126	49
58.994997	39
59.990246	999
60.031814	12
61.010647	273
62.005896	85
74.005896	34
74.06004	23
76.021546	11
84.04439	23
85.052215	20
86.06004	170
88.021546	536
89.005562	69
90.037196	196
91.041651	12
92.049476	19
108.002822	10
109.010647	13
118.032111	463
122.005896	15
123.01035	11
124.021546	13
134.005896	12
135.013721	32
136.021546	12
139.974893	26
165.977967	131
166.985792	221
167.993617	123
199.965688	20
