Mass spectrum: 4-(Methylnitrosamino)-1-(3-pyridyl)-1-butanol; ESI-QTOF; MS2; CE: 40; [M-H]-
Name: 4-(Methylnitrosamino)-1-(3-pyridyl)-1-butanol
Name: DTXSID8020880
Formula: C10H15N3O2
Exact mass: 209.1164267453
SMILES: CN(CCCC(O)C1C=NC=CC=1)N=O
InChI: InChI=1S/C10H15N3O2/c1-13(12-15)7-3-5-10(14)9-4-2-6-11-8-9/h2,4,6,8,10,14H,3,5,7H2,1H3
Instrument type: ESI-QTOF
Ms type: MS2
Ion mode: NEGATIVE
Ionization: ESI
Collision energy: 40
Precursor m/z: 208.1091502936
Precursor type: [M-H]-
m/z	relative intensity
30.022347	11
41.014522	999
41.039674	17
41.998537	14
43.006362	28
51.024024	58
59.025086	856
59.050238	15
65.003288	13
78.034923	613
78.067285	12
