Mass spectrum: UK-416244; ESI-QTOF; MS2; CE: 40; [M+H]+
Name: UK-416244
Name: DTXSID0047290
Formula: C17H22N2O3S2
Exact mass: 366.1071840435
SMILES: CC1=CC(=CC=C1SC)OC1=CC=C(C=C1CN(C)C)S(N)(=O)=O
InChI: InChI=1S/C17H22N2O3S2/c1-12-9-14(5-8-17(12)23-4)22-16-7-6-15(24(18,20)21)10-13(16)11-19(2)3/h5-10H,11H2,1-4H3,(H2,18,20,21)
Instrument type: ESI-QTOF
Ms type: MS2
Ion mode: POSITIVE
Ionization: ESI
Collision energy: 40
Precursor m/z: 367.1144604952
Precursor type: [M+H]+
m/z	relative intensity
180.056966	54
194.072616	189
195.080441	232
226.044687	14
227.052512	48
241.068162	56
242.075987	13
260.03759	999
260.097785	22
260.122937	10
274.05324	747
274.116806	13
275.061065	31
306.025311	23
