Mass spectrum: 4-Pentylaniline; ESI-QTOF; MS2; CE: 40; [M+H]+
Name: 4-Pentylaniline
Name: DTXSID0040707
Formula: C11H17N
Exact mass: 163.1360995497
SMILES: CCCCCC1C=CC(N)=CC=1
InChI: InChI=1S/C11H17N/c1-2-3-4-5-10-6-8-11(12)9-7-10/h6-9H,2-5,12H2,1H3
Instrument type: ESI-QTOF
Ms type: MS2
Ion mode: POSITIVE
Ionization: ESI
Collision energy: 40
Precursor m/z: 164.1433760014
Precursor type: [M+H]+
m/z	relative intensity
39.022927	88
41.038577	363
43.054227	286
51.022927	87
53.038577	16
55.054227	17
63.022927	53
64.030752	11
65.038577	999
77.038577	371
78.046402	34
79.054227	77
89.038577	264
90.046402	719
91.054227	922
93.057301	66
94.065126	62
103.054227	51
104.062052	35
106.065126	395
107.072951	26
115.054227	12
117.069877	10
120.080776	24
