Mass spectrum: 2-Hydroxybenzophenone; ESI-QTOF; MS2; CE: 10; [M-H]-
Name: 2-Hydroxybenzophenone
Formula: C13H10O2
Exact mass: 198.0680795636
SMILES: OC1=CC=CC=C1C(=O)C1C=CC=CC=1
InChI: InChI=1S/C13H10O2/c14-12-9-5-4-8-11(12)13(15)10-6-2-1-3-7-10/h1-9,14H
Instrument type: ESI-QTOF
Ms type: MS2
Ion mode: NEGATIVE
Ionization: ESI
Collision energy: 10
Precursor m/z: 197.0608031119
Precursor type: [M-H]-
m/z	relative intensity
77.039674	10
121.029503	98
179.050238	25
197.060803	999
