Mass spectrum: N-(3,4-Dichlorophenyl)-N'-methylurea; ESI-QTOF; MS2; CE: 10; [M-H]-
Name: N-(3,4-Dichlorophenyl)-N'-methylurea
Name: DTXSID3042180
Formula: C8H8Cl2N2O
Exact mass: 218.0013683123
SMILES: CNC(=O)NC1=CC(Cl)=C(Cl)C=C1
InChI: InChI=1S/C8H8Cl2N2O/c1-11-8(13)12-5-2-3-6(9)7(10)4-5/h2-4H,1H3,(H2,11,12,13)
Instrument type: ESI-QTOF
Ms type: MS2
Ion mode: NEGATIVE
Ionization: ESI
Collision energy: 10
Precursor m/z: 216.9940918606
Precursor type: [M-H]-
m/z	relative intensity
159.972628	999
216.994092	27
