Mass spectrum: 5-Methoxy-5-oxopentanoic acid; ESI-QTOF; MS2; CE: 10; [M-H]-
Name: 5-Methoxy-5-oxopentanoic acid
Name: DTXSID4044589
Formula: C6H10O4
Exact mass: 146.0579088082
SMILES: COC(=O)CCCC(O)=O
InChI: InChI=1S/C6H10O4/c1-10-6(9)4-2-3-5(7)8/h2-4H2,1H3,(H,7,8)
Instrument type: ESI-QTOF
Ms type: MS2
Ion mode: NEGATIVE
Ionization: ESI
Collision energy: 10
Precursor m/z: 145.0506323565
Precursor type: [M-H]-
m/z	relative intensity
41.003288	301
59.013853	131
69.034588	999
69.070974	20
71.013853	18
73.029503	99
113.024418	442
145.050632	18
