Mass spectrum: Diallyldimethylammonium; ESI-QTOF; MS2; CE: 10; [M+H]+
Name: Diallyldimethylammonium
Name: DTXSID4027650
Formula: [C8H16N]+
Exact mass: 126.1282745178
SMILES: C[N+](C)(CC=C)CC=C
InChI: InChI=1S/C8H16N/c1-5-7-9(3,4)8-6-2/h5-6H,1-2,7-8H2,3-4H3/q+1
Instrument type: ESI-QTOF
Ms type: MS2
Ion mode: POSITIVE
Ionization: ESI
Collision energy: 10
Precursor m/z: 127.1355509695
Precursor type: [M+H]+
m/z	relative intensity
41.038577	27
42.033826	24
42.046402	16
58.065126	40
59.072951	23
70.065126	39
71.072951	26
84.080776	537
85.088601	834
86.096426	105
127.135551	999
