Mass spectrum: Dimethyl phosphate; ESI-QTOF; MS2; CE: 20; [M+H]+
Name: Dimethyl phosphate
Formula: C2H7O4P
Exact mass: 126.0081952025
SMILES: COP(O)(=O)OC
InChI: InChI=1S/C2H7O4P/c1-5-7(3,4)6-2/h1-2H3,(H,3,4)
Instrument type: ESI-QTOF
Ms type: MS2
Ion mode: POSITIVE
Ionization: ESI
Collision energy: 20
Precursor m/z: 127.0154716542
Precursor type: [M+H]+
m/z	relative intensity
31.017841	19
33.033491	97
43.017841	18
45.033491	19
46.968128	47
48.983778	16
64.978692	42
78.994342	127
80.973607	23
94.989257	894
95.025642	17
109.004907	999
127.015472	249
