Mass spectrum: 1,4-Bis(butylamino)anthracene-9,10-dione; ESI-QTOF; MS2; CE: 20; [M+H]+
Name: 1,4-Bis(butylamino)anthracene-9,10-dione
Name: DTXSID5044605
Formula: C22H26N2O2
Exact mass: 350.1994280888
SMILES: CCCCNC1=CC=C(NCCCC)C2=C1C(=O)C1C=CC=CC=1C2=O
InChI: InChI=1S/C22H26N2O2/c1-3-5-13-23-17-11-12-18(24-14-6-4-2)20-19(17)21(25)15-9-7-8-10-16(15)22(20)26/h7-12,23-24H,3-6,13-14H2,1-2H3
Instrument type: ESI-QTOF
Ms type: MS2
Ion mode: POSITIVE
Ionization: ESI
Collision energy: 20
Precursor m/z: 351.2067045405
Precursor type: [M+H]+
m/z	relative intensity
223.086589	11
225.07843	13
251.081504	373
277.13354	12
294.136279	999
294.197817	23
295.144104	38
308.151929	50
333.19614	19
351.206705	334
