Mass spectrum: N-Ethyl-3-methylaniline; ESI-QTOF; MS2; CE: 20; [M+H]+
Name: N-Ethyl-3-methylaniline
Formula: C9H13N
Exact mass: 135.1047994221
SMILES: CC1C=C(C=CC=1)NCC
InChI: InChI=1S/C9H13N/c1-3-10-9-6-4-5-8(2)7-9/h4-7,10H,3H2,1-2H3
Instrument type: ESI-QTOF
Ms type: MS2
Ion mode: POSITIVE
Ionization: ESI
Collision energy: 20
Precursor m/z: 136.1120758738
Precursor type: [M+H]+
m/z	relative intensity
79.054227	15
91.054227	50
93.057301	82
106.065126	253
107.072951	999
108.080776	246
121.088601	33
134.096426	14
136.112076	39
