Mass spectrum: 2-(Diethylamino)ethyl acrylate; ESI-QTOF; MS2; CE: 10; [M+H]+
Name: 2-(Diethylamino)ethyl acrylate
Name: DTXSID4051900
Formula: C9H17NO2
Exact mass: 171.1259287943
SMILES: CCN(CCOC(=O)C=C)CC
InChI: InChI=1S/C9H17NO2/c1-4-9(11)12-8-7-10(5-2)6-3/h4H,1,5-8H2,2-3H3
Instrument type: ESI-QTOF
Ms type: MS2
Ion mode: POSITIVE
Ionization: ESI
Collision energy: 10
Precursor m/z: 172.133205246
Precursor type: [M+H]+
m/z	relative intensity
44.049476	44
55.017841	76
67.054227	13
72.080776	65
99.044056	999
99.080441	14
100.112076	723
101.059706	11
144.101905	10
172.133205	814
