Mass spectrum: N,N-Bis(2-hydroxyethyl)formamide; ESI-QTOF; MS2; CE: 40; [M+H]+
Name: N,N-Bis(2-hydroxyethyl)formamide
Name: DTXSID3044625
Formula: C5H11NO3
Exact mass: 133.0738932252
SMILES: OCCN(CCO)C=O
InChI: InChI=1S/C5H11NO3/c7-3-1-6(5-9)2-4-8/h5,7-8H,1-4H2
Instrument type: ESI-QTOF
Ms type: MS2
Ion mode: POSITIVE
Ionization: ESI
Collision energy: 40
Precursor m/z: 134.0811696769
Precursor type: [M+H]+
m/z	relative intensity
28.018175	10
29.002191	20
39.022927	18
41.038577	124
42.033826	381
43.017841	95
43.054227	38
44.049476	999
44.083181	12
45.033491	953
45.057301	19
45.069877	11
54.031145	13
55.041651	88
56.049476	17
58.065126	10
68.049476	12
70.065126	56
72.04439	40
