Mass spectrum: 4-Hydroxyacetophenone; ESI-QTOF; MS2; CE: 20; [M-H]-
Name: 4-Hydroxyacetophenone
Formula: C8H8O2
Exact mass: 136.0524294998
SMILES: CC(=O)C1C=CC(O)=CC=1
InChI: InChI=1S/C8H8O2/c1-6(9)7-2-4-8(10)5-3-7/h2-5,10H,1H3
Instrument type: ESI-QTOF
Ms type: MS2
Ion mode: NEGATIVE
Ionization: ESI
Collision energy: 20
Precursor m/z: 135.0451530481
Precursor type: [M-H]-
m/z	relative intensity
92.026763	999
93.034588	357
120.021678	223
135.045153	254
