Mass spectrum: 2,2'-Dibenzoylaminodiphenyl disulfide; ESI-QTOF; MS2; CE: 40; [M+H]+
Name: 2,2'-Dibenzoylaminodiphenyl disulfide
Name: DTXSID7041629
Formula: C26H20N2O2S2
Exact mass: 456.0966193574
SMILES: O=C(NC1C=CC=CC=1SSC1=CC=CC=C1NC(=O)C1C=CC=CC=1)C1C=CC=CC=1
InChI: InChI=1S/C26H20N2O2S2/c29-25(19-11-3-1-4-12-19)27-21-15-7-9-17-23(21)31-32-24-18-10-8-16-22(24)28-26(30)20-13-5-2-6-14-20/h1-18H,(H,27,29)(H,28,30)
Instrument type: ESI-QTOF
Ms type: MS2
Ion mode: POSITIVE
Ionization: ESI
Collision energy: 40
Precursor m/z: 457.1038958091
Precursor type: [M+H]+
m/z	relative intensity
51.022927	18
77.038577	229
105.033491	999
105.073248	30
106.02874	17
109.010647	33
124.021546	24
150.000811	485
150.04575	11
195.067865	12
212.052846	61
228.047761	124
