Mass spectrum: Adenine; ESI-QTOF; MS2; CE: 20; [M+H]+
Name: Adenine
Name: DTXSID6022557
Formula: C5H5N5
Exact mass: 135.0544951965
SMILES: NC1=NC=NC2NC=NC=21
InChI: InChI=1S/C5H5N5/c6-4-3-5(9-1-7-3)10-2-8-4/h1-2H,(H3,6,7,8,9,10)
Instrument type: ESI-QTOF
Ms type: MS2
Ion mode: POSITIVE
Ionization: ESI
Collision energy: 20
Precursor m/z: 136.0617716482
Precursor type: [M+H]+
m/z	relative intensity
55.029075	13
65.013424	19
67.029075	31
82.039974	12
92.024324	84
94.039974	102
109.050873	32
119.035223	832
136.061772	999
