Mass spectrum: N-Butyl-p-toluenesulfonamide; ESI-QTOF; MS2; CE: 40; [M-H]-
Name: N-Butyl-p-toluenesulfonamide
Name: DTXSID7042198
Formula: C11H17NO2S
Exact mass: 227.0979995243
SMILES: CC1C=CC(=CC=1)S(=O)(=O)NCCCC
InChI: InChI=1S/C11H17NO2S/c1-3-4-9-12-15(13,14)11-7-5-10(2)6-8-11/h5-8,12H,3-4,9H2,1-2H3
Instrument type: ESI-QTOF
Ms type: MS2
Ion mode: NEGATIVE
Ionization: ESI
Collision energy: 40
Precursor m/z: 226.0907230726
Precursor type: [M-H]-
m/z	relative intensity
47.967534	34
48.975359	12
59.013853	15
61.970608	15
63.962449	999
63.995463	19
64.970274	532
78.973348	17
79.981173	22
91.055324	141
91.076453	10
106.066223	80
107.050238	35
121.011744	11
155.017224	100
170.028123	20
