Mass spectrum: MK-968; ESI-QTOF; MS2; CE: 40; [M-H]-
Name: MK-968
Formula: C19H21F2N5O
Exact mass: 373.1714167292
SMILES: FC1C=CC=CC=1C(F)COC1CCC(CC1)NC1NC=NC2=NN=CC=12
InChI: InChI=1S/C19H21F2N5O/c20-16-4-2-1-3-14(16)17(21)10-27-13-7-5-12(6-8-13)25-18-15-9-24-26-19(15)23-11-22-18/h1-4,9,11-13,17H,5-8,10H2,(H2,22,23,24,25,26)
Instrument type: ESI-QTOF
Ms type: MS2
Ion mode: NEGATIVE
Ionization: ESI
Collision energy: 40
Precursor m/z: 372.1641402775
Precursor type: [M-H]-
m/z	relative intensity
39.00518	11
61.009516	17
65.014522	28
92.025421	64
105.033246	32
107.03632	84
117.034389	57
127.03648	999
127.080076	15
132.031569	45
133.039394	230
134.047219	746
134.091255	11
137.040817	12
158.047219	15
160.062869	277
186.078519	58
214.109819	184
372.16414	18
