Mass spectrum: SAR377142; ESI-QTOF; MS2; CE: 40; [M+H]+
Name: SAR377142
Name: DTXSID4047385
Formula: C26H33ClN6O4
Exact mass: 528.2251812963
SMILES: CC(C)N1CCC(CC1)NC(=O)C1=CC2=CC(=NC=C2N1CC(=O)NC1C=CC(Cl)=CN=1)OCCOC
InChI: InChI=1S/C26H33ClN6O4/c1-17(2)32-8-6-20(7-9-32)30-26(35)21-12-18-13-25(37-11-10-36-3)29-15-22(18)33(21)16-24(34)31-23-5-4-19(27)14-28-23/h4-5,12-15,17,20H,6-11,16H2,1-3H3,(H,30,35)(H,28,31,34)
Instrument type: ESI-QTOF
Ms type: MS2
Ion mode: POSITIVE
Ionization: ESI
Collision energy: 40
Precursor m/z: 529.232457748
Precursor type: [M+H]+
m/z	relative intensity
42.033826	10
55.054227	23
56.049476	63
59.049141	17
72.080776	21
82.065126	19
84.080776	269
124.112076	109
126.127726	999
129.021402	28
161.034554	18
169.016317	15
218.056018	90
219.076419	80
220.071668	14
233.092069	11
244.071668	86
246.087318	10
276.097882	123
278.113532	26
314.149918	11
342.169129	13
343.176467	56
359.090545	15
359.171382	29
361.223417	10
373.223417	12
401.218819	317
529.232458	11
