Mass spectrum: 3-Hydroxypyridine-2-methanol; ESI-QTOF; MS2; CE: 10; [M+H]+
Name: 3-Hydroxypyridine-2-methanol
Name: DTXSID90161811
Formula: C6H7NO2
Exact mass: 125.0476784753
SMILES: OC1C=CC=NC=1CO
InChI: InChI=1S/C6H7NO2/c8-4-5-6(9)2-1-3-7-5/h1-3,8-9H,4H2
Instrument type: ESI-QTOF
Ms type: MS2
Ion mode: POSITIVE
Ionization: ESI
Collision energy: 10
Precursor m/z: 126.054954927
Precursor type: [M+H]+
m/z	relative intensity
39.022927	12
53.038577	23
80.049476	63
108.04439	999
126.054955	199
