Mass spectrum: (+/-)-Apomorphinee; ESI-QTOF; MS2; CE: 40; [M+H]+
Name: (+/-)-Apomorphinee
Name: DTXSID0048185
Formula: C17H17NO2
Exact mass: 267.1259287943
SMILES: CN1CCC2=CC=CC3C4=C(CC1C2=3)C=CC(O)=C4O
InChI: InChI=1S/C17H17NO2/c1-18-8-7-10-3-2-4-12-15(10)13(18)9-11-5-6-14(19)17(20)16(11)12/h2-6,13,19-20H,7-9H2,1H3
Instrument type: ESI-QTOF
Ms type: MS2
Ion mode: POSITIVE
Ionization: ESI
Collision energy: 40
Precursor m/z: 268.133205246
Precursor type: [M+H]+
m/z	relative intensity
44.049476	44
165.069877	34
189.069877	210
190.077702	365
190.135217	10
191.085527	999
191.130466	46
201.069877	89
218.072616	25
219.080441	81
