Mass spectrum: 1,3-Benzenediamine; ESI-QTOF; MS2; CE: 40; [M+H]+
Name: 1,3-Benzenediamine
Formula: C6H8N2
Exact mass: 108.06874827
SMILES: NC1=CC(N)=CC=C1
InChI: InChI=1S/C6H8N2/c7-5-2-1-3-6(8)4-5/h1-4H,7-8H2
Instrument type: ESI-QTOF
Ms type: MS2
Ion mode: POSITIVE
Ionization: ESI
Collision energy: 40
Precursor m/z: 109.0760247217
Precursor type: [M+H]+
m/z	relative intensity
39.022927	864
40.018175	14
41.026001	16
41.038577	16
42.033826	71
51.022927	26
52.018175	23
53.038577	40
54.033826	29
55.054227	11
63.022927	22
64.030752	9
65.026001	12
65.038577	999
66.033826	82
66.046402	120
67.041651	53
69.044725	15
78.033826	11
80.049476	173
81.057301	38
92.049476	94
93.057301	119
107.060375	30
108.0682	37
