Mass spectrum: 4,4'-Oxybis(benzenesulfohydrazide); ESI-QTOF; MS2; CE: 20; [M-H]-
Name: 4,4'-Oxybis(benzenesulfohydrazide)
Formula: C12H14N4O5S2
Exact mass: 358.0405610477
SMILES: NNS(=O)(=O)C1C=CC(=CC=1)OC1C=CC(=CC=1)S(=O)(=O)NN
InChI: InChI=1S/C12H14N4O5S2/c13-15-22(17,18)11-5-1-9(2-6-11)21-10-3-7-12(8-4-10)23(19,20)16-14/h1-8,15-16H,13-14H2
Instrument type: ESI-QTOF
Ms type: MS2
Ion mode: NEGATIVE
Ionization: ESI
Collision energy: 20
Precursor m/z: 357.033284596
Precursor type: [M-H]-
m/z	relative intensity
63.962449	12
64.970274	10
155.987321	11
169.065237	33
187.017596	225
232.019312	571
232.078816	12
233.026446	175
263.049587	317
295.980521	31
296.988346	253
327.011487	999
