Mass spectrum: Ricinine; ESI-QTOF; MS2; CE: 10; [M+H]+
Name: Ricinine
Name: DTXSID50200412
Formula: C8H8N2O2
Exact mass: 164.0585775146
SMILES: COC1C=CN(C)C(=O)C=1C#N
InChI: InChI=1S/C8H8N2O2/c1-10-4-3-7(12-2)6(5-9)8(10)11/h3-4H,1-2H3
Instrument type: ESI-QTOF
Ms type: MS2
Ion mode: POSITIVE
Ionization: ESI
Collision energy: 10
Precursor m/z: 165.0658539663
Precursor type: [M+H]+
m/z	relative intensity
82.02874	10
84.04439	15
138.054955	49
165.065854	999
