Mass spectrum: Kinetin; ESI-QTOF; MS2; CE: 40; [M+H]+
Name: Kinetin
Name: DTXSID9035175
Formula: C10H9N5O
Exact mass: 215.0807099464
SMILES: C(NC1NC=NC2=NC=NC2=1)C1=CC=CO1
InChI: InChI=1S/C10H9N5O/c1-2-7(16-3-1)4-11-9-8-10(13-5-12-8)15-6-14-9/h1-3,5-6H,4H2,(H2,11,12,13,14,15)
Instrument type: ESI-QTOF
Ms type: MS2
Ion mode: POSITIVE
Ionization: ESI
Collision energy: 40
Precursor m/z: 216.0879863981
Precursor type: [M+H]+
m/z	relative intensity
44.049476	10
51.022927	15
53.038577	792
53.070939	26
54.046402	33
73.027063	16
81.033491	999
81.069877	38
81.077087	22
82.039974	55
119.035223	30
