Mass spectrum: SSR 240612; ESI-QTOF; MS2; CE: 40; [M-H]-
Name: SSR 240612
Name: DTXSID2047351
Formula: C42H52N4O7S
Exact mass: 756.3556707745
SMILES: CN(C(C)C)C(=O)C(CC1=CC=C(CN2C(C)CCCC2C)C=C1)NC(=O)CC(NS(=O)(=O)C1C=C2C=CC(=CC2=CC=1)OC)C1=CC2OCOC=2C=C1
InChI: InChI=1S/C42H52N4O7S/c1-27(2)45(5)42(48)38(20-30-10-12-31(13-11-30)25-46-28(3)8-7-9-29(46)4)43-41(47)24-37(34-16-19-39-40(23-34)53-26-52-39)44-54(49,50)36-18-15-32-21-35(51-6)17-14-33(32)22-36/h10-19,21-23,27-29,37-38,44H,7-9,20,24-26H2,1-6H3,(H,43,47)
Instrument type: ESI-QTOF
Ms type: MS2
Ion mode: NEGATIVE
Ionization: ESI
Collision energy: 40
Precursor m/z: 755.3483943228
Precursor type: [M-H]-
m/z	relative intensity
41.998537	46
58.029837	121
97.016927	14
112.113173	33
157.065888	56
201.079527	11
216.175773	16
221.027098	785
222.0309	31
236.037345	47
269.202322	42
270.189709	11
285.197237	10
313.134637	15
313.192152	999
313.255717	12
314.194794	65
354.07921	22
386.281301	77
755.348394	112
