Mass spectrum: 2-(1-Methylbutyl)phenol; ESI-QTOF; MS2; CE: 10; [M-H]-
Name: 2-(1-Methylbutyl)phenol
Formula: C11H16O
Exact mass: 164.1201151327
SMILES: CCCC(C)C1C=CC=CC=1O
InChI: InChI=1S/C11H16O/c1-3-6-9(2)10-7-4-5-8-11(10)12/h4-5,7-9,12H,3,6H2,1-2H3
Instrument type: ESI-QTOF
Ms type: MS2
Ion mode: NEGATIVE
Ionization: ESI
Collision energy: 10
Precursor m/z: 163.112838681
Precursor type: [M-H]-
m/z	relative intensity
119.050238	16
120.058063	13
163.112839	999
