Mass spectrum: Diphenolic acid; ESI-QTOF; MS2; CE: 40; [M-H]-
Name: Diphenolic acid
Formula: C17H18O4
Exact mass: 286.1205090634
SMILES: CC(CCC(O)=O)(C1C=CC(O)=CC=1)C1C=CC(O)=CC=1
InChI: InChI=1S/C17H18O4/c1-17(11-10-16(20)21,12-2-6-14(18)7-3-12)13-4-8-15(19)9-5-13/h2-9,18-19H,10-11H2,1H3,(H,20,21)
Instrument type: ESI-QTOF
Ms type: MS2
Ion mode: NEGATIVE
Ionization: ESI
Collision energy: 40
Precursor m/z: 285.1132326117
Precursor type: [M-H]-
m/z	relative intensity
41.003288	65
58.006028	12
73.029503	10
93.034588	999
93.070974	15
94.042413	10
105.070974	12
117.034588	25
130.027157	10
130.042413	43
131.050238	68
132.058063	296
133.065888	12
145.065888	54
147.081539	149
196.052978	12
209.060803	12
210.068628	17
211.076453	176
