Mass spectrum: Diethyl (N,N-bis(2-hydroxyethyl)amino)methanephosphonate; ESI-QTOF; MS2; CE: 10; [M+H]+
Name: Diethyl (N,N-bis(2-hydroxyethyl)amino)methanephosphonate
Name: DTXSID2029242
Formula: C9H22NO5P
Exact mass: 255.1235593107
SMILES: CCOP(=O)(CN(CCO)CCO)OCC
InChI: InChI=1S/C9H22NO5P/c1-3-14-16(13,15-4-2)9-10(5-7-11)6-8-12/h11-12H,3-9H2,1-2H3
Instrument type: ESI-QTOF
Ms type: MS2
Ion mode: POSITIVE
Ionization: ESI
Collision energy: 10
Precursor m/z: 256.1308357624
Precursor type: [M+H]+
m/z	relative intensity
74.06004	10
89.059706	10
102.09134	10
118.086255	999
118.122641	21
256.130836	64
