Mass spectrum: UK-416244; ESI-QTOF; MS2; CE: 40; [M-H]-
Name: UK-416244
Name: DTXSID0047290
Formula: C17H22N2O3S2
Exact mass: 366.1071840435
SMILES: CC1=CC(=CC=C1SC)OC1=CC=C(C=C1CN(C)C)S(N)(=O)=O
InChI: InChI=1S/C17H22N2O3S2/c1-12-9-14(5-8-17(12)23-4)22-16-7-6-15(24(18,20)21)10-13(16)11-19(2)3/h5-10H,11H2,1-4H3,(H2,18,20,21)
Instrument type: ESI-QTOF
Ms type: MS2
Ion mode: NEGATIVE
Ionization: ESI
Collision energy: 40
Precursor m/z: 365.0999075918
Precursor type: [M-H]-
m/z	relative intensity
32.980444	13
61.970608	49
63.962449	47
77.965523	145
78.973348	27
79.981173	186
106.029837	12
120.045487	162
121.053312	16
122.01957	123
123.027395	100
138.014484	65
141.074345	10
148.076788	16
164.095512	36
168.996488	31
185.014522	20
208.076788	23
209.042393	25
210.05424	21
212.030134	15
214.045132	11
214.069594	29
215.049587	11
224.054634	11
225.037959	40
226.045784	51
227.053609	286
228.02842	15
228.057412	57
240.052229	14
241.060054	51
242.007684	11
242.064508	999
242.118652	10
243.048524	31
243.072333	138
257.087983	32
291.012138	26
292.010758	44
305.018583	74
306.026408	134
307.034233	115
307.070619	10
320.042058	52
365.099908	18
