Mass spectrum: 2-(Morpholin-4-yldithio)-1,3-benzothiazole; ESI-QTOF; MS2; CE: 10; [M+H]+
Name: 2-(Morpholin-4-yldithio)-1,3-benzothiazole
Formula: C11H12N2OS3
Exact mass: 284.0111752099
SMILES: C1CN(CCO1)SSC1=NC2C=CC=CC=2S1
InChI: InChI=1S/C11H12N2OS3/c1-2-4-10-9(3-1)12-11(15-10)16-17-13-5-7-14-8-6-13/h1-4H,5-8H2
Instrument type: ESI-QTOF
Ms type: MS2
Ion mode: POSITIVE
Ionization: ESI
Collision energy: 10
Precursor m/z: 285.0184516616
Precursor type: [M+H]+
m/z	relative intensity
56.049476	18
59.990246	22
86.06004	196
88.021546	20
90.037196	18
118.032111	999
118.068497	27
165.977967	10
167.993617	96
197.950038	11
199.965688	490
200.016461	10
285.018452	503
