Mass spectrum: Nicotine sulfate; ESI-QTOF; MS2; CE: 20; [M+H]+
Name: Nicotine sulfate
Name: DTXSID8021725
Formula: C10H14N2
Exact mass: 162.1156984614
SMILES: CN1CCCC1C1=CN=CC=C1
InChI: InChI=1S/C10H14N2/c1-12-7-3-5-10(12)9-4-2-6-11-8-9/h2,4,6,8,10H,3,5,7H2,1H3
Instrument type: ESI-QTOF
Ms type: MS2
Ion mode: POSITIVE
Ionization: ESI
Collision energy: 20
Precursor m/z: 163.1229749131
Precursor type: [M+H]+
m/z	relative intensity
42.033826	16
44.049476	63
65.038577	10
77.038577	24
80.049476	240
82.065126	11
84.080776	336
92.049476	23
103.054227	11
105.069877	20
106.065126	377
115.054227	58
117.057301	645
118.065126	11
120.080776	186
130.065126	999
131.072951	18
132.080776	731
163.122975	163
