Mass spectrum: Acetone thiosemicarbazide; ESI-QTOF; MS2; CE: 20; [M+H]+
Name: Acetone thiosemicarbazide
Name: DTXSID6044480
Formula: C4H9N3S
Exact mass: 131.0517180393
SMILES: CC(C)/N=N/C(N)=S
InChI: InChI=1S/C4H9N3S/c1-3(2)6-7-4(5)8/h3H,1-2H3,(H2,5,8)/b7-6+
Instrument type: ESI-QTOF
Ms type: MS2
Ion mode: POSITIVE
Ionization: ESI
Collision energy: 20
Precursor m/z: 132.058994491
Precursor type: [M+H]+
m/z	relative intensity
41.038577	18
42.033826	275
43.029075	74
43.041651	16
47.990246	25
56.049476	999
57.057301	28
58.065126	389
75.001145	100
88.021546	12
115.032445	106
