Mass spectrum: SSR180711; ESI-QTOF; MS2; CE: 40; [M+H]+
Name: SSR180711
Name: DTXSID2047359
Formula: C14H17BrN2O2
Exact mass: 324.0473407017
SMILES: O=C(OC1C=CC(Br)=CC=1)N1CCN2CCC1CC2
InChI: InChI=1S/C14H17BrN2O2/c15-11-1-3-13(4-2-11)19-14(18)17-10-9-16-7-5-12(17)6-8-16/h1-4,12H,5-10H2
Instrument type: ESI-QTOF
Ms type: MS2
Ion mode: POSITIVE
Ionization: ESI
Collision energy: 40
Precursor m/z: 325.0546171534
Precursor type: [M+H]+
m/z	relative intensity
41.038577	12
42.033826	124
44.049476	13
55.054227	352
56.049476	664
56.083181	13
57.069877	19
67.054227	54
68.049476	19
69.044725	11
70.02874	28
70.065126	40
80.049476	26
82.065126	161
83.060375	11
84.080776	999
84.114481	23
84.125715	10
94.041316	50
97.076025	67
98.08385	10
99.055289	24
120.056966	13
125.070939	246
126.078764	15
154.949089	197
172.959654	56
184.959654	14
241.981118	148
253.981118	21
267.996768	227
297.023317	96
325.054617	83
