Mass spectrum: Diacetone acrylamide; ESI-QTOF; MS2; CE: 40; [M+H]+
Name: Diacetone acrylamide
Name: DTXSID1024916
Formula: C9H15NO2
Exact mass: 169.1102787305
SMILES: CC(=O)CC(C)(C)NC(=O)C=C
InChI: InChI=1S/C9H15NO2/c1-5-8(12)10-9(3,4)6-7(2)11/h5H,1,6H2,2-4H3,(H,10,12)
Instrument type: ESI-QTOF
Ms type: MS2
Ion mode: POSITIVE
Ionization: ESI
Collision energy: 40
Precursor m/z: 170.1175551822
Precursor type: [M+H]+
m/z	relative intensity
39.022927	17
41.038577	171
43.017841	999
43.041651	23
43.054227	17
44.01309	41
53.038577	161
54.033826	20
55.017841	736
55.041651	14
55.054227	26
58.065126	310
65.038577	15
72.04439	94
77.038577	43
79.054227	154
81.069877	63
99.080441	15
