Mass spectrum: Sulfoisophthalic acid; ESI-QTOF; MS2; CE: 10; [M-H]-
Name: Sulfoisophthalic acid
Name: DTXSID5044819
Formula: C8H6O7S
Exact mass: 245.9834232775
SMILES: OS(=O)(=O)C1C=C(C=C(C=1)C(O)=O)C(O)=O
InChI: InChI=1S/C8H6O7S/c9-7(10)4-1-5(8(11)12)3-6(2-4)16(13,14)15/h1-3H,(H,9,10)(H,11,12)(H,13,14,15)
Instrument type: ESI-QTOF
Ms type: MS2
Ion mode: NEGATIVE
Ionization: ESI
Collision energy: 10
Precursor m/z: 244.9761468258
Precursor type: [M-H]-
m/z	relative intensity
75.024024	10
80.965188	60
119.013853	83
200.986318	172
244.976147	999
