Mass spectrum: epsilon-Decalactone; ESI-QTOF; MS2; CE: 20; [M+H]+
Name: epsilon-Decalactone
Name: DTXSID8047551
Formula: C10H18O2
Exact mass: 170.1306798188
SMILES: CCCCC1CCCCC(=O)O1
InChI: InChI=1S/C10H18O2/c1-2-3-6-9-7-4-5-8-10(11)12-9/h9H,2-8H2,1H3
Instrument type: ESI-QTOF
Ms type: MS2
Ion mode: POSITIVE
Ionization: ESI
Collision energy: 20
Precursor m/z: 171.1379562705
Precursor type: [M+H]+
m/z	relative intensity
29.038577	25
39.022927	49
41.038577	256
43.017841	105
43.054227	139
55.017841	26
55.054227	800
57.033491	19
57.069877	276
59.049141	14
67.054227	139
69.033491	10
69.069877	999
69.091006	28
71.085527	30
73.064791	68
77.038577	13
79.054227	103
81.069877	25
83.085527	228
87.080441	12
91.054227	46
93.069877	173
95.085527	135
97.064791	97
105.069877	21
107.085527	144
109.101177	62
111.080441	34
115.075356	22
135.116827	129
153.127392	27
