Mass spectrum: 2,2'-(Tetradecylimino)diethanol; ESI-QTOF; MS2; CE: 40; [M+H]+
Name: 2,2'-(Tetradecylimino)diethanol
Name: DTXSID5044865
Formula: C18H39NO2
Exact mass: 301.2980794961
SMILES: CCCCCCCCCCCCCCN(CCO)CCO
InChI: InChI=1S/C18H39NO2/c1-2-3-4-5-6-7-8-9-10-11-12-13-14-19(15-17-20)16-18-21/h20-21H,2-18H2,1H3
Instrument type: ESI-QTOF
Ms type: MS2
Ion mode: POSITIVE
Ionization: ESI
Collision energy: 40
Precursor m/z: 302.3053559478
Precursor type: [M+H]+
m/z	relative intensity
41.038577	250
42.033826	161
43.054227	999
43.075356	35
44.049476	336
45.033491	116
55.054227	39
56.049476	10
57.069877	662
57.114816	11
58.065126	49
60.04439	10
62.06004	27
68.049476	15
69.069877	10
70.065126	729
70.098831	21
71.085527	100
85.101177	22
88.07569	448
88.112076	11
102.09134	90
106.086255	105
302.305356	11
