Mass spectrum: 2-Ethylhexyl cyanoacetate; ESI-QTOF; MS2; CE: 40; [M-H]-
Name: 2-Ethylhexyl cyanoacetate
Name: DTXSID9044378
Formula: C11H19NO2
Exact mass: 197.1415788581
SMILES: CCCCC(COC(=O)CC#N)CC
InChI: InChI=1S/C11H19NO2/c1-3-5-6-10(4-2)9-14-11(13)7-8-12/h10H,3-7,9H2,1-2H3
Instrument type: ESI-QTOF
Ms type: MS2
Ion mode: NEGATIVE
Ionization: ESI
Collision energy: 40
Precursor m/z: 196.1343024064
Precursor type: [M-H]-
m/z	relative intensity
38.003623	59
65.998537	999
81.070974	12
