Mass spectrum: p-Xylenol blue; ESI-QTOF; MS2; CE: 40; [M+H]+
Name: p-Xylenol blue
Formula: C23H22O5S
Exact mass: 410.1187945433
SMILES: CC1C=C(O)C(C)=CC=1C1(OS(=O)(=O)C2C=CC=CC1=2)C1C=C(C)C(O)=CC=1C
InChI: InChI=1S/C23H22O5S/c1-13-11-20(24)15(3)9-18(13)23(19-10-16(4)21(25)12-14(19)2)17-7-5-6-8-22(17)29(26,27)28-23/h5-12,24-25H,1-4H3
Instrument type: ESI-QTOF
Ms type: MS2
Ion mode: POSITIVE
Ionization: ESI
Collision energy: 40
Precursor m/z: 411.126070995
Precursor type: [M+H]+
m/z	relative intensity
69.033491	20
77.038577	10
81.069877	30
109.064791	29
121.064791	34
137.059706	221
153.000477	85
165.069877	12
179.085527	34
181.064791	14
182.072616	35
194.072616	10
208.088266	69
209.096091	32
210.067531	21
224.083181	14
225.091006	28
227.052512	23
243.047427	11
245.096091	16
257.096091	13
259.111742	16
271.111742	27
272.119567	25
273.127392	10
282.103916	35
285.091006	20
286.135217	26
287.143042	16
289.052906	32
297.127392	35
299.106656	42
300.114481	128
313.158692	19
314.130131	12
315.137956	999
329.153606	19
381.079121	12
