Mass spectrum: N,N-Diethyldodecanamide; ESI-QTOF; MS2; CE: 40; [M+H]+
Name: N,N-Diethyldodecanamide
Name: DTXSID5044655
Formula: C16H33NO
Exact mass: 255.2562146824
SMILES: CCCCCCCCCCCC(=O)N(CC)CC
InChI: InChI=1S/C16H33NO/c1-4-7-8-9-10-11-12-13-14-15-16(18)17(5-2)6-3/h4-15H2,1-3H3
Instrument type: ESI-QTOF
Ms type: MS2
Ion mode: POSITIVE
Ionization: ESI
Collision energy: 40
Precursor m/z: 256.2634911341
Precursor type: [M+H]+
m/z	relative intensity
29.038577	13
41.038577	360
43.054227	999
44.01309	43
44.049476	46
45.033491	11
46.065126	184
55.054227	115
56.049476	19
57.033491	22
57.069877	618
58.065126	58
67.054227	49
69.069877	36
71.085527	56
72.04439	79
72.080776	36
74.096426	779
81.069877	34
83.085527	11
95.085527	29
100.07569	28
102.09134	17
116.10699	18
128.10699	23
130.122641	11
256.263491	10
