Mass spectrum: 4,4'-(2,2-Dioxido-3H-1,2-benzoxathiole-3,3-diyl)bis(2,6-dibromo-3-methylphenol); ESI-QTOF; MS2; CE: 40; [M-H]-
Name: 4,4'-(2,2-Dioxido-3H-1,2-benzoxathiole-3,3-diyl)bis(2,6-dibromo-3-methylphenol)
Name: DTXSID3044704
Formula: C21H14Br4O5S
Exact mass: 693.7295458881
SMILES: CC1/C(/C=C(Br)C(=O)C=1Br)=C(\C1=CC(Br)=C(O)C(Br)=C1C)/C1=CC=CC=C1S(O)(=O)=O
InChI: InChI=1S/C21H14Br4O5S/c1-9-12(7-14(22)20(26)18(9)24)17(11-5-3-4-6-16(11)31(28,29)30)13-8-15(23)21(27)19(25)10(13)2/h3-8,26H,1-2H3,(H,28,29,30)/b17-13-
Instrument type: ESI-QTOF
Ms type: MS2
Ion mode: NEGATIVE
Ionization: ESI
Collision energy: 40
Precursor m/z: 692.7222694364
Precursor type: [M-H]-
m/z	relative intensity
78.918886	999
79.957363	178
80.965188	25
262.871264	60
348.046178	11
373.994791	23
375.002616	14
375.033268	11
376.041093	15
377.048918	13
424.948866	18
425.956691	43
426.964516	65
439.935956	18
440.943781	31
452.943781	23
453.951606	24
454.928779	22
454.959431	115
455.967256	37
490.859379	10
504.875029	11
518.854294	50
519.862119	155
532.839292	25
532.869944	24
533.877769	18
534.818556	20
534.885594	162
548.834207	47
598.780456	57
612.796107	18
613.803932	71
692.722269	17
