Mass spectrum: 2,4,5-Trimethoxybenzaldehyde; ESI-QTOF; MS2; CE: 20; [M+H]+
Name: 2,4,5-Trimethoxybenzaldehyde
Name: DTXSID1022217
Formula: C10H12O4
Exact mass: 196.073558872
SMILES: COC1=CC(C=O)=C(C=C1OC)OC
InChI: InChI=1S/C10H12O4/c1-12-8-5-10(14-3)9(13-2)4-7(8)6-11/h4-6H,1-3H3
Instrument type: ESI-QTOF
Ms type: MS2
Ion mode: POSITIVE
Ionization: ESI
Collision energy: 20
Precursor m/z: 197.0808353237
Precursor type: [M+H]+
m/z	relative intensity
59.012756	11
65.038577	16
77.038577	25
78.046402	14
79.054227	20
81.069877	13
83.049141	15
93.033491	46
95.049141	42
96.056966	33
97.064791	15
107.049141	15
108.056966	14
109.028406	13
109.064791	48
111.044056	118
111.080441	14
122.036231	19
123.044056	203
124.051881	42
125.059706	42
126.067531	55
137.059706	13
138.067531	999
139.038971	248
139.075356	118
153.054621	38
154.062446	568
167.033885	219
167.070271	102
169.085921	375
182.05736	124
197.080835	29
