Mass spectrum: PD-0333941; ESI-QTOF; MS2; CE: 20; [M+H]+
Name: PD-0333941
Name: DTXSID2047307
Formula: C23H22N2O4
Exact mass: 390.1579572058
SMILES: CC1OC(=NC=1CCOC1=CC=CC2=C1C=CN2CCC(O)=O)C1C=CC=CC=1
InChI: InChI=1S/C23H22N2O4/c1-16-19(24-23(29-16)17-6-3-2-4-7-17)12-15-28-21-9-5-8-20-18(21)10-13-25(20)14-11-22(26)27/h2-10,13H,11-12,14-15H2,1H3,(H,26,27)
Instrument type: ESI-QTOF
Ms type: MS2
Ion mode: POSITIVE
Ionization: ESI
Collision energy: 20
Precursor m/z: 391.1652336575
Precursor type: [M+H]+
m/z	relative intensity
43.017841	150
83.049141	31
104.049476	58
105.033491	12
144.080776	27
146.06004	12
174.09134	18
186.09134	999
186.140302	50
186.161431	26
206.08117	24
218.08117	52
270.11247	21
391.165234	434
