Mass spectrum: Dihexylamine; ESI-QTOF; MS2; CE: 10; [M+H]+
Name: Dihexylamine
Name: DTXSID1022009
Formula: C12H27N
Exact mass: 185.2143498687
SMILES: CCCCCCNCCCCCC
InChI: InChI=1S/C12H27N/c1-3-5-7-9-11-13-12-10-8-6-4-2/h13H,3-12H2,1-2H3
Instrument type: ESI-QTOF
Ms type: MS2
Ion mode: POSITIVE
Ionization: ESI
Collision energy: 10
Precursor m/z: 186.2216263204
Precursor type: [M+H]+
m/z	relative intensity
43.054227	57
57.069877	18
85.101177	14
102.127726	50
186.221626	999
