Mass spectrum: PharmaGSID_48505; ESI-QTOF; MS2; CE: 10; [M+H]+
Name: PharmaGSID_48505
Formula: C17H12ClN5O2
Exact mass: 353.0679523744
SMILES: CC1NN=C2NC3C=CC(=CC=3C(=NC2=1)C1=CC=CC=C1Cl)[N+]([O-])=O
InChI: InChI=1S/C17H12ClN5O2/c1-9-15-17(22-21-9)19-14-7-6-10(23(24)25)8-12(14)16(20-15)11-4-2-3-5-13(11)18/h2-8H,1H3,(H2,19,21,22)
Instrument type: ESI-QTOF
Ms type: MS2
Ion mode: POSITIVE
Ionization: ESI
Collision energy: 10
Precursor m/z: 354.0752288261
Precursor type: [M+H]+
m/z	relative intensity
308.082326	21
354.075229	999
