Mass spectrum: 4-Anilinophenol; ESI-QTOF; MS2; CE: 40; [M+H]+
Name: 4-Anilinophenol
Formula: C12H11NO
Exact mass: 185.0840639806
SMILES: OC1C=CC(=CC=1)NC1C=CC=CC=1
InChI: InChI=1S/C12H11NO/c14-12-8-6-11(7-9-12)13-10-4-2-1-3-5-10/h1-9,13-14H
Instrument type: ESI-QTOF
Ms type: MS2
Ion mode: POSITIVE
Ionization: ESI
Collision energy: 40
Precursor m/z: 186.0913404323
Precursor type: [M+H]+
m/z	relative intensity
39.022927	19
53.038577	28
65.038577	180
66.046402	51
77.038577	11
80.049476	510
81.033491	146
81.057301	101
82.041316	20
92.049476	44
93.057301	180
108.04439	116
109.052215	999
109.088601	13
115.054227	29
166.065126	10
167.072951	15
