Mass spectrum: Tyrphostin; ESI-QTOF; MS2; CE: 40; [M-H]-
Name: Tyrphostin
Name: DTXSID0051447
Formula: C16H14ClN3O2
Exact mass: 315.0774544234
SMILES: COC1=CC2=C(NC3C=C(Cl)C=CC=3)N=CN=C2C=C1OC
InChI: InChI=1S/C16H14ClN3O2/c1-21-14-7-12-13(8-15(14)22-2)18-9-19-16(12)20-11-5-3-4-10(17)6-11/h3-9H,1-2H3,(H,18,19,20)
Instrument type: ESI-QTOF
Ms type: MS2
Ion mode: NEGATIVE
Ionization: ESI
Collision energy: 40
Precursor m/z: 314.0701779717
Precursor type: [M-H]-
m/z	relative intensity
34.969401	79
41.003288	12
118.029837	15
151.006849	12
192.056721	133
201.022012	39
206.072371	11
219.04381	15
220.051635	386
228.033399	91
229.017414	21
232.051635	15
233.05946	34
234.067285	58
238.017748	98
239.025574	16
255.020488	42
256.028313	999
257.035651	13
268.028313	105
270.043963	144
283.015403	38
284.023228	190
296.023228	22
298.038878	115
