Mass spectrum: N-Isopropyl-N'-phenyl-p-phenylenediamine; ESI-QTOF; MS2; CE: 40; [M+H]+
Name: N-Isopropyl-N'-phenyl-p-phenylenediamine
Formula: C15H18N2
Exact mass: 226.146998589
SMILES: CC(C)NC1C=CC(=CC=1)NC1C=CC=CC=1
InChI: InChI=1S/C15H18N2/c1-12(2)16-14-8-10-15(11-9-14)17-13-6-4-3-5-7-13/h3-12,16-17H,1-2H3
Instrument type: ESI-QTOF
Ms type: MS2
Ion mode: POSITIVE
Ionization: ESI
Collision energy: 40
Precursor m/z: 227.1542750407
Precursor type: [M+H]+
m/z	relative intensity
66.046402	48
77.038577	19
79.041651	14
80.049476	199
81.057301	135
81.069877	12
91.041651	10
91.054227	16
93.057301	112
106.05255	30
106.065126	23
107.060375	928
108.0682	14
118.05255	99
118.065126	96
119.072951	82
120.080776	16
129.069877	14
130.065126	41
135.091675	12
139.054227	11
143.072951	18
144.080776	19
156.080776	48
157.088601	32
166.065126	158
167.072951	79
168.080776	39
169.088601	67
170.096426	85
182.08385	40
183.091675	424
184.0995	999
212.1308	23
