Mass spectrum: sec-Butylurea; ESI-QTOF; MS2; CE: 10; [M-H]-
Name: sec-Butylurea
Name: DTXSID8027294
Formula: C5H12N2O
Exact mass: 116.0949630199
SMILES: CCC(C)NC(N)=O
InChI: InChI=1S/C5H12N2O/c1-3-4(2)7-5(6)8/h4H,3H2,1-2H3,(H3,6,7,8)
Instrument type: ESI-QTOF
Ms type: MS2
Ion mode: NEGATIVE
Ionization: ESI
Collision energy: 10
Precursor m/z: 115.0876865682
Precursor type: [M-H]-
m/z	relative intensity
41.998537	999
42.022347	15
54.034923	67
59.025086	16
97.077122	77
115.087687	46
