Mass spectrum: N-(2-Methoxyphenyl)acetamide; ESI-QTOF; MS2; CE: 40; [M+H]+
Name: N-(2-Methoxyphenyl)acetamide
Formula: C9H11NO2
Exact mass: 165.0789786029
SMILES: CC(=O)NC1=CC=CC=C1OC
InChI: InChI=1S/C9H11NO2/c1-7(11)10-8-5-3-4-6-9(8)12-2/h3-6H,1-2H3,(H,10,11)
Instrument type: ESI-QTOF
Ms type: MS2
Ion mode: POSITIVE
Ionization: ESI
Collision energy: 40
Precursor m/z: 166.0862550546
Precursor type: [M+H]+
m/z	relative intensity
39.022927	27
41.026001	10
43.017841	558
43.041651	12
51.022927	19
53.038577	19
54.046402	15
56.049476	11
64.030752	14
65.038577	532
66.033826	14
77.038577	46
80.049476	521
81.057301	137
91.041651	12
92.025666	31
92.049476	124
92.070605	10
93.057301	18
108.04439	57
109.052215	999
109.088601	18
124.07569	11
