Mass spectrum: 2-Amino-2-methylpropan-1-ol; ESI-QTOF; MS2; CE: 10; [M+H]+
Name: 2-Amino-2-methylpropan-1-ol
Formula: C4H11NO
Exact mass: 89.0840639806
SMILES: CC(C)(N)CO
InChI: InChI=1S/C4H11NO/c1-4(2,5)3-6/h6H,3,5H2,1-2H3
Instrument type: ESI-QTOF
Ms type: MS2
Ion mode: POSITIVE
Ionization: ESI
Collision energy: 10
Precursor m/z: 90.0913404323
Precursor type: [M+H]+
m/z	relative intensity
31.017841	11
39.022927	15
41.038577	12
43.054227	111
45.033491	62
55.054227	968
73.064791	999
90.09134	361
