Mass spectrum: 4-Amino-1,2,4-triazole; ESI-QTOF; MS2; CE: 40; [M+H]+
Name: 4-Amino-1,2,4-triazole
Name: DTXSID9033058
Formula: C2H4N4
Exact mass: 84.0435961572
SMILES: NN1C=NN=C1
InChI: InChI=1S/C2H4N4/c3-6-1-4-5-2-6/h1-2H,3H2
Instrument type: ESI-QTOF
Ms type: MS2
Ion mode: POSITIVE
Ionization: ESI
Collision energy: 40
Precursor m/z: 85.0508726089
Precursor type: [M+H]+
m/z	relative intensity
28.018175	21
30.021249	11
30.033826	26
31.029075	214
41.013424	67
42.021249	999
43.016498	10
43.029075	636
43.041651	12
55.029075	20
56.0369	50
58.039974	53
69.032149	26
85.050873	58
