Mass spectrum: N,N'-Dibutylthiourea; ESI-QTOF; MS2; CE: 10; [M+H]+
Name: N,N'-Dibutylthiourea
Formula: C9H20N2S
Exact mass: 188.1347193828
SMILES: CCCCNC(=S)NCCCC
InChI: InChI=1S/C9H20N2S/c1-3-5-7-10-9(12)11-8-6-4-2/h3-8H2,1-2H3,(H2,10,11,12)
Instrument type: ESI-QTOF
Ms type: MS2
Ion mode: POSITIVE
Ionization: ESI
Collision energy: 10
Precursor m/z: 189.1419958345
Precursor type: [M+H]+
m/z	relative intensity
41.038577	17
57.069877	186
59.990246	33
74.096426	999
116.052846	63
189.141996	503
