Mass spectrum: 2-Amino-6-methoxybenzothiazole; ESI-QTOF; MS2; CE: 40; [M+H]+
Name: 2-Amino-6-methoxybenzothiazole
Name: DTXSID9024485
Formula: C8H8N2OS
Exact mass: 180.0357336223
SMILES: COC1=CC2SC(N)=NC=2C=C1
InChI: InChI=1S/C8H8N2OS/c1-11-5-2-3-6-7(4-5)12-8(9)10-6/h2-4H,1H3,(H2,9,10)
Instrument type: ESI-QTOF
Ms type: MS2
Ion mode: POSITIVE
Ionization: ESI
Collision energy: 40
Precursor m/z: 181.043010074
Precursor type: [M+H]+
m/z	relative intensity
52.030752	91
59.990246	32
65.038577	17
67.041651	289
68.979347	18
69.987172	61
77.038577	12
78.033826	26
79.041651	89
80.049476	18
84.002822	32
93.987172	10
94.994997	38
95.049141	46
96.002822	382
105.044725	54
110.005896	216
110.06004	18
111.013721	718
111.055289	16
120.998071	51
122.005896	18
123.013721	19
123.997737	19
133.039639	27
137.016795	51
138.000811	10
138.02462	999
139.008636	11
150.02462	30
165.01171	11
166.019535	235
