Mass spectrum: Enadoline; ESI-QTOF; MS2; CE: 20; [M+H]+
Name: Enadoline
Formula: C24H32N2O3
Exact mass: 396.2412929025
SMILES: CN(C1CCC2(CC1N1CCCC1)CCCO2)C(=O)CC1C=CC=C2OC=CC2=1
InChI: InChI=1S/C24H32N2O3/c1-25(23(27)16-18-6-4-7-22-19(18)9-15-28-22)20-8-11-24(10-5-14-29-24)17-21(20)26-12-2-3-13-26/h4,6-7,9,15,20-21H,2-3,5,8,10-14,16-17H2,1H3
Instrument type: ESI-QTOF
Ms type: MS2
Ion mode: POSITIVE
Ionization: ESI
Collision energy: 20
Precursor m/z: 397.2485693542
Precursor type: [M+H]+
m/z	relative intensity
137.096091	48
168.138291	59
326.17507	999
326.247841	48
327.174342	11
397.248569	55
