Mass spectrum: FR150011; ESI-QTOF; MS2; CE: 40; [M+H]+
Name: FR150011
Name: DTXSID1048170
Formula: C24H23NO4S
Exact mass: 421.1347789603
SMILES: CC(C)(C)C1=CSC(=N1)C1=CC2C=C(C=CC=2O1)OCC1=CC=CC=C1CC(O)=O
InChI: InChI=1S/C24H23NO4S/c1-24(2,3)21-14-30-23(25-21)20-11-17-10-18(8-9-19(17)29-20)28-13-16-7-5-4-6-15(16)12-22(26)27/h4-11,14H,12-13H2,1-3H3,(H,26,27)
Instrument type: ESI-QTOF
Ms type: MS2
Ion mode: POSITIVE
Ionization: ESI
Collision energy: 40
Precursor m/z: 422.142055412
Precursor type: [M+H]+
m/z	relative intensity
93.069877	33
103.054227	11
121.064791	31
144.04439	17
175.045021	12
202.068497	28
203.039936	10
216.084147	15
217.091972	11
230.063411	42
245.086886	616
245.144401	18
246.092031	13
258.058326	22
259.066151	14
273.081801	999
273.148521	43
273.163777	23
274.089626	143
422.142055	24
