Mass spectrum: CP-457677; ESI-QTOF; MS2; CE: 40; [M-H]-
Name: CP-457677
Name: DTXSID2047278
Formula: C22H21FN2O3
Exact mass: 380.1536207516
SMILES: CC(C)(O)C1C=CC(CNC(=O)C2=CC=CN=C2OC2C=CC(F)=CC=2)=CC=1
InChI: InChI=1S/C22H21FN2O3/c1-22(2,27)16-7-5-15(6-8-16)14-25-20(26)19-4-3-13-24-21(19)28-18-11-9-17(23)10-12-18/h3-13,27H,14H2,1-2H3,(H,25,26)
Instrument type: ESI-QTOF
Ms type: MS2
Ion mode: NEGATIVE
Ionization: ESI
Collision energy: 40
Precursor m/z: 379.1463442999
Precursor type: [M-H]-
m/z	relative intensity
41.998537	71
57.034588	141
66.034923	13
92.014187	17
93.022012	170
94.029837	999
94.066223	17
95.030252	423
102.034923	104
110.041151	37
111.025167	18
117.072117	36
121.016927	11
122.024752	191
122.038471	114
134.024752	41
135.081539	390
136.020416	15
138.036066	22
140.050573	26
160.056801	21
161.040817	14
168.04663	17
172.056801	47
186.036066	19
188.051716	307
197.05205	11
198.072451	12
200.088101	10
213.046965	30
229.041879	11
240.119401	49
241.110827	10
248.095512	13
249.103337	12
250.087352	16
258.129966	53
266.106076	31
269.105742	11
343.125215	37
345.104479	10
