Mass spectrum: Carabersat; ESI-QTOF; MS2; CE: 10; [M+H]+
Name: Carabersat
Name: DTXSID6047319
Formula: C20H20FNO4
Exact mass: 357.1376363346
SMILES: CC(=O)C1C=C2C(NC(=O)C3C=CC(F)=CC=3)C(O)C(C)(C)OC2=CC=1
InChI: InChI=1S/C20H20FNO4/c1-11(23)13-6-9-16-15(10-13)17(18(24)20(2,3)26-16)22-19(25)12-4-7-14(21)8-5-12/h4-10,17-18,24H,1-3H3,(H,22,25)
Instrument type: ESI-QTOF
Ms type: MS2
Ion mode: POSITIVE
Ionization: ESI
Collision energy: 10
Precursor m/z: 358.1449127863
Precursor type: [M+H]+
m/z	relative intensity
43.017841	51
59.049141	69
123.024069	10
140.050618	42
159.080441	10
161.059706	263
177.091006	999
177.135945	21
201.091006	34
219.101571	592
219.154355	10
286.087398	16
340.134348	14
358.144913	812
