Mass spectrum: C.I. Basic Red 9; ESI-QTOF; MS2; CE: 20; [M+H]+
Name: C.I. Basic Red 9
Name: DTXSID1021247
Formula: C19H17N3
Exact mass: 287.1422475645
SMILES: NC1C=CC(=CC=1)C(C1C=CC(N)=CC=1)=C1C=CC(=N)C=C1
InChI: InChI=1S/C19H17N3/c20-16-7-1-13(2-8-16)19(14-3-9-17(21)10-4-14)15-5-11-18(22)12-6-15/h1-12,20H,21-22H2
Instrument type: ESI-QTOF
Ms type: MS2
Ion mode: POSITIVE
Ionization: ESI
Collision energy: 20
Precursor m/z: 288.1495240162
Precursor type: [M+H]+
m/z	relative intensity
195.091675	81
288.149524	999
