Mass spectrum: Ingliforib; ESI-QTOF; MS2; CE: 40; [M+H]+
Name: Ingliforib
Name: DTXSID4047252
Formula: C23H24ClN3O5
Exact mass: 457.1404486093
SMILES: OC(C(CC1C=CC=CC=1)NC(=O)C1=CC2=CC(Cl)=CC=C2N1)C(=O)N1CC(O)C(O)C1
InChI: InChI=1S/C23H24ClN3O5/c24-15-6-7-16-14(9-15)10-18(25-16)22(31)26-17(8-13-4-2-1-3-5-13)21(30)23(32)27-11-19(28)20(29)12-27/h1-7,9-10,17,19-21,25,28-30H,8,11-12H2,(H,26,31)
Instrument type: ESI-QTOF
Ms type: MS2
Ion mode: POSITIVE
Ionization: ESI
Collision energy: 40
Precursor m/z: 458.147725061
Precursor type: [M+H]+
m/z	relative intensity
68.049476	12
86.06004	24
91.054227	39
104.070605	117
115.054227	26
117.057301	10
120.080776	166
122.999604	30
130.04987	23
132.080776	142
133.064791	14
144.06552	22
150.010016	42
150.09134	56
162.076084	49
178.004931	999
178.054379	20
178.077702	11
