Mass spectrum: 1-Methylimidazole; ESI-QTOF; MS2; CE: 40; [M+H]+
Name: 1-Methylimidazole
Name: DTXSID6052291
Formula: C4H6N2
Exact mass: 82.0530982062
SMILES: CN1C=NC=C1
InChI: InChI=1S/C4H6N2/c1-6-3-2-5-4-6/h2-4H,1H3
Instrument type: ESI-QTOF
Ms type: MS2
Ion mode: POSITIVE
Ionization: ESI
Collision energy: 40
Precursor m/z: 83.0603746579
Precursor type: [M+H]+
m/z	relative intensity
29.038577	15
40.018175	254
41.026001	999
42.033826	728
54.033826	12
55.041651	23
56.049476	51
67.029075	377
68.0369	769
69.044725	51
69.057301	17
83.060375	94
