Mass spectrum: BPS-MPE4; ESI-QTOF; MS2; CE: 20; [M-H]-
Name: BPS-MPE4
Name: DTXSID4058655
Formula: C19H16O4S
Exact mass: 340.0769297296
SMILES: OC1C=CC=CC=1S(=O)(=O)C1C=CC(=CC=1)OCC1C=CC=CC=1
InChI: InChI=1S/C19H16O4S/c20-18-8-4-5-9-19(18)24(21,22)17-12-10-16(11-13-17)23-14-15-6-2-1-3-7-15/h1-13,20H,14H2
Instrument type: ESI-QTOF
Ms type: MS2
Ion mode: NEGATIVE
Ionization: ESI
Collision energy: 20
Precursor m/z: 339.0696532779
Precursor type: [M-H]-
m/z	relative intensity
184.052978	52
248.014878	999
339.069653	24
