Mass spectrum: Hexa(methoxymethyl)melamine; ESI-QTOF; MS2; CE: 20; [M+H]+
Name: Hexa(methoxymethyl)melamine
Name: DTXSID9027520
Formula: C15H30N6O6
Exact mass: 390.2226827352
SMILES: COCN(COC)C1N=C(N=C(N=1)N(COC)COC)N(COC)COC
InChI: InChI=1S/C15H30N6O6/c1-22-7-19(8-23-2)13-16-14(20(9-24-3)10-25-4)18-15(17-13)21(11-26-5)12-27-6/h7-12H2,1-6H3
Instrument type: ESI-QTOF
Ms type: MS2
Ion mode: POSITIVE
Ionization: ESI
Collision energy: 20
Precursor m/z: 391.2299591869
Precursor type: [M+H]+
m/z	relative intensity
45.033491	11
177.088321	493
207.098885	999
207.14919	22
253.14075	35
283.151315	240
329.19318	13
