Mass spectrum: 2-Morpholinoethylamine; ESI-QTOF; MS2; CE: 40; [M+H]+
Name: 2-Morpholinoethylamine
Name: DTXSID4044408
Formula: C6H14N2O
Exact mass: 130.1106130837
SMILES: NCCN1CCOCC1
InChI: InChI=1S/C6H14N2O/c7-1-2-8-3-5-9-6-4-8/h1-7H2
Instrument type: ESI-QTOF
Ms type: MS2
Ion mode: POSITIVE
Ionization: ESI
Collision energy: 40
Precursor m/z: 131.1178895354
Precursor type: [M+H]+
m/z	relative intensity
39.022927	29
41.038577	204
42.033826	909
43.041651	10
43.054227	45
44.049476	999
45.033491	79
53.038577	19
54.033826	17
55.041651	137
56.049476	56
58.065126	19
68.049476	69
70.065126	259
84.080776	28
88.07569	17
114.09134	27
