Mass spectrum: Ethyl 3-hydroxybenzoate; ESI-QTOF; MS2; CE: 20; [M-H]-
Name: Ethyl 3-hydroxybenzoate
Formula: C9H10O3
Exact mass: 166.0629941859
SMILES: CCOC(=O)C1C=CC=C(O)C=1
InChI: InChI=1S/C9H10O3/c1-2-12-9(11)7-4-3-5-8(10)6-7/h3-6,10H,2H2,1H3
Instrument type: ESI-QTOF
Ms type: MS2
Ion mode: NEGATIVE
Ionization: ESI
Collision energy: 20
Precursor m/z: 165.0557177342
Precursor type: [M-H]-
m/z	relative intensity
92.026763	999
92.063149	28
93.034588	324
136.016593	15
137.024418	90
165.055718	43
