Mass spectrum: N-(Butoxymethyl)acrylamide; ESI-QTOF; MS2; CE: 20; [M+H]+
Name: N-(Butoxymethyl)acrylamide
Name: DTXSID9027443
Formula: C8H15NO2
Exact mass: 157.1102787305
SMILES: CCCCOCNC(=O)C=C
InChI: InChI=1S/C8H15NO2/c1-3-5-6-11-7-9-8(10)4-2/h4H,2-3,5-7H2,1H3,(H,9,10)
Instrument type: ESI-QTOF
Ms type: MS2
Ion mode: POSITIVE
Ionization: ESI
Collision energy: 20
Precursor m/z: 158.1175551822
Precursor type: [M+H]+
m/z	relative intensity
47.00018	19
55.017841	43
61.007276	71
62.015101	51
63.022927	12
63.994366	241
65.002191	67
65.99744	10
79.017841	999
79.054227	24
80.025666	870
80.062052	21
81.020915	36
