Mass spectrum: MK-274; ESI-QTOF; MS2; CE: 40; [M-H]-
Name: MK-274
Name: DTXSID5047328
Formula: C18H12F6N4O2
Exact mass: 430.086444857
SMILES: NC(=O)C1NN=C(N=1)C1C=C(C=CC=1)C1=CC(F)=CC=C1OCC(F)(F)C(F)(F)F
InChI: InChI=1S/C18H12F6N4O2/c19-11-4-5-13(30-8-17(20,21)18(22,23)24)12(7-11)9-2-1-3-10(6-9)15-26-16(14(25)29)28-27-15/h1-7H,8H2,(H2,25,29)(H,26,27,28)
Instrument type: ESI-QTOF
Ms type: MS2
Ion mode: NEGATIVE
Ionization: ESI
Collision energy: 40
Precursor m/z: 429.0791684053
Precursor type: [M-H]-
m/z	relative intensity
41.014522	136
41.998537	251
68.995758	88
92.995758	14
108.990673	47
212.050573	10
230.040951	36
231.029933	23
236.06279	35
250.047179	29
251.031395	313
252.032911	17
252.056762	58
254.073555	27
258.042174	35
259.032457	12
276.057705	47
277.035612	10
277.060564	11
278.043437	97
279.038686	15
286.042254	28
295.063518	11
298.053488	18
304.0389	12
306.048483	243
318.05455	16
320.044105	11
326.05467	999
327.05737	45
346.060898	81
366.067127	16
