Mass spectrum: SB236057A; ESI-QTOF; MS2; CE: 40; [M+H]+
Name: SB236057A
Name: DTXSID5047320
Formula: C33H34N4O3
Exact mass: 534.2630909811
SMILES: CCN1CCC2(COC3C=C4CCN(C(=O)C5C=CC(=CC=5)C5=CC=C(C=C5C)C5=NN=C(C)O5)C4=CC2=3)CC1
InChI: InChI=1S/C33H34N4O3/c1-4-36-15-12-33(13-16-36)20-39-30-18-25-11-14-37(29(25)19-28(30)33)32(38)24-7-5-23(6-8-24)27-10-9-26(17-21(27)2)31-35-34-22(3)40-31/h5-10,17-19H,4,11-16,20H2,1-3H3
Instrument type: ESI-QTOF
Ms type: MS2
Ion mode: POSITIVE
Ionization: ESI
Collision energy: 40
Precursor m/z: 535.2703674328
Precursor type: [M+H]+
m/z	relative intensity
56.049476	12
58.065126	75
84.080776	175
96.080776	22
110.096426	91
124.112076	32
236.069262	28
257.16484	11
277.097154	355
277.158692	11
450.181218	79
478.212518	10
478.248904	24
494.243818	19
533.254717	39
535.270367	999
