Mass spectrum: 4-(4-(Acetyloxy)phenyl)-2-butanone; ESI-QTOF; MS2; CE: 40; [M+H]+
Name: 4-(4-(Acetyloxy)phenyl)-2-butanone
Name: DTXSID2035481
Formula: C12H14O3
Exact mass: 206.0942943135
SMILES: CC(=O)CCC1C=CC(=CC=1)OC(C)=O
InChI: InChI=1S/C12H14O3/c1-9(13)3-4-11-5-7-12(8-6-11)15-10(2)14/h5-8H,3-4H2,1-2H3
Instrument type: ESI-QTOF
Ms type: MS2
Ion mode: POSITIVE
Ionization: ESI
Collision energy: 40
Precursor m/z: 207.1015707652
Precursor type: [M+H]+
m/z	relative intensity
39.022927	17
43.017841	47
51.022927	14
55.017841	48
77.038577	380
79.054227	104
91.054227	15
107.049141	999
107.085527	10
