Mass spectrum: 1-Ethyl-2-pyrrolidinone; ESI-QTOF; MS2; CE: 10; [M+H]+
Name: 1-Ethyl-2-pyrrolidinone
Name: DTXSID3044413
Formula: C6H11NO
Exact mass: 113.0840639806
SMILES: CCN1CCCC1=O
InChI: InChI=1S/C6H11NO/c1-2-7-5-3-4-6(7)8/h2-5H2,1H3
Instrument type: ESI-QTOF
Ms type: MS2
Ion mode: POSITIVE
Ionization: ESI
Collision energy: 10
Precursor m/z: 114.0913404323
Precursor type: [M+H]+
m/z	relative intensity
44.01309	15
69.033491	21
86.06004	129
112.07569	15
114.09134	999
