Mass spectrum: 2,6-Dihydroxypyridine; ESI-QTOF; MS2; CE: 10; [M-H]-
Name: 2,6-Dihydroxypyridine
Formula: C5H5NO2
Exact mass: 111.0320284115
SMILES: OC1=CC=CC(=O)N1
InChI: InChI=1S/C5H5NO2/c7-4-2-1-3-5(8)6-4/h1-3H,(H2,6,7,8)
Instrument type: ESI-QTOF
Ms type: MS2
Ion mode: NEGATIVE
Ionization: ESI
Collision energy: 10
Precursor m/z: 110.0247519598
Precursor type: [M-H]-
m/z	relative intensity
40.019273	108
66.034923	844
110.024752	999
