Mass spectrum: Febuxostat; ESI-QTOF; MS2; CE: 10; [M-H]-
Name: Febuxostat
Name: DTXSID8048650
Formula: C16H16N2O3S
Exact mass: 316.0881631221
SMILES: CC1N=C(SC=1C(O)=O)C1C=C(C#N)C(=CC=1)OCC(C)C
InChI: InChI=1S/C16H16N2O3S/c1-9(2)8-21-13-5-4-11(6-12(13)7-17)15-18-10(3)14(22-15)16(19)20/h4-6,9H,8H2,1-3H3,(H,19,20)
Instrument type: ESI-QTOF
Ms type: MS2
Ion mode: NEGATIVE
Ionization: ESI
Collision energy: 10
Precursor m/z: 315.0808866704
Precursor type: [M-H]-
m/z	relative intensity
70.996094	680
71.025086	20
71.041033	12
271.091057	999
