Mass spectrum: 7-(Dimethylamino)-4-methylcoumarin; ESI-QTOF; MS2; CE: 10; [M+H]+
Name: 7-(Dimethylamino)-4-methylcoumarin
Formula: C12H13NO2
Exact mass: 203.0946286667
SMILES: CC1=CC(=O)OC2C=C(C=CC1=2)N(C)C
InChI: InChI=1S/C12H13NO2/c1-8-6-12(14)15-11-7-9(13(2)3)4-5-10(8)11/h4-7H,1-3H3
Instrument type: ESI-QTOF
Ms type: MS2
Ion mode: POSITIVE
Ionization: ESI
Collision energy: 10
Precursor m/z: 204.1019051184
Precursor type: [M+H]+
m/z	relative intensity
204.101905	999
