Mass spectrum: Trelanserin; ESI-QTOF; MS2; CE: 10; [M-H]-
Name: Trelanserin
Name: DTXSID2047355
Formula: C24H24FN5O2S
Exact mass: 465.1634739772
SMILES: NC(=O)CN1C2C=C(F)C=CC=2C(CCN2CCN(CC2)C2=NC=CC3SC=CC=32)=CC1=O
InChI: InChI=1S/C24H24FN5O2S/c25-17-1-2-18-16(13-23(32)30(15-22(26)31)20(18)14-17)4-7-28-8-10-29(11-9-28)24-19-5-12-33-21(19)3-6-27-24/h1-3,5-6,12-14H,4,7-11,15H2,(H2,26,31)
Instrument type: ESI-QTOF
Ms type: MS2
Ion mode: NEGATIVE
Ionization: ESI
Collision energy: 10
Precursor m/z: 464.1561975255
Precursor type: [M-H]-
m/z	relative intensity
41.998537	523
42.022347	10
44.998203	30
59.013853	95
85.029503	24
102.977171	10
115.038725	17
133.065689	15
145.049273	29
202.065571	11
218.074856	11
220.055006	22
245.073179	52
279.125135	43
440.156198	10
446.145633	12
450.140547	40
451.148372	16
462.140547	28
464.156198	999
