Mass spectrum: Benzyl acetate; ESI-QTOF; MS2; CE: 20; [M+H]+
Name: Benzyl acetate
Name: DTXSID0020151
Formula: C9H10O2
Exact mass: 150.0680795636
SMILES: CC(=O)OCC1C=CC=CC=1
InChI: InChI=1S/C9H10O2/c1-8(10)11-7-9-5-3-2-4-6-9/h2-6H,7H2,1H3
Instrument type: ESI-QTOF
Ms type: MS2
Ion mode: POSITIVE
Ionization: ESI
Collision energy: 20
Precursor m/z: 151.0753560153
Precursor type: [M+H]+
m/z	relative intensity
45.033491	180
61.007276	106
62.015101	15
63.994366	278
79.017841	999
79.054227	26
