Mass spectrum: 5-Chlorosalicylanilide; ESI-QTOF; MS2; CE: 10; [M+H]+
Name: 5-Chlorosalicylanilide
Name: DTXSID9037749
Formula: C13H10ClNO2
Exact mass: 247.040006281
SMILES: OC1C=CC(Cl)=CC=1C(=O)NC1C=CC=CC=1
InChI: InChI=1S/C13H10ClNO2/c14-9-6-7-12(16)11(8-9)13(17)15-10-4-2-1-3-5-10/h1-8,16H,(H,15,17)
Instrument type: ESI-QTOF
Ms type: MS2
Ion mode: POSITIVE
Ionization: ESI
Collision energy: 10
Precursor m/z: 248.0472827327
Precursor type: [M+H]+
m/z	relative intensity
94.065126	261
120.04439	10
154.989434	153
248.047283	999
