Mass spectrum: N-(3-Chloro-4-methylphenyl)acetamide; ESI-QTOF; MS2; CE: 40; [M+H]+
Name: N-(3-Chloro-4-methylphenyl)acetamide
Name: DTXSID8042181
Formula: C9H10ClNO
Exact mass: 183.0450916587
SMILES: CC1C=CC(=CC=1Cl)NC(C)=O
InChI: InChI=1S/C9H10ClNO/c1-6-3-4-8(5-9(6)10)11-7(2)12/h3-5H,1-2H3,(H,11,12)
Instrument type: ESI-QTOF
Ms type: MS2
Ion mode: POSITIVE
Ionization: ESI
Collision energy: 40
Precursor m/z: 184.0523681104
Precursor type: [M+H]+
m/z	relative intensity
43.017841	256
65.038577	19
77.038577	22
79.054227	33
89.038577	13
90.046402	22
92.049476	13
106.065126	999
107.072951	958
127.018328	89
