Mass spectrum: CP-465394; ESI-QTOF; MS2; CE: 10; [M+H]+
Name: CP-465394
Name: DTXSID9047255
Formula: C20H28N2O5S
Exact mass: 408.1718927495
SMILES: CC(C)C1=CC=CC(C(C)C)=C1NC(=O)NS(=O)(=O)C1=CC(=CO1)C(C)(C)O
InChI: InChI=1S/C20H28N2O5S/c1-12(2)15-8-7-9-16(13(3)4)18(15)21-19(23)22-28(25,26)17-10-14(11-27-17)20(5,6)24/h7-13,24H,1-6H3,(H2,21,22,23)
Instrument type: ESI-QTOF
Ms type: MS2
Ion mode: POSITIVE
Ionization: ESI
Collision energy: 10
Precursor m/z: 409.1791692012
Precursor type: [M+H]+
m/z	relative intensity
178.159026	14
188.0369	192
349.121654	68
391.168605	999
