Mass spectrum: 2,6-Dibromo-4-nitroaniline; ESI-QTOF; MS2; CE: 20; [M-H]-
Name: 2,6-Dibromo-4-nitroaniline
Formula: C6H4Br2N2O2
Exact mass: 293.863953187
SMILES: NC1C(Br)=CC(=CC=1Br)[N+]([O-])=O
InChI: InChI=1S/C6H4Br2N2O2/c7-4-1-3(10(11)12)2-5(8)6(4)9/h1-2H,9H2
Instrument type: ESI-QTOF
Ms type: MS2
Ion mode: NEGATIVE
Ionization: ESI
Collision energy: 20
Precursor m/z: 292.8566767353
Precursor type: [M-H]-
m/z	relative intensity
78.918886	484
182.932525	23
212.930514	210
292.856677	999
