Mass spectrum: epsilon-Decalactone; ESI-QTOF; MS2; CE: 40; [M+H]+
Name: epsilon-Decalactone
Name: DTXSID8047551
Formula: C10H18O2
Exact mass: 170.1306798188
SMILES: CCCCC1CCCCC(=O)O1
InChI: InChI=1S/C10H18O2/c1-2-3-6-9-7-4-5-8-10(11)12-9/h9H,2-8H2,1H3
Instrument type: ESI-QTOF
Ms type: MS2
Ion mode: POSITIVE
Ionization: ESI
Collision energy: 40
Precursor m/z: 171.1379562705
Precursor type: [M+H]+
m/z	relative intensity
39.022927	145
41.038577	999
41.059706	16
43.017841	119
43.054227	146
45.033491	109
51.022927	14
53.038577	33
55.017841	24
55.054227	798
57.069877	75
58.041316	44
65.038577	18
67.054227	42
69.069877	109
77.038577	39
79.054227	59
81.069877	29
91.054227	44
