Mass spectrum: Troglitazone; ESI-QTOF; MS2; CE: 10; [M-H]-
Name: Troglitazone
Formula: C24H27NO5S
Exact mass: 441.1609937102
SMILES: CC1=C(O)C(C)=C2CCC(C)(COC3=CC=C(CC4SC(=O)NC4=O)C=C3)OC2=C1C
InChI: InChI=1S/C24H27NO5S/c1-13-14(2)21-18(15(3)20(13)26)9-10-24(4,30-21)12-29-17-7-5-16(6-8-17)11-19-22(27)25-23(28)31-19/h5-8,19,26H,9-12H2,1-4H3,(H,25,27,28)
Instrument type: ESI-QTOF
Ms type: MS2
Ion mode: NEGATIVE
Ionization: ESI
Collision energy: 10
Precursor m/z: 440.1537172585
Precursor type: [M-H]-
m/z	relative intensity
41.998537	31
440.153717	999
