Mass spectrum: 2-(Pyridin-4-yl)ethanol; ESI-QTOF; MS2; CE: 40; [M+H]+
Name: 2-(Pyridin-4-yl)ethanol
Name: DTXSID4044953
Formula: C7H9NO
Exact mass: 123.0684139168
SMILES: OCCC1C=CN=CC=1
InChI: InChI=1S/C7H9NO/c9-6-3-7-1-4-8-5-2-7/h1-2,4-5,9H,3,6H2
Instrument type: ESI-QTOF
Ms type: MS2
Ion mode: POSITIVE
Ionization: ESI
Collision energy: 40
Precursor m/z: 124.0756903685
Precursor type: [M+H]+
m/z	relative intensity
39.022927	68
40.030752	68
41.026001	54
41.038577	23
51.022927	184
52.030752	36
53.038577	58
54.033826	61
65.038577	374
66.046402	321
67.041651	458
77.038577	319
78.033826	160
79.041651	41
79.054227	45
80.049476	59
91.041651	10
92.049476	704
93.057301	999
94.065126	21
104.049476	18
106.065126	222
