Mass spectrum: 4-Acetylaminophenylacetic acid; ESI-QTOF; MS2; CE: 40; [M+H]+
Name: 4-Acetylaminophenylacetic acid
Name: DTXSID0020020
Formula: C10H11NO3
Exact mass: 193.0738932252
SMILES: CC(=O)NC1C=CC(CC(O)=O)=CC=1
InChI: InChI=1S/C10H11NO3/c1-7(12)11-9-4-2-8(3-5-9)6-10(13)14/h2-5H,6H2,1H3,(H,11,12)(H,13,14)
Instrument type: ESI-QTOF
Ms type: MS2
Ion mode: POSITIVE
Ionization: ESI
Collision energy: 40
Precursor m/z: 194.0811696769
Precursor type: [M+H]+
m/z	relative intensity
43.017841	144
77.038577	140
79.054227	122
80.049476	20
89.038577	15
93.057301	16
106.065126	999
107.049141	23
