Mass spectrum: 2-Naphthol-3,6-disulfonic acid; ESI-QTOF; MS2; CE: 40; [M-H]-
Name: 2-Naphthol-3,6-disulfonic acid
Name: DTXSID8044543
Formula: C10H8O7S2
Exact mass: 303.9711440713
SMILES: OC1=CC2C=CC(=CC=2C=C1S(O)(=O)=O)S(O)(=O)=O
InChI: InChI=1S/C10H8O7S2/c11-9-4-6-1-2-8(18(12,13)14)3-7(6)5-10(9)19(15,16)17/h1-5,11H,(H,12,13,14)(H,15,16,17)
Instrument type: ESI-QTOF
Ms type: MS2
Ion mode: NEGATIVE
Ionization: ESI
Collision energy: 40
Precursor m/z: 302.9638676196
Precursor type: [M-H]-
m/z	relative intensity
79.957363	528
80.965188	11
115.055324	17
130.042413	14
131.050238	125
141.034588	25
143.050238	508
158.037328	17
159.045153	781
223.007053	999
