Mass spectrum: N-Phenyldiethanolamine; ESI-QTOF; MS2; CE: 20; [M+H]+
Name: N-Phenyldiethanolamine
Formula: C10H15NO2
Exact mass: 181.1102787305
SMILES: OCCN(CCO)C1C=CC=CC=1
InChI: InChI=1S/C10H15NO2/c12-8-6-11(7-9-13)10-4-2-1-3-5-10/h1-5,12-13H,6-9H2
Instrument type: ESI-QTOF
Ms type: MS2
Ion mode: POSITIVE
Ionization: ESI
Collision energy: 20
Precursor m/z: 182.1175551822
Precursor type: [M+H]+
m/z	relative intensity
45.033491	148
77.038577	29
79.054227	25
91.054227	27
93.057301	11
93.069877	15
94.065126	34
103.054227	39
104.049476	33
106.065126	336
117.057301	19
118.065126	119
119.072951	175
120.080776	999
130.065126	12
131.072951	27
137.083515	66
138.09134	53
146.096426	87
164.10699	189
182.117555	95
