Mass spectrum: 4-Pyridinol; ESI-QTOF; MS2; CE: 20; [M-H]-
Name: 4-Pyridinol
Name: DTXSID2052310
Formula: C5H5NO
Exact mass: 95.0371137892
SMILES: OC1C=CN=CC=1
InChI: InChI=1S/C5H5NO/c7-5-1-3-6-4-2-5/h1-4H,(H,6,7)
Instrument type: ESI-QTOF
Ms type: MS2
Ion mode: NEGATIVE
Ionization: ESI
Collision energy: 20
Precursor m/z: 94.0298373375
Precursor type: [M-H]-
m/z	relative intensity
40.019273	52
41.003288	53
52.019273	24
53.003288	10
65.998537	10
66.034923	64
68.014187	20
94.029837	999
