Mass spectrum: N-(Butoxymethyl)acrylamide; ESI-QTOF; MS2; CE: 20; [M-H]-
Name: N-(Butoxymethyl)acrylamide
Name: DTXSID9027443
Formula: C8H15NO2
Exact mass: 157.1102787305
SMILES: CCCCOCNC(=O)C=C
InChI: InChI=1S/C8H15NO2/c1-3-5-6-11-7-9-8(10)4-2/h4H,2-3,5-7H2,1H3,(H,9,10)
Instrument type: ESI-QTOF
Ms type: MS2
Ion mode: NEGATIVE
Ionization: ESI
Collision energy: 20
Precursor m/z: 156.1030022788
Precursor type: [M-H]-
m/z	relative intensity
41.998537	222
52.019273	58
55.018938	47
71.050238	999
71.086624	24
71.095177	10
73.065888	82
84.045487	25
