Mass spectrum: CP-465394; ESI-QTOF; MS2; CE: 40; [M+H]+
Name: CP-465394
Name: DTXSID9047255
Formula: C20H28N2O5S
Exact mass: 408.1718927495
SMILES: CC(C)C1=CC=CC(C(C)C)=C1NC(=O)NS(=O)(=O)C1=CC(=CO1)C(C)(C)O
InChI: InChI=1S/C20H28N2O5S/c1-12(2)15-8-7-9-16(13(3)4)18(15)21-19(23)22-28(25,26)17-10-14(11-27-17)20(5,6)24/h7-13,24H,1-6H3,(H2,21,22,23)
Instrument type: ESI-QTOF
Ms type: MS2
Ion mode: POSITIVE
Ionization: ESI
Collision energy: 40
Precursor m/z: 409.1791692012
Precursor type: [M+H]+
m/z	relative intensity
41.038577	93
43.017841	93
43.054227	13
53.038577	82
55.017841	21
55.054227	11
59.049141	14
63.985161	127
66.046402	11
67.054227	50
68.049476	118
68.997106	11
69.033491	16
69.069877	34
77.038577	99
79.054227	505
80.062052	233
81.033491	13
81.057301	36
81.069877	180
82.065126	11
83.049141	13
91.054227	20
94.065126	150
95.049141	42
96.080776	37
97.064791	108
107.049141	67
108.056966	117
120.080776	26
123.044056	43
124.07569	37
125.059706	11
133.101177	11
134.096426	19
136.112076	173
144.080776	35
160.00629	462
162.08866	11
162.127726	11
171.011041	44
178.159026	44
186.127726	44
188.03759	999
189.020915	152
214.016855	11
