Mass spectrum: Hexamethylphosphoramide; ESI-QTOF; MS2; CE: 10; [M+H]+
Name: Hexamethylphosphoramide
Name: DTXSID6020694
Formula: C6H18N3OP
Exact mass: 179.1187487087
SMILES: CN(C)P(=O)(N(C)C)N(C)C
InChI: InChI=1S/C6H18N3OP/c1-7(2)11(10,8(3)4)9(5)6/h1-6H3
Instrument type: ESI-QTOF
Ms type: MS2
Ion mode: POSITIVE
Ionization: ESI
Collision energy: 10
Precursor m/z: 180.1260251604
Precursor type: [M+H]+
m/z	relative intensity
44.049476	15
135.068176	999
137.083826	10
180.126025	282
