Mass spectrum: 2,6-Diaminopyridine; ESI-QTOF; MS2; CE: 10; [M+H]+
Name: 2,6-Diaminopyridine
Name: DTXSID0040127
Formula: C5H7N3
Exact mass: 109.0639972455
SMILES: NC1C=CC=C(N)N=1
InChI: InChI=1S/C5H7N3/c6-4-2-1-3-5(7)8-4/h1-3H,(H4,6,7,8)
Instrument type: ESI-QTOF
Ms type: MS2
Ion mode: POSITIVE
Ionization: ESI
Collision energy: 10
Precursor m/z: 110.0712736972
Precursor type: [M+H]+
m/z	relative intensity
66.033826	47
93.044725	278
110.071274	999
