Mass spectrum: 4-(4-(Acetyloxy)phenyl)-2-butanone; ESI-QTOF; MS2; CE: 10; [M+H]+
Name: 4-(4-(Acetyloxy)phenyl)-2-butanone
Name: DTXSID2035481
Formula: C12H14O3
Exact mass: 206.0942943135
SMILES: CC(=O)CCC1C=CC(=CC=1)OC(C)=O
InChI: InChI=1S/C12H14O3/c1-9(13)3-4-11-5-7-12(8-6-11)15-10(2)14/h5-8H,3-4H2,1-2H3
Instrument type: ESI-QTOF
Ms type: MS2
Ion mode: POSITIVE
Ionization: ESI
Collision energy: 10
Precursor m/z: 207.1015707652
Precursor type: [M+H]+
m/z	relative intensity
107.049141	999
147.080441	89
149.059706	25
189.091006	29
