Mass spectrum: 2,2'-[(3-Aminopropyl)imino]diethanol; ESI-QTOF; MS2; CE: 40; [M+H]+
Name: 2,2'-[(3-Aminopropyl)imino]diethanol
Name: DTXSID2044680
Formula: C7H18N2O2
Exact mass: 162.1368278336
SMILES: NCCCN(CCO)CCO
InChI: InChI=1S/C7H18N2O2/c8-2-1-3-9(4-6-10)5-7-11/h10-11H,1-8H2
Instrument type: ESI-QTOF
Ms type: MS2
Ion mode: POSITIVE
Ionization: ESI
Collision energy: 40
Precursor m/z: 163.1441042853
Precursor type: [M+H]+
m/z	relative intensity
30.033826	61
39.022927	16
41.026001	18
41.038577	185
42.033826	94
43.017841	13
43.041651	56
43.054227	15
44.049476	123
45.033491	999
45.057301	29
45.069877	18
56.049476	906
56.083181	25
56.094414	14
58.065126	602
58.098831	12
70.065126	114
72.080776	20
74.06004	228
88.07569	32
118.086255	80
