Mass spectrum: 3-Hydroxy-N-(3-nitrophenyl)naphthalene-2-carboxamide; ESI-QTOF; MS2; CE: 10; [M-H]-
Name: 3-Hydroxy-N-(3-nitrophenyl)naphthalene-2-carboxamide
Name: DTXSID3044544
Formula: C17H12N2O4
Exact mass: 308.0797068868
SMILES: [O-][N+](=O)C1=CC(=CC=C1)NC(=O)C1=CC2C=CC=CC=2C=C1O
InChI: InChI=1S/C17H12N2O4/c20-16-9-12-5-2-1-4-11(12)8-15(16)17(21)18-13-6-3-7-14(10-13)19(22)23/h1-10,20H,(H,18,21)
Instrument type: ESI-QTOF
Ms type: MS2
Ion mode: NEGATIVE
Ionization: ESI
Collision energy: 10
Precursor m/z: 307.0724304351
Precursor type: [M-H]-
m/z	relative intensity
307.07243	999
