Mass spectrum: SB413217A; ESI-QTOF; MS2; CE: 20; [M+H]+
Name: SB413217A
Formula: C30H35FN4O2
Exact mass: 502.2744045907
SMILES: CC1=NC(=NO1)C1C=C2CCN(CCC2=CC=1)CCC1CCC(CC1)NC(=O)/C=C/C1=CC=C(F)C=C1
InChI: InChI=1S/C30H35FN4O2/c1-21-32-30(34-37-21)26-8-7-24-15-18-35(19-16-25(24)20-26)17-14-23-4-11-28(12-5-23)33-29(36)13-6-22-2-9-27(31)10-3-22/h2-3,6-10,13,20,23,28H,4-5,11-12,14-19H2,1H3,(H,33,36)/b13-6+
Instrument type: ESI-QTOF
Ms type: MS2
Ion mode: POSITIVE
Ionization: ESI
Collision energy: 20
Precursor m/z: 503.2816810424
Precursor type: [M+H]+
m/z	relative intensity
149.039719	86
242.128789	11
338.222689	44
355.249238	24
461.271116	23
503.281681	999
