Mass spectrum: 4-Methoxy-2-methylaniline; ESI-QTOF; MS2; CE: 10; [M+H]+
Name: 4-Methoxy-2-methylaniline
Formula: C8H11NO
Exact mass: 137.0840639806
SMILES: CC1C=C(C=CC=1N)OC
InChI: InChI=1S/C8H11NO/c1-6-5-7(10-2)3-4-8(6)9/h3-5H,9H2,1-2H3
Instrument type: ESI-QTOF
Ms type: MS2
Ion mode: POSITIVE
Ionization: ESI
Collision energy: 10
Precursor m/z: 138.0913404323
Precursor type: [M+H]+
m/z	relative intensity
77.038577	15
79.017841	45
91.054227	26
106.065126	84
107.072951	103
108.04439	40
108.080776	11
121.064791	43
122.06004	20
123.067865	269
124.07569	19
137.083515	16
138.09134	999
