Mass spectrum: 2,4-Dihydroxypyridine; ESI-QTOF; MS2; CE: 40; [M+H]+
Name: 2,4-Dihydroxypyridine
Name: DTXSID90274238
Formula: C5H5NO2
Exact mass: 111.0320284115
SMILES: OC1=CC(O)=NC=C1
InChI: InChI=1S/C5H5NO2/c7-4-1-2-6-5(8)3-4/h1-3H,(H2,6,7,8)
Instrument type: ESI-QTOF
Ms type: MS2
Ion mode: POSITIVE
Ionization: ESI
Collision energy: 40
Precursor m/z: 112.0393048632
Precursor type: [M+H]+
m/z	relative intensity
39.022927	649
40.018175	63
41.002191	15
43.017841	71
44.01309	176
50.015101	61
51.022927	92
51.03148	12
53.002191	572
53.026001	13
53.99744	105
54.010016	12
66.033826	32
68.01309	167
68.025666	10
68.997106	111
70.02874	45
75.01035	69
76.018175	999
76.039305	70
94.02874	130
112.039305	30
