Mass spectrum: Candoxatril; ESI-QTOF; MS2; CE: 10; [M-H]-
Name: Candoxatril
Formula: C29H41NO7
Exact mass: 515.2883026714
SMILES: COCCOCC(CC1(CCCC1)C(=O)NC1CCC(CC1)C(O)=O)C(=O)OC1=CC2CCCC=2C=C1
InChI: InChI=1S/C29H41NO7/c1-35-15-16-36-19-23(27(33)37-25-12-9-20-5-4-6-22(20)17-25)18-29(13-2-3-14-29)28(34)30-24-10-7-21(8-11-24)26(31)32/h9,12,17,21,23-24H,2-8,10-11,13-16,18-19H2,1H3,(H,30,34)(H,31,32)
Instrument type: ESI-QTOF
Ms type: MS2
Ion mode: NEGATIVE
Ionization: ESI
Collision energy: 10
Precursor m/z: 514.2810262197
Precursor type: [M-H]-
m/z	relative intensity
124.076788	25
133.065888	102
304.155432	999
304.219649	13
305.160577	30
380.207861	251
438.228597	47
514.281026	63
