Mass spectrum: HMR1426; ESI-QTOF; MS2; CE: 10; [M+H]+
Name: HMR1426
Name: DTXSID9047338
Formula: C16H12ClNOS
Exact mass: 301.0328124525
SMILES: OC12N=C(SC1CC1=CC(Cl)=CC=C21)C1C=CC=CC=1
InChI: InChI=1S/C16H12ClNOS/c17-12-6-7-13-11(8-12)9-14-16(13,19)18-15(20-14)10-4-2-1-3-5-10/h1-8,14,19H,9H2
Instrument type: ESI-QTOF
Ms type: MS2
Ion mode: POSITIVE
Ionization: ESI
Collision energy: 10
Precursor m/z: 302.0400889042
Precursor type: [M+H]+
m/z	relative intensity
104.049476	188
165.010169	16
180.987325	70
198.99789	245
285.01354	104
302.040089	999
