Mass spectrum: Pyromellitic acid; ESI-QTOF; MS2; CE: 40; [M-H]-
Name: Pyromellitic acid
Formula: C10H6O8
Exact mass: 254.0062671698
SMILES: OC(=O)C1=CC(=C(C=C1C(O)=O)C(O)=O)C(O)=O
InChI: InChI=1S/C10H6O8/c11-7(12)3-1-4(8(13)14)6(10(17)18)2-5(3)9(15)16/h1-2H,(H,11,12)(H,13,14)(H,15,16)(H,17,18)
Instrument type: ESI-QTOF
Ms type: MS2
Ion mode: NEGATIVE
Ionization: ESI
Collision energy: 40
Precursor m/z: 252.9989907181
Precursor type: [M-H]-
m/z	relative intensity
49.008374	53
51.024024	10
75.024024	847
77.039674	499
92.026763	11
119.013853	21
121.029503	999
147.008768	18
