Mass spectrum: 16-Methylheptadecanoic acid; ESI-QTOF; MS2; CE: 20; [M-H]-
Name: 16-Methylheptadecanoic acid
Name: DTXSID1040790
Formula: C18H36O2
Exact mass: 284.271530393
SMILES: CC(C)CCCCCCCCCCCCCCC(O)=O
InChI: InChI=1S/C18H36O2/c1-17(2)15-13-11-9-7-5-3-4-6-8-10-12-14-16-18(19)20/h17H,3-16H2,1-2H3,(H,19,20)
Instrument type: ESI-QTOF
Ms type: MS2
Ion mode: NEGATIVE
Ionization: ESI
Collision energy: 20
Precursor m/z: 283.2642539413
Precursor type: [M-H]-
m/z	relative intensity
283.264254	999
