Mass spectrum: 1,2-Cyclohexanediamine; ESI-QTOF; MS2; CE: 10; [M+H]+
Name: 1,2-Cyclohexanediamine
Name: DTXSID0027301
Formula: C6H14N2
Exact mass: 114.1156984614
SMILES: NC1CCCCC1N
InChI: InChI=1S/C6H14N2/c7-5-3-1-2-4-6(5)8/h5-6H,1-4,7-8H2
Instrument type: ESI-QTOF
Ms type: MS2
Ion mode: POSITIVE
Ionization: ESI
Collision energy: 10
Precursor m/z: 115.1229749131
Precursor type: [M+H]+
m/z	relative intensity
56.049476	117
81.069877	290
98.096426	999
115.122975	203
