Mass spectrum: 4-Methyl-2-nitroaniline; ESI-QTOF; MS2; CE: 10; [M-H]-
Name: 4-Methyl-2-nitroaniline
Formula: C7H8N2O2
Exact mass: 152.0585775146
SMILES: CC1=CC(=C(N)C=C1)[N+]([O-])=O
InChI: InChI=1S/C7H8N2O2/c1-5-2-3-6(8)7(4-5)9(10)11/h2-4H,8H2,1H3
Instrument type: ESI-QTOF
Ms type: MS2
Ion mode: NEGATIVE
Ionization: ESI
Collision energy: 10
Precursor m/z: 151.0513010629
Precursor type: [M-H]-
m/z	relative intensity
41.998537	10
45.993452	240
53.014522	11
92.026763	10
109.004351	744
109.040736	13
121.053312	117
151.051301	999
