Mass spectrum: 1-Naphthylamine; ESI-QTOF; MS2; CE: 10; [M+H]+
Name: 1-Naphthylamine
Name: DTXSID7020920
Formula: C10H9N
Exact mass: 143.0734992945
SMILES: NC1=CC=CC2C=CC=CC=21
InChI: InChI=1S/C10H9N/c11-10-7-3-5-8-4-1-2-6-9(8)10/h1-7H,11H2
Instrument type: ESI-QTOF
Ms type: MS2
Ion mode: POSITIVE
Ionization: ESI
Collision energy: 10
Precursor m/z: 144.0807757462
Precursor type: [M+H]+
m/z	relative intensity
127.054227	28
143.072951	14
144.080776	999
