Mass spectrum: Quinalizarin; ESI-QTOF; MS2; CE: 20; [M-H]-
Name: Quinalizarin
Formula: C14H8O6
Exact mass: 272.032087989
SMILES: OC1C2=C(C=CC=1O)C(=O)C1C(C2=O)=C(O)C=CC=1O
InChI: InChI=1S/C14H8O6/c15-6-3-4-7(16)11-10(6)12(18)5-1-2-8(17)13(19)9(5)14(11)20/h1-4,15-17,19H
Instrument type: ESI-QTOF
Ms type: MS2
Ion mode: NEGATIVE
Ionization: ESI
Collision energy: 20
Precursor m/z: 271.0248115373
Precursor type: [M-H]-
m/z	relative intensity
199.040068	20
227.034982	10
243.029897	52
271.024812	999
