Mass spectrum: SAR 150640; ESI-QTOF; MS2; CE: 40; [M-H]-
Name: SAR 150640
Name: DTXSID4047389
Formula: C25H34N2O7S
Exact mass: 506.2086721855
SMILES: CCOC(=O)C1=CC=C(C=C1)C1CCC(CC1)NCC(O)COC1=CC(NS(C)(=O)=O)=C(O)C=C1
InChI: InChI=1S/C25H34N2O7S/c1-3-33-25(30)19-6-4-17(5-7-19)18-8-10-20(11-9-18)26-15-21(28)16-34-22-12-13-24(29)23(14-22)27-35(2,31)32/h4-7,12-14,18,20-21,26-29H,3,8-11,15-16H2,1-2H3
Instrument type: ESI-QTOF
Ms type: MS2
Ion mode: NEGATIVE
Ionization: ESI
Collision energy: 40
Precursor m/z: 505.2013957338
Precursor type: [M-H]-
m/z	relative intensity
63.962449	221
78.985924	999
79.018938	19
79.033543	11
122.024752	69
201.009436	45
