Mass spectrum: 1-Hydroxypyrene; ESI-QTOF; MS2; CE: 40; [M-H]-
Name: 1-Hydroxypyrene
Name: DTXSID1038298
Formula: C16H10O
Exact mass: 218.0731649413
SMILES: OC1C=CC2=CC=C3C=CC=C4C=CC=1C2=C34
InChI: InChI=1S/C16H10O/c17-14-9-7-12-5-4-10-2-1-3-11-6-8-13(14)16(12)15(10)11/h1-9,17H
Instrument type: ESI-QTOF
Ms type: MS2
Ion mode: NEGATIVE
Ionization: ESI
Collision energy: 40
Precursor m/z: 217.0658884896
Precursor type: [M-H]-
m/z	relative intensity
188.063149	48
189.070974	277
216.058063	31
217.065888	999
