Mass spectrum: Dihexylamine; ESI-QTOF; MS2; CE: 20; [M+H]+
Name: Dihexylamine
Name: DTXSID1022009
Formula: C12H27N
Exact mass: 185.2143498687
SMILES: CCCCCCNCCCCCC
InChI: InChI=1S/C12H27N/c1-3-5-7-9-11-13-12-10-8-6-4-2/h13H,3-12H2,1-2H3
Instrument type: ESI-QTOF
Ms type: MS2
Ion mode: POSITIVE
Ionization: ESI
Collision energy: 20
Precursor m/z: 186.2216263204
Precursor type: [M+H]+
m/z	relative intensity
41.038577	74
43.054227	999
57.069877	181
85.101177	59
102.127726	156
186.221626	325
