Mass spectrum: 2-Amino-2-methylpropan-1-ol; ESI-QTOF; MS2; CE: 40; [M+H]+
Name: 2-Amino-2-methylpropan-1-ol
Formula: C4H11NO
Exact mass: 89.0840639806
SMILES: CC(C)(N)CO
InChI: InChI=1S/C4H11NO/c1-4(2,5)3-6/h6H,3,5H2,1-2H3
Instrument type: ESI-QTOF
Ms type: MS2
Ion mode: POSITIVE
Ionization: ESI
Collision energy: 40
Precursor m/z: 90.0913404323
Precursor type: [M+H]+
m/z	relative intensity
29.002191	22
29.038577	32
31.017841	42
37.007276	14
38.015101	11
39.022927	374
41.038577	230
42.033826	342
43.017841	999
43.041651	62
43.054227	40
44.049476	11
45.033491	693
45.057301	15
53.038577	79
55.054227	69
56.049476	10
57.033491	144
57.057301	22
58.041316	78
58.065126	288
