Mass spectrum: 1-(Methylamino)-4-(2-hydroxyethylamino)anthraquinone; ESI-QTOF; MS2; CE: 10; [M+H]+
Name: 1-(Methylamino)-4-(2-hydroxyethylamino)anthraquinone
Name: DTXSID9041730
Formula: C17H16N2O3
Exact mass: 296.1160923921
SMILES: CNC1=CC=C(NCCO)C2C(=O)C3C=CC=CC=3C(=O)C1=2
InChI: InChI=1S/C17H16N2O3/c1-18-12-6-7-13(19-8-9-20)15-14(12)16(21)10-4-2-3-5-11(10)17(15)22/h2-7,18-20H,8-9H2,1H3
Instrument type: ESI-QTOF
Ms type: MS2
Ion mode: POSITIVE
Ionization: ESI
Collision energy: 10
Precursor m/z: 297.1233688438
Precursor type: [M+H]+
m/z	relative intensity
251.081504	31
252.089329	229
266.104979	12
279.112804	26
282.099894	41
297.123369	999
