Mass spectrum: 4'-Chloroacetoacetanilide; ESI-QTOF; MS2; CE: 20; [M-H]-
Name: 4'-Chloroacetoacetanilide
Formula: C10H10ClNO2
Exact mass: 211.040006281
SMILES: CC(=O)CC(=O)NC1C=CC(Cl)=CC=1
InChI: InChI=1S/C10H10ClNO2/c1-7(13)6-10(14)12-9-4-2-8(11)3-5-9/h2-5H,6H2,1H3,(H,12,14)
Instrument type: ESI-QTOF
Ms type: MS2
Ion mode: NEGATIVE
Ionization: ESI
Collision energy: 20
Precursor m/z: 210.0327298293
Precursor type: [M-H]-
m/z	relative intensity
34.969401	35
41.003288	73
57.034588	999
57.058398	25
57.070974	14
83.013853	765
83.050238	16
126.0116	519
