Mass spectrum: 5-Amino-2-methylphenol; ESI-QTOF; MS2; CE: 40; [M+H]+
Name: 5-Amino-2-methylphenol
Name: DTXSID9024489
Formula: C7H9NO
Exact mass: 123.0684139168
SMILES: CC1C=CC(N)=CC=1O
InChI: InChI=1S/C7H9NO/c1-5-2-3-6(8)4-7(5)9/h2-4,9H,8H2,1H3
Instrument type: ESI-QTOF
Ms type: MS2
Ion mode: POSITIVE
Ionization: ESI
Collision energy: 40
Precursor m/z: 124.0756903685
Precursor type: [M+H]+
m/z	relative intensity
39.022927	74
41.026001	14
41.038577	32
42.033826	107
42.046402	10
43.017841	20
51.022927	352
53.038577	187
54.033826	21
54.046402	10
55.017841	14
62.015101	10
63.022927	26
64.030752	60
65.038577	36
66.046402	11
69.033491	42
70.02874	20
77.038577	350
78.046402	27
79.054227	13
80.049476	999
81.033491	32
81.057301	126
82.041316	36
91.041651	14
92.025666	16
94.02874	10
106.065126	36
108.04439	88
109.052215	202
