Mass spectrum: Metepa; ESI-QTOF; MS2; CE: 10; [M+H]+
Name: Metepa
Name: DTXSID5020815
Formula: C9H18N3OP
Exact mass: 215.1187487087
SMILES: CC1CN1P(=O)(N1CC1C)N1CC1C
InChI: InChI=1S/C9H18N3OP/c1-7-4-10(7)14(13,11-5-8(11)2)12-6-9(12)3/h7-9H,4-6H2,1-3H3
Instrument type: ESI-QTOF
Ms type: MS2
Ion mode: POSITIVE
Ionization: ESI
Collision energy: 10
Precursor m/z: 216.1260251604
Precursor type: [M+H]+
m/z	relative intensity
41.038577	29
56.049476	999
56.074938	50
56.094414	29
57.057301	30
58.065126	919
58.090588	46
58.110065	26
59.072951	30
70.065126	12
79.054227	19
86.015101	86
94.065126	24
96.080776	116
98.096426	70
101.026001	21
102.010016	204
103.041651	14
104.025666	680
104.062362	25
104.081838	15
105.032149	24
106.041316	18
117.020915	16
119.036565	124
130.041316	43
130.090588	11
141.057611	45
142.041627	77
159.068176	430
159.117137	13
160.076001	28
161.083826	146
162.091651	11
216.126025	757
