Mass spectrum: Ethyl tetradecanoate; ESI-QTOF; MS2; CE: 10; [M-H]-
Name: Ethyl tetradecanoate
Formula: C16H32O2
Exact mass: 256.2402302654
SMILES: CCCCCCCCCCCCCC(=O)OCC
InChI: InChI=1S/C16H32O2/c1-3-5-6-7-8-9-10-11-12-13-14-15-16(17)18-4-2/h3-15H2,1-2H3
Instrument type: ESI-QTOF
Ms type: MS2
Ion mode: NEGATIVE
Ionization: ESI
Collision energy: 10
Precursor m/z: 255.2329538137
Precursor type: [M-H]-
m/z	relative intensity
255.232954	999
