Mass spectrum: AVE6324; ESI-QTOF; MS2; CE: 40; [M-H]-
Name: AVE6324
Name: DTXSID0047377
Formula: C31H35ClN4O7S
Exact mass: 642.1914979422
SMILES: CC(C)N1CCC(CC1)NC(=O)C1=CC2C=C(C=CC=2N1CC1C=C(ON=1)C1=CC=C(Cl)S1)C(=O)OC(C)OC(=O)OCC
InChI: InChI=1S/C31H35ClN4O7S/c1-5-40-31(39)42-19(4)41-30(38)20-6-7-24-21(14-20)15-25(29(37)33-22-10-12-35(13-11-22)18(2)3)36(24)17-23-16-26(43-34-23)27-8-9-28(32)44-27/h6-9,14-16,18-19,22H,5,10-13,17H2,1-4H3,(H,33,37)
Instrument type: ESI-QTOF
Ms type: MS2
Ion mode: NEGATIVE
Ionization: ESI
Collision energy: 40
Precursor m/z: 641.1842214905
Precursor type: [M-H]-
m/z	relative intensity
45.034588	24
89.024418	68
115.042748	12
116.050573	30
159.986745	84
160.040402	35
188.071702	207
328.164472	16
354.182802	49
356.197965	999
356.270736	13
357.200608	30
