Mass spectrum: 2,6-Pyridinedicarboxylic acid; ESI-QTOF; MS2; CE: 20; [M+H]+
Name: 2,6-Pyridinedicarboxylic acid
Name: DTXSID7022043
Formula: C7H5NO4
Exact mass: 167.0218576561
SMILES: OC(=O)C1=CC=CC(=N1)C(O)=O
InChI: InChI=1S/C7H5NO4/c9-6(10)4-2-1-3-5(8-4)7(11)12/h1-3H,(H,9,10)(H,11,12)
Instrument type: ESI-QTOF
Ms type: MS2
Ion mode: POSITIVE
Ionization: ESI
Collision energy: 20
Precursor m/z: 168.0291341078
Precursor type: [M+H]+
m/z	relative intensity
39.022927	14
51.022927	14
66.033826	179
78.033826	21
94.02874	513
122.023655	999
150.018569	34
