Mass spectrum: PharmaGSID_48510; ESI-QTOF; MS2; CE: 20; [M-H]-
Name: PharmaGSID_48510
Name: DTXSID9048510
Formula: C21H16F4N2O4
Exact mass: 436.1046198144
SMILES: OC(=O)C1=CC(=CC=C1)N(CC1=CN=CC=C1)C1C=C(OC(F)F)C(=CC=1)OC(F)F
InChI: InChI=1S/C21H16F4N2O4/c22-20(23)30-17-7-6-16(10-18(17)31-21(24)25)27(12-13-3-2-8-26-11-13)15-5-1-4-14(9-15)19(28)29/h1-11,20-21H,12H2,(H,28,29)
Instrument type: ESI-QTOF
Ms type: MS2
Ion mode: NEGATIVE
Ionization: ESI
Collision energy: 20
Precursor m/z: 435.0973433627
Precursor type: [M-H]-
m/z	relative intensity
39.00518	16
59.013853	127
85.029503	117
97.029503	40
115.040068	31
133.065888	28
145.050632	20
199.063877	16
249.060684	40
273.103337	122
274.106037	23
291.113901	34
299.05749	257
300.060349	41
301.098251	46
315.076214	19
321.104479	18
340.102883	85
341.110708	999
342.111122	210
343.111537	30
364.096615	10
385.100537	43
391.107514	794
415.091115	11
435.097343	270
