Mass spectrum: 2-Methoxy-4-nitroaniline; ESI-QTOF; MS2; CE: 10; [M+H]+
Name: 2-Methoxy-4-nitroaniline
Formula: C7H8N2O3
Exact mass: 168.0534921369
SMILES: COC1=CC(=CC=C1N)[N+]([O-])=O
InChI: InChI=1S/C7H8N2O3/c1-12-7-4-5(9(10)11)2-3-6(7)8/h2-4H,8H2,1H3
Instrument type: ESI-QTOF
Ms type: MS2
Ion mode: POSITIVE
Ionization: ESI
Collision energy: 10
Precursor m/z: 169.0607685886
Precursor type: [M+H]+
m/z	relative intensity
81.020915	37
81.065854	17
122.06004	120
123.067865	74
139.06278	12
152.058029	999
169.060769	456
