Mass spectrum: CP-114271; ESI-QTOF; MS2; CE: 10; [M-H]-
Name: CP-114271
Formula: C17H19F3N2O4S
Exact mass: 404.1017624401
SMILES: CC(CC1C=CC(=CC=1)OCC(O)=O)NCC(O)C1=CSC(=N1)C(F)(F)F
InChI: InChI=1S/C17H19F3N2O4S/c1-10(6-11-2-4-12(5-3-11)26-8-15(24)25)21-7-14(23)13-9-27-16(22-13)17(18,19)20/h2-5,9-10,14,21,23H,6-8H2,1H3,(H,24,25)
Instrument type: ESI-QTOF
Ms type: MS2
Ion mode: NEGATIVE
Ionization: ESI
Collision energy: 10
Precursor m/z: 403.0944859884
Precursor type: [M-H]-
m/z	relative intensity
151.978728	21
192.103002	37
345.089007	130
403.094486	999
