Mass spectrum: 3,3'-Iminobispropanenitrile; ESI-QTOF; MS2; CE: 40; [M+H]+
Name: 3,3'-Iminobispropanenitrile
Formula: C6H9N3
Exact mass: 123.0796473093
SMILES: N#CCCNCCC#N
InChI: InChI=1S/C6H9N3/c7-3-1-5-9-6-2-4-8/h9H,1-2,5-6H2
Instrument type: ESI-QTOF
Ms type: MS2
Ion mode: POSITIVE
Ionization: ESI
Collision energy: 40
Precursor m/z: 124.086923761
Precursor type: [M+H]+
m/z	relative intensity
41.026001	23
42.033826	999
43.041651	44
52.018175	59
52.030752	10
54.033826	524
56.049476	46
78.033826	31
