Mass spectrum: 3-Methyl-3,4-dihydro-2H-1,4-benzoxazine; ESI-QTOF; MS2; CE: 20; [M+H]+
Name: 3-Methyl-3,4-dihydro-2H-1,4-benzoxazine
Name: DTXSID8044915
Formula: C9H11NO
Exact mass: 149.0840639806
SMILES: CC1COC2C=CC=CC=2N1
InChI: InChI=1S/C9H11NO/c1-7-6-11-9-5-3-2-4-8(9)10-7/h2-5,7,10H,6H2,1H3
Instrument type: ESI-QTOF
Ms type: MS2
Ion mode: POSITIVE
Ionization: ESI
Collision energy: 20
Precursor m/z: 150.0913404323
Precursor type: [M+H]+
m/z	relative intensity
39.022927	14
41.038577	30
42.033826	17
53.038577	18
56.049476	40
57.057301	127
61.007276	13
65.038577	222
79.054227	14
80.049476	794
81.069877	11
91.054227	17
92.049476	376
93.033491	42
93.057301	19
94.065126	34
95.049141	25
105.069877	58
107.049141	11
107.072951	11
108.04439	999
108.080776	16
109.052215	85
110.06004	126
115.054227	12
117.057301	24
118.065126	21
120.04439	104
120.080776	53
122.096426	38
132.080776	34
133.064791	33
134.06004	13
135.067865	23
150.09134	442
