Mass spectrum: Tetraisopropyl methylenediphosphonate; ESI-QTOF; MS2; CE: 40; [M-H]-
Name: Tetraisopropyl methylenediphosphonate
Name: DTXSID7044847
Formula: C13H30O6P2
Exact mass: 344.1517616708
SMILES: CC(C)OP(=O)(CP(=O)(OC(C)C)OC(C)C)OC(C)C
InChI: InChI=1S/C13H30O6P2/c1-10(2)16-20(14,17-11(3)4)9-21(15,18-12(5)6)19-13(7)8/h10-13H,9H2,1-8H3
Instrument type: ESI-QTOF
Ms type: MS2
Ion mode: NEGATIVE
Ionization: ESI
Collision energy: 40
Precursor m/z: 343.1444852191
Precursor type: [M-H]-
m/z	relative intensity
57.034588	26
62.964139	127
76.979789	114
77.987614	50
78.950811	28
78.959054	999
78.995439	10
80.966461	11
84.997761	29
87.000525	15
94.990354	18
96.961376	11
102.97431	32
123.021654	14
126.971941	11
126.980183	11
137.039674	16
138.935555	162
139.016569	49
142.93047	10
146.955897	21
154.93047	15
156.94612	910
157.006004	16
157.99033	10
181.063519	24
182.925384	14
198.99307	221
226.93047	10
