Mass spectrum: 4-Vinylpyridine; ESI-QTOF; MS2; CE: 40; [M+H]+
Name: 4-Vinylpyridine
Formula: C7H7N
Exact mass: 105.0578492307
SMILES: C=CC1C=CN=CC=1
InChI: InChI=1S/C7H7N/c1-2-7-3-5-8-6-4-7/h2-6H,1H2
Instrument type: ESI-QTOF
Ms type: MS2
Ion mode: POSITIVE
Ionization: ESI
Collision energy: 40
Precursor m/z: 106.0651256824
Precursor type: [M+H]+
m/z	relative intensity
39.022927	18
49.007276	10
50.015101	28
51.022927	999
52.030752	234
53.038577	171
54.033826	19
67.041651	26
77.038577	449
78.033826	94
79.041651	179
80.049476	170
89.038577	13
104.049476	20
106.065126	23
