Mass spectrum: 2-Chloro-4-nitroaniline; ESI-QTOF; MS2; CE: 40; [M-H]-
Name: 2-Chloro-4-nitroaniline
Formula: C6H5ClN2O2
Exact mass: 172.0039551289
SMILES: NC1C=CC(=CC=1Cl)[N+]([O-])=O
InChI: InChI=1S/C6H5ClN2O2/c7-5-3-4(9(10)11)1-2-6(5)8/h1-3H,8H2
Instrument type: ESI-QTOF
Ms type: MS2
Ion mode: NEGATIVE
Ionization: ESI
Collision energy: 40
Precursor m/z: 170.9966786772
Precursor type: [M-H]-
m/z	relative intensity
34.969401	235
41.998537	30
45.993452	999
46.017261	19
46.029837	12
63.011448	33
65.998537	11
78.970464	10
88.019273	161
89.027098	328
105.022012	150
135.020001	14
