Mass spectrum: Flucarbazone; ESI-QTOF; MS2; CE: 20; [M+H]+
Name: Flucarbazone
Name: DTXSID3034614
Formula: C12H11F3N4O6S
Exact mass: 396.0351394443
SMILES: CN1C(=NN(C1=O)C(=O)NS(=O)(=O)C1C=CC=CC=1OC(F)(F)F)OC
InChI: InChI=1S/C12H11F3N4O6S/c1-18-10(24-2)16-19(11(18)21)9(20)17-26(22,23)8-6-4-3-5-7(8)25-12(13,14)15/h3-6H,1-2H3,(H,17,20)
Instrument type: ESI-QTOF
Ms type: MS2
Ion mode: POSITIVE
Ionization: ESI
Collision energy: 20
Precursor m/z: 397.042415896
Precursor type: [M+H]+
m/z	relative intensity
73.039639	11
115.037628	29
130.061103	999
