Mass spectrum: 3-Amino-4-chlorobenzoic acid; ESI-QTOF; MS2; CE: 40; [M-H]-
Name: 3-Amino-4-chlorobenzoic acid
Name: DTXSID8044414
Formula: C7H6ClNO2
Exact mass: 171.0087061534
SMILES: NC1C=C(C=CC=1Cl)C(O)=O
InChI: InChI=1S/C7H6ClNO2/c8-5-2-1-4(7(10)11)3-6(5)9/h1-3H,9H2,(H,10,11)
Instrument type: ESI-QTOF
Ms type: MS2
Ion mode: NEGATIVE
Ionization: ESI
Collision energy: 40
Precursor m/z: 170.0014297017
Precursor type: [M-H]-
m/z	relative intensity
34.969401	999
50.003623	38
