Mass spectrum: Ethyl diethanolamine; ESI-QTOF; MS2; CE: 10; [M+H]+
Name: Ethyl diethanolamine
Name: DTXSID8041955
Formula: C6H15NO2
Exact mass: 133.1102787305
SMILES: CCN(CCO)CCO
InChI: InChI=1S/C6H15NO2/c1-2-7(3-5-8)4-6-9/h8-9H,2-6H2,1H3
Instrument type: ESI-QTOF
Ms type: MS2
Ion mode: POSITIVE
Ionization: ESI
Collision energy: 10
Precursor m/z: 134.1175551822
Precursor type: [M+H]+
m/z	relative intensity
44.049476	58
45.033491	61
70.065126	38
72.080776	182
88.07569	32
90.09134	26
102.09134	34
116.10699	291
117.114816	19
134.117555	999
