Mass spectrum: 3-Hydroxy-N-(3-nitrophenyl)naphthalene-2-carboxamide; ESI-QTOF; MS2; CE: 40; [M-H]-
Name: 3-Hydroxy-N-(3-nitrophenyl)naphthalene-2-carboxamide
Name: DTXSID3044544
Formula: C17H12N2O4
Exact mass: 308.0797068868
SMILES: [O-][N+](=O)C1=CC(=CC=C1)NC(=O)C1=CC2C=CC=CC=2C=C1O
InChI: InChI=1S/C17H12N2O4/c20-16-9-12-5-2-1-4-11(12)8-15(16)17(21)18-13-6-3-7-14(10-13)19(22)23/h1-10,20H,(H,18,21)
Instrument type: ESI-QTOF
Ms type: MS2
Ion mode: NEGATIVE
Ionization: ESI
Collision energy: 40
Precursor m/z: 307.0724304351
Precursor type: [M-H]-
m/z	relative intensity
41.998537	38
45.993452	153
90.034923	81
107.037662	120
114.047499	33
115.055324	106
133.016927	14
134.024752	39
137.035651	293
142.042413	26
143.050238	999
144.054041	18
168.045487	15
232.076788	12
233.060803	14
248.071702	14
260.071702	12
261.079527	47
