Mass spectrum: 2-(8-Heptadecenyl)-2-imidazoline-1-ethanol; ESI-QTOF; MS2; CE: 10; [M+H]+
Name: 2-(8-Heptadecenyl)-2-imidazoline-1-ethanol
Formula: C22H42N2O
Exact mass: 350.3297139769
SMILES: CCCCCCCC/C=C/CCCCCCCC1=NCCN1CCO
InChI: InChI=1S/C22H42N2O/c1-2-3-4-5-6-7-8-9-10-11-12-13-14-15-16-17-22-23-18-19-24(22)20-21-25/h9-10,25H,2-8,11-21H2,1H3/b10-9+
Instrument type: ESI-QTOF
Ms type: MS2
Ion mode: POSITIVE
Ionization: ESI
Collision energy: 10
Precursor m/z: 351.3369904286
Precursor type: [M+H]+
m/z	relative intensity
351.33699	999
