Mass spectrum: Diethyl ethoxymethylenemalonate; ESI-QTOF; MS2; CE: 10; [M+H]+
Name: Diethyl ethoxymethylenemalonate
Formula: C10H16O5
Exact mass: 216.0997736219
SMILES: CCOC=C(C(=O)OCC)C(=O)OCC
InChI: InChI=1S/C10H16O5/c1-4-13-7-8(9(11)14-5-2)10(12)15-6-3/h7H,4-6H2,1-3H3
Instrument type: ESI-QTOF
Ms type: MS2
Ion mode: POSITIVE
Ionization: ESI
Collision energy: 10
Precursor m/z: 217.1070500736
Precursor type: [M+H]+
m/z	relative intensity
68.997106	81
96.99202	73
103.075356	12
115.002585	475
143.033885	676
171.065185	999
217.10705	10
