Mass spectrum: 3-Methyl-1-phenyl-1H-pyrazol-5-amine; ESI-QTOF; MS2; CE: 20; [M+H]+
Name: 3-Methyl-1-phenyl-1H-pyrazol-5-amine
Formula: C10H11N3
Exact mass: 173.0952973731
SMILES: CC1C=C(N)N(N=1)C1C=CC=CC=1
InChI: InChI=1S/C10H11N3/c1-8-7-10(11)13(12-8)9-5-3-2-4-6-9/h2-7H,11H2,1H3
Instrument type: ESI-QTOF
Ms type: MS2
Ion mode: POSITIVE
Ionization: ESI
Collision energy: 20
Precursor m/z: 174.1025738248
Precursor type: [M+H]+
m/z	relative intensity
42.033826	165
44.049476	31
65.038577	14
77.038577	23
79.054227	63
92.049476	115
93.057301	54
104.049476	25
106.065126	999
116.049476	90
117.057301	44
118.065126	11
130.065126	114
132.0682	66
132.080776	46
133.076025	577
134.071274	100
142.05255	13
147.091675	25
156.0682	15
157.076025	80
159.079099	12
174.102574	855
