Mass spectrum: 3-tert-Butylphenol; ESI-QTOF; MS2; CE: 20; [M-H]-
Name: 3-tert-Butylphenol
Name: DTXSID9044825
Formula: C10H14O
Exact mass: 150.1044650689
SMILES: CC(C)(C)C1C=C(O)C=CC=1
InChI: InChI=1S/C10H14O/c1-10(2,3)8-5-4-6-9(11)7-8/h4-7,11H,1-3H3
Instrument type: ESI-QTOF
Ms type: MS2
Ion mode: NEGATIVE
Ionization: ESI
Collision energy: 20
Precursor m/z: 149.0971886172
Precursor type: [M-H]-
m/z	relative intensity
92.026763	23
106.042413	13
117.034588	16
119.050238	15
133.065888	999
134.073714	501
149.097189	704
