Mass spectrum: Pantothenic acid; ESI-QTOF; MS2; CE: 40; [M-H]-
Name: Pantothenic acid
Formula: C9H17NO5
Exact mass: 219.1106726612
SMILES: CC(C)(CO)C(O)C(=O)NCCC(O)=O
InChI: InChI=1S/C9H17NO5/c1-9(2,5-11)7(14)8(15)10-4-3-6(12)13/h7,11,14H,3-5H2,1-2H3,(H,10,15)(H,12,13)
Instrument type: ESI-QTOF
Ms type: MS2
Ion mode: NEGATIVE
Ionization: ESI
Collision energy: 40
Precursor m/z: 218.1033962095
Precursor type: [M-H]-
m/z	relative intensity
41.998537	216
44.014187	942
44.050573	14
44.998203	18
59.013853	71
71.013853	74
71.050238	999
71.086624	22
71.095177	10
72.009102	33
88.040402	154
99.045153	145
