Mass spectrum: 4-Isopropylphenol; ESI-QTOF; MS2; CE: 10; [M+H]+
Name: 4-Isopropylphenol
Formula: C9H12O
Exact mass: 136.0888150051
SMILES: CC(C)C1C=CC(O)=CC=1
InChI: InChI=1S/C9H12O/c1-7(2)8-3-5-9(10)6-4-8/h3-7,10H,1-2H3
Instrument type: ESI-QTOF
Ms type: MS2
Ion mode: POSITIVE
Ionization: ESI
Collision energy: 10
Precursor m/z: 137.0960914568
Precursor type: [M+H]+
m/z	relative intensity
61.007276	19
63.994366	48
79.017841	999
79.054227	28
81.069877	171
95.085527	41
