Mass spectrum: 2-Hydroxybenzonitrile; ESI-QTOF; MS2; CE: 40; [M-H]-
Name: 2-Hydroxybenzonitrile
Name: DTXSID3041661
Formula: C7H5NO
Exact mass: 119.0371137892
SMILES: N#CC1C=CC=CC=1O
InChI: InChI=1S/C7H5NO/c8-5-6-3-1-2-4-7(6)9/h1-4,9H
Instrument type: ESI-QTOF
Ms type: MS2
Ion mode: NEGATIVE
Ionization: ESI
Collision energy: 40
Precursor m/z: 118.0298373375
Precursor type: [M-H]-
m/z	relative intensity
39.024024	84
40.019273	124
41.003288	191
41.998537	261
49.008374	23
50.003623	999
63.011448	15
64.019273	368
65.003288	26
65.998537	10
74.003623	24
76.019273	12
88.019273	12
89.027098	18
90.034923	125
118.029837	10
