Mass spectrum: 1,3-Cyclohexanedimethanamine; ESI-QTOF; MS2; CE: 40; [M+H]+
Name: 1,3-Cyclohexanedimethanamine
Name: DTXSID4041238
Formula: C8H18N2
Exact mass: 142.146998589
SMILES: NCC1CC(CCC1)CN
InChI: InChI=1S/C8H18N2/c9-5-7-2-1-3-8(4-7)6-10/h7-8H,1-6,9-10H2
Instrument type: ESI-QTOF
Ms type: MS2
Ion mode: POSITIVE
Ionization: ESI
Collision energy: 40
Precursor m/z: 143.1542750407
Precursor type: [M+H]+
m/z	relative intensity
29.038577	11
30.033826	10
39.022927	74
41.038577	615
43.054227	98
44.049476	11
53.038577	55
55.054227	313
65.038577	150
67.054227	999
69.069877	18
77.038577	37
79.054227	184
81.069877	109
91.054227	26
109.101177	41
126.127726	31
