Mass spectrum: 2,4-Dihydroxypyridine; ESI-QTOF; MS2; CE: 40; [M-H]-
Name: 2,4-Dihydroxypyridine
Name: DTXSID90274238
Formula: C5H5NO2
Exact mass: 111.0320284115
SMILES: OC1=CC(O)=NC=C1
InChI: InChI=1S/C5H5NO2/c7-4-1-2-6-5(8)3-4/h1-3H,(H2,6,7,8)
Instrument type: ESI-QTOF
Ms type: MS2
Ion mode: NEGATIVE
Ionization: ESI
Collision energy: 40
Precursor m/z: 110.0247519598
Precursor type: [M-H]-
m/z	relative intensity
39.024024	15
40.019273	22
41.003288	999
41.027098	19
41.998537	27
49.008374	65
64.019273	15
65.998537	101
68.014187	57
68.998203	11
