Mass spectrum: Quinolinic acid; ESI-QTOF; MS2; CE: 40; [M+H]+
Name: Quinolinic acid
Name: 2,3-Pyridinedicarboxylic acid
Formula: C7H5NO4
Exact mass: 167.0218576561
SMILES: OC(=O)C1C=CC=NC=1C(O)=O
InChI: InChI=1S/C7H5NO4/c9-6(10)4-2-1-3-8-5(4)7(11)12/h1-3H,(H,9,10)(H,11,12)
Instrument type: ESI-QTOF
Ms type: MS2
Ion mode: POSITIVE
Ionization: ESI
Collision energy: 40
Precursor m/z: 168.0291341078
Precursor type: [M+H]+
m/z	relative intensity
39.022927	138
41.038577	11
43.017841	11
51.022927	61
52.018175	173
53.038577	62
53.99744	46
63.994366	23
66.033826	114
67.017841	55
78.033826	999
80.049476	41
94.02874	46
