Mass spectrum: Hydrocinnamic acid; ESI-QTOF; MS2; CE: 20; [M+H]+
Name: Hydrocinnamic acid
Name: DTXSID2047064
Formula: C9H10O2
Exact mass: 150.0680795636
SMILES: OC(=O)CCC1C=CC=CC=1
InChI: InChI=1S/C9H10O2/c10-9(11)7-6-8-4-2-1-3-5-8/h1-5H,6-7H2,(H,10,11)
Instrument type: ESI-QTOF
Ms type: MS2
Ion mode: POSITIVE
Ionization: ESI
Collision energy: 20
Precursor m/z: 151.0753560153
Precursor type: [M+H]+
m/z	relative intensity
43.017841	13
45.033491	52
61.007276	63
62.015101	39
63.994366	212
79.017841	999
79.054227	20
