Mass spectrum: 3-Pyridinamine; ESI-QTOF; MS2; CE: 40; [M+H]+
Name: 3-Pyridinamine
Name: DTXSID9047461
Formula: C5H6N2
Exact mass: 94.0530982062
SMILES: NC1=CN=CC=C1
InChI: InChI=1S/C5H6N2/c6-5-2-1-3-7-4-5/h1-4H,6H2
Instrument type: ESI-QTOF
Ms type: MS2
Ion mode: POSITIVE
Ionization: ESI
Collision energy: 40
Precursor m/z: 95.0603746579
Precursor type: [M+H]+
m/z	relative intensity
28.018175	13
38.015101	12
39.022927	606
40.018175	15
40.030752	10
41.026001	56
41.038577	725
42.033826	326
50.015101	201
51.01035	11
51.022927	965
52.018175	999
52.030752	627
54.033826	140
66.033826	57
67.041651	157
68.049476	422
78.033826	755
79.041651	236
93.044725	17
95.060375	123
