Mass spectrum: Diethyl decanedioate; ESI-QTOF; MS2; CE: 20; [M+H]+
Name: Diethyl decanedioate
Formula: C14H26O4
Exact mass: 258.1831093186
SMILES: CCOC(=O)CCCCCCCCC(=O)OCC
InChI: InChI=1S/C14H26O4/c1-3-17-13(15)11-9-7-5-6-8-10-12-14(16)18-4-2/h3-12H2,1-2H3
Instrument type: ESI-QTOF
Ms type: MS2
Ion mode: POSITIVE
Ionization: ESI
Collision energy: 20
Precursor m/z: 259.1903857703
Precursor type: [M+H]+
m/z	relative intensity
41.038577	20
43.017841	171
43.054227	21
55.054227	202
57.033491	47
57.069877	27
59.049141	11
67.054227	123
69.033491	13
69.069877	710
71.049141	27
73.064791	22
77.038577	12
79.054227	163
81.069877	307
83.049141	104
87.044056	24
91.054227	17
93.069877	387
95.085527	167
95.106656	13
97.064791	198
97.101177	352
101.059706	36
105.069877	14
107.085527	120
111.116827	203
115.075356	14
119.085527	24
121.101177	999
123.080441	18
131.085527	134
139.111742	782
143.143042	14
149.096091	141
167.106656	37
185.117221	11
185.153606	33
213.148521	39
