Mass spectrum: 4-Hydroxybenzonitrile; ESI-QTOF; MS2; CE: 10; [M-H]-
Name: 4-Hydroxybenzonitrile
Name: DTXSID9052509
Formula: C7H5NO
Exact mass: 119.0371137892
SMILES: N#CC1C=CC(O)=CC=1
InChI: InChI=1S/C7H5NO/c8-5-6-1-3-7(9)4-2-6/h1-4,9H
Instrument type: ESI-QTOF
Ms type: MS2
Ion mode: NEGATIVE
Ionization: ESI
Collision energy: 10
Precursor m/z: 118.0298373375
Precursor type: [M-H]-
m/z	relative intensity
90.034923	38
118.029837	999
