Mass spectrum: Pirinixic acid; ESI-QTOF; MS2; CE: 40; [M-H]-
Name: Pirinixic acid
Name: DTXSID4020290
Formula: C14H14ClN3O2S
Exact mass: 323.0495251534
SMILES: CC1C(=CC=CC=1C)NC1C=C(Cl)N=C(N=1)SCC(O)=O
InChI: InChI=1S/C14H14ClN3O2S/c1-8-4-3-5-10(9(8)2)16-12-6-11(15)17-14(18-12)21-7-13(19)20/h3-6H,7H2,1-2H3,(H,19,20)(H,16,17,18)
Instrument type: ESI-QTOF
Ms type: MS2
Ion mode: NEGATIVE
Ionization: ESI
Collision energy: 40
Precursor m/z: 322.0422487017
Precursor type: [M-H]-
m/z	relative intensity
34.969401	695
34.996094	12
41.998537	37
46.996094	47
57.975693	309
57.993452	10
64.006697	70
65.014522	999
65.043045	16
71.991343	56
90.009771	33
130.066223	84
145.077122	80
154.055477	13
168.069297	15
169.077122	326
181.077122	10
194.072371	25
196.088021	34
208.088021	14
226.044442	26
227.050726	29
248.006812	26
262.021119	150
278.052419	43
