Mass spectrum: AVE9423; ESI-QTOF; MS2; CE: 40; [M+H]+
Name: AVE9423
Formula: C23H12Cl2F2N2O5
Exact mass: 504.0091333291
SMILES: OC(=O)C1=CC=CC=C1N1C=C(C(=O)C2C=C(NC3C(Cl)=CC(F)=CC=3F)C(Cl)=CC1=2)C(O)=O
InChI: InChI=1S/C23H12Cl2F2N2O5/c24-14-8-19-12(7-17(14)28-20-15(25)5-10(26)6-16(20)27)21(30)13(23(33)34)9-29(19)18-4-2-1-3-11(18)22(31)32/h1-9,28H,(H,31,32)(H,33,34)
Instrument type: ESI-QTOF
Ms type: MS2
Ion mode: POSITIVE
Ionization: ESI
Collision energy: 40
Precursor m/z: 505.0164097808
Precursor type: [M+H]+
m/z	relative intensity
161.99166	11
225.033491	18
253.02938	12
343.068433	19
352.054654	13
378.036598	45
406.031513	33
413.005451	22
441.000366	26
443.016016	85
459.01093	95
468.99528	29
487.005845	999
488.01367	19
