Mass spectrum: Hexamethyleneimine; ESI-QTOF; MS2; CE: 10; [M+H]+
Name: Hexamethyleneimine
Formula: C6H13N
Exact mass: 99.1047994221
SMILES: C1CCCCCN1
InChI: InChI=1S/C6H13N/c1-2-4-6-7-5-3-1/h7H,1-6H2
Instrument type: ESI-QTOF
Ms type: MS2
Ion mode: POSITIVE
Ionization: ESI
Collision energy: 10
Precursor m/z: 100.1120758738
Precursor type: [M+H]+
m/z	relative intensity
30.033826	11
55.054227	116
83.085527	20
100.112076	999
