Mass spectrum: PharmaGSID_48510; ESI-QTOF; MS2; CE: 10; [M-H]-
Name: PharmaGSID_48510
Name: DTXSID9048510
Formula: C21H16F4N2O4
Exact mass: 436.1046198144
SMILES: OC(=O)C1=CC(=CC=C1)N(CC1=CN=CC=C1)C1C=C(OC(F)F)C(=CC=1)OC(F)F
InChI: InChI=1S/C21H16F4N2O4/c22-20(23)30-17-7-6-16(10-18(17)31-21(24)25)27(12-13-3-2-8-26-11-13)15-5-1-4-14(9-15)19(28)29/h1-11,20-21H,12H2,(H,28,29)
Instrument type: ESI-QTOF
Ms type: MS2
Ion mode: NEGATIVE
Ionization: ESI
Collision energy: 10
Precursor m/z: 435.0973433627
Precursor type: [M-H]-
m/z	relative intensity
59.013853	20
85.029503	23
115.040068	11
145.050632	25
341.110708	83
342.111122	16
391.107514	121
435.097343	999
