Mass spectrum: 4-Propylaniline; ESI-QTOF; MS2; CE: 20; [M+H]+
Name: 4-Propylaniline
Name: DTXSID5048180
Formula: C9H13N
Exact mass: 135.1047994221
SMILES: CCCC1=CC=C(N)C=C1
InChI: InChI=1S/C9H13N/c1-2-3-8-4-6-9(10)7-5-8/h4-7H,2-3,10H2,1H3
Instrument type: ESI-QTOF
Ms type: MS2
Ion mode: POSITIVE
Ionization: ESI
Collision energy: 20
Precursor m/z: 136.1120758738
Precursor type: [M+H]+
m/z	relative intensity
39.022927	17
41.038577	258
43.054227	355
44.062052	11
65.038577	66
67.054227	10
77.038577	236
78.046402	24
79.054227	42
89.038577	13
90.046402	100
91.054227	772
92.062052	69
93.057301	201
94.065126	999
95.072951	74
103.054227	28
104.062052	35
106.065126	145
107.072951	148
115.054227	16
117.069877	46
119.085527	27
136.112076	484
