Mass spectrum: Adenine; ESI-QTOF; MS2; CE: 20; [M-H]-
Name: Adenine
Name: DTXSID6022557
Formula: C5H5N5
Exact mass: 135.0544951965
SMILES: NC1=NC=NC2NC=NC=21
InChI: InChI=1S/C5H5N5/c6-4-3-5(9-1-7-3)10-2-8-4/h1-2H,(H3,6,7,8,9,10)
Instrument type: ESI-QTOF
Ms type: MS2
Ion mode: NEGATIVE
Ionization: ESI
Collision energy: 20
Precursor m/z: 134.0472187448
Precursor type: [M-H]-
m/z	relative intensity
41.014522	10
65.014522	105
66.009771	10
68.025421	48
80.025421	18
92.025421	346
107.03632	999
134.047219	750
