Mass spectrum: Adenine; ESI-QTOF; MS2; CE: 40; [M+H]+
Name: Adenine
Name: DTXSID6022557
Formula: C5H5N5
Exact mass: 135.0544951965
SMILES: NC1=NC=NC2NC=NC=21
InChI: InChI=1S/C5H5N5/c6-4-3-5(9-1-7-3)10-2-8-4/h1-2H,(H3,6,7,8,9,10)
Instrument type: ESI-QTOF
Ms type: MS2
Ion mode: POSITIVE
Ionization: ESI
Collision energy: 40
Precursor m/z: 136.0617716482
Precursor type: [M+H]+
m/z	relative intensity
28.018175	10
38.002525	43
40.018175	207
43.029075	47
53.013424	37
55.029075	311
65.013424	999
66.021249	20
67.029075	402
77.013424	97
82.039974	45
92.024324	840
94.039974	53
109.050873	28
119.035223	452
