Mass spectrum: Dihexyl nonanedioate; ESI-QTOF; MS2; CE: 40; [M+H]+
Name: Dihexyl nonanedioate
Formula: C21H40O4
Exact mass: 356.2926597652
SMILES: CCCCCCOC(=O)CCCCCCCC(=O)OCCCCCC
InChI: InChI=1S/C21H40O4/c1-3-5-7-14-18-24-20(22)16-12-10-9-11-13-17-21(23)25-19-15-8-6-4-2/h3-19H2,1-2H3
Instrument type: ESI-QTOF
Ms type: MS2
Ion mode: POSITIVE
Ionization: ESI
Collision energy: 40
Precursor m/z: 357.2999362169
Precursor type: [M+H]+
m/z	relative intensity
41.038577	73
43.017841	91
43.054227	434
43.075356	10
55.017841	90
55.054227	999
57.033491	19
57.069877	73
59.049141	19
67.054227	85
69.033491	42
69.069877	101
79.054227	111
81.069877	115
83.049141	31
83.085527	368
85.101177	16
91.054227	28
93.069877	40
97.101177	460
101.096091	18
107.085527	130
111.080441	13
117.069877	10
125.096091	118
135.080441	14
