Mass spectrum: Farglitazar; ESI-QTOF; MS2; CE: 40; [M+H]+
Name: Farglitazar
Name: DTXSID1047310
Formula: C34H30N2O5
Exact mass: 546.2154720833
SMILES: CC1OC(=NC=1CCOC1=CC=C(CC(NC2=CC=CC=C2C(=O)C2C=CC=CC=2)C(O)=O)C=C1)C1C=CC=CC=1
InChI: InChI=1S/C34H30N2O5/c1-23-29(36-33(41-23)26-12-6-3-7-13-26)20-21-40-27-18-16-24(17-19-27)22-31(34(38)39)35-30-15-9-8-14-28(30)32(37)25-10-4-2-5-11-25/h2-19,31,35H,20-22H2,1H3,(H,38,39)
Instrument type: ESI-QTOF
Ms type: MS2
Ion mode: POSITIVE
Ionization: ESI
Collision energy: 40
Precursor m/z: 547.222748535
Precursor type: [M+H]+
m/z	relative intensity
43.017841	289
83.049141	50
104.049476	112
105.033491	90
144.080776	47
186.09134	999
186.140302	35
186.161431	17
187.096485	23
194.096426	14
308.12812	20
315.12538	30
322.14377	325
483.206705	13
501.217269	24
