Mass spectrum: Trimethyl benzene-1,2,4-tricarboxylate; ESI-QTOF; MS2; CE: 20; [M+H]+
Name: Trimethyl benzene-1,2,4-tricarboxylate
Name: DTXSID8044620
Formula: C12H12O6
Exact mass: 252.0633881166
SMILES: COC(=O)C1=CC=C(C=C1C(=O)OC)C(=O)OC
InChI: InChI=1S/C12H12O6/c1-16-10(13)7-4-5-8(11(14)17-2)9(6-7)12(15)18-3/h4-6H,1-3H3
Instrument type: ESI-QTOF
Ms type: MS2
Ion mode: POSITIVE
Ionization: ESI
Collision energy: 20
Precursor m/z: 253.0706645683
Precursor type: [M+H]+
m/z	relative intensity
77.038577	12
103.017841	16
119.012756	13
135.044056	34
163.038971	10
191.033885	79
193.049535	118
221.04445	999
