Mass spectrum: CP-457677; ESI-QTOF; MS2; CE: 20; [M+H]+
Name: CP-457677
Name: DTXSID2047278
Formula: C22H21FN2O3
Exact mass: 380.1536207516
SMILES: CC(C)(O)C1C=CC(CNC(=O)C2=CC=CN=C2OC2C=CC(F)=CC=2)=CC=1
InChI: InChI=1S/C22H21FN2O3/c1-22(2,27)16-7-5-15(6-8-16)14-25-20(26)19-4-3-13-24-21(19)28-18-11-9-17(23)10-12-18/h3-13,27H,14H2,1-2H3,(H,25,26)
Instrument type: ESI-QTOF
Ms type: MS2
Ion mode: POSITIVE
Ionization: ESI
Collision energy: 20
Precursor m/z: 381.1608972033
Precursor type: [M+H]+
m/z	relative intensity
43.017841	87
57.033491	41
91.054227	13
107.085527	13
131.085527	999
131.130466	26
149.096091	272
216.045533	284
363.150333	602
