Mass spectrum: Tetraethylenepentamine; ESI-QTOF; MS2; CE: 40; [M+H]+
Name: Tetraethylenepentamine
Formula: C8H23N5
Exact mass: 189.1953457707
SMILES: NCCNCCNCCNCCN
InChI: InChI=1S/C8H23N5/c9-1-3-11-5-7-13-8-6-12-4-2-10/h11-13H,1-10H2
Instrument type: ESI-QTOF
Ms type: MS2
Ion mode: POSITIVE
Ionization: ESI
Collision energy: 40
Precursor m/z: 190.2026222224
Precursor type: [M+H]+
m/z	relative intensity
41.038577	19
42.033826	71
43.054227	14
44.049476	999
56.049476	69
58.065126	19
70.065126	177
84.080776	22
87.091675	54
