Mass spectrum: MK-274; ESI-QTOF; MS2; CE: 10; [M+H]+
Name: MK-274
Name: DTXSID5047328
Formula: C18H12F6N4O2
Exact mass: 430.086444857
SMILES: NC(=O)C1NN=C(N=1)C1C=C(C=CC=1)C1=CC(F)=CC=C1OCC(F)(F)C(F)(F)F
InChI: InChI=1S/C18H12F6N4O2/c19-11-4-5-13(30-8-17(20,21)18(22,23)24)12(7-11)9-2-1-3-10(6-9)15-26-16(14(25)29)28-27-15/h1-7H,8H2,(H2,25,29)(H,26,27,28)
Instrument type: ESI-QTOF
Ms type: MS2
Ion mode: POSITIVE
Ionization: ESI
Collision energy: 10
Precursor m/z: 431.0937213087
Precursor type: [M+H]+
m/z	relative intensity
119.085527	46
135.080242	11
414.067172	88
431.093721	999
