Mass spectrum: Lithocholic acid; ESI-QTOF; MS2; CE: 10; [M-H]-
Name: Lithocholic acid
Name: DTXSID6020779
Formula: C24H40O3
Exact mass: 376.2977451429
SMILES: CC(CCC(O)=O)C1CCC2C3CCC4CC(O)CCC4(C)C3CCC21C
InChI: InChI=1S/C24H40O3/c1-15(4-9-22(26)27)19-7-8-20-18-6-5-16-14-17(25)10-12-23(16,2)21(18)11-13-24(19,20)3/h15-21,25H,4-14H2,1-3H3,(H,26,27)
Instrument type: ESI-QTOF
Ms type: MS2
Ion mode: NEGATIVE
Ionization: ESI
Collision energy: 10
Precursor m/z: 375.2904686912
Precursor type: [M-H]-
m/z	relative intensity
375.290469	999
