Mass spectrum: PHA-00568487; ESI-QTOF; MS2; CE: 40; [M+H]+
Name: PHA-00568487
Name: DTXSID1047285
Formula: C16H20N2O3
Exact mass: 288.1473925197
SMILES: O=C(NC1CN2CCC1CC2)C1C=C2OCCOC2=CC=1
InChI: InChI=1S/C16H20N2O3/c19-16(17-13-10-18-5-3-11(13)4-6-18)12-1-2-14-15(9-12)21-8-7-20-14/h1-2,9,11,13H,3-8,10H2,(H,17,19)
Instrument type: ESI-QTOF
Ms type: MS2
Ion mode: POSITIVE
Ionization: ESI
Collision energy: 40
Precursor m/z: 289.1546689714
Precursor type: [M+H]+
m/z	relative intensity
41.038577	23
42.033826	69
44.049476	12
53.038577	12
54.033826	31
55.054227	150
56.049476	110
67.054227	35
68.049476	83
69.057301	40
69.069877	18
77.038577	30
79.054227	116
80.049476	16
81.057301	13
81.069877	228
82.065126	286
91.054227	23
93.069877	29
94.065126	13
95.072951	36
96.080776	21
107.012756	98
108.080776	35
110.096426	366
128.10699	37
135.044056	216
137.059706	43
149.059706	12
162.054955	53
163.038971	999
163.086589	48
163.107719	26
163.120295	10
180.06552	12
289.154669	37
