Mass spectrum: 2,3-Diaminopyridine; ESI-QTOF; MS2; CE: 40; [M+H]+
Name: 2,3-Diaminopyridine
Name: DTXSID0051493
Formula: C5H7N3
Exact mass: 109.0639972455
SMILES: NC1=NC=CC=C1N
InChI: InChI=1S/C5H7N3/c6-4-2-1-3-8-5(4)7/h1-3H,6H2,(H2,7,8)
Instrument type: ESI-QTOF
Ms type: MS2
Ion mode: POSITIVE
Ionization: ESI
Collision energy: 40
Precursor m/z: 110.0712736972
Precursor type: [M+H]+
m/z	relative intensity
38.015101	14
39.022927	999
40.018175	39
42.033826	16
52.018175	46
53.013424	73
56.049476	33
64.018175	20
65.026001	35
66.033826	422
92.0369	13
93.044725	142
