Mass spectrum: Cyclopamine; ESI-QTOF; MS2; CE: 20; [M+H]+
Name: Cyclopamine
Name: DTXSID6043709
Formula: C27H41NO2
Exact mass: 411.3137295599
SMILES: CC12CCC(O)CC1=CCC1C2CC2C1CCC1(OC3CC(C)CNC3C1C)C=2C
InChI: InChI=1S/C27H41NO2/c1-15-11-24-25(28-14-15)17(3)27(30-24)10-8-20-21-6-5-18-12-19(29)7-9-26(18,4)23(21)13-22(20)16(27)2/h5,15,17,19-21,23-25,28-29H,6-14H2,1-4H3
Instrument type: ESI-QTOF
Ms type: MS2
Ion mode: POSITIVE
Ionization: ESI
Collision energy: 20
Precursor m/z: 412.3210060116
Precursor type: [M+H]+
m/z	relative intensity
84.080776	16
109.101177	28
114.09134	42
126.127726	24
394.310441	11
412.321006	999
