Mass spectrum: 2,3-Quinolinedicarboxylic acid; ESI-QTOF; MS2; CE: 40; [M+H]+
Name: 2,3-Quinolinedicarboxylic acid
Name: DTXSID9027281
Formula: C11H7NO4
Exact mass: 217.0375077199
SMILES: OC(=O)C1N=C2C=CC=CC2=CC=1C(O)=O
InChI: InChI=1S/C11H7NO4/c13-10(14)7-5-6-3-1-2-4-8(6)12-9(7)11(15)16/h1-5H,(H,13,14)(H,15,16)
Instrument type: ESI-QTOF
Ms type: MS2
Ion mode: POSITIVE
Ionization: ESI
Collision energy: 40
Precursor m/z: 218.0447841716
Precursor type: [M+H]+
m/z	relative intensity
51.022927	10
75.022927	27
77.038577	128
89.038577	160
101.038577	227
102.033826	16
103.054227	66
116.049476	471
128.049476	999
130.065126	118
174.054955	13
