Mass spectrum: 2-[(4-Hydroxyphenyl)methyl]phenol; ESI-QTOF; MS2; CE: 40; [M-H]-
Name: 2-[(4-Hydroxyphenyl)methyl]phenol
Name: DTXSID2044890
Formula: C13H12O2
Exact mass: 200.0837296274
SMILES: OC1C=CC(CC2C=CC=CC=2O)=CC=1
InChI: InChI=1S/C13H12O2/c14-12-7-5-10(6-8-12)9-11-3-1-2-4-13(11)15/h1-8,14-15H,9H2
Instrument type: ESI-QTOF
Ms type: MS2
Ion mode: NEGATIVE
Ionization: ESI
Collision energy: 40
Precursor m/z: 199.0764531757
Precursor type: [M-H]-
m/z	relative intensity
65.039674	71
93.034588	999
93.070974	25
