Mass spectrum: 5,6-Benzoflavone; ESI-QTOF; MS2; CE: 20; [M+H]+
Name: 5,6-Benzoflavone
Name: DTXSID8030423
Formula: C19H12O2
Exact mass: 272.0837296274
SMILES: O=C1C=C(OC2C=CC3C=CC=CC=3C=21)C1C=CC=CC=1
InChI: InChI=1S/C19H12O2/c20-16-12-18(14-7-2-1-3-8-14)21-17-11-10-13-6-4-5-9-15(13)19(16)17/h1-12H
Instrument type: ESI-QTOF
Ms type: MS2
Ion mode: POSITIVE
Ionization: ESI
Collision energy: 20
Precursor m/z: 273.0910060791
Precursor type: [M+H]+
m/z	relative intensity
115.054227	15
127.054227	10
129.033491	16
171.044056	27
273.091006	999
