Mass spectrum: 4-Pentylaniline; ESI-QTOF; MS2; CE: 20; [M+H]+
Name: 4-Pentylaniline
Name: DTXSID0040707
Formula: C11H17N
Exact mass: 163.1360995497
SMILES: CCCCCC1C=CC(N)=CC=1
InChI: InChI=1S/C11H17N/c1-2-3-4-5-10-6-8-11(12)9-7-10/h6-9H,2-5,12H2,1H3
Instrument type: ESI-QTOF
Ms type: MS2
Ion mode: POSITIVE
Ionization: ESI
Collision energy: 20
Precursor m/z: 164.1433760014
Precursor type: [M+H]+
m/z	relative intensity
41.038577	87
43.054227	691
55.054227	31
65.038577	18
71.085527	12
77.038577	54
79.054227	23
90.046402	49
91.054227	400
93.057301	32
94.065126	670
105.069877	39
106.065126	78
107.072951	134
120.080776	10
121.088601	10
164.143376	999
