Mass spectrum: BPS-MPE4; ESI-QTOF; MS2; CE: 40; [M+H]+
Name: BPS-MPE4
Name: DTXSID4058655
Formula: C19H16O4S
Exact mass: 340.0769297296
SMILES: OC1C=CC=CC=1S(=O)(=O)C1C=CC(=CC=1)OCC1C=CC=CC=1
InChI: InChI=1S/C19H16O4S/c20-18-8-4-5-9-19(18)24(21,22)17-12-10-16(11-13-17)23-14-15-6-2-1-3-7-15/h1-13,20H,14H2
Instrument type: ESI-QTOF
Ms type: MS2
Ion mode: POSITIVE
Ionization: ESI
Collision energy: 40
Precursor m/z: 341.0842061813
Precursor type: [M+H]+
m/z	relative intensity
65.038577	121
77.038577	10
91.054227	999
93.033491	121
94.041316	39
109.028406	48
141.000477	12
153.069877	10
156.995391	22
