Mass spectrum: Isophorone diamine; ESI-QTOF; MS2; CE: 40; [M+H]+
Name: Isophorone diamine
Name: DTXSID6027503
Formula: C10H22N2
Exact mass: 170.1782987166
SMILES: CC1(C)CC(N)CC(C)(C1)CN
InChI: InChI=1S/C10H22N2/c1-9(2)4-8(12)5-10(3,6-9)7-11/h8H,4-7,11-12H2,1-3H3
Instrument type: ESI-QTOF
Ms type: MS2
Ion mode: POSITIVE
Ionization: ESI
Collision energy: 40
Precursor m/z: 171.1855751683
Precursor type: [M+H]+
m/z	relative intensity
30.033826	45
39.022927	36
41.038577	874
43.054227	199
44.049476	66
53.038577	223
55.054227	999
56.049476	10
57.069877	85
65.038577	69
66.046402	30
67.054227	779
69.069877	156
70.065126	16
77.038577	91
79.054227	380
80.062052	19
81.069877	669
91.054227	61
93.069877	78
95.085527	435
105.069877	11
107.085527	10
109.101177	25
