Mass spectrum: 2-Chloro-N-phenylacetamide; ESI-QTOF; MS2; CE: 20; [M-H]-
Name: 2-Chloro-N-phenylacetamide
Name: DTXSID3041409
Formula: C8H8ClNO
Exact mass: 169.0294415949
SMILES: O=C(CCl)NC1C=CC=CC=1
InChI: InChI=1S/C8H8ClNO/c9-6-8(11)10-7-4-2-1-3-5-7/h1-5H,6H2,(H,10,11)
Instrument type: ESI-QTOF
Ms type: MS2
Ion mode: NEGATIVE
Ionization: ESI
Collision energy: 20
Precursor m/z: 168.0221651432
Precursor type: [M-H]-
m/z	relative intensity
34.969401	999
41.998537	11
