Mass spectrum: CP-471358; ESI-QTOF; MS2; CE: 10; [M+H]+
Name: CP-471358
Formula: C21H23FN2O7S
Exact mass: 466.1210000346
SMILES: OC(=O)CCN(C1(CCCC1)C(=O)NO)S(=O)(=O)C1C=CC(=CC=1)OC1C=CC(F)=CC=1
InChI: InChI=1S/C21H23FN2O7S/c22-15-3-5-16(6-4-15)31-17-7-9-18(10-8-17)32(29,30)24(14-11-19(25)26)21(20(27)23-28)12-1-2-13-21/h3-10,28H,1-2,11-14H2,(H,23,27)(H,25,26)
Instrument type: ESI-QTOF
Ms type: MS2
Ion mode: POSITIVE
Ionization: ESI
Collision energy: 10
Precursor m/z: 467.1282764863
Precursor type: [M+H]+
m/z	relative intensity
128.070605	999
128.1308	16
251.016579	44
280.043819	183
322.054383	140
340.064948	212
406.111898	81
