Mass spectrum: 2,4-Bis(1-methyl-1-phenylethyl)phenol; ESI-QTOF; MS2; CE: 40; [M-H]-
Name: 2,4-Bis(1-methyl-1-phenylethyl)phenol
Name: DTXSID7029241
Formula: C24H26O
Exact mass: 330.1983654517
SMILES: CC(C)(C1=CC(=C(O)C=C1)C(C)(C)C1C=CC=CC=1)C1C=CC=CC=1
InChI: InChI=1S/C24H26O/c1-23(2,18-11-7-5-8-12-18)20-15-16-22(25)21(17-20)24(3,4)19-13-9-6-10-14-19/h5-17,25H,1-4H3
Instrument type: ESI-QTOF
Ms type: MS2
Ion mode: NEGATIVE
Ionization: ESI
Collision energy: 40
Precursor m/z: 329.191089
Precursor type: [M-H]-
m/z	relative intensity
237.128489	10
251.144139	34
313.159789	999
314.167614	158
329.191089	20
