Mass spectrum: 2-Propene-1-sulfonic acid; ESI-QTOF; MS2; CE: 40; [M-H]-
Name: 2-Propene-1-sulfonic acid
Name: DTXSID3041451
Formula: C3H6O3S
Exact mass: 122.0037647883
SMILES: C=CCS(O)(=O)=O
InChI: InChI=1S/C3H6O3S/c1-2-3-7(4,5)6/h2H,1,3H2,(H,4,5,6)
Instrument type: ESI-QTOF
Ms type: MS2
Ion mode: NEGATIVE
Ionization: ESI
Collision energy: 40
Precursor m/z: 120.9964883366
Precursor type: [M-H]-
m/z	relative intensity
63.962449	41
79.957363	999
79.993749	22
