Mass spectrum: Decyl beta-D-glucopyranoside; ESI-QTOF; MS2; CE: 20; [M-H]-
Name: Decyl beta-D-glucopyranoside
Name: DTXSID2041208
Formula: C16H32O6
Exact mass: 320.2198887546
SMILES: CCCCCCCCCCOC1OC(CO)C(O)C(O)C1O
InChI: InChI=1S/C16H32O6/c1-2-3-4-5-6-7-8-9-10-21-16-15(20)14(19)13(18)12(11-17)22-16/h12-20H,2-11H2,1H3
Instrument type: ESI-QTOF
Ms type: MS2
Ion mode: NEGATIVE
Ionization: ESI
Collision energy: 20
Precursor m/z: 319.2126123029
Precursor type: [M-H]-
m/z	relative intensity
41.003288	26
43.018938	342
44.998203	150
55.018938	265
57.034588	68
59.013853	999
69.034588	20
71.013853	581
71.034982	12
73.029503	324
75.008768	18
83.013853	208
85.029503	456
86.000943	19
87.008768	25
89.024418	33
95.013853	65
97.029503	21
99.008768	71
101.024418	667
101.060803	15
111.008768	14
113.024418	245
125.024418	18
129.019332	13
157.159789	18
159.029897	17
161.045547	16
