Mass spectrum: Tridecanedioic acid; ESI-QTOF; MS2; CE: 10; [M-H]-
Name: Tridecanedioic acid
Name: DTXSID9021683
Formula: C13H24O4
Exact mass: 244.1674592548
SMILES: OC(=O)CCCCCCCCCCCC(O)=O
InChI: InChI=1S/C13H24O4/c14-12(15)10-8-6-4-2-1-3-5-7-9-11-13(16)17/h1-11H2,(H,14,15)(H,16,17)
Instrument type: ESI-QTOF
Ms type: MS2
Ion mode: NEGATIVE
Ionization: ESI
Collision energy: 10
Precursor m/z: 243.1601828031
Precursor type: [M-H]-
m/z	relative intensity
181.159789	87
225.149618	396
243.160183	999
