Mass spectrum: 3-[5-(Aminosulfonyl)benzoxazol-2-yl]-7-(diethylamino)coumarin; ESI-QTOF; MS2; CE: 40; [M+H]+
Name: 3-[5-(Aminosulfonyl)benzoxazol-2-yl]-7-(diethylamino)coumarin
Name: DTXSID6041476
Formula: C20H19N3O5S
Exact mass: 413.1045414698
SMILES: CCN(CC)C1=CC=C2C=C(C3=NC4C=C(C=CC=4O3)S(N)(=O)=O)C(=O)OC2=C1
InChI: InChI=1S/C20H19N3O5S/c1-3-23(4-2)13-6-5-12-9-15(20(24)28-18(12)10-13)19-22-16-11-14(29(21,25)26)7-8-17(16)27-19/h5-11H,3-4H2,1-2H3,(H2,21,25,26)
Instrument type: ESI-QTOF
Ms type: MS2
Ion mode: POSITIVE
Ionization: ESI
Collision energy: 40
Precursor m/z: 414.1118179215
Precursor type: [M+H]+
m/z	relative intensity
119.085527	18
261.065854	17
277.13354	19
289.060769	21
290.068594	90
290.102299	12
290.141365	16
305.128454	36
306.099894	13
319.107719	62
326.059388	22
333.123369	86
334.131194	592
342.030494	16
342.054303	21
349.118283	29
356.046144	32
358.121989	16
370.049218	853
370.121989	42
384.064868	81
386.080518	23
386.116903	16
398.080518	26
414.111818	999
