Mass spectrum: PharmaGSID_48507; ESI-QTOF; MS2; CE: 10; [M+H]+
Name: PharmaGSID_48507
Name: DTXSID0048507
Formula: C18H18F2N4O3
Exact mass: 376.1346968707
SMILES: CN1C(=O)C=C(OC2C=CC(F)=CC=2F)C2C=NC(NCC(C)(C)O)=NC1=2
InChI: InChI=1S/C18H18F2N4O3/c1-18(2,26)9-22-17-21-8-11-14(7-15(25)24(3)16(11)23-17)27-13-5-4-10(19)6-12(13)20/h4-8,26H,9H2,1-3H3,(H,21,22,23)
Instrument type: ESI-QTOF
Ms type: MS2
Ion mode: POSITIVE
Ionization: ESI
Collision energy: 10
Precursor m/z: 377.1419733224
Precursor type: [M+H]+
m/z	relative intensity
359.131409	296
377.141973	999
