Mass spectrum: 1,3-Benzenedicarboxylic acid, dihydrazide; ESI-QTOF; MS2; CE: 10; [M+H]+
Name: 1,3-Benzenedicarboxylic acid, dihydrazide
Name: DTXSID2038813
Formula: C8H10N4O2
Exact mass: 194.0803755932
SMILES: NNC(=O)C1=CC(=CC=C1)C(=O)NN
InChI: InChI=1S/C8H10N4O2/c9-11-7(13)5-2-1-3-6(4-5)8(14)12-10/h1-4H,9-10H2,(H,11,13)(H,12,14)
Instrument type: ESI-QTOF
Ms type: MS2
Ion mode: POSITIVE
Ionization: ESI
Collision energy: 10
Precursor m/z: 195.0876520449
Precursor type: [M+H]+
m/z	relative intensity
31.029075	13
45.033491	27
59.023989	114
77.038577	13
79.017841	55
89.059706	11
90.033826	25
92.049476	14
105.033491	22
118.02874	37
119.060375	28
120.04439	28
133.039639	10
137.070939	203
146.023655	92
160.050538	43
163.050204	174
177.077087	420
178.061103	25
195.087652	999
