Mass spectrum: Sulfuric acid, monooctadecyl ester; ESI-QTOF; MS2; CE: 40; [M-H]-
Name: Sulfuric acid, monooctadecyl ester
Formula: C18H38O4S
Exact mass: 350.2490804314
SMILES: CCCCCCCCCCCCCCCCCCOS(O)(=O)=O
InChI: InChI=1S/C18H38O4S/c1-2-3-4-5-6-7-8-9-10-11-12-13-14-15-16-17-18-22-23(19,20)21/h2-18H2,1H3,(H,19,20,21)
Instrument type: ESI-QTOF
Ms type: MS2
Ion mode: NEGATIVE
Ionization: ESI
Collision energy: 40
Precursor m/z: 349.2418039797
Precursor type: [M-H]-
m/z	relative intensity
79.957363	35
96.960103	999
96.996488	46
97.011744	23
349.241804	27
