Mass spectrum: 4-{2-Oxo-2-[3-(trifluoromethyl)phenyl]ethyl}benzonitrile; ESI-QTOF; MS2; CE: 10; [M-H]-
Name: 4-{2-Oxo-2-[3-(trifluoromethyl)phenyl]ethyl}benzonitrile
Name: DTXSID3044835
Formula: C16H10F3NO
Exact mass: 289.0714485487
SMILES: N#CC1C=CC(CC(=O)C2C=C(C=CC=2)C(F)(F)F)=CC=1
InChI: InChI=1S/C16H10F3NO/c17-16(18,19)14-3-1-2-13(9-14)15(21)8-11-4-6-12(10-20)7-5-11/h1-7,9H,8H2
Instrument type: ESI-QTOF
Ms type: MS2
Ion mode: NEGATIVE
Ionization: ESI
Collision energy: 10
Precursor m/z: 288.064172097
Precursor type: [M-H]-
m/z	relative intensity
142.029837	12
273.040697	14
288.064172	999
