Mass spectrum: AVE5638; ESI-QTOF; MS2; CE: 20; [M+H]+
Name: AVE5638
Name: DTXSID0047371
Formula: C25H23FN2O2
Exact mass: 402.1743561931
SMILES: NCC1C=C(C=CC=1)C1CCN(CC1)C(=O)C1=CC=C(C#CC2=CC=CC=C2F)O1
InChI: InChI=1S/C25H23FN2O2/c26-23-7-2-1-5-20(23)8-9-22-10-11-24(30-22)25(29)28-14-12-19(13-15-28)21-6-3-4-18(16-21)17-27/h1-7,10-11,16,19H,12-15,17,27H2
Instrument type: ESI-QTOF
Ms type: MS2
Ion mode: POSITIVE
Ionization: ESI
Collision energy: 20
Precursor m/z: 403.1816326448
Precursor type: [M+H]+
m/z	relative intensity
55.054227	10
56.049476	267
82.065126	27
84.080776	31
98.06004	11
131.085527	26
157.044805	28
171.060455	23
172.112076	16
174.127726	22
199.054227	56
200.10699	17
213.033491	93
217.13354	52
238.122641	14
247.091755	60
261.107405	12
273.107405	17
275.085527	23
287.123055	11
303.081584	999
303.14919	18
315.11797	10
316.149604	14
331.111742	80
358.160169	194
386.155084	551
403.181633	366
