Mass spectrum: 3-Hydroxy-2-naphthoic o-anisidide; ESI-QTOF; MS2; CE: 20; [M+H]+
Name: 3-Hydroxy-2-naphthoic o-anisidide
Name: DTXSID6038877
Formula: C18H15NO3
Exact mass: 293.1051933528
SMILES: COC1=CC=CC=C1NC(=O)C1=CC2C=CC=CC=2C=C1O
InChI: InChI=1S/C18H15NO3/c1-22-17-9-5-4-8-15(17)19-18(21)14-10-12-6-2-3-7-13(12)11-16(14)20/h2-11,20H,1H3,(H,19,21)
Instrument type: ESI-QTOF
Ms type: MS2
Ion mode: POSITIVE
Ionization: ESI
Collision energy: 20
Precursor m/z: 294.1124698045
Precursor type: [M+H]+
m/z	relative intensity
115.054227	36
143.049141	10
171.044056	999
171.088995	32
171.116827	17
