Mass spectrum: Butane-1-sulfonyl chloride; ESI-QTOF; MS2; CE: 20; [M+H]+
Name: Butane-1-sulfonyl chloride
Name: DTXSID3044883
Formula: C4H9ClO2S
Exact mass: 156.0011779717
SMILES: CCCCS(=O)(=O)Cl
InChI: InChI=1S/C4H9ClO2S/c1-2-3-4-8(5,6)7/h2-4H2,1H3
Instrument type: ESI-QTOF
Ms type: MS2
Ion mode: POSITIVE
Ionization: ESI
Collision energy: 20
Precursor m/z: 157.0084544234
Precursor type: [M+H]+
m/z	relative intensity
46.994997	14
61.010647	56
62.018472	14
63.997737	159
79.021212	999
