Mass spectrum: N-Butyl-p-toluenesulfonamide; ESI-QTOF; MS2; CE: 10; [M-H]-
Name: N-Butyl-p-toluenesulfonamide
Name: DTXSID7042198
Formula: C11H17NO2S
Exact mass: 227.0979995243
SMILES: CC1C=CC(=CC=1)S(=O)(=O)NCCCC
InChI: InChI=1S/C11H17NO2S/c1-3-4-9-12-15(13,14)11-7-5-10(2)6-8-11/h5-8,12H,3-4,9H2,1-2H3
Instrument type: ESI-QTOF
Ms type: MS2
Ion mode: NEGATIVE
Ionization: ESI
Collision energy: 10
Precursor m/z: 226.0907230726
Precursor type: [M-H]-
m/z	relative intensity
63.962449	23
64.970274	43
136.043773	11
160.113173	14
162.128823	28
170.028123	19
226.090723	999
