Mass spectrum: PharmaGSID_48172; ESI-QTOF; MS2; CE: 10; [M+H]+
Name: PharmaGSID_48172
Name: DTXSID1048172
Formula: C23H24N4O3S
Exact mass: 436.1569113921
SMILES: O=C1C2C=CC=CC=2C(=O)N1CCC1N=C(ON=1)C1=CC=C(CN2CCCCCC2)S1
InChI: InChI=1S/C23H24N4O3S/c28-22-17-7-3-4-8-18(17)23(29)27(22)14-11-20-24-21(30-25-20)19-10-9-16(31-19)15-26-12-5-1-2-6-13-26/h3-4,7-10H,1-2,5-6,11-15H2
Instrument type: ESI-QTOF
Ms type: MS2
Ion mode: POSITIVE
Ionization: ESI
Collision energy: 10
Precursor m/z: 437.1641878438
Precursor type: [M+H]+
m/z	relative intensity
98.096426	40
174.053612	19
338.058698	376
437.164188	999
