Mass spectrum: Dimethyl phosphate; ESI-QTOF; MS2; CE: 40; [M-H]-
Name: Dimethyl phosphate
Formula: C2H7O4P
Exact mass: 126.0081952025
SMILES: COP(O)(=O)OC
InChI: InChI=1S/C2H7O4P/c1-5-7(3,4)6-2/h1-2H3,(H,3,4)
Instrument type: ESI-QTOF
Ms type: MS2
Ion mode: NEGATIVE
Ionization: ESI
Collision energy: 40
Precursor m/z: 125.0009187508
Precursor type: [M-H]-
m/z	relative intensity
62.964139	255
78.959054	999
78.995439	37
79.003682	22
