Mass spectrum: AVE6324; ESI-QTOF; MS2; CE: 40; [M+H]+
Name: AVE6324
Name: DTXSID0047377
Formula: C31H35ClN4O7S
Exact mass: 642.1914979422
SMILES: CC(C)N1CCC(CC1)NC(=O)C1=CC2C=C(C=CC=2N1CC1C=C(ON=1)C1=CC=C(Cl)S1)C(=O)OC(C)OC(=O)OCC
InChI: InChI=1S/C31H35ClN4O7S/c1-5-40-31(39)42-19(4)41-30(38)20-6-7-24-21(14-20)15-25(29(37)33-22-10-12-35(13-11-22)18(2)3)36(24)17-23-16-26(43-34-23)27-8-9-28(32)44-27/h6-9,14-16,18-19,22H,5,10-13,17H2,1-4H3,(H,33,37)
Instrument type: ESI-QTOF
Ms type: MS2
Ion mode: POSITIVE
Ionization: ESI
Collision energy: 40
Precursor m/z: 643.1987743939
Precursor type: [M+H]+
m/z	relative intensity
84.080776	32
124.112076	37
126.127726	160
144.95094	41
169.13354	11
170.023655	10
197.977489	13
223.050204	12
341.014602	32
385.004432	27
501.051776	13
509.141721	999
509.223045	44
509.254717	21
510.143982	12
527.15143	18
