Mass spectrum: Acetyltriethyl citrate; ESI-QTOF; MS2; CE: 10; [M+H]+
Name: Acetyltriethyl citrate
Formula: C14H22O8
Exact mass: 318.1314676802
SMILES: CC(=O)OC(CC(=O)OCC)(CC(=O)OCC)C(=O)OCC
InChI: InChI=1S/C14H22O8/c1-5-19-11(16)8-14(22-10(4)15,13(18)21-7-3)9-12(17)20-6-2/h5-9H2,1-4H3
Instrument type: ESI-QTOF
Ms type: MS2
Ion mode: POSITIVE
Ionization: ESI
Collision energy: 10
Precursor m/z: 319.1387441319
Precursor type: [M+H]+
m/z	relative intensity
139.002585	52
157.01315	33
157.049535	833
157.101177	20
167.033885	119
185.04445	281
203.0914	999
203.143042	26
203.164171	11
213.07575	953
213.148521	12
231.086315	19
273.096879	203
277.128179	159
