Mass spectrum: C.I. Disperse Red 60; ESI-QTOF; MS2; CE: 40; [M+H]+
Name: C.I. Disperse Red 60
Name: DTXSID2025210
Formula: C20H13NO4
Exact mass: 331.0844579113
SMILES: NC1=C2C(=C(O)C=C1OC1C=CC=CC=1)C(=O)C1C=CC=CC=1C2=O
InChI: InChI=1S/C20H13NO4/c21-18-15(25-11-6-2-1-3-7-11)10-14(22)16-17(18)20(24)13-9-5-4-8-12(13)19(16)23/h1-10,22H,21H2
Instrument type: ESI-QTOF
Ms type: MS2
Ion mode: POSITIVE
Ionization: ESI
Collision energy: 40
Precursor m/z: 332.091734363
Precursor type: [M+H]+
m/z	relative intensity
43.054227	36
51.022927	20
57.069877	24
65.038577	38
67.054227	10
77.038577	127
92.049476	105
93.057301	131
103.054227	17
105.033491	168
115.054227	56
127.054227	86
128.062052	26
131.049141	19
139.054227	28
142.065126	30
143.049141	41
143.072951	13
144.056966	11
152.049476	19
154.041316	12
154.065126	123
155.049141	55
155.070271	25
156.04439	84
157.028406	16
159.044056	38
164.049476	42
170.06004	81
171.044056	20
171.065185	14
172.051881	13
180.04439	31
181.028406	28
181.052215	15
182.036231	17
182.06004	167
183.044056	93
183.067865	51
184.039305	56
185.04713	33
189.069877	10
192.04439	34
194.06004	10
198.054955	164
199.038971	71
199.06278	42
202.077702	26
203.085527	26
208.039305	10
209.02332	19
209.04713	12
210.031145	35
210.054955	124
211.038971	23
211.06278	243
212.034219	11
213.069877	11
216.080776	23
217.064791	10
220.039305	23
226.04987	826
227.057695	349
228.080776	19
229.088601	10
230.096426	85
231.080441	41
238.02606	10
238.04987	454
239.057695	999
240.080776	60
241.088601	18
244.07569	99
254.044784	87
255.052609	373
257.083515	29
258.09134	69
259.075356	11
262.086255	20
268.07569	57
272.070605	26
285.07843	24
286.086255	59
287.070271	17
296.070605	20
304.09682	85
314.08117	327
331.083909	10
332.091734	58
