Mass spectrum: 1,2,2,6,6-Pentamethylpiperidin-4-ol; ESI-QTOF; MS2; CE: 10; [M+H]+
Name: 1,2,2,6,6-Pentamethylpiperidin-4-ol
Name: DTXSID3044411
Formula: C10H21NO
Exact mass: 171.1623142996
SMILES: CN1C(C)(C)CC(O)CC1(C)C
InChI: InChI=1S/C10H21NO/c1-9(2)6-8(12)7-10(3,4)11(9)5/h8,12H,6-7H2,1-5H3
Instrument type: ESI-QTOF
Ms type: MS2
Ion mode: POSITIVE
Ionization: ESI
Collision energy: 10
Precursor m/z: 172.1695907513
Precursor type: [M+H]+
m/z	relative intensity
72.080776	80
116.10699	13
172.169591	999
