Mass spectrum: 5,7-Dimethoxy-2H-chromen-2-one; ESI-QTOF; MS2; CE: 10; [M+H]+
Name: 5,7-Dimethoxy-2H-chromen-2-one
Name: DTXSID1041421
Formula: C11H10O4
Exact mass: 206.0579088082
SMILES: COC1C=C(OC)C2C=CC(=O)OC=2C=1
InChI: InChI=1S/C11H10O4/c1-13-7-5-9(14-2)8-3-4-11(12)15-10(8)6-7/h3-6H,1-2H3
Instrument type: ESI-QTOF
Ms type: MS2
Ion mode: POSITIVE
Ionization: ESI
Collision energy: 10
Precursor m/z: 207.0651852599
Precursor type: [M+H]+
m/z	relative intensity
151.075356	11
163.075356	23
164.046796	11
192.04171	21
207.065185	999
