Mass spectrum: Tetrachlorocatechol; ESI-QTOF; MS2; CE: 20; [M-H]-
Name: Tetrachlorocatechol
Formula: C6H2Cl4O2
Exact mass: 245.8808901484
SMILES: OC1C(Cl)=C(Cl)C(Cl)=C(Cl)C=1O
InChI: InChI=1S/C6H2Cl4O2/c7-1-2(8)4(10)6(12)5(11)3(1)9/h11-12H
Instrument type: ESI-QTOF
Ms type: MS2
Ion mode: NEGATIVE
Ionization: ESI
Collision energy: 20
Precursor m/z: 244.8736136967
Precursor type: [M-H]-
m/z	relative intensity
34.969401	999
180.902021	59
208.896936	342
244.873614	669
