Mass spectrum: N-Vinyl-2-pyrrolidone; ESI-QTOF; MS2; CE: 20; [M+H]+
Name: N-Vinyl-2-pyrrolidone
Formula: C6H9NO
Exact mass: 111.0684139168
SMILES: C=CN1CCCC1=O
InChI: InChI=1S/C6H9NO/c1-2-7-5-3-4-6(7)8/h2H,1,3-5H2
Instrument type: ESI-QTOF
Ms type: MS2
Ion mode: POSITIVE
Ionization: ESI
Collision energy: 20
Precursor m/z: 112.0756903685
Precursor type: [M+H]+
m/z	relative intensity
39.022927	64
41.038577	999
42.033826	39
43.054227	10
44.049476	92
56.049476	68
67.054227	22
69.033491	959
69.069877	29
82.065126	17
84.080776	99
112.07569	69
