Mass spectrum: 1-Butyl-1-methylpyrrolidinium; ESI-QTOF; MS2; CE: 40; [M+H]+
Name: 1-Butyl-1-methylpyrrolidinium
Name: DTXSID1031460
Formula: [C9H20N]+
Exact mass: 142.1595746454
SMILES: CCCC[N+]1(C)CCCC1
InChI: InChI=1S/C9H20N/c1-3-4-7-10(2)8-5-6-9-10/h3-9H2,1-2H3/q+1
Instrument type: ESI-QTOF
Ms type: MS2
Ion mode: POSITIVE
Ionization: ESI
Collision energy: 40
Precursor m/z: 143.1668510971
Precursor type: [M+H]+
m/z	relative intensity
29.038577	29
39.022927	41
40.030752	26
41.038577	515
42.033826	208
42.046402	175
43.041651	46
44.049476	999
45.057301	269
55.054227	75
56.049476	16
56.062052	20
57.057301	107
58.065126	80
58.077702	52
71.072951	13
82.065126	37
84.080776	486
84.093352	40
85.088601	476
86.096426	128
87.104251	210
143.166851	11
