Mass spectrum: Aplaviroc; ESI-QTOF; MS2; CE: 10; [M-H]-
Name: Aplaviroc
Name: DTXSID1047316
Formula: C33H43N3O6
Exact mass: 577.3151861277
SMILES: CCCCN1C(=O)C(NC(=O)C21CCN(CC1C=CC(=CC=1)OC1=CC=C(C=C1)C(O)=O)CC2)C(O)C1CCCCC1
InChI: InChI=1S/C33H43N3O6/c1-2-3-19-36-30(38)28(29(37)24-7-5-4-6-8-24)34-32(41)33(36)17-20-35(21-18-33)22-23-9-13-26(14-10-23)42-27-15-11-25(12-16-27)31(39)40/h9-16,24,28-29,37H,2-8,17-22H2,1H3,(H,34,41)(H,39,40)
Instrument type: ESI-QTOF
Ms type: MS2
Ion mode: NEGATIVE
Ionization: ESI
Collision energy: 10
Precursor m/z: 576.307909676
Precursor type: [M-H]-
m/z	relative intensity
420.229265	12
464.219095	999
464.293208	16
465.221046	33
576.30791	300
