Mass spectrum: 4-Phenylphenol; ESI-QTOF; MS2; CE: 40; [M-H]-
Name: 4-Phenylphenol
Name: 4-Hydroxybiphenyl
Name: 4-Hydroxydiphenyl
Name: P-Phenylphenol
Name: Biphenyl-4-ol
Name: P-Hydroxybiphenyl
Formula: C12H10O
Exact mass: 170.0731649413
SMILES: OC1C=CC(=CC=1)C1C=CC=CC=1
InChI: InChI=1S/C12H10O/c13-12-8-6-11(7-9-12)10-4-2-1-3-5-10/h1-9,13H
Instrument type: ESI-QTOF
Ms type: MS2
Ion mode: NEGATIVE
Ionization: ESI
Collision energy: 40
Precursor m/z: 169.0658884896
Precursor type: [M-H]-
m/z	relative intensity
39.024024	44
41.003288	93
65.003288	20
65.039674	449
92.026763	70
93.034588	999
93.070974	19
101.039674	117
115.055324	159
117.034588	13
139.055324	19
141.070974	291
143.050238	40
167.050238	10
169.065888	153
