Mass spectrum: 1,1-Bis(3-cyclohexyl-4-hydroxyphenyl)cyclohexane; ESI-QTOF; MS2; CE: 40; [M-H]-
Name: 1,1-Bis(3-cyclohexyl-4-hydroxyphenyl)cyclohexane
Name: DTXSID6051306
Formula: C30H40O2
Exact mass: 432.3028305206
SMILES: OC1C=CC(=CC=1C1CCCCC1)C1(CCCCC1)C1C=C(C2CCCCC2)C(O)=CC=1
InChI: InChI=1S/C30H40O2/c31-28-16-14-24(20-26(28)22-10-4-1-5-11-22)30(18-8-3-9-19-30)25-15-17-29(32)27(21-25)23-12-6-2-7-13-23/h14-17,20-23,31-32H,1-13,18-19H2
Instrument type: ESI-QTOF
Ms type: MS2
Ion mode: NEGATIVE
Ionization: ESI
Collision energy: 40
Precursor m/z: 431.2955540689
Precursor type: [M-H]-
m/z	relative intensity
175.112839	16
227.144139	20
255.175439	120
361.217304	26
362.225129	31
387.232954	40
388.240779	35
431.295554	999
