Mass spectrum: 3,4,4'-Triaminodiphenyl ether; ESI-QTOF; MS2; CE: 40; [M+H]+
Name: 3,4,4'-Triaminodiphenyl ether
Name: DTXSID1021372
Formula: C12H13N3O
Exact mass: 215.1058620592
SMILES: NC1C=CC(=CC=1)OC1C=C(N)C(N)=CC=1
InChI: InChI=1S/C12H13N3O/c13-8-1-3-9(4-2-8)16-10-5-6-11(14)12(15)7-10/h1-7H,13-15H2
Instrument type: ESI-QTOF
Ms type: MS2
Ion mode: POSITIVE
Ionization: ESI
Collision energy: 40
Precursor m/z: 216.1131385109
Precursor type: [M+H]+
m/z	relative intensity
53.038577	104
65.038577	142
67.041651	11
78.033826	12
80.049476	999
80.081838	23
80.094414	15
81.057301	199
91.041651	29
92.049476	105
95.060375	28
107.060375	111
108.04439	352
108.0682	533
109.076025	32
127.054227	19
130.065126	10
143.072951	14
144.080776	10
154.065126	11
