Mass spectrum: Diphenyl isophthalate; ESI-QTOF; MS2; CE: 10; [M+H]+
Name: Diphenyl isophthalate
Name: DTXSID8037752
Formula: C20H14O4
Exact mass: 318.0892089358
SMILES: O=C(OC1C=CC=CC=1)C1=CC(=CC=C1)C(=O)OC1C=CC=CC=1
InChI: InChI=1S/C20H14O4/c21-19(23-17-10-3-1-4-11-17)15-8-7-9-16(14-15)20(22)24-18-12-5-2-6-13-18/h1-14H
Instrument type: ESI-QTOF
Ms type: MS2
Ion mode: POSITIVE
Ionization: ESI
Collision energy: 10
Precursor m/z: 319.0964853875
Precursor type: [M+H]+
m/z	relative intensity
225.054621	999
319.096485	64
