Mass spectrum: 5,7-Dimethoxy-2H-chromen-2-one; ESI-QTOF; MS2; CE: 20; [M+H]+
Name: 5,7-Dimethoxy-2H-chromen-2-one
Name: DTXSID1041421
Formula: C11H10O4
Exact mass: 206.0579088082
SMILES: COC1C=C(OC)C2C=CC(=O)OC=2C=1
InChI: InChI=1S/C11H10O4/c1-13-7-5-9(14-2)8-3-4-11(12)15-10(8)6-7/h3-6H,1-2H3
Instrument type: ESI-QTOF
Ms type: MS2
Ion mode: POSITIVE
Ionization: ESI
Collision energy: 20
Precursor m/z: 207.0651852599
Precursor type: [M+H]+
m/z	relative intensity
77.038577	33
78.046402	13
79.054227	20
91.054227	65
103.054227	32
105.069877	17
118.041316	24
119.049141	23
120.056966	19
121.064791	217
123.080441	15
133.028406	10
133.064791	38
147.044056	13
148.051881	94
149.02332	62
151.075356	208
162.031145	17
163.038971	94
163.075356	164
164.046796	240
179.070271	51
191.033885	19
192.04171	409
207.065185	999
