Mass spectrum: N-Phenyldiethanolamine; ESI-QTOF; MS2; CE: 10; [M+H]+
Name: N-Phenyldiethanolamine
Formula: C10H15NO2
Exact mass: 181.1102787305
SMILES: OCCN(CCO)C1C=CC=CC=1
InChI: InChI=1S/C10H15NO2/c12-8-6-11(7-9-13)10-4-2-1-3-5-10/h1-5,12-13H,6-9H2
Instrument type: ESI-QTOF
Ms type: MS2
Ion mode: POSITIVE
Ionization: ESI
Collision energy: 10
Precursor m/z: 182.1175551822
Precursor type: [M+H]+
m/z	relative intensity
106.065126	29
118.065126	13
119.072951	45
120.080776	169
137.083515	25
138.09134	42
146.096426	55
164.10699	252
182.117555	999
