Mass spectrum: 2-Amino-N-cyclohexyl-N-methylbenzenesulfonamide; ESI-QTOF; MS2; CE: 20; [M+H]+
Name: 2-Amino-N-cyclohexyl-N-methylbenzenesulfonamide
Name: DTXSID1044982
Formula: C13H20N2O2S
Exact mass: 268.1245486274
SMILES: CN(C1CCCCC1)S(=O)(=O)C1=CC=CC=C1N
InChI: InChI=1S/C13H20N2O2S/c1-15(11-7-3-2-4-8-11)18(16,17)13-10-6-5-9-12(13)14/h5-6,9-11H,2-4,7-8,14H2,1H3
Instrument type: ESI-QTOF
Ms type: MS2
Ion mode: POSITIVE
Ionization: ESI
Collision energy: 20
Precursor m/z: 269.1318250791
Precursor type: [M+H]+
m/z	relative intensity
55.054227	133
65.038577	25
83.085527	163
92.049476	813
92.086552	13
108.04439	209
156.011376	999
156.056966	18
187.053575	112
