Mass spectrum: Dehydrothio-4-toluidine; ESI-QTOF; MS2; CE: 40; [M+H]+
Name: Dehydrothio-4-toluidine
Formula: C14H12N2S
Exact mass: 240.0721191276
SMILES: CC1C=C2SC(=NC2=CC=1)C1C=CC(N)=CC=1
InChI: InChI=1S/C14H12N2S/c1-9-2-7-12-13(8-9)17-14(16-12)10-3-5-11(15)6-4-10/h2-8H,15H2,1H3
Instrument type: ESI-QTOF
Ms type: MS2
Ion mode: POSITIVE
Ionization: ESI
Collision energy: 40
Precursor m/z: 241.0793955793
Precursor type: [M+H]+
m/z	relative intensity
44.979347	999
51.022927	19
65.038577	74
77.038577	300
78.046402	11
79.054227	733
80.049476	73
91.041651	25
91.054227	55
92.049476	63
93.057301	81
97.010647	55
108.002822	67
118.05255	403
119.060375	91
121.010647	42
122.018472	23
123.026297	823
123.091675	14
124.021546	219
149.016795	10
167.072951	10
180.080776	16
181.088601	11
187.045021	10
198.037196	24
199.045021	71
200.052846	55
201.060672	10
207.091675	12
208.0995	15
209.029371	97
213.060672	16
214.068497	40
223.045021	21
224.052846	86
225.048095	76
226.05592	365
239.063746	30
240.071571	53
241.079396	282
