Mass spectrum: Tetraisopropyl methylenediphosphonate; ESI-QTOF; MS2; CE: 10; [M-H]-
Name: Tetraisopropyl methylenediphosphonate
Name: DTXSID7044847
Formula: C13H30O6P2
Exact mass: 344.1517616708
SMILES: CC(C)OP(=O)(CP(=O)(OC(C)C)OC(C)C)OC(C)C
InChI: InChI=1S/C13H30O6P2/c1-10(2)16-20(14,17-11(3)4)9-21(15,18-12(5)6)19-13(7)8/h10-13H,9H2,1-8H3
Instrument type: ESI-QTOF
Ms type: MS2
Ion mode: NEGATIVE
Ionization: ESI
Collision energy: 10
Precursor m/z: 343.1444852191
Precursor type: [M-H]-
m/z	relative intensity
62.964139	36
78.959054	14
132.034565	11
148.988032	12
156.94612	18
198.971941	11
198.99307	100
259.050585	57
281.034935	24
301.097535	411
343.144485	999
