Mass spectrum: 2-[4-(Diethylamino)-2-hydroxybenzoyl]benzoic acid; ESI-QTOF; MS2; CE: 40; [M+H]+
Name: 2-[4-(Diethylamino)-2-hydroxybenzoyl]benzoic acid
Name: DTXSID4027604
Formula: C18H19NO4
Exact mass: 313.1314081027
SMILES: CCN(CC)C1=CC(O)=C(C=C1)C(=O)C1C=CC=CC=1C(O)=O
InChI: InChI=1S/C18H19NO4/c1-3-19(4-2)12-9-10-15(16(20)11-12)17(21)13-7-5-6-8-14(13)18(22)23/h5-11,20H,3-4H2,1-2H3,(H,22,23)
Instrument type: ESI-QTOF
Ms type: MS2
Ion mode: POSITIVE
Ionization: ESI
Collision energy: 40
Precursor m/z: 314.1386845544
Precursor type: [M+H]+
m/z	relative intensity
39.022927	11
42.033826	12
44.049476	20
58.065126	23
65.038577	165
72.080776	32
77.038577	20
91.054227	11
92.049476	21
93.033491	229
93.069877	12
95.049141	11
105.033491	34
109.052215	52
110.06004	64
120.080776	21
121.028406	328
122.06004	187
133.028406	19
136.07569	75
137.083515	77
138.09134	163
139.054227	19
141.069877	20
149.02332	999
149.068259	22
149.083515	13
150.09134	13
152.062052	15
153.069877	15
157.064791	12
164.070605	108
164.10699	65
165.069877	11
166.122641	189
167.049141	10
167.085527	10
169.064791	12
180.080776	12
181.064791	23
184.051881	16
194.06004	12
194.096426	13
195.044056	14
195.080441	14
195.104251	11
196.051881	44
196.07569	37
197.059706	71
198.067531	23
208.07569	56
209.059706	12
210.054955	12
210.09134	15
211.06278	32
212.070605	24
220.07569	11
222.054955	14
222.09134	20
223.038971	33
223.054227	10
223.075356	10
224.070605	178
224.10431	22
225.054621	38
225.07843	16
226.04987	11
226.086255	18
232.07569	15
233.080835	10
234.054955	16
235.06278	19
238.04987	19
238.086255	25
239.057695	20
239.09408	37
240.06552	29
240.101905	414
248.070605	12
249.07843	11
250.086255	44
252.06552	290
266.08117	227
267.088995	25
268.09682	25
270.076084	37
