Mass spectrum: Diacetone acrylamide; ESI-QTOF; MS2; CE: 10; [M+H]+
Name: Diacetone acrylamide
Name: DTXSID1024916
Formula: C9H15NO2
Exact mass: 169.1102787305
SMILES: CC(=O)CC(C)(C)NC(=O)C=C
InChI: InChI=1S/C9H15NO2/c1-5-8(12)10-9(3,4)6-7(2)11/h5H,1,6H2,2-4H3,(H,10,12)
Instrument type: ESI-QTOF
Ms type: MS2
Ion mode: POSITIVE
Ionization: ESI
Collision energy: 10
Precursor m/z: 170.1175551822
Precursor type: [M+H]+
m/z	relative intensity
43.017841	132
55.017841	35
58.065126	108
72.04439	483
72.080776	10
81.069877	14
99.080441	999
99.116827	23
112.07569	102
170.117555	63
