Mass spectrum: 4-Methoxy-2-methylaniline; ESI-QTOF; MS2; CE: 20; [M+H]+
Name: 4-Methoxy-2-methylaniline
Formula: C8H11NO
Exact mass: 137.0840639806
SMILES: CC1C=C(C=CC=1N)OC
InChI: InChI=1S/C8H11NO/c1-6-5-7(10-2)3-4-8(6)9/h3-5H,9H2,1-2H3
Instrument type: ESI-QTOF
Ms type: MS2
Ion mode: POSITIVE
Ionization: ESI
Collision energy: 20
Precursor m/z: 138.0913404323
Precursor type: [M+H]+
m/z	relative intensity
51.022927	22
52.030752	10
55.017841	17
65.038577	107
77.038577	278
78.046402	210
79.017841	12
79.054227	82
80.049476	69
91.054227	387
92.062052	34
93.057301	50
94.065126	180
95.072951	144
105.033491	10
106.041316	52
106.065126	300
107.072951	492
108.04439	638
108.080776	80
109.052215	49
121.064791	205
122.06004	133
123.067865	999
124.07569	81
137.083515	25
138.09134	311
