Mass spectrum: Bromamine acid; ESI-QTOF; MS2; CE: 40; [M-H]-
Name: Bromamine acid
Formula: C14H8BrNO5S
Exact mass: 380.9306560041
SMILES: NC1C2=C(C(Br)=CC=1S(O)(=O)=O)C(=O)C1C=CC=CC=1C2=O
InChI: InChI=1S/C14H8BrNO5S/c15-8-5-9(22(19,20)21)12(16)11-10(8)13(17)6-3-1-2-4-7(6)14(11)18/h1-5H,16H2,(H,19,20,21)
Instrument type: ESI-QTOF
Ms type: MS2
Ion mode: NEGATIVE
Ionization: ESI
Collision energy: 40
Precursor m/z: 379.9233795524
Precursor type: [M-H]-
m/z	relative intensity
78.918886	999
79.957363	99
152.050573	23
180.045487	179
207.032577	10
208.040402	274
209.048227	14
236.035317	126
299.966565	10
301.005042	38
315.96148	267
379.92338	129
