Mass spectrum: Salicylhydroxamic acid; ESI-QTOF; MS2; CE: 10; [M-H]-
Name: Salicylhydroxamic acid
Formula: C7H7NO3
Exact mass: 153.0425930976
SMILES: OC1C=CC=CC=1C(=O)NO
InChI: InChI=1S/C7H7NO3/c9-6-4-2-1-3-5(6)7(10)8-11/h1-4,9,11H,(H,8,10)
Instrument type: ESI-QTOF
Ms type: MS2
Ion mode: NEGATIVE
Ionization: ESI
Collision energy: 10
Precursor m/z: 152.0353166459
Precursor type: [M-H]-
m/z	relative intensity
41.998537	210
78.034923	24
91.018938	14
92.026763	566
108.045487	27
134.024752	999
136.016593	158
152.035317	370
