Mass spectrum: Ricinine; ESI-QTOF; MS2; CE: 40; [M+H]+
Name: Ricinine
Name: DTXSID50200412
Formula: C8H8N2O2
Exact mass: 164.0585775146
SMILES: COC1C=CN(C)C(=O)C=1C#N
InChI: InChI=1S/C8H8N2O2/c1-10-4-3-7(12-2)6(5-9)8(10)11/h3-4H,1-2H3
Instrument type: ESI-QTOF
Ms type: MS2
Ion mode: POSITIVE
Ionization: ESI
Collision energy: 40
Precursor m/z: 165.0658539663
Precursor type: [M+H]+
m/z	relative intensity
39.022927	82
40.030752	16
41.026001	74
41.038577	46
42.033826	999
43.017841	26
51.022927	60
52.018175	23
52.030752	12
53.002191	55
53.026001	11
53.038577	84
54.033826	195
55.017841	212
55.041651	107
56.049476	62
58.02874	30
58.065126	10
64.018175	71
65.026001	16
65.038577	44
65.99744	12
66.033826	56
67.005265	45
67.041651	241
68.01309	23
68.049476	100
69.033491	16
70.065126	23
76.018175	18
77.026001	21
78.033826	79
79.029075	10
79.041651	14
80.01309	27
80.049476	51
81.020915	14
82.02874	770
82.065126	29
83.012756	43
83.036565	22
84.04439	436
90.021249	25
92.0369	10
92.049476	18
93.020915	16
93.044725	429
93.992355	17
94.02874	32
94.05255	32
95.036565	25
103.029075	14
105.044725	96
108.04439	45
109.052215	15
110.06004	22
121.039639	34
122.047464	27
