Mass spectrum: 4-Pyridinol; ESI-QTOF; MS2; CE: 40; [M-H]-
Name: 4-Pyridinol
Name: DTXSID2052310
Formula: C5H5NO
Exact mass: 95.0371137892
SMILES: OC1C=CN=CC=1
InChI: InChI=1S/C5H5NO/c7-5-1-3-6-4-2-5/h1-4H,(H,6,7)
Instrument type: ESI-QTOF
Ms type: MS2
Ion mode: NEGATIVE
Ionization: ESI
Collision energy: 40
Precursor m/z: 94.0298373375
Precursor type: [M-H]-
m/z	relative intensity
38.003623	68
39.011448	93
39.024024	71
40.019273	447
41.003288	999
41.027098	20
49.008374	95
50.003623	51
52.019273	24
64.019273	14
65.027098	13
65.998537	466
66.034923	173
67.018938	17
68.014187	119
94.029837	217
