Mass spectrum: 1,3-Cyclohexanedione; ESI-QTOF; MS2; CE: 40; [M+H]+
Name: 1,3-Cyclohexanedione
Name: DTXSID1044433
Formula: C6H8O2
Exact mass: 112.0524294998
SMILES: O=C1CC(=O)CCC1
InChI: InChI=1S/C6H8O2/c7-5-2-1-3-6(8)4-5/h1-4H2
Instrument type: ESI-QTOF
Ms type: MS2
Ion mode: POSITIVE
Ionization: ESI
Collision energy: 40
Precursor m/z: 113.0597059515
Precursor type: [M+H]+
m/z	relative intensity
31.017841	18
39.022927	556
39.044056	10
41.038577	935
41.059706	15
42.010016	20
43.017841	999
43.054227	10
44.997106	15
45.033491	43
51.022927	335
52.030752	51
53.038577	32
55.017841	600
55.054227	81
57.033491	24
65.038577	220
66.046402	11
67.054227	136
71.012756	263
77.038577	246
77.059706	19
81.033491	23
82.041316	32
95.049141	19
113.059706	10
