Mass spectrum: UK-416244; ESI-QTOF; MS2; CE: 20; [M+H]+
Name: UK-416244
Name: DTXSID0047290
Formula: C17H22N2O3S2
Exact mass: 366.1071840435
SMILES: CC1=CC(=CC=C1SC)OC1=CC=C(C=C1CN(C)C)S(N)(=O)=O
InChI: InChI=1S/C17H22N2O3S2/c1-12-9-14(5-8-17(12)23-4)22-16-7-6-15(24(18,20)21)10-13(16)11-19(2)3/h5-10H,11H2,1-4H3,(H2,18,20,21)
Instrument type: ESI-QTOF
Ms type: MS2
Ion mode: POSITIVE
Ionization: ESI
Collision energy: 20
Precursor m/z: 367.1144604952
Precursor type: [M+H]+
m/z	relative intensity
44.049476	18
194.072616	39
195.080441	50
227.052512	12
241.068162	21
242.075987	248
260.03759	282
274.05324	223
275.061065	999
275.124631	22
275.151595	10
276.06889	11
307.033136	11
320.040961	13
322.056611	435
367.11446	262
