Mass spectrum: Todralazine; ESI-QTOF; MS2; CE: 20; [M+H]+
Name: Todralazine
Name: DTXSID4044664
Formula: C11H12N4O2
Exact mass: 232.096025657
SMILES: CCOC(=O)NNC1=NN=CC2=CC=CC=C21
InChI: InChI=1S/C11H12N4O2/c1-2-17-11(16)15-14-10-9-6-4-3-5-8(9)7-12-13-10/h3-7H,2H2,1H3,(H,13,14)(H,15,16)
Instrument type: ESI-QTOF
Ms type: MS2
Ion mode: POSITIVE
Ionization: ESI
Collision energy: 20
Precursor m/z: 233.1033021087
Precursor type: [M+H]+
m/z	relative intensity
89.038577	295
104.049476	25
116.049476	84
117.057301	23
130.05255	14
131.060375	101
132.0682	151
144.055624	13
145.063449	183
159.066523	270
160.074348	22
160.0995	12
161.082173	999
187.061437	489
187.110399	10
205.072002	258
233.103302	139
