Mass spectrum: 4,4'-Oxybis(benzenesulfohydrazide); ESI-QTOF; MS2; CE: 40; [M-H]-
Name: 4,4'-Oxybis(benzenesulfohydrazide)
Formula: C12H14N4O5S2
Exact mass: 358.0405610477
SMILES: NNS(=O)(=O)C1C=CC(=CC=1)OC1C=CC(=CC=1)S(=O)(=O)NN
InChI: InChI=1S/C12H14N4O5S2/c13-15-22(17,18)11-5-1-9(2-6-11)21-10-3-7-12(8-4-10)23(19,20)16-14/h1-8,15-16H,13-14H2
Instrument type: ESI-QTOF
Ms type: MS2
Ion mode: NEGATIVE
Ionization: ESI
Collision energy: 40
Precursor m/z: 357.033284596
Precursor type: [M-H]-
m/z	relative intensity
63.962449	20
64.970274	14
92.025421	115
93.033246	198
108.020335	187
138.984581	50
155.987321	911
156.036282	17
156.995146	106
168.021678	16
168.057412	918
168.10166	18
169.064546	161
170.99822	31
184.052326	23
187.017596	999
187.067248	20
187.087687	10
215.016572	84
231.982235	23
232.019312	775
232.078816	14
233.026446	64
247.030862	23
296.989688	14
