Mass spectrum: 1,3-Benzenedicarboxylic acid, dihydrazide; ESI-QTOF; MS2; CE: 20; [M+H]+
Name: 1,3-Benzenedicarboxylic acid, dihydrazide
Name: DTXSID2038813
Formula: C8H10N4O2
Exact mass: 194.0803755932
SMILES: NNC(=O)C1=CC(=CC=C1)C(=O)NN
InChI: InChI=1S/C8H10N4O2/c9-11-7(13)5-2-1-3-6(4-5)8(14)12-10/h1-4H,9-10H2,(H,11,13)(H,12,14)
Instrument type: ESI-QTOF
Ms type: MS2
Ion mode: POSITIVE
Ionization: ESI
Collision energy: 20
Precursor m/z: 195.0876520449
Precursor type: [M+H]+
m/z	relative intensity
31.029075	185
39.022927	22
45.033491	119
45.044725	11
59.00018	11
59.023989	797
59.049141	16
59.072951	21
61.007276	12
63.022927	40
65.038577	81
67.041651	12
75.022927	11
76.030752	31
77.038577	240
77.059706	16
79.017841	197
79.054227	53
80.049476	44
89.058363	21
90.033826	999
90.067531	18
91.054227	52
92.049476	130
92.069262	10
93.069877	26
99.044056	12
103.017841	20
104.025666	152
105.033491	297
106.02874	44
106.039974	18
107.049141	15
107.060375	22
108.055624	40
117.044725	30
118.02874	725
119.011413	10
119.036565	36
119.060375	182
120.04439	122
130.02874	34
132.055624	22
133.039639	95
135.044056	91
136.050538	49
136.063114	28
137.045787	12
137.070939	535
138.067531	15
145.039639	39
146.023655	628
150.053612	13
159.066523	49
160.050538	197
163.050204	503
177.077087	396
178.061103	12
195.087652	154
