Mass spectrum: Todralazine; ESI-QTOF; MS2; CE: 40; [M+H]+
Name: Todralazine
Name: DTXSID4044664
Formula: C11H12N4O2
Exact mass: 232.096025657
SMILES: CCOC(=O)NNC1=NN=CC2=CC=CC=C21
InChI: InChI=1S/C11H12N4O2/c1-2-17-11(16)15-14-10-9-6-4-3-5-8(9)7-12-13-10/h3-7H,2H2,1H3,(H,13,14)(H,15,16)
Instrument type: ESI-QTOF
Ms type: MS2
Ion mode: POSITIVE
Ionization: ESI
Collision energy: 40
Precursor m/z: 233.1033021087
Precursor type: [M+H]+
m/z	relative intensity
63.022927	22
77.038577	52
89.038577	999
89.070939	27
89.083515	15
90.033826	11
90.046402	133
103.041651	240
104.049476	158
105.057301	30
116.049476	67
117.044725	12
117.057301	328
118.05255	17
129.044725	16
130.05255	88
131.060375	121
132.0682	103
144.055624	60
145.063449	238
159.066523	59
161.082173	43
187.061437	10
