Mass spectrum: 1-(2,6-Dichlorophenyl)-2-indolinone; ESI-QTOF; MS2; CE: 40; [M+H]+
Name: 1-(2,6-Dichlorophenyl)-2-indolinone
Name: DTXSID6046979
Formula: C14H9Cl2NO
Exact mass: 277.0061193368
SMILES: O=C1CC2C=CC=CC=2N1C1C(Cl)=CC=CC=1Cl
InChI: InChI=1S/C14H9Cl2NO/c15-10-5-3-6-11(16)14(10)17-12-7-2-1-4-9(12)8-13(17)18/h1-7H,8H2
Instrument type: ESI-QTOF
Ms type: MS2
Ion mode: POSITIVE
Ionization: ESI
Collision energy: 40
Precursor m/z: 278.0133957885
Precursor type: [M+H]+
m/z	relative intensity
77.038577	175
79.054227	249
104.049476	17
105.033491	70
107.049141	14
108.983954	15
132.04439	42
135.994853	81
144.960632	99
151.054227	49
152.062052	15
171.971531	194
177.057301	10
178.065126	86
179.072951	127
180.080776	297
201.033978	13
207.067865	13
208.07569	228
214.041803	999
215.049628	25
243.044543	13
