Mass spectrum: 3-(3-Methyl-5-oxo-4,5-dihydro-1H-pyrazol-1-yl)benzenesulfonic acid; ESI-QTOF; MS2; CE: 40; [M-H]-
Name: 3-(3-Methyl-5-oxo-4,5-dihydro-1H-pyrazol-1-yl)benzenesulfonic acid
Formula: C10H10N2O4S
Exact mass: 254.036127553
SMILES: CC1CC(=O)N(N=1)C1=CC(=CC=C1)S(O)(=O)=O
InChI: InChI=1S/C10H10N2O4S/c1-7-5-10(13)12(11-7)8-3-2-4-9(6-8)17(14,15)16/h2-4,6H,5H2,1H3,(H,14,15,16)
Instrument type: ESI-QTOF
Ms type: MS2
Ion mode: NEGATIVE
Ionization: ESI
Collision energy: 40
Precursor m/z: 253.0288511013
Precursor type: [M-H]-
m/z	relative intensity
41.998537	79
79.957363	999
79.990378	29
80.004982	17
80.965188	69
90.034923	16
92.050573	21
93.034588	17
118.029837	131
120.045487	139
131.037662	21
131.061472	32
132.045487	224
133.040736	14
134.024752	44
143.988663	33
147.032577	12
148.040402	13
155.988663	115
170.999562	106
173.072037	10
181.994417	19
184.007387	111
197.986652	34
