Mass spectrum: (2,2,6,6-Tetramethyl-4-oxopiperidin-1-yl)oxidanyl; ESI-QTOF; MS2; CE: 10; [M+H]+
Name: (2,2,6,6-Tetramethyl-4-oxopiperidin-1-yl)oxidanyl
Name: DTXSID4044905
Formula: C9H17NO2
Exact mass: 171.1259287943
SMILES: CC1(C)CC(=O)CC(C)(C)N1O
InChI: InChI=1S/C9H17NO2/c1-8(2)5-7(11)6-9(3,4)10(8)12/h12H,5-6H2,1-4H3
Instrument type: ESI-QTOF
Ms type: MS2
Ion mode: POSITIVE
Ionization: ESI
Collision energy: 10
Precursor m/z: 172.133205246
Precursor type: [M+H]+
m/z	relative intensity
43.017841	15
55.054227	17
56.049476	32
74.06004	999
74.096426	19
83.049141	27
99.080441	42
116.070605	12
172.133205	157
