Mass spectrum: N-(Butoxymethyl)acrylamide; ESI-QTOF; MS2; CE: 10; [M+H]+
Name: N-(Butoxymethyl)acrylamide
Name: DTXSID9027443
Formula: C8H15NO2
Exact mass: 157.1102787305
SMILES: CCCCOCNC(=O)C=C
InChI: InChI=1S/C8H15NO2/c1-3-5-6-11-7-9-8(10)4-2/h4H,2-3,5-7H2,1H3,(H,9,10)
Instrument type: ESI-QTOF
Ms type: MS2
Ion mode: POSITIVE
Ionization: ESI
Collision energy: 10
Precursor m/z: 158.1175551822
Precursor type: [M+H]+
m/z	relative intensity
55.017841	30
63.994366	42
79.017841	999
79.054227	27
80.025666	824
80.062052	20
81.020915	45
84.04439	11
