Mass spectrum: 2,6-Pyridinedicarboxylic acid; ESI-QTOF; MS2; CE: 40; [M+H]+
Name: 2,6-Pyridinedicarboxylic acid
Name: DTXSID7022043
Formula: C7H5NO4
Exact mass: 167.0218576561
SMILES: OC(=O)C1=CC=CC(=N1)C(O)=O
InChI: InChI=1S/C7H5NO4/c9-6(10)4-2-1-3-5(8-4)7(11)12/h1-3H,(H,9,10)(H,11,12)
Instrument type: ESI-QTOF
Ms type: MS2
Ion mode: POSITIVE
Ionization: ESI
Collision energy: 40
Precursor m/z: 168.0291341078
Precursor type: [M+H]+
m/z	relative intensity
39.022927	460
44.997106	178
50.015101	23
51.022927	637
52.018175	43
66.033826	999
76.018175	23
78.033826	203
80.01309	11
94.02874	259
95.012756	16
122.023655	29
