Mass spectrum: Letrozole; ESI-QTOF; MS2; CE: 20; [M-H]-
Name: Letrozole
Name: Letocor
Name: Letoripe
Name: Lerozole
Name: Femara
Formula: C17H11N5
Exact mass: 285.1014453879
SMILES: N#CC1C=CC(=CC=1)C(C1C=CC(=CC=1)C#N)N1C=NC=N1
InChI: InChI=1S/C17H11N5/c18-9-13-1-5-15(6-2-13)17(22-12-20-11-21-22)16-7-3-14(10-19)4-8-16/h1-8,11-12,17H
Instrument type: ESI-QTOF
Ms type: MS2
Ion mode: NEGATIVE
Ionization: ESI
Collision energy: 20
Precursor m/z: 284.0941689362
Precursor type: [M-H]-
m/z	relative intensity
66.009771	16
102.034923	196
127.030172	248
142.041071	18
181.05197	34
203.061472	10
215.061472	69
229.077122	31
240.056721	11
242.072371	999
243.080196	11
256.088021	11
257.08327	37
284.094169	216
