Mass spectrum: Dipropyl hexanedioate; ESI-QTOF; MS2; CE: 40; [M+H]+
Name: Dipropyl hexanedioate
Formula: C12H22O4
Exact mass: 230.151809191
SMILES: CCCOC(=O)CCCCC(=O)OCCC
InChI: InChI=1S/C12H22O4/c1-3-9-15-11(13)7-5-6-8-12(14)16-10-4-2/h3-10H2,1-2H3
Instrument type: ESI-QTOF
Ms type: MS2
Ion mode: POSITIVE
Ionization: ESI
Collision energy: 40
Precursor m/z: 231.1590856427
Precursor type: [M+H]+
m/z	relative intensity
41.038577	61
43.017841	56
43.054227	125
53.038577	13
55.054227	999
55.075356	17
59.049141	198
83.049141	290
101.059706	80
111.044056	27
