Mass spectrum: 4-Methylphthalic anhydride; ESI-QTOF; MS2; CE: 20; [M+H]+
Name: 4-Methylphthalic anhydride
Name: DTXSID5027805
Formula: C9H6O3
Exact mass: 162.0316940583
SMILES: CC1=CC2=C(C=C1)C(=O)OC2=O
InChI: InChI=1S/C9H6O3/c1-5-2-3-6-7(4-5)9(11)12-8(6)10/h2-4H,1H3
Instrument type: ESI-QTOF
Ms type: MS2
Ion mode: POSITIVE
Ionization: ESI
Collision energy: 20
Precursor m/z: 163.03897051
Precursor type: [M+H]+
m/z	relative intensity
39.022927	10
51.022927	25
55.017841	43
77.038577	999
78.046402	18
79.017841	28
79.054227	626
105.033491	18
107.049141	832
135.044056	797
163.038971	540
