Mass spectrum: 2-Amino-6-chloro-4-nitrophenol; ESI-QTOF; MS2; CE: 20; [M-H]-
Name: 2-Amino-6-chloro-4-nitrophenol
Formula: C6H5ClN2O3
Exact mass: 187.9988697512
SMILES: NC1C=C(C=C(Cl)C=1O)[N+]([O-])=O
InChI: InChI=1S/C6H5ClN2O3/c7-4-1-3(9(11)12)2-5(8)6(4)10/h1-2,10H,8H2
Instrument type: ESI-QTOF
Ms type: MS2
Ion mode: NEGATIVE
Ionization: ESI
Collision energy: 20
Precursor m/z: 186.9915932995
Precursor type: [M-H]-
m/z	relative intensity
34.969401	135
41.003288	10
41.998537	205
45.993452	146
50.003623	18
51.011448	10
52.019273	11
65.998537	27
67.006849	18
68.014187	36
76.019273	57
79.006849	16
81.993939	16
93.022012	16
104.014187	15
120.009102	125
121.016927	13
134.012176	11
156.993605	61
186.991593	999
