Mass spectrum: 4,4'-Methylenebis(N,N-diglycidylaniline); ESI-QTOF; MS2; CE: 10; [M+H]+
Name: 4,4'-Methylenebis(N,N-diglycidylaniline)
Name: DTXSID0042248
Formula: C25H30N2O4
Exact mass: 422.220557461
SMILES: C(C1C=CC(=CC=1)N(CC1CO1)CC1CO1)C1C=CC(=CC=1)N(CC1CO1)CC1CO1
InChI: InChI=1S/C25H30N2O4/c1-5-20(26(10-22-14-28-22)11-23-15-29-23)6-2-18(1)9-19-3-7-21(8-4-19)27(12-24-16-30-24)13-25-17-31-25/h1-8,22-25H,9-17H2
Instrument type: ESI-QTOF
Ms type: MS2
Ion mode: POSITIVE
Ionization: ESI
Collision energy: 10
Precursor m/z: 423.2278339127
Precursor type: [M+H]+
m/z	relative intensity
218.117555	218
379.201619	52
393.217269	13
405.217269	18
423.227834	999
