Mass spectrum: sec-Butylurea; ESI-QTOF; MS2; CE: 10; [M+H]+
Name: sec-Butylurea
Name: DTXSID8027294
Formula: C5H12N2O
Exact mass: 116.0949630199
SMILES: CCC(C)NC(N)=O
InChI: InChI=1S/C5H12N2O/c1-3-4(2)7-5(6)8/h4H,3H2,1-2H3,(H3,6,7,8)
Instrument type: ESI-QTOF
Ms type: MS2
Ion mode: POSITIVE
Ionization: ESI
Collision energy: 10
Precursor m/z: 117.1022394716
Precursor type: [M+H]+
m/z	relative intensity
41.038577	40
44.01309	25
57.069877	191
61.039639	999
61.064791	24
117.102239	505
