Mass spectrum: Pantothenic acid; ESI-QTOF; MS2; CE: 10; [M+H]+
Name: Pantothenic acid
Formula: C9H17NO5
Exact mass: 219.1106726612
SMILES: CC(C)(CO)C(O)C(=O)NCCC(O)=O
InChI: InChI=1S/C9H17NO5/c1-9(2,5-11)7(14)8(15)10-4-3-6(12)13/h7,11,14H,3-5H2,1-2H3,(H,10,15)(H,12,13)
Instrument type: ESI-QTOF
Ms type: MS2
Ion mode: POSITIVE
Ionization: ESI
Collision energy: 10
Precursor m/z: 220.1179491129
Precursor type: [M+H]+
m/z	relative intensity
30.033826	16
43.017841	32
45.033491	15
57.069877	20
59.049141	19
69.069877	30
72.04439	97
85.064791	38
87.080441	29
90.054955	990
90.09134	24
90.103916	12
95.049141	19
98.023655	61
100.039305	11
103.075356	54
113.059706	13
116.034219	135
124.07569	56
142.086255	46
156.101905	10
160.09682	23
166.086255	19
174.11247	31
184.09682	269
202.107384	477
220.117949	999
