Mass spectrum: Methyl citronellate; ESI-QTOF; MS2; CE: 20; [M-H]-
Name: Methyl citronellate
Name: DTXSID0047408
Formula: C11H20O2
Exact mass: 184.1463298826
SMILES: CC(C)=CCCC(C)CC(=O)OC
InChI: InChI=1S/C11H20O2/c1-9(2)6-5-7-10(3)8-11(12)13-4/h6,10H,5,7-8H2,1-4H3
Instrument type: ESI-QTOF
Ms type: MS2
Ion mode: NEGATIVE
Ionization: ESI
Collision energy: 20
Precursor m/z: 183.1390534309
Precursor type: [M-H]-
m/z	relative intensity
39.024024	106
43.018938	125
54.047499	13
56.998203	112
57.034588	585
58.006028	10
59.013853	33
62.016199	10
65.003288	625
65.039674	160
65.060803	23
66.011113	159
68.998203	505
69.034588	38
70.042413	21
71.013853	272
71.050238	16
75.024024	195
75.045153	65
79.990378	11
80.084278	14
83.013853	80
85.008374	58
85.029503	222
90.011113	17
96.000549	68
97.029503	88
109.065888	38
111.024024	10
116.998203	19
118.006028	45
119.013853	41
121.029503	187
123.081539	83
125.003288	44
127.055324	18
127.112839	999
128.120664	307
133.029503	76
144.021678	13
152.998203	58
153.034588	123
155.013853	195
155.107753	60
163.990378	54
165.092103	80
169.029503	77
169.123403	93
