Mass spectrum: Kinetin; ESI-QTOF; MS2; CE: 40; [M-H]-
Name: Kinetin
Name: DTXSID9035175
Formula: C10H9N5O
Exact mass: 215.0807099464
SMILES: C(NC1NC=NC2=NC=NC2=1)C1=CC=CO1
InChI: InChI=1S/C10H9N5O/c1-2-7(16-3-1)4-11-9-8-10(13-5-12-8)15-6-14-9/h1-3,5-6H,4H2,(H2,11,12,13,14,15)
Instrument type: ESI-QTOF
Ms type: MS2
Ion mode: NEGATIVE
Ionization: ESI
Collision energy: 40
Precursor m/z: 214.0734334947
Precursor type: [M-H]-
m/z	relative intensity
41.014522	28
53.014522	11
64.006697	53
65.014522	88
66.009771	422
66.034923	10
67.017596	14
68.025421	19
69.034588	12
78.009771	12
79.017596	131
90.009771	115
91.017596	15
92.025421	168
105.02067	37
106.028495	301
107.03632	295
108.032911	11
117.02067	320
118.028495	38
119.03632	23
132.031569	999
133.039394	724
134.047219	298
135.055044	20
142.041071	15
144.031569	40
146.047219	13
184.062869	13
