Mass spectrum: Clonidine; ESI-QTOF; MS2; CE: 10; [M+H]+
Name: Clonidine
Name: DTXSID8044670
Formula: C9H9Cl2N3
Exact mass: 229.0173527293
SMILES: ClC1C=CC=C(Cl)C=1N=C1NCCN1
InChI: InChI=1S/C9H9Cl2N3/c10-6-2-1-3-7(11)8(6)14-9-12-4-5-13-9/h1-3H,4-5H2,(H2,12,13,14)
Instrument type: ESI-QTOF
Ms type: MS2
Ion mode: POSITIVE
Ionization: ESI
Collision energy: 10
Precursor m/z: 230.024629181
Precursor type: [M+H]+
m/z	relative intensity
44.0494756186	13
230.024629181	999
