Mass spectrum: CP-863187; ESI-QTOF; MS2; CE: 20; [M+H]+
Name: CP-863187
Name: DTXSID0047294
Formula: C18H14F2N4O
Exact mass: 340.1135674985
SMILES: CC(C)C1=NN=C2C=CC(=CN21)C1OC=NC=1C1=CC(F)=CC=C1F
InChI: InChI=1S/C18H14F2N4O/c1-10(2)18-23-22-15-6-3-11(8-24(15)18)17-16(21-9-25-17)13-7-12(19)4-5-14(13)20/h3-10H,1-2H3
Instrument type: ESI-QTOF
Ms type: MS2
Ion mode: POSITIVE
Ionization: ESI
Collision energy: 20
Precursor m/z: 341.1208439502
Precursor type: [M+H]+
m/z	relative intensity
190.046282	41
217.057181	17
272.062995	95
341.120844	999
