Mass spectrum: Ingliforib; ESI-QTOF; MS2; CE: 10; [M-H]-
Name: Ingliforib
Name: DTXSID4047252
Formula: C23H24ClN3O5
Exact mass: 457.1404486093
SMILES: OC(C(CC1C=CC=CC=1)NC(=O)C1=CC2=CC(Cl)=CC=C2N1)C(=O)N1CC(O)C(O)C1
InChI: InChI=1S/C23H24ClN3O5/c24-15-6-7-16-14(9-15)10-18(25-16)22(31)26-17(8-13-4-2-1-3-5-13)21(30)23(32)27-11-19(28)20(29)12-27/h1-7,9-10,17,19-21,25,28-30H,8,11-12H2,(H,26,31)
Instrument type: ESI-QTOF
Ms type: MS2
Ion mode: NEGATIVE
Ionization: ESI
Collision energy: 10
Precursor m/z: 456.1331721576
Precursor type: [M-H]-
m/z	relative intensity
193.017414	46
325.074929	78
456.133172	999
