Mass spectrum: FD and C Green No. 1; ESI-QTOF; MS2; CE: 40; [M-H]-
Name: FD and C Green No. 1
Name: DTXSID3020671
Formula: [C37H37N2O6S2]+
Exact mass: 669.2093033889
SMILES: CC[N+](CC1=CC(=CC=C1)S(O)(=O)=O)=C1C=CC(C=C1)=C(C1C=CC=CC=1)C1C=CC(=CC=1)N(CC1C=C(C=CC=1)S(O)(=O)=O)CC |c:14,t:21|
InChI: InChI=1S/C37H36N2O6S2/c1-3-38(26-28-10-8-14-35(24-28)46(40,41)42)33-20-16-31(17-21-33)37(30-12-6-5-7-13-30)32-18-22-34(23-19-32)39(4-2)27-29-11-9-15-36(25-29)47(43,44)45/h5-25H,3-4,26-27H2,1-2H3,(H-,40,41,42,43,44,45)/p+1
Instrument type: ESI-QTOF
Ms type: MS2
Ion mode: NEGATIVE
Ionization: ESI
Collision energy: 40
Precursor m/z: 668.2020269372
Precursor type: [M-H]-
m/z	relative intensity
79.957363	53
170.004313	999
170.051932	15
171.008768	212
171.995463	17
172.01257	15
181.991737	25
259.042748	31
260.050573	372
261.031256	12
261.055066	168
328.004707	18
340.006697	57
341.011842	42
441.137042	10
453.128528	40
454.127109	28
467.140807	59
468.145261	78
469.153955	47
470.16178	14
481.159137	23
482.159099	43
483.168736	26
495.171416	26
496.179241	74
497.139447	11
497.187757	416
498.129514	18
498.19308	736
499.194854	70
559.200905	14
560.202679	14
587.237387	162
588.239161	803
589.246986	51
623.128231	10
625.147252	31
639.162902	33
640.170727	124
667.194202	193
668.202027	378
