Mass spectrum: FK 1052; ESI-QTOF; MS2; CE: 20; [M+H]+
Name: FK 1052
Formula: C18H19N3O
Exact mass: 293.1528122506
SMILES: CC1N=CNC=1CC1CCC2=C(C)C3=CC=CC=C3N2C1=O
InChI: InChI=1S/C18H19N3O/c1-11-14-5-3-4-6-17(14)21-16(11)8-7-13(18(21)22)9-15-12(2)19-10-20-15/h3-6,10,13H,7-9H2,1-2H3,(H,19,20)
Instrument type: ESI-QTOF
Ms type: MS2
Ion mode: POSITIVE
Ionization: ESI
Collision energy: 20
Precursor m/z: 294.1600887023
Precursor type: [M+H]+
m/z	relative intensity
95.060375	97
96.0682	10
121.076025	15
137.070939	14
144.080776	37
149.070939	229
158.096426	21
200.10699	11
294.160089	999
