Mass spectrum: 2-Aminoanthraquinone; ESI-QTOF; MS2; CE: 20; [M+H]+
Name: 2-Aminoanthraquinone
Formula: C14H9NO2
Exact mass: 223.0633285391
SMILES: NC1C=C2C(=CC=1)C(=O)C1C=CC=CC=1C2=O
InChI: InChI=1S/C14H9NO2/c15-8-5-6-11-12(7-8)14(17)10-4-2-1-3-9(10)13(11)16/h1-7H,15H2
Instrument type: ESI-QTOF
Ms type: MS2
Ion mode: POSITIVE
Ionization: ESI
Collision energy: 20
Precursor m/z: 224.0706049908
Precursor type: [M+H]+
m/z	relative intensity
58.065126	16
79.054227	20
91.054227	15
93.069877	49
105.033491	35
121.064791	21
130.02874	13
141.069877	11
146.023655	35
165.057301	21
167.072951	63
168.080776	46
178.065126	34
196.07569	14
206.06004	27
224.070605	999
