Mass spectrum: Methyl 2-methylbenzoate; ESI-QTOF; MS2; CE: 40; [M+H]+
Name: Methyl 2-methylbenzoate
Formula: C9H10O2
Exact mass: 150.0680795636
SMILES: CC1C=CC=CC=1C(=O)OC
InChI: InChI=1S/C9H10O2/c1-7-5-3-4-6-8(7)9(10)11-2/h3-6H,1-2H3
Instrument type: ESI-QTOF
Ms type: MS2
Ion mode: POSITIVE
Ionization: ESI
Collision energy: 40
Precursor m/z: 151.0753560153
Precursor type: [M+H]+
m/z	relative intensity
41.038577	21
45.033491	68
55.017841	28
61.007276	74
62.015101	51
63.994366	999
73.064791	14
77.038577	22
79.017841	381
91.054227	18
