Mass spectrum: 2-Ethylaniline; ESI-QTOF; MS2; CE: 20; [M+H]+
Name: 2-Ethylaniline
Name: DTXSID0042242
Formula: C8H11N
Exact mass: 121.0891493583
SMILES: CCC1C=CC=CC=1N
InChI: InChI=1S/C8H11N/c1-2-7-5-3-4-6-8(7)9/h3-6H,2,9H2,1H3
Instrument type: ESI-QTOF
Ms type: MS2
Ion mode: POSITIVE
Ionization: ESI
Collision energy: 20
Precursor m/z: 122.09642581
Precursor type: [M+H]+
m/z	relative intensity
51.022927	80
52.018175	14
56.049476	11
65.038577	18
66.046402	35
77.038577	999
79.054227	452
93.057301	499
94.065126	395
103.054227	280
105.069877	526
106.065126	170
120.080776	130
122.096426	305
