Mass spectrum: C.I. Acid Orange 24; ESI-QTOF; MS2; CE: 40; [M+H]+
Name: C.I. Acid Orange 24
Name: DTXSID7041708
Formula: C20H18N4O5S
Exact mass: 426.0997904453
SMILES: CC1=CC(C)=CC=C1/N=N/C1C(O)=C(C=CC=1O)/N=N/C1C=CC(=CC=1)S(O)(=O)=O
InChI: InChI=1S/C20H18N4O5S/c1-12-3-8-16(13(2)11-12)22-24-19-18(25)10-9-17(20(19)26)23-21-14-4-6-15(7-5-14)30(27,28)29/h3-11,25-26H,1-2H3,(H,27,28,29)/b23-21+,24-22+
Instrument type: ESI-QTOF
Ms type: MS2
Ion mode: POSITIVE
Ionization: ESI
Collision energy: 40
Precursor m/z: 427.107066897
Precursor type: [M+H]+
m/z	relative intensity
77.038577	38
91.054227	24
92.049476	16
93.069877	27
95.012756	22
105.069877	49
106.065126	172
108.043048	45
120.080776	557
121.088601	999
122.096426	35
133.06682	10
156.994049	87
164.983878	30
170.046812	27
171.052609	11
173.012773	17
179.00018	40
185.001539	12
195.009699	42
199.050895	15
224.046144	20
224.093763	11
238.097488	11
251.012104	28
279.006328	30
