Mass spectrum: 1H-Isoindole-1,3(2H)-diimine; ESI-QTOF; MS2; CE: 20; [M+H]+
Name: 1H-Isoindole-1,3(2H)-diimine
Name: DTXSID0044658
Formula: C8H7N3
Exact mass: 145.0639972455
SMILES: N=C1NC(=N)C2C=CC=CC1=2
InChI: InChI=1S/C8H7N3/c9-7-5-3-1-2-4-6(5)8(10)11-7/h1-4H,(H3,9,10,11)
Instrument type: ESI-QTOF
Ms type: MS2
Ion mode: POSITIVE
Ionization: ESI
Collision energy: 20
Precursor m/z: 146.0712736972
Precursor type: [M+H]+
m/z	relative intensity
75.022927	10
102.033826	152
129.044725	999
146.071274	324
