Mass spectrum: 2-Methyl-4-amino-6-methoxy-s-triazine; ESI-QTOF; MS2; CE: 40; [M+H]+
Name: 2-Methyl-4-amino-6-methoxy-s-triazine
Name: DTXSID4041230
Formula: C5H8N4O
Exact mass: 140.0698109071
SMILES: CC1N=C(N=C(N)N=1)OC
InChI: InChI=1S/C5H8N4O/c1-3-7-4(6)9-5(8-3)10-2/h1-2H3,(H2,6,7,8,9)
Instrument type: ESI-QTOF
Ms type: MS2
Ion mode: POSITIVE
Ionization: ESI
Collision energy: 40
Precursor m/z: 141.0770873588
Precursor type: [M+H]+
m/z	relative intensity
30.033826	38
42.033826	833
43.029075	999
43.054227	20
44.01309	14
56.0369	13
56.049476	219
57.044725	603
58.02874	783
58.05255	13
68.024324	274
69.008339	63
83.023989	17
85.039639	19
