Mass spectrum: MK-968; ESI-QTOF; MS2; CE: 20; [M+H]+
Name: MK-968
Formula: C19H21F2N5O
Exact mass: 373.1714167292
SMILES: FC1C=CC=CC=1C(F)COC1CCC(CC1)NC1NC=NC2=NN=CC=12
InChI: InChI=1S/C19H21F2N5O/c20-16-4-2-1-3-14(16)17(21)10-27-13-7-5-12(6-8-13)25-18-15-9-24-26-19(15)23-11-22-18/h1-4,9,11-13,17H,5-8,10H2,(H2,22,23,24,25,26)
Instrument type: ESI-QTOF
Ms type: MS2
Ion mode: POSITIVE
Ionization: ESI
Collision energy: 20
Precursor m/z: 374.1786931809
Precursor type: [M+H]+
m/z	relative intensity
81.069877	219
136.061772	505
136.105808	12
141.051033	10
216.124372	201
354.172465	22
374.178693	999
