Mass spectrum: N-Ethyl-3-methylaniline; ESI-QTOF; MS2; CE: 10; [M+H]+
Name: N-Ethyl-3-methylaniline
Formula: C9H13N
Exact mass: 135.1047994221
SMILES: CC1C=C(C=CC=1)NCC
InChI: InChI=1S/C9H13N/c1-3-10-9-6-4-5-8(2)7-9/h4-7,10H,3H2,1-2H3
Instrument type: ESI-QTOF
Ms type: MS2
Ion mode: POSITIVE
Ionization: ESI
Collision energy: 10
Precursor m/z: 136.1120758738
Precursor type: [M+H]+
m/z	relative intensity
93.057301	30
106.065126	61
107.072951	663
108.080776	786
136.112076	999
