Mass spectrum: C.I. Disperse Blue 27; ESI-QTOF; MS2; CE: 40; [M-H]-
Name: C.I. Disperse Blue 27
Name: DTXSID3025209
Formula: C22H16N2O7
Exact mass: 420.0957508813
SMILES: [O-][N+](=O)C1C=CC(O)=C2C=1C(=O)C1=C(C2=O)C(O)=CC=C1NC1C=CC(CCO)=CC=1
InChI: InChI=1S/C22H16N2O7/c25-10-9-11-1-3-12(4-2-11)23-13-5-7-15(26)19-17(13)21(28)18-14(24(30)31)6-8-16(27)20(18)22(19)29/h1-8,23,25-27H,9-10H2
Instrument type: ESI-QTOF
Ms type: MS2
Ion mode: NEGATIVE
Ionization: ESI
Collision energy: 40
Precursor m/z: 419.0884744296
Precursor type: [M-H]-
m/z	relative intensity
45.993452	76
117.022012	12
132.045487	10
226.029837	87
237.034588	17
239.034982	19
297.079527	15
312.066617	19
313.074442	46
314.082267	112
315.090092	12
323.058792	10
324.066617	26
325.074442	22
326.082267	11
327.077516	22
328.058851	12
330.077181	37
340.061531	16
341.069356	52
341.983281	10
342.007091	14
342.077181	999
343.085006	62
344.092832	98
345.072824	10
345.100657	28
356.092832	30
358.080649	23
370.072096	17
371.067345	64
372.087746	105
373.095571	464
385.082995	14
389.090486	22
419.088474	16
