Mass spectrum: 2,2'-(3-Chlorophenylimino)diethanol; ESI-QTOF; MS2; CE: 10; [M-H]-
Name: 2,2'-(3-Chlorophenylimino)diethanol
Formula: C10H14ClNO2
Exact mass: 215.0713064086
SMILES: OCCN(CCO)C1C=CC=C(Cl)C=1
InChI: InChI=1S/C10H14ClNO2/c11-9-2-1-3-10(8-9)12(4-6-13)5-7-14/h1-3,8,13-14H,4-7H2
Instrument type: ESI-QTOF
Ms type: MS2
Ion mode: NEGATIVE
Ionization: ESI
Collision energy: 10
Precursor m/z: 214.0640299569
Precursor type: [M-H]-
m/z	relative intensity
43.018938	25
126.995616	999
127.042748	21
127.055324	10
152.027251	33
214.06403	11
