Mass spectrum: 4-Dodecylmorpholine; ESI-QTOF; MS2; CE: 20; [M+H]+
Name: 4-Dodecylmorpholine
Name: DTXSID4042171
Formula: C16H33NO
Exact mass: 255.2562146824
SMILES: CCCCCCCCCCCCN1CCOCC1
InChI: InChI=1S/C16H33NO/c1-2-3-4-5-6-7-8-9-10-11-12-17-13-15-18-16-14-17/h2-16H2,1H3
Instrument type: ESI-QTOF
Ms type: MS2
Ion mode: POSITIVE
Ionization: ESI
Collision energy: 20
Precursor m/z: 256.2634911341
Precursor type: [M+H]+
m/z	relative intensity
43.054227	42
44.049476	11
57.069877	62
70.065126	35
71.085527	27
88.07569	133
102.09134	12
256.263491	999
