Mass spectrum: Farglitazar; ESI-QTOF; MS2; CE: 20; [M-H]-
Name: Farglitazar
Name: DTXSID1047310
Formula: C34H30N2O5
Exact mass: 546.2154720833
SMILES: CC1OC(=NC=1CCOC1=CC=C(CC(NC2=CC=CC=C2C(=O)C2C=CC=CC=2)C(O)=O)C=C1)C1C=CC=CC=1
InChI: InChI=1S/C34H30N2O5/c1-23-29(36-33(41-23)26-12-6-3-7-13-26)20-21-40-27-18-16-24(17-19-27)22-31(34(38)39)35-30-15-9-8-14-28(30)32(37)25-10-4-2-5-11-25/h2-19,31,35H,20-22H2,1H3,(H,38,39)
Instrument type: ESI-QTOF
Ms type: MS2
Ion mode: NEGATIVE
Ionization: ESI
Collision energy: 20
Precursor m/z: 545.2081956316
Precursor type: [M-H]-
m/z	relative intensity
77.039674	24
92.050573	13
93.034588	26
106.042413	207
107.050238	221
119.050238	10
131.037662	95
134.037328	13
144.045487	25
180.079193	19
192.081873	18
196.076788	65
204.081873	17
207.068962	24
208.076788	633
209.084613	34
210.092438	12
223.076453	14
292.134302	301
293.139447	9
297.115913	12
298.123738	12
315.126477	197
316.134302	215
320.129217	22
423.171416	67
483.135031	17
483.207802	385
484.204393	15
501.08808	10
501.124466	19
501.218366	999
545.208196	69
