Mass spectrum: Triglycidyl isocyanurate; ESI-QTOF; MS2; CE: 20; [M+H]+
Name: Triglycidyl isocyanurate
Name: DTXSID4026262
Formula: C12H15N3O6
Exact mass: 297.0960852345
SMILES: O=C1N(CC2CO2)C(=O)N(CC2CO2)C(=O)N1CC1CO1
InChI: InChI=1S/C12H15N3O6/c16-10-13(1-7-4-19-7)11(17)15(3-9-6-21-9)12(18)14(10)2-8-5-20-8/h7-9H,1-6H2
Instrument type: ESI-QTOF
Ms type: MS2
Ion mode: POSITIVE
Ionization: ESI
Collision energy: 20
Precursor m/z: 298.1033616862
Precursor type: [M+H]+
m/z	relative intensity
42.033826	17
44.01309	25
44.049476	55
54.033826	35
55.017841	55
56.01309	50
56.049476	57
57.033491	158
58.02874	12
69.992355	46
70.02874	51
72.04439	10
82.02874	610
82.062446	10
84.04439	16
87.018904	198
99.018904	61
100.039305	83
113.034554	64
125.034554	72
130.024717	999
130.065126	15
143.045119	56
156.040368	81
168.040368	41
186.050932	96
198.050932	11
224.066582	17
242.077147	31
280.092797	12
298.103362	56
