Mass spectrum: 4-(2-Hydroxyethyl)morpholine; ESI-QTOF; MS2; CE: 20; [M+H]+
Name: 4-(2-Hydroxyethyl)morpholine
Name: DTXSID2022090
Formula: C6H13NO2
Exact mass: 131.0946286667
SMILES: OCCN1CCOCC1
InChI: InChI=1S/C6H13NO2/c8-4-1-7-2-5-9-6-3-7/h8H,1-6H2
Instrument type: ESI-QTOF
Ms type: MS2
Ion mode: POSITIVE
Ionization: ESI
Collision energy: 20
Precursor m/z: 132.1019051184
Precursor type: [M+H]+
m/z	relative intensity
41.038577	54
42.033826	346
43.054227	50
44.049476	104
45.033491	537
45.057301	11
56.049476	22
58.065126	33
68.049476	42
70.065126	999
70.098831	23
72.04439	12
84.080776	184
86.096426	68
88.07569	357
114.09134	833
132.101905	948
