Mass spectrum: N-(3-Dimethylaminopropyl)methacrylamide; ESI-QTOF; MS2; CE: 40; [M+H]+
Name: N-(3-Dimethylaminopropyl)methacrylamide
Name: DTXSID7040154
Formula: C9H18N2O
Exact mass: 170.1419132113
SMILES: CC(=C)C(=O)NCCCN(C)C
InChI: InChI=1S/C9H18N2O/c1-8(2)9(12)10-6-5-7-11(3)4/h1,5-7H2,2-4H3,(H,10,12)
Instrument type: ESI-QTOF
Ms type: MS2
Ion mode: POSITIVE
Ionization: ESI
Collision energy: 40
Precursor m/z: 171.149189663
Precursor type: [M+H]+
m/z	relative intensity
39.022927	38
41.038577	999
58.065126	64
69.033491	502
69.069877	16
