Mass spectrum: Carminic acid; ESI-QTOF; MS2; CE: 10; [M+H]+
Name: Carminic acid
Formula: C22H20O13
Exact mass: 492.0903907279
SMILES: CC1C(=C(O)C=C2C=1C(=O)C1=C(C2=O)C(O)=C(O)C(C2OC(CO)C(O)C(O)C2O)=C1O)C(O)=O
InChI: InChI=1S/C22H20O13/c1-4-8-5(2-6(24)9(4)22(33)34)13(25)10-11(15(8)27)16(28)12(18(30)17(10)29)21-20(32)19(31)14(26)7(3-23)35-21/h2,7,14,19-21,23-24,26,28-32H,3H2,1H3,(H,33,34)
Instrument type: ESI-QTOF
Ms type: MS2
Ion mode: POSITIVE
Ionization: ESI
Collision energy: 10
Precursor m/z: 493.0976671796
Precursor type: [M+H]+
m/z	relative intensity
325.034279	10
355.044844	93
359.039758	13
373.055408	999
373.128179	10
379.044844	27
389.050323	11
397.055408	274
409.055408	43
411.071058	10
421.055408	65
427.065973	206
439.065973	128
457.076538	93
475.087102	136
493.097667	912
