Mass spectrum: 2-(Pyridin-4-yl)ethanol; ESI-QTOF; MS2; CE: 10; [M+H]+
Name: 2-(Pyridin-4-yl)ethanol
Name: DTXSID4044953
Formula: C7H9NO
Exact mass: 123.0684139168
SMILES: OCCC1C=CN=CC=1
InChI: InChI=1S/C7H9NO/c9-6-3-7-1-4-8-5-2-7/h1-2,4-5,9H,3,6H2
Instrument type: ESI-QTOF
Ms type: MS2
Ion mode: POSITIVE
Ionization: ESI
Collision energy: 10
Precursor m/z: 124.0756903685
Precursor type: [M+H]+
m/z	relative intensity
93.057301	143
94.065126	17
106.065126	640
124.07569	999
