Mass spectrum: AVE3295; ESI-QTOF; MS2; CE: 40; [M-H]-
Name: AVE3295
Name: DTXSID5047372
Formula: C25H22FN3O3S
Exact mass: 463.1365905209
SMILES: CCC(NC(=O)C1C=C(F)C=CC=1NS(=O)(=O)C1=CC=CC2=CC=CN=C21)C1C=CC=CC=1
InChI: InChI=1S/C25H22FN3O3S/c1-2-21(17-8-4-3-5-9-17)28-25(30)20-16-19(26)13-14-22(20)29-33(31,32)23-12-6-10-18-11-7-15-27-24(18)23/h3-16,21,29H,2H2,1H3,(H,28,30)
Instrument type: ESI-QTOF
Ms type: MS2
Ion mode: NEGATIVE
Ionization: ESI
Collision energy: 40
Precursor m/z: 462.1293140692
Precursor type: [M-H]-
m/z	relative intensity
41.998537	30
54.034923	14
63.962449	10
77.014522	14
84.025501	13
109.032874	26
110.041151	110
128.050573	442
144.045487	445
145.049273	10
150.022347	18
163.030862	51
166.066223	68
175.009733	17
177.049193	11
191.062163	13
192.012473	434
193.016927	13
210.073142	50
215.061472	66
217.077122	461
218.078227	20
235.0677	999
235.124072	11
236.071702	26
237.08335	318
238.087352	15
239.061472	15
241.077122	22
258.067285	44
259.075111	36
263.062615	14
271.124763	46
300.037425	11
301.04525	33
462.129314	186
