Mass spectrum: Acetoacetanilide; ESI-QTOF; MS2; CE: 10; [M-H]-
Name: Acetoacetanilide
Formula: C10H11NO2
Exact mass: 177.0789786029
SMILES: CC(=O)CC(=O)NC1C=CC=CC=1
InChI: InChI=1S/C10H11NO2/c1-8(12)7-10(13)11-9-5-3-2-4-6-9/h2-6H,7H2,1H3,(H,11,13)
Instrument type: ESI-QTOF
Ms type: MS2
Ion mode: NEGATIVE
Ionization: ESI
Collision energy: 10
Precursor m/z: 176.0717021512
Precursor type: [M-H]-
m/z	relative intensity
41.003288	12
57.034588	54
83.013853	999
83.050238	48
92.050573	447
176.071702	102
