Mass spectrum: Methyl formate; ESI-QTOF; MS2; CE: 20; [M-H]-
Name: Methyl formate
Formula: C2H4O2
Exact mass: 60.0211293722
SMILES: COC=O
InChI: InChI=1S/C2H4O2/c1-4-2-3/h2H,1H3
Instrument type: ESI-QTOF
Ms type: MS2
Ion mode: NEGATIVE
Ionization: ESI
Collision energy: 20
Precursor m/z: 59.0138529205
Precursor type: [M-H]-
m/z	relative intensity
41.003288	26
43.018938	15
59.013853	999
