Mass spectrum: DL-Glutamic acid; ESI-QTOF; MS2; CE: 40; [M+H]+
Name: DL-Glutamic acid
Name: DTXSID6047155
Formula: C5H9NO4
Exact mass: 147.0531577837
SMILES: NC(CCC(O)=O)C(O)=O
InChI: InChI=1S/C5H9NO4/c6-3(5(9)10)1-2-4(7)8/h3H,1-2,6H2,(H,7,8)(H,9,10)
Instrument type: ESI-QTOF
Ms type: MS2
Ion mode: POSITIVE
Ionization: ESI
Collision energy: 40
Precursor m/z: 148.0604342354
Precursor type: [M+H]+
m/z	relative intensity
28.018175	12
39.022927	39
41.038577	186
43.041651	17
44.997106	12
56.049476	999
57.033491	20
66.033826	13
84.04439	207
85.028406	10
