Mass spectrum: N,N,N?,N?-Tetrakis(2-hydroxypropyl)ethylenediamine; ESI-QTOF; MS2; CE: 20; [M-H]-
Name: N,N,N?,N?-Tetrakis(2-hydroxypropyl)ethylenediamine
Formula: C14H32N2O4
Exact mass: 292.2362075248
SMILES: CC(O)CN(CC(C)O)CCN(CC(C)O)CC(C)O
InChI: InChI=1S/C14H32N2O4/c1-11(17)7-15(8-12(2)18)5-6-16(9-13(3)19)10-14(4)20/h11-14,17-20H,5-10H2,1-4H3
Instrument type: ESI-QTOF
Ms type: MS2
Ion mode: NEGATIVE
Ionization: ESI
Collision energy: 20
Precursor m/z: 291.2289310731
Precursor type: [M-H]-
m/z	relative intensity
43.018938	999
43.042748	20
57.034588	127
68.050573	46
70.066223	89
82.066223	128
86.061137	16
88.076788	11
96.081873	51
98.061137	20
112.076788	22
114.092438	153
116.071702	29
130.087352	205
132.103002	221
140.108088	80
156.103002	19
158.118652	219
271.202716	10
289.213281	10
291.228931	18
