Mass spectrum: 4-Anilinophenol; ESI-QTOF; MS2; CE: 20; [M+H]+
Name: 4-Anilinophenol
Formula: C12H11NO
Exact mass: 185.0840639806
SMILES: OC1C=CC(=CC=1)NC1C=CC=CC=1
InChI: InChI=1S/C12H11NO/c14-12-8-6-11(7-9-12)13-10-4-2-1-3-5-10/h1-9,13-14H
Instrument type: ESI-QTOF
Ms type: MS2
Ion mode: POSITIVE
Ionization: ESI
Collision energy: 20
Precursor m/z: 186.0913404323
Precursor type: [M+H]+
m/z	relative intensity
65.038577	24
80.049476	23
81.033491	20
92.049476	195
93.057301	119
108.04439	178
109.052215	999
109.088601	14
141.069877	30
167.072951	19
168.080776	18
169.064791	16
185.083515	18
186.09134	454
