Mass spectrum: C.I.Disperse Yellow 42; ESI-QTOF; MS2; CE: 20; [M-H]-
Name: C.I.Disperse Yellow 42
Name: DTXSID8052148
Formula: C18H15N3O4S
Exact mass: 369.0783267199
SMILES: [O-][N+](=O)C1=CC(=CC=C1NC1C=CC=CC=1)S(=O)(=O)NC1C=CC=CC=1
InChI: InChI=1S/C18H15N3O4S/c22-21(23)18-13-16(26(24,25)20-15-9-5-2-6-10-15)11-12-17(18)19-14-7-3-1-4-8-14/h1-13,19-20H
Instrument type: ESI-QTOF
Ms type: MS2
Ion mode: NEGATIVE
Ionization: ESI
Collision energy: 20
Precursor m/z: 368.0710502682
Precursor type: [M-H]-
m/z	relative intensity
92.050573	15
165.058398	17
166.066223	32
197.072037	21
211.051301	21
212.059126	22
273.103337	20
274.111162	97
286.098586	10
321.070322	30
350.060486	18
368.07105	999
