Mass spectrum: 4-Amino-1,2,4-triazole; ESI-QTOF; MS2; CE: 10; [M+H]+
Name: 4-Amino-1,2,4-triazole
Name: DTXSID9033058
Formula: C2H4N4
Exact mass: 84.0435961572
SMILES: NN1C=NN=C1
InChI: InChI=1S/C2H4N4/c3-6-1-4-5-2-6/h1-2H,3H2
Instrument type: ESI-QTOF
Ms type: MS2
Ion mode: POSITIVE
Ionization: ESI
Collision energy: 10
Precursor m/z: 85.0508726089
Precursor type: [M+H]+
m/z	relative intensity
30.033826	15
31.029075	16
43.029075	10
56.0369	13
58.039974	35
85.050873	999
