Mass spectrum: Lactose; ESI-QTOF; MS2; CE: 40; [M-H]-
Name: Lactose
Name: DTXSID2023193
Formula: C12H22O11
Exact mass: 342.1162115471
SMILES: O[C@H](CO)[C@@H](O[C@@H]1O[C@H](CO)[C@H](O)[C@H](O)[C@H]1O)[C@H](O)[C@@H](O)C=O
InChI: InChI=1S/C12H22O11/c13-1-4(16)7(18)11(5(17)2-14)23-12-10(21)9(20)8(19)6(3-15)22-12/h1,4-12,14-21H,2-3H2/t4-,5+,6+,7+,8-,9-,10+,11+,12-/m0/s1
Instrument type: ESI-QTOF
Ms type: MS2
Ion mode: NEGATIVE
Ionization: ESI
Collision energy: 40
Precursor m/z: 341.1089350954
Precursor type: [M-H]-
m/z	relative intensity
41.003288	76
43.018938	233
44.998203	130
51.024024	12
53.039674	24
55.018938	73
57.034588	65
59.013853	999
59.050238	11
69.034588	84
71.013853	406
73.029503	557
73.065888	13
79.018938	58
83.013853	100
85.029503	64
87.008768	58
89.024418	33
95.013853	32
97.029503	158
101.024418	60
113.024418	23
