Mass spectrum: N-Butylurea; ESI-QTOF; MS2; CE: 20; [M-H]-
Name: N-Butylurea
Name: DTXSID6020222
Formula: C5H12N2O
Exact mass: 116.0949630199
SMILES: CCCCNC(N)=O
InChI: InChI=1S/C5H12N2O/c1-2-3-4-7-5(6)8/h2-4H2,1H3,(H3,6,7,8)
Instrument type: ESI-QTOF
Ms type: MS2
Ion mode: NEGATIVE
Ionization: ESI
Collision energy: 20
Precursor m/z: 115.0876865682
Precursor type: [M-H]-
m/z	relative intensity
41.014522	28
41.998537	999
42.022347	20
52.019273	90
66.034923	33
68.050573	89
97.077122	43
