Mass spectrum: 2,3-Diaminopyridine; ESI-QTOF; MS2; CE: 10; [M+H]+
Name: 2,3-Diaminopyridine
Name: DTXSID0051493
Formula: C5H7N3
Exact mass: 109.0639972455
SMILES: NC1=NC=CC=C1N
InChI: InChI=1S/C5H7N3/c6-4-2-1-3-8-5(4)7/h1-3H,6H2,(H2,7,8)
Instrument type: ESI-QTOF
Ms type: MS2
Ion mode: POSITIVE
Ionization: ESI
Collision energy: 10
Precursor m/z: 110.0712736972
Precursor type: [M+H]+
m/z	relative intensity
66.033826	14
83.060375	14
93.044725	175
110.071274	999
