Mass spectrum: 4'-Chloro-2',5'-dimethoxyacetoacetanilide; ESI-QTOF; MS2; CE: 40; [M+H]+
Name: 4'-Chloro-2',5'-dimethoxyacetoacetanilide
Name: DTXSID5029265
Formula: C12H14ClNO4
Exact mass: 271.0611356532
SMILES: CC(=O)CC(=O)NC1C=C(OC)C(Cl)=CC=1OC
InChI: InChI=1S/C12H14ClNO4/c1-7(15)4-12(16)14-9-6-10(17-2)8(13)5-11(9)18-3/h5-6H,4H2,1-3H3,(H,14,16)
Instrument type: ESI-QTOF
Ms type: MS2
Ion mode: POSITIVE
Ionization: ESI
Collision energy: 40
Precursor m/z: 272.0684121049
Precursor type: [M+H]+
m/z	relative intensity
43.017841	739
43.041651	17
43.054227	14
51.022927	11
59.049628	24
77.038577	21
80.01309	12
85.028893	38
108.04439	14
112.978869	10
123.067865	37
124.039305	20
125.986694	20
128.002344	14
129.010169	15
130.004931	576
138.054955	40
144.020581	19
153.07843	14
155.984195	13
155.997259	17
157.999845	375
158.036231	16
172.015495	36
173.02332	999
173.072769	17
182.000333	19
183.979597	78
184.015495	10
188.046796	36
197.02332	14
199.002585	24
