Mass spectrum: Diglycolic acid; ESI-QTOF; MS2; CE: 20; [M-H]-
Name: Diglycolic acid
Formula: C4H6O5
Exact mass: 134.0215233029
SMILES: OC(=O)COCC(O)=O
InChI: InChI=1S/C4H6O5/c5-3(6)1-9-2-4(7)8/h1-2H2,(H,5,6)(H,7,8)
Instrument type: ESI-QTOF
Ms type: MS2
Ion mode: NEGATIVE
Ionization: ESI
Collision energy: 20
Precursor m/z: 133.0142468512
Precursor type: [M-H]-
m/z	relative intensity
44.998203	19
47.013853	55
72.993117	19
75.008768	999
89.024418	75
