Mass spectrum: 4-(N-Methyl-N-nitrosamino)-1-(3-pyridyl)-1-butanone; ESI-QTOF; MS2; CE: 10; [M+H]+
Name: 4-(N-Methyl-N-nitrosamino)-1-(3-pyridyl)-1-butanone
Name: DTXSID3020881
Formula: C10H13N3O2
Exact mass: 207.1007766815
SMILES: CN(CCCC(=O)C1C=NC=CC=1)N=O
InChI: InChI=1S/C10H13N3O2/c1-13(12-15)7-3-5-10(14)9-4-2-6-11-8-9/h2,4,6,8H,3,5,7H2,1H3
Instrument type: ESI-QTOF
Ms type: MS2
Ion mode: POSITIVE
Ionization: ESI
Collision energy: 10
Precursor m/z: 208.1080531332
Precursor type: [M+H]+
m/z	relative intensity
57.057301	62
72.080776	11
79.041651	15
100.07569	10
106.02874	34
106.065126	61
122.06004	999
122.104979	30
134.06004	25
135.067865	56
148.07569	154
149.107325	39
150.11515	20
177.102239	20
208.108053	48
