Mass spectrum: Dexamethasone phosphate; ESI-QTOF; MS2; CE: 10; [M+H]+
Name: Dexamethasone phosphate
Name: DTXSID3047429
Formula: C22H30FO8P
Exact mass: 472.1662326254
SMILES: CC1CC2C3CCC4=CC(=O)C=CC4(C)C3(F)C(O)CC2(C)C1(O)C(=O)COP(O)(O)=O
InChI: InChI=1S/C22H30FO8P/c1-12-8-16-15-5-4-13-9-14(24)6-7-19(13,2)21(15,23)17(25)10-20(16,3)22(12,27)18(26)11-31-32(28,29)30/h6-7,9,12,15-17,25,27H,4-5,8,10-11H2,1-3H3,(H2,28,29,30)
Instrument type: ESI-QTOF
Ms type: MS2
Ion mode: POSITIVE
Ionization: ESI
Collision energy: 10
Precursor m/z: 473.1735090771
Precursor type: [M+H]+
m/z	relative intensity
43.017841	17
59.062028	56
95.049141	10
107.085527	26
137.096091	13
139.075356	14
139.111742	10
147.080441	42
149.096091	32
151.111742	16
156.989651	12
159.081584	16
161.096091	31
167.106656	11
171.080441	16
175.075356	11
177.091006	18
185.097234	42
187.075356	48
189.091006	21
203.106656	37
211.109372	37
212.119567	10
213.127392	11
215.143042	11
221.093722	14
223.109372	17
225.127392	14
227.143042	33
233.130107	11
235.111742	15
237.127392	117
239.106656	11
249.127392	11
253.158692	18
255.135587	12
263.143042	24
267.174342	12
275.140672	14
277.158692	27
279.171972	48
281.191135	14
291.171972	67
293.151237	23
295.170399	30
297.186049	47
301.157465	54
307.169256	44
309.184906	207
313.179821	34
319.169256	282
325.177452	72
327.195471	83
337.179821	517
355.190386	555
375.196614	19
417.146151	52
435.156716	999
453.167281	355
473.173509	375
