Mass spectrum: 4'-Chloro-2',5'-dimethoxyacetoacetanilide; ESI-QTOF; MS2; CE: 10; [M+H]+
Name: 4'-Chloro-2',5'-dimethoxyacetoacetanilide
Name: DTXSID5029265
Formula: C12H14ClNO4
Exact mass: 271.0611356532
SMILES: CC(=O)CC(=O)NC1C=C(OC)C(Cl)=CC=1OC
InChI: InChI=1S/C12H14ClNO4/c1-7(15)4-12(16)14-9-6-10(17-2)8(13)5-11(9)18-3/h5-6H,4H2,1-3H3,(H,14,16)
Instrument type: ESI-QTOF
Ms type: MS2
Ion mode: POSITIVE
Ionization: ESI
Collision energy: 10
Precursor m/z: 272.0684121049
Precursor type: [M+H]+
m/z	relative intensity
43.017841	61
59.049628	16
85.028406	22
173.023808	47
188.047283	999
212.047283	24
214.02606	46
254.057847	130
272.068412	248
