Mass spectrum: N,N,N?,N?-Tetrakis(2-hydroxypropyl)ethylenediamine; ESI-QTOF; MS2; CE: 10; [M-H]-
Name: N,N,N?,N?-Tetrakis(2-hydroxypropyl)ethylenediamine
Formula: C14H32N2O4
Exact mass: 292.2362075248
SMILES: CC(O)CN(CC(C)O)CCN(CC(C)O)CC(C)O
InChI: InChI=1S/C14H32N2O4/c1-11(17)7-15(8-12(2)18)5-6-16(9-13(3)19)10-14(4)20/h11-14,17-20H,5-10H2,1-4H3
Instrument type: ESI-QTOF
Ms type: MS2
Ion mode: NEGATIVE
Ionization: ESI
Collision energy: 10
Precursor m/z: 291.2289310731
Precursor type: [M-H]-
m/z	relative intensity
43.018938	254
57.034588	31
70.066223	28
82.066223	21
96.081873	20
114.092438	196
130.087352	38
132.103002	242
140.108088	40
158.094843	13
158.118652	508
247.202716	10
255.207802	72
273.218366	371
289.213281	28
291.228931	999
