Mass spectrum: N-(4-Ethoxyphenyl)-3-oxobutanamide; ESI-QTOF; MS2; CE: 40; [M+H]+
Name: N-(4-Ethoxyphenyl)-3-oxobutanamide
Formula: C12H15NO3
Exact mass: 221.1051933528
SMILES: CC(=O)CC(=O)NC1C=CC(=CC=1)OCC
InChI: InChI=1S/C12H15NO3/c1-3-16-11-6-4-10(5-7-11)13-12(15)8-9(2)14/h4-7H,3,8H2,1-2H3,(H,13,15)
Instrument type: ESI-QTOF
Ms type: MS2
Ion mode: POSITIVE
Ionization: ESI
Collision energy: 40
Precursor m/z: 222.1124698045
Precursor type: [M+H]+
m/z	relative intensity
39.022927	21
41.038577	27
43.017841	999
43.041651	20
43.054227	10
53.038577	29
59.049141	174
65.038577	514
67.041651	19
67.054227	16
68.01309	22
77.038577	37
80.049476	74
81.033491	268
81.057301	30
82.065126	80
85.028406	80
91.054227	23
92.049476	210
93.033491	445
93.057301	116
107.049141	64
108.04439	991
108.080776	17
109.052215	162
110.06004	705
110.096426	10
134.06004	15
136.07569	20
137.083515	10
138.09134	135
