Mass spectrum: 1,2,4-Butanetriol; ESI-QTOF; MS2; CE: 10; [M-H]-
Name: 1,2,4-Butanetriol
Name: DTXSID8044416
Formula: C4H10O3
Exact mass: 106.0629941859
SMILES: OCC(O)CCO
InChI: InChI=1S/C4H10O3/c5-2-1-4(7)3-6/h4-7H,1-3H2
Instrument type: ESI-QTOF
Ms type: MS2
Ion mode: NEGATIVE
Ionization: ESI
Collision energy: 10
Precursor m/z: 105.0557177342
Precursor type: [M-H]-
m/z	relative intensity
31.018938	33
41.039674	32
43.018938	81
44.998203	52
45.034588	39
57.034588	393
59.013853	429
59.050238	21
69.034588	149
71.013853	29
73.029503	999
73.065888	23
85.029503	32
87.045153	73
105.055718	79
