Mass spectrum: gamma-Cyclodextrin; ESI-QTOF; MS2; CE: 10; [M+H]+
Name: gamma-Cyclodextrin
Name: DTXSID5047033
Formula: C48H80O40
Exact mass: 1296.422587444
SMILES: OC1C2OC3OC(CO)C(OC4OC(CO)C(OC5OC(CO)C(OC6OC(CO)C(OC7OC(CO)C(OC8OC(CO)C(OC9OC(CO)C(OC(OC2CO)C1O)C(O)C9O)C(O)C8O)C(O)C7O)C(O)C6O)C(O)C5O)C(O)C4O)C(O)C3O
InChI: InChI=1S/C48H80O40/c49-1-9-33-17(57)25(65)41(73-9)82-34-10(2-50)75-43(27(67)19(34)59)84-36-12(4-52)77-45(29(69)21(36)61)86-38-14(6-54)79-47(31(71)23(38)63)88-40-16(8-56)80-48(32(72)24(40)64)87-39-15(7-55)78-46(30(70)22(39)62)85-37-13(5-53)76-44(28(68)20(37)60)83-35-11(3-51)74-42(81-33)26(66)18(35)58/h9-72H,1-8H2
Instrument type: ESI-QTOF
Ms type: MS2
Ion mode: POSITIVE
Ionization: ESI
Collision energy: 10
Precursor m/z: 1297.4298638957
Precursor type: [M+H]+
m/z	relative intensity
85.028406	31
127.038971	59
163.0601	90
222.08866	14
265.019023	15
266.998287	13
271.075356	30
283.044844	14
289.085921	29
292.151655	20
299.076144	26
325.112923	778
325.185694	11
325.923565	10
326.120748	15
355.065973	34
356.067925	29
357.054621	18
371.106656	46
372.099225	54
429.091006	35
430.089448	59
487.165747	570
488.307367	10
503.32146	30
503.351972	10
511.002585	12
613.197441	43
649.21857	476
649.291341	15
650.214649	27
667.165747	22
716.288602	23
811.274903	890
811.353548	17
812.279219	99
812.549173	14
973.245573	25
973.324217	999
973.44863	14
974.029212	10
974.144241	13
974.174754	11
974.289783	44
974.332042	132
974.949009	14
976.949403	11
999.99322	14
