Mass spectrum: N-(3,4-Dichlorophenyl)-N'-methylurea; ESI-QTOF; MS2; CE: 10; [M+H]+
Name: N-(3,4-Dichlorophenyl)-N'-methylurea
Name: DTXSID3042180
Formula: C8H8Cl2N2O
Exact mass: 218.0013683123
SMILES: CNC(=O)NC1=CC(Cl)=C(Cl)C=C1
InChI: InChI=1S/C8H8Cl2N2O/c1-11-8(13)12-5-2-3-6(9)7(10)4-5/h2-4H,1H3,(H2,11,12,13)
Instrument type: ESI-QTOF
Ms type: MS2
Ion mode: POSITIVE
Ionization: ESI
Collision energy: 10
Precursor m/z: 219.008644764
Precursor type: [M+H]+
m/z	relative intensity
61.007276	32
79.018328	11
98.974452	144
99.982277	26
101.002678	11
122.987028	22
136.978869	20
140.961695	147
140.997593	774
141.021402	26
176.986847	67
177.992842	102
183.008645	15
200.99808	139
219.008645	999
