Mass spectrum: CP-544439; ESI-QTOF; MS2; CE: 40; [M-H]-
Name: CP-544439
Name: DTXSID8047266
Formula: C18H19FN2O6S
Exact mass: 410.0947852847
SMILES: ONC(=O)C1(CCOCC1)NS(=O)(=O)C1=CC=C(C=C1)OC1=CC=C(F)C=C1
InChI: InChI=1S/C18H19FN2O6S/c19-13-1-3-14(4-2-13)27-15-5-7-16(8-6-15)28(24,25)21-18(17(22)20-23)9-11-26-12-10-18/h1-8,21,23H,9-12H2,(H,20,22)
Instrument type: ESI-QTOF
Ms type: MS2
Ion mode: NEGATIVE
Ionization: ESI
Collision energy: 40
Precursor m/z: 409.087508833
Precursor type: [M-H]-
m/z	relative intensity
41.998537	28
57.993452	12
63.962449	10
77.965523	11
78.034923	28
78.973348	10
79.981173	56
95.030252	20
106.029837	45
107.037662	214
111.025167	11
112.040402	36
187.055815	35
202.066914	74
266.029266	999
266.09082	24
266.115972	10
267.032577	26
