Mass spectrum: C.I. Direct Red 81; ESI-QTOF; MS2; CE: 20; [M+H]+
Name: C.I. Direct Red 81
Name: DTXSID5041726
Formula: C29H21N5O8S2
Exact mass: 631.0831541453
SMILES: OC1C2=CC=C(C=C2C=C(C=1/N=N/C1C=CC(=CC=1)/N=N/C1C=CC(=CC=1)S(O)(=O)=O)S(O)(=O)=O)NC(=O)C1C=CC=CC=1
InChI: InChI=1S/C29H21N5O8S2/c35-28-25-15-12-23(30-29(36)18-4-2-1-3-5-18)16-19(25)17-26(44(40,41)42)27(28)34-33-21-8-6-20(7-9-21)31-32-22-10-13-24(14-11-22)43(37,38)39/h1-17,35H,(H,30,36)(H,37,38,39)(H,40,41,42)/b32-31+,34-33+
Instrument type: ESI-QTOF
Ms type: MS2
Ion mode: POSITIVE
Ionization: ESI
Collision energy: 20
Precursor m/z: 632.090430597
Precursor type: [M+H]+
m/z	relative intensity
105.033491	51
120.055624	25
276.043048	364
277.051563	89
355.037628	240
447.088343	12
614.079866	143
632.090431	999
