Mass spectrum: Isovaleronitrile; ESI-QTOF; MS2; CE: 20; [M+H]+
Name: Isovaleronitrile
Name: DTXSID0021620
Formula: C5H9N
Exact mass: 83.0734992945
SMILES: CC(C)CC#N
InChI: InChI=1S/C5H9N/c1-5(2)3-4-6/h5H,3H2,1-2H3
Instrument type: ESI-QTOF
Ms type: MS2
Ion mode: POSITIVE
Ionization: ESI
Collision energy: 20
Precursor m/z: 84.0807757462
Precursor type: [M+H]+
m/z	relative intensity
39.022927	28
41.038577	423
42.033826	999
43.054227	299
