Mass spectrum: Diisopropanolamine; ESI-QTOF; MS2; CE: 40; [M+H]+
Name: Diisopropanolamine
Formula: C6H15NO2
Exact mass: 133.1102787305
SMILES: CC(O)CNCC(C)O
InChI: InChI=1S/C6H15NO2/c1-5(8)3-7-4-6(2)9/h5-9H,3-4H2,1-2H3
Instrument type: ESI-QTOF
Ms type: MS2
Ion mode: POSITIVE
Ionization: ESI
Collision energy: 40
Precursor m/z: 134.1175551822
Precursor type: [M+H]+
m/z	relative intensity
31.017841	73
39.022927	359
39.044056	12
40.030752	13
41.038577	999
41.059706	48
42.033826	175
43.017841	51
43.041651	108
43.054227	86
44.025666	10
47.00018	18
54.033826	137
55.041651	15
56.049476	59
58.065126	65
59.049141	93
68.049476	113
70.065126	20
82.065126	29
