Mass spectrum: 4,4'-(Isopropylidenebis(4,1-phenyleneoxy))dianiline; ESI-QTOF; MS2; CE: 10; [M+H]+
Name: 4,4'-(Isopropylidenebis(4,1-phenyleneoxy))dianiline
Name: DTXSID5051650
Formula: C27H26N2O2
Exact mass: 410.1994280888
SMILES: CC(C)(C1C=CC(=CC=1)OC1C=CC(N)=CC=1)C1C=CC(=CC=1)OC1C=CC(N)=CC=1
InChI: InChI=1S/C27H26N2O2/c1-27(2,19-3-11-23(12-4-19)30-25-15-7-21(28)8-16-25)20-5-13-24(14-6-20)31-26-17-9-22(29)10-18-26/h3-18H,28-29H2,1-2H3
Instrument type: ESI-QTOF
Ms type: MS2
Ion mode: POSITIVE
Ionization: ESI
Collision energy: 10
Precursor m/z: 411.2067045405
Precursor type: [M+H]+
m/z	relative intensity
108.04439	87
210.09134	31
225.091006	10
226.122641	329
290.153941	29
318.148855	472
319.15668	27
396.183229	10
411.206705	999
