Mass spectrum: Thiocyanic acid; ESI-QTOF; MS2; CE: 40; [M-H]-
Name: Thiocyanic acid
Name: DTXSID3029653
Name: Sulfocyanic acid
Formula: CHNS
Exact mass: 58.9829697693
SMILES: N#CS
InChI: InChI=1S/CHNS/c2-1-3/h3H
Instrument type: ESI-QTOF
Ms type: MS2
Ion mode: NEGATIVE
Ionization: ESI
Collision energy: 40
Precursor m/z: 57.9756933176
Precursor type: [M-H]-
m/z	relative intensity
45.975693	19
57.975693	999
