Mass spectrum: 3-Methyl-1-phenyl-1H-pyrazol-5-amine; ESI-QTOF; MS2; CE: 10; [M+H]+
Name: 3-Methyl-1-phenyl-1H-pyrazol-5-amine
Formula: C10H11N3
Exact mass: 173.0952973731
SMILES: CC1C=C(N)N(N=1)C1C=CC=CC=1
InChI: InChI=1S/C10H11N3/c1-8-7-10(11)13(12-8)9-5-3-2-4-6-9/h2-7H,11H2,1H3
Instrument type: ESI-QTOF
Ms type: MS2
Ion mode: POSITIVE
Ionization: ESI
Collision energy: 10
Precursor m/z: 174.1025738248
Precursor type: [M+H]+
m/z	relative intensity
106.065126	49
133.076025	49
174.102574	999
