Mass spectrum: N-(2-Methoxyphenyl)acetamide; ESI-QTOF; MS2; CE: 20; [M+H]+
Name: N-(2-Methoxyphenyl)acetamide
Formula: C9H11NO2
Exact mass: 165.0789786029
SMILES: CC(=O)NC1=CC=CC=C1OC
InChI: InChI=1S/C9H11NO2/c1-7(11)10-8-5-3-4-6-9(8)12-2/h3-6H,1-2H3,(H,10,11)
Instrument type: ESI-QTOF
Ms type: MS2
Ion mode: POSITIVE
Ionization: ESI
Collision energy: 20
Precursor m/z: 166.0862550546
Precursor type: [M+H]+
m/z	relative intensity
43.017841	241
80.049476	13
92.049476	59
108.04439	21
109.052215	780
109.088601	15
124.07569	999
148.07569	10
