Mass spectrum: Cariporide mesylate; ESI-QTOF; MS2; CE: 10; [M-H]-
Name: Cariporide mesylate
Name: DTXSID3047344
Formula: C12H17N3O3S
Exact mass: 283.0990621614
SMILES: CS(=O)(=O)C1=CC(=CC=C1C(C)C)C(=O)N=C(N)N
InChI: InChI=1S/C12H17N3O3S/c1-7(2)9-5-4-8(11(16)15-12(13)14)6-10(9)19(3,17)18/h4-7H,1-3H3,(H4,13,14,15,16)
Instrument type: ESI-QTOF
Ms type: MS2
Ion mode: NEGATIVE
Ionization: ESI
Collision energy: 10
Precursor m/z: 282.0917857097
Precursor type: [M-H]-
m/z	relative intensity
41.014522	53
41.998537	119
240.069988	404
282.091786	999
