Mass spectrum: Benzyltriethylammonium; ESI-QTOF; MS2; CE: 40; [M+H]+
Name: Benzyltriethylammonium
Name: DTXSID9021710
Formula: [C13H22N]+
Exact mass: 192.1752247092
SMILES: CC[N+](CC1C=CC=CC=1)(CC)CC
InChI: InChI=1S/C13H22N/c1-4-14(5-2,6-3)12-13-10-8-7-9-11-13/h7-11H,4-6,12H2,1-3H3/q+1
Instrument type: ESI-QTOF
Ms type: MS2
Ion mode: POSITIVE
Ionization: ESI
Collision energy: 40
Precursor m/z: 193.1825011609
Precursor type: [M+H]+
m/z	relative intensity
39.022927	19
41.038577	21
44.049476	111
45.057301	25
58.065126	56
59.072951	10
63.022927	10
65.038577	279
66.046402	168
72.080776	53
73.088601	16
86.096426	226
87.104251	140
91.054227	937
92.062052	999
100.112076	37
101.119901	34
