Mass spectrum: dl-Norgestrel; ESI-QTOF; MS2; CE: 10; [M+H]+
Name: dl-Norgestrel
Name: DTXSID3047477
Formula: C21H28O2
Exact mass: 312.2089301378
SMILES: CCC12CCC3C4CCC(=O)C=C4CCC3C1CCC2(O)C#C
InChI: InChI=1S/C21H28O2/c1-3-20-11-9-17-16-8-6-15(22)13-14(16)5-7-18(17)19(20)10-12-21(20,23)4-2/h2,13,16-19,23H,3,5-12H2,1H3
Instrument type: ESI-QTOF
Ms type: MS2
Ion mode: POSITIVE
Ionization: ESI
Collision energy: 10
Precursor m/z: 313.2162065895
Precursor type: [M+H]+
m/z	relative intensity
109.064791	15
119.085527	10
123.080441	10
133.101177	11
199.148127	10
245.189992	47
277.195077	11
295.205642	44
313.216207	999
