Mass spectrum: Diethyl (N,N-bis(2-hydroxyethyl)amino)methanephosphonate; ESI-QTOF; MS2; CE: 40; [M+H]+
Name: Diethyl (N,N-bis(2-hydroxyethyl)amino)methanephosphonate
Name: DTXSID2029242
Formula: C9H22NO5P
Exact mass: 255.1235593107
SMILES: CCOP(=O)(CN(CCO)CCO)OCC
InChI: InChI=1S/C9H22NO5P/c1-3-14-16(13,15-4-2)9-10(5-7-11)6-8-12/h11-12H,3-9H2,1-2H3
Instrument type: ESI-QTOF
Ms type: MS2
Ion mode: POSITIVE
Ionization: ESI
Collision energy: 40
Precursor m/z: 256.1308357624
Precursor type: [M+H]+
m/z	relative intensity
42.033826	10
44.049476	67
45.033491	863
45.057301	18
45.069877	13
56.049476	999
56.074938	20
58.065126	54
70.065126	83
72.080776	37
73.052215	16
74.06004	813
74.093746	16
84.080776	30
88.07569	105
100.07569	38
102.09134	109
118.086255	715
118.122641	10
