Mass spectrum: 2-[4-(Diethylamino)-2-hydroxybenzoyl]benzoic acid; ESI-QTOF; MS2; CE: 20; [M+H]+
Name: 2-[4-(Diethylamino)-2-hydroxybenzoyl]benzoic acid
Name: DTXSID4027604
Formula: C18H19NO4
Exact mass: 313.1314081027
SMILES: CCN(CC)C1=CC(O)=C(C=C1)C(=O)C1C=CC=CC=1C(O)=O
InChI: InChI=1S/C18H19NO4/c1-3-19(4-2)12-9-10-15(16(20)11-12)17(21)13-7-5-6-8-14(13)18(22)23/h5-11,20H,3-4H2,1-2H3,(H,22,23)
Instrument type: ESI-QTOF
Ms type: MS2
Ion mode: POSITIVE
Ionization: ESI
Collision energy: 20
Precursor m/z: 314.1386845544
Precursor type: [M+H]+
m/z	relative intensity
93.033491	12
110.06004	18
120.080776	20
121.028406	16
122.06004	12
137.083515	36
138.09134	454
149.02332	999
149.068259	23
149.083515	13
164.070605	12
166.122641	992
224.070605	17
239.09408	31
240.06552	16
240.101905	215
250.086255	47
252.06552	34
266.08117	39
267.088995	96
268.09682	296
270.076084	23
284.091734	11
285.099559	152
286.107384	26
296.12812	418
314.138685	691
