Mass spectrum: Tetraisopropyl methylenediphosphonate; ESI-QTOF; MS2; CE: 20; [M-H]-
Name: Tetraisopropyl methylenediphosphonate
Name: DTXSID7044847
Formula: C13H30O6P2
Exact mass: 344.1517616708
SMILES: CC(C)OP(=O)(CP(=O)(OC(C)C)OC(C)C)OC(C)C
InChI: InChI=1S/C13H30O6P2/c1-10(2)16-20(14,17-11(3)4)9-21(15,18-12(5)6)19-13(7)8/h10-13H,9H2,1-8H3
Instrument type: ESI-QTOF
Ms type: MS2
Ion mode: NEGATIVE
Ionization: ESI
Collision energy: 20
Precursor m/z: 343.1444852191
Precursor type: [M-H]-
m/z	relative intensity
62.964139	19
68.98996	12
78.959054	85
112.988032	15
136.021237	12
139.016569	24
156.94612	191
181.063519	104
182.925384	12
198.99307	999
199.044712	11
217.003635	12
241.04002	41
259.050585	225
301.097535	354
343.144485	124
