Mass spectrum: 2-Amino-2-methylpropan-1-ol; ESI-QTOF; MS2; CE: 20; [M+H]+
Name: 2-Amino-2-methylpropan-1-ol
Formula: C4H11NO
Exact mass: 89.0840639806
SMILES: CC(C)(N)CO
InChI: InChI=1S/C4H11NO/c1-4(2,5)3-6/h6H,3,5H2,1-2H3
Instrument type: ESI-QTOF
Ms type: MS2
Ion mode: POSITIVE
Ionization: ESI
Collision energy: 20
Precursor m/z: 90.0913404323
Precursor type: [M+H]+
m/z	relative intensity
29.038577	26
31.017841	38
39.022927	57
41.038577	68
43.017841	44
43.054227	157
45.033491	277
53.038577	49
55.054227	999
58.041316	59
73.064791	102
