Mass spectrum: 2-Amino-6-hydroxy-1H-pyrimidin-4-one; ESI-QTOF; MS2; CE: 10; [M-H]-
Name: 2-Amino-6-hydroxy-1H-pyrimidin-4-one
Name: DTXSID3052222
Formula: C4H5N3O2
Exact mass: 127.0381764263
SMILES: NC1NC(=O)CC(=O)N=1
InChI: InChI=1S/C4H5N3O2/c5-4-6-2(8)1-3(9)7-4/h1H2,(H3,5,6,7,8,9)
Instrument type: ESI-QTOF
Ms type: MS2
Ion mode: NEGATIVE
Ionization: ESI
Collision energy: 10
Precursor m/z: 126.0308999746
Precursor type: [M-H]-
m/z	relative intensity
40.019273	208
41.003288	16
41.014522	430
41.998537	96
58.041071	58
82.041071	999
83.025086	233
84.009102	52
109.004351	22
126.0309	902
