Mass spectrum: 4,5-Dihydroxy-1,3-dimethylimidazolidin-2-one; ESI-QTOF; MS2; CE: 20; [M-H]-
Name: 4,5-Dihydroxy-1,3-dimethylimidazolidin-2-one
Name: DTXSID1044934
Formula: C5H10N2O3
Exact mass: 146.0691422007
SMILES: CN1C(O)C(O)N(C)C1=O
InChI: InChI=1S/C5H10N2O3/c1-6-3(8)4(9)7(2)5(6)10/h3-4,8-9H,1-2H3
Instrument type: ESI-QTOF
Ms type: MS2
Ion mode: NEGATIVE
Ionization: ESI
Collision energy: 20
Precursor m/z: 145.061865749
Precursor type: [M-H]-
m/z	relative intensity
28.019273	28
56.014187	412
56.998203	31
58.029837	59
60.993117	24
69.045822	13
86.024752	66
87.056386	999
88.016593	11
88.040402	208
