Mass spectrum: Schaffer's acid; ESI-QTOF; MS2; CE: 10; [M-H]-
Name: Schaffer's acid
Name: DTXSID7029166
Name: 6-hydroxynaphthalene-2-sulfonate
Formula: C10H8O4S
Exact mass: 224.0143294744
SMILES: OC1C=CC2C=C(C=CC=2C=1)S(O)(=O)=O
InChI: InChI=1S/C10H8O4S/c11-9-3-1-8-6-10(15(12,13)14)4-2-7(8)5-9/h1-6,11H,(H,12,13,14)
Instrument type: ESI-QTOF
Ms type: MS2
Ion mode: NEGATIVE
Ionization: ESI
Collision energy: 10
Precursor m/z: 223.0070530227
Precursor type: [M-H]-
m/z	relative intensity
79.957363	83
143.050238	12
158.037328	39
159.045153	81
223.007053	999
