Mass spectrum: 4-(3-Methyl-5-oxo-4,5-dihydro-1H-pyrazol-1-yl)benzoic acid; ESI-QTOF; MS2; CE: 10; [M+H]+
Name: 4-(3-Methyl-5-oxo-4,5-dihydro-1H-pyrazol-1-yl)benzoic acid
Name: DTXSID8044963
Formula: C11H10N2O3
Exact mass: 218.0691422007
SMILES: CC1CC(=O)N(N=1)C1C=CC(=CC=1)C(O)=O
InChI: InChI=1S/C11H10N2O3/c1-7-6-10(14)13(12-7)9-4-2-8(3-5-9)11(15)16/h2-5H,6H2,1H3,(H,15,16)
Instrument type: ESI-QTOF
Ms type: MS2
Ion mode: POSITIVE
Ionization: ESI
Collision energy: 10
Precursor m/z: 219.0764186524
Precursor type: [M+H]+
m/z	relative intensity
175.086589	18
201.065854	12
219.076419	999
