Mass spectrum: (1,1-Dimethylethyl)urea; ESI-QTOF; MS2; CE: 40; [M+H]+
Name: (1,1-Dimethylethyl)urea
Formula: C5H12N2O
Exact mass: 116.0949630199
SMILES: CC(C)(C)NC(N)=O
InChI: InChI=1S/C5H12N2O/c1-5(2,3)7-4(6)8/h1-3H3,(H3,6,7,8)
Instrument type: ESI-QTOF
Ms type: MS2
Ion mode: POSITIVE
Ionization: ESI
Collision energy: 40
Precursor m/z: 117.1022394716
Precursor type: [M+H]+
m/z	relative intensity
29.038577	18
39.022927	173
41.038577	337
42.033826	12
43.029075	28
43.041651	11
44.01309	999
44.0369	22
44.049476	20
57.069877	39
58.065126	20
61.039639	41
