Mass spectrum: N,N'-Di-2-naphthyl-p-phenylenediamine; ESI-QTOF; MS2; CE: 40; [M+H]+
Name: N,N'-Di-2-naphthyl-p-phenylenediamine
Formula: C26H20N2
Exact mass: 360.1626486528
SMILES: C1=C2C=CC=CC2=CC=C1NC1C=CC(=CC=1)NC1C=C2C=CC=CC2=CC=1
InChI: InChI=1S/C26H20N2/c1-3-7-21-17-25(11-9-19(21)5-1)27-23-13-15-24(16-14-23)28-26-12-10-20-6-2-4-8-22(20)18-26/h1-18,27-28H
Instrument type: ESI-QTOF
Ms type: MS2
Ion mode: POSITIVE
Ionization: ESI
Collision energy: 40
Precursor m/z: 361.1699251045
Precursor type: [M+H]+
m/z	relative intensity
93.057301	92
107.060375	20
115.054227	63
116.062052	25
128.062052	12
140.049476	15
142.065126	19
143.072951	19
155.060375	16
179.085527	14
189.069877	16
191.072951	13
191.085527	12
192.093352	17
193.088601	33
204.080776	13
206.096426	131
207.104251	25
216.080776	64
217.088601	178
218.096426	389
219.104251	679
231.091675	13
232.0995	60
233.107325	793
234.11515	999
360.1621	18
361.169925	156
