Mass spectrum: 5-Amino-2-methylphenol; ESI-QTOF; MS2; CE: 10; [M+H]+
Name: 5-Amino-2-methylphenol
Name: DTXSID9024489
Formula: C7H9NO
Exact mass: 123.0684139168
SMILES: CC1C=CC(N)=CC=1O
InChI: InChI=1S/C7H9NO/c1-5-2-3-6(8)4-7(5)9/h2-4,9H,8H2,1H3
Instrument type: ESI-QTOF
Ms type: MS2
Ion mode: POSITIVE
Ionization: ESI
Collision energy: 10
Precursor m/z: 124.0756903685
Precursor type: [M+H]+
m/z	relative intensity
77.038577	27
79.054227	81
80.049476	10
96.080776	11
106.065126	19
107.049141	238
107.072951	24
109.052215	280
124.07569	999
