Mass spectrum: 4-Sulfophthalic acid; ESI-QTOF; MS2; CE: 10; [M-H]-
Name: 4-Sulfophthalic acid
Formula: C8H6O7S
Exact mass: 245.9834232775
SMILES: OC(=O)C1=CC=C(C=C1C(O)=O)S(O)(=O)=O
InChI: InChI=1S/C8H6O7S/c9-7(10)5-2-1-4(16(13,14)15)3-6(5)8(11)12/h1-3H,(H,9,10)(H,11,12)(H,13,14,15)
Instrument type: ESI-QTOF
Ms type: MS2
Ion mode: NEGATIVE
Ionization: ESI
Collision energy: 10
Precursor m/z: 244.9761468258
Precursor type: [M-H]-
m/z	relative intensity
79.957363	59
80.965188	197
93.034588	50
156.996488	614
182.975753	11
200.986318	999
226.965582	112
244.976147	461
