Mass spectrum: 3-Chloro-7-hydroxy-4-methyl-2-benzopyrone; ESI-QTOF; MS2; CE: 10; [M-H]-
Name: 3-Chloro-7-hydroxy-4-methyl-2-benzopyrone
Name: DTXSID8052724
Formula: C10H7ClO3
Exact mass: 210.0083718002
SMILES: CC1=C(Cl)C(=O)OC2C=C(O)C=CC=21
InChI: InChI=1S/C10H7ClO3/c1-5-7-3-2-6(12)4-8(7)14-10(13)9(5)11/h2-4,12H,1H3
Instrument type: ESI-QTOF
Ms type: MS2
Ion mode: NEGATIVE
Ionization: ESI
Collision energy: 10
Precursor m/z: 209.0010953485
Precursor type: [M-H]-
m/z	relative intensity
34.969401	24
145.029503	35
173.024418	10
209.001095	999
