Mass spectrum: ECC; ESI-QTOF; MS2; CE: 20; [M+H]+
Name: ECC
Name: DTXSID2027466
Formula: C14H20O4
Exact mass: 252.1361591272
SMILES: O=C(OCC1CC2OC2CC1)C1CC2OC2CC1
InChI: InChI=1S/C14H20O4/c15-14(9-2-4-11-13(6-9)18-11)16-7-8-1-3-10-12(5-8)17-10/h8-13H,1-7H2
Instrument type: ESI-QTOF
Ms type: MS2
Ion mode: POSITIVE
Ionization: ESI
Collision energy: 20
Precursor m/z: 253.1434355789
Precursor type: [M+H]+
m/z	relative intensity
41.038577	17
43.017841	21
55.054227	80
56.025666	35
57.069877	89
67.038971	49
67.054227	35
69.033491	21
69.069877	152
77.038577	200
79.054227	126
81.069877	349
91.054227	135
91.075356	14
93.069877	999
95.085527	11
97.064791	113
107.049141	52
111.080441	326
125.059706	42
129.069877	18
137.059706	16
143.070271	18
157.101177	29
179.106656	46
179.143042	19
181.122306	15
235.132871	17
