Mass spectrum: 1,2,2,6,6-Pentamethylpiperidin-4-ol; ESI-QTOF; MS2; CE: 40; [M+H]+
Name: 1,2,2,6,6-Pentamethylpiperidin-4-ol
Name: DTXSID3044411
Formula: C10H21NO
Exact mass: 171.1623142996
SMILES: CN1C(C)(C)CC(O)CC1(C)C
InChI: InChI=1S/C10H21NO/c1-9(2)6-8(12)7-10(3,4)11(9)5/h8,12H,6-7H2,1-5H3
Instrument type: ESI-QTOF
Ms type: MS2
Ion mode: POSITIVE
Ionization: ESI
Collision energy: 40
Precursor m/z: 172.1695907513
Precursor type: [M+H]+
m/z	relative intensity
32.049476	56
39.022927	15
41.038577	236
42.033826	79
43.017841	21
43.054227	20
44.049476	15
53.038577	12
55.054227	49
56.049476	26
57.057301	56
57.069877	149
58.065126	13
59.049141	51
60.04439	68
65.038577	22
67.054227	56
70.065126	46
72.080776	999
79.054227	28
81.069877	45
85.064791	74
