Mass spectrum: MK-274; ESI-QTOF; MS2; CE: 20; [M-H]-
Name: MK-274
Name: DTXSID5047328
Formula: C18H12F6N4O2
Exact mass: 430.086444857
SMILES: NC(=O)C1NN=C(N=1)C1C=C(C=CC=1)C1=CC(F)=CC=C1OCC(F)(F)C(F)(F)F
InChI: InChI=1S/C18H12F6N4O2/c19-11-4-5-13(30-8-17(20,21)18(22,23)24)12(7-11)9-2-1-3-10(6-9)15-26-16(14(25)29)28-27-15/h1-7H,8H2,(H2,25,29)(H,26,27,28)
Instrument type: ESI-QTOF
Ms type: MS2
Ion mode: NEGATIVE
Ionization: ESI
Collision energy: 20
Precursor m/z: 429.0791684053
Precursor type: [M-H]-
m/z	relative intensity
41.014522	48
41.998537	168
68.995758	39
251.031395	15
254.073355	18
276.057705	38
296.071543	34
306.048442	33
326.05467	999
327.05737	36
346.060898	946
347.062456	39
366.067127	820
367.067541	27
369.060484	16
386.073355	45
389.066712	339
390.068269	16
409.07294	671
410.080765	32
429.079168	921
