Mass spectrum: 2-[2-(Hexyloxy)ethoxy]ethanol; ESI-QTOF; MS2; CE: 20; [M+H]+
Name: 2-[2-(Hexyloxy)ethoxy]ethanol
Formula: C10H22O3
Exact mass: 190.1568945687
SMILES: CCCCCCOCCOCCO
InChI: InChI=1S/C10H22O3/c1-2-3-4-5-7-12-9-10-13-8-6-11/h11H,2-10H2,1H3
Instrument type: ESI-QTOF
Ms type: MS2
Ion mode: POSITIVE
Ionization: ESI
Collision energy: 20
Precursor m/z: 191.1641710204
Precursor type: [M+H]+
m/z	relative intensity
41.038577	67
43.054227	717
43.075356	18
45.033491	999
45.069877	13
57.069877	106
85.101177	60
89.059706	43
