Mass spectrum: 2-(Pyridin-2-yl)ethanol; ESI-QTOF; MS2; CE: 10; [M+H]+
Name: 2-(Pyridin-2-yl)ethanol
Formula: C7H9NO
Exact mass: 123.0684139168
SMILES: OCCC1C=CC=CN=1
InChI: InChI=1S/C7H9NO/c9-6-4-7-3-1-2-5-8-7/h1-3,5,9H,4,6H2
Instrument type: ESI-QTOF
Ms type: MS2
Ion mode: POSITIVE
Ionization: ESI
Collision energy: 10
Precursor m/z: 124.0756903685
Precursor type: [M+H]+
m/z	relative intensity
78.033826	57
79.017841	34
93.057301	14
106.065126	999
107.072951	73
121.052215	21
124.07569	832
