Mass spectrum: 4-[(3-oxobutanoyl)amino]benzenesulfonate; ESI-QTOF; MS2; CE: 40; [M-H]-
Name: 4-[(3-oxobutanoyl)amino]benzenesulfonate
Name: DTXSID1044722
Formula: C10H11NO5S
Exact mass: 257.0357931998
SMILES: CC(=O)CC(=O)NC1C=CC(=CC=1)S(O)(=O)=O
InChI: InChI=1S/C10H11NO5S/c1-7(12)6-10(13)11-8-2-4-9(5-3-8)17(14,15)16/h2-5H,6H2,1H3,(H,11,13)(H,14,15,16)
Instrument type: ESI-QTOF
Ms type: MS2
Ion mode: NEGATIVE
Ionization: ESI
Collision energy: 40
Precursor m/z: 256.0285167481
Precursor type: [M-H]-
m/z	relative intensity
57.034588	55
78.034923	304
79.957363	999
79.990378	28
80.965188	31
106.029837	209
107.037662	80
108.045487	50
118.029837	12
134.024752	369
155.988663	27
170.999562	84
172.007387	150
197.986652	324
