Mass spectrum: 2-Mercaptoethanol; ESI-QTOF; MS2; CE: 20; [M+H]+
Name: 2-Mercaptoethanol
Name: DTXSID4026343
Formula: C2H6OS
Exact mass: 78.0139355437
SMILES: OCCS
InChI: InChI=1S/C2H6OS/c3-1-2-4/h3-4H,1-2H2
Instrument type: ESI-QTOF
Ms type: MS2
Ion mode: POSITIVE
Ionization: ESI
Collision energy: 20
Precursor m/z: 79.0212119954
Precursor type: [M+H]+
m/z	relative intensity
45.987172	36
46.994997	311
48.974262	46
61.010647	84
62.018472	54
62.989912	42
63.997737	999
79.021212	127
