Mass spectrum: Imidazole; ESI-QTOF; MS2; CE: 10; [M+H]+
Name: Imidazole
Name: DTXSID2029616
Formula: C3H4N2
Exact mass: 68.0374481424
SMILES: C1NC=CN=1
InChI: InChI=1S/C3H4N2/c1-2-5-3-4-1/h1-3H,(H,4,5)
Instrument type: ESI-QTOF
Ms type: MS2
Ion mode: POSITIVE
Ionization: ESI
Collision energy: 10
Precursor m/z: 69.0447245941
Precursor type: [M+H]+
m/z	relative intensity
42.033826	38
69.044725	999
