Mass spectrum: Zamifenacin; ESI-QTOF; MS2; CE: 10; [M+H]+
Name: Zamifenacin
Formula: C27H29NO3
Exact mass: 415.2147437994
SMILES: C1C(CCCN1CCC1C=C2OCOC2=CC=1)OC(C1C=CC=CC=1)C1C=CC=CC=1
InChI: InChI=1S/C27H29NO3/c1-3-8-22(9-4-1)27(23-10-5-2-6-11-23)31-24-12-7-16-28(19-24)17-15-21-13-14-25-26(18-21)30-20-29-25/h1-6,8-11,13-14,18,24,27H,7,12,15-17,19-20H2
Instrument type: ESI-QTOF
Ms type: MS2
Ion mode: POSITIVE
Ionization: ESI
Collision energy: 10
Precursor m/z: 416.2220202511
Precursor type: [M+H]+
m/z	relative intensity
119.085527	13
167.085527	323
416.22202	999
