Mass spectrum: 2-(8-Heptadecenyl)-2-imidazoline-1-ethanol; ESI-QTOF; MS2; CE: 40; [M+H]+
Name: 2-(8-Heptadecenyl)-2-imidazoline-1-ethanol
Formula: C22H42N2O
Exact mass: 350.3297139769
SMILES: CCCCCCCC/C=C/CCCCCCCC1=NCCN1CCO
InChI: InChI=1S/C22H42N2O/c1-2-3-4-5-6-7-8-9-10-11-12-13-14-15-16-17-22-23-18-19-24(22)20-21-25/h9-10,25H,2-8,11-21H2,1H3/b10-9+
Instrument type: ESI-QTOF
Ms type: MS2
Ion mode: POSITIVE
Ionization: ESI
Collision energy: 40
Precursor m/z: 351.3369904286
Precursor type: [M+H]+
m/z	relative intensity
42.033826	10
55.041651	16
70.065126	21
83.060375	65
84.0682	518
85.076025	16
97.076025	188
98.08385	125
111.091675	75
113.070939	18
125.107325	82
128.094414	29
139.122975	11
141.102239	492
142.110065	10
153.138625	17
155.11789	198
167.154275	19
169.13354	11
181.169925	33
183.14919	43
197.16484	50
211.18049	12
251.21179	15
253.22744	21
307.310776	141
333.326426	17
351.33699	999
