Mass spectrum: Corodane; ESI-QTOF; MS2; CE: 20; [M+H]+
Name: Corodane
Name: DTXSID9047463
Formula: C10H14O
Exact mass: 150.1044650689
SMILES: O=C1CC2CC1C1CCCC21
InChI: InChI=1S/C10H14O/c11-10-5-6-4-9(10)8-3-1-2-7(6)8/h6-9H,1-5H2
Instrument type: ESI-QTOF
Ms type: MS2
Ion mode: POSITIVE
Ionization: ESI
Collision energy: 20
Precursor m/z: 151.1117415206
Precursor type: [M+H]+
m/z	relative intensity
45.033491	16
55.054227	14
61.007276	103
62.015101	44
63.994366	284
79.017841	999
79.054227	17
80.025666	11
109.064791	28
123.080441	20
