Mass spectrum: (2S,3S)-3-Methyl-2-(3-oxo-1,2-benzothiazol-2(3H)-yl)pentanoic acid; ESI-QTOF; MS2; CE: 40; [M+H]+
Name: (2S,3S)-3-Methyl-2-(3-oxo-1,2-benzothiazol-2(3H)-yl)pentanoic acid
Name: DTXSID3047261
Formula: C13H15NO3S
Exact mass: 265.0772640828
SMILES: CC(CC)C(C(O)=O)N1SC2C=CC=CC=2C1=O
InChI: InChI=1S/C13H15NO3S/c1-3-8(2)11(13(16)17)14-12(15)9-6-4-5-7-10(9)18-14/h4-8,11H,3H2,1-2H3,(H,16,17)
Instrument type: ESI-QTOF
Ms type: MS2
Ion mode: POSITIVE
Ionization: ESI
Collision energy: 40
Precursor m/z: 266.0845405345
Precursor type: [M+H]+
m/z	relative intensity
39.022927	20
41.038577	999
41.059706	20
43.054227	19
45.033491	46
55.054227	26
59.049141	15
67.054227	21
69.069877	587
73.064791	32
80.049476	12
105.033491	68
109.010647	162
134.005896	90
135.997737	60
137.005562	36
152.016461	911
152.062052	11
164.016461	52
