Mass spectrum: 2',4',5'-Trihydroxybutyrophenone; ESI-QTOF; MS2; CE: 10; [M-H]-
Name: 2',4',5'-Trihydroxybutyrophenone
Name: DTXSID2026232
Formula: C10H12O4
Exact mass: 196.073558872
SMILES: CCCC(=O)C1=CC(O)=C(O)C=C1O
InChI: InChI=1S/C10H12O4/c1-2-3-7(11)6-4-9(13)10(14)5-8(6)12/h4-5,12-14H,2-3H2,1H3
Instrument type: ESI-QTOF
Ms type: MS2
Ion mode: NEGATIVE
Ionization: ESI
Collision energy: 10
Precursor m/z: 195.0662824203
Precursor type: [M-H]-
m/z	relative intensity
95.013853	15
107.013853	16
123.008768	14
124.016593	31
125.024418	107
151.003682	47
152.011507	13
166.027157	25
195.066282	999
