Mass spectrum: Nefiracetam; ESI-QTOF; MS2; CE: 40; [M+H]+
Name: Nefiracetam
Name: DTXSID2020923
Formula: C14H18N2O2
Exact mass: 246.1368278336
SMILES: CC1C=CC=C(C)C=1NC(=O)CN1CCCC1=O
InChI: InChI=1S/C14H18N2O2/c1-10-5-3-6-11(2)14(10)15-12(17)9-16-8-4-7-13(16)18/h3,5-6H,4,7-9H2,1-2H3,(H,15,17)
Instrument type: ESI-QTOF
Ms type: MS2
Ion mode: POSITIVE
Ionization: ESI
Collision energy: 40
Precursor m/z: 247.1441042853
Precursor type: [M+H]+
m/z	relative intensity
41.038577	143
42.033826	12
43.054227	89
68.049476	88
69.033491	443
70.065126	999
70.098831	24
70.110065	14
98.06004	996
98.096426	28
98.117555	13
