Mass spectrum: 4-(3-Methyl-5-oxo-4,5-dihydro-1H-pyrazol-1-yl)benzenesulfonic acid; ESI-QTOF; MS2; CE: 20; [M-H]-
Name: 4-(3-Methyl-5-oxo-4,5-dihydro-1H-pyrazol-1-yl)benzenesulfonic acid
Formula: C10H10N2O4S
Exact mass: 254.036127553
SMILES: CC1CC(=O)N(N=1)C1C=CC(=CC=1)S(O)(=O)=O
InChI: InChI=1S/C10H10N2O4S/c1-7-6-10(13)12(11-7)8-2-4-9(5-3-8)17(14,15)16/h2-5H,6H2,1H3,(H,14,15,16)
Instrument type: ESI-QTOF
Ms type: MS2
Ion mode: NEGATIVE
Ionization: ESI
Collision energy: 20
Precursor m/z: 253.0288511013
Precursor type: [M-H]-
m/z	relative intensity
79.957363	226
118.029837	22
120.045487	11
131.061472	65
132.045487	999
133.040736	18
155.988663	34
170.999562	18
173.072037	411
181.991737	27
184.007387	78
197.986652	68
212.002302	34
225.033936	29
253.028851	357
