Mass spectrum: 4-Chlorophthalic acid; ESI-QTOF; MS2; CE: 10; [M-H]-
Name: 4-Chlorophthalic acid
Name: DTXSID0044442
Formula: C8H5ClO4
Exact mass: 199.9876363587
SMILES: OC(=O)C1=CC=C(Cl)C=C1C(O)=O
InChI: InChI=1S/C8H5ClO4/c9-4-1-2-5(7(10)11)6(3-4)8(12)13/h1-3H,(H,10,11)(H,12,13)
Instrument type: ESI-QTOF
Ms type: MS2
Ion mode: NEGATIVE
Ionization: ESI
Collision energy: 10
Precursor m/z: 198.980359907
Precursor type: [M-H]-
m/z	relative intensity
34.969401	47
111.000701	999
154.990531	737
198.98036	82
