Mass spectrum: 1,3-Benzenedicarboxylic acid, dihydrazide; ESI-QTOF; MS2; CE: 20; [M-H]-
Name: 1,3-Benzenedicarboxylic acid, dihydrazide
Name: DTXSID2038813
Formula: C8H10N4O2
Exact mass: 194.0803755932
SMILES: NNC(=O)C1=CC(=CC=C1)C(=O)NN
InChI: InChI=1S/C8H10N4O2/c9-11-7(13)5-2-1-3-6(4-5)8(14)12-10/h1-4H,9-10H2,(H,11,13)(H,12,14)
Instrument type: ESI-QTOF
Ms type: MS2
Ion mode: NEGATIVE
Ionization: ESI
Collision energy: 20
Precursor m/z: 193.0730991415
Precursor type: [M-H]-
m/z	relative intensity
41.998537	741
42.022347	16
57.009436	751
57.034588	13
65.003288	16
85.008374	10
119.037662	135
134.048561	23
135.056386	999
161.035651	11
193.073099	68
