Mass spectrum: 4-tert-Butylcatechol; ESI-QTOF; MS2; CE: 20; [M-H]-
Name: 4-tert-Butylcatechol
Formula: C10H14O2
Exact mass: 166.0993796912
SMILES: CC(C)(C)C1=CC(O)=C(O)C=C1
InChI: InChI=1S/C10H14O2/c1-10(2,3)7-4-5-8(11)9(12)6-7/h4-6,11-12H,1-3H3
Instrument type: ESI-QTOF
Ms type: MS2
Ion mode: NEGATIVE
Ionization: ESI
Collision energy: 20
Precursor m/z: 165.0921032395
Precursor type: [M-H]-
m/z	relative intensity
149.060803	308
150.068628	248
165.092103	999
