Mass spectrum: FR150011; ESI-QTOF; MS2; CE: 20; [M-H]-
Name: FR150011
Name: DTXSID1048170
Formula: C24H23NO4S
Exact mass: 421.1347789603
SMILES: CC(C)(C)C1=CSC(=N1)C1=CC2C=C(C=CC=2O1)OCC1=CC=CC=C1CC(O)=O
InChI: InChI=1S/C24H23NO4S/c1-24(2,3)21-14-30-23(25-21)20-11-17-10-18(8-9-19(17)29-20)28-13-16-7-5-4-6-15(16)12-22(26)27/h4-11,14H,12-13H2,1-3H3,(H,26,27)
Instrument type: ESI-QTOF
Ms type: MS2
Ion mode: NEGATIVE
Ionization: ESI
Collision energy: 20
Precursor m/z: 420.1275025086
Precursor type: [M-H]-
m/z	relative intensity
272.075073	999
272.141793	36
272.157049	17
273.079527	26
