Mass spectrum: 1-Butylpyridinium; ESI-QTOF; MS2; CE: 10; [M+H]+
Name: 1-Butylpyridinium
Formula: [C9H14N]+
Exact mass: 136.112624454
SMILES: CCCC[N+]1C=CC=CC=1
InChI: InChI=1S/C9H14N/c1-2-3-7-10-8-5-4-6-9-10/h4-6,8-9H,2-3,7H2,1H3/q+1
Instrument type: ESI-QTOF
Ms type: MS2
Ion mode: POSITIVE
Ionization: ESI
Collision energy: 10
Precursor m/z: 137.1199009057
Precursor type: [M+H]+
m/z	relative intensity
41.038577	28
42.046402	10
57.069877	58
58.077702	39
80.049476	197
81.057301	221
136.112076	11
137.119901	999
