Mass spectrum: 1-Benzylquinolinium; ESI-QTOF; MS2; CE: 20; [M+H]+
Name: 1-Benzylquinolinium
Name: DTXSID8044593
Formula: [C16H14N]+
Exact mass: 220.112624454
SMILES: C(C1C=CC=CC=1)[N+]1C=CC=C2C=CC=CC=12
InChI: InChI=1S/C16H14N/c1-2-7-14(8-3-1)13-17-12-6-10-15-9-4-5-11-16(15)17/h1-12H,13H2/q+1
Instrument type: ESI-QTOF
Ms type: MS2
Ion mode: POSITIVE
Ionization: ESI
Collision energy: 20
Precursor m/z: 221.1199009057
Precursor type: [M+H]+
m/z	relative intensity
65.038577	13
91.054227	999
92.062052	685
221.119901	40
