Mass spectrum: 2,2,6,6-Tetramethyl-4-piperidone; ESI-QTOF; MS2; CE: 40; [M+H]+
Name: 2,2,6,6-Tetramethyl-4-piperidone
Formula: C9H17NO
Exact mass: 155.131014172
SMILES: CC1(C)CC(=O)CC(C)(C)N1
InChI: InChI=1S/C9H17NO/c1-8(2)5-7(11)6-9(3,4)10-8/h10H,5-6H2,1-4H3
Instrument type: ESI-QTOF
Ms type: MS2
Ion mode: POSITIVE
Ionization: ESI
Collision energy: 40
Precursor m/z: 156.1382906237
Precursor type: [M+H]+
m/z	relative intensity
39.022927	11
41.038577	76
42.033826	17
43.041651	47
55.054227	39
58.065126	999
61.007276	27
62.015101	14
63.994366	240
79.017841	53
