Mass spectrum: N-Methyloctan-1-amine; ESI-QTOF; MS2; CE: 40; [M+H]+
Name: N-Methyloctan-1-amine
Name: DTXSID9044619
Formula: C9H21N
Exact mass: 143.1673996773
SMILES: CCCCCCCCNC
InChI: InChI=1S/C9H21N/c1-3-4-5-6-7-8-9-10-2/h10H,3-9H2,1-2H3
Instrument type: ESI-QTOF
Ms type: MS2
Ion mode: POSITIVE
Ionization: ESI
Collision energy: 40
Precursor m/z: 144.174676129
Precursor type: [M+H]+
m/z	relative intensity
32.049476	34
39.022927	184
41.038577	999
43.054227	629
55.054227	44
57.069877	82
