Mass spectrum: Auramine; ESI-QTOF; MS2; CE: 40; [M+H]+
Name: Auramine
Name: DTXSID9020114
Formula: C17H21N3
Exact mass: 267.1735476921
SMILES: CN(C)C1C=CC(=CC=1)C(=N)C1C=CC(=CC=1)N(C)C
InChI: InChI=1S/C17H21N3/c1-19(2)15-9-5-13(6-10-15)17(18)14-7-11-16(12-8-14)20(3)4/h5-12,18H,1-4H3
Instrument type: ESI-QTOF
Ms type: MS2
Ion mode: POSITIVE
Ionization: ESI
Collision energy: 40
Precursor m/z: 268.1808241438
Precursor type: [M+H]+
m/z	relative intensity
42.033826	86
44.049476	14
77.038577	52
79.054227	54
91.054227	35
93.069877	14
103.054227	13
104.049476	35
105.057301	54
106.065126	42
107.072951	221
118.065126	14
120.080776	97
122.096426	145
131.060375	161
132.0682	93
145.076025	81
146.08385	26
147.091675	999
224.1308	28
252.149524	411
268.180824	29
