Mass spectrum: Todralazine; ESI-QTOF; MS2; CE: 10; [M-H]-
Name: Todralazine
Name: DTXSID4044664
Formula: C11H12N4O2
Exact mass: 232.096025657
SMILES: CCOC(=O)NNC1=NN=CC2=CC=CC=C21
InChI: InChI=1S/C11H12N4O2/c1-2-17-11(16)15-14-10-9-6-4-3-5-8(9)7-12-13-10/h3-7H,2H2,1H3,(H,13,14)(H,15,16)
Instrument type: ESI-QTOF
Ms type: MS2
Ion mode: NEGATIVE
Ionization: ESI
Collision energy: 10
Precursor m/z: 231.0887492053
Precursor type: [M-H]-
m/z	relative intensity
41.998537	34
102.034923	53
114.034923	49
142.041071	25
157.040736	36
185.046884	999
185.095846	14
231.088749	28
