Mass spectrum: SSR146977; ESI-QTOF; MS2; CE: 40; [M+H]+
Name: SSR146977
Name: DTXSID8047341
Formula: C35H42Cl2N4O2
Exact mass: 620.268482034
SMILES: CN(C)C(=O)NC1(CCN(CCCC2(CN(CCC2)C(=O)C2C=CC=CC=2)C2C=C(Cl)C(Cl)=CC=2)CC1)C1C=CC=CC=1
InChI: InChI=1S/C35H42Cl2N4O2/c1-39(2)33(43)38-35(28-13-7-4-8-14-28)19-23-40(24-20-35)21-9-17-34(29-15-16-30(36)31(37)25-29)18-10-22-41(26-34)32(42)27-11-5-3-6-12-27/h3-8,11-16,25H,9-10,17-24,26H2,1-2H3,(H,38,43)
Instrument type: ESI-QTOF
Ms type: MS2
Ion mode: POSITIVE
Ionization: ESI
Collision energy: 40
Precursor m/z: 621.2757584857
Precursor type: [M+H]+
m/z	relative intensity
44.049476	10
77.038577	15
89.070939	10
105.033491	285
162.09134	81
174.127726	19
241.041956	38
268.065431	453
344.096731	11
372.091646	14
374.107296	33
403.135551	999
403.212853	24
403.242027	13
533.212096	535
533.303679	10
576.217909	92
