Mass spectrum: 3-Methyl-5-pyrazolone; ESI-QTOF; MS2; CE: 20; [M+H]+
Name: 3-Methyl-5-pyrazolone
Formula: C4H6N2O
Exact mass: 98.0480128285
SMILES: CC1CC(=O)N=N1
InChI: InChI=1S/C4H6N2O/c1-3-2-4(7)6-5-3/h3H,2H2,1H3
Instrument type: ESI-QTOF
Ms type: MS2
Ion mode: POSITIVE
Ionization: ESI
Collision energy: 20
Precursor m/z: 99.0552892802
Precursor type: [M+H]+
m/z	relative intensity
30.033826	11
41.026001	22
41.038577	42
42.033826	77
44.01309	116
44.049476	134
54.033826	274
55.017841	74
56.049476	303
57.044725	24
58.02874	127
58.041316	10
69.033491	172
71.060375	86
82.02874	293
99.055289	999
