Mass spectrum: 4-(N-Methyl-N-nitrosamino)-1-(3-pyridyl)-1-butanone; ESI-QTOF; MS2; CE: 40; [M+H]+
Name: 4-(N-Methyl-N-nitrosamino)-1-(3-pyridyl)-1-butanone
Name: DTXSID3020881
Formula: C10H13N3O2
Exact mass: 207.1007766815
SMILES: CN(CCCC(=O)C1C=NC=CC=1)N=O
InChI: InChI=1S/C10H13N3O2/c1-13(12-15)7-3-5-10(14)9-4-2-6-11-8-9/h2,4,6,8H,3,5,7H2,1H3
Instrument type: ESI-QTOF
Ms type: MS2
Ion mode: POSITIVE
Ionization: ESI
Collision energy: 40
Precursor m/z: 208.1080531332
Precursor type: [M+H]+
m/z	relative intensity
44.049476	41
51.022927	24
52.030752	59
53.038577	25
55.016498	11
56.049476	32
57.057301	62
72.080776	12
77.038577	20
78.033826	207
79.041651	999
79.074013	27
79.086589	12
80.049476	335
93.057301	49
100.07569	19
106.02874	52
106.065126	330
107.060375	19
107.072951	27
116.049476	10
117.057301	13
118.065126	13
121.076025	12
122.06004	294
133.076025	11
134.06004	244
134.092403	13
149.107325	87
