Mass spectrum: Octylphosphonic acid; ESI-QTOF; MS2; CE: 40; [M-H]-
Name: Octylphosphonic acid
Name: DTXSID3044679
Formula: C8H19O3P
Exact mass: 194.107180963
SMILES: CCCCCCCCP(O)(O)=O
InChI: InChI=1S/C8H19O3P/c1-2-3-4-5-6-7-8-12(9,10)11/h2-8H2,1H3,(H2,9,10,11)
Instrument type: ESI-QTOF
Ms type: MS2
Ion mode: NEGATIVE
Ionization: ESI
Collision energy: 40
Precursor m/z: 193.0999045113
Precursor type: [M-H]-
m/z	relative intensity
62.964139	68
78.959054	999
78.995439	18
79.966879	93
93.982529	19
