Mass spectrum: 6-Ethoxy-2,3,4-trimethyl-1,2,3,4-tetrahydroquinoline; ESI-QTOF; MS2; CE: 40; [M+H]+
Name: 6-Ethoxy-2,3,4-trimethyl-1,2,3,4-tetrahydroquinoline
Name: DTXSID6042365
Formula: C14H21NO
Exact mass: 219.1623142996
SMILES: CCOC1C=C2C(C)CC(C)(C)NC2=CC=1
InChI: InChI=1S/C14H21NO/c1-5-16-11-6-7-13-12(8-11)10(2)9-14(3,4)15-13/h6-8,10,15H,5,9H2,1-4H3
Instrument type: ESI-QTOF
Ms type: MS2
Ion mode: POSITIVE
Ionization: ESI
Collision energy: 40
Precursor m/z: 220.1695907513
Precursor type: [M+H]+
m/z	relative intensity
41.038577	12
42.033826	26
55.017841	11
65.038577	95
67.054227	25
77.038577	105
79.054227	43
80.049476	43
80.062052	18
81.057301	15
81.069877	67
91.054227	999
92.049476	54
93.057301	381
94.041316	16
94.065126	43
103.054227	43
106.065126	195
107.049141	24
107.072951	228
108.04439	32
108.080776	351
109.052215	29
109.064791	26
110.06004	14
116.049476	26
117.057301	130
118.065126	317
119.049141	121
119.072951	129
120.080776	38
122.06004	52
134.06004	128
135.067865	543
135.116827	15
136.07569	597
164.10699	137
