Mass spectrum: CP-114271; ESI-QTOF; MS2; CE: 20; [M+H]+
Name: CP-114271
Formula: C17H19F3N2O4S
Exact mass: 404.1017624401
SMILES: CC(CC1C=CC(=CC=1)OCC(O)=O)NCC(O)C1=CSC(=N1)C(F)(F)F
InChI: InChI=1S/C17H19F3N2O4S/c1-10(6-11-2-4-12(5-3-11)26-8-15(24)25)21-7-14(23)13-9-27-16(22-13)17(18,19)20/h2-5,9-10,14,21,23H,6-8H2,1H3,(H,24,25)
Instrument type: ESI-QTOF
Ms type: MS2
Ion mode: POSITIVE
Ionization: ESI
Collision energy: 20
Precursor m/z: 405.1090388918
Precursor type: [M+H]+
m/z	relative intensity
91.054227	18
107.049141	12
119.085527	17
147.080441	140
165.054404	100
193.085704	999
193.138705	54
193.151081	31
195.018904	11
387.098474	10
405.109039	294
