Mass spectrum: 2-Methylbenzenesulfonic acid; ESI-QTOF; MS2; CE: 40; [M-H]-
Name: 2-Methylbenzenesulfonic acid
Name: DTXSID2044553
Formula: C7H8O3S
Exact mass: 172.0194148521
SMILES: CC1=CC=CC=C1S(O)(=O)=O
InChI: InChI=1S/C7H8O3S/c1-6-4-2-3-5-7(6)11(8,9)10/h2-5H,1H3,(H,8,9,10)
Instrument type: ESI-QTOF
Ms type: MS2
Ion mode: NEGATIVE
Ionization: ESI
Collision energy: 40
Precursor m/z: 171.0121384004
Precursor type: [M-H]-
m/z	relative intensity
79.957363	999
79.990378	58
80.026763	11
107.050238	19
