Mass spectrum: Methyl red; ESI-QTOF; MS2; CE: 10; [M+H]+
Name: Methyl red
Name: DTXSID1042154
Formula: C15H15N3O2
Exact mass: 269.1164267453
SMILES: CN(C)C1C=CC(=CC=1)/N=N/C1=CC=CC=C1C(O)=O
InChI: InChI=1S/C15H15N3O2/c1-18(2)12-9-7-11(8-10-12)16-17-14-6-4-3-5-13(14)15(19)20/h3-10H,1-2H3,(H,19,20)/b17-16+
Instrument type: ESI-QTOF
Ms type: MS2
Ion mode: POSITIVE
Ionization: ESI
Collision energy: 10
Precursor m/z: 270.123703197
Precursor type: [M+H]+
m/z	relative intensity
148.07569	17
153.069877	28
181.088601	25
196.112076	37
209.083515	42
224.10699	34
252.113139	656
270.123703	999
