Mass spectrum: C.I. Direct Black 38; ESI-QTOF; MS2; CE: 40; [M+H]+
Name: C.I. Direct Black 38
Name: DTXSID7020184
Formula: C34H27N9O7S2
Exact mass: 737.147485744
SMILES: NC1=CC(N)=C(C=C1)/N=N/C1C=CC(=CC=1)C1C=CC(=CC=1)/N=N/C1=C(C=C2C=C(C(/N=N/C3C=CC=CC=3)=C(O)C2=C1N)S(O)(=O)=O)S(O)(=O)=O
InChI: InChI=1S/C34H27N9O7S2/c35-22-10-15-27(26(36)18-22)41-38-24-11-6-19(7-12-24)20-8-13-25(14-9-20)40-42-32-28(51(45,46)47)16-21-17-29(52(48,49)50)33(34(44)30(21)31(32)37)43-39-23-4-2-1-3-5-23/h1-18,44H,35-37H2,(H,45,46,47)(H,48,49,50)/b41-38+,42-40+,43-39+
Instrument type: ESI-QTOF
Ms type: MS2
Ion mode: POSITIVE
Ionization: ESI
Collision energy: 40
Precursor m/z: 738.1547621957
Precursor type: [M+H]+
m/z	relative intensity
80.049476	11
93.057301	62
107.060375	256
121.063449	46
122.071274	17
135.066523	82
152.0614	26
168.080124	37
183.091675	17
184.07569	10
274.133874	83
287.129123	25
288.136296	136
302.13937	69
303.147195	64
416.069953	15
443.068276	10
444.076101	13
455.161486	11
484.176801	12
485.181946	13
498.042418	27
502.096837	11
520.108092	41
525.04005	11
526.048566	15
535.118991	15
536.126125	64
564.132273	66
565.139408	96
602.081203	10
618.09859	49
646.104047	38
656.182298	24
658.197948	36
674.192862	21
738.154762	999
