Mass spectrum: 3-Methoxypropylamine; ESI-QTOF; MS2; CE: 40; [M+H]+
Name: 3-Methoxypropylamine
Name: DTXSID7027596
Formula: C4H11NO
Exact mass: 89.0840639806
SMILES: COCCCN
InChI: InChI=1S/C4H11NO/c1-6-4-2-3-5/h2-5H2,1H3
Instrument type: ESI-QTOF
Ms type: MS2
Ion mode: POSITIVE
Ionization: ESI
Collision energy: 40
Precursor m/z: 90.0913404323
Precursor type: [M+H]+
m/z	relative intensity
30.033826	120
39.022927	410
41.038577	280
42.033826	508
43.017841	70
43.041651	253
44.049476	20
45.033491	999
45.057301	39
58.065126	92
