Mass spectrum: N-Butylphosphorothioic triamide; ESI-QTOF; MS2; CE: 40; [M-H]-
Name: N-Butylphosphorothioic triamide
Formula: C4H14N3PS
Exact mass: 167.0646046888
SMILES: CCCCNP(N)(N)=S
InChI: InChI=1S/C4H14N3PS/c1-2-3-4-7-8(5,6)9/h2-4H2,1H3,(H5,5,6,7,9)
Instrument type: ESI-QTOF
Ms type: MS2
Ion mode: NEGATIVE
Ionization: ESI
Collision energy: 40
Precursor m/z: 166.0573282371
Precursor type: [M-H]-
m/z	relative intensity
32.980444	16
46.983518	10
47.991343	24
58.980458	219
59.988283	63
60.996108	999
61.02126	15
76.007007	371
76.949455	16
77.95728	103
92.968179	183
