Mass spectrum: CI-959; ESI-QTOF; MS2; CE: 20; [M+H]+
Name: CI-959
Formula: C14H15N5O3S
Exact mass: 333.0895601124
SMILES: COC1=CC2C(OC(C)C)=C(SC=2C=C1)C(=O)NC1NN=NN=1
InChI: InChI=1S/C14H15N5O3S/c1-7(2)22-11-9-6-8(21-3)4-5-10(9)23-12(11)13(20)15-14-16-18-19-17-14/h4-7H,1-3H3,(H2,15,16,17,18,19,20)
Instrument type: ESI-QTOF
Ms type: MS2
Ion mode: POSITIVE
Ionization: ESI
Collision energy: 20
Precursor m/z: 334.0968365641
Precursor type: [M+H]+
m/z	relative intensity
86.046122	139
112.025386	49
128.094414	13
139.021212	43
151.021212	10
179.016127	131
181.030434	44
193.068162	21
207.011041	999
207.066523	18
221.063077	28
292.049886	29
