Mass spectrum: N-(3-Chloro-4-methylphenyl)acetamide; ESI-QTOF; MS2; CE: 10; [M+H]+
Name: N-(3-Chloro-4-methylphenyl)acetamide
Name: DTXSID8042181
Formula: C9H10ClNO
Exact mass: 183.0450916587
SMILES: CC1C=CC(=CC=1Cl)NC(C)=O
InChI: InChI=1S/C9H10ClNO/c1-6-3-4-8(5-9(6)10)11-7(2)12/h3-5H,1-2H3,(H,11,12)
Instrument type: ESI-QTOF
Ms type: MS2
Ion mode: POSITIVE
Ionization: ESI
Collision energy: 10
Precursor m/z: 184.0523681104
Precursor type: [M+H]+
m/z	relative intensity
107.072951	120
142.041803	603
184.052368	999
