Mass spectrum: SR271425; ESI-QTOF; MS2; CE: 20; [M-H]-
Name: SR271425
Name: DTXSID8047347
Formula: C22H27N3O3S
Exact mass: 413.1773124804
SMILES: COC1C=CC2SC3C(=C(C=CC=3CNC=O)NCCN(CC)CC)C(=O)C=2C=1
InChI: InChI=1S/C22H27N3O3S/c1-4-25(5-2)11-10-24-18-8-6-15(13-23-14-26)22-20(18)21(27)17-12-16(28-3)7-9-19(17)29-22/h6-9,12,14,24H,4-5,10-11,13H2,1-3H3,(H,23,26)
Instrument type: ESI-QTOF
Ms type: MS2
Ion mode: NEGATIVE
Ionization: ESI
Collision energy: 20
Precursor m/z: 412.1700360287
Precursor type: [M-H]-
m/z	relative intensity
41.998537	999
42.022347	19
42.034923	13
44.014187	201
50.991009	12
72.045487	36
244.137673	12
255.048524	21
264.054041	20
269.051598	20
278.064508	24
283.063877	11
354.129514	10
355.112187	19
355.148572	94
364.166665	17
369.164222	29
397.146561	30
412.170036	57
