Mass spectrum: Butane-1-sulfonyl chloride; ESI-QTOF; MS2; CE: 40; [M+H]+
Name: Butane-1-sulfonyl chloride
Name: DTXSID3044883
Formula: C4H9ClO2S
Exact mass: 156.0011779717
SMILES: CCCCS(=O)(=O)Cl
InChI: InChI=1S/C4H9ClO2S/c1-2-3-4-8(5,6)7/h2-4H2,1H3
Instrument type: ESI-QTOF
Ms type: MS2
Ion mode: POSITIVE
Ionization: ESI
Collision energy: 40
Precursor m/z: 157.0084544234
Precursor type: [M+H]+
m/z	relative intensity
44.979347	11
45.987172	28
46.994997	254
48.974262	40
61.010647	120
62.018472	61
62.989912	42
63.997737	999
64.051881	10
79.021212	251
