Mass spectrum: Azacyclotridecan-2-one; ESI-QTOF; MS2; CE: 40; [M+H]+
Name: Azacyclotridecan-2-one
Formula: C12H23NO
Exact mass: 197.1779643634
SMILES: O=C1CCCCCCCCCCCN1
InChI: InChI=1S/C12H23NO/c14-12-10-8-6-4-2-1-3-5-7-9-11-13-12/h1-11H2,(H,13,14)
Instrument type: ESI-QTOF
Ms type: MS2
Ion mode: POSITIVE
Ionization: ESI
Collision energy: 40
Precursor m/z: 198.1852408151
Precursor type: [M+H]+
m/z	relative intensity
29.038577	17
39.022927	42
41.038577	645
42.033826	14
43.017841	21
43.054227	648
44.01309	328
44.049476	10
53.038577	28
54.033826	13
55.017841	100
55.054227	999
55.099165	14
57.033491	13
57.069877	201
58.065126	13
67.054227	80
69.069877	178
70.065126	12
72.04439	27
72.080776	11
77.038577	41
79.054227	67
80.049476	10
81.069877	26
82.065126	32
83.085527	13
86.06004	11
86.096426	10
91.054227	32
93.069877	15
95.085527	10
