Mass spectrum: SSR180711; ESI-QTOF; MS2; CE: 20; [M+H]+
Name: SSR180711
Name: DTXSID2047359
Formula: C14H17BrN2O2
Exact mass: 324.0473407017
SMILES: O=C(OC1C=CC(Br)=CC=1)N1CCN2CCC1CC2
InChI: InChI=1S/C14H17BrN2O2/c15-11-1-3-13(4-2-11)19-14(18)17-10-9-16-7-5-12(17)6-8-16/h1-4,12H,5-10H2
Instrument type: ESI-QTOF
Ms type: MS2
Ion mode: POSITIVE
Ionization: ESI
Collision energy: 20
Precursor m/z: 325.0546171534
Precursor type: [M+H]+
m/z	relative intensity
56.049476	16
82.065126	31
84.080776	185
297.023317	35
325.054617	999
