Mass spectrum: 3-Hydroxypyridine-2-methanol; ESI-QTOF; MS2; CE: 20; [M-H]-
Name: 3-Hydroxypyridine-2-methanol
Name: DTXSID90161811
Formula: C6H7NO2
Exact mass: 125.0476784753
SMILES: OC1C=CC=NC=1CO
InChI: InChI=1S/C6H7NO2/c8-4-5-6(9)2-1-3-7-5/h1-3,8-9H,4H2
Instrument type: ESI-QTOF
Ms type: MS2
Ion mode: NEGATIVE
Ionization: ESI
Collision energy: 20
Precursor m/z: 124.0404020236
Precursor type: [M-H]-
m/z	relative intensity
40.019273	10
41.003288	10
43.018938	10
51.024024	22
52.019273	12
66.034923	170
78.034923	128
81.022012	12
94.029837	999
106.029837	15
122.024752	282
124.040402	41
