Mass spectrum: Besonprodil; ESI-QTOF; MS2; CE: 10; [M+H]+
Name: Besonprodil
Name: DTXSID2047270
Formula: C21H23FN2O3S
Exact mass: 402.1413415454
SMILES: O=C1NC2=CC=C(C=C2O1)S(=O)CCN1CCC(CC2C=CC(F)=CC=2)CC1
InChI: InChI=1S/C21H23FN2O3S/c22-17-3-1-15(2-4-17)13-16-7-9-24(10-8-16)11-12-28(26)18-5-6-19-20(14-18)27-21(25)23-19/h1-6,14,16H,7-13H2,(H,23,25)
Instrument type: ESI-QTOF
Ms type: MS2
Ion mode: POSITIVE
Ionization: ESI
Collision energy: 10
Precursor m/z: 403.1486179971
Precursor type: [M+H]+
m/z	relative intensity
193.125677	24
206.133502	30
220.149152	217
403.148618	999
