Mass spectrum: CP-100829; ESI-QTOF; MS2; CE: 10; [M-H]-
Name: CP-100829
Name: DTXSID7047304
Formula: C14H7Cl2FN2O3S
Exact mass: 371.953846455
SMILES: NC(=O)N1C2C=C(Cl)C(F)=CC=2C(C(=O)C2=CC(Cl)=CS2)C1=O
InChI: InChI=1S/C14H7Cl2FN2O3S/c15-5-1-10(23-4-5)12(20)11-6-2-8(17)7(16)3-9(6)19(13(11)21)14(18)22/h1-4,11H,(H2,18,22)
Instrument type: ESI-QTOF
Ms type: MS2
Ion mode: NEGATIVE
Ionization: ESI
Collision energy: 10
Precursor m/z: 370.9465700033
Precursor type: [M-H]-
m/z	relative intensity
209.976358	18
327.940756	999
328.948581	12
370.94657	110
