Mass spectrum: N,N-dimethylpyridin-4-amine; ESI-QTOF; MS2; CE: 20; [M+H]+
Name: N,N-dimethylpyridin-4-amine
Formula: C7H10N2
Exact mass: 122.0843983338
SMILES: CN(C)C1C=CN=CC=1
InChI: InChI=1S/C7H10N2/c1-9(2)7-3-5-8-6-4-7/h3-6H,1-2H3
Instrument type: ESI-QTOF
Ms type: MS2
Ion mode: POSITIVE
Ionization: ESI
Collision energy: 20
Precursor m/z: 123.0916747855
Precursor type: [M+H]+
m/z	relative intensity
79.041651	125
80.049476	103
107.060375	302
108.0682	148
123.091675	999
