Mass spectrum: 2-Nitroaniline; ESI-QTOF; MS2; CE: 10; [M-H]-
Name: 2-Nitroaniline
Formula: C6H6N2O2
Exact mass: 138.0429274508
SMILES: NC1=CC=CC=C1[N+]([O-])=O
InChI: InChI=1S/C6H6N2O2/c7-5-3-1-2-4-6(5)8(9)10/h1-4H,7H2
Instrument type: ESI-QTOF
Ms type: MS2
Ion mode: NEGATIVE
Ionization: ESI
Collision energy: 10
Precursor m/z: 137.0356509991
Precursor type: [M-H]-
m/z	relative intensity
41.998537	15
45.993452	163
50.003623	14
65.998537	18
91.030172	25
107.037662	171
137.035651	999
