Mass spectrum: 2-(Dimethylamino)ethyl methacrylate; ESI-QTOF; MS2; CE: 10; [M+H]+
Name: 2-(Dimethylamino)ethyl methacrylate
Name: DTXSID1027504
Formula: C8H15NO2
Exact mass: 157.1102787305
SMILES: CC(=C)C(=O)OCCN(C)C
InChI: InChI=1S/C8H15NO2/c1-7(2)8(10)11-6-5-9(3)4/h1,5-6H2,2-4H3
Instrument type: ESI-QTOF
Ms type: MS2
Ion mode: POSITIVE
Ionization: ESI
Collision energy: 10
Precursor m/z: 158.1175551822
Precursor type: [M+H]+
m/z	relative intensity
58.065126	18
61.007276	23
62.015101	11
63.994366	67
65.002191	13
79.017841	999
79.054227	23
80.025666	783
80.062052	18
81.020915	33
