Mass spectrum: 2,5-Dithiobiurea; ESI-QTOF; MS2; CE: 40; [M-H]-
Name: 2,5-Dithiobiurea
Name: DTXSID8020545
Formula: C2H6N4S2
Exact mass: 150.003387681
SMILES: NC(=S)NNC(N)=S
InChI: InChI=1S/C2H6N4S2/c3-1(7)5-6-2(4)8/h(H3,3,5,7)(H3,4,6,8)
Instrument type: ESI-QTOF
Ms type: MS2
Ion mode: NEGATIVE
Ionization: ESI
Collision energy: 40
Precursor m/z: 148.9961112293
Precursor type: [M-H]-
m/z	relative intensity
32.980444	50
40.006697	193
41.014522	745
45.975693	27
56.025421	49
57.975693	999
64.952515	15
72.986592	156
75.002242	88
90.013141	12
