Mass spectrum: Diisopropanolamine; ESI-QTOF; MS2; CE: 10; [M+H]+
Name: Diisopropanolamine
Formula: C6H15NO2
Exact mass: 133.1102787305
SMILES: CC(O)CNCC(C)O
InChI: InChI=1S/C6H15NO2/c1-5(8)3-7-4-6(2)9/h5-9H,3-4H2,1-2H3
Instrument type: ESI-QTOF
Ms type: MS2
Ion mode: POSITIVE
Ionization: ESI
Collision energy: 10
Precursor m/z: 134.1175551822
Precursor type: [M+H]+
m/z	relative intensity
41.038577	116
42.033826	20
43.054227	46
56.049476	54
58.065126	86
59.049141	50
70.065126	50
81.069877	19
98.096426	999
99.104251	65
116.10699	341
117.114816	22
134.117555	818
