Mass spectrum: Pirinixic acid; ESI-QTOF; MS2; CE: 40; [M+H]+
Name: Pirinixic acid
Name: DTXSID4020290
Formula: C14H14ClN3O2S
Exact mass: 323.0495251534
SMILES: CC1C(=CC=CC=1C)NC1C=C(Cl)N=C(N=1)SCC(O)=O
InChI: InChI=1S/C14H14ClN3O2S/c1-8-4-3-5-10(9(8)2)16-12-6-11(15)17-14(18-12)21-7-13(19)20/h3-6H,7H2,1-2H3,(H,19,20)(H,16,17,18)
Instrument type: ESI-QTOF
Ms type: MS2
Ion mode: POSITIVE
Ionization: ESI
Collision energy: 40
Precursor m/z: 324.0568016051
Precursor type: [M+H]+
m/z	relative intensity
71.990246	161
75.994366	92
77.038577	89
79.029075	10
79.054227	198
91.054227	24
93.069877	15
103.054227	94
105.069877	770
107.085527	16
115.005265	17
115.054227	31
117.069877	20
119.072951	11
119.085527	10
128.062052	18
129.069877	64
130.065126	72
131.081504	12
132.080776	23
134.096426	99
142.065126	48
143.072951	36
144.080776	201
145.088601	20
154.064474	31
155.058182	10
155.072951	28
156.080776	201
157.088601	67
158.096426	121
159.091675	10
167.068928	12
168.0682	59
169.076025	102
170.08385	24
171.091675	38
178.041316	24
181.073832	20
182.08385	25
183.091675	467
184.0995	48
185.107325	12
188.024324	13
188.052846	34
189.021402	20
189.048095	45
190.041316	33
192.055624	84
196.086924	53
198.102574	13
200.04027	19
203.036565	50
204.04439	87
207.068353	10
208.086924	25
212.026153	27
213.046554	30
214.054379	11
215.062205	160
217.052702	20
218.060527	10
219.068353	999
226.041803	20
227.051169	29
229.06682	36
230.047951	18
232.063602	19
242.074645	282
249.024773	43
262.020022	25
263.027847	18
278.051322	73
