Mass spectrum: 2,6-Diisopropylaniline; ESI-QTOF; MS2; CE: 40; [M+H]+
Name: 2,6-Diisopropylaniline
Name: DTXSID5022279
Formula: C12H19N
Exact mass: 177.1517496135
SMILES: CC(C)C1=CC=CC(C(C)C)=C1N
InChI: InChI=1S/C12H19N/c1-8(2)10-6-5-7-11(9(3)4)12(10)13/h5-9H,13H2,1-4H3
Instrument type: ESI-QTOF
Ms type: MS2
Ion mode: POSITIVE
Ionization: ESI
Collision energy: 40
Precursor m/z: 178.1590260652
Precursor type: [M+H]+
m/z	relative intensity
39.022927	39
41.038577	538
42.033826	10
43.054227	503
51.022927	18
55.054227	45
65.038577	138
77.038577	283
78.046402	12
79.054227	105
91.054227	999
93.057301	37
93.069877	39
94.065126	121
103.054227	145
104.062052	15
105.069877	216
106.065126	77
115.054227	121
116.062052	29
117.057301	28
117.069877	356
118.065126	34
118.077702	62
119.072951	55
120.080776	109
129.069877	24
130.065126	11
131.085527	22
132.080776	59
133.088601	12
133.101177	102
134.096426	18
146.096426	36
147.104251	12
148.112076	20
