Mass spectrum: tert-Butyl 4-hydroxybenzoate; ESI-QTOF; MS2; CE: 40; [M-H]-
Name: tert-Butyl 4-hydroxybenzoate
Name: DTXSID7044895
Formula: C11H14O3
Exact mass: 194.0942943135
SMILES: CC(C)(C)OC(=O)C1C=CC(O)=CC=1
InChI: InChI=1S/C11H14O3/c1-11(2,3)14-10(13)8-4-6-9(12)7-5-8/h4-7,12H,1-3H3
Instrument type: ESI-QTOF
Ms type: MS2
Ion mode: NEGATIVE
Ionization: ESI
Collision energy: 40
Precursor m/z: 193.0870178618
Precursor type: [M-H]-
m/z	relative intensity
41.003288	10
57.034588	43
65.039674	68
92.026763	653
92.063149	14
93.034588	999
93.070974	25
