Mass spectrum: PharmaGSID_48519; ESI-QTOF; MS2; CE: 40; [M-H]-
Name: PharmaGSID_48519
Name: DTXSID4048519
Formula: C22H20BrN5O4
Exact mass: 497.0698670642
SMILES: CN1C(=O)N(CC2=CN=C(NC3=CC4OCC(CO)OC=4C=C3)N=C12)C1=CC=CC=C1Br
InChI: InChI=1S/C22H20BrN5O4/c1-27-20-13(10-28(22(27)30)17-5-3-2-4-16(17)23)9-24-21(26-20)25-14-6-7-18-19(8-14)31-12-15(11-29)32-18/h2-9,15,29H,10-12H2,1H3,(H,24,25,26)
Instrument type: ESI-QTOF
Ms type: MS2
Ion mode: NEGATIVE
Ionization: ESI
Collision energy: 40
Precursor m/z: 496.0625906125
Precursor type: [M-H]-
m/z	relative intensity
55.030172	66
66.009771	23
106.038391	11
158.072371	12
159.066282	10
171.06494	14
185.081932	103
186.068628	19
187.051301	20
197.08327	17
198.063263	16
212.071702	12
213.054375	14
213.078185	201
214.0622	31
214.078799	12
226.08601	21
241.015584	11
241.036714	35
241.073099	999
241.131957	13
243.088749	33
269.104399	25
299.091155	10
299.114964	170
