Mass spectrum: 1-(2-Aminoethyl)piperazine; ESI-QTOF; MS2; CE: 20; [M+H]+
Name: 1-(2-Aminoethyl)piperazine
Name: DTXSID2021997
Formula: C6H15N3
Exact mass: 129.1265975007
SMILES: NCCN1CCNCC1
InChI: InChI=1S/C6H15N3/c7-1-4-9-5-2-8-3-6-9/h8H,1-7H2
Instrument type: ESI-QTOF
Ms type: MS2
Ion mode: POSITIVE
Ionization: ESI
Collision energy: 20
Precursor m/z: 130.1338739524
Precursor type: [M+H]+
m/z	relative intensity
41.038577	19
42.033826	70
43.054227	42
44.049476	315
56.049476	432
58.065126	170
68.049476	16
70.065126	273
72.080776	14
84.0682	117
84.080776	431
87.091675	101
98.08385	28
113.107325	999
130.133874	21
