Mass spectrum: 2-Amino-5-(5-nitro-2-furyl)-1,3,4-oxadiazole; ESI-QTOF; MS2; CE: 40; [M-H]-
Name: 2-Amino-5-(5-nitro-2-furyl)-1,3,4-oxadiazole
Name: DTXSID2020058
Formula: C6H4N4O4
Exact mass: 196.0232546464
SMILES: NC1=NN=C(O1)C1=CC=C(O1)[N+]([O-])=O
InChI: InChI=1S/C6H4N4O4/c7-6-9-8-5(14-6)3-1-2-4(13-3)10(11)12/h1-2H,(H2,7,9)
Instrument type: ESI-QTOF
Ms type: MS2
Ion mode: NEGATIVE
Ionization: ESI
Collision energy: 40
Precursor m/z: 195.0159781947
Precursor type: [M-H]-
m/z	relative intensity
37.008374	13
40.006697	33
41.003288	24
41.014522	149
41.998537	999
42.022347	20
45.993452	944
46.017261	19
49.008374	401
50.003623	81
50.016199	27
51.011448	23
52.019273	23
53.003288	12
55.017596	25
63.011448	16
64.019273	146
65.003288	206
65.027098	12
65.998537	32
77.003288	127
82.004685	24
89.998537	25
92.014187	22
