Mass spectrum: Thiamine thiozole; ESI-QTOF; MS2; CE: 10; [M+H]+
Name: Thiamine thiozole
Name: DTXSID3044382
Formula: C6H9NOS
Exact mass: 143.0404846468
SMILES: CC1N=CSC=1CCO
InChI: InChI=1S/C6H9NOS/c1-5-6(2-3-8)9-4-7-5/h4,8H,2-3H2,1H3
Instrument type: ESI-QTOF
Ms type: MS2
Ion mode: POSITIVE
Ionization: ESI
Collision energy: 10
Precursor m/z: 144.0477610985
Precursor type: [M+H]+
m/z	relative intensity
112.021546	10
113.029371	119
126.037196	72
144.047761	999
