Mass spectrum: Methyl glyoxal; ESI-QTOF; MS2; CE: 20; [M+H]+
Name: Methyl glyoxal
Formula: C3H4O2
Exact mass: 72.0211293722
SMILES: CC(=O)C=O
InChI: InChI=1S/C3H4O2/c1-3(5)2-4/h2H,1H3
Instrument type: ESI-QTOF
Ms type: MS2
Ion mode: POSITIVE
Ionization: ESI
Collision energy: 20
Precursor m/z: 73.0284058239
Precursor type: [M+H]+
m/z	relative intensity
29.038577	69
31.017841	136
39.022927	187
41.038577	192
43.017841	999
45.033491	896
57.033491	113
