Mass spectrum: 2-[4-(Diethylamino)-2-hydroxybenzoyl]benzoic acid; ESI-QTOF; MS2; CE: 10; [M-H]-
Name: 2-[4-(Diethylamino)-2-hydroxybenzoyl]benzoic acid
Name: DTXSID4027604
Formula: C18H19NO4
Exact mass: 313.1314081027
SMILES: CCN(CC)C1=CC(O)=C(C=C1)C(=O)C1C=CC=CC=1C(O)=O
InChI: InChI=1S/C18H19NO4/c1-3-19(4-2)12-9-10-15(16(20)11-12)17(21)13-7-5-6-8-14(13)18(22)23/h5-11,20H,3-4H2,1-2H3,(H,22,23)
Instrument type: ESI-QTOF
Ms type: MS2
Ion mode: NEGATIVE
Ionization: ESI
Collision energy: 10
Precursor m/z: 312.124131651
Precursor type: [M-H]-
m/z	relative intensity
164.108088	186
224.071702	10
268.134302	999
312.124132	110
