Mass spectrum: 1-Piperazineethanol; ESI-QTOF; MS2; CE: 40; [M+H]+
Name: 1-Piperazineethanol
Formula: C6H14N2O
Exact mass: 130.1106130837
SMILES: OCCN1CCNCC1
InChI: InChI=1S/C6H14N2O/c9-6-5-8-3-1-7-2-4-8/h7,9H,1-6H2
Instrument type: ESI-QTOF
Ms type: MS2
Ion mode: POSITIVE
Ionization: ESI
Collision energy: 40
Precursor m/z: 131.1178895354
Precursor type: [M+H]+
m/z	relative intensity
39.022927	13
41.026001	10
41.038577	87
42.033826	399
43.017841	32
43.041651	22
43.054227	31
44.049476	999
45.033491	482
45.044725	44
45.057301	25
46.041316	13
53.038577	10
54.033826	11
55.041651	42
56.049476	244
57.057301	42
58.065126	50
61.007276	13
63.994366	125
68.049476	23
70.065126	174
79.017841	19
83.060375	63
84.0682	29
84.080776	17
85.076025	117
88.07569	27
