Mass spectrum: 2',4',5'-Trihydroxybutyrophenone; ESI-QTOF; MS2; CE: 40; [M-H]-
Name: 2',4',5'-Trihydroxybutyrophenone
Name: DTXSID2026232
Formula: C10H12O4
Exact mass: 196.073558872
SMILES: CCCC(=O)C1=CC(O)=C(O)C=C1O
InChI: InChI=1S/C10H12O4/c1-2-3-7(11)6-4-9(13)10(14)5-8(6)12/h4-5,12-14H,2-3H2,1H3
Instrument type: ESI-QTOF
Ms type: MS2
Ion mode: NEGATIVE
Ionization: ESI
Collision energy: 40
Precursor m/z: 195.0662824203
Precursor type: [M-H]-
m/z	relative intensity
39.024024	27
41.003288	312
49.008374	51
51.024024	488
53.003288	26
53.039674	16
55.018938	79
65.003288	24
67.018938	152
68.998203	55
69.034588	139
79.018938	156
81.034588	20
82.006028	30
83.013853	31
95.013853	939
95.050238	20
96.021678	12
97.029503	20
97.065888	22
107.013853	333
108.021678	14
123.008768	999
123.045153	13
124.016593	331
125.024418	51
137.024418	24
151.003682	132
152.011507	23
166.027157	28
