Mass spectrum: 3-Dimethylaminophenol; ESI-QTOF; MS2; CE: 20; [M-H]-
Name: 3-Dimethylaminophenol
Formula: C8H11NO
Exact mass: 137.0840639806
SMILES: CN(C)C1C=C(O)C=CC=1
InChI: InChI=1S/C8H11NO/c1-9(2)7-4-3-5-8(10)6-7/h3-6,10H,1-2H3
Instrument type: ESI-QTOF
Ms type: MS2
Ion mode: NEGATIVE
Ionization: ESI
Collision energy: 20
Precursor m/z: 136.0767875289
Precursor type: [M-H]-
m/z	relative intensity
50.003623	11
65.998537	34
92.026763	29
93.034588	24
106.042413	10
120.045487	999
120.081873	19
121.053312	338
136.076788	30
