Mass spectrum: AM580; ESI-QTOF; MS2; CE: 40; [M+H]+
Name: AM580
Formula: C22H25NO3
Exact mass: 351.1834436718
SMILES: CC1(C)CCC(C)(C)C2C=CC(=CC1=2)C(=O)NC1C=CC(=CC=1)C(O)=O
InChI: InChI=1S/C22H25NO3/c1-21(2)11-12-22(3,4)18-13-15(7-10-17(18)21)19(24)23-16-8-5-14(6-9-16)20(25)26/h5-10,13H,11-12H2,1-4H3,(H,23,24)(H,25,26)
Instrument type: ESI-QTOF
Ms type: MS2
Ion mode: POSITIVE
Ionization: ESI
Collision energy: 40
Precursor m/z: 352.1907201235
Precursor type: [M+H]+
m/z	relative intensity
43.054227	12
57.069877	15
65.038577	21
69.069877	22
81.069877	10
91.054227	146
105.069877	74
108.04439	23
115.054227	15
116.062052	17
117.069877	33
118.041316	36
118.077702	12
119.085527	60
121.028406	53
129.069877	10
131.049141	81
131.085527	118
133.101177	18
136.039305	100
143.085527	16
145.064791	145
145.101177	128
146.072616	10
157.101177	26
159.080441	47
159.116827	40
164.034219	57
172.124652	110
187.148127	19
200.119567	105
215.143042	999
254.08117	11
268.09682	14
282.11247	25
