Mass spectrum: 2-Methoxy-5-nitrophenol; ESI-QTOF; MS2; CE: 40; [M-H]-
Name: 2-Methoxy-5-nitrophenol
Name: DTXSID0035790
Formula: C7H7NO4
Exact mass: 169.0375077199
SMILES: COC1C=CC(=CC=1O)[N+]([O-])=O
InChI: InChI=1S/C7H7NO4/c1-12-7-3-2-5(8(10)11)4-6(7)9/h2-4,9H,1H3
Instrument type: ESI-QTOF
Ms type: MS2
Ion mode: NEGATIVE
Ionization: ESI
Collision energy: 40
Precursor m/z: 168.0302312682
Precursor type: [M-H]-
m/z	relative intensity
41.003288	97
45.993452	999
46.029837	10
49.008374	12
51.024024	391
52.019273	11
53.003288	40
68.998203	98
79.018938	36
95.013853	221
123.008768	33
