Mass spectrum: Salicylhydroxamic acid; ESI-QTOF; MS2; CE: 40; [M-H]-
Name: Salicylhydroxamic acid
Formula: C7H7NO3
Exact mass: 153.0425930976
SMILES: OC1C=CC=CC=1C(=O)NO
InChI: InChI=1S/C7H7NO3/c9-6-4-2-1-3-5(6)7(10)8-11/h1-4,9,11H,(H,8,10)
Instrument type: ESI-QTOF
Ms type: MS2
Ion mode: NEGATIVE
Ionization: ESI
Collision energy: 40
Precursor m/z: 152.0353166459
Precursor type: [M-H]-
m/z	relative intensity
41.003288	14
41.998537	999
50.003623	11
64.031849	37
65.003288	28
