Mass spectrum: Diisopropanolamine; ESI-QTOF; MS2; CE: 20; [M+H]+
Name: Diisopropanolamine
Formula: C6H15NO2
Exact mass: 133.1102787305
SMILES: CC(O)CNCC(C)O
InChI: InChI=1S/C6H15NO2/c1-5(8)3-7-4-6(2)9/h5-9H,3-4H2,1-2H3
Instrument type: ESI-QTOF
Ms type: MS2
Ion mode: POSITIVE
Ionization: ESI
Collision energy: 20
Precursor m/z: 134.1175551822
Precursor type: [M+H]+
m/z	relative intensity
31.017841	31
39.022927	37
41.038577	999
41.059706	57
41.083515	12
42.033826	96
42.046402	56
43.054227	220
44.049476	15
44.062052	10
55.054227	30
56.049476	221
57.057301	11
58.065126	243
59.049141	221
62.015101	16
68.049476	29
69.069877	13
70.065126	167
79.054227	33
81.069877	46
98.096426	819
99.104251	54
116.10699	53
134.117555	34
