Mass spectrum: Diphenolic acid; ESI-QTOF; MS2; CE: 20; [M-H]-
Name: Diphenolic acid
Formula: C17H18O4
Exact mass: 286.1205090634
SMILES: CC(CCC(O)=O)(C1C=CC(O)=CC=1)C1C=CC(O)=CC=1
InChI: InChI=1S/C17H18O4/c1-17(11-10-16(20)21,12-2-6-14(18)7-3-12)13-4-8-15(19)9-5-13/h2-9,18-19H,10-11H2,1H3,(H,20,21)
Instrument type: ESI-QTOF
Ms type: MS2
Ion mode: NEGATIVE
Ionization: ESI
Collision energy: 20
Precursor m/z: 285.1132326117
Precursor type: [M-H]-
m/z	relative intensity
71.013853	12
93.034588	569
93.070974	10
132.058063	67
145.065888	28
147.081539	999
191.071368	13
211.076453	26
213.092103	111
239.107753	15
285.113233	67
