Mass spectrum: Enterolactone; ESI-QTOF; MS2; CE: 40; [M-H]-
Name: Enterolactone
Formula: C18H18O4
Exact mass: 298.1205090634
SMILES: OC1C=C(CC2C(CC3C=CC=C(O)C=3)COC2=O)C=CC=1
InChI: InChI=1S/C18H18O4/c19-15-5-1-3-12(8-15)7-14-11-22-18(21)17(14)10-13-4-2-6-16(20)9-13/h1-6,8-9,14,17,19-20H,7,10-11H2
Instrument type: ESI-QTOF
Ms type: MS2
Ion mode: NEGATIVE
Ionization: ESI
Collision energy: 40
Precursor m/z: 297.1132326117
Precursor type: [M-H]-
m/z	relative intensity
41.003288	31
65.039674	120
79.055324	58
92.026763	38
93.034588	26
106.042413	692
106.078799	14
107.050238	999
107.086624	20
119.050238	239
120.058063	15
121.065888	222
129.034588	11
130.042413	78
131.050238	149
132.058063	10
133.065888	146
143.050238	84
144.058063	24
145.029503	15
145.065888	168
146.073714	14
147.045153	38
159.045153	17
189.055718	55
251.107753	21
253.123403	29
