Mass spectrum: Bis(2-butoxyethyl) decanedioate; ESI-QTOF; MS2; CE: 20; [M+H]+
Name: Bis(2-butoxyethyl) decanedioate
Name: DTXSID6044802
Formula: C22H42O6
Exact mass: 402.2981390736
SMILES: CCCCOCCOC(=O)CCCCCCCCC(=O)OCCOCCCC
InChI: InChI=1S/C22H42O6/c1-3-5-15-25-17-19-27-21(23)13-11-9-7-8-10-12-14-22(24)28-20-18-26-16-6-4-2/h3-20H2,1-2H3
Instrument type: ESI-QTOF
Ms type: MS2
Ion mode: POSITIVE
Ionization: ESI
Collision energy: 20
Precursor m/z: 403.3054155253
Precursor type: [M+H]+
m/z	relative intensity
41.038577	35
45.033491	373
55.054227	111
57.069877	166
63.044056	19
69.069877	17
79.054227	23
81.069877	48
83.085527	74
85.064791	19
95.085527	18
97.064791	13
99.044056	22
99.080441	11
101.096091	129
109.064791	15
111.116827	20
121.101177	44
133.101177	12
139.111742	48
167.106656	15
169.122306	22
185.117221	32
211.132871	403
213.148521	460
229.143436	999
229.195077	15
273.16965	113
285.206036	350
329.232251	953
