Mass spectrum: 6-Phenyl-1,3,5-triazine-2,4-diamine; ESI-QTOF; MS2; CE: 40; [M+H]+
Name: 6-Phenyl-1,3,5-triazine-2,4-diamine
Formula: C9H9N5
Exact mass: 187.0857953241
SMILES: NC1=NC(=NC(N)=N1)C1C=CC=CC=1
InChI: InChI=1S/C9H9N5/c10-8-12-7(13-9(11)14-8)6-4-2-1-3-5-6/h1-5H,(H4,10,11,12,13,14)
Instrument type: ESI-QTOF
Ms type: MS2
Ion mode: POSITIVE
Ionization: ESI
Collision energy: 40
Precursor m/z: 188.0930717758
Precursor type: [M+H]+
m/z	relative intensity
43.029075	999
43.054227	33
51.022927	15
68.024324	215
77.038577	270
85.050873	48
104.049476	890
104.093072	27
