Mass spectrum: 4-Hydroxytamoxifen; ESI-QTOF; MS2; CE: 40; [M+H]+
Name: 4-Hydroxytamoxifen
Name: DTXSID3037094
Formula: C26H29NO2
Exact mass: 387.2198291771
SMILES: CC/C(=C(/C1C=CC(O)=CC=1)\C1C=CC(=CC=1)OCCN(C)C)/C1C=CC=CC=1
InChI: InChI=1S/C26H29NO2/c1-4-25(20-8-6-5-7-9-20)26(21-10-14-23(28)15-11-21)22-12-16-24(17-13-22)29-19-18-27(2)3/h5-17,28H,4,18-19H2,1-3H3/b26-25+
Instrument type: ESI-QTOF
Ms type: MS2
Ion mode: POSITIVE
Ionization: ESI
Collision energy: 40
Precursor m/z: 388.2271056288
Precursor type: [M+H]+
m/z	relative intensity
42.033826	33
44.049476	113
45.057301	73
56.049476	13
57.057301	25
58.065126	17
70.065126	66
72.080776	999
72.114481	34
91.054227	15
107.049141	17
129.069877	27
145.064791	15
207.080441	12
