Mass spectrum: N-(2,4-Dimethylphenyl)acetamide; ESI-QTOF; MS2; CE: 40; [M+H]+
Name: N-(2,4-Dimethylphenyl)acetamide
Name: DTXSID0044868
Formula: C10H13NO
Exact mass: 163.0997140444
SMILES: CC1C=C(C)C(=CC=1)NC(C)=O
InChI: InChI=1S/C10H13NO/c1-7-4-5-10(8(2)6-7)11-9(3)12/h4-6H,1-3H3,(H,11,12)
Instrument type: ESI-QTOF
Ms type: MS2
Ion mode: POSITIVE
Ionization: ESI
Collision energy: 40
Precursor m/z: 164.1069904961
Precursor type: [M+H]+
m/z	relative intensity
43.017841	211
51.022927	15
77.038577	129
79.054227	104
89.038577	15
90.046402	18
103.054227	28
105.069877	35
106.065126	999
107.072951	728
122.096426	16
