Mass spectrum: 2-Acetamidophenol; ESI-QTOF; MS2; CE: 20; [M+H]+
Name: 2-Acetamidophenol
Name: DTXSID8022082
Formula: C8H9NO2
Exact mass: 151.0633285391
SMILES: CC(=O)NC1C=CC=CC=1O
InChI: InChI=1S/C8H9NO2/c1-6(10)9-7-4-2-3-5-8(7)11/h2-5,11H,1H3,(H,9,10)
Instrument type: ESI-QTOF
Ms type: MS2
Ion mode: POSITIVE
Ionization: ESI
Collision energy: 20
Precursor m/z: 152.0706049908
Precursor type: [M+H]+
m/z	relative intensity
43.017841	270
65.038577	110
82.065126	11
92.049476	226
93.033491	151
110.06004	999
111.067865	11
