Mass spectrum: Surinabant; ESI-QTOF; MS2; CE: 40; [M+H]+
Name: Surinabant
Name: DTXSID2047357
Formula: C23H23BrCl2N4O
Exact mass: 520.0432297056
SMILES: CCC1C(=NN(C=1C1C=CC(Br)=CC=1)C1=CC=C(Cl)C=C1Cl)C(=O)NN1CCCCC1
InChI: InChI=1S/C23H23BrCl2N4O/c1-2-18-21(23(31)28-29-12-4-3-5-13-29)27-30(20-11-10-17(25)14-19(20)26)22(18)15-6-8-16(24)9-7-15/h6-11,14H,2-5,12-13H2,1H3,(H,28,31)
Instrument type: ESI-QTOF
Ms type: MS2
Ion mode: POSITIVE
Ionization: ESI
Collision energy: 40
Precursor m/z: 521.0505061573
Precursor type: [M+H]+
m/z	relative intensity
42.033826	16
55.054227	10
56.049476	11
84.080776	105
99.091675	20
154.065126	10
252.057453	13
278.060527	10
279.068353	68
287.025819	24
299.01373	33
307.063267	11
313.02938	106
314.036718	13
325.913344	73
342.03212	17
342.963215	15
376.924243	12
392.955056	35
394.971193	15
420.950458	999
421.022742	38
421.055592	18
421.956453	13
