Mass spectrum: 4-[3-(4-Acetyl-3-hydroxy-2-propylphenoxy)propoxy]phenoxy-acetic acid; ESI-QTOF; MS2; CE: 40; [M-H]-
Name: 4-[3-(4-Acetyl-3-hydroxy-2-propylphenoxy)propoxy]phenoxy-acetic acid
Formula: C22H26O7
Exact mass: 402.1678531855
SMILES: CC(=O)C1C=CC(OCCCOC2=CC=C(C=C2)OCC(O)=O)=C(CCC)C=1O
InChI: InChI=1S/C22H26O7/c1-3-5-19-20(11-10-18(15(2)23)22(19)26)28-13-4-12-27-16-6-8-17(9-7-16)29-14-21(24)25/h6-11,26H,3-5,12-14H2,1-2H3,(H,24,25)
Instrument type: ESI-QTOF
Ms type: MS2
Ion mode: NEGATIVE
Ionization: ESI
Collision energy: 40
Precursor m/z: 401.1605767338
Precursor type: [M-H]-
m/z	relative intensity
108.021678	999
108.058063	38
109.029503	41
121.029503	15
122.037328	37
149.097189	20
151.076453	26
163.040068	140
164.047893	19
177.055718	98
191.071368	19
193.087018	382
205.087018	44
233.118318	13
