Mass spectrum: Trifluoromethanesulfonic acid; ESI-QTOF; MS2; CE: 40; [M-H]-
Name: Trifluoromethanesulfonic acid
Name: DTXSID2044397
Formula: CHF3O3S
Exact mass: 149.9598492288
SMILES: OS(=O)(=O)C(F)(F)F
InChI: InChI=1S/CHF3O3S/c2-1(3,4)8(5,6)7/h(H,5,6,7)
Instrument type: ESI-QTOF
Ms type: MS2
Ion mode: NEGATIVE
Ionization: ESI
Collision energy: 40
Precursor m/z: 148.9525727771
Precursor type: [M-H]-
m/z	relative intensity
68.995758	34
79.957363	999
98.955766	80
