Mass spectrum: CP-471358; ESI-QTOF; MS2; CE: 40; [M+H]+
Name: CP-471358
Formula: C21H23FN2O7S
Exact mass: 466.1210000346
SMILES: OC(=O)CCN(C1(CCCC1)C(=O)NO)S(=O)(=O)C1C=CC(=CC=1)OC1C=CC(F)=CC=1
InChI: InChI=1S/C21H23FN2O7S/c22-15-3-5-16(6-4-15)31-17-7-9-18(10-8-17)32(29,30)24(14-11-19(25)26)21(20(27)23-28)12-1-2-13-21/h3-10,28H,1-2,11-14H2,(H,23,27)(H,25,26)
Instrument type: ESI-QTOF
Ms type: MS2
Ion mode: POSITIVE
Ionization: ESI
Collision energy: 40
Precursor m/z: 467.1282764863
Precursor type: [M+H]+
m/z	relative intensity
41.038577	38
54.033826	22
55.054227	215
65.038577	94
67.054227	184
72.04439	10
82.065126	110
84.080776	22
92.049476	10
95.049141	65
96.080776	103
110.06004	37
128.070605	999
128.1308	12
133.044805	12
138.09134	19
154.086255	13
155.09408	24
159.060455	165
187.054718	192
203.049632	108
215.062208	12
251.017269	295
