Mass spectrum: 4,5-Dihydroxy-1,3-dimethylimidazolidin-2-one; ESI-QTOF; MS2; CE: 40; [M+H]+
Name: 4,5-Dihydroxy-1,3-dimethylimidazolidin-2-one
Name: DTXSID1044934
Formula: C5H10N2O3
Exact mass: 146.0691422007
SMILES: CN1C(O)C(O)N(C)C1=O
InChI: InChI=1S/C5H10N2O3/c1-6-3(8)4(9)7(2)5(6)10/h3-4,8-9H,1-2H3
Instrument type: ESI-QTOF
Ms type: MS2
Ion mode: POSITIVE
Ionization: ESI
Collision energy: 40
Precursor m/z: 147.0764186524
Precursor type: [M+H]+
m/z	relative intensity
42.033826	38
43.017841	21
44.049476	999
58.02874	792
58.062446	13
71.057695	10
72.04439	58
