Mass spectrum: sec-Butylparaben; ESI-QTOF; MS2; CE: 10; [M-H]-
Name: sec-Butylparaben
Name: DTXSID5044607
Formula: C11H14O3
Exact mass: 194.0942943135
SMILES: CC(CC)OC(=O)C1C=CC(O)=CC=1
InChI: InChI=1S/C11H14O3/c1-3-8(2)14-11(13)9-4-6-10(12)7-5-9/h4-8,12H,3H2,1-2H3
Instrument type: ESI-QTOF
Ms type: MS2
Ion mode: NEGATIVE
Ionization: ESI
Collision energy: 10
Precursor m/z: 193.0870178618
Precursor type: [M-H]-
m/z	relative intensity
92.026763	134
93.034588	160
136.016593	153
137.024418	417
193.087018	999
