Mass spectrum: CI-1029; ESI-QTOF; MS2; CE: 40; [M+H]+
Name: CI-1029
Name: DTXSID8047262
Formula: C28H37NO4S
Exact mass: 483.2443294069
SMILES: CC(C)(C)C1C=C(CO)C(C)=CC=1SC1C(=O)OC(CC1=O)(CCC1C=CC(N)=CC=1)C(C)C
InChI: InChI=1S/C28H37NO4S/c1-17(2)28(12-11-19-7-9-21(29)10-8-19)15-23(31)25(26(32)33-28)34-24-13-18(3)20(16-30)14-22(24)27(4,5)6/h7-10,13-14,17,25,30H,11-12,15-16,29H2,1-6H3
Instrument type: ESI-QTOF
Ms type: MS2
Ion mode: POSITIVE
Ionization: ESI
Collision energy: 40
Precursor m/z: 484.2516058586
Precursor type: [M+H]+
m/z	relative intensity
43.054227	13
45.033491	117
57.069877	66
71.085527	24
77.038577	11
79.054227	11
81.069877	10
85.101177	18
89.059706	62
106.065126	999
118.065126	11
120.080776	169
132.080776	79
161.132477	30
172.112076	46
174.127726	23
177.036862	16
177.127392	29
186.127726	21
191.088898	14
203.016127	20
205.031777	10
205.104548	13
208.112076	14
219.047427	16
233.099462	12
247.078727	10
259.078727	17
266.190326	14
277.088601	119
308.073976	64
324.105276	10
326.084541	18
343.172627	27
364.136576	22
382.147141	31
392.167876	46
448.230476	10
