Mass spectrum: SR58611; ESI-QTOF; MS2; CE: 40; [M+H]+
Name: SR58611
Formula: C22H26ClNO4
Exact mass: 403.155036036
SMILES: CCOC(=O)COC1C=CC2CCC(CC=2C=1)NCC(O)C1C=CC=C(Cl)C=1
InChI: InChI=1S/C22H26ClNO4/c1-2-27-22(26)14-28-20-9-7-15-6-8-19(11-17(15)12-20)24-13-21(25)16-4-3-5-18(23)10-16/h3-5,7,9-10,12,19,21,24-25H,2,6,8,11,13-14H2,1H3
Instrument type: ESI-QTOF
Ms type: MS2
Ion mode: POSITIVE
Ionization: ESI
Collision energy: 40
Precursor m/z: 404.1623124877
Precursor type: [M+H]+
m/z	relative intensity
91.054227	96
103.054227	10
116.062052	24
117.069877	26
118.065126	49
119.072951	76
127.054227	21
128.062052	48
129.069877	495
131.049141	18
131.085527	842
131.130466	18
139.030904	14
141.069877	28
144.056966	21
145.064791	58
146.072616	82
147.080441	20
154.041316	199
157.064791	19
159.080441	999
159.12538	24
205.085921	129
233.117221	181
