Mass spectrum: Triglycidyl isocyanurate; ESI-QTOF; MS2; CE: 10; [M+H]+
Name: Triglycidyl isocyanurate
Name: DTXSID4026262
Formula: C12H15N3O6
Exact mass: 297.0960852345
SMILES: O=C1N(CC2CO2)C(=O)N(CC2CO2)C(=O)N1CC1CO1
InChI: InChI=1S/C12H15N3O6/c16-10-13(1-7-4-19-7)11(17)15(3-9-6-21-9)12(18)14(10)2-8-5-20-8/h7-9H,1-6H2
Instrument type: ESI-QTOF
Ms type: MS2
Ion mode: POSITIVE
Ionization: ESI
Collision energy: 10
Precursor m/z: 298.1033616862
Precursor type: [M+H]+
m/z	relative intensity
55.017841	17
56.049476	10
57.033491	50
70.02874	12
82.02874	170
87.018904	38
100.039305	34
113.034554	14
125.034554	22
130.024717	454
143.045119	61
156.040368	53
168.040368	45
186.050932	191
224.066582	31
242.077147	64
280.092797	28
298.103362	999
