Mass spectrum: Nitrilotriacetic acid; ESI-QTOF; MS2; CE: 10; [M+H]+
Name: Nitrilotriacetic acid
Name: DTXSID6020939
Formula: C6H9NO6
Exact mass: 191.0429870283
SMILES: OC(=O)CN(CC(O)=O)CC(O)=O
InChI: InChI=1S/C6H9NO6/c8-4(9)1-7(2-5(10)11)3-6(12)13/h1-3H2,(H,8,9)(H,10,11)(H,12,13)
Instrument type: ESI-QTOF
Ms type: MS2
Ion mode: POSITIVE
Ionization: ESI
Collision energy: 10
Precursor m/z: 192.05026348
Precursor type: [M+H]+
m/z	relative intensity
42.033826	13
60.04439	46
88.039305	432
88.07569	10
118.04987	87
146.044784	999
192.050263	45
