Mass spectrum: Todralazine; ESI-QTOF; MS2; CE: 20; [M-H]-
Name: Todralazine
Name: DTXSID4044664
Formula: C11H12N4O2
Exact mass: 232.096025657
SMILES: CCOC(=O)NNC1=NN=CC2=CC=CC=C21
InChI: InChI=1S/C11H12N4O2/c1-2-17-11(16)15-14-10-9-6-4-3-5-8(9)7-12-13-10/h3-7H,2H2,1H3,(H,13,14)(H,15,16)
Instrument type: ESI-QTOF
Ms type: MS2
Ion mode: NEGATIVE
Ionization: ESI
Collision energy: 20
Precursor m/z: 231.0887492053
Precursor type: [M-H]-
m/z	relative intensity
41.998537	678
57.009436	43
65.003288	12
102.034923	861
102.068628	13
102.091095	10
103.038725	15
114.018324	11
114.034923	655
114.079862	11
115.038725	18
127.030172	24
128.037997	23
142.041071	89
157.040736	238
185.046884	999
185.095846	13
