Mass spectrum: Salicylhydroxamic acid; ESI-QTOF; MS2; CE: 10; [M+H]+
Name: Salicylhydroxamic acid
Formula: C7H7NO3
Exact mass: 153.0425930976
SMILES: OC1C=CC=CC=1C(=O)NO
InChI: InChI=1S/C7H7NO3/c9-6-4-2-1-3-5(6)7(10)8-11/h1-4,9,11H,(H,8,10)
Instrument type: ESI-QTOF
Ms type: MS2
Ion mode: POSITIVE
Ionization: ESI
Collision energy: 10
Precursor m/z: 154.0498695493
Precursor type: [M+H]+
m/z	relative intensity
53.038577	20
58.065126	11
65.038577	45
79.017841	160
80.025666	25
80.049476	533
81.020915	17
90.031145	18
93.033491	36
95.049141	19
108.04439	538
119.036565	20
121.028406	798
136.039305	90
154.04987	999
