Mass spectrum: Myristyl sulfate; ESI-QTOF; MS2; CE: 40; [M-H]-
Name: Myristyl sulfate
Formula: C14H30O4S
Exact mass: 294.1864801762
SMILES: CCCCCCCCCCCCCCOS(O)(=O)=O
InChI: InChI=1S/C14H30O4S/c1-2-3-4-5-6-7-8-9-10-11-12-13-14-18-19(15,16)17/h2-14H2,1H3,(H,15,16,17)
Instrument type: ESI-QTOF
Ms type: MS2
Ion mode: NEGATIVE
Ionization: ESI
Collision energy: 40
Precursor m/z: 293.1792037245
Precursor type: [M-H]-
m/z	relative intensity
79.957363	90
95.952278	23
96.960103	999
96.996488	41
97.011744	21
