Mass spectrum: 1,3-Diphenylguanidine; ESI-QTOF; MS2; CE: 40; [M+H]+
Name: 1,3-Diphenylguanidine
Formula: C13H13N3
Exact mass: 211.1109474369
SMILES: N=C(NC1C=CC=CC=1)NC1C=CC=CC=1
InChI: InChI=1S/C13H13N3/c14-13(15-11-7-3-1-4-8-11)16-12-9-5-2-6-10-12/h1-10H,(H3,14,15,16)
Instrument type: ESI-QTOF
Ms type: MS2
Ion mode: POSITIVE
Ionization: ESI
Collision energy: 40
Precursor m/z: 212.1182238886
Precursor type: [M+H]+
m/z	relative intensity
51.022927	53
65.038577	94
77.038577	999
92.049476	156
93.057301	10
94.065126	185
119.060375	204
