Mass spectrum: 4-Hexylaniline; ESI-QTOF; MS2; CE: 10; [M+H]+
Name: 4-Hexylaniline
Name: DTXSID5040708
Formula: C12H19N
Exact mass: 177.1517496135
SMILES: CCCCCCC1C=CC(N)=CC=1
InChI: InChI=1S/C12H19N/c1-2-3-4-5-6-11-7-9-12(13)10-8-11/h7-10H,2-6,13H2,1H3
Instrument type: ESI-QTOF
Ms type: MS2
Ion mode: POSITIVE
Ionization: ESI
Collision energy: 10
Precursor m/z: 178.1590260652
Precursor type: [M+H]+
m/z	relative intensity
43.054227	40
91.054227	10
94.065126	88
178.159026	999
