Mass spectrum: 4-(Hydroxymethyl)-4-methyl-1-phenylpyrazolidin-3-one; ESI-QTOF; MS2; CE: 40; [M+H]+
Name: 4-(Hydroxymethyl)-4-methyl-1-phenylpyrazolidin-3-one
Name: DTXSID9044794
Formula: C11H14N2O2
Exact mass: 206.105527706
SMILES: CC1(CO)CN(NC1=O)C1C=CC=CC=1
InChI: InChI=1S/C11H14N2O2/c1-11(8-14)7-13(12-10(11)15)9-5-3-2-4-6-9/h2-6,14H,7-8H2,1H3,(H,12,15)
Instrument type: ESI-QTOF
Ms type: MS2
Ion mode: POSITIVE
Ionization: ESI
Collision energy: 40
Precursor m/z: 207.1128041577
Precursor type: [M+H]+
m/z	relative intensity
41.038577	159
43.054227	27
45.057301	19
51.022927	70
55.017841	39
55.054227	14
55.075356	14
57.057301	46
65.038577	131
77.038577	999
77.070939	19
77.083515	10
78.042379	20
79.054227	115
90.046402	20
91.054227	97
92.049476	75
93.057301	105
93.07843	17
94.065126	438
94.086255	50
94.098831	15
104.049476	195
105.057301	94
105.069877	65
106.065126	190
108.0682	29
115.054227	220
115.075356	20
116.049476	56
116.062052	12
117.033491	40
117.057301	627
117.091006	15
118.065126	161
119.060375	55
119.072951	31
121.076025	40
129.057301	30
130.065126	173
130.086255	18
131.072951	44
132.04439	38
132.080776	87
144.080776	53
149.096091	20
158.06004	16
159.067865	25
159.091675	96
160.07569	173
