Mass spectrum: Resorcinol monobenzoate; ESI-QTOF; MS2; CE: 10; [M-H]-
Name: Resorcinol monobenzoate
Name: DTXSID1038878
Formula: C13H10O3
Exact mass: 214.0629941859
SMILES: OC1=CC(=CC=C1)OC(=O)C1C=CC=CC=1
InChI: InChI=1S/C13H10O3/c14-11-7-4-8-12(9-11)16-13(15)10-5-2-1-3-6-10/h1-9,14H
Instrument type: ESI-QTOF
Ms type: MS2
Ion mode: NEGATIVE
Ionization: ESI
Collision energy: 10
Precursor m/z: 213.0557177342
Precursor type: [M-H]-
m/z	relative intensity
77.039674	35
121.029503	181
135.008768	14
169.065888	999
213.055718	582
