Mass spectrum: CP-114271; ESI-QTOF; MS2; CE: 40; [M+H]+
Name: CP-114271
Formula: C17H19F3N2O4S
Exact mass: 404.1017624401
SMILES: CC(CC1C=CC(=CC=1)OCC(O)=O)NCC(O)C1=CSC(=N1)C(F)(F)F
InChI: InChI=1S/C17H19F3N2O4S/c1-10(6-11-2-4-12(5-3-11)26-8-15(24)25)21-7-14(23)13-9-27-16(22-13)17(18,19)20/h2-5,9-10,14,21,23H,6-8H2,1H3,(H,24,25)
Instrument type: ESI-QTOF
Ms type: MS2
Ion mode: POSITIVE
Ionization: ESI
Collision energy: 40
Precursor m/z: 405.1090388918
Precursor type: [M+H]+
m/z	relative intensity
41.038577	25
43.017841	11
55.017841	15
77.038577	14
79.054227	22
91.054227	662
91.08996	17
91.104131	11
100.020461	14
105.033491	17
105.069877	35
107.049141	545
107.085527	14
115.054227	245
116.062052	15
117.069877	548
117.107405	13
119.049141	13
119.085527	540
129.069877	32
132.056966	25
133.064791	27
134.072616	43
135.080441	64
145.064791	10
147.080441	920
147.12538	27
147.141779	14
165.054404	999
165.102239	28
165.123369	17
193.085704	271
195.018904	54
