Mass spectrum: PharmaGSID_48518; ESI-QTOF; MS2; CE: 10; [M+H]+
Name: PharmaGSID_48518
Formula: C13H9BrFNO3S2
Exact mass: 388.9191257214
SMILES: O=C(NS(=O)(=O)/C=C/C1=CC=CS1)C1C=CC(F)=CC=1Br
InChI: InChI=1S/C13H9BrFNO3S2/c14-12-8-9(15)3-4-11(12)13(17)16-21(18,19)7-5-10-2-1-6-20-10/h1-8H,(H,16,17)/b7-5+
Instrument type: ESI-QTOF
Ms type: MS2
Ion mode: POSITIVE
Ionization: ESI
Collision energy: 10
Precursor m/z: 389.9264021731
Precursor type: [M+H]+
m/z	relative intensity
97.010647	14
101.005562	11
102.967068	17
109.010647	97
154.961983	29
172.972547	999
173.010744	28
200.934582	620
223.063923	13
317.878092	13
389.926402	382
