Mass spectrum: N-Benzylethanolamine; ESI-QTOF; MS2; CE: 40; [M+H]+
Name: N-Benzylethanolamine
Formula: C9H13NO
Exact mass: 151.0997140444
SMILES: OCCNCC1C=CC=CC=1
InChI: InChI=1S/C9H13NO/c11-7-6-10-8-9-4-2-1-3-5-9/h1-5,10-11H,6-8H2
Instrument type: ESI-QTOF
Ms type: MS2
Ion mode: POSITIVE
Ionization: ESI
Collision energy: 40
Precursor m/z: 152.1069904961
Precursor type: [M+H]+
m/z	relative intensity
39.022927	68
41.038577	81
51.022927	25
63.022927	42
65.038577	742
65.083515	13
91.054227	999
