Mass spectrum: Quinalizarin; ESI-QTOF; MS2; CE: 40; [M-H]-
Name: Quinalizarin
Formula: C14H8O6
Exact mass: 272.032087989
SMILES: OC1C2=C(C=CC=1O)C(=O)C1C(C2=O)=C(O)C=CC=1O
InChI: InChI=1S/C14H8O6/c15-6-3-4-7(16)11-10(6)12(18)5-1-2-8(17)13(19)9(5)14(11)20/h1-4,15-17,19H
Instrument type: ESI-QTOF
Ms type: MS2
Ion mode: NEGATIVE
Ionization: ESI
Collision energy: 40
Precursor m/z: 271.0248115373
Precursor type: [M-H]-
m/z	relative intensity
41.003288	68
51.024024	102
65.003288	14
79.018938	673
89.039674	19
91.018938	43
101.039674	25
103.055324	18
106.006028	10
107.013853	225
108.021678	25
109.029503	186
113.039674	18
114.047499	14
115.055324	81
117.034588	55
125.039674	43
127.055324	51
129.034588	22
130.042413	18
131.050238	36
133.029503	13
135.008768	52
141.034588	66
142.042413	32
143.050238	331
145.029503	109
153.034588	82
154.042413	50
155.050238	66
156.021678	11
157.029503	35
158.037328	89
159.045153	183
160.016593	10
161.024418	47
169.029503	195
170.037328	80
171.045153	492
173.024418	41
175.040068	10
181.029503	45
182.037328	156
183.045153	36
184.016593	25
185.024418	31
186.032243	157
187.040068	579
189.019332	18
197.024418	259
198.032243	230
199.040068	442
201.019332	13
209.024418	10
210.032243	129
213.019332	34
214.027157	239
215.034982	348
225.019332	170
226.027157	373
227.034982	77
241.014247	13
242.022072	999
243.029897	557
253.014247	17
254.022072	41
270.016987	79
271.024812	337
