Mass spectrum: 4-(3-Methyl-5-oxo-4,5-dihydro-1H-pyrazol-1-yl)benzoic acid; ESI-QTOF; MS2; CE: 40; [M-H]-
Name: 4-(3-Methyl-5-oxo-4,5-dihydro-1H-pyrazol-1-yl)benzoic acid
Name: DTXSID8044963
Formula: C11H10N2O3
Exact mass: 218.0691422007
SMILES: CC1CC(=O)N(N=1)C1C=CC(=CC=1)C(O)=O
InChI: InChI=1S/C11H10N2O3/c1-7-6-10(14)13(12-7)9-4-2-8(3-5-9)11(15)16/h2-5H,6H2,1H3,(H,15,16)
Instrument type: ESI-QTOF
Ms type: MS2
Ion mode: NEGATIVE
Ionization: ESI
Collision energy: 40
Precursor m/z: 217.061865749
Precursor type: [M-H]-
m/z	relative intensity
39.011448	37
40.019273	16
41.003288	139
41.998537	107
51.024024	14
52.019273	79
59.013853	14
65.998537	275
77.039674	45
90.034923	14
91.042748	22
92.050573	999
96.032911	43
97.040736	17
118.029837	15
121.029503	22
157.040736	20
173.072037	18
