Mass spectrum: 2-Amino-6-nitrobenzothiazole; ESI-QTOF; MS2; CE: 20; [M-H]-
Name: 2-Amino-6-nitrobenzothiazole
Name: DTXSID3024491
Formula: C7H5N3O2S
Exact mass: 195.0102471563
SMILES: NC1=NC2=CC=C(C=C2S1)[N+]([O-])=O
InChI: InChI=1S/C7H5N3O2S/c8-7-9-5-2-1-4(10(11)12)3-6(5)13-7/h1-3H,(H2,8,9)
Instrument type: ESI-QTOF
Ms type: MS2
Ion mode: NEGATIVE
Ionization: ESI
Collision energy: 20
Precursor m/z: 194.0029707046
Precursor type: [M-H]-
m/z	relative intensity
44.980444	54
45.993452	78
50.003623	17
57.975693	331
88.970274	38
115.030172	35
120.999168	45
130.017261	34
132.032911	27
135.002242	10
136.010067	12
136.994083	18
147.002242	33
148.010067	605
148.994083	12
162.0309	318
162.997157	62
164.004982	150
164.988998	12
166.992072	46
177.000231	112
194.002971	999
