Mass spectrum: Kinetin; ESI-QTOF; MS2; CE: 10; [M-H]-
Name: Kinetin
Name: DTXSID9035175
Formula: C10H9N5O
Exact mass: 215.0807099464
SMILES: C(NC1NC=NC2=NC=NC2=1)C1=CC=CO1
InChI: InChI=1S/C10H9N5O/c1-2-7(16-3-1)4-11-9-8-10(13-5-12-8)15-6-14-9/h1-3,5-6H,4H2,(H2,11,12,13,14,15)
Instrument type: ESI-QTOF
Ms type: MS2
Ion mode: NEGATIVE
Ionization: ESI
Collision energy: 10
Precursor m/z: 214.0734334947
Precursor type: [M-H]-
m/z	relative intensity
92.025421	11
106.028495	14
107.03632	18
117.02067	19
132.031569	44
133.039394	457
134.047219	336
135.055044	18
169.05197	15
170.047219	28
186.078519	22
196.062869	94
197.070694	12
214.073433	999
