Mass spectrum: 2,6-Dimethyl morpholine; ESI-QTOF; MS2; CE: 10; [M+H]+
Name: 2,6-Dimethyl morpholine
Name: DTXSID6022002
Formula: C6H13NO
Exact mass: 115.0997140444
SMILES: CC1CNCC(C)O1
InChI: InChI=1S/C6H13NO/c1-5-3-7-4-6(2)8-5/h5-7H,3-4H2,1-2H3
Instrument type: ESI-QTOF
Ms type: MS2
Ion mode: POSITIVE
Ionization: ESI
Collision energy: 10
Precursor m/z: 116.1069904961
Precursor type: [M+H]+
m/z	relative intensity
41.038577	105
42.033826	21
43.054227	37
56.049476	55
58.065126	28
59.049141	14
70.065126	37
81.069877	21
98.096426	789
116.10699	999
