Mass spectrum: 4-Isopropylphenol; ESI-QTOF; MS2; CE: 20; [M+H]+
Name: 4-Isopropylphenol
Formula: C9H12O
Exact mass: 136.0888150051
SMILES: CC(C)C1C=CC(O)=CC=1
InChI: InChI=1S/C9H12O/c1-7(2)8-3-5-9(10)6-4-8/h3-7,10H,1-2H3
Instrument type: ESI-QTOF
Ms type: MS2
Ion mode: POSITIVE
Ionization: ESI
Collision energy: 20
Precursor m/z: 137.0960914568
Precursor type: [M+H]+
m/z	relative intensity
41.038577	27
43.054227	21
53.038577	10
55.054227	20
61.007276	124
62.015101	44
63.994366	428
67.054227	37
69.069877	11
79.017841	999
79.054227	59
81.069877	180
95.085527	47
