Mass spectrum: Sulfoisophthalic acid; ESI-QTOF; MS2; CE: 40; [M-H]-
Name: Sulfoisophthalic acid
Name: DTXSID5044819
Formula: C8H6O7S
Exact mass: 245.9834232775
SMILES: OS(=O)(=O)C1C=C(C=C(C=1)C(O)=O)C(O)=O
InChI: InChI=1S/C8H6O7S/c9-7(10)4-1-5(8(11)12)3-6(2-4)16(13,14)15/h1-3H,(H,9,10)(H,11,12)(H,13,14,15)
Instrument type: ESI-QTOF
Ms type: MS2
Ion mode: NEGATIVE
Ionization: ESI
Collision energy: 40
Precursor m/z: 244.9761468258
Precursor type: [M-H]-
m/z	relative intensity
59.013853	16
75.008768	10
75.024024	530
79.957363	20
80.965188	999
80.998203	16
93.034588	14
119.013853	119
