Mass spectrum: CP-122721; ESI-QTOF; MS2; CE: 40; [M+H]+
Name: CP-122721
Name: DTXSID9047251
Formula: C20H23F3N2O2
Exact mass: 380.1711625931
SMILES: COC1C=CC(=CC=1CNC1CCCNC1C1C=CC=CC=1)OC(F)(F)F
InChI: InChI=1S/C20H23F3N2O2/c1-26-18-10-9-16(27-20(21,22)23)12-15(18)13-25-17-8-5-11-24-19(17)14-6-3-2-4-7-14/h2-4,6-7,9-10,12,17,19,24-25H,5,8,11,13H2,1H3
Instrument type: ESI-QTOF
Ms type: MS2
Ion mode: POSITIVE
Ionization: ESI
Collision energy: 40
Precursor m/z: 381.1784390448
Precursor type: [M+H]+
m/z	relative intensity
82.065126	40
91.054227	61
109.044805	20
115.054227	17
117.069877	23
128.062052	13
130.065126	22
131.085527	27
132.080776	159
160.112076	999
160.157015	37
175.036526	48
205.047091	40
