Mass spectrum: Decyl beta-D-glucopyranoside; ESI-QTOF; MS2; CE: 40; [M-H]-
Name: Decyl beta-D-glucopyranoside
Name: DTXSID2041208
Formula: C16H32O6
Exact mass: 320.2198887546
SMILES: CCCCCCCCCCOC1OC(CO)C(O)C(O)C1O
InChI: InChI=1S/C16H32O6/c1-2-3-4-5-6-7-8-9-10-21-16-15(20)14(19)13(18)12(11-17)22-16/h12-20H,2-11H2,1H3
Instrument type: ESI-QTOF
Ms type: MS2
Ion mode: NEGATIVE
Ionization: ESI
Collision energy: 40
Precursor m/z: 319.2126123029
Precursor type: [M-H]-
m/z	relative intensity
31.018938	10
41.003288	38
43.018938	315
44.998203	145
51.024024	21
55.018938	427
56.998203	24
57.034588	85
59.013853	999
69.034588	17
71.013853	233
73.029503	61
83.013853	80
85.029503	91
86.000943	47
87.008768	16
95.013853	24
99.008768	15
101.024418	26
155.144139	14
