Mass spectrum: 2,4-Dihydroxypyridine; ESI-QTOF; MS2; CE: 20; [M+H]+
Name: 2,4-Dihydroxypyridine
Name: DTXSID90274238
Formula: C5H5NO2
Exact mass: 111.0320284115
SMILES: OC1=CC(O)=NC=C1
InChI: InChI=1S/C5H5NO2/c7-4-1-2-6-5(8)3-4/h1-3H,(H2,6,7,8)
Instrument type: ESI-QTOF
Ms type: MS2
Ion mode: POSITIVE
Ionization: ESI
Collision energy: 20
Precursor m/z: 112.0393048632
Precursor type: [M+H]+
m/z	relative intensity
39.022927	32
44.01309	21
66.033826	21
76.018175	59
94.02874	999
112.039305	231
