Mass spectrum: PharmaGSID_48511; ESI-QTOF; MS2; CE: 40; [M-H]-
Name: PharmaGSID_48511
Formula: C27H35F2N7O3
Exact mass: 543.2769444352
SMILES: CN1CCC(CC1)NC(=O)C1C=CC(NC2=NC3=C(C=N2)N(C)C(=O)C(F)(F)CN3C2CCCC2)=C(C=1)OC
InChI: InChI=1S/C27H35F2N7O3/c1-34-12-10-18(11-13-34)31-24(37)17-8-9-20(22(14-17)39-3)32-26-30-15-21-23(33-26)36(19-6-4-5-7-19)16-27(28,29)25(38)35(21)2/h8-9,14-15,18-19H,4-7,10-13,16H2,1-3H3,(H,31,37)(H,30,32,33)
Instrument type: ESI-QTOF
Ms type: MS2
Ion mode: NEGATIVE
Ionization: ESI
Collision energy: 40
Precursor m/z: 542.2696679835
Precursor type: [M-H]-
m/z	relative intensity
41.998537	143
106.010994	22
106.028495	46
107.037463	11
109.078265	34
124.00764	24
132.034054	42
133.040736	26
139.032457	46
147.056386	32
191.037263	14
212.050173	17
213.048107	19
214.08601	25
216.103002	22
217.096909	34
229.109485	29
238.073433	16
239.092492	17
241.096909	12
242.061137	66
247.132625	101
254.104734	32
255.073928	28
257.061746	14
257.084613	95
258.123458	44
260.106545	22
270.097403	63
272.069017	10
272.127675	289
273.1355	429
274.138599	20
280.114116	218
281.074322	21
281.110708	13
282.093381	10
285.079527	17
287.151349	46
290.118652	14
296.140251	19
298.075919	11
298.130948	20
301.074242	10
305.139442	10
314.105876	17
322.128704	19
324.144354	28
325.152179	17
334.109819	10
346.116327	33
348.151964	13
350.141119	20
351.156595	17
352.165323	11
353.129551	19
362.153495	26
365.153361	71
365.209533	54
366.136034	14
366.163671	31
367.145201	91
374.17258	13
378.168397	204
379.171297	10
380.146759	18
380.183144	139
381.149618	71
381.183318	19
382.157243	297
383.161681	20
387.15123	139
388.160398	12
390.168397	11
392.184047	19
393.146933	16
394.162409	57
395.170234	443
396.172694	31
397.178233	100
401.165737	27
402.174705	91
405.202203	11
408.159174	10
409.178233	21
410.142262	28
410.194611	401
411.155253	21
411.193883	43
412.175654	26
415.188798	12
418.184876	12
419.171136	23
421.178233	18
422.181133	30
423.15143	11
423.202436	14
425.17429	90
428.169226	10
429.20579	57
430.173642	16
430.210028	78
431.208864	13
432.215347	13
434.192366	10
434.228752	18
437.17697	18
438.168397	32
438.193549	23
439.176222	16
442.181053	30
442.231157	12
444.176716	24
444.222998	14
446.194611	13
446.228752	10
449.209533	23
450.217358	28
454.199697	38
457.180519	15
458.173482	70
458.194611	84
459.181307	91
459.202436	105
460.19544	15
462.225911	26
463.226326	10
465.241976	12
466.200839	18
470.23214	38
471.202436	11
472.206674	45
474.205925	56
477.205591	13
479.208665	19
486.222324	124
487.233736	91
490.237225	65
492.21649	18
496.227803	32
506.23214	150
507.239965	246
508.240379	19
510.243453	19
512.222718	52
522.26344	323
523.271265	24
526.238368	33
527.246193	999
528.254018	79
542.269668	981
