Mass spectrum: N-Methylethanolamine; ESI-QTOF; MS2; CE: 20; [M+H]+
Name: N-Methylethanolamine
Formula: C3H9NO
Exact mass: 75.0684139168
SMILES: CNCCO
InChI: InChI=1S/C3H9NO/c1-4-2-3-5/h4-5H,2-3H2,1H3
Instrument type: ESI-QTOF
Ms type: MS2
Ion mode: POSITIVE
Ionization: ESI
Collision energy: 20
Precursor m/z: 76.0756903685
Precursor type: [M+H]+
m/z	relative intensity
30.033826	42
32.049476	13
41.038577	10
42.033826	90
43.017841	50
43.041651	207
44.049476	31
45.033491	675
45.057301	13
56.049476	168
57.057301	12
58.065126	999
76.07569	20
