Mass spectrum: Carminic acid; ESI-QTOF; MS2; CE: 20; [M+H]+
Name: Carminic acid
Formula: C22H20O13
Exact mass: 492.0903907279
SMILES: CC1C(=C(O)C=C2C=1C(=O)C1=C(C2=O)C(O)=C(O)C(C2OC(CO)C(O)C(O)C2O)=C1O)C(O)=O
InChI: InChI=1S/C22H20O13/c1-4-8-5(2-6(24)9(4)22(33)34)13(25)10-11(15(8)27)16(28)12(18(30)17(10)29)21-20(32)19(31)14(26)7(3-23)35-21/h2,7,14,19-21,23-24,26,28-32H,3H2,1H3,(H,33,34)
Instrument type: ESI-QTOF
Ms type: MS2
Ion mode: POSITIVE
Ionization: ESI
Collision energy: 20
Precursor m/z: 493.0976671796
Precursor type: [M+H]+
m/z	relative intensity
103.038971	40
135.080441	11
325.034279	47
343.044844	76
351.049929	11
353.029194	18
355.044844	999
355.117615	11
359.039758	21
373.055408	869
379.044844	238
391.044844	30
393.060494	16
397.055408	208
403.044844	64
409.055408	230
421.055408	242
427.065973	149
439.065973	135
457.076538	62
493.097667	13
