Mass spectrum: 5-Nitroisophthalic acid; ESI-QTOF; MS2; CE: 10; [M-H]-
Name: 5-Nitroisophthalic acid
Name: DTXSID7041540
Formula: C8H5NO6
Exact mass: 211.0116869007
SMILES: [O-][N+](=O)C1C=C(C=C(C=1)C(O)=O)C(O)=O
InChI: InChI=1S/C8H5NO6/c10-7(11)4-1-5(8(12)13)3-6(2-4)9(14)15/h1-3H,(H,10,11)(H,12,13)
Instrument type: ESI-QTOF
Ms type: MS2
Ion mode: NEGATIVE
Ionization: ESI
Collision energy: 10
Precursor m/z: 210.004410449
Precursor type: [M-H]-
m/z	relative intensity
45.993452	57
75.024024	31
92.026763	36
119.013853	169
136.016593	61
166.014581	999
210.00441	147
