Mass spectrum: 3,3'-(4-Methylbenzene-1,3-diyl)bis(1,1-dimethylurea); ESI-QTOF; MS2; CE: 40; [M+H]+
Name: 3,3'-(4-Methylbenzene-1,3-diyl)bis(1,1-dimethylurea)
Name: DTXSID0044606
Formula: C13H20N4O2
Exact mass: 264.1586259122
SMILES: CC1=CC=C(C=C1NC(=O)N(C)C)NC(=O)N(C)C
InChI: InChI=1S/C13H20N4O2/c1-9-6-7-10(14-12(18)16(2)3)8-11(9)15-13(19)17(4)5/h6-8H,1-5H3,(H,14,18)(H,15,19)
Instrument type: ESI-QTOF
Ms type: MS2
Ion mode: POSITIVE
Ionization: ESI
Collision energy: 40
Precursor m/z: 265.1659023639
Precursor type: [M+H]+
m/z	relative intensity
44.049476	15
46.065126	999
46.098831	11
72.04439	371
77.038577	10
132.04439	14
147.055289	18
162.078764	11
