Mass spectrum: AM580; ESI-QTOF; MS2; CE: 40; [M-H]-
Name: AM580
Formula: C22H25NO3
Exact mass: 351.1834436718
SMILES: CC1(C)CCC(C)(C)C2C=CC(=CC1=2)C(=O)NC1C=CC(=CC=1)C(O)=O
InChI: InChI=1S/C22H25NO3/c1-21(2)11-12-22(3,4)18-13-15(7-10-17(18)21)19(24)23-16-8-5-14(6-9-16)20(25)26/h5-10,13H,11-12H2,1-4H3,(H,23,24)(H,25,26)
Instrument type: ESI-QTOF
Ms type: MS2
Ion mode: NEGATIVE
Ionization: ESI
Collision energy: 40
Precursor m/z: 350.1761672201
Precursor type: [M-H]-
m/z	relative intensity
41.998537	324
75.024024	29
92.050573	46
93.034588	33
118.029837	414
119.013853	64
137.024418	11
157.102274	16
162.019667	77
171.117924	34
187.149224	73
236.108088	42
237.115913	14
248.108088	53
249.115913	16
262.123738	32
263.131563	13
274.123738	18
276.139388	345
278.082267	11
278.191423	36
290.155038	680
291.162863	137
292.097917	110
293.105742	19
304.170688	16
306.113567	38
306.126143	21
306.186338	999
307.121392	20
318.113567	16
320.129217	522
334.144867	934
335.152692	67
350.176167	401
