Mass spectrum: N-Vinyl-2-pyrrolidone; ESI-QTOF; MS2; CE: 40; [M+H]+
Name: N-Vinyl-2-pyrrolidone
Formula: C6H9NO
Exact mass: 111.0684139168
SMILES: C=CN1CCCC1=O
InChI: InChI=1S/C6H9NO/c1-2-7-5-3-4-6(7)8/h2H,1,3-5H2
Instrument type: ESI-QTOF
Ms type: MS2
Ion mode: POSITIVE
Ionization: ESI
Collision energy: 40
Precursor m/z: 112.0756903685
Precursor type: [M+H]+
m/z	relative intensity
38.015101	13
39.022927	709
40.018175	12
41.026001	31
41.038577	999
42.033826	31
44.01309	10
44.049476	62
54.033826	22
56.049476	88
67.041651	21
68.049476	25
69.033491	33
