Mass spectrum: N-(4-Ethoxyphenyl)-3-oxobutanamide; ESI-QTOF; MS2; CE: 10; [M+H]+
Name: N-(4-Ethoxyphenyl)-3-oxobutanamide
Formula: C12H15NO3
Exact mass: 221.1051933528
SMILES: CC(=O)CC(=O)NC1C=CC(=CC=1)OCC
InChI: InChI=1S/C12H15NO3/c1-3-16-11-6-4-10(5-7-11)13-12(15)8-9(2)14/h4-7H,3,8H2,1-2H3,(H,13,15)
Instrument type: ESI-QTOF
Ms type: MS2
Ion mode: POSITIVE
Ionization: ESI
Collision energy: 10
Precursor m/z: 222.1124698045
Precursor type: [M+H]+
m/z	relative intensity
43.017841	37
59.049141	105
85.028406	16
110.06004	14
136.07569	26
138.09134	999
162.09134	16
164.070605	181
204.101905	77
222.11247	412
