Mass spectrum: Isophorone diamine; ESI-QTOF; MS2; CE: 10; [M+H]+
Name: Isophorone diamine
Name: DTXSID6027503
Formula: C10H22N2
Exact mass: 170.1782987166
SMILES: CC1(C)CC(N)CC(C)(C1)CN
InChI: InChI=1S/C10H22N2/c1-9(2)4-8(12)5-10(3,6-9)7-11/h8H,4-7,11-12H2,1-3H3
Instrument type: ESI-QTOF
Ms type: MS2
Ion mode: POSITIVE
Ionization: ESI
Collision energy: 10
Precursor m/z: 171.1855751683
Precursor type: [M+H]+
m/z	relative intensity
81.069877	60
95.085527	51
137.132477	178
154.159026	999
171.185575	555
