Mass spectrum: Benzyl acetate; ESI-QTOF; MS2; CE: 10; [M+H]+
Name: Benzyl acetate
Name: DTXSID0020151
Formula: C9H10O2
Exact mass: 150.0680795636
SMILES: CC(=O)OCC1C=CC=CC=1
InChI: InChI=1S/C9H10O2/c1-8(10)11-7-9-5-3-2-4-6-9/h2-6H,7H2,1H3
Instrument type: ESI-QTOF
Ms type: MS2
Ion mode: POSITIVE
Ionization: ESI
Collision energy: 10
Precursor m/z: 151.0753560153
Precursor type: [M+H]+
m/z	relative intensity
45.033491	112
63.994366	48
79.017841	999
79.054227	19
89.059706	39
