Mass spectrum: p-Cymen-8-ol; ESI-QTOF; MS2; CE: 10; [M+H]+
Name: p-Cymen-8-ol
Formula: C10H14O
Exact mass: 150.1044650689
SMILES: CC1C=CC(=CC=1)C(C)(C)O
InChI: InChI=1S/C10H14O/c1-8-4-6-9(7-5-8)10(2,3)11/h4-7,11H,1-3H3
Instrument type: ESI-QTOF
Ms type: MS2
Ion mode: POSITIVE
Ionization: ESI
Collision energy: 10
Precursor m/z: 151.1117415206
Precursor type: [M+H]+
m/z	relative intensity
45.033491	33
61.007276	23
63.994366	27
79.017841	999
79.054227	19
