Mass spectrum: Farglitazar; ESI-QTOF; MS2; CE: 40; [M-H]-
Name: Farglitazar
Name: DTXSID1047310
Formula: C34H30N2O5
Exact mass: 546.2154720833
SMILES: CC1OC(=NC=1CCOC1=CC=C(CC(NC2=CC=CC=C2C(=O)C2C=CC=CC=2)C(O)=O)C=C1)C1C=CC=CC=1
InChI: InChI=1S/C34H30N2O5/c1-23-29(36-33(41-23)26-12-6-3-7-13-26)20-21-40-27-18-16-24(17-19-27)22-31(34(38)39)35-30-15-9-8-14-28(30)32(37)25-10-4-2-5-11-25/h2-19,31,35H,20-22H2,1H3,(H,38,39)
Instrument type: ESI-QTOF
Ms type: MS2
Ion mode: NEGATIVE
Ionization: ESI
Collision energy: 40
Precursor m/z: 545.2081956316
Precursor type: [M-H]-
m/z	relative intensity
41.998537	30
77.039674	276
92.050573	94
93.034588	233
102.034923	82
103.055324	62
106.042413	999
106.078799	14
107.050238	469
119.050238	224
120.045487	11
131.037662	247
132.042807	13
133.065888	31
134.037328	67
144.045487	93
160.076788	126
168.081873	18
172.076788	30
180.081873	62
186.092438	73
192.081873	43
194.061137	45
195.081539	61
196.076788	231
207.068962	28
208.076788	191
209.084613	126
210.068628	14
210.089758	57
220.076788	27
222.068628	10
223.076453	34
224.071702	10
225.079527	10
237.079527	27
238.087352	21
292.134302	305
296.108088	66
297.115913	107
298.121058	64
315.126477	58
316.134302	66
483.207802	96
501.218366	11
