Mass spectrum: 4-(Methylnitrosamino)-1-(3-pyridyl)-1-butanol; ESI-QTOF; MS2; CE: 10; [M+H]+
Name: 4-(Methylnitrosamino)-1-(3-pyridyl)-1-butanol
Name: DTXSID8020880
Formula: C10H15N3O2
Exact mass: 209.1164267453
SMILES: CN(CCCC(O)C1C=NC=CC=1)N=O
InChI: InChI=1S/C10H15N3O2/c1-13(12-15)7-3-5-10(14)9-4-2-6-11-8-9/h2,4,6,8,10,14H,3,5,7H2,1H3
Instrument type: ESI-QTOF
Ms type: MS2
Ion mode: POSITIVE
Ionization: ESI
Collision energy: 10
Precursor m/z: 210.123703197
Precursor type: [M+H]+
m/z	relative intensity
44.049476	109
73.088601	74
79.041651	20
80.049476	156
84.080776	402
93.057301	886
93.091006	23
93.114816	11
100.07569	15
106.065126	55
108.04439	25
109.052215	62
109.076025	10
119.072951	55
120.080776	92
121.052215	119
121.088601	179
122.06004	45
123.067865	179
130.065126	17
131.072951	14
132.080776	52
137.083515	10
148.07569	54
149.083515	999
150.09134	10
161.107325	26
162.11515	302
180.125715	992
192.113139	10
210.123703	696
