Mass spectrum: Quinolinic acid; ESI-QTOF; MS2; CE: 20; [M+H]+
Name: Quinolinic acid
Name: 2,3-Pyridinedicarboxylic acid
Formula: C7H5NO4
Exact mass: 167.0218576561
SMILES: OC(=O)C1C=CC=NC=1C(O)=O
InChI: InChI=1S/C7H5NO4/c9-6(10)4-2-1-3-8-5(4)7(11)12/h1-3H,(H,9,10)(H,11,12)
Instrument type: ESI-QTOF
Ms type: MS2
Ion mode: POSITIVE
Ionization: ESI
Collision energy: 20
Precursor m/z: 168.0291341078
Precursor type: [M+H]+
m/z	relative intensity
39.022927	11
45.033491	12
53.038577	12
66.033826	29
78.033826	999
79.017841	24
80.025666	10
80.049476	72
94.02874	126
106.02874	195
122.023655	92
124.039305	132
150.018569	50
