Mass spectrum: Diacetone acrylamide; ESI-QTOF; MS2; CE: 20; [M+H]+
Name: Diacetone acrylamide
Name: DTXSID1024916
Formula: C9H15NO2
Exact mass: 169.1102787305
SMILES: CC(=O)CC(C)(C)NC(=O)C=C
InChI: InChI=1S/C9H15NO2/c1-5-8(12)10-9(3,4)6-7(2)11/h5H,1,6H2,2-4H3,(H,10,12)
Instrument type: ESI-QTOF
Ms type: MS2
Ion mode: POSITIVE
Ionization: ESI
Collision energy: 20
Precursor m/z: 170.1175551822
Precursor type: [M+H]+
m/z	relative intensity
41.038577	15
43.017841	876
43.041651	19
43.054227	14
53.038577	29
55.017841	392
58.065126	394
72.04439	801
72.080776	14
79.054227	110
81.069877	204
99.080441	999
99.116827	19
112.07569	10
