Mass spectrum: 4-[(Diphenylhydrazinylidene)methyl]-N,N-diethylaniline; ESI-QTOF; MS2; CE: 20; [M+H]+
Name: 4-[(Diphenylhydrazinylidene)methyl]-N,N-diethylaniline
Name: DTXSID9052399
Formula: C23H25N3
Exact mass: 343.2048478197
SMILES: CCN(CC)C1C=CC(/C=N/N(C2C=CC=CC=2)C2C=CC=CC=2)=CC=1
InChI: InChI=1S/C23H25N3/c1-3-25(4-2)21-17-15-20(16-18-21)19-24-26(22-11-7-5-8-12-22)23-13-9-6-10-14-23/h5-19H,3-4H2,1-2H3/b24-19+
Instrument type: ESI-QTOF
Ms type: MS2
Ion mode: POSITIVE
Ionization: ESI
Collision energy: 20
Precursor m/z: 344.2121242714
Precursor type: [M+H]+
m/z	relative intensity
147.091675	30
149.119901	158
150.127726	38
161.107325	236
167.072951	18
168.080776	687
168.149524	11
169.088601	36
175.122975	66
176.1308	307
195.091675	27
237.138625	14
252.1621	19
315.172999	999
344.212124	91
