Mass spectrum: 2-Amino-5-(5-nitro-2-furyl)-1,3,4-oxadiazole; ESI-QTOF; MS2; CE: 10; [M+H]+
Name: 2-Amino-5-(5-nitro-2-furyl)-1,3,4-oxadiazole
Name: DTXSID2020058
Formula: C6H4N4O4
Exact mass: 196.0232546464
SMILES: NC1=NN=C(O1)C1=CC=C(O1)[N+]([O-])=O
InChI: InChI=1S/C6H4N4O4/c7-6-9-8-5(14-6)3-1-2-4(13-3)10(11)12/h1-2H,(H2,7,9)
Instrument type: ESI-QTOF
Ms type: MS2
Ion mode: POSITIVE
Ionization: ESI
Collision energy: 10
Precursor m/z: 197.0305310981
Precursor type: [M+H]+
m/z	relative intensity
41.026001	10
54.010016	85
54.033826	16
68.0369	126
80.0369	21
82.004931	474
82.039974	10
94.027398	13
96.031814	96
98.022312	10
108.031814	60
111.042713	14
123.042713	45
139.037628	11
151.037628	50
154.024717	38
169.035616	11
180.003982	181
197.030531	999
