Mass spectrum: 6-Chloro-2-picolinic acid; ESI-QTOF; MS2; CE: 20; [M+H]+
Name: 6-Chloro-2-picolinic acid
Name: DTXSID7040289
Formula: C6H4ClNO2
Exact mass: 156.9930560896
SMILES: OC(=O)C1C=CC=C(Cl)N=1
InChI: InChI=1S/C6H4ClNO2/c7-5-3-1-2-4(8-5)6(9)10/h1-3H,(H,9,10)
Instrument type: ESI-QTOF
Ms type: MS2
Ion mode: POSITIVE
Ionization: ESI
Collision energy: 20
Precursor m/z: 158.0003325413
Precursor type: [M+H]+
m/z	relative intensity
47.00018	23
61.007276	59
62.015101	51
63.022927	10
63.994853	239
65.002191	75
79.017841	999
80.025666	835
81.020915	17
111.994853	135
