Mass spectrum: o-(Chloroacetylcarbamoyl)fumagillol; ESI-QTOF; MS2; CE: 10; [M-H]-
Name: o-(Chloroacetylcarbamoyl)fumagillol
Formula: C19H28ClNO6
Exact mass: 401.1605153444
SMILES: CC1(OC1CC=C(C)C)C1C(OC)C(CCC21CO2)OC(=O)NC(=O)CCl
InChI: InChI=1S/C19H28ClNO6/c1-11(2)5-6-13-18(3,27-13)16-15(24-4)12(7-8-19(16)10-25-19)26-17(23)21-14(22)9-20/h5,12-13,15-16H,6-10H2,1-4H3,(H,21,22,23)
Instrument type: ESI-QTOF
Ms type: MS2
Ion mode: NEGATIVE
Ionization: ESI
Collision energy: 10
Precursor m/z: 400.1532388927
Precursor type: [M-H]-
m/z	relative intensity
41.998537	120
91.990865	15
100.004017	999
100.040402	15
100.052978	10
117.97013	46
400.153239	19
