Mass spectrum: CP-114271; ESI-QTOF; MS2; CE: 40; [M-H]-
Name: CP-114271
Formula: C17H19F3N2O4S
Exact mass: 404.1017624401
SMILES: CC(CC1C=CC(=CC=1)OCC(O)=O)NCC(O)C1=CSC(=N1)C(F)(F)F
InChI: InChI=1S/C17H19F3N2O4S/c1-10(6-11-2-4-12(5-3-11)26-8-15(24)25)21-7-14(23)13-9-27-16(22-13)17(18,19)20/h2-5,9-10,14,21,23H,6-8H2,1H3,(H,24,25)
Instrument type: ESI-QTOF
Ms type: MS2
Ion mode: NEGATIVE
Ionization: ESI
Collision energy: 40
Precursor m/z: 403.0944859884
Precursor type: [M-H]-
m/z	relative intensity
56.980444	746
57.009436	21
57.022012	17
57.975693	11
58.029837	22
66.034923	11
68.050573	12
68.995758	35
84.045487	90
106.042413	118
107.050238	71
119.050238	25
133.065888	170
151.978728	999
152.026111	28
152.045448	13
152.981587	10
174.092438	10
181.988366	12
192.103002	629
193.105645	14
