Mass spectrum: Dibutyl nonanedioate; ESI-QTOF; MS2; CE: 10; [M+H]+
Name: Dibutyl nonanedioate
Name: DTXSID5044815
Formula: C17H32O4
Exact mass: 300.23005951
SMILES: CCCCOC(=O)CCCCCCCC(=O)OCCCC
InChI: InChI=1S/C17H32O4/c1-3-5-14-20-16(18)12-10-8-7-9-11-13-17(19)21-15-6-4-2/h3-15H2,1-2H3
Instrument type: ESI-QTOF
Ms type: MS2
Ion mode: POSITIVE
Ionization: ESI
Collision energy: 10
Precursor m/z: 301.2373359617
Precursor type: [M+H]+
m/z	relative intensity
55.054227	17
57.069877	10
83.085527	26
97.101177	80
107.085527	52
125.096091	198
135.080441	47
143.106656	71
153.091006	123
171.101571	999
171.174342	10
227.164171	740
301.237336	76
