Mass spectrum: 1,2-Cyclohexanediamine; ESI-QTOF; MS2; CE: 20; [M+H]+
Name: 1,2-Cyclohexanediamine
Name: DTXSID0027301
Formula: C6H14N2
Exact mass: 114.1156984614
SMILES: NC1CCCCC1N
InChI: InChI=1S/C6H14N2/c7-5-3-1-2-4-6(5)8/h5-6H,1-4,7-8H2
Instrument type: ESI-QTOF
Ms type: MS2
Ion mode: POSITIVE
Ionization: ESI
Collision energy: 20
Precursor m/z: 115.1229749131
Precursor type: [M+H]+
m/z	relative intensity
30.033826	71
41.038577	28
53.038577	39
55.054227	59
56.049476	698
66.046402	10
77.038577	11
79.054227	166
81.069877	999
98.096426	536
