Mass spectrum: 1-Piperazineethanol; ESI-QTOF; MS2; CE: 20; [M+H]+
Name: 1-Piperazineethanol
Formula: C6H14N2O
Exact mass: 130.1106130837
SMILES: OCCN1CCNCC1
InChI: InChI=1S/C6H14N2O/c9-6-5-8-3-1-7-2-4-8/h7,9H,1-6H2
Instrument type: ESI-QTOF
Ms type: MS2
Ion mode: POSITIVE
Ionization: ESI
Collision energy: 20
Precursor m/z: 131.1178895354
Precursor type: [M+H]+
m/z	relative intensity
41.038577	36
42.033826	159
43.054227	50
44.049476	538
45.033491	258
45.057301	21
56.049476	277
57.057301	22
58.065126	123
61.007276	17
63.994366	49
68.049476	24
70.065126	586
71.072951	26
72.080776	32
74.06004	37
79.017841	120
83.060375	12
84.0682	99
84.080776	235
85.076025	81
86.08385	15
87.091675	77
88.07569	767
88.112076	23
89.083515	35
98.08385	24
99.091675	61
100.07569	31
113.107325	73
129.102239	109
131.11789	999
