Mass spectrum: Phenyl dihydrogen phosphate; ESI-QTOF; MS2; CE: 40; [M-H]-
Name: Phenyl dihydrogen phosphate
Name: DTXSID6044981
Formula: C6H7O4P
Exact mass: 174.0081952025
SMILES: OP(O)(=O)OC1C=CC=CC=1
InChI: InChI=1S/C6H7O4P/c7-11(8,9)10-6-4-2-1-3-5-6/h1-5H,(H2,7,8,9)
Instrument type: ESI-QTOF
Ms type: MS2
Ion mode: NEGATIVE
Ionization: ESI
Collision energy: 40
Precursor m/z: 173.0009187508
Precursor type: [M-H]-
m/z	relative intensity
62.964139	29
78.959054	999
78.995439	24
79.003682	14
