Mass spectrum: sec-Butylurea; ESI-QTOF; MS2; CE: 40; [M-H]-
Name: sec-Butylurea
Name: DTXSID8027294
Formula: C5H12N2O
Exact mass: 116.0949630199
SMILES: CCC(C)NC(N)=O
InChI: InChI=1S/C5H12N2O/c1-3-4(2)7-5(6)8/h4H,3H2,1-2H3,(H3,6,7,8)
Instrument type: ESI-QTOF
Ms type: MS2
Ion mode: NEGATIVE
Ionization: ESI
Collision energy: 40
Precursor m/z: 115.0876865682
Precursor type: [M-H]-
m/z	relative intensity
39.011448	23
40.019273	18
41.014522	33
41.998537	999
42.022347	13
54.034923	13
