Mass spectrum: 2-(Dimethylamino)-2-methylpropan-1-ol; ESI-QTOF; MS2; CE: 20; [M+H]+
Name: 2-(Dimethylamino)-2-methylpropan-1-ol
Name: DTXSID6044721
Formula: C6H15NO
Exact mass: 117.1153641082
SMILES: CN(C)C(C)(C)CO
InChI: InChI=1S/C6H15NO/c1-6(2,5-8)7(3)4/h8H,5H2,1-4H3
Instrument type: ESI-QTOF
Ms type: MS2
Ion mode: POSITIVE
Ionization: ESI
Collision energy: 20
Precursor m/z: 118.1226405599
Precursor type: [M+H]+
m/z	relative intensity
43.054227	36
45.033491	29
46.065126	999
55.054227	262
73.064791	99
118.122641	12
