Mass spectrum: dl-Tryptophan; ESI-QTOF; MS2; CE: 10; [M+H]+
Name: dl-Tryptophan
Name: DTXSID0021418
Formula: C11H12N2O2
Exact mass: 204.0898776422
SMILES: NC(CC1=CNC2=CC=CC=C21)C(O)=O
InChI: InChI=1S/C11H12N2O2/c12-9(11(14)15)5-7-6-13-10-4-2-1-3-8(7)10/h1-4,6,9,13H,5,12H2,(H,14,15)
Instrument type: ESI-QTOF
Ms type: MS2
Ion mode: POSITIVE
Ionization: ESI
Collision energy: 10
Precursor m/z: 205.0971540939
Precursor type: [M+H]+
m/z	relative intensity
91.054227	13
118.065126	38
132.080776	15
142.065126	12
143.072951	18
144.080776	101
146.06004	242
159.091675	24
170.06004	17
188.070605	999
205.097154	60
