Mass spectrum: CP-471358; ESI-QTOF; MS2; CE: 40; [M-H]-
Name: CP-471358
Formula: C21H23FN2O7S
Exact mass: 466.1210000346
SMILES: OC(=O)CCN(C1(CCCC1)C(=O)NO)S(=O)(=O)C1C=CC(=CC=1)OC1C=CC(F)=CC=1
InChI: InChI=1S/C21H23FN2O7S/c22-15-3-5-16(6-4-15)31-17-7-9-18(10-8-17)32(29,30)24(14-11-19(25)26)21(20(27)23-28)12-1-2-13-21/h3-10,28H,1-2,11-14H2,(H,23,27)(H,25,26)
Instrument type: ESI-QTOF
Ms type: MS2
Ion mode: NEGATIVE
Ionization: ESI
Collision energy: 40
Precursor m/z: 465.1137235829
Precursor type: [M-H]-
m/z	relative intensity
79.981173	12
106.029837	11
107.037662	45
202.066223	23
251.014996	13
266.028123	999
266.088318	52
266.11347	26
267.029897	24
