Mass spectrum: 1,6-Hexanediamine; ESI-QTOF; MS2; CE: 40; [M+H]+
Name: 1,6-Hexanediamine
Formula: C6H16N2
Exact mass: 116.1313485252
SMILES: NCCCCCCN
InChI: InChI=1S/C6H16N2/c7-5-3-1-2-4-6-8/h1-8H2
Instrument type: ESI-QTOF
Ms type: MS2
Ion mode: POSITIVE
Ionization: ESI
Collision energy: 40
Precursor m/z: 117.1386249769
Precursor type: [M+H]+
m/z	relative intensity
29.038577	73
30.033826	99
39.022927	729
41.038577	962
42.033826	10
43.054227	60
44.049476	59
53.038577	145
55.054227	999
67.054227	18
