Mass spectrum: Methyl hexanedioate; ESI-QTOF; MS2; CE: 10; [M-H]-
Name: Methyl hexanedioate
Name: DTXSID9044451
Formula: C7H12O4
Exact mass: 160.073558872
SMILES: COC(=O)CCCCC(O)=O
InChI: InChI=1S/C7H12O4/c1-11-7(10)5-3-2-4-6(8)9/h2-5H2,1H3,(H,8,9)
Instrument type: ESI-QTOF
Ms type: MS2
Ion mode: NEGATIVE
Ionization: ESI
Collision energy: 10
Precursor m/z: 159.0662824203
Precursor type: [M-H]-
m/z	relative intensity
81.034588	164
83.050238	999
83.086624	20
127.040068	19
