Mass spectrum: 2,6-Diisopropylaniline; ESI-QTOF; MS2; CE: 10; [M+H]+
Name: 2,6-Diisopropylaniline
Name: DTXSID5022279
Formula: C12H19N
Exact mass: 177.1517496135
SMILES: CC(C)C1=CC=CC(C(C)C)=C1N
InChI: InChI=1S/C12H19N/c1-8(2)10-6-5-7-11(9(3)4)12(10)13/h5-9H,13H2,1-4H3
Instrument type: ESI-QTOF
Ms type: MS2
Ion mode: POSITIVE
Ionization: ESI
Collision energy: 10
Precursor m/z: 178.1590260652
Precursor type: [M+H]+
m/z	relative intensity
91.054227	14
94.065126	11
133.101177	18
136.112076	66
162.127726	21
176.143376	11
178.159026	999
