Mass spectrum: 1-(o-Tolyl)biguanide; ESI-QTOF; MS2; CE: 20; [M+H]+
Name: 1-(o-Tolyl)biguanide
Formula: C9H13N5
Exact mass: 191.1170954517
SMILES: CC1C=CC=CC=1NC(=N)NC(N)=N
InChI: InChI=1S/C9H13N5/c1-6-4-2-3-5-7(6)13-9(12)14-8(10)11/h2-5H,1H3,(H6,10,11,12,13,14)
Instrument type: ESI-QTOF
Ms type: MS2
Ion mode: POSITIVE
Ionization: ESI
Collision energy: 20
Precursor m/z: 192.1243719034
Precursor type: [M+H]+
m/z	relative intensity
43.029075	34
60.055624	999
60.080776	59
60.093352	33
91.054227	10
106.065126	33
108.080776	17
116.049476	32
133.076025	125
150.102574	38
158.071274	10
175.097823	20
192.124372	19
