Mass spectrum: 2-Ethylhexyl dihydrogen phosphate; ESI-QTOF; MS2; CE: 40; [M-H]-
Name: 2-Ethylhexyl dihydrogen phosphate
Formula: C8H19O4P
Exact mass: 210.1020955853
SMILES: CCCCC(COP(O)(O)=O)CC
InChI: InChI=1S/C8H19O4P/c1-3-5-6-8(4-2)7-12-13(9,10)11/h8H,3-7H2,1-2H3,(H2,9,10,11)
Instrument type: ESI-QTOF
Ms type: MS2
Ion mode: NEGATIVE
Ionization: ESI
Collision energy: 40
Precursor m/z: 209.0948191336
Precursor type: [M-H]-
m/z	relative intensity
62.964139	12
78.959054	999
78.995439	23
79.003682	14
