Mass spectrum: 1,1'-Disulfanediyldiazepan-2-one; ESI-QTOF; MS2; CE: 20; [M+H]+
Name: 1,1'-Disulfanediyldiazepan-2-one
Name: DTXSID1044481
Formula: C12H20N2O2S2
Exact mass: 288.0966193574
SMILES: O=C1CCCCCN1SSN1CCCCCC1=O
InChI: InChI=1S/C12H20N2O2S2/c15-11-7-3-1-5-9-13(11)17-18-14-10-6-2-4-8-12(14)16/h1-10H2
Instrument type: ESI-QTOF
Ms type: MS2
Ion mode: POSITIVE
Ionization: ESI
Collision energy: 20
Precursor m/z: 289.1038958091
Precursor type: [M+H]+
m/z	relative intensity
45.033491	17
56.049476	16
69.069877	14
82.065126	84
83.072951	131
89.059706	17
96.080776	999
96.117852	42
96.129085	27
96.138291	10
97.079396	64
111.067865	12
112.07569	12
114.09134	72
136.972547	12
148.024917	61
176.019832	15
