Mass spectrum: 5-Methyl-2-(4-methylphenyl)-2,4-dihydro-3H-pyrazol-3-one; ESI-QTOF; MS2; CE: 20; [M-H]-
Name: 5-Methyl-2-(4-methylphenyl)-2,4-dihydro-3H-pyrazol-3-one
Formula: C11H12N2O
Exact mass: 188.0949630199
SMILES: CC1CC(=O)N(N=1)C1C=CC(C)=CC=1
InChI: InChI=1S/C11H12N2O/c1-8-3-5-10(6-4-8)13-11(14)7-9(2)12-13/h3-6H,7H2,1-2H3
Instrument type: ESI-QTOF
Ms type: MS2
Ion mode: NEGATIVE
Ionization: ESI
Collision energy: 20
Precursor m/z: 187.0876865682
Precursor type: [M-H]-
m/z	relative intensity
39.011448	25
41.003288	51
41.998537	72
52.019273	98
54.034923	71
65.998537	177
80.014187	51
81.022012	24
91.055324	53
96.032911	47
106.066223	442
130.066223	16
132.081873	92
144.058063	10
145.053312	11
145.077122	24
147.056386	26
159.092772	13
160.076788	18
171.056386	58
187.087687	999
