Mass spectrum: 5-Nitro-2-mercaptobenzimidazole; ESI-QTOF; MS2; CE: 40; [M-H]-
Name: 5-Nitro-2-mercaptobenzimidazole
Name: DTXSID7064235
Formula: C7H5N3O2S
Exact mass: 195.0102471563
SMILES: [O-][N+](=O)C1C=C2N=C(S)NC2=CC=1
InChI: InChI=1S/C7H5N3O2S/c11-10(12)4-1-2-5-6(3-4)9-7(13)8-5/h1-3H,(H2,8,9,13)
Instrument type: ESI-QTOF
Ms type: MS2
Ion mode: NEGATIVE
Ionization: ESI
Collision energy: 40
Precursor m/z: 194.0029707046
Precursor type: [M-H]-
m/z	relative intensity
45.993452	17
57.975693	999
58.004685	34
58.017261	19
115.030172	16
116.037997	33
120.999168	12
132.032911	29
148.010067	182
162.0309	17
