Mass spectrum: 2-(Dimethylamino)ethyl methacrylate; ESI-QTOF; MS2; CE: 40; [M+H]+
Name: 2-(Dimethylamino)ethyl methacrylate
Name: DTXSID1027504
Formula: C8H15NO2
Exact mass: 157.1102787305
SMILES: CC(=C)C(=O)OCCN(C)C
InChI: InChI=1S/C8H15NO2/c1-7(2)8(10)11-6-5-9(3)4/h1,5-6H2,2-4H3
Instrument type: ESI-QTOF
Ms type: MS2
Ion mode: POSITIVE
Ionization: ESI
Collision energy: 40
Precursor m/z: 158.1175551822
Precursor type: [M+H]+
m/z	relative intensity
41.038577	16
45.992355	40
47.00018	343
47.999451	74
58.065126	34
61.007276	80
62.015101	110
63.022927	36
63.994366	999
64.030752	19
64.039305	12
65.002191	308
65.99744	31
79.017841	196
80.025666	186
