Mass spectrum: PharmaGSID_48509; ESI-QTOF; MS2; CE: 40; [M+H]+
Name: PharmaGSID_48509
Formula: C25H39N3O2
Exact mass: 413.3042275109
SMILES: CCCN(C1CCN(CC1)C(=O)C1CCNCC1)C1CC2C=C(C=CC=2CC1)OC
InChI: InChI=1S/C25H39N3O2/c1-3-14-28(23-6-4-19-5-7-24(30-2)18-21(19)17-23)22-10-15-27(16-11-22)25(29)20-8-12-26-13-9-20/h5,7,18,20,22-23,26H,3-4,6,8-17H2,1-2H3
Instrument type: ESI-QTOF
Ms type: MS2
Ion mode: POSITIVE
Ionization: ESI
Collision energy: 40
Precursor m/z: 414.3115039626
Precursor type: [M+H]+
m/z	relative intensity
42.033826	12
43.054227	19
44.049476	10
55.054227	45
56.049476	70
60.080776	19
67.054227	10
68.049476	13
69.033491	15
84.080776	555
84.114481	11
91.054227	108
94.065126	31
105.069877	28
107.049141	33
107.085527	27
112.07569	988
112.112076	24
119.049141	56
119.085527	104
121.064791	35
129.069877	20
130.077702	10
131.049141	11
131.085527	21
133.064791	15
135.080441	13
143.154275	123
146.072616	85
161.096091	999
161.14103	22
161.16484	12
220.169591	36
254.222689	31
