Mass spectrum: 3-Methyl-1-phenyl-1H-pyrazol-5-amine; ESI-QTOF; MS2; CE: 40; [M+H]+
Name: 3-Methyl-1-phenyl-1H-pyrazol-5-amine
Formula: C10H11N3
Exact mass: 173.0952973731
SMILES: CC1C=C(N)N(N=1)C1C=CC=CC=1
InChI: InChI=1S/C10H11N3/c1-8-7-10(11)13(12-8)9-5-3-2-4-6-9/h2-7H,11H2,1H3
Instrument type: ESI-QTOF
Ms type: MS2
Ion mode: POSITIVE
Ionization: ESI
Collision energy: 40
Precursor m/z: 174.1025738248
Precursor type: [M+H]+
m/z	relative intensity
28.018175	10
30.033826	26
39.022927	82
41.038577	22
42.033826	474
43.041651	10
44.049476	250
51.022927	136
54.033826	23
63.022927	28
65.038577	761
66.033826	27
66.046402	43
67.041651	14
68.049476	24
77.038577	999
78.033826	56
78.046402	42
79.054227	598
80.049476	44
81.044725	14
82.05255	12
83.060375	31
89.038577	317
90.033826	14
90.046402	149
91.041651	16
91.054227	27
92.049476	334
93.057301	199
96.055624	16
97.063449	15
103.054227	134
104.049476	231
105.057301	40
105.069877	14
106.065126	791
115.041651	15
115.054227	68
116.049476	154
117.057301	219
118.065126	25
119.060375	10
128.049476	22
128.062052	10
129.057301	15
130.065126	144
131.060375	117
132.0682	163
133.063449	12
133.076025	55
134.071274	46
140.049476	16
142.05255	23
155.060375	17
156.0682	20
