Mass spectrum: N-Butyl-p-toluenesulfonamide; ESI-QTOF; MS2; CE: 20; [M-H]-
Name: N-Butyl-p-toluenesulfonamide
Name: DTXSID7042198
Formula: C11H17NO2S
Exact mass: 227.0979995243
SMILES: CC1C=CC(=CC=1)S(=O)(=O)NCCCC
InChI: InChI=1S/C11H17NO2S/c1-3-4-9-12-15(13,14)11-7-5-10(2)6-8-11/h5-8,12H,3-4,9H2,1-2H3
Instrument type: ESI-QTOF
Ms type: MS2
Ion mode: NEGATIVE
Ionization: ESI
Collision energy: 20
Precursor m/z: 226.0907230726
Precursor type: [M-H]-
m/z	relative intensity
59.013853	50
63.962449	523
64.970274	999
65.003288	14
79.981173	14
91.055324	59
91.981173	40
106.045784	17
106.066223	190
107.050238	31
118.033208	11
134.028123	16
136.019273	16
136.043773	199
138.014484	14
155.017224	461
155.050238	13
160.113173	170
162.105014	10
162.128823	150
170.006993	13
170.028123	197
226.090723	994
