Mass spectrum: 2-Tert-Butyl-5-methylphenol; ESI-QTOF; MS2; CE: 10; [M-H]-
Name: 2-Tert-Butyl-5-methylphenol
Formula: C11H16O
Exact mass: 164.1201151327
SMILES: CC1C=CC(=C(O)C=1)C(C)(C)C
InChI: InChI=1S/C11H16O/c1-8-5-6-9(10(12)7-8)11(2,3)4/h5-7,12H,1-4H3
Instrument type: ESI-QTOF
Ms type: MS2
Ion mode: NEGATIVE
Ionization: ESI
Collision energy: 10
Precursor m/z: 163.112838681
Precursor type: [M-H]-
m/z	relative intensity
147.081539	12
163.112839	999
