Mass spectrum: 2,4-Diaminobenzenesulfonic acid; ESI-QTOF; MS2; CE: 10; [M-H]-
Name: 2,4-Diaminobenzenesulfonic acid
Formula: C6H8N2O3S
Exact mass: 188.0255628669
SMILES: NC1C=C(N)C(=CC=1)S(O)(=O)=O
InChI: InChI=1S/C6H8N2O3S/c7-4-1-2-6(5(8)3-4)12(9,10)11/h1-3H,7-8H2,(H,9,10,11)
Instrument type: ESI-QTOF
Ms type: MS2
Ion mode: NEGATIVE
Ionization: ESI
Collision energy: 10
Precursor m/z: 187.0182864152
Precursor type: [M-H]-
m/z	relative intensity
79.957363	81
187.018286	999
