Mass spectrum: Methyl formate; ESI-QTOF; MS2; CE: 10; [M-H]-
Name: Methyl formate
Formula: C2H4O2
Exact mass: 60.0211293722
SMILES: COC=O
InChI: InChI=1S/C2H4O2/c1-4-2-3/h2H,1H3
Instrument type: ESI-QTOF
Ms type: MS2
Ion mode: NEGATIVE
Ionization: ESI
Collision energy: 10
Precursor m/z: 59.0138529205
Precursor type: [M-H]-
m/z	relative intensity
59.013853	999
