Mass spectrum: N-Butyl-p-toluenesulfonamide; ESI-QTOF; MS2; CE: 40; [M+H]+
Name: N-Butyl-p-toluenesulfonamide
Name: DTXSID7042198
Formula: C11H17NO2S
Exact mass: 227.0979995243
SMILES: CC1C=CC(=CC=1)S(=O)(=O)NCCCC
InChI: InChI=1S/C11H17NO2S/c1-3-4-9-12-15(13,14)11-7-5-10(2)6-8-11/h5-8,12H,3-4,9H2,1-2H3
Instrument type: ESI-QTOF
Ms type: MS2
Ion mode: POSITIVE
Ionization: ESI
Collision energy: 40
Precursor m/z: 228.105275976
Precursor type: [M+H]+
m/z	relative intensity
39.022927	10
41.038577	17
65.038577	375
91.054227	999
91.102536	10
