Mass spectrum: 5,6-Benzoflavone; ESI-QTOF; MS2; CE: 40; [M+H]+
Name: 5,6-Benzoflavone
Name: DTXSID8030423
Formula: C19H12O2
Exact mass: 272.0837296274
SMILES: O=C1C=C(OC2C=CC3C=CC=CC=3C=21)C1C=CC=CC=1
InChI: InChI=1S/C19H12O2/c20-16-12-18(14-7-2-1-3-8-14)21-17-11-10-13-6-4-5-9-15(13)19(16)17/h1-12H
Instrument type: ESI-QTOF
Ms type: MS2
Ion mode: POSITIVE
Ionization: ESI
Collision energy: 40
Precursor m/z: 273.0910060791
Precursor type: [M+H]+
m/z	relative intensity
51.022927	10
68.997106	49
77.038577	135
101.038577	21
103.054227	205
105.033491	41
115.054227	999
126.046402	20
127.054227	927
129.033491	548
143.049141	152
171.044056	283
202.077702	224
215.085527	85
216.093352	32
217.101177	61
226.077702	38
227.085527	24
228.093352	34
273.091006	197
