Mass spectrum: 2-(Diisopropylamino)ethanol; ESI-QTOF; MS2; CE: 20; [M+H]+
Name: 2-(Diisopropylamino)ethanol
Formula: C8H19NO
Exact mass: 145.1466642358
SMILES: CC(C)N(CCO)C(C)C
InChI: InChI=1S/C8H19NO/c1-7(2)9(5-6-10)8(3)4/h7-8,10H,5-6H2,1-4H3
Instrument type: ESI-QTOF
Ms type: MS2
Ion mode: POSITIVE
Ionization: ESI
Collision energy: 20
Precursor m/z: 146.1539406875
Precursor type: [M+H]+
m/z	relative intensity
41.038577	45
43.054227	268
44.049476	999
45.033491	30
60.04439	12
62.06004	480
86.096426	129
104.10699	270
146.153941	66
