Mass spectrum: 4-Methylphthalic anhydride; ESI-QTOF; MS2; CE: 40; [M+H]+
Name: 4-Methylphthalic anhydride
Name: DTXSID5027805
Formula: C9H6O3
Exact mass: 162.0316940583
SMILES: CC1=CC2=C(C=C1)C(=O)OC2=O
InChI: InChI=1S/C9H6O3/c1-5-2-3-6-7(4-5)9(11)12-8(6)10/h2-4H,1H3
Instrument type: ESI-QTOF
Ms type: MS2
Ion mode: POSITIVE
Ionization: ESI
Collision energy: 40
Precursor m/z: 163.03897051
Precursor type: [M+H]+
m/z	relative intensity
39.022927	33
51.022927	317
53.002191	43
53.038577	51
55.017841	60
63.022927	13
77.038577	999
78.046402	10
79.054227	40
107.049141	21
