Mass spectrum: 2-[2-(2-Ethoxyethoxy)ethoxy]ethanol; ESI-QTOF; MS2; CE: 40; [M+H]+
Name: 2-[2-(2-Ethoxyethoxy)ethoxy]ethanol
Formula: C8H18O4
Exact mass: 178.1205090634
SMILES: CCOCCOCCOCCO
InChI: InChI=1S/C8H18O4/c1-2-10-5-6-12-8-7-11-4-3-9/h9H,2-8H2,1H3
Instrument type: ESI-QTOF
Ms type: MS2
Ion mode: POSITIVE
Ionization: ESI
Collision energy: 40
Precursor m/z: 179.1277855151
Precursor type: [M+H]+
m/z	relative intensity
43.017841	22
45.033491	999
45.069877	11
