Mass spectrum: Bromcresol green; ESI-QTOF; MS2; CE: 40; [M-H]-
Name: Bromcresol green
Name: DTXSID9044459
Formula: C21H14Br4O5S
Exact mass: 693.7295458881
SMILES: CC1=C(C=C(Br)C(O)=C1Br)C1(OS(=O)(=O)C2C=CC=CC1=2)C1C=C(Br)C(O)=C(Br)C=1C
InChI: InChI=1S/C21H14Br4O5S/c1-9-12(7-14(22)19(26)17(9)24)21(13-8-15(23)20(27)18(25)10(13)2)11-5-3-4-6-16(11)31(28,29)30-21/h3-8,26-27H,1-2H3
Instrument type: ESI-QTOF
Ms type: MS2
Ion mode: NEGATIVE
Ionization: ESI
Collision energy: 40
Precursor m/z: 692.7222694364
Precursor type: [M-H]-
m/z	relative intensity
78.918886	999
79.957363	129
80.965188	37
262.871264	51
262.898545	12
290.025443	11
343.978493	12
348.046178	20
360.986966	11
373.994791	37
375.002616	21
375.033268	21
376.041093	28
377.048918	19
424.948866	27
425.956691	21
426.964516	79
439.935956	10
440.943781	18
452.943781	34
453.920954	10
453.951606	23
454.928779	38
454.959431	103
455.967256	40
504.875029	19
518.808386	11
518.854294	69
519.862119	168
532.839292	39
532.869944	43
533.847117	13
533.877769	15
534.885594	186
548.834207	47
598.780456	44
612.796107	30
613.803932	108
644.628369	16
692.722269	44
