Mass spectrum: trans-2,cis-6-Nonadien-1-ol; ESI-QTOF; MS2; CE: 20; [M+H]+
Name: trans-2,cis-6-Nonadien-1-ol
Name: DTXSID7047192
Formula: C9H16O
Exact mass: 140.1201151327
SMILES: CC/C=C/CC/C=C/CO
InChI: InChI=1S/C9H16O/c1-2-3-4-5-6-7-8-9-10/h3-4,7-8,10H,2,5-6,9H2,1H3/b4-3+,8-7+
Instrument type: ESI-QTOF
Ms type: MS2
Ion mode: POSITIVE
Ionization: ESI
Collision energy: 20
Precursor m/z: 141.1273915844
Precursor type: [M+H]+
m/z	relative intensity
61.007276	62
62.015101	12
63.994366	145
79.017841	999
79.054227	67
80.025666	17
