Mass spectrum: N-(3-Dimethylaminopropyl)methacrylamide; ESI-QTOF; MS2; CE: 20; [M+H]+
Name: N-(3-Dimethylaminopropyl)methacrylamide
Name: DTXSID7040154
Formula: C9H18N2O
Exact mass: 170.1419132113
SMILES: CC(=C)C(=O)NCCCN(C)C
InChI: InChI=1S/C9H18N2O/c1-8(2)9(12)10-6-5-7-11(3)4/h1,5-7H2,2-4H3,(H,10,12)
Instrument type: ESI-QTOF
Ms type: MS2
Ion mode: POSITIVE
Ionization: ESI
Collision energy: 20
Precursor m/z: 171.149189663
Precursor type: [M+H]+
m/z	relative intensity
41.038577	94
55.054227	16
58.065126	11
69.033491	819
69.069877	30
86.096426	17
98.06004	252
126.09134	999
171.14919	10
