Mass spectrum: 4',5'-Dibromofluorescein; ESI-QTOF; MS2; CE: 20; [M-H]-
Name: 4',5'-Dibromofluorescein
Name: DTXSID7024904
Formula: C20H10Br2O5
Exact mass: 487.8894992305
SMILES: OC1C=CC2=C(OC3=C(C=CC(O)=C3Br)C32OC(=O)C2=CC=CC=C32)C=1Br
InChI: InChI=1S/C20H10Br2O5/c21-15-13(23)7-5-11-17(15)26-18-12(6-8-14(24)16(18)22)20(11)10-4-2-1-3-9(10)19(25)27-20/h1-8,23-24H
Instrument type: ESI-QTOF
Ms type: MS2
Ion mode: NEGATIVE
Ionization: ESI
Collision energy: 20
Precursor m/z: 486.8822227788
Precursor type: [M-H]-
m/z	relative intensity
78.918886	305
290.981487	16
318.976401	10
333.963491	52
334.971316	124
360.950581	17
361.92202	21
361.958406	199
362.966231	617
363.974056	19
371.942756	10
441.884569	540
442.856008	13
442.892394	414
486.882223	999
