Mass spectrum: 3,3'-Iminobispropanenitrile; ESI-QTOF; MS2; CE: 10; [M+H]+
Name: 3,3'-Iminobispropanenitrile
Formula: C6H9N3
Exact mass: 123.0796473093
SMILES: N#CCCNCCC#N
InChI: InChI=1S/C6H9N3/c7-3-1-5-9-6-2-4-8/h9H,1-2,5-6H2
Instrument type: ESI-QTOF
Ms type: MS2
Ion mode: POSITIVE
Ionization: ESI
Collision energy: 10
Precursor m/z: 124.086923761
Precursor type: [M+H]+
m/z	relative intensity
42.033826	119
54.033826	74
83.060375	999
124.086924	53
