Mass spectrum: PharmaGSID_48510; ESI-QTOF; MS2; CE: 40; [M-H]-
Name: PharmaGSID_48510
Name: DTXSID9048510
Formula: C21H16F4N2O4
Exact mass: 436.1046198144
SMILES: OC(=O)C1=CC(=CC=C1)N(CC1=CN=CC=C1)C1C=C(OC(F)F)C(=CC=1)OC(F)F
InChI: InChI=1S/C21H16F4N2O4/c22-20(23)30-17-7-6-16(10-18(17)31-21(24)25)27(12-13-3-2-8-26-11-13)15-5-1-4-14(9-15)19(28)29/h1-11,20-21H,12H2,(H,28,29)
Instrument type: ESI-QTOF
Ms type: MS2
Ion mode: NEGATIVE
Ionization: ESI
Collision energy: 40
Precursor m/z: 435.0973433627
Precursor type: [M-H]-
m/z	relative intensity
39.00518	121
57.034588	22
59.013853	302
62.988781	38
67.000095	21
69.034588	31
71.013853	15
77.039674	11
78.034923	47
79.018938	11
85.029503	150
90.034923	37
91.018938	121
97.029503	47
133.065888	41
152.050573	59
153.056861	10
161.081932	18
163.042748	26
164.050573	28
167.074048	13
168.081873	52
180.045487	71
181.053312	104
181.074442	38
182.056013	16
183.048976	14
186.037208	34
194.061137	21
197.048227	43
197.070735	30
198.056052	143
199.063877	999
199.117804	19
200.064292	142
201.060684	41
208.040402	49
209.046925	21
218.097523	14
227.038805	20
228.04663	19
228.081873	30
229.054455	22
230.043437	25
231.048976	14
243.055085	11
244.074107	13
244.100597	21
245.083311	14
245.108422	40
246.092438	88
247.045033	88
247.092852	16
248.052858	192
249.059541	110
250.050967	59
251.056347	32
255.091235	28
256.09906	12
258.037208	19
263.093875	12
264.072725	70
265.08343	34
271.087687	18
272.0704	10
272.095512	21
273.103337	233
274.084908	11
274.106037	49
278.043437	16
279.051262	12
289.098251	45
290.106076	75
291.111457	56
292.104026	44
293.084613	18
293.10444	15
298.049665	184
299.05749	723
299.118987	12
300.061492	117
301.063009	10
301.098251	27
313.091984	71
314.095986	17
315.076214	91
320.096654	16
340.102883	189
341.10444	57
364.096615	28
391.107514	14
