Mass spectrum: SAR102608; ESI-QTOF; MS2; CE: 20; [M+H]+
Name: SAR102608
Formula: C20H16FN5O
Exact mass: 361.1338883697
SMILES: CC1N=C(N=CC=1C(=O)NN1C=C(C)C2=CC(F)=CC=C12)C1=CC=CC=N1
InChI: InChI=1S/C20H16FN5O/c1-12-11-26(18-7-6-14(21)9-15(12)18)25-20(27)16-10-23-19(24-13(16)2)17-5-3-4-8-22-17/h3-11H,1-2H3,(H,25,27)
Instrument type: ESI-QTOF
Ms type: MS2
Ion mode: POSITIVE
Ionization: ESI
Collision energy: 20
Precursor m/z: 362.1411648214
Precursor type: [M+H]+
m/z	relative intensity
79.041451	15
94.02854	13
105.044525	34
148.055704	21
149.063529	25
157.063449	113
165.082253	16
170.071274	40
171.079099	640
171.129203	18
171.147847	11
172.086924	17
185.082173	19
186.089998	496
186.140102	12
197.082173	154
198.066188	524
198.116293	14
213.077087	160
214.084912	999
214.135017	38
215.092737	100
241.076025	27
258.102574	82
319.135351	14
330.091141	16
345.114616	88
347.11769	10
362.141165	940
