Mass spectrum: Acid Orange 156; ESI-QTOF; MS2; CE: 10; [M-H]-
Name: Acid Orange 156
Name: DTXSID7044718
Formula: C21H20N4O5S
Exact mass: 440.1154405091
SMILES: CC1=CC(/N=N/C2C=CC(=CC=2)OC)=C(C=C1/N=N/C1C=CC(=CC=1)S(O)(=O)=O)OC
InChI: InChI=1S/C21H20N4O5S/c1-14-12-20(25-23-15-4-8-17(29-2)9-5-15)21(30-3)13-19(14)24-22-16-6-10-18(11-7-16)31(26,27)28/h4-13H,1-3H3,(H,26,27,28)/b24-22+,25-23+
Instrument type: ESI-QTOF
Ms type: MS2
Ion mode: NEGATIVE
Ionization: ESI
Collision energy: 10
Precursor m/z: 439.1081640574
Precursor type: [M-H]-
m/z	relative intensity
155.988663	15
439.108164	999
