Mass spectrum: 2-Nitroaniline; ESI-QTOF; MS2; CE: 40; [M-H]-
Name: 2-Nitroaniline
Formula: C6H6N2O2
Exact mass: 138.0429274508
SMILES: NC1=CC=CC=C1[N+]([O-])=O
InChI: InChI=1S/C6H6N2O2/c7-5-3-1-2-4-6(5)8(9)10/h1-4H,7H2
Instrument type: ESI-QTOF
Ms type: MS2
Ion mode: NEGATIVE
Ionization: ESI
Collision energy: 40
Precursor m/z: 137.0356509991
Precursor type: [M-H]-
m/z	relative intensity
40.019273	16
41.998537	41
45.993452	999
46.017261	20
50.003623	75
65.039674	13
65.998537	34
88.019273	19
90.034923	37
