Mass spectrum: 1-Ethyl-2-pyrrolidinone; ESI-QTOF; MS2; CE: 40; [M+H]+
Name: 1-Ethyl-2-pyrrolidinone
Name: DTXSID3044413
Formula: C6H11NO
Exact mass: 113.0840639806
SMILES: CCN1CCCC1=O
InChI: InChI=1S/C6H11NO/c1-2-7-5-3-4-6(7)8/h2-5H2,1H3
Instrument type: ESI-QTOF
Ms type: MS2
Ion mode: POSITIVE
Ionization: ESI
Collision energy: 40
Precursor m/z: 114.0913404323
Precursor type: [M+H]+
m/z	relative intensity
29.038577	38
39.022927	96
41.038577	373
42.033826	34
43.041651	18
43.054227	23
44.01309	999
44.025666	22
44.049476	127
44.062052	10
45.033491	39
55.017841	18
55.054227	13
68.049476	46
69.033491	148
84.04439	20
86.06004	114
112.07569	13
