Mass spectrum: 3-(Trifluoromethyl)phenol; ESI-QTOF; MS2; CE: 10; [M-H]-
Name: 3-(Trifluoromethyl)phenol
Formula: C7H5F3O
Exact mass: 162.0292493818
SMILES: OC1=CC(=CC=C1)C(F)(F)F
InChI: InChI=1S/C7H5F3O/c8-7(9,10)5-2-1-3-6(11)4-5/h1-4,11H
Instrument type: ESI-QTOF
Ms type: MS2
Ion mode: NEGATIVE
Ionization: ESI
Collision energy: 10
Precursor m/z: 161.0219729301
Precursor type: [M-H]-
m/z	relative intensity
121.009516	18
141.015745	17
161.021973	999
