Mass spectrum: 4-Methylaniline; ESI-QTOF; MS2; CE: 40; [M+H]+
Name: 4-Methylaniline
Formula: C7H9N
Exact mass: 107.0734992945
SMILES: CC1=CC=C(N)C=C1
InChI: InChI=1S/C7H9N/c1-6-2-4-7(8)5-3-6/h2-5H,8H2,1H3
Instrument type: ESI-QTOF
Ms type: MS2
Ion mode: POSITIVE
Ionization: ESI
Collision energy: 40
Precursor m/z: 108.0807757462
Precursor type: [M+H]+
m/z	relative intensity
39.022927	602
40.030752	10
41.038577	190
50.015101	25
51.022927	132
54.033826	29
62.015101	48
63.022927	151
65.038577	999
66.046402	185
67.041651	17
78.033826	17
89.038577	11
91.054227	69
92.049476	64
93.057301	171
