Mass spectrum: 2-(Phenylsulfonyl)aniline; ESI-QTOF; MS2; CE: 20; [M+H]+
Name: 2-(Phenylsulfonyl)aniline
Name: DTXSID0044941
Formula: C12H11NO2S
Exact mass: 233.0510493329
SMILES: NC1=CC=CC=C1S(=O)(=O)C1C=CC=CC=1
InChI: InChI=1S/C12H11NO2S/c13-11-8-4-5-9-12(11)16(14,15)10-6-2-1-3-7-10/h1-9H,13H2
Instrument type: ESI-QTOF
Ms type: MS2
Ion mode: POSITIVE
Ionization: ESI
Collision energy: 20
Precursor m/z: 234.0583257846
Precursor type: [M+H]+
m/z	relative intensity
65.038577	39
77.038577	23
80.049476	31
92.049476	999
92.083181	19
93.057301	269
108.04439	337
156.011376	185
234.058326	34
