Mass spectrum: tert-Butyl 4-hydroxybenzoate; ESI-QTOF; MS2; CE: 20; [M-H]-
Name: tert-Butyl 4-hydroxybenzoate
Name: DTXSID7044895
Formula: C11H14O3
Exact mass: 194.0942943135
SMILES: CC(C)(C)OC(=O)C1C=CC(O)=CC=1
InChI: InChI=1S/C11H14O3/c1-11(2,3)14-10(13)8-4-6-9(12)7-5-8/h4-7,12H,1-3H3
Instrument type: ESI-QTOF
Ms type: MS2
Ion mode: NEGATIVE
Ionization: ESI
Collision energy: 20
Precursor m/z: 193.0870178618
Precursor type: [M-H]-
m/z	relative intensity
57.034588	12
65.039674	10
92.026763	620
92.063149	13
93.034588	999
93.070974	26
136.016593	125
137.024418	657
193.087018	102
