Mass spectrum: 4,4'-(9H-Fluorene-9,9-diyl)diphenol; ESI-QTOF; MS2; CE: 20; [M-H]-
Name: 4,4'-(9H-Fluorene-9,9-diyl)diphenol
Name: DTXSID5037731
Formula: C25H18O2
Exact mass: 350.1306798188
SMILES: OC1C=CC(=CC=1)C1(C2C=CC=CC=2C2C=CC=CC1=2)C1C=CC(O)=CC=1
InChI: InChI=1S/C25H18O2/c26-19-13-9-17(10-14-19)25(18-11-15-20(27)16-12-18)23-7-3-1-5-21(23)22-6-2-4-8-24(22)25/h1-16,26-27H
Instrument type: ESI-QTOF
Ms type: MS2
Ion mode: NEGATIVE
Ionization: ESI
Collision energy: 20
Precursor m/z: 349.1234033671
Precursor type: [M-H]-
m/z	relative intensity
215.086624	10
256.089364	649
348.115578	14
349.123403	999
