Mass spectrum: Tetrahydrocurcumin; ESI-QTOF; MS2; CE: 20; [M-H]-
Name: Tetrahydrocurcumin
Name: DTXSID30865801
Formula: C21H24O6
Exact mass: 372.1572884994
SMILES: COC1C=C(CCC(=O)CC(=O)CCC2C=C(OC)C(O)=CC=2)C=CC=1O
InChI: InChI=1S/C21H24O6/c1-26-20-11-14(5-9-18(20)24)3-7-16(22)13-17(23)8-4-15-6-10-19(25)21(12-15)27-2/h5-6,9-12,24-25H,3-4,7-8,13H2,1-2H3
Instrument type: ESI-QTOF
Ms type: MS2
Ion mode: NEGATIVE
Ionization: ESI
Collision energy: 20
Precursor m/z: 371.1500120477
Precursor type: [M-H]-
m/z	relative intensity
41.003288	84
57.034588	131
99.045153	999
99.081539	22
99.102668	11
111.045153	17
121.029503	19
123.045153	22
135.045153	33
177.055718	169
178.063543	67
193.087018	611
207.102668	35
235.097583	600
247.097583	10
249.113233	54
371.150012	46
