Mass spectrum: 2,4,4'-Trihydroxybenzophenone; ESI-QTOF; MS2; CE: 10; [M-H]-
Name: 2,4,4'-Trihydroxybenzophenone
Name: DTXSID8044836
Formula: C13H10O4
Exact mass: 230.0579088082
SMILES: OC1C=C(O)C(=CC=1)C(=O)C1C=CC(O)=CC=1
InChI: InChI=1S/C13H10O4/c14-9-3-1-8(2-4-9)13(17)11-6-5-10(15)7-12(11)16/h1-7,14-16H
Instrument type: ESI-QTOF
Ms type: MS2
Ion mode: NEGATIVE
Ionization: ESI
Collision energy: 10
Precursor m/z: 229.0506323565
Precursor type: [M-H]-
m/z	relative intensity
91.018938	49
93.034588	146
109.029503	10
135.008768	487
185.060803	10
229.050632	999
