Mass spectrum: 4-Nitro-N-phenylaniline; ESI-QTOF; MS2; CE: 10; [M-H]-
Name: 4-Nitro-N-phenylaniline
Formula: C12H10N2O2
Exact mass: 214.0742275784
SMILES: [O-][N+](=O)C1C=CC(=CC=1)NC1C=CC=CC=1
InChI: InChI=1S/C12H10N2O2/c15-14(16)12-8-6-11(7-9-12)13-10-4-2-1-3-5-10/h1-9,13H
Instrument type: ESI-QTOF
Ms type: MS2
Ion mode: NEGATIVE
Ionization: ESI
Collision energy: 10
Precursor m/z: 213.0669511267
Precursor type: [M-H]-
m/z	relative intensity
45.993452	16
183.068962	25
213.066951	999
