Mass spectrum: 3-(Dimethylphosphono)-N-methylolpropionamide; ESI-QTOF; MS2; CE: 20; [M+H]+
Name: 3-(Dimethylphosphono)-N-methylolpropionamide
Name: DTXSID9040215
Formula: C6H14NO5P
Exact mass: 211.0609590555
SMILES: COP(=O)(CCC(=O)NCO)OC
InChI: InChI=1S/C6H14NO5P/c1-11-13(10,12-2)4-3-6(9)7-5-8/h8H,3-5H2,1-2H3,(H,7,9)
Instrument type: ESI-QTOF
Ms type: MS2
Ion mode: POSITIVE
Ionization: ESI
Collision energy: 20
Precursor m/z: 212.0682355072
Precursor type: [M+H]+
m/z	relative intensity
45.033491	203
55.017841	59
74.023655	10
78.994342	14
87.044056	74
89.060017	111
93.009992	70
107.025642	22
109.004907	999
109.041292	19
127.015472	15
137.036207	199
165.031122	802
165.07575	10
