Mass spectrum: 2-Amino-5-nitrobenzonitrile; ESI-QTOF; MS2; CE: 20; [M-H]-
Name: 2-Amino-5-nitrobenzonitrile
Name: DTXSID0038839
Formula: C7H5N3O2
Exact mass: 163.0381764263
SMILES: NC1C=CC(=CC=1C#N)[N+]([O-])=O
InChI: InChI=1S/C7H5N3O2/c8-4-5-3-6(10(11)12)1-2-7(5)9/h1-3H,9H2
Instrument type: ESI-QTOF
Ms type: MS2
Ion mode: NEGATIVE
Ionization: ESI
Collision energy: 20
Precursor m/z: 162.0308999746
Precursor type: [M-H]-
m/z	relative intensity
45.993452	261
64.019273	18
65.014522	11
115.030172	158
116.037997	443
132.032911	999
162.0309	590
