Mass spectrum: 4-Nitro-N-phenylaniline; ESI-QTOF; MS2; CE: 20; [M-H]-
Name: 4-Nitro-N-phenylaniline
Formula: C12H10N2O2
Exact mass: 214.0742275784
SMILES: [O-][N+](=O)C1C=CC(=CC=1)NC1C=CC=CC=1
InChI: InChI=1S/C12H10N2O2/c15-14(16)12-8-6-11(7-9-12)13-10-4-2-1-3-5-10/h1-9,13H
Instrument type: ESI-QTOF
Ms type: MS2
Ion mode: NEGATIVE
Ionization: ESI
Collision energy: 20
Precursor m/z: 213.0669511267
Precursor type: [M-H]-
m/z	relative intensity
45.993452	123
137.035651	9
167.074048	11
182.061137	21
183.068962	149
211.051301	30
213.066951	999
