Mass spectrum: PK 11195; ESI-QTOF; MS2; CE: 20; [M+H]+
Name: PK 11195
Formula: C21H21ClN2O
Exact mass: 352.134241017
SMILES: CCC(C)N(C)C(=O)C1=CC2C=CC=CC=2C(=N1)C1=CC=CC=C1Cl
InChI: InChI=1S/C21H21ClN2O/c1-4-14(2)24(3)21(25)19-13-15-9-5-6-10-16(15)20(23-19)17-11-7-8-12-18(17)22/h5-14H,4H2,1-3H3
Instrument type: ESI-QTOF
Ms type: MS2
Ion mode: POSITIVE
Ionization: ESI
Collision energy: 20
Precursor m/z: 353.1415174687
Precursor type: [M+H]+
m/z	relative intensity
203.072951	18
238.041803	504
238.099318	13
266.036718	174
279.067865	160
297.078917	999
297.140455	34
353.141517	145
