Mass spectrum: Dehydroabietylamine acetate; ESI-QTOF; MS2; CE: 40; [M+H]+
Name: Dehydroabietylamine acetate
Name: DTXSID1047102
Formula: C20H31N
Exact mass: 285.2456499963
SMILES: CC(C)C1C=CC2=C(CCC3C2(C)CCCC3(C)CN)C=1
InChI: InChI=1S/C20H31N/c1-14(2)15-6-8-17-16(12-15)7-9-18-19(3,13-21)10-5-11-20(17,18)4/h6,8,12,14,18H,5,7,9-11,13,21H2,1-4H3
Instrument type: ESI-QTOF
Ms type: MS2
Ion mode: POSITIVE
Ionization: ESI
Collision energy: 40
Precursor m/z: 286.252926448
Precursor type: [M+H]+
m/z	relative intensity
41.038577	96
43.054227	440
55.054227	201
57.069877	29
69.069877	59
81.069877	11
83.085527	46
91.054227	132
105.069877	13
115.054227	34
116.062052	16
117.069877	154
127.054227	10
128.062052	70
129.069877	123
131.085527	999
133.101177	14
141.069877	10
142.077702	18
143.085527	144
145.101177	54
157.101177	25
159.116827	27
171.116827	22
173.132477	181
185.132477	47
199.148127	12
