Mass spectrum: 6-Nitrobenzimidazole; ESI-QTOF; MS2; CE: 20; [M+H]+
Name: 6-Nitrobenzimidazole
Formula: C7H5N3O2
Exact mass: 163.0381764263
SMILES: [O-][N+](=O)C1=CC2N=CNC=2C=C1
InChI: InChI=1S/C7H5N3O2/c11-10(12)5-1-2-6-7(3-5)9-4-8-6/h1-4H,(H,8,9)
Instrument type: ESI-QTOF
Ms type: MS2
Ion mode: POSITIVE
Ionization: ESI
Collision energy: 20
Precursor m/z: 164.045452878
Precursor type: [M+H]+
m/z	relative intensity
91.041651	28
106.05255	24
118.05255	999
164.045453	108
