Mass spectrum: HMR1171 trifluoroacetate (1:1); ESI-QTOF; MS2; CE: 20; [M+H]+
Name: HMR1171 trifluoroacetate (1:1)
Name: DTXSID3048522
Formula: C35H48N4O3S
Exact mass: 604.3447121577
SMILES: CN(C)CCN(CC)C1=CC(=C(C=C1C(=O)N(CC)CC)S(=O)(=O)CC1C=CC=CC=1)N1CCC(CC1)C1C=CC=CC=1
InChI: InChI=1S/C35H48N4O3S/c1-6-37(7-2)35(40)31-25-34(43(41,42)27-28-15-11-9-12-16-28)33(26-32(31)38(8-3)24-23-36(4)5)39-21-19-30(20-22-39)29-17-13-10-14-18-29/h9-18,25-26,30H,6-8,19-24,27H2,1-5H3
Instrument type: ESI-QTOF
Ms type: MS2
Ion mode: POSITIVE
Ionization: ESI
Collision energy: 20
Precursor m/z: 605.3519886094
Precursor type: [M+H]+
m/z	relative intensity
72.080776	208
304.192748	37
459.210075	117
532.259468	26
605.351989	999
