Mass spectrum: 1-O-Hexyl-2,3,5-trimethylhydroquinone; ESI-QTOF; MS2; CE: 20; [M-H]-
Name: 1-O-Hexyl-2,3,5-trimethylhydroquinone
Name: DTXSID1020697
Formula: C15H24O2
Exact mass: 236.1776300102
SMILES: CCCCCCOC1=CC(C)=C(O)C(C)=C1C
InChI: InChI=1S/C15H24O2/c1-5-6-7-8-9-17-14-10-11(2)15(16)13(4)12(14)3/h10,16H,5-9H2,1-4H3
Instrument type: ESI-QTOF
Ms type: MS2
Ion mode: NEGATIVE
Ionization: ESI
Collision energy: 20
Precursor m/z: 235.1703535585
Precursor type: [M-H]-
m/z	relative intensity
149.060803	12
150.068628	999
151.076453	18
