Mass spectrum: Carabersat; ESI-QTOF; MS2; CE: 20; [M+H]+
Name: Carabersat
Name: DTXSID6047319
Formula: C20H20FNO4
Exact mass: 357.1376363346
SMILES: CC(=O)C1C=C2C(NC(=O)C3C=CC(F)=CC=3)C(O)C(C)(C)OC2=CC=1
InChI: InChI=1S/C20H20FNO4/c1-11(23)13-6-9-16-15(10-13)17(18(24)20(2,3)26-16)22-19(25)12-4-7-14(21)8-5-12/h4-10,17-18,24H,1-3H3,(H,22,25)
Instrument type: ESI-QTOF
Ms type: MS2
Ion mode: POSITIVE
Ionization: ESI
Collision energy: 20
Precursor m/z: 358.1449127863
Precursor type: [M+H]+
m/z	relative intensity
43.017841	203
59.049141	139
123.024069	40
140.050618	76
149.059706	22
159.080441	28
161.059706	230
177.091006	999
177.135945	19
177.163777	10
201.091006	52
219.101571	290
