Mass spectrum: 2-Chloro-5-nitroaniline; ESI-QTOF; MS2; CE: 40; [M-H]-
Name: 2-Chloro-5-nitroaniline
Name: DTXSID6038827
Formula: C6H5ClN2O2
Exact mass: 172.0039551289
SMILES: NC1=CC(=CC=C1Cl)[N+]([O-])=O
InChI: InChI=1S/C6H5ClN2O2/c7-5-2-1-4(9(10)11)3-6(5)8/h1-3H,8H2
Instrument type: ESI-QTOF
Ms type: MS2
Ion mode: NEGATIVE
Ionization: ESI
Collision energy: 40
Precursor m/z: 170.9966786772
Precursor type: [M-H]-
m/z	relative intensity
34.969401	14
41.003288	13
41.998537	23
45.993452	999
46.017261	22
46.029837	10
78.959231	34
88.019273	25
89.027098	67
102.970464	19
105.022012	24
