Mass spectrum: 2-Tolualdehyde; ESI-QTOF; MS2; CE: 40; [M+H]+
Name: 2-Tolualdehyde
Name: DTXSID1022051
Formula: C8H8O
Exact mass: 120.0575148775
SMILES: CC1C=CC=CC=1C=O
InChI: InChI=1S/C8H8O/c1-7-4-2-3-5-8(7)6-9/h2-6H,1H3
Instrument type: ESI-QTOF
Ms type: MS2
Ion mode: POSITIVE
Ionization: ESI
Collision energy: 40
Precursor m/z: 121.0647913292
Precursor type: [M+H]+
m/z	relative intensity
39.022927	109
41.038577	42
43.054227	26
45.033491	25
51.022927	43
63.994366	67
65.002191	10
65.038577	25
77.038577	43
78.046402	10
91.054227	12
94.041316	999
