Mass spectrum: Bromamine acid; ESI-QTOF; MS2; CE: 10; [M-H]-
Name: Bromamine acid
Formula: C14H8BrNO5S
Exact mass: 380.9306560041
SMILES: NC1C2=C(C(Br)=CC=1S(O)(=O)=O)C(=O)C1C=CC=CC=1C2=O
InChI: InChI=1S/C14H8BrNO5S/c15-8-5-9(22(19,20)21)12(16)11-10(8)13(17)6-3-1-2-4-7(6)14(11)18/h1-5H,16H2,(H,19,20,21)
Instrument type: ESI-QTOF
Ms type: MS2
Ion mode: NEGATIVE
Ionization: ESI
Collision energy: 10
Precursor m/z: 379.9233795524
Precursor type: [M-H]-
m/z	relative intensity
379.92338	999
