Mass spectrum: Zamifenacin; ESI-QTOF; MS2; CE: 40; [M+H]+
Name: Zamifenacin
Formula: C27H29NO3
Exact mass: 415.2147437994
SMILES: C1C(CCCN1CCC1C=C2OCOC2=CC=1)OC(C1C=CC=CC=1)C1C=CC=CC=1
InChI: InChI=1S/C27H29NO3/c1-3-8-22(9-4-1)27(23-10-5-2-6-11-23)31-24-12-7-16-28(19-24)17-15-21-13-14-25-26(18-21)30-20-29-25/h1-6,8-11,13-14,18,24,27H,7,12,15-17,19-20H2
Instrument type: ESI-QTOF
Ms type: MS2
Ion mode: POSITIVE
Ionization: ESI
Collision energy: 40
Precursor m/z: 416.2220202511
Precursor type: [M+H]+
m/z	relative intensity
91.054227	87
119.049141	116
119.085527	15
149.059706	245
152.062052	52
165.069877	69
166.077702	22
167.085527	999
167.130466	40
