Mass spectrum: Ethanamine, 2-chloro-N,N-dimethyl-; ESI-QTOF; MS2; CE: 20; [M+H]+
Name: Ethanamine, 2-chloro-N,N-dimethyl-
Name: DTXSID7052109
Formula: C4H10ClN
Exact mass: 107.0501770364
SMILES: CN(C)CCCl
InChI: InChI=1S/C4H10ClN/c1-6(2)4-3-5/h3-4H2,1-2H3
Instrument type: ESI-QTOF
Ms type: MS2
Ion mode: POSITIVE
Ionization: ESI
Collision energy: 20
Precursor m/z: 108.0574534881
Precursor type: [M+H]+
m/z	relative intensity
42.033826	28
44.049476	36
45.057301	21
46.065126	74
58.065126	17
62.999604	999
70.065126	11
72.080776	224
80.026153	109
108.057453	360
