Mass spectrum: 3-Hydroxy-2-pyridone; ESI-QTOF; MS2; CE: 10; [M+H]+
Name: 3-Hydroxy-2-pyridone
Name: DTXSID0051782
Formula: C5H5NO2
Exact mass: 111.0320284115
SMILES: O=C1CCC=NC1=O
InChI: InChI=1S/C5H5NO2/c7-4-2-1-3-6-5(4)8/h3H,1-2H2
Instrument type: ESI-QTOF
Ms type: MS2
Ion mode: POSITIVE
Ionization: ESI
Collision energy: 10
Precursor m/z: 112.0393048632
Precursor type: [M+H]+
m/z	relative intensity
66.033826	31
94.02874	245
112.039305	999
