Mass spectrum: Hexanedihydrazide; ESI-QTOF; MS2; CE: 10; [M-H]-
Name: Hexanedihydrazide
Formula: C6H14N4O2
Exact mass: 174.1116757208
SMILES: NNC(=O)CCCCC(=O)NN
InChI: InChI=1S/C6H14N4O2/c7-9-5(11)3-1-2-4-6(12)10-8/h1-4,7-8H2,(H,9,11)(H,10,12)
Instrument type: ESI-QTOF
Ms type: MS2
Ion mode: NEGATIVE
Ionization: ESI
Collision energy: 10
Precursor m/z: 173.1043992691
Precursor type: [M-H]-
m/z	relative intensity
41.998537	121
57.009436	186
59.013853	14
73.040736	20
81.034588	28
83.050238	999
83.086624	16
115.087687	21
123.056386	37
127.087687	14
141.066951	237
173.104399	315
