Mass spectrum: 2,4-Dimethylbenzenesulfonic acid; ESI-QTOF; MS2; CE: 20; [M-H]-
Name: 2,4-Dimethylbenzenesulfonic acid
Name: DTXSID80872343
Formula: C8H10O3S
Exact mass: 186.0350649159
SMILES: CC1C=C(C)C(=CC=1)S(O)(=O)=O
InChI: InChI=1S/C8H10O3S/c1-6-3-4-8(7(2)5-6)12(9,10)11/h3-5H,1-2H3,(H,9,10,11)
Instrument type: ESI-QTOF
Ms type: MS2
Ion mode: NEGATIVE
Ionization: ESI
Collision energy: 20
Precursor m/z: 185.0277884642
Precursor type: [M-H]-
m/z	relative intensity
79.957363	999
79.990378	45
121.065888	312
185.027788	674
