Mass spectrum: Temafloxacin; ESI-QTOF; MS2; CE: 10; [M-H]-
Name: Temafloxacin
Formula: C21H18F3N3O3
Exact mass: 417.1300260633
SMILES: CC1CN(CCN1)C1=CC2=C(C=C1F)C(=O)C(=CN2C1=CC=C(F)C=C1F)C(O)=O
InChI: InChI=1S/C21H18F3N3O3/c1-11-9-26(5-4-25-11)19-8-18-13(7-16(19)24)20(28)14(21(29)30)10-27(18)17-3-2-12(22)6-15(17)23/h2-3,6-8,10-11,25H,4-5,9H2,1H3,(H,29,30)
Instrument type: ESI-QTOF
Ms type: MS2
Ion mode: NEGATIVE
Ionization: ESI
Collision energy: 10
Precursor m/z: 416.1227496116
Precursor type: [M-H]-
m/z	relative intensity
253.988366	10
254.042294	822
255.048976	76
282.061018	406
295.068843	20
296.076668	12
332.120464	12
352.126692	999
372.13292	286
416.12275	54
