Mass spectrum: 4-(Diglycidylamino)phenyl glycidyl ether; ESI-QTOF; MS2; CE: 40; [M+H]+
Name: 4-(Diglycidylamino)phenyl glycidyl ether
Name: DTXSID8027585
Formula: C15H19NO4
Exact mass: 277.1314081027
SMILES: C(C1CO1)N(CC1CO1)C1C=CC(=CC=1)OCC1CO1
InChI: InChI=1S/C15H19NO4/c1-3-12(17-9-15-10-20-15)4-2-11(1)16(5-13-7-18-13)6-14-8-19-14/h1-4,13-15H,5-10H2
Instrument type: ESI-QTOF
Ms type: MS2
Ion mode: POSITIVE
Ionization: ESI
Collision energy: 40
Precursor m/z: 278.1386845544
Precursor type: [M+H]+
m/z	relative intensity
29.002191	22
29.038577	41
31.017841	34
39.022927	25
41.038577	147
42.033826	18
43.017841	79
43.041651	15
43.054227	59
45.033491	93
51.022927	16
53.038577	14
54.033826	57
55.017841	40
55.054227	56
57.033491	353
63.022927	10
64.030752	11
65.038577	184
66.046402	31
67.038971	16
67.054227	19
68.049476	12
71.049141	18
75.022927	17
77.038577	565
78.046402	34
79.038971	21
79.054227	218
80.01309	10
80.049476	53
81.033491	32
89.038577	12
90.046402	18
91.054227	460
92.025666	15
92.049476	76
93.033491	204
93.054621	37
93.069877	36
94.041316	80
94.065126	33
95.049141	42
97.064791	15
102.046402	27
103.054227	268
104.049476	131
105.033491	27
105.054621	48
105.069877	69
106.041316	24
106.065126	211
107.049141	706
107.085527	15
108.04439	203
108.080776	19
109.052215	85
115.054227	140
116.049476	234
117.057301	456
118.041316	12
118.065126	580
119.033885	17
119.049141	27
119.072951	54
120.04439	952
120.080776	44
120.101905	12
121.052215	101
121.064791	62
121.999845	22
122.06004	438
123.044056	11
127.054227	30
128.049476	47
128.062052	49
129.057301	77
130.065126	443
131.049141	66
131.072951	139
132.04439	96
132.080776	168
133.052215	249
133.085921	23
134.036231	23
134.06004	999
134.117555	11
135.067865	85
136.07569	367
137.04713	11
141.057301	10
141.069877	10
142.065126	66
143.072951	108
144.04439	13
144.056966	10
144.080776	319
145.052215	54
145.085921	25
146.06004	942
146.093746	41
146.109002	11
147.067865	69
148.07569	205
149.059706	27
149.083515	16
150.08866	17
154.065126	52
155.072951	25
156.080776	93
157.088601	28
158.06004	60
158.096426	55
159.067865	147
160.07569	298
161.083515	37
162.054955	32
162.09134	104
163.096485	10
164.070605	489
165.07843	29
167.070271	14
170.06004	35
171.067865	48
172.07569	208
173.083515	23
174.09134	103
176.070605	379
177.054621	14
177.07843	26
178.086255	268
184.07301	23
185.083515	23
186.09134	58
188.070605	17
190.086255	51
191.09408	11
192.101905	77
202.086255	258
204.101905	33
216.101905	17
220.09682	12
228.101905	26
