Mass spectrum: 2,6-Diethylaniline; ESI-QTOF; MS2; CE: 10; [M+H]+
Name: 2,6-Diethylaniline
Name: DTXSID6027218
Formula: C10H15N
Exact mass: 149.1204494859
SMILES: CCC1=CC=CC(CC)=C1N
InChI: InChI=1S/C10H15N/c1-3-8-6-5-7-9(4-2)10(8)11/h5-7H,3-4,11H2,1-2H3
Instrument type: ESI-QTOF
Ms type: MS2
Ion mode: POSITIVE
Ionization: ESI
Collision energy: 10
Precursor m/z: 150.1277259376
Precursor type: [M+H]+
m/z	relative intensity
91.054227	23
94.065126	35
105.069877	141
121.088601	30
122.096426	118
133.101177	26
134.096426	24
148.112076	23
150.127726	999
