Mass spectrum: UK-416244; ESI-QTOF; MS2; CE: 20; [M-H]-
Name: UK-416244
Name: DTXSID0047290
Formula: C17H22N2O3S2
Exact mass: 366.1071840435
SMILES: CC1=CC(=CC=C1SC)OC1=CC=C(C=C1CN(C)C)S(N)(=O)=O
InChI: InChI=1S/C17H22N2O3S2/c1-12-9-14(5-8-17(12)23-4)22-16-7-6-15(24(18,20)21)10-13(16)11-19(2)3/h5-10H,11H2,1-4H3,(H2,18,20,21)
Instrument type: ESI-QTOF
Ms type: MS2
Ion mode: NEGATIVE
Ionization: ESI
Collision energy: 20
Precursor m/z: 365.0999075918
Precursor type: [M-H]-
m/z	relative intensity
164.095512	22
228.052229	10
242.064508	43
243.072333	27
257.087983	64
286.114533	11
307.034233	92
320.042058	26
350.076432	77
365.099908	999
