Mass spectrum: CJ-013610; ESI-QTOF; MS2; CE: 10; [M+H]+
Name: CJ-013610
Name: DTXSID2047272
Formula: C22H23N3O2S
Exact mass: 393.1510977305
SMILES: CC1=NC=CN1C1C=CC(=CC=1)SC1C=C(C=CC=1)C1(CCOCC1)C(N)=O
InChI: InChI=1S/C22H23N3O2S/c1-16-24-11-12-25(16)18-5-7-19(8-6-18)28-20-4-2-3-17(15-20)22(21(23)26)9-13-27-14-10-22/h2-8,11-12,15H,9-10,13-14H2,1H3,(H2,23,26)
Instrument type: ESI-QTOF
Ms type: MS2
Ion mode: POSITIVE
Ionization: ESI
Collision energy: 10
Precursor m/z: 394.1583741822
Precursor type: [M+H]+
m/z	relative intensity
394.1583741822	999
