Mass spectrum: 4-(2-Hydroxyethyl)-1-piperazineethanesulfonic acid; ESI-QTOF; MS2; CE: 40; [M+H]+
Name: 4-(2-Hydroxyethyl)-1-piperazineethanesulfonic acid
Name: DTXSID4044458
Formula: C8H18N2O4S
Exact mass: 238.0987278082
SMILES: [O-]S(=O)(=O)CCN1CC[NH+](CCO)CC1
InChI: InChI=1S/C8H18N2O4S/c11-7-5-9-1-3-10(4-2-9)6-8-15(12,13)14/h11H,1-8H2,(H,12,13,14)
Instrument type: ESI-QTOF
Ms type: MS2
Ion mode: POSITIVE
Ionization: ESI
Collision energy: 40
Precursor m/z: 239.1060042599
Precursor type: [M+H]+
m/z	relative intensity
41.038577	69
42.033826	390
43.054227	62
44.049476	265
45.033491	265
54.033826	10
55.041651	19
56.049476	328
57.057301	20
58.065126	84
64.969176	13
68.049476	69
69.057301	11
70.065126	999
70.098831	21
70.110065	12
71.072951	19
72.080776	16
74.06004	30
82.065126	34
83.060375	25
84.06552	36
84.080776	177
85.076025	21
87.091675	11
88.07569	235
96.080776	14
97.076025	350
98.08385	56
99.091675	438
100.07569	97
102.09134	22
108.995391	54
111.091675	26
112.0995	66
113.107325	17
120.011376	21
128.094414	71
129.102239	13
131.11789	56
134.027026	11
152.03759	86
164.03759	15
192.056314	32
