Mass spectrum: N-(2-Fluorenyl)-2,2,2-trifluoroacetamide; ESI-QTOF; MS2; CE: 40; [M-H]-
Name: N-(2-Fluorenyl)-2,2,2-trifluoroacetamide
Name: DTXSID3020629
Formula: C15H10F3NO
Exact mass: 277.0714485487
SMILES: O=C(NC1=CC2CC3=CC=CC=C3C=2C=C1)C(F)(F)F
InChI: InChI=1S/C15H10F3NO/c16-15(17,18)14(20)19-11-5-6-13-10(8-11)7-9-3-1-2-4-12(9)13/h1-6,8H,7H2,(H,19,20)
Instrument type: ESI-QTOF
Ms type: MS2
Ion mode: NEGATIVE
Ionization: ESI
Collision energy: 40
Precursor m/z: 276.064172097
Precursor type: [M-H]-
m/z	relative intensity
41.998537	44
68.995758	999
69.039554	21
69.05213	10
206.061137	17
