Mass spectrum: 2,7-Acetylaminofluorene; ESI-QTOF; MS2; CE: 40; [M+H]+
Name: 2,7-Acetylaminofluorene
Name: DTXSID9021479
Formula: C17H16N2O2
Exact mass: 280.1211777698
SMILES: CC(=O)NC1C=C2CC3C=C(C=CC=3C2=CC=1)NC(C)=O
InChI: InChI=1S/C17H16N2O2/c1-10(20)18-14-3-5-16-12(8-14)7-13-9-15(19-11(2)21)4-6-17(13)16/h3-6,8-9H,7H2,1-2H3,(H,18,20)(H,19,21)
Instrument type: ESI-QTOF
Ms type: MS2
Ion mode: POSITIVE
Ionization: ESI
Collision energy: 40
Precursor m/z: 281.1284542215
Precursor type: [M+H]+
m/z	relative intensity
43.017841	88
127.054227	10
130.065126	23
144.080776	15
152.062052	27
153.069877	77
156.080776	12
163.054227	11
168.080776	49
170.096426	17
180.080776	999
180.125715	21
181.064791	44
181.088601	503
182.08385	77
194.096426	10
195.091675	103
196.07569	10
196.0995	284
197.083515	19
197.107325	486
198.09134	44
221.107325	14
239.11789	28
