Mass spectrum: 1-Amino-2-propanol; ESI-QTOF; MS2; CE: 40; [M+H]+
Name: 1-Amino-2-propanol
Formula: C3H9NO
Exact mass: 75.0684139168
SMILES: CC(O)CN
InChI: InChI=1S/C3H9NO/c1-3(5)2-4/h3,5H,2,4H2,1H3
Instrument type: ESI-QTOF
Ms type: MS2
Ion mode: POSITIVE
Ionization: ESI
Collision energy: 40
Precursor m/z: 76.0756903685
Precursor type: [M+H]+
m/z	relative intensity
31.017841	60
38.015101	22
39.022927	342
41.038577	66
42.033826	999
43.017841	155
43.041651	382
43.054227	14
44.025666	21
45.033491	20
