Mass spectrum: PharmaGSID_48513; ESI-QTOF; MS2; CE: 20; [M+H]+
Name: PharmaGSID_48513
Formula: C30H30F7N3O3
Exact mass: 613.2175392461
SMILES: CC(C)(C(=O)N(C)C1=CN=C(C=C1C1=CC=C(F)C=C1C)N1CCC(O)C1CO)C1C=C(C=C(C=1)C(F)(F)F)C(F)(F)F
InChI: InChI=1S/C30H30F7N3O3/c1-16-9-20(31)5-6-21(16)22-13-26(40-8-7-25(42)24(40)15-41)38-14-23(22)39(4)27(43)28(2,3)17-10-18(29(32,33)34)12-19(11-17)30(35,36)37/h5-6,9-14,24-25,41-42H,7-8,15H2,1-4H3
Instrument type: ESI-QTOF
Ms type: MS2
Ion mode: POSITIVE
Ionization: ESI
Collision energy: 20
Precursor m/z: 614.2248156978
Precursor type: [M+H]+
m/z	relative intensity
614.224816	999
