Mass spectrum: Methyl glyoxal; ESI-QTOF; MS2; CE: 10; [M+H]+
Name: Methyl glyoxal
Formula: C3H4O2
Exact mass: 72.0211293722
SMILES: CC(=O)C=O
InChI: InChI=1S/C3H4O2/c1-3(5)2-4/h2H,1H3
Instrument type: ESI-QTOF
Ms type: MS2
Ion mode: POSITIVE
Ionization: ESI
Collision energy: 10
Precursor m/z: 73.0284058239
Precursor type: [M+H]+
m/z	relative intensity
29.038577	44
31.017841	227
39.022927	181
41.038577	189
43.017841	140
44.997106	10
45.033491	999
57.033491	30
