Mass spectrum: 1,2,3-Hexanetriol; ESI-QTOF; MS2; CE: 10; [M-H]-
Name: 1,2,3-Hexanetriol
Formula: C6H14O3
Exact mass: 134.0942943135
SMILES: CCCC(O)C(O)CO
InChI: InChI=1S/C6H14O3/c1-2-3-5(8)6(9)4-7/h5-9H,2-4H2,1H3
Instrument type: ESI-QTOF
Ms type: MS2
Ion mode: NEGATIVE
Ionization: ESI
Collision energy: 10
Precursor m/z: 133.0870178618
Precursor type: [M-H]-
m/z	relative intensity
58.006028	20
59.013853	305
71.050238	10
85.065888	19
101.060803	999
101.097189	17
113.060803	31
133.087018	13
