Mass spectrum: 2,4-Dihydroxypyridine; ESI-QTOF; MS2; CE: 10; [M-H]-
Name: 2,4-Dihydroxypyridine
Name: DTXSID90274238
Formula: C5H5NO2
Exact mass: 111.0320284115
SMILES: OC1=CC(O)=NC=C1
InChI: InChI=1S/C5H5NO2/c7-4-1-2-6-5(8)3-4/h1-3H,(H2,6,7,8)
Instrument type: ESI-QTOF
Ms type: MS2
Ion mode: NEGATIVE
Ionization: ESI
Collision energy: 10
Precursor m/z: 110.0247519598
Precursor type: [M-H]-
m/z	relative intensity
39.024024	54
40.019273	23
41.003288	102
65.998537	35
66.034923	621
67.018938	12
68.014187	122
68.998203	92
110.024752	999
