Mass spectrum: Tetraethylenepentamine; ESI-QTOF; MS2; CE: 20; [M+H]+
Name: Tetraethylenepentamine
Formula: C8H23N5
Exact mass: 189.1953457707
SMILES: NCCNCCNCCNCCN
InChI: InChI=1S/C8H23N5/c9-1-3-11-5-7-13-8-6-12-4-2-10/h11-13H,1-10H2
Instrument type: ESI-QTOF
Ms type: MS2
Ion mode: POSITIVE
Ionization: ESI
Collision energy: 20
Precursor m/z: 190.2026222224
Precursor type: [M+H]+
m/z	relative intensity
44.049476	593
56.049476	74
58.065126	49
61.076025	10
70.065126	124
84.0682	25
84.080776	105
85.076025	17
87.091675	999
104.118224	107
113.107325	384
130.133874	175
190.202622	18
