Mass spectrum: Salicylhydroxamic acid; ESI-QTOF; MS2; CE: 40; [M+H]+
Name: Salicylhydroxamic acid
Formula: C7H7NO3
Exact mass: 153.0425930976
SMILES: OC1C=CC=CC=1C(=O)NO
InChI: InChI=1S/C7H7NO3/c9-6-4-2-1-3-5(6)7(10)8-11/h1-4,9,11H,(H,8,10)
Instrument type: ESI-QTOF
Ms type: MS2
Ion mode: POSITIVE
Ionization: ESI
Collision energy: 40
Precursor m/z: 154.0498695493
Precursor type: [M+H]+
m/z	relative intensity
38.015101	16
39.022927	559
41.026001	35
41.038577	54
42.033826	11
43.017841	11
47.00018	30
48.99202	15
51.022927	22
52.018175	49
53.038577	729
54.033826	25
58.065126	39
61.007276	20
63.00767	12
63.022927	192
63.994366	129
64.018175	256
64.030752	257
65.02332	17
65.038577	804
65.99744	42
66.046402	11
79.038971	12
80.025666	13
80.049476	999
81.020915	16
90.033826	125
91.038971	56
92.025666	101
93.033491	27
121.028406	54
