Mass spectrum: 3-Thiatetradecanoic acid; ESI-QTOF; MS2; CE: 10; [M-H]-
Name: 3-Thiatetradecanoic acid
Formula: C13H26O2S
Exact mass: 246.165350804
SMILES: CCCCCCCCCCCSCC(O)=O
InChI: InChI=1S/C13H26O2S/c1-2-3-4-5-6-7-8-9-10-11-16-12-13(14)15/h2-12H2,1H3,(H,14,15)
Instrument type: ESI-QTOF
Ms type: MS2
Ion mode: NEGATIVE
Ionization: ESI
Collision energy: 10
Precursor m/z: 245.1580743523
Precursor type: [M-H]-
m/z	relative intensity
46.996094	999
245.158074	534
