Mass spectrum: 1-(2,6-Dichlorophenyl)-2-indolinone; ESI-QTOF; MS2; CE: 10; [M+H]+
Name: 1-(2,6-Dichlorophenyl)-2-indolinone
Name: DTXSID6046979
Formula: C14H9Cl2NO
Exact mass: 277.0061193368
SMILES: O=C1CC2C=CC=CC=2N1C1C(Cl)=CC=CC=1Cl
InChI: InChI=1S/C14H9Cl2NO/c15-10-5-3-6-11(16)14(10)17-12-7-2-1-4-9(12)8-13(17)18/h1-7H,8H2
Instrument type: ESI-QTOF
Ms type: MS2
Ion mode: POSITIVE
Ionization: ESI
Collision energy: 10
Precursor m/z: 278.0133957885
Precursor type: [M+H]+
m/z	relative intensity
214.041803	26
215.049628	20
278.013396	999
