Mass spectrum: Ethylenesulfonic acid; ESI-QTOF; MS2; CE: 10; [M-H]-
Name: Ethylenesulfonic acid
Name: DTXSID0027513
Formula: C2H4O3S
Exact mass: 107.9881147245
SMILES: C=CS(O)(=O)=O
InChI: InChI=1S/C2H4O3S/c1-2-6(3,4)5/h2H,1H2,(H,3,4,5)
Instrument type: ESI-QTOF
Ms type: MS2
Ion mode: NEGATIVE
Ionization: ESI
Collision energy: 10
Precursor m/z: 106.9808382728
Precursor type: [M-H]-
m/z	relative intensity
43.018938	81
79.957363	365
80.965188	76
106.980838	999
