Mass spectrum: N-(2,4-Dimethylphenyl)acetamide; ESI-QTOF; MS2; CE: 20; [M+H]+
Name: N-(2,4-Dimethylphenyl)acetamide
Name: DTXSID0044868
Formula: C10H13NO
Exact mass: 163.0997140444
SMILES: CC1C=C(C)C(=CC=1)NC(C)=O
InChI: InChI=1S/C10H13NO/c1-7-4-5-10(8(2)6-7)11-9(3)12/h4-6H,1-3H3,(H,11,12)
Instrument type: ESI-QTOF
Ms type: MS2
Ion mode: POSITIVE
Ionization: ESI
Collision energy: 20
Precursor m/z: 164.1069904961
Precursor type: [M+H]+
m/z	relative intensity
43.017841	91
79.054227	11
105.069877	98
106.065126	46
107.072951	662
122.096426	999
123.080441	18
164.10699	72
