Mass spectrum: gamma-Cyclodextrin; ESI-QTOF; MS2; CE: 20; [M+H]+
Name: gamma-Cyclodextrin
Name: DTXSID5047033
Formula: C48H80O40
Exact mass: 1296.422587444
SMILES: OC1C2OC3OC(CO)C(OC4OC(CO)C(OC5OC(CO)C(OC6OC(CO)C(OC7OC(CO)C(OC8OC(CO)C(OC9OC(CO)C(OC(OC2CO)C1O)C(O)C9O)C(O)C8O)C(O)C7O)C(O)C6O)C(O)C5O)C(O)C4O)C(O)C3O
InChI: InChI=1S/C48H80O40/c49-1-9-33-17(57)25(65)41(73-9)82-34-10(2-50)75-43(27(67)19(34)59)84-36-12(4-52)77-45(29(69)21(36)61)86-38-14(6-54)79-47(31(71)23(38)63)88-40-16(8-56)80-48(32(72)24(40)64)87-39-15(7-55)78-46(30(70)22(39)62)85-37-13(5-53)76-44(28(68)20(37)60)83-35-11(3-51)74-42(81-33)26(66)18(35)58/h9-72H,1-8H2
Instrument type: ESI-QTOF
Ms type: MS2
Ion mode: POSITIVE
Ionization: ESI
Collision energy: 20
Precursor m/z: 1297.4298638957
Precursor type: [M+H]+
m/z	relative intensity
85.028406	20
127.038971	54
145.049535	58
146.05736	12
163.0601	78
289.091794	36
325.112923	999
325.179821	15
325.216207	11
326.114875	45
342.021763	10
343.008458	19
345.008852	11
355.065973	25
372.099225	15
373.101177	23
430.089448	15
432.093352	19
445.122306	14
446.120748	15
448.124652	14
451.138744	12
487.165747	725
488.161825	22
505.10354	18
557.038577	29
577.122306	10
595.17513	10
649.21857	458
650.220522	57
757.249082	10
811.274903	358
812.273345	85
937.297214	16
973.324217	205
974.341425	45
979.480324	14
