Mass spectrum: Thiocyanic acid; ESI-QTOF; MS2; CE: 10; [M-H]-
Name: Thiocyanic acid
Name: DTXSID3029653
Name: Sulfocyanic acid
Formula: CHNS
Exact mass: 58.9829697693
SMILES: N#CS
InChI: InChI=1S/CHNS/c2-1-3/h3H
Instrument type: ESI-QTOF
Ms type: MS2
Ion mode: NEGATIVE
Ionization: ESI
Collision energy: 10
Precursor m/z: 57.9756933176
Precursor type: [M-H]-
m/z	relative intensity
57.975693	999
