Mass spectrum: 2-Ethyl-4-methyl-1H-imidazole; ESI-QTOF; MS2; CE: 20; [M+H]+
Name: 2-Ethyl-4-methyl-1H-imidazole
Formula: C6H10N2
Exact mass: 110.0843983338
SMILES: CC1=CNC(CC)=N1
InChI: InChI=1S/C6H10N2/c1-3-6-7-4-5(2)8-6/h4H,3H2,1-2H3,(H,7,8)
Instrument type: ESI-QTOF
Ms type: MS2
Ion mode: POSITIVE
Ionization: ESI
Collision energy: 20
Precursor m/z: 111.0916747855
Precursor type: [M+H]+
m/z	relative intensity
42.033826	13
55.041651	11
56.049476	720
57.057301	18
81.044725	78
83.060375	213
95.060375	43
96.0682	959
111.091675	999
