Mass spectrum: SSR504734; ESI-QTOF; MS2; CE: 40; [M+H]+
Name: SSR504734
Name: DTXSID3047348
Formula: C20H20ClF3N2O
Exact mass: 396.1216255851
SMILES: O=C(NC(C1CCCCN1)C1C=CC=CC=1)C1=CC=CC(=C1Cl)C(F)(F)F
InChI: InChI=1S/C20H20ClF3N2O/c21-17-14(9-6-10-15(17)20(22,23)24)19(27)26-18(13-7-2-1-3-8-13)16-11-4-5-12-25-16/h1-3,6-10,16,18,25H,4-5,11-12H2,(H,26,27)
Instrument type: ESI-QTOF
Ms type: MS2
Ion mode: POSITIVE
Ionization: ESI
Collision energy: 40
Precursor m/z: 397.1289020368
Precursor type: [M+H]+
m/z	relative intensity
55.054227	12
56.049476	15
70.065126	18
79.054227	20
82.065126	30
83.072951	24
84.080776	48
91.054227	331
96.080776	56
115.054227	66
117.069877	17
119.072951	10
128.062052	16
129.069877	245
131.085527	22
132.080776	13
142.077702	10
146.096426	177
157.101177	20
174.127726	999
178.986989	71
206.980761	710
207.035303	32
207.055289	17
