Mass spectrum: Dulcin; ESI-QTOF; MS2; CE: 20; [M+H]+
Name: Dulcin
Name: DTXSID9020580
Formula: C9H12N2O2
Exact mass: 180.0898776422
SMILES: CCOC1C=CC(=CC=1)NC(N)=O
InChI: InChI=1S/C9H12N2O2/c1-2-13-8-5-3-7(4-6-8)11-9(10)12/h3-6H,2H2,1H3,(H3,10,11,12)
Instrument type: ESI-QTOF
Ms type: MS2
Ion mode: POSITIVE
Ionization: ESI
Collision energy: 20
Precursor m/z: 181.0971540939
Precursor type: [M+H]+
m/z	relative intensity
44.01309	10
65.038577	109
80.049476	12
81.033491	40
82.065126	34
92.049476	92
93.033491	166
93.057301	57
101.002191	20
108.04439	999
108.080776	19
109.052215	46
110.06004	745
110.096426	13
136.039305	18
136.07569	379
138.09134	302
181.097154	47
