Mass spectrum: dl-Norgestrel; ESI-QTOF; MS2; CE: 40; [M+H]+
Name: dl-Norgestrel
Name: DTXSID3047477
Formula: C21H28O2
Exact mass: 312.2089301378
SMILES: CCC12CCC3C4CCC(=O)C=C4CCC3C1CCC2(O)C#C
InChI: InChI=1S/C21H28O2/c1-3-20-11-9-17-16-8-6-15(22)13-14(16)5-7-18(17)19(20)10-12-21(20,23)4-2/h2,13,16-19,23H,3,5-12H2,1H3
Instrument type: ESI-QTOF
Ms type: MS2
Ion mode: POSITIVE
Ionization: ESI
Collision energy: 40
Precursor m/z: 313.2162065895
Precursor type: [M+H]+
m/z	relative intensity
41.038577	205
43.017841	53
43.054227	101
53.038577	23
55.017841	102
55.054227	317
57.069877	58
65.038577	69
67.017841	19
67.054227	489
69.033491	13
69.069877	156
77.038577	199
79.054227	674
81.033491	28
81.069877	508
83.049141	749
83.085527	23
91.054227	935
93.033491	25
93.069877	359
95.049141	34
95.085527	234
97.064791	49
103.054227	79
104.062052	63
105.069877	647
107.049141	277
107.085527	216
109.064791	999
109.101177	102
111.080441	21
115.054227	77
116.062052	55
117.069877	343
119.085527	261
121.064791	24
121.101177	39
123.080441	75
123.116827	57
125.059706	24
127.054227	34
128.062052	173
128.083181	16
129.069877	311
130.077702	97
131.085527	300
133.064791	48
133.101177	132
134.072616	11
135.080441	343
135.116827	67
137.096091	27
137.132477	10
141.069877	125
142.077702	164
143.085527	194
144.093352	23
145.064791	33
145.101177	199
146.072616	24
147.080441	34
147.116827	34
148.088266	25
149.096091	131
149.132477	20
152.062052	18
153.069877	37
154.077702	21
155.085527	127
156.093352	64
157.064791	20
157.101177	93
158.109002	34
159.080441	25
159.116827	36
161.096091	87
161.132477	25
162.103916	13
163.111742	34
163.148127	24
165.069877	20
166.077702	47
167.085527	60
169.101177	54
170.109002	32
171.116827	105
173.096091	20
173.132477	20
175.111742	26
175.148127	15
177.127392	17
179.085527	82
180.093352	10
181.101177	73
183.116827	29
185.096091	22
185.132477	63
187.111742	32
187.148127	10
188.119567	18
189.127392	24
191.085527	21
193.101177	14
194.109002	11
195.116827	59
196.088266	10
196.124652	23
197.132477	48
198.140302	11
203.143042	20
205.101177	47
206.109002	12
207.116827	23
209.132477	15
211.111742	17
216.150867	18
219.116827	32
220.124652	28
225.163777	40
227.179427	30
239.143042	14
245.189992	12
