Mass spectrum: Triethylene glycol diacetate; ESI-QTOF; MS2; CE: 10; [M+H]+
Name: Triethylene glycol diacetate
Formula: C10H18O6
Exact mass: 234.110338308
SMILES: CC(=O)OCCOCCOCCOC(C)=O
InChI: InChI=1S/C10H18O6/c1-9(11)15-7-5-13-3-4-14-6-8-16-10(2)12/h3-8H2,1-2H3
Instrument type: ESI-QTOF
Ms type: MS2
Ion mode: POSITIVE
Ionization: ESI
Collision energy: 10
Precursor m/z: 235.1176147597
Precursor type: [M+H]+
m/z	relative intensity
43.017841	26
87.044056	999
87.080441	19
