Mass spectrum: 1,3-Cyclohexanedione; ESI-QTOF; MS2; CE: 20; [M+H]+
Name: 1,3-Cyclohexanedione
Name: DTXSID1044433
Formula: C6H8O2
Exact mass: 112.0524294998
SMILES: O=C1CC(=O)CCC1
InChI: InChI=1S/C6H8O2/c7-5-2-1-3-6(8)4-5/h1-4H2
Instrument type: ESI-QTOF
Ms type: MS2
Ion mode: POSITIVE
Ionization: ESI
Collision energy: 20
Precursor m/z: 113.0597059515
Precursor type: [M+H]+
m/z	relative intensity
39.022927	11
41.038577	161
43.017841	327
43.054227	14
55.017841	486
55.054227	32
57.033491	28
57.069877	21
65.038577	78
67.054227	287
71.012756	339
71.049141	71
77.038577	101
82.041316	14
83.049141	23
95.049141	118
111.044056	11
113.059706	999
