Mass spectrum: 4-(Hydroxymethyl)-4-methyl-1-phenylpyrazolidin-3-one; ESI-QTOF; MS2; CE: 10; [M+H]+
Name: 4-(Hydroxymethyl)-4-methyl-1-phenylpyrazolidin-3-one
Name: DTXSID9044794
Formula: C11H14N2O2
Exact mass: 206.105527706
SMILES: CC1(CO)CN(NC1=O)C1C=CC=CC=1
InChI: InChI=1S/C11H14N2O2/c1-11(8-14)7-13(12-10(11)15)9-5-3-2-4-6-9/h2-6,14H,7-8H2,1H3,(H,12,15)
Instrument type: ESI-QTOF
Ms type: MS2
Ion mode: POSITIVE
Ionization: ESI
Collision energy: 10
Precursor m/z: 207.1128041577
Precursor type: [M+H]+
m/z	relative intensity
41.038577	13
59.049141	11
94.065126	13
106.065126	18
117.057301	10
118.065126	22
121.076025	294
131.072951	11
134.096426	81
146.096426	161
160.07569	530
162.09134	13
171.091675	14
175.086589	17
176.094414	53
177.091006	10
207.112804	999
