Mass spectrum: PharmaGSID_48507; ESI-QTOF; MS2; CE: 20; [M-H]-
Name: PharmaGSID_48507
Name: DTXSID0048507
Formula: C18H18F2N4O3
Exact mass: 376.1346968707
SMILES: CN1C(=O)C=C(OC2C=CC(F)=CC=2F)C2C=NC(NCC(C)(C)O)=NC1=2
InChI: InChI=1S/C18H18F2N4O3/c1-18(2,26)9-22-17-21-8-11-14(7-15(25)24(3)16(11)23-17)27-13-5-4-10(19)6-12(13)20/h4-8,26H,9H2,1-3H3,(H,21,22,23)
Instrument type: ESI-QTOF
Ms type: MS2
Ion mode: NEGATIVE
Ionization: ESI
Collision energy: 20
Precursor m/z: 375.127420419
Precursor type: [M-H]-
m/z	relative intensity
103.030172	15
129.015745	299
176.04655	76
203.057449	12
204.065274	10
254.035985	21
270.068428	32
290.074657	40
297.079327	21
303.069906	58
317.085556	999
318.088415	15
375.12742	197
