Mass spectrum: 3-Methyl-3,4-dihydro-2H-1,4-benzoxazine; ESI-QTOF; MS2; CE: 40; [M+H]+
Name: 3-Methyl-3,4-dihydro-2H-1,4-benzoxazine
Name: DTXSID8044915
Formula: C9H11NO
Exact mass: 149.0840639806
SMILES: CC1COC2C=CC=CC=2N1
InChI: InChI=1S/C9H11NO/c1-7-6-11-9-5-3-2-4-8(9)10-7/h2-5,7,10H,6H2,1H3
Instrument type: ESI-QTOF
Ms type: MS2
Ion mode: POSITIVE
Ionization: ESI
Collision energy: 40
Precursor m/z: 150.0913404323
Precursor type: [M+H]+
m/z	relative intensity
39.022927	176
41.038577	13
51.022927	24
53.038577	267
55.017841	13
56.049476	17
57.057301	26
65.038577	577
66.033826	15
66.046402	18
77.038577	50
80.049476	999
89.038577	15
92.049476	53
93.033491	20
106.065126	14
108.04439	12
109.052215	16
117.057301	15
120.04439	61
