Mass spectrum: Hexamethylphosphoramide; ESI-QTOF; MS2; CE: 40; [M+H]+
Name: Hexamethylphosphoramide
Name: DTXSID6020694
Formula: C6H18N3OP
Exact mass: 179.1187487087
SMILES: CN(C)P(=O)(N(C)C)N(C)C
InChI: InChI=1S/C6H18N3OP/c1-7(2)11(10,8(3)4)9(5)6/h1-6H3
Instrument type: ESI-QTOF
Ms type: MS2
Ion mode: POSITIVE
Ionization: ESI
Collision energy: 40
Precursor m/z: 180.1260251604
Precursor type: [M+H]+
m/z	relative intensity
42.033826	57
44.049476	999
44.074938	37
46.065126	11
46.968128	25
48.983778	21
59.999762	37
62.999428	11
73.076025	62
75.994677	61
90.010327	13
91.018152	42
92.025977	123
106.041627	17
135.068176	55
