Mass spectrum: N-Methylacetoacetamide; ESI-QTOF; MS2; CE: 40; [M+H]+
Name: N-Methylacetoacetamide
Name: DTXSID9040138
Formula: C5H9NO2
Exact mass: 115.0633285391
SMILES: CC(=O)CC(=O)NC
InChI: InChI=1S/C5H9NO2/c1-4(7)3-5(8)6-2/h3H2,1-2H3,(H,6,8)
Instrument type: ESI-QTOF
Ms type: MS2
Ion mode: POSITIVE
Ionization: ESI
Collision energy: 40
Precursor m/z: 116.0706049908
Precursor type: [M+H]+
m/z	relative intensity
32.049476	22
39.022927	20
41.026001	11
41.038577	15
43.017841	999
43.041651	18
43.054227	12
45.033491	11
55.054227	12
56.049476	23
58.02874	177
70.065126	42
85.028406	21
