Mass spectrum: N-(4-Methoxyphenyl)-3-oxobutanamide; ESI-QTOF; MS2; CE: 10; [M+H]+
Name: N-(4-Methoxyphenyl)-3-oxobutanamide
Name: DTXSID7044689
Formula: C11H13NO3
Exact mass: 207.089543289
SMILES: CC(=O)CC(=O)NC1C=CC(=CC=1)OC
InChI: InChI=1S/C11H13NO3/c1-8(13)7-11(14)12-9-3-5-10(15-2)6-4-9/h3-6H,7H2,1-2H3,(H,12,14)
Instrument type: ESI-QTOF
Ms type: MS2
Ion mode: POSITIVE
Ionization: ESI
Collision energy: 10
Precursor m/z: 208.0968197407
Precursor type: [M+H]+
m/z	relative intensity
43.017841	81
59.049141	112
85.028406	22
93.057301	11
122.06004	43
124.07569	999
124.112076	25
148.07569	29
150.054955	170
190.086255	82
208.09682	210
