Mass spectrum: Letrozole; ESI-QTOF; MS2; CE: 40; [M-H]-
Name: Letrozole
Name: Letocor
Name: Letoripe
Name: Lerozole
Name: Femara
Formula: C17H11N5
Exact mass: 285.1014453879
SMILES: N#CC1C=CC(=CC=1)C(C1C=CC(=CC=1)C#N)N1C=NC=N1
InChI: InChI=1S/C17H11N5/c18-9-13-1-5-15(6-2-13)17(22-12-20-11-21-22)16-7-3-14(10-19)4-8-16/h1-8,11-12,17H
Instrument type: ESI-QTOF
Ms type: MS2
Ion mode: NEGATIVE
Ionization: ESI
Collision energy: 40
Precursor m/z: 284.0941689362
Precursor type: [M-H]-
m/z	relative intensity
40.006697	11
41.014522	20
66.009771	101
102.034923	588
126.034923	19
127.030172	393
141.045822	312
142.041071	19
215.061472	999
216.069297	12
240.056721	303
242.072371	387
