Mass spectrum: Ilepatril; ESI-QTOF; MS2; CE: 40; [M+H]+
Name: Ilepatril
Name: DTXSID7047356
Formula: C22H28N2O5S
Exact mass: 432.1718927495
SMILES: CC(=O)SC(C(C)C)C(=O)NC1CC2C=CC=CC=2C2CCCC(C(O)=O)N2C1=O
InChI: InChI=1S/C22H28N2O5S/c1-12(2)19(30-13(3)25)20(26)23-16-11-14-7-4-5-8-15(14)17-9-6-10-18(22(28)29)24(17)21(16)27/h4-5,7-8,12,16-19H,6,9-11H2,1-3H3,(H,23,26)(H,28,29)
Instrument type: ESI-QTOF
Ms type: MS2
Ion mode: POSITIVE
Ionization: ESI
Collision energy: 40
Precursor m/z: 433.1791692012
Precursor type: [M+H]+
m/z	relative intensity
43.017841	144
55.054227	52
56.049476	48
69.033491	26
83.049141	10
85.028406	11
89.041947	378
91.054227	14
107.085527	64
108.093352	30
119.085527	126
120.089329	61
128.070605	10
129.069877	11
131.052512	189
131.085527	15
135.080441	40
136.084244	24
141.069877	70
143.085527	10
146.096426	41
156.080776	32
158.096426	105
167.085527	44
169.101177	27
170.096426	21
182.096426	70
184.112076	999
184.157015	23
184.182167	13
186.127726	48
201.138625	54
202.122641	53
212.10699	14
216.101905	28
228.101905	109
229.13354	62
230.117555	565
247.144104	25
317.168211	37
345.163125	26
