Mass spectrum: PharmaGSID_48172; ESI-QTOF; MS2; CE: 40; [M+H]+
Name: PharmaGSID_48172
Name: DTXSID1048172
Formula: C23H24N4O3S
Exact mass: 436.1569113921
SMILES: O=C1C2C=CC=CC=2C(=O)N1CCC1N=C(ON=1)C1=CC=C(CN2CCCCCC2)S1
InChI: InChI=1S/C23H24N4O3S/c28-22-17-7-3-4-8-18(17)23(29)27(22)14-11-20-24-21(30-25-20)19-10-9-16(31-19)15-26-12-5-1-2-6-13-26/h3-4,7-10H,1-2,5-6,11-15H2
Instrument type: ESI-QTOF
Ms type: MS2
Ion mode: POSITIVE
Ionization: ESI
Collision energy: 40
Precursor m/z: 437.1641878438
Precursor type: [M+H]+
m/z	relative intensity
96.002822	28
97.010647	62
98.096426	67
110.005896	16
121.010647	15
122.005896	12
123.026297	12
123.997737	66
129.033491	29
130.028088	51
137.016795	13
138.000811	49
147.044056	205
148.021546	115
160.039305	109
163.032445	18
164.015118	27
165.01171	17
172.037962	10
174.054955	999
174.103916	24
174.125046	13
175.050204	106
191.02736	64
199.050204	14
242.056018	70
310.064474	17
338.058698	87
