Mass spectrum: Butane-1,4-diyl bis(2-methylprop-2-enoate); ESI-QTOF; MS2; CE: 40; [M+H]+
Name: Butane-1,4-diyl bis(2-methylprop-2-enoate)
Name: DTXSID4044870
Formula: C12H18O4
Exact mass: 226.1205090634
SMILES: CC(=C)C(=O)OCCCCOC(=O)C(C)=C
InChI: InChI=1S/C12H18O4/c1-9(2)11(13)15-7-5-6-8-16-12(14)10(3)4/h1,3,5-8H2,2,4H3
Instrument type: ESI-QTOF
Ms type: MS2
Ion mode: POSITIVE
Ionization: ESI
Collision energy: 40
Precursor m/z: 227.1277855151
Precursor type: [M+H]+
m/z	relative intensity
29.038577	18
39.022927	47
41.038577	999
41.059706	11
45.033491	46
55.054227	572
57.033491	24
59.049141	203
63.994366	44
67.054227	20
69.033491	119
87.044056	15
91.054227	35
105.069877	37
