Mass spectrum: AVE3247; ESI-QTOF; MS2; CE: 40; [M-H]-
Name: AVE3247
Name: DTXSID4047383
Formula: C25H24ClN5O4S
Exact mass: 525.1237527318
SMILES: OC(=O)C1C=C2N=C(C(=O)NC3CCN(CC3)C3CC3)N(CC3C=C(ON=3)C3=CC=C(Cl)S3)C2=CC=1
InChI: InChI=1S/C25H24ClN5O4S/c26-22-6-5-21(36-22)20-12-16(29-35-20)13-31-19-4-1-14(25(33)34)11-18(19)28-23(31)24(32)27-15-7-9-30(10-8-15)17-2-3-17/h1,4-6,11-12,15,17H,2-3,7-10,13H2,(H,27,32)(H,33,34)
Instrument type: ESI-QTOF
Ms type: MS2
Ion mode: NEGATIVE
Ionization: ESI
Collision energy: 40
Precursor m/z: 524.1164762801
Precursor type: [M-H]-
m/z	relative intensity
65.003288	13
65.998537	239
80.980444	10
81.975693	12
83.050238	10
116.957122	19
117.045822	12
118.983518	23
120.003919	18
147.986258	290
169.064546	21
183.939126	19
183.962936	999
184.01525	11
184.96471	15
197.05946	16
223.032002	23
245.05861	15
250.042249	25
255.125135	17
277.030681	35
278.038506	96
282.14861	22
283.157778	27
313.004838	20
314.016034	27
444.149969	22
