Mass spectrum: Octyl sulfate; ESI-QTOF; MS2; CE: 40; [M-H]-
Name: Octyl sulfate
Name: DTXSID9036226
Formula: C8H18O4S
Exact mass: 210.0925797934
SMILES: CCCCCCCCOS(O)(=O)=O
InChI: InChI=1S/C8H18O4S/c1-2-3-4-5-6-7-8-12-13(9,10)11/h2-8H2,1H3,(H,9,10,11)
Instrument type: ESI-QTOF
Ms type: MS2
Ion mode: NEGATIVE
Ionization: ESI
Collision energy: 40
Precursor m/z: 209.0853033417
Precursor type: [M-H]-
m/z	relative intensity
79.957363	363
79.990378	11
95.952278	81
96.960103	999
96.996488	47
97.011744	26
