Mass spectrum: 4-Methoxy-2-methylaniline; ESI-QTOF; MS2; CE: 40; [M+H]+
Name: 4-Methoxy-2-methylaniline
Formula: C8H11NO
Exact mass: 137.0840639806
SMILES: CC1C=C(C=CC=1N)OC
InChI: InChI=1S/C8H11NO/c1-6-5-7(10-2)3-4-8(6)9/h3-5H,9H2,1-2H3
Instrument type: ESI-QTOF
Ms type: MS2
Ion mode: POSITIVE
Ionization: ESI
Collision energy: 40
Precursor m/z: 138.0913404323
Precursor type: [M+H]+
m/z	relative intensity
39.022927	196
41.038577	67
50.015101	87
51.022927	384
52.030752	531
52.07569	11
53.038577	193
54.033826	17
54.046402	14
55.017841	12
63.022927	87
65.038577	472
66.046402	72
67.054227	34
76.030752	39
77.038577	701
77.083515	12
78.046402	999
78.09134	22
79.054227	105
80.049476	788
81.057301	47
89.038577	30
90.046402	13
91.054227	129
92.049476	12
92.062052	15
93.057301	98
94.065126	241
95.072951	30
105.033491	15
106.041316	10
106.065126	290
107.072951	44
108.04439	312
108.080776	10
109.052215	22
122.06004	48
