Mass spectrum: 1-Hydroxybenzotriazole; ESI-QTOF; MS2; CE: 20; [M+H]+
Name: 1-Hydroxybenzotriazole
Name: DTXSID3044627
Formula: C6H5N3O
Exact mass: 135.043261804
SMILES: ON1N=NC2C=CC=CC1=2
InChI: InChI=1S/C6H5N3O/c10-9-6-4-2-1-3-5(6)7-8-9/h1-4,10H
Instrument type: ESI-QTOF
Ms type: MS2
Ion mode: POSITIVE
Ionization: ESI
Collision energy: 20
Precursor m/z: 136.0505382557
Precursor type: [M+H]+
m/z	relative intensity
41.026001	29
52.018175	36
53.038577	96
63.022927	52
64.030752	186
65.026001	22
77.038577	50
78.046402	58
80.049476	37
90.033826	10
91.041651	999
119.047799	167
136.050538	309
