Mass spectrum: 4,5-Dihydroxy-1,3-dimethylimidazolidin-2-one; ESI-QTOF; MS2; CE: 20; [M+H]+
Name: 4,5-Dihydroxy-1,3-dimethylimidazolidin-2-one
Name: DTXSID1044934
Formula: C5H10N2O3
Exact mass: 146.0691422007
SMILES: CN1C(O)C(O)N(C)C1=O
InChI: InChI=1S/C5H10N2O3/c1-6-3(8)4(9)7(2)5(6)10/h3-4,8-9H,1-2H3
Instrument type: ESI-QTOF
Ms type: MS2
Ion mode: POSITIVE
Ionization: ESI
Collision energy: 20
Precursor m/z: 147.0764186524
Precursor type: [M+H]+
m/z	relative intensity
32.049476	61
42.033826	17
44.049476	841
58.02874	381
71.060375	12
72.04439	999
72.080776	17
89.070939	144
90.054955	13
147.076419	450
