Mass spectrum: 4-Pentylaniline; ESI-QTOF; MS2; CE: 10; [M+H]+
Name: 4-Pentylaniline
Name: DTXSID0040707
Formula: C11H17N
Exact mass: 163.1360995497
SMILES: CCCCCC1C=CC(N)=CC=1
InChI: InChI=1S/C11H17N/c1-2-3-4-5-10-6-8-11(12)9-7-10/h6-9H,2-5,12H2,1H3
Instrument type: ESI-QTOF
Ms type: MS2
Ion mode: POSITIVE
Ionization: ESI
Collision energy: 10
Precursor m/z: 164.1433760014
Precursor type: [M+H]+
m/z	relative intensity
43.054227	38
91.054227	14
94.065126	56
164.143376	999
