Mass spectrum: Methyl citronellate; ESI-QTOF; MS2; CE: 10; [M-H]-
Name: Methyl citronellate
Name: DTXSID0047408
Formula: C11H20O2
Exact mass: 184.1463298826
SMILES: CC(C)=CCCC(C)CC(=O)OC
InChI: InChI=1S/C11H20O2/c1-9(2)6-5-7-10(3)8-11(12)13-4/h6,10H,5,7-8H2,1-4H3
Instrument type: ESI-QTOF
Ms type: MS2
Ion mode: NEGATIVE
Ionization: ESI
Collision energy: 10
Precursor m/z: 183.1390534309
Precursor type: [M-H]-
m/z	relative intensity
37.102274	44
43.018938	102
55.018938	153
56.026763	73
57.034588	329
59.013853	54
60.021678	14
61.008374	14
62.016199	17
66.011113	21
68.998203	506
69.034588	82
73.008374	20
75.024024	54
79.990378	20
83.013853	99
83.050238	96
85.008374	558
85.029503	208
90.011113	100
92.026763	66
94.006028	37
95.050238	99
97.029503	39
99.081539	43
101.039674	11
111.045153	131
111.081539	39
113.003288	15
113.060803	71
118.006028	31
119.013853	26
120.021678	47
122.037328	52
123.024024	167
123.045153	24
125.003288	93
127.112839	999
127.149224	17
128.026763	227
128.063149	26
132.021678	110
134.073714	25
135.024024	106
137.097189	27
138.011113	20
142.042413	74
147.081539	14
152.998203	90
156.021678	10
159.081539	21
165.092103	30
169.123403	304
181.123403	148
183.139053	91
