Mass spectrum: (1,1-Dimethylethyl)urea; ESI-QTOF; MS2; CE: 10; [M+H]+
Name: (1,1-Dimethylethyl)urea
Formula: C5H12N2O
Exact mass: 116.0949630199
SMILES: CC(C)(C)NC(N)=O
InChI: InChI=1S/C5H12N2O/c1-5(2,3)7-4(6)8/h1-3H3,(H3,6,7,8)
Instrument type: ESI-QTOF
Ms type: MS2
Ion mode: POSITIVE
Ionization: ESI
Collision energy: 10
Precursor m/z: 117.1022394716
Precursor type: [M+H]+
m/z	relative intensity
41.038577	15
44.01309	25
57.069877	193
61.039639	999
61.064791	27
117.102239	103
