Mass spectrum: Triallyl trimellitate; ESI-QTOF; MS2; CE: 10; [M+H]+
Name: Triallyl trimellitate
Name: DTXSID4044901
Formula: C18H18O6
Exact mass: 330.110338308
SMILES: C=CCOC(=O)C1=CC=C(C=C1C(=O)OCC=C)C(=O)OCC=C
InChI: InChI=1S/C18H18O6/c1-4-9-22-16(19)13-7-8-14(17(20)23-10-5-2)15(12-13)18(21)24-11-6-3/h4-8,12H,1-3,9-11H2
Instrument type: ESI-QTOF
Ms type: MS2
Ion mode: POSITIVE
Ionization: ESI
Collision energy: 10
Precursor m/z: 331.1176147597
Precursor type: [M+H]+
m/z	relative intensity
41.038577	803
41.059706	16
79.054227	19
81.069877	659
175.002585	423
193.01315	21
273.07575	999
331.117615	10
