Mass spectrum: C.I. Direct Yellow 12; ESI-QTOF; MS2; CE: 40; [M-H]-
Name: C.I. Direct Yellow 12
Name: DTXSID5041728
Formula: C30H28N4O8S2
Exact mass: 636.1348553612
SMILES: CCOC1C=CC(=CC=1)/N=N/C1C=C(C(/C=C/C2=CC=C(C=C2S(O)(=O)=O)/N=N/C2C=CC(=CC=2)OCC)=CC=1)S(O)(=O)=O
InChI: InChI=1S/C30H28N4O8S2/c1-3-41-27-15-11-23(12-16-27)31-33-25-9-7-21(29(19-25)43(35,36)37)5-6-22-8-10-26(20-30(22)44(38,39)40)34-32-24-13-17-28(18-14-24)42-4-2/h5-20H,3-4H2,1-2H3,(H,35,36,37)(H,38,39,40)/b6-5+,33-31+,34-32+
Instrument type: ESI-QTOF
Ms type: MS2
Ion mode: NEGATIVE
Ionization: ESI
Collision energy: 40
Precursor m/z: 635.1275789095
Precursor type: [M-H]-
m/z	relative intensity
79.957363	683
79.990378	12
80.965188	29
170.004313	11
182.99822	19
261.02136	10
274.030528	13
289.02816	75
303.007425	26
304.064211	11
318.067285	102
337.992428	37
345.055757	14
349.05197	10
365.053626	14
377.05946	12
379.062066	11
391.075801	40
393.054375	20
394.0622	13
394.098586	11
405.088771	18
405.121312	11
406.098586	40
407.068036	22
407.093366	10
422.094191	32
429.007447	14
433.161817	13
442.025815	14
443.03701	12
449.127562	12
457.016966	28
462.171082	10
471.031925	215
485.047575	17
485.090486	48
486.0554	345
486.118966	10
497.117014	11
498.124839	11
513.120443	66
514.128268	99
526.128959	34
541.118729	46
542.126554	86
555.11394	10
555.170764	191
571.165679	15
578.082306	10
606.088454	127
635.127579	999
