Mass spectrum: 1-Chloro-2-hydroxypropane-3-sulfonic acid; ESI-QTOF; MS2; CE: 20; [M-H]-
Name: 1-Chloro-2-hydroxypropane-3-sulfonic acid
Formula: C3H7ClO4S
Exact mass: 173.9753571525
SMILES: OC(CCl)CS(O)(=O)=O
InChI: InChI=1S/C3H7ClO4S/c4-1-3(5)2-9(6,7)8/h3,5H,1-2H2,(H,6,7,8)
Instrument type: ESI-QTOF
Ms type: MS2
Ion mode: NEGATIVE
Ionization: ESI
Collision energy: 20
Precursor m/z: 172.9680807008
Precursor type: [M-H]-
m/z	relative intensity
34.969401	999
34.996094	23
63.962449	12
78.985924	63
79.957363	111
136.991403	13
