Mass spectrum: 7-Amino-4-hydroxynaphthalene-2-sulfonic acid; ESI-QTOF; MS2; CE: 20; [M-H]-
Name: 7-Amino-4-hydroxynaphthalene-2-sulfonic acid
Formula: C10H9NO4S
Exact mass: 239.0252285137
SMILES: NC1=CC2C=C(C=C(O)C=2C=C1)S(O)(=O)=O
InChI: InChI=1S/C10H9NO4S/c11-7-1-2-9-6(3-7)4-8(5-10(9)12)16(13,14)15/h1-5,12H,11H2,(H,13,14,15)
Instrument type: ESI-QTOF
Ms type: MS2
Ion mode: NEGATIVE
Ionization: ESI
Collision energy: 20
Precursor m/z: 238.017952062
Precursor type: [M-H]-
m/z	relative intensity
41.003288	11
79.957363	208
80.965188	23
130.066223	21
132.045487	26
158.061137	65
174.056052	308
238.017952	999
