Mass spectrum: FR145237; ESI-QTOF; MS2; CE: 20; [M+H]+
Name: FR145237
Name: DTXSID6048171
Formula: C30H22ClF3N2O2
Exact mass: 534.1321902712
SMILES: CC1=CC2C(C3C=CC(Cl)=CC=3)=C(CN(CC3C=CC=CC=3)C(=O)NC3C(F)=CC(F)=CC=3F)OC=2C=C1
InChI: InChI=1S/C30H22ClF3N2O2/c1-18-7-12-26-23(13-18)28(20-8-10-21(31)11-9-20)27(38-26)17-36(16-19-5-3-2-4-6-19)30(37)35-29-24(33)14-22(32)15-25(29)34/h2-15H,16-17H2,1H3,(H,35,37)
Instrument type: ESI-QTOF
Ms type: MS2
Ion mode: POSITIVE
Ionization: ESI
Collision energy: 20
Precursor m/z: 535.1394667229
Precursor type: [M+H]+
m/z	relative intensity
91.054227	465
120.080776	999
120.118304	27
255.056432	69
293.089624	80
