Mass spectrum: beta-D-Lactose; ESI-QTOF; MS2; CE: 20; [M-H]-
Name: beta-D-Lactose
Name: DTXSID5058723
Formula: C12H22O11
Exact mass: 342.1162115471
SMILES: O[C@@H]1O[C@H](CO)[C@@H](O[C@@H]2O[C@H](CO)[C@H](O)[C@H](O)[C@H]2O)[C@H](O)[C@H]1O
InChI: InChI=1S/C12H22O11/c13-1-3-5(15)6(16)9(19)12(22-3)23-10-4(2-14)21-11(20)8(18)7(10)17/h3-20H,1-2H2/t3-,4-,5+,6+,7-,8-,9-,10-,11-,12+/m1/s1
Instrument type: ESI-QTOF
Ms type: MS2
Ion mode: NEGATIVE
Ionization: ESI
Collision energy: 20
Precursor m/z: 341.1089350954
Precursor type: [M-H]-
m/z	relative intensity
43.018938	117
44.998203	286
53.039674	11
55.018938	10
57.034588	14
59.013853	611
69.034588	29
71.013853	657
71.050238	17
73.029503	999
73.065888	17
79.018938	38
81.034588	89
83.013853	86
85.008374	19
87.008768	89
87.045153	16
89.024418	590
89.060803	10
97.029503	394
101.024418	895
113.024418	177
115.040068	96
119.034982	77
125.024418	48
128.967691	17
131.034982	39
143.034982	47
149.045547	25
161.045547	164
179.056112	26
221.066676	20
