Mass spectrum: N-Phenyl-1,4-benzenediamine; ESI-QTOF; MS2; CE: 40; [M+H]+
Name: N-Phenyl-1,4-benzenediamine
Formula: C12H12N2
Exact mass: 184.1000483976
SMILES: NC1C=CC(=CC=1)NC1C=CC=CC=1
InChI: InChI=1S/C12H12N2/c13-10-6-8-12(9-7-10)14-11-4-2-1-3-5-11/h1-9,14H,13H2
Instrument type: ESI-QTOF
Ms type: MS2
Ion mode: POSITIVE
Ionization: ESI
Collision energy: 40
Precursor m/z: 185.1073248493
Precursor type: [M+H]+
m/z	relative intensity
53.038577	23
54.033826	13
55.041651	13
65.038577	26
66.046402	33
67.041651	19
80.049476	258
81.057301	262
91.041651	23
93.057301	106
107.060375	282
108.0682	999
167.072951	20
