Mass spectrum: N-(Isobutoxymethyl)acrylamide; ESI-QTOF; MS2; CE: 20; [M-H]-
Name: N-(Isobutoxymethyl)acrylamide
Name: DTXSID2044848
Formula: C8H15NO2
Exact mass: 157.1102787305
SMILES: CC(C)COCNC(=O)C=C
InChI: InChI=1S/C8H15NO2/c1-4-8(10)9-6-11-5-7(2)3/h4,7H,1,5-6H2,2-3H3,(H,9,10)
Instrument type: ESI-QTOF
Ms type: MS2
Ion mode: NEGATIVE
Ionization: ESI
Collision energy: 20
Precursor m/z: 156.1030022788
Precursor type: [M-H]-
m/z	relative intensity
41.998537	173
52.019273	18
71.050238	999
71.086624	13
73.065888	213
84.045487	11
