Mass spectrum: 1-(o-Tolyl)biguanide; ESI-QTOF; MS2; CE: 10; [M-H]-
Name: 1-(o-Tolyl)biguanide
Formula: C9H13N5
Exact mass: 191.1170954517
SMILES: CC1C=CC=CC=1NC(=N)NC(N)=N
InChI: InChI=1S/C9H13N5/c1-6-4-2-3-5-7(6)13-9(12)14-8(10)11/h2-5H,1H3,(H6,10,11,12,13,14)
Instrument type: ESI-QTOF
Ms type: MS2
Ion mode: NEGATIVE
Ionization: ESI
Collision energy: 10
Precursor m/z: 190.109819
Precursor type: [M-H]-
m/z	relative intensity
41.014522	999
41.039674	24
83.03632	894
83.074048	20
83.086624	10
106.066223	227
131.061472	248
148.088021	237
