Mass spectrum: 2-Hydroxybenzophenone; ESI-QTOF; MS2; CE: 40; [M-H]-
Name: 2-Hydroxybenzophenone
Formula: C13H10O2
Exact mass: 198.0680795636
SMILES: OC1=CC=CC=C1C(=O)C1C=CC=CC=1
InChI: InChI=1S/C13H10O2/c14-12-9-5-4-8-11(12)13(15)10-6-2-1-3-7-10/h1-9,14H
Instrument type: ESI-QTOF
Ms type: MS2
Ion mode: NEGATIVE
Ionization: ESI
Collision energy: 40
Precursor m/z: 197.0608031119
Precursor type: [M-H]-
m/z	relative intensity
41.003288	56
42.011113	11
44.998203	21
59.013853	33
65.003288	32
71.013853	32
77.039674	999
90.011113	16
91.018938	68
92.026763	790
92.063149	15
93.034588	26
101.039674	38
108.021678	26
121.029503	73
141.070974	39
151.055324	13
169.065888	31
195.045153	27
197.060803	21
