Mass spectrum: N-(1-Methylheptyl)-N'-phenyl-1,4-benzenediamine; ESI-QTOF; MS2; CE: 10; [M+H]+
Name: N-(1-Methylheptyl)-N'-phenyl-1,4-benzenediamine
Name: DTXSID0027771
Formula: C20H28N2
Exact mass: 296.225248908
SMILES: CCCCCCC(C)NC1C=CC(=CC=1)NC1C=CC=CC=1
InChI: InChI=1S/C20H28N2/c1-3-4-5-7-10-17(2)21-19-13-15-20(16-14-19)22-18-11-8-6-9-12-18/h6,8-9,11-17,21-22H,3-5,7,10H2,1-2H3
Instrument type: ESI-QTOF
Ms type: MS2
Ion mode: POSITIVE
Ionization: ESI
Collision energy: 10
Precursor m/z: 297.2325253597
Precursor type: [M+H]+
m/z	relative intensity
184.0995	274
185.107325	317
297.232525	999
