Mass spectrum: HC Red 3; ESI-QTOF; MS2; CE: 20; [M+H]+
Name: HC Red 3
Name: DTXSID2021236
Formula: C8H11N3O3
Exact mass: 197.08004124
SMILES: NC1=CC(=C(C=C1)NCCO)[N+]([O-])=O
InChI: InChI=1S/C8H11N3O3/c9-6-1-2-7(10-3-4-12)8(5-6)11(13)14/h1-2,5,10,12H,3-4,9H2
Instrument type: ESI-QTOF
Ms type: MS2
Ion mode: POSITIVE
Ionization: ESI
Collision energy: 20
Precursor m/z: 198.0873176917
Precursor type: [M+H]+
m/z	relative intensity
42.033826	10
45.033491	88
80.049476	17
81.044725	21
91.029075	45
94.05255	11
95.060375	144
106.04987	12
107.057695	33
118.039974	34
119.047799	102
120.055624	11
121.076025	10
122.071274	30
132.06552	13
133.063449	999
134.071274	57
136.050538	82
137.070939	44
145.063449	25
146.068594	20
150.066188	29
153.053278	39
162.066188	18
163.074013	29
164.081838	11
180.076753	10
