Mass spectrum: Dipropyl hexanedioate; ESI-QTOF; MS2; CE: 10; [M+H]+
Name: Dipropyl hexanedioate
Formula: C12H22O4
Exact mass: 230.151809191
SMILES: CCCOC(=O)CCCCC(=O)OCCC
InChI: InChI=1S/C12H22O4/c1-3-9-15-11(13)7-5-6-8-12(14)16-10-4-2/h3-10H2,1-2H3
Instrument type: ESI-QTOF
Ms type: MS2
Ion mode: POSITIVE
Ionization: ESI
Collision energy: 10
Precursor m/z: 231.1590856427
Precursor type: [M+H]+
m/z	relative intensity
43.054227	11
55.054227	62
83.049141	47
101.059706	272
111.044056	999
111.080441	13
129.054621	928
129.091006	12
143.106656	59
171.101571	718
231.159086	10
