Mass spectrum: Tetraisopropyl methylenediphosphonate; ESI-QTOF; MS2; CE: 20; [M+H]+
Name: Tetraisopropyl methylenediphosphonate
Name: DTXSID7044847
Formula: C13H30O6P2
Exact mass: 344.1517616708
SMILES: CC(C)OP(=O)(CP(=O)(OC(C)C)OC(C)C)OC(C)C
InChI: InChI=1S/C13H30O6P2/c1-10(2)16-20(14,17-11(3)4)9-21(15,18-12(5)6)19-13(7)8/h10-13H,9H2,1-8H3
Instrument type: ESI-QTOF
Ms type: MS2
Ion mode: POSITIVE
Ionization: ESI
Collision energy: 20
Precursor m/z: 345.1590381225
Precursor type: [M+H]+
m/z	relative intensity
98.984172	14
158.960673	37
176.971237	999
177.022879	34
177.039364	21
219.018188	70
