Mass spectrum: Zenarestat; ESI-QTOF; MS2; CE: 40; [M-H]-
Name: Zenarestat
Formula: C17H11BrClFN2O4
Exact mass: 439.9574756649
SMILES: OC(=O)CN1C2C=C(Cl)C=CC=2C(=O)N(CC2=CC=C(Br)C=C2F)C1=O
InChI: InChI=1S/C17H11BrClFN2O4/c18-10-2-1-9(13(20)5-10)7-22-16(25)12-4-3-11(19)6-14(12)21(17(22)26)8-15(23)24/h1-6H,7-8H2,(H,23,24)
Instrument type: ESI-QTOF
Ms type: MS2
Ion mode: NEGATIVE
Ionization: ESI
Collision energy: 40
Precursor m/z: 438.9501992132
Precursor type: [M-H]-
m/z	relative intensity
34.969401	869
34.993866	12
41.998537	452
42.011113	16
42.998952	27
68.998203	19
78.918886	999
130.029837	98
132.997428	15
134.925115	13
148.988519	13
150.012256	35
151.988185	12
152.930514	36
166.006028	226
172.940765	23
175.006849	11
176.986114	12
177.022499	22
179.001277	39
179.946578	10
195.94035	24
196.960751	10
196.989662	321
203.001277	39
253.017414	162
267.033064	13
281.012329	63
318.940016	20
332.94309	45
346.959227	33
359.930667	29
360.938492	379
361.936226	15
380.94472	86
394.949137	12
