Mass spectrum: 6-Hydroxy-2-naphthyl disulfide; ESI-QTOF; MS2; CE: 40; [M-H]-
Name: 6-Hydroxy-2-naphthyl disulfide
Name: DTXSID7025429
Formula: C20H14O2S2
Exact mass: 350.0435211512
SMILES: OC1C=C2C=CC(=CC2=CC=1)SSC1C=C2C=CC(O)=CC2=CC=1
InChI: InChI=1S/C20H14O2S2/c21-17-5-1-15-11-19(7-3-13(15)9-17)23-24-20-8-4-14-10-18(22)6-2-16(14)12-20/h1-12,21-22H
Instrument type: ESI-QTOF
Ms type: MS2
Ion mode: NEGATIVE
Ionization: ESI
Collision energy: 40
Precursor m/z: 349.0362446995
Precursor type: [M-H]-
m/z	relative intensity
146.01957	64
174.014484	999
174.068628	19
175.022309	131
