Mass spectrum: 3,3'-Sulphonyldianiline; ESI-QTOF; MS2; CE: 10; [M+H]+
Name: 3,3'-Sulphonyldianiline
Name: DTXSID3044962
Formula: C12H12N2O2S
Exact mass: 248.0619483722
SMILES: NC1C=C(C=CC=1)S(=O)(=O)C1=CC(N)=CC=C1
InChI: InChI=1S/C12H12N2O2S/c13-9-3-1-5-11(7-9)17(15,16)12-6-2-4-10(14)8-12/h1-8H,13-14H2
Instrument type: ESI-QTOF
Ms type: MS2
Ion mode: POSITIVE
Ionization: ESI
Collision energy: 10
Precursor m/z: 249.0692248239
Precursor type: [M+H]+
m/z	relative intensity
59.049141	11
92.049476	426
92.083181	10
93.057301	999
93.091006	22
108.04439	30
109.052215	38
156.011376	108
249.069225	666
