Mass spectrum: Salicylhydroxamic acid; ESI-QTOF; MS2; CE: 20; [M+H]+
Name: Salicylhydroxamic acid
Formula: C7H7NO3
Exact mass: 153.0425930976
SMILES: OC1C=CC=CC=1C(=O)NO
InChI: InChI=1S/C7H7NO3/c9-6-4-2-1-3-5(6)7(10)8-11/h1-4,9,11H,(H,8,10)
Instrument type: ESI-QTOF
Ms type: MS2
Ion mode: POSITIVE
Ionization: ESI
Collision energy: 20
Precursor m/z: 154.0498695493
Precursor type: [M+H]+
m/z	relative intensity
39.022927	10
53.038577	35
63.994366	15
65.038577	147
79.017841	51
80.025666	10
80.049476	999
90.033826	91
92.025666	21
93.033491	96
95.049141	10
108.04439	67
119.036565	67
120.020581	26
121.028406	376
136.039305	12
