Mass spectrum: CP-671305; ESI-QTOF; MS2; CE: 40; [M-H]-
Name: CP-671305
Name: DTXSID6047282
Formula: C23H19FN2O7
Exact mass: 454.117629177
SMILES: CC(OC1C=CC(CNC(=O)C2C=CC=NC=2OC2C=C3OCOC3=CC=2)=C(F)C=1)C(O)=O
InChI: InChI=1S/C23H19FN2O7/c1-13(23(28)29)32-15-5-4-14(18(24)9-15)11-26-21(27)17-3-2-8-25-22(17)33-16-6-7-19-20(10-16)31-12-30-19/h2-10,13H,11-12H2,1H3,(H,26,27)(H,28,29)
Instrument type: ESI-QTOF
Ms type: MS2
Ion mode: NEGATIVE
Ionization: ESI
Collision energy: 40
Precursor m/z: 453.1103527253
Precursor type: [M-H]-
m/z	relative intensity
41.998537	136
59.013853	15
71.013853	17
85.029503	11
93.022012	39
94.029837	442
106.029837	12
107.037662	145
108.045487	277
118.029837	230
119.025086	34
121.016927	52
134.024752	338
135.032577	25
136.040402	412
158.061137	12
162.019667	40
183.056386	57
184.064211	18
185.072037	100
211.051301	999
211.106136	18
213.066951	18
227.046216	40
228.054041	521
229.061866	886
229.119381	14
239.046216	110
255.04113	13
256.050098	12
257.05678	802
257.118318	14
