Mass spectrum: 4-Nitrosodiphenylamine; ESI-QTOF; MS2; CE: 20; [M+H]+
Name: 4-Nitrosodiphenylamine
Name: DTXSID1021031
Formula: C12H10N2O
Exact mass: 198.0793129561
SMILES: O=NC1C=CC(=CC=1)NC1C=CC=CC=1
InChI: InChI=1S/C12H10N2O/c15-14-12-8-6-11(7-9-12)13-10-4-2-1-3-5-10/h1-9,13H
Instrument type: ESI-QTOF
Ms type: MS2
Ion mode: POSITIVE
Ionization: ESI
Collision energy: 20
Precursor m/z: 199.0865894078
Precursor type: [M+H]+
m/z	relative intensity
128.049476	13
130.065126	16
154.065126	14
155.072951	13
168.080776	75
169.088601	188
181.076025	999
182.08385	289
184.07569	10
199.086589	740
