Mass spectrum: 4-Isopropylbenzenesulfonic acid; ESI-QTOF; MS2; CE: 40; [M-H]-
Name: 4-Isopropylbenzenesulfonic acid
Name: DTXSID1044932
Formula: C9H12O3S
Exact mass: 200.0507149797
SMILES: CC(C)C1C=CC(=CC=1)S(O)(=O)=O
InChI: InChI=1S/C9H12O3S/c1-7(2)8-3-5-9(6-4-8)13(10,11)12/h3-7H,1-2H3,(H,10,11,12)
Instrument type: ESI-QTOF
Ms type: MS2
Ion mode: NEGATIVE
Ionization: ESI
Collision energy: 40
Precursor m/z: 199.043438528
Precursor type: [M-H]-
m/z	relative intensity
79.957363	999
79.990378	51
80.965188	11
119.050238	445
155.988663	24
183.012138	868
184.019963	18
