Mass spectrum: Phenylphosphonic acid; ESI-QTOF; MS2; CE: 40; [M-H]-
Name: Phenylphosphonic acid
Name: DTXSID2044399
Formula: C6H7O3P
Exact mass: 158.0132805802
SMILES: OP(O)(=O)C1C=CC=CC=1
InChI: InChI=1S/C6H7O3P/c7-10(8,9)6-4-2-1-3-5-6/h1-5H,(H2,7,8,9)
Instrument type: ESI-QTOF
Ms type: MS2
Ion mode: NEGATIVE
Ionization: ESI
Collision energy: 40
Precursor m/z: 157.0060041285
Precursor type: [M-H]-
m/z	relative intensity
62.964139	35
78.959054	999
78.995439	27
