Mass spectrum: SAR115740; ESI-QTOF; MS2; CE: 20; [M+H]+
Name: SAR115740
Name: DTXSID1047366
Formula: C24H17F2N3O
Exact mass: 401.1339685868
SMILES: O=C(NC1C=C2C=CNC2=CC=1)C1=CC2=CC(F)=CC=C2N1CC1=CC(F)=CC=C1
InChI: InChI=1S/C24H17F2N3O/c25-18-3-1-2-15(10-18)14-29-22-7-4-19(26)11-17(22)13-23(29)24(30)28-20-5-6-21-16(12-20)8-9-27-21/h1-13,27H,14H2,(H,28,30)
Instrument type: ESI-QTOF
Ms type: MS2
Ion mode: POSITIVE
Ionization: ESI
Collision energy: 20
Precursor m/z: 402.1412450385
Precursor type: [M+H]+
m/z	relative intensity
83.028955	11
109.044805	892
109.088601	29
109.101177	16
131.060375	436
131.105313	10
132.0682	244
133.076025	29
136.055704	427
136.0995	10
148.055704	78
159.055289	159
162.034968	247
171.055289	78
239.097903	171
241.113553	137
244.093232	999
244.144439	32
245.096091	10
267.092818	127
270.071354	34
293.095892	59
402.141245	98
