Mass spectrum: 4-Isopropylbenzyl alcohol; ESI-QTOF; MS2; CE: 20; [M+H]+
Name: 4-Isopropylbenzyl alcohol
Name: DTXSID0021626
Formula: C10H14O
Exact mass: 150.1044650689
SMILES: CC(C)C1C=CC(CO)=CC=1
InChI: InChI=1S/C10H14O/c1-8(2)10-5-3-9(7-11)4-6-10/h3-6,8,11H,7H2,1-2H3
Instrument type: ESI-QTOF
Ms type: MS2
Ion mode: POSITIVE
Ionization: ESI
Collision energy: 20
Precursor m/z: 151.1117415206
Precursor type: [M+H]+
m/z	relative intensity
61.007276	65
62.015101	14
63.994366	288
79.017841	999
79.054227	19
