Mass spectrum: N-Phenylglycine; ESI-QTOF; MS2; CE: 20; [M+H]+
Name: N-Phenylglycine
Name: DTXSID0027806
Formula: C8H9NO2
Exact mass: 151.0633285391
SMILES: OC(=O)CNC1C=CC=CC=1
InChI: InChI=1S/C8H9NO2/c10-8(11)6-9-7-4-2-1-3-5-7/h1-5,9H,6H2,(H,10,11)
Instrument type: ESI-QTOF
Ms type: MS2
Ion mode: POSITIVE
Ionization: ESI
Collision energy: 20
Precursor m/z: 152.0706049908
Precursor type: [M+H]+
m/z	relative intensity
77.038577	66
78.046402	13
79.017841	14
79.054227	55
93.057301	96
106.065126	999
