Mass spectrum: 2-Chloro-5-nitro-N-phenylbenzamide; ESI-QTOF; MS2; CE: 20; [M-H]-
Name: 2-Chloro-5-nitro-N-phenylbenzamide
Name: DTXSID8040723
Formula: C13H9ClN2O3
Exact mass: 276.0301698788
SMILES: [O-][N+](=O)C1C=C(C(Cl)=CC=1)C(=O)NC1C=CC=CC=1
InChI: InChI=1S/C13H9ClN2O3/c14-12-7-6-10(16(18)19)8-11(12)13(17)15-9-4-2-1-3-5-9/h1-8H,(H,15,17)
Instrument type: ESI-QTOF
Ms type: MS2
Ion mode: NEGATIVE
Ionization: ESI
Collision energy: 20
Precursor m/z: 275.0228934271
Precursor type: [M-H]-
m/z	relative intensity
34.969401	832
155.98578	999
156.993117	11
239.046216	11
