Mass spectrum: N,N,N?,N?-Tetrakis(2-hydroxypropyl)ethylenediamine; ESI-QTOF; MS2; CE: 10; [M+H]+
Name: N,N,N?,N?-Tetrakis(2-hydroxypropyl)ethylenediamine
Formula: C14H32N2O4
Exact mass: 292.2362075248
SMILES: CC(O)CN(CC(C)O)CCN(CC(C)O)CC(C)O
InChI: InChI=1S/C14H32N2O4/c1-11(17)7-15(8-12(2)18)5-6-16(9-13(3)19)10-14(4)20/h11-14,17-20H,5-10H2,1-4H3
Instrument type: ESI-QTOF
Ms type: MS2
Ion mode: POSITIVE
Ionization: ESI
Collision energy: 10
Precursor m/z: 293.2434839765
Precursor type: [M+H]+
m/z	relative intensity
84.080776	11
142.122641	17
160.133205	991
293.243484	999
