Mass spectrum: 2-(Morpholin-4-yldithio)-1,3-benzothiazole; ESI-QTOF; MS2; CE: 20; [M+H]+
Name: 2-(Morpholin-4-yldithio)-1,3-benzothiazole
Formula: C11H12N2OS3
Exact mass: 284.0111752099
SMILES: C1CN(CCO1)SSC1=NC2C=CC=CC=2S1
InChI: InChI=1S/C11H12N2OS3/c1-2-4-10-9(3-1)12-11(15-10)16-17-13-5-7-14-8-6-13/h1-4H,5-8H2
Instrument type: ESI-QTOF
Ms type: MS2
Ion mode: POSITIVE
Ionization: ESI
Collision energy: 20
Precursor m/z: 285.0184516616
Precursor type: [M+H]+
m/z	relative intensity
44.049476	25
56.049476	47
59.990246	42
61.010647	35
74.06004	10
86.06004	89
88.021546	68
89.005562	23
90.037196	53
118.032111	999
118.068497	31
165.977967	35
166.985792	34
167.993617	105
197.950038	13
199.965688	186
