Mass spectrum: 4-Amino-1,2,4-triazole; ESI-QTOF; MS2; CE: 10; [M-H]-
Name: 4-Amino-1,2,4-triazole
Name: DTXSID9033058
Formula: C2H4N4
Exact mass: 84.0435961572
SMILES: NN1C=NN=C1
InChI: InChI=1S/C2H4N4/c3-6-1-4-5-2-6/h1-2H,3H2
Instrument type: ESI-QTOF
Ms type: MS2
Ion mode: NEGATIVE
Ionization: ESI
Collision energy: 10
Precursor m/z: 83.0363197055
Precursor type: [M-H]-
m/z	relative intensity
41.014522	26
56.025421	13
68.025421	999
83.03632	284
