Mass spectrum: 1,2,3-Hexanetriol; ESI-QTOF; MS2; CE: 20; [M-H]-
Name: 1,2,3-Hexanetriol
Formula: C6H14O3
Exact mass: 134.0942943135
SMILES: CCCC(O)C(O)CO
InChI: InChI=1S/C6H14O3/c1-2-3-5(8)6(9)4-7/h5-9H,2-4H2,1H3
Instrument type: ESI-QTOF
Ms type: MS2
Ion mode: NEGATIVE
Ionization: ESI
Collision energy: 20
Precursor m/z: 133.0870178618
Precursor type: [M-H]-
m/z	relative intensity
29.003288	23
31.018938	24
41.003288	46
43.018938	121
44.998203	13
53.039674	10
55.018938	39
56.998203	18
57.034588	26
58.006028	210
59.013853	999
65.039674	11
68.998203	34
71.013853	72
71.050238	90
73.008374	15
73.029503	100
81.034588	56
83.050238	60
85.065888	82
97.065888	12
99.045153	68
101.060803	798
101.097189	12
113.060803	14
