Mass spectrum: 5-Phenyl-1H-tetrazole; ESI-QTOF; MS2; CE: 40; [M+H]+
Name: 5-Phenyl-1H-tetrazole
Name: DTXSID6044858
Formula: C7H6N4
Exact mass: 146.059246221
SMILES: C1=CC=CC=C1C1NN=NN=1
InChI: InChI=1S/C7H6N4/c1-2-4-6(5-3-1)7-8-10-11-9-7/h1-5H,(H,8,9,10,11)
Instrument type: ESI-QTOF
Ms type: MS2
Ion mode: POSITIVE
Ionization: ESI
Collision energy: 40
Precursor m/z: 147.0665226727
Precursor type: [M+H]+
m/z	relative intensity
39.022927	14
50.015101	15
51.022927	199
77.038577	999
89.038577	10
90.046402	19
104.049476	230
