Mass spectrum: 2-Ethylhexyl sulfate; ESI-QTOF; MS2; CE: 10; [M-H]-
Name: 2-Ethylhexyl sulfate
Name: DTXSID0057887
Formula: C8H18O4S
Exact mass: 210.0925797934
SMILES: CCCCC(COS(O)(=O)=O)CC
InChI: InChI=1S/C8H18O4S/c1-3-5-6-8(4-2)7-12-13(9,10)11/h8H,3-7H2,1-2H3,(H,9,10,11)
Instrument type: ESI-QTOF
Ms type: MS2
Ion mode: NEGATIVE
Ionization: ESI
Collision energy: 10
Precursor m/z: 209.0853033417
Precursor type: [M-H]-
m/z	relative intensity
96.960103	181
209.085303	999
