Mass spectrum: N-Methylacetoacetamide; ESI-QTOF; MS2; CE: 40; [M-H]-
Name: N-Methylacetoacetamide
Name: DTXSID9040138
Formula: C5H9NO2
Exact mass: 115.0633285391
SMILES: CC(=O)CC(=O)NC
InChI: InChI=1S/C5H9NO2/c1-4(7)3-5(8)6-2/h3H2,1-2H3,(H,6,8)
Instrument type: ESI-QTOF
Ms type: MS2
Ion mode: NEGATIVE
Ionization: ESI
Collision energy: 40
Precursor m/z: 114.0560520874
Precursor type: [M-H]-
m/z	relative intensity
38.003623	42
39.011448	16
39.024024	71
39.995463	13
40.019273	64
41.003288	999
41.027098	17
41.998537	33
54.034923	19
57.034588	293
65.998537	102
67.006362	22
82.029837	15
83.013853	22
