Mass spectrum: Parinol; ESI-QTOF; MS2; CE: 10; [M-H]-
Name: Parinol
Name: DTXSID4042256
Formula: C18H13Cl2NO
Exact mass: 329.0374194644
SMILES: OC(C1C=NC=CC=1)(C1C=CC(Cl)=CC=1)C1C=CC(Cl)=CC=1
InChI: InChI=1S/C18H13Cl2NO/c19-16-7-3-13(4-8-16)18(22,15-2-1-11-21-12-15)14-5-9-17(20)10-6-14/h1-12,22H
Instrument type: ESI-QTOF
Ms type: MS2
Ion mode: NEGATIVE
Ionization: ESI
Collision energy: 10
Precursor m/z: 328.0301430127
Precursor type: [M-H]-
m/z	relative intensity
34.969401	142
78.034923	57
111.000701	239
138.995616	54
188.026763	131
215.01434	52
216.022165	999
216.081873	15
217.019244	19
220.993029	30
247.980119	95
248.987944	553
249.995769	11
328.030143	296
