Mass spectrum: 2-(Dimethylamino)-2-methylpropan-1-ol; ESI-QTOF; MS2; CE: 40; [M+H]+
Name: 2-(Dimethylamino)-2-methylpropan-1-ol
Name: DTXSID6044721
Formula: C6H15NO
Exact mass: 117.1153641082
SMILES: CN(C)C(C)(C)CO
InChI: InChI=1S/C6H15NO/c1-6(2,5-8)7(3)4/h8H,5H2,1-4H3
Instrument type: ESI-QTOF
Ms type: MS2
Ion mode: POSITIVE
Ionization: ESI
Collision energy: 40
Precursor m/z: 118.1226405599
Precursor type: [M+H]+
m/z	relative intensity
30.033826	25
31.017841	17
31.041651	46
39.022927	59
41.038577	50
42.033826	10
43.017841	114
43.054227	36
44.049476	14
45.033491	207
46.065126	999
53.038577	32
55.054227	169
57.033491	16
58.041316	39
72.080776	26
