Mass spectrum: PharmaGSID_48509; ESI-QTOF; MS2; CE: 20; [M+H]+
Name: PharmaGSID_48509
Formula: C25H39N3O2
Exact mass: 413.3042275109
SMILES: CCCN(C1CCN(CC1)C(=O)C1CCNCC1)C1CC2C=C(C=CC=2CC1)OC
InChI: InChI=1S/C25H39N3O2/c1-3-14-28(23-6-4-19-5-7-24(30-2)18-21(19)17-23)22-10-15-27(16-11-22)25(29)20-8-12-26-13-9-20/h5,7,18,20,22-23,26H,3-4,6,8-17H2,1-2H3
Instrument type: ESI-QTOF
Ms type: MS2
Ion mode: POSITIVE
Ionization: ESI
Collision energy: 20
Precursor m/z: 414.3115039626
Precursor type: [M+H]+
m/z	relative intensity
84.080776	61
112.07569	362
119.085527	112
135.080441	27
143.154275	115
161.096091	367
220.169591	78
232.169591	45
254.222689	219
303.24309	100
414.311504	999
