Mass spectrum: 4-Hexyloxyaniline; ESI-QTOF; MS2; CE: 40; [M+H]+
Name: 4-Hexyloxyaniline
Name: DTXSID4022288
Formula: C12H19NO
Exact mass: 193.1466642358
SMILES: CCCCCCOC1C=CC(N)=CC=1
InChI: InChI=1S/C12H19NO/c1-2-3-4-5-10-14-12-8-6-11(13)7-9-12/h6-9H,2-5,10,13H2,1H3
Instrument type: ESI-QTOF
Ms type: MS2
Ion mode: POSITIVE
Ionization: ESI
Collision energy: 40
Precursor m/z: 194.1539406875
Precursor type: [M+H]+
m/z	relative intensity
39.022927	88
41.038577	72
42.033826	13
43.054227	74
55.054227	20
65.038577	999
65.083515	16
67.041651	41
67.054227	12
80.049476	62
81.057301	43
82.065126	51
92.049476	107
93.033491	238
93.057301	65
108.04439	20
109.052215	108
110.06004	144
