Mass spectrum: 4-Chlorophenylurea; ESI-QTOF; MS2; CE: 40; [M-H]-
Name: 4-Chlorophenylurea
Name: DTXSID5041512
Formula: C7H7ClN2O
Exact mass: 170.0246905704
SMILES: NC(=O)NC1C=CC(Cl)=CC=1
InChI: InChI=1S/C7H7ClN2O/c8-5-1-3-6(4-2-5)10-7(9)11/h1-4H,(H3,9,10,11)
Instrument type: ESI-QTOF
Ms type: MS2
Ion mode: NEGATIVE
Ionization: ESI
Collision energy: 40
Precursor m/z: 169.0174141187
Precursor type: [M-H]-
m/z	relative intensity
34.969401	733
41.998537	999
42.022347	11
65.003288	14
65.014522	38
100.96739	62
126.0116	30
