Mass spectrum: 4-(Diethylamino)benzaldehyde; ESI-QTOF; MS2; CE: 20; [M+H]+
Name: 4-(Diethylamino)benzaldehyde
Formula: C11H15NO
Exact mass: 177.1153641082
SMILES: CCN(CC)C1C=CC(C=O)=CC=1
InChI: InChI=1S/C11H15NO/c1-3-12(4-2)11-7-5-10(9-13)6-8-11/h5-9H,3-4H2,1-2H3
Instrument type: ESI-QTOF
Ms type: MS2
Ion mode: POSITIVE
Ionization: ESI
Collision energy: 20
Precursor m/z: 178.1226405599
Precursor type: [M+H]+
m/z	relative intensity
44.049476	59
56.049476	11
70.065126	14
72.080776	12
77.038577	17
78.046402	11
79.054227	128
83.085527	24
92.062052	14
93.057301	94
94.065126	173
101.002191	87
103.054227	46
105.069877	45
106.065126	759
118.065126	75
120.080776	339
121.052215	30
121.088601	301
122.096426	437
134.06004	689
134.096426	571
135.067865	28
146.096426	23
148.07569	17
148.112076	684
149.083515	56
149.119901	36
150.09134	40
150.127726	763
162.09134	13
163.099165	80
178.122641	999
