Mass spectrum: 1,3-Diphenylguanidine; ESI-QTOF; MS2; CE: 10; [M+H]+
Name: 1,3-Diphenylguanidine
Formula: C13H13N3
Exact mass: 211.1109474369
SMILES: N=C(NC1C=CC=CC=1)NC1C=CC=CC=1
InChI: InChI=1S/C13H13N3/c14-13(15-11-7-3-1-4-8-11)16-12-9-5-2-6-10-12/h1-10H,(H3,14,15,16)
Instrument type: ESI-QTOF
Ms type: MS2
Ion mode: POSITIVE
Ionization: ESI
Collision energy: 10
Precursor m/z: 212.1182238886
Precursor type: [M+H]+
m/z	relative intensity
77.038577	10
94.065126	86
119.060375	107
195.091675	44
212.118224	999
