Mass spectrum: 2-Amino-5-(5-nitro-2-furyl)-1,3,4-oxadiazole; ESI-QTOF; MS2; CE: 40; [M+H]+
Name: 2-Amino-5-(5-nitro-2-furyl)-1,3,4-oxadiazole
Name: DTXSID2020058
Formula: C6H4N4O4
Exact mass: 196.0232546464
SMILES: NC1=NN=C(O1)C1=CC=C(O1)[N+]([O-])=O
InChI: InChI=1S/C6H4N4O4/c7-6-9-8-5(14-6)3-1-2-4(13-3)10(11)12/h1-2H,(H2,7,9)
Instrument type: ESI-QTOF
Ms type: MS2
Ion mode: POSITIVE
Ionization: ESI
Collision energy: 40
Precursor m/z: 197.0305310981
Precursor type: [M+H]+
m/z	relative intensity
38.002525	22
38.015101	65
39.022927	62
41.026001	30
41.038577	12
42.021249	15
43.029075	33
44.01309	63
44.0369	14
50.015101	103
51.022927	144
52.018175	234
52.030752	50
53.002191	44
53.013424	47
53.026001	290
53.99744	31
54.010016	999
54.033826	36
55.041651	10
63.994366	13
64.018175	502
65.013424	12
66.008673	23
66.033826	27
68.01309	11
68.0369	28
70.039974	21
77.002191	44
77.021978	10
78.010016	219
79.029075	156
79.041651	13
80.0369	238
82.003588	93
82.016164	107
82.02874	14
108.031814	24
123.042713	15
