Mass spectrum: Bis[2-(2-butoxyethoxy)ethyl] adipate; ESI-QTOF; MS2; CE: 20; [M-H]-
Name: Bis[2-(2-butoxyethoxy)ethyl] adipate
Name: DTXSID3027085
Formula: C22H42O8
Exact mass: 434.2879683182
SMILES: CCCCOCCOCCOC(=O)CCCCC(=O)OCCOCCOCCCC
InChI: InChI=1S/C22H42O8/c1-3-5-11-25-13-15-27-17-19-29-21(23)9-7-8-10-22(24)30-20-18-28-16-14-26-12-6-4-2/h3-20H2,1-2H3
Instrument type: ESI-QTOF
Ms type: MS2
Ion mode: NEGATIVE
Ionization: ESI
Collision energy: 20
Precursor m/z: 433.2806918665
Precursor type: [M-H]-
m/z	relative intensity
44.998203	14
53.039674	13
57.034588	24
59.013853	999
59.050238	14
69.034588	35
71.013853	77
79.018938	16
81.034588	11
85.029503	774
85.065888	18
87.045153	11
89.024418	16
97.029503	242
98.037328	14
101.024418	14
109.029503	18
115.018938	15
115.040068	119
127.040068	12
133.050632	13
133.065888	201
145.050632	110
189.092103	20
219.102668	21
279.123797	46
