Mass spectrum: 4,4'-(4-Methylpentane-2,2-diyl)diphenol; ESI-QTOF; MS2; CE: 10; [M-H]-
Name: 4,4'-(4-Methylpentane-2,2-diyl)diphenol
Name: DTXSID8029282
Formula: C18H22O2
Exact mass: 270.1619799464
SMILES: CC(C)CC(C)(C1C=CC(O)=CC=1)C1C=CC(O)=CC=1
InChI: InChI=1S/C18H22O2/c1-13(2)12-18(3,14-4-8-16(19)9-5-14)15-6-10-17(20)11-7-15/h4-11,13,19-20H,12H2,1-3H3
Instrument type: ESI-QTOF
Ms type: MS2
Ion mode: NEGATIVE
Ionization: ESI
Collision energy: 10
Precursor m/z: 269.1547034947
Precursor type: [M-H]-
m/z	relative intensity
211.076453	10
212.084278	100
269.154703	999
