Mass spectrum: Acid Orange 156; ESI-QTOF; MS2; CE: 40; [M-H]-
Name: Acid Orange 156
Name: DTXSID7044718
Formula: C21H20N4O5S
Exact mass: 440.1154405091
SMILES: CC1=CC(/N=N/C2C=CC(=CC=2)OC)=C(C=C1/N=N/C1C=CC(=CC=1)S(O)(=O)=O)OC
InChI: InChI=1S/C21H20N4O5S/c1-14-12-20(25-23-15-4-8-17(29-2)9-5-15)21(30-3)13-19(14)24-22-16-6-10-18(11-7-16)31(26,27)28/h4-13H,1-3H3,(H,26,27,28)/b24-22+,25-23+
Instrument type: ESI-QTOF
Ms type: MS2
Ion mode: NEGATIVE
Ionization: ESI
Collision energy: 40
Precursor m/z: 439.1081640574
Precursor type: [M-H]-
m/z	relative intensity
79.957363	111
80.965188	11
155.988663	999
156.036282	27
156.056721	16
170.99822	32
184.006697	20
239.081949	17
240.07785	12
260.025421	20
274.041071	17
275.048896	33
289.02816	34
303.04381	153
304.039059	46
316.039059	19
317.092514	16
360.122789	11
380.047241	19
381.055066	14
395.070716	27
396.065965	12
423.076864	66
