Mass spectrum: 4-[3-(4-Acetyl-3-hydroxy-2-propylphenoxy)propoxy]phenoxy-acetic acid; ESI-QTOF; MS2; CE: 40; [M+H]+
Name: 4-[3-(4-Acetyl-3-hydroxy-2-propylphenoxy)propoxy]phenoxy-acetic acid
Formula: C22H26O7
Exact mass: 402.1678531855
SMILES: CC(=O)C1C=CC(OCCCOC2=CC=C(C=C2)OCC(O)=O)=C(CCC)C=1O
InChI: InChI=1S/C22H26O7/c1-3-5-19-20(11-10-18(15(2)23)22(19)26)28-13-4-12-27-16-6-8-17(9-7-16)29-14-21(24)25/h6-11,26H,3-5,12-14H2,1-2H3,(H,24,25)
Instrument type: ESI-QTOF
Ms type: MS2
Ion mode: POSITIVE
Ionization: ESI
Collision energy: 40
Precursor m/z: 403.1751296372
Precursor type: [M+H]+
m/z	relative intensity
31.017841	12
41.038577	45
43.017841	999
43.054227	85
55.017841	49
64.030752	11
67.054227	39
77.038577	101
79.017841	27
79.054227	155
91.054227	51
93.033491	65
93.069877	23
95.049141	252
103.054227	45
105.033491	30
105.069877	280
107.012756	15
107.049141	677
107.085527	40
109.028406	307
109.064791	54
110.036231	12
111.044056	102
115.054227	20
117.069877	47
121.064791	31
122.036231	19
123.044056	337
125.059706	14
131.049141	14
133.064791	381
135.044056	207
135.080441	359
137.059706	198
145.064791	10
147.044056	67
149.059706	138
149.096091	17
150.067531	182
151.038971	80
151.075356	141
153.054621	82
153.091006	33
161.059706	40
162.067531	15
163.075356	278
165.054621	47
165.091006	116
167.033885	15
174.067531	10
175.075356	47
177.091006	172
179.070271	23
181.049535	167
189.091006	43
191.106656	32
193.085921	56
193.122306	24
195.101571	213
203.106656	21
207.101571	50
235.132871	37
