Mass spectrum: 3-{[3-(Dimethylamino)propyl]amino}propanenitrile; ESI-QTOF; MS2; CE: 10; [M+H]+
Name: 3-{[3-(Dimethylamino)propyl]amino}propanenitrile
Name: DTXSID1044980
Formula: C8H17N3
Exact mass: 155.1422475645
SMILES: CN(C)CCCNCCC#N
InChI: InChI=1S/C8H17N3/c1-11(2)8-4-7-10-6-3-5-9/h10H,3-4,6-8H2,1-2H3
Instrument type: ESI-QTOF
Ms type: MS2
Ion mode: POSITIVE
Ionization: ESI
Collision energy: 10
Precursor m/z: 156.1495240162
Precursor type: [M+H]+
m/z	relative intensity
46.065126	41
58.065126	215
70.065126	27
79.016498	96
83.060375	37
86.096426	837
111.091675	360
156.149524	999
