Mass spectrum: Adenine; ESI-QTOF; MS2; CE: 40; [M-H]-
Name: Adenine
Name: DTXSID6022557
Formula: C5H5N5
Exact mass: 135.0544951965
SMILES: NC1=NC=NC2NC=NC=21
InChI: InChI=1S/C5H5N5/c6-4-3-5(9-1-7-3)10-2-8-4/h1-2H,(H3,6,7,8,9,10)
Instrument type: ESI-QTOF
Ms type: MS2
Ion mode: NEGATIVE
Ionization: ESI
Collision energy: 40
Precursor m/z: 134.0472187448
Precursor type: [M-H]-
m/z	relative intensity
41.014522	292
64.006697	294
65.014522	999
66.009771	134
68.025421	113
79.017596	38
90.009771	160
92.025421	240
93.02067	15
106.028495	41
107.03632	130
117.02067	45
134.047219	14
