Mass spectrum: SSR 240612; ESI-QTOF; MS2; CE: 40; [M+H]+
Name: SSR 240612
Name: DTXSID2047351
Formula: C42H52N4O7S
Exact mass: 756.3556707745
SMILES: CN(C(C)C)C(=O)C(CC1=CC=C(CN2C(C)CCCC2C)C=C1)NC(=O)CC(NS(=O)(=O)C1C=C2C=CC(=CC2=CC=1)OC)C1=CC2OCOC=2C=C1
InChI: InChI=1S/C42H52N4O7S/c1-27(2)45(5)42(48)38(20-30-10-12-31(13-11-30)25-46-28(3)8-7-9-29(46)4)43-41(47)24-37(34-16-19-39-40(23-34)53-26-52-39)44-54(49,50)36-18-15-32-21-35(51-6)17-14-33(32)22-36/h10-19,21-23,27-29,37-38,44H,7-9,20,24-26H2,1-6H3,(H,43,47)
Instrument type: ESI-QTOF
Ms type: MS2
Ion mode: POSITIVE
Ionization: ESI
Collision energy: 40
Precursor m/z: 757.3629472262
Precursor type: [M+H]+
m/z	relative intensity
72.080776	293
74.096426	67
112.112076	40
117.069877	46
149.059706	29
150.054955	19
158.06004	41
174.09134	11
175.038971	172
188.143376	18
192.06552	13
216.138291	999
216.194463	45
216.219615	22
217.142093	13
221.026691	19
231.14919	25
242.153941	16
259.144104	34
306.11247	63
334.107384	15
348.15942	40
370.07437	44
372.264554	45
390.169985	17
407.196534	67
447.227834	11
453.184255	29
520.316983	16
543.158434	27
684.273798	11
757.362947	86
