Mass spectrum: 2,6-Diethylaniline; ESI-QTOF; MS2; CE: 20; [M+H]+
Name: 2,6-Diethylaniline
Name: DTXSID6027218
Formula: C10H15N
Exact mass: 149.1204494859
SMILES: CCC1=CC=CC(CC)=C1N
InChI: InChI=1S/C10H15N/c1-3-8-6-5-7-9(4-2)10(8)11/h5-7H,3-4,11H2,1-2H3
Instrument type: ESI-QTOF
Ms type: MS2
Ion mode: POSITIVE
Ionization: ESI
Collision energy: 20
Precursor m/z: 150.1277259376
Precursor type: [M+H]+
m/z	relative intensity
51.022927	13
77.038577	43
79.054227	123
91.054227	152
93.057301	47
94.065126	165
103.054227	72
105.069877	999
106.065126	182
117.069877	25
119.072951	28
120.080776	17
121.088601	148
122.096426	198
131.085527	26
133.101177	31
134.096426	57
148.112076	100
150.127726	294
