Mass spectrum: N-Methylhydrazinecarbothioamide; ESI-QTOF; MS2; CE: 10; [M-H]-
Name: N-Methylhydrazinecarbothioamide
Name: DTXSID7044390
Formula: C2H7N3S
Exact mass: 105.0360679755
SMILES: CNC(=S)NN
InChI: InChI=1S/C2H7N3S/c1-4-2(6)5-3/h3H2,1H3,(H2,4,5,6)
Instrument type: ESI-QTOF
Ms type: MS2
Ion mode: NEGATIVE
Ionization: ESI
Collision energy: 10
Precursor m/z: 104.0287915238
Precursor type: [M-H]-
m/z	relative intensity
31.972619	19
32.980444	999
54.022347	51
55.030172	81
57.975693	201
57.988269	20
60.003919	13
71.978767	166
71.991343	12
72.986592	21
87.002242	33
88.010067	10
104.028792	955
