Mass spectrum: 1,2,2,6,6-Pentamethylpiperidin-4-ol; ESI-QTOF; MS2; CE: 20; [M+H]+
Name: 1,2,2,6,6-Pentamethylpiperidin-4-ol
Name: DTXSID3044411
Formula: C10H21NO
Exact mass: 171.1623142996
SMILES: CN1C(C)(C)CC(O)CC1(C)C
InChI: InChI=1S/C10H21NO/c1-9(2)6-8(12)7-10(3,4)11(9)5/h8,12H,6-7H2,1-5H3
Instrument type: ESI-QTOF
Ms type: MS2
Ion mode: POSITIVE
Ionization: ESI
Collision energy: 20
Precursor m/z: 172.1695907513
Precursor type: [M+H]+
m/z	relative intensity
32.049476	70
41.038577	17
57.069877	124
58.065126	15
59.049141	21
60.04439	37
67.054227	22
72.080776	999
72.138291	10
81.069877	38
85.064791	141
98.096426	11
116.10699	77
123.116827	53
172.169591	558
