Mass spectrum: 2,6-Diethylaniline; ESI-QTOF; MS2; CE: 40; [M+H]+
Name: 2,6-Diethylaniline
Name: DTXSID6027218
Formula: C10H15N
Exact mass: 149.1204494859
SMILES: CCC1=CC=CC(CC)=C1N
InChI: InChI=1S/C10H15N/c1-3-8-6-5-7-9(4-2)10(8)11/h5-7H,3-4,11H2,1-2H3
Instrument type: ESI-QTOF
Ms type: MS2
Ion mode: POSITIVE
Ionization: ESI
Collision energy: 40
Precursor m/z: 150.1277259376
Precursor type: [M+H]+
m/z	relative intensity
29.038577	10
39.022927	15
41.038577	23
50.015101	10
51.022927	171
55.054227	26
63.022927	25
65.038577	162
67.054227	10
77.038577	999
78.033826	16
78.046402	70
79.054227	372
80.049476	11
91.054227	232
92.062052	14
93.057301	110
94.065126	47
103.054227	181
104.062052	11
105.069877	111
106.065126	357
115.054227	97
116.062052	21
117.069877	29
118.065126	46
119.072951	45
120.080776	38
121.088601	11
