Mass spectrum: 3-[Ethyl(phenyl)amino]propanenitrile; ESI-QTOF; MS2; CE: 10; [M+H]+
Name: 3-[Ethyl(phenyl)amino]propanenitrile
Name: DTXSID4044587
Formula: C11H14N2
Exact mass: 174.1156984614
SMILES: CCN(CCC#N)C1C=CC=CC=1
InChI: InChI=1S/C11H14N2/c1-2-13(10-6-9-12)11-7-4-3-5-8-11/h3-5,7-8H,2,6,10H2,1H3
Instrument type: ESI-QTOF
Ms type: MS2
Ion mode: POSITIVE
Ionization: ESI
Collision energy: 10
Precursor m/z: 175.1229749131
Precursor type: [M+H]+
m/z	relative intensity
106.065126	261
121.088601	199
134.096426	220
146.08385	37
147.091675	16
175.122975	999
