Mass spectrum: Letrozole; ESI-QTOF; MS2; CE: 40; [M+H]+
Name: Letrozole
Name: Letocor
Name: Letoripe
Name: Lerozole
Name: Femara
Formula: C17H11N5
Exact mass: 285.1014453879
SMILES: N#CC1C=CC(=CC=1)C(C1C=CC(=CC=1)C#N)N1C=NC=N1
InChI: InChI=1S/C17H11N5/c18-9-13-1-5-15(6-2-13)17(22-12-20-11-21-22)16-7-3-14(10-19)4-8-16/h1-8,11-12,17H
Instrument type: ESI-QTOF
Ms type: MS2
Ion mode: POSITIVE
Ionization: ESI
Collision energy: 40
Precursor m/z: 286.1087218396
Precursor type: [M+H]+
m/z	relative intensity
57.069877	11
163.054227	28
164.049476	11
164.062052	11
177.057301	75
188.049476	17
190.065126	999
215.060375	213
216.0682	60
217.076025	68
