Mass spectrum: Tris(2-hydroxyethyl) isocyanurate; ESI-QTOF; MS2; CE: 40; [M-H]-
Name: Tris(2-hydroxyethyl) isocyanurate
Formula: C9H15N3O6
Exact mass: 261.0960852345
SMILES: OCCN1C(=O)N(CCO)C(=O)N(CCO)C1=O
InChI: InChI=1S/C9H15N3O6/c13-4-1-10-7(16)11(2-5-14)9(18)12(3-6-15)8(10)17/h13-15H,1-6H2
Instrument type: ESI-QTOF
Ms type: MS2
Ion mode: NEGATIVE
Ionization: ESI
Collision energy: 40
Precursor m/z: 260.0888087828
Precursor type: [M-H]-
m/z	relative intensity
41.998537	999
42.022347	19
80.982947	12
86.024752	532
86.061137	11
