Mass spectrum: Dulcin; ESI-QTOF; MS2; CE: 10; [M+H]+
Name: Dulcin
Name: DTXSID9020580
Formula: C9H12N2O2
Exact mass: 180.0898776422
SMILES: CCOC1C=CC(=CC=1)NC(N)=O
InChI: InChI=1S/C9H12N2O2/c1-2-13-8-5-3-7(4-6-8)11-9(10)12/h3-6H,2H2,1H3,(H3,10,11,12)
Instrument type: ESI-QTOF
Ms type: MS2
Ion mode: POSITIVE
Ionization: ESI
Collision energy: 10
Precursor m/z: 181.0971540939
Precursor type: [M+H]+
m/z	relative intensity
65.038577	11
93.033491	12
101.002191	112
108.04439	97
110.06004	107
136.07569	240
138.09134	268
164.070605	30
181.097154	999
