Mass spectrum: Disperse Red 82; ESI-QTOF; MS2; CE: 20; [M+H]+
Name: Disperse Red 82
Name: DTXSID6044642
Formula: C21H21N5O6
Exact mass: 439.1491834407
SMILES: CC(=O)OCCN(CCOC(C)=O)C1C=CC(=CC=1)/N=N/C1=CC=C(C=C1C#N)[N+]([O-])=O
InChI: InChI=1S/C21H21N5O6/c1-15(27)31-11-9-25(10-12-32-16(2)28)19-5-3-18(4-6-19)23-24-21-8-7-20(26(29)30)13-17(21)14-22/h3-8,13H,9-12H2,1-2H3/b24-23+
Instrument type: ESI-QTOF
Ms type: MS2
Ion mode: POSITIVE
Ionization: ESI
Collision energy: 20
Precursor m/z: 440.1564598924
Precursor type: [M+H]+
m/z	relative intensity
43.017841	28
87.044056	999
87.079099	29
87.091675	13
132.080776	48
145.088601	26
205.108387	10
320.114201	71
338.124766	19
380.135331	143
398.145895	34
440.15646	319
