Mass spectrum: 3-Hydroxypyridine-2-methanol; ESI-QTOF; MS2; CE: 40; [M+H]+
Name: 3-Hydroxypyridine-2-methanol
Name: DTXSID90161811
Formula: C6H7NO2
Exact mass: 125.0476784753
SMILES: OC1C=CC=NC=1CO
InChI: InChI=1S/C6H7NO2/c8-4-5-6(9)2-1-3-7-5/h1-3,8-9H,4H2
Instrument type: ESI-QTOF
Ms type: MS2
Ion mode: POSITIVE
Ionization: ESI
Collision energy: 40
Precursor m/z: 126.054954927
Precursor type: [M+H]+
m/z	relative intensity
37.007276	10
39.022927	998
39.044056	23
40.018175	159
51.022927	46
52.018175	73
53.038577	999
54.033826	18
63.022927	10
67.017841	90
68.01309	61
78.033826	26
80.01309	16
80.049476	161
108.04439	12
