Mass spectrum: SR125047; ESI-QTOF; MS2; CE: 40; [M+H]+
Name: SR125047
Name: DTXSID3047342
Formula: C22H26ClNO
Exact mass: 355.1702921691
SMILES: COC1C=C(C=CC=1)C1=CC=C(/C=C/CN2CCCCCC2)C=C1Cl
InChI: InChI=1S/C22H26ClNO/c1-25-20-10-6-9-19(17-20)21-12-11-18(16-22(21)23)8-7-15-24-13-4-2-3-5-14-24/h6-12,16-17H,2-5,13-15H2,1H3/b8-7+
Instrument type: ESI-QTOF
Ms type: MS2
Ion mode: POSITIVE
Ionization: ESI
Collision energy: 40
Precursor m/z: 356.1775686208
Precursor type: [M+H]+
m/z	relative intensity
98.096426	21
165.069877	27
166.077702	11
178.077702	101
179.085527	277
186.023079	14
189.069877	26
190.077702	48
191.085527	104
192.093352	35
193.101177	36
194.072616	31
194.109002	43
199.030904	64
201.046554	19
203.085527	13
205.064791	13
206.072616	56
207.080441	654
207.138443	18
214.017994	17
221.096091	200
222.103916	999
222.161919	30
222.185241	17
225.046554	19
226.054379	12
227.025819	32
229.041469	117
229.077855	15
242.049294	111
257.072769	12
