Mass spectrum: Nefiracetam; ESI-QTOF; MS2; CE: 10; [M+H]+
Name: Nefiracetam
Name: DTXSID2020923
Formula: C14H18N2O2
Exact mass: 246.1368278336
SMILES: CC1C=CC=C(C)C=1NC(=O)CN1CCCC1=O
InChI: InChI=1S/C14H18N2O2/c1-10-5-3-6-11(2)14(10)15-12(17)9-16-8-4-7-13(16)18/h3,5-6H,4,7-9H2,1-2H3,(H,15,17)
Instrument type: ESI-QTOF
Ms type: MS2
Ion mode: POSITIVE
Ionization: ESI
Collision energy: 10
Precursor m/z: 247.1441042853
Precursor type: [M+H]+
m/z	relative intensity
70.065126	17
98.06004	636
98.096426	21
98.117555	10
126.054955	999
126.11515	18
247.144104	52
