Mass spectrum: Piragliatin; ESI-QTOF; MS2; CE: 40; [M-H]-
Name: Piragliatin
Name: DTXSID3048520
Formula: C19H20ClN3O4S
Exact mass: 421.0863045894
SMILES: CS(=O)(=O)C1=CC=C(C=C1Cl)C(CC1CC(=O)CC1)C(=O)NC1C=NC=CN=1
InChI: InChI=1S/C19H20ClN3O4S/c1-28(26,27)17-5-3-13(10-16(17)20)15(9-12-2-4-14(24)8-12)19(25)23-18-11-21-6-7-22-18/h3,5-7,10-12,15H,2,4,8-9H2,1H3,(H,22,23,25)
Instrument type: ESI-QTOF
Ms type: MS2
Ion mode: NEGATIVE
Ionization: ESI
Collision energy: 40
Precursor m/z: 420.0790281377
Precursor type: [M-H]-
m/z	relative intensity
34.969401	986
34.996094	15
57.034588	28
63.962449	479
78.985924	99
80.025421	11
81.033246	136
94.040221	107
95.048896	67
98.931301	10
107.048896	13
109.065888	42
117.070974	42
131.086624	137
137.016351	12
154.009399	10
155.015881	28
156.094449	25
157.102274	999
157.147213	14
184.088021	33
199.063225	15
199.112839	182
200.082936	14
200.978251	72
201.984734	23
202.993902	49
237.068781	14
263.073396	58
269.005316	10
284.028792	17
299.051416	66
