Mass spectrum: CI-1044; ESI-QTOF; MS2; CE: 40; [M+H]+
Name: CI-1044
Formula: C23H19N5O2
Exact mass: 397.1538748877
SMILES: NC1C=C2CCN3C2=C(C=1)C(=NC(NC(=O)C1=CN=CC=C1)C3=O)C1C=CC=CC=1
InChI: InChI=1S/C23H19N5O2/c24-17-11-15-8-10-28-20(15)18(12-17)19(14-5-2-1-3-6-14)26-21(23(28)30)27-22(29)16-7-4-9-25-13-16/h1-7,9,11-13,21H,8,10,24H2,(H,27,29)
Instrument type: ESI-QTOF
Ms type: MS2
Ion mode: POSITIVE
Ionization: ESI
Collision energy: 40
Precursor m/z: 398.1611513394
Precursor type: [M+H]+
m/z	relative intensity
145.076025	23
173.070939	15
248.118224	999
276.113139	55
