Mass spectrum: Trelanserin; ESI-QTOF; MS2; CE: 20; [M-H]-
Name: Trelanserin
Name: DTXSID2047355
Formula: C24H24FN5O2S
Exact mass: 465.1634739772
SMILES: NC(=O)CN1C2C=C(F)C=CC=2C(CCN2CCN(CC2)C2=NC=CC3SC=CC=32)=CC1=O
InChI: InChI=1S/C24H24FN5O2S/c25-17-1-2-18-16(13-23(32)30(15-22(26)31)20(18)14-17)4-7-28-8-10-29(11-9-28)24-19-5-12-33-21(19)3-6-27-24/h1-3,5-6,12-14H,4,7-11,15H2,(H2,26,31)
Instrument type: ESI-QTOF
Ms type: MS2
Ion mode: NEGATIVE
Ionization: ESI
Collision energy: 20
Precursor m/z: 464.1561975255
Precursor type: [M-H]-
m/z	relative intensity
41.003288	10
41.998537	999
42.022347	21
42.998952	10
44.998203	42
59.013853	117
61.983184	16
85.029503	38
94.983518	16
97.029303	22
102.977171	12
112.986673	10
115.038725	10
118.993866	10
133.067031	11
149.019035	10
190.067366	38
202.067366	36
203.070025	15
218.075742	65
219.079544	11
220.055006	52
227.061472	12
245.073179	171
246.078519	21
401.141928	20
422.145633	11
446.145633	38
450.140547	32
451.148372	10
462.140547	10
464.156198	93
