Mass spectrum: Cyanoguanidine; ESI-QTOF; MS2; CE: 20; [M+H]+
Name: Cyanoguanidine
Name: DTXSID1020354
Formula: C2H4N4
Exact mass: 84.0435961572
SMILES: NC(=N)NC#N
InChI: InChI=1S/C2H4N4/c3-1-6-2(4)5/h(H4,4,5,6)
Instrument type: ESI-QTOF
Ms type: MS2
Ion mode: POSITIVE
Ionization: ESI
Collision energy: 20
Precursor m/z: 85.0508726089
Precursor type: [M+H]+
m/z	relative intensity
28.018175	12
41.013424	29
43.029075	353
58.027398	44
68.024324	999
85.050873	37
