Mass spectrum: N-(4-Methylpentan-2-yl)-N-phenylbenzene-1,4-diamine; ESI-QTOF; MS2; CE: 40; [M+H]+
Name: N-(4-Methylpentan-2-yl)-N-phenylbenzene-1,4-diamine
Name: DTXSID3044966
Formula: C18H24N2
Exact mass: 268.1939487804
SMILES: CC(C)CC(C)N(C1C=CC=CC=1)C1C=CC(N)=CC=1
InChI: InChI=1S/C18H24N2/c1-14(2)13-15(3)20(17-7-5-4-6-8-17)18-11-9-16(19)10-12-18/h4-12,14-15H,13,19H2,1-3H3
Instrument type: ESI-QTOF
Ms type: MS2
Ion mode: POSITIVE
Ionization: ESI
Collision energy: 40
Precursor m/z: 269.2012252321
Precursor type: [M+H]+
m/z	relative intensity
41.038577	56
43.054227	246
57.069877	42
65.038577	10
66.046402	12
80.049476	25
81.057301	35
91.054227	25
92.049476	39
92.062052	20
93.057301	205
94.065126	15
106.065126	13
107.060375	228
108.0682	52
117.057301	23
118.05255	23
118.065126	209
119.072951	112
120.080776	11
129.069877	21
130.065126	10
139.054227	54
140.049476	28
143.072951	21
156.080776	34
157.088601	14
166.065126	249
167.072951	218
168.080776	105
169.088601	279
170.096426	37
181.076025	24
182.08385	155
183.091675	297
184.0995	999
185.107325	144
194.096426	22
196.0995	14
197.107325	14
209.107325	23
210.11515	111
211.122975	145
212.1308	21
