Mass spectrum: CP-544439; ESI-QTOF; MS2; CE: 20; [M-H]-
Name: CP-544439
Name: DTXSID8047266
Formula: C18H19FN2O6S
Exact mass: 410.0947852847
SMILES: ONC(=O)C1(CCOCC1)NS(=O)(=O)C1=CC=C(C=C1)OC1=CC=C(F)C=C1
InChI: InChI=1S/C18H19FN2O6S/c19-13-1-3-14(4-2-13)27-15-5-7-16(8-6-15)28(24,25)21-18(17(22)20-23)9-11-26-12-10-18/h1-8,21,23H,9-12H2,(H,20,22)
Instrument type: ESI-QTOF
Ms type: MS2
Ion mode: NEGATIVE
Ionization: ESI
Collision energy: 20
Precursor m/z: 409.087508833
Precursor type: [M-H]-
m/z	relative intensity
112.040402	17
142.050967	31
251.018367	33
266.029266	999
266.09082	36
266.11347	16
267.03104	16
318.060566	12
409.087509	74
