Mass spectrum: 4-Methyl-2-nitroaniline; ESI-QTOF; MS2; CE: 40; [M-H]-
Name: 4-Methyl-2-nitroaniline
Formula: C7H8N2O2
Exact mass: 152.0585775146
SMILES: CC1=CC(=C(N)C=C1)[N+]([O-])=O
InChI: InChI=1S/C7H8N2O2/c1-5-2-3-6(8)7(4-5)9(10)11/h2-4H,8H2,1H3
Instrument type: ESI-QTOF
Ms type: MS2
Ion mode: NEGATIVE
Ionization: ESI
Collision energy: 40
Precursor m/z: 151.0513010629
Precursor type: [M-H]-
m/z	relative intensity
41.998537	27
45.993452	999
46.017261	19
46.029837	11
120.045487	13
