Mass spectrum: UK-156819; ESI-QTOF; MS2; CE: 40; [M+H]+
Name: UK-156819
Name: DTXSID2047309
Formula: C19H20N2O2
Exact mass: 308.1524778974
SMILES: CC1=C(C2C=CC=CC=2N1CCCCC(O)=O)C1=CN=CC=C1
InChI: InChI=1S/C19H20N2O2/c1-14-19(15-7-6-11-20-13-15)16-8-2-3-9-17(16)21(14)12-5-4-10-18(22)23/h2-3,6-9,11,13H,4-5,10,12H2,1H3,(H,22,23)
Instrument type: ESI-QTOF
Ms type: MS2
Ion mode: POSITIVE
Ionization: ESI
Collision energy: 40
Precursor m/z: 309.1597543491
Precursor type: [M+H]+
m/z	relative intensity
41.038577	13
43.017841	14
55.054227	155
55.06278	15
59.049141	32
80.049476	20
83.049141	19
92.049476	10
101.059706	13
104.049476	10
115.054227	10
130.065126	51
142.065126	14
144.080776	12
154.065126	10
167.072951	82
168.080776	45
180.080776	78
181.088601	11
182.096426	12
191.072951	13
192.080776	33
193.076025	19
194.08385	190
195.091675	13
205.076025	24
206.08385	161
207.091675	764
207.137956	13
208.0995	999
208.157015	19
209.107325	410
219.091675	22
220.0995	45
221.107325	839
221.16484	15
222.11515	64
231.091675	10
232.0995	19
233.107325	13
235.122975	80
236.1308	10
247.122975	69
248.1308	50
249.138625	35
263.154275	29
291.14919	21
294.136279	11
309.159754	207
