Mass spectrum: Nelivaptan; ESI-QTOF; MS2; CE: 20; [M+H]+
Name: Nelivaptan
Name: DTXSID7047358
Formula: C30H32ClN3O8S
Exact mass: 629.1598634614
SMILES: CN(C)C(=O)C1CC(O)CN1C1(C(=O)N(C2=CC=C(Cl)C=C12)S(=O)(=O)C1=CC=C(C=C1OC)OC)C1=CC=CC=C1OC
InChI: InChI=1S/C30H32ClN3O8S/c1-32(2)28(36)24-15-19(35)17-33(24)30(21-8-6-7-9-25(21)41-4)22-14-18(31)10-12-23(22)34(29(30)37)43(38,39)27-13-11-20(40-3)16-26(27)42-5/h6-14,16,19,24,35H,15,17H2,1-5H3
Instrument type: ESI-QTOF
Ms type: MS2
Ion mode: POSITIVE
Ionization: ESI
Collision energy: 20
Precursor m/z: 630.1671399131
Precursor type: [M+H]+
m/z	relative intensity
151.075356	123
153.054621	39
201.021606	811
201.074407	27
201.099559	16
254.036718	26
270.031633	13
408.099225	18
472.061612	999
472.142449	39
472.175951	16
473.064237	27
630.16714	54
