Mass spectrum: 1-(2-Hydroxyethyl)pyrrolidin-2-one; ESI-QTOF; MS2; CE: 40; [M+H]+
Name: 1-(2-Hydroxyethyl)pyrrolidin-2-one
Name: DTXSID7044922
Formula: C6H11NO2
Exact mass: 129.0789786029
SMILES: OCCN1CCCC1=O
InChI: InChI=1S/C6H11NO2/c8-5-4-7-3-1-2-6(7)9/h8H,1-5H2
Instrument type: ESI-QTOF
Ms type: MS2
Ion mode: POSITIVE
Ionization: ESI
Collision energy: 40
Precursor m/z: 130.0862550546
Precursor type: [M+H]+
m/z	relative intensity
39.022927	293
41.038577	999
41.059706	24
42.033826	45
43.054227	11
44.01309	17
44.049476	69
45.033491	75
54.033826	11
56.049476	64
67.041651	16
67.054227	14
68.049476	12
69.033491	140
