Mass spectrum: Hexadecyl sulfate; ESI-QTOF; MS2; CE: 20; [M-H]-
Name: Hexadecyl sulfate
Formula: C16H34O4S
Exact mass: 322.2177803038
SMILES: CCCCCCCCCCCCCCCCOS(O)(=O)=O
InChI: InChI=1S/C16H34O4S/c1-2-3-4-5-6-7-8-9-10-11-12-13-14-15-16-20-21(17,18)19/h2-16H2,1H3,(H,17,18,19)
Instrument type: ESI-QTOF
Ms type: MS2
Ion mode: NEGATIVE
Ionization: ESI
Collision energy: 20
Precursor m/z: 321.2105038521
Precursor type: [M-H]-
m/z	relative intensity
96.960103	209
321.210504	999
