Mass spectrum: C.I. Disperse Yellow 64; ESI-QTOF; MS2; CE: 10; [M-H]-
Name: C.I. Disperse Yellow 64
Formula: C18H10BrNO3
Exact mass: 366.9844060933
SMILES: OC1C(Br)=C2C=CC=CC2=NC=1C1C(=O)C2C=CC=CC=2C1=O
InChI: InChI=1S/C18H10BrNO3/c19-14-11-7-3-4-8-12(11)20-15(18(14)23)13-16(21)9-5-1-2-6-10(9)17(13)22/h1-8,13,23H
Instrument type: ESI-QTOF
Ms type: MS2
Ion mode: NEGATIVE
Ionization: ESI
Collision energy: 10
Precursor m/z: 365.9771296416
Precursor type: [M-H]-
m/z	relative intensity
78.918886	65
220.016593	18
365.97713	999
