Mass spectrum: 2-Butenedioic acid (2Z)-, dioctyl ester; ESI-QTOF; MS2; CE: 10; [M+H]+
Name: 2-Butenedioic acid (2Z)-, dioctyl ester
Name: DTXSID1027508
Formula: C20H36O4
Exact mass: 340.2613596376
SMILES: CCCCCCCCOC(=O)/C=C/C(=O)OCCCCCCCC
InChI: InChI=1S/C20H36O4/c1-3-5-7-9-11-13-17-23-19(21)15-16-20(22)24-18-14-12-10-8-6-4-2/h15-16H,3-14,17-18H2,1-2H3/b16-15+
Instrument type: ESI-QTOF
Ms type: MS2
Ion mode: POSITIVE
Ionization: ESI
Collision energy: 10
Precursor m/z: 341.2686360893
Precursor type: [M+H]+
m/z	relative intensity
57.069877	68
71.085527	107
99.00767	368
113.132477	11
117.018235	999
117.054621	24
229.143436	19
