Mass spectrum: Phenolphthalin; ESI-QTOF; MS2; CE: 10; [M-H]-
Name: Phenolphthalin
Formula: C20H16O4
Exact mass: 320.1048589996
SMILES: OC(=O)C1C=CC=CC=1C(C1C=CC(O)=CC=1)C1C=CC(O)=CC=1
InChI: InChI=1S/C20H16O4/c21-15-9-5-13(6-10-15)19(14-7-11-16(22)12-8-14)17-3-1-2-4-18(17)20(23)24/h1-12,19,21-22H,(H,23,24)
Instrument type: ESI-QTOF
Ms type: MS2
Ion mode: NEGATIVE
Ionization: ESI
Collision energy: 10
Precursor m/z: 319.0975825479
Precursor type: [M-H]-
m/z	relative intensity
93.034588	11
181.065888	20
225.055718	15
273.092103	999
274.099928	18
275.107753	32
319.097583	808
