Mass spectrum: 2,7-Acetylaminofluorene; ESI-QTOF; MS2; CE: 20; [M+H]+
Name: 2,7-Acetylaminofluorene
Name: DTXSID9021479
Formula: C17H16N2O2
Exact mass: 280.1211777698
SMILES: CC(=O)NC1C=C2CC3C=C(C=CC=3C2=CC=1)NC(C)=O
InChI: InChI=1S/C17H16N2O2/c1-10(20)18-14-3-5-16-12(8-14)7-13-9-15(19-11(2)21)4-6-17(13)16/h3-6,8-9H,7H2,1-2H3,(H,18,20)(H,19,21)
Instrument type: ESI-QTOF
Ms type: MS2
Ion mode: POSITIVE
Ionization: ESI
Collision energy: 20
Precursor m/z: 281.1284542215
Precursor type: [M+H]+
m/z	relative intensity
43.017841	28
180.080776	91
181.088601	44
196.0995	34
197.107325	371
198.09134	100
221.107325	36
222.09134	62
223.099165	10
238.110065	24
239.11789	999
240.101905	56
263.11789	121
281.128454	837
