Mass spectrum: 3-Methyl-4-(methylthio)phenol; ESI-QTOF; MS2; CE: 20; [M-H]-
Name: 3-Methyl-4-(methylthio)phenol
Name: DTXSID0051996
Formula: C8H10OS
Exact mass: 154.0452356713
SMILES: CC1C=C(O)C=CC=1SC
InChI: InChI=1S/C8H10OS/c1-6-5-7(9)3-4-8(6)10-2/h3-5,9H,1-2H3
Instrument type: ESI-QTOF
Ms type: MS2
Ion mode: NEGATIVE
Ionization: ESI
Collision energy: 20
Precursor m/z: 153.0379592196
Precursor type: [M-H]-
m/z	relative intensity
137.006659	33
138.014484	999
