Mass spectrum: CP-612372; ESI-QTOF; MS2; CE: 20; [M-H]-
Name: CP-612372
Name: DTXSID1047281
Formula: C22H20N4O4
Exact mass: 404.1484551568
SMILES: CC(C)(O)C1C=CC(CNC(=O)C2=CC=CN=C2OC2=CC3=NON=C3C=C2)=CC=1
InChI: InChI=1S/C22H20N4O4/c1-22(2,28)15-7-5-14(6-8-15)13-24-20(27)17-4-3-11-23-21(17)29-16-9-10-18-19(12-16)26-30-25-18/h3-12,28H,13H2,1-2H3,(H,24,27)
Instrument type: ESI-QTOF
Ms type: MS2
Ion mode: NEGATIVE
Ionization: ESI
Collision energy: 20
Precursor m/z: 403.1411787051
Precursor type: [M-H]-
m/z	relative intensity
41.998537	62
90.022347	10
94.029837	41
119.025086	18
122.024752	16
133.02816	152
134.035985	14
135.020001	53
138.019667	101
198.043476	12
237.041799	15
240.041465	40
241.04929	54
255.113901	16
264.114236	11
282.1248	999
327.088749	10
342.1248	43
355.132625	11
358.119715	11
363.122455	16
367.120049	79
368.127874	16
369.099314	24
376.13028	27
385.130614	498
386.138439	11
403.141179	442
