Mass spectrum: N-Ethyl-N-(3-methylphenyl)ethane-1,2-diamine; ESI-QTOF; MS2; CE: 40; [M+H]+
Name: N-Ethyl-N-(3-methylphenyl)ethane-1,2-diamine
Name: DTXSID5027803
Formula: C11H18N2
Exact mass: 178.146998589
SMILES: CC1C=C(C=CC=1)N(CCN)CC
InChI: InChI=1S/C11H18N2/c1-3-13(8-7-12)11-6-4-5-10(2)9-11/h4-6,9H,3,7-8,12H2,1-2H3
Instrument type: ESI-QTOF
Ms type: MS2
Ion mode: POSITIVE
Ionization: ESI
Collision energy: 40
Precursor m/z: 179.1542750407
Precursor type: [M+H]+
m/z	relative intensity
44.049476	402
65.038577	129
77.038577	99
79.054227	53
91.054227	682
92.062052	53
93.057301	65
93.069877	33
103.054227	21
104.049476	31
105.069877	108
106.065126	141
107.072951	211
108.080776	36
115.054227	83
117.057301	245
118.065126	366
119.072951	118
120.080776	55
130.065126	86
131.072951	76
132.080776	999
133.088601	11
134.096426	70
144.080776	14
146.096426	56
147.104251	10
