Mass spectrum: UK-343664; ESI-QTOF; MS2; CE: 20; [M-H]-
Name: UK-343664
Name: DTXSID1047289
Formula: C28H35N7O4S
Exact mass: 565.2471233875
SMILES: CCCOC1C=CC(=CC=1C1NC(=O)C2=NN(CC3=CC=CC=N3)C(CC)=C2N=1)S(=O)(=O)N1CCN(CC1)CC
InChI: InChI=1S/C28H35N7O4S/c1-4-17-39-24-11-10-21(40(37,38)34-15-13-33(6-3)14-16-34)18-22(24)27-30-25-23(5-2)35(32-26(25)28(36)31-27)19-20-9-7-8-12-29-20/h7-12,18H,4-6,13-17,19H2,1-3H3,(H,30,31,36)
Instrument type: ESI-QTOF
Ms type: MS2
Ion mode: NEGATIVE
Ionization: ESI
Collision energy: 20
Precursor m/z: 564.2398469358
Precursor type: [M-H]-
m/z	relative intensity
345.126494	11
522.192897	174
564.239847	999
