Mass spectrum: PharmaGSID_48518; ESI-QTOF; MS2; CE: 40; [M-H]-
Name: PharmaGSID_48518
Formula: C13H9BrFNO3S2
Exact mass: 388.9191257214
SMILES: O=C(NS(=O)(=O)/C=C/C1=CC=CS1)C1C=CC(F)=CC=1Br
InChI: InChI=1S/C13H9BrFNO3S2/c14-12-8-9(15)3-4-11(12)13(17)16-21(18,19)7-5-10-2-1-6-20-10/h1-8H,(H,16,17)/b7-5+
Instrument type: ESI-QTOF
Ms type: MS2
Ion mode: NEGATIVE
Ionization: ESI
Collision energy: 40
Precursor m/z: 387.9118492697
Precursor type: [M-H]-
m/z	relative intensity
41.998537	530
65.039674	13
78.918886	999
78.955589	23
78.965937	14
93.034588	11
96.003919	38
97.011744	102
106.996094	51
123.998834	14
125.006659	338
