Mass spectrum: C.I. Disperse Red 60; ESI-QTOF; MS2; CE: 20; [M+H]+
Name: C.I. Disperse Red 60
Name: DTXSID2025210
Formula: C20H13NO4
Exact mass: 331.0844579113
SMILES: NC1=C2C(=C(O)C=C1OC1C=CC=CC=1)C(=O)C1C=CC=CC=1C2=O
InChI: InChI=1S/C20H13NO4/c21-18-15(25-11-6-2-1-3-7-11)10-14(22)16-17(18)20(24)13-9-5-4-8-12(13)19(16)23/h1-10,22H,21H2
Instrument type: ESI-QTOF
Ms type: MS2
Ion mode: POSITIVE
Ionization: ESI
Collision energy: 20
Precursor m/z: 332.091734363
Precursor type: [M+H]+
m/z	relative intensity
92.049476	10
149.059706	11
226.04987	48
238.04987	22
239.057695	88
254.044784	37
255.052609	18
304.09682	14
314.08117	100
332.091734	999
