Mass spectrum: N,N-Dimethyl-4-nitrosoaniline; ESI-QTOF; MS2; CE: 40; [M+H]+
Name: N,N-Dimethyl-4-nitrosoaniline
Name: DTXSID7025138
Formula: C8H10N2O
Exact mass: 150.0793129561
SMILES: CN(C)C1C=CC(=CC=1)N=O
InChI: InChI=1S/C8H10N2O/c1-10(2)8-5-3-7(9-11)4-6-8/h3-6H,1-2H3
Instrument type: ESI-QTOF
Ms type: MS2
Ion mode: POSITIVE
Ionization: ESI
Collision energy: 40
Precursor m/z: 151.0865894078
Precursor type: [M+H]+
m/z	relative intensity
39.022927	88
41.038577	33
42.033826	190
51.022927	256
52.018175	69
52.030752	16
53.038577	33
55.041651	11
56.049476	15
63.022927	27
63.994366	23
64.018175	17
64.030752	29
65.038577	999
65.070939	18
65.083515	10
66.033826	242
67.041651	113
68.049476	348
77.038577	220
78.033826	330
79.041651	22
79.054227	179
80.049476	60
81.057301	42
82.065126	54
89.038577	10
90.033826	62
91.041651	87
91.054227	37
92.049476	736
93.044725	356
93.057301	172
94.065126	23
104.049476	44
105.044725	23
105.057301	40
106.065126	230
107.060375	17
107.072951	16
108.080776	19
116.049476	49
117.044725	14
117.057301	30
118.05255	329
119.060375	252
120.080776	70
131.060375	25
132.0682	70
133.076025	467
134.08385	19
