Mass spectrum: Vatalanib; ESI-QTOF; MS2; CE: 10; [M-H]-
Name: Vatalanib
Name: DTXSID5049073
Formula: C20H15ClN4
Exact mass: 346.0985242181
SMILES: ClC1C=CC(=CC=1)NC1=NN=C(CC2C=CN=CC=2)C2C=CC=CC=21
InChI: InChI=1S/C20H15ClN4/c21-15-5-7-16(8-6-15)23-20-18-4-2-1-3-17(18)19(24-25-20)13-14-9-11-22-12-10-14/h1-12H,13H2,(H,23,25)
Instrument type: ESI-QTOF
Ms type: MS2
Ion mode: NEGATIVE
Ionization: ESI
Collision energy: 10
Precursor m/z: 345.0912477664
Precursor type: [M-H]-
m/z	relative intensity
345.091248	999
