Mass spectrum: 4-Ethoxy-4-oxobut-2-enoic acid; ESI-QTOF; MS2; CE: 10; [M-H]-
Name: 4-Ethoxy-4-oxobut-2-enoic acid
Name: DTXSID1044485
Formula: C6H8O4
Exact mass: 144.0422587444
SMILES: CCOC(=O)/C=C/C(O)=O
InChI: InChI=1S/C6H8O4/c1-2-10-6(9)4-3-5(7)8/h3-4H,2H2,1H3,(H,7,8)/b4-3+
Instrument type: ESI-QTOF
Ms type: MS2
Ion mode: NEGATIVE
Ionization: ESI
Collision energy: 10
Precursor m/z: 143.0349822927
Precursor type: [M-H]-
m/z	relative intensity
41.003288	21
43.018938	272
45.034588	451
53.039674	13
55.018938	94
57.034588	23
59.013853	23
69.034588	78
71.013853	472
71.050238	171
81.034588	45
84.021678	163
97.029503	10
99.045153	999
143.034982	141
