Mass spectrum: SU-5416; ESI-QTOF; MS2; CE: 40; [M-H]-
Name: SU-5416
Name: DTXSID1041132
Formula: C15H14N2O
Exact mass: 238.1106130837
SMILES: CC1C=C(C)NC=1/C=C1\C(=O)NC2=CC=CC=C2\1
InChI: InChI=1S/C15H14N2O/c1-9-7-10(2)16-14(9)8-12-11-5-3-4-6-13(11)17-15(12)18/h3-8,16H,1-2H3,(H,17,18)/b12-8-
Instrument type: ESI-QTOF
Ms type: MS2
Ion mode: NEGATIVE
Ionization: ESI
Collision energy: 40
Precursor m/z: 237.103336632
Precursor type: [M-H]-
m/z	relative intensity
41.998537	999
42.022347	20
42.034923	10
51.024024	10
65.998537	11
80.050573	24
94.066223	498
115.042748	11
116.050573	90
131.037662	246
132.045487	19
141.045822	63
144.045487	52
166.066223	15
168.081873	17
169.040736	13
191.061472	19
193.040736	17
193.077122	412
194.084947	255
204.069297	13
207.056386	13
207.092772	30
217.077122	10
218.084947	10
219.092772	14
220.064211	18
221.072037	80
222.079862	10
