Mass spectrum: Triisopropanolamine; ESI-QTOF; MS2; CE: 20; [M+H]+
Name: Triisopropanolamine
Formula: C9H21NO3
Exact mass: 191.1521435442
SMILES: CC(O)CN(CC(C)O)CC(C)O
InChI: InChI=1S/C9H21NO3/c1-7(11)4-10(5-8(2)12)6-9(3)13/h7-9,11-13H,4-6H2,1-3H3
Instrument type: ESI-QTOF
Ms type: MS2
Ion mode: POSITIVE
Ionization: ESI
Collision energy: 20
Precursor m/z: 192.1594199959
Precursor type: [M+H]+
m/z	relative intensity
31.017841	12
41.038577	127
42.033826	36
43.054227	65
44.049476	11
55.054227	96
56.049476	92
58.065126	66
59.049141	363
59.072951	13
68.049476	12
69.069877	44
70.065126	85
74.06004	10
79.054227	21
81.069877	79
86.06004	20
96.080776	43
98.096426	999
98.130131	41
98.153941	29
112.112076	16
114.09134	61
116.10699	187
130.122641	12
134.117555	15
138.127726	28
156.138291	190
174.148855	376
192.15942	108
