Mass spectrum: N-(9-Fluorenylmethoxycarbonyl)-L-leucine; ESI-QTOF; MS2; CE: 10; [M+H]+
Name: N-(9-Fluorenylmethoxycarbonyl)-L-leucine
Name: DTXSID0040751
Formula: C21H23NO4
Exact mass: 353.1627082303
SMILES: CC(C)CC(NC(=O)OCC1C2C=CC=CC=2C2C=CC=CC=21)C(O)=O
InChI: InChI=1S/C21H23NO4/c1-13(2)11-19(20(23)24)22-21(25)26-12-18-16-9-5-3-7-14(16)15-8-4-6-10-17(15)18/h3-10,13,18-19H,11-12H2,1-2H3,(H,22,25)(H,23,24)
Instrument type: ESI-QTOF
Ms type: MS2
Ion mode: POSITIVE
Ionization: ESI
Collision energy: 10
Precursor m/z: 354.169984682
Precursor type: [M+H]+
m/z	relative intensity
86.096426	165
130.086255	83
132.101905	424
176.091734	12
179.085527	999
