Mass spectrum: Butyl cyanoacetate; ESI-QTOF; MS2; CE: 10; [M-H]-
Name: Butyl cyanoacetate
Name: DTXSID1044439
Formula: C7H11NO2
Exact mass: 141.0789786029
SMILES: CCCCOC(=O)CC#N
InChI: InChI=1S/C7H11NO2/c1-2-3-6-10-7(9)4-5-8/h2-4,6H2,1H3
Instrument type: ESI-QTOF
Ms type: MS2
Ion mode: NEGATIVE
Ionization: ESI
Collision energy: 10
Precursor m/z: 140.0717021512
Precursor type: [M-H]-
m/z	relative intensity
65.998537	999
140.071702	54
