Mass spectrum: Bis(2-ethylhexyl) phosphate; ESI-QTOF; MS2; CE: 20; [M+H]+
Name: Bis(2-ethylhexyl) phosphate
Name: DTXSID1027134
Formula: C16H35O4P
Exact mass: 322.2272960957
SMILES: CCCCC(COP(O)(=O)OCC(CCCC)CC)CC
InChI: InChI=1S/C16H35O4P/c1-5-9-11-15(7-3)13-19-21(17,18)20-14-16(8-4)12-10-6-2/h15-16H,5-14H2,1-4H3,(H,17,18)
Instrument type: ESI-QTOF
Ms type: MS2
Ion mode: POSITIVE
Ionization: ESI
Collision energy: 20
Precursor m/z: 323.2345725474
Precursor type: [M+H]+
m/z	relative intensity
43.054227	20
57.069877	184
62.963042	16
71.085527	162
80.973607	36
98.984172	999
99.022927	19
99.035813	11
