Mass spectrum: 4-Propylphenol; ESI-QTOF; MS2; CE: 20; [M+H]+
Name: 4-Propylphenol
Name: DTXSID9022100
Formula: C9H12O
Exact mass: 136.0888150051
SMILES: CCCC1=CC=C(O)C=C1
InChI: InChI=1S/C9H12O/c1-2-3-8-4-6-9(10)7-5-8/h4-7,10H,2-3H2,1H3
Instrument type: ESI-QTOF
Ms type: MS2
Ion mode: POSITIVE
Ionization: ESI
Collision energy: 20
Precursor m/z: 137.0960914568
Precursor type: [M+H]+
m/z	relative intensity
41.038577	20
43.054227	15
61.007276	131
62.015101	37
63.994366	424
67.054227	12
69.069877	14
79.017841	999
79.054227	61
81.069877	179
95.085527	25
