Mass spectrum: Bis[2-(2-butoxyethoxy)ethyl] adipate; ESI-QTOF; MS2; CE: 40; [M-H]-
Name: Bis[2-(2-butoxyethoxy)ethyl] adipate
Name: DTXSID3027085
Formula: C22H42O8
Exact mass: 434.2879683182
SMILES: CCCCOCCOCCOC(=O)CCCCC(=O)OCCOCCOCCCC
InChI: InChI=1S/C22H42O8/c1-3-5-11-25-13-15-27-17-19-29-21(23)9-7-8-10-22(24)30-20-18-28-16-14-26-12-6-4-2/h3-20H2,1-2H3
Instrument type: ESI-QTOF
Ms type: MS2
Ion mode: NEGATIVE
Ionization: ESI
Collision energy: 40
Precursor m/z: 433.2806918665
Precursor type: [M-H]-
m/z	relative intensity
41.039674	30
43.018938	28
44.998203	14
51.024024	17
53.039674	13
55.018938	23
57.034588	84
59.013853	999
59.050238	13
67.018938	15
69.034588	197
71.013853	56
73.029503	12
79.018938	49
85.029503	489
97.008374	10
97.029503	142
105.070974	12
133.065888	137
163.076453	10
183.081539	10
