Mass spectrum: Mosapride citrate; ESI-QTOF; MS2; CE: 10; [M+H]+
Name: Mosapride citrate
Formula: C21H25ClFN3O3
Exact mass: 421.1568475966
SMILES: CCOC1C=C(N)C(Cl)=CC=1C(=O)NCC1CN(CC2=CC=C(F)C=C2)CCO1
InChI: InChI=1S/C21H25ClFN3O3/c1-2-28-20-10-19(24)18(22)9-17(20)21(27)25-11-16-13-26(7-8-29-16)12-14-3-5-15(23)6-4-14/h3-6,9-10,16H,2,7-8,11-13,24H2,1H3,(H,25,27)
Instrument type: ESI-QTOF
Ms type: MS2
Ion mode: POSITIVE
Ionization: ESI
Collision energy: 10
Precursor m/z: 422.1641240483
Precursor type: [M+H]+
m/z	relative intensity
65.015254	12
170.036031	36
198.029803	171
319.019471	10
422.164124	999
