Mass spectrum: 4-Methoxybenzenamine; ESI-QTOF; MS2; CE: 40; [M+H]+
Name: 4-Methoxybenzenamine
Name: DTXSID3020093
Formula: C7H9NO
Exact mass: 123.0684139168
SMILES: COC1C=CC(N)=CC=1
InChI: InChI=1S/C7H9NO/c1-9-7-4-2-6(8)3-5-7/h2-5H,8H2,1H3
Instrument type: ESI-QTOF
Ms type: MS2
Ion mode: POSITIVE
Ionization: ESI
Collision energy: 40
Precursor m/z: 124.0756903685
Precursor type: [M+H]+
m/z	relative intensity
38.015101	63
39.022927	33
40.030752	18
50.015101	24
51.022927	463
53.038577	122
54.033826	41
62.015101	42
63.022927	999
63.067865	15
64.030752	600
65.038577	184
66.046402	287
77.038577	210
78.033826	20
80.049476	568
81.057301	100
92.025666	183
92.049476	80
93.057301	300
108.04439	48
