Mass spectrum: (3aR)-(+)-Sclareolide; ESI-QTOF; MS2; CE: 10; [M+H]+
Name: (3aR)-(+)-Sclareolide
Name: DTXSID8047686
Formula: C16H26O2
Exact mass: 250.193280074
SMILES: CC1(C)CCCC2(C)C1CCC1(C)OC(=O)CC12
InChI: InChI=1S/C16H26O2/c1-14(2)7-5-8-15(3)11(14)6-9-16(4)12(15)10-13(17)18-16/h11-12H,5-10H2,1-4H3
Instrument type: ESI-QTOF
Ms type: MS2
Ion mode: POSITIVE
Ionization: ESI
Collision energy: 10
Precursor m/z: 251.2005565257
Precursor type: [M+H]+
m/z	relative intensity
69.069877	14
81.069877	30
83.085527	30
85.101177	12
95.085527	49
105.069877	14
109.101177	90
121.101177	29
123.116827	38
127.075356	17
135.116827	23
137.096091	23
137.132477	62
141.091006	13
149.132477	11
151.148127	12
153.091006	16
155.106656	22
159.116827	11
169.122306	27
173.132477	13
175.148127	17
181.122306	23
189.163777	63
191.179427	999
195.137956	34
215.179427	75
233.189992	321
251.200557	563
