Mass spectrum: Lactose; ESI-QTOF; MS2; CE: 10; [M-H]-
Name: Lactose
Name: DTXSID2023193
Formula: C12H22O11
Exact mass: 342.1162115471
SMILES: O[C@H](CO)[C@@H](O[C@@H]1O[C@H](CO)[C@H](O)[C@H](O)[C@H]1O)[C@H](O)[C@@H](O)C=O
InChI: InChI=1S/C12H22O11/c13-1-4(16)7(18)11(5(17)2-14)23-12-10(21)9(20)8(19)6(3-15)22-12/h1,4-12,14-21H,2-3H2/t4-,5+,6+,7+,8-,9-,10+,11+,12-/m0/s1
Instrument type: ESI-QTOF
Ms type: MS2
Ion mode: NEGATIVE
Ionization: ESI
Collision energy: 10
Precursor m/z: 341.1089350954
Precursor type: [M-H]-
m/z	relative intensity
44.998203	77
59.013853	166
71.013853	129
73.029503	303
81.034588	35
83.013853	59
87.008768	28
89.024418	302
97.029503	317
99.045153	19
101.024418	841
101.060803	14
113.003288	11
113.024418	80
115.040068	86
119.034982	51
125.024418	58
131.034982	27
143.034982	223
149.045547	15
161.045547	999
161.097189	16
179.056112	169
221.066676	11
