Mass spectrum: Aplaviroc; ESI-QTOF; MS2; CE: 40; [M-H]-
Name: Aplaviroc
Name: DTXSID1047316
Formula: C33H43N3O6
Exact mass: 577.3151861277
SMILES: CCCCN1C(=O)C(NC(=O)C21CCN(CC1C=CC(=CC=1)OC1=CC=C(C=C1)C(O)=O)CC2)C(O)C1CCCCC1
InChI: InChI=1S/C33H43N3O6/c1-2-3-19-36-30(38)28(29(37)24-7-5-4-6-8-24)34-32(41)33(36)17-20-35(21-18-33)22-23-9-13-26(14-10-23)42-27-15-11-25(12-16-27)31(39)40/h9-16,24,28-29,37H,2-8,17-22H2,1H3,(H,34,41)(H,39,40)
Instrument type: ESI-QTOF
Ms type: MS2
Ion mode: NEGATIVE
Ionization: ESI
Collision energy: 40
Precursor m/z: 576.307909676
Precursor type: [M-H]-
m/z	relative intensity
41.998537	384
84.009102	128
97.004351	15
106.042413	30
108.045487	12
110.061137	24
124.076788	12
124.113173	22
127.087687	79
129.103337	286
133.053312	17
136.040402	122
137.072037	11
154.074776	149
155.061472	16
155.082601	343
169.064546	14
182.073714	11
183.081539	211
187.100263	10
197.129551	35
209.129551	170
210.092438	74
218.127206	14
234.1248	16
236.14045	144
264.139388	15
319.145201	18
321.137042	16
321.160852	48
334.15342	24
347.140116	46
348.147941	11
363.15884	23
364.166665	15
365.150681	11
379.202716	10
390.216021	12
420.163197	21
420.229265	999
420.30791	10
421.23441	36
464.219095	842
465.221046	23
