Mass spectrum: Phosphoric acid, dibutyl ester; ESI-QTOF; MS2; CE: 40; [M+H]+
Name: Phosphoric acid, dibutyl ester
Formula: C8H19O4P
Exact mass: 210.1020955853
SMILES: CCCCOP(O)(=O)OCCCC
InChI: InChI=1S/C8H19O4P/c1-3-5-7-11-13(9,10)12-8-6-4-2/h3-8H2,1-2H3,(H,9,10)
Instrument type: ESI-QTOF
Ms type: MS2
Ion mode: POSITIVE
Ionization: ESI
Collision energy: 40
Precursor m/z: 211.109372037
Precursor type: [M+H]+
m/z	relative intensity
39.022927	13
41.038577	65
57.069877	17
62.963042	31
80.973607	999
81.009992	14
98.984172	875
99.022927	12
