Mass spectrum: Acid Red 337; ESI-QTOF; MS2; CE: 20; [M-H]-
Name: Acid Red 337
Name: DTXSID2044713
Formula: C17H12F3N3O4S
Exact mass: 411.0500612242
SMILES: NC1=CC=C2C=C(C=C(O)C2=C1/N=N/C1=CC=CC=C1C(F)(F)F)S(O)(=O)=O
InChI: InChI=1S/C17H12F3N3O4S/c18-17(19,20)11-3-1-2-4-13(11)22-23-16-12(21)6-5-9-7-10(28(25,26)27)8-14(24)15(9)16/h1-8,24H,21H2,(H,25,26,27)/b23-22+
Instrument type: ESI-QTOF
Ms type: MS2
Ion mode: NEGATIVE
Ionization: ESI
Collision energy: 20
Precursor m/z: 410.0427847725
Precursor type: [M-H]-
m/z	relative intensity
79.957363	120
168.032911	194
186.043476	14
237.010127	31
248.997551	89
250.005376	570
250.064686	23
250.091175	12
264.007348	11
330.08597	11
342.02418	14
410.042785	999
