Mass spectrum: 4-(2-Hydroxyethyl)morpholine; ESI-QTOF; MS2; CE: 40; [M+H]+
Name: 4-(2-Hydroxyethyl)morpholine
Name: DTXSID2022090
Formula: C6H13NO2
Exact mass: 131.0946286667
SMILES: OCCN1CCOCC1
InChI: InChI=1S/C6H13NO2/c8-4-1-7-2-5-9-6-3-7/h8H,1-6H2
Instrument type: ESI-QTOF
Ms type: MS2
Ion mode: POSITIVE
Ionization: ESI
Collision energy: 40
Precursor m/z: 132.1019051184
Precursor type: [M+H]+
m/z	relative intensity
29.002191	20
39.022927	27
41.038577	144
42.033826	712
43.017841	76
43.054227	29
44.049476	390
45.033491	999
45.057301	20
45.069877	13
54.033826	17
55.041651	111
56.049476	81
57.057301	38
58.065126	20
68.049476	38
70.065126	230
84.080776	15
86.06004	12
88.07569	23
