Mass spectrum: Acetoacetanilide; ESI-QTOF; MS2; CE: 20; [M-H]-
Name: Acetoacetanilide
Formula: C10H11NO2
Exact mass: 177.0789786029
SMILES: CC(=O)CC(=O)NC1C=CC=CC=1
InChI: InChI=1S/C10H11NO2/c1-8(12)7-10(13)11-9-5-3-2-4-6-9/h2-6H,7H2,1H3,(H,11,13)
Instrument type: ESI-QTOF
Ms type: MS2
Ion mode: NEGATIVE
Ionization: ESI
Collision energy: 20
Precursor m/z: 176.0717021512
Precursor type: [M-H]-
m/z	relative intensity
39.024024	11
41.003288	78
57.034588	39
83.013853	711
83.050238	25
92.050573	999
