Mass spectrum: Benzenecarboximidamide; ESI-QTOF; MS2; CE: 40; [M+H]+
Name: Benzenecarboximidamide
Name: DTXSID9044401
Formula: C7H8N2
Exact mass: 120.06874827
SMILES: NC(=N)C1C=CC=CC=1
InChI: InChI=1S/C7H8N2/c8-7(9)6-4-2-1-3-5-6/h1-5H,(H3,8,9)
Instrument type: ESI-QTOF
Ms type: MS2
Ion mode: POSITIVE
Ionization: ESI
Collision energy: 40
Precursor m/z: 121.0760247217
Precursor type: [M+H]+
m/z	relative intensity
43.029075	12
50.015101	11
51.022927	517
77.038577	999
104.049476	121
