Mass spectrum: 1-Methyl-1,3-dihydro-2H-benzimidazole-2-thione; ESI-QTOF; MS2; CE: 20; [M-H]-
Name: 1-Methyl-1,3-dihydro-2H-benzimidazole-2-thione
Name: DTXSID40178252
Formula: C8H8N2S
Exact mass: 164.040819
SMILES: CN1C(=S)NC2=CC=CC=C12
InChI: InChI=1S/C8H8N2S/c1-10-7-5-3-2-4-6(7)9-8(10)11/h2-5H,1H3,(H,9,11)
Instrument type: ESI-QTOF
Ms type: MS2
Ion mode: NEGATIVE
Ionization: ESI
Collision energy: 20
Precursor m/z: 163.0335425483
Precursor type: [M-H]-
m/z	relative intensity
57.975693	59
104.037997	24
117.045822	51
131.061472	22
148.010067	999
163.033543	637
