Mass spectrum: Temafloxacin; ESI-QTOF; MS2; CE: 40; [M+H]+
Name: Temafloxacin
Formula: C21H18F3N3O3
Exact mass: 417.1300260633
SMILES: CC1CN(CCN1)C1=CC2=C(C=C1F)C(=O)C(=CN2C1=CC=C(F)C=C1F)C(O)=O
InChI: InChI=1S/C21H18F3N3O3/c1-11-9-26(5-4-25-11)19-8-18-13(7-16(19)24)20(28)14(21(29)30)10-27(18)17-3-2-12(22)6-15(17)23/h2-3,6-8,10-11,25H,4-5,9H2,1H3,(H,29,30)
Instrument type: ESI-QTOF
Ms type: MS2
Ion mode: POSITIVE
Ionization: ESI
Collision energy: 40
Precursor m/z: 418.137302515
Precursor type: [M+H]+
m/z	relative intensity
44.049476	56
58.065126	17
70.065126	11
84.080776	11
185.107325	59
189.082253	43
268.080656	10
273.063409	19
274.047425	13
274.068554	10
275.054107	12
281.085801	10
288.086884	245
289.069757	16
289.092029	11
290.068594	13
291.073974	14
295.092698	16
296.075571	13
297.084539	14
302.042339	14
303.073974	30
309.107205	23
310.079987	13
311.097903	12
315.073974	25
317.089624	96
324.13068	63
329.053239	18
331.105274	286
338.073559	72
343.068889	15
352.089209	21
352.125595	25
356.136909	12
357.084539	33
372.131823	16
380.121652	149
400.126738	999
