Mass spectrum: 4-Pyridinol; ESI-QTOF; MS2; CE: 10; [M-H]-
Name: 4-Pyridinol
Name: DTXSID2052310
Formula: C5H5NO
Exact mass: 95.0371137892
SMILES: OC1C=CN=CC=1
InChI: InChI=1S/C5H5NO/c7-5-1-3-6-4-2-5/h1-4H,(H,6,7)
Instrument type: ESI-QTOF
Ms type: MS2
Ion mode: NEGATIVE
Ionization: ESI
Collision energy: 10
Precursor m/z: 94.0298373375
Precursor type: [M-H]-
m/z	relative intensity
94.029837	999
