Mass spectrum: SR271425; ESI-QTOF; MS2; CE: 40; [M-H]-
Name: SR271425
Name: DTXSID8047347
Formula: C22H27N3O3S
Exact mass: 413.1773124804
SMILES: COC1C=CC2SC3C(=C(C=CC=3CNC=O)NCCN(CC)CC)C(=O)C=2C=1
InChI: InChI=1S/C22H27N3O3S/c1-4-25(5-2)11-10-24-18-8-6-15(13-23-14-26)22-20(18)21(27)17-12-16(28-3)7-9-19(17)29-22/h6-9,12,14,24H,4-5,10-11,13H2,1-3H3,(H,23,26)
Instrument type: ESI-QTOF
Ms type: MS2
Ion mode: NEGATIVE
Ionization: ESI
Collision energy: 40
Precursor m/z: 412.1700360287
Precursor type: [M-H]-
m/z	relative intensity
41.998537	999
42.022347	19
42.034923	11
44.014187	268
72.045487	53
174.043476	10
213.000231	10
213.01799	11
226.029837	42
235.051301	41
240.012473	105
240.041465	29
251.037662	13
253.020298	14
254.028123	51
255.035948	46
264.054041	99
265.020298	13
321.160852	13
339.090092	11
340.103968	13
340.125097	64
355.148572	63
