Mass spectrum: Pirinixic acid; ESI-QTOF; MS2; CE: 20; [M+H]+
Name: Pirinixic acid
Name: DTXSID4020290
Formula: C14H14ClN3O2S
Exact mass: 323.0495251534
SMILES: CC1C(=CC=CC=1C)NC1C=C(Cl)N=C(N=1)SCC(O)=O
InChI: InChI=1S/C14H14ClN3O2S/c1-8-4-3-5-10(9(8)2)16-12-6-11(15)17-14(18-12)21-7-13(19)20/h3-6H,7H2,1-2H3,(H,19,20)(H,16,17,18)
Instrument type: ESI-QTOF
Ms type: MS2
Ion mode: POSITIVE
Ionization: ESI
Collision energy: 20
Precursor m/z: 324.0568016051
Precursor type: [M+H]+
m/z	relative intensity
183.091675	16
196.086924	10
215.062205	30
219.068353	188
242.074645	121
263.027847	14
278.051322	999
306.046237	406
324.056802	146
