Mass spectrum: N-Ethyl-N-(3-methylphenyl)ethane-1,2-diamine; ESI-QTOF; MS2; CE: 20; [M+H]+
Name: N-Ethyl-N-(3-methylphenyl)ethane-1,2-diamine
Name: DTXSID5027803
Formula: C11H18N2
Exact mass: 178.146998589
SMILES: CC1C=C(C=CC=1)N(CCN)CC
InChI: InChI=1S/C11H18N2/c1-3-13(8-7-12)11-6-4-5-10(2)9-11/h4-6,9H,3,7-8,12H2,1-2H3
Instrument type: ESI-QTOF
Ms type: MS2
Ion mode: POSITIVE
Ionization: ESI
Collision energy: 20
Precursor m/z: 179.1542750407
Precursor type: [M+H]+
m/z	relative intensity
44.049476	195
91.054227	31
93.069877	19
107.072951	53
108.080776	86
118.065126	32
119.072951	32
131.072951	10
132.080776	514
133.088601	43
134.096426	439
136.112076	173
146.096426	17
147.104251	542
160.112076	139
162.127726	999
