Mass spectrum: SSR69071; ESI-QTOF; MS2; CE: 40; [M+H]+
Name: SSR69071
Name: DTXSID1047368
Formula: C27H32N4O7S
Exact mass: 556.1991701365
SMILES: COC1C=C(C(C)C)C2=C(C=1)S(=O)(=O)N(COC1=CC(=O)N3C=CC=C(OCCN4CCCCC4)C3=N1)C2=O
InChI: InChI=1S/C27H32N4O7S/c1-18(2)20-14-19(36-3)15-22-25(20)27(33)31(39(22,34)35)17-38-23-16-24(32)30-11-7-8-21(26(30)28-23)37-13-12-29-9-5-4-6-10-29/h7-8,11,14-16,18H,4-6,9-10,12-13,17H2,1-3H3
Instrument type: ESI-QTOF
Ms type: MS2
Ion mode: POSITIVE
Ionization: ESI
Collision energy: 40
Precursor m/z: 557.2064465882
Precursor type: [M+H]+
m/z	relative intensity
112.112076	999
189.07843	14
217.060769	14
268.063805	64
