Mass spectrum: 3-(3-Pyridyl)-1-propanol; ESI-QTOF; MS2; CE: 20; [M+H]+
Name: 3-(3-Pyridyl)-1-propanol
Name: DTXSID5022198
Formula: C8H11NO
Exact mass: 137.0840639806
SMILES: OCCCC1=CN=CC=C1
InChI: InChI=1S/C8H11NO/c10-6-2-4-8-3-1-5-9-7-8/h1,3,5,7,10H,2,4,6H2
Instrument type: ESI-QTOF
Ms type: MS2
Ion mode: POSITIVE
Ionization: ESI
Collision energy: 20
Precursor m/z: 138.0913404323
Precursor type: [M+H]+
m/z	relative intensity
41.038577	10
65.038577	35
67.041651	16
67.054227	35
77.038577	12
78.033826	13
79.041651	40
80.049476	17
91.054227	10
92.049476	663
93.057301	999
94.065126	992
106.065126	153
107.072951	91
118.065126	23
120.080776	214
138.09134	701
