Mass spectrum: 1-Octyl-2-pyrrolidone; ESI-QTOF; MS2; CE: 20; [M+H]+
Name: 1-Octyl-2-pyrrolidone
Name: DTXSID4036435
Formula: C12H23NO
Exact mass: 197.1779643634
SMILES: CCCCCCCCN1CCCC1=O
InChI: InChI=1S/C12H23NO/c1-2-3-4-5-6-7-10-13-11-8-9-12(13)14/h2-11H2,1H3
Instrument type: ESI-QTOF
Ms type: MS2
Ion mode: POSITIVE
Ionization: ESI
Collision energy: 20
Precursor m/z: 198.1852408151
Precursor type: [M+H]+
m/z	relative intensity
41.038577	49
43.054227	224
44.01309	21
57.069877	188
69.033491	54
71.085527	89
86.06004	997
86.096426	22
86.109002	11
114.09134	12
128.10699	12
198.185241	999
