Mass spectrum: 3-Butyl-1-methyl-1H-imidazol-3-ium; ESI-QTOF; MS2; CE: 40; [M+H]+
Name: 3-Butyl-1-methyl-1H-imidazol-3-ium
Formula: [C8H15N2]+
Exact mass: 139.1235234933
SMILES: CCCCN1C=[N+](C)C=C1
InChI: InChI=1S/C8H15N2/c1-3-4-5-10-7-6-9(2)8-10/h6-8H,3-5H2,1-2H3/q+1
Instrument type: ESI-QTOF
Ms type: MS2
Ion mode: POSITIVE
Ionization: ESI
Collision energy: 40
Precursor m/z: 140.130799945
Precursor type: [M+H]+
m/z	relative intensity
28.018175	19
29.038577	17
30.033826	10
39.022927	182
40.030752	150
41.026001	11
41.038577	672
42.033826	999
42.046402	637
43.041651	361
43.054227	11
54.033826	17
55.054227	29
56.049476	326
57.057301	153
57.069877	30
58.077702	19
67.029075	12
68.0369	39
82.05255	13
83.060375	617
84.0682	569
84.093352	12
96.0682	25
110.08385	10
