Mass spectrum: 1-Methyl-1,3-dihydro-2H-benzimidazole-2-thione; ESI-QTOF; MS2; CE: 40; [M+H]+
Name: 1-Methyl-1,3-dihydro-2H-benzimidazole-2-thione
Name: DTXSID40178252
Formula: C8H8N2S
Exact mass: 164.040819
SMILES: CN1C(=S)NC2=CC=CC=C12
InChI: InChI=1S/C8H8N2S/c1-10-7-5-3-2-4-6(7)9-8(10)11/h2-5H,1H3,(H,9,11)
Instrument type: ESI-QTOF
Ms type: MS2
Ion mode: POSITIVE
Ionization: ESI
Collision energy: 40
Precursor m/z: 165.0480954517
Precursor type: [M+H]+
m/z	relative intensity
39.022927	23
44.979347	12
51.022927	50
53.038577	28
58.994997	62
63.022927	25
64.030752	22
65.038577	476
66.033826	12
77.038577	326
78.033826	10
78.046402	54
79.041651	13
79.054227	58
80.049476	65
90.033826	36
91.041651	51
92.049476	283
96.002822	70
97.010647	18
104.049476	374
105.044725	26
105.057301	34
106.05255	180
106.065126	390
107.072951	74
117.044725	12
118.05255	180
119.060375	75
122.005896	25
123.013721	116
124.00897	10
131.060375	999
132.0682	299
133.076025	79
149.016795	18
150.02462	409
163.032445	10
165.048095	15
