Mass spectrum: (6)-Gingerol; ESI-QTOF; MS2; CE: 20; [M+H]+
Name: (6)-Gingerol
Name: DTXSID3041035
Formula: C17H26O4
Exact mass: 294.1831093186
SMILES: CCCCCC(O)CC(=O)CCC1C=CC(O)=C(C=1)OC
InChI: InChI=1S/C17H26O4/c1-3-4-5-6-14(18)12-15(19)9-7-13-8-10-16(20)17(11-13)21-2/h8,10-11,14,18,20H,3-7,9,12H2,1-2H3
Instrument type: ESI-QTOF
Ms type: MS2
Ion mode: POSITIVE
Ionization: ESI
Collision energy: 20
Precursor m/z: 295.1903857703
Precursor type: [M+H]+
m/z	relative intensity
55.054227	16
79.017841	11
81.069877	14
83.085527	34
94.041316	13
117.069877	27
122.036231	29
123.116827	22
137.059706	999
138.067531	14
141.127392	17
145.064791	133
162.067531	43
172.145781	16
177.091006	192
179.070271	63
189.091006	10
203.106656	11
