Mass spectrum: 7-Amino-4-hydroxynaphthalene-2-sulfonic acid; ESI-QTOF; MS2; CE: 10; [M-H]-
Name: 7-Amino-4-hydroxynaphthalene-2-sulfonic acid
Formula: C10H9NO4S
Exact mass: 239.0252285137
SMILES: NC1=CC2C=C(C=C(O)C=2C=C1)S(O)(=O)=O
InChI: InChI=1S/C10H9NO4S/c11-7-1-2-9-6(3-7)4-8(5-10(9)12)16(13,14)15/h1-5,12H,11H2,(H,13,14,15)
Instrument type: ESI-QTOF
Ms type: MS2
Ion mode: NEGATIVE
Ionization: ESI
Collision energy: 10
Precursor m/z: 238.017952062
Precursor type: [M-H]-
m/z	relative intensity
79.957363	17
174.056052	19
238.017952	999
