Mass spectrum: Butyl myristate; ESI-QTOF; MS2; CE: 10; [M-H]-
Name: Butyl myristate
Formula: C18H36O2
Exact mass: 284.271530393
SMILES: CCCCCCCCCCCCCC(=O)OCCCC
InChI: InChI=1S/C18H36O2/c1-3-5-7-8-9-10-11-12-13-14-15-16-18(19)20-17-6-4-2/h3-17H2,1-2H3
Instrument type: ESI-QTOF
Ms type: MS2
Ion mode: NEGATIVE
Ionization: ESI
Collision energy: 10
Precursor m/z: 283.2642539413
Precursor type: [M-H]-
m/z	relative intensity
283.264254	999
