Mass spectrum: 4-(Diethylamino)benzaldehyde; ESI-QTOF; MS2; CE: 10; [M+H]+
Name: 4-(Diethylamino)benzaldehyde
Formula: C11H15NO
Exact mass: 177.1153641082
SMILES: CCN(CC)C1C=CC(C=O)=CC=1
InChI: InChI=1S/C11H15NO/c1-3-12(4-2)11-7-5-10(9-13)6-8-11/h5-9H,3-4H2,1-2H3
Instrument type: ESI-QTOF
Ms type: MS2
Ion mode: POSITIVE
Ionization: ESI
Collision energy: 10
Precursor m/z: 178.1226405599
Precursor type: [M+H]+
m/z	relative intensity
101.002191	126
121.088601	10
122.096426	34
134.06004	11
134.096426	12
148.112076	22
149.083515	24
150.127726	68
178.122641	999
