Mass spectrum: GSK232420A; ESI-QTOF; MS2; CE: 40; [M-H]-
Name: GSK232420A
Formula: C12H9F6N3O
Exact mass: 325.0649811316
SMILES: NC(=O)CN(CC(F)(F)F)C1=CC(=C(C=C1)C#N)C(F)(F)F
InChI: InChI=1S/C12H9F6N3O/c13-11(14,15)6-21(5-10(20)22)8-2-1-7(4-19)9(3-8)12(16,17)18/h1-3H,5-6H2,(H2,20,22)
Instrument type: ESI-QTOF
Ms type: MS2
Ion mode: NEGATIVE
Ionization: ESI
Collision energy: 40
Precursor m/z: 324.0577046799
Precursor type: [M-H]-
m/z	relative intensity
40.019273	26
41.003288	99
41.014522	75
41.998537	800
42.022347	15
42.034923	10
46.009851	10
50.003623	31
65.014522	212
65.998537	254
68.995758	37
71.0051	15
87.000014	17
93.009436	141
100.006697	11
113.015664	979
113.053193	16
122.003464	21
130.009851	30
138.016079	15
142.009851	15
145.02075	18
149.014363	73
150.016079	144
151.030013	36
156.012925	58
158.022307	13
162.016079	36
167.024927	14
168.006657	24
168.990673	12
169.020591	436
170.022307	577
174.016079	18
175.011328	202
176.019153	234
182.022307	25
184.037957	13
185.008254	17
185.033206	440
189.001867	14
189.026978	274
190.010994	64
191.006243	18
194.022307	83
194.034684	64
195.017556	486
196.025381	104
197.015664	80
201.026978	19
203.995224	11
204.012766	14
208.025381	40
209.033206	999
210.017222	429
211.012471	23
214.042055	17
217.021893	188
221.02063	10
224.020296	52
234.023331	24
236.044105	163
237.028121	516
244.03169	34
264.001532	12
264.037918	321
269.015506	11
282.029598	29
