Mass spectrum: 5,7-Dimethoxy-2H-chromen-2-one; ESI-QTOF; MS2; CE: 40; [M+H]+
Name: 5,7-Dimethoxy-2H-chromen-2-one
Name: DTXSID1041421
Formula: C11H10O4
Exact mass: 206.0579088082
SMILES: COC1C=C(OC)C2C=CC(=O)OC=2C=1
InChI: InChI=1S/C11H10O4/c1-13-7-5-9(14-2)8-3-4-11(12)15-10(8)6-7/h3-6H,1-2H3
Instrument type: ESI-QTOF
Ms type: MS2
Ion mode: POSITIVE
Ionization: ESI
Collision energy: 40
Precursor m/z: 207.0651852599
Precursor type: [M+H]+
m/z	relative intensity
39.022927	43
41.038577	13
43.017841	22
45.033491	16
51.022927	85
52.030752	22
53.002191	14
53.038577	70
55.017841	83
59.012756	27
62.015101	10
63.022927	12
65.038577	551
66.046402	13
67.054227	25
68.997106	65
75.022927	10
76.030752	22
77.038577	664
78.046402	617
79.017841	14
79.054227	255
80.025666	11
80.062052	28
81.033491	18
82.004931	18
88.030752	29
89.038577	148
90.046402	185
91.054227	781
92.025666	20
93.033491	132
93.069877	10
94.041316	15
95.012756	37
97.028406	11
103.017841	44
103.054227	38
105.033491	84
106.041316	144
107.012756	21
107.049141	174
108.020581	10
108.056966	59
109.028406	16
110.036231	14
116.025666	14
117.033491	29
118.041316	73
119.049141	73
120.056966	13
121.028406	512
121.064791	176
131.012756	56
133.028406	73
134.036231	87
135.044056	213
136.051881	12
145.028406	22
146.036231	100
147.044056	22
148.051881	23
149.02332	999
151.075356	21
162.031145	49
163.038971	202
164.046796	187
173.02332	13
191.033885	76
192.04171	37
