Mass spectrum: Methyl 3-sulfamoylthiophene-2-carboxylate; ESI-QTOF; MS2; CE: 10; [M-H]-
Name: Methyl 3-sulfamoylthiophene-2-carboxylate
Name: DTXSID0044490
Formula: C6H7NO4S2
Exact mass: 220.9816491799
SMILES: COC(=O)C1SC=CC=1S(N)(=O)=O
InChI: InChI=1S/C6H7NO4S2/c1-11-6(8)5-4(2-3-12-5)13(7,9)10/h2-3H,1H3,(H2,7,9,10)
Instrument type: ESI-QTOF
Ms type: MS2
Ion mode: NEGATIVE
Ionization: ESI
Collision energy: 10
Precursor m/z: 219.9743727282
Precursor type: [M-H]-
m/z	relative intensity
41.998537	50
77.965523	14
140.988998	12
156.012473	13
187.948158	999
219.974373	164
