Mass spectrum: 2-Aminoanthraquinone; ESI-QTOF; MS2; CE: 10; [M+H]+
Name: 2-Aminoanthraquinone
Formula: C14H9NO2
Exact mass: 223.0633285391
SMILES: NC1C=C2C(=CC=1)C(=O)C1C=CC=CC=1C2=O
InChI: InChI=1S/C14H9NO2/c15-8-5-6-11-12(7-8)14(17)10-4-2-1-3-9(10)13(11)16/h1-7H,15H2
Instrument type: ESI-QTOF
Ms type: MS2
Ion mode: POSITIVE
Ionization: ESI
Collision energy: 10
Precursor m/z: 224.0706049908
Precursor type: [M+H]+
m/z	relative intensity
58.065126	10
165.057301	22
224.070605	999
