Mass spectrum: 1,3-Dichloro-6,7,8,9,10,12-hexahydroazepino[2,1-b]quinazoline; ESI-QTOF; MS2; CE: 10; [M+H]+
Name: 1,3-Dichloro-6,7,8,9,10,12-hexahydroazepino[2,1-b]quinazoline
Name: DTXSID9047259
Formula: C13H14Cl2N2
Exact mass: 268.0534038814
SMILES: ClC1C=C(Cl)C2CN3CCCCCC3=NC=2C=1
InChI: InChI=1S/C13H14Cl2N2/c14-9-6-11(15)10-8-17-5-3-1-2-4-13(17)16-12(10)7-9/h6-7H,1-5,8H2
Instrument type: ESI-QTOF
Ms type: MS2
Ion mode: POSITIVE
Ionization: ESI
Collision energy: 10
Precursor m/z: 269.0606803331
Precursor type: [M+H]+
m/z	relative intensity
269.06068	999
