Mass spectrum: N,N-Dimethyl-2-(morpholin-4-yl)ethanamine; ESI-QTOF; MS2; CE: 10; [M+H]+
Name: N,N-Dimethyl-2-(morpholin-4-yl)ethanamine
Formula: C8H18N2O
Exact mass: 158.1419132113
SMILES: CN(C)CCN1CCOCC1
InChI: InChI=1S/C8H18N2O/c1-9(2)3-4-10-5-7-11-8-6-10/h3-8H2,1-2H3
Instrument type: ESI-QTOF
Ms type: MS2
Ion mode: POSITIVE
Ionization: ESI
Collision energy: 10
Precursor m/z: 159.149189663
Precursor type: [M+H]+
m/z	relative intensity
61.007276	10
63.994366	37
65.99744	23
70.065126	15
72.080776	655
72.125715	10
79.017841	999
79.054227	30
80.025666	22
81.020915	948
81.069877	19
101.002191	16
114.09134	785
114.127726	19
159.14919	314
