Mass spectrum: 4-Methoxybenzenamine; ESI-QTOF; MS2; CE: 10; [M+H]+
Name: 4-Methoxybenzenamine
Name: DTXSID3020093
Formula: C7H9NO
Exact mass: 123.0684139168
SMILES: COC1C=CC(N)=CC=1
InChI: InChI=1S/C7H9NO/c1-9-7-4-2-6(8)3-5-7/h2-5H,8H2,1H3
Instrument type: ESI-QTOF
Ms type: MS2
Ion mode: POSITIVE
Ionization: ESI
Collision energy: 10
Precursor m/z: 124.0756903685
Precursor type: [M+H]+
m/z	relative intensity
46.065126	12
65.038577	12
77.038577	41
81.057301	34
92.025666	25
92.049476	149
93.057301	297
107.049141	15
109.052215	112
123.067865	16
124.07569	999
