Mass spectrum: Benzyltriethylammonium; ESI-QTOF; MS2; CE: 10; [M+H]+
Name: Benzyltriethylammonium
Name: DTXSID9021710
Formula: [C13H22N]+
Exact mass: 192.1752247092
SMILES: CC[N+](CC1C=CC=CC=1)(CC)CC
InChI: InChI=1S/C13H22N/c1-4-14(5-2,6-3)12-13-10-8-7-9-11-13/h7-11H,4-6,12H2,1-3H3/q+1
Instrument type: ESI-QTOF
Ms type: MS2
Ion mode: POSITIVE
Ionization: ESI
Collision energy: 10
Precursor m/z: 193.1825011609
Precursor type: [M+H]+
m/z	relative intensity
86.096426	24
87.104251	12
91.054227	158
92.062052	158
100.112076	97
101.119901	89
193.182501	999
