Mass spectrum: Ethyl benzoate; ESI-QTOF; MS2; CE: 20; [M+H]+
Name: Ethyl benzoate
Formula: C9H10O2
Exact mass: 150.0680795636
SMILES: CCOC(=O)C1C=CC=CC=1
InChI: InChI=1S/C9H10O2/c1-2-11-9(10)8-6-4-3-5-7-8/h3-7H,2H2,1H3
Instrument type: ESI-QTOF
Ms type: MS2
Ion mode: POSITIVE
Ionization: ESI
Collision energy: 20
Precursor m/z: 151.0753560153
Precursor type: [M+H]+
m/z	relative intensity
43.017841	15
45.033491	29
61.007276	113
62.015101	33
63.994366	305
79.017841	999
79.054227	26
105.069877	14
