Mass spectrum: 2-(2-Aminoethoxy)ethanol; ESI-QTOF; MS2; CE: 40; [M+H]+
Name: 2-(2-Aminoethoxy)ethanol
Formula: C4H11NO2
Exact mass: 105.0789786029
SMILES: NCCOCCO
InChI: InChI=1S/C4H11NO2/c5-1-3-7-4-2-6/h6H,1-5H2
Instrument type: ESI-QTOF
Ms type: MS2
Ion mode: POSITIVE
Ionization: ESI
Collision energy: 40
Precursor m/z: 106.0862550546
Precursor type: [M+H]+
m/z	relative intensity
42.033826	129
43.017841	47
43.041651	27
44.049476	999
44.083181	18
45.033491	135
