Mass spectrum: Methyl 12-hydroxyoctadecanoate; ESI-QTOF; MS2; CE: 40; [M+H]+
Name: Methyl 12-hydroxyoctadecanoate
Name: DTXSID8027086
Formula: C19H38O3
Exact mass: 314.2820950791
SMILES: CCCCCCC(O)CCCCCCCCCCC(=O)OC
InChI: InChI=1S/C19H38O3/c1-3-4-5-12-15-18(20)16-13-10-8-6-7-9-11-14-17-19(21)22-2/h18,20H,3-17H2,1-2H3
Instrument type: ESI-QTOF
Ms type: MS2
Ion mode: POSITIVE
Ionization: ESI
Collision energy: 40
Precursor m/z: 315.2893715308
Precursor type: [M+H]+
m/z	relative intensity
41.038577	346
43.017841	43
43.054227	466
43.075356	10
45.033491	28
55.017841	26
55.054227	999
57.033491	10
57.069877	390
59.049141	29
67.054227	320
69.069877	860
71.085527	52
77.038577	33
79.054227	234
81.069877	306
83.049141	46
83.085527	243
85.101177	22
87.080441	10
91.054227	67
93.069877	221
95.085527	187
97.064791	107
97.101177	91
101.096091	13
107.085527	130
109.101177	68
111.080441	23
111.116827	12
121.101177	82
131.085527	12
135.116827	71
149.132477	14
