Mass spectrum: 1,3-Dihydro-1,3,3-trimethyl-2H-indol-2-ylidene acetaldehyde; ESI-QTOF; MS2; CE: 40; [M+H]+
Name: 1,3-Dihydro-1,3,3-trimethyl-2H-indol-2-ylidene acetaldehyde
Formula: C13H15NO
Exact mass: 201.1153641082
SMILES: CN1/C(=C/C=O)/C(C)(C)C2=CC=CC=C12
InChI: InChI=1S/C13H15NO/c1-13(2)10-6-4-5-7-11(10)14(3)12(13)8-9-15/h4-9H,1-3H3/b12-8+
Instrument type: ESI-QTOF
Ms type: MS2
Ion mode: POSITIVE
Ionization: ESI
Collision energy: 40
Precursor m/z: 202.1226405599
Precursor type: [M+H]+
m/z	relative intensity
44.049476	20
84.080776	12
91.054227	28
103.054227	18
115.054227	65
116.062052	12
117.069877	15
128.062052	14
130.065126	15
142.065126	33
143.072951	150
144.080776	265
154.065126	11
156.080776	33
157.088601	94
158.096426	999
168.080776	12
170.096426	35
172.07569	20
186.09134	80
187.099165	10
