Mass spectrum: 1-(Methylamino)-4-(2-hydroxyethylamino)anthraquinone; ESI-QTOF; MS2; CE: 20; [M+H]+
Name: 1-(Methylamino)-4-(2-hydroxyethylamino)anthraquinone
Name: DTXSID9041730
Formula: C17H16N2O3
Exact mass: 296.1160923921
SMILES: CNC1=CC=C(NCCO)C2C(=O)C3C=CC=CC=3C(=O)C1=2
InChI: InChI=1S/C17H16N2O3/c1-18-12-6-7-13(19-8-9-20)15-14(12)16(21)10-4-2-3-5-11(10)17(15)22/h2-7,18-20H,8-9H2,1H3
Instrument type: ESI-QTOF
Ms type: MS2
Ion mode: POSITIVE
Ionization: ESI
Collision energy: 20
Precursor m/z: 297.1233688438
Precursor type: [M+H]+
m/z	relative intensity
71.049141	11
207.067865	12
223.086589	17
224.070605	11
225.07843	27
235.06278	16
235.086589	74
251.081504	308
252.089329	999
253.097154	14
261.102239	17
264.089329	12
266.104979	48
279.112804	16
282.099894	201
297.123369	206
