Mass spectrum: 3,3'-Sulphonyldianiline; ESI-QTOF; MS2; CE: 40; [M+H]+
Name: 3,3'-Sulphonyldianiline
Name: DTXSID3044962
Formula: C12H12N2O2S
Exact mass: 248.0619483722
SMILES: NC1C=C(C=CC=1)S(=O)(=O)C1=CC(N)=CC=C1
InChI: InChI=1S/C12H12N2O2S/c13-9-3-1-5-11(7-9)17(15,16)12-6-2-4-10(14)8-12/h1-8H,13-14H2
Instrument type: ESI-QTOF
Ms type: MS2
Ion mode: POSITIVE
Ionization: ESI
Collision energy: 40
Precursor m/z: 249.0692248239
Precursor type: [M+H]+
m/z	relative intensity
50.015101	14
65.038577	346
66.033826	12
66.046402	117
69.044725	10
76.030752	156
77.041947	23
78.033826	29
80.049476	72
81.057301	11
91.050204	16
92.049476	244
93.057301	999
93.091006	18
97.064791	10
108.04439	19
112.021546	15
156.080776	19
167.072951	66
