Mass spectrum: 3-Hydroxy-2-naphthoic o-anisidide; ESI-QTOF; MS2; CE: 20; [M-H]-
Name: 3-Hydroxy-2-naphthoic o-anisidide
Name: DTXSID6038877
Formula: C18H15NO3
Exact mass: 293.1051933528
SMILES: COC1=CC=CC=C1NC(=O)C1=CC2C=CC=CC=2C=C1O
InChI: InChI=1S/C18H15NO3/c1-22-17-9-5-4-8-15(17)19-18(21)14-10-12-6-2-3-7-13(12)11-16(14)20/h2-11,20H,1H3,(H,19,21)
Instrument type: ESI-QTOF
Ms type: MS2
Ion mode: NEGATIVE
Ionization: ESI
Collision energy: 20
Precursor m/z: 292.0979169011
Precursor type: [M-H]-
m/z	relative intensity
107.037662	229
114.047499	12
134.024752	819
134.073714	19
134.082267	11
142.042413	50
143.050238	236
170.037328	11
232.076788	17
233.060803	18
249.079527	25
260.071702	77
276.066617	87
277.074442	999
278.082267	10
292.097917	721
