Mass spectrum: 2-Hexyldecanoic acid; ESI-QTOF; MS2; CE: 20; [M-H]-
Name: 2-Hexyldecanoic acid
Name: DTXSID7044893
Formula: C16H32O2
Exact mass: 256.2402302654
SMILES: CCCCCCCCC(CCCCCC)C(O)=O
InChI: InChI=1S/C16H32O2/c1-3-5-7-9-10-12-14-15(16(17)18)13-11-8-6-4-2/h15H,3-14H2,1-2H3,(H,17,18)
Instrument type: ESI-QTOF
Ms type: MS2
Ion mode: NEGATIVE
Ionization: ESI
Collision energy: 20
Precursor m/z: 255.2329538137
Precursor type: [M-H]-
m/z	relative intensity
255.232954	999
