Mass spectrum: Methyl 12-hydroxyoctadecanoate; ESI-QTOF; MS2; CE: 10; [M+H]+
Name: Methyl 12-hydroxyoctadecanoate
Name: DTXSID8027086
Formula: C19H38O3
Exact mass: 314.2820950791
SMILES: CCCCCCC(O)CCCCCCCCCCC(=O)OC
InChI: InChI=1S/C19H38O3/c1-3-4-5-12-15-18(20)16-13-10-8-6-7-9-11-14-17-19(21)22-2/h18,20H,3-17H2,1-2H3
Instrument type: ESI-QTOF
Ms type: MS2
Ion mode: POSITIVE
Ionization: ESI
Collision energy: 10
Precursor m/z: 315.2893715308
Precursor type: [M+H]+
m/z	relative intensity
55.054227	27
57.069877	99
67.054227	19
69.069877	82
71.085527	43
81.069877	68
83.085527	73
85.101177	60
87.080441	11
95.085527	114
97.064791	37
97.101177	170
99.116827	12
107.085527	44
109.101177	54
111.080441	56
111.116827	97
113.096091	10
115.075356	14
121.101177	78
123.116827	39
125.096091	32
125.132477	34
127.111742	12
129.091006	41
135.116827	93
137.132477	55
139.111742	37
143.106656	35
143.143042	14
149.132477	90
151.148127	55
153.127392	46
155.143042	17
157.122306	44
163.148127	86
165.163777	36
167.143042	43
171.137956	21
177.163777	52
181.158692	49
185.153606	20
191.179427	29
195.174342	20
199.169256	39
205.195077	13
209.189992	24
213.184906	42
223.205642	10
227.200557	44
241.216207	18
247.242027	688
255.231857	12
265.252592	999
297.278807	978
