Mass spectrum: 4-Methoxybenzenamine; ESI-QTOF; MS2; CE: 20; [M+H]+
Name: 4-Methoxybenzenamine
Name: DTXSID3020093
Formula: C7H9NO
Exact mass: 123.0684139168
SMILES: COC1C=CC(N)=CC=1
InChI: InChI=1S/C7H9NO/c1-9-7-4-2-6(8)3-5-7/h2-5H,8H2,1H3
Instrument type: ESI-QTOF
Ms type: MS2
Ion mode: POSITIVE
Ionization: ESI
Collision energy: 20
Precursor m/z: 124.0756903685
Precursor type: [M+H]+
m/z	relative intensity
39.022927	11
46.065126	11
51.022927	29
63.022927	20
64.030752	74
65.038577	94
66.046402	33
77.038577	292
79.054227	26
80.049476	99
81.057301	235
92.025666	264
92.049476	262
93.057301	999
107.049141	25
108.04439	67
109.052215	265
123.067865	40
124.07569	194
