Mass spectrum: 2-((Dimethylamino)methyl)phenol; ESI-QTOF; MS2; CE: 20; [M+H]+
Name: 2-((Dimethylamino)methyl)phenol
Formula: C9H13NO
Exact mass: 151.0997140444
SMILES: CN(C)CC1=CC=CC=C1O
InChI: InChI=1S/C9H13NO/c1-10(2)7-8-5-3-4-6-9(8)11/h3-6,11H,7H2,1-2H3
Instrument type: ESI-QTOF
Ms type: MS2
Ion mode: POSITIVE
Ionization: ESI
Collision energy: 20
Precursor m/z: 152.1069904961
Precursor type: [M+H]+
m/z	relative intensity
46.065126	232
77.038577	164
79.054227	150
107.049141	999
107.085527	33
