Mass spectrum: Tributyl citrate; ESI-QTOF; MS2; CE: 40; [M+H]+
Name: Tributyl citrate
Formula: C18H32O7
Exact mass: 360.2148033769
SMILES: CCCCOC(=O)C(O)(CC(=O)OCCCC)CC(=O)OCCCC
InChI: InChI=1S/C18H32O7/c1-4-7-10-23-15(19)13-18(22,17(21)25-12-9-6-3)14-16(20)24-11-8-5-2/h22H,4-14H2,1-3H3
Instrument type: ESI-QTOF
Ms type: MS2
Ion mode: POSITIVE
Ionization: ESI
Collision energy: 40
Precursor m/z: 361.2220798286
Precursor type: [M+H]+
m/z	relative intensity
41.038577	70
43.017841	999
43.054227	14
57.069877	259
61.028406	11
68.997106	486
87.00767	109
111.00767	402
129.018235	286
139.002585	162
