Mass spectrum: Triflimide; ESI-QTOF; MS2; CE: 40; [M-H]-
Name: Triflimide
Formula: C2HF6NO4S2
Exact mass: 280.9251181885
SMILES: O=S(=O)(NS(=O)(=O)C(F)(F)F)C(F)(F)F
InChI: InChI=1S/C2HF6NO4S2/c3-1(4,5)14(10,11)9-15(12,13)2(6,7)8/h9H
Instrument type: ESI-QTOF
Ms type: MS2
Ion mode: NEGATIVE
Ionization: ESI
Collision energy: 40
Precursor m/z: 279.9178417368
Precursor type: [M-H]-
m/z	relative intensity
77.965523	999
82.960852	89
82.998832	19
146.960732	115
