Mass spectrum: Ro 23-7637; ESI-QTOF; MS2; CE: 40; [M+H]+
Name: Ro 23-7637
Formula: C33H40N2O
Exact mass: 480.3140639131
SMILES: O=C(CCCCCCCCC1C=CC=NC=1)N1CCC(CC1)C=C(C1C=CC=CC=1)C1C=CC=CC=1
InChI: InChI=1S/C33H40N2O/c36-33(20-12-4-2-1-3-7-14-29-15-13-23-34-27-29)35-24-21-28(22-25-35)26-32(30-16-8-5-9-17-30)31-18-10-6-11-19-31/h5-6,8-11,13,15-19,23,26-28H,1-4,7,12,14,20-22,24-25H2
Instrument type: ESI-QTOF
Ms type: MS2
Ion mode: POSITIVE
Ionization: ESI
Collision energy: 40
Precursor m/z: 481.3213403648
Precursor type: [M+H]+
m/z	relative intensity
55.054227	12
56.049476	179
82.065126	50
84.080776	209
91.054227	23
92.049476	85
93.057301	10
106.065126	30
117.069877	11
134.096426	11
143.085527	10
167.085527	254
190.159026	139
218.153941	805
218.202902	41
264.174676	999
264.232191	57
264.256	32
264.281153	12
481.32134	34
