Mass spectrum: N,N-Dimethylacetoacetamide; ESI-QTOF; MS2; CE: 20; [M+H]+
Name: N,N-Dimethylacetoacetamide
Name: DTXSID8027454
Formula: C6H11NO2
Exact mass: 129.0789786029
SMILES: CC(=O)CC(=O)N(C)C
InChI: InChI=1S/C6H11NO2/c1-5(8)4-6(9)7(2)3/h4H2,1-3H3
Instrument type: ESI-QTOF
Ms type: MS2
Ion mode: POSITIVE
Ionization: ESI
Collision energy: 20
Precursor m/z: 130.0862550546
Precursor type: [M+H]+
m/z	relative intensity
43.017841	774
43.041651	10
46.065126	781
70.065126	27
72.04439	999
85.028406	37
88.07569	11
130.086255	41
