Mass spectrum: 2,2'-(3-Chlorophenylimino)diethanol; ESI-QTOF; MS2; CE: 20; [M+H]+
Name: 2,2'-(3-Chlorophenylimino)diethanol
Formula: C10H14ClNO2
Exact mass: 215.0713064086
SMILES: OCCN(CCO)C1C=CC=C(Cl)C=1
InChI: InChI=1S/C10H14ClNO2/c11-9-2-1-3-10(8-9)12(4-6-13)5-7-14/h1-3,8,13-14H,4-7H2
Instrument type: ESI-QTOF
Ms type: MS2
Ion mode: POSITIVE
Ionization: ESI
Collision energy: 20
Precursor m/z: 216.0785828603
Precursor type: [M+H]+
m/z	relative intensity
45.033491	184
117.057301	25
118.065126	74
119.072951	182
128.025666	18
130.065126	19
132.080776	106
138.010503	28
140.026153	101
144.080776	37
145.088601	69
152.026153	31
153.033978	103
154.041803	999
154.086255	28
163.099165	15
171.044543	24
172.052368	49
180.057453	108
198.068018	296
216.078583	166
