Mass spectrum: 3,4-Diaminotoluene; ESI-QTOF; MS2; CE: 10; [M+H]+
Name: 3,4-Diaminotoluene
Name: DTXSID9024930
Formula: C7H10N2
Exact mass: 122.0843983338
SMILES: CC1C=C(N)C(N)=CC=1
InChI: InChI=1S/C7H10N2/c1-5-2-3-6(8)7(9)4-5/h2-4H,8-9H2,1H3
Instrument type: ESI-QTOF
Ms type: MS2
Ion mode: POSITIVE
Ionization: ESI
Collision energy: 10
Precursor m/z: 123.0916747855
Precursor type: [M+H]+
m/z	relative intensity
77.038577	44
79.054227	141
106.065126	576
108.0682	63
123.091675	999
