Mass spectrum: (+/-)-Apomorphinee; ESI-QTOF; MS2; CE: 40; [M-H]-
Name: (+/-)-Apomorphinee
Name: DTXSID0048185
Formula: C17H17NO2
Exact mass: 267.1259287943
SMILES: CN1CCC2=CC=CC3C4=C(CC1C2=3)C=CC(O)=C4O
InChI: InChI=1S/C17H17NO2/c1-18-8-7-10-3-2-4-12-15(10)13(18)9-11-5-6-14(19)17(20)16(11)12/h2-6,13,19-20H,7-9H2,1H3
Instrument type: ESI-QTOF
Ms type: MS2
Ion mode: NEGATIVE
Ionization: ESI
Collision energy: 40
Precursor m/z: 266.1186523426
Precursor type: [M-H]-
m/z	relative intensity
141.070974	11
167.086624	36
177.070974	18
179.086624	44
194.073714	17
195.081539	11
205.065888	17
206.073714	10
208.052978	23
222.068628	696
222.128823	15
223.076453	999
224.084278	37
234.056052	10
235.076453	27
236.071702	12
247.063877	17
248.071702	80
249.079527	15
250.087352	141
266.118652	54
