Mass spectrum: Parinol; ESI-QTOF; MS2; CE: 40; [M-H]-
Name: Parinol
Name: DTXSID4042256
Formula: C18H13Cl2NO
Exact mass: 329.0374194644
SMILES: OC(C1C=NC=CC=1)(C1C=CC(Cl)=CC=1)C1C=CC(Cl)=CC=1
InChI: InChI=1S/C18H13Cl2NO/c19-16-7-3-13(4-8-16)18(22,15-2-1-11-21-12-15)14-5-9-17(20)10-6-14/h1-12,22H
Instrument type: ESI-QTOF
Ms type: MS2
Ion mode: NEGATIVE
Ionization: ESI
Collision energy: 40
Precursor m/z: 328.0301430127
Precursor type: [M-H]-
m/z	relative intensity
34.969401	999
51.024024	30
78.034923	789
92.99869	14
111.000701	322
119.037662	11
152.050573	21
179.037662	22
180.022165	12
180.045487	79
215.01434	39
