Mass spectrum: 6-Methyl-3-hydroxypyridine; ESI-QTOF; MS2; CE: 40; [M-H]-
Name: 6-Methyl-3-hydroxypyridine
Formula: C6H7NO
Exact mass: 109.052763853
SMILES: CC1C=CC(O)=CN=1
InChI: InChI=1S/C6H7NO/c1-5-2-3-6(8)4-7-5/h2-4,8H,1H3
Instrument type: ESI-QTOF
Ms type: MS2
Ion mode: NEGATIVE
Ionization: ESI
Collision energy: 40
Precursor m/z: 108.0454874013
Precursor type: [M-H]-
m/z	relative intensity
38.016199	13
39.011448	220
40.019273	86
41.003288	333
50.003623	110
51.024024	25
52.019273	19
53.039674	30
63.995463	10
64.019273	999
65.003288	10
65.027098	40
65.998537	95
66.034923	28
67.006362	149
80.050573	52
82.029837	10
93.022012	170
94.029837	21
107.037662	83
108.045487	18
