Mass spectrum: 1,3-Cyclohexanedimethanamine; ESI-QTOF; MS2; CE: 20; [M+H]+
Name: 1,3-Cyclohexanedimethanamine
Name: DTXSID4041238
Formula: C8H18N2
Exact mass: 142.146998589
SMILES: NCC1CC(CCC1)CN
InChI: InChI=1S/C8H18N2/c9-5-7-2-1-3-8(4-7)6-10/h7-8H,1-6,9-10H2
Instrument type: ESI-QTOF
Ms type: MS2
Ion mode: POSITIVE
Ionization: ESI
Collision energy: 20
Precursor m/z: 143.1542750407
Precursor type: [M+H]+
m/z	relative intensity
30.033826	21
41.038577	34
43.054227	65
44.049476	20
55.054227	84
67.054227	982
79.054227	22
81.069877	111
83.085527	13
91.054227	14
107.085527	17
109.101177	529
126.127726	999
