Mass spectrum: 3,5-Dichlorosalicyl-3,4-dichloroanilide; ESI-QTOF; MS2; CE: 40; [M-H]-
Name: 3,5-Dichlorosalicyl-3,4-dichloroanilide
Formula: C13H7Cl4NO2
Exact mass: 348.9230893153
SMILES: OC1=C(C=C(Cl)C=C1Cl)C(=O)NC1C=C(Cl)C(Cl)=CC=1
InChI: InChI=1S/C13H7Cl4NO2/c14-6-3-8(12(19)11(17)4-6)13(20)18-7-1-2-9(15)10(16)5-7/h1-5,19H,(H,18,20)
Instrument type: ESI-QTOF
Ms type: MS2
Ion mode: NEGATIVE
Ionization: ESI
Collision energy: 40
Precursor m/z: 347.9158128636
Precursor type: [M-H]-
m/z	relative intensity
34.969401	340
41.998537	12
61.008374	11
89.003288	273
123.99595	37
124.979966	999
125.016351	31
125.039674	14
158.940994	54
159.972628	375
160.957131	641
161.003775	15
347.915813	12
