Mass spectrum: 4,4'-Methylenebis(2,6-diethylaniline); ESI-QTOF; MS2; CE: 40; [M+H]+
Name: 4,4'-Methylenebis(2,6-diethylaniline)
Name: DTXSID4048191
Formula: C21H30N2
Exact mass: 310.2408989718
SMILES: CCC1C=C(CC2=CC(CC)=C(N)C(CC)=C2)C=C(CC)C=1N
InChI: InChI=1S/C21H30N2/c1-5-16-10-14(11-17(6-2)20(16)22)9-15-12-18(7-3)21(23)19(8-4)13-15/h10-13H,5-9,22-23H2,1-4H3
Instrument type: ESI-QTOF
Ms type: MS2
Ion mode: POSITIVE
Ionization: ESI
Collision energy: 40
Precursor m/z: 311.2481754235
Precursor type: [M+H]+
m/z	relative intensity
91.054227	38
105.069877	50
115.054227	49
116.062052	14
117.069877	149
119.072951	36
128.062052	14
129.069877	24
130.077702	46
132.080776	26
133.088601	12
134.096426	24
143.085527	12
145.101177	145
146.096426	123
147.104251	205
160.112076	10
162.127726	999
206.096426	17
207.104251	32
208.112076	20
220.112076	10
221.119901	55
222.127726	14
236.143376	62
237.151201	10
250.159026	47
264.174676	56
265.182501	30
