Mass spectrum: 2-Amino-5-(5-nitro-2-furyl)-1,3,4-oxadiazole; ESI-QTOF; MS2; CE: 20; [M-H]-
Name: 2-Amino-5-(5-nitro-2-furyl)-1,3,4-oxadiazole
Name: DTXSID2020058
Formula: C6H4N4O4
Exact mass: 196.0232546464
SMILES: NC1=NN=C(O1)C1=CC=C(O1)[N+]([O-])=O
InChI: InChI=1S/C6H4N4O4/c7-6-9-8-5(14-6)3-1-2-4(13-3)10(11)12/h1-2H,(H2,7,9)
Instrument type: ESI-QTOF
Ms type: MS2
Ion mode: NEGATIVE
Ionization: ESI
Collision energy: 20
Precursor m/z: 195.0159781947
Precursor type: [M-H]-
m/z	relative intensity
40.006697	10
41.003288	26
41.014522	58
41.998537	999
42.022347	23
45.993452	483
49.008374	111
50.003623	65
50.016199	42
52.019273	15
55.017596	97
63.011448	29
64.019273	222
64.988032	10
65.003288	166
65.027098	36
65.998537	27
66.011113	18
77.003288	230
79.006362	11
79.990378	10
80.014187	13
82.004685	492
89.998537	25
92.014187	105
93.009436	10
94.006028	19
105.009436	10
105.993452	11
108.009102	15
120.020335	19
121.02816	15
124.004017	43
