Mass spectrum: Sulfosuccinic acid; ESI-QTOF; MS2; CE: 10; [M-H]-
Name: Sulfosuccinic acid
Name: DTXSID8042426
Formula: C4H6O7S
Exact mass: 197.9834232775
SMILES: OC(=O)C(CC(O)=O)S(O)(=O)=O
InChI: InChI=1S/C4H6O7S/c5-3(6)1-2(4(7)8)12(9,10)11/h2H,1H2,(H,5,6)(H,7,8)(H,9,10,11)
Instrument type: ESI-QTOF
Ms type: MS2
Ion mode: NEGATIVE
Ionization: ESI
Collision energy: 10
Precursor m/z: 196.9761468258
Precursor type: [M-H]-
m/z	relative intensity
71.013853	192
80.965188	999
80.998203	18
108.996488	18
134.975753	45
152.986318	285
178.965582	12
196.976147	323
