Mass spectrum: dl-Tartaric acid; ESI-QTOF; MS2; CE: 20; [M-H]-
Name: dl-Tartaric acid
Name: DTXSID5046986
Formula: C4H6O6
Exact mass: 150.0164379252
SMILES: OC(=O)C(O)C(O)C(O)=O
InChI: InChI=1S/C4H6O6/c5-1(3(7)8)2(6)4(9)10/h1-2,5-6H,(H,7,8)(H,9,10)
Instrument type: ESI-QTOF
Ms type: MS2
Ion mode: NEGATIVE
Ionization: ESI
Collision energy: 20
Precursor m/z: 149.0091614735
Precursor type: [M-H]-
m/z	relative intensity
41.003288	77
43.018938	793
44.998203	197
47.013853	28
56.998203	140
59.013853	539
72.993117	999
73.029503	17
74.000943	33
75.008768	64
87.008768	369
105.019332	26
149.009161	18
