Mass spectrum: 2-Acetamidophenol; ESI-QTOF; MS2; CE: 40; [M+H]+
Name: 2-Acetamidophenol
Name: DTXSID8022082
Formula: C8H9NO2
Exact mass: 151.0633285391
SMILES: CC(=O)NC1C=CC=CC=1O
InChI: InChI=1S/C8H9NO2/c1-6(10)9-7-4-2-3-5-8(7)11/h2-5,11H,1H3,(H,9,10)
Instrument type: ESI-QTOF
Ms type: MS2
Ion mode: POSITIVE
Ionization: ESI
Collision energy: 40
Precursor m/z: 152.0706049908
Precursor type: [M+H]+
m/z	relative intensity
39.022927	166
39.044056	10
43.017841	511
43.041651	14
53.002191	12
53.038577	15
60.04439	13
63.994366	14
65.038577	999
66.033826	12
67.041651	10
92.049476	156
93.033491	47
110.06004	16
