Mass spectrum: 4-Methylaniline; ESI-QTOF; MS2; CE: 20; [M+H]+
Name: 4-Methylaniline
Formula: C7H9N
Exact mass: 107.0734992945
SMILES: CC1=CC=C(N)C=C1
InChI: InChI=1S/C7H9N/c1-6-2-4-7(8)5-3-6/h2-5H,8H2,1H3
Instrument type: ESI-QTOF
Ms type: MS2
Ion mode: POSITIVE
Ionization: ESI
Collision energy: 20
Precursor m/z: 108.0807757462
Precursor type: [M+H]+
m/z	relative intensity
39.022927	25
41.038577	18
65.038577	374
66.046402	25
91.054227	982
93.057301	999
107.072951	10
108.080776	273
