Mass spectrum: SR146131 trifluoroacetate (1:1); ESI-QTOF; MS2; CE: 40; [M+H]+
Name: SR146131 trifluoroacetate (1:1)
Name: DTXSID6047369
Formula: C32H36ClN3O5S
Exact mass: 609.2064197221
SMILES: CC1C=C2C=C(C(=O)NC3=NC(C4C=C(OC)C(Cl)=CC=4OC)=C(CCC4CCCCC4)S3)N(CC(O)=O)C2=C(C)C=1
InChI: InChI=1S/C32H36ClN3O5S/c1-18-12-19(2)30-21(13-18)14-24(36(30)17-28(37)38)31(39)35-32-34-29(22-15-26(41-4)23(33)16-25(22)40-3)27(42-32)11-10-20-8-6-5-7-9-20/h12-16,20H,5-11,17H2,1-4H3,(H,37,38)(H,34,35,39)
Instrument type: ESI-QTOF
Ms type: MS2
Ion mode: POSITIVE
Ionization: ESI
Collision energy: 40
Precursor m/z: 610.2136961738
Precursor type: [M+H]+
m/z	relative intensity
55.054227	10
69.069877	33
158.096426	13
172.07569	13
185.036384	43
186.09134	32
202.086255	472
230.080518	77
270.02194	10
283.029765	15
296.001001	21
297.008826	18
309.00903	30
377.07163	12
381.139803	393
392.094902	23
393.139316	31
407.119068	999
407.196534	13
408.123034	15
564.208217	17
