Mass spectrum: 2-Pentanone; ESI-QTOF; MS2; CE: 20; [M+H]+
Name: 2-Pentanone
Formula: C5H10O
Exact mass: 86.0731649413
SMILES: CCCC(C)=O
InChI: InChI=1S/C5H10O/c1-3-4-5(2)6/h3-4H2,1-2H3
Instrument type: ESI-QTOF
Ms type: MS2
Ion mode: POSITIVE
Ionization: ESI
Collision energy: 20
Precursor m/z: 87.080441393
Precursor type: [M+H]+
m/z	relative intensity
39.022927	86
41.038577	49
43.017841	430
45.033491	567
53.038577	97
55.054227	999
56.025666	15
57.033491	20
57.069877	18
59.049141	58
60.056966	11
87.080441	30
