Mass spectrum: Quinolinic acid; ESI-QTOF; MS2; CE: 20; [M-H]-
Name: Quinolinic acid
Name: 2,3-Pyridinedicarboxylic acid
Formula: C7H5NO4
Exact mass: 167.0218576561
SMILES: OC(=O)C1C=CC=NC=1C(O)=O
InChI: InChI=1S/C7H5NO4/c9-6(10)4-2-1-3-8-5(4)7(11)12/h1-3H,(H,9,10)(H,11,12)
Instrument type: ESI-QTOF
Ms type: MS2
Ion mode: NEGATIVE
Ionization: ESI
Collision energy: 20
Precursor m/z: 166.0145812044
Precursor type: [M-H]-
m/z	relative intensity
78.034923	999
122.024752	110
