Mass spectrum: N-Methylhydrazinecarbothioamide; ESI-QTOF; MS2; CE: 40; [M-H]-
Name: N-Methylhydrazinecarbothioamide
Name: DTXSID7044390
Formula: C2H7N3S
Exact mass: 105.0360679755
SMILES: CNC(=S)NN
InChI: InChI=1S/C2H7N3S/c1-4-2(6)5-3/h3H2,1H3,(H2,4,5,6)
Instrument type: ESI-QTOF
Ms type: MS2
Ion mode: NEGATIVE
Ionization: ESI
Collision energy: 40
Precursor m/z: 104.0287915238
Precursor type: [M-H]-
m/z	relative intensity
32.980444	28
40.006697	21
55.030172	25
57.975693	999
