Mass spectrum: Kinetin; ESI-QTOF; MS2; CE: 20; [M-H]-
Name: Kinetin
Name: DTXSID9035175
Formula: C10H9N5O
Exact mass: 215.0807099464
SMILES: C(NC1NC=NC2=NC=NC2=1)C1=CC=CO1
InChI: InChI=1S/C10H9N5O/c1-2-7(16-3-1)4-11-9-8-10(13-5-12-8)15-6-14-9/h1-3,5-6H,4H2,(H2,11,12,13,14,15)
Instrument type: ESI-QTOF
Ms type: MS2
Ion mode: NEGATIVE
Ionization: ESI
Collision energy: 20
Precursor m/z: 214.0734334947
Precursor type: [M-H]-
m/z	relative intensity
66.009771	24
79.017596	13
92.025421	33
106.028495	64
107.03632	69
117.02067	63
118.028495	17
132.031569	180
133.039394	999
134.047219	626
135.04381	40
142.041071	15
144.031569	13
146.047219	12
158.047219	13
160.062869	11
169.05197	26
170.047219	43
186.078519	35
196.062869	112
197.070694	13
214.073433	157
