Mass spectrum: 1-Amino-2-propanol; ESI-QTOF; MS2; CE: 10; [M+H]+
Name: 1-Amino-2-propanol
Formula: C3H9NO
Exact mass: 75.0684139168
SMILES: CC(O)CN
InChI: InChI=1S/C3H9NO/c1-3(5)2-4/h3,5H,2,4H2,1H3
Instrument type: ESI-QTOF
Ms type: MS2
Ion mode: POSITIVE
Ionization: ESI
Collision energy: 10
Precursor m/z: 76.0756903685
Precursor type: [M+H]+
m/z	relative intensity
30.033826	17
31.017841	17
41.038577	307
43.041651	82
58.065126	999
59.049141	43
76.07569	139
