Mass spectrum: 3,3'-(1,1,3,3-Tetramethyldisiloxane-1,3-diyl)dipropan-1-amine; ESI-QTOF; MS2; CE: 10; [M+H]+
Name: 3,3'-(1,1,3,3-Tetramethyldisiloxane-1,3-diyl)dipropan-1-amine
Name: DTXSID3044621
Formula: C10H28N2OSi2
Exact mass: 248.1740165103
SMILES: C[Si](C)(CCCN)O[Si](C)(C)CCCN
InChI: InChI=1S/C10H28N2OSi2/c1-14(2,9-5-7-11)13-15(3,4)10-6-8-12/h5-12H2,1-4H3
Instrument type: ESI-QTOF
Ms type: MS2
Ion mode: POSITIVE
Ionization: ESI
Collision energy: 10
Precursor m/z: 249.181292962
Precursor type: [M+H]+
m/z	relative intensity
74.042052	24
116.089002	999
116.1308	18
134.099567	109
249.181293	14
