Mass spectrum: 4-Hydroxyphenyl benzoate; ESI-QTOF; MS2; CE: 10; [M-H]-
Name: 4-Hydroxyphenyl benzoate
Name: DTXSID9051905
Formula: C13H10O3
Exact mass: 214.0629941859
SMILES: OC1C=CC(=CC=1)OC(=O)C1C=CC=CC=1
InChI: InChI=1S/C13H10O3/c14-11-6-8-12(9-7-11)16-13(15)10-4-2-1-3-5-10/h1-9,14H
Instrument type: ESI-QTOF
Ms type: MS2
Ion mode: NEGATIVE
Ionization: ESI
Collision energy: 10
Precursor m/z: 213.0557177342
Precursor type: [M-H]-
m/z	relative intensity
108.021678	999
108.058063	29
213.055718	291
