Mass spectrum: 2,6-Dihydroxypyridine; ESI-QTOF; MS2; CE: 40; [M-H]-
Name: 2,6-Dihydroxypyridine
Formula: C5H5NO2
Exact mass: 111.0320284115
SMILES: OC1=CC=CC(=O)N1
InChI: InChI=1S/C5H5NO2/c7-4-2-1-3-5(8)6-4/h1-3H,(H2,6,7,8)
Instrument type: ESI-QTOF
Ms type: MS2
Ion mode: NEGATIVE
Ionization: ESI
Collision energy: 40
Precursor m/z: 110.0247519598
Precursor type: [M-H]-
m/z	relative intensity
39.024024	24
40.019273	999
41.003288	419
41.998537	303
49.008374	41
50.003623	167
64.019273	46
65.003288	62
66.034923	83
67.018938	17
