Mass spectrum: Carabersat; ESI-QTOF; MS2; CE: 40; [M-H]-
Name: Carabersat
Name: DTXSID6047319
Formula: C20H20FNO4
Exact mass: 357.1376363346
SMILES: CC(=O)C1C=C2C(NC(=O)C3C=CC(F)=CC=3)C(O)C(C)(C)OC2=CC=1
InChI: InChI=1S/C20H20FNO4/c1-11(23)13-6-9-16-15(10-13)17(18(24)20(2,3)26-16)22-19(25)12-4-7-14(21)8-5-12/h4-10,17-18,24H,1-3H3,(H,22,25)
Instrument type: ESI-QTOF
Ms type: MS2
Ion mode: NEGATIVE
Ionization: ESI
Collision energy: 40
Precursor m/z: 356.1303598829
Precursor type: [M-H]-
m/z	relative intensity
41.003288	87
41.998537	637
42.034923	10
81.034588	41
92.026763	35
93.034588	85
95.030252	166
117.022012	67
118.029837	53
120.022821	55
134.037328	10
135.045153	986
135.090092	38
135.106491	17
137.040817	242
138.036066	172
139.020081	18
145.016927	40
148.052978	27
159.045153	122
160.040402	999
160.089364	34
160.110493	19
161.040817	33
162.056052	355
163.041211	15
175.040068	14
175.056467	49
177.072117	153
189.092103	21
198.048642	10
199.076453	26
241.054455	56
242.06228	11
253.065888	21
256.076788	14
257.061946	32
271.076453	12
277.090841	34
282.057195	80
283.06502	108
284.072845	215
298.087352	14
320.109231	52
322.088495	16
