Mass spectrum: Hexamethyleneimine; ESI-QTOF; MS2; CE: 40; [M+H]+
Name: Hexamethyleneimine
Formula: C6H13N
Exact mass: 99.1047994221
SMILES: C1CCCCCN1
InChI: InChI=1S/C6H13N/c1-2-4-6-7-5-3-1/h7H,1-6H2
Instrument type: ESI-QTOF
Ms type: MS2
Ion mode: POSITIVE
Ionization: ESI
Collision energy: 40
Precursor m/z: 100.1120758738
Precursor type: [M+H]+
m/z	relative intensity
29.038577	64
30.033826	170
30.046402	18
39.022927	564
41.038577	944
42.033826	79
42.046402	11
43.041651	98
44.049476	21
53.038577	160
55.054227	999
56.049476	45
77.038577	57
