Mass spectrum: 1-Butylpyridinium; ESI-QTOF; MS2; CE: 40; [M+H]+
Name: 1-Butylpyridinium
Formula: [C9H14N]+
Exact mass: 136.112624454
SMILES: CCCC[N+]1C=CC=CC=1
InChI: InChI=1S/C9H14N/c1-2-3-7-10-8-5-4-6-9-10/h4-6,8-9H,2-3,7H2,1H3/q+1
Instrument type: ESI-QTOF
Ms type: MS2
Ion mode: POSITIVE
Ionization: ESI
Collision energy: 40
Precursor m/z: 137.1199009057
Precursor type: [M+H]+
m/z	relative intensity
28.030752	11
29.038577	21
30.046402	13
39.022927	226
40.030752	88
41.038577	534
42.046402	248
51.022927	29
52.030752	19
53.038577	599
54.046402	404
57.069877	26
58.077702	17
62.015101	15
78.033826	41
79.041651	66
80.049476	787
81.057301	999
