Mass spectrum: N,Dimethyloctadecylbenzylammonium; ESI-QTOF; MS2; CE: 20; [M+H]+
Name: N,Dimethyloctadecylbenzylammonium
Formula: [C27H50N]+
Exact mass: 388.3943256024
SMILES: CCCCCCCCCCCCCCCCCC[N+](C)(C)CC1C=CC=CC=1
InChI: InChI=1S/C27H50N/c1-4-5-6-7-8-9-10-11-12-13-14-15-16-17-18-22-25-28(2,3)26-27-23-20-19-21-24-27/h19-21,23-24H,4-18,22,25-26H2,1-3H3/q+1
Instrument type: ESI-QTOF
Ms type: MS2
Ion mode: POSITIVE
Ionization: ESI
Collision energy: 20
Precursor m/z: 389.4016020541
Precursor type: [M+H]+
m/z	relative intensity
58.065126	58
91.054227	110
92.062052	36
296.331177	35
297.339002	103
389.401602	999
