Mass spectrum: 5-Amino-1,2-dihydro-3H-1,2,4-triazole-3-thione; ESI-QTOF; MS2; CE: 10; [M+H]+
Name: 5-Amino-1,2-dihydro-3H-1,2,4-triazole-3-thione
Name: DTXSID7044849
Formula: C2H4N4S
Exact mass: 116.0156668872
SMILES: NC1NNC(=S)N=1
InChI: InChI=1S/C2H4N4S/c3-1-4-2(7)6-5-1/h(H4,3,4,5,6,7)
Instrument type: ESI-QTOF
Ms type: MS2
Ion mode: POSITIVE
Ionization: ESI
Collision energy: 10
Precursor m/z: 117.0229433389
Precursor type: [M+H]+
m/z	relative intensity
43.029075	27
59.047799	344
75.001145	35
117.022943	999
