Mass spectrum: Ilepatril; ESI-QTOF; MS2; CE: 10; [M+H]+
Name: Ilepatril
Name: DTXSID7047356
Formula: C22H28N2O5S
Exact mass: 432.1718927495
SMILES: CC(=O)SC(C(C)C)C(=O)NC1CC2C=CC=CC=2C2CCCC(C(O)=O)N2C1=O
InChI: InChI=1S/C22H28N2O5S/c1-12(2)19(30-13(3)25)20(26)23-16-11-14-7-4-5-8-15(14)17-9-6-10-18(22(28)29)24(17)21(16)27/h4-5,7-8,12,16-19H,6,9-11H2,1-3H3,(H,23,26)(H,28,29)
Instrument type: ESI-QTOF
Ms type: MS2
Ion mode: POSITIVE
Ionization: ESI
Collision energy: 10
Precursor m/z: 433.1791692012
Precursor type: [M+H]+
m/z	relative intensity
89.041947	10
119.085527	106
120.089329	58
131.052512	36
135.080441	23
136.084244	14
159.047427	22
184.112076	48
229.13354	15
230.117555	63
257.128454	17
275.139019	84
281.13835	12
282.140302	19
345.163125	100
359.178775	20
373.15804	182
387.17369	217
391.168605	133
415.168605	942
416.17643	20
433.179169	999
