Mass spectrum: PharmaGSID_48506; ESI-QTOF; MS2; CE: 40; [M-H]-
Name: PharmaGSID_48506
Name: DTXSID5048506
Formula: C19H22ClN3O3S
Exact mass: 407.1070400309
SMILES: CS(=O)(=O)C1=CC=C(C=C1Cl)C(CC1CCCC1)C(=O)NC1C=NC=CN=1
InChI: InChI=1S/C19H22ClN3O3S/c1-27(25,26)17-7-6-14(11-16(17)20)15(10-13-4-2-3-5-13)19(24)23-18-12-21-8-9-22-18/h6-9,11-13,15H,2-5,10H2,1H3,(H,22,23,24)
Instrument type: ESI-QTOF
Ms type: MS2
Ion mode: NEGATIVE
Ionization: ESI
Collision energy: 40
Precursor m/z: 406.0997635792
Precursor type: [M-H]-
m/z	relative intensity
34.969401	821
34.996094	14
63.962449	835
63.995463	13
78.985924	79
94.041071	171
156.094449	13
185.133574	999
186.137376	11
200.976909	95
249.095474	25
270.046847	11
285.072152	53
