Mass spectrum: Bis(2-ethylhexyl) nonanedioate; ESI-QTOF; MS2; CE: 40; [M+H]+
Name: Bis(2-ethylhexyl) nonanedioate
Formula: C25H48O4
Exact mass: 412.3552600204
SMILES: CCCCC(COC(=O)CCCCCCCC(=O)OCC(CCCC)CC)CC
InChI: InChI=1S/C25H48O4/c1-5-9-16-22(7-3)20-28-24(26)18-14-12-11-13-15-19-25(27)29-21-23(8-4)17-10-6-2/h22-23H,5-21H2,1-4H3
Instrument type: ESI-QTOF
Ms type: MS2
Ion mode: POSITIVE
Ionization: ESI
Collision energy: 40
Precursor m/z: 413.3625364721
Precursor type: [M+H]+
m/z	relative intensity
29.038577	10
41.038577	50
43.017841	120
43.054227	364
55.017841	64
55.054227	587
57.069877	999
59.049141	10
67.054227	112
69.033491	106
69.069877	63
71.085527	470
73.028406	33
79.054227	73
81.069877	69
83.049141	37
83.085527	313
84.078096	15
85.064791	14
87.044056	14
91.054227	24
93.069877	42
97.101177	949
101.059706	18
101.096091	31
107.085527	216
111.080441	19
119.085527	16
121.028406	15
121.049535	13
125.096091	534
133.064791	78
135.080441	50
143.085527	22
143.106656	10
153.091006	17
170.109002	10
171.101571	55
176.083181	10
