Mass spectrum: C.I. Acid Orange 24; ESI-QTOF; MS2; CE: 40; [M-H]-
Name: C.I. Acid Orange 24
Name: DTXSID7041708
Formula: C20H18N4O5S
Exact mass: 426.0997904453
SMILES: CC1=CC(C)=CC=C1/N=N/C1C(O)=C(C=CC=1O)/N=N/C1C=CC(=CC=1)S(O)(=O)=O
InChI: InChI=1S/C20H18N4O5S/c1-12-3-8-16(13(2)11-12)22-24-19-18(25)10-9-17(20(19)26)23-21-14-4-6-15(7-5-14)30(27,28)29/h3-11,25-26H,1-2H3,(H,27,28,29)/b23-21+,24-22+
Instrument type: ESI-QTOF
Ms type: MS2
Ion mode: NEGATIVE
Ionization: ESI
Collision energy: 40
Precursor m/z: 425.0925139936
Precursor type: [M-H]-
m/z	relative intensity
79.006362	69
79.957363	55
90.034923	20
106.017261	10
107.037662	166
121.016927	9
155.988663	129
169.991737	21
170.999562	999
171.053706	20
172.007387	166
197.986652	69
251.01251	25
263.001277	17
