Mass spectrum: 3-(3-Methyl-5-oxo-4,5-dihydro-1H-pyrazol-1-yl)benzenesulfonic acid; ESI-QTOF; MS2; CE: 10; [M-H]-
Name: 3-(3-Methyl-5-oxo-4,5-dihydro-1H-pyrazol-1-yl)benzenesulfonic acid
Formula: C10H10N2O4S
Exact mass: 254.036127553
SMILES: CC1CC(=O)N(N=1)C1=CC(=CC=C1)S(O)(=O)=O
InChI: InChI=1S/C10H10N2O4S/c1-7-5-10(13)12(11-7)8-3-2-4-9(6-8)17(14,15)16/h2-4,6H,5H2,1H3,(H,14,15,16)
Instrument type: ESI-QTOF
Ms type: MS2
Ion mode: NEGATIVE
Ionization: ESI
Collision energy: 10
Precursor m/z: 253.0288511013
Precursor type: [M-H]-
m/z	relative intensity
79.957363	21
132.045487	25
173.072037	13
184.007387	11
212.002302	24
253.028851	999
