Mass spectrum: Ethyl phthalyl ethyl glycolate; ESI-QTOF; MS2; CE: 10; [M+H]+
Name: Ethyl phthalyl ethyl glycolate
Formula: C14H16O6
Exact mass: 280.0946882442
SMILES: CCOC(=O)COC(=O)C1=CC=CC=C1C(=O)OCC
InChI: InChI=1S/C14H16O6/c1-3-18-12(15)9-20-14(17)11-8-6-5-7-10(11)13(16)19-4-2/h5-8H,3-4,9H2,1-2H3
Instrument type: ESI-QTOF
Ms type: MS2
Ion mode: POSITIVE
Ionization: ESI
Collision energy: 10
Precursor m/z: 281.1019646959
Precursor type: [M+H]+
m/z	relative intensity
43.054227	27
59.012756	25
65.038577	15
87.044056	31
135.080441	17
149.02332	999
177.054621	827
235.0601	557
