Mass spectrum: 2-Amino-5-methylbenzenesulfonic acid; ESI-QTOF; MS2; CE: 20; [M-H]-
Name: 2-Amino-5-methylbenzenesulfonic acid
Formula: C7H9NO3S
Exact mass: 187.0303138914
SMILES: CC1C=C(C(N)=CC=1)S(O)(=O)=O
InChI: InChI=1S/C7H9NO3S/c1-5-2-3-6(8)7(4-5)12(9,10)11/h2-4H,8H2,1H3,(H,9,10,11)
Instrument type: ESI-QTOF
Ms type: MS2
Ion mode: NEGATIVE
Ionization: ESI
Collision energy: 20
Precursor m/z: 186.0230374397
Precursor type: [M-H]-
m/z	relative intensity
79.957363	999
79.990378	59
80.014187	15
121.053312	15
122.061137	206
186.023037	744
