Mass spectrum: 5-Ethyl-2,3-pyridinedicarboxylic acid; ESI-QTOF; MS2; CE: 20; [M+H]+
Name: 5-Ethyl-2,3-pyridinedicarboxylic acid
Formula: C9H9NO4
Exact mass: 195.0531577837
SMILES: CCC1=CC(=C(N=C1)C(O)=O)C(O)=O
InChI: InChI=1S/C9H9NO4/c1-2-5-3-6(8(11)12)7(9(13)14)10-4-5/h3-4H,2H2,1H3,(H,11,12)(H,13,14)
Instrument type: ESI-QTOF
Ms type: MS2
Ion mode: POSITIVE
Ionization: ESI
Collision energy: 20
Precursor m/z: 196.0604342354
Precursor type: [M+H]+
m/z	relative intensity
67.054227	28
77.038577	13
93.057301	11
94.065126	19
106.065126	999
122.06004	51
134.06004	84
137.04713	32
150.054955	114
152.070605	91
178.04987	66
