Mass spectrum: 3-Hydroxypyridine-2-methanol; ESI-QTOF; MS2; CE: 40; [M-H]-
Name: 3-Hydroxypyridine-2-methanol
Name: DTXSID90161811
Formula: C6H7NO2
Exact mass: 125.0476784753
SMILES: OC1C=CC=NC=1CO
InChI: InChI=1S/C6H7NO2/c8-4-5-6(9)2-1-3-7-5/h1-3,8-9H,4H2
Instrument type: ESI-QTOF
Ms type: MS2
Ion mode: NEGATIVE
Ionization: ESI
Collision energy: 40
Precursor m/z: 124.0404020236
Precursor type: [M-H]-
m/z	relative intensity
39.024024	102
40.019273	155
41.003288	76
43.018938	18
49.008374	15
50.003623	87
51.024024	60
52.019273	25
64.019273	12
65.998537	44
66.034923	999
67.018938	13
78.034923	11
94.029837	409
