Mass spectrum: PD 0343701; ESI-QTOF; MS2; CE: 20; [M-H]-
Name: PD 0343701
Name: DTXSID7047271
Formula: C25H30N4OS
Exact mass: 434.2140323389
SMILES: CC1=CC(CCN2CCN(CC2)C2=NSC3=CC=CC=C32)=CC2=C1NC(=O)CC2(C)C
InChI: InChI=1S/C25H30N4OS/c1-17-14-18(15-20-23(17)26-22(30)16-25(20,2)3)8-9-28-10-12-29(13-11-28)24-19-6-4-5-7-21(19)31-27-24/h4-7,14-15H,8-13,16H2,1-3H3,(H,26,30)
Instrument type: ESI-QTOF
Ms type: MS2
Ion mode: NEGATIVE
Ionization: ESI
Collision energy: 20
Precursor m/z: 433.2067558872
Precursor type: [M-H]-
m/z	relative intensity
43.017596	21
55.018938	11
59.01251	999
59.037662	15
69.033246	26
71.01251	61
85.02816	820
85.064546	13
86.035985	10
87.04381	30
89.027098	26
97.02816	311
109.02816	22
115.042748	209
127.042748	17
133.065888	231
145.05197	135
147.081539	18
163.078481	15
183.083567	17
189.090761	34
219.105348	22
279.125135	54
433.206756	261
