Mass spectrum: C.I. Acid Orange 3; ESI-QTOF; MS2; CE: 10; [M-H]-
Name: C.I. Acid Orange 3
Name: DTXSID1021081
Formula: C18H14N4O7S
Exact mass: 430.0583195623
SMILES: [O-][N+](=O)C1=CC(=C(C=C1)NC1=CC(=C(C=C1)NC1C=CC=CC=1)S(O)(=O)=O)[N+]([O-])=O
InChI: InChI=1S/C18H14N4O7S/c23-21(24)14-7-9-15(17(11-14)22(25)26)20-13-6-8-16(18(10-13)30(27,28)29)19-12-4-2-1-3-5-12/h1-11,19-20H,(H,27,28,29)
Instrument type: ESI-QTOF
Ms type: MS2
Ion mode: NEGATIVE
Ionization: ESI
Collision energy: 10
Precursor m/z: 429.0510431106
Precursor type: [M-H]-
m/z	relative intensity
429.051043	999
