Mass spectrum: Besonprodil; ESI-QTOF; MS2; CE: 40; [M+H]+
Name: Besonprodil
Name: DTXSID2047270
Formula: C21H23FN2O3S
Exact mass: 402.1413415454
SMILES: O=C1NC2=CC=C(C=C2O1)S(=O)CCN1CCC(CC2C=CC(F)=CC=2)CC1
InChI: InChI=1S/C21H23FN2O3S/c22-17-3-1-15(2-4-17)13-16-7-9-24(10-8-16)11-12-28(26)18-5-6-19-20(14-18)27-21(25)23-19/h1-6,14,16H,7-13H2,(H,23,25)
Instrument type: ESI-QTOF
Ms type: MS2
Ion mode: POSITIVE
Ionization: ESI
Collision energy: 40
Precursor m/z: 403.1486179971
Precursor type: [M+H]+
m/z	relative intensity
44.049476	58
44.979347	11
56.049476	151
58.065126	112
67.054227	11
68.049476	17
69.057301	556
69.091006	16
70.065126	95
72.080776	11
82.065126	58
84.080776	127
96.080776	43
97.088601	70
109.044805	251
110.096426	23
111.104251	17
112.112076	13
135.060455	58
136.039305	35
136.066485	12
147.060455	19
148.06828	61
149.076105	24
163.091755	19
180.011376	11
192.118304	86
193.126129	31
206.133954	461
206.190326	10
220.149604	999
