Mass spectrum: MK-812; ESI-QTOF; MS2; CE: 10; [M-H]-
Name: MK-812
Formula: C24H34F3N3O3
Exact mass: 469.2552265737
SMILES: CC(C)C1(CC(CC1)NC1CCOCC1OC)C(=O)N1CC2=CC(=CN=C2CC1)C(F)(F)F
InChI: InChI=1S/C24H34F3N3O3/c1-15(2)23(7-4-18(11-23)29-20-6-9-33-14-21(20)32-3)22(31)30-8-5-19-16(13-30)10-17(12-28-19)24(25,26)27/h10,12,15,18,20-21,29H,4-9,11,13-14H2,1-3H3
Instrument type: ESI-QTOF
Ms type: MS2
Ion mode: NEGATIVE
Ionization: ESI
Collision energy: 10
Precursor m/z: 468.247950122
Precursor type: [M-H]-
m/z	relative intensity
468.24795	999
