Mass spectrum: FR145237; ESI-QTOF; MS2; CE: 20; [M-H]-
Name: FR145237
Name: DTXSID6048171
Formula: C30H22ClF3N2O2
Exact mass: 534.1321902712
SMILES: CC1=CC2C(C3C=CC(Cl)=CC=3)=C(CN(CC3C=CC=CC=3)C(=O)NC3C(F)=CC(F)=CC=3F)OC=2C=C1
InChI: InChI=1S/C30H22ClF3N2O2/c1-18-7-12-26-23(13-18)28(20-8-10-21(31)11-9-20)27(38-26)17-36(16-19-5-3-2-4-6-19)30(37)35-29-24(33)14-22(32)15-25(29)34/h2-15H,16-17H2,1H3,(H,35,37)
Instrument type: ESI-QTOF
Ms type: MS2
Ion mode: NEGATIVE
Ionization: ESI
Collision energy: 20
Precursor m/z: 533.1249138195
Precursor type: [M-H]-
m/z	relative intensity
41.998537	20
91.055324	56
118.066223	207
164.026763	12
168.014755	14
233.084613	35
241.042566	36
255.058216	17
268.053465	26
269.06129	76
271.068843	349
333.105166	11
360.116066	829
361.120959	12
379.058097	12
386.08792	96
393.061171	27
402.057682	34
422.06391	999
422.142462	15
423.06945	15
470.114015	13
493.112457	10
513.118686	117
