Mass spectrum: CP-457677; ESI-QTOF; MS2; CE: 20; [M-H]-
Name: CP-457677
Name: DTXSID2047278
Formula: C22H21FN2O3
Exact mass: 380.1536207516
SMILES: CC(C)(O)C1C=CC(CNC(=O)C2=CC=CN=C2OC2C=CC(F)=CC=2)=CC=1
InChI: InChI=1S/C22H21FN2O3/c1-22(2,27)16-7-5-15(6-8-16)14-25-20(26)19-4-3-13-24-21(19)28-18-11-9-17(23)10-12-18/h3-13,27H,14H2,1-2H3,(H,25,26)
Instrument type: ESI-QTOF
Ms type: MS2
Ion mode: NEGATIVE
Ionization: ESI
Collision energy: 20
Precursor m/z: 379.1463442999
Precursor type: [M-H]-
m/z	relative intensity
41.998537	22
57.034588	116
93.022012	21
94.029837	215
95.030252	119
102.036066	37
121.016927	16
122.024752	336
135.082681	30
138.036066	20
172.056801	17
188.051716	115
198.072451	16
199.0677	11
213.046965	19
215.062615	10
240.119401	21
241.089698	23
241.110827	10
256.113173	24
258.129966	177
266.106076	17
267.113901	14
269.105742	57
272.109231	46
303.093915	62
335.156515	22
343.125215	99
361.13578	435
379.146344	999
