Mass spectrum: 2,7-Acetylaminofluorene; ESI-QTOF; MS2; CE: 20; [M-H]-
Name: 2,7-Acetylaminofluorene
Name: DTXSID9021479
Formula: C17H16N2O2
Exact mass: 280.1211777698
SMILES: CC(=O)NC1C=C2CC3C=C(C=CC=3C2=CC=1)NC(C)=O
InChI: InChI=1S/C17H16N2O2/c1-10(20)18-14-3-5-16-12(8-14)7-13-9-15(19-11(2)21)4-6-17(13)16/h3-6,8-9H,7H2,1-2H3,(H,18,20)(H,19,21)
Instrument type: ESI-QTOF
Ms type: MS2
Ion mode: NEGATIVE
Ionization: ESI
Collision energy: 20
Precursor m/z: 279.1139013181
Precursor type: [M-H]-
m/z	relative intensity
41.998537	14
194.084947	104
195.092772	25
210.092438	20
221.072037	44
236.095512	80
237.103337	871
238.099928	21
263.082601	45
279.113901	999
