Mass spectrum: dl-Norgestrel; ESI-QTOF; MS2; CE: 20; [M+H]+
Name: dl-Norgestrel
Name: DTXSID3047477
Formula: C21H28O2
Exact mass: 312.2089301378
SMILES: CCC12CCC3C4CCC(=O)C=C4CCC3C1CCC2(O)C#C
InChI: InChI=1S/C21H28O2/c1-3-20-11-9-17-16-8-6-15(22)13-14(16)5-7-18(17)19(20)10-12-21(20,23)4-2/h2,13,16-19,23H,3,5-12H2,1H3
Instrument type: ESI-QTOF
Ms type: MS2
Ion mode: POSITIVE
Ionization: ESI
Collision energy: 20
Precursor m/z: 313.2162065895
Precursor type: [M+H]+
m/z	relative intensity
41.038577	31
55.017841	61
55.054227	96
57.033491	43
57.069877	26
67.054227	105
69.033491	10
69.069877	37
77.038577	17
79.054227	70
81.069877	89
83.049141	211
91.054227	148
93.069877	191
95.085527	96
97.064791	12
97.101177	38
103.054227	16
104.062052	11
105.069877	136
107.049141	90
107.085527	87
109.064791	570
109.101177	118
115.054227	29
117.069877	125
118.077702	10
119.085527	190
121.064791	63
121.101177	83
123.080441	76
123.116827	69
125.096091	76
129.069877	61
131.085527	219
133.064791	34
133.101177	250
134.072616	15
135.080441	272
135.116827	137
137.096091	40
137.132477	26
141.069877	24
142.077702	17
143.085527	91
145.101177	248
145.122306	22
147.080441	57
147.116827	141
149.096091	104
149.132477	34
151.111742	37
155.085527	69
157.064791	17
157.101177	194
159.080441	59
159.116827	234
161.096091	120
161.132477	40
163.111742	132
163.148127	11
165.069877	19
167.085527	60
168.093352	16
169.101177	98
171.080441	20
171.116827	181
173.096091	40
173.132477	65
175.111742	101
175.148127	34
177.127392	12
179.085527	25
181.101177	15
183.116827	136
185.096091	63
185.132477	243
187.111742	58
187.148127	177
189.127392	57
190.135217	13
193.101177	14
194.109002	10
195.116827	52
197.096091	20
197.132477	108
199.111742	22
199.148127	120
200.155952	12
201.127392	58
203.143042	30
203.179427	13
207.116827	49
209.132477	60
211.148127	19
213.127392	40
213.163777	57
215.179427	32
217.158692	14
221.132477	69
223.148127	49
225.127392	10
225.163777	84
227.143042	25
227.179427	182
228.150867	14
235.148127	72
237.163777	85
238.135217	15
239.143042	19
239.179427	13
241.158692	18
245.189992	712
248.155952	41
249.163777	16
251.179427	18
252.150867	11
253.158692	32
253.195077	44
255.174342	24
262.171602	11
266.166517	30
267.174342	27
267.210727	24
269.189992	14
277.195077	98
285.184906	14
295.205642	250
313.216207	999
