Mass spectrum: 2-Morpholinoethylamine; ESI-QTOF; MS2; CE: 10; [M+H]+
Name: 2-Morpholinoethylamine
Name: DTXSID4044408
Formula: C6H14N2O
Exact mass: 130.1106130837
SMILES: NCCN1CCOCC1
InChI: InChI=1S/C6H14N2O/c7-1-2-8-3-5-9-6-4-8/h1-7H2
Instrument type: ESI-QTOF
Ms type: MS2
Ion mode: POSITIVE
Ionization: ESI
Collision energy: 10
Precursor m/z: 131.1178895354
Precursor type: [M+H]+
m/z	relative intensity
44.049476	35
70.065126	26
84.080776	10
88.07569	21
114.09134	999
131.11789	433
