Mass spectrum: Auramine; ESI-QTOF; MS2; CE: 10; [M+H]+
Name: Auramine
Name: DTXSID9020114
Formula: C17H21N3
Exact mass: 267.1735476921
SMILES: CN(C)C1C=CC(=CC=1)C(=N)C1C=CC(=CC=1)N(C)C
InChI: InChI=1S/C17H21N3/c1-19(2)15-9-5-13(6-10-15)17(18)14-7-11-16(12-8-14)20(3)4/h5-12,18H,1-4H3
Instrument type: ESI-QTOF
Ms type: MS2
Ion mode: POSITIVE
Ionization: ESI
Collision energy: 10
Precursor m/z: 268.1808241438
Precursor type: [M+H]+
m/z	relative intensity
147.091675	21
268.180824	999
