Mass spectrum: Diisopropyl methylphosphonate; ESI-QTOF; MS2; CE: 10; [M+H]+
Name: Diisopropyl methylphosphonate
Name: DTXSID5024051
Formula: C7H17O3P
Exact mass: 180.0915308992
SMILES: CP(=O)(OC(C)C)OC(C)C
InChI: InChI=1S/C7H17O3P/c1-6(2)9-11(5,8)10-7(3)4/h6-7H,1-5H3
Instrument type: ESI-QTOF
Ms type: MS2
Ion mode: POSITIVE
Ionization: ESI
Collision energy: 10
Precursor m/z: 181.0988073509
Precursor type: [M+H]+
m/z	relative intensity
78.994342	27
97.004907	999
97.041292	21
101.002191	184
102.994342	222
139.051857	11
