Mass spectrum: 1-Cyclohexylpyrrolidin-2-one; ESI-QTOF; MS2; CE: 40; [M+H]+
Name: 1-Cyclohexylpyrrolidin-2-one
Name: DTXSID7044716
Formula: C10H17NO
Exact mass: 167.131014172
SMILES: O=C1CCCN1C1CCCCC1
InChI: InChI=1S/C10H17NO/c12-10-7-4-8-11(10)9-5-2-1-3-6-9/h9H,1-8H2
Instrument type: ESI-QTOF
Ms type: MS2
Ion mode: POSITIVE
Ionization: ESI
Collision energy: 40
Precursor m/z: 168.1382906237
Precursor type: [M+H]+
m/z	relative intensity
29.038577	14
39.022927	53
41.038577	288
42.033826	10
43.054227	84
44.01309	384
44.049476	31
45.033491	10
53.038577	26
55.054227	999
55.099165	14
68.049476	22
69.033491	182
83.085527	26
86.06004	684
86.096426	15
