Mass spectrum: Phosphoric acid, dibutyl ester; ESI-QTOF; MS2; CE: 40; [M-H]-
Name: Phosphoric acid, dibutyl ester
Formula: C8H19O4P
Exact mass: 210.1020955853
SMILES: CCCCOP(O)(=O)OCCCC
InChI: InChI=1S/C8H19O4P/c1-3-5-7-11-13(9,10)12-8-6-4-2/h3-8H2,1-2H3,(H,9,10)
Instrument type: ESI-QTOF
Ms type: MS2
Ion mode: NEGATIVE
Ionization: ESI
Collision energy: 40
Precursor m/z: 209.0948191336
Precursor type: [M-H]-
m/z	relative intensity
78.959054	999
78.995439	39
79.003682	18
