Mass spectrum: 2-Methoxy-5-nitrophenol; ESI-QTOF; MS2; CE: 20; [M-H]-
Name: 2-Methoxy-5-nitrophenol
Name: DTXSID0035790
Formula: C7H7NO4
Exact mass: 169.0375077199
SMILES: COC1C=CC(=CC=1O)[N+]([O-])=O
InChI: InChI=1S/C7H7NO4/c1-12-7-3-2-5(8(10)11)4-6(7)9/h2-4,9H,1H3
Instrument type: ESI-QTOF
Ms type: MS2
Ion mode: NEGATIVE
Ionization: ESI
Collision energy: 20
Precursor m/z: 168.0302312682
Precursor type: [M-H]-
m/z	relative intensity
39.011448	24
41.998537	32
45.993452	348
51.024024	337
52.019273	15
64.019273	41
79.018938	139
95.013853	328
107.013853	22
109.016927	15
123.008768	887
125.011842	14
153.006756	999
