Mass spectrum: AVE3295; ESI-QTOF; MS2; CE: 10; [M+H]+
Name: AVE3295
Name: DTXSID5047372
Formula: C25H22FN3O3S
Exact mass: 463.1365905209
SMILES: CCC(NC(=O)C1C=C(F)C=CC=1NS(=O)(=O)C1=CC=CC2=CC=CN=C21)C1C=CC=CC=1
InChI: InChI=1S/C25H22FN3O3S/c1-2-21(17-8-4-3-5-9-17)28-25(30)20-16-19(26)13-14-22(20)29-33(31,32)23-12-6-10-18-11-7-15-27-24(18)23/h3-16,21,29H,2H2,1H3,(H,28,30)
Instrument type: ESI-QTOF
Ms type: MS2
Ion mode: POSITIVE
Ionization: ESI
Collision energy: 10
Precursor m/z: 464.1438669726
Precursor type: [M+H]+
m/z	relative intensity
91.054027	35
119.085327	40
265.076716	39
329.039068	125
346.065617	486
346.135017	22
346.160169	10
464.143867	999
