Mass spectrum: Naphthalen-2-yl 2-aminobenzoate; ESI-QTOF; MS2; CE: 20; [M+H]+
Name: Naphthalen-2-yl 2-aminobenzoate
Name: DTXSID7047697
Formula: C17H13NO2
Exact mass: 263.0946286667
SMILES: NC1C=CC=CC=1C(=O)OC1=CC2C=CC=CC=2C=C1
InChI: InChI=1S/C17H13NO2/c18-16-8-4-3-7-15(16)17(19)20-14-10-9-12-5-1-2-6-13(12)11-14/h1-11H,18H2
Instrument type: ESI-QTOF
Ms type: MS2
Ion mode: POSITIVE
Ionization: ESI
Collision energy: 20
Precursor m/z: 264.1019051184
Precursor type: [M+H]+
m/z	relative intensity
65.038577	20
92.049476	78
120.04439	999
120.080776	21
120.101905	11
