Mass spectrum: 2,2'-[(3-Aminopropyl)imino]diethanol; ESI-QTOF; MS2; CE: 20; [M+H]+
Name: 2,2'-[(3-Aminopropyl)imino]diethanol
Name: DTXSID2044680
Formula: C7H18N2O2
Exact mass: 162.1368278336
SMILES: NCCCN(CCO)CCO
InChI: InChI=1S/C7H18N2O2/c8-2-1-3-9(4-6-10)5-7-11/h10-11H,1-8H2
Instrument type: ESI-QTOF
Ms type: MS2
Ion mode: POSITIVE
Ionization: ESI
Collision energy: 20
Precursor m/z: 163.1441042853
Precursor type: [M+H]+
m/z	relative intensity
30.033826	15
41.038577	27
44.049476	17
45.033491	83
56.049476	123
58.065126	781
58.098831	25
58.110065	14
70.065126	53
72.080776	13
74.06004	161
84.080776	16
86.06004	10
88.07569	111
100.07569	17
102.09134	76
106.086255	216
118.086255	999
118.122641	37
118.14645	18
146.117555	459
163.144104	55
