Mass spectrum: 4-Nitrobenzoic acid; ESI-QTOF; MS2; CE: 10; [M-H]-
Name: 4-Nitrobenzoic acid
Name: DTXSID3020966
Formula: C7H5NO4
Exact mass: 167.0218576561
SMILES: [O-][N+](=O)C1C=CC(=CC=1)C(O)=O
InChI: InChI=1S/C7H5NO4/c9-7(10)5-1-3-6(4-2-5)8(11)12/h1-4H,(H,9,10)
Instrument type: ESI-QTOF
Ms type: MS2
Ion mode: NEGATIVE
Ionization: ESI
Collision energy: 10
Precursor m/z: 166.0145812044
Precursor type: [M-H]-
m/z	relative intensity
45.993452	174
92.026763	42
122.024752	999
166.014581	109
