Mass spectrum: 2-Hydroxybenzonitrile; ESI-QTOF; MS2; CE: 20; [M-H]-
Name: 2-Hydroxybenzonitrile
Name: DTXSID3041661
Formula: C7H5NO
Exact mass: 119.0371137892
SMILES: N#CC1C=CC=CC=1O
InChI: InChI=1S/C7H5NO/c8-5-6-3-1-2-4-7(6)9/h1-4,9H
Instrument type: ESI-QTOF
Ms type: MS2
Ion mode: NEGATIVE
Ionization: ESI
Collision energy: 20
Precursor m/z: 118.0298373375
Precursor type: [M-H]-
m/z	relative intensity
41.003288	34
41.998537	325
50.003623	97
64.019273	63
90.034923	563
118.029837	999
