Mass spectrum: 4-(Diethylamino)benzaldehyde; ESI-QTOF; MS2; CE: 40; [M+H]+
Name: 4-(Diethylamino)benzaldehyde
Formula: C11H15NO
Exact mass: 177.1153641082
SMILES: CCN(CC)C1C=CC(C=O)=CC=1
InChI: InChI=1S/C11H15NO/c1-3-12(4-2)11-7-5-10(9-13)6-8-11/h5-9H,3-4H2,1-2H3
Instrument type: ESI-QTOF
Ms type: MS2
Ion mode: POSITIVE
Ionization: ESI
Collision energy: 40
Precursor m/z: 178.1226405599
Precursor type: [M+H]+
m/z	relative intensity
42.033826	27
44.049476	34
51.022927	31
65.038577	10
66.046402	76
77.038577	668
78.046402	126
79.054227	413
91.054227	25
92.049476	13
93.057301	167
94.065126	74
103.054227	29
104.049476	13
105.033491	26
105.057301	29
106.065126	999
118.065126	54
119.072951	20
120.080776	119
122.096426	21
134.06004	261
134.096426	200
146.096426	16
148.07569	12
148.112076	13
