Mass spectrum: 1,4-Dihydroxyanthracene-9,10-dione; ESI-QTOF; MS2; CE: 10; [M-H]-
Name: 1,4-Dihydroxyanthracene-9,10-dione
Name: 1,4-Dihydroxy-9,10-anthracenedione
Name: 1,4-dihydroxyanthracene-9,10-dione
Name: Chinizarin
Formula: C14H8O4
Exact mass: 240.0422587444
SMILES: OC1=CC=C(O)C2=C1C(=O)C1C=CC=CC=1C2=O
InChI: InChI=1S/C14H8O4/c15-9-5-6-10(16)12-11(9)13(17)7-3-1-2-4-8(7)14(12)18/h1-6,15-16H
Instrument type: ESI-QTOF
Ms type: MS2
Ion mode: NEGATIVE
Ionization: ESI
Collision energy: 10
Precursor m/z: 239.0349822927
Precursor type: [M-H]-
m/z	relative intensity
211.040068	141
239.034982	999
