Mass spectrum: UK-343664; ESI-QTOF; MS2; CE: 40; [M+H]+
Name: UK-343664
Name: DTXSID1047289
Formula: C28H35N7O4S
Exact mass: 565.2471233875
SMILES: CCCOC1C=CC(=CC=1C1NC(=O)C2=NN(CC3=CC=CC=N3)C(CC)=C2N=1)S(=O)(=O)N1CCN(CC1)CC
InChI: InChI=1S/C28H35N7O4S/c1-4-17-39-24-11-10-21(40(37,38)34-15-13-33(6-3)14-16-34)18-22(24)27-30-25-23(5-2)35(32-26(25)28(36)31-27)19-20-9-7-8-12-29-20/h7-12,18H,4-6,13-17,19H2,1-3H3,(H,30,31,36)
Instrument type: ESI-QTOF
Ms type: MS2
Ion mode: POSITIVE
Ionization: ESI
Collision energy: 40
Precursor m/z: 566.2543998392
Precursor type: [M+H]+
m/z	relative intensity
42.033826	18
43.054227	49
45.033491	24
55.017841	26
56.049476	90
57.057301	108
58.065126	641
58.098831	12
59.072951	11
67.054227	19
69.069877	10
70.065126	75
71.072951	41
71.085527	343
72.080776	999
72.113139	16
72.125715	11
84.0682	40
84.080776	70
87.083812	14
91.054227	13
92.049476	162
93.057301	48
94.065126	25
98.08385	67
99.091675	323
111.091675	95
112.0995	52
113.107325	870
114.11515	145
115.122975	39
119.085527	15
121.060769	20
121.101177	10
147.080441	43
175.074013	290
177.069225	53
184.084244	11
191.141699	169
217.157349	62
245.153606	387
254.078484	52
255.083812	26
261.221292	224
268.131211	10
287.236942	40
295.11377	16
296.125435	88
303.053295	13
311.291772	84
315.231857	140
318.132257	47
321.12942	10
329.101959	11
346.129199	806
347.133836	27
348.144849	39
362.124766	433
364.143096	24
374.160499	14
388.176801	184
389.184626	68
390.1918	70
394.099517	10
404.166534	30
406.187366	25
410.092403	31
412.108053	21
438.156066	11
454.153661	57
459.239067	23
487.212201	18
523.248586	28
538.2231	113
549.227851	12
566.2544	910
