Mass spectrum: CP-671305; ESI-QTOF; MS2; CE: 20; [M+H]+
Name: CP-671305
Name: DTXSID6047282
Formula: C23H19FN2O7
Exact mass: 454.117629177
SMILES: CC(OC1C=CC(CNC(=O)C2C=CC=NC=2OC2C=C3OCOC3=CC=2)=C(F)C=1)C(O)=O
InChI: InChI=1S/C23H19FN2O7/c1-13(23(28)29)32-15-5-4-14(18(24)9-15)11-26-21(27)17-3-2-8-25-22(17)33-16-6-7-19-20(10-16)31-12-30-19/h2-10,13H,11-12H2,1H3,(H,26,27)(H,28,29)
Instrument type: ESI-QTOF
Ms type: MS2
Ion mode: POSITIVE
Ionization: ESI
Collision energy: 20
Precursor m/z: 455.1249056287
Precursor type: [M+H]+
m/z	relative intensity
125.039719	414
197.060849	999
197.113198	29
197.13362	16
242.044784	782
242.103442	24
242.127251	12
259.071333	44
271.071333	61
455.124906	41
