Mass spectrum: 5-Amino-1,2-dihydro-3H-1,2,4-triazole-3-thione; ESI-QTOF; MS2; CE: 20; [M-H]-
Name: 5-Amino-1,2-dihydro-3H-1,2,4-triazole-3-thione
Name: DTXSID7044849
Formula: C2H4N4S
Exact mass: 116.0156668872
SMILES: NC1NNC(=S)N=1
InChI: InChI=1S/C2H4N4S/c3-1-4-2(7)6-5-1/h(H4,3,4,5,6,7)
Instrument type: ESI-QTOF
Ms type: MS2
Ion mode: NEGATIVE
Ionization: ESI
Collision energy: 20
Precursor m/z: 115.0083904355
Precursor type: [M-H]-
m/z	relative intensity
41.014522	50
57.975693	999
72.986592	87
83.03632	63
115.00839	80
