Mass spectrum: PharmaGSID_48505; ESI-QTOF; MS2; CE: 40; [M+H]+
Name: PharmaGSID_48505
Formula: C17H12ClN5O2
Exact mass: 353.0679523744
SMILES: CC1NN=C2NC3C=CC(=CC=3C(=NC2=1)C1=CC=CC=C1Cl)[N+]([O-])=O
InChI: InChI=1S/C17H12ClN5O2/c1-9-15-17(22-21-9)19-14-7-6-10(23(24)25)8-12(14)16(20-15)11-4-2-3-5-13(11)18/h2-8H,1H3,(H2,19,21,22)
Instrument type: ESI-QTOF
Ms type: MS2
Ion mode: POSITIVE
Ionization: ESI
Collision energy: 40
Precursor m/z: 354.0752288261
Precursor type: [M+H]+
m/z	relative intensity
42.033826	20
43.041651	12
44.049476	25
55.029075	16
142.05255	10
154.05255	16
155.047799	10
163.054227	13
167.058182	11
168.0682	19
169.063449	38
176.049476	19
177.057301	20
178.065126	31
179.072951	15
183.068353	26
184.074348	10
186.021249	12
190.062933	34
192.07003	11
195.066523	123
196.074348	164
198.023079	126
199.029075	19
202.065126	10
203.060375	39
204.07003	82
205.076025	331
212.026153	19
213.033491	107
214.041803	20
217.076025	27
218.092403	13
219.087652	25
221.071427	13
224.024324	10
225.033491	24
229.076025	40
230.071274	64
231.080441	17
232.086924	50
237.019572	19
238.035951	15
239.036565	301
240.043048	33
243.091675	45
244.095477	21
245.107325	73
246.102574	79
251.037052	18
253.052702	36
256.086924	74
257.090726	12
258.089998	46
260.105648	10
261.113473	90
263.035223	31
264.033644	33
265.050873	24
266.047951	52
271.097823	46
272.105648	176
273.113473	305
279.068353	105
280.063602	125
281.071427	18
282.079252	10
289.108387	11
290.047951	125
292.059579	26
293.05885	12
295.074501	13
306.066676	17
307.074501	999
308.082326	593
323.069415	16
354.075229	36
