Mass spectrum: 1,2,4-Benzenetricarboxylic acid; ESI-QTOF; MS2; CE: 10; [M+H]+
Name: 1,2,4-Benzenetricarboxylic acid
Name: DTXSID3021487
Formula: C9H6O6
Exact mass: 210.0164379252
SMILES: OC(=O)C1C=CC(=CC=1C(O)=O)C(O)=O
InChI: InChI=1S/C9H6O6/c10-7(11)4-1-2-5(8(12)13)6(3-4)9(14)15/h1-3H,(H,10,11)(H,12,13)(H,14,15)
Instrument type: ESI-QTOF
Ms type: MS2
Ion mode: POSITIVE
Ionization: ESI
Collision energy: 10
Precursor m/z: 211.0237143769
Precursor type: [M+H]+
m/z	relative intensity
165.018235	10
193.01315	999
