Mass spectrum: 3-[Bis(2-hydroxyethyl)amino]propanenitrile; ESI-QTOF; MS2; CE: 10; [M+H]+
Name: 3-[Bis(2-hydroxyethyl)amino]propanenitrile
Name: DTXSID5044603
Formula: C7H14N2O2
Exact mass: 158.105527706
SMILES: N#CCCN(CCO)CCO
InChI: InChI=1S/C7H14N2O2/c8-2-1-3-9(4-6-10)5-7-11/h10-11H,1,3-7H2
Instrument type: ESI-QTOF
Ms type: MS2
Ion mode: POSITIVE
Ionization: ESI
Collision energy: 10
Precursor m/z: 159.1128041577
Precursor type: [M+H]+
m/z	relative intensity
63.994366	24
65.99744	41
79.017841	999
79.054227	19
80.025666	14
81.020915	998
81.065854	13
118.086255	12
