Mass spectrum: Benzyloctyl adipate; ESI-QTOF; MS2; CE: 20; [M+H]+
Name: Benzyloctyl adipate
Name: DTXSID1047528
Formula: C21H32O4
Exact mass: 348.23005951
SMILES: CCCCC(COC(=O)CCCCC(=O)OCC1C=CC=CC=1)CC
InChI: InChI=1S/C21H32O4/c1-3-5-11-18(4-2)16-24-20(22)14-9-10-15-21(23)25-17-19-12-7-6-8-13-19/h6-8,12-13,18H,3-5,9-11,14-17H2,1-2H3
Instrument type: ESI-QTOF
Ms type: MS2
Ion mode: POSITIVE
Ionization: ESI
Collision energy: 20
Precursor m/z: 349.2373359617
Precursor type: [M+H]+
m/z	relative intensity
91.054227	999
101.059706	20
111.044056	22
129.054621	27
