Mass spectrum: 4-Sulfophthalic acid; ESI-QTOF; MS2; CE: 20; [M-H]-
Name: 4-Sulfophthalic acid
Formula: C8H6O7S
Exact mass: 245.9834232775
SMILES: OC(=O)C1=CC=C(C=C1C(O)=O)S(O)(=O)=O
InChI: InChI=1S/C8H6O7S/c9-7(10)5-2-1-4(16(13,14)15)3-6(5)8(11)12/h1-3H,(H,9,10)(H,11,12)(H,13,14,15)
Instrument type: ESI-QTOF
Ms type: MS2
Ion mode: NEGATIVE
Ionization: ESI
Collision energy: 20
Precursor m/z: 244.9761468258
Precursor type: [M-H]-
m/z	relative intensity
79.957363	326
80.965188	999
80.998203	24
81.019332	12
91.018938	23
93.034588	225
109.029503	24
119.013853	21
154.980838	26
156.996488	884
163.003682	67
182.975753	15
200.986318	279
226.965582	43
