Mass spectrum: 2,4-Dihydroxybenzaldehyde; ESI-QTOF; MS2; CE: 40; [M-H]-
Name: 2,4-Dihydroxybenzaldehyde
Formula: C7H6O3
Exact mass: 138.0316940583
SMILES: OC1=CC(O)=C(C=O)C=C1
InChI: InChI=1S/C7H6O3/c8-4-5-1-2-6(9)3-7(5)10/h1-4,9-10H
Instrument type: ESI-QTOF
Ms type: MS2
Ion mode: NEGATIVE
Ionization: ESI
Collision energy: 40
Precursor m/z: 137.0244176066
Precursor type: [M-H]-
m/z	relative intensity
37.008374	26
39.024024	53
41.003288	999
41.039674	13
43.018938	13
49.008374	89
51.024024	15
53.003288	17
63.024024	99
65.003288	761
65.039674	45
67.018938	85
75.024024	15
91.018938	177
92.998203	14
