Mass spectrum: Decyl beta-D-glucopyranoside; ESI-QTOF; MS2; CE: 10; [M-H]-
Name: Decyl beta-D-glucopyranoside
Name: DTXSID2041208
Formula: C16H32O6
Exact mass: 320.2198887546
SMILES: CCCCCCCCCCOC1OC(CO)C(O)C(O)C1O
InChI: InChI=1S/C16H32O6/c1-2-3-4-5-6-7-8-9-10-21-16-15(20)14(19)13(18)12(11-17)22-16/h12-20H,2-11H2,1H3
Instrument type: ESI-QTOF
Ms type: MS2
Ion mode: NEGATIVE
Ionization: ESI
Collision energy: 10
Precursor m/z: 319.2126123029
Precursor type: [M-H]-
m/z	relative intensity
43.018938	228
44.998203	102
55.018938	34
57.034588	43
59.013853	383
71.013853	538
73.029503	309
83.013853	93
85.029503	249
87.008768	33
89.024418	92
95.013853	12
97.029503	19
99.008768	100
101.003288	15
101.024418	999
101.060803	14
113.024418	446
119.034982	10
125.024418	13
129.019332	34
143.034982	40
159.029897	120
161.045547	268
319.212612	749
