Mass spectrum: CI-959; ESI-QTOF; MS2; CE: 40; [M+H]+
Name: CI-959
Formula: C14H15N5O3S
Exact mass: 333.0895601124
SMILES: COC1=CC2C(OC(C)C)=C(SC=2C=C1)C(=O)NC1NN=NN=1
InChI: InChI=1S/C14H15N5O3S/c1-7(2)22-11-9-6-8(21-3)4-5-10(9)23-12(11)13(20)15-14-16-18-19-17-14/h4-7H,1-3H3,(H2,15,16,17,18,19,20)
Instrument type: ESI-QTOF
Ms type: MS2
Ion mode: POSITIVE
Ionization: ESI
Collision energy: 40
Precursor m/z: 334.0968365641
Precursor type: [M+H]+
m/z	relative intensity
41.038577	10
43.029075	15
43.054227	18
58.039974	25
69.008339	20
77.038577	27
79.054227	10
86.046122	595
95.049141	32
107.049141	49
108.002822	21
112.025386	130
119.047799	18
120.056966	15
123.997737	25
129.069877	11
135.044056	254
135.997737	101
139.021212	999
139.064808	14
147.997737	17
151.021212	491
153.036862	13
163.021212	39
163.992652	23
165.036862	10
166.008302	23
178.044687	34
179.016127	386
181.030434	16
191.987566	85
207.011041	575
