Mass spectrum: 4-Hydroxy-3-methoxypyridine; ESI-QTOF; MS2; CE: 40; [M+H]+
Name: 4-Hydroxy-3-methoxypyridine
Name: DTXSID80198757
Formula: C6H7NO2
Exact mass: 125.0476784753
SMILES: COC1C=NC=CC=1O
InChI: InChI=1S/C6H7NO2/c1-9-6-4-7-3-2-5(6)8/h2-4H,1H3,(H,7,8)
Instrument type: ESI-QTOF
Ms type: MS2
Ion mode: POSITIVE
Ionization: ESI
Collision energy: 40
Precursor m/z: 126.054954927
Precursor type: [M+H]+
m/z	relative intensity
39.022927	59
41.026001	13
42.010016	30
53.002191	33
54.010016	13
54.033826	418
54.054955	15
55.017841	125
55.041651	58
56.025666	23
57.020915	17
59.036565	13
66.033826	306
67.017841	23
82.02874	35
83.036565	687
94.02874	999
94.065126	18
111.03148	159
