Mass spectrum: 4-(4-Hydroxyphenyl)butan-2-one; ESI-QTOF; MS2; CE: 20; [M-H]-
Name: 4-(4-Hydroxyphenyl)butan-2-one
Name: DTXSID5044495
Formula: C10H12O2
Exact mass: 164.0837296274
SMILES: CC(=O)CCC1C=CC(O)=CC=1
InChI: InChI=1S/C10H12O2/c1-8(11)2-3-9-4-6-10(12)7-5-9/h4-7,12H,2-3H2,1H3
Instrument type: ESI-QTOF
Ms type: MS2
Ion mode: NEGATIVE
Ionization: ESI
Collision energy: 20
Precursor m/z: 163.0764531757
Precursor type: [M-H]-
m/z	relative intensity
41.003288	68
57.034588	999
57.070974	10
91.018938	19
