Mass spectrum: C.I. Disperse Blue 27; ESI-QTOF; MS2; CE: 20; [M+H]+
Name: C.I. Disperse Blue 27
Name: DTXSID3025209
Formula: C22H16N2O7
Exact mass: 420.0957508813
SMILES: [O-][N+](=O)C1C=CC(O)=C2C=1C(=O)C1=C(C2=O)C(O)=CC=C1NC1C=CC(CCO)=CC=1
InChI: InChI=1S/C22H16N2O7/c25-10-9-11-1-3-12(4-2-11)23-13-5-7-15(26)19-17(13)21(28)18-14(24(30)31)6-8-16(27)20(18)22(19)29/h1-8,23,25-27H,9-10H2
Instrument type: ESI-QTOF
Ms type: MS2
Ion mode: POSITIVE
Ionization: ESI
Collision energy: 20
Precursor m/z: 421.103027333
Precursor type: [M+H]+
m/z	relative intensity
106.02874	37
106.065126	33
118.065126	16
134.023655	17
178.013484	26
206.042104	10
224.070605	13
226.086255	216
244.09682	59
252.06552	81
264.06552	10
270.076084	78
284.018963	14
312.06552	18
313.097154	14
329.092069	16
331.107719	12
339.086315	20
340.084244	16
341.092069	26
343.083909	28
344.089054	12
356.091734	17
357.096879	65
359.102633	62
367.071333	13
368.079158	84
373.081898	34
375.097548	18
377.113198	12
385.081898	88
386.089723	40
403.092463	999
404.100288	45
421.103027	214
