Mass spectrum: 2-Chlorobenzamide; ESI-QTOF; MS2; CE: 10; [M+H]+
Name: 2-Chlorobenzamide
Name: DTXSID3052278
Formula: C7H6ClNO
Exact mass: 155.0137915311
SMILES: NC(=O)C1=CC=CC=C1Cl
InChI: InChI=1S/C7H6ClNO/c8-6-4-2-1-3-5(6)7(9)10/h1-4H,(H2,9,10)
Instrument type: ESI-QTOF
Ms type: MS2
Ion mode: POSITIVE
Ionization: ESI
Collision energy: 10
Precursor m/z: 156.0210679828
Precursor type: [M+H]+
m/z	relative intensity
41.038577	11
63.994853	45
79.018328	999
79.054227	19
110.999604	16
138.994519	113
156.021068	251
