Mass spectrum: N-(3,4-Dichlorophenyl)-N'-methylurea; ESI-QTOF; MS2; CE: 20; [M+H]+
Name: N-(3,4-Dichlorophenyl)-N'-methylurea
Name: DTXSID3042180
Formula: C8H8Cl2N2O
Exact mass: 218.0013683123
SMILES: CNC(=O)NC1=CC(Cl)=C(Cl)C=C1
InChI: InChI=1S/C8H8Cl2N2O/c1-11-8(13)12-5-2-3-6(9)7(10)4-5/h2-4H,1H3,(H2,11,12,13)
Instrument type: ESI-QTOF
Ms type: MS2
Ion mode: POSITIVE
Ionization: ESI
Collision energy: 20
Precursor m/z: 219.008644764
Precursor type: [M+H]+
m/z	relative intensity
61.007276	164
79.018328	17
83.000667	22
92.997593	14
98.974452	221
99.982277	54
101.002191	11
102.969367	10
117.020915	17
120.983954	21
122.987028	221
125.974118	33
127.018328	13
140.997593	999
161.987181	10
176.986847	11
200.99808	28
219.008645	33
