Mass spectrum: Diethylamine; ESI-QTOF; MS2; CE: 40; [M+H]+
Name: Diethylamine
Name: DTXSID9044320
Formula: C4H11N
Exact mass: 73.0891493583
SMILES: CCNCC
InChI: InChI=1S/C4H11N/c1-3-5-4-2/h5H,3-4H2,1-2H3
Instrument type: ESI-QTOF
Ms type: MS2
Ion mode: POSITIVE
Ionization: ESI
Collision energy: 40
Precursor m/z: 74.09642581
Precursor type: [M+H]+
m/z	relative intensity
27.022927	421
29.038577	200
30.033826	85
30.046402	10
42.033826	87
44.049476	999
44.062052	85
