Mass spectrum: N,N-Dicyclohexyl-2-benzothiazolesulfenamide; ESI-QTOF; MS2; CE: 10; [M+H]+
Name: N,N-Dicyclohexyl-2-benzothiazolesulfenamide
Name: DTXSID3027584
Formula: C19H26N2S2
Exact mass: 346.1537403042
SMILES: C1CCCCC1N(SC1=NC2C=CC=CC=2S1)C1CCCCC1
InChI: InChI=1S/C19H26N2S2/c1-3-9-15(10-4-1)21(16-11-5-2-6-12-16)23-19-20-17-13-7-8-14-18(17)22-19/h7-8,13-16H,1-6,9-12H2
Instrument type: ESI-QTOF
Ms type: MS2
Ion mode: POSITIVE
Ionization: ESI
Collision energy: 10
Precursor m/z: 347.1610167559
Precursor type: [M+H]+
m/z	relative intensity
138.127726	30
180.174676	231
181.182501	127
183.004516	10
265.082766	128
347.161017	999
