Mass spectrum: 1-(o-Tolyl)biguanide; ESI-QTOF; MS2; CE: 40; [M+H]+
Name: 1-(o-Tolyl)biguanide
Formula: C9H13N5
Exact mass: 191.1170954517
SMILES: CC1C=CC=CC=1NC(=N)NC(N)=N
InChI: InChI=1S/C9H13N5/c1-6-4-2-3-5-7(6)13-9(12)14-8(10)11/h2-5H,1H3,(H6,10,11,12,13,14)
Instrument type: ESI-QTOF
Ms type: MS2
Ion mode: POSITIVE
Ionization: ESI
Collision energy: 40
Precursor m/z: 192.1243719034
Precursor type: [M+H]+
m/z	relative intensity
43.029075	765
43.054227	37
60.055624	999
60.080776	46
60.093352	24
65.038577	173
68.024324	39
77.038577	60
79.054227	89
85.050873	14
89.038577	105
91.054227	582
91.110399	15
93.057301	89
104.049476	17
106.065126	386
106.108722	13
108.080776	41
116.049476	247
117.057301	16
118.05255	35
131.060375	17
132.0682	35
133.076025	55
