Mass spectrum: 2-(1-Methylbutyl)phenol; ESI-QTOF; MS2; CE: 20; [M-H]-
Name: 2-(1-Methylbutyl)phenol
Formula: C11H16O
Exact mass: 164.1201151327
SMILES: CCCC(C)C1C=CC=CC=1O
InChI: InChI=1S/C11H16O/c1-3-6-9(2)10-7-4-5-8-11(10)12/h4-5,7-9,12H,3,6H2,1-2H3
Instrument type: ESI-QTOF
Ms type: MS2
Ion mode: NEGATIVE
Ionization: ESI
Collision energy: 20
Precursor m/z: 163.112838681
Precursor type: [M-H]-
m/z	relative intensity
66.011113	10
91.018938	73
93.034588	15
119.050238	393
120.058063	58
121.065888	15
133.065888	27
134.073714	33
163.112839	999
