Mass spectrum: 4-Hydroxybenzonitrile; ESI-QTOF; MS2; CE: 40; [M-H]-
Name: 4-Hydroxybenzonitrile
Name: DTXSID9052509
Formula: C7H5NO
Exact mass: 119.0371137892
SMILES: N#CC1C=CC(O)=CC=1
InChI: InChI=1S/C7H5NO/c8-5-6-1-3-7(9)4-2-6/h1-4,9H
Instrument type: ESI-QTOF
Ms type: MS2
Ion mode: NEGATIVE
Ionization: ESI
Collision energy: 40
Precursor m/z: 118.0298373375
Precursor type: [M-H]-
m/z	relative intensity
39.024024	47
40.019273	30
41.003288	163
49.008374	28
50.003623	999
63.011448	52
63.024024	17
64.019273	180
65.003288	27
65.998537	11
67.018938	29
74.003623	12
88.019273	132
89.027098	184
90.034923	524
92.014187	44
118.029837	126
