Mass spectrum: 4-(Methylnitrosamino)-1-(3-pyridyl)-1-butanol; ESI-QTOF; MS2; CE: 20; [M+H]+
Name: 4-(Methylnitrosamino)-1-(3-pyridyl)-1-butanol
Name: DTXSID8020880
Formula: C10H15N3O2
Exact mass: 209.1164267453
SMILES: CN(CCCC(O)C1C=NC=CC=1)N=O
InChI: InChI=1S/C10H15N3O2/c1-13(12-15)7-3-5-10(14)9-4-2-6-11-8-9/h2,4,6,8,10,14H,3,5,7H2,1H3
Instrument type: ESI-QTOF
Ms type: MS2
Ion mode: POSITIVE
Ionization: ESI
Collision energy: 20
Precursor m/z: 210.123703197
Precursor type: [M+H]+
m/z	relative intensity
44.049476	41
79.041651	55
80.049476	123
84.080776	117
93.057301	999
93.091006	32
93.114816	17
106.065126	96
108.04439	42
109.052215	148
109.076025	17
119.072951	10
120.080776	50
121.052215	271
121.088601	38
122.06004	118
123.067865	86
130.065126	16
132.080776	28
136.07569	20
148.07569	52
149.083515	95
161.107325	17
180.125715	11
