Mass spectrum: SU-5416; ESI-QTOF; MS2; CE: 10; [M-H]-
Name: SU-5416
Name: DTXSID1041132
Formula: C15H14N2O
Exact mass: 238.1106130837
SMILES: CC1C=C(C)NC=1/C=C1\C(=O)NC2=CC=CC=C2\1
InChI: InChI=1S/C15H14N2O/c1-9-7-10(2)16-14(9)8-12-11-5-3-4-6-13(11)17-15(12)18/h3-8,16H,1-2H3,(H,17,18)/b12-8-
Instrument type: ESI-QTOF
Ms type: MS2
Ion mode: NEGATIVE
Ionization: ESI
Collision energy: 10
Precursor m/z: 237.103336632
Precursor type: [M-H]-
m/z	relative intensity
41.998537	40
237.103337	999
