Mass spectrum: Ascorbyl palmitate; ESI-QTOF; MS2; CE: 40; [M+H]+
Name: Ascorbyl palmitate
Name: DTXSID3041611
Formula: C22H38O7
Exact mass: 414.2617535683
SMILES: CCCCCCCCCCCCCCCC(=O)OCC(O)C1OC(=O)C(=O)C1O
InChI: InChI=1S/C22H38O7/c1-2-3-4-5-6-7-8-9-10-11-12-13-14-15-18(24)28-16-17(23)21-19(25)20(26)22(27)29-21/h17,19,21,23,25H,2-16H2,1H3
Instrument type: ESI-QTOF
Ms type: MS2
Ion mode: POSITIVE
Ionization: ESI
Collision energy: 40
Precursor m/z: 415.26903002
Precursor type: [M+H]+
m/z	relative intensity
57.033491	13
69.033491	29
77.038577	11
83.049141	10
85.028406	11
91.054227	108
103.054227	13
104.062052	12
105.069877	13
107.085527	108
117.069877	23
119.085527	999
133.064791	14
135.080441	39
