Mass spectrum: Candoxatril; ESI-QTOF; MS2; CE: 10; [M+H]+
Name: Candoxatril
Formula: C29H41NO7
Exact mass: 515.2883026714
SMILES: COCCOCC(CC1(CCCC1)C(=O)NC1CCC(CC1)C(O)=O)C(=O)OC1=CC2CCCC=2C=C1
InChI: InChI=1S/C29H41NO7/c1-35-15-16-36-19-23(27(33)37-25-12-9-20-5-4-6-22(20)17-25)18-29(13-2-3-14-29)28(34)30-24-10-7-21(8-11-24)26(31)32/h9,12,17,21,23-24H,2-8,10-11,13-16,18-19H2,1H3,(H,30,34)(H,31,32)
Instrument type: ESI-QTOF
Ms type: MS2
Ion mode: POSITIVE
Ionization: ESI
Collision energy: 10
Precursor m/z: 516.2955791231
Precursor type: [M+H]+
m/z	relative intensity
239.127786	13
288.15674	11
306.167305	308
364.211849	19
373.20095	23
382.222414	999
382.295185	26
382.323017	10
440.24315	33
516.295579	374
