Mass spectrum: Ascorbyl palmitate; ESI-QTOF; MS2; CE: 20; [M+H]+
Name: Ascorbyl palmitate
Name: DTXSID3041611
Formula: C22H38O7
Exact mass: 414.2617535683
SMILES: CCCCCCCCCCCCCCCC(=O)OCC(O)C1OC(=O)C(=O)C1O
InChI: InChI=1S/C22H38O7/c1-2-3-4-5-6-7-8-9-10-11-12-13-14-15-18(24)28-16-17(23)21-19(25)20(26)22(27)29-21/h17,19,21,23,25H,2-16H2,1H3
Instrument type: ESI-QTOF
Ms type: MS2
Ion mode: POSITIVE
Ionization: ESI
Collision energy: 20
Precursor m/z: 415.26903002
Precursor type: [M+H]+
m/z	relative intensity
69.033491	20
91.054227	13
107.085527	16
119.085527	999
129.054621	13
133.064791	11
135.080441	112
