Mass spectrum: 4-(2-Hydroxyethyl)-1-piperazineethanesulfonic acid; ESI-QTOF; MS2; CE: 10; [M-H]-
Name: 4-(2-Hydroxyethyl)-1-piperazineethanesulfonic acid
Name: DTXSID4044458
Formula: C8H18N2O4S
Exact mass: 238.0987278082
SMILES: [O-]S(=O)(=O)CCN1CC[NH+](CCO)CC1
InChI: InChI=1S/C8H18N2O4S/c11-7-5-9-1-3-10(4-2-9)6-8-15(12,13)14/h11H,1-8H2,(H,12,13,14)
Instrument type: ESI-QTOF
Ms type: MS2
Ion mode: NEGATIVE
Ionization: ESI
Collision energy: 10
Precursor m/z: 237.0914513565
Precursor type: [M-H]-
m/z	relative intensity
79.957363	49
237.091451	999
