Mass spectrum: PharmaGSID_48511; ESI-QTOF; MS2; CE: 20; [M-H]-
Name: PharmaGSID_48511
Formula: C27H35F2N7O3
Exact mass: 543.2769444352
SMILES: CN1CCC(CC1)NC(=O)C1C=CC(NC2=NC3=C(C=N2)N(C)C(=O)C(F)(F)CN3C2CCCC2)=C(C=1)OC
InChI: InChI=1S/C27H35F2N7O3/c1-34-12-10-18(11-13-34)31-24(37)17-8-9-20(22(14-17)39-3)32-26-30-15-21-23(33-26)36(19-6-4-5-7-19)16-27(28,29)25(38)35(21)2/h8-9,14-15,18-19H,4-7,10-13,16H2,1-3H3,(H,31,37)(H,30,32,33)
Instrument type: ESI-QTOF
Ms type: MS2
Ion mode: NEGATIVE
Ionization: ESI
Collision energy: 20
Precursor m/z: 542.2696679835
Precursor type: [M-H]-
m/z	relative intensity
522.26344	11
527.246193	27
542.269668	999
