Mass spectrum: 4-Methyl-2-nitroaniline; ESI-QTOF; MS2; CE: 20; [M-H]-
Name: 4-Methyl-2-nitroaniline
Formula: C7H8N2O2
Exact mass: 152.0585775146
SMILES: CC1=CC(=C(N)C=C1)[N+]([O-])=O
InChI: InChI=1S/C7H8N2O2/c1-5-2-3-6(8)7(4-5)9(10)11/h2-4H,8H2,1H3
Instrument type: ESI-QTOF
Ms type: MS2
Ion mode: NEGATIVE
Ionization: ESI
Collision energy: 20
Precursor m/z: 151.0513010629
Precursor type: [M-H]-
m/z	relative intensity
41.998537	19
45.993452	999
46.017261	19
68.998203	15
78.034923	14
80.001611	12
92.026763	40
103.042748	31
104.050573	46
107.996526	16
108.021678	11
109.004351	118
120.045487	21
121.029503	10
121.053312	106
151.051301	119
