Mass spectrum: Cariporide mesylate; ESI-QTOF; MS2; CE: 40; [M+H]+
Name: Cariporide mesylate
Name: DTXSID3047344
Formula: C12H17N3O3S
Exact mass: 283.0990621614
SMILES: CS(=O)(=O)C1=CC(=CC=C1C(C)C)C(=O)N=C(N)N
InChI: InChI=1S/C12H17N3O3S/c1-7(2)9-5-4-8(11(16)15-12(13)14)6-10(9)19(3,17)18/h4-7H,1-3H3,(H4,13,14,15,16)
Instrument type: ESI-QTOF
Ms type: MS2
Ion mode: POSITIVE
Ionization: ESI
Collision energy: 40
Precursor m/z: 284.1063386131
Precursor type: [M+H]+
m/z	relative intensity
41.038577	10
43.017841	13
45.033491	10
55.017841	10
61.039639	33
65.038577	27
77.038577	96
78.046402	38
78.984826	15
79.054227	106
89.038577	17
90.046402	175
91.054227	824
91.08996	15
92.062052	15
93.069877	38
102.046402	34
103.054227	229
104.062052	10
105.069877	254
106.041316	22
106.077702	121
107.049141	22
107.085527	54
109.010647	11
115.054227	999
115.099165	17
115.111742	10
116.062052	114
117.069877	834
117.114816	14
118.077702	214
119.049141	180
119.081504	14
121.064791	27
122.072616	15
125.041947	10
130.065126	14
131.049141	981
131.088898	15
133.064791	184
134.071274	117
135.026297	85
135.080441	32
136.034122	144
137.041947	42
145.064791	120
146.072616	42
146.093746	11
152.065423	25
155.016127	11
157.030434	12
161.059706	11
163.019869	10
163.075356	66
164.029037	121
165.036862	101
182.038259	184
183.011041	70
197.063077	15
225.056649	691
225.110793	11
