Mass spectrum: 6-Phenyl-1,3,5-triazine-2,4-diamine; ESI-QTOF; MS2; CE: 20; [M+H]+
Name: 6-Phenyl-1,3,5-triazine-2,4-diamine
Formula: C9H9N5
Exact mass: 187.0857953241
SMILES: NC1=NC(=NC(N)=N1)C1C=CC=CC=1
InChI: InChI=1S/C9H9N5/c10-8-12-7(13-9(11)14-8)6-4-2-1-3-5-6/h1-5H,(H4,10,11,12,13,14)
Instrument type: ESI-QTOF
Ms type: MS2
Ion mode: POSITIVE
Ionization: ESI
Collision energy: 20
Precursor m/z: 188.0930717758
Precursor type: [M+H]+
m/z	relative intensity
43.029075	363
43.054227	10
68.024324	50
85.050873	409
104.049476	508
104.093072	15
121.076025	35
146.071274	87
188.093072	999
