Mass spectrum: PHA-00543613; ESI-QTOF; MS2; CE: 20; [M+H]+
Name: PHA-00543613
Name: DTXSID6047284
Formula: C15H17N3O2
Exact mass: 271.1320768091
SMILES: O=C(NC1CN2CCC1CC2)C1C=C2C=COC2=CN=1
InChI: InChI=1S/C15H17N3O2/c19-15(12-7-11-3-6-20-14(11)8-16-12)17-13-9-18-4-1-10(13)2-5-18/h3,6-8,10,13H,1-2,4-5,9H2,(H,17,19)
Instrument type: ESI-QTOF
Ms type: MS2
Ion mode: POSITIVE
Ionization: ESI
Collision energy: 20
Precursor m/z: 272.1393532608
Precursor type: [M+H]+
m/z	relative intensity
81.069877	12
82.065126	16
110.096426	189
118.02874	14
128.10699	36
146.023655	22
163.050204	15
199.086589	10
254.128789	50
272.139353	999
