Mass spectrum: 2-[2-(Hexyloxy)ethoxy]ethanol; ESI-QTOF; MS2; CE: 40; [M+H]+
Name: 2-[2-(Hexyloxy)ethoxy]ethanol
Formula: C10H22O3
Exact mass: 190.1568945687
SMILES: CCCCCCOCCOCCO
InChI: InChI=1S/C10H22O3/c1-2-3-4-5-7-12-9-10-13-8-6-11/h11H,2-10H2,1H3
Instrument type: ESI-QTOF
Ms type: MS2
Ion mode: POSITIVE
Ionization: ESI
Collision energy: 40
Precursor m/z: 191.1641710204
Precursor type: [M+H]+
m/z	relative intensity
27.022927	11
29.002191	11
39.022927	14
41.038577	402
43.054227	597
43.075356	11
45.033491	999
45.069877	12
57.069877	24
