Mass spectrum: Pantothenic acid; ESI-QTOF; MS2; CE: 40; [M+H]+
Name: Pantothenic acid
Formula: C9H17NO5
Exact mass: 219.1106726612
SMILES: CC(C)(CO)C(O)C(=O)NCCC(O)=O
InChI: InChI=1S/C9H17NO5/c1-9(2,5-11)7(14)8(15)10-4-3-6(12)13/h7,11,14H,3-5H2,1-2H3,(H,10,15)(H,12,13)
Instrument type: ESI-QTOF
Ms type: MS2
Ion mode: POSITIVE
Ionization: ESI
Collision energy: 40
Precursor m/z: 220.1179491129
Precursor type: [M+H]+
m/z	relative intensity
29.038577	18
30.033826	217
31.017841	13
39.022927	31
41.038577	816
41.059706	17
42.033826	283
43.017841	999
43.041651	20
43.054227	39
44.997106	18
45.033491	204
47.012756	18
53.038577	22
54.033826	12
55.017841	185
55.054227	231
56.01309	472
57.033491	34
57.069877	403
59.049141	134
61.028406	32
65.038577	65
67.054227	593
69.069877	60
69.992355	18
70.02874	970
70.062446	26
70.077702	13
72.04439	185
73.028406	61
74.023655	36
77.038577	13
79.054227	62
80.049476	16
81.057301	51
81.069877	34
82.065126	18
83.049141	60
85.064791	76
90.054955	76
94.062446	12
95.049141	129
96.080776	73
98.023655	99
124.07569	62
