Mass spectrum: 3-Phenoxybenzoic acid; ESI-QTOF; MS2; CE: 20; [M-H]-
Name: 3-Phenoxybenzoic acid
Name: DTXSID1038321
Formula: C13H10O3
Exact mass: 214.0629941859
SMILES: OC(=O)C1=CC(=CC=C1)OC1C=CC=CC=1
InChI: InChI=1S/C13H10O3/c14-13(15)10-5-4-8-12(9-10)16-11-6-2-1-3-7-11/h1-9H,(H,14,15)
Instrument type: ESI-QTOF
Ms type: MS2
Ion mode: NEGATIVE
Ionization: ESI
Collision energy: 20
Precursor m/z: 213.0557177342
Precursor type: [M-H]-
m/z	relative intensity
93.034588	999
93.070974	28
169.065888	27
