Mass spectrum: Ethyl 5-oxo-1-phenyl-4,5-dihydro-1H-pyrazole-3-carboxylate; ESI-QTOF; MS2; CE: 40; [M+H]+
Name: Ethyl 5-oxo-1-phenyl-4,5-dihydro-1H-pyrazole-3-carboxylate
Formula: C12H12N2O3
Exact mass: 232.0847922645
SMILES: CCOC(=O)C1CC(=O)N(N=1)C1C=CC=CC=1
InChI: InChI=1S/C12H12N2O3/c1-2-17-12(16)10-8-11(15)14(13-10)9-6-4-3-5-7-9/h3-7H,2,8H2,1H3
Instrument type: ESI-QTOF
Ms type: MS2
Ion mode: POSITIVE
Ionization: ESI
Collision energy: 40
Precursor m/z: 233.0920687162
Precursor type: [M+H]+
m/z	relative intensity
39.022927	31
40.018175	12
51.022927	20
53.002191	27
53.013424	14
65.038577	999
65.070939	22
65.083515	12
66.033826	18
68.01309	192
77.038577	386
78.033826	45
79.054227	17
89.038577	72
90.033826	13
92.049476	793
92.083181	15
93.057301	46
104.049476	284
116.049476	172
117.057301	36
131.060375	58
132.04439	311
187.050204	260
