Mass spectrum: 5-Methyl-2-(4-methylphenyl)-2,4-dihydro-3H-pyrazol-3-one; ESI-QTOF; MS2; CE: 40; [M+H]+
Name: 5-Methyl-2-(4-methylphenyl)-2,4-dihydro-3H-pyrazol-3-one
Formula: C11H12N2O
Exact mass: 188.0949630199
SMILES: CC1CC(=O)N(N=1)C1C=CC(C)=CC=1
InChI: InChI=1S/C11H12N2O/c1-8-3-5-10(6-4-8)13-11(14)7-9(2)12-13/h3-6H,7H2,1-2H3
Instrument type: ESI-QTOF
Ms type: MS2
Ion mode: POSITIVE
Ionization: ESI
Collision energy: 40
Precursor m/z: 189.1022394716
Precursor type: [M+H]+
m/z	relative intensity
39.022927	90
41.038577	31
42.033826	195
43.017841	10
44.049476	486
51.022927	90
53.038577	37
54.033826	137
56.049476	12
65.038577	155
67.029075	13
77.038577	999
77.070939	24
77.083515	16
78.046402	27
79.054227	342
80.049476	11
82.02874	13
82.05255	12
84.04439	95
91.054227	521
91.086589	10
92.062052	24
93.057301	16
93.069877	29
94.065126	41
102.046402	18
103.054227	31
104.049476	120
105.057301	36
106.05255	10
106.065126	129
107.049141	19
107.072951	11
115.054227	64
117.057301	34
117.069877	27
118.065126	49
119.072951	13
120.080776	52
121.076025	18
127.054227	14
128.049476	17
128.062052	12
129.057301	32
130.065126	78
131.060375	36
131.072951	24
132.04439	15
132.0682	21
132.080776	17
133.052215	43
134.047464	19
142.065126	18
143.072951	55
144.080776	45
145.076025	211
146.08385	66
147.091675	31
159.091675	16
