Mass spectrum: 4-Chlorophenylurea; ESI-QTOF; MS2; CE: 40; [M+H]+
Name: 4-Chlorophenylurea
Name: DTXSID5041512
Formula: C7H7ClN2O
Exact mass: 170.0246905704
SMILES: NC(=O)NC1C=CC(Cl)=CC=1
InChI: InChI=1S/C7H7ClN2O/c8-5-1-3-6(4-2-5)10-7(9)11/h1-4H,(H3,9,10,11)
Instrument type: ESI-QTOF
Ms type: MS2
Ion mode: POSITIVE
Ionization: ESI
Collision energy: 40
Precursor m/z: 171.0319670221
Precursor type: [M+H]+
m/z	relative intensity
44.01309	36
65.038577	34
66.046402	146
72.983954	15
75.022927	82
92.049476	50
93.057301	999
98.999604	95
110.999604	48
126.010503	26
