Mass spectrum: GW473178E methyl benzene sulphonic acid; ESI-QTOF; MS2; CE: 10; [M-H]-
Name: GW473178E methyl benzene sulphonic acid
Name: DTXSID6047313
Formula: C21H29N3O2
Exact mass: 355.2259771919
SMILES: CC1C=C(C=C(C=1)OCC(C)NC1C=CN=CC=1)C(=O)N(CC)C(C)C
InChI: InChI=1S/C21H29N3O2/c1-6-24(15(2)3)21(25)18-11-16(4)12-20(13-18)26-14-17(5)23-19-7-9-22-10-8-19/h7-13,15,17H,6,14H2,1-5H3,(H,22,23)
Instrument type: ESI-QTOF
Ms type: MS2
Ion mode: NEGATIVE
Ionization: ESI
Collision energy: 10
Precursor m/z: 354.2187007402
Precursor type: [M-H]-
m/z	relative intensity
94.029837	20
220.134302	999
220.194497	15
