Mass spectrum: 7-Diethylamino-4-methylcoumarin; ESI-QTOF; MS2; CE: 10; [M+H]+
Name: 7-Diethylamino-4-methylcoumarin
Formula: C14H17NO2
Exact mass: 231.1259287943
SMILES: CC1=CC(=O)OC2=CC(=CC=C12)N(CC)CC
InChI: InChI=1S/C14H17NO2/c1-4-15(5-2)11-6-7-12-10(3)8-14(16)17-13(12)9-11/h6-9H,4-5H2,1-3H3
Instrument type: ESI-QTOF
Ms type: MS2
Ion mode: POSITIVE
Ionization: ESI
Collision energy: 10
Precursor m/z: 232.133205246
Precursor type: [M+H]+
m/z	relative intensity
188.070605	15
203.09408	41
204.101905	22
232.133205	999
