Mass spectrum: 2-(Pyridin-2-yl)ethanol; ESI-QTOF; MS2; CE: 20; [M+H]+
Name: 2-(Pyridin-2-yl)ethanol
Formula: C7H9NO
Exact mass: 123.0684139168
SMILES: OCCC1C=CC=CN=1
InChI: InChI=1S/C7H9NO/c9-6-4-7-3-1-2-5-8-7/h1-3,5,9H,4,6H2
Instrument type: ESI-QTOF
Ms type: MS2
Ion mode: POSITIVE
Ionization: ESI
Collision energy: 20
Precursor m/z: 124.0756903685
Precursor type: [M+H]+
m/z	relative intensity
51.022927	21
53.038577	12
63.994366	12
77.038577	30
78.033826	413
79.017841	25
79.041651	22
79.054227	37
80.049476	11
93.057301	96
106.065126	999
107.072951	79
121.052215	14
124.07569	49
