Mass spectrum: 3-(3-Pyridyl)-1-propanol; ESI-QTOF; MS2; CE: 10; [M+H]+
Name: 3-(3-Pyridyl)-1-propanol
Name: DTXSID5022198
Formula: C8H11NO
Exact mass: 137.0840639806
SMILES: OCCCC1=CN=CC=C1
InChI: InChI=1S/C8H11NO/c10-6-2-4-8-3-1-5-9-7-8/h1,3,5,7,10H,2,4,6H2
Instrument type: ESI-QTOF
Ms type: MS2
Ion mode: POSITIVE
Ionization: ESI
Collision energy: 10
Precursor m/z: 138.0913404323
Precursor type: [M+H]+
m/z	relative intensity
92.049476	92
93.057301	35
94.065126	84
120.080776	21
138.09134	999
