Mass spectrum: Ethyl phthalyl ethyl glycolate; ESI-QTOF; MS2; CE: 40; [M+H]+
Name: Ethyl phthalyl ethyl glycolate
Formula: C14H16O6
Exact mass: 280.0946882442
SMILES: CCOC(=O)COC(=O)C1=CC=CC=C1C(=O)OCC
InChI: InChI=1S/C14H16O6/c1-3-18-12(15)9-20-14(17)11-8-6-5-7-10(11)13(16)19-4-2/h5-8H,3-4,9H2,1-2H3
Instrument type: ESI-QTOF
Ms type: MS2
Ion mode: POSITIVE
Ionization: ESI
Collision energy: 40
Precursor m/z: 281.1019646959
Precursor type: [M+H]+
m/z	relative intensity
31.017841	16
39.022927	21
41.038577	45
43.017841	20
43.054227	45
45.033491	36
59.012756	348
65.038577	294
91.054227	19
93.033491	380
107.085527	13
121.028406	468
149.02332	999
