Mass spectrum: Butyryl trihexyl citrate; ESI-QTOF; MS2; CE: 10; [M+H]+
Name: Butyryl trihexyl citrate
Formula: C28H50O8
Exact mass: 514.3505685734
SMILES: CCCC(=O)OC(CC(=O)OCCCCCC)(CC(=O)OCCCCCC)C(=O)OCCCCCC
InChI: InChI=1S/C28H50O8/c1-5-9-12-15-19-33-25(30)22-28(36-24(29)18-8-4,27(32)35-21-17-14-11-7-3)23-26(31)34-20-16-13-10-6-2/h5-23H2,1-4H3
Instrument type: ESI-QTOF
Ms type: MS2
Ion mode: POSITIVE
Ionization: ESI
Collision energy: 10
Precursor m/z: 515.3578450251
Precursor type: [M+H]+
m/z	relative intensity
43.054227	83
71.049141	615
71.085527	10
85.101177	219
89.059706	74
129.018235	125
139.002585	75
157.01315	541
213.112135	430
231.1227	11
241.10705	536
245.065579	572
246.067531	12
259.117615	11
297.206036	10
315.216601	833
315.289372	13
316.218552	11
325.20095	146
329.15948	850
329.226377	13
330.161431	11
343.211515	11
385.258465	12
413.25338	999
413.326151	14
414.261205	13
445.31598	321
515.357845	148
