Mass spectrum: 1-(Hydroxymethyl)-5,5-dimethylhydantoin; ESI-QTOF; MS2; CE: 20; [M+H]+
Name: 1-(Hydroxymethyl)-5,5-dimethylhydantoin
Formula: C6H10N2O3
Exact mass: 158.0691422007
SMILES: CC1(C)C(=O)NC(=O)N1CO
InChI: InChI=1S/C6H10N2O3/c1-6(2)4(10)7-5(11)8(6)3-9/h9H,3H2,1-2H3,(H,7,10,11)
Instrument type: ESI-QTOF
Ms type: MS2
Ion mode: POSITIVE
Ionization: ESI
Collision energy: 20
Precursor m/z: 159.0764186524
Precursor type: [M+H]+
m/z	relative intensity
47.00018	15
48.99202	12
61.007276	67
62.015101	15
63.00767	56
63.994366	176
64.015495	29
65.99744	164
79.017841	999
79.054227	27
80.025666	17
81.020915	946
81.054621	27
81.065854	16
