Mass spectrum: Carminic acid; ESI-QTOF; MS2; CE: 40; [M-H]-
Name: Carminic acid
Formula: C22H20O13
Exact mass: 492.0903907279
SMILES: CC1C(=C(O)C=C2C=1C(=O)C1=C(C2=O)C(O)=C(O)C(C2OC(CO)C(O)C(O)C2O)=C1O)C(O)=O
InChI: InChI=1S/C22H20O13/c1-4-8-5(2-6(24)9(4)22(33)34)13(25)10-11(15(8)27)16(28)12(18(30)17(10)29)21-20(32)19(31)14(26)7(3-23)35-21/h2,7,14,19-21,23-24,26,28-32H,3H2,1H3,(H,33,34)
Instrument type: ESI-QTOF
Ms type: MS2
Ion mode: NEGATIVE
Ionization: ESI
Collision energy: 40
Precursor m/z: 491.0831142762
Precursor type: [M-H]-
m/z	relative intensity
183.081539	22
211.076453	12
227.071368	28
242.058457	13
253.050632	22
255.066282	35
256.037722	13
257.045547	10
267.066282	11
269.045547	37
270.053372	137
271.061197	74
281.045547	36
282.053372	16
283.061197	92
284.032637	99
285.040462	181
286.048287	32
295.061197	31
297.040462	95
298.048287	861
299.056112	999
300.063937	25
309.040462	54
310.048287	20
311.056112	110
312.063937	11
314.043201	33
321.040462	32
323.056112	20
324.027551	12
325.035376	17
326.043201	26
327.051026	842
327.123797	14
328.058851	33
339.051026	218
340.058851	15
341.066676	17
351.051026	25
357.061591	668
358.069416	18
369.061591	81
381.061591	10
387.072156	11
399.072156	22
411.072156	13
429.08272	25
447.093285	28
