Mass spectrum: 1,1'-Disulfanediyldiazepan-2-one; ESI-QTOF; MS2; CE: 10; [M+H]+
Name: 1,1'-Disulfanediyldiazepan-2-one
Name: DTXSID1044481
Formula: C12H20N2O2S2
Exact mass: 288.0966193574
SMILES: O=C1CCCCCN1SSN1CCCCCC1=O
InChI: InChI=1S/C12H20N2O2S2/c15-11-7-3-1-5-9-13(11)17-18-14-10-6-2-4-8-12(14)16/h1-10H2
Instrument type: ESI-QTOF
Ms type: MS2
Ion mode: POSITIVE
Ionization: ESI
Collision energy: 10
Precursor m/z: 289.1038958091
Precursor type: [M+H]+
m/z	relative intensity
82.065126	71
83.072951	48
89.059706	10
96.080776	999
96.117852	38
96.129085	26
97.079396	62
114.09134	52
148.024917	145
149.026001	10
150.021249	12
158.993283	26
176.019832	443
176.068793	13
177.020915	38
178.016164	41
214.985792	10
289.103896	28
