Mass spectrum: N-Methylacetoacetamide; ESI-QTOF; MS2; CE: 20; [M-H]-
Name: N-Methylacetoacetamide
Name: DTXSID9040138
Formula: C5H9NO2
Exact mass: 115.0633285391
SMILES: CC(=O)CC(=O)NC
InChI: InChI=1S/C5H9NO2/c1-4(7)3-5(8)6-2/h3H2,1-2H3,(H,6,8)
Instrument type: ESI-QTOF
Ms type: MS2
Ion mode: NEGATIVE
Ionization: ESI
Collision energy: 20
Precursor m/z: 114.0560520874
Precursor type: [M-H]-
m/z	relative intensity
41.003288	178
54.034923	12
57.034588	999
57.058398	17
72.045487	11
82.029837	39
83.013853	17
