Mass spectrum: 2,2'-[(4-Methylphenyl)imino]diethanol; ESI-QTOF; MS2; CE: 40; [M+H]+
Name: 2,2'-[(4-Methylphenyl)imino]diethanol
Name: DTXSID0044650
Formula: C11H17NO2
Exact mass: 195.1259287943
SMILES: CC1=CC=C(C=C1)N(CCO)CCO
InChI: InChI=1S/C11H17NO2/c1-10-2-4-11(5-3-10)12(6-8-13)7-9-14/h2-5,13-14H,6-9H2,1H3
Instrument type: ESI-QTOF
Ms type: MS2
Ion mode: POSITIVE
Ionization: ESI
Collision energy: 40
Precursor m/z: 196.133205246
Precursor type: [M+H]+
m/z	relative intensity
45.033491	104
65.038577	72
77.038577	52
79.054227	23
91.054227	419
92.062052	82
93.057301	22
93.069877	93
103.054227	12
104.049476	11
105.069877	29
106.065126	89
107.072951	55
115.054227	13
117.057301	42
117.069877	18
118.065126	186
119.072951	83
120.080776	999
130.065126	13
132.080776	135
133.088601	12
134.096426	51
144.080776	12
