Mass spectrum: Ricinine; ESI-QTOF; MS2; CE: 20; [M+H]+
Name: Ricinine
Name: DTXSID50200412
Formula: C8H8N2O2
Exact mass: 164.0585775146
SMILES: COC1C=CN(C)C(=O)C=1C#N
InChI: InChI=1S/C8H8N2O2/c1-10-4-3-7(12-2)6(5-9)8(10)11/h3-4H,1-2H3
Instrument type: ESI-QTOF
Ms type: MS2
Ion mode: POSITIVE
Ionization: ESI
Collision energy: 20
Precursor m/z: 165.0658539663
Precursor type: [M+H]+
m/z	relative intensity
42.033826	152
53.038577	24
55.017841	36
65.038577	15
67.017841	11
67.041651	21
68.049476	93
70.065126	51
78.033826	21
80.049476	60
82.02874	308
82.065126	38
83.012756	107
84.04439	333
92.049476	43
93.044725	12
94.02874	10
94.05255	12
94.065126	11
96.04439	10
97.028406	14
105.044725	18
106.02874	11
106.05255	10
108.04439	162
110.06004	153
122.047464	46
138.054955	593
150.042379	70
165.065854	999
