Mass spectrum: SR125047; ESI-QTOF; MS2; CE: 10; [M+H]+
Name: SR125047
Name: DTXSID3047342
Formula: C22H26ClNO
Exact mass: 355.1702921691
SMILES: COC1C=C(C=CC=1)C1=CC=C(/C=C/CN2CCCCCC2)C=C1Cl
InChI: InChI=1S/C22H26ClNO/c1-25-20-10-6-9-19(17-20)21-12-11-18(16-22(21)23)8-7-15-24-13-4-2-3-5-14-24/h6-12,16-17H,2-5,13-15H2,1H3/b8-7+
Instrument type: ESI-QTOF
Ms type: MS2
Ion mode: POSITIVE
Ionization: ESI
Collision energy: 10
Precursor m/z: 356.1775686208
Precursor type: [M+H]+
m/z	relative intensity
98.096426	15
221.096091	10
222.103916	94
229.041469	13
229.077855	12
257.072769	488
257.132477	18
356.177569	999
