Mass spectrum: AVE3247; ESI-QTOF; MS2; CE: 20; [M+H]+
Name: AVE3247
Name: DTXSID4047383
Formula: C25H24ClN5O4S
Exact mass: 525.1237527318
SMILES: OC(=O)C1C=C2N=C(C(=O)NC3CCN(CC3)C3CC3)N(CC3C=C(ON=3)C3=CC=C(Cl)S3)C2=CC=1
InChI: InChI=1S/C25H24ClN5O4S/c26-22-6-5-21(36-22)20-12-16(29-35-20)13-31-19-4-1-14(25(33)34)11-18(19)28-23(31)24(32)27-15-7-9-30(10-8-15)17-2-3-17/h1,4-6,11-12,15,17H,2-3,7-10,13H2,(H,27,32)(H,33,34)
Instrument type: ESI-QTOF
Ms type: MS2
Ion mode: POSITIVE
Ionization: ESI
Collision energy: 20
Precursor m/z: 526.1310291835
Precursor type: [M+H]+
m/z	relative intensity
72.080776	10
124.112076	151
167.11789	480
360.020416	259
455.05753	23
526.131029	999
