Mass spectrum: Di(propylene glycol) dibenzoate; ESI-QTOF; MS2; CE: 40; [M+H]+
Name: Di(propylene glycol) dibenzoate
Name: DTXSID6027921
Formula: C20H22O5
Exact mass: 342.1467238133
SMILES: CC(COCC(C)OC(=O)C1=CC=CC=C1)OC(=O)C1=CC=CC=C1
InChI: InChI=1S/C20H22O5/c1-15(24-19(21)17-9-5-3-6-10-17)13-23-14-16(2)25-20(22)18-11-7-4-8-12-18/h3-12,15-16H,13-14H2,1-2H3
Instrument type: ESI-QTOF
Ms type: MS2
Ion mode: POSITIVE
Ionization: ESI
Collision energy: 40
Precursor m/z: 343.154000265
Precursor type: [M+H]+
m/z	relative intensity
41.038577	22
77.038577	187
105.033491	999
105.069877	22
163.075356	27
