Mass spectrum: Ethyl 5-oxo-1-phenyl-4,5-dihydro-1H-pyrazole-3-carboxylate; ESI-QTOF; MS2; CE: 40; [M-H]-
Name: Ethyl 5-oxo-1-phenyl-4,5-dihydro-1H-pyrazole-3-carboxylate
Formula: C12H12N2O3
Exact mass: 232.0847922645
SMILES: CCOC(=O)C1CC(=O)N(N=1)C1C=CC=CC=1
InChI: InChI=1S/C12H12N2O3/c1-2-17-12(16)10-8-11(15)14(13-10)9-6-4-3-5-7-9/h3-7H,2,8H2,1H3
Instrument type: ESI-QTOF
Ms type: MS2
Ion mode: NEGATIVE
Ionization: ESI
Collision energy: 40
Precursor m/z: 231.0775158128
Precursor type: [M-H]-
m/z	relative intensity
38.003623	17
39.011448	765
40.019273	542
41.003288	31
41.014522	52
41.998537	127
43.018938	17
45.034588	16
65.998537	999
66.032243	17
92.050573	45
101.039674	15
112.040402	26
116.050573	228
117.045822	514
156.032911	17
157.040736	517
