Mass spectrum: PharmaGSID_47333; ESI-QTOF; MS2; CE: 20; [M+H]+
Name: PharmaGSID_47333
Formula: C22H30N4O2
Exact mass: 382.2368762312
SMILES: CC1N=CC(=CN=1)C(CC(O)=O)CCCCCCC1C=CC2CCCNC=2N=1
InChI: InChI=1S/C22H30N4O2/c1-16-24-14-19(15-25-16)18(13-21(27)28)7-4-2-3-5-9-20-11-10-17-8-6-12-23-22(17)26-20/h10-11,14-15,18H,2-9,12-13H2,1H3,(H,23,26)(H,27,28)
Instrument type: ESI-QTOF
Ms type: MS2
Ion mode: POSITIVE
Ionization: ESI
Collision energy: 20
Precursor m/z: 383.2441526829
Precursor type: [M+H]+
m/z	relative intensity
365.233588	21
383.244153	999
