Mass spectrum: Ingliforib; ESI-QTOF; MS2; CE: 40; [M-H]-
Name: Ingliforib
Name: DTXSID4047252
Formula: C23H24ClN3O5
Exact mass: 457.1404486093
SMILES: OC(C(CC1C=CC=CC=1)NC(=O)C1=CC2=CC(Cl)=CC=C2N1)C(=O)N1CC(O)C(O)C1
InChI: InChI=1S/C23H24ClN3O5/c24-15-6-7-16-14(9-15)10-18(25-16)22(31)26-17(8-13-4-2-1-3-5-13)21(30)23(32)27-11-19(28)20(29)12-27/h1-7,9-10,17,19-21,25,28-30H,8,11-12H2,(H,26,31)
Instrument type: ESI-QTOF
Ms type: MS2
Ion mode: NEGATIVE
Ionization: ESI
Collision energy: 40
Precursor m/z: 456.1331721576
Precursor type: [M-H]-
m/z	relative intensity
34.969401	16
41.998537	367
43.018938	11
66.034923	64
100.040402	13
102.056052	25
149.003775	88
150.0116	558
150.056539	12
174.056539	11
175.006849	23
176.99869	52
193.017414	999
193.070419	24
193.089698	12
194.000943	14
194.020729	10
198.043963	17
205.017414	40
206.025239	63
208.01708	21
216.009102	14
233.012329	29
234.020154	487
268.053465	17
295.064364	50
297.080014	13
307.064364	32
325.074929	93
335.059279	10
