Mass spectrum: N-(2-Methoxyphenyl)-3-oxobutanamide; ESI-QTOF; MS2; CE: 20; [M+H]+
Name: N-(2-Methoxyphenyl)-3-oxobutanamide
Formula: C11H13NO3
Exact mass: 207.089543289
SMILES: CC(=O)CC(=O)NC1C=CC=CC=1OC
InChI: InChI=1S/C11H13NO3/c1-8(13)7-11(14)12-9-5-3-4-6-10(9)15-2/h3-6H,7H2,1-2H3,(H,12,14)
Instrument type: ESI-QTOF
Ms type: MS2
Ion mode: POSITIVE
Ionization: ESI
Collision energy: 20
Precursor m/z: 208.0968197407
Precursor type: [M+H]+
m/z	relative intensity
43.017841	334
59.049141	21
77.038577	11
85.028406	50
92.049476	25
94.065126	30
109.052215	252
122.06004	45
124.07569	999
135.03148	27
148.07569	65
150.054955	192
190.086255	10
