Mass spectrum: 3-Butyl-1-methyl-1H-imidazol-3-ium; ESI-QTOF; MS2; CE: 10; [M+H]+
Name: 3-Butyl-1-methyl-1H-imidazol-3-ium
Formula: [C8H15N2]+
Exact mass: 139.1235234933
SMILES: CCCCN1C=[N+](C)C=C1
InChI: InChI=1S/C8H15N2/c1-3-4-5-10-7-6-9(2)8-10/h6-8H,3-5H2,1-2H3/q+1
Instrument type: ESI-QTOF
Ms type: MS2
Ion mode: POSITIVE
Ionization: ESI
Collision energy: 10
Precursor m/z: 140.130799945
Precursor type: [M+H]+
m/z	relative intensity
57.069877	17
58.077702	12
83.060375	179
84.0682	163
139.122975	12
140.1308	999
