Mass spectrum: 4-Hydroxy-2,2,6,6-tetramethylpiperidin-1-yl)oxidanyl; ESI-QTOF; MS2; CE: 20; [M+H]+
Name: 4-Hydroxy-2,2,6,6-tetramethylpiperidin-1-yl)oxidanyl
Name: DTXSID4041280
Formula: C9H19NO2
Exact mass: 173.1415788581
SMILES: CC1(C)CC(O)CC(C)(C)N1O
InChI: InChI=1S/C9H19NO2/c1-8(2)5-7(11)6-9(3,4)10(8)12/h7,11-12H,5-6H2,1-4H3
Instrument type: ESI-QTOF
Ms type: MS2
Ion mode: POSITIVE
Ionization: ESI
Collision energy: 20
Precursor m/z: 174.1488553098
Precursor type: [M+H]+
m/z	relative intensity
41.038577	14
55.054227	12
56.049476	79
57.069877	116
67.054227	22
72.080776	18
74.06004	999
74.096426	33
74.109002	17
75.067865	37
81.069877	55
83.072951	10
85.064791	41
100.07569	12
101.002191	274
102.09134	22
109.101177	11
118.086255	23
123.116827	72
174.148855	98
