Mass spectrum: 2,3-Dihydroxynaphthalene; ESI-QTOF; MS2; CE: 40; [M-H]-
Name: 2,3-Dihydroxynaphthalene
Formula: C10H8O2
Exact mass: 160.0524294998
SMILES: OC1=CC2C=CC=CC=2C=C1O
InChI: InChI=1S/C10H8O2/c11-9-5-7-3-1-2-4-8(7)6-10(9)12/h1-6,11-12H
Instrument type: ESI-QTOF
Ms type: MS2
Ion mode: NEGATIVE
Ionization: ESI
Collision energy: 40
Precursor m/z: 159.0451530481
Precursor type: [M-H]-
m/z	relative intensity
63.024024	33
65.003288	67
73.008374	19
77.039674	66
101.039674	38
112.031849	24
113.039674	999
115.055324	72
130.042413	677
131.050238	292
141.034588	129
158.037328	25
159.045153	81
