Mass spectrum: N-Nitrosobis(2-oxopropyl)amine; ESI-QTOF; MS2; CE: 10; [M+H]+
Name: N-Nitrosobis(2-oxopropyl)amine
Name: DTXSID2021022
Formula: C6H10N2O3
Exact mass: 158.0691422007
SMILES: CC(=O)CN(CC(C)=O)N=O
InChI: InChI=1S/C6H10N2O3/c1-5(9)3-8(7-11)4-6(2)10/h3-4H2,1-2H3
Instrument type: ESI-QTOF
Ms type: MS2
Ion mode: POSITIVE
Ionization: ESI
Collision energy: 10
Precursor m/z: 159.0764186524
Precursor type: [M+H]+
m/z	relative intensity
63.994366	30
65.99744	24
79.017841	999
79.054227	30
80.025666	18
81.020915	943
81.054621	29
81.065854	19
86.06004	40
128.070605	12
