Mass spectrum: sec-Butylparaben; ESI-QTOF; MS2; CE: 20; [M-H]-
Name: sec-Butylparaben
Name: DTXSID5044607
Formula: C11H14O3
Exact mass: 194.0942943135
SMILES: CC(CC)OC(=O)C1C=CC(O)=CC=1
InChI: InChI=1S/C11H14O3/c1-3-8(2)14-11(13)9-4-6-10(12)7-5-9/h4-8,12H,3H2,1-2H3
Instrument type: ESI-QTOF
Ms type: MS2
Ion mode: NEGATIVE
Ionization: ESI
Collision energy: 20
Precursor m/z: 193.0870178618
Precursor type: [M-H]-
m/z	relative intensity
71.050238	25
92.026763	999
92.063149	57
92.084278	14
93.034588	804
93.070974	43
93.092103	10
136.016593	143
137.024418	331
193.087018	74
