Mass spectrum: Triisopropanolamine; ESI-QTOF; MS2; CE: 40; [M+H]+
Name: Triisopropanolamine
Formula: C9H21NO3
Exact mass: 191.1521435442
SMILES: CC(O)CN(CC(C)O)CC(C)O
InChI: InChI=1S/C9H21NO3/c1-7(11)4-10(5-8(2)12)6-9(3)13/h7-9,11-13H,4-6H2,1-3H3
Instrument type: ESI-QTOF
Ms type: MS2
Ion mode: POSITIVE
Ionization: ESI
Collision energy: 40
Precursor m/z: 192.1594199959
Precursor type: [M+H]+
m/z	relative intensity
31.017841	90
39.022927	84
41.038577	999
41.059706	33
42.033826	150
43.017841	34
43.041651	11
43.054227	193
44.049476	26
53.038577	21
54.033826	11
55.054227	56
56.049476	188
57.057301	18
58.065126	98
59.049141	441
59.072951	13
68.049476	62
69.069877	14
70.065126	162
72.080776	12
77.038577	12
79.054227	45
80.049476	10
81.057301	11
81.069877	27
82.065126	26
83.072951	11
84.080776	12
94.065126	11
96.080776	16
98.096426	106
