Mass spectrum: Acetoacetanilide; ESI-QTOF; MS2; CE: 10; [M+H]+
Name: Acetoacetanilide
Formula: C10H11NO2
Exact mass: 177.0789786029
SMILES: CC(=O)CC(=O)NC1C=CC=CC=1
InChI: InChI=1S/C10H11NO2/c1-8(12)7-10(13)11-9-5-3-2-4-6-9/h2-6H,7H2,1H3,(H,11,13)
Instrument type: ESI-QTOF
Ms type: MS2
Ion mode: POSITIVE
Ionization: ESI
Collision energy: 10
Precursor m/z: 178.0862550546
Precursor type: [M+H]+
m/z	relative intensity
43.017841	280
59.049141	40
77.038577	16
85.028406	63
92.049476	11
94.065126	999
118.065126	25
120.04439	469
160.07569	47
178.086255	160
