Mass spectrum: 1,3-Cyclohexanedione; ESI-QTOF; MS2; CE: 20; [M-H]-
Name: 1,3-Cyclohexanedione
Name: DTXSID1044433
Formula: C6H8O2
Exact mass: 112.0524294998
SMILES: O=C1CC(=O)CCC1
InChI: InChI=1S/C6H8O2/c7-5-2-1-3-6(8)4-5/h1-4H2
Instrument type: ESI-QTOF
Ms type: MS2
Ion mode: NEGATIVE
Ionization: ESI
Collision energy: 20
Precursor m/z: 111.0451530481
Precursor type: [M-H]-
m/z	relative intensity
41.003288	321
43.018938	20
57.034588	999
68.998203	35
69.034588	994
96.021678	25
111.045153	883
