Mass spectrum: (1,1-Dimethylethyl)urea; ESI-QTOF; MS2; CE: 40; [M-H]-
Name: (1,1-Dimethylethyl)urea
Formula: C5H12N2O
Exact mass: 116.0949630199
SMILES: CC(C)(C)NC(N)=O
InChI: InChI=1S/C5H12N2O/c1-5(2,3)7-4(6)8/h1-3H3,(H3,6,7,8)
Instrument type: ESI-QTOF
Ms type: MS2
Ion mode: NEGATIVE
Ionization: ESI
Collision energy: 40
Precursor m/z: 115.0876865682
Precursor type: [M-H]-
m/z	relative intensity
41.014522	22
41.998537	999
42.022347	15
81.045822	15
