Mass spectrum: 1,1,3,3-Tetrabutylurea; ESI-QTOF; MS2; CE: 40; [M+H]+
Name: 1,1,3,3-Tetrabutylurea
Name: DTXSID7043902
Formula: C17H36N2O
Exact mass: 284.2827637855
SMILES: CCCCN(CCCC)C(=O)N(CCCC)CCCC
InChI: InChI=1S/C17H36N2O/c1-5-9-13-18(14-10-6-2)17(20)19(15-11-7-3)16-12-8-4/h5-16H2,1-4H3
Instrument type: ESI-QTOF
Ms type: MS2
Ion mode: POSITIVE
Ionization: ESI
Collision energy: 40
Precursor m/z: 285.2900402372
Precursor type: [M+H]+
m/z	relative intensity
29.038577	13
41.038577	373
57.069877	999
57.102239	35
57.114816	16
