Mass spectrum: 1-(2-Aminoethyl)piperazine; ESI-QTOF; MS2; CE: 40; [M+H]+
Name: 1-(2-Aminoethyl)piperazine
Name: DTXSID2021997
Formula: C6H15N3
Exact mass: 129.1265975007
SMILES: NCCN1CCNCC1
InChI: InChI=1S/C6H15N3/c7-1-4-9-5-2-8-3-6-9/h8H,1-7H2
Instrument type: ESI-QTOF
Ms type: MS2
Ion mode: POSITIVE
Ionization: ESI
Collision energy: 40
Precursor m/z: 130.1338739524
Precursor type: [M+H]+
m/z	relative intensity
28.018175	11
39.022927	11
41.026001	19
41.038577	134
42.033826	448
43.041651	17
43.054227	62
44.049476	999
55.041651	31
56.049476	375
57.057301	11
58.065126	74
68.049476	49
70.065126	141
83.060375	140
84.0682	36
84.080776	67
87.091675	14
97.076025	14
