Mass spectrum: 1,3-Diiminobenz(f)isoindoline; ESI-QTOF; MS2; CE: 20; [M+H]+
Name: 1,3-Diiminobenz(f)isoindoline
Name: DTXSID3032751
Formula: C12H9N3
Exact mass: 195.0796473093
SMILES: N=C1NC(=N)C2C=C3C=CC=CC3=CC1=2
InChI: InChI=1S/C12H9N3/c13-11-9-5-7-3-1-2-4-8(7)6-10(9)12(14)15-11/h1-6H,(H3,13,14,15)
Instrument type: ESI-QTOF
Ms type: MS2
Ion mode: POSITIVE
Ionization: ESI
Collision energy: 20
Precursor m/z: 196.086923761
Precursor type: [M+H]+
m/z	relative intensity
152.049476	49
179.060375	789
196.086924	999
