Mass spectrum: 2,5-Dithiobiurea; ESI-QTOF; MS2; CE: 10; [M-H]-
Name: 2,5-Dithiobiurea
Name: DTXSID8020545
Formula: C2H6N4S2
Exact mass: 150.003387681
SMILES: NC(=S)NNC(N)=S
InChI: InChI=1S/C2H6N4S2/c3-1(7)5-6-2(4)8/h(H3,3,5,7)(H3,4,6,8)
Instrument type: ESI-QTOF
Ms type: MS2
Ion mode: NEGATIVE
Ionization: ESI
Collision energy: 10
Precursor m/z: 148.9961112293
Precursor type: [M-H]-
m/z	relative intensity
41.014522	72
45.975693	19
56.025421	68
57.975693	770
72.986592	999
75.002242	246
81.02067	35
83.03632	18
89.947764	137
90.013141	435
115.00839	886
131.969562	14
148.996111	217
