Mass spectrum: C.I. Acid Orange 10; ESI-QTOF; MS2; CE: 40; [M-H]-
Name: C.I. Acid Orange 10
Name: DTXSID6021082
Formula: C16H12N2O7S2
Exact mass: 408.0085922137
SMILES: OC1=CC=C2C=C(C=C(C2=C1/N=N/C1C=CC=CC=1)S(O)(=O)=O)S(O)(=O)=O
InChI: InChI=1S/C16H12N2O7S2/c19-13-7-6-10-8-12(26(20,21)22)9-14(27(23,24)25)15(10)16(13)18-17-11-4-2-1-3-5-11/h1-9,19H,(H,20,21,22)(H,23,24,25)/b18-17+
Instrument type: ESI-QTOF
Ms type: MS2
Ion mode: NEGATIVE
Ionization: ESI
Collision energy: 40
Precursor m/z: 407.001315762
Precursor type: [M-H]-
m/z	relative intensity
59.013853	97
79.957363	999
79.990378	16
80.965188	29
130.042413	69
142.042413	26
158.010364	12
158.037328	435
159.04113	11
174.032243	65
194.004313	385
209.999228	53
219.081539	36
221.998576	594
222.053372	10
223.000528	19
237.994143	214
247.087687	70
273.961128	265
301.956043	407
302.960497	11
