Mass spectrum: Diethylene glycol dibenzoate; ESI-QTOF; MS2; CE: 40; [M+H]+
Name: Diethylene glycol dibenzoate
Formula: C18H18O5
Exact mass: 314.1154236857
SMILES: O=C(OCCOCCOC(=O)C1=CC=CC=C1)C1=CC=CC=C1
InChI: InChI=1S/C18H18O5/c19-17(15-7-3-1-4-8-15)22-13-11-21-12-14-23-18(20)16-9-5-2-6-10-16/h1-10H,11-14H2
Instrument type: ESI-QTOF
Ms type: MS2
Ion mode: POSITIVE
Ionization: ESI
Collision energy: 40
Precursor m/z: 315.1227001374
Precursor type: [M+H]+
m/z	relative intensity
51.022927	16
77.038577	393
105.033491	999
105.069877	21
149.059706	250
