Mass spectrum: N,N'-Disalicylidene-1,2-diaminopropane; ESI-QTOF; MS2; CE: 40; [M-H]-
Name: N,N'-Disalicylidene-1,2-diaminopropane
Formula: C17H18N2O2
Exact mass: 282.1368278336
SMILES: CC(C/N=C/C1=CC=CC=C1O)/N=C/C1=CC=CC=C1O
InChI: InChI=1S/C17H18N2O2/c1-13(19-12-15-7-3-5-9-17(15)21)10-18-11-14-6-2-4-8-16(14)20/h2-9,11-13,20-21H,10H2,1H3/b18-11+,19-12+
Instrument type: ESI-QTOF
Ms type: MS2
Ion mode: NEGATIVE
Ionization: ESI
Collision energy: 40
Precursor m/z: 281.1295513819
Precursor type: [M-H]-
m/z	relative intensity
41.998537	11
42.034923	47
54.034923	14
65.039674	18
69.045822	15
90.034923	12
93.034588	999
93.070974	13
106.042413	352
107.037662	13
107.050238	203
118.029837	882
118.066223	12
119.050238	10
120.045487	362
134.037328	10
134.061137	111
148.076788	10
