Mass spectrum: 4,4'-(Isopropylidenebis(4,1-phenyleneoxy))dianiline; ESI-QTOF; MS2; CE: 20; [M+H]+
Name: 4,4'-(Isopropylidenebis(4,1-phenyleneoxy))dianiline
Name: DTXSID5051650
Formula: C27H26N2O2
Exact mass: 410.1994280888
SMILES: CC(C)(C1C=CC(=CC=1)OC1C=CC(N)=CC=1)C1C=CC(=CC=1)OC1C=CC(N)=CC=1
InChI: InChI=1S/C27H26N2O2/c1-27(2,19-3-11-23(12-4-19)30-25-15-7-21(28)8-16-25)20-5-13-24(14-6-20)31-26-17-9-22(29)10-18-26/h3-18H,28-29H2,1-2H3
Instrument type: ESI-QTOF
Ms type: MS2
Ion mode: POSITIVE
Ionization: ESI
Collision energy: 20
Precursor m/z: 411.2067045405
Precursor type: [M+H]+
m/z	relative intensity
80.049476	23
93.057301	90
108.04439	866
108.080776	17
135.080441	30
181.101177	21
182.109002	10
195.080441	29
197.096091	46
209.096091	66
210.09134	301
211.111742	19
225.091006	98
226.098831	11
226.122641	906
226.180155	15
227.130466	11
290.153941	224
300.138291	13
303.12538	19
304.133205	30
318.148855	999
318.20905	13
319.15668	89
396.183229	85
411.206705	98
