Mass spectrum: 4,4',4''-Ethane-1,1,1-triyltriphenol; ESI-QTOF; MS2; CE: 20; [M-H]-
Name: 4,4',4''-Ethane-1,1,1-triyltriphenol
Name: DTXSID2037712
Formula: C20H18O3
Exact mass: 306.1255944411
SMILES: CC(C1C=CC(O)=CC=1)(C1C=CC(O)=CC=1)C1C=CC(O)=CC=1
InChI: InChI=1S/C20H18O3/c1-20(14-2-8-17(21)9-3-14,15-4-10-18(22)11-5-15)16-6-12-19(23)13-7-16/h2-13,21-23H,1H3
Instrument type: ESI-QTOF
Ms type: MS2
Ion mode: NEGATIVE
Ionization: ESI
Collision energy: 20
Precursor m/z: 305.1183179894
Precursor type: [M-H]-
m/z	relative intensity
93.034588	10
211.076453	142
289.087018	35
290.094843	999
291.102668	18
305.118318	814
