Mass spectrum: N-Nitrosobis(2-oxopropyl)amine; ESI-QTOF; MS2; CE: 40; [M+H]+
Name: N-Nitrosobis(2-oxopropyl)amine
Name: DTXSID2021022
Formula: C6H10N2O3
Exact mass: 158.0691422007
SMILES: CC(=O)CN(CC(C)=O)N=O
InChI: InChI=1S/C6H10N2O3/c1-5(9)3-8(7-11)4-6(2)10/h3-4H2,1-2H3
Instrument type: ESI-QTOF
Ms type: MS2
Ion mode: POSITIVE
Ionization: ESI
Collision energy: 40
Precursor m/z: 159.0764186524
Precursor type: [M+H]+
m/z	relative intensity
43.017841	15
45.992355	29
47.00018	240
47.984195	33
48.99202	252
58.065126	14
61.007276	140
62.015101	70
63.00767	122
63.994366	999
64.015495	160
64.026729	31
64.039305	17
65.002191	19
65.99744	931
66.021249	26
66.033826	14
79.017841	284
81.020915	258
