Mass spectrum: 2H-3,1-Benzoxazine-2,4(1H)-dione; ESI-QTOF; MS2; CE: 20; [M-H]-
Name: 2H-3,1-Benzoxazine-2,4(1H)-dione
Formula: C8H5NO3
Exact mass: 163.0269430338
SMILES: O=C1OC(=O)NC2C=CC=CC1=2
InChI: InChI=1S/C8H5NO3/c10-7-5-3-1-2-4-6(5)9-8(11)12-7/h1-4H,(H,9,11)
Instrument type: ESI-QTOF
Ms type: MS2
Ion mode: NEGATIVE
Ionization: ESI
Collision energy: 20
Precursor m/z: 162.0196665821
Precursor type: [M-H]-
m/z	relative intensity
41.998537	999
42.034923	22
118.029837	103
