Mass spectrum: Butane-1,4-diyl bis(2-methylprop-2-enoate); ESI-QTOF; MS2; CE: 10; [M+H]+
Name: Butane-1,4-diyl bis(2-methylprop-2-enoate)
Name: DTXSID4044870
Formula: C12H18O4
Exact mass: 226.1205090634
SMILES: CC(=C)C(=O)OCCCCOC(=O)C(C)=C
InChI: InChI=1S/C12H18O4/c1-9(2)11(13)15-7-5-6-8-16-12(14)10(3)4/h1,3,5-8H2,2,4H3
Instrument type: ESI-QTOF
Ms type: MS2
Ion mode: POSITIVE
Ionization: ESI
Collision energy: 10
Precursor m/z: 227.1277855151
Precursor type: [M+H]+
m/z	relative intensity
41.038577	16
55.054227	397
69.033491	210
79.017841	35
87.044056	157
141.091006	999
