Mass spectrum: Ethyl diethanolamine; ESI-QTOF; MS2; CE: 20; [M+H]+
Name: Ethyl diethanolamine
Name: DTXSID8041955
Formula: C6H15NO2
Exact mass: 133.1102787305
SMILES: CCN(CCO)CCO
InChI: InChI=1S/C6H15NO2/c1-2-7(3-5-8)4-6-9/h8-9H,2-6H2,1H3
Instrument type: ESI-QTOF
Ms type: MS2
Ion mode: POSITIVE
Ionization: ESI
Collision energy: 20
Precursor m/z: 134.1175551822
Precursor type: [M+H]+
m/z	relative intensity
41.038577	19
42.033826	102
43.054227	26
44.049476	885
44.083181	16
45.033491	848
45.057301	59
45.069877	22
46.041316	18
46.065126	12
56.049476	49
57.057301	13
58.065126	54
60.04439	15
68.049476	11
70.065126	299
71.072951	15
72.080776	999
72.114481	41
73.088601	43
74.06004	12
79.017841	19
86.096426	11
88.07569	118
90.09134	75
98.096426	20
102.09134	255
116.10699	403
117.114816	28
134.117555	229
