Mass spectrum: 1-(2-Hydroxyethyl)pyrrolidin-2-one; ESI-QTOF; MS2; CE: 20; [M+H]+
Name: 1-(2-Hydroxyethyl)pyrrolidin-2-one
Name: DTXSID7044922
Formula: C6H11NO2
Exact mass: 129.0789786029
SMILES: OCCN1CCCC1=O
InChI: InChI=1S/C6H11NO2/c8-5-4-7-3-1-2-6(7)9/h8H,1-5H2
Instrument type: ESI-QTOF
Ms type: MS2
Ion mode: POSITIVE
Ionization: ESI
Collision energy: 20
Precursor m/z: 130.0862550546
Precursor type: [M+H]+
m/z	relative intensity
39.022927	13
41.038577	423
41.059706	10
42.033826	35
43.054227	14
44.049476	131
45.033491	10
56.049476	51
67.054227	27
69.033491	999
69.069877	62
82.065126	52
84.080776	331
94.065126	21
112.07569	729
130.086255	58
