Mass spectrum: 2-[2-(2-Propoxyethoxy)ethoxy]ethanol; ESI-QTOF; MS2; CE: 40; [M+H]+
Name: 2-[2-(2-Propoxyethoxy)ethoxy]ethanol
Name: DTXSID8044880
Formula: C9H20O4
Exact mass: 192.1361591272
SMILES: CCCOCCOCCOCCO
InChI: InChI=1S/C9H20O4/c1-2-4-11-6-8-13-9-7-12-5-3-10/h10H,2-9H2,1H3
Instrument type: ESI-QTOF
Ms type: MS2
Ion mode: POSITIVE
Ionization: ESI
Collision energy: 40
Precursor m/z: 193.1434355789
Precursor type: [M+H]+
m/z	relative intensity
41.038577	112
43.017841	23
43.054227	145
45.033491	999
45.069877	11
