Mass spectrum: SSR504734; ESI-QTOF; MS2; CE: 40; [M-H]-
Name: SSR504734
Name: DTXSID3047348
Formula: C20H20ClF3N2O
Exact mass: 396.1216255851
SMILES: O=C(NC(C1CCCCN1)C1C=CC=CC=1)C1=CC=CC(=C1Cl)C(F)(F)F
InChI: InChI=1S/C20H20ClF3N2O/c21-17-14(9-6-10-15(17)20(22,23)24)19(27)26-18(13-7-2-1-3-8-13)16-11-4-5-12-25-16/h1-3,6-10,16,18,25H,4-5,11-12H2,(H,26,27)
Instrument type: ESI-QTOF
Ms type: MS2
Ion mode: NEGATIVE
Ionization: ESI
Collision energy: 40
Precursor m/z: 395.1143491334
Precursor type: [M-H]-
m/z	relative intensity
34.969401	999
34.993866	15
41.998537	20
77.039674	61
104.050573	159
109.077122	27
132.045487	28
137.072037	42
145.027058	46
215.118987	17
235.043891	29
236.051716	31
256.058431	12
275.055204	12
