Mass spectrum: Ethylene glycol dimethacrylate; ESI-QTOF; MS2; CE: 10; [M+H]+
Name: Ethylene glycol dimethacrylate
Formula: C10H14O4
Exact mass: 198.0892089358
SMILES: CC(=C)C(=O)OCCOC(=O)C(C)=C
InChI: InChI=1S/C10H14O4/c1-7(2)9(11)13-5-6-14-10(12)8(3)4/h1,3,5-6H2,2,4H3
Instrument type: ESI-QTOF
Ms type: MS2
Ion mode: POSITIVE
Ionization: ESI
Collision energy: 10
Precursor m/z: 199.0964853875
Precursor type: [M+H]+
m/z	relative intensity
120.99202	11
121.049535	999
