Mass spectrum: Bromcresol green; ESI-QTOF; MS2; CE: 20; [M-H]-
Name: Bromcresol green
Name: DTXSID9044459
Formula: C21H14Br4O5S
Exact mass: 693.7295458881
SMILES: CC1=C(C=C(Br)C(O)=C1Br)C1(OS(=O)(=O)C2C=CC=CC1=2)C1C=C(Br)C(O)=C(Br)C=1C
InChI: InChI=1S/C21H14Br4O5S/c1-9-12(7-14(22)19(26)17(9)24)21(13-8-15(23)20(27)18(25)10(13)2)11-5-3-4-6-16(11)31(28,29)30-21/h3-8,26-27H,1-2H3
Instrument type: ESI-QTOF
Ms type: MS2
Ion mode: NEGATIVE
Ionization: ESI
Collision energy: 20
Precursor m/z: 692.7222694364
Precursor type: [M-H]-
m/z	relative intensity
78.918886	144
262.871264	20
532.869944	12
534.885594	21
612.796107	129
613.803932	85
692.722269	999
