Mass spectrum: 2,6-Pyridinedicarboxylic acid; ESI-QTOF; MS2; CE: 10; [M-H]-
Name: 2,6-Pyridinedicarboxylic acid
Name: DTXSID7022043
Formula: C7H5NO4
Exact mass: 167.0218576561
SMILES: OC(=O)C1=CC=CC(=N1)C(O)=O
InChI: InChI=1S/C7H5NO4/c9-6(10)4-2-1-3-5(8-4)7(11)12/h1-3H,(H,9,10)(H,11,12)
Instrument type: ESI-QTOF
Ms type: MS2
Ion mode: NEGATIVE
Ionization: ESI
Collision energy: 10
Precursor m/z: 166.0145812044
Precursor type: [M-H]-
m/z	relative intensity
78.034923	999
122.024752	842
