Mass spectrum: FK 1052; ESI-QTOF; MS2; CE: 20; [M-H]-
Name: FK 1052
Formula: C18H19N3O
Exact mass: 293.1528122506
SMILES: CC1N=CNC=1CC1CCC2=C(C)C3=CC=CC=C3N2C1=O
InChI: InChI=1S/C18H19N3O/c1-11-14-5-3-4-6-17(14)21-16(11)8-7-13(18(21)22)9-15-12(2)19-10-20-15/h3-6,10,13H,7-9H2,1-2H3,(H,19,20)
Instrument type: ESI-QTOF
Ms type: MS2
Ion mode: NEGATIVE
Ionization: ESI
Collision energy: 20
Precursor m/z: 292.1455357989
Precursor type: [M-H]-
m/z	relative intensity
81.045822	791
144.081873	162
156.081873	387
170.097523	50
198.092438	999
198.141399	13
