Mass spectrum: 6-Methyl-3-hydroxypyridine; ESI-QTOF; MS2; CE: 20; [M-H]-
Name: 6-Methyl-3-hydroxypyridine
Formula: C6H7NO
Exact mass: 109.052763853
SMILES: CC1C=CC(O)=CN=1
InChI: InChI=1S/C6H7NO/c1-5-2-3-6(8)4-7-5/h2-4,8H,1H3
Instrument type: ESI-QTOF
Ms type: MS2
Ion mode: NEGATIVE
Ionization: ESI
Collision energy: 20
Precursor m/z: 108.0454874013
Precursor type: [M-H]-
m/z	relative intensity
53.039674	63
64.019273	23
67.006362	47
78.034923	26
80.050573	227
81.034588	13
90.034923	17
93.022012	287
107.037662	535
108.045487	999
