Mass spectrum: 2,2'-(3-Chlorophenylimino)diethanol; ESI-QTOF; MS2; CE: 40; [M+H]+
Name: 2,2'-(3-Chlorophenylimino)diethanol
Formula: C10H14ClNO2
Exact mass: 215.0713064086
SMILES: OCCN(CCO)C1C=CC=C(Cl)C=1
InChI: InChI=1S/C10H14ClNO2/c11-9-2-1-3-10(8-9)12(4-6-13)5-7-14/h1-3,8,13-14H,4-7H2
Instrument type: ESI-QTOF
Ms type: MS2
Ion mode: POSITIVE
Ionization: ESI
Collision energy: 40
Precursor m/z: 216.0785828603
Precursor type: [M+H]+
m/z	relative intensity
45.033491	420
51.022927	13
65.038577	11
75.022927	52
77.038577	131
90.046402	16
91.054227	159
92.062052	61
93.057301	76
98.999604	14
102.046402	11
103.054227	14
104.049476	190
105.057301	43
105.069877	18
110.999604	205
112.007429	40
113.015254	22
115.054227	22
116.049476	10
117.057301	150
118.065126	999
119.072951	378
125.015254	10
126.010016	13
127.017841	49
128.026153	16
130.065126	67
132.080776	117
138.010503	14
140.026153	544
140.070605	10
144.080776	59
152.026153	132
153.033978	18
154.041803	187
164.026153	14
