Mass spectrum: 1-Methylimidazole; ESI-QTOF; MS2; CE: 20; [M+H]+
Name: 1-Methylimidazole
Name: DTXSID6052291
Formula: C4H6N2
Exact mass: 82.0530982062
SMILES: CN1C=NC=C1
InChI: InChI=1S/C4H6N2/c1-6-3-2-5-4-6/h2-4H,1H3
Instrument type: ESI-QTOF
Ms type: MS2
Ion mode: POSITIVE
Ionization: ESI
Collision energy: 20
Precursor m/z: 83.0603746579
Precursor type: [M+H]+
m/z	relative intensity
41.026001	26
42.033826	556
43.041651	22
56.049476	176
67.029075	12
68.0369	116
83.060375	999
