Mass spectrum: Dinitrostilbenedisulfonic acid; ESI-QTOF; MS2; CE: 40; [M-H]-
Name: Dinitrostilbenedisulfonic acid
Name: DTXSID7027542
Formula: C14H10N2O10S2
Exact mass: 429.9776860168
SMILES: [O-][N+](=O)C1C=C(C(/C=C/C2=CC=C(C=C2S(O)(=O)=O)[N+]([O-])=O)=CC=1)S(O)(=O)=O
InChI: InChI=1S/C14H10N2O10S2/c17-15(18)11-5-3-9(13(7-11)27(21,22)23)1-2-10-4-6-12(16(19)20)8-14(10)28(24,25)26/h1-8H,(H,21,22,23)(H,24,25,26)/b2-1+
Instrument type: ESI-QTOF
Ms type: MS2
Ion mode: NEGATIVE
Ionization: ESI
Collision energy: 40
Precursor m/z: 428.9704095651
Precursor type: [M-H]-
m/z	relative intensity
45.993452	66
79.957363	243
80.965188	100
121.029503	63
122.024752	31
137.011842	14
151.027492	16
152.988998	23
162.019667	36
180.058063	10
184.991403	228
185.048227	12
192.054041	17
197.060803	15
208.052978	27
209.05678	11
210.056052	14
214.989392	232
225.051695	10
226.050967	17
227.058792	16
237.043142	32
238.050967	128
239.058792	37
240.030231	15
241.976481	12
254.045881	89
255.053706	24
269.05678	21
270.02822	10
272.014878	18
283.036045	29
285.051695	275
290.012867	19
301.005042	27
302.012867	78
303.020692	516
304.022466	24
318.007781	14
319.015606	118
349.013595	999
350.015369	57
365.00851	21
382.977506	440
428.97041	147
