Mass spectrum: 7-Diethylamino-4-methylcoumarin; ESI-QTOF; MS2; CE: 40; [M+H]+
Name: 7-Diethylamino-4-methylcoumarin
Formula: C14H17NO2
Exact mass: 231.1259287943
SMILES: CC1=CC(=O)OC2=CC(=CC=C12)N(CC)CC
InChI: InChI=1S/C14H17NO2/c1-4-15(5-2)11-6-7-12-10(3)8-14(16)17-13(12)9-11/h6-9H,4-5H2,1-3H3
Instrument type: ESI-QTOF
Ms type: MS2
Ion mode: POSITIVE
Ionization: ESI
Collision energy: 40
Precursor m/z: 232.133205246
Precursor type: [M+H]+
m/z	relative intensity
42.033826	11
67.017841	15
68.01309	29
77.038577	45
79.054227	39
91.054227	78
93.069877	23
103.054227	82
104.049476	24
104.062052	22
105.069877	92
106.065126	11
115.054227	116
116.062052	173
117.057301	29
117.069877	45
118.065126	46
119.072951	25
120.080776	22
121.064791	22
130.065126	34
131.049141	82
131.072951	24
132.056966	167
132.080776	175
133.064791	14
133.088601	13
134.096426	13
142.065126	13
143.072951	29
144.080776	119
145.052215	11
146.06004	60
146.096426	47
147.067865	19
148.112076	27
158.096426	17
160.051881	33
160.07569	411
160.112076	32
161.119901	15
172.112076	17
174.067531	74
174.09134	142
174.127726	11
175.099165	22
176.143376	47
188.070605	999
188.119567	27
188.143376	16
202.086255	57
216.101905	18
232.133205	13
