Mass spectrum: 4-[3-(4-Acetyl-3-hydroxy-2-propylphenoxy)propoxy]phenoxy-acetic acid; ESI-QTOF; MS2; CE: 20; [M+H]+
Name: 4-[3-(4-Acetyl-3-hydroxy-2-propylphenoxy)propoxy]phenoxy-acetic acid
Formula: C22H26O7
Exact mass: 402.1678531855
SMILES: CC(=O)C1C=CC(OCCCOC2=CC=C(C=C2)OCC(O)=O)=C(CCC)C=1O
InChI: InChI=1S/C22H26O7/c1-3-5-19-20(11-10-18(15(2)23)22(19)26)28-13-4-12-27-16-6-8-17(9-7-16)29-14-21(24)25/h6-11,26H,3-5,12-14H2,1-2H3,(H,24,25)
Instrument type: ESI-QTOF
Ms type: MS2
Ion mode: POSITIVE
Ionization: ESI
Collision energy: 20
Precursor m/z: 403.1751296372
Precursor type: [M+H]+
m/z	relative intensity
43.017841	190
43.054227	15
95.049141	10
107.049141	47
123.044056	58
133.064791	17
135.044056	24
135.080441	171
137.059706	27
149.059706	45
150.067531	68
151.075356	111
153.054621	20
153.091006	42
163.038971	14
163.075356	999
165.091006	208
167.033885	24
177.091006	29
179.070271	12
181.049535	120
185.080835	11
191.070271	22
191.106656	56
193.085921	63
193.122306	259
195.101571	379
205.122306	18
207.101571	149
207.137956	18
209.080835	14
233.117221	21
235.132871	21
315.159086	72
343.154	15
357.16965	160
361.164565	39
403.17513	289
