Mass spectrum: (6)-Gingerol; ESI-QTOF; MS2; CE: 10; [M-H]-
Name: (6)-Gingerol
Name: DTXSID3041035
Formula: C17H26O4
Exact mass: 294.1831093186
SMILES: CCCCCC(O)CC(=O)CCC1C=CC(O)=C(C=1)OC
InChI: InChI=1S/C17H26O4/c1-3-4-5-6-14(18)12-15(19)9-7-13-8-10-16(20)17(11-13)21-2/h8,10-11,14,18,20H,3-7,9,12H2,1-2H3
Instrument type: ESI-QTOF
Ms type: MS2
Ion mode: NEGATIVE
Ionization: ESI
Collision energy: 10
Precursor m/z: 293.1758328669
Precursor type: [M-H]-
m/z	relative intensity
57.034588	999
57.070974	15
99.081539	787
99.117924	17
178.063543	18
193.087018	217
275.165268	14
293.175833	173
