Mass spectrum: 2-Methyl-5-nitrobenzenesulfonic acid; ESI-QTOF; MS2; CE: 10; [M-H]-
Name: 2-Methyl-5-nitrobenzenesulfonic acid
Formula: C7H7NO5S
Exact mass: 217.0044930722
SMILES: CC1=CC=C(C=C1S(O)(=O)=O)[N+]([O-])=O
InChI: InChI=1S/C7H7NO5S/c1-5-2-3-6(8(9)10)4-7(5)14(11,12)13/h2-4H,1H3,(H,11,12,13)
Instrument type: ESI-QTOF
Ms type: MS2
Ion mode: NEGATIVE
Ionization: ESI
Collision energy: 10
Precursor m/z: 215.9972166205
Precursor type: [M-H]-
m/z	relative intensity
79.957363	43
80.965188	14
152.035317	24
170.004313	48
185.999228	19
215.997217	999
