Mass spectrum: 4-(3-Methyl-5-oxo-4,5-dihydro-1H-pyrazol-1-yl)benzenesulfonic acid; ESI-QTOF; MS2; CE: 40; [M-H]-
Name: 4-(3-Methyl-5-oxo-4,5-dihydro-1H-pyrazol-1-yl)benzenesulfonic acid
Formula: C10H10N2O4S
Exact mass: 254.036127553
SMILES: CC1CC(=O)N(N=1)C1C=CC(=CC=1)S(O)(=O)=O
InChI: InChI=1S/C10H10N2O4S/c1-7-6-10(13)12(11-7)8-2-4-9(5-3-8)17(14,15)16/h2-5H,6H2,1H3,(H,14,15,16)
Instrument type: ESI-QTOF
Ms type: MS2
Ion mode: NEGATIVE
Ionization: ESI
Collision energy: 40
Precursor m/z: 253.0288511013
Precursor type: [M-H]-
m/z	relative intensity
41.003288	10
41.998537	65
52.019273	11
65.998537	14
77.039674	30
78.034923	19
79.957363	931
79.990378	24
80.004982	15
80.965188	20
90.034923	28
92.050573	72
93.034588	42
106.029837	20
107.037662	59
118.029837	189
118.066223	13
120.045487	106
131.037662	81
131.061472	68
132.045487	999
133.040736	49
134.024752	56
155.988663	94
170.999562	31
173.072037	47
181.991737	13
184.007387	65
197.986652	90
