Mass spectrum: 5-Methyl-2-(4-methylphenyl)-2,4-dihydro-3H-pyrazol-3-one; ESI-QTOF; MS2; CE: 20; [M+H]+
Name: 5-Methyl-2-(4-methylphenyl)-2,4-dihydro-3H-pyrazol-3-one
Formula: C11H12N2O
Exact mass: 188.0949630199
SMILES: CC1CC(=O)N(N=1)C1C=CC(C)=CC=1
InChI: InChI=1S/C11H12N2O/c1-8-3-5-10(6-4-8)13-11(14)7-9(2)12-13/h3-6H,7H2,1-2H3
Instrument type: ESI-QTOF
Ms type: MS2
Ion mode: POSITIVE
Ionization: ESI
Collision energy: 20
Precursor m/z: 189.1022394716
Precursor type: [M+H]+
m/z	relative intensity
39.022927	13
41.038577	13
42.033826	71
44.049476	259
54.033826	36
56.049476	20
77.038577	119
79.054227	312
82.02874	51
82.05255	22
83.060375	37
84.04439	40
91.054227	67
93.069877	58
97.039639	11
103.054227	14
105.069877	14
106.065126	114
107.049141	246
107.072951	28
108.056966	20
108.080776	15
117.057301	10
117.069877	30
118.065126	52
119.049141	23
120.080776	192
121.076025	30
130.065126	42
131.072951	63
132.0682	15
132.080776	116
133.052215	99
133.076025	17
134.096426	23
143.072951	11
144.080776	249
145.076025	48
146.06004	14
146.08385	263
147.091675	729
148.07569	108
149.070939	142
157.052215	19
160.0995	10
161.107325	208
172.07569	24
174.078764	42
189.102239	999
