Mass spectrum: N,N'-Diethylthiourea; ESI-QTOF; MS2; CE: 40; [M+H]+
Name: N,N'-Diethylthiourea
Formula: C5H12N2S
Exact mass: 132.0721191276
SMILES: CCNC(=S)NCC
InChI: InChI=1S/C5H12N2S/c1-3-6-5(8)7-4-2/h3-4H2,1-2H3,(H2,6,7,8)
Instrument type: ESI-QTOF
Ms type: MS2
Ion mode: POSITIVE
Ionization: ESI
Collision energy: 40
Precursor m/z: 133.0793955793
Precursor type: [M+H]+
m/z	relative intensity
46.065126	46
59.990246	999
