Mass spectrum: 3-((Ethylphenylamino)methyl)benzenesulfonic acid; ESI-QTOF; MS2; CE: 10; [M-H]-
Name: 3-((Ethylphenylamino)methyl)benzenesulfonic acid
Formula: C15H17NO3S
Exact mass: 291.0929141466
SMILES: CCN(CC1=CC(=CC=C1)S(O)(=O)=O)C1C=CC=CC=1
InChI: InChI=1S/C15H17NO3S/c1-2-16(14-8-4-3-5-9-14)12-13-7-6-10-15(11-13)20(17,18)19/h3-11H,2,12H2,1H3,(H,17,18,19)
Instrument type: ESI-QTOF
Ms type: MS2
Ion mode: NEGATIVE
Ionization: ESI
Collision energy: 10
Precursor m/z: 290.0856376949
Precursor type: [M-H]-
m/z	relative intensity
170.004313	168
290.085638	999
