Mass spectrum: 2,4,5-Trichlorobenzenesulfonic acid; ESI-QTOF; MS2; CE: 40; [M-H]-
Name: 2,4,5-Trichlorobenzenesulfonic acid
Name: DTXSID2045072
Formula: C6H3Cl3O3S
Exact mass: 259.8868478226
SMILES: OS(=O)(=O)C1=CC(Cl)=C(Cl)C=C1Cl
InChI: InChI=1S/C6H3Cl3O3S/c7-3-1-5(9)6(2-4(3)8)13(10,11)12/h1-2H,(H,10,11,12)
Instrument type: ESI-QTOF
Ms type: MS2
Ion mode: NEGATIVE
Ionization: ESI
Collision energy: 40
Precursor m/z: 258.8795713709
Precursor type: [M-H]-
m/z	relative intensity
34.969401	699
79.957363	999
79.990378	29
80.965188	35
94.969401	38
114.926216	134
122.964316	123
158.940994	901
194.917671	199
258.879571	16
