Mass spectrum: 2,3-Dihydro-4-methyl-1-phenyl-1H-phosphole 1-oxide; ESI-QTOF; MS2; CE: 10; [M+H]+
Name: 2,3-Dihydro-4-methyl-1-phenyl-1H-phosphole 1-oxide
Name: DTXSID0051497
Formula: C11H13OP
Exact mass: 192.070401527
SMILES: CC1CCP(=O)(C=1)C1C=CC=CC=1
InChI: InChI=1S/C11H13OP/c1-10-7-8-13(12,9-10)11-5-3-2-4-6-11/h2-6,9H,7-8H2,1H3
Instrument type: ESI-QTOF
Ms type: MS2
Ion mode: POSITIVE
Ionization: ESI
Collision energy: 10
Precursor m/z: 193.0776779787
Precursor type: [M+H]+
m/z	relative intensity
115.030728	42
125.015078	15
193.077678	999
