Mass spectrum: Kinetin; ESI-QTOF; MS2; CE: 20; [M+H]+
Name: Kinetin
Name: DTXSID9035175
Formula: C10H9N5O
Exact mass: 215.0807099464
SMILES: C(NC1NC=NC2=NC=NC2=1)C1=CC=CO1
InChI: InChI=1S/C10H9N5O/c1-2-7(16-3-1)4-11-9-8-10(13-5-12-8)15-6-14-9/h1-3,5-6H,4H2,(H2,11,12,13,14,15)
Instrument type: ESI-QTOF
Ms type: MS2
Ion mode: POSITIVE
Ionization: ESI
Collision energy: 20
Precursor m/z: 216.0879863981
Precursor type: [M+H]+
m/z	relative intensity
53.038577	49
81.033491	999
81.069877	43
81.077087	22
82.039974	51
130.084912	25
136.061772	14
148.061772	66
188.093072	25
216.087986	38
