Mass spectrum: C.I. Acid Orange 3; ESI-QTOF; MS2; CE: 40; [M-H]-
Name: C.I. Acid Orange 3
Name: DTXSID1021081
Formula: C18H14N4O7S
Exact mass: 430.0583195623
SMILES: [O-][N+](=O)C1=CC(=C(C=C1)NC1=CC(=C(C=C1)NC1C=CC=CC=1)S(O)(=O)=O)[N+]([O-])=O
InChI: InChI=1S/C18H14N4O7S/c23-21(24)14-7-9-15(17(11-14)22(25)26)20-13-6-8-16(18(10-13)30(27,28)29)19-12-4-2-1-3-5-12/h1-11,19-20H,(H,27,28,29)
Instrument type: ESI-QTOF
Ms type: MS2
Ion mode: NEGATIVE
Ionization: ESI
Collision energy: 40
Precursor m/z: 429.0510431106
Precursor type: [M-H]-
m/z	relative intensity
45.993452	20
79.957363	310
80.965188	139
102.022347	12
166.025815	11
195.056386	12
200.04655	13
211.050649	12
226.039081	24
227.03632	13
228.041465	10
240.041465	28
247.030172	19
256.036379	28
256.100597	20
257.108422	31
258.103671	10
263.025777	17
272.095512	28
273.033936	45
273.090761	24
284.082936	27
285.090761	30
286.098586	11
289.028851	16
289.098251	16
289.9996	24
300.07785	78
301.085675	122
302.0935	198
303.088749	13
313.071762	17
315.088749	28
316.072765	10
317.08059	10
318.088415	105
319.09624	17
319.998279	24
324.057412	10
325.065237	38
329.068014	25
331.083664	405
332.091489	13
335.049587	22
336.057412	210
337.001019	11
337.059186	89
341.060151	47
347.078578	120
348.044836	39
349.052661	128
349.094229	84
352.052326	43
353.056128	10
365.047575	89
366.0554	10
381.04249	21
382.050315	999
383.05814	83
395.045564	698
396.053389	12
398.045229	103
399.053054	41
411.040478	612
412.048303	94
429.051043	267
