Mass spectrum: Thiamine thiozole; ESI-QTOF; MS2; CE: 20; [M+H]+
Name: Thiamine thiozole
Name: DTXSID3044382
Formula: C6H9NOS
Exact mass: 143.0404846468
SMILES: CC1N=CSC=1CCO
InChI: InChI=1S/C6H9NOS/c1-5-6(2-3-8)9-4-7-5/h4,8H,2-3H2,1H3
Instrument type: ESI-QTOF
Ms type: MS2
Ion mode: POSITIVE
Ionization: ESI
Collision energy: 20
Precursor m/z: 144.0477610985
Precursor type: [M+H]+
m/z	relative intensity
55.054227	12
58.994997	12
65.038577	46
70.994997	20
72.002822	16
73.010647	11
80.049476	27
85.010647	19
86.018472	16
98.005896	17
99.026297	57
112.021546	81
113.029371	999
114.037196	31
126.037196	324
144.047761	556
