Mass spectrum: (2,2-Dimethoxyethyl)benzene; ESI-QTOF; MS2; CE: 10; [M+H]+
Name: (2,2-Dimethoxyethyl)benzene
Formula: C10H14O2
Exact mass: 166.0993796912
SMILES: COC(CC1C=CC=CC=1)OC
InChI: InChI=1S/C10H14O2/c1-11-10(12-2)8-9-6-4-3-5-7-9/h3-7,10H,8H2,1-2H3
Instrument type: ESI-QTOF
Ms type: MS2
Ion mode: POSITIVE
Ionization: ESI
Collision energy: 10
Precursor m/z: 167.1066561429
Precursor type: [M+H]+
m/z	relative intensity
63.994366	42
79.017841	999
79.054227	17
107.049141	16
