Mass spectrum: N-Benzyl-N-hydroxy-1-phenylmethanamine; ESI-QTOF; MS2; CE: 20; [M+H]+
Name: N-Benzyl-N-hydroxy-1-phenylmethanamine
Name: DTXSID3044702
Formula: C14H15NO
Exact mass: 213.1153641082
SMILES: ON(CC1C=CC=CC=1)CC1C=CC=CC=1
InChI: InChI=1S/C14H15NO/c16-15(11-13-7-3-1-4-8-13)12-14-9-5-2-6-10-14/h1-10,16H,11-12H2
Instrument type: ESI-QTOF
Ms type: MS2
Ion mode: POSITIVE
Ionization: ESI
Collision energy: 20
Precursor m/z: 214.1226405599
Precursor type: [M+H]+
m/z	relative intensity
65.038577	15
91.054227	999
106.065126	55
