Mass spectrum: N,N-Dimethyloctanamide; ESI-QTOF; MS2; CE: 20; [M+H]+
Name: N,N-Dimethyloctanamide
Formula: C10H21NO
Exact mass: 171.1623142996
SMILES: CCCCCCCC(=O)N(C)C
InChI: InChI=1S/C10H21NO/c1-4-5-6-7-8-9-10(12)11(2)3/h4-9H2,1-3H3
Instrument type: ESI-QTOF
Ms type: MS2
Ion mode: POSITIVE
Ionization: ESI
Collision energy: 20
Precursor m/z: 172.1695907513
Precursor type: [M+H]+
m/z	relative intensity
41.038577	152
43.054227	333
44.049476	18
45.057301	31
46.065126	985
55.054227	36
57.033491	21
57.069877	999
57.114816	12
67.054227	35
71.049141	15
72.04439	172
87.067865	17
100.07569	11
102.09134	110
109.101177	19
116.10699	144
130.122641	42
172.169591	819
