Mass spectrum: Metepa; ESI-QTOF; MS2; CE: 20; [M+H]+
Name: Metepa
Name: DTXSID5020815
Formula: C9H18N3OP
Exact mass: 215.1187487087
SMILES: CC1CN1P(=O)(N1CC1C)N1CC1C
InChI: InChI=1S/C9H18N3OP/c1-7-4-10(7)14(13,11-5-8(11)2)12-6-9(12)3/h7-9H,4-6H2,1-3H3
Instrument type: ESI-QTOF
Ms type: MS2
Ion mode: POSITIVE
Ionization: ESI
Collision energy: 20
Precursor m/z: 216.1260251604
Precursor type: [M+H]+
m/z	relative intensity
41.038577	83
45.984112	13
46.968128	33
54.033826	44
56.049476	999
56.074938	54
56.094414	32
57.033491	24
57.057301	34
58.065126	752
58.090588	38
58.110065	21
59.072951	24
63.994366	17
70.065126	10
73.979027	21
75.994366	39
79.054227	20
83.060375	18
86.015101	224
94.065126	29
96.080776	62
98.096426	23
99.01035	12
101.026001	29
102.010016	296
103.016498	14
103.041651	13
104.025666	549
104.062362	20
104.081838	12
105.032149	19
106.041316	12
112.030752	14
117.020915	12
119.036565	72
120.056966	9
130.041316	11
130.090588	20
141.057611	39
142.041627	22
159.068176	30
