Mass spectrum: AVE2865; ESI-QTOF; MS2; CE: 20; [M+H]+
Name: AVE2865
Name: DTXSID5047376
Formula: C20H17ClF3N3O4
Exact mass: 455.0859683637
SMILES: OC(=O)C1CCN(CC1)C1C=CC(F)=CC=1NC(=O)NC(=O)C1=CC(F)=C(F)C=C1Cl
InChI: InChI=1S/C20H17ClF3N3O4/c21-13-9-15(24)14(23)8-12(13)18(28)26-20(31)25-16-7-11(22)1-2-17(16)27-5-3-10(4-6-27)19(29)30/h1-2,7-10H,3-6H2,(H,29,30)(H2,25,26,28,31)
Instrument type: ESI-QTOF
Ms type: MS2
Ion mode: POSITIVE
Ionization: ESI
Collision energy: 20
Precursor m/z: 456.0932448154
Precursor type: [M+H]+
m/z	relative intensity
165.045867	29
247.087732	40
265.098297	999
456.093245	23
