Mass spectrum: 2-Acetylpyrrole; ESI-QTOF; MS2; CE: 10; [M-H]-
Name: 2-Acetylpyrrole
Formula: C6H7NO
Exact mass: 109.052763853
SMILES: CC(=O)C1=CC=CN1
InChI: InChI=1S/C6H7NO/c1-5(8)6-3-2-4-7-6/h2-4,7H,1H3
Instrument type: ESI-QTOF
Ms type: MS2
Ion mode: NEGATIVE
Ionization: ESI
Collision energy: 10
Precursor m/z: 108.0454874013
Precursor type: [M-H]-
m/z	relative intensity
41.003288	34
66.034923	787
108.045487	999
