Mass spectrum: N,N'-Disalicylidene-1,2-diaminopropane; ESI-QTOF; MS2; CE: 40; [M+H]+
Name: N,N'-Disalicylidene-1,2-diaminopropane
Formula: C17H18N2O2
Exact mass: 282.1368278336
SMILES: CC(C/N=C/C1=CC=CC=C1O)/N=C/C1=CC=CC=C1O
InChI: InChI=1S/C17H18N2O2/c1-13(19-12-15-7-3-5-9-17(15)21)10-18-11-14-6-2-4-8-16(14)20/h2-9,11-13,20-21H,10H2,1H3/b18-11+,19-12+
Instrument type: ESI-QTOF
Ms type: MS2
Ion mode: POSITIVE
Ionization: ESI
Collision energy: 40
Precursor m/z: 283.1441042853
Precursor type: [M+H]+
m/z	relative intensity
41.038577	74
42.033826	53
44.049476	142
56.049476	173
58.065126	29
68.049476	27
77.038577	172
79.054227	125
91.054227	159
93.057301	13
93.069877	23
94.065126	14
95.049141	66
103.054227	27
105.069877	19
107.049141	999
107.085527	32
115.054227	235
116.062052	21
117.069877	151
120.04439	32
121.052215	26
121.064791	46
122.06004	81
127.054227	127
131.049141	61
132.080776	11
133.052215	55
134.06004	27
144.056966	74
144.080776	21
145.064791	807
145.10973	22
145.13354	11
146.06004	41
147.067865	36
148.07569	30
153.069877	13
162.09134	22
165.069877	14
181.064791	21
