Mass spectrum: 2,3-Quinolinedicarboxylic acid; ESI-QTOF; MS2; CE: 10; [M+H]+
Name: 2,3-Quinolinedicarboxylic acid
Name: DTXSID9027281
Formula: C11H7NO4
Exact mass: 217.0375077199
SMILES: OC(=O)C1N=C2C=CC=CC2=CC=1C(O)=O
InChI: InChI=1S/C11H7NO4/c13-10(14)7-5-6-3-1-2-4-8(6)12-9(7)11(15)16/h1-5H,(H,13,14)(H,15,16)
Instrument type: ESI-QTOF
Ms type: MS2
Ion mode: POSITIVE
Ionization: ESI
Collision energy: 10
Precursor m/z: 218.0447841716
Precursor type: [M+H]+
m/z	relative intensity
128.049476	123
156.04439	153
172.039305	32
174.054955	659
200.034219	999
218.044784	239
