Mass spectrum: Pirinixic acid; ESI-QTOF; MS2; CE: 10; [M-H]-
Name: Pirinixic acid
Name: DTXSID4020290
Formula: C14H14ClN3O2S
Exact mass: 323.0495251534
SMILES: CC1C(=CC=CC=1C)NC1C=C(Cl)N=C(N=1)SCC(O)=O
InChI: InChI=1S/C14H14ClN3O2S/c1-8-4-3-5-10(9(8)2)16-12-6-11(15)17-14(18-12)21-7-13(19)20/h3-6H,7H2,1-2H3,(H,19,20)(H,16,17,18)
Instrument type: ESI-QTOF
Ms type: MS2
Ion mode: NEGATIVE
Ionization: ESI
Collision energy: 10
Precursor m/z: 322.0422487017
Precursor type: [M-H]-
m/z	relative intensity
169.077122	13
248.059613	53
278.052419	999
322.042249	26
