Mass spectrum: 6-Nitrobenzimidazole; ESI-QTOF; MS2; CE: 10; [M-H]-
Name: 6-Nitrobenzimidazole
Formula: C7H5N3O2
Exact mass: 163.0381764263
SMILES: [O-][N+](=O)C1=CC2N=CNC=2C=C1
InChI: InChI=1S/C7H5N3O2/c11-10(12)5-1-2-6-7(3-5)9-4-8-6/h1-4H,(H,8,9)
Instrument type: ESI-QTOF
Ms type: MS2
Ion mode: NEGATIVE
Ionization: ESI
Collision energy: 10
Precursor m/z: 162.0308999746
Precursor type: [M-H]-
m/z	relative intensity
116.037997	92
132.032911	227
162.0309	999
