Mass spectrum: AM580; ESI-QTOF; MS2; CE: 10; [M+H]+
Name: AM580
Formula: C22H25NO3
Exact mass: 351.1834436718
SMILES: CC1(C)CCC(C)(C)C2C=CC(=CC1=2)C(=O)NC1C=CC(=CC=1)C(O)=O
InChI: InChI=1S/C22H25NO3/c1-21(2)11-12-22(3,4)18-13-15(7-10-17(18)21)19(24)23-16-8-5-14(6-9-16)20(25)26/h5-10,13H,11-12H2,1-4H3,(H,23,24)(H,25,26)
Instrument type: ESI-QTOF
Ms type: MS2
Ion mode: POSITIVE
Ionization: ESI
Collision energy: 10
Precursor m/z: 352.1907201235
Precursor type: [M+H]+
m/z	relative intensity
215.143042	32
352.19072	999
