Mass spectrum: AVE9423; ESI-QTOF; MS2; CE: 40; [M-H]-
Name: AVE9423
Formula: C23H12Cl2F2N2O5
Exact mass: 504.0091333291
SMILES: OC(=O)C1=CC=CC=C1N1C=C(C(=O)C2C=C(NC3C(Cl)=CC(F)=CC=3F)C(Cl)=CC1=2)C(O)=O
InChI: InChI=1S/C23H12Cl2F2N2O5/c24-14-8-19-12(7-17(14)28-20-15(25)5-10(26)6-16(20)27)21(30)13(23(33)34)9-29(19)18-4-2-1-3-11(18)22(31)32/h1-9,28H,(H,31,32)(H,33,34)
Instrument type: ESI-QTOF
Ms type: MS2
Ion mode: NEGATIVE
Ionization: ESI
Collision energy: 40
Precursor m/z: 503.0018568774
Precursor type: [M-H]-
m/z	relative intensity
34.969401	165
146.981858	14
267.0364	11
274.010994	11
275.061077	18
283.007505	24
289.058278	42
290.066103	11
295.068843	50
302.006395	182
303.011053	20
303.056386	40
305.028728	64
306.036066	21
314.066103	62
315.073928	94
317.977013	130
318.98467	61
322.055477	16
323.062615	172
324.066617	14
325.034956	26
330.036553	64
331.044378	357
332.047893	29
333.023642	10
338.990898	140
339.029897	23
342.061018	101
343.068843	470
344.072845	55
351.050606	121
358.031467	101
359.039292	999
360.043295	84
361.034956	11
362.042781	10
367.021056	49
377.002725	36
377.029871	144
378.011206	20
378.035016	22
379.045521	34
382.980728	77
389.006548	11
395.017113	36
421.0197	19
