Mass spectrum: 5-Methoxypsoralen; ESI-QTOF; MS2; CE: 40; [M+H]+
Name: 5-Methoxypsoralen
Name: DTXSID1025560
Formula: C12H8O4
Exact mass: 216.0422587444
SMILES: COC1=C2C=COC2=CC2OC(=O)C=CC=21
InChI: InChI=1S/C12H8O4/c1-14-12-7-2-3-11(13)16-10(7)6-9-8(12)4-5-15-9/h2-6H,1H3
Instrument type: ESI-QTOF
Ms type: MS2
Ion mode: POSITIVE
Ionization: ESI
Collision energy: 40
Precursor m/z: 217.0495351961
Precursor type: [M+H]+
m/z	relative intensity
39.022927	13
41.038577	56
43.017841	13
43.054227	16
45.033491	52
51.022927	25
53.002191	11
53.038577	11
55.017841	53
55.054227	56
59.049141	11
63.022927	44
64.030752	16
65.038577	24
66.046402	15
68.025666	15
69.033491	10
74.015101	78
75.022927	20
76.030752	10
77.038577	71
78.046402	20
79.054227	23
80.062052	10
81.018235	11
87.00767	11
89.038577	390
90.046402	999
91.054227	26
92.025666	80
100.030752	112
101.02332	44
101.038577	54
101.99476	12
102.046402	123
103.054227	53
105.033491	10
115.054227	129
117.033491	59
118.041316	968
120.020581	61
121.028406	21
128.025666	51
128.062052	30
129.033491	22
131.049141	80
135.00767	10
143.049141	21
145.028406	131
146.036231	578
156.020581	180
156.04171	16
158.036231	23
173.02332	22
174.031145	776
184.015495	11
202.02606	297
