Mass spectrum: 4-(3-Methyl-5-oxo-4,5-dihydro-1H-pyrazol-1-yl)benzoic acid; ESI-QTOF; MS2; CE: 20; [M+H]+
Name: 4-(3-Methyl-5-oxo-4,5-dihydro-1H-pyrazol-1-yl)benzoic acid
Name: DTXSID8044963
Formula: C11H10N2O3
Exact mass: 218.0691422007
SMILES: CC1CC(=O)N(N=1)C1C=CC(=CC=1)C(O)=O
InChI: InChI=1S/C11H10N2O3/c1-7-6-10(14)13(12-7)9-4-2-8(3-5-9)11(15)16/h2-5H,6H2,1H3,(H,15,16)
Instrument type: ESI-QTOF
Ms type: MS2
Ion mode: POSITIVE
Ionization: ESI
Collision energy: 20
Precursor m/z: 219.0764186524
Precursor type: [M+H]+
m/z	relative intensity
42.033826	45
44.049476	107
54.033826	37
56.049476	21
65.038577	38
77.038577	14
79.054227	28
82.02874	70
82.05255	19
84.04439	12
92.049476	43
93.033491	40
104.049476	18
106.065126	107
107.060375	10
117.057301	36
118.065126	33
120.080776	15
130.065126	83
131.060375	13
131.072951	10
132.04439	23
132.0682	30
132.080776	20
133.076025	138
134.06004	42
135.055289	60
145.076025	54
146.08385	81
147.091675	41
148.039305	19
150.054955	28
158.06004	13
160.039305	19
173.070939	71
174.054955	33
174.078764	19
175.086589	145
177.065854	79
179.045119	31
191.081504	51
201.065854	116
219.076419	999
