Mass spectrum: 3,4-Diaminotoluene; ESI-QTOF; MS2; CE: 40; [M+H]+
Name: 3,4-Diaminotoluene
Name: DTXSID9024930
Formula: C7H10N2
Exact mass: 122.0843983338
SMILES: CC1C=C(N)C(N)=CC=1
InChI: InChI=1S/C7H10N2/c1-5-2-3-6(8)7(9)4-5/h2-4H,8-9H2,1H3
Instrument type: ESI-QTOF
Ms type: MS2
Ion mode: POSITIVE
Ionization: ESI
Collision energy: 40
Precursor m/z: 123.0916747855
Precursor type: [M+H]+
m/z	relative intensity
39.022927	57
41.026001	22
42.033826	15
50.015101	10
51.022927	545
52.018175	16
53.038577	102
54.033826	41
63.022927	83
64.030752	31
65.038577	19
66.033826	21
66.046402	16
67.041651	85
77.038577	999
78.033826	13
78.046402	25
79.054227	106
80.049476	132
81.057301	23
89.038577	17
91.041651	52
104.049476	19
106.065126	24
107.060375	27
108.0682	15
