Mass spectrum: 1-Methyl-1,3-dihydro-2H-benzimidazole-2-thione; ESI-QTOF; MS2; CE: 20; [M+H]+
Name: 1-Methyl-1,3-dihydro-2H-benzimidazole-2-thione
Name: DTXSID40178252
Formula: C8H8N2S
Exact mass: 164.040819
SMILES: CN1C(=S)NC2=CC=CC=C12
InChI: InChI=1S/C8H8N2S/c1-10-7-5-3-2-4-6(7)9-8(10)11/h2-5H,1H3,(H,9,11)
Instrument type: ESI-QTOF
Ms type: MS2
Ion mode: POSITIVE
Ionization: ESI
Collision energy: 20
Precursor m/z: 165.0480954517
Precursor type: [M+H]+
m/z	relative intensity
92.049476	18
104.049476	11
106.065126	28
107.072951	74
119.060375	27
124.021546	16
131.060375	59
132.0682	384
133.076025	98
150.02462	218
163.032445	23
165.048095	999
