Mass spectrum: 3'-Methyl-4-dimethylaminoazobenzene; ESI-QTOF; MS2; CE: 40; [M+H]+
Name: 3'-Methyl-4-dimethylaminoazobenzene
Name: DTXSID8020838
Formula: C15H17N3
Exact mass: 239.1422475645
SMILES: CC1C=CC=C(C=1)/N=N/C1C=CC(=CC=1)N(C)C
InChI: InChI=1S/C15H17N3/c1-12-5-4-6-14(11-12)17-16-13-7-9-15(10-8-13)18(2)3/h4-11H,1-3H3/b17-16+
Instrument type: ESI-QTOF
Ms type: MS2
Ion mode: POSITIVE
Ionization: ESI
Collision energy: 40
Precursor m/z: 240.1495240162
Precursor type: [M+H]+
m/z	relative intensity
39.022927	16
41.038577	21
42.033826	11
65.038577	429
66.046402	22
68.049476	26
77.038577	23
79.054227	17
91.054227	999
91.110399	14
92.049476	21
92.062052	80
93.044725	28
106.065126	22
119.060375	65
120.080776	206
121.088601	36
133.076025	141
134.08385	27
