Mass spectrum: 4-(Diglycidylamino)phenyl glycidyl ether; ESI-QTOF; MS2; CE: 10; [M+H]+
Name: 4-(Diglycidylamino)phenyl glycidyl ether
Name: DTXSID8027585
Formula: C15H19NO4
Exact mass: 277.1314081027
SMILES: C(C1CO1)N(CC1CO1)C1C=CC(=CC=1)OCC1CO1
InChI: InChI=1S/C15H19NO4/c1-3-12(17-9-15-10-20-15)4-2-11(1)16(5-13-7-18-13)6-14-8-19-14/h1-4,13-15H,5-10H2
Instrument type: ESI-QTOF
Ms type: MS2
Ion mode: POSITIVE
Ionization: ESI
Collision energy: 10
Precursor m/z: 278.1386845544
Precursor type: [M+H]+
m/z	relative intensity
57.033491	12
134.06004	10
146.06004	24
148.07569	13
160.07569	18
164.070605	15
172.07569	16
174.09134	16
176.070605	58
178.086255	20
190.086255	37
191.09408	10
192.101905	56
202.086255	49
203.09408	35
204.101905	64
205.10973	17
216.101905	19
218.117555	25
220.09682	140
221.104645	141
230.117555	28
234.11247	126
247.120295	15
248.12812	91
260.12812	126
278.138685	999
