Mass spectrum: 2-(Diethylamino)ethyl acrylate; ESI-QTOF; MS2; CE: 20; [M+H]+
Name: 2-(Diethylamino)ethyl acrylate
Name: DTXSID4051900
Formula: C9H17NO2
Exact mass: 171.1259287943
SMILES: CCN(CCOC(=O)C=C)CC
InChI: InChI=1S/C9H17NO2/c1-4-9(11)12-8-7-10(5-2)6-3/h4H,1,5-8H2,2-3H3
Instrument type: ESI-QTOF
Ms type: MS2
Ion mode: POSITIVE
Ionization: ESI
Collision energy: 20
Precursor m/z: 172.133205246
Precursor type: [M+H]+
m/z	relative intensity
27.022927	14
44.049476	197
44.062052	11
55.017841	541
55.041651	20
57.033491	10
72.080776	179
84.080776	32
99.044056	999
99.080441	11
100.112076	476
102.09134	29
118.122641	22
144.101905	12
172.133205	61
