Mass spectrum: Penicillin VK; ESI-QTOF; MS2; CE: 20; [M+K]+
Name: Penicillin VK
Name: DTXSID7021102
Formula: C16H18N2O5S
Exact mass: 350.0936424305
SMILES: CC1(C)SC2C(NC(=O)COC3C=CC=CC=3)C(=O)N2C1C(O)=O
InChI: InChI=1S/C16H18N2O5S/c1-16(2)12(15(21)22)18-13(20)11(14(18)24-16)17-10(19)8-23-9-6-4-3-5-7-9/h3-7,11-12,14H,8H2,1-2H3,(H,17,19)(H,21,22)
Instrument type: ESI-QTOF
Ms type: MS2
Ion mode: POSITIVE
Ionization: ESI
Collision energy: 20
Precursor m/z: 389.0568007503
Precursor type: [M+K]+
m/z	relative intensity
38.963158	999
230.023655	13
389.056801	39
