Mass spectrum: 6-Methyl-3-hydroxypyridine; ESI-QTOF; MS2; CE: 10; [M+H]+
Name: 6-Methyl-3-hydroxypyridine
Formula: C6H7NO
Exact mass: 109.052763853
SMILES: CC1C=CC(O)=CN=1
InChI: InChI=1S/C6H7NO/c1-5-2-3-6(8)4-7-5/h2-4,8H,1H3
Instrument type: ESI-QTOF
Ms type: MS2
Ion mode: POSITIVE
Ionization: ESI
Collision energy: 10
Precursor m/z: 110.0600403047
Precursor type: [M+H]+
m/z	relative intensity
67.041651	11
82.065126	27
110.06004	999
