Mass spectrum: FR145237; ESI-QTOF; MS2; CE: 40; [M-H]-
Name: FR145237
Name: DTXSID6048171
Formula: C30H22ClF3N2O2
Exact mass: 534.1321902712
SMILES: CC1=CC2C(C3C=CC(Cl)=CC=3)=C(CN(CC3C=CC=CC=3)C(=O)NC3C(F)=CC(F)=CC=3F)OC=2C=C1
InChI: InChI=1S/C30H22ClF3N2O2/c1-18-7-12-26-23(13-18)28(20-8-10-21(31)11-9-20)27(38-26)17-36(16-19-5-3-2-4-6-19)30(37)35-29-24(33)14-22(32)15-25(29)34/h2-15H,16-17H2,1H3,(H,35,37)
Instrument type: ESI-QTOF
Ms type: MS2
Ion mode: NEGATIVE
Ionization: ESI
Collision energy: 40
Precursor m/z: 533.1249138195
Precursor type: [M-H]-
m/z	relative intensity
34.969401	212
41.998537	100
52.019273	21
91.055324	452
107.017676	22
107.050238	15
111.000701	18
116.037997	11
116.050573	72
118.066223	999
118.103751	17
130.066223	12
135.01259	106
146.022307	68
154.010994	49
161.017494	11
164.026763	23
167.018819	34
168.019233	27
172.002059	15
179.0051	24
233.084613	654
234.087313	11
241.042566	178
242.051534	11
243.059359	14
244.057944	16
251.062615	37
255.058216	63
257.075009	14
267.073928	61
268.054608	31
269.060803	95
271.06953	261
283.069986	14
291.057529	10
295.06953	17
343.082562	11
347.061472	21
360.117208	29
366.079862	13
379.053131	29
386.086777	203
393.002026	10
393.061171	229
402.057682	89
422.062768	46
