Mass spectrum: N,N'-Disalicylidene-1,2-diaminopropane; ESI-QTOF; MS2; CE: 20; [M+H]+
Name: N,N'-Disalicylidene-1,2-diaminopropane
Formula: C17H18N2O2
Exact mass: 282.1368278336
SMILES: CC(C/N=C/C1=CC=CC=C1O)/N=C/C1=CC=CC=C1O
InChI: InChI=1S/C17H18N2O2/c1-13(19-12-15-7-3-5-9-17(15)21)10-18-11-14-6-2-4-8-16(14)20/h2-9,11-13,20-21H,10H2,1H3/b18-11+,19-12+
Instrument type: ESI-QTOF
Ms type: MS2
Ion mode: POSITIVE
Ionization: ESI
Collision energy: 20
Precursor m/z: 283.1441042853
Precursor type: [M+H]+
m/z	relative intensity
44.049476	66
56.049476	107
58.065126	114
77.038577	12
91.054227	11
107.049141	199
115.054227	13
117.069877	29
121.064791	32
122.06004	111
127.054227	13
134.06004	13
135.080441	24
145.064791	941
145.10973	31
145.13354	15
147.067865	12
148.07569	30
149.083515	14
162.09134	999
162.140302	34
177.102239	37
183.080441	25
209.059706	69
211.075356	30
224.070605	40
226.086255	88
240.101905	18
266.117555	26
283.144104	385
