Mass spectrum: 2,6-Di(butan-2-yl)phenol; ESI-QTOF; MS2; CE: 10; [M-H]-
Name: 2,6-Di(butan-2-yl)phenol
Name: DTXSID0044440
Formula: C14H22O
Exact mass: 206.1670653241
SMILES: CC(CC)C1=CC=CC(C(C)CC)=C1O
InChI: InChI=1S/C14H22O/c1-5-10(3)12-8-7-9-13(14(12)15)11(4)6-2/h7-11,15H,5-6H2,1-4H3
Instrument type: ESI-QTOF
Ms type: MS2
Ion mode: NEGATIVE
Ionization: ESI
Collision energy: 10
Precursor m/z: 205.1597888724
Precursor type: [M-H]-
m/z	relative intensity
205.159789	999
