Mass spectrum: N-(Isobutoxymethyl)acrylamide; ESI-QTOF; MS2; CE: 10; [M-H]-
Name: N-(Isobutoxymethyl)acrylamide
Name: DTXSID2044848
Formula: C8H15NO2
Exact mass: 157.1102787305
SMILES: CC(C)COCNC(=O)C=C
InChI: InChI=1S/C8H15NO2/c1-4-8(10)9-6-11-5-7(2)3/h4,7H,1,5-6H2,2-3H3,(H,9,10)
Instrument type: ESI-QTOF
Ms type: MS2
Ion mode: NEGATIVE
Ionization: ESI
Collision energy: 10
Precursor m/z: 156.1030022788
Precursor type: [M-H]-
m/z	relative intensity
41.998537	470
42.011113	15
52.019273	38
71.050238	999
71.086624	18
73.065888	992
73.102274	17
84.045487	80
156.103002	26
