Mass spectrum: 4-Vinylpyridine; ESI-QTOF; MS2; CE: 10; [M+H]+
Name: 4-Vinylpyridine
Formula: C7H7N
Exact mass: 105.0578492307
SMILES: C=CC1C=CN=CC=1
InChI: InChI=1S/C7H7N/c1-2-7-3-5-8-6-4-7/h2-6H,1H2
Instrument type: ESI-QTOF
Ms type: MS2
Ion mode: POSITIVE
Ionization: ESI
Collision energy: 10
Precursor m/z: 106.0651256824
Precursor type: [M+H]+
m/z	relative intensity
77.038577	35
78.033826	30
79.054227	17
80.049476	15
106.065126	999
