Mass spectrum: 1-Octyl-2-pyrrolidone; ESI-QTOF; MS2; CE: 40; [M+H]+
Name: 1-Octyl-2-pyrrolidone
Name: DTXSID4036435
Formula: C12H23NO
Exact mass: 197.1779643634
SMILES: CCCCCCCCN1CCCC1=O
InChI: InChI=1S/C12H23NO/c1-2-3-4-5-6-7-10-13-11-8-9-12(13)14/h2-11H2,1H3
Instrument type: ESI-QTOF
Ms type: MS2
Ion mode: POSITIVE
Ionization: ESI
Collision energy: 40
Precursor m/z: 198.1852408151
Precursor type: [M+H]+
m/z	relative intensity
39.022927	18
41.038577	635
42.033826	11
43.054227	999
44.01309	315
44.049476	31
55.054227	32
57.069877	166
58.065126	15
68.049476	29
69.033491	280
86.06004	843
86.096426	17
86.109002	10
