Mass spectrum: Diethyl decanedioate; ESI-QTOF; MS2; CE: 10; [M+H]+
Name: Diethyl decanedioate
Formula: C14H26O4
Exact mass: 258.1831093186
SMILES: CCOC(=O)CCCCCCCCC(=O)OCC
InChI: InChI=1S/C14H26O4/c1-3-17-13(15)11-9-7-5-6-8-10-12-14(16)18-4-2/h3-12H2,1-2H3
Instrument type: ESI-QTOF
Ms type: MS2
Ion mode: POSITIVE
Ionization: ESI
Collision energy: 10
Precursor m/z: 259.1903857703
Precursor type: [M+H]+
m/z	relative intensity
43.017841	18
55.054227	13
67.054227	11
69.069877	49
81.069877	54
83.049141	14
93.069877	13
95.085527	21
97.064791	18
97.101177	29
107.085527	30
111.116827	60
121.101177	264
131.085527	46
139.111742	429
149.096091	159
157.122306	11
167.106656	90
185.117221	11
185.153606	137
195.137956	17
213.148521	999
259.190386	25
