Mass spectrum: 4-Phenoxyphenol; ESI-QTOF; MS2; CE: 10; [M-H]-
Name: 4-Phenoxyphenol
Formula: C12H10O2
Exact mass: 186.0680795636
SMILES: OC1C=CC(=CC=1)OC1C=CC=CC=1
InChI: InChI=1S/C12H10O2/c13-10-6-8-12(9-7-10)14-11-4-2-1-3-5-11/h1-9,13H
Instrument type: ESI-QTOF
Ms type: MS2
Ion mode: NEGATIVE
Ionization: ESI
Collision energy: 10
Precursor m/z: 185.0608031119
Precursor type: [M-H]-
m/z	relative intensity
108.021678	999
108.058063	26
129.070974	11
157.065888	28
185.060803	918
