Mass spectrum: HC Red 3; ESI-QTOF; MS2; CE: 10; [M+H]+
Name: HC Red 3
Name: DTXSID2021236
Formula: C8H11N3O3
Exact mass: 197.08004124
SMILES: NC1=CC(=C(C=C1)NCCO)[N+]([O-])=O
InChI: InChI=1S/C8H11N3O3/c9-6-1-2-7(10-3-4-12)8(5-6)11(13)14/h1-2,5,10,12H,3-4,9H2
Instrument type: ESI-QTOF
Ms type: MS2
Ion mode: POSITIVE
Ionization: ESI
Collision energy: 10
Precursor m/z: 198.0873176917
Precursor type: [M+H]+
m/z	relative intensity
45.033491	29
95.060375	70
118.041316	14
119.047799	19
120.055624	13
122.071274	101
132.0682	16
133.039639	13
133.063449	999
134.071274	38
136.050538	168
137.070939	15
138.067531	15
145.063449	22
149.058363	11
150.066188	199
153.053278	14
162.066188	12
163.074013	176
164.081838	26
167.057695	13
180.076753	383
181.084578	10
198.087318	387
