Mass spectrum: Tetrahydrocurcumin; ESI-QTOF; MS2; CE: 40; [M-H]-
Name: Tetrahydrocurcumin
Name: DTXSID30865801
Formula: C21H24O6
Exact mass: 372.1572884994
SMILES: COC1C=C(CCC(=O)CC(=O)CCC2C=C(OC)C(O)=CC=2)C=CC=1O
InChI: InChI=1S/C21H24O6/c1-26-20-11-14(5-9-18(20)24)3-7-16(22)13-17(23)8-4-15-6-10-19(25)21(12-15)27-2/h5-6,9-12,24-25H,3-4,7-8,13H2,1-2H3
Instrument type: ESI-QTOF
Ms type: MS2
Ion mode: NEGATIVE
Ionization: ESI
Collision energy: 40
Precursor m/z: 371.1500120477
Precursor type: [M-H]-
m/z	relative intensity
41.003288	227
57.034588	999
57.070974	13
69.034588	17
91.018938	18
99.045153	765
99.081539	13
108.021678	75
111.045153	14
121.029503	74
123.045153	55
134.037328	56
135.045153	738
136.052978	12
149.060803	30
160.052978	21
161.024418	14
162.032243	65
163.040068	16
177.055718	320
178.063543	351
193.087018	98
