Mass spectrum: 2-Methoxy-4-nitroaniline; ESI-QTOF; MS2; CE: 20; [M+H]+
Name: 2-Methoxy-4-nitroaniline
Formula: C7H8N2O3
Exact mass: 168.0534921369
SMILES: COC1=CC(=CC=C1N)[N+]([O-])=O
InChI: InChI=1S/C7H8N2O3/c1-12-7-4-5(9(10)11)2-3-6(7)8/h2-4H,8H2,1H3
Instrument type: ESI-QTOF
Ms type: MS2
Ion mode: POSITIVE
Ionization: ESI
Collision energy: 20
Precursor m/z: 169.0607685886
Precursor type: [M+H]+
m/z	relative intensity
43.017841	10
53.038577	19
63.994366	12
64.015495	16
65.038577	18
67.054227	66
68.997106	12
76.002919	11
77.038577	205
79.017841	11
81.020915	50
81.069877	15
90.033826	23
91.017841	14
91.041651	10
92.049476	66
93.057301	31
93.069877	14
94.065126	56
107.036565	13
108.04439	14
111.00767	12
122.06004	999
123.067865	10
137.034554	11
141.054621	14
152.058029	505
