Mass spectrum: 1,2,3,4-Butanetetracarboxylic acid; ESI-QTOF; MS2; CE: 40; [M-H]-
Name: 1,2,3,4-Butanetetracarboxylic acid
Name: DTXSID6024670
Formula: C8H10O8
Exact mass: 234.0375672974
SMILES: OC(=O)CC(C(CC(O)=O)C(O)=O)C(O)=O
InChI: InChI=1S/C8H10O8/c9-5(10)1-3(7(13)14)4(8(15)16)2-6(11)12/h3-4H,1-2H2,(H,9,10)(H,11,12)(H,13,14)(H,15,16)
Instrument type: ESI-QTOF
Ms type: MS2
Ion mode: NEGATIVE
Ionization: ESI
Collision energy: 40
Precursor m/z: 233.0302908457
Precursor type: [M-H]-
m/z	relative intensity
39.024024	388
41.003288	752
41.039674	43
53.039674	131
55.018938	999
55.040068	10
55.055324	11
56.026763	22
57.034588	14
59.013853	532
65.039674	28
67.018938	475
71.013853	428
73.029503	325
81.034588	628
81.070974	14
83.013853	38
83.050238	971
85.029503	85
98.000943	16
99.008768	708
101.060803	194
109.029503	18
111.008768	623
117.019332	18
127.040068	27
129.019332	10
