Mass spectrum: 1-Cyclohexylpyrrolidin-2-one; ESI-QTOF; MS2; CE: 10; [M+H]+
Name: 1-Cyclohexylpyrrolidin-2-one
Name: DTXSID7044716
Formula: C10H17NO
Exact mass: 167.131014172
SMILES: O=C1CCCN1C1CCCCC1
InChI: InChI=1S/C10H17NO/c12-10-7-4-8-11(10)9-5-2-1-3-6-9/h9H,1-8H2
Instrument type: ESI-QTOF
Ms type: MS2
Ion mode: POSITIVE
Ionization: ESI
Collision energy: 10
Precursor m/z: 168.1382906237
Precursor type: [M+H]+
m/z	relative intensity
55.054227	26
83.085527	41
86.06004	348
168.138291	999
