Mass spectrum: Triethylene glycol dibenzoate; ESI-QTOF; MS2; CE: 20; [M+H]+
Name: Triethylene glycol dibenzoate
Formula: C20H22O6
Exact mass: 358.1416384356
SMILES: O=C(OCCOCCOCCOC(=O)C1C=CC=CC=1)C1C=CC=CC=1
InChI: InChI=1S/C20H22O6/c21-19(17-7-3-1-4-8-17)25-15-13-23-11-12-24-14-16-26-20(22)18-9-5-2-6-10-18/h1-10H,11-16H2
Instrument type: ESI-QTOF
Ms type: MS2
Ion mode: POSITIVE
Ionization: ESI
Collision energy: 20
Precursor m/z: 359.1489148873
Precursor type: [M+H]+
m/z	relative intensity
77.038577	17
105.033491	140
149.059706	999
