Mass spectrum: N-(2,4-Dimethylphenyl)-3-oxobutanamide; ESI-QTOF; MS2; CE: 40; [M-H]-
Name: N-(2,4-Dimethylphenyl)-3-oxobutanamide
Formula: C12H15NO2
Exact mass: 205.1102787305
SMILES: CC(=O)CC(=O)NC1=CC=C(C)C=C1C
InChI: InChI=1S/C12H15NO2/c1-8-4-5-11(9(2)6-8)13-12(15)7-10(3)14/h4-6H,7H2,1-3H3,(H,13,15)
Instrument type: ESI-QTOF
Ms type: MS2
Ion mode: NEGATIVE
Ionization: ESI
Collision energy: 40
Precursor m/z: 204.1030022788
Precursor type: [M-H]-
m/z	relative intensity
39.024024	42
41.003288	740
41.027098	16
57.034588	999
57.058398	23
57.079527	12
65.003288	13
83.013853	594
83.050238	12
120.081873	46
