Mass spectrum: 1,4-Diaminoanthraquinone; ESI-QTOF; MS2; CE: 40; [M+H]+
Name: 1,4-Diaminoanthraquinone
Formula: C14H10N2O2
Exact mass: 238.0742275784
SMILES: NC1=CC=C(N)C2=C1C(=O)C1=CC=CC=C1C2=O
InChI: InChI=1S/C14H10N2O2/c15-9-5-6-10(16)12-11(9)13(17)7-3-1-2-4-8(7)14(12)18/h1-6H,15-16H2
Instrument type: ESI-QTOF
Ms type: MS2
Ion mode: POSITIVE
Ionization: ESI
Collision energy: 40
Precursor m/z: 239.0815040301
Precursor type: [M+H]+
m/z	relative intensity
39.01035	109
61.007276	27
83.00018	999
83.036565	17
83.999451	10
101.99744	150
105.033491	22
117.020915	101
139.054227	11
140.049476	22
161.013424	12
166.065126	35
167.072951	11
192.0682	16
238.073679	17
