Mass spectrum: PharmaGSID_48506; ESI-QTOF; MS2; CE: 10; [M-H]-
Name: PharmaGSID_48506
Name: DTXSID5048506
Formula: C19H22ClN3O3S
Exact mass: 407.1070400309
SMILES: CS(=O)(=O)C1=CC=C(C=C1Cl)C(CC1CCCC1)C(=O)NC1C=NC=CN=1
InChI: InChI=1S/C19H22ClN3O3S/c1-27(25,26)17-7-6-14(11-16(17)20)15(10-13-4-2-3-5-13)19(24)23-18-12-21-8-9-22-18/h6-9,11-13,15H,2-5,10H2,1H3,(H,22,23,24)
Instrument type: ESI-QTOF
Ms type: MS2
Ion mode: NEGATIVE
Ionization: ESI
Collision energy: 10
Precursor m/z: 406.0997635792
Precursor type: [M-H]-
m/z	relative intensity
285.072152	999
285.137042	41
285.160852	19
406.099764	92
