Mass spectrum: 3-Chloro-7-hydroxy-4-methyl-2-benzopyrone; ESI-QTOF; MS2; CE: 20; [M+H]+
Name: 3-Chloro-7-hydroxy-4-methyl-2-benzopyrone
Name: DTXSID8052724
Formula: C10H7ClO3
Exact mass: 210.0083718002
SMILES: CC1=C(Cl)C(=O)OC2C=C(O)C=CC=21
InChI: InChI=1S/C10H7ClO3/c1-5-7-3-2-6(12)4-8(7)14-10(13)9(5)11/h2-4,12H,1H3
Instrument type: ESI-QTOF
Ms type: MS2
Ion mode: POSITIVE
Ionization: ESI
Collision energy: 20
Precursor m/z: 211.0156482519
Precursor type: [M+H]+
m/z	relative intensity
65.038577	10
68.997106	18
77.038577	16
91.054227	12
103.054227	130
119.049141	75
131.049141	344
132.056966	243
147.044056	62
148.051881	138
155.025819	56
167.025819	14
175.038971	44
176.046796	13
211.015648	999
