Mass spectrum: N-(2-Methoxyphenyl)-3-oxobutanamide; ESI-QTOF; MS2; CE: 40; [M-H]-
Name: N-(2-Methoxyphenyl)-3-oxobutanamide
Formula: C11H13NO3
Exact mass: 207.089543289
SMILES: CC(=O)CC(=O)NC1C=CC=CC=1OC
InChI: InChI=1S/C11H13NO3/c1-8(13)7-11(14)12-9-5-3-4-6-10(9)15-2/h3-6H,7H2,1-2H3,(H,12,14)
Instrument type: ESI-QTOF
Ms type: MS2
Ion mode: NEGATIVE
Ionization: ESI
Collision energy: 40
Precursor m/z: 206.0822668373
Precursor type: [M-H]-
m/z	relative intensity
39.024024	22
41.003288	435
57.034588	384
83.013853	361
107.037662	999
107.074048	17
