Mass spectrum: 4-Chloropyridine 1-oxide; ESI-QTOF; MS2; CE: 40; [M+H]+
Name: 4-Chloropyridine 1-oxide
Formula: C5H4ClNO
Exact mass: 128.9981414673
SMILES: [O-][N+]1C=CC(Cl)=CC=1
InChI: InChI=1S/C5H4ClNO/c6-5-1-3-7(8)4-2-5/h1-4H
Instrument type: ESI-QTOF
Ms type: MS2
Ion mode: POSITIVE
Ionization: ESI
Collision energy: 40
Precursor m/z: 130.005417919
Precursor type: [M+H]+
m/z	relative intensity
39.022927	35
48.983954	18
50.015101	31
51.022927	667
52.018175	18
61.991779	16
66.033826	16
67.041651	12
72.983954	66
76.018175	27
78.033826	999
85.991779	40
113.002678	178
130.005418	9
