Mass spectrum: N-(3-Amino-4-methoxyphenyl)acetamide; ESI-QTOF; MS2; CE: 20; [M+H]+
Name: N-(3-Amino-4-methoxyphenyl)acetamide
Name: DTXSID2027620
Formula: C9H12N2O2
Exact mass: 180.0898776422
SMILES: CC(=O)NC1=CC(N)=C(C=C1)OC
InChI: InChI=1S/C9H12N2O2/c1-6(12)11-7-3-4-9(13-2)8(10)5-7/h3-5H,10H2,1-2H3,(H,11,12)
Instrument type: ESI-QTOF
Ms type: MS2
Ion mode: POSITIVE
Ionization: ESI
Collision energy: 20
Precursor m/z: 181.0971540939
Precursor type: [M+H]+
m/z	relative intensity
42.033826	11
43.017841	58
77.038577	30
80.049476	132
92.049476	15
94.065126	53
95.049141	18
95.060375	16
96.0682	21
107.060375	886
108.04439	305
108.0682	999
109.052215	61
109.076025	15
112.07569	16
122.06004	173
123.044056	19
123.055289	22
123.067865	19
124.063114	413
125.04713	19
138.078764	15
139.086589	898
140.070605	175
150.078764	27
163.086589	52
166.073679	67
181.097154	92
