Mass spectrum: 2-((Dimethylamino)methyl)phenol; ESI-QTOF; MS2; CE: 40; [M+H]+
Name: 2-((Dimethylamino)methyl)phenol
Formula: C9H13NO
Exact mass: 151.0997140444
SMILES: CN(C)CC1=CC=CC=C1O
InChI: InChI=1S/C9H13NO/c1-10(2)7-8-5-3-4-6-9(8)11/h3-6,11H,7H2,1-2H3
Instrument type: ESI-QTOF
Ms type: MS2
Ion mode: POSITIVE
Ionization: ESI
Collision energy: 40
Precursor m/z: 152.1069904961
Precursor type: [M+H]+
m/z	relative intensity
46.065126	105
51.022927	172
53.038577	17
77.038577	999
77.083515	20
79.054227	137
107.049141	61
