Mass spectrum: 6-Methylpyridin-2-amine; ESI-QTOF; MS2; CE: 20; [M+H]+
Name: 6-Methylpyridin-2-amine
Name: DTXSID0044860
Formula: C6H8N2
Exact mass: 108.06874827
SMILES: CC1C=CC=C(N)N=1
InChI: InChI=1S/C6H8N2/c1-5-3-2-4-6(7)8-5/h2-4H,1H3,(H2,7,8)
Instrument type: ESI-QTOF
Ms type: MS2
Ion mode: POSITIVE
Ionization: ESI
Collision energy: 20
Precursor m/z: 109.0760247217
Precursor type: [M+H]+
m/z	relative intensity
39.022927	24
65.038577	614
66.033826	22
92.049476	999
109.076025	441
