Mass spectrum: 2-Amino-5-nitrobenzonitrile; ESI-QTOF; MS2; CE: 40; [M-H]-
Name: 2-Amino-5-nitrobenzonitrile
Name: DTXSID0038839
Formula: C7H5N3O2
Exact mass: 163.0381764263
SMILES: NC1C=CC(=CC=1C#N)[N+]([O-])=O
InChI: InChI=1S/C7H5N3O2/c8-4-5-3-6(10(11)12)1-2-7(5)9/h1-3H,9H2
Instrument type: ESI-QTOF
Ms type: MS2
Ion mode: NEGATIVE
Ionization: ESI
Collision energy: 40
Precursor m/z: 162.0308999746
Precursor type: [M-H]-
m/z	relative intensity
40.019273	18
45.993452	999
46.017261	25
46.029837	15
50.003623	50
63.011448	19
64.019273	426
65.014522	247
65.998537	18
74.003623	63
88.019273	173
89.014522	32
89.027098	15
115.030172	788
116.037997	60
