Mass spectrum: Parinol; ESI-QTOF; MS2; CE: 40; [M+H]+
Name: Parinol
Name: DTXSID4042256
Formula: C18H13Cl2NO
Exact mass: 329.0374194644
SMILES: OC(C1C=NC=CC=1)(C1C=CC(Cl)=CC=1)C1C=CC(Cl)=CC=1
InChI: InChI=1S/C18H13Cl2NO/c19-16-7-3-13(4-8-16)18(22,15-2-1-11-21-12-15)14-5-9-17(20)10-6-14/h1-12,22H
Instrument type: ESI-QTOF
Ms type: MS2
Ion mode: POSITIVE
Ionization: ESI
Collision energy: 40
Precursor m/z: 330.0446959161
Precursor type: [M+H]+
m/z	relative intensity
53.038577	77
78.033826	37
80.049476	999
110.999604	18
125.015254	18
138.994519	147
182.06004	10
183.067865	10
189.069877	18
215.085527	24
218.036718	55
219.044543	12
241.088601	17
242.096426	27
252.033644	13
259.007582	22
276.057453	22
277.065279	101
312.034131	17
313.041956	23
