Mass spectrum: Citronellic acid; ESI-QTOF; MS2; CE: 10; [M-H]-
Name: Citronellic acid
Name: DTXSID1047106
Formula: C10H18O2
Exact mass: 170.1306798188
SMILES: CC(C)=CCCC(C)CC(O)=O
InChI: InChI=1S/C10H18O2/c1-8(2)5-4-6-9(3)7-10(11)12/h5,9H,4,6-7H2,1-3H3,(H,11,12)
Instrument type: ESI-QTOF
Ms type: MS2
Ion mode: NEGATIVE
Ionization: ESI
Collision energy: 10
Precursor m/z: 169.1234033671
Precursor type: [M-H]-
m/z	relative intensity
151.112839	21
169.123403	999
