Mass spectrum: 1,2,3,4-Butanetetracarboxylic acid; ESI-QTOF; MS2; CE: 10; [M-H]-
Name: 1,2,3,4-Butanetetracarboxylic acid
Name: DTXSID6024670
Formula: C8H10O8
Exact mass: 234.0375672974
SMILES: OC(=O)CC(C(CC(O)=O)C(O)=O)C(O)=O
InChI: InChI=1S/C8H10O8/c9-5(10)1-3(7(13)14)4(8(15)16)2-6(11)12/h3-4H,1-2H2,(H,9,10)(H,11,12)(H,13,14)(H,15,16)
Instrument type: ESI-QTOF
Ms type: MS2
Ion mode: NEGATIVE
Ionization: ESI
Collision energy: 10
Precursor m/z: 233.0302908457
Precursor type: [M-H]-
m/z	relative intensity
59.013853	20
71.013853	32
81.034588	19
83.050238	65
99.008768	85
101.060803	11
109.029503	10
111.008768	78
117.019332	29
127.040068	261
153.019332	10
171.029897	171
215.019726	999
233.030291	331
