Mass spectrum: 2-Pentanone; ESI-QTOF; MS2; CE: 10; [M+H]+
Name: 2-Pentanone
Formula: C5H10O
Exact mass: 86.0731649413
SMILES: CCCC(C)=O
InChI: InChI=1S/C5H10O/c1-3-4-5(2)6/h3-4H2,1-2H3
Instrument type: ESI-QTOF
Ms type: MS2
Ion mode: POSITIVE
Ionization: ESI
Collision energy: 10
Precursor m/z: 87.080441393
Precursor type: [M+H]+
m/z	relative intensity
39.022927	20
41.038577	23
43.017841	75
45.033491	278
53.038577	12
55.054227	999
57.033491	27
57.069877	11
59.049141	28
69.069877	23
87.080441	521
