Mass spectrum: Benzyltrimethylammonium; ESI-QTOF; MS2; CE: 40; [M+H]+
Name: Benzyltrimethylammonium
Name: DTXSID8024600
Formula: [C10H16N]+
Exact mass: 150.1282745178
SMILES: C[N+](C)(C)CC1C=CC=CC=1
InChI: InChI=1S/C10H16N/c1-11(2,3)9-10-7-5-4-6-8-10/h4-8H,9H2,1-3H3/q+1
Instrument type: ESI-QTOF
Ms type: MS2
Ion mode: POSITIVE
Ionization: ESI
Collision energy: 40
Precursor m/z: 151.1355509695
Precursor type: [M+H]+
m/z	relative intensity
39.022927	48
40.030752	22
41.038577	53
42.046402	26
51.022927	14
58.065126	58
59.072951	28
63.022927	24
64.030752	15
65.038577	457
66.046402	444
91.054227	503
92.062052	999
