Mass spectrum: C.I. Disperse Blue 27; ESI-QTOF; MS2; CE: 10; [M-H]-
Name: C.I. Disperse Blue 27
Name: DTXSID3025209
Formula: C22H16N2O7
Exact mass: 420.0957508813
SMILES: [O-][N+](=O)C1C=CC(O)=C2C=1C(=O)C1=C(C2=O)C(O)=CC=C1NC1C=CC(CCO)=CC=1
InChI: InChI=1S/C22H16N2O7/c25-10-9-11-1-3-12(4-2-11)23-13-5-7-15(26)19-17(13)21(28)18-14(24(30)31)6-8-16(27)20(18)22(19)29/h1-8,23,25-27H,9-10H2
Instrument type: ESI-QTOF
Ms type: MS2
Ion mode: NEGATIVE
Ionization: ESI
Collision energy: 10
Precursor m/z: 419.0884744296
Precursor type: [M-H]-
m/z	relative intensity
373.095571	21
419.088474	999
