Mass spectrum: 2,4-Dihydroxybenzaldehyde; ESI-QTOF; MS2; CE: 20; [M-H]-
Name: 2,4-Dihydroxybenzaldehyde
Formula: C7H6O3
Exact mass: 138.0316940583
SMILES: OC1=CC(O)=C(C=O)C=C1
InChI: InChI=1S/C7H6O3/c8-4-5-1-2-6(9)3-7(5)10/h1-4,9-10H
Instrument type: ESI-QTOF
Ms type: MS2
Ion mode: NEGATIVE
Ionization: ESI
Collision energy: 20
Precursor m/z: 137.0244176066
Precursor type: [M-H]-
m/z	relative intensity
39.024024	17
41.003288	215
49.008374	33
63.024024	18
65.003288	133
65.039674	129
67.018938	92
91.018938	999
93.034588	211
95.013853	28
107.013853	14
109.029503	92
135.008768	382
137.024418	140
