Mass spectrum: Benzylacetone; ESI-QTOF; MS2; CE: 20; [M+H]+
Name: Benzylacetone
Name: DTXSID6033241
Formula: C10H12O
Exact mass: 148.0888150051
SMILES: CC(=O)CCC1C=CC=CC=1
InChI: InChI=1S/C10H12O/c1-9(11)7-8-10-5-3-2-4-6-10/h2-6H,7-8H2,1H3
Instrument type: ESI-QTOF
Ms type: MS2
Ion mode: POSITIVE
Ionization: ESI
Collision energy: 20
Precursor m/z: 149.0960914568
Precursor type: [M+H]+
m/z	relative intensity
61.007276	69
62.015101	14
63.994366	168
79.017841	999
79.054227	35
80.025666	28
