Mass spectrum: Trimethyl benzene-1,2,4-tricarboxylate; ESI-QTOF; MS2; CE: 40; [M+H]+
Name: Trimethyl benzene-1,2,4-tricarboxylate
Name: DTXSID8044620
Formula: C12H12O6
Exact mass: 252.0633881166
SMILES: COC(=O)C1=CC=C(C=C1C(=O)OC)C(=O)OC
InChI: InChI=1S/C12H12O6/c1-16-10(13)7-4-5-8(11(14)17-2)9(6-7)12(15)18-3/h4-6H,1-3H3
Instrument type: ESI-QTOF
Ms type: MS2
Ion mode: POSITIVE
Ionization: ESI
Collision energy: 40
Precursor m/z: 253.0706645683
Precursor type: [M+H]+
m/z	relative intensity
43.017841	10
45.033491	13
51.022927	12
59.012756	34
63.022927	12
65.038577	15
75.022927	351
77.038577	511
78.046402	12
79.054227	91
81.069877	11
85.028406	10
91.017841	26
91.054227	59
92.025666	95
94.041316	10
103.017841	503
105.033491	93
107.049141	60
109.064791	14
119.012756	999
119.049141	16
120.020581	304
131.012756	13
133.028406	80
134.036231	10
135.044056	584
137.059706	18
147.00767	36
150.031145	93
163.038971	58
165.054621	11
178.02606	49
191.033885	76
193.049535	156
221.04445	36
