Mass spectrum: 4-[(3-oxobutanoyl)amino]benzenesulfonate; ESI-QTOF; MS2; CE: 20; [M-H]-
Name: 4-[(3-oxobutanoyl)amino]benzenesulfonate
Name: DTXSID1044722
Formula: C10H11NO5S
Exact mass: 257.0357931998
SMILES: CC(=O)CC(=O)NC1C=CC(=CC=1)S(O)(=O)=O
InChI: InChI=1S/C10H11NO5S/c1-7(12)6-10(13)11-8-2-4-9(5-3-8)17(14,15)16/h2-5H,6H2,1H3,(H,11,13)(H,14,15,16)
Instrument type: ESI-QTOF
Ms type: MS2
Ion mode: NEGATIVE
Ionization: ESI
Collision energy: 20
Precursor m/z: 256.0285167481
Precursor type: [M-H]-
m/z	relative intensity
57.034588	14
79.957363	27
106.029837	15
134.024752	53
172.007387	116
196.007387	10
197.986652	999
198.040796	44
198.053372	23
256.028517	94
