Mass spectrum: N-(2-Hydroxyethyl)acetamide; ESI-QTOF; MS2; CE: 10; [M+H]+
Name: N-(2-Hydroxyethyl)acetamide
Name: DTXSID6044804
Formula: C4H9NO2
Exact mass: 103.0633285391
SMILES: CC(=O)NCCO
InChI: InChI=1S/C4H9NO2/c1-4(7)5-2-3-6/h6H,2-3H2,1H3,(H,5,7)
Instrument type: ESI-QTOF
Ms type: MS2
Ion mode: POSITIVE
Ionization: ESI
Collision energy: 10
Precursor m/z: 104.0706049908
Precursor type: [M+H]+
m/z	relative intensity
43.017841	110
44.049476	382
45.033491	13
62.06004	999
86.06004	279
87.044056	31
104.070605	94
