Mass spectrum: Salicylaldehyde oxime; ESI-QTOF; MS2; CE: 20; [M-H]-
Name: Salicylaldehyde oxime
Formula: C7H7NO2
Exact mass: 137.0476784753
SMILES: OC1=CC=CC=C1CN=O
InChI: InChI=1S/C7H7NO2/c9-7-4-2-1-3-6(7)5-8-10/h1-4,9H,5H2
Instrument type: ESI-QTOF
Ms type: MS2
Ion mode: NEGATIVE
Ionization: ESI
Collision energy: 20
Precursor m/z: 136.0404020236
Precursor type: [M-H]-
m/z	relative intensity
41.003288	55
41.998537	96
50.003623	35
55.018938	11
63.024024	28
64.019273	44
65.003288	264
65.998537	40
68.014187	10
90.034923	294
91.006362	14
91.018938	558
93.034588	19
106.029837	14
106.042413	184
116.014187	71
118.029837	999
119.037662	13
