Mass spectrum: 7-(Dimethylamino)-4-methylcoumarin; ESI-QTOF; MS2; CE: 40; [M+H]+
Name: 7-(Dimethylamino)-4-methylcoumarin
Formula: C12H13NO2
Exact mass: 203.0946286667
SMILES: CC1=CC(=O)OC2C=C(C=CC1=2)N(C)C
InChI: InChI=1S/C12H13NO2/c1-8-6-12(14)15-11-7-9(13(2)3)4-5-10(8)11/h4-7H,1-3H3
Instrument type: ESI-QTOF
Ms type: MS2
Ion mode: POSITIVE
Ionization: ESI
Collision energy: 40
Precursor m/z: 204.1019051184
Precursor type: [M+H]+
m/z	relative intensity
39.022927	19
41.038577	17
42.033826	100
44.049476	79
51.022927	24
55.017841	10
55.041651	27
55.054227	10
56.049476	11
63.022927	10
65.038577	50
67.017841	22
67.054227	24
68.049476	12
70.065126	64
72.04439	38
77.038577	309
78.046402	44
79.054227	177
82.065126	12
89.038577	27
90.046402	17
91.054227	258
92.062052	10
93.069877	11
94.065126	21
102.046402	13
103.054227	290
104.049476	42
104.062052	93
105.057301	20
105.069877	226
106.065126	39
107.049141	10
107.072951	48
108.080776	13
115.054227	374
116.049476	26
116.062052	172
117.057301	141
117.069877	94
118.041316	14
118.065126	485
119.072951	37
120.080776	264
121.088601	153
128.062052	12
129.069877	10
130.065126	127
131.049141	162
131.072951	109
132.056966	126
132.080776	999
133.064791	10
133.088601	435
134.096426	65
136.07569	20
142.065126	25
143.072951	73
144.04439	13
144.080776	361
145.052215	51
145.088601	33
146.06004	90
146.096426	247
147.067865	16
147.104251	123
148.112076	297
158.06004	13
158.096426	130
159.104251	10
160.051881	49
160.07569	585
161.059706	10
161.083515	200
174.09134	43
188.070605	262
204.101905	16
