Mass spectrum: N-(4-Ethoxyphenyl)-3-oxobutanamide; ESI-QTOF; MS2; CE: 20; [M+H]+
Name: N-(4-Ethoxyphenyl)-3-oxobutanamide
Formula: C12H15NO3
Exact mass: 221.1051933528
SMILES: CC(=O)CC(=O)NC1C=CC(=CC=1)OCC
InChI: InChI=1S/C12H15NO3/c1-3-16-11-6-4-10(5-7-11)13-12(15)8-9(2)14/h4-7H,3,8H2,1-2H3,(H,13,15)
Instrument type: ESI-QTOF
Ms type: MS2
Ion mode: POSITIVE
Ionization: ESI
Collision energy: 20
Precursor m/z: 222.1124698045
Precursor type: [M+H]+
m/z	relative intensity
43.017841	193
59.049141	117
85.028406	40
93.033491	11
108.04439	74
109.052215	13
110.06004	146
136.07569	101
137.083515	10
138.09134	999
162.09134	52
164.070605	60
204.101905	16
