Mass spectrum: (2S,3S)-3-Methyl-2-(3-oxo-1,2-benzothiazol-2(3H)-yl)pentanoic acid; ESI-QTOF; MS2; CE: 10; [M+H]+
Name: (2S,3S)-3-Methyl-2-(3-oxo-1,2-benzothiazol-2(3H)-yl)pentanoic acid
Name: DTXSID3047261
Formula: C13H15NO3S
Exact mass: 265.0772640828
SMILES: CC(CC)C(C(O)=O)N1SC2C=CC=CC=2C1=O
InChI: InChI=1S/C13H15NO3S/c1-3-8(2)11(13(16)17)14-12(15)9-6-4-5-7-10(9)18-14/h4-8,11H,3H2,1-2H3,(H,16,17)
Instrument type: ESI-QTOF
Ms type: MS2
Ion mode: POSITIVE
Ionization: ESI
Collision energy: 10
Precursor m/z: 266.0845405345
Precursor type: [M+H]+
m/z	relative intensity
69.069877	29
152.016461	167
220.079061	999
248.073976	71
266.084541	487
