Mass spectrum: N-Phenylglycine; ESI-QTOF; MS2; CE: 40; [M+H]+
Name: N-Phenylglycine
Name: DTXSID0027806
Formula: C8H9NO2
Exact mass: 151.0633285391
SMILES: OC(=O)CNC1C=CC=CC=1
InChI: InChI=1S/C8H9NO2/c10-8(11)6-9-7-4-2-1-3-5-7/h1-5,9H,6H2,(H,10,11)
Instrument type: ESI-QTOF
Ms type: MS2
Ion mode: POSITIVE
Ionization: ESI
Collision energy: 40
Precursor m/z: 152.0706049908
Precursor type: [M+H]+
m/z	relative intensity
51.022927	251
63.994366	32
65.038577	38
66.046402	142
77.038577	999
78.046402	68
79.054227	152
92.049476	59
93.057301	324
106.065126	199
