Mass spectrum: Dibutyl nonanedioate; ESI-QTOF; MS2; CE: 40; [M+H]+
Name: Dibutyl nonanedioate
Name: DTXSID5044815
Formula: C17H32O4
Exact mass: 300.23005951
SMILES: CCCCOC(=O)CCCCCCCC(=O)OCCCC
InChI: InChI=1S/C17H32O4/c1-3-5-14-20-16(18)12-10-8-7-9-11-13-17(19)21-15-6-4-2/h3-15H2,1-2H3
Instrument type: ESI-QTOF
Ms type: MS2
Ion mode: POSITIVE
Ionization: ESI
Collision energy: 40
Precursor m/z: 301.2373359617
Precursor type: [M+H]+
m/z	relative intensity
41.038577	84
43.017841	70
43.054227	10
45.033491	10
55.017841	93
55.054227	999
57.033491	15
57.069877	97
59.049141	15
67.054227	62
69.033491	23
69.069877	61
79.054227	122
81.069877	96
83.049141	24
83.085527	217
84.078096	10
91.054227	34
93.069877	25
97.101177	198
107.085527	54
125.096091	32
