Mass spectrum: GW473178E methyl benzene sulphonic acid; ESI-QTOF; MS2; CE: 40; [M+H]+
Name: GW473178E methyl benzene sulphonic acid
Name: DTXSID6047313
Formula: C21H29N3O2
Exact mass: 355.2259771919
SMILES: CC1C=C(C=C(C=1)OCC(C)NC1C=CN=CC=1)C(=O)N(CC)C(C)C
InChI: InChI=1S/C21H29N3O2/c1-6-24(15(2)3)21(25)18-11-16(4)12-20(13-18)26-14-17(5)23-19-7-9-22-10-8-19/h7-13,15,17H,6,14H2,1-5H3,(H,22,23)
Instrument type: ESI-QTOF
Ms type: MS2
Ion mode: POSITIVE
Ionization: ESI
Collision energy: 40
Precursor m/z: 356.2332536436
Precursor type: [M+H]+
m/z	relative intensity
67.041651	18
77.038577	20
79.054227	28
94.05255	168
95.060375	36
107.049141	155
119.060375	14
121.076025	16
135.044056	999
135.091675	155
135.116827	18
269.128454	14
