Mass spectrum: 1,3-Cyclohexanedione; ESI-QTOF; MS2; CE: 10; [M-H]-
Name: 1,3-Cyclohexanedione
Name: DTXSID1044433
Formula: C6H8O2
Exact mass: 112.0524294998
SMILES: O=C1CC(=O)CCC1
InChI: InChI=1S/C6H8O2/c7-5-2-1-3-6(8)4-5/h1-4H2
Instrument type: ESI-QTOF
Ms type: MS2
Ion mode: NEGATIVE
Ionization: ESI
Collision energy: 10
Precursor m/z: 111.0451530481
Precursor type: [M-H]-
m/z	relative intensity
41.003288	11
57.034588	70
69.034588	161
111.045153	999
