Mass spectrum: 1-Piperazineethanol; ESI-QTOF; MS2; CE: 10; [M+H]+
Name: 1-Piperazineethanol
Formula: C6H14N2O
Exact mass: 130.1106130837
SMILES: OCCN1CCNCC1
InChI: InChI=1S/C6H14N2O/c9-6-5-8-3-1-7-2-4-8/h7,9H,1-6H2
Instrument type: ESI-QTOF
Ms type: MS2
Ion mode: POSITIVE
Ionization: ESI
Collision energy: 10
Precursor m/z: 131.1178895354
Precursor type: [M+H]+
m/z	relative intensity
44.049476	24
56.049476	18
58.065126	12
70.065126	31
79.017841	38
84.0682	11
84.080776	23
88.07569	81
113.107325	20
129.102239	22
131.11789	999
