Mass spectrum: SU-5416; ESI-QTOF; MS2; CE: 40; [M+H]+
Name: SU-5416
Name: DTXSID1041132
Formula: C15H14N2O
Exact mass: 238.1106130837
SMILES: CC1C=C(C)NC=1/C=C1\C(=O)NC2=CC=CC=C2\1
InChI: InChI=1S/C15H14N2O/c1-9-7-10(2)16-14(9)8-12-11-5-3-4-6-13(11)17-15(12)18/h3-8,16H,1-2H3,(H,17,18)/b12-8-
Instrument type: ESI-QTOF
Ms type: MS2
Ion mode: POSITIVE
Ionization: ESI
Collision energy: 40
Precursor m/z: 239.1178895354
Precursor type: [M+H]+
m/z	relative intensity
41.038577	16
42.033826	34
45.033491	10
51.022927	13
53.038577	12
65.038577	22
66.046402	11
67.054227	34
77.038577	79
78.033826	41
79.041651	25
79.054227	16
80.049476	100
81.057301	63
89.038577	11
90.046402	12
91.054227	25
92.049476	26
93.057301	15
94.065126	149
95.072951	20
101.038577	17
103.054227	78
104.049476	33
106.065126	137
107.072951	219
108.04439	15
115.054227	51
116.049476	31
117.057301	56
118.065126	12
120.080776	14
122.06004	13
127.054227	30
128.049476	62
128.062052	38
129.057301	30
130.065126	293
132.04439	57
142.065126	13
143.072951	11
144.04439	22
144.080776	10
151.054227	45
152.062052	61
153.069877	16
154.065126	163
155.072951	53
156.080776	11
158.06004	35
165.057301	15
165.069877	46
166.065126	28
167.072951	150
168.080776	149
169.088601	16
170.096426	12
171.055289	12
176.062052	38
177.069877	40
178.065126	55
179.072951	100
180.080776	154
181.076025	79
181.088601	79
182.06004	22
182.096426	99
183.067865	26
184.112076	16
192.080776	20
193.088601	54
194.096426	77
195.091675	851
196.07569	23
196.0995	308
197.070939	25
203.072951	70
204.080776	110
205.076025	335
206.06004	19
206.08385	241
207.067865	11
207.091675	225
208.063114	51
209.070939	47
209.107325	29
210.11515	18
219.091675	31
220.0995	18
221.107325	10
222.078764	14
222.09134	10
223.086589	999
224.094414	199
237.102239	24
