Mass spectrum: Tripropylene glycol butyl ether; ESI-QTOF; MS2; CE: 40; [M+H]+
Name: Tripropylene glycol butyl ether
Name: DTXSID8042503
Formula: C13H28O4
Exact mass: 248.1987593824
SMILES: CC(COC(O)CC)OC(CC)OCCCC
InChI: InChI=1S/C13H28O4/c1-5-8-9-15-13(7-3)17-11(4)10-16-12(14)6-2/h11-14H,5-10H2,1-4H3
Instrument type: ESI-QTOF
Ms type: MS2
Ion mode: POSITIVE
Ionization: ESI
Collision energy: 40
Precursor m/z: 249.2060358341
Precursor type: [M+H]+
m/z	relative intensity
29.038577	13
31.017841	154
39.022927	18
41.038577	567
41.059706	12
55.054227	14
57.033491	10
57.069877	202
59.049141	999
59.085527	12
