Mass spectrum: Dihexyl nonanedioate; ESI-QTOF; MS2; CE: 20; [M+H]+
Name: Dihexyl nonanedioate
Formula: C21H40O4
Exact mass: 356.2926597652
SMILES: CCCCCCOC(=O)CCCCCCCC(=O)OCCCCCC
InChI: InChI=1S/C21H40O4/c1-3-5-7-14-18-24-20(22)16-12-10-9-11-13-17-21(23)25-19-15-8-6-4-2/h3-19H2,1-2H3
Instrument type: ESI-QTOF
Ms type: MS2
Ion mode: POSITIVE
Ionization: ESI
Collision energy: 20
Precursor m/z: 357.2999362169
Precursor type: [M+H]+
m/z	relative intensity
43.017841	39
43.054227	123
55.017841	11
55.054227	79
57.069877	40
67.054227	41
69.033491	41
79.054227	23
81.069877	23
83.085527	136
85.101177	67
93.069877	30
97.101177	457
107.085527	135
109.101177	14
111.080441	15
125.096091	814
125.132477	15
135.080441	94
143.106656	113
153.091006	130
171.101571	999
171.174342	11
255.195471	27
