Mass spectrum: 3,4,5,6-Tetrachloropyridine-2-carboxylic acid; ESI-QTOF; MS2; CE: 40; [M-H]-
Name: 3,4,5,6-Tetrachloropyridine-2-carboxylic acid
Formula: C6HCl4NO2
Exact mass: 258.8761391239
SMILES: OC(=O)C1N=C(Cl)C(Cl)=C(Cl)C=1Cl
InChI: InChI=1S/C6HCl4NO2/c7-1-2(8)4(6(12)13)11-5(10)3(1)9/h(H,12,13)
Instrument type: ESI-QTOF
Ms type: MS2
Ion mode: NEGATIVE
Ionization: ESI
Collision energy: 40
Precursor m/z: 257.8688626722
Precursor type: [M-H]-
m/z	relative intensity
34.969401	999
