Mass spectrum: DL-Glutamic acid; ESI-QTOF; MS2; CE: 20; [M-H]-
Name: DL-Glutamic acid
Name: DTXSID6047155
Formula: C5H9NO4
Exact mass: 147.0531577837
SMILES: NC(CCC(O)=O)C(O)=O
InChI: InChI=1S/C5H9NO4/c6-3(5(9)10)1-2-4(7)8/h3H,1-2,6H2,(H,7,8)(H,9,10)
Instrument type: ESI-QTOF
Ms type: MS2
Ion mode: NEGATIVE
Ionization: ESI
Collision energy: 20
Precursor m/z: 146.045881332
Precursor type: [M-H]-
m/z	relative intensity
41.003288	13
41.998537	15
44.998203	25
54.034923	13
56.014187	30
57.034588	32
59.013853	23
68.998203	14
71.013853	63
74.024752	75
82.029837	23
102.056052	999
128.035317	171
146.045881	60
