Mass spectrum: SAR 150640; ESI-QTOF; MS2; CE: 40; [M+H]+
Name: SAR 150640
Name: DTXSID4047389
Formula: C25H34N2O7S
Exact mass: 506.2086721855
SMILES: CCOC(=O)C1=CC=C(C=C1)C1CCC(CC1)NCC(O)COC1=CC(NS(C)(=O)=O)=C(O)C=C1
InChI: InChI=1S/C25H34N2O7S/c1-3-33-25(30)19-6-4-17(5-7-19)18-8-10-20(11-9-18)26-15-21(28)16-34-22-12-13-24(29)23(14-22)27-35(2,31)32/h4-7,12-14,18,20-21,26-29H,3,8-11,15-16H2,1-2H3
Instrument type: ESI-QTOF
Ms type: MS2
Ion mode: POSITIVE
Ionization: ESI
Collision energy: 40
Precursor m/z: 507.2159486372
Precursor type: [M+H]+
m/z	relative intensity
30.033826	22
41.038577	15
55.054227	49
56.049476	724
56.083181	14
57.057301	18
58.065126	34
60.04439	11
67.054227	36
70.065126	23
74.06004	977
74.093746	18
75.067865	37
76.07569	21
77.038577	13
79.054227	57
81.069877	515
81.102239	10
91.054227	642
91.08996	10
105.069877	41
107.049141	65
109.052215	12
115.054227	17
117.069877	176
119.049141	10
119.085527	887
123.044056	43
124.039305	14
125.04713	793
125.083515	11
126.054955	194
129.069877	146
131.085527	18
134.06004	12
135.044056	254
135.065185	24
135.080441	16
136.039305	36
137.04713	86
137.070939	17
138.054955	43
145.101177	39
146.036231	33
147.044056	13
148.051881	13
149.04445	10
149.059706	103
150.054955	45
151.06278	399
152.0614	11
153.07843	10
157.101177	49
159.116827	69
161.059706	52
162.054955	105
163.06278	478
163.075356	999
163.122975	26
164.070605	29
167.084875	38
176.083181	25
177.091006	32
180.089329	251
181.073345	105
185.096091	136
198.099894	622
203.106656	308
204.031814	36
216.031814	33
229.122306	53
230.048155	14
231.137956	130
242.047464	225
246.148855	278
260.164505	182
277.085269	243
286.180155	13
288.195806	45
304.19072	76
507.215949	34
