Mass spectrum: 3-Methyl-3,4-dihydro-2H-1,4-benzoxazine; ESI-QTOF; MS2; CE: 10; [M+H]+
Name: 3-Methyl-3,4-dihydro-2H-1,4-benzoxazine
Name: DTXSID8044915
Formula: C9H11NO
Exact mass: 149.0840639806
SMILES: CC1COC2C=CC=CC=2N1
InChI: InChI=1S/C9H11NO/c1-7-6-11-9-5-3-2-4-8(9)10-7/h2-5,7,10H,6H2,1H3
Instrument type: ESI-QTOF
Ms type: MS2
Ion mode: POSITIVE
Ionization: ESI
Collision energy: 10
Precursor m/z: 150.0913404323
Precursor type: [M+H]+
m/z	relative intensity
65.038577	12
80.049476	45
92.049476	28
108.04439	245
110.06004	17
120.080776	22
150.09134	999
