Mass spectrum: 4-Iodophenol; ESI-QTOF; MS2; CE: 20; [M-H]-
Name: 4-Iodophenol
Name: DTXSID4052186
Formula: C6H5IO
Exact mass: 219.9385077818
SMILES: OC1=CC=C(I)C=C1
InChI: InChI=1S/C6H5IO/c7-5-1-3-6(8)4-2-5/h1-4,8H
Instrument type: ESI-QTOF
Ms type: MS2
Ion mode: NEGATIVE
Ionization: ESI
Collision energy: 20
Precursor m/z: 218.9312313301
Precursor type: [M-H]-
m/z	relative intensity
126.905017	999
218.931231	80
