Mass spectrum: Benzenesulfonic acid, 2,2'-[(9,10-dihydro-9,10-dioxo-1,4-anthracenediyl)diimino]bis[5-methyl-; ESI-QTOF; MS2; CE: 20; [M-H]-
Name: Benzenesulfonic acid, 2,2'-[(9,10-dihydro-9,10-dioxo-1,4-anthracenediyl)diimino]bis[5-methyl-
Name: DTXSID2024903
Formula: C28H22N2O8S2
Exact mass: 578.081757155
SMILES: CC1=CC(=C(C=C1)NC1=CC=C(NC2C=CC(C)=CC=2S(O)(=O)=O)C2=C1C(=O)C1C=CC=CC=1C2=O)S(O)(=O)=O
InChI: InChI=1S/C28H22N2O8S2/c1-15-7-9-19(23(13-15)39(33,34)35)29-21-11-12-22(30-20-10-8-16(2)14-24(20)40(36,37)38)26-25(21)27(31)17-5-3-4-6-18(17)28(26)32/h3-14,29-30H,1-2H3,(H,33,34,35)(H,36,37,38)
Instrument type: ESI-QTOF
Ms type: MS2
Ion mode: NEGATIVE
Ionization: ESI
Collision energy: 20
Precursor m/z: 577.0744807033
Precursor type: [M-H]-
m/z	relative intensity
497.117666	100
577.074481	999
