Mass spectrum: 2-Tolualdehyde; ESI-QTOF; MS2; CE: 20; [M+H]+
Name: 2-Tolualdehyde
Name: DTXSID1022051
Formula: C8H8O
Exact mass: 120.0575148775
SMILES: CC1C=CC=CC=1C=O
InChI: InChI=1S/C8H8O/c1-7-4-2-3-5-8(7)6-9/h2-6H,1H3
Instrument type: ESI-QTOF
Ms type: MS2
Ion mode: POSITIVE
Ionization: ESI
Collision energy: 20
Precursor m/z: 121.0647913292
Precursor type: [M+H]+
m/z	relative intensity
41.038577	20
43.054227	38
45.033491	13
63.994366	22
65.038577	11
77.038577	35
80.025666	16
91.054227	12
94.041316	999
104.025666	15
