Mass spectrum: C.I. Acid Red 88; ESI-QTOF; MS2; CE: 10; [M-H]-
Name: C.I. Acid Red 88
Name: DTXSID1041714
Formula: C20H14N2O4S
Exact mass: 378.0674276806
SMILES: OC1=CC=C2C=CC=CC2=C1/N=N/C1C=CC(=C2C=CC=CC=12)S(O)(=O)=O
InChI: InChI=1S/C20H14N2O4S/c23-18-11-9-13-5-1-2-6-14(13)20(18)22-21-17-10-12-19(27(24,25)26)16-8-4-3-7-15(16)17/h1-12,23H,(H,24,25,26)/b22-21+
Instrument type: ESI-QTOF
Ms type: MS2
Ion mode: NEGATIVE
Ionization: ESI
Collision energy: 10
Precursor m/z: 377.0601512289
Precursor type: [M-H]-
m/z	relative intensity
221.015212	33
377.060151	999
