Mass spectrum: 2-(Diethylamino)ethyl acrylate; ESI-QTOF; MS2; CE: 40; [M+H]+
Name: 2-(Diethylamino)ethyl acrylate
Name: DTXSID4051900
Formula: C9H17NO2
Exact mass: 171.1259287943
SMILES: CCN(CCOC(=O)C=C)CC
InChI: InChI=1S/C9H17NO2/c1-4-9(11)12-8-7-10(5-2)6-3/h4H,1,5-8H2,2-3H3
Instrument type: ESI-QTOF
Ms type: MS2
Ion mode: POSITIVE
Ionization: ESI
Collision energy: 40
Precursor m/z: 172.133205246
Precursor type: [M+H]+
m/z	relative intensity
41.038577	17
42.033826	46
44.01309	24
44.049476	470
55.017841	999
55.041651	18
56.049476	10
57.057301	10
70.065126	17
72.080776	43
86.036231	17
99.044056	53
100.112076	12
