Mass spectrum: CP-122721; ESI-QTOF; MS2; CE: 20; [M+H]+
Name: CP-122721
Name: DTXSID9047251
Formula: C20H23F3N2O2
Exact mass: 380.1711625931
SMILES: COC1C=CC(=CC=1CNC1CCCNC1C1C=CC=CC=1)OC(F)(F)F
InChI: InChI=1S/C20H23F3N2O2/c1-26-18-10-9-16(27-20(21,22)23)12-15(18)13-25-17-8-5-11-24-19(17)14-6-3-2-4-7-14/h2-4,6-7,9-10,12,17,19,24-25H,5,8,11,13H2,1H3
Instrument type: ESI-QTOF
Ms type: MS2
Ion mode: POSITIVE
Ionization: ESI
Collision energy: 20
Precursor m/z: 381.1784390448
Precursor type: [M+H]+
m/z	relative intensity
160.112076	999
160.157015	43
205.047091	27
381.178439	133
