Mass spectrum: Thiocyanuric acid; ESI-QTOF; MS2; CE: 20; [M-H]-
Name: Thiocyanuric acid
Name: DTXSID1044853
Formula: C3H3N3S3
Exact mass: 176.9489093079
SMILES: S=C1NC(=S)NC(=S)N1
InChI: InChI=1S/C3H3N3S3/c7-1-4-2(8)6-3(9)5-1/h(H3,4,5,6,7,8,9)
Instrument type: ESI-QTOF
Ms type: MS2
Ion mode: NEGATIVE
Ionization: ESI
Collision energy: 20
Precursor m/z: 175.9416328562
Precursor type: [M-H]-
m/z	relative intensity
57.975693	999
175.941633	24
