Mass spectrum: PharmaGSID_47333; ESI-QTOF; MS2; CE: 40; [M+H]+
Name: PharmaGSID_47333
Formula: C22H30N4O2
Exact mass: 382.2368762312
SMILES: CC1N=CC(=CN=1)C(CC(O)=O)CCCCCCC1C=CC2CCCNC=2N=1
InChI: InChI=1S/C22H30N4O2/c1-16-24-14-19(15-25-16)18(13-21(27)28)7-4-2-3-5-9-20-11-10-17-8-6-12-23-22(17)26-20/h10-11,14-15,18H,2-9,12-13H2,1H3,(H,23,26)(H,27,28)
Instrument type: ESI-QTOF
Ms type: MS2
Ion mode: POSITIVE
Ionization: ESI
Collision energy: 40
Precursor m/z: 383.2441526829
Precursor type: [M+H]+
m/z	relative intensity
107.060375	12
121.076025	26
122.08385	10
133.076025	27
135.091675	23
145.076025	11
147.091675	133
148.0995	732
148.145781	15
149.107325	23
157.076025	10
161.107325	999
161.152264	24
161.176073	12
162.11515	97
173.107325	25
174.11515	13
175.122975	186
187.122975	20
189.138625	26
201.138625	10
203.154275	27
215.154275	12
217.169925	35
225.138625	10
265.169925	55
281.201225	56
282.197817	10
295.193066	15
323.224366	455
324.208382	22
325.191054	12
337.238673	32
347.223023	14
355.212853	17
365.233588	331
383.244153	799
