Mass spectrum: Ethanamine, 2-chloro-N,N-dimethyl-; ESI-QTOF; MS2; CE: 10; [M+H]+
Name: Ethanamine, 2-chloro-N,N-dimethyl-
Name: DTXSID7052109
Formula: C4H10ClN
Exact mass: 107.0501770364
SMILES: CN(C)CCCl
InChI: InChI=1S/C4H10ClN/c1-6(2)4-3-5/h3-4H2,1-2H3
Instrument type: ESI-QTOF
Ms type: MS2
Ion mode: POSITIVE
Ionization: ESI
Collision energy: 10
Precursor m/z: 108.0574534881
Precursor type: [M+H]+
m/z	relative intensity
44.049476	30
46.065126	24
62.999604	250
70.065126	12
72.080776	69
80.026153	16
108.057453	999
