Mass spectrum: C.I. Pigment Red 22; ESI-QTOF; MS2; CE: 40; [M-H]-
Name: C.I. Pigment Red 22
Name: DTXSID1052329
Formula: C24H18N4O4
Exact mass: 426.132805093
SMILES: CC1=CC=C(C=C1/N=N/C1=C(O)C(=CC2=CC=CC=C21)C(=O)NC1C=CC=CC=1)[N+]([O-])=O
InChI: InChI=1S/C24H18N4O4/c1-15-11-12-18(28(31)32)14-21(15)26-27-22-19-10-6-5-7-16(19)13-20(23(22)29)24(30)25-17-8-3-2-4-9-17/h2-14,29H,1H3,(H,25,30)/b27-26+
Instrument type: ESI-QTOF
Ms type: MS2
Ion mode: NEGATIVE
Ionization: ESI
Collision energy: 40
Precursor m/z: 425.1255286413
Precursor type: [M-H]-
m/z	relative intensity
41.998537	109
45.993452	999
46.017261	17
46.029837	10
80.026763	29
90.034923	28
92.050573	38
104.037997	23
106.042413	165
107.037662	423
114.047499	74
115.055324	32
116.026763	10
117.045822	14
122.024752	53
128.050573	19
132.032911	33
133.040736	152
136.040402	65
137.035651	310
140.050573	58
143.050238	434
157.053312	11
162.0309	88
167.061472	31
168.045487	828
168.094449	12
169.040736	13
184.040402	63
203.074048	13
206.061137	11
215.074048	12
216.081873	18
230.080924	24
231.068962	71
232.076788	259
233.084613	35
240.069297	13
241.077122	41
242.084947	36
245.068014	18
246.075839	11
247.076453	48
256.061531	11
257.072037	205
258.079862	58
259.087687	14
260.071702	81
261.066951	42
262.08601	37
273.062928	15
274.074776	10
275.078578	18
276.090426	45
278.080924	33
279.077516	21
285.066951	15
287.082601	48
288.07785	104
289.061866	10
304.074107	28
306.088415	9
314.057115	10
366.113567	26
378.1248	16
394.119715	13
425.125529	11
