Mass spectrum: 4-Hexyloxyaniline; ESI-QTOF; MS2; CE: 10; [M+H]+
Name: 4-Hexyloxyaniline
Name: DTXSID4022288
Formula: C12H19NO
Exact mass: 193.1466642358
SMILES: CCCCCCOC1C=CC(N)=CC=1
InChI: InChI=1S/C12H19NO/c1-2-3-4-5-10-14-12-8-6-11(13)7-9-12/h6-9H,2-5,10,13H2,1H3
Instrument type: ESI-QTOF
Ms type: MS2
Ion mode: POSITIVE
Ionization: ESI
Collision energy: 10
Precursor m/z: 194.1539406875
Precursor type: [M+H]+
m/z	relative intensity
93.033491	13
110.06004	151
194.153941	999
