Mass spectrum: CP-612372; ESI-QTOF; MS2; CE: 10; [M-H]-
Name: CP-612372
Name: DTXSID1047281
Formula: C22H20N4O4
Exact mass: 404.1484551568
SMILES: CC(C)(O)C1C=CC(CNC(=O)C2=CC=CN=C2OC2=CC3=NON=C3C=C2)=CC=1
InChI: InChI=1S/C22H20N4O4/c1-22(2,28)15-7-5-14(6-8-15)13-24-20(27)17-4-3-11-23-21(17)29-16-9-10-18-19(12-16)26-30-25-18/h3-12,28H,13H2,1-2H3,(H,24,27)
Instrument type: ESI-QTOF
Ms type: MS2
Ion mode: NEGATIVE
Ionization: ESI
Collision energy: 10
Precursor m/z: 403.1411787051
Precursor type: [M-H]-
m/z	relative intensity
135.020001	11
138.019667	16
282.1248	105
385.130614	313
403.141179	999
