Mass spectrum: Bis(2-butoxyethyl) decanedioate; ESI-QTOF; MS2; CE: 40; [M+H]+
Name: Bis(2-butoxyethyl) decanedioate
Name: DTXSID6044802
Formula: C22H42O6
Exact mass: 402.2981390736
SMILES: CCCCOCCOC(=O)CCCCCCCCC(=O)OCCOCCCC
InChI: InChI=1S/C22H42O6/c1-3-5-15-25-17-19-27-21(23)13-11-9-7-8-10-12-14-22(24)28-20-18-26-16-6-4-2/h3-20H2,1-2H3
Instrument type: ESI-QTOF
Ms type: MS2
Ion mode: POSITIVE
Ionization: ESI
Collision energy: 40
Precursor m/z: 403.3054155253
Precursor type: [M+H]+
m/z	relative intensity
41.038577	392
43.017841	165
43.054227	220
45.033491	334
46.041316	36
53.038577	29
55.017841	310
55.038971	12
55.054227	778
57.033491	77
57.069877	475
57.184906	19
58.077702	14
59.049141	40
67.054227	266
69.069877	720
71.012756	22
71.049141	76
73.028406	301
73.064791	23
77.038577	12
79.054227	458
81.069877	591
81.091006	54
83.049141	116
83.085527	111
83.106656	12
85.064791	24
87.044056	14
91.054227	149
93.069877	452
93.112135	13
95.049141	18
95.085527	296
97.064791	136
97.101177	168
99.044056	999
99.080441	14
105.069877	102
107.085527	48
109.064791	34
109.101177	22
111.116827	43
113.059706	42
115.038971	32
121.064791	41
121.101177	444
123.080441	41
123.116827	61
127.075356	42
131.085527	65
139.111742	120
149.096091	16
151.111742	13
155.106656	11
163.075356	19
165.127392	27
167.106656	16
171.137956	23
185.117221	30
193.122306	23
211.132871	556
213.069877	19
213.148521	306
229.143436	337
