Mass spectrum: Vatalanib; ESI-QTOF; MS2; CE: 40; [M+H]+
Name: Vatalanib
Name: DTXSID5049073
Formula: C20H15ClN4
Exact mass: 346.0985242181
SMILES: ClC1C=CC(=CC=1)NC1=NN=C(CC2C=CN=CC=2)C2C=CC=CC=21
InChI: InChI=1S/C20H15ClN4/c21-15-5-7-16(8-6-15)23-20-18-4-2-1-3-17(18)19(24-25-20)13-14-9-11-22-12-10-14/h1-12H,13H2,(H,23,25)
Instrument type: ESI-QTOF
Ms type: MS2
Ion mode: POSITIVE
Ionization: ESI
Collision energy: 40
Precursor m/z: 347.1058006698
Precursor type: [M+H]+
m/z	relative intensity
39.022927	19
52.018175	10
53.038577	11
61.007276	15
65.038577	377
66.046402	17
75.022927	10
79.041651	29
80.0369	10
80.049476	154
89.015254	15
92.049476	724
93.057301	199
94.065126	53
98.999604	63
100.005599	11
102.033826	16
104.049476	16
107.060375	10
110.999604	85
112.005599	12
112.990102	46
118.05255	22
119.060375	24
125.002678	10
126.010503	141
127.018328	450
128.026153	20
128.049476	12
129.044725	138
138.008673	55
140.024324	26
155.060375	12
165.069877	37
166.065126	16
167.072951	50
178.065126	14
179.072951	10
180.080776	19
183.091675	10
184.0995	12
192.0682	19
192.080776	73
193.076025	49
193.088601	53
194.08385	44
196.086924	12
205.077855	48
206.08385	17
210.102574	18
218.071274	58
219.079099	90
220.086924	465
221.094749	18
227.047799	155
228.044877	188
232.086924	19
233.096579	43
234.102574	43
235.097823	33
237.021402	11
239.037052	141
239.085527	12
240.044877	14
241.050873	57
253.052702	17
254.047951	489
268.063602	24
268.0995	22
269.071427	35
282.102574	14
284.118224	16
292.086924	10
294.102574	181
295.110399	60
303.066523	13
305.082173	10
309.113473	28
310.121298	10
311.129123	760
312.136948	38
317.084003	15
320.094902	72
329.071427	19
330.079252	75
347.105801	999
