Mass spectrum: 2-Methoxy-5-nitrophenol; ESI-QTOF; MS2; CE: 10; [M-H]-
Name: 2-Methoxy-5-nitrophenol
Name: DTXSID0035790
Formula: C7H7NO4
Exact mass: 169.0375077199
SMILES: COC1C=CC(=CC=1O)[N+]([O-])=O
InChI: InChI=1S/C7H7NO4/c1-12-7-3-2-5(8(10)11)4-6(7)9/h2-4,9H,1H3
Instrument type: ESI-QTOF
Ms type: MS2
Ion mode: NEGATIVE
Ionization: ESI
Collision energy: 10
Precursor m/z: 168.0302312682
Precursor type: [M-H]-
m/z	relative intensity
45.993452	11
79.018938	11
95.013853	12
123.008768	107
153.006756	999
168.030231	95
