Mass spectrum: 1,3-Cyclohexanedimethanamine; ESI-QTOF; MS2; CE: 10; [M+H]+
Name: 1,3-Cyclohexanedimethanamine
Name: DTXSID4041238
Formula: C8H18N2
Exact mass: 142.146998589
SMILES: NCC1CC(CCC1)CN
InChI: InChI=1S/C8H18N2/c9-5-7-2-1-3-8(4-7)6-10/h7-8H,1-6,9-10H2
Instrument type: ESI-QTOF
Ms type: MS2
Ion mode: POSITIVE
Ionization: ESI
Collision energy: 10
Precursor m/z: 143.1542750407
Precursor type: [M+H]+
m/z	relative intensity
67.054227	139
81.069877	18
108.080776	11
109.101177	213
126.127726	999
143.154275	286
