Mass spectrum: 3-(Dimethylphosphono)-N-methylolpropionamide; ESI-QTOF; MS2; CE: 10; [M+H]+
Name: 3-(Dimethylphosphono)-N-methylolpropionamide
Name: DTXSID9040215
Formula: C6H14NO5P
Exact mass: 211.0609590555
SMILES: COP(=O)(CCC(=O)NCO)OC
InChI: InChI=1S/C6H14NO5P/c1-11-13(10,12-2)4-3-6(9)7-5-8/h8H,3-5H2,1-2H3,(H,7,9)
Instrument type: ESI-QTOF
Ms type: MS2
Ion mode: POSITIVE
Ionization: ESI
Collision energy: 10
Precursor m/z: 212.0682355072
Precursor type: [M+H]+
m/z	relative intensity
45.033491	41
89.059706	65
109.004907	66
133.085921	16
137.036207	22
165.031122	999
165.07575	15
