Mass spectrum: Tetraisopropyl methylenediphosphonate; ESI-QTOF; MS2; CE: 40; [M+H]+
Name: Tetraisopropyl methylenediphosphonate
Name: DTXSID7044847
Formula: C13H30O6P2
Exact mass: 344.1517616708
SMILES: CC(C)OP(=O)(CP(=O)(OC(C)C)OC(C)C)OC(C)C
InChI: InChI=1S/C13H30O6P2/c1-10(2)16-20(14,17-11(3)4)9-21(15,18-12(5)6)19-13(7)8/h10-13H,9H2,1-8H3
Instrument type: ESI-QTOF
Ms type: MS2
Ion mode: POSITIVE
Ionization: ESI
Collision energy: 40
Precursor m/z: 345.1590381225
Precursor type: [M+H]+
m/z	relative intensity
78.994342	13
80.973607	10
97.004907	19
98.984172	338
140.950108	34
158.960673	999
159.00767	31
159.0288	19
176.971237	792
177.022879	20
177.039364	12
