Mass spectrum: 3,4,4'-Triaminodiphenyl ether; ESI-QTOF; MS2; CE: 10; [M+H]+
Name: 3,4,4'-Triaminodiphenyl ether
Name: DTXSID1021372
Formula: C12H13N3O
Exact mass: 215.1058620592
SMILES: NC1C=CC(=CC=1)OC1C=C(N)C(N)=CC=1
InChI: InChI=1S/C12H13N3O/c13-8-1-3-9(4-2-8)16-10-5-6-11(14)12(15)7-10/h1-7H,13-15H2
Instrument type: ESI-QTOF
Ms type: MS2
Ion mode: POSITIVE
Ionization: ESI
Collision energy: 10
Precursor m/z: 216.1131385109
Precursor type: [M+H]+
m/z	relative intensity
80.049476	15
107.060375	40
108.04439	999
108.0682	425
109.076025	463
123.055289	18
199.086589	43
216.113139	520
