Mass spectrum: 2',4',5'-Trihydroxybutyrophenone; ESI-QTOF; MS2; CE: 20; [M-H]-
Name: 2',4',5'-Trihydroxybutyrophenone
Name: DTXSID2026232
Formula: C10H12O4
Exact mass: 196.073558872
SMILES: CCCC(=O)C1=CC(O)=C(O)C=C1O
InChI: InChI=1S/C10H12O4/c1-2-3-7(11)6-4-9(13)10(14)5-8(6)12/h4-5,12-14H,2-3H2,1H3
Instrument type: ESI-QTOF
Ms type: MS2
Ion mode: NEGATIVE
Ionization: ESI
Collision energy: 20
Precursor m/z: 195.0662824203
Precursor type: [M-H]-
m/z	relative intensity
41.003288	50
51.024024	53
53.039674	23
55.018938	20
67.018938	14
69.034588	53
79.018938	71
81.034588	59
83.013853	34
95.013853	243
95.050238	10
96.021678	12
97.029503	58
97.065888	52
107.013853	219
109.065888	10
111.081539	18
121.065888	12
122.037328	22
123.008768	202
123.081539	23
124.016593	401
125.024418	785
125.060803	51
151.003682	397
151.076453	16
152.011507	150
153.055718	21
166.027157	237
167.071368	15
177.055718	21
195.066282	999
