Mass spectrum: Triisopropanolamine; ESI-QTOF; MS2; CE: 10; [M+H]+
Name: Triisopropanolamine
Formula: C9H21NO3
Exact mass: 191.1521435442
SMILES: CC(O)CN(CC(C)O)CC(C)O
InChI: InChI=1S/C9H21NO3/c1-7(11)4-10(5-8(2)12)6-9(3)13/h7-9,11-13H,4-6H2,1-3H3
Instrument type: ESI-QTOF
Ms type: MS2
Ion mode: POSITIVE
Ionization: ESI
Collision energy: 10
Precursor m/z: 192.1594199959
Precursor type: [M+H]+
m/z	relative intensity
59.049141	25
98.096426	99
116.10699	46
156.138291	88
174.148855	456
192.15942	999
