Mass spectrum: Estragole; ESI-QTOF; MS2; CE: 10; [M+H]+
Name: Estragole
Name: DTXSID0020575
Formula: C10H12O
Exact mass: 148.0888150051
SMILES: COC1C=CC(CC=C)=CC=1
InChI: InChI=1S/C10H12O/c1-3-4-9-5-7-10(11-2)8-6-9/h3,5-8H,1,4H2,2H3
Instrument type: ESI-QTOF
Ms type: MS2
Ion mode: POSITIVE
Ionization: ESI
Collision energy: 10
Precursor m/z: 149.0960914568
Precursor type: [M+H]+
m/z	relative intensity
61.007276	10
63.994366	21
79.017841	999
79.054227	40
80.025666	28
