Mass spectrum: Parinol; ESI-QTOF; MS2; CE: 20; [M+H]+
Name: Parinol
Name: DTXSID4042256
Formula: C18H13Cl2NO
Exact mass: 329.0374194644
SMILES: OC(C1C=NC=CC=1)(C1C=CC(Cl)=CC=1)C1C=CC(Cl)=CC=1
InChI: InChI=1S/C18H13Cl2NO/c19-16-7-3-13(4-8-16)18(22,15-2-1-11-21-12-15)14-5-9-17(20)10-6-14/h1-12,22H
Instrument type: ESI-QTOF
Ms type: MS2
Ion mode: POSITIVE
Ionization: ESI
Collision energy: 20
Precursor m/z: 330.0446959161
Precursor type: [M+H]+
m/z	relative intensity
80.049476	143
277.065279	18
312.034131	15
330.044696	999
