Mass spectrum: ECC; ESI-QTOF; MS2; CE: 10; [M+H]+
Name: ECC
Name: DTXSID2027466
Formula: C14H20O4
Exact mass: 252.1361591272
SMILES: O=C(OCC1CC2OC2CC1)C1CC2OC2CC1
InChI: InChI=1S/C14H20O4/c15-14(9-2-4-11-13(6-9)18-11)16-7-8-1-3-10-12(5-8)17-10/h8-13H,1-7H2
Instrument type: ESI-QTOF
Ms type: MS2
Ion mode: POSITIVE
Ionization: ESI
Collision energy: 10
Precursor m/z: 253.1434355789
Precursor type: [M+H]+
m/z	relative intensity
41.038577	12
43.017841	21
47.012756	13
55.017841	46
67.054227	119
69.069877	39
77.038577	40
79.054227	151
81.069877	207
83.085527	21
91.054227	62
93.069877	678
93.112135	10
97.064791	153
97.085921	13
107.049141	70
111.080441	999
111.116827	17
125.059706	251
129.091006	32
143.070271	233
253.143436	140
