Mass spectrum: Bis(2-butoxyethyl) decanedioate; ESI-QTOF; MS2; CE: 10; [M+H]+
Name: Bis(2-butoxyethyl) decanedioate
Name: DTXSID6044802
Formula: C22H42O6
Exact mass: 402.2981390736
SMILES: CCCCOCCOC(=O)CCCCCCCCC(=O)OCCOCCCC
InChI: InChI=1S/C22H42O6/c1-3-5-15-25-17-19-27-21(23)13-11-9-7-8-10-12-14-22(24)28-20-18-26-16-6-4-2/h3-20H2,1-2H3
Instrument type: ESI-QTOF
Ms type: MS2
Ion mode: POSITIVE
Ionization: ESI
Collision energy: 10
Precursor m/z: 403.3054155253
Precursor type: [M+H]+
m/z	relative intensity
45.033491	11
55.054227	13
57.069877	19
101.096091	11
211.132871	32
213.148521	65
229.143436	92
285.206036	226
329.232251	999
329.305022	12
