Mass spectrum: 4'-Chloro-2',5'-dimethoxyacetoacetanilide; ESI-QTOF; MS2; CE: 40; [M-H]-
Name: 4'-Chloro-2',5'-dimethoxyacetoacetanilide
Name: DTXSID5029265
Formula: C12H14ClNO4
Exact mass: 271.0611356532
SMILES: CC(=O)CC(=O)NC1C=C(OC)C(Cl)=CC=1OC
InChI: InChI=1S/C12H14ClNO4/c1-7(15)4-12(16)14-9-6-10(17-2)8(13)5-11(9)18-3/h5-6H,4H2,1-3H3,(H,14,16)
Instrument type: ESI-QTOF
Ms type: MS2
Ion mode: NEGATIVE
Ionization: ESI
Collision energy: 40
Precursor m/z: 270.0538592015
Precursor type: [M-H]-
m/z	relative intensity
34.969401	118
39.024024	15
41.003288	342
57.034588	999
57.058398	21
57.070974	11
64.019273	102
83.013853	586
83.050238	12
92.014187	15
120.009102	27
127.990378	10
155.985292	491
171.008768	26
