Mass spectrum: N-(Butoxymethyl)acrylamide; ESI-QTOF; MS2; CE: 40; [M+H]+
Name: N-(Butoxymethyl)acrylamide
Name: DTXSID9027443
Formula: C8H15NO2
Exact mass: 157.1102787305
SMILES: CCCCOCNC(=O)C=C
InChI: InChI=1S/C8H15NO2/c1-3-5-6-11-7-9-8(10)4-2/h4H,2-3,5-7H2,1H3,(H,9,10)
Instrument type: ESI-QTOF
Ms type: MS2
Ion mode: POSITIVE
Ionization: ESI
Collision energy: 40
Precursor m/z: 158.1175551822
Precursor type: [M+H]+
m/z	relative intensity
45.992355	37
47.00018	252
47.999451	103
55.017841	19
61.007276	93
62.015101	91
63.022927	49
63.994366	999
64.030752	21
64.039305	15
65.002191	348
65.99744	28
79.017841	204
80.025666	168
