Mass spectrum: 2-Amino-5-(5-nitro-2-furyl)-1,3,4-oxadiazole; ESI-QTOF; MS2; CE: 20; [M+H]+
Name: 2-Amino-5-(5-nitro-2-furyl)-1,3,4-oxadiazole
Name: DTXSID2020058
Formula: C6H4N4O4
Exact mass: 196.0232546464
SMILES: NC1=NN=C(O1)C1=CC=C(O1)[N+]([O-])=O
InChI: InChI=1S/C6H4N4O4/c7-6-9-8-5(14-6)3-1-2-4(13-3)10(11)12/h1-2H,(H2,7,9)
Instrument type: ESI-QTOF
Ms type: MS2
Ion mode: POSITIVE
Ionization: ESI
Collision energy: 20
Precursor m/z: 197.0305310981
Precursor type: [M+H]+
m/z	relative intensity
41.026001	130
42.008673	11
42.021249	20
44.01309	10
52.018175	91
52.030752	50
53.026001	142
54.010016	834
54.033826	69
55.041651	32
64.018175	21
67.017841	16
68.024324	15
68.0369	169
68.997106	14
69.992355	16
78.010016	81
78.018569	43
79.017841	69
80.0369	239
81.020915	42
82.004931	999
82.039974	20
93.020915	45
94.013484	12
94.02874	67
95.008733	10
95.035223	20
95.047799	13
96.020581	63
96.031814	50
106.016164	14
107.023989	36
108.008005	18
108.031814	201
109.01583	10
111.042713	67
123.042713	253
134.011079	52
139.013818	20
151.037628	79
154.024717	48
169.035616	14
180.003982	198
197.030531	102
