Mass spectrum: Resorcinol monobenzoate; ESI-QTOF; MS2; CE: 20; [M-H]-
Name: Resorcinol monobenzoate
Name: DTXSID1038878
Formula: C13H10O3
Exact mass: 214.0629941859
SMILES: OC1=CC(=CC=C1)OC(=O)C1C=CC=CC=1
InChI: InChI=1S/C13H10O3/c14-11-7-4-8-12(9-11)16-13(15)10-5-2-1-3-6-10/h1-9,14H
Instrument type: ESI-QTOF
Ms type: MS2
Ion mode: NEGATIVE
Ionization: ESI
Collision energy: 20
Precursor m/z: 213.0557177342
Precursor type: [M-H]-
m/z	relative intensity
41.003288	20
67.018938	26
77.039674	486
91.018938	55
108.021678	14
121.029503	804
121.065888	14
135.008768	18
141.070974	31
143.050238	65
154.042413	51
167.050238	12
169.065888	999
171.045153	31
213.055718	30
