Mass spectrum: Tricyclodecanedimethanol diacrylate; ESI-QTOF; MS2; CE: 40; [M+H]+
Name: Tricyclodecanedimethanol diacrylate
Name: DTXSID5044940
Formula: C18H24O4
Exact mass: 304.1674592548
SMILES: C=CC(=O)OCC1CCC2C1C1CC2C(C1)COC(=O)C=C
InChI: InChI=1S/C18H24O4/c1-3-16(19)21-9-11-5-6-14-15-8-12(18(11)14)7-13(15)10-22-17(20)4-2/h3-4,11-15,18H,1-2,5-10H2
Instrument type: ESI-QTOF
Ms type: MS2
Ion mode: POSITIVE
Ionization: ESI
Collision energy: 40
Precursor m/z: 305.1747357065
Precursor type: [M+H]+
m/z	relative intensity
41.038577	62
43.054227	24
51.022927	12
55.017841	31
55.054227	120
65.038577	16
67.054227	459
69.069877	55
73.028406	24
77.038577	205
79.054227	652
81.069877	830
83.085527	22
91.054227	999
93.069877	312
95.085527	389
103.054227	19
104.062052	11
105.069877	729
107.085527	59
117.069877	21
119.085527	369
120.093352	16
131.085527	38
133.101177	256
159.116827	12
161.132477	105
