Mass spectrum: 4-Amino-6-tert-butyl-3-thioxo-3,4-dihydro-1,2,4-triazin-5(2H)-one; ESI-QTOF; MS2; CE: 10; [M-H]-
Name: 4-Amino-6-tert-butyl-3-thioxo-3,4-dihydro-1,2,4-triazin-5(2H)-one
Name: DTXSID0027981
Formula: C7H12N4OS
Exact mass: 200.0731817647
SMILES: CC(C)(C)C1N=NC(=S)N(N)C1=O
InChI: InChI=1S/C7H12N4OS/c1-7(2,3)4-5(12)11(8)6(13)10-9-4/h4H,8H2,1-3H3
Instrument type: ESI-QTOF
Ms type: MS2
Ion mode: NEGATIVE
Ionization: ESI
Collision energy: 10
Precursor m/z: 199.065905313
Precursor type: [M-H]-
m/z	relative intensity
57.975693	186
199.065905	999
