Mass spectrum: 3,3'-Sulphonyldianiline; ESI-QTOF; MS2; CE: 40; [M-H]-
Name: 3,3'-Sulphonyldianiline
Name: DTXSID3044962
Formula: C12H12N2O2S
Exact mass: 248.0619483722
SMILES: NC1C=C(C=CC=1)S(=O)(=O)C1=CC(N)=CC=C1
InChI: InChI=1S/C12H12N2O2S/c13-9-3-1-5-11(7-9)17(15,16)12-6-2-4-10(14)8-12/h1-8H,13-14H2
Instrument type: ESI-QTOF
Ms type: MS2
Ion mode: NEGATIVE
Ionization: ESI
Collision energy: 40
Precursor m/z: 247.0546719205
Precursor type: [M-H]-
m/z	relative intensity
43.006362	38
63.962449	999
63.995463	17
64.006697	12
91.042748	144
92.037997	13
92.050573	163
100.970274	11
107.037662	21
108.045487	62
124.970274	12
156.012473	53
