Mass spectrum: 4-Oxopentanoic acid; ESI-QTOF; MS2; CE: 20; [M-H]-
Name: 4-Oxopentanoic acid
Formula: C5H8O3
Exact mass: 116.0473441221
SMILES: CC(=O)CCC(O)=O
InChI: InChI=1S/C5H8O3/c1-4(6)2-3-5(7)8/h2-3H2,1H3,(H,7,8)
Instrument type: ESI-QTOF
Ms type: MS2
Ion mode: NEGATIVE
Ionization: ESI
Collision energy: 20
Precursor m/z: 115.0400676704
Precursor type: [M-H]-
m/z	relative intensity
41.003288	552
43.018938	289
55.018938	58
56.026763	13
69.034588	326
71.050238	999
97.029503	190
115.040068	54
