Mass spectrum: 2-(1-Methylbutyl)phenol; ESI-QTOF; MS2; CE: 40; [M-H]-
Name: 2-(1-Methylbutyl)phenol
Formula: C11H16O
Exact mass: 164.1201151327
SMILES: CCCC(C)C1C=CC=CC=1O
InChI: InChI=1S/C11H16O/c1-3-6-9(2)10-7-4-5-8-11(10)12/h4-5,7-9,12H,3,6H2,1-2H3
Instrument type: ESI-QTOF
Ms type: MS2
Ion mode: NEGATIVE
Ionization: ESI
Collision energy: 40
Precursor m/z: 163.112838681
Precursor type: [M-H]-
m/z	relative intensity
41.003288	100
43.018938	10
65.039674	69
91.018938	37
91.055324	48
93.034588	128
117.034588	158
119.050238	999
133.065888	42
