Mass spectrum: 9-Phenanthrol; ESI-QTOF; MS2; CE: 40; [M-H]-
Name: 9-Phenanthrol
Name: DTXSID9047592
Formula: C14H10O
Exact mass: 194.0731649413
SMILES: OC1=CC2C=CC=CC=2C2=CC=CC=C21
InChI: InChI=1S/C14H10O/c15-14-9-10-5-1-2-6-11(10)12-7-3-4-8-13(12)14/h1-9,15H
Instrument type: ESI-QTOF
Ms type: MS2
Ion mode: NEGATIVE
Ionization: ESI
Collision energy: 40
Precursor m/z: 193.0658884896
Precursor type: [M-H]-
m/z	relative intensity
164.063149	24
165.070974	999
193.065888	642
