Mass spectrum: N-Phenylglycine; ESI-QTOF; MS2; CE: 10; [M-H]-
Name: N-Phenylglycine
Name: DTXSID0027806
Formula: C8H9NO2
Exact mass: 151.0633285391
SMILES: OC(=O)CNC1C=CC=CC=1
InChI: InChI=1S/C8H9NO2/c10-8(11)6-9-7-4-2-1-3-5-7/h1-5,9H,6H2,(H,10,11)
Instrument type: ESI-QTOF
Ms type: MS2
Ion mode: NEGATIVE
Ionization: ESI
Collision energy: 10
Precursor m/z: 150.0560520874
Precursor type: [M-H]-
m/z	relative intensity
41.998537	10
92.050573	13
106.066223	256
150.056052	999
