Mass spectrum: 5-(5-Nitro-2-furyl)-1,3,4-oxadiazole-2-ol; ESI-QTOF; MS2; CE: 40; [M-H]-
Name: 5-(5-Nitro-2-furyl)-1,3,4-oxadiazole-2-ol
Name: DTXSID5020948
Formula: C6H3N3O5
Exact mass: 197.0072702294
SMILES: [O-][N+](=O)C1=CC=C(O1)C1=NN=C(O)O1
InChI: InChI=1S/C6H3N3O5/c10-6-8-7-5(14-6)3-1-2-4(13-3)9(11)12/h1-2H,(H,8,10)
Instrument type: ESI-QTOF
Ms type: MS2
Ion mode: NEGATIVE
Ionization: ESI
Collision energy: 40
Precursor m/z: 195.9999937777
Precursor type: [M-H]-
m/z	relative intensity
37.008374	20
41.998537	579
42.022347	14
45.993452	490
46.017261	12
48.000549	12
49.008374	999
50.003623	23
50.016199	45
51.995463	28
63.011448	11
65.003288	758
66.009771	13
77.003288	235
