Mass spectrum: Nor-nitrogen mustard; ESI-QTOF; MS2; CE: 10; [M+H]+
Name: Nor-nitrogen mustard
Formula: C4H9Cl2N
Exact mass: 141.0112047145
SMILES: ClCCNCCCl
InChI: InChI=1S/C4H9Cl2N/c5-1-3-7-4-2-6/h7H,1-4H2
Instrument type: ESI-QTOF
Ms type: MS2
Ion mode: POSITIVE
Ionization: ESI
Collision energy: 10
Precursor m/z: 142.0184811662
Precursor type: [M+H]+
m/z	relative intensity
44.049476	86
62.999604	353
80.026153	12
101.002678	46
106.041803	43
142.018481	999
