Mass spectrum: N,N'-Disalicylidene-1,2-diaminopropane; ESI-QTOF; MS2; CE: 10; [M+H]+
Name: N,N'-Disalicylidene-1,2-diaminopropane
Formula: C17H18N2O2
Exact mass: 282.1368278336
SMILES: CC(C/N=C/C1=CC=CC=C1O)/N=C/C1=CC=CC=C1O
InChI: InChI=1S/C17H18N2O2/c1-13(19-12-15-7-3-5-9-17(15)21)10-18-11-14-6-2-4-8-16(14)20/h2-9,11-13,20-21H,10H2,1H3/b18-11+,19-12+
Instrument type: ESI-QTOF
Ms type: MS2
Ion mode: POSITIVE
Ionization: ESI
Collision energy: 10
Precursor m/z: 283.1441042853
Precursor type: [M+H]+
m/z	relative intensity
58.065126	15
122.06004	11
145.064791	47
162.09134	140
226.086255	13
283.144104	999
