Mass spectrum: tert-Butyl hydrogen phthalate; ESI-QTOF; MS2; CE: 20; [M-H]-
Name: tert-Butyl hydrogen phthalate
Name: DTXSID1047150
Formula: C12H14O4
Exact mass: 222.0892089358
SMILES: CC(C)(C)OC(=O)C1=CC=CC=C1C(O)=O
InChI: InChI=1S/C12H14O4/c1-12(2,3)16-11(15)9-7-5-4-6-8(9)10(13)14/h4-7H,1-3H3,(H,13,14)
Instrument type: ESI-QTOF
Ms type: MS2
Ion mode: NEGATIVE
Ionization: ESI
Collision energy: 20
Precursor m/z: 221.0819324841
Precursor type: [M-H]-
m/z	relative intensity
57.034588	53
73.065888	44
75.024024	60
77.039674	713
103.018938	20
119.013853	41
121.029503	999
147.008768	265
