Mass spectrum: SAR377142; ESI-QTOF; MS2; CE: 10; [M-H]-
Name: SAR377142
Name: DTXSID4047385
Formula: C26H33ClN6O4
Exact mass: 528.2251812963
SMILES: CC(C)N1CCC(CC1)NC(=O)C1=CC2=CC(=NC=C2N1CC(=O)NC1C=CC(Cl)=CN=1)OCCOC
InChI: InChI=1S/C26H33ClN6O4/c1-17(2)32-8-6-20(7-9-32)30-26(35)21-12-18-13-25(37-11-10-36-3)29-15-22(18)33(21)16-24(34)31-23-5-4-19(27)14-28-23/h4-5,12-15,17,20H,6-11,16H2,1-3H3,(H,30,35)(H,28,31,34)
Instrument type: ESI-QTOF
Ms type: MS2
Ion mode: NEGATIVE
Ionization: ESI
Collision energy: 10
Precursor m/z: 527.2179048446
Precursor type: [M-H]-
m/z	relative intensity
127.006849	15
399.204266	999
400.204881	10
527.217905	92
