Mass spectrum: C.I. Acid Orange 10; ESI-QTOF; MS2; CE: 10; [M-H]-
Name: C.I. Acid Orange 10
Name: DTXSID6021082
Formula: C16H12N2O7S2
Exact mass: 408.0085922137
SMILES: OC1=CC=C2C=C(C=C(C2=C1/N=N/C1C=CC=CC=1)S(O)(=O)=O)S(O)(=O)=O
InChI: InChI=1S/C16H12N2O7S2/c19-13-7-6-10-8-12(26(20,21)22)9-14(27(23,24)25)15(10)16(13)18-17-11-4-2-1-3-5-11/h1-9,19H,(H,20,21,22)(H,23,24,25)/b18-17+
Instrument type: ESI-QTOF
Ms type: MS2
Ion mode: NEGATIVE
Ionization: ESI
Collision energy: 10
Precursor m/z: 407.001315762
Precursor type: [M-H]-
m/z	relative intensity
232.976147	42
299.038353	11
301.956043	999
302.02142	17
302.960497	16
327.044501	48
378.995168	31
407.001316	357
