Mass spectrum: Chlorendic acid; ESI-QTOF; MS2; CE: 40; [M-H]-
Name: Chlorendic acid
Formula: C9H4Cl6O4
Exact mass: 385.8240748768
SMILES: OC(=O)C1C(C(O)=O)C2(Cl)C(Cl)=C(Cl)C1(Cl)C2(Cl)Cl
InChI: InChI=1S/C9H4Cl6O4/c10-3-4(11)8(13)2(6(18)19)1(5(16)17)7(3,12)9(8,14)15/h1-2H,(H,16,17)(H,18,19)
Instrument type: ESI-QTOF
Ms type: MS2
Ion mode: NEGATIVE
Ionization: ESI
Collision energy: 40
Precursor m/z: 384.8167984251
Precursor type: [M-H]-
m/z	relative intensity
34.969401	932
176.907107	999
204.902021	274
224.868528	23
232.896936	42
248.891851	77
