Mass spectrum: 5-Ethyl-2,3-pyridinedicarboxylic acid; ESI-QTOF; MS2; CE: 40; [M+H]+
Name: 5-Ethyl-2,3-pyridinedicarboxylic acid
Formula: C9H9NO4
Exact mass: 195.0531577837
SMILES: CCC1=CC(=C(N=C1)C(O)=O)C(O)=O
InChI: InChI=1S/C9H9NO4/c1-2-5-3-6(8(11)12)7(9(13)14)10-4-5/h3-4H,2H2,1H3,(H,11,12)(H,13,14)
Instrument type: ESI-QTOF
Ms type: MS2
Ion mode: POSITIVE
Ionization: ESI
Collision energy: 40
Precursor m/z: 196.0604342354
Precursor type: [M+H]+
m/z	relative intensity
39.022927	25
41.038577	63
51.022927	28
52.018175	312
53.038577	31
53.99744	20
54.033826	14
55.017841	11
65.038577	48
66.033826	41
66.046402	26
67.041651	11
67.054227	196
77.038577	270
78.033826	31
79.054227	10
80.049476	40
82.02874	35
91.041651	25
92.049476	44
93.057301	82
94.02874	32
94.065126	29
106.065126	999
137.04713	69
