Mass spectrum: C.I.Disperse Yellow 42; ESI-QTOF; MS2; CE: 40; [M-H]-
Name: C.I.Disperse Yellow 42
Name: DTXSID8052148
Formula: C18H15N3O4S
Exact mass: 369.0783267199
SMILES: [O-][N+](=O)C1=CC(=CC=C1NC1C=CC=CC=1)S(=O)(=O)NC1C=CC=CC=1
InChI: InChI=1S/C18H15N3O4S/c22-21(23)18-13-16(26(24,25)20-15-9-5-2-6-10-15)11-12-17(18)19-14-7-3-1-4-8-14/h1-13,19-20H
Instrument type: ESI-QTOF
Ms type: MS2
Ion mode: NEGATIVE
Ionization: ESI
Collision energy: 40
Precursor m/z: 368.0710502682
Precursor type: [M-H]-
m/z	relative intensity
41.003288	12
45.993452	173
63.962449	19
90.034923	13
91.018938	25
91.042748	429
92.050573	999
92.084278	24
92.108088	13
116.050573	35
122.024752	65
142.066223	11
144.045487	10
153.057746	17
154.065571	32
155.004648	27
164.050573	33
165.058398	595
165.103337	10
166.066223	875
166.111162	19
167.062163	50
170.061137	34
180.069297	42
181.054003	278
182.060486	44
183.068962	133
192.056721	23
195.056386	44
197.072037	447
198.056052	19
199.063877	10
211.051301	278
212.059126	88
246.092438	11
254.084947	22
255.092772	74
256.100597	59
257.108422	95
258.103671	23
259.087687	10
268.088021	45
270.103671	69
271.075111	14
273.103337	113
274.111162	35
284.082936	13
285.090761	10
286.098586	296
321.070322	343
337.065237	10
350.060486	42
368.07105	22
