Mass spectrum: Dexamethasone phosphate; ESI-QTOF; MS2; CE: 20; [M-H]-
Name: Dexamethasone phosphate
Name: DTXSID3047429
Formula: C22H30FO8P
Exact mass: 472.1662326254
SMILES: CC1CC2C3CCC4=CC(=O)C=CC4(C)C3(F)C(O)CC2(C)C1(O)C(=O)COP(O)(O)=O
InChI: InChI=1S/C22H30FO8P/c1-12-8-16-15-5-4-13-9-14(24)6-7-19(13,2)21(15,23)17(25)10-20(16,3)22(12,27)18(26)11-31-32(28,29)30/h6-7,9,12,15-17,25,27H,4-5,8,10-11H2,1-3H3,(H2,28,29,30)
Instrument type: ESI-QTOF
Ms type: MS2
Ion mode: NEGATIVE
Ionization: ESI
Collision energy: 20
Precursor m/z: 471.1589561737
Precursor type: [M-H]-
m/z	relative intensity
78.959054	390
96.969619	187
138.980183	29
441.148391	26
453.148391	13
471.158956	999
