Mass spectrum: Diethyl hydrogen phosphate; ESI-QTOF; MS2; CE: 20; [M-H]-
Name: Diethyl hydrogen phosphate
Name: DTXSID1044699
Formula: C4H11O4P
Exact mass: 154.0394953301
SMILES: CCOP(O)(=O)OCC
InChI: InChI=1S/C4H11O4P/c1-3-7-9(5,6)8-4-2/h3-4H2,1-2H3,(H,5,6)
Instrument type: ESI-QTOF
Ms type: MS2
Ion mode: NEGATIVE
Ionization: ESI
Collision energy: 20
Precursor m/z: 153.0322188784
Precursor type: [M-H]-
m/z	relative intensity
78.959054	999
78.995439	61
79.003682	36
125.000919	38
