Mass spectrum: N-(2-Methoxyphenyl)-3-oxobutanamide; ESI-QTOF; MS2; CE: 40; [M+H]+
Name: N-(2-Methoxyphenyl)-3-oxobutanamide
Formula: C11H13NO3
Exact mass: 207.089543289
SMILES: CC(=O)CC(=O)NC1C=CC=CC=1OC
InChI: InChI=1S/C11H13NO3/c1-8(13)7-11(14)12-9-5-3-4-6-10(9)15-2/h3-6H,7H2,1-2H3,(H,12,14)
Instrument type: ESI-QTOF
Ms type: MS2
Ion mode: POSITIVE
Ionization: ESI
Collision energy: 40
Precursor m/z: 208.0968197407
Precursor type: [M+H]+
m/z	relative intensity
39.022927	11
41.038577	13
43.017841	675
43.041651	17
43.054227	12
59.049141	18
63.022927	11
65.038577	191
67.054227	14
77.038577	128
79.041651	71
80.049476	78
81.057301	31
85.028406	13
91.041651	34
92.025666	11
92.049476	145
93.057301	16
94.065126	45
107.036565	19
108.04439	24
109.052215	999
109.088601	25
124.07569	70
135.03148	50
150.054955	11
