Mass spectrum: CJ-013610; ESI-QTOF; MS2; CE: 40; [M+H]+
Name: CJ-013610
Name: DTXSID2047272
Formula: C22H23N3O2S
Exact mass: 393.1510977305
SMILES: CC1=NC=CN1C1C=CC(=CC=1)SC1C=C(C=CC=1)C1(CCOCC1)C(N)=O
InChI: InChI=1S/C22H23N3O2S/c1-16-24-11-12-25(16)18-5-7-19(8-6-18)28-20-4-2-3-17(15-20)22(21(23)26)9-13-27-14-10-22/h2-8,11-12,15H,9-10,13-14H2,1H3,(H2,23,26)
Instrument type: ESI-QTOF
Ms type: MS2
Ion mode: POSITIVE
Ionization: ESI
Collision energy: 40
Precursor m/z: 394.1583741822
Precursor type: [M+H]+
m/z	relative intensity
117.0573006505	18
129.0698767069	16
148.0215463486	25
158.0838497536	12
162.0371964124	50
189.0480954517	28
280.102870675	16
291.0950456431	57
292.102870675	53
305.1106957069	12
319.1263457707	999
321.1056103292	16
349.1369104568	82
394.1583741822	252
