Mass spectrum: D-Lactic acid; ESI-QTOF; MS2; CE: 10; [M-H]-
Name: D-Lactic acid
Name: 乳酸
Name: 2-羟基丙酸
Name: α-羟基丙酸
Name: 丙醇酸
Name: D-Lactate
Name: (-)-Lactic acid
Name: α-Hydroxypropanoic acid
Formula: C3H6O3
Exact mass: 90.0316940583
SMILES: C[C@@H](O)C(O)=O
InChI: InChI=1S/C3H6O3/c1-2(4)3(5)6/h2,4H,1H3,(H,5,6)/t2-/m1/s1
Instrument type: ESI-QTOF
Ms type: MS2
Ion mode: NEGATIVE
Ionization: ESI
Collision energy: 10
Precursor m/z: 89.0244176066
Precursor type: [M-H]-
m/z	relative intensity
41.003288	15
43.018938	967
44.998203	52
71.013853	31
87.008768	19
89.024418	999
