Mass spectrum: Azacyclotridecan-2-one; ESI-QTOF; MS2; CE: 20; [M+H]+
Name: Azacyclotridecan-2-one
Formula: C12H23NO
Exact mass: 197.1779643634
SMILES: O=C1CCCCCCCCCCCN1
InChI: InChI=1S/C12H23NO/c14-12-10-8-6-4-2-1-3-5-7-9-11-13-12/h1-11H2,(H,13,14)
Instrument type: ESI-QTOF
Ms type: MS2
Ion mode: POSITIVE
Ionization: ESI
Collision energy: 20
Precursor m/z: 198.1852408151
Precursor type: [M+H]+
m/z	relative intensity
41.038577	23
43.054227	133
44.01309	17
55.017841	23
55.054227	173
57.069877	120
67.054227	15
69.069877	130
71.085527	35
72.04439	13
72.080776	13
79.054227	19
81.069877	30
82.065126	10
83.085527	121
86.06004	23
93.069877	20
95.085527	25
96.080776	11
97.064791	23
97.101177	56
100.07569	30
107.085527	20
110.096426	10
111.080441	10
114.09134	13
121.101177	13
124.112076	10
198.185241	999
