Mass spectrum: Benzylhexadecyldimethylammonium; ESI-QTOF; MS2; CE: 20; [M+H]+
Name: Benzylhexadecyldimethylammonium
Formula: [C25H46N]+
Exact mass: 360.3630254748
SMILES: CCCCCCCCCCCCCCCC[N+](C)(C)CC1C=CC=CC=1
InChI: InChI=1S/C25H46N/c1-4-5-6-7-8-9-10-11-12-13-14-15-16-20-23-26(2,3)24-25-21-18-17-19-22-25/h17-19,21-22H,4-16,20,23-24H2,1-3H3/q+1
Instrument type: ESI-QTOF
Ms type: MS2
Ion mode: POSITIVE
Ionization: ESI
Collision energy: 20
Precursor m/z: 361.3703019265
Precursor type: [M+H]+
m/z	relative intensity
58.065126	87
59.072951	12
91.054227	180
92.062052	67
268.299877	65
269.307702	153
361.370302	999
