Mass spectrum: sec-Butylurea; ESI-QTOF; MS2; CE: 40; [M+H]+
Name: sec-Butylurea
Name: DTXSID8027294
Formula: C5H12N2O
Exact mass: 116.0949630199
SMILES: CCC(C)NC(N)=O
InChI: InChI=1S/C5H12N2O/c1-3-4(2)7-5(6)8/h4H,3H2,1-2H3,(H3,6,7,8)
Instrument type: ESI-QTOF
Ms type: MS2
Ion mode: POSITIVE
Ionization: ESI
Collision energy: 40
Precursor m/z: 117.1022394716
Precursor type: [M+H]+
m/z	relative intensity
29.038577	13
38.015101	11
39.022927	291
41.038577	437
43.029075	25
44.01309	999
44.0369	18
44.049476	27
57.069877	23
61.039639	25
