Mass spectrum: 2,6-Dimethyl morpholine; ESI-QTOF; MS2; CE: 40; [M+H]+
Name: 2,6-Dimethyl morpholine
Name: DTXSID6022002
Formula: C6H13NO
Exact mass: 115.0997140444
SMILES: CC1CNCC(C)O1
InChI: InChI=1S/C6H13NO/c1-5-3-7-4-6(2)8-5/h5-7H,3-4H2,1-2H3
Instrument type: ESI-QTOF
Ms type: MS2
Ion mode: POSITIVE
Ionization: ESI
Collision energy: 40
Precursor m/z: 116.1069904961
Precursor type: [M+H]+
m/z	relative intensity
28.018175	13
31.017841	30
39.022927	604
41.026001	16
41.038577	999
42.033826	214
43.017841	20
43.041651	84
43.054227	61
44.049476	15
45.033491	14
54.033826	231
55.041651	59
55.054227	16
56.049476	72
58.065126	47
59.049141	22
66.046402	10
67.041651	31
68.049476	203
68.062052	18
70.065126	11
82.065126	38
