Mass spectrum: 1-N-Methyl-5-thiotetrazole; ESI-QTOF; MS2; CE: 20; [M-H]-
Name: 1-N-Methyl-5-thiotetrazole
Name: DTXSID9051662
Formula: C2H4N4S
Exact mass: 116.0156668872
SMILES: CN1NN=NC1=S
InChI: InChI=1S/C2H4N4S/c1-6-2(7)3-4-5-6/h1H3,(H,3,5,7)
Instrument type: ESI-QTOF
Ms type: MS2
Ion mode: NEGATIVE
Ionization: ESI
Collision energy: 20
Precursor m/z: 115.0083904355
Precursor type: [M-H]-
m/z	relative intensity
42.009771	999
57.975693	70
71.978767	44
