Mass spectrum: Triethyl phosphonoacetate; ESI-QTOF; MS2; CE: 40; [M+H]+
Name: Triethyl phosphonoacetate
Formula: C8H17O5P
Exact mass: 224.0813601438
SMILES: CCOC(=O)CP(=O)(OCC)OCC
InChI: InChI=1S/C8H17O5P/c1-4-11-8(9)7-14(10,12-5-2)13-6-3/h4-7H2,1-3H3
Instrument type: ESI-QTOF
Ms type: MS2
Ion mode: POSITIVE
Ionization: ESI
Collision energy: 40
Precursor m/z: 225.0886365955
Precursor type: [M+H]+
m/z	relative intensity
43.017841	137
46.968128	38
48.983778	14
62.963042	16
64.978692	212
76.978692	10
80.973607	583
81.009992	15
81.018235	10
90.994342	76
94.989257	162
104.973607	999
105.009992	33
105.033491	18
109.004907	31
122.984172	501
123.0288	12
