Mass spectrum: 5-(5-Nitro-2-furyl)-1,3,4-oxadiazole-2-ol; ESI-QTOF; MS2; CE: 20; [M-H]-
Name: 5-(5-Nitro-2-furyl)-1,3,4-oxadiazole-2-ol
Name: DTXSID5020948
Formula: C6H3N3O5
Exact mass: 197.0072702294
SMILES: [O-][N+](=O)C1=CC=C(O1)C1=NN=C(O)O1
InChI: InChI=1S/C6H3N3O5/c10-6-8-7-5(14-6)3-1-2-4(13-3)9(11)12/h1-2H,(H,8,10)
Instrument type: ESI-QTOF
Ms type: MS2
Ion mode: NEGATIVE
Ionization: ESI
Collision energy: 20
Precursor m/z: 195.9999937777
Precursor type: [M-H]-
m/z	relative intensity
41.998537	465
42.022347	11
45.993452	207
49.008374	506
50.003623	17
50.016199	108
51.995463	30
63.011448	12
65.003288	999
66.011113	101
77.003288	666
79.990378	81
80.014187	40
82.006028	216
92.998203	163
94.006028	33
110.000943	109
120.993117	51
124.004017	135
148.999265	109
