Mass spectrum: Acid Yellow 11; ESI-QTOF; MS2; CE: 10; [M-H]-
Name: Acid Yellow 11
Name: DTXSID5047451
Formula: C16H14N4O4S
Exact mass: 358.0735756954
SMILES: CC1=NN(C2C=CC(=CC=2)S(O)(=O)=O)C(=O)C1/N=N/C1C=CC=CC=1
InChI: InChI=1S/C16H14N4O4S/c1-11-15(18-17-12-5-3-2-4-6-12)16(21)20(19-11)13-7-9-14(10-8-13)25(22,23)24/h2-10,15H,1H3,(H,22,23,24)/b18-17+
Instrument type: ESI-QTOF
Ms type: MS2
Ion mode: NEGATIVE
Ionization: ESI
Collision energy: 10
Precursor m/z: 357.0662992437
Precursor type: [M-H]-
m/z	relative intensity
237.02067	29
357.066299	999
