Mass spectrum: alpha-(2,5-Dichlorophenoxy)propionic acid; ESI-QTOF; MS2; CE: 40; [M-H]-
Name: alpha-(2,5-Dichlorophenoxy)propionic acid
Name: DTXSID5020441
Formula: C9H8Cl2O3
Exact mass: 233.9850495421
SMILES: CC(OC1C=C(Cl)C=CC=1Cl)C(O)=O
InChI: InChI=1S/C9H8Cl2O3/c1-5(9(12)13)14-8-4-6(10)2-3-7(8)11/h2-5H,1H3,(H,12,13)
Instrument type: ESI-QTOF
Ms type: MS2
Ion mode: NEGATIVE
Ionization: ESI
Collision energy: 40
Precursor m/z: 232.9777730904
Precursor type: [M-H]-
m/z	relative intensity
34.969401	999
61.008374	46
68.998203	14
89.003288	262
124.979966	798
125.987791	10
160.956644	747
