Mass spectrum: Nicotine sulfate; ESI-QTOF; MS2; CE: 40; [M+H]+
Name: Nicotine sulfate
Name: DTXSID8021725
Formula: C10H14N2
Exact mass: 162.1156984614
SMILES: CN1CCCC1C1=CN=CC=C1
InChI: InChI=1S/C10H14N2/c1-12-7-3-5-10(12)9-4-2-6-11-8-9/h2,4,6,8,10H,3,5,7H2,1H3
Instrument type: ESI-QTOF
Ms type: MS2
Ion mode: POSITIVE
Ionization: ESI
Collision energy: 40
Precursor m/z: 163.1229749131
Precursor type: [M+H]+
m/z	relative intensity
39.022927	25
41.038577	16
42.033826	181
44.049476	102
51.022927	60
53.038577	63
54.033826	14
65.038577	118
67.041651	19
77.038577	310
78.033826	169
79.041651	18
79.054227	50
80.049476	296
82.065126	44
84.080776	290
89.038577	139
90.046402	305
91.054227	47
92.049476	114
93.057301	52
103.054227	167
104.049476	11
106.065126	128
115.054227	40
116.049476	17
117.057301	999
118.065126	38
120.080776	21
128.049476	30
130.065126	517
131.072951	15
