Mass spectrum: 2,6-Di-tert-butyl-4-nitrophenol; ESI-QTOF; MS2; CE: 40; [M-H]-
Name: 2,6-Di-tert-butyl-4-nitrophenol
Name: DTXSID4021559
Formula: C14H21NO3
Exact mass: 251.1521435442
SMILES: CC(C)(C)C1=CC(=CC(=C1O)C(C)(C)C)[N+]([O-])=O
InChI: InChI=1S/C14H21NO3/c1-13(2,3)10-7-9(15(17)18)8-11(12(10)16)14(4,5)6/h7-8,16H,1-6H3
Instrument type: ESI-QTOF
Ms type: MS2
Ion mode: NEGATIVE
Ionization: ESI
Collision energy: 40
Precursor m/z: 250.1448670925
Precursor type: [M-H]-
m/z	relative intensity
45.993452	886
46.029837	15
148.052978	173
164.084278	11
177.128489	11
188.120664	44
189.092103	13
189.128489	11
190.099928	11
204.066617	10
204.115578	36
205.074442	14
205.123403	146
218.082267	21
219.090092	38
220.097917	149
220.146878	26
234.113567	999
235.121392	47
250.144867	305
