Mass spectrum: 7-Amino-4-hydroxynaphthalene-2-sulfonic acid; ESI-QTOF; MS2; CE: 40; [M-H]-
Name: 7-Amino-4-hydroxynaphthalene-2-sulfonic acid
Formula: C10H9NO4S
Exact mass: 239.0252285137
SMILES: NC1=CC2C=C(C=C(O)C=2C=C1)S(O)(=O)=O
InChI: InChI=1S/C10H9NO4S/c11-7-1-2-9-6(3-7)4-8(5-10(9)12)16(13,14)15/h1-5,12H,11H2,(H,13,14,15)
Instrument type: ESI-QTOF
Ms type: MS2
Ion mode: NEGATIVE
Ionization: ESI
Collision energy: 40
Precursor m/z: 238.017952062
Precursor type: [M-H]-
m/z	relative intensity
41.003288	81
79.957363	999
79.990378	21
80.965188	117
129.058398	29
130.066223	23
132.045487	45
158.061137	42
174.056052	61
