Mass spectrum: 1-(o-Tolyl)biguanide; ESI-QTOF; MS2; CE: 40; [M-H]-
Name: 1-(o-Tolyl)biguanide
Formula: C9H13N5
Exact mass: 191.1170954517
SMILES: CC1C=CC=CC=1NC(=N)NC(N)=N
InChI: InChI=1S/C9H13N5/c1-6-4-2-3-5-7(6)13-9(12)14-8(10)11/h2-5H,1H3,(H6,10,11,12,13,14)
Instrument type: ESI-QTOF
Ms type: MS2
Ion mode: NEGATIVE
Ionization: ESI
Collision energy: 40
Precursor m/z: 190.109819
Precursor type: [M-H]-
m/z	relative intensity
41.014522	999
41.039674	21
66.009771	97
83.03632	25
106.066223	72
131.061472	30
