Mass spectrum: Phenethyl anthranilate; ESI-QTOF; MS2; CE: 10; [M+H]+
Name: Phenethyl anthranilate
Name: DTXSID5025861
Formula: C15H15NO2
Exact mass: 241.1102787305
SMILES: NC1=CC=CC=C1C(=O)OCCC1C=CC=CC=1
InChI: InChI=1S/C15H15NO2/c16-14-9-5-4-8-13(14)15(17)18-11-10-12-6-2-1-3-7-12/h1-9H,10-11,16H2
Instrument type: ESI-QTOF
Ms type: MS2
Ion mode: POSITIVE
Ionization: ESI
Collision energy: 10
Precursor m/z: 242.1175551822
Precursor type: [M+H]+
m/z	relative intensity
105.069877	999
120.04439	760
120.080776	14
224.10699	56
242.117555	56
