Mass spectrum: 3-[3,5-DI(tert-butyl)-4-hydroxyphenyl]propanohydrazide; ESI-QTOF; MS2; CE: 40; [M+H]+
Name: 3-[3,5-DI(tert-butyl)-4-hydroxyphenyl]propanohydrazide
Name: DTXSID1027978
Formula: C17H28N2O2
Exact mass: 292.2150781526
SMILES: CC(C)(C)C1C=C(CCC(=O)NN)C=C(C=1O)C(C)(C)C
InChI: InChI=1S/C17H28N2O2/c1-16(2,3)12-9-11(7-8-14(20)19-18)10-13(15(12)21)17(4,5)6/h9-10,21H,7-8,18H2,1-6H3,(H,19,20)
Instrument type: ESI-QTOF
Ms type: MS2
Ion mode: POSITIVE
Ionization: ESI
Collision energy: 40
Precursor m/z: 293.2223546043
Precursor type: [M+H]+
m/z	relative intensity
33.044725	24
41.038577	121
57.069877	613
57.102239	15
75.055289	51
77.038577	28
91.054227	23
107.049141	999
107.085527	27
118.065126	32
119.049141	23
121.064791	38
146.06004	41
147.080441	97
149.059706	19
163.111742	178
181.097154	13
203.143042	31
219.174342	18
