Mass spectrum: Carbonyl cyanide chlorophenylhydrazone; ESI-QTOF; MS2; CE: 10; [M-H]-
Name: Carbonyl cyanide chlorophenylhydrazone
Name: DTXSID7040990
Formula: C9H5ClN4
Exact mass: 204.0202738991
SMILES: N#CC(C#N)/N=N/C1C=C(Cl)C=CC=1
InChI: InChI=1S/C9H5ClN4/c10-7-2-1-3-8(4-7)13-14-9(5-11)6-12/h1-4,9H/b14-13+
Instrument type: ESI-QTOF
Ms type: MS2
Ion mode: NEGATIVE
Ionization: ESI
Collision energy: 10
Precursor m/z: 203.0129974474
Precursor type: [M-H]-
m/z	relative intensity
64.006697	75
115.030172	38
151.006849	467
176.002098	25
203.012997	999
