Mass spectrum: 2,3-Dihydroxynaphthalene; ESI-QTOF; MS2; CE: 20; [M-H]-
Name: 2,3-Dihydroxynaphthalene
Formula: C10H8O2
Exact mass: 160.0524294998
SMILES: OC1=CC2C=CC=CC=2C=C1O
InChI: InChI=1S/C10H8O2/c11-9-5-7-3-1-2-4-8(7)6-10(9)12/h1-6,11-12H
Instrument type: ESI-QTOF
Ms type: MS2
Ion mode: NEGATIVE
Ionization: ESI
Collision energy: 20
Precursor m/z: 159.0451530481
Precursor type: [M-H]-
m/z	relative intensity
103.055324	11
113.039674	62
115.055324	32
130.042413	144
131.050238	368
141.034588	101
158.037328	37
159.045153	999
