Mass spectrum: 1H-1,2,4-Triazole; ESI-QTOF; MS2; CE: 20; [M+H]+
Name: 1H-1,2,4-Triazole
Name: DTXSID6027131
Formula: C2H3N3
Exact mass: 69.0326971179
SMILES: C1=NNC=N1
InChI: InChI=1S/C2H3N3/c1-3-2-5-4-1/h1-2H,(H,3,4,5)
Instrument type: ESI-QTOF
Ms type: MS2
Ion mode: POSITIVE
Ionization: ESI
Collision energy: 20
Precursor m/z: 70.0399735696
Precursor type: [M+H]+
m/z	relative intensity
42.033826	19
43.029075	395
70.039974	999
