Mass spectrum: 3-Methyl-5-pyrazolone; ESI-QTOF; MS2; CE: 10; [M+H]+
Name: 3-Methyl-5-pyrazolone
Formula: C4H6N2O
Exact mass: 98.0480128285
SMILES: CC1CC(=O)N=N1
InChI: InChI=1S/C4H6N2O/c1-3-2-4(7)6-5-3/h3H,2H2,1H3
Instrument type: ESI-QTOF
Ms type: MS2
Ion mode: POSITIVE
Ionization: ESI
Collision energy: 10
Precursor m/z: 99.0552892802
Precursor type: [M+H]+
m/z	relative intensity
44.049476	14
54.033826	12
56.049476	28
58.02874	16
71.060375	12
82.02874	34
99.055289	999
