Mass spectrum: Methyl red; ESI-QTOF; MS2; CE: 20; [M+H]+
Name: Methyl red
Name: DTXSID1042154
Formula: C15H15N3O2
Exact mass: 269.1164267453
SMILES: CN(C)C1C=CC(=CC=1)/N=N/C1=CC=CC=C1C(O)=O
InChI: InChI=1S/C15H15N3O2/c1-18(2)12-9-7-11(8-10-12)16-17-14-6-4-3-5-13(14)15(19)20/h3-10H,1-2H3,(H,19,20)/b17-16+
Instrument type: ESI-QTOF
Ms type: MS2
Ion mode: POSITIVE
Ionization: ESI
Collision energy: 20
Precursor m/z: 270.123703197
Precursor type: [M+H]+
m/z	relative intensity
42.033826	17
44.049476	10
115.054227	12
120.080776	16
141.069877	12
148.07569	190
152.062052	53
153.069877	387
155.085527	27
165.069877	44
166.065126	24
166.077702	16
167.085527	16
180.056966	45
180.080776	94
181.063449	64
181.088601	327
183.080441	10
194.096426	48
195.104251	29
196.112076	335
208.07569	53
209.083515	421
222.09134	100
223.099165	63
224.10699	193
252.113139	999
270.123703	71
