Mass spectrum: PharmaGSID_48519; ESI-QTOF; MS2; CE: 10; [M-H]-
Name: PharmaGSID_48519
Name: DTXSID4048519
Formula: C22H20BrN5O4
Exact mass: 497.0698670642
SMILES: CN1C(=O)N(CC2=CN=C(NC3=CC4OCC(CO)OC=4C=C3)N=C12)C1=CC=CC=C1Br
InChI: InChI=1S/C22H20BrN5O4/c1-27-20-13(10-28(22(27)30)17-5-3-2-4-16(17)23)9-24-21(26-20)25-14-6-7-18-19(8-14)31-12-15(11-29)32-18/h2-9,15,29H,10-12H2,1H3,(H,24,25,26)
Instrument type: ESI-QTOF
Ms type: MS2
Ion mode: NEGATIVE
Ionization: ESI
Collision energy: 10
Precursor m/z: 496.0625906125
Precursor type: [M-H]-
m/z	relative intensity
241.073099	53
299.075107	45
299.114964	999
300.115578	13
431.975118	17
496.062591	945
