Mass spectrum: Zenarestat; ESI-QTOF; MS2; CE: 20; [M-H]-
Name: Zenarestat
Formula: C17H11BrClFN2O4
Exact mass: 439.9574756649
SMILES: OC(=O)CN1C2C=C(Cl)C=CC=2C(=O)N(CC2=CC=C(Br)C=C2F)C1=O
InChI: InChI=1S/C17H11BrClFN2O4/c18-10-2-1-9(13(20)5-10)7-22-16(25)12-4-3-11(19)6-14(12)21(17(22)26)8-15(23)24/h1-6H,7-8H2,(H,23,24)
Instrument type: ESI-QTOF
Ms type: MS2
Ion mode: NEGATIVE
Ionization: ESI
Collision energy: 20
Precursor m/z: 438.9501992132
Precursor type: [M-H]-
m/z	relative intensity
34.969401	284
41.998537	166
78.918886	46
166.006028	169
179.001277	12
196.992342	25
346.959227	36
360.938492	66
366.965455	18
374.954142	32
380.94472	537
381.948722	10
394.96037	999
438.950199	32
