Mass spectrum: 3-Hydroxy-2-pyridone; ESI-QTOF; MS2; CE: 40; [M+H]+
Name: 3-Hydroxy-2-pyridone
Name: DTXSID0051782
Formula: C5H5NO2
Exact mass: 111.0320284115
SMILES: O=C1CCC=NC1=O
InChI: InChI=1S/C5H5NO2/c7-4-2-1-3-6-5(4)8/h3H,1-2H2
Instrument type: ESI-QTOF
Ms type: MS2
Ion mode: POSITIVE
Ionization: ESI
Collision energy: 40
Precursor m/z: 112.0393048632
Precursor type: [M+H]+
m/z	relative intensity
38.015101	18
39.022927	922
40.018175	193
40.030752	20
42.033826	33
43.017841	36
51.022927	13
52.018175	110
53.99744	999
64.018175	30
66.010016	11
66.033826	172
67.017841	63
68.01309	14
75.01035	27
76.018175	39
94.02874	42
