Mass spectrum: p-Xylenol blue; ESI-QTOF; MS2; CE: 20; [M+H]+
Name: p-Xylenol blue
Formula: C23H22O5S
Exact mass: 410.1187945433
SMILES: CC1C=C(O)C(C)=CC=1C1(OS(=O)(=O)C2C=CC=CC1=2)C1C=C(C)C(O)=CC=1C
InChI: InChI=1S/C23H22O5S/c1-13-11-20(24)15(3)9-18(13)23(19-10-16(4)21(25)12-14(19)2)17-7-5-6-8-22(17)29(26,27)28-23/h5-12,24-25H,1-4H3
Instrument type: ESI-QTOF
Ms type: MS2
Ion mode: POSITIVE
Ionization: ESI
Collision energy: 20
Precursor m/z: 411.126070995
Precursor type: [M+H]+
m/z	relative intensity
121.064791	10
137.059706	93
153.000477	68
208.088266	31
225.091006	11
227.052512	22
240.114481	10
243.047427	12
271.042341	12
289.052906	922
289.110421	17
301.158692	11
315.137956	345
329.153606	22
330.161431	88
411.126071	999
