Mass spectrum: Dihexyl nonanedioate; ESI-QTOF; MS2; CE: 10; [M+H]+
Name: Dihexyl nonanedioate
Formula: C21H40O4
Exact mass: 356.2926597652
SMILES: CCCCCCOC(=O)CCCCCCCC(=O)OCCCCCC
InChI: InChI=1S/C21H40O4/c1-3-5-7-14-18-24-20(22)16-12-10-9-11-13-17-21(23)25-19-15-8-6-4-2/h3-19H2,1-2H3
Instrument type: ESI-QTOF
Ms type: MS2
Ion mode: POSITIVE
Ionization: ESI
Collision energy: 10
Precursor m/z: 357.2999362169
Precursor type: [M+H]+
m/z	relative intensity
43.054227	12
55.054227	12
83.085527	12
85.101177	15
97.101177	53
107.085527	16
125.096091	121
135.080441	19
143.106656	33
153.091006	51
171.101571	999
171.174342	13
172.109396	10
255.195471	560
357.299936	127
