Mass spectrum: 4-(3-Methyl-5-oxo-4,5-dihydro-1H-pyrazol-1-yl)benzoic acid; ESI-QTOF; MS2; CE: 40; [M+H]+
Name: 4-(3-Methyl-5-oxo-4,5-dihydro-1H-pyrazol-1-yl)benzoic acid
Name: DTXSID8044963
Formula: C11H10N2O3
Exact mass: 218.0691422007
SMILES: CC1CC(=O)N(N=1)C1C=CC(=CC=1)C(O)=O
InChI: InChI=1S/C11H10N2O3/c1-7-6-10(14)13(12-7)9-4-2-8(3-5-9)11(15)16/h2-5H,6H2,1H3,(H,15,16)
Instrument type: ESI-QTOF
Ms type: MS2
Ion mode: POSITIVE
Ionization: ESI
Collision energy: 40
Precursor m/z: 219.0764186524
Precursor type: [M+H]+
m/z	relative intensity
39.022927	69
41.038577	41
42.033826	466
42.046402	17
43.017841	32
43.041651	16
44.01309	15
44.049476	999
44.997106	29
51.022927	63
53.002191	12
53.038577	99
54.033826	565
54.067531	12
55.017841	15
56.049476	57
63.022927	37
65.038577	948
65.070939	18
65.083515	10
66.046402	13
67.017841	14
67.029075	24
68.01309	11
75.022927	25
77.038577	847
77.070939	14
78.033826	43
78.046402	57
79.054227	303
80.049476	112
81.033491	167
82.02874	128
82.05255	76
84.04439	141
89.038577	55
90.033826	114
90.042379	60
91.041651	38
91.054227	140
92.049476	369
93.033491	54
93.057301	42
94.041316	20
94.065126	38
101.038577	29
102.046402	37
103.017841	12
103.038971	17
103.054227	137
104.049476	265
105.033491	31
105.054621	28
105.069877	10
106.065126	273
107.060375	56
108.04439	105
115.054227	46
116.049476	46
117.057301	167
118.02874	19
118.04987	10
118.065126	125
119.060375	15
120.04439	33
120.080776	25
121.028406	97
124.039305	15
128.049476	105
129.057301	78
130.065126	197
131.060375	140
132.04439	85
132.0682	91
133.052215	34
133.076025	108
135.055289	18
144.04439	11
144.0682	12
145.076025	438
146.06004	12
146.08385	67
148.039305	43
150.054955	88
157.052215	61
159.055289	41
173.070939	19
174.054955	36
175.050204	24
176.058029	18
177.065854	14
179.045119	10
