Mass spectrum: 2-(tert-Butylamino)ethanol; ESI-QTOF; MS2; CE: 10; [M+H]+
Name: 2-(tert-Butylamino)ethanol
Name: DTXSID1044431
Formula: C6H15NO
Exact mass: 117.1153641082
SMILES: CC(C)(C)NCCO
InChI: InChI=1S/C6H15NO/c1-6(2,3)7-4-5-8/h7-8H,4-5H2,1-3H3
Instrument type: ESI-QTOF
Ms type: MS2
Ion mode: POSITIVE
Ionization: ESI
Collision energy: 10
Precursor m/z: 118.1226405599
Precursor type: [M+H]+
m/z	relative intensity
41.038577	23
44.049476	314
45.033491	12
57.069877	400
62.06004	999
118.122641	178
