Mass spectrum: 4',5'-Dibromofluorescein; ESI-QTOF; MS2; CE: 20; [M+H]+
Name: 4',5'-Dibromofluorescein
Name: DTXSID7024904
Formula: C20H10Br2O5
Exact mass: 487.8894992305
SMILES: OC1C=CC2=C(OC3=C(C=CC(O)=C3Br)C32OC(=O)C2=CC=CC=C32)C=1Br
InChI: InChI=1S/C20H10Br2O5/c21-15-13(23)7-5-11-17(15)26-18-12(6-8-14(24)16(18)22)20(11)10-4-2-1-3-9(10)19(25)27-20/h1-8,23-24H
Instrument type: ESI-QTOF
Ms type: MS2
Ion mode: POSITIVE
Ionization: ESI
Collision energy: 20
Precursor m/z: 488.8967756822
Precursor type: [M+H]+
m/z	relative intensity
488.896776	999
