Mass spectrum: (6)-Gingerol; ESI-QTOF; MS2; CE: 10; [M+H]+
Name: (6)-Gingerol
Name: DTXSID3041035
Formula: C17H26O4
Exact mass: 294.1831093186
SMILES: CCCCCC(O)CC(=O)CCC1C=CC(O)=C(C=1)OC
InChI: InChI=1S/C17H26O4/c1-3-4-5-6-14(18)12-15(19)9-7-13-8-10-16(20)17(11-13)21-2/h8,10-11,14,18,20H,3-7,9,12H2,1-2H3
Instrument type: ESI-QTOF
Ms type: MS2
Ion mode: POSITIVE
Ionization: ESI
Collision energy: 10
Precursor m/z: 295.1903857703
Precursor type: [M+H]+
m/z	relative intensity
83.085527	17
123.116827	38
137.059706	999
138.067531	17
141.127392	94
145.064791	60
162.067531	20
163.075356	21
171.137956	13
172.145781	11
177.091006	908
179.070271	141
189.091006	13
216.114481	21
250.156346	14
259.169256	98
277.179821	45
