Mass spectrum: C.I. Acid Orange 24; ESI-QTOF; MS2; CE: 10; [M-H]-
Name: C.I. Acid Orange 24
Name: DTXSID7041708
Formula: C20H18N4O5S
Exact mass: 426.0997904453
SMILES: CC1=CC(C)=CC=C1/N=N/C1C(O)=C(C=CC=1O)/N=N/C1C=CC(=CC=1)S(O)(=O)=O
InChI: InChI=1S/C20H18N4O5S/c1-12-3-8-16(13(2)11-12)22-24-19-18(25)10-9-17(20(19)26)23-21-14-4-6-15(7-5-14)30(27,28)29/h3-11,25-26H,1-2H3,(H,27,28,29)/b23-21+,24-22+
Instrument type: ESI-QTOF
Ms type: MS2
Ion mode: NEGATIVE
Ionization: ESI
Collision energy: 10
Precursor m/z: 425.0925139936
Precursor type: [M-H]-
m/z	relative intensity
170.999562	19
425.092514	999
