Mass spectrum: 3,5-Dichlorosalicylic acid; ESI-QTOF; MS2; CE: 10; [M-H]-
Name: 3,5-Dichlorosalicylic acid
Name: DTXSID3044914
Formula: C7H4Cl2O3
Exact mass: 205.9537494145
SMILES: OC1C(Cl)=CC(Cl)=CC=1C(O)=O
InChI: InChI=1S/C7H4Cl2O3/c8-3-1-4(7(11)12)6(10)5(9)2-3/h1-2,10H,(H,11,12)
Instrument type: ESI-QTOF
Ms type: MS2
Ion mode: NEGATIVE
Ionization: ESI
Collision energy: 10
Precursor m/z: 204.9464729628
Precursor type: [M-H]-
m/z	relative intensity
34.969401	34
89.003288	21
124.979966	148
160.956644	999
204.946473	684
