Mass spectrum: Butyryl trihexyl citrate; ESI-QTOF; MS2; CE: 40; [M+H]+
Name: Butyryl trihexyl citrate
Formula: C28H50O8
Exact mass: 514.3505685734
SMILES: CCCC(=O)OC(CC(=O)OCCCCCC)(CC(=O)OCCCCCC)C(=O)OCCCCCC
InChI: InChI=1S/C28H50O8/c1-5-9-12-15-19-33-25(30)22-28(36-24(29)18-8-4,27(32)35-21-17-14-11-7-3)23-26(31)34-20-16-13-10-6-2/h5-23H2,1-4H3
Instrument type: ESI-QTOF
Ms type: MS2
Ion mode: POSITIVE
Ionization: ESI
Collision energy: 40
Precursor m/z: 515.3578450251
Precursor type: [M+H]+
m/z	relative intensity
41.038577	42
43.017841	292
43.054227	856
43.075356	22
57.069877	104
68.997106	40
71.049141	548
71.085527	11
85.101177	141
89.059706	123
111.00767	293
129.018235	999
139.002585	497
147.0288	15
157.01315	35
213.112135	34
