Mass spectrum: Bis[2-(2-butoxyethoxy)ethyl] adipate; ESI-QTOF; MS2; CE: 10; [M-H]-
Name: Bis[2-(2-butoxyethoxy)ethyl] adipate
Name: DTXSID3027085
Formula: C22H42O8
Exact mass: 434.2879683182
SMILES: CCCCOCCOCCOC(=O)CCCCC(=O)OCCOCCOCCCC
InChI: InChI=1S/C22H42O8/c1-3-5-11-25-13-15-27-17-19-29-21(23)9-7-8-10-22(24)30-20-18-28-16-14-26-12-6-4-2/h3-20H2,1-2H3
Instrument type: ESI-QTOF
Ms type: MS2
Ion mode: NEGATIVE
Ionization: ESI
Collision energy: 10
Precursor m/z: 433.2806918665
Precursor type: [M-H]-
m/z	relative intensity
59.013853	520
71.013853	31
85.029503	551
85.065888	11
87.045153	30
89.024418	12
97.029503	209
101.024418	13
109.029503	10
115.040068	334
127.040068	66
133.065888	183
145.050632	509
189.092103	26
219.102668	88
249.113233	10
279.123797	999
280.125749	33
