Mass spectrum: 4-Anilinophenol; ESI-QTOF; MS2; CE: 10; [M+H]+
Name: 4-Anilinophenol
Formula: C12H11NO
Exact mass: 185.0840639806
SMILES: OC1C=CC(=CC=1)NC1C=CC=CC=1
InChI: InChI=1S/C12H11NO/c14-12-8-6-11(7-9-12)13-10-4-2-1-3-5-10/h1-9,13-14H
Instrument type: ESI-QTOF
Ms type: MS2
Ion mode: POSITIVE
Ionization: ESI
Collision energy: 10
Precursor m/z: 186.0913404323
Precursor type: [M+H]+
m/z	relative intensity
92.049476	29
93.057301	11
108.04439	23
109.052215	86
186.09134	999
