Mass spectrum: MK-274; ESI-QTOF; MS2; CE: 40; [M+H]+
Name: MK-274
Name: DTXSID5047328
Formula: C18H12F6N4O2
Exact mass: 430.086444857
SMILES: NC(=O)C1NN=C(N=1)C1C=C(C=CC=1)C1=CC(F)=CC=C1OCC(F)(F)C(F)(F)F
InChI: InChI=1S/C18H12F6N4O2/c19-11-4-5-13(30-8-17(20,21)18(22,23)24)12(7-11)9-2-1-3-10(6-9)15-26-16(14(25)29)28-27-15/h1-7H,8H2,(H2,25,29)(H,26,27,28)
Instrument type: ESI-QTOF
Ms type: MS2
Ion mode: POSITIVE
Ionization: ESI
Collision energy: 40
Precursor m/z: 431.0937213087
Precursor type: [M+H]+
m/z	relative intensity
69.008339	45
107.085327	34
119.085327	72
135.080441	14
170.05243	56
177.057101	39
186.046402	38
196.055504	48
197.063329	106
198.047345	49
199.054227	15
205.052015	23
207.047679	66
208.055504	137
209.063329	26
211.043736	10
212.050419	233
213.057301	56
224.05046	399
225.058244	548
226.061144	13
237.069518	44
252.064218	13
253.053358	306
264.055664	71
281.058404	91
331.053868	40
345.059387	10
346.06611	131
358.06611	66
371.061359	23
386.061024	15
414.067172	999
415.074997	13
