Mass spectrum: 4-Chlorobenzenesulfonic acid; ESI-QTOF; MS2; CE: 40; [M-H]-
Name: 4-Chlorobenzenesulfonic acid
Formula: C6H5ClO3S
Exact mass: 191.9647924664
SMILES: OS(=O)(=O)C1C=CC(Cl)=CC=1
InChI: InChI=1S/C6H5ClO3S/c7-5-1-3-6(4-2-5)11(8,9)10/h1-4H,(H,8,9,10)
Instrument type: ESI-QTOF
Ms type: MS2
Ion mode: NEGATIVE
Ionization: ESI
Collision energy: 40
Precursor m/z: 190.9575160147
Precursor type: [M-H]-
m/z	relative intensity
34.969401	24
41.003288	10
79.957363	999
79.990378	55
80.965188	21
126.995616	21
