Mass spectrum: N-Butyl-2,2,6,6-tetramethylpiperidin-4-amine; ESI-QTOF; MS2; CE: 40; [M+H]+
Name: N-Butyl-2,2,6,6-tetramethylpiperidin-4-amine
Name: DTXSID7044926
Formula: C13H28N2
Exact mass: 212.225248908
SMILES: CCCCNC1CC(C)(C)NC(C)(C)C1
InChI: InChI=1S/C13H28N2/c1-6-7-8-14-11-9-12(2,3)15-13(4,5)10-11/h11,14-15H,6-10H2,1-5H3
Instrument type: ESI-QTOF
Ms type: MS2
Ion mode: POSITIVE
Ionization: ESI
Collision energy: 40
Precursor m/z: 213.2325253597
Precursor type: [M+H]+
m/z	relative intensity
41.038577	31
43.041651	10
44.049476	12
55.054227	115
57.069877	19
58.065126	999
84.080776	11
