Mass spectrum: Enterolactone; ESI-QTOF; MS2; CE: 10; [M-H]-
Name: Enterolactone
Formula: C18H18O4
Exact mass: 298.1205090634
SMILES: OC1C=C(CC2C(CC3C=CC=C(O)C=3)COC2=O)C=CC=1
InChI: InChI=1S/C18H18O4/c19-15-5-1-3-12(8-15)7-14-11-22-18(21)17(14)10-13-4-2-6-16(20)9-13/h1-6,8-9,14,17,19-20H,7,10-11H2
Instrument type: ESI-QTOF
Ms type: MS2
Ion mode: NEGATIVE
Ionization: ESI
Collision energy: 10
Precursor m/z: 297.1132326117
Precursor type: [M-H]-
m/z	relative intensity
107.050238	15
165.055718	15
189.055718	14
253.123403	43
297.113233	999
