Mass spectrum: 4,4'-(2,2-Dioxido-3H-1,2-benzoxathiole-3,3-diyl)bis(2,6-dibromo-3-methylphenol); ESI-QTOF; MS2; CE: 20; [M-H]-
Name: 4,4'-(2,2-Dioxido-3H-1,2-benzoxathiole-3,3-diyl)bis(2,6-dibromo-3-methylphenol)
Name: DTXSID3044704
Formula: C21H14Br4O5S
Exact mass: 693.7295458881
SMILES: CC1/C(/C=C(Br)C(=O)C=1Br)=C(\C1=CC(Br)=C(O)C(Br)=C1C)/C1=CC=CC=C1S(O)(=O)=O
InChI: InChI=1S/C21H14Br4O5S/c1-9-12(7-14(22)20(26)18(9)24)17(11-5-3-4-6-16(11)31(28,29)30)13-8-15(23)21(27)19(25)10(13)2/h3-8,26H,1-2H3,(H,28,29,30)/b17-13-
Instrument type: ESI-QTOF
Ms type: MS2
Ion mode: NEGATIVE
Ionization: ESI
Collision energy: 20
Precursor m/z: 692.7222694364
Precursor type: [M-H]-
m/z	relative intensity
78.918886	156
79.957363	11
262.871264	17
454.959431	12
532.869944	18
534.885594	19
612.796107	146
613.803932	105
692.722269	999
