Mass spectrum: 1-(o-Tolyl)biguanide; ESI-QTOF; MS2; CE: 10; [M+H]+
Name: 1-(o-Tolyl)biguanide
Formula: C9H13N5
Exact mass: 191.1170954517
SMILES: CC1C=CC=CC=1NC(=N)NC(N)=N
InChI: InChI=1S/C9H13N5/c1-6-4-2-3-5-7(6)13-9(12)14-8(10)11/h2-5H,1H3,(H6,10,11,12,13,14)
Instrument type: ESI-QTOF
Ms type: MS2
Ion mode: POSITIVE
Ionization: ESI
Collision energy: 10
Precursor m/z: 192.1243719034
Precursor type: [M+H]+
m/z	relative intensity
60.055624	999
60.080776	56
60.093352	32
133.076025	38
150.102574	34
175.097823	27
192.124372	871
