Mass spectrum: 2-Amino-6-hydroxy-1H-pyrimidin-4-one; ESI-QTOF; MS2; CE: 40; [M+H]+
Name: 2-Amino-6-hydroxy-1H-pyrimidin-4-one
Name: DTXSID3052222
Formula: C4H5N3O2
Exact mass: 127.0381764263
SMILES: NC1NC(=O)CC(=O)N=1
InChI: InChI=1S/C4H5N3O2/c5-4-6-2(8)1-3(9)7-4/h1H2,(H3,5,6,7,8,9)
Instrument type: ESI-QTOF
Ms type: MS2
Ion mode: POSITIVE
Ionization: ESI
Collision energy: 40
Precursor m/z: 128.045452878
Precursor type: [M+H]+
m/z	relative intensity
40.018175	27
41.002191	286
43.016498	30
43.029075	999
44.01309	48
60.055624	113
68.01309	54
68.997106	922
