Mass spectrum: (+/-)-Apomorphinee; ESI-QTOF; MS2; CE: 20; [M+H]+
Name: (+/-)-Apomorphinee
Name: DTXSID0048185
Formula: C17H17NO2
Exact mass: 267.1259287943
SMILES: CN1CCC2=CC=CC3C4=C(CC1C2=3)C=CC(O)=C4O
InChI: InChI=1S/C17H17NO2/c1-18-8-7-10-3-2-4-12-15(10)13(18)9-11-5-6-14(19)17(20)16(11)12/h2-6,13,19-20H,7-9H2,1H3
Instrument type: ESI-QTOF
Ms type: MS2
Ion mode: POSITIVE
Ionization: ESI
Collision energy: 20
Precursor m/z: 268.133205246
Precursor type: [M+H]+
m/z	relative intensity
44.049476	36
189.069877	12
190.077702	15
191.085527	336
201.069877	20
207.080441	10
219.080441	588
237.091006	999
268.133205	74
