Mass spectrum: 2-Aminoanthraquinone; ESI-QTOF; MS2; CE: 40; [M+H]+
Name: 2-Aminoanthraquinone
Formula: C14H9NO2
Exact mass: 223.0633285391
SMILES: NC1C=C2C(=CC=1)C(=O)C1C=CC=CC=1C2=O
InChI: InChI=1S/C14H9NO2/c15-8-5-6-11-12(7-8)14(17)10-4-2-1-3-9(10)13(11)16/h1-7H,15H2
Instrument type: ESI-QTOF
Ms type: MS2
Ion mode: POSITIVE
Ionization: ESI
Collision energy: 40
Precursor m/z: 224.0706049908
Precursor type: [M+H]+
m/z	relative intensity
44.01309	28
50.015101	11
51.022927	16
58.065126	13
65.038577	80
77.038577	533
79.054227	30
89.038577	13
90.033826	28
91.054227	193
92.049476	289
92.070605	10
93.069877	53
102.033826	11
103.041651	10
103.054227	39
105.033491	137
115.054227	123
116.049476	15
120.04439	245
125.038577	14
127.054227	36
128.062052	27
130.02874	35
131.036565	11
139.054227	26
140.049476	19
140.062052	49
141.069877	216
146.023655	12
150.046402	40
151.054227	371
152.049476	19
152.062052	87
153.057301	59
166.065126	125
167.072951	999
168.080776	69
177.057301	50
178.065126	74
184.051881	10
195.067865	24
206.06004	22
224.070605	21
