Mass spectrum: R-(-)-Carvone; ESI-QTOF; MS2; CE: 20; [M+H]+
Name: R-(-)-Carvone
Name: DTXSID7041413
Formula: C10H14O
Exact mass: 150.1044650689
SMILES: CC1=CC[C@H](CC1=O)C(C)=C
InChI: InChI=1S/C10H14O/c1-7(2)9-5-4-8(3)10(11)6-9/h4,9H,1,5-6H2,2-3H3/t9-/m1/s1
Instrument type: ESI-QTOF
Ms type: MS2
Ion mode: POSITIVE
Ionization: ESI
Collision energy: 20
Precursor m/z: 151.1117415206
Precursor type: [M+H]+
m/z	relative intensity
45.033491	73
53.038577	10
61.007276	115
63.994366	282
79.017841	999
79.054227	16
