Mass spectrum: 2-Isopropylaniline; ESI-QTOF; MS2; CE: 10; [M+H]+
Name: 2-Isopropylaniline
Name: DTXSID6052328
Formula: C9H13N
Exact mass: 135.1047994221
SMILES: CC(C)C1C=CC=CC=1N
InChI: InChI=1S/C9H13N/c1-7(2)8-5-3-4-6-9(8)10/h3-7H,10H2,1-2H3
Instrument type: ESI-QTOF
Ms type: MS2
Ion mode: POSITIVE
Ionization: ESI
Collision energy: 10
Precursor m/z: 136.1120758738
Precursor type: [M+H]+
m/z	relative intensity
91.054227	133
94.065126	111
106.065126	22
120.080776	108
134.096426	93
136.112076	999
