Mass spectrum: 1,2-Cyclohexanediamine; ESI-QTOF; MS2; CE: 40; [M+H]+
Name: 1,2-Cyclohexanediamine
Name: DTXSID0027301
Formula: C6H14N2
Exact mass: 114.1156984614
SMILES: NC1CCCCC1N
InChI: InChI=1S/C6H14N2/c7-5-3-1-2-4-6(5)8/h5-6H,1-4,7-8H2
Instrument type: ESI-QTOF
Ms type: MS2
Ion mode: POSITIVE
Ionization: ESI
Collision energy: 40
Precursor m/z: 115.1229749131
Precursor type: [M+H]+
m/z	relative intensity
28.018175	18
30.033826	106
30.046402	20
39.022927	179
41.038577	792
44.049476	136
44.062052	35
51.022927	196
53.038577	407
54.033826	58
55.041651	42
55.054227	253
55.122975	14
56.049476	999
66.046402	260
67.054227	47
68.049476	59
70.065126	43
77.038577	300
79.054227	268
80.049476	86
81.069877	73
98.096426	50
