Mass spectrum: beta-D-Lactose; ESI-QTOF; MS2; CE: 10; [M-H]-
Name: beta-D-Lactose
Name: DTXSID5058723
Formula: C12H22O11
Exact mass: 342.1162115471
SMILES: O[C@@H]1O[C@H](CO)[C@@H](O[C@@H]2O[C@H](CO)[C@H](O)[C@H](O)[C@H]2O)[C@H](O)[C@H]1O
InChI: InChI=1S/C12H22O11/c13-1-3-5(15)6(16)9(19)12(22-3)23-10-4(2-14)21-11(20)8(18)7(10)17/h3-20H,1-2H2/t3-,4-,5+,6+,7-,8-,9-,10-,11-,12+/m1/s1
Instrument type: ESI-QTOF
Ms type: MS2
Ion mode: NEGATIVE
Ionization: ESI
Collision energy: 10
Precursor m/z: 341.1089350954
Precursor type: [M-H]-
m/z	relative intensity
43.018938	11
44.998203	111
59.013853	128
71.013853	209
73.029503	280
77.024418	10
81.034588	32
83.013853	64
85.029503	21
87.008768	17
87.045153	15
89.024418	260
97.029503	257
99.045153	14
101.024418	549
101.060803	11
113.024418	113
115.040068	101
115.055324	12
119.034982	97
125.024418	76
131.034982	33
143.013853	21
143.034982	227
149.045547	18
161.045547	999
161.097189	13
179.056112	152
221.066676	16
341.108935	16
