Mass spectrum: N-(2,4-Dimethylphenyl)-3-oxobutanamide; ESI-QTOF; MS2; CE: 20; [M+H]+
Name: N-(2,4-Dimethylphenyl)-3-oxobutanamide
Formula: C12H15NO2
Exact mass: 205.1102787305
SMILES: CC(=O)CC(=O)NC1=CC=C(C)C=C1C
InChI: InChI=1S/C12H15NO2/c1-8-4-5-11(9(2)6-8)13-12(15)7-10(3)14/h4-6H,7H2,1-3H3,(H,13,15)
Instrument type: ESI-QTOF
Ms type: MS2
Ion mode: POSITIVE
Ionization: ESI
Collision energy: 20
Precursor m/z: 206.1175551822
Precursor type: [M+H]+
m/z	relative intensity
43.017841	343
59.049141	107
77.038577	12
79.054227	14
85.028406	37
103.054227	10
105.069877	98
107.072951	103
120.080776	196
122.096426	999
146.096426	55
148.07569	183
188.10699	18
