Mass spectrum: 1,3-Benzenedicarboxylic acid, dihydrazide; ESI-QTOF; MS2; CE: 40; [M+H]+
Name: 1,3-Benzenedicarboxylic acid, dihydrazide
Name: DTXSID2038813
Formula: C8H10N4O2
Exact mass: 194.0803755932
SMILES: NNC(=O)C1=CC(=CC=C1)C(=O)NN
InChI: InChI=1S/C8H10N4O2/c9-11-7(13)5-2-1-3-6(4-5)8(14)12-10/h1-4H,9-10H2,(H,11,13)(H,12,14)
Instrument type: ESI-QTOF
Ms type: MS2
Ion mode: POSITIVE
Ionization: ESI
Collision energy: 40
Precursor m/z: 195.0876520449
Precursor type: [M+H]+
m/z	relative intensity
31.029075	67
39.022927	71
43.029075	11
45.033491	71
47.00018	30
50.015101	17
51.022927	76
53.038577	43
56.024324	12
59.023989	67
62.015101	12
63.022927	371
63.994366	34
64.018175	77
65.038577	83
75.022927	37
76.030752	460
77.038577	477
78.033826	60
78.042379	42
79.017841	34
80.049476	114
90.033826	999
90.067531	15
90.089998	10
91.041651	24
91.054227	21
92.049476	38
93.032149	11
102.033826	36
103.017841	33
104.025666	173
104.045453	14
105.032149	49
105.044725	39
106.02874	14
107.049141	33
108.055624	54
118.027398	29
119.012756	11
130.027398	18
163.050204	12
