Mass spectrum: Candoxatril; ESI-QTOF; MS2; CE: 20; [M+H]+
Name: Candoxatril
Formula: C29H41NO7
Exact mass: 515.2883026714
SMILES: COCCOCC(CC1(CCCC1)C(=O)NC1CCC(CC1)C(O)=O)C(=O)OC1=CC2CCCC=2C=C1
InChI: InChI=1S/C29H41NO7/c1-35-15-16-36-19-23(27(33)37-25-12-9-20-5-4-6-22(20)17-25)18-29(13-2-3-14-29)28(34)30-24-10-7-21(8-11-24)26(31)32/h9,12,17,21,23-24H,2-8,10-11,13-16,18-19H2,1H3,(H,30,34)(H,31,32)
Instrument type: ESI-QTOF
Ms type: MS2
Ion mode: POSITIVE
Ionization: ESI
Collision energy: 20
Precursor m/z: 516.2955791231
Precursor type: [M+H]+
m/z	relative intensity
59.049141	10
107.085527	15
126.09134	16
127.075356	10
135.080441	32
153.091006	10
180.101905	68
211.132871	58
239.127786	35
256.154335	10
260.161825	36
269.153606	36
278.17239	81
288.15674	97
297.148521	13
306.167305	999
306.234202	22
306.263885	10
354.221626	13
364.211849	78
373.20095	32
382.222414	434
440.24315	42
