Mass spectrum: 4-Hydroxytamoxifen; ESI-QTOF; MS2; CE: 10; [M+H]+
Name: 4-Hydroxytamoxifen
Name: DTXSID3037094
Formula: C26H29NO2
Exact mass: 387.2198291771
SMILES: CC/C(=C(/C1C=CC(O)=CC=1)\C1C=CC(=CC=1)OCCN(C)C)/C1C=CC=CC=1
InChI: InChI=1S/C26H29NO2/c1-4-25(20-8-6-5-7-9-20)26(21-10-14-23(28)15-11-21)22-12-16-24(17-13-22)29-19-18-27(2)3/h5-17,28H,4,18-19H2,1-3H3/b26-25+
Instrument type: ESI-QTOF
Ms type: MS2
Ion mode: POSITIVE
Ionization: ESI
Collision energy: 10
Precursor m/z: 388.2271056288
Precursor type: [M+H]+
m/z	relative intensity
72.080776	93
388.227106	999
