Mass spectrum: Thiocyclam (Evisekt); ESI-QTOF; MS2; CE: 40; [M+H]+
Name: Thiocyclam (Evisekt)
Name: DTXSID0047036
Name: 杀虫环
Name: チオシクラム
Formula: C5H11NS3
Exact mass: 181.0053615483
SMILES: CN(C)C1CSSSC1
InChI: InChI=1S/C5H11NS3/c1-6(2)5-3-7-9-8-4-5/h5H,3-4H2,1-2H3
Instrument type: ESI-QTOF
Ms type: MS2
Ion mode: POSITIVE
Ionization: ESI
Collision energy: 40
Precursor m/z: 182.012638
Precursor type: [M+H]+
m/z	relative intensity
39.022927	43
41.038577	276
44.049476	84
44.979347	651
46.065126	19
46.994997	32
58.994997	63
60.002822	10
70.994997	112
72.002822	67
73.010647	999
86.096426	13
90.967068	36
102.967068	563
103.974893	376
136.954789	26
