Mass spectrum: Diethylamine; ESI-QTOF; MS2; CE: 20; [M+H]+
Name: Diethylamine
Name: DTXSID9044320
Formula: C4H11N
Exact mass: 73.0891493583
SMILES: CCNCC
InChI: InChI=1S/C4H11N/c1-3-5-4-2/h5H,3-4H2,1-2H3
Instrument type: ESI-QTOF
Ms type: MS2
Ion mode: POSITIVE
Ionization: ESI
Collision energy: 20
Precursor m/z: 74.09642581
Precursor type: [M+H]+
m/z	relative intensity
27.022927	11
29.038577	136
44.049476	108
46.065126	999
74.096426	860
