Mass spectrum: 2-Amino-6-chloro-4-nitrophenol; ESI-QTOF; MS2; CE: 10; [M-H]-
Name: 2-Amino-6-chloro-4-nitrophenol
Formula: C6H5ClN2O3
Exact mass: 187.9988697512
SMILES: NC1C=C(C=C(Cl)C=1O)[N+]([O-])=O
InChI: InChI=1S/C6H5ClN2O3/c7-4-1-3(9(11)12)2-5(8)6(4)10/h1-2,10H,8H2
Instrument type: ESI-QTOF
Ms type: MS2
Ion mode: NEGATIVE
Ionization: ESI
Collision energy: 10
Precursor m/z: 186.9915932995
Precursor type: [M-H]-
m/z	relative intensity
34.969401	15
41.998537	18
45.993452	15
120.009102	17
156.993605	10
186.991593	999
