Mass spectrum: 6-Methyl-3-hydroxypyridine; ESI-QTOF; MS2; CE: 40; [M+H]+
Name: 6-Methyl-3-hydroxypyridine
Formula: C6H7NO
Exact mass: 109.052763853
SMILES: CC1C=CC(O)=CN=1
InChI: InChI=1S/C6H7NO/c1-5-2-3-6(8)4-7-5/h2-4,8H,1H3
Instrument type: ESI-QTOF
Ms type: MS2
Ion mode: POSITIVE
Ionization: ESI
Collision energy: 40
Precursor m/z: 110.0600403047
Precursor type: [M+H]+
m/z	relative intensity
39.022927	792
40.018175	23
40.030752	71
41.026001	196
41.038577	132
42.033826	219
43.017841	102
44.01309	76
50.015101	21
51.022927	102
52.018175	249
53.002191	217
53.038577	444
53.99744	32
54.033826	32
54.046402	21
55.017841	107
55.054227	119
56.049476	11
65.038577	139
66.033826	80
67.017841	13
67.041651	999
68.01309	101
68.025666	46
75.01035	32
76.018175	314
78.033826	19
80.049476	621
81.033491	11
81.057301	19
82.065126	49
92.049476	45
94.02874	128
95.036565	98
109.052215	43
110.06004	45
