Mass spectrum: 2,4,5-Trichlorobenzenesulfonic acid; ESI-QTOF; MS2; CE: 20; [M-H]-
Name: 2,4,5-Trichlorobenzenesulfonic acid
Name: DTXSID2045072
Formula: C6H3Cl3O3S
Exact mass: 259.8868478226
SMILES: OS(=O)(=O)C1=CC(Cl)=C(Cl)C=C1Cl
InChI: InChI=1S/C6H3Cl3O3S/c7-3-1-5(9)6(2-4(3)8)13(10,11)12/h1-2H,(H,10,11,12)
Instrument type: ESI-QTOF
Ms type: MS2
Ion mode: NEGATIVE
Ionization: ESI
Collision energy: 20
Precursor m/z: 258.8795713709
Precursor type: [M-H]-
m/z	relative intensity
34.969401	40
79.957363	31
114.926216	23
158.940994	139
178.922757	26
194.917671	540
258.879571	999
