Mass spectrum: 2,2'-(3-Chlorophenylimino)diethanol; ESI-QTOF; MS2; CE: 40; [M-H]-
Name: 2,2'-(3-Chlorophenylimino)diethanol
Formula: C10H14ClNO2
Exact mass: 215.0713064086
SMILES: OCCN(CCO)C1C=CC=C(Cl)C=1
InChI: InChI=1S/C10H14ClNO2/c11-9-2-1-3-10(8-9)12(4-6-13)5-7-14/h1-3,8,13-14H,4-7H2
Instrument type: ESI-QTOF
Ms type: MS2
Ion mode: NEGATIVE
Ionization: ESI
Collision energy: 40
Precursor m/z: 214.0640299569
Precursor type: [M-H]-
m/z	relative intensity
34.969401	999
41.003288	71
43.018938	260
63.024024	16
65.016351	16
65.998537	35
91.006362	17
91.019425	37
96.972475	12
114.034923	11
115.042748	12
116.014187	15
126.959231	13
126.995616	589
