Mass spectrum: Ingliforib; ESI-QTOF; MS2; CE: 20; [M+H]+
Name: Ingliforib
Name: DTXSID4047252
Formula: C23H24ClN3O5
Exact mass: 457.1404486093
SMILES: OC(C(CC1C=CC=CC=1)NC(=O)C1=CC2=CC(Cl)=CC=C2N1)C(=O)N1CC(O)C(O)C1
InChI: InChI=1S/C23H24ClN3O5/c24-15-6-7-16-14(9-15)10-18(25-16)22(31)26-17(8-13-4-2-1-3-5-13)21(30)23(32)27-11-19(28)20(29)12-27/h1-7,9-10,17,19-21,25,28-30H,8,11-12H2,(H,26,31)
Instrument type: ESI-QTOF
Ms type: MS2
Ion mode: POSITIVE
Ionization: ESI
Collision energy: 20
Precursor m/z: 458.147725061
Precursor type: [M+H]+
m/z	relative intensity
91.054227	25
104.070605	426
120.080776	79
130.04987	15
132.080776	246
150.09134	41
152.024324	14
161.058363	12
162.076084	23
178.004931	419
236.009067	10
246.11247	16
264.123034	12
281.149584	125
307.128848	13
309.07843	50
327.088995	999
327.157743	19
355.083909	102
440.13716	255
458.147725	39
