Mass spectrum: N,N-Diethylethanolamine; ESI-QTOF; MS2; CE: 20; [M+H]+
Name: N,N-Diethylethanolamine
Formula: C6H15NO
Exact mass: 117.1153641082
SMILES: CCN(CCO)CC
InChI: InChI=1S/C6H15NO/c1-3-7(4-2)5-6-8/h8H,3-6H2,1-2H3
Instrument type: ESI-QTOF
Ms type: MS2
Ion mode: POSITIVE
Ionization: ESI
Collision energy: 20
Precursor m/z: 118.1226405599
Precursor type: [M+H]+
m/z	relative intensity
44.049476	999
45.033491	440
46.065126	80
56.049476	10
58.065126	124
70.065126	31
72.080776	705
74.096426	221
100.112076	450
118.122641	271
