Mass spectrum: N-Ethyl-3-methylaniline; ESI-QTOF; MS2; CE: 40; [M+H]+
Name: N-Ethyl-3-methylaniline
Formula: C9H13N
Exact mass: 135.1047994221
SMILES: CC1C=C(C=CC=1)NCC
InChI: InChI=1S/C9H13N/c1-3-10-9-6-4-5-8(2)7-9/h4-7,10H,3H2,1-2H3
Instrument type: ESI-QTOF
Ms type: MS2
Ion mode: POSITIVE
Ionization: ESI
Collision energy: 40
Precursor m/z: 136.1120758738
Precursor type: [M+H]+
m/z	relative intensity
39.022927	23
42.033826	15
51.022927	17
53.038577	12
63.022927	16
65.038577	57
66.046402	45
67.041651	34
77.038577	165
78.033826	19
79.054227	174
80.049476	23
80.062052	10
89.038577	99
90.046402	35
91.054227	36
92.049476	26
93.057301	101
106.065126	999
107.072951	103
