Mass spectrum: N-(2,4-Dimethylphenyl)-3-oxobutanamide; ESI-QTOF; MS2; CE: 40; [M+H]+
Name: N-(2,4-Dimethylphenyl)-3-oxobutanamide
Formula: C12H15NO2
Exact mass: 205.1102787305
SMILES: CC(=O)CC(=O)NC1=CC=C(C)C=C1C
InChI: InChI=1S/C12H15NO2/c1-8-4-5-11(9(2)6-8)13-12(15)7-10(3)14/h4-6H,7H2,1-3H3,(H,13,15)
Instrument type: ESI-QTOF
Ms type: MS2
Ion mode: POSITIVE
Ionization: ESI
Collision energy: 40
Precursor m/z: 206.1175551822
Precursor type: [M+H]+
m/z	relative intensity
41.038577	28
42.033826	10
43.017841	999
43.041651	25
43.054227	14
51.022927	30
59.049141	133
65.038577	15
77.038577	691
79.054227	438
79.075356	15
80.049476	18
80.062052	11
85.028406	59
91.054227	66
92.049476	10
93.057301	12
93.069877	88
94.065126	13
103.054227	243
104.062052	15
105.057301	11
105.069877	522
106.065126	197
107.072951	804
119.072951	17
120.080776	298
122.096426	171
130.065126	18
131.072951	10
