Mass spectrum: SB281832; ESI-QTOF; MS2; CE: 20; [M-H]-
Name: SB281832
Name: DTXSID5047324
Formula: C22H19FN4O3
Exact mass: 406.1441187026
SMILES: OCC(CO)N1C=NC(=C1C1=CC=NC(=N1)OC1C=CC=CC=1)C1C=CC(F)=CC=1
InChI: InChI=1S/C22H19FN4O3/c23-16-8-6-15(7-9-16)20-21(27(14-25-20)17(12-28)13-29)19-10-11-24-22(26-19)30-18-4-2-1-3-5-18/h1-11,14,17,28-29H,12-13H2
Instrument type: ESI-QTOF
Ms type: MS2
Ion mode: NEGATIVE
Ionization: ESI
Collision energy: 20
Precursor m/z: 405.1368422509
Precursor type: [M-H]-
m/z	relative intensity
41.014522	193
41.998537	70
93.034389	299
161.05205	44
175.0677	98
281.046884	16
288.094249	47
316.125549	25
330.104814	63
331.038725	25
331.100063	999
332.104065	26
343.101405	64
344.120464	27
345.115713	39
357.068094	12
357.115713	333
359.131363	43
385.110628	52
387.126278	283
