Mass spectrum: N,N'-Dicyclohexylthiourea; ESI-QTOF; MS2; CE: 20; [M+H]+
Name: N,N'-Dicyclohexylthiourea
Formula: C13H24N2S
Exact mass: 240.1660195104
SMILES: S=C(NC1CCCCC1)NC1CCCCC1
InChI: InChI=1S/C13H24N2S/c16-13(14-11-7-3-1-4-8-11)15-12-9-5-2-6-10-12/h11-12H,1-10H2,(H2,14,15,16)
Instrument type: ESI-QTOF
Ms type: MS2
Ion mode: POSITIVE
Ionization: ESI
Collision energy: 20
Precursor m/z: 241.1732959621
Precursor type: [M+H]+
m/z	relative intensity
43.029075	12
55.054227	224
59.990246	74
77.016795	230
83.085527	725
100.112076	999
142.068497	47
159.095046	190
241.173296	395
