Mass spectrum: N-Methylacetoacetamide; ESI-QTOF; MS2; CE: 20; [M+H]+
Name: N-Methylacetoacetamide
Name: DTXSID9040138
Formula: C5H9NO2
Exact mass: 115.0633285391
SMILES: CC(=O)CC(=O)NC
InChI: InChI=1S/C5H9NO2/c1-4(7)3-5(8)6-2/h3H2,1-2H3,(H,6,8)
Instrument type: ESI-QTOF
Ms type: MS2
Ion mode: POSITIVE
Ionization: ESI
Collision energy: 20
Precursor m/z: 116.0706049908
Precursor type: [M+H]+
m/z	relative intensity
32.049476	84
41.038577	30
43.017841	999
43.041651	19
43.054227	11
56.049476	72
58.02874	232
59.049141	104
70.065126	80
85.028406	50
98.06004	26
