Mass spectrum: 4-(N-Methyl-N-nitrosamino)-1-(3-pyridyl)-1-butanone; ESI-QTOF; MS2; CE: 20; [M+H]+
Name: 4-(N-Methyl-N-nitrosamino)-1-(3-pyridyl)-1-butanone
Name: DTXSID3020881
Formula: C10H13N3O2
Exact mass: 207.1007766815
SMILES: CN(CCCC(=O)C1C=NC=CC=1)N=O
InChI: InChI=1S/C10H13N3O2/c1-13(12-15)7-3-5-10(14)9-4-2-6-11-8-9/h2,4,6,8H,3,5,7H2,1H3
Instrument type: ESI-QTOF
Ms type: MS2
Ion mode: POSITIVE
Ionization: ESI
Collision energy: 20
Precursor m/z: 208.1080531332
Precursor type: [M+H]+
m/z	relative intensity
44.049476	21
57.057301	140
72.080776	22
78.033826	38
79.041651	214
93.057301	29
100.07569	26
106.02874	209
106.065126	220
107.036565	10
107.072951	101
122.06004	999
122.104979	23
134.06004	231
135.067865	182
146.06004	11
148.07569	102
149.107325	154
