Mass spectrum: 2-Methylimidazole; ESI-QTOF; MS2; CE: 40; [M+H]+
Name: 2-Methylimidazole
Name: DTXSID4022107
Formula: C4H6N2
Exact mass: 82.0530982062
SMILES: CC1NC=CN=1
InChI: InChI=1S/C4H6N2/c1-4-5-2-3-6-4/h2-3H,1H3,(H,5,6)
Instrument type: ESI-QTOF
Ms type: MS2
Ion mode: POSITIVE
Ionization: ESI
Collision energy: 40
Precursor m/z: 83.0603746579
Precursor type: [M+H]+
m/z	relative intensity
40.018175	18
41.026001	237
42.021249	250
42.033826	999
43.041651	20
54.033826	15
56.049476	88
67.029075	63
68.0369	91
81.044725	12
83.060375	83
