Mass spectrum: FR130739; ESI-QTOF; MS2; CE: 10; [M+H]+
Name: FR130739
Name: DTXSID1048178
Formula: C24H23N7
Exact mass: 409.2014937855
SMILES: CCCCC1=NC2C=CC=NC=2N1CC1C=CC(=CC=1)C1=CC=CC=C1C1NN=NN=1
InChI: InChI=1S/C24H23N7/c1-2-3-10-22-26-21-9-6-15-25-24(21)31(22)16-17-11-13-18(14-12-17)19-7-4-5-8-20(19)23-27-29-30-28-23/h4-9,11-15H,2-3,10,16H2,1H3,(H,27,28,29,30)
Instrument type: ESI-QTOF
Ms type: MS2
Ion mode: POSITIVE
Ionization: ESI
Collision energy: 10
Precursor m/z: 410.2087702372
Precursor type: [M+H]+
m/z	relative intensity
176.118224	73
178.077702	15
207.091675	467
207.147847	11
353.188649	17
367.191723	14
382.202622	104
410.20877	999
