Mass spectrum: Arsenobetaine; ESI-QTOF; MS2; CE: 40; [M+H]+
Name: Arsenobetaine
Name: DTXSID0052833
Formula: C5H11AsO2
Exact mass: 177.9975011955
SMILES: C[As+](C)(C)CC([O-])=O
InChI: InChI=1S/C5H11AsO2/c1-6(2,3)4-5(7)8/h4H2,1-3H3
Instrument type: ESI-QTOF
Ms type: MS2
Ion mode: POSITIVE
Ionization: ESI
Collision energy: 40
Precursor m/z: 179.0047776472
Precursor type: [M+H]+
m/z	relative intensity
74.921048	132
76.936698	169
88.936698	66
89.944523	19
90.952348	16
91.923788	15
100.936698	313
102.952348	999
103.009863	15
104.967998	490
106.947263	98
119.991473	70
130.947263	43
