Mass spectrum: 2,5,8,11,14-Pentaoxapentadecane; ESI-QTOF; MS2; CE: 10; [M+H]+
Name: 2,5,8,11,14-Pentaoxapentadecane
Name: DTXSID7044396
Formula: C10H22O5
Exact mass: 222.1467238133
SMILES: COCCOCCOCCOCCOC
InChI: InChI=1S/C10H22O5/c1-11-3-5-13-7-9-15-10-8-14-6-4-12-2/h3-10H2,1-2H3
Instrument type: ESI-QTOF
Ms type: MS2
Ion mode: POSITIVE
Ionization: ESI
Collision energy: 10
Precursor m/z: 223.154000265
Precursor type: [M+H]+
m/z	relative intensity
31.017841	10
45.033491	29
59.049141	999
59.085527	19
89.059706	25
103.075356	690
133.085921	11
147.101571	53
