Mass spectrum: 4-(Diglycidylamino)phenyl glycidyl ether; ESI-QTOF; MS2; CE: 20; [M+H]+
Name: 4-(Diglycidylamino)phenyl glycidyl ether
Name: DTXSID8027585
Formula: C15H19NO4
Exact mass: 277.1314081027
SMILES: C(C1CO1)N(CC1CO1)C1C=CC(=CC=1)OCC1CO1
InChI: InChI=1S/C15H19NO4/c1-3-12(17-9-15-10-20-15)4-2-11(1)16(5-13-7-18-13)6-14-8-19-14/h1-4,13-15H,5-10H2
Instrument type: ESI-QTOF
Ms type: MS2
Ion mode: POSITIVE
Ionization: ESI
Collision energy: 20
Precursor m/z: 278.1386845544
Precursor type: [M+H]+
m/z	relative intensity
41.038577	13
43.017841	13
43.054227	47
45.033491	25
54.033826	20
55.017841	18
55.054227	30
57.033491	186
71.049141	86
77.038577	35
79.054227	17
80.049476	11
83.049141	32
91.054227	77
101.059706	12
103.054227	47
104.049476	17
105.069877	10
107.049141	56
108.04439	41
109.052215	11
115.054227	16
116.049476	19
117.057301	55
118.065126	117
119.072951	27
120.04439	105
120.080776	21
121.064791	25
121.999845	10
122.06004	34
123.044056	11
129.054621	20
129.069877	18
130.065126	136
131.049141	19
131.072951	47
132.04439	43
132.080776	70
133.052215	38
134.06004	198
134.093746	12
135.067865	50
136.07569	60
142.065126	10
143.072951	59
144.080776	96
145.052215	22
145.064791	15
145.088601	14
146.06004	374
146.096426	25
147.067865	51
148.07569	122
149.059706	19
149.080835	11
150.09134	17
156.080776	53
157.088601	29
158.06004	46
158.096426	43
159.067865	66
160.07569	221
161.083515	34
162.054955	22
162.09134	74
163.075356	21
163.096485	10
164.070605	379
165.07843	44
167.072951	11
168.080776	12
170.06004	11
170.093746	19
171.067865	18
172.07569	191
173.083515	98
174.09134	225
175.099165	21
176.070605	999
176.119567	20
177.07843	45
178.086255	214
184.07569	29
185.083515	27
186.09134	93
189.07843	14
190.086255	390
191.09408	151
192.101905	510
198.09134	31
202.086255	501
203.09408	186
204.101905	381
205.10973	41
206.117555	33
216.101905	142
217.10973	17
218.117555	104
220.09682	411
221.104645	519
222.11247	31
228.101905	68
229.10973	15
230.117555	120
232.133205	14
234.11247	264
235.120295	33
242.117555	11
247.120295	49
248.12812	217
250.107384	16
260.12812	232
278.138685	212
