Mass spectrum: 1,4-Diazabicyclo[2.2.2]octane; ESI-QTOF; MS2; CE: 40; [M+H]+
Name: 1,4-Diazabicyclo[2.2.2]octane
Name: DTXSID0022016
Formula: C6H12N2
Exact mass: 112.1000483976
SMILES: C1CN2CCN1CC2
InChI: InChI=1S/C6H12N2/c1-2-8-5-3-7(1)4-6-8/h1-6H2
Instrument type: ESI-QTOF
Ms type: MS2
Ion mode: POSITIVE
Ionization: ESI
Collision energy: 40
Precursor m/z: 113.1073248493
Precursor type: [M+H]+
m/z	relative intensity
28.018175	26
29.038577	10
30.033826	20
39.022927	62
41.026001	75
41.038577	256
42.033826	999
43.041651	24
43.054227	117
44.049476	339
53.038577	28
54.033826	36
55.041651	88
56.049476	837
57.057301	20
58.065126	158
67.041651	16
67.054227	10
68.049476	82
69.044725	21
69.057301	13
70.065126	377
72.080776	19
82.065126	21
83.060375	218
84.0682	91
84.080776	279
97.076025	37
98.08385	27
113.107325	213
