Mass spectrum: SAR102608; ESI-QTOF; MS2; CE: 40; [M-H]-
Name: SAR102608
Formula: C20H16FN5O
Exact mass: 361.1338883697
SMILES: CC1N=C(N=CC=1C(=O)NN1C=C(C)C2=CC(F)=CC=C12)C1=CC=CC=N1
InChI: InChI=1S/C20H16FN5O/c1-12-11-26(18-7-6-14(21)9-15(12)18)25-20(27)16-10-23-19(24-13(16)2)17-5-3-4-8-22-17/h3-11H,1-2H3,(H,25,27)
Instrument type: ESI-QTOF
Ms type: MS2
Ion mode: NEGATIVE
Ionization: ESI
Collision energy: 40
Precursor m/z: 360.126611918
Precursor type: [M-H]-
m/z	relative intensity
126.034923	14
146.041151	19
148.056801	999
148.10174	51
148.120384	28
149.05946	13
189.046965	13
