Mass spectrum: N-(3-Anilino-2-propenylidene)aniline; ESI-QTOF; MS2; CE: 10; [M+H]+
Name: N-(3-Anilino-2-propenylidene)aniline
Name: DTXSID4051958
Formula: C15H14N2
Exact mass: 222.1156984614
SMILES: C(/C=N/C1C=CC=CC=1)/C=N/C1C=CC=CC=1
InChI: InChI=1S/C15H14N2/c1-3-8-14(9-4-1)16-12-7-13-17-15-10-5-2-6-11-15/h1-6,8-13H,7H2/b16-12+,17-13+
Instrument type: ESI-QTOF
Ms type: MS2
Ion mode: POSITIVE
Ionization: ESI
Collision energy: 10
Precursor m/z: 223.1229749131
Precursor type: [M+H]+
m/z	relative intensity
77.038577	11
104.049476	16
120.080776	23
130.065126	109
223.122975	999
