Mass spectrum: 2,4,4'-Trihydroxybenzophenone; ESI-QTOF; MS2; CE: 40; [M-H]-
Name: 2,4,4'-Trihydroxybenzophenone
Name: DTXSID8044836
Formula: C13H10O4
Exact mass: 230.0579088082
SMILES: OC1C=C(O)C(=CC=1)C(=O)C1C=CC(O)=CC=1
InChI: InChI=1S/C13H10O4/c14-9-3-1-8(2-4-9)13(17)11-6-5-10(15)7-12(11)16/h1-7,14-16H
Instrument type: ESI-QTOF
Ms type: MS2
Ion mode: NEGATIVE
Ionization: ESI
Collision energy: 40
Precursor m/z: 229.0506323565
Precursor type: [M-H]-
m/z	relative intensity
41.003288	226
49.008374	61
63.024024	16
65.003288	146
65.039674	40
67.018938	18
91.018938	638
91.055324	18
92.998203	17
93.034588	999
93.070974	30
107.013853	14
117.034588	45
135.008768	26
