Mass spectrum: N,N-Bis(2-hydroxyethyl)formamide; ESI-QTOF; MS2; CE: 20; [M+H]+
Name: N,N-Bis(2-hydroxyethyl)formamide
Name: DTXSID3044625
Formula: C5H11NO3
Exact mass: 133.0738932252
SMILES: OCCN(CCO)C=O
InChI: InChI=1S/C5H11NO3/c7-3-1-6(5-9)2-4-8/h5,7-8H,1-4H2
Instrument type: ESI-QTOF
Ms type: MS2
Ion mode: POSITIVE
Ionization: ESI
Collision energy: 20
Precursor m/z: 134.0811696769
Precursor type: [M+H]+
m/z	relative intensity
41.038577	82
42.033826	320
43.054227	63
44.049476	663
45.033491	626
45.057301	12
60.04439	16
62.06004	12
68.049476	36
70.065126	999
72.04439	231
88.07569	410
106.086255	111
116.070605	156
