Mass spectrum: 2,2',5,5'-Tetrachlorobenzidine; ESI-QTOF; MS2; CE: 10; [M-H]-
Name: 2,2',5,5'-Tetrachlorobenzidine
Name: DTXSID7021314
Formula: C12H8Cl4N2
Exact mass: 319.94415911
SMILES: NC1C=C(Cl)C(=CC=1Cl)C1C=C(Cl)C(N)=CC=1Cl
InChI: InChI=1S/C12H8Cl4N2/c13-7-3-11(17)9(15)1-5(7)6-2-10(16)12(18)4-8(6)14/h1-4H,17-18H2
Instrument type: ESI-QTOF
Ms type: MS2
Ion mode: NEGATIVE
Ionization: ESI
Collision energy: 10
Precursor m/z: 318.9368826583
Precursor type: [M-H]-
m/z	relative intensity
282.960205	24
318.936883	999
