Mass spectrum: 5-Amino-2-methylbenzenesulfonic acid; ESI-QTOF; MS2; CE: 10; [M-H]-
Name: 5-Amino-2-methylbenzenesulfonic acid
Formula: C7H9NO3S
Exact mass: 187.0303138914
SMILES: CC1=CC=C(N)C=C1S(O)(=O)=O
InChI: InChI=1S/C7H9NO3S/c1-5-2-3-6(8)4-7(5)12(9,10)11/h2-4H,8H2,1H3,(H,9,10,11)
Instrument type: ESI-QTOF
Ms type: MS2
Ion mode: NEGATIVE
Ionization: ESI
Collision energy: 10
Precursor m/z: 186.0230374397
Precursor type: [M-H]-
m/z	relative intensity
79.957363	71
122.061137	18
186.023037	999
