Mass spectrum: PHA-00568487; ESI-QTOF; MS2; CE: 10; [M+H]+
Name: PHA-00568487
Name: DTXSID1047285
Formula: C16H20N2O3
Exact mass: 288.1473925197
SMILES: O=C(NC1CN2CCC1CC2)C1C=C2OCCOC2=CC=1
InChI: InChI=1S/C16H20N2O3/c19-16(17-13-10-18-5-3-11(13)4-6-18)12-1-2-14-15(9-12)21-8-7-20-14/h1-2,9,11,13H,3-8,10H2,(H,17,19)
Instrument type: ESI-QTOF
Ms type: MS2
Ion mode: POSITIVE
Ionization: ESI
Collision energy: 10
Precursor m/z: 289.1546689714
Precursor type: [M+H]+
m/z	relative intensity
110.096426	11
163.038971	12
289.154669	999
