Mass spectrum: 2,3-Dihydro-4-methyl-1-phenyl-1H-phosphole 1-oxide; ESI-QTOF; MS2; CE: 40; [M+H]+
Name: 2,3-Dihydro-4-methyl-1-phenyl-1H-phosphole 1-oxide
Name: DTXSID0051497
Formula: C11H13OP
Exact mass: 192.070401527
SMILES: CC1CCP(=O)(C=1)C1C=CC=CC=1
InChI: InChI=1S/C11H13OP/c1-10-7-8-13(12,9-10)11-5-3-2-4-6-11/h2-6,9H,7-8H2,1H3
Instrument type: ESI-QTOF
Ms type: MS2
Ion mode: POSITIVE
Ionization: ESI
Collision energy: 40
Precursor m/z: 193.0776779787
Precursor type: [M+H]+
m/z	relative intensity
41.038577	90
43.017841	22
46.968128	999
47.004513	15
48.983778	18
53.038577	15
55.054227	26
59.004513	12
62.999428	14
65.038577	10
67.054227	121
68.062052	14
69.069877	14
71.004513	31
74.999428	31
77.038577	18
86.999428	52
91.054227	16
95.004513	80
97.020163	323
101.015078	14
115.030728	443
125.015078	65
