Mass spectrum: 2,2'-(Tetradecylimino)diethanol; ESI-QTOF; MS2; CE: 10; [M+H]+
Name: 2,2'-(Tetradecylimino)diethanol
Name: DTXSID5044865
Formula: C18H39NO2
Exact mass: 301.2980794961
SMILES: CCCCCCCCCCCCCCN(CCO)CCO
InChI: InChI=1S/C18H39NO2/c1-2-3-4-5-6-7-8-9-10-11-12-13-14-19(15-17-20)16-18-21/h20-21H,2-18H2,1H3
Instrument type: ESI-QTOF
Ms type: MS2
Ion mode: POSITIVE
Ionization: ESI
Collision energy: 10
Precursor m/z: 302.3053559478
Precursor type: [M+H]+
m/z	relative intensity
302.305356	999
