Mass spectrum: 2,4,5-Trimethoxybenzaldehyde; ESI-QTOF; MS2; CE: 40; [M+H]+
Name: 2,4,5-Trimethoxybenzaldehyde
Name: DTXSID1022217
Formula: C10H12O4
Exact mass: 196.073558872
SMILES: COC1=CC(C=O)=C(C=C1OC)OC
InChI: InChI=1S/C10H12O4/c1-12-8-5-10(14-3)9(13-2)4-7(8)6-11/h4-6H,1-3H3
Instrument type: ESI-QTOF
Ms type: MS2
Ion mode: POSITIVE
Ionization: ESI
Collision energy: 40
Precursor m/z: 197.0808353237
Precursor type: [M+H]+
m/z	relative intensity
29.038577	20
39.022927	73
40.030752	12
41.038577	94
43.017841	17
50.015101	11
51.022927	71
52.030752	47
53.002191	24
53.038577	295
55.017841	112
55.054227	196
59.012756	19
64.030752	26
65.038577	928
66.046402	106
67.054227	203
68.025666	134
68.997106	175
69.033491	54
77.038577	385
78.046402	213
79.017841	223
79.054227	84
80.025666	21
81.033491	176
81.069877	29
82.041316	30
83.049141	222
85.028406	25
92.025666	61
93.033491	351
94.041316	105
95.012756	23
95.049141	699
95.085527	15
96.020581	182
96.056966	52
97.028406	55
97.064791	42
105.033491	29
107.012756	54
107.049141	28
108.056966	54
109.028406	165
109.064791	181
110.036231	72
111.00767	17
111.044056	915
111.080441	20
121.028406	35
122.036231	15
123.00767	12
123.044056	999
123.080441	18
124.015495	23
124.051881	42
125.059706	119
135.044056	12
136.051881	15
137.02332	63
137.059706	11
138.067531	120
139.038971	292
139.075356	16
151.038971	18
154.062446	18
167.033885	55
