Mass spectrum: Diallyldimethylammonium; ESI-QTOF; MS2; CE: 20; [M+H]+
Name: Diallyldimethylammonium
Name: DTXSID4027650
Formula: [C8H16N]+
Exact mass: 126.1282745178
SMILES: C[N+](C)(CC=C)CC=C
InChI: InChI=1S/C8H16N/c1-5-7-9(3,4)8-6-2/h5-6H,1-2,7-8H2,3-4H3/q+1
Instrument type: ESI-QTOF
Ms type: MS2
Ion mode: POSITIVE
Ionization: ESI
Collision energy: 20
Precursor m/z: 127.1355509695
Precursor type: [M+H]+
m/z	relative intensity
39.022927	13
41.038577	296
42.033826	177
42.046402	194
43.041651	85
44.049476	18
58.065126	488
59.072951	262
70.065126	317
71.072951	306
82.065126	12
83.072951	28
84.080776	620
85.088601	999
86.096426	214
127.135551	44
