Mass spectrum: 2-[2-(2-Ethoxyethoxy)ethoxy]ethanol; ESI-QTOF; MS2; CE: 10; [M+H]+
Name: 2-[2-(2-Ethoxyethoxy)ethoxy]ethanol
Formula: C8H18O4
Exact mass: 178.1205090634
SMILES: CCOCCOCCOCCO
InChI: InChI=1S/C8H18O4/c1-2-10-5-6-12-8-7-11-4-3-9/h9H,2-8H2,1H3
Instrument type: ESI-QTOF
Ms type: MS2
Ion mode: POSITIVE
Ionization: ESI
Collision energy: 10
Precursor m/z: 179.1277855151
Precursor type: [M+H]+
m/z	relative intensity
45.033491	312
73.064791	171
89.059706	92
101.002191	999
101.038577	37
101.059706	18
117.091006	62
133.085921	15
