Mass spectrum: AVE9423; ESI-QTOF; MS2; CE: 10; [M-H]-
Name: AVE9423
Formula: C23H12Cl2F2N2O5
Exact mass: 504.0091333291
SMILES: OC(=O)C1=CC=CC=C1N1C=C(C(=O)C2C=C(NC3C(Cl)=CC(F)=CC=3F)C(Cl)=CC1=2)C(O)=O
InChI: InChI=1S/C23H12Cl2F2N2O5/c24-14-8-19-12(7-17(14)28-20-15(25)5-10(26)6-16(20)27)21(30)13(23(33)34)9-29(19)18-4-2-1-3-11(18)22(31)32/h1-9,28H,(H,31,32)(H,33,34)
Instrument type: ESI-QTOF
Ms type: MS2
Ion mode: NEGATIVE
Ionization: ESI
Collision energy: 10
Precursor m/z: 503.0018568774
Precursor type: [M-H]-
m/z	relative intensity
34.969401	20
331.044378	67
343.068843	79
351.050119	10
359.039292	120
367.021056	15
379.045521	233
380.050178	17
382.980728	15
387.058672	43
395.01597	117
403.029122	35
415.022198	166
416.025026	11
423.03535	999
424.043175	60
439.006455	13
458.004203	34
459.012028	271
503.001857	211
