Mass spectrum: Quinolinic acid; ESI-QTOF; MS2; CE: 10; [M+H]+
Name: Quinolinic acid
Name: 2,3-Pyridinedicarboxylic acid
Formula: C7H5NO4
Exact mass: 167.0218576561
SMILES: OC(=O)C1C=CC=NC=1C(O)=O
InChI: InChI=1S/C7H5NO4/c9-6(10)4-2-1-3-8-5(4)7(11)12/h1-3H,(H,9,10)(H,11,12)
Instrument type: ESI-QTOF
Ms type: MS2
Ion mode: POSITIVE
Ionization: ESI
Collision energy: 10
Precursor m/z: 168.0291341078
Precursor type: [M+H]+
m/z	relative intensity
45.033491	19
78.033826	358
79.017841	47
80.025666	16
80.049476	27
94.02874	10
106.02874	449
122.023655	52
124.039305	422
150.018569	999
168.029134	69
