Mass spectrum: 4-{2-Oxo-2-[3-(trifluoromethyl)phenyl]ethyl}benzonitrile; ESI-QTOF; MS2; CE: 20; [M-H]-
Name: 4-{2-Oxo-2-[3-(trifluoromethyl)phenyl]ethyl}benzonitrile
Name: DTXSID3044835
Formula: C16H10F3NO
Exact mass: 289.0714485487
SMILES: N#CC1C=CC(CC(=O)C2C=C(C=CC=2)C(F)(F)F)=CC=1
InChI: InChI=1S/C16H10F3NO/c17-16(18,19)14-3-1-2-13(9-14)15(21)8-11-4-6-12(10-20)7-5-11/h1-7,9H,8H2
Instrument type: ESI-QTOF
Ms type: MS2
Ion mode: NEGATIVE
Ionization: ESI
Collision energy: 20
Precursor m/z: 288.064172097
Precursor type: [M-H]-
m/z	relative intensity
41.003288	22
142.029837	351
145.027058	75
226.047379	34
228.045487	33
240.063029	16
246.053607	123
248.051716	29
258.053607	25
267.050119	17
268.057944	35
270.053607	101
273.040697	212
286.048522	74
287.056347	11
288.064172	999
