Mass spectrum: 4-[(Diphenylhydrazinylidene)methyl]-N,N-diethylaniline; ESI-QTOF; MS2; CE: 40; [M+H]+
Name: 4-[(Diphenylhydrazinylidene)methyl]-N,N-diethylaniline
Name: DTXSID9052399
Formula: C23H25N3
Exact mass: 343.2048478197
SMILES: CCN(CC)C1C=CC(/C=N/N(C2C=CC=CC=2)C2C=CC=CC=2)=CC=1
InChI: InChI=1S/C23H25N3/c1-3-25(4-2)21-17-15-20(16-18-21)19-24-26(22-11-7-5-8-12-22)23-13-9-6-10-14-23/h5-19H,3-4H2,1-2H3/b24-19+
Instrument type: ESI-QTOF
Ms type: MS2
Ion mode: POSITIVE
Ionization: ESI
Collision energy: 40
Precursor m/z: 344.2121242714
Precursor type: [M+H]+
m/z	relative intensity
45.032149	18
66.046402	20
77.038577	12
79.054227	16
91.054227	10
92.049476	36
93.069877	15
103.054227	12
104.049476	10
106.065126	36
119.060375	25
119.072951	14
120.080776	138
121.088601	16
131.060375	14
133.076025	53
134.096426	19
145.076025	24
147.091675	294
149.119901	269
161.107325	455
167.072951	561
168.080776	999
168.149524	16
169.088601	136
175.122975	46
195.091675	13
237.138625	21
300.149524	13
314.165174	10
315.172999	23
