Mass spectrum: Tyrphostin; ESI-QTOF; MS2; CE: 40; [M+H]+
Name: Tyrphostin
Name: DTXSID0051447
Formula: C16H14ClN3O2
Exact mass: 315.0774544234
SMILES: COC1=CC2=C(NC3C=C(Cl)C=CC=3)N=CN=C2C=C1OC
InChI: InChI=1S/C16H14ClN3O2/c1-21-14-7-12-13(8-15(14)22-2)18-9-19-16(12)20-11-5-3-4-10(17)6-11/h3-9H,1-2H3,(H,18,19,20)
Instrument type: ESI-QTOF
Ms type: MS2
Ion mode: POSITIVE
Ionization: ESI
Collision energy: 40
Precursor m/z: 316.0847308751
Precursor type: [M+H]+
m/z	relative intensity
102.09134	18
110.999604	10
190.061103	10
207.079099	16
235.074013	11
236.081838	29
242.047464	74
243.055289	14
254.047951	45
255.055776	47
264.076753	36
270.042866	63
271.050691	49
272.058516	229
282.042866	27
298.037781	31
300.053431	999
301.061256	28
316.084731	22
