Mass spectrum: 2-Amino-6-methoxybenzothiazole; ESI-QTOF; MS2; CE: 10; [M+H]+
Name: 2-Amino-6-methoxybenzothiazole
Name: DTXSID9024485
Formula: C8H8N2OS
Exact mass: 180.0357336223
SMILES: COC1=CC2SC(N)=NC=2C=C1
InChI: InChI=1S/C8H8N2OS/c1-11-5-2-3-6-7(4-5)12-8(9)10-6/h2-4H,1H3,(H2,9,10)
Instrument type: ESI-QTOF
Ms type: MS2
Ion mode: POSITIVE
Ionization: ESI
Collision energy: 10
Precursor m/z: 181.043010074
Precursor type: [M+H]+
m/z	relative intensity
138.02462	10
166.019535	67
181.04301	999
