Mass spectrum: 1H-Benzo[de]isoquinoline-1,3(2H)-dione; ESI-QTOF; MS2; CE: 40; [M-H]-
Name: 1H-Benzo[de]isoquinoline-1,3(2H)-dione
Formula: C12H7NO2
Exact mass: 197.0476784753
SMILES: O=C1NC(=O)C2=CC=CC3C=CC=C1C=32
InChI: InChI=1S/C12H7NO2/c14-11-8-5-1-3-7-4-2-6-9(10(7)8)12(15)13-11/h1-6H,(H,13,14,15)
Instrument type: ESI-QTOF
Ms type: MS2
Ion mode: NEGATIVE
Ionization: ESI
Collision energy: 40
Precursor m/z: 196.0404020236
Precursor type: [M-H]-
m/z	relative intensity
41.998537	999
168.045487	14
196.040402	12
