Mass spectrum: Camphor; ESI-QTOF; MS2; CE: 10; [M+H]+
Name: Camphor
Name: DTXSID8022036
Formula: C10H16O
Exact mass: 152.1201151327
SMILES: CC1(C)C2CC(=O)C1(C)CC2
InChI: InChI=1S/C10H16O/c1-9(2)7-4-5-10(9,3)8(11)6-7/h7H,4-6H2,1-3H3
Instrument type: ESI-QTOF
Ms type: MS2
Ion mode: POSITIVE
Ionization: ESI
Collision energy: 10
Precursor m/z: 153.1273915844
Precursor type: [M+H]+
m/z	relative intensity
61.007276	12
63.994366	24
79.017841	999
79.054227	45
80.025666	32
