Mass spectrum: (2,4,6-Trioxo-1,3,5-triazinane-1,3,5-triyl)triethane-2,1-diyl trisprop-2-enoate; ESI-QTOF; MS2; CE: 40; [M+H]+
Name: (2,4,6-Trioxo-1,3,5-triazinane-1,3,5-triyl)triethane-2,1-diyl trisprop-2-enoate
Name: DTXSID1044936
Formula: C18H21N3O9
Exact mass: 423.1277792928
SMILES: C=CC(=O)OCCN1C(=O)N(CCOC(=O)C=C)C(=O)N(CCOC(=O)C=C)C1=O
InChI: InChI=1S/C18H21N3O9/c1-4-13(22)28-10-7-19-16(25)20(8-11-29-14(23)5-2)18(27)21(17(19)26)9-12-30-15(24)6-3/h4-6H,1-3,7-12H2
Instrument type: ESI-QTOF
Ms type: MS2
Ion mode: POSITIVE
Ionization: ESI
Collision energy: 40
Precursor m/z: 424.1350557445
Precursor type: [M+H]+
m/z	relative intensity
55.017841	339
99.044056	999
99.080441	13
