Mass spectrum: 2,2'-[(4-Methylphenyl)imino]diethanol; ESI-QTOF; MS2; CE: 10; [M+H]+
Name: 2,2'-[(4-Methylphenyl)imino]diethanol
Name: DTXSID0044650
Formula: C11H17NO2
Exact mass: 195.1259287943
SMILES: CC1=CC=C(C=C1)N(CCO)CCO
InChI: InChI=1S/C11H17NO2/c1-10-2-4-11(5-3-10)12(6-8-13)7-9-14/h2-5,13-14H,6-9H2,1H3
Instrument type: ESI-QTOF
Ms type: MS2
Ion mode: POSITIVE
Ionization: ESI
Collision energy: 10
Precursor m/z: 196.133205246
Precursor type: [M+H]+
m/z	relative intensity
120.080776	60
133.088601	42
134.096426	74
151.099165	63
152.10699	33
160.112076	28
178.122641	134
196.133205	999
