Mass spectrum: Metepa; ESI-QTOF; MS2; CE: 40; [M+H]+
Name: Metepa
Name: DTXSID5020815
Formula: C9H18N3OP
Exact mass: 215.1187487087
SMILES: CC1CN1P(=O)(N1CC1C)N1CC1C
InChI: InChI=1S/C9H18N3OP/c1-7-4-10(7)14(13,11-5-8(11)2)12-6-9(12)3/h7-9H,4-6H2,1-3H3
Instrument type: ESI-QTOF
Ms type: MS2
Ion mode: POSITIVE
Ionization: ESI
Collision energy: 40
Precursor m/z: 216.1260251604
Precursor type: [M+H]+
m/z	relative intensity
39.022927	20
41.038577	260
42.033826	20
42.046402	14
43.017841	13
43.041651	41
43.054227	13
44.049476	12
45.984112	63
46.968128	424
46.991937	13
48.983778	51
54.033826	132
56.049476	999
56.074938	49
56.094414	29
56.988863	13
57.033491	40
57.057301	66
58.065126	313
59.072951	10
59.999451	12
63.994366	31
68.049476	10
73.027063	14
73.979027	41
74.015101	17
75.994366	89
80.049476	14
81.057301	11
83.060375	27
85.007276	44
86.015101	284
86.999428	12
94.065126	17
99.01035	10
101.026001	24
102.010016	74
104.025666	67
