Mass spectrum: N-Butylphosphorothioic triamide; ESI-QTOF; MS2; CE: 10; [M+H]+
Name: N-Butylphosphorothioic triamide
Formula: C4H14N3PS
Exact mass: 167.0646046888
SMILES: CCCCNP(N)(N)=S
InChI: InChI=1S/C4H14N3PS/c1-2-3-4-7-8(5,6)9/h2-4H2,1H3,(H5,5,6,7,9)
Instrument type: ESI-QTOF
Ms type: MS2
Ion mode: POSITIVE
Ionization: ESI
Collision energy: 10
Precursor m/z: 168.0718811405
Precursor type: [M+H]+
m/z	relative intensity
41.038577	30
45.032149	17
57.069877	121
74.096736	999
79.019869	17
94.982421	300
108.998382	23
151.045332	786
168.071881	114
