Mass spectrum: C.I. Direct Yellow 12; ESI-QTOF; MS2; CE: 40; [M+H]+
Name: C.I. Direct Yellow 12
Name: DTXSID5041728
Formula: C30H28N4O8S2
Exact mass: 636.1348553612
SMILES: CCOC1C=CC(=CC=1)/N=N/C1C=C(C(/C=C/C2=CC=C(C=C2S(O)(=O)=O)/N=N/C2C=CC(=CC=2)OCC)=CC=1)S(O)(=O)=O
InChI: InChI=1S/C30H28N4O8S2/c1-3-41-27-15-11-23(12-16-27)31-33-25-9-7-21(29(19-25)43(35,36)37)5-6-22-8-10-26(20-30(22)44(38,39)40)34-32-24-13-17-28(18-14-24)42-4-2/h5-20H,3-4H2,1-2H3,(H,35,36,37)(H,38,39,40)/b6-5+,33-31+,34-32+
Instrument type: ESI-QTOF
Ms type: MS2
Ion mode: POSITIVE
Ionization: ESI
Collision energy: 40
Precursor m/z: 637.1421318129
Precursor type: [M+H]+
m/z	relative intensity
65.038577	46
77.038577	95
91.054227	117
93.033491	87
93.069877	31
103.054227	13
108.04439	24
120.043048	18
121.039639	17
121.064791	999
121.108387	17
136.07569	17
137.083515	10
139.075356	12
149.070939	186
164.062052	13
226.109413	14
239.015475	20
269.07431	24
269.091417	13
285.069877	23
287.087377	10
295.086589	14
296.091734	12
317.058402	17
324.126405	14
360.089368	10
371.084875	36
378.062856	10
386.095774	13
388.087615	12
487.062128	19
493.166593	17
509.16285	27
520.156363	12
537.156422	10
545.128493	11
555.166987	14
573.123408	12
609.110832	33
637.142132	80
