Mass spectrum: N,N-Dimethyl-4-nitrosoaniline; ESI-QTOF; MS2; CE: 10; [M+H]+
Name: N,N-Dimethyl-4-nitrosoaniline
Name: DTXSID7025138
Formula: C8H10N2O
Exact mass: 150.0793129561
SMILES: CN(C)C1C=CC(=CC=1)N=O
InChI: InChI=1S/C8H10N2O/c1-10(2)8-5-3-7(9-11)4-6-8/h3-6H,1-2H3
Instrument type: ESI-QTOF
Ms type: MS2
Ion mode: POSITIVE
Ionization: ESI
Collision energy: 10
Precursor m/z: 151.0865894078
Precursor type: [M+H]+
m/z	relative intensity
119.060375	13
120.080776	17
121.088601	22
133.076025	49
134.08385	161
151.086589	999
