Mass spectrum: 4-Nitrosodiphenylamine; ESI-QTOF; MS2; CE: 40; [M+H]+
Name: 4-Nitrosodiphenylamine
Name: DTXSID1021031
Formula: C12H10N2O
Exact mass: 198.0793129561
SMILES: O=NC1C=CC(=CC=1)NC1C=CC=CC=1
InChI: InChI=1S/C12H10N2O/c15-14-12-8-6-11(7-9-12)13-10-4-2-1-3-5-10/h1-9,13H
Instrument type: ESI-QTOF
Ms type: MS2
Ion mode: POSITIVE
Ionization: ESI
Collision energy: 40
Precursor m/z: 199.0865894078
Precursor type: [M+H]+
m/z	relative intensity
51.022927	18
66.046402	23
77.038577	99
78.046402	18
101.038577	30
103.054227	29
127.054227	61
128.049476	566
129.057301	18
129.069877	10
130.065126	46
154.065126	190
167.072951	70
168.080776	62
179.060375	11
180.0682	16
181.076025	999
