Mass spectrum: N-Butylurea; ESI-QTOF; MS2; CE: 20; [M+H]+
Name: N-Butylurea
Name: DTXSID6020222
Formula: C5H12N2O
Exact mass: 116.0949630199
SMILES: CCCCNC(N)=O
InChI: InChI=1S/C5H12N2O/c1-2-3-4-7-5(6)8/h2-4H2,1H3,(H3,6,7,8)
Instrument type: ESI-QTOF
Ms type: MS2
Ion mode: POSITIVE
Ionization: ESI
Collision energy: 20
Precursor m/z: 117.1022394716
Precursor type: [M+H]+
m/z	relative intensity
29.038577	45
39.022927	47
41.038577	999
44.01309	94
55.054227	10
57.069877	927
57.102239	17
61.039639	182
74.096426	45
117.102239	36
