Mass spectrum: Acetoacetanilide; ESI-QTOF; MS2; CE: 40; [M+H]+
Name: Acetoacetanilide
Formula: C10H11NO2
Exact mass: 177.0789786029
SMILES: CC(=O)CC(=O)NC1C=CC=CC=1
InChI: InChI=1S/C10H11NO2/c1-8(12)7-10(13)11-9-5-3-2-4-6-9/h2-6H,7H2,1H3,(H,11,13)
Instrument type: ESI-QTOF
Ms type: MS2
Ion mode: POSITIVE
Ionization: ESI
Collision energy: 40
Precursor m/z: 178.0862550546
Precursor type: [M+H]+
m/z	relative intensity
39.022927	21
41.038577	16
43.017841	814
43.041651	20
43.054227	12
51.022927	156
59.049141	29
65.038577	158
77.038577	999
77.083515	13
85.028406	35
91.054227	32
92.049476	110
93.057301	12
94.065126	247
