Mass spectrum: N,N-Dimethyloctanamide; ESI-QTOF; MS2; CE: 40; [M+H]+
Name: N,N-Dimethyloctanamide
Formula: C10H21NO
Exact mass: 171.1623142996
SMILES: CCCCCCCC(=O)N(C)C
InChI: InChI=1S/C10H21NO/c1-4-5-6-7-8-9-10(12)11(2)3/h4-9H2,1-3H3
Instrument type: ESI-QTOF
Ms type: MS2
Ion mode: POSITIVE
Ionization: ESI
Collision energy: 40
Precursor m/z: 172.1695907513
Precursor type: [M+H]+
m/z	relative intensity
29.038577	29
31.041651	12
39.022927	53
41.038577	999
42.033826	11
43.017841	83
43.054227	717
44.049476	663
45.057301	464
46.065126	734
55.017841	64
55.041651	14
55.054227	93
57.033491	62
57.069877	444
58.02874	28
67.054227	21
72.04439	346
72.080776	20
87.067865	33
100.07569	59
