Mass spectrum: Tetrac; ESI-QTOF; MS2; CE: 20; [M-H]-
Name: Tetrac
Name: DTXSID5048186
Formula: C14H8I4O4
Exact mass: 747.6601307444
SMILES: OC1C(I)=CC(=CC=1I)OC1=C(I)C=C(CC(O)=O)C=C1I
InChI: InChI=1S/C14H8I4O4/c15-8-4-7(5-9(16)13(8)21)22-14-10(17)1-6(2-11(14)18)3-12(19)20/h1-2,4-5,21H,3H2,(H,19,20)
Instrument type: ESI-QTOF
Ms type: MS2
Ion mode: NEGATIVE
Ionization: ESI
Collision energy: 20
Precursor m/z: 746.6528542927
Precursor type: [M-H]-
m/z	relative intensity
126.905017	999
447.846264	49
574.750732	23
575.758557	50
702.663025	19
