Mass spectrum: N-Butylphosphorothioic triamide; ESI-QTOF; MS2; CE: 20; [M-H]-
Name: N-Butylphosphorothioic triamide
Formula: C4H14N3PS
Exact mass: 167.0646046888
SMILES: CCCCNP(N)(N)=S
InChI: InChI=1S/C4H14N3PS/c1-2-3-4-7-8(5,6)9/h2-4H2,1H3,(H5,5,6,7,9)
Instrument type: ESI-QTOF
Ms type: MS2
Ion mode: NEGATIVE
Ionization: ESI
Collision energy: 20
Precursor m/z: 166.0573282371
Precursor type: [M-H]-
m/z	relative intensity
32.980444	29
58.980458	32
60.996108	353
76.007007	404
77.95728	30
89.014832	13
92.968179	216
109.994417	15
132.069607	999
149.030779	31
166.057328	10
