Mass spectrum: Rhodamine 6G; ESI-QTOF; MS2; CE: 40; [M+H]+
Name: Rhodamine 6G
Formula: [C28H31N2O3]+
Exact mass: 443.2334678706
SMILES: CC1=CC2=C(C3C=C(C)C(=CC=3[O+]=C2C=C1NCC)NCC)C1C=CC=CC=1C(=O)OCC
InChI: InChI=1S/C28H31N2O3/c1-6-29-23-15-25-21(13-17(23)4)27(19-11-9-10-12-20(19)28(31)32-8-3)22-14-18(5)24(30-7-2)16-26(22)33-25/h9-16,29-30H,6-8H2,1-5H3/q+1
Instrument type: ESI-QTOF
Ms type: MS2
Ion mode: POSITIVE
Ionization: ESI
Collision energy: 40
Precursor m/z: 444.2407443223
Precursor type: [M+H]+
m/z	relative intensity
328.157015	15
341.16484	12
342.172665	48
358.131194	13
386.162494	22
387.170319	105
388.178144	11
401.185969	13
415.201619	76
416.209444	999
444.240744	123
