Mass spectrum: 1-Naphthylsulfonic acid; ESI-QTOF; MS2; CE: 40; [M-H]-
Name: 1-Naphthylsulfonic acid
Formula: C10H8O3S
Exact mass: 208.0194148521
SMILES: OS(=O)(=O)C1=CC=CC2C=CC=CC=21
InChI: InChI=1S/C10H8O3S/c11-14(12,13)10-7-3-5-8-4-1-2-6-9(8)10/h1-7H,(H,11,12,13)
Instrument type: ESI-QTOF
Ms type: MS2
Ion mode: NEGATIVE
Ionization: ESI
Collision energy: 40
Precursor m/z: 207.0121384004
Precursor type: [M-H]-
m/z	relative intensity
79.957363	999
79.990378	59
115.055324	32
143.050238	209
