Mass spectrum: Triflimide; ESI-QTOF; MS2; CE: 20; [M-H]-
Name: Triflimide
Formula: C2HF6NO4S2
Exact mass: 280.9251181885
SMILES: O=S(=O)(NS(=O)(=O)C(F)(F)F)C(F)(F)F
InChI: InChI=1S/C2HF6NO4S2/c3-1(4,5)14(10,11)9-15(12,13)2(6,7)8/h9H
Instrument type: ESI-QTOF
Ms type: MS2
Ion mode: NEGATIVE
Ionization: ESI
Collision energy: 20
Precursor m/z: 279.9178417368
Precursor type: [M-H]-
m/z	relative intensity
77.965523	110
82.960852	32
144.930911	10
146.960732	999
210.922632	81
213.926121	11
279.917842	779
