Mass spectrum: Bismaleimide; ESI-QTOF; MS2; CE: 40; [M+H]+
Name: Bismaleimide
Name: DTXSID8044381
Formula: C21H14N2O4
Exact mass: 358.0953569506
SMILES: O=C1C=CC(=O)N1C1C=CC(CC2C=CC(=CC=2)N2C(=O)C=CC2=O)=CC=1
InChI: InChI=1S/C21H14N2O4/c24-18-9-10-19(25)22(18)16-5-1-14(2-6-16)13-15-3-7-17(8-4-15)23-20(26)11-12-21(23)27/h1-12H,13H2
Instrument type: ESI-QTOF
Ms type: MS2
Ion mode: POSITIVE
Ionization: ESI
Collision energy: 40
Precursor m/z: 359.1026334023
Precursor type: [M+H]+
m/z	relative intensity
77.038577	32
78.033826	11
80.01309	20
103.054227	110
106.065126	102
107.049141	63
115.054227	216
129.069877	44
130.065126	41
131.049141	58
132.04439	68
158.044784	11
158.06004	955
158.104979	14
186.054955	999
186.103916	13
