Mass spectrum: N-(3-Dimethylaminopropyl)methacrylamide; ESI-QTOF; MS2; CE: 10; [M+H]+
Name: N-(3-Dimethylaminopropyl)methacrylamide
Name: DTXSID7040154
Formula: C9H18N2O
Exact mass: 170.1419132113
SMILES: CC(=C)C(=O)NCCCN(C)C
InChI: InChI=1S/C9H18N2O/c1-8(2)9(12)10-6-5-7-11(3)4/h1,5-7H2,2-4H3,(H,10,12)
Instrument type: ESI-QTOF
Ms type: MS2
Ion mode: POSITIVE
Ionization: ESI
Collision energy: 10
Precursor m/z: 171.149189663
Precursor type: [M+H]+
m/z	relative intensity
69.033491	52
98.06004	32
126.09134	999
171.14919	669
