Mass spectrum: 3,4,4'-Triaminodiphenyl ether; ESI-QTOF; MS2; CE: 20; [M+H]+
Name: 3,4,4'-Triaminodiphenyl ether
Name: DTXSID1021372
Formula: C12H13N3O
Exact mass: 215.1058620592
SMILES: NC1C=CC(=CC=1)OC1C=C(N)C(N)=CC=1
InChI: InChI=1S/C12H13N3O/c13-8-1-3-9(4-2-8)16-10-5-6-11(14)12(15)7-10/h1-7H,13-15H2
Instrument type: ESI-QTOF
Ms type: MS2
Ion mode: POSITIVE
Ionization: ESI
Collision energy: 20
Precursor m/z: 216.1131385109
Precursor type: [M+H]+
m/z	relative intensity
65.038577	13
80.049476	104
92.049476	38
95.060375	12
107.060375	23
108.04439	999
108.0682	686
109.076025	242
123.055289	24
144.080776	14
154.065126	12
171.091675	26
182.06004	10
199.086589	49
216.113139	93
