Mass spectrum: Cyclopamine; ESI-QTOF; MS2; CE: 40; [M+H]+
Name: Cyclopamine
Name: DTXSID6043709
Formula: C27H41NO2
Exact mass: 411.3137295599
SMILES: CC12CCC(O)CC1=CCC1C2CC2C1CCC1(OC3CC(C)CNC3C1C)C=2C
InChI: InChI=1S/C27H41NO2/c1-15-11-24-25(28-14-15)17(3)27(30-24)10-8-20-21-6-5-18-12-19(29)7-9-26(18,4)23(21)13-22(20)16(27)2/h5,15,17,19-21,23-25,28-29H,6-14H2,1-4H3
Instrument type: ESI-QTOF
Ms type: MS2
Ion mode: POSITIVE
Ionization: ESI
Collision energy: 40
Precursor m/z: 412.3210060116
Precursor type: [M+H]+
m/z	relative intensity
41.038577	38
43.017841	36
43.054227	95
44.049476	11
55.054227	77
57.069877	42
58.065126	11
67.054227	624
69.033491	10
69.069877	39
70.065126	81
77.038577	10
79.054227	47
81.057301	14
81.069877	236
82.065126	12
83.049141	36
84.080776	497
84.114481	10
85.064791	270
91.054227	43
93.069877	62
95.085527	47
96.080776	73
97.064791	10
98.096426	46
100.07569	20
102.09134	121
105.069877	98
107.085527	117
109.101177	999
110.096426	18
112.07569	72
114.09134	870
114.127726	20
117.069877	24
119.085527	71
121.101177	55
124.112076	33
125.096091	14
126.127726	197
129.069877	17
131.085527	50
133.101177	180
135.116827	36
140.10699	45
142.077702	17
143.085527	57
145.101177	166
147.116827	51
151.111742	19
155.085527	25
157.101177	196
159.116827	153
161.132477	58
163.111742	13
169.101177	28
171.116827	123
173.132477	57
181.101177	17
183.116827	46
185.132477	50
187.148127	13
195.116827	36
197.132477	63
199.148127	24
209.132477	30
211.148127	36
213.163777	98
223.148127	19
225.163777	13
237.163777	19
239.179427	17
251.179427	17
253.195077	24
279.210727	29
281.226377	11
287.200557	14
295.205642	14
297.221292	19
321.221292	58
335.236942	14
377.283892	26
394.310441	49
412.321006	146
