Mass spectrum: Ethyl 3-hydroxybenzoate; ESI-QTOF; MS2; CE: 10; [M-H]-
Name: Ethyl 3-hydroxybenzoate
Formula: C9H10O3
Exact mass: 166.0629941859
SMILES: CCOC(=O)C1C=CC=C(O)C=1
InChI: InChI=1S/C9H10O3/c1-2-12-9(11)7-4-3-5-8(10)6-7/h3-6,10H,2H2,1H3
Instrument type: ESI-QTOF
Ms type: MS2
Ion mode: NEGATIVE
Ionization: ESI
Collision energy: 10
Precursor m/z: 165.0557177342
Precursor type: [M-H]-
m/z	relative intensity
92.026763	528
92.063149	11
93.034588	136
136.016593	97
137.024418	321
165.055718	999
