Mass spectrum: 3-tert-Butylphenol; ESI-QTOF; MS2; CE: 40; [M-H]-
Name: 3-tert-Butylphenol
Name: DTXSID9044825
Formula: C10H14O
Exact mass: 150.1044650689
SMILES: CC(C)(C)C1C=C(O)C=CC=1
InChI: InChI=1S/C10H14O/c1-10(2,3)8-5-4-6-9(11)7-8/h4-7,11H,1-3H3
Instrument type: ESI-QTOF
Ms type: MS2
Ion mode: NEGATIVE
Ionization: ESI
Collision energy: 40
Precursor m/z: 149.0971886172
Precursor type: [M-H]-
m/z	relative intensity
65.039674	27
92.026763	31
93.034588	11
105.070974	25
117.034588	371
118.042413	63
119.050238	22
132.058063	21
133.065888	999
