Mass spectrum: N,N-Dimethyloctanamide; ESI-QTOF; MS2; CE: 10; [M+H]+
Name: N,N-Dimethyloctanamide
Formula: C10H21NO
Exact mass: 171.1623142996
SMILES: CCCCCCCC(=O)N(C)C
InChI: InChI=1S/C10H21NO/c1-4-5-6-7-8-9-10(12)11(2)3/h4-9H2,1-3H3
Instrument type: ESI-QTOF
Ms type: MS2
Ion mode: POSITIVE
Ionization: ESI
Collision energy: 10
Precursor m/z: 172.1695907513
Precursor type: [M+H]+
m/z	relative intensity
46.065126	65
57.069877	40
116.10699	13
172.169591	999
