Mass spectrum: C.I. Disperse Orange 25; ESI-QTOF; MS2; CE: 40; [M+H]+
Name: C.I. Disperse Orange 25
Name: DTXSID5051999
Formula: C17H17N5O2
Exact mass: 323.1382248239
SMILES: CCN(CCC#N)C1C=CC(=CC=1)/N=N/C1C=CC(=CC=1)[N+]([O-])=O
InChI: InChI=1S/C17H17N5O2/c1-2-21(13-3-12-18)16-8-4-14(5-9-16)19-20-15-6-10-17(11-7-15)22(23)24/h4-11H,2-3,13H2,1H3/b20-19+
Instrument type: ESI-QTOF
Ms type: MS2
Ion mode: POSITIVE
Ionization: ESI
Collision energy: 40
Precursor m/z: 324.1455012756
Precursor type: [M+H]+
m/z	relative intensity
39.022927	30
50.015101	19
51.022927	29
54.033826	11
63.022927	23
64.030752	94
75.022927	404
75.055289	10
76.030752	194
77.038577	28
79.054227	11
91.054227	15
92.025666	390
92.045453	43
92.062052	12
104.049476	140
105.040702	10
105.057301	353
106.065126	158
118.065126	38
119.060375	51
120.080776	12
122.023655	999
122.067251	29
122.08385	19
132.055624	28
132.064177	10
132.080776	28
133.088601	947
133.132197	28
134.096426	335
145.076025	24
147.091675	85
150.029803	46
159.091675	17
172.086924	16
180.080776	10
181.088601	14
208.086924	11
209.094749	222
224.081838	13
237.126049	438
238.129851	10
255.087652	449
255.147847	10
283.118952	213
