Mass spectrum: Me-SPA6C; LC-ESI-Q; MS2; 55 V; [M-H]-
Name: Me-SPA6C
Name: Sulfophenyl alkyl carboxylic acid, methyl ester
Name: C6SPC-Me-ester
Name: 4-(7-methoxy-7-oxoheptan-2-yl)benzenesulfonic acid
Formula: C14H20O5S
Exact mass: 300.1031
SMILES: OS(=O)(=O)c1ccc(cc1)C(C)CCCCC(=O)OC
InChI: InChI=1S/C14H20O5S/c1-11(5-3-4-6-14(15)19-2)12-7-9-13(10-8-12)20(16,17)18/h7-11H,3-6H2,1-2H3,(H,16,17,18)
Instrument: Fisons VG Platform
Instrument type: LC-ESI-Q
Ms type: MS2
Ion mode: NEGATIVE
Ionization: ESI
Fragmentation mode: CID
Collision energy: 55 V
Base peak: 299.0959
Precursor m/z: 299.0959
Precursor type: [M-H]-
m/z	relative intensity	assigned
80	50	HO3S-
183	999	C8H7O3S-
184	100	C8H8O3S-
299	150	C14H19O5S-
