Mass spectrum: C12EOx; LC-APCI-Q; MS; [M+H]+
Name: C12EOx
Name: C12EO2
Name: C12-alcohol polyethoxylate
Name: C12AEO2
Name: 2-{2-[2-(Dodecyloxy)ethoxy]ethoxy}ethanol
Formula: C18H38O4
Exact mass: 318.2770
SMILES: OCCOCCOCCOCCCCCCCCCCCC
InChI: InChI=1S/C18H38O4/c1-2-3-4-5-6-7-8-9-10-11-13-20-15-17-22-18-16-21-14-12-19/h19H,2-18H2,1H3
Instrument: VG Platform
Instrument type: LC-APCI-Q
Ms type: MS
Ion mode: POSITIVE
Ionization: APCI
m/z	relative intensity
90	999
133	650
151	150
177	200
195	150
239	100
319	500
363	150
407	200
451	200
495	150
539	100
583	50
