Mass spectrum: Dicarboxyl-2Et-A4EO3; LC-ESI-Q; MS2; 30 V; [M+H]+
Name: Dicarboxyl-2Et-A4EO3
Name: Dicarboxyl-2Ethyl-A4EO3
Name: 3-({2-[2-(2-hydroxyethoxy)ethoxy]ethoxy}methyl)pentanedioic acid
Formula: C12H22O8
Exact mass: 294.1315
SMILES: OCCOCCOCCOCC(CC(=O)O)CC(=O)O
InChI: InChI=1S/C12H22O8/c13-1-2-18-3-4-19-5-6-20-9-10(7-11(14)15)8-12(16)17/h10,13H,1-9H2,(H,14,15)(H,16,17)
Instrument: Fisons VG Platform
Instrument type: LC-ESI-Q
Ms type: MS2
Ion mode: POSITIVE
Ionization: ESI
Fragmentation mode: CID
Collision energy: 30 V
Base peak: 295.1387
Precursor m/z: 295.1387
Precursor type: [M+H]+
m/z	relative intensity	assigned
45	300	
89	750	
133	800	
171	999	
215	50	
259	250	
277	100	
295	200	C12H23O8+
317	350	C12H22O8Na+
333	100	C12H22O8K+
