Mass spectrum: C10-DATS; ESI-ITFT; MS2; 30 V; [M-H]-
Name: C10-DATS
Name: C10-Dialkyl tetralin sulfonate
Name: 8-butyl-5-ethyl-5,6,7,8-tetrahydronaphthalene-2-sulfonic acid
Name: 8-butyl-5-ethyl-tetralin sulfonate
Formula: C16H24O3S
Exact mass: 296.1446
SMILES: O=S(=O)(O)c1ccc2c(c1)C(CCC2CC)CCCC
InChI: InChI=1S/C16H24O3S/c1-3-5-6-13-8-7-12(4-2)15-10-9-14(11-16(13)15)20(17,18)19/h9-13H,3-8H2,1-2H3,(H,17,18,19)
Instrument: Bruker Apex QE 12T FT-ICR
Instrument type: ESI-ITFT
Ms type: MS2
Ion mode: NEGATIVE
Ionization: ESI
Fragmentation mode: CID
Collision energy: 30 V (ramped)
Base peak: 295.1373
Precursor m/z: 295.1373
Precursor type: [M-H]-
m/z	relative intensity	assigned
183.01209	400	C8H7O3S-
197.02774	200	C9H9O3S-
209.02770	150	C10H9O3S-
223.04334	550	C11H11O3S-
237.05895	200	C12H13O3S-
253.09023	450	C13H17O3S-
295.13730	999	C16H23O3S-
