Mass spectrum: Tricarboxyl-A4EO2; LC-ESI-Q; MS2; 30 V; [M+H]+
Name: Tricarboxyl-A4EO2
Name: 3-{[2-(carboxymethoxy)ethoxy]methyl}pentanedioic acid
Formula: C10H16O8
Exact mass: 264.0845
SMILES: OC(=O)COCCOCC(CC(=O)O)CC(=O)O
InChI: InChI=1S/C10H16O8/c11-8(12)3-7(4-9(13)14)5-17-1-2-18-6-10(15)16/h7H,1-6H2,(H,11,12)(H,13,14)(H,15,16)
Instrument: Fisons VG Platform
Instrument type: LC-ESI-Q
Ms type: MS2
Ion mode: POSITIVE
Ionization: ESI
Fragmentation mode: CID
Collision energy: 30 V
Base peak: 265.0918
Precursor m/z: 265.0918
Precursor type: [M+H]+
m/z	relative intensity	assigned
103	600	
109	200	
127	900	
145	999	
171	100	
229	50	
247	50	
265	200	C10H17O8+
287	150	C10H16O8Na+
303	50	C10H16O8K+
