Mass spectrum: 6phiC9SPC; LC-ESI-QTOF; MS2; 29 eV; [M-H]-
Name: 6phiC9SPC
Name: Propyl-(pentylcarboxy)-sulfophenyl carboxylic acid
Name: 6-(4-sulfophenyl)nonanoic acid
Formula: C15H22O5S
Exact mass: 314.1188
SMILES: OS(=O)(=O)c1ccc(cc1)C(CCC)CCCCC(=O)O
InChI: InChI=1S/C15H22O5S/c1-2-5-12(6-3-4-7-15(16)17)13-8-10-14(11-9-13)21(18,19)20/h8-12H,2-7H2,1H3,(H,16,17)(H,18,19,20)
Instrument: Waters QTof-Micro
Instrument type: LC-ESI-QTOF
Ms type: MS2
Ion mode: NEGATIVE
Ionization: ESI
Fragmentation mode: CID
Collision energy: 29 eV
Base peak: 313.1115
Precursor m/z: 313.1115
Precursor type: [M-H]-
m/z	relative intensity	assigned
80.9739	10	
170.0042	50	C7H7O3S-
183.0115	900	C8H7O3S-
197.0270	650	C9H9O3S-
198.0349	150	
239.0736	50	C12H15O3S-
313.1102	999	C15H21O5s-
314.1152	150	
315.1117	50	
