Mass spectrum: C7SPC; LC-ESI-TOF; MS2; 45 V; [M-H]-
Name: C7SPC
Name: C7-sulfophenyl carboxylates
Name: 4-(decan-4-yl)benzenesulfonic acid
Formula: C13H18O5S
Exact mass: 286.0875
SMILES: OS(=O)(=O)c1ccc(cc1)C(CCC)CCC(=O)O
InChI: InChI=1S/C13H18O5S/c1-2-3-10(6-9-13(14)15)11-4-7-12(8-5-11)19(16,17)18/h4-5,7-8,10H,2-3,6,9H2,1H3,(H,14,15)(H,16,17,18)
Instrument: LCT Micromass
Instrument type: LC-ESI-TOF
Ms type: MS2
Ion mode: NEGATIVE
Ionization: ESI
Fragmentation mode: CID
Collision energy: 45 V
Base peak: 285.0802
Precursor m/z: 285.0802
Precursor type: [M-H]-
m/z	relative intensity	assigned
183.0116	100	
225.0578	10	
236.1037	10	
285.0790	999	
286.0839	150	
307.0618	100	
308.0616	10	
