Mass spectrum: 1COOH-2But-A7EO2-OCH2COOH; LC-ESI-Q; MS2; 30 V; [M+H]+
Name: 1COOH-2But-A7EO2-OCH2COOH
Name: 1-Carboxyl-2-butyl-A7EO2-OCH2COOH
Name: 3-({2-[2-(carboxymethoxy)ethoxy]ethoxy}methyl)heptanoic acid
Formula: C14H26O7
Exact mass: 306.1679
SMILES: O=C(O)CC(CCCC)COCCOCCOCC(=O)O
InChI: InChI=1S/C14H26O7/c1-2-3-4-12(9-13(15)16)10-20-7-5-19-6-8-21-11-14(17)18/h12H,2-11H2,1H3,(H,15,16)(H,17,18)
Instrument: Fisons VG Platform
Instrument type: LC-ESI-Q
Ms type: MS2
Ion mode: POSITIVE
Ionization: ESI
Fragmentation mode: CID
Collision energy: 30 V
Base peak: 307.1751
Precursor m/z: 307.1751
Precursor type: [M+H]+
m/z	relative intensity	assigned
103	999	
143	50	
147	200	
289	100	
307	50	C14H27O7+
329	100	C14H26O7Na+
