Mass spectrum: NPEOx-SO4; LC-APCI-Q; MS; [M+H]+
Name: NPEOx-SO4
Name: NPEO2-SO4
Name: Nonylphenyl polyethoxylate sulfate
Name: 2-{2-[4-(nonyl)]phenoxyethoxy]ethyl}hydrogensulfate
Formula: C19H32O6S
Exact mass: 388.1920
SMILES: O=S(=O)(O)OCCOCCOc1ccc(cc1)CCCCCCCCC
InChI: InChI=1S/C19H32O6S/c1-2-3-4-5-6-7-8-9-18-10-12-19(13-11-18)24-16-14-23-15-17-25-26(20,21)22/h10-13H,2-9,14-17H2,1H3,(H,20,21,22)
Instrument: VG Platform
Instrument type: LC-APCI-Q
Ms type: MS
Ion mode: POSITIVE
Ionization: APCI
m/z	relative intensity
305	999
387	50
431	350
475	300
519	200
563	100
607	50
