Mass spectrum: C14EOx; LC-APCI-Q; MS; [M+H]+
Name: C14EOx
Name: C14EO2
Name: C14-alcohol polyethoxylate
Name: C14AEO2
Name: 2-(2-(2-(Tetradecyloxy)ethoxy)ethoxy)ethanol
Formula: C20H42O4
Exact mass: 346.3083
SMILES: OCCOCCOCCOCCCCCCCCCCCCCC
InChI: InChI=1S/C20H42O4/c1-2-3-4-5-6-7-8-9-10-11-12-13-15-22-17-19-24-20-18-23-16-14-21/h21H,2-20H2,1H3
Instrument: VG Platform
Instrument type: LC-APCI-Q
Ms type: MS
Ion mode: POSITIVE
Ionization: APCI
m/z	relative intensity
90	999
133	550
151	250
177	150
195	200
239	100
285	50
347	100
391	200
435	150
479	150
523	50
567	50
