Mass spectrum: C13DEA; LC-APCI-Q; MS; [M+H]+
Name: C13DEA
Name: C13-coconut fatty acid diethanolamide
Name: N,N-Bis(2-hydroxyethyl)tetradecanamide
Formula: C18H37NO3
Exact mass: 315.2773
SMILES: O=C(CCCCCCCCCCCCC)N(CCO)CCO
InChI: InChI=1S/C18H37NO3/c1-2-3-4-5-6-7-8-9-10-11-12-13-18(22)19(14-16-20)15-17-21/h20-21H,2-17H2,1H3
Instrument: VG Platform
Instrument type: LC-APCI-Q
Ms type: MS
Ion mode: POSITIVE
Ionization: APCI
m/z	relative intensity
88	300
106	999
255	200
298	850
316	500
