Mass spectrum: NPEC1; LC-ESI-TOF; MS2; 45 V; [M-H]-
Name: NPEC1
Name: Nonylphenyl-monoethoxylate-carboxylic acid
Name: (4-nonylphenoxy)acetic acid
Formula: C17H26O3
Exact mass: 278.1882
SMILES: O=C(O)COc1ccc(cc1)CCCCCCCCC
InChI: InChI=1S/C17H26O3/c1-2-3-4-5-6-7-8-9-15-10-12-16(13-11-15)20-14-17(18)19/h10-13H,2-9,14H2,1H3,(H,18,19)
Instrument: LCT Micromass
Instrument type: LC-ESI-TOF
Ms type: MS2
Ion mode: NEGATIVE
Ionization: ESI
Fragmentation mode: CID
Collision energy: 45 V
Base peak: 277.1809
Precursor m/z: 277.1809
Precursor type: [M-H]-
m/z	relative intensity	assigned
112.9889	10	
219.1749	999	C15H23O-
220.1773	200	
236.1024	50	
277.1735	10	C17H25O3-
