Mass spectrum: C8-SPC; ESI-ITFT; MS2; 30 V; [M-H]-
Name: C8-SPC
Name: C8-Sulfophenyl carboxylic acid
Name: 4-(4-sulfophenyl)octanoic acid
Formula: C14H20O5S
Exact mass: 300.1031
SMILES: OS(=O)(=O)c1ccc(cc1)C(CCC(=O)O)CCCC
InChI: InChI=1S/C14H20O5S/c1-2-3-4-11(7-10-14(15)16)12-5-8-13(9-6-12)20(17,18)19/h5-6,8-9,11H,2-4,7,10H2,1H3,(H,15,16)(H,17,18,19)
Instrument: Bruker Apex QE 12T FT-ICR
Instrument type: ESI-ITFT
Ms type: MS2
Ion mode: NEGATIVE
Ionization: ESI
Fragmentation mode: CID
Collision energy: 30 V (ramped)
Base peak: 299.09651
Precursor m/z: 299.09651
Precursor type: [M-H]-
m/z	relative intensity	assigned
183.01209	500	C8H7O3S-
197.02774	200	C9H9O3S-
267.06968	999	C13H15O4S-
299.09651	999	C14H19O5S-
