Mass spectrum: C15DEA; LC-APCI-Q; MS; [M+H]+
Name: C15DEA
Name: C15-coconut fatty acid diethanolamide
Name: N,N-Bis(2-hydroxyethyl)palmitamide
Formula: C20H41NO3
Exact mass: 343.3087
SMILES: O=C(CCCCCCCCCCCCCCC)N(CCO)CCO
InChI: InChI=1S/C20H41NO3/c1-2-3-4-5-6-7-8-9-10-11-12-13-14-15-20(24)21(16-18-22)17-19-23/h22-23H,2-19H2,1H3
Instrument: VG Platform
Instrument type: LC-APCI-Q
Ms type: MS
Ion mode: POSITIVE
Ionization: APCI
m/z	relative intensity
88	250
106	800
282	250
326	999
344	750
