Mass spectrum: C18EOx; LC-APCI-Q; MS; [M+H]+
Name: C18EOx
Name: C18EO2
Name: C18-alcohol polyethoxylate
Name: C18AEO2
Name: 2-{2-[2-(Octadecyloxy)ethoxy]ethoxy}ethanol
Formula: C24H50O4
Exact mass: 402.3709
SMILES: OCCOCCOCCOCCCCCCCCCCCCCCCCCC
InChI: InChI=1S/C24H50O4/c1-2-3-4-5-6-7-8-9-10-11-12-13-14-15-16-17-19-26-21-23-28-24-22-27-20-18-25/h25H,2-24H2,1H3
Instrument: VG Platform
Instrument type: LC-APCI-Q
Ms type: MS
Ion mode: POSITIVE
Ionization: APCI
m/z	relative intensity
90	999
133	600
151	350
177	150
195	300
239	100
403	100
447	200
491	250
535	200
580	150
624	50
