Mass spectrum: CA8PE2C; LC-ESI-Q; MS2; 40 V; [M+H]+
Name: CA8PE2C
Formula: C21H32O6
Exact mass: 380.2199
SMILES: O=C(OC)CCCCCCCCc1ccc(OCCOCC(=O)OC)cc1
InChI: InChI=1S/C21H32O6/c1-24-20(22)10-8-6-4-3-5-7-9-18-11-13-19(14-12-18)27-16-15-26-17-21(23)25-2/h11-14H,3-10,15-17H2,1-2H3
Instrument: Fisons VG Platform
Instrument type: LC-ESI-Q
Ms type: MS2
Ion mode: POSITIVE
Ionization: ESI
Fragmentation mode: CID
Collision energy: 40 V
Base peak: 381.2272
Precursor m/z: 381.2272
Precursor type: [M+H]+
m/z	relative intensity	assigned
55	50	
59	50	
69	100	
83	50	
97	650	
98	50	
111	200	
117	400	
121	100	
139	999	
140	150	
151	150	
171	999	
172	100	
211	150	
349	250	
350	50	
361	100	
