Mass spectrum: C10LAS; LC-ESI-TOF; MS2; 45 V; [M-H]-
Name: C10LAS
Name: C10-linear alkylbenzyl sulfonate
Name: 4-(decan-4-yl)benzenesulfonic acid
Formula: C16H26O3S
Exact mass: 298.1603
SMILES: OS(=O)(=O)c1ccc(cc1)C(CCC)CCCCCC
InChI: InChI=1S/C16H26O3S/c1-3-5-6-7-9-14(8-4-2)15-10-12-16(13-11-15)20(17,18)19/h10-14H,3-9H2,1-2H3,(H,17,18,19)
Instrument: LCT Micromass
Instrument type: LC-ESI-TOF
Ms type: MS2
Ion mode: NEGATIVE
Ionization: ESI
Fragmentation mode: CID
Collision energy: 45 V
Base peak: 297.1530
Precursor m/z: 297.1530
Precursor type: [M-H]-
m/z	relative intensity	assigned
183.0111	50	C8H7O3S-
236.1044	100	
249.1526	10	
297.1525	999	C16H25O3S-
298.1580	150	
299.1499	50	
