Mass spectrum: CA5PE2C; LC-ESI-Q; MS2; 40 V; [M+H]+
Name: CA5PE2C
Name: 7-{4-[2-(carboxymethoxy)ethoxy]phenyl}heptanoic acid
Formula: C17H24O6
Exact mass: 324.1573
SMILES: O=C(O)CCCCCCc1ccc(OCCOCC(=O)O)cc1
InChI: InChI=1S/C17H24O6/c18-16(19)6-4-2-1-3-5-14-7-9-15(10-8-14)23-12-11-22-13-17(20)21/h7-10H,1-6,11-13H2,(H,18,19)(H,20,21)
Instrument: Fisons VG Platform
Instrument type: LC-ESI-Q
Ms type: MS2
Ion mode: POSITIVE
Ionization: ESI
Fragmentation mode: CID
Collision energy: 40 V
Base peak: 325.1646
Precursor m/z: 325.1646
Precursor type: [M+H]+
m/z	relative intensity	assigned
55	50	
69	150	
83	200	
103	200	
111	150	
121	200	
129	300	
147	150	
177	350	
187	100	
205	50	
223	600	
224	50	
261	650	
262	100	
307	999	
308	200	
325	150	C17H25O6+
347	350	
