Mass spectrum: CA6PE2; LC-ESI-Q; MS2; 40 V; [M+H]+
Name: CA6PE2
Formula: C18H28O5
Exact mass: 324.1937
SMILES: O=C(OC)CCCCCCc1ccc(OCCOCCO)cc1
InChI: InChI=1S/C18H28O5/c1-21-18(20)7-5-3-2-4-6-16-8-10-17(11-9-16)23-15-14-22-13-12-19/h8-11,19H,2-7,12-15H2,1H3
Instrument: Fisons VG Platform
Instrument type: LC-ESI-Q
Ms type: MS2
Ion mode: POSITIVE
Ionization: ESI
Fragmentation mode: CID
Collision energy: 40 V
Base peak: 325.2010
Precursor m/z: 325.2010
Precursor type: [M+H]+
m/z	relative intensity	assigned
45	150	
55	100	
69	200	
83	999	
89	100	
111	600	
121	150	
143	700	
147	200	
165	100	
209	600	
210	100	
231	100	
249	50	
293	250	
325	100	C18H29O5+
