Mass spectrum: CA6PE2C; LC-ESI-Q; MS2; 40 V; [M+H]+
Name: CA6PE2C
Formula: C19H28O6
Exact mass: 352.1886
SMILES: O=C(OC)CCCCCCc1ccc(OCCOCC(=O)OC)cc1
InChI: InChI=1S/C19H28O6/c1-22-18(20)8-6-4-3-5-7-16-9-11-17(12-10-16)25-14-13-24-15-19(21)23-2/h9-12H,3-8,13-15H2,1-2H3
Instrument: Fisons VG Platform
Instrument type: LC-ESI-Q
Ms type: MS2
Ion mode: POSITIVE
Ionization: ESI
Fragmentation mode: CID
Collision energy: 40 V
Base peak: 353.1959
Precursor m/z: 353.1959
Precursor type: [M+H]+
m/z	relative intensity	assigned
55	50	
59	150	
69	200	
83	850	
84	50	
111	650	
117	350	
121	50	
143	999	
144	100	
151	50	
177	100	
211	50	
231	50	
237	100	
261	300	
262	50	
321	200	
322	50	
353	250	C19H29O6+
