Mass spectrum: NPEOx; LC-APCI-Q; MS; [M+H]+
Name: NPEOx
Name: Nonylphenol polyethoxylates
Name: 2-(2-(4-Nonylphenoxy)ethoxy)ethanol (example)
Formula: C19H32O3
Exact mass: 308.2351
SMILES: CCCCCCCCCc1ccc(OCCOCCO)cc1
InChI: InChI=1S/C19H32O3/c1-2-3-4-5-6-7-8-9-18-10-12-19(13-11-18)22-17-16-21-15-14-20/h10-13,20H,2-9,14-17H2,1H3
Instrument: VG Platform
Instrument type: LC-APCI-Q
Ms type: MS
Ion mode: POSITIVE
Ionization: APCI
m/z	relative intensity	assigned
133	999	C10H13+
177	330	
227	250	
271	500	
291	500	
397	200	
441	400	
485	700	
529	750	
573	700	
617	400	
662	350	
706	300	
750	150	
794	100	
