Mass spectrum: diMe-SPA6DC; LC-ESI-Q; MS2; 55 V; [M-H]-
Name: diMe-SPA6DC
Name: Sulfophenyl alkyl dicarboxylic acid, dimethyl ester
Name: 4-(1,8-dimethoxy-1,8-dioxooctan-3-yl)benzenesulfonic acid
Formula: C16H22O7S
Exact mass: 358.1086
SMILES: OS(=O)(=O)c1ccc(cc1)C(CC(=O)OC)CCCCC(=O)OC
InChI: InChI=1S/C16H22O7S/c1-22-15(17)6-4-3-5-13(11-16(18)23-2)12-7-9-14(10-8-12)24(19,20)21/h7-10,13H,3-6,11H2,1-2H3,(H,19,20,21)
Instrument: Fisons VG Platform
Instrument type: LC-ESI-Q
Ms type: MS2
Ion mode: NEGATIVE
Ionization: ESI
Fragmentation mode: CID
Collision energy: 55 V
Base peak: 357.1013
Precursor m/z: 357.1013
Precursor type: [M-H]-
m/z	relative intensity	assigned
80	150	HO3S-
183	999	C8H7O3S-
184	500	C8H8O3S-
285	150	C13H17O5S-
357	100	
