Mass spectrum: 1COOH-2But-A7EO1-OCH2COOH; LC-ESI-Q; MS2; 30 V; [M+H]+
Name: 1COOH-2But-A7EO1-OCH2COOH
Name: 1-Carboxyl-2-butyl-A7EO1-OCH2COOH
Name: 3-{[2-(carboxymethoxy)ethoxy]methyl}heptanoic acid
Formula: C12H22O6
Exact mass: 262.1416
SMILES: OC(=O)COCCOCC(CC(=O)O)CCCC
InChI: InChI=1S/C12H22O6/c1-2-3-4-10(7-11(13)14)8-17-5-6-18-9-12(15)16/h10H,2-9H2,1H3,(H,13,14)(H,15,16)
Instrument: Fisons VG Platform
Instrument type: LC-ESI-Q
Ms type: MS2
Ion mode: POSITIVE
Ionization: ESI
Fragmentation mode: CID
Collision energy: 30 V
Base peak: 263.1489
Precursor m/z: 263.1489
Precursor type: [M+H]+
m/z	relative intensity	assigned
55	100	
69	100	
83	250	
97	200	
103	300	
125	300	
143	999	
245	250	
263	50	C12H23O6+
285	50	C12H22O6Na+
