Mass spectrum: 1COOH-2But-A7EO1; LC-ESI-Q; MS2; 30 V; [M+H]+
Name: 1COOH-2But-A7EO1
Name: 1-Carboxyl-2-butyl-A7EO1
Name: 3-[(2-hydroxyethoxy)methyl]heptanoic acid
Formula: C10H20O4
Exact mass: 204.1362
SMILES: OCCOCC(CCCC)CC(=O)O
InChI: InChI=1S/C10H20O4/c1-2-3-4-9(7-10(12)13)8-14-6-5-11/h9,11H,2-8H2,1H3,(H,12,13)
Instrument: Fisons VG Platform
Instrument type: LC-ESI-Q
Ms type: MS2
Ion mode: POSITIVE
Ionization: ESI
Fragmentation mode: CID
Collision energy: 30 V
Base peak: 205.1434
Precursor m/z: 205.1434
Precursor type: [M+H]+
m/z	relative intensity	assigned
45	100	CHO2+
55	250	
69	100	
83	999	
97	950	
101	300	
125	800	
143	850	C8H15O2+
187	450	
205	50	C12H25O5+
227	150	C12H24O5Na+
