Mass spectrum: diMe-STA2DC; LC-ESI-Q; MS2; 55 V; [M-H]-
Name: diMe-STA2DC
Name: Sulfotetralin alkyl dicarboxylic acid, dimethyl ester
Name: 5-(methoxycarbonyl)-8-(3-methoxy-3-oxopropyl)-5,6,7,8-tetrahydronaphthalene-2-sulfonic acid
Formula: C16H20O7S
Exact mass: 356.09297
SMILES: O=S(=O)(O)c1ccc2c(c1)C(CCC2C(=O)OC)CCC(=O)OC
InChI: InChI=1S/C16H20O7S/c1-22-15(17)8-4-10-3-6-13(16(18)23-2)12-7-5-11(9-14(10)12)24(19,20)21/h5,7,9-10,13H,3-4,6,8H2,1-2H3,(H,19,20,21)
Instrument: Fisons VG Platform
Instrument type: LC-ESI-Q
Ms type: MS2
Ion mode: NEGATIVE
Ionization: ESI
Fragmentation mode: CID
Collision energy: 55 V
Base peak: 355.0857
Precursor m/z: 355.0857
Precursor type: [M-H]-
m/z	relative intensity	assigned
80	999	HO3S-
95	200	
195	150	
197	350	C9H9O3S-
209	700	C10H9O3S-
223	200	C11H11O3S-
267	150	C12H11O5S-
297	350	C14H17O5S-
355	250	C16H19O7S-
