Mass spectrum: Dicarboxyl-2But-A6EO4; LC-ESI-Q; MS2; 30 V; [M+H]+
Name: Dicarboxyl-2But-A6EO4
Name: Dicarboxyl-2Butyl-A6EO4
Formula: C16H30O9
Exact mass: 366.1890
SMILES: O=C(O)CC(COCCOCCOCCOCCO)CCCC(=O)O
InChI: InChI=1S/C16H30O9/c17-4-5-22-6-7-23-8-9-24-10-11-25-13-14(12-16(20)21)2-1-3-15(18)19/h14,17H,1-13H2,(H,18,19)(H,20,21)
Instrument: Fisons VG Platform
Instrument type: LC-ESI-Q
Ms type: MS2
Ion mode: POSITIVE
Ionization: ESI
Fragmentation mode: CID
Collision energy: 30 V
Base peak: 367.1963
Precursor m/z: 367.1963
Precursor type: [M+H]+
m/z	relative intensity	assigned
45	200	
89	750	
133	750	
177	999	
199	600	
243	150	
331	100	
349	700	
367	900	C16H31O9+
389	150	C16H30O9Na+
405	50	C16H30O9K+
