Mass spectrum: 1COOH-2But-A7EO3; LC-ESI-Q; MS2; 30 V; [M+H]+
Name: 1COOH-2But-A7EO3
Name: 1-Carboxyl-2-butyl-A7EO3
Name: 3-({2-[2-(2-hydroxyethoxy)ethoxy]ethoxy}methyl)heptanoic acid
Formula: C14H28O6
Exact mass: 292.1886
SMILES: OCCOCCOCCOCC(CC(=O)O)CCCC
InChI: InChI=1S/C14H28O6/c1-2-3-4-13(11-14(16)17)12-20-10-9-19-8-7-18-6-5-15/h13,15H,2-12H2,1H3,(H,16,17)
Instrument: Fisons VG Platform
Instrument type: LC-ESI-Q
Ms type: MS2
Ion mode: POSITIVE
Ionization: ESI
Fragmentation mode: CID
Collision energy: 30 V
Base peak: 293.1959
Precursor m/z: 293.1959
Precursor type: [M+H]+
m/z	relative intensity	assigned
45	350	CHO2+
89	999	C4H9O2+
125	50	
133	950	C6H13O3+
143	100	
169	100	
275	500	C14H27O5+
293	150	C14H29O6+
315	150	C14H28O6Na+
331	50	C14H28O6K+
