Mass spectrum: A9PE2C; LC-ESI-Q; MS2; 40 V; [M+H]+
Name: A9PE2C
Name: NPEO1-OCH2COOCH3
Name: Nonylphenyl-ethoxylate-OCH2COOCH3
Formula: C20H32O4
Exact mass: 336.2300
SMILES: O=C(OC)COCCOc1ccc(cc1)CCCCCCCCC
InChI: InChI=1S/C20H32O4/c1-3-4-5-6-7-8-9-10-18-11-13-19(14-12-18)24-16-15-23-17-20(21)22-2/h11-14H,3-10,15-17H2,1-2H3
Instrument: Fisons VG Platform
Instrument type: LC-ESI-Q
Ms type: MS2
Ion mode: POSITIVE
Ionization: ESI
Fragmentation mode: CID
Collision energy: 40 V
Base peak: 337.2373
Precursor m/z: 337.2373
Precursor type: [M+H]+
m/z	relative intensity	assigned
57	500	
59	100	
71	999	
73	50	
85	500	
87	50	
116	50	
117	850	
121	100	
127	300	
128	50	
151	200	
165	50	
211	600	
212	100	
255	50	
337	50	C20H33O4+
359	350	C20H32O4Na+
375	150	C20H32O4K+
