Mass spectrum: 1COOH-2But-A7-OCH2COOH; LC-ESI-Q; MS2; 30 V; [M+H]+
Name: 1COOH-2But-A7-OCH2COOH
Name: 1-Carboxyl-2-butyl-A7-OCH2COOH
Name: 3-{[2-(carboxymethoxy)ethoxy]methyl}heptanoic acid
Formula: C10H18O5
Exact mass: 218.1154
SMILES: CCCCC(COCC(=O)O)CC(=O)O
InChI: InChI=1S/C10H18O5/c1-2-3-4-8(5-9(11)12)6-15-7-10(13)14/h8H,2-7H2,1H3,(H,11,12)(H,13,14)
Instrument: Fisons VG Platform
Instrument type: LC-ESI-Q
Ms type: MS2
Ion mode: POSITIVE
Ionization: ESI
Fragmentation mode: CID
Collision energy: 30 V
Base peak: 219.1227
Precursor m/z: 219.1227
Precursor type: [M+H]+
m/z	relative intensity	assigned
55	400	
69	50	
83	350	
97	999	
125	500	
143	50	
201	250	
219	50	C10H19O5+
241	250	C10H18O5Na+
257	50	C10H18O5K+
