Mass spectrum: C7DEA; LC-APCI-Q; MS; [M+H]+
Name: C7DEA
Name: C7-coconut fatty acid diethanolamide
Name: N,N-Bis(2-hydroxyethyl)octanamide
Formula: C12H25NO3
Exact mass: 231.1834
SMILES: O=C(CCCCCCC)N(CCO)CCO
InChI: InChI=1S/C12H25NO3/c1-2-3-4-5-6-7-12(16)13(8-10-14)9-11-15/h14-15H,2-11H2,1H3
Instrument: VG Platform
Instrument type: LC-APCI-Q
Ms type: MS
Ion mode: POSITIVE
Ionization: APCI
m/z	relative intensity
88	550
106	999
127	50
171	250
214	500
232	500
