Mass spectrum: 4MeC13SPC; LC-ESI-QTOF; MS2; 29 eV; [M-H]-
Name: 4MeC13SPC
Name: 4-Methyl-C13-sulfophenyl carboxylic acid
Name: 4-methyl-11-(4-sulfophenyl)tridecanoic acid
Formula: C20H32O5S
Exact mass: 384.1970
SMILES: OS(=O)(=O)c1ccc(cc1)C(CC)CCCCCCC(C)CCC(=O)O
InChI: InChI=1S/C20H32O5S/c1-3-17(18-11-13-19(14-12-18)26(23,24)25)9-7-5-4-6-8-16(2)10-15-20(21)22/h11-14,16-17H,3-10,15H2,1-2H3,(H,21,22)(H,23,24,25)
Instrument: Waters QTof-Micro
Instrument type: LC-ESI-QTOF
Ms type: MS2
Ion mode: NEGATIVE
Ionization: ESI
Fragmentation mode: CID
Collision energy: 29 eV
Base peak: 383.1898
Precursor m/z: 383.1898
Precursor type: [M-H]-
m/z	relative intensity	assigned
170.0020	50	C7H7O3S-
183.0115	900	C8H7O3S-
184.0202	100	
253.1002	100	C13H17O3S-
267.1034	50	
365.1848	100	
383.1887	999	C20H31O5S-
384.1974	250	
