Mass spectrum: C17DEA; LC-APCI-Q; MS; [M+H]+
Name: C17DEA
Name: C17-coconut fatty acid diethanolamides
Name: N,N-Bis(2-hydroxyethyl)octadecanamide
Formula: C22H45NO3
Exact mass: 371.3399
SMILES: O=C(CCCCCCCCCCCCCCCCC)N(CCO)CCO
InChI: InChI=1S/C22H45NO3/c1-2-3-4-5-6-7-8-9-10-11-12-13-14-15-16-17-22(26)23(18-20-24)19-21-25/h24-25H,2-21H2,1H3
Instrument: VG Platform
Instrument type: LC-APCI-Q
Ms type: MS
Ion mode: POSITIVE
Ionization: APCI
m/z	relative intensity
88	200
106	999
153	100
270	100
310	150
336	50
354	850
372	550
