Mass spectrum: 1COOH-2But-A7EO2; LC-ESI-Q; MS2; 30 V; [M+H]+
Name: 1COOH-2But-A7EO2
Name: 1-Carboxyl-2-butyl-A7EO2
Name: 3-{[2-(2-hydroxyethoxy)ethoxy]methyl}heptanoic acid
Formula: C12H24O5
Exact mass: 248.1624
SMILES: O=C(O)CC(CCCC)COCCOCCO
InChI: InChI=1S/C12H24O5/c1-2-3-4-11(9-12(14)15)10-17-8-7-16-6-5-13/h11,13H,2-10H2,1H3,(H,14,15)
Instrument: Fisons VG Platform
Instrument type: LC-ESI-Q
Ms type: MS2
Ion mode: POSITIVE
Ionization: ESI
Fragmentation mode: CID
Collision energy: 30 V
Base peak: 249.1697
Precursor m/z: 249.1697
Precursor type: [M+H]+
m/z	relative intensity	assigned
45	900	CHO2+
55	200	
69	100	
83	350	
89	999	C4H9O2+
97	999	
101	50	
125	700	
143	500	C8H15O2+
169	50	
231	450	
249	50	C12H25O5+
271	150	C12H24O5Na+
287	50	
