Mass spectrum: 8phiC9SPC; LC-ESI-QTOF; MS2; 29 eV; [M-H]-
Name: 8phiC9SPC
Name: Methyl-(septylcarboxy)-sulfophenyl carboxylic acid
Name: 8-(4-sulfophenyl)nonanoic acid
Formula: C15H22O5S
Exact mass: 314.1188
SMILES: OS(=O)(=O)c1ccc(cc1)C(C)CCCCCCC(=O)O
InChI: InChI=1S/C15H22O5S/c1-12(6-4-2-3-5-7-15(16)17)13-8-10-14(11-9-13)21(18,19)20/h8-12H,2-7H2,1H3,(H,16,17)(H,18,19,20)
Instrument: Waters QTof-Micro
Instrument type: LC-ESI-QTOF
Ms type: MS2
Ion mode: NEGATIVE
Ionization: ESI
Fragmentation mode: CID
Collision energy: 29 eV
Base peak: 313.1115
Precursor m/z: 313.1115
Precursor type: [M-H]-
m/z	relative intensity	assigned
80.9689	10	
170.0022	100	
183.0115	999	C8H7O3S-
184.0167	100	
253.0904	100	C13H17O3S-
313.1106	450	C15H21O5s-
314.1148	100	
