Mass spectrum: C16EOx; LC-APCI-Q; MS; [M+H]+
Name: C16EOx
Name: C16EO2
Name: C16-alcohol polyethoxylate
Name: C16AEO2
Name: 2-[2-(2-hexadecoxyethoxy)ethoxy]ethanol
Formula: C22H46O4
Exact mass: 374.3396
SMILES: OCCOCCOCCOCCCCCCCCCCCCCCCC
InChI: InChI=1S/C22H46O4/c1-2-3-4-5-6-7-8-9-10-11-12-13-14-15-17-24-19-21-26-22-20-25-18-16-23/h23H,2-22H2,1H3
Instrument: VG Platform
Instrument type: LC-APCI-Q
Ms type: MS
Ion mode: POSITIVE
Ionization: APCI
m/z	relative intensity
90	999
133	600
151	350
177	150
195	200
239	100
375	50
419	150
463	200
507	150
551	100
596	50
