Mass spectrum: Me-STA3C; LC-ESI-Q; MS2; 55 V; [M-H]-
Name: Me-STA3C
Name: Sulfotetralin alkyl carboxylic acid, methyl ester
Name: 5-ethyl-8-(2-methoxy-2-oxoethyl)-5,6,7,8-tetrahydronaphthalene-2-sulfonic acid
Formula: C15H20O5S
Exact mass: 312.1031
SMILES: O=S(=O)(O)c1ccc2c(c1)C(CCC2CC)CC(=O)OC
InChI: InChI=1S/C15H20O5S/c1-3-10-4-5-11(8-15(16)20-2)14-9-12(21(17,18)19)6-7-13(10)14/h6-7,9-11H,3-5,8H2,1-2H3,(H,17,18,19)
Instrument: Fisons VG Platform
Instrument type: LC-ESI-Q
Ms type: MS2
Ion mode: NEGATIVE
Ionization: ESI
Fragmentation mode: CID
Collision energy: 55 V
Base peak: 311.0959
Precursor m/z: 311.0959
Precursor type: [M-H]-
m/z	relative intensity	assigned
79	50	O3S-
196	100	C9H8O3S-
209	200	C10H9O3S-
223	700	C11H11O3S-
224	400	
237	200	C12H13O3S-
311	999	C15H19O5S-
