Mass spectrum: C12-LAS; ESI-ITFT; MS2; 30 V; [M-H]-
Name: C12-LAS
Name: C12-linear alkyl benzene sulfonate
Name: 4-(4-Dodecanyl)benzenesulfonate
Formula: C18H30O3S
Exact mass: 326.1916
SMILES: OS(=O)(=O)c1ccc(cc1)C(CCC)CCCCCCCC
InChI: InChI=1S/C18H30O3S/c1-3-5-6-7-8-9-11-16(10-4-2)17-12-14-18(15-13-17)22(19,20)21/h12-16H,3-11H2,1-2H3,(H,19,20,21)
Instrument: Bruker Apex QE 12T FT-ICR
Instrument type: ESI-ITFT
Ms type: MS2
Ion mode: NEGATIVE
Ionization: ESI
Fragmentation mode: CID
Collision energy: 30 V (ramped)
Base peak: 325.14794
Precursor m/z: 325.14794
Precursor type: [M-H]-
m/z	relative intensity	assigned
183.01209	500	C8H7O3S-
325.14794	999	C17H25O4S-
