Mass spectrum: Saikosaponin D; LC-ESI-ITTOF; MS2; [M-H]-
Name: Saikosaponin D
Name: (3beta,4alpha,16alpha)-13,28-Epoxy-16,23-dihydroxyolean-11-en-3-yl 6-deoxy-3-O-beta-D-glucopyranosyl-beta-D-galactopyranoside
Class: Natural Product; Saponin
Formula: C42H68O13
Exact mass: 780.46599
SMILES: C(C([H])54)(C1)(C)C([H])(CCC4(C(C7)(C(O8)(C(C(C8)6C(O)7)(CC(CC6)(C)C)[H])C=C5)C)C)C(C(OC(O3)([H])C(C(C(C3C)O)OC(C(O)2)(OC(C(C2O)O)CO)[H])O)C1)(C)CO
InChI: InChI=1S/C42H68O13/c1-21-28(46)33(55-34-31(49)30(48)29(47)22(18-43)53-34)32(50)35(52-21)54-27-10-11-37(4)23(38(27,5)19-44)8-12-39(6)24(37)9-13-42-25-16-36(2,3)14-15-41(25,20-51-42)26(45)17-40(39,42)7/h9,13,21-35,43-50H,8,10-12,14-20H2,1-7H3/t21-,22-,23-,24-,25-,26-,27+,28+,29-,30+,31-,32-,33+,34+,35+,37+,38+,39-,40+,41-,42+/m1/s1
Instrument: LCMS-IT-TOF
Instrument type: LC-ESI-ITTOF
Ms type: MS2
Ion mode: NEGATIVE
Column name: Waters Atlantis T3 (2.1 x 150 mm, 5 um)
Retention time: 21.972083 min
Base peak: 617.400600
Precursor m/z: 779.458400
m/z	relative intensity
423.318000	5
439.322700	90
440.330400	27
441.319000	7
451.327300	11
452.307700	7
471.346700	96
472.348600	52
473.351600	7
541.365200	32
542.349400	16
617.400600	999
617.639400	14
617.830500	21
618.164900	14
618.403900	563
618.905800	11
619.192700	6
619.407900	183
620.412800	34
621.442500	10
