Mass spectrum: Ginsenoside Rc; LC-ESI-ITTOF; MS2; [M-H]-
Name: Ginsenoside Rc
Name: (3beta,12beta)-20-[(6-O-alpha-L-Arabinofuranosyl-beta-D-glucopyranosyl)oxy]-12-hydroxydammar-24-en-3-yl 2-O-beta-D-glucopyranosyl-beta-D-glucopyranoside
Name: Dammarane,beta-D-glucopyranoside deriv.
Name: Panaxoside Rc
Class: Natural Product; Saponin
Formula: C53H90O22
Exact mass: 1078.59237
SMILES: C(C8)(C(C(C)3C(C([H])78)(CCC(C74C)([H])C(C)(C)C(OC([H])(C5OC([H])(O6)C(C(C(O)C(CO)6)O)O)OC(C(O)C5O)CO)CC4)C)(C(CC3)([H])C(CCC=C(C)C)(OC(O1)C(C(O)C(C1COC(C(O)2)OC(CO)C2O)O)O)C)[H])O
InChI: InChI=1S/C53H90O22/c1-23(2)10-9-14-53(8,75-47-43(67)39(63)37(61)29(72-47)22-68-45-41(65)36(60)28(21-56)69-45)24-11-16-52(7)33(24)25(57)18-31-50(5)15-13-32(49(3,4)30(50)12-17-51(31,52)6)73-48-44(40(64)35(59)27(20-55)71-48)74-46-42(66)38(62)34(58)26(19-54)70-46/h10,24-48,54-67H,9,11-22H2,1-8H3/t24-,25+,26+,27+,28-,29+,30-,31+,32-,33-,34+,35+,36-,37+,38-,39-,40-,41+,42+,43+,44+,45+,46-,47-,48-,50-,51+,52+,53-/m0/s1
Instrument: LCMS-IT-TOF
Instrument type: LC-ESI-ITTOF
Ms type: MS2
Ion mode: NEGATIVE
Column name: Waters Atlantis T3 (2.1 x 150 mm, 5 um)
Retention time: 16.622100 min
Base peak: 783.485600
Precursor m/z: 1077.578900
m/z	relative intensity
357.274500	17
373.269900	55
375.296300	536
375.612900	17
376.283600	151
377.290900	31
441.359400	26
442.369300	17
443.340000	10
459.385900	709
459.756700	16
460.024600	9
460.375000	263
461.385900	51
537.348100	144
538.350900	54
603.416900	46
604.432400	26
605.425100	15
621.442500	773
621.873700	19
622.425000	303
623.432400	97
765.461200	231
766.471900	109
767.483200	34
783.485600	999
783.969800	24
784.481100	528
784.723400	17
785.477300	166
786.474100	48
915.530600	293
916.519500	165
917.538000	47
945.547100	896
946.079100	24
946.552100	450
947.528000	139
948.534000	24
958.623300	7
1169.480100	15
1318.471500	21
