Mass spectrum: Astragaloside IV; LC-ESI-ITTOF; MS2; [M+CH3COO]-
Name: Astragaloside IV
Name: (3beta,6alpha,16beta,20R,24S)-20,24-Epoxy-16,25-dihydroxy-3-(beta-D-xylopyranosyloxy)-9,19-cyclolanostan-6-yl beta-D-glucopyranoside
Name: 1H,19H-Cyclopropa[9,10]cyclopenta[a]phenanthrene beta-D-glucopyranoside deriv.
Name: 9,19-Cyclolanostane beta-D-glucopyranoside deriv.
Name: Astrasieversianin XIV
Name: Astraversianin XIV
Name: Cyclosieversioside F
Name: Cyclosiversioside F
Class: Natural Product; Saponin
Formula: C41H68O14
Exact mass: 784.46091
SMILES: [H]C(C(C)(C)7)(C(CCC7OC(O8)([H])C(O)C(C(O)C8)O)23)C(CC([H])(C(C)46)C(CCC(C(C(C6)O)([H])C(C5)(C)OC(C(C)(C)O)C5)4C)2C3)OC(C1O)([H])OC(CO)C(C1O)O
InChI: InChI=1S/C41H68O14/c1-35(2)24(54-33-29(48)26(45)20(44)17-51-33)9-11-41-18-40(41)13-12-37(5)31(39(7)10-8-25(55-39)36(3,4)50)19(43)15-38(37,6)23(40)14-21(32(35)41)52-34-30(49)28(47)27(46)22(16-42)53-34/h19-34,42-50H,8-18H2,1-7H3/t19-,20+,21-,22+,23-,24-,25-,26-,27+,28-,29+,30+,31-,32-,33-,34+,37+,38-,39+,40-,41+/m0/s1
Instrument: LCMS-IT-TOF
Instrument type: LC-ESI-ITTOF
Ms type: MS2
Ion mode: NEGATIVE
Column name: Waters Atlantis T3 (2.1 x 150 mm, 5 um)
Retention time: 17.972050 min
Base peak: 783.458700
Precursor m/z: 843.469400
Precursor type: [M+CH3COO]-
m/z	relative intensity
104.352700	5
117.493600	5
132.838400	5
156.404800	5
172.102600	5
175.103300	6
182.854800	5
206.108400	5
209.822200	5
223.383200	5
231.878700	5
253.719300	6
255.682300	5
256.497300	5
263.859600	5
267.493400	8
283.699400	5
295.819600	5
300.648700	5
304.258400	5
318.226700	5
327.342100	5
332.789000	5
366.266800	5
367.242100	5
369.067500	5
377.533600	5
381.277000	6
383.287400	46
383.833100	6
384.303900	21
386.095600	5
393.170600	5
395.288400	14
402.311800	5
402.523800	5
435.323800	6
451.490600	5
453.330100	14
461.220700	5
464.487200	5
471.346700	14
472.348600	11
473.309800	5
489.352900	254
489.799400	11
490.054600	10
490.352500	131
490.693000	5
491.353100	26
503.893100	5
513.189500	5
540.247800	5
544.544800	6
558.809200	5
573.626200	5
603.416900	9
613.895600	5
621.394600	27
622.401100	23
653.416700	6
655.137300	5
669.430800	5
670.176900	5
695.411100	5
704.028200	5
769.747700	5
773.591700	5
774.233300	6
781.657600	5
783.458700	999
783.700800	24
783.942900	24
784.454200	518
784.965700	15
785.450400	135
786.474100	37
786.905400	5
792.089500	5
866.597700	5
880.087100	5
891.986500	5
935.203700	6
935.585800	5
966.882600	5
977.910000	5
996.751600	5
1049.710700	5
1053.450100	5
1075.931700	5
1095.690500	5
1118.294700	5
1198.877000	5
1262.688400	5
1292.743000	5
1353.029200	5
1404.299400	5
1415.774000	6
1451.173600	5
1478.536800	5
