Mass spectrum: Dehydrocorydaline; LC-ESI-ITTOF; MS; [M]+
Name: Dehydrocorydaline
Name: 5,6-Dihydro-2,3,9,10-tetramethoxy-13-methyl-dibenzo[a,g]quinolizinium
Name: 7,8,13,13a-Tetradehydro-2,3,9,10-tetramethoxy-13-methyl-berbinium
Name: Dehydro-corydaline
Name: 13-Methylpalmatine
Class: Natural Product; Alkaloid
Formula: [C22H24NO4]+
Exact mass: 366.17053
SMILES: COc(c4)c(OC)cc(c34)c([n+1](CC3)2)c(C)c(c1)c(c2)c(OC)c(OC)c1
InChI: InChI=1S/C22H24NO4/c1-13-15-6-7-18(24-2)22(27-5)17(15)12-23-9-8-14-10-19(25-3)20(26-4)11-16(14)21(13)23/h6-7,10-12H,8-9H2,1-5H3/q+1
Instrument: LCMS-IT-TOF
Instrument type: LC-ESI-ITTOF
Ms type: MS
Ion mode: POSITIVE
Column name: Waters Atlantis T3 (2.1 x 150 mm, 5 um)
Retention time: 17.776667 min
Base peak: 366.171800
m/z	relative intensity
292.091800	11
306.100800	4
308.121700	16
320.094000	5
321.092000	6
322.143200	12
334.136500	8
335.103300	6
336.124400	15
337.129300	4
350.132700	47
351.140400	53
352.149500	8
366.171800	999
366.337400	17
366.502900	21
366.760500	13
367.165500	260
368.178900	42
380.168100	10
412.160900	6
