Mass spectrum: Saikosaponin C; LC-ESI-ITTOF; MS2; [M-H]-
Name: Saikosaponin C
Name: (3beta,16beta)-13,28-Epoxy-16-hydroxyolean-11-en-3-yl O-6-deoxy-alpha-L-mannopyranosyl-(1-4)-O-[beta-D-glucopyranosyl-(1-6)]-beta-D-glucopyranoside
Name: Oleanane beta-D-glucopyranoside deriv.
Class: Natural Product; Saponin
Formula: C48H78O17
Exact mass: 926.52390
SMILES: C(C)(C([H])94)(CCC(C98C)([H])C(C(CC8)OC(O6)(C(O)C(O)C(C6COC(O7)C(C(C(C7CO)O)O)O)OC(C(O)5)(OC(C)C(O)C5O)[H])[H])(C)C)C(C2)(C(C=C4)(C3([H])1)OCC(CCC(C)(C)C3)1C(O)2)C
InChI: InChI=1S/C48H78O17/c1-22-30(51)32(53)36(57)40(61-22)65-38-24(20-59-39-35(56)33(54)31(52)23(19-49)62-39)63-41(37(58)34(38)55)64-29-11-12-44(6)25(43(29,4)5)9-13-45(7)26(44)10-14-48-27-17-42(2,3)15-16-47(27,21-60-48)28(50)18-46(45,48)8/h10,14,22-41,49-58H,9,11-13,15-21H2,1-8H3/t22-,23+,24+,25-,26+,27+,28-,29-,30-,31+,32+,33-,34+,35+,36+,37+,38+,39+,40-,41-,44-,45+,46-,47+,48-/m0/s1
Instrument: LCMS-IT-TOF
Instrument type: LC-ESI-ITTOF
Ms type: MS2
Ion mode: NEGATIVE
Column name: Waters Atlantis T3 (2.1 x 150 mm, 5 um)
Retention time: 17.205367 min
Base peak: 779.456100
Precursor m/z: 925.515300
m/z	relative intensity
146.693900	13
154.810500	13
157.500300	13
162.557100	13
164.917900	13
167.892900	13
177.182100	13
181.816700	13
183.583200	13
213.120000	13
217.746200	13
224.951400	13
236.747400	13
253.352100	13
271.405200	13
275.552800	13
307.350400	13
310.051700	13
318.501100	13
327.342100	13
345.315800	13
349.632700	13
355.696100	13
392.313600	13
398.523700	13
421.086800	13
421.461500	13
434.662400	13
443.461400	13
447.030100	13
453.330100	39
454.333200	18
455.357900	97
456.342700	34
457.349100	13
457.719100	13
463.493600	13
490.522700	13
497.356900	13
497.978500	13
528.518900	13
536.858100	13
538.640800	13
561.447400	13
563.361700	13
590.994300	13
591.555100	13
599.387200	13
610.092000	13
614.657800	13
617.400600	588
617.639400	13
617.902100	18
618.093200	13
618.403900	551
618.786300	13
619.049200	13
619.407900	277
620.412800	43
622.113400	13
624.992900	13
648.586500	13
653.686900	13
658.338600	13
671.172300	13
689.014700	13
708.113600	13
718.585100	13
722.015200	13
727.266400	13
745.205100	13
745.441200	30
755.655800	18
761.451900	118
762.433400	43
763.468500	638
763.999700	13
764.212200	13
764.451300	366
765.062500	18
765.461200	147
766.471900	71
767.190400	13
779.456100	999
779.724400	18
779.885400	18
780.234300	18
780.449100	509
780.878700	18
781.469500	295
782.463800	91
782.732600	13
788.631500	13
809.274600	13
809.903500	13
812.257100	13
843.081500	13
861.626000	13
876.584100	13
877.950300	13
890.752800	13
897.332700	13
913.932100	13
928.866800	13
946.433800	13
956.720100	13
962.584500	13
971.040500	13
971.280100	13
972.238700	13
976.077800	13
986.191400	13
999.666200	13
1013.813700	13
1025.597100	13
1028.399500	13
1030.527000	13
1032.502200	13
1064.363400	13
1070.737100	13
1100.371400	13
1112.902500	13
1113.415500	13
1130.571700	13
1138.339600	13
1170.564800	13
1173.624400	13
1184.976300	13
1188.154000	13
1193.559300	13
1217.213000	13
1221.172200	13
1223.759200	18
1256.515500	13
1258.696400	13
1267.165500	13
1267.849700	13
1282.261100	13
1291.361400	13
1309.276000	13
1335.378400	13
1348.049900	13
1372.148200	13
1374.712300	13
1377.849500	13
1397.896800	13
1422.434800	13
1427.549500	13
1442.656800	13
1445.139800	13
1448.356300	13
1465.963600	13
1467.435700	13
1494.356700	13
