Mass spectrum: Coptisine; LC-ESI-ITTOF; MS; [M]+
Name: Coptisine
Name: 6,7-Dihydro-bis[1,3]benzodioxolo[5,6-a:4',5'-g]quinolizinium
Name: 7,8,13,13a-Tetradehydro-2,3:9,10-bis(methylenedioxy)-berbinium
Name: Alkaloid A from Coptis groenlandica
Name: Coptisin
Class: Natural Product; Alkaloid
Formula: [C19H14NO4]+
Exact mass: 320.09228
SMILES: C(O1)Oc(c2)c1cc(C6)c2c(c3)[n+1](C6)cc(c54)c(ccc(OCO5)4)3
InChI: InChI=1S/C19H14NO4/c1-2-16-19(24-10-21-16)14-8-20-4-3-12-6-17-18(23-9-22-17)7-13(12)15(20)5-11(1)14/h1-2,5-8H,3-4,9-10H2/q+1
Instrument: LCMS-IT-TOF
Instrument type: LC-ESI-ITTOF
Ms type: MS
Ion mode: POSITIVE
Column name: Waters Atlantis T3 (2.1 x 150 mm, 5 um)
Retention time: 15.301667 min
Base peak: 320.094000
m/z	relative intensity
249.067300	3
263.090400	3
277.081600	5
290.075200	6
291.090800	5
292.091800	14
293.078000	3
318.085700	4
320.094000	999
320.248800	15
320.403600	21
320.644400	13
320.868200	6
321.092000	249
321.402000	5
321.643300	4
322.091500	21
336.124400	5
