Mass spectrum: Baicalin; LC-ESI-ITTOF; MS2; [2M-H]-
Name: Baicalin
Name: 5,6-Dihydroxy-4-oxo-2-phenyl-4H-1-benzopyran-7-yl beta-D-glucopyranosiduronic acid
Name: Baicalein 7-O-beta-D-glucuronide
Name: Baicalein 7-glucuronide
Class: Natural Product; Flavonoid
Formula: C21H18O11
Exact mass: 446.08491
SMILES: OC(=O)[C@@H](O1)[C@@H](O)[C@H](O)[C@@H](O)[C@@H]1Oc(c2)c(O)c(O)c(C(=O)3)c(OC(c(c4)cccc4)=C3)2
InChI: InChI=1S/C21H18O11/c22-9-6-10(8-4-2-1-3-5-8)30-11-7-12(14(23)15(24)13(9)11)31-21-18(27)16(25)17(26)19(32-21)20(28)29/h1-7,16-19,21,23-27H,(H,28,29)/t16-,17-,18+,19-,21+/m0/s1
Instrument: LCMS-IT-TOF
Instrument type: LC-ESI-ITTOF
Ms type: MS2
Ion mode: NEGATIVE
Column name: Waters Atlantis T3 (2.1 x 150 mm, 5 um)
Retention time: 11.055367 min
Base peak: 445.081700
Precursor m/z: 891.16199
Precursor type: [2M-H]-
m/z	relative intensity
269.051500	434
269.335300	9
269.540400	5
270.045500	85
271.041200	9
445.081700	999
445.264200	18
445.446700	25
445.730700	14
446.075700	295
446.258300	7
446.502000	7
447.070700	76
448.087200	6
621.107100	13
