Mass spectrum: Ginsenoside Rb1; LC-ESI-ITTOF; MS2; [M-H]-
Name: Ginsenoside Rb1
Name: (3beta,12beta)-20-[(6-O-beta-D-Glucopyranosyl-beta-D-glucopyranosyl)oxy]-12-hydroxydammar-24-en-3-yl 2-O-beta-D-glucopyranosyl-beta-D-glucopyranoside
Name: Dammarane, beta-D-glucopyranoside deriv.
Name: Arasaponin E1
Name: Gynosaponin C
Name: Gypenoside III
Name: Notoginsenoside Rb1
Name: Panaxoside Rb1
Name: Sanchinoside E1
Name: Sanchinoside Rb1
Class: Natural Product; Saponin
Formula: C54H92O23
Exact mass: 1108.60294
SMILES: C(OC(O8)(C(C(C(O)C8CO)O)OC(O7)(C(O)C(C(C7CO)O)O)[H])[H])(C1(C)C)CCC(C)(C2([H])6)C([H])(CCC2(C)C(C3([H])C(O)C6)(C)CCC(C(C)(OC(C5O)OC(C(C5O)O)COC(O4)C(C(O)C(O)C(CO)4)O)CCC=C(C)C)([H])3)1
InChI: InChI=1S/C54H92O23/c1-23(2)10-9-14-54(8,77-48-44(69)40(65)37(62)29(74-48)22-70-46-42(67)38(63)34(59)26(19-55)71-46)24-11-16-53(7)33(24)25(58)18-31-51(5)15-13-32(50(3,4)30(51)12-17-52(31,53)6)75-49-45(41(66)36(61)28(21-57)73-49)76-47-43(68)39(64)35(60)27(20-56)72-47/h10,24-49,55-69H,9,11-22H2,1-8H3/t24-,25+,26+,27+,28+,29+,30-,31+,32-,33-,34+,35+,36+,37+,38-,39-,40-,41-,42+,43+,44+,45+,46+,47-,48-,49-,51-,52+,53+,54-/m0/s1
Instrument: LCMS-IT-TOF
Instrument type: LC-ESI-ITTOF
Ms type: MS2
Ion mode: NEGATIVE
Column name: Waters Atlantis T3 (2.1 x 150 mm, 5 um)
Retention time: 16.222117 min
Base peak: 945.547100
Precursor m/z: 1107.593400
m/z	relative intensity
323.061900	6
355.261200	7
357.274500	10
373.269900	45
375.296300	320
375.575600	12
376.283600	101
377.290900	34
383.193300	6
407.086500	6
441.359400	17
443.360200	9
459.385900	332
460.375000	169
461.385900	34
537.348100	91
538.350900	29
539.332400	10
603.416900	20
604.408800	7
621.442500	300
621.921700	13
622.449000	158
623.432400	51
765.461200	43
766.471900	25
767.483200	16
783.485600	548
784.481100	240
784.723400	10
785.477300	83
786.501100	30
787.471500	12
945.547100	999
945.813100	16
946.079100	22
946.552100	529
946.818200	17
947.173100	11
947.528000	181
948.563600	46
1226.180800	5
