Mass spectrum: Puerarin; LC-ESI-ITTOF; MS2; [M-H]-
Name: Puerarin
Name: 8-beta-D-Glucopyranosyl-7-hydroxy-3-(4-hydroxyphenyl)-4H-1-benzopyran-4-one
Name: Kakonein
Class: Natural Product; Flavonoid
Formula: C21H20O9
Exact mass: 416.11073
SMILES: OC[C@H]([C@@H](O)4)O[C@H]([C@H](O)[C@@H](O)4)c(c(O)3)c(O2)c(cc3)C(=O)C(=C2)c(c1)ccc(O)c1
InChI: InChI=1S/C21H20O9/c22-7-14-17(26)18(27)19(28)21(30-14)15-13(24)6-5-11-16(25)12(8-29-20(11)15)9-1-3-10(23)4-2-9/h1-6,8,14,17-19,21-24,26-28H,7H2/t14-,17-,18+,19-,21+/m1/s1
Instrument: LCMS-IT-TOF
Instrument type: LC-ESI-ITTOF
Ms type: MS2
Ion mode: NEGATIVE
Column name: Waters Atlantis T3 (2.1 x 150 mm, 5 um)
Retention time: 8.570350 min
Base peak: 267.069200
Precursor m/z: 415.101800
m/z	relative intensity
208.058100	10
209.057300	4
222.063800	14
223.067400	14
224.044400	15
238.065200	8
253.046200	11
266.049400	6
266.912200	7
267.069200	999
267.210500	15
267.351900	27
267.571900	13
267.776300	4
268.075200	157
269.067300	4
277.054200	43
293.049500	5
295.059800	591
295.224900	10
295.357000	13
295.588300	9
296.067600	42
307.064000	15
319.050100	4
325.068500	5
