Mass spectrum: Ginsenoside Rd; LC-ESI-ITTOF; MS2; [M-H]-
Name: Ginsenoside Rd
Name: (3beta,12beta)-20-(beta-D-Glucopyranosyloxy)-12-hydroxydammar-24-en-3-yl 2-O-beta-D-glucopyranosyl-beta-D-glucopyranoside
Name: Dammarane,beta-D-glucopyranoside deriv.
Name: Gypenoside VIII
Class: Natural Product; Saponin
Formula: C48H82O18
Exact mass: 946.55012
SMILES: C(C1)(O)C(C([H])6C(C)(CCC=C(C)C)OC(C(O)7)OC(CO)C(C(O)7)O)([H])C(C)(CC6)C(C)(C5)C1(C(C2)(C)C(C5)(C(C)(C)C(OC(O3)(C(OC([H])(C(O)4)OC(C(O)C4O)CO)C(O)C(C3CO)O)[H])C2)[H])[H]
InChI: InChI=1S/C48H82O18/c1-22(2)10-9-14-48(8,66-42-39(60)36(57)33(54)26(20-50)62-42)23-11-16-47(7)31(23)24(52)18-29-45(5)15-13-30(44(3,4)28(45)12-17-46(29,47)6)64-43-40(37(58)34(55)27(21-51)63-43)65-41-38(59)35(56)32(53)25(19-49)61-41/h10,23-43,49-60H,9,11-21H2,1-8H3/t23-,24+,25+,26+,27+,28-,29+,30-,31-,32+,33+,34+,35-,36-,37-,38+,39+,40+,41-,42-,43-,45-,46+,47+,48-/m0/s1
Instrument: LCMS-IT-TOF
Instrument type: LC-ESI-ITTOF
Ms type: MS2
Ion mode: NEGATIVE
Column name: Waters Atlantis T3 (2.1 x 150 mm, 5 um)
Retention time: 17.805417 min
Base peak: 783.485600
Precursor m/z: 945.540800
m/z	relative intensity
313.257900	8
355.261200	9
357.256400	8
373.269900	36
374.273200	7
375.296300	399
375.631500	12
376.283600	124
376.600600	4
377.290900	15
441.359400	17
442.369300	12
443.340000	13
459.385900	395
459.736100	9
460.375000	147
461.385900	32
462.397800	8
537.348100	83
538.350900	32
539.354700	11
603.416900	12
604.432400	9
605.401400	11
621.442500	325
621.849800	8
622.449000	139
623.432400	46
624.440500	8
765.461200	15
766.471900	8
783.485600	999
783.754600	19
783.969800	18
784.481100	470
784.750300	10
784.992600	9
785.477300	137
786.501100	26
787.498500	9
981.338800	5
