Mass spectrum: Benzoylmesaconine; LC-ESI-ITTOF; MS; [M+CH3COOH-H]-
Name: Benzoylmesaconine
Name: (1alpha,3alpha,6alpha,14alpha,15alpha,16beta)- 1,6,16-Trimethoxy-4-(methoxymethyl)-20-methyl-aconitane-3,8,13,14,15-pentol 14-benzoate
Name: 2H-12,3,6a-Ethanylylidene-7,9-methanonaphth[2,3-b]azocine aconitane-3,8,13,14,15-pentol deriv.
Name: 14-O-Benzoylmesaconine
Name: 8-Deacetylmesaconitine
Name: Mesaconine 14-benzoate
Name: O8-Deacetylmesaconitine
Class: Natural Product; Alkaloid
Formula: C31H43NO10
Exact mass: 589.28870
SMILES: COC(C61[H])C([H])(C75COC)C(C6([H])N(C7)C)(C(OC)CC5O)C(C2)(C([H])(C(OC(c(c4)cccc4)=O)3)C1(O)C(O)C(OC)C23O)[H]
InChI: InChI=1S/C31H43NO10/c1-32-13-28(14-38-2)17(33)11-18(39-3)30-16-12-29(36)25(42-27(35)15-9-7-6-8-10-15)19(16)31(37,24(34)26(29)41-5)20(23(30)32)21(40-4)22(28)30/h6-10,16-26,33-34,36-37H,11-14H2,1-5H3/t16-,17-,18+,19-,20+,21+,22-,23+,24+,25-,26+,28+,29-,30+,31-/m1/s1
Instrument: LCMS-IT-TOF
Instrument type: LC-ESI-ITTOF
Ms type: MS
Ion mode: NEGATIVE
Column name: Waters Atlantis T3 (2.1 x 150 mm, 5 um)
Retention time: 14.564117 min
Base peak: 648.292900
m/z	relative intensity
331.248100	4
588.287500	20
589.290100	6
606.300200	75
607.294400	36
608.313100	7
624.248400	7
625.281200	3
632.293300	6
634.276300	28
635.293100	10
648.292900	999
648.757900	21
649.100600	15
649.296400	363
649.541300	7
649.761800	9
650.300800	84
651.281300	143
651.747400	5
652.287200	48
653.269300	9
690.301700	4
702.270000	272
702.804800	5
703.263500	110
704.283200	22
1177.578200	10
1178.600600	6
