Mass spectrum: Ginsenoside Re; LC-ESI-ITTOF; MS2; [M-H]-
Name: Ginsenoside Re
Name: (3beta,6alpha,12beta)-20-(beta-D-Glucopyranosyloxy)-3,12-dihydroxydammar-24-en-6-yl 2-O-(6-deoxy-alpha-L-mannopyranosyl)-beta-D-glucopyranoside
Name: Dammarane,beta-D-glucopyranoside deriv.
Name: Chikusetsusaponin IVc
Name: Ginsenoside B2
Name: Panaxoside Re
Name: Sanchinoside Re
Class: Natural Product; Saponin
Formula: C48H82O18
Exact mass: 946.55012
SMILES: O(C1CO)C([H])(OC(C7)C(C(C([H])(C(C)74)CC(O)C([H])(C(C(CCC=C(C)C)(OC(O6)C(O)C(O)C(O)C6CO)C)([H])5)C(CC5)4C)3C)([H])C(C(O)CC3)(C)C)C(OC([H])(O2)C(C(C(O)C2C)O)O)C(O)C1O
InChI: InChI=1S/C48H82O18/c1-21(2)11-10-14-48(9,66-42-38(60)35(57)32(54)26(19-49)63-42)23-12-16-46(7)30(23)24(51)17-28-45(6)15-13-29(52)44(4,5)40(45)25(18-47(28,46)8)62-43-39(36(58)33(55)27(20-50)64-43)65-41-37(59)34(56)31(53)22(3)61-41/h11,22-43,49-60H,10,12-20H2,1-9H3/t22-,23-,24+,25-,26+,27+,28+,29-,30-,31-,32+,33+,34+,35-,36-,37+,38+,39+,40-,41-,42-,43+,45+,46+,47+,48-/m0/s1
Instrument: LCMS-IT-TOF
Instrument type: LC-ESI-ITTOF
Ms type: MS2
Ion mode: NEGATIVE
Column name: Waters Atlantis T3 (2.1 x 150 mm, 5 um)
Retention time: 13.438717 min
Base peak: 475.381700
Precursor m/z: 945.542700
m/z	relative intensity
329.239900	7
347.247100	5
371.249100	4
373.269900	40
389.274200	40
390.279700	7
391.286500	755
391.457600	11
391.628700	19
391.895000	11
392.123300	5
392.294600	218
392.922900	4
393.284900	18
437.331000	5
445.304800	4
455.357900	17
456.342700	4
457.369700	68
458.377200	19
459.344700	24
460.354400	10
475.381700	999
475.570300	17
475.758900	24
476.031500	13
476.387900	401
477.017400	7
477.374200	93
478.382500	6
535.322900	11
553.325400	27
554.343100	7
571.395900	12
619.407900	118
620.412800	72
621.418500	15
637.426400	229
638.421500	128
639.441700	32
765.461200	26
766.471900	10
783.485600	144
784.481100	65
785.504200	24
786.474100	5
799.490200	131
800.495900	46
801.475000	19
802.481900	6
1223.927300	4
1232.919800	4
