Mass spectrum: Berberine; LC-ESI-ITTOF; MS; [M]+
Name: Berberine
Name: 5,6-Dihydro-9,10-dimethoxy-benzo[g]-1,3-benzodioxolo[5,6-a]quinolizinium
Name: 7,8,13,13a-Tetradehydro-9,10-dimethoxy-2,3-(methylenedioxy)-berbinium
Name: Umbellatine
Name: 5,6-Dihydro-9,10-dimethoxybenzo[g]-1,3-benzodioxolo[5,6-a]quinolizinium
Name: Berbericine
Name: Berberin
Name: Majarine
Name: Thalsine
Name: Umbellatin
Class: Natural Product; Alkaloid
Formula: [C20H18NO4]+
Exact mass: 336.12358
SMILES: COc(c5)c(OC)c(c4)c(c5)cc([n+1]34)c(c1)c(CC3)cc(O2)c(OC2)1
InChI: InChI=1S/C20H18NO4/c1-22-17-4-3-12-7-16-14-9-19-18(24-11-25-19)8-13(14)5-6-21(16)10-15(12)20(17)23-2/h3-4,7-10H,5-6,11H2,1-2H3/q+1
Instrument: LCMS-IT-TOF
Instrument type: LC-ESI-ITTOF
Ms type: MS
Ion mode: POSITIVE
Column name: Waters Atlantis T3 (2.1 x 150 mm, 5 um)
Retention time: 16.626667 min
Base peak: 336.124400
m/z	relative intensity
278.074200	20
279.084700	6
292.091800	27
293.094500	5
304.103400	11
306.084000	20
307.076700	7
318.085700	3
320.094000	46
321.092000	57
322.108700	8
336.124400	999
336.300600	16
336.494400	19
336.688400	13
336.917600	6
337.129300	241
338.135800	35
339.126100	4
