Mass spectrum: Reynoutrin; LC-ESI-ITTOF; MS; [M-H]-
Name: Reynoutrin
Name: 2-(3,4-Dihydroxyphenyl)-5,7-dihydroxy-3-(beta-D-xylopyranosyloxy)-4H-1-benzopyran-4-one
Name: 3,3',4',5,7-Pentahydroxyflavone 3beta-D-xylopyranoside
Name: Quercetin 3-O-beta-xyloside
Name: Quercetin 3-beta-D-xylopyranoside
Name: Quercetin-3-O-beta-D-xylopyranoside
Name: Reinutrin
Class: Natural Product; Flavonoid
Formula: C20H18O11
Exact mass: 434.08491
SMILES: Oc(c4)c(O)cc(c4)C(O1)=C(OC(O3)C(O)C(O)C(O)C3)C(=O)c(c(O)2)c(cc(O)c2)1
InChI: InChI=1S/C20H18O11/c21-8-4-11(24)14-13(5-8)30-18(7-1-2-9(22)10(23)3-7)19(16(14)27)31-20-17(28)15(26)12(25)6-29-20/h1-5,12,15,17,20-26,28H,6H2/t12-,15+,17+,20-/m0/s1
Instrument: LCMS-IT-TOF
Instrument type: LC-ESI-ITTOF
Ms type: MS
Ion mode: NEGATIVE
Column name: Waters Atlantis T3 (2.1 x 150 mm, 5 um)
Retention time: 11.280783 min
Base peak: 433.079500
m/z	relative intensity
203.585200	3
255.032000	3
271.020500	8
291.402400	3
300.028300	38
301.027900	235
301.361400	6
302.045800	19
317.024200	8
362.467100	3
431.062100	16
432.759600	3
433.079500	999
433.259500	17
433.439500	22
433.719700	8
434.080000	267
434.440400	4
435.081600	53
436.064300	6
496.071000	22
532.990300	6
546.002800	3
547.058700	16
599.104700	11
729.578200	3
740.834600	3
749.017700	3
751.123200	11
834.403300	3
867.168500	115
868.159200	54
869.178800	14
870.170700	3
889.496200	3
920.077300	8
1301.166900	3
1517.383400	3
1557.055800	3
1562.065100	3
1685.608000	3
1714.969100	3
1717.954900	3
1873.430500	3
1928.608600	3
