Mass spectrum: Isoquercitrin; LC-ESI-ITTOF; MS; [M+H]+
Name: Isoquercitrin
Name: 2-(3,4-Dihydroxyphenyl)-3-(beta-D-glucopyranosyloxy)-5,7-dihydroxy-H-1-benzopyran-4-one
Name: Hirsutrin
Name: 3-Glucosylquercetin
Name: 3-O-beta-D-Glucopyranosylquercetin
Name: 3',4',5,7-Tetrahydroxyflavone-3-beta-D-glucopyranoside
Name: Contigoside B
Name: Glucosyl-3-quercetin
Name: Isoquercetin
Name: Isoquercetrin
Name: Quercetin 3-D-glucoside
Name: Quercetin 3-O-glucopyranoside
Name: Quercetin 3-O-glucoside
Name: Quercetin 3-O-beta-D-glucopyranoside
Name: Quercetin 3-O-beta-D-glucoside
Name: Quercetin 3-O-beta-glucoside
Name: Quercetin 3-glucoside
Name: Quercetin 3-mono-D-glucoside
Name: Quercetin 3-monoglucoside
Name: Quercetin 3-beta-D-glucopyranoside
Name: Quercetin 3-beta-D-glucoside
Name: Quercetin 3beta-O-glucoside
Name: Quercetin 3beta-glucoside
Name: Quercetin glucoside
Name: Quercetin-3-glucose
Name: Quercetin-3-beta-glucopyranoside
Name: Quercetol 3-glucoside
Name: Quercetol 3-monoglucoside
Class: Natural Product; Flavonoid
Formula: C21H20O12
Exact mass: 464.09548
SMILES: OCC(O1)C(O)C(O)C(O)C1OC(C(=O)3)=C(Oc(c4)c(c(O)cc(O)4)3)c(c2)cc(O)c(O)c2
InChI: InChI=1S/C21H20O12/c22-6-13-15(27)17(29)18(30)21(32-13)33-20-16(28)14-11(26)4-8(23)5-12(14)31-19(20)7-1-2-9(24)10(25)3-7/h1-5,13,15,17-18,21-27,29-30H,6H2/t13-,15-,17+,18+,21-/m0/s1
Instrument: LCMS-IT-TOF
Instrument type: LC-ESI-ITTOF
Ms type: MS
Ion mode: POSITIVE
Column name: Waters Atlantis T3 (2.1 x 150 mm, 5 um)
Retention time: 10.818333 min
Base peak: 303.047100
m/z	relative intensity
301.043000	7
303.047100	999
303.214400	14
303.348300	20
303.582700	12
304.051700	127
305.057900	24
465.107300	521
465.480400	9
465.770700	5
466.102600	169
467.099000	42
487.080300	29
488.077600	5
951.176400	14
952.184300	8
954.172100	5
