Mass spectrum: Rhyncophylline; LC-ESI-ITTOF; MS; [M-H]-
Name: Rhyncophylline
Name: Rhynchophylline
Name: Mitrinermine
Name: Spiro[3H-indole-3,1'(5'H)-indolizine]-7'-acetic acid, 6'-ethyl-1,2,2',3',6',7',8',8'a-octahydro-alpha-(methoxymethylene)-2-oxo-, methyl ester, (alphaE,1'R,6'R,7'S,8'aS)-
Name: Corynoxan-16-carboxylic acid, 16,17-didehydro-17-methoxy-2-oxo-, methyl ester, (7beta,16E,20alpha)-
Name: Mitrinermin
Name: NSC 21731
Name: Spiro[3H-indole-3,1'(5'H)-indolizine]-7'-acetic acid, 6'-ethyl-1,2,2',3',6',7',8',8'a-octahydro-alpha-(methoxymethylene)-2-oxo-, methyl ester, [1'R-[1'alpha,6'beta,7'alpha(E),8'a beta]]-
Class: Natural Product; Alkaloid
Formula: C22H28N2O4
Exact mass: 384.20491
SMILES: COC=C(C(=O)OC)C(C(CC)4)CC([H])(N(C4)3)C(CC3)(C(=O)1)c(c2)c(ccc2)N1
InChI: InChI=1S/C22H28N2O4/c1-4-14-12-24-10-9-22(17-7-5-6-8-18(17)23-21(22)26)19(24)11-15(14)16(13-27-2)20(25)28-3/h5-8,13-15,19H,4,9-12H2,1-3H3,(H,23,26)/b16-13+/t14-,15-,19-,22+/m0/s1
Instrument: Shimadzu LC20A-IT-TOFMS
Instrument type: LC-ESI-ITTOF
Ms type: MS
Ion mode: NEGATIVE
Column name: Waters Atlantis T3 (2.1 x 150 mm, 5 um)
Retention time: 1219.099
Ion type: [M-H]-
m/z	relative intensity
383.1972	999
384.2004	249
