Mass spectrum: Cirsimarin; LC-ESI-ITTOF; MS2; [M+H]+
Name: Cirsimarin
Name: 2-[4-(beta-D-Glucopyranosyloxy)phenyl]-5-hydroxy-6,7-dimethoxy-4H-1-benzopyran-4-one
Name: 5,4'-Dihydroxy-6,7-dimethoxyflavone 4'-O-beta-D-glucoside
Name: Cirsimaretin
Name: Cirsimarine
Name: Cirsimaritin 4'-glucoside
Name: Cirsimartin
Name: Cirsitakaoside
Name: Cismaritin
Class: Natural Product; Flavonoid
Formula: C23H24O11
Exact mass: 476.13186
SMILES: OCC(O1)C(O)C(O)C(O)C(Oc(c4)ccc(c4)C(=C3)Oc(c2)c(C(=O)3)c(O)c(OC)c(OC)2)1
InChI: InChI=1S/C23H24O11/c1-30-15-8-14-17(19(27)22(15)31-2)12(25)7-13(33-14)10-3-5-11(6-4-10)32-23-21(29)20(28)18(26)16(9-24)34-23/h3-8,16,18,20-21,23-24,26-29H,9H2,1-2H3/t16-,18-,20+,21-,23-/m1/s1
Instrument: LCMS-IT-TOF
Instrument type: LC-ESI-ITTOF
Ms type: MS2
Ion mode: POSITIVE
Column name: Waters Atlantis T3 (2.1 x 150 mm, 5 um)
Retention time: 14.385600 min
Base peak: 315.076400
Precursor m/z: 477.135500
m/z	relative intensity
169.072300	7
181.060400	7
226.042800	13
227.069800	15
254.051200	153
254.388300	5
255.063100	60
282.046400	319
282.401500	9
283.047900	74
299.047000	9
300.061500	92
300.228000	8
301.061100	15
315.076400	999
315.247000	14
315.434700	18
315.622500	18
315.895700	8
316.083600	237
316.374100	7
460.312800	4
