Mass spectrum: Hesperidin; LC-ESI-ITTOF; MS; [M+H]+
Name: Hesperidin
Name: Cirantin
Name: Hesperidoside
Name: (2S)-7-[[6-O-(6-Deoxy-alpha-L-mannopyranosyl)-beta-D-glucopyranosyl]oxy]-2,3-dihydro-5-hydroxy-2-(3-hydroxy-4-methoxyphenyl)-4H-1-benzopyran-4-one
Name: (2S)-5-hydroxy-2-(3-hydroxy-4-methoxy-phenyl)-7-[(2S,3R,4S,5R,6R)-3,4,5-trihydroxy-6-[[(2R,3R,4R,5S,6S)-3,4,5-trihydroxy-6-methyl-oxan-2-yl]oxymethyl]oxan-2-yl]oxy-chroman-4-one
Name: Hesp-7-Glc-6pp-Rha
Name: Hesperetin 7-O-rutinoside
Name: Hesperetin 7-rhamnoglucoside
Class: Natural Product; Flavonoid
Formula: C28H34O15
Exact mass: 610.18977
SMILES: C[C@H]1[C@@H]([C@H]([C@H]([C@@H](O1)OC[C@@H]2[C@H]([C@@H]([C@H]([C@@H](O2)OC3=CC(=C4C(=O)C[C@H](OC4=C3)C5=CC(=C(C=C5)OC)O)O)O)O)O)O)O)O
InChI: InChI=1S/C28H34O15/c1-10-21(32)23(34)25(36)27(40-10)39-9-19-22(33)24(35)26(37)28(43-19)41-12-6-14(30)20-15(31)8-17(42-18(20)7-12)11-3-4-16(38-2)13(29)5-11/h3-7,10,17,19,21-30,32-37H,8-9H2,1-2H3/t10-,17-,19+,21-,22+,23+,24-,25+,26+,27+,28+/m0/s1
Instrument: Shimadzu LC20A-IT-TOFMS
Instrument type: LC-ESI-ITTOF
Ms type: MS
Ion mode: POSITIVE
Column name: Waters Atlantis T3 (2.1 x 150 mm, 5 um)
Retention time: 724.901 sec
Ion type: [M+H]+
m/z	relative intensity
303.0822	554
304.0863	81
345.0910	75
413.1219	109
431.1299	141
449.1393	350
450.1416	105
465.1415	66
611.1934	999
612.1950	335
613.1965	105
628.2172	174
1238.4035	93
1239.4117	62
