Mass spectrum: Chikusetsusaponin III; LC-ESI-ITTOF; MS2; [M-H]-
Name: Chikusetsusaponin III
Name: (3beta,12beta)-12,20-Dihydroxydammar-24-en-3-yl O-beta-D-glucopyranosyl-(1-2)-O-[beta-D-xylopyranosyl-(1-6)]-beta-D-glucopyranoside
Name: Dammarane beta-D-glucopyranoside deriv.
Class: Natural Product; Saponin
Formula: C47H80O17
Exact mass: 916.53955
SMILES: OC(C(OCC(C(O)6)OC(C(OC(O7)C(O)C(C(C7CO)O)O)C6O)OC(C5(C)C)CCC(C5([H])2)(C([H])(C4)C(C(C)(C(C4O)([H])3)CCC([H])(C(C)(O)CCC=C(C)C)3)(C)CC2)C)1)C(C(O)CO1)O
InChI: InChI=1S/C47H80O17/c1-22(2)10-9-14-47(8,58)23-11-16-46(7)31(23)24(49)18-29-44(5)15-13-30(43(3,4)28(44)12-17-45(29,46)6)63-42-39(64-41-38(57)35(54)33(52)26(19-48)61-41)36(55)34(53)27(62-42)21-60-40-37(56)32(51)25(50)20-59-40/h10,23-42,48-58H,9,11-21H2,1-8H3/t23-,24+,25+,26+,27+,28-,29+,30-,31-,32-,33+,34+,35-,36-,37+,38+,39+,40-,41-,42-,44-,45+,46+,47-/m0/s1
Instrument: LCMS-IT-TOF
Instrument type: LC-ESI-ITTOF
Ms type: MS2
Ion mode: NEGATIVE
Column name: Waters Atlantis T3 (2.1 x 150 mm, 5 um)
Retention time: 21.188700 min
Base peak: 459.391400
Precursor m/z: 915.528100
m/z	relative intensity
120.689000	6
373.271100	32
374.274400	6
375.279000	458
376.284900	129
377.292200	10
439.347400	6
441.364000	24
443.344700	6
445.289300	8
459.391400	999
459.556200	19
459.762200	26
460.050700	8
460.380600	446
461.391400	79
494.645900	6
519.332700	33
520.340500	14
529.388800	17
530.384300	8
537.333900	148
537.712600	6
538.336700	44
539.318200	12
556.049600	6
603.426100	60
604.418000	35
605.410700	21
618.509000	6
621.428200	792
621.667700	17
621.859400	19
622.147000	10
622.434700	502
623.442100	162
624.450200	41
735.466900	6
753.480000	233
754.482700	104
754.905100	6
755.486100	44
783.475100	391
784.497600	270
785.009100	6
785.493800	113
786.490600	21
787.515100	6
869.221600	6
976.281200	6
1104.260300	6
1271.343200	6
1334.608900	6
1352.361100	6
