Mass spectrum: Acaciin; LC-ESI-ITTOF; MS; [M+H]+
Name: Acaciin
Name: 7-[[6-O-(6-Deoxy-alpha-L-mannopyranosyl)-beta-D-glucopyranosyl]oxy]-5-hydroxy-2-(4-methoxyphenyl)-4H-1-benzopyran-4-one
Name: Linarin
Name: Acacetin 7-O-rutinoside
Name: Acacetin 7-O-alpha-L-rhamnopyranosyl-(16)-beta-D-glucopyranoside
Name: Acacetin-7-O-beta-D-rutinoside
Name: Buddleoflavonoloside
Name: Buddleoside
Name: Linarigenin glycoside
Class: Natural Product; Flavonoid
Formula: C28H32O14
Exact mass: 592.17921
SMILES: c(O)(c3)c(C(=O)2)c(cc3OC(O4)C(O)C(O)C(O)C(COC(O5)C(O)C(C(C5C)O)O)4)OC(=C2)c(c1)ccc(OC)c1
InChI: InChI=1S/C28H32O14/c1-11-21(31)23(33)25(35)27(39-11)38-10-19-22(32)24(34)26(36)28(42-19)40-14-7-15(29)20-16(30)9-17(41-18(20)8-14)12-3-5-13(37-2)6-4-12/h3-9,11,19,21-29,31-36H,10H2,1-2H3/t11-,19+,21-,22+,23+,24-,25+,26+,27+,28+/m0/s1
Instrument: LCMS-IT-TOF
Instrument type: LC-ESI-ITTOF
Ms type: MS
Ion mode: POSITIVE
Column name: Waters Atlantis T3 (2.1 x 150 mm, 5 um)
Retention time: 14.101667 min
Base peak: 593.194200
m/z	relative intensity
242.050200	18
270.056500	6
285.072400	100
286.079200	15
372.135400	5
447.130900	171
447.517100	5
448.127200	15
449.124500	6
593.194200	999
593.404900	14
593.685800	17
593.943400	14
594.201100	344
594.904000	5
595.185300	92
596.193800	20
615.160500	12
616.162000	4
631.136600	9
797.270800	5
798.275100	4
