Mass spectrum: Saikosaponin A; LC-ESI-ITTOF; MS; [M+H]+
Name: Saikosaponin A
Name: beta-D-Galactopyranoside, (3beta,4alpha,16beta)-13,28-epoxy-16,23-dihydroxyolean-11-en-3-yl 6-deoxy-3-O-beta-D-glucopyranosyl-
Name: Oleanane, beta-D-galactopyranoside deriv
Name: Salikosaponin A
Name: AIDS211406
Class: Natural Product; Saponin
Formula: C42H68O13
Exact mass: 780.46599
SMILES: C(C([H])54)(C1)(C)C([H])(CCC4(C(C7)(C(O8)(C(C(C8)6C(O)7)(CC(CC6)(C)C)[H])C=C5)C)C)C(C(OC(O3)([H])C(C(C(C3C)O)OC(C(O)2)(OC(C(C2O)O)CO)[H])O)C1)(C)CO
InChI: InChI=1S/C42H68O13/c1-21-28(46)33(55-34-31(49)30(48)29(47)22(18-43)53-34)32(50)35(52-21)54-27-10-11-37(4)23(38(27,5)19-44)8-12-39(6)24(37)9-13-42-25-16-36(2,3)14-15-41(25,20-51-42)26(45)17-40(39,42)7/h9,13,21-35,43-50H,8,10-12,14-20H2,1-7H3/t21-,22-,23-,24-,25-,26+,27+,28+,29-,30+,31-,32-,33+,34+,35+,37+,38+,39-,40+,41-,42+/m1/s1
Instrument: Shimadzu LC20A-IT-TOFMS
Instrument type: LC-ESI-ITTOF
Ms type: MS
Ion mode: POSITIVE
Column name: Waters Atlantis T3 (2.1 x 150 mm, 5 um)
Retention time: 1136.501 sec
Ion type: [M+H]+
m/z	relative intensity
407.3303	58
419.3269	401
420.3345	134
437.3381	963
438.3399	309
439.3517	52
455.3471	999
456.3524	305
457.3533	58
583.3956	108
601.4051	153
602.4050	51
745.4476	164
746.4489	90
763.4568	265
764.4593	119
781.4724	175
782.4732	64
803.4446	77
