Mass spectrum: Amygdalin; LC-ESI-ITTOF; MS; [M+NH3+H]+
Name: Amygdalin
Name: Benzeneacetonitrile, alpha-[(6-O-beta-D-glucopyranosyl-beta-D-glucopyranosyl)oxy]-, (alphaR)-
Name: Benzeneacetonitrile, alpha-[(6-O-beta-D-glucopyranosyl-beta-D-glucopyranosyl)oxy]-, (R)-
Name: (-)-Amygdalin
Name: (R)-Amygdalin
Name: Amygdaloside
Name: Amygdaloside (disaccharide)
Name: D-Amygdalin
Name: Mandelonitrile-beta-gentiobioside
Name: NSC 15780
Class: Natural Product; Cyanogenic glycoside
Formula: C20H27NO11
Exact mass: 457.15841
SMILES: N#CC(c(c3)cccc3)OC(O1)C(O)C(O)C(O)C(COC(O2)C(O)C(O)C(O)C(CO)2)1
InChI: InChI=1S/C20H27NO11/c21-6-10(9-4-2-1-3-5-9)30-20-18(28)16(26)14(24)12(32-20)8-29-19-17(27)15(25)13(23)11(7-22)31-19/h1-5,10-20,22-28H,7-8H2/t10-,11+,12+,13+,14+,15-,16-,17+,18+,19+,20+/m0/s1
Instrument: Shimadzu LC20A-IT-TOFMS
Instrument type: LC-ESI-ITTOF
Ms type: MS
Ion mode: POSITIVE
Column name: Waters Atlantis T3 (2.1 x 150 mm, 5 um)
Retention time: 507.000
Ion type: [M+NH3+H]+
m/z	relative intensity
475.1901	999
476.1919	233
