Mass spectrum: Ginsenoside Re; LC-ESI-ITTOF; MS; [M-H]-
Name: Ginsenoside Re
Name: beta-D-Glucopyranoside, (3beta,6alpha,12beta)-20-(beta-D-glucopyranosyloxy)-3,12-dihydroxydammar-24-en-6-yl 2-O-(6-deoxy-alpha-L-mannopyranosyl)-
Name: Dammarane, beta-D-glucopyranoside deriv.
Name: Chikusetsusaponin IVc
Name: Ginsenoside B2
Name: Panaxoside Re
Name: Sanchinoside Re
Name: NSC 308877
Name: EINECS 257-814-6
Name: AIDS-058058
Name: Ambap2206
Name: LS-71254
Name: 2-O-(6-Deoxy-alpha-L-mannopyranosyl)-(3beta,6alpha,12beta)-20-(beta-D-glucopyranosyloxy)-3,12-dihydroxydammar-24-en-6-yl-beta-D-glucopyranoside
Name: Dammar-24-ene-3,6,12,20-tetrol,6-O-[alpha-L-Rhamnopyranosyl-(1->2)-beta-D-glucopyranoside], 20-O-beta-D-glucopyranoside
Class: Natural Product; Saponin
Formula: C48H82O18
Exact mass: 946.55012
SMILES: O(C1CO)C([H])(OC(C7)C(C(C([H])(C(C)74)CC(O)C([H])(C(C(CCC=C(C)C)(OC(O6)C(O)C(O)C(O)C6CO)C)([H])5)C(CC5)4C)3C)([H])C(C(O)CC3)(C)C)C(OC([H])(O2)C(C(C(O)C2C)O)O)C(O)C1O
InChI: InChI=1S/C48H82O18/c1-21(2)11-10-14-48(9,66-42-38(60)35(57)32(54)26(19-49)63-42)23-12-16-46(7)30(23)24(51)17-28-45(6)15-13-29(52)44(4,5)40(45)25(18-47(28,46)8)62-43-39(36(58)33(55)27(20-50)64-43)65-41-37(59)34(56)31(53)22(3)61-41/h11,22-43,49-60H,10,12-20H2,1-9H3/t22-,23-,24+,25-,26+,27+,28+,29-,30-,31-,32+,33+,34+,35-,36-,37+,38+,39+,40-,41-,42-,43+,45+,46+,47+,48-/m0/s1
Instrument: Shimadzu LC20A-IT-TOFMS
Instrument type: LC-ESI-ITTOF
Ms type: MS
Ion mode: NEGATIVE
Ionization: ESI
Column name: Waters Atlantis T3 (2.1 x 150 mm, 5 um)
Retention time: 781.899 sec
Ion type: [M-H]-
m/z	relative intensity
502.2766	329
502.7780	188
532.2885	240
532.7880	151
945.5426	999
946.0325	74
946.5474	637
947.5512	182
1005.5594	313
1006.5675	214
1007.5716	79
1008.5478	79
1059.5316	369
1060.5356	242
1061.5457	79
1419.8033	69
