Mass spectrum: Rhoifolin; LC-ESI-ITTOF; MS2; [M-H]-
Name: Rhoifolin
Name: 7-[[2-O-(6-Deoxy-alpha-L-mannopyranosyl)-beta-D-glucopyranosyl]oxy]-5-hydroxy-2-(4-hydroxyphenyl)-4H-1-Benzopyran-4-one
Name: beta-Apigenin-7 neohesperidoside
Name: Apigenin 7-O-neohesperidoside
Name: Apigenin 7-O-beta-D-neohesperidoside
Name: Apigenin 7-O-beta-neohesperidoside
Name: Apigenin 7-neohesperidoside
Name: Rhoifoloside
Class: Natural Product; Flavonoid
Formula: C27H30O14
Exact mass: 578.16356
SMILES: O([C@H]5C)[C@H]([C@@H]([C@@H]([C@H]5O)O)O)O[C@H]([C@H]4O)[C@@H](O[C@@H]([C@H]4O)CO)Oc(c3)cc(O1)c(c3O)C(C=C(c(c2)ccc(O)c2)1)=O
InChI: InChI=1S/C27H30O14/c1-10-20(32)22(34)24(36)26(37-10)41-25-23(35)21(33)18(9-28)40-27(25)38-13-6-14(30)19-15(31)8-16(39-17(19)7-13)11-2-4-12(29)5-3-11/h2-8,10,18,20-30,32-36H,9H2,1H3/t10-,18+,20-,21+,22+,23-,24+,25+,26-,27+/m0/s1
Instrument: LCMS-IT-TOF
Instrument type: LC-ESI-ITTOF
Ms type: MS2
Ion mode: NEGATIVE
Column name: Waters Atlantis T3 (2.1 x 150 mm, 5 um)
Retention time: 11.833683 min
Base peak: 269.046600
Precursor m/z: 577.152400
m/z	relative intensity
224.038400	6
227.040200	4
268.038700	53
269.046600	999
269.188400	18
269.330400	24
269.535400	13
270.040500	161
271.052100	15
293.045200	5
311.063900	17
312.064700	4
371.079900	4
413.078100	24
414.094300	4
431.102000	8
