Mass spectrum: Cholic acid; LC-ESI-ITTOF; MS; [M+NH3+H]+
Name: Cholic acid
Name: (3alpha,5beta,7alpha,12alpha)-3,7,12-Trihydroxy-cholan-24-oic acid
Name: 3alpha,7alpha,12alpha-Trihydroxy-5beta-cholanic acid
Name: 17beta-[1-Methyl-3-carboxypropyl]etiocholane-3alpha,7alpha,12alpha-triol
Name: 3alpha,7alpha,12alpha-Trihydroxy-5beta-cholan-24-oic acid
Name: 3alpha,7alpha,12alpha-Trihydroxy-5beta-cholanoic acid
Name: 3alpha,7alpha,12alpha-Trihydroxy-beta-cholanic acid
Name: 3alpha,7alpha,12alpha-Trihydroxycholanic acid
Name: 5beta-Cholanic acid-3alpha,7alpha,12alpha-triol
Name: 5beta-Cholic acid
Name: Cholalic acid
Name: Cholalin
Name: Colalin
Class: Natural Product; Steroid
Formula: C24H40O5
Exact mass: 408.28757
SMILES: OC(=O)CC[C@@H](C)[C@@H](C4)[C@](C)([C@@H](O)3)[C@@H](C4)[C@H]([C@H](O)1)[C@H](C3)[C@](C)(C2)[C@@H](C[C@H](O)C2)C1
InChI: InChI=1S/C24H40O5/c1-13(4-7-21(28)29)16-5-6-17-22-18(12-20(27)24(16,17)3)23(2)9-8-15(25)10-14(23)11-19(22)26/h13-20,22,25-27H,4-12H2,1-3H3,(H,28,29)/t13-,14+,15-,16-,17+,18+,19-,20+,22+,23+,24-/m1/s1
Instrument: LCMS-IT-TOF
Instrument type: LC-ESI-ITTOF
Ms type: MS
Ion mode: POSITIVE
Column name: Waters Atlantis T3 (2.1 x 150 mm, 5 um)
Retention time: 16.020000 min
Base peak: 817.586300
m/z	relative intensity
255.216600	10
271.717200	6
273.192300	13
295.253600	7
311.826900	5
319.235000	35
337.235200	15
355.258000	253
356.254900	66
357.253200	9
357.798300	15
373.267100	186
373.619900	9
374.270300	66
391.284100	69
392.273200	11
426.327200	935
426.505800	15
426.684400	24
426.962400	16
427.319900	278
428.313700	43
429.328500	32
447.252900	7
766.877500	5
767.356600	7
781.557000	5
799.578900	48
817.586300	999
818.163500	21
818.575800	425
819.593400	153
820.584100	17
821.603000	13
834.600100	951
834.877700	19
835.183200	22
835.599800	600
835.877600	13
836.127700	14
836.600200	198
837.628900	37
838.630400	15
839.549000	121
840.579600	54
841.582900	14
842.503100	6
855.523300	29
856.535500	27
951.593300	7
