Mass spectrum: Saponarin; LC-ESI-ITTOF; MS; [M-H]-
Name: Saponarin
Name: 6-beta-D-Glucopyranosyl-7-(beta-D-glucopyranosyloxy)-5-hydroxy-2-(4-hydroxyphenyl)-4H-1-benzopyran-4-one
Name: 6-C-Glucosyl-7-O-glucosylapigenin
Name: 7-O-Glucosylisovitexin
Name: Isovitexin 7-glucoside
Name: Isovitexin 7-beta-D-glucopyranoside
Name: Isovitexin 7-beta-D-glucoside
Name: Petrocomoside
Class: Natural Product; Flavonoid
Formula: C27H30O15
Exact mass: 594.15847
SMILES: O([C@@H]5CO)[C@H]([C@@H]([C@H]([C@@H]5O)O)O)Oc(c1)c([C@H](O4)[C@@H]([C@H]([C@@H]([C@H]4CO)O)O)O)c(c(C2=O)c(OC(c(c3)ccc(O)c3)=C2)1)O
InChI: InChI=1S/C27H30O15/c28-7-15-19(32)22(35)24(37)26(40-15)18-14(41-27-25(38)23(36)20(33)16(8-29)42-27)6-13-17(21(18)34)11(31)5-12(39-13)9-1-3-10(30)4-2-9/h1-6,15-16,19-20,22-30,32-38H,7-8H2/t15-,16-,19-,20-,22+,23+,24-,25-,26+,27-/m1/s1
Instrument: LCMS-IT-TOF
Instrument type: LC-ESI-ITTOF
Ms type: MS
Ion mode: NEGATIVE
Column name: Waters Atlantis T3 (2.1 x 150 mm, 5 um)
Retention time: 9.355783 min
Base peak: 593.158400
m/z	relative intensity
311.052200	6
420.186800	8
431.110900	42
489.023300	3
581.722600	3
593.158400	999
593.369000	14
593.579700	20
593.907500	13
594.165200	307
594.586900	9
594.868100	6
595.149400	80
596.157900	14
656.136300	6
675.152400	6
707.134400	179
707.696700	5
708.156900	54
709.154600	8
832.230200	3
867.782600	3
890.233500	12
890.749700	14
891.725100	3
998.663300	3
1052.765100	3
1187.298800	9
1188.325500	5
1210.056100	3
1461.057100	3
1788.700300	3
1849.812600	3
