Mass spectrum: Quercetin; LC-ESI-ITTOF; MS; [M-H]-
Name: Quercetin
Name: 2-(3,4-Dihydroxyphenyl)-3,5,7-trihydroxy-4H-1-benzopyran-4-one
Name: 3,3',4',5,7-Pentahydroxy-flavone
Name: 3,4',5,5',7-Pentahydroxy-flavone
Name: 2-(3,4-Dihydroxyphenyl)-3,5,7-trihydroxy-4H-benzopyran-4-one
Name: 3,3',4',5,7-Pentahydroxyflavone
Name: 3,5,7,3',4'-Pentahydroxyflavone
Name: 3'-Hydroxykaempferol
Name: Corvitin
Name: Cyanidelonon 1522
Name: Korvitin
Name: Meletin
Name: Quercetine
Name: Quercetol
Name: Quertin
Name: Quertine
Name: Sophoretin
Name: Xanthaurine
Class: Natural Product; Flavonoid
Formula: C15H10O7
Exact mass: 302.04265
SMILES: Oc(c3)c(O)cc(c3)C(O1)=C(O)C(=O)c(c(O)2)c(cc(O)c2)1
InChI: InChI=1S/C15H10O7/c16-7-4-10(19)12-11(5-7)22-15(14(21)13(12)20)6-1-2-8(17)9(18)3-6/h1-5,16-19,21H
Instrument: LCMS-IT-TOF
Instrument type: LC-ESI-ITTOF
Ms type: MS
Ion mode: NEGATIVE
Column name: Waters Atlantis T3 (2.1 x 150 mm, 5 um)
Retention time: 14.697450 min
Base peak: 301.027900
m/z	relative intensity
255.032000	6
271.020500	41
272.033900	11
299.013800	144
300.028300	18
300.911200	8
301.027900	999
301.194600	18
301.344700	22
301.561600	13
301.812000	4
302.029100	168
302.563700	4
303.048700	31
317.024200	18
415.033500	24
603.086400	53
604.077900	17
