Mass spectrum: Demethoxycurcumin; LC-ESI-ITTOF; MS; [M-H]-
Name: Demethoxycurcumin
Name: 1,6-Heptadiene-3,5-dione, 1-(4-hydroxy-3-methoxyphenyl)-7-(4-hydroxyphenyl)-, (1E,6E)-
Name: 1,6-Heptadiene-3,5-dione, 1-(4-hydroxy-3-methoxyphenyl)-7-(p-hydroxyphenyl)-
Name: (1E,6E)-1-(4-Hydroxyphenyl)-7-(4-hydroxy-3-methoxyphenyl)-1,6-heptadiene-3,5-dione
Name: Curcumin II
Name: Desmethoxycurcumin
Name: Monodemethoxycurcumin
Class: Natural Product; Diarylheptanoid
Formula: C20H18O5
Exact mass: 338.11542
SMILES: COc(c1)c(O)ccc(C=CC(=O)CC(=O)C=Cc(c2)ccc(O)c2)1
InChI: InChI=1S/C20H18O5/c1-25-20-12-15(6-11-19(20)24)5-10-18(23)13-17(22)9-4-14-2-7-16(21)8-3-14/h2-12,21,24H,13H2,1H3/b9-4+,10-5+
Instrument: Shimadzu LC20A-IT-TOFMS
Instrument type: LC-ESI-ITTOF
Ms type: MS
Ion mode: NEGATIVE
Column name: Waters Atlantis T3 (2.1 x 150 mm, 5 um)
Retention time: 1297.663
Ion type: [M-H]-
m/z	relative intensity
337.1080	999
338.1119	235
