Mass spectrum: Saikosaponin B2; LC-ESI-ITTOF; MS; [M-H]-
Name: Saikosaponin B2
Name: beta-D-Galactopyranoside, (3beta,4alpha,16alpha)-16,23,28-trihydroxyoleana-11,13(18)-dien-3-yl 6-deoxy-3-O-beta-D-glucopyranosyl-
Class: Natural Product; Saponin
Formula: C42H68O13
Exact mass: 780.46599
SMILES: C(C(O)1)C(C)(C3(C)7)C(C=CC3(C(C6)(C)C(CC7)(C(CO)(C(C6)OC([H])(C(O)4)OC(C)C(C(OC([H])(C5O)OC(CO)C(C5O)O)4)O)C)[H])[H])=C(C2)C1(CCC2(C)C)CO
InChI: InChI=1S/C42H68O13/c1-21-29(47)34(55-35-32(50)31(49)30(48)24(18-43)53-35)33(51)36(52-21)54-28-11-12-38(4)25(39(28,5)19-44)10-13-40(6)26(38)9-8-22-23-16-37(2,3)14-15-42(23,20-45)27(46)17-41(22,40)7/h8-9,21,24-36,43-51H,10-20H2,1-7H3/t21-,24-,25-,26-,27-,28+,29+,30-,31+,32-,33-,34+,35+,36+,38+,39+,40-,41-,42-/m1/s1
Instrument: Shimadzu LC20A-IT-TOFMS
Instrument type: LC-ESI-ITTOF
Ms type: MS
Ion mode: NEGATIVE
Column name: Waters Atlantis T3 (2.1 x 150 mm, 5 um)
Retention time: 1150.300
Ion type: [M-H]-
m/z	relative intensity
112.9847	239
779.4593	999
780.4455	353
