Mass spectrum: Deoxycholic acid; LC-ESI-ITTOF; MS; [M-H]-
Name: Deoxycholic acid
Name: (3alpha,5beta,12alpha)-3,12-Dihydroxy-cholan-24-oic acid
Name: 3alpha,12alpha-Dihydroxy-5beta-cholan-24-oic acid
Name: 17beta-[1-Methyl-3-carboxypropyl]-etiocholane-3alpha,12alpha-diol
Name: 3alpha,12alpha-Dihydroxy-5beta-cholanic acid
Name: 3alpha,12alpha-Dihydroxy-5beta-cholanoic acid
Name: 3alpha,12alpha-Dihydroxycholanic acid
Name: 5beta-Cholanic acid-3alpha,12alpha-diol
Name: 5beta-Deoxycholic acid
Name: 7-Deoxycholic acid
Name: Cholerebic
Name: Deoxy-cholic acid
Name: Cholorebic
Name: Degalol
Name: Deoxycholatic acid
Name: Desoxycholic acid
Name: Droxolan
Name: Pyrochol
Name: Septochol
Class: Natural Product; Steroid
Formula: C24H40O4
Exact mass: 392.29266
SMILES: C(C1(C)4)([H])(C(C)CCC(O)=O)CCC1(C(C3([H])CC4O)([H])CCC(C3(C)2)([H])CC(O)CC2)[H]
InChI: InChI=1S/C24H40O4/c1-14(4-9-22(27)28)18-7-8-19-17-6-5-15-12-16(25)10-11-23(15,2)20(17)13-21(26)24(18,19)3/h14-21,25-26H,4-13H2,1-3H3,(H,27,28)/t14-,15-,16-,17+,18-,19+,20+,21+,23+,24-/m1/s1
Instrument: LCMS-IT-TOF
Instrument type: LC-ESI-ITTOF
Ms type: MS
Ion mode: NEGATIVE
Column name: Waters Atlantis T3 (2.1 x 150 mm, 5 um)
Retention time: 17.255783 min
Base peak: 391.275800
m/z	relative intensity
345.268800	12
347.289500	10
391.275800	999
391.465900	15
391.637000	24
391.903300	13
392.283900	264
392.626600	5
393.293300	41
451.297700	29
452.298600	9
454.303700	7
505.287600	12
783.583900	809
783.826000	10
784.148900	14
784.579500	429
784.848700	8
785.575700	139
786.599600	24
805.579000	13
