Mass spectrum: Flavocommelin; LC-ESI-ITTOF; MS; [M+H]+
Name: Flavocommelin
Name: 6-beta-D-Glucopyranosyl-2-[4-(beta-D-glucopyranosyloxy)phenyl]-5-hydroxy-7-methoxy-4H-1-benzopyran-4-one
Name: 4'-beta-D-Glucopyranoside flavocommelitin
Name: Swertisin 4'-beta-D-glucopyranoside
Class: Natural Product; Flavonoid
Formula: C28H32O15
Exact mass: 608.17412
SMILES: Oc(c14)c(C(C(O)5)OC(CO)C(O)C5O)c(OC)cc(OC(=CC4=O)c(c2)ccc(OC(O3)C(O)C(O)C(O)C3CO)c2)1
InChI: InChI=1S/C28H32O15/c1-39-14-7-15-18(22(34)19(14)27-25(37)23(35)20(32)16(8-29)42-27)12(31)6-13(41-15)10-2-4-11(5-3-10)40-28-26(38)24(36)21(33)17(9-30)43-28/h2-7,16-17,20-21,23-30,32-38H,8-9H2,1H3/t16-,17-,20-,21-,23+,24+,25-,26-,27+,28-/m1/s1
Instrument: LCMS-IT-TOF
Instrument type: LC-ESI-ITTOF
Ms type: MS
Ion mode: POSITIVE
Column name: Waters Atlantis T3 (2.1 x 150 mm, 5 um)
Retention time: 4.860000 min
Base peak: 609.191600
m/z	relative intensity
297.071300	15
327.076100	10
328.067400	5
411.106500	11
429.127900	7
459.137100	7
489.139700	27
490.139100	4
513.124100	9
543.155800	28
555.158500	9
573.166800	30
591.158800	92
592.187300	16
609.191600	999
609.405000	10
609.689700	18
609.927000	12
610.188100	316
610.900500	6
611.185500	73
612.207500	14
631.159600	140
632.173900	37
633.164900	14
1239.319800	36
1240.334900	27
1241.350400	6
