Mass spectrum: Genistein; LC-ESI-ITTOF; MS; [M-H]-
Name: Genistein
Name: 5,7-Dihydroxy-3-(4-hydroxyphenyl)-4H-1-benzopyran-4-one
Name: 4',5,7-Trihydroxy-isoflavone
Name: 4',5,7-Trihydroxyisoflavone
Name: 5,7,4'-Trihydroxyisoflavone
Name: Baichanin A
Name: Bonistein
Name: GeniVida
Name: Genisteol
Name: Genisterin
Name: Prunetol
Name: Sophoricol
Class: Natural Product; Flavonoid
Formula: C15H10O5
Exact mass: 270.05282
SMILES: Oc(c3)ccc(c3)C(=C1)C(=O)c(c(O)2)c(cc(O)c2)O1
InChI: InChI=1S/C15H10O5/c16-9-3-1-8(2-4-9)11-7-20-13-6-10(17)5-12(18)14(13)15(11)19/h1-7,16-18H
Instrument: LCMS-IT-TOF
Instrument type: LC-ESI-ITTOF
Ms type: MS
Ion mode: NEGATIVE
Column name: Waters Atlantis T3 (2.1 x 150 mm, 5 um)
Retention time: 16.422450 min
Base peak: 269.040000
m/z	relative intensity
210.549300	4
224.033000	4
226.224600	4
247.032900	4
268.252500	4
269.040000	999
269.181900	17
269.339600	28
269.544700	16
270.049800	194
270.349900	4
270.523700	4
270.903200	4
271.045500	24
306.446600	4
311.683700	4
352.971500	4
355.123200	4
356.047400	4
366.568300	4
368.299800	4
383.031900	17
456.251600	4
512.049600	4
537.071700	4
539.100100	312
539.546500	4
540.104600	102
540.618400	4
541.110100	27
561.073300	4
562.098100	4
568.861900	4
650.044500	4
666.017900	4
733.307200	4
735.442600	4
739.748900	4
761.681000	4
784.848700	4
788.838100	4
810.523400	4
863.027800	4
917.325100	4
921.521000	4
931.700700	4
953.562300	4
1007.815000	4
1023.310500	9
1075.731600	4
1076.204400	4
1083.372400	12
1091.929200	10
1097.970800	4
1119.826500	9
1124.461900	4
1131.691600	7
1136.869900	12
1139.041800	4
1139.333700	7
1149.345900	4
1150.421300	4
1166.743000	7
1167.859300	7
1176.380200	4
1187.414400	7
1189.998700	4
1203.995500	10
1210.071800	4
1210.907600	7
1212.948300	4
1219.416100	4
1283.146800	10
1289.488300	9
1290.316700	7
1295.811000	7
1309.997700	5
1311.145800	5
1329.512400	4
1370.077100	4
1372.532500	4
1414.899800	10
1436.488900	4
1440.024000	7
1492.086100	4
1495.205700	9
1538.092400	4
1551.992800	4
1559.877100	4
1637.213600	4
1643.869400	4
1658.865000	4
1662.938000	4
1772.976800	4
1797.216000	4
1812.403100	4
1872.958900	4
1882.953600	4
