Mass spectrum: Limonin; LC-ESI-ITTOF; MS; [M-H]-
Name: Limonin
Name: (2aR,4aR,4bR,5aS,8S,8aS,10aR,10bR,14aS)-8-(3-Furanyl)decahydro-2,2,4a,8a-tetramethyl-11H,13H-oxireno[d]pyrano[4',3':3,3a]isobenzofuro[5,4-f][2]benzopyran-4,6,13(2H,5aH)-trione
Name: 8-(3-Furyl)decahydro-2,2,4a,8a-tetramethyl-11H,13H-oxireno[d]pyrano[4',3':3,3a]isobenzofuro[5,4-f][2]benzopyran-4,6,13(2H,5aH)-trione
Name: Limonoic acid di-delta-lactone
Name: [2aR-(2aalpha,4abeta,4bR*,5aalpha,8alpha,8aalpha,10aalpha,10bR*,14aalpha)]-8-(3-Furanyl)decahydro-2,2,4a,8a-tetramethyl-11H,13H-oxireno[d]pyrano[4',3':3,3a]isobenzofuro[5,4-f][2]benzopyran-4,6,13(2H,5aH)-trione
Name: 7,16-Dioxo-7,16-dideoxylimondiol
Name: Citrolimonin
Name: Dictamnolactone
Name: Evodin
Name: Limonine
Name: Obaculactone
Class: Natural Product; Terpenoid
Formula: C26H30O8
Exact mass: 470.19407
SMILES: C(C721)(CCC(C(C)57)(C(C6)(C4([H])CC(O6)=O)C(CC5=O)([H])C(C)(C)O4)[H])(C(c(c3)coc3)OC(=O)C(O2)1)C
InChI: InChI=1S/C26H30O8/c1-22(2)15-9-16(27)24(4)14(25(15)12-31-18(28)10-17(25)33-22)5-7-23(3)19(13-6-8-30-11-13)32-21(29)20-26(23,24)34-20/h6,8,11,14-15,17,19-20H,5,7,9-10,12H2,1-4H3/t14-,15-,17-,19-,20+,23-,24-,25+,26+/m0/s1
Instrument: LCMS-IT-TOF
Instrument type: LC-ESI-ITTOF
Ms type: MS
Ion mode: NEGATIVE
Column name: Waters Atlantis T3 (2.1 x 150 mm, 5 um)
Retention time: 19.764117 min
Base peak: 469.179500
m/z	relative intensity
367.168500	5
411.148700	11
430.964000	8
469.179500	999
469.575000	20
469.845800	14
470.179100	188
471.200600	53
472.202400	9
494.959500	12
505.166600	14
507.155500	5
515.194200	36
516.198000	17
518.186700	5
529.203900	887
529.425000	12
529.624100	20
529.911600	12
530.199200	370
530.619700	10
531.217500	81
532.192500	225
533.190600	61
534.189600	9
535.211700	8
547.216600	10
548.206100	6
583.171000	19
939.381400	8
1206.408300	5
1512.502400	8
