Mass spectrum: Icariin; LC-ESI-ITTOF; MS; [M+CH3COOH-H]-
Name: Icariin
Name: 3-[(6-Deoxy-alpha-L-mannopyranosyl)oxy]-7-(beta-D-glucopyranosyloxy)-5-hydroxy-2-(4-methoxyphenyl)-8-(3-methyl-2-buten-1-yl)-4H-1-benzopyran-4-one
Class: Natural Product; Flavonoid
Formula: C33H40O15
Exact mass: 676.236721
SMILES: C[C@H]1[C@@H]([C@H]([C@H]([C@@H](O1)OC2=C(OC3=C(C2=O)C(=CC(=C3CC=C(C)C)O[C@H]4[C@@H]([C@H]([C@@H]([C@H](O4)CO)O)O)O)O)C5=CC=C(C=C5)OC)O)O)O
InChI: InChI=1S/C33H40O15/c1-13(2)5-10-17-19(45-33-28(42)26(40)23(37)20(12-34)46-33)11-18(35)21-24(38)31(48-32-27(41)25(39)22(36)14(3)44-32)29(47-30(17)21)15-6-8-16(43-4)9-7-15/h5-9,11,14,20,22-23,25-28,32-37,39-42H,10,12H2,1-4H3/t14-,20+,22-,23+,25+,26-,27+,28+,32-,33+/m0/s1
Instrument: LCMS-IT-TOF
Instrument type: LC-ESI-ITTOF
Ms type: MS
Ion mode: NEGATIVE
Column name: Waters Atlantis T3 (2.1 x 150 mm, 5 um)
Retention time: 14.846667 min
Base peak: 735.260200
m/z	relative intensity
367.120500	38
409.114700	11
513.181000	643
513.376900	13
513.572900	11
513.856000	10
514.182800	206
515.185700	29
516.167700	8
529.173100	74
530.168200	12
531.164400	8
555.170900	8
675.225500	25
705.242200	11
705.727200	10
711.226500	28
735.260200	999
735.729300	28
736.250700	419
736.798400	8
737.241900	94
738.233700	140
739.226300	49
740.219400	13
789.216100	498
789.783100	8
790.215200	194
791.242100	45
792.242600	6
940.786300	8
1013.344300	15
1013.833800	13
1014.354000	10
1014.843800	12
1043.358100	15
1043.854800	21
1044.351600	13
1045.842700	10
1189.402000	45
1190.396500	31
1351.466700	66
1351.961300	27
1352.456000	56
1352.986200	13
1353.445700	12
1411.504100	21
1412.515200	10
1413.490500	11
1690.048000	8
1690.522100	8
1691.075300	13
