Mass spectrum: Myricitrin; LC-ESI-ITTOF; MS; [M-H]-
Name: Myricitrin
Name: 3-[(6-Deoxy-alpha-L-mannopyranosyl)oxy]-5,7-dihydroxy-2-(3,4,5-trihydroxyphenyl)-4H-1-benzopyran-4-one
Name: 3,3',4',5,5',7-Hexahydroxyflavone 3-rhamnoside
Name: Myricetin 3-O-rhamnoside
Name: Myricetin 3-O-alpha-L-rhamnopyranoside
Name: Myricetin 3-O-alpha-L-rhamnoside
Name: Myricetin 3-O-alpha-L-rhamnpyronoside
Name: Myricetin 3-O-alpha-rhamnopyranoside
Name: Myricetin 3-rhamnoside
Name: Myricetin-3-O-alpha-rhamnoside
Name: Myricitrine
Name: Myricitroside
Class: Natural Product; Flavonoid
Formula: C21H20O12
Exact mass: 464.09548
SMILES: Oc(c4)cc(O1)c(c(O)4)C(=O)C(O[C@H](O3)[C@H](O)[C@H](O)[C@@H](O)[C@H](C)3)=C1c(c2)cc(O)c(O)c(O)2
InChI: InChI=1S/C21H20O12/c1-6-14(26)17(29)18(30)21(31-6)33-20-16(28)13-9(23)4-8(22)5-12(13)32-19(20)7-2-10(24)15(27)11(25)3-7/h2-6,14,17-18,21-27,29-30H,1H3/t6-,14-,17+,18+,21-/m0/s1
Instrument: LCMS-IT-TOF
Instrument type: LC-ESI-ITTOF
Ms type: MS
Ion mode: NEGATIVE
Column name: Waters Atlantis T3 (2.1 x 150 mm, 5 um)
Retention time: 10.572450 min
Base peak: 463.091700
m/z	relative intensity
316.024900	10
317.033600	9
426.755400	4
461.067400	7
463.091700	999
463.277900	19
463.464000	23
463.733000	13
464.084900	233
464.478300	6
465.099800	47
466.095100	9
489.535600	4
499.064200	14
526.082900	16
577.073500	67
578.089700	13
694.336700	4
927.189000	155
928.184200	75
929.179800	23
930.205300	8
953.621700	5
