Mass spectrum: 3',4',5,7-Tetramethylquercetin; LC-ESI-ITTOF; MS; [M+H]+
Name: Quercetin 5,7,3',4'-tetramethyl ether
Name: 2-(3,4-Dimethoxyphenyl)-3-hydroxy-5,7-dimethoxy-4H-1-benzopyran-4-one
Name: 3-Hydroxy-3',4',5,7-tetramethoxy-flavone
Name: 3-Hydroxy-3',4',5,7-tetramethoxyflavone
Name: 3-Hydroxy-5,7,3',4'-tetramethoxyflavone
Name: 3',4',5,7-Tetra-O-methylquercetin
Name: 3',4',5,7-Tetramethylquercetin
Name: Averionol
Name: Quercetin 3',4',5,7-tetramethyl ether
Class: Natural Product; Flavonoid
Formula: C19H18O7
Exact mass: 358.10525
SMILES: COc(c3)cc(O1)c(c(OC)3)C(=O)C(O)=C1c(c2)cc(OC)c(OC)c2
InChI: InChI=1S/C19H18O7/c1-22-11-8-14(25-4)16-15(9-11)26-19(18(21)17(16)20)10-5-6-12(23-2)13(7-10)24-3/h5-9,21H,1-4H3
Instrument: LCMS-IT-TOF
Instrument type: LC-ESI-ITTOF
Ms type: MS
Ion mode: POSITIVE
Column name: Waters Atlantis T3 (2.1 x 150 mm, 5 um)
Retention time: 20.218333 min
Base peak: 359.114300
m/z	relative intensity
299.050500	5
301.064700	11
315.080600	8
328.056300	6
329.066600	21
330.061000	5
343.089300	36
344.086800	44
345.085800	6
359.114300	999
359.278200	15
359.442200	16
359.697300	13
360.116600	227
361.120300	33
381.093700	47
382.088700	8
397.072600	10
422.120100	6
739.214300	99
740.207500	42
741.201400	13
755.159100	5
1977.110100	5
