Mass spectrum: Kaempferol; LC-ESI-ITTOF; MS; [M-H]-
Name: Kaempferol
Name: 3,5,7-Trihydroxy-2-(4-hydroxyphenyl)-4H-1-benzopyran-4-one
Name: 3,4',5,7-Tetrahydroxy-flavone
Name: 3,4',5,7-Tetrahydroxyflavone
Name: 3,5,7,4'-Tetrahydroxyflavone
Name: 3'-Deoxyquercetin
Name: 5,7,4'-Trihydroxyflavonol
Name: Kaempherol
Name: Kampcetin
Name: Kempferol
Name: Nimbecetin
Name: Pelargidenolon
Name: Pelargidenon
Name: Populnetin
Name: Rhamnolutein
Name: Rhamnolutin
Name: Robigenin
Name: Swartziol
Name: Trifolitin
Class: Natural Product; Flavonoid
Formula: C15H10O6
Exact mass: 286.04774
SMILES: Oc(c3)ccc(c3)C(O1)=C(O)C(=O)c(c(O)2)c(cc(O)c2)1
InChI: InChI=1S/C15H10O6/c16-8-3-1-7(2-4-8)15-14(20)13(19)12-10(18)5-9(17)6-11(12)21-15/h1-6,16-18,20H
Instrument: LCMS-IT-TOF
Instrument type: LC-ESI-ITTOF
Ms type: MS
Ion mode: NEGATIVE
Column name: Waters Atlantis T3 (2.1 x 150 mm, 5 um)
Retention time: 16.655783 min
Base peak: 285.032900
m/z	relative intensity
283.024700	35
284.935600	15
285.032900	999
285.195200	17
285.341200	21
285.552300	12
286.039700	162
286.364800	6
287.048200	17
288.042200	6
301.020500	9
348.024100	7
399.031400	39
400.030200	19
484.784600	6
571.087300	466
571.294000	7
571.569600	7
571.822400	7
572.098200	156
573.086900	42
574.099500	6
587.089000	13
588.090600	7
593.064700	6
607.046900	10
762.689200	10
766.063400	7
837.807000	9
873.107300	6
874.129800	7
881.503900	9
884.359400	7
910.498100	11
977.869900	13
1033.325400	9
1040.783300	6
1053.719900	4
1058.716800	6
1072.645100	10
1075.889200	9
1078.191400	10
1099.117400	9
1105.562300	9
1160.940400	10
1161.628000	13
1185.693100	6
1192.652100	7
1201.462700	7
1359.108100	9
1393.151400	6
