Mass spectrum: Loganin; LC-ESI-ITTOF; MS; [M+CH3COOH-H]-
Name: Loganin
Name: Cyclopenta[c]pyran-4-carboxylic acid, 1-(beta-D-glucopyranosyloxy)-1,4a,5,6,7,7a-hexahydro-6-hydroxy-7-methyl-, methyl ester, (1S,4aS,6S,7R,7aS)-
Name: Cyclopenta[c]pyran-4-carboxylic acid, 1-(beta-D-glucopyranosyloxy)-1,4a,5,6,7,7a-hexahydro-6-hydroxy-7-methyl-, methyl ester
Name: Cyclopenta[c]pyran-4-carboxylic acid, 1-(beta-D-glucopyranosyloxy)-1,4a,5,6,7,7a-hexahydro-6-hydroxy-7-methyl-, methyl ester, [1S-(1alpha,4aalpha,6alpha,7alpha,7aalpha)]-
Name: (-)-Loganin
Name: (1S)-1alpha-(beta-D-Glucopyranosyloxy)-1,4aalpha,5,6,7,7aalpha-hexahydro-6alpha-hydroxy-7alpha-methylcyclopenta[c]pyran-4-carboxylic acid methyl ester
Name: 7-Hydroxy-6-desoxyverbenalin
Name: Loganoside
Name: NSC 606403
Class: Natural Product; Iridoid
Formula: C17H26O10
Exact mass: 390.15260
SMILES: COC(=O)C(=C2)C([H])(C3)C([H])(C(C)C(O)3)C(O2)OC([H])(O1)C(O)C(O)C(O)C(CO)1
InChI: InChI=1S/C17H26O10/c1-6-9(19)3-7-8(15(23)24-2)5-25-16(11(6)7)27-17-14(22)13(21)12(20)10(4-18)26-17/h5-7,9-14,16-22H,3-4H2,1-2H3/t6-,7+,9-,10+,11+,12+,13-,14+,16-,17-/m0/s1
Instrument: Shimadzu LC20A-IT-TOFMS
Instrument type: LC-ESI-ITTOF
Ms type: MS
Ion mode: NEGATIVE
Column name: Waters Atlantis T3 (2.1 x 150 mm, 5 um)
Retention time: 526.299
Ion type: [M+CH3COOH-H]-
m/z	relative intensity
227.0912	272
449.1665	999
450.1672	209
451.1714	51
