Mass spectrum: Isoengelitin; LC-ESI-ITTOF; MS; [M-H]-
Name: Isoengelitin
Name: (2R,3S)-3-[(6-Deoxy-alpha-L-mannopyranosyl)oxy]-2,3-dihydro-5,7-dihydroxy-2-(4-hydroxyphenyl)-4H-1-benzopyran-4-one
Name: (2R-cis)-3-[(6-Deoxy-alpha-L-mannopyranosyl)oxy]-2,3-dihydro-5,7-dihydroxy-2-(4-hydroxyphenyl)-4H-1-Benzopyran-4-one
Name: Isoengeletin
Class: Natural Product; Flavonoid
Formula: C21H22O10
Exact mass: 434.12130
SMILES: Oc(c4)ccc(c4)C(O1)C(OC([H])(O3)C(O)C(O)C(O)C(C)3)C(=O)c(c(O)2)c(cc(O)c2)1
InChI: InChI=1S/C21H22O10/c1-8-15(25)17(27)18(28)21(29-8)31-20-16(26)14-12(24)6-11(23)7-13(14)30-19(20)9-2-4-10(22)5-3-9/h2-8,15,17-25,27-28H,1H3/t8-,15-,17+,18+,19+,20+,21-/m0/s1
Instrument: LCMS-IT-TOF
Instrument type: LC-ESI-ITTOF
Ms type: MS
Ion mode: NEGATIVE
Column name: Waters Atlantis T3 (2.1 x 150 mm, 5 um)
Retention time: 12.472450 min
Base peak: 433.111600
m/z	relative intensity
269.040000	55
270.049800	5
287.064500	14
432.971700	7
433.111600	999
433.311700	17
433.491700	24
433.751800	12
434.112200	224
435.113800	41
436.116700	11
469.087400	7
496.106100	36
497.112600	8
547.117300	74
548.106700	14
549.097000	7
867.239400	120
868.230100	53
869.249800	17
870.241700	3
