Mass spectrum: Cinobufagin; LC-ESI-ITTOF; MS; [M+H]+
Name: Cinobufagin
Name: Cinobufagine
Name: Bufa-20,22-dienolide, 16-(acetyloxy)-14,15-epoxy-3-hydroxy-, (3beta,5beta,15beta,16beta)-
Name: 5beta-Bufa-20,22-dienolide, 14,15beta-epoxy-3beta,16beta-dihydroxy-, 16-acetate
Name: 14,15-Epoxy-14H-cyclopenta[a]phenanthrene, bufa-20,22-dienolide deriv.
Name: NSC 90325
Class: Natural Product; Steroid
Formula: C26H34O6
Exact mass: 442.23554
SMILES: C(OC(C5C(C=6)=COC(=O)C6)C(C(C52C)(C(C4)(C(C(C)(C([H])3C4)CCC(C3)O)(CC2)[H])[H])1)O1)(C)=O
InChI: InChI=1S/C26H34O6/c1-14(27)31-22-21(15-4-7-20(29)30-13-15)25(3)11-9-18-19(26(25)23(22)32-26)6-5-16-12-17(28)8-10-24(16,18)2/h4,7,13,16-19,21-23,28H,5-6,8-12H2,1-3H3/t16-,17+,18+,19-,21+,22-,23-,24+,25-,26-/m1/s1
Instrument: Shimadzu LC20A-IT-TOFMS
Instrument type: LC-ESI-ITTOF
Ms type: MS
Ion mode: POSITIVE
Column name: Waters Atlantis T3 (2.1 x 150 mm, 5 um)
Retention time: 1268.901
Ion type: [M+H]+
m/z	relative intensity
443.2425	999
444.2461	309
