Mass spectrum: Genistein; LC-ESI-ITTOF; MS; [M+H]+
Name: Genistein
Name: 5,7-Dihydroxy-3-(4-hydroxyphenyl)-4H-1-benzopyran-4-one
Name: 4',5,7-Trihydroxy-isoflavone
Name: 4',5,7-Trihydroxyisoflavone
Name: 5,7,4'-Trihydroxyisoflavone
Name: Baichanin A
Name: Bonistein
Name: GeniVida
Name: Genisteol
Name: Genisterin
Name: Prunetol
Name: Sophoricol
Class: Natural Product; Flavonoid
Formula: C15H10O5
Exact mass: 270.05282
SMILES: Oc(c3)ccc(c3)C(=C1)C(=O)c(c(O)2)c(cc(O)c2)O1
InChI: InChI=1S/C15H10O5/c16-9-3-1-8(2-4-9)11-7-20-13-6-10(17)5-12(18)14(13)15(11)19/h1-7,16-18H
Instrument: LCMS-IT-TOF
Instrument type: LC-ESI-ITTOF
Ms type: MS
Ion mode: POSITIVE
Column name: Waters Atlantis T3 (2.1 x 150 mm, 5 um)
Retention time: 16.343333 min
Base peak: 271.051000
m/z	relative intensity
215.068100	5
243.066800	9
271.051000	999
271.209200	15
271.383300	22
271.557500	11
272.064500	148
273.064000	23
539.087400	4
645.044400	5
846.633900	3
