Mass spectrum: Cinobufagin; LC-ESI-ITTOF; MS; [M+CH3COOH-H]-
Name: Cinobufagin
Name: (3beta,5beta,15beta,16beta)-16-(Acetyloxy)-14,15-epoxy-3-hydroxy-bufa-20,22-dienolide
Name: 14,15beta-Epoxy-3beta,16beta-dihydroxy-5beta-bufa-20,22-dienolide 16-acetate
Name: 14,15-Epoxy-14H-cyclopenta[a]phenanthrene bufa-20,22-dienolide deriv.
Name: Cinobufagine
Class: Natural Product; Steroid
Formula: C26H34O6
Exact mass: 442.23554
SMILES: C(OC(C5C(C=6)=COC(=O)C6)C(C(C52C)(C(C4)(C(C(C)(C([H])3C4)CCC(C3)O)(CC2)[H])[H])1)O1)(C)=O
InChI: InChI=1S/C26H34O6/c1-14(27)31-22-21(15-4-7-20(29)30-13-15)25(3)11-9-18-19(26(25)23(22)32-26)6-5-16-12-17(28)8-10-24(16,18)2/h4,7,13,16-19,21-23,28H,5-6,8-12H2,1-3H3/t16-,17+,18+,19-,21+,22-,23-,24+,25-,26-/m1/s1
Instrument: Shimadzu LC20A-IT-TOFMS
Instrument type: LC-ESI-ITTOF
Ms type: MS
Ion mode: NEGATIVE
Column name: Waters Atlantis T3 (2.1 x 150 mm, 5 um)
Retention time: 21.397450 min
Base peak: 501.243300
Ion type: [M+CH3COOH-H]-
m/z	relative intensity
222.995600	4
273.769100	4
381.202000	10
385.303000	4
399.214600	4
400.213600	4
401.810800	4
406.757000	4
415.250700	7
441.218100	9
459.241700	61
460.230700	24
462.873200	4
477.206300	21
479.202600	10
485.216500	29
486.211900	11
487.229500	47
488.226900	19
492.162900	4
495.472800	4
501.243300	999
501.458500	15
501.652200	19
501.932000	12
502.255000	392
502.578100	7
503.246100	164
504.238300	131
505.231300	30
506.225400	7
507.177200	4
712.057100	4
759.120200	4
821.265200	4
847.775700	4
901.482700	4
915.879600	4
929.101200	4
934.028600	4
962.435500	4
976.558200	4
1010.298100	7
1062.702500	4
1080.317600	4
1081.739400	4
1086.390400	4
1087.721100	4
1143.013100	4
1152.062700	4
1189.843900	4
1196.017300	4
1241.301800	4
1754.293100	4
1835.261400	4
