Mass spectrum: Fortunellin; LC-ESI-ITTOF; MS; [M+H]+
Name: Fortunellin
Name: 7-[[2-O-(6-Deoxy-alpha-L-mannopyranosyl)-beta-D-glucopyranosyl]oxy]-5-hydroxy-2-(4-methoxyphenyl)-4H-1-benzopyran-4-one
Name: Acacetin 7-O-neohesperidoside
Class: Natural Product; Flavonoid
Formula: C28H32O14
Exact mass: 592.17921
SMILES: c(O)(c3)c(C(=O)2)c(cc3OC(O5)C(C(O)C(O)C(CO)5)OC(O4)C(O)C(O)C(O)C(C)4)OC(=C2)c(c1)ccc(OC)c1
InChI: InChI=1S/C28H32O14/c1-11-21(32)23(34)25(36)27(38-11)42-26-24(35)22(33)19(10-29)41-28(26)39-14-7-15(30)20-16(31)9-17(40-18(20)8-14)12-3-5-13(37-2)6-4-12/h3-9,11,19,21-30,32-36H,10H2,1-2H3/t11-,19+,21-,22+,23+,24-,25+,26+,27-,28+/m0/s1
Instrument: LCMS-IT-TOF
Instrument type: LC-ESI-ITTOF
Ms type: MS
Ion mode: POSITIVE
Column name: Waters Atlantis T3 (2.1 x 150 mm, 5 um)
Retention time: 13.385000 min
Base peak: 593.193200
m/z	relative intensity
242.049100	18
270.055200	6
285.071000	218
286.077800	15
447.129600	19
593.193200	999
593.427300	16
593.684800	18
593.919000	10
594.200100	353
594.949900	6
595.184300	77
596.192800	6
615.159400	39
616.160800	10
631.135400	7
1185.352500	51
1186.378400	35
1187.371500	8
1207.356200	9
1208.358100	4
