Mass spectrum: Scoparin; LC-ESI-ITTOF; MS; [M-H]-
Name: Scoparin
Name: Chrysoeriol 8-C-glucoside
Name: 8-beta-D-Glucopyranosyl-5,7-dihydroxy-2-(4-hydroxy-3-methoxyphenyl)-4H-1-benzopyran-4-one
Name: 8-C-beta-D-Glucopyranosylchrysoeriol
Class: Natural Product; Flavonoid
Formula: C22H22O11
Exact mass: 462.116211524
SMILES: COC1=C(C=CC(=C1)C2=CC(=O)C3=C(O2)C(=C(C=C3O)O)[C@H]4[C@@H]([C@H]([C@@H]([C@H](O4)CO)O)O)O)O
InChI: InChI=1S/C22H22O11/c1-31-14-4-8(2-3-9(14)24)13-6-12(27)16-10(25)5-11(26)17(21(16)32-13)22-20(30)19(29)18(28)15(7-23)33-22/h2-6,15,18-20,22-26,28-30H,7H2,1H3/t15-,18-,19+,20-,22+/m1/s1
Instrument: LCMS-IT-TOF
Instrument type: LC-ESI-ITTOF
Ms type: MS
Ion mode: NEGATIVE
Column name: Waters Atlantis T3 (2.1 x 150 mm, 5 um)
Retention time: 10.872450 min
Base peak: 461.106000
m/z	relative intensity
298.039500	20
313.055300	6
341.063600	222
341.400900	6
342.075900	15
461.106000	999
461.312300	17
461.498100	20
461.745900	9
462.117700	260
463.109800	56
464.123700	9
524.099600	7
575.112700	240
575.527600	7
576.104100	79
577.119400	17
923.220600	78
924.242800	35
925.236400	7
946.165900	6
