Mass spectrum: Scutellarein tetraacetate; LC-ESI-ITTOF; MS; [M+H]+
Name: Scutellarein tetraacetate
Name: 5,6,7-Tris(acetyloxy)-2-[4-(acetyloxy)phenyl]-4H-1-benzopyran-4-one
Name: 4',5,6,7-Tetrahydroxy-flavone tetraacetate
Class: Natural Product; Flavonoid
Formula: C23H18O10
Exact mass: 454.09000
SMILES: CC(=O)Oc(c3)ccc(c3)C(=C2)Oc(c1)c(C(=O)2)c(OC(C)=O)c(OC(C)=O)c(OC(C)=O)1
InChI: InChI=1S/C23H18O10/c1-11(24)29-16-7-5-15(6-8-16)18-9-17(28)21-19(33-18)10-20(30-12(2)25)22(31-13(3)26)23(21)32-14(4)27/h5-10H,1-4H3
Instrument: LCMS-IT-TOF
Instrument type: LC-ESI-ITTOF
Ms type: MS
Ion mode: POSITIVE
Column name: Waters Atlantis T3 (2.1 x 150 mm, 5 um)
Retention time: 21.493333 min
Base peak: 455.098300
m/z	relative intensity
251.545400	4
287.056300	232
287.626400	4
288.050400	30
289.046100	7
329.064400	90
329.866700	4
330.058800	10
330.582700	4
371.083700	204
371.639200	7
371.861600	4
372.084000	36
373.085700	9
413.084100	490
413.279400	9
413.494300	7
413.689800	9
414.100400	93
415.098300	14
455.098300	999
455.282900	14
455.529000	16
455.754600	14
456.103400	269
456.514000	4
456.781000	4
457.109600	48
477.067800	33
478.054800	7
493.046800	33
494.071600	10
565.796000	4
569.574000	4
642.526900	4
794.690200	4
909.182000	20
910.196500	10
931.162200	7
939.921700	4
1020.449000	4
1029.741200	4
1286.429300	4
1433.629800	4
1734.374400	4
1765.247200	4
