Mass spectrum: Alisol A; LC-ESI-ITTOF; MS; [M+CH3COOH-H]-
Name: Alisol A
Name: Dammar-13(17)-en-3-one, 11,23,24,25-tetrahydroxy-, (8alpha,9beta,11beta,14beta,23S,24R)-
Name: 8alpha,9beta,14beta-Dammar-13(17)-en-3-one, 11beta,23,24,25-tetrahydroxy-,(23S,24R)-
Name: 11,23,24,25-Tetrahydroxyprotost-13(17)-en-3-one, (11beta,23S,24R)-form
Class: Natural Product; Saponin
Formula: C30H50O5
Exact mass: 490.36582
SMILES: C(CC(C(=C14)CCC1(C(C([H])2C(O)C4)(C)CCC(C(C)(C)3)([H])C(CCC3=O)2C)C)C)(C(C(C)(C)O)O)O
InChI: InChI=1S/C30H50O5/c1-17(15-21(32)25(34)27(4,5)35)18-9-13-29(7)19(18)16-20(31)24-28(6)12-11-23(33)26(2,3)22(28)10-14-30(24,29)8/h17,20-22,24-25,31-32,34-35H,9-16H2,1-8H3/t17-,20+,21+,22+,24+,25-,28+,29+,30+/m1/s1
Instrument: Shimadzu LC20A-IT-TOFMS
Instrument type: LC-ESI-ITTOF
Ms type: MS
Ion mode: NEGATIVE
Ionization: ESI
Column name: Waters Atlantis T3 (2.1 x 150 mm, 5 um)
Retention time: 1551.599 sec
Ion type: [M+CH3COOH-H]-
m/z	relative intensity	assigned
549.3796	999	[M+CH3COOH-H]-
550.3825	367	
551.3839	83	
603.3488	152	
604.3552	71	
