Mass spectrum: Apigenin; LC-ESI-ITTOF; MS; [M+H]+
Name: Apigenin
Name: 5,7-Dihydroxy-2-(4-hydroxyphenyl)-4H-1-benzopyran-4-one
Name: 4',5,7-Trihydroxy-flavone
Name: 4',5,7-Trihydroxyflavone
Name: 5,7,4'-Trihydroxyflavone
Name: 5,7-Dihydroxy-2-(4-hydroxyphenyl)chromen-4-one
Name: 5,7-Dihydroxy-2-p-hydroxyphenyl-4-chromenone
Name: Apegenin
Name: Apigenine
Name: Apigenol
Name: Chamomile
Name: Versulin
Class: Natural Product; Flavonoid
Formula: C15H10O5
Exact mass: 270.05282
SMILES: Oc(c3)ccc(c3)C(=C1)Oc(c2)c(c(O)cc(O)2)C(=O)1
InChI: InChI=1S/C15H10O5/c16-9-3-1-8(2-4-9)13-7-12(19)15-11(18)5-10(17)6-14(15)20-13/h1-7,16-18H
Instrument: LCMS-IT-TOF
Instrument type: LC-ESI-ITTOF
Ms type: MS
Ion mode: POSITIVE
Column name: Waters Atlantis T3 (2.1 x 150 mm, 5 um)
Retention time: 16.401667 min
Base peak: 271.052300
Ion type: [M+H]+
m/z	relative intensity
243.052900	3
271.052300	999
271.210500	16
271.353000	21
271.558800	12
272.065800	161
273.065300	23
444.189400	6
563.066700	5
565.075200	8
579.049400	9
580.067300	3
606.018500	6
695.111600	4
695.618400	8
849.098700	7
1016.058600	3
