Mass spectrum: (-)-Epigallocatechin gallate; LC-ESI-ITTOF; MS; [M+H]+
Name: (-)-Epigallocatechin gallate
Name: [(2R,3R)-5,7-dihydroxy-2-(3,4,5-trihydroxyphenyl)-3,4-dihydro-2H-chromen-3-yl] 3,4,5-trihydroxybenzoate
Name: 3-O-Galloyl-(-)-epigallocatechin
Name: Benzoic acid, 3,4,5-trihydroxy-, (2R,3R)-3,4-dihydro-5,7-dihydroxy-2-(3,4,5-trihydroxyphenyl)-2H-1-benzopyran-3-yl ester
Name: (-)-Epigallocatechin 3-gallate
Name: Epigallocatechin-3-monogallate
Name: (-)-Epigallocatechin 3-O-gallate
Name: (-)-Epigallocatechol gallate
Name: Gallic acid, 3-ester with epigallocatechol, (-)-
Name: L-Epigallocatechin gallate
Class: Natural Product; Tannin
Formula: C22H18O11
Exact mass: 458.08491
SMILES: C1[C@H]([C@H](OC2=CC(=CC(=C21)O)O)C3=CC(=C(C(=C3)O)O)O)OC(=O)C4=CC(=C(C(=C4)O)O)O
InChI: InChI=1S/C22H18O11/c23-10-5-12(24)11-7-18(33-22(31)9-3-15(27)20(30)16(28)4-9)21(32-17(11)6-10)8-1-13(25)19(29)14(26)2-8/h1-6,18,21,23-30H,7H2/t18-,21-/m1/s1
Instrument: Shimadzu LC20A-IT-TOFMS
Instrument type: LC-ESI-ITTOF
Ms type: MS
Ion mode: POSITIVE
Column name: Waters Atlantis T3 (2.1 x 150 mm, 5 um)
Retention time: 558.400
Ion type: [M+H]+
m/z	relative intensity
289.0705	193
459.0917	999
460.0949	268
461.0940	51
934.2003	57
