Mass spectrum: Isofraxidin; LC-ESI-ITTOF; MS; [M-H]-
Name: Isofraxidin
Name: 2H-1-Benzopyran-2-one, 7-hydroxy-6,8-dimethoxy-
Name: Coumarin, 7-hydroxy-6,8-dimethoxy-
Name: Umbelliferone, 6,8-dimethoxy-
Name: 6,8-Dimethoxy-7-hydroxycoumarin
Name: NSC 324637
Name: Phytodolor
Class: Natural Product; Coumarin
Formula: C11H10O5
Exact mass: 222.05282
SMILES: COc(c1)c(O)c(OC)c(O2)c(C=CC(=O)2)1
InChI: InChI=1S/C11H10O5/c1-14-7-5-6-3-4-8(12)16-10(6)11(15-2)9(7)13/h3-5,13H,1-2H3
Instrument: Shimadzu LC20A-IT-TOFMS
Instrument type: LC-ESI-ITTOF
Ms type: MS
Ion mode: NEGATIVE
Column name: Waters Atlantis T3 (2.1 x 150 mm, 5 um)
Retention time: 700.846
Ion type: [M-H]-
m/z	relative intensity
190.9993	64
206.0235	153
221.0457	999
222.0480	126
239.0180	57
440.0738	224
441.0790	181
