Mass spectrum: Fukugetin; LC-ESI-ITTOF; MS2; [M+H]+
Name: Fukugetin
Name: (2R,3S)-2'-(3,4-Dihydroxyphenyl)-2,3-dihydro-5,5',7,7'-tetrahydroxy-2-(4-hydroxyphenyl)- [3,8'-bi-4H-1-benzopyran]-4,4'-dione
Name: 3-[2-(3,4-Dihydroxyphenyl)-5,7-dihydroxy-4-oxo-4H-1-benzopyran-8-yl]-4',5,7-trihydroxy-flavanone
Name: (+)-Morelloflavone
Name: Morelloflavone
Class: Natural Product; Flavonoid
Formula: C30H20O11
Exact mass: 556.10056
SMILES: c(O)(c1)cc(O)c(C3=O)c1OC(C3c(c54)c(O)cc(O)c4C(C=C(c(c6)ccc(O)c6O)O5)=O)c(c2)ccc(c2)O
InChI: InChI=1S/C30H20O11/c31-14-4-1-12(2-5-14)29-27(28(39)25-18(35)8-15(32)9-23(25)41-29)26-20(37)10-19(36)24-21(38)11-22(40-30(24)26)13-3-6-16(33)17(34)7-13/h1-11,27,29,31-37H/t27-,29+/m1/s1
Instrument: LCMS-IT-TOF
Instrument type: LC-ESI-ITTOF
Ms type: MS2
Ion mode: POSITIVE
Column name: Waters Atlantis T3 (2.1 x 150 mm, 5 um)
Retention time: 15.658533 min
Base peak: 403.079500
Precursor m/z: 557.560900
m/z	relative intensity
171.064200	4
173.055800	4
203.064500	4
213.043600	4
214.054600	4
223.032300	28
229.042400	5
231.068300	17
235.029100	8
241.048400	49
245.048400	9
269.045500	29
271.051000	9
285.054800	6
311.045300	9
314.035300	7
325.028500	10
327.041300	9
347.081000	7
357.070000	14
375.087200	46
381.047700	4
392.100400	5
403.079500	999
403.253200	14
403.426900	24
403.677900	17
404.083400	269
404.431200	9
405.088500	177
405.494800	5
406.094900	72
431.081000	685
431.420300	13
431.719700	8
432.079200	262
432.718700	4
433.058600	6
450.060500	7
451.060000	25
