Mass spectrum: Curcumin; LC-ESI-ITTOF; MS; [M+H]+
Name: Curcumin
Name: 1,6-Heptadiene-3,5-dione, 1,7-bis(4-hydroxy-3-methoxyphenyl)-, (1E,6E)-
Name: 1,6-Heptadiene-3,5-dione, 1,7-bis(4-hydroxy-3-methoxyphenyl)-, (E,E)-
Name: (1E,6E)-1,7-Bis(4-hydroxy-3-methoxyphenyl)-1,6-heptadiene-3,5-dione
Name: (E)-1,7-Bis(4-hydroxy-3-methoxyphenyl)-1,6-heptadiene-3,5-dione
Name: (E,E)-1,7-Bis(4-hydroxy-3-methoxyphenyl)-1,6-heptadiene-3,5-dione
Name: C.I. 75300
Name: C.I. Natural yellow 3
Name: Curcumin I
Name: Curcumine
Name: Diferuloylmethane
Name: Indian saffron
Name: NSC 32982
Name: Natural yellow 3
Name: San-Ei Curcumine AL
Name: San-Ei Gen Curcumine AL
Name: Terra merita
Name: trans,trans-Curcumin
Class: Natural Product; Diarylheptanoid
Formula: C21H20O6
Exact mass: 368.12599
SMILES: COc(c1)c(O)ccc(C=CC(=O)CC(=O)C=Cc(c2)cc(OC)c(O)c2)1
InChI: InChI=1S/C21H20O6/c1-26-20-11-14(5-9-18(20)24)3-7-16(22)13-17(23)8-4-15-6-10-19(25)21(12-15)27-2/h3-12,24-25H,13H2,1-2H3/b7-3+,8-4+
Instrument: Shimadzu LC20A-IT-TOFMS
Instrument type: LC-ESI-ITTOF
Ms type: MS
Ion mode: POSITIVE
Column name: Waters Atlantis T3 (2.1 x 150 mm, 5 um)
Retention time: 1324.600
Ion type: [M+H]+
m/z	relative intensity
245.0795	72
369.1323	999
370.1356	238
391.1123	287
392.1195	72
407.0862	369
408.0902	89
759.2337	86
