Mass spectrum: Epihesperidin; LC-ESI-ITTOF; MS; [M-H]-
Name: Epihesperidin
Name: 4H-1-Benzopyran-4-one, 7-[[6-O-(6-deoxy-alpha-L-mannopyranosyl)-beta-D-glucopyranosyl]oxy]-2,3-dihydro-5-hydroxy-2-(3-hydroxy-4-methoxyphenyl)-, (2R)-
Name: (2R)-Hesperidin
Class: Natural Product; Flavonoid
Formula: C28H34O15
Exact mass: 610.18977
SMILES: c(O)(c3)c(C(=O)2)c(cc3OC(O4)C(O)C(O)C(O)C(COC(O5)C(O)C(C(C5C)O)O)4)OC(C2)c(c1)ccc(c1O)OC
InChI: InChI=1S/C28H34O15/c1-10-21(32)23(34)25(36)27(40-10)39-9-19-22(33)24(35)26(37)28(43-19)41-12-6-14(30)20-15(31)8-17(42-18(20)7-12)11-3-4-16(38-2)13(29)5-11/h3-7,10,17,19,21-30,32-37H,8-9H2,1-2H3/t10-,17+,19+,21-,22+,23+,24-,25+,26+,27+,28+/m0/s1
Instrument: Shimadzu LC20A-IT-TOFMS
Instrument type: LC-ESI-ITTOF
Ms type: MS
Ion mode: NEGATIVE
Column name: Waters Atlantis T3 (2.1 x 150 mm, 5 um)
Retention time: 726.699 sec
Ion type: [M-H]-
m/z	relative intensity
301.0684	75
609.1793	999
610.1827	320
611.1861	90
672.1692	58
723.1751	254
724.1758	92
