Mass spectrum: Fortunellin; LC-ESI-ITTOF; MS; [M+CH3COOH-H]-
Name: Fortunellin
Name: Acacetin-7-O-neohesperidoside
Name: 5-hydroxy-2-(4-methoxyphenyl)-7-[3,4,5-trihydroxy-6-[(3,4,5-trihydroxy-6-methyl-oxan-2-yl)oxymethyl]oxan-2-yl]oxy-chromen-4-one
Name: 7-[[2-O-(6-Deoxy-alpha-L-mannopyranosyl)-beta-D-glucopyranosyl]oxy]-5-hydroxy-2-(4-methoxyphenyl)-4H-1-benzopyran-4-one
Name: Acac-7-Glc-2pp-Man
Class: Natural Product; Flavonoid
Formula: C28H32O14
Exact mass: 592.17921
SMILES: C[C@H]1[C@@H]([C@H]([C@H]([C@@H](O1)O[C@@H]2[C@H]([C@@H]([C@H](O[C@H]2OC3=CC(=C4C(=C3)OC(=CC4=O)C5=CC=C(C=C5)OC)O)CO)O)O)O)O)O
InChI: InChI=1S/C28H32O14/c1-11-21(32)23(34)25(36)27(38-11)42-26-24(35)22(33)19(10-29)41-28(26)39-14-7-15(30)20-16(31)9-17(40-18(20)8-14)12-3-5-13(37-2)6-4-12/h3-9,11,19,21-30,32-36H,10H2,1-2H3/t11-,19+,21-,22+,23+,24-,25+,26+,27-,28+/m0/s1
Instrument: LCMS-IT-TOF
Instrument type: LC-ESI-ITTOF
Ms type: MS
Ion mode: NEGATIVE
Column name: Waters Atlantis T3 (2.1 x 150 mm, 5 um)
Retention time: 13.289117 min
Base peak: 651.196500
m/z	relative intensity
268.032200	9
283.057000	12
590.983800	10
591.170700	818
591.381000	10
591.591300	14
591.941900	12
592.175800	225
592.900900	6
593.181700	80
627.145900	12
628.132900	12
629.144900	12
651.196500	999
651.638000	20
652.202300	295
653.208900	84
654.167100	137
655.175200	30
705.165700	323
706.161300	99
707.157500	20
708.154500	7
888.937700	10
951.664100	9
1017.049100	7
1183.344900	117
1184.369900	65
1185.362200	37
1186.355000	14
1191.424500	10
1243.357800	113
1243.866200	7
1244.374600	79
1245.391700	28
1246.375400	9
