Mass spectrum: Aconitine; LC-ESI-ITTOF; MS; [M+H]+
Name: Aconitine
Name: NSC56464
Name: 16-Ethyl-1alpha,6alpha,19beta-trimethoxy-4-(methoxymethyl)-aconitane-3alpha,8,10alpha,11,18alpha-pentol, 8-acetate 10-benzoate
Name: 20-ethyl-3alpha,13,15alpha-trihydroxy-1alpha,6alpha,16beta-trimethoxy-4-(methoxymethyl)aconitane-8,14alpha-diyl 8-acetate 14-benzoate
Class: Natural Product; Alkaloid
Formula: C34H47NO11
Exact mass: 645.31491
SMILES: COC(C7)C(C61[H])(C5([H])2)C(N(CC(COC)6C7O)CC)([H])C(C(C5([H])3)(C(C(OC)C(O)(C(OC(=O)c(c4)cccc4)3)C2)O)OC(C)=O)([H])C1OC
InChI: InChI=1S/C34H47NO11/c1-7-35-15-31(16-41-3)20(37)13-21(42-4)33-19-14-32(40)28(45-30(39)18-11-9-8-10-12-18)22(19)34(46-17(2)36,27(38)29(32)44-6)23(26(33)35)24(43-5)25(31)33/h8-12,19-29,37-38,40H,7,13-16H2,1-6H3/t19-,20-,21+,22-,23+,24+,25-,26+,27+,28-,29+,31+,32-,33+,34-/m1/s1
Instrument: Shimadzu LC20A-IT-TOFMS
Instrument type: LC-ESI-ITTOF
Ms type: MS
Ion mode: POSITIVE
Column name: Waters Atlantis T3 (2.1 x 150 mm, 5 um)
Retention time: 1197.701
Ion type: [M+H]+
m/z	relative intensity
646.3223	999
647.3252	416
648.3309	113
