Mass spectrum: Amentoflavone; LC-ESI-ITTOF; MS; [M+H]+
Name: Amentoflavone
Name: 8-[5-(5,7-Dihydroxy-4-oxo-4H-1-benzopyran-2-yl)-2-hydroxyphenyl]-5,7-dihydroxy-2-(4-hydroxyphenyl)-4H-1-benzopyran-4-one
Name: 4',4''',5,5'',7,7''-Hexahydroxy-3''',8-biflavone
Name: Didemethyl-ginkgetin
Name: Amenthoflavone
Name: I3',II8-Biapigenin
Name: Tridemethylsciadopitysin
Class: Natural Product; Flavonoid
Formula: C30H18O10
Exact mass: 538.09000
SMILES: O=C(C=2)c(c(O)1)c(OC2c(c3)cc(c(c54)c(O)cc(O)c4C(=O)C=C(c(c6)ccc(c6)O)O5)c(O)c3)cc(O)c1
InChI: InChI=1S/C30H18O10/c31-15-4-1-13(2-5-15)24-12-23(38)29-21(36)10-20(35)27(30(29)40-24)17-7-14(3-6-18(17)33)25-11-22(37)28-19(34)8-16(32)9-26(28)39-25/h1-12,31-36H
Instrument: LCMS-IT-TOF
Instrument type: LC-ESI-ITTOF
Ms type: MS
Ion mode: POSITIVE
Column name: Waters Atlantis T3 (2.1 x 150 mm, 5 um)
Retention time: 16.118333 min
Base peak: 539.088200
m/z	relative intensity
213.086600	10
218.166400	5
218.478800	5
230.033400	5
231.932000	5
237.126900	10
243.472600	5
249.188600	10
251.149300	10
252.140200	5
252.338600	5
258.157200	5
260.137300	5
274.114300	5
280.097000	5
285.786700	5
289.257400	5
291.008800	5
294.296700	5
300.161400	5
305.344700	5
310.284600	5
314.190000	5
327.912300	5
330.300600	5
342.923700	5
345.830500	5
348.050000	10
355.131200	5
356.236800	10
357.798300	5
359.108200	10
360.858600	5
362.229000	5
378.222000	5
379.325400	5
379.980800	7
384.244800	5
387.075600	5
391.265100	5
398.138000	5
399.058900	5
400.673100	5
400.884700	5
401.057900	5
406.232000	5
414.251000	5
415.973900	5
419.332200	5
420.316700	10
434.200700	5
436.647000	5
449.328200	10
449.654200	5
459.673900	5
461.117200	5
464.507600	5
470.429100	5
511.189500	10
512.972700	5
517.575400	5
522.374300	5
523.253200	5
523.539000	5
525.189400	5
538.062300	5
539.088200	999
539.311400	18
539.512200	19
539.824800	10
540.092700	327
540.807600	5
541.098200	59
541.701900	5
542.104500	5
555.091400	16
561.198500	5
561.745000	5
566.378000	5
573.835100	5
575.309300	5
577.154700	5
583.080000	5
592.024600	5
600.613300	8
628.435600	5
672.396500	5
696.734000	5
706.355200	5
708.885900	5
724.398100	5
733.036500	5
769.247800	5
791.258400	5
804.341300	5
820.061200	5
828.005800	5
829.693500	5
834.655600	5
841.332000	5
849.378800	5
876.904700	5
893.544700	5
906.228700	5
931.952800	5
1001.743000	5
1035.108200	5
1038.078400	5
1043.038300	5
1048.009900	5
1053.149300	5
1074.368100	5
1077.173300	149
1078.182800	111
1078.845600	5
1079.192800	50
1079.855800	5
1081.245800	10
1094.176700	10
1094.717100	5
1095.130500	5
1096.848500	5
1100.129100	10
1101.085500	5
1108.751900	5
1138.483300	5
1168.148200	5
1185.819200	5
1235.571300	5
1242.065400	5
1256.739400	5
1266.125300	5
1331.401700	5
1366.235300	5
1403.642000	5
1407.749400	5
1423.404800	5
1424.238800	5
1424.819100	5
1443.050200	5
1471.812000	5
1473.877300	5
1524.103200	5
1563.407200	5
1575.132000	5
1576.772400	5
1596.869300	10
1601.173100	5
1615.277700	5
1616.282000	19
1617.286600	10
1637.561500	5
1647.180700	5
1670.154000	5
1706.202100	5
1707.790200	5
1719.445700	5
1748.617400	5
1757.388600	5
1777.426700	5
1848.455000	5
1897.570900	5
1939.409000	5
1951.191900	5
1972.516500	5
1980.634100	5
1991.126000	5
1994.343300	5
1996.017400	5
