Mass spectrum: Amentoflavone; LC-ESI-ITTOF; MS; [M-H]-
Name: Amentoflavone
Name: 8-[5-(5,7-Dihydroxy-4-oxo-4H-1-benzopyran-2-yl)-2-hydroxyphenyl]-5,7-dihydroxy-2-(4-hydroxyphenyl)-4H-1-benzopyran-4-one
Name: 4',4''',5,5'',7,7''-Hexahydroxy-3''',8-biflavone
Name: Didemethyl-ginkgetin
Name: Amenthoflavone
Name: I3',II8-Biapigenin
Name: Tridemethylsciadopitysin
Class: Natural Product; Flavonoid
Formula: C30H18O10
Exact mass: 538.09000
SMILES: O=C(C=2)c(c(O)1)c(OC2c(c3)cc(c(c54)c(O)cc(O)c4C(=O)C=C(c(c6)ccc(c6)O)O5)c(O)c3)cc(O)c1
InChI: InChI=1S/C30H18O10/c31-15-4-1-13(2-5-15)24-12-23(38)29-21(36)10-20(35)27(30(29)40-24)17-7-14(3-6-18(17)33)25-11-22(37)28-19(34)8-16(32)9-26(28)39-25/h1-12,31-36H
Instrument: LCMS-IT-TOF
Instrument type: LC-ESI-ITTOF
Ms type: MS
Ion mode: NEGATIVE
Column name: Waters Atlantis T3 (2.1 x 150 mm, 5 um)
Retention time: 15.864117 min
Base peak: 537.080800
m/z	relative intensity
268.043700	6
375.054400	15
417.054200	5
536.056800	4
537.080800	999
537.303500	17
537.504000	20
537.793700	10
538.083400	324
538.484700	7
538.797000	6
539.087000	65
540.091500	8
541.074500	3
1069.982600	5
1075.175400	141
1076.183900	94
1077.192900	39
1078.139300	8
