Mass spectrum: Saponarin; LC-ESI-ITTOF; MS; [M+H]+
Name: Saponarin
Name: 6-beta-D-Glucopyranosyl-7-(beta-D-glucopyranosyloxy)-5-hydroxy-2-(4-hydroxyphenyl)-4H-1-benzopyran-4-one
Name: 6-C-Glucosyl-7-O-glucosylapigenin
Name: 7-O-Glucosylisovitexin
Name: Isovitexin 7-glucoside
Name: Isovitexin 7-beta-D-glucopyranoside
Name: Isovitexin 7-beta-D-glucoside
Name: Petrocomoside
Class: Natural Product; Flavonoid
Formula: C27H30O15
Exact mass: 594.15847
SMILES: O([C@@H]5CO)[C@H]([C@@H]([C@H]([C@@H]5O)O)O)Oc(c1)c([C@H](O4)[C@@H]([C@H]([C@@H]([C@H]4CO)O)O)O)c(c(C2=O)c(OC(c(c3)ccc(O)c3)=C2)1)O
InChI: InChI=1S/C27H30O15/c28-7-15-19(32)22(35)24(37)26(40-15)18-14(41-27-25(38)23(36)20(33)16(8-29)42-27)6-13-17(21(18)34)11(31)5-12(39-13)9-1-3-10(30)4-2-9/h1-6,15-16,19-20,22-30,32-38H,7-8H2/t15-,16-,19-,20-,22+,23+,24-,25-,26+,27-/m1/s1
Instrument: LCMS-IT-TOF
Instrument type: LC-ESI-ITTOF
Ms type: MS
Ion mode: POSITIVE
Column name: Waters Atlantis T3 (2.1 x 150 mm, 5 um)
Retention time: 9.318333 min
Base peak: 595.176100
m/z	relative intensity
248.385100	4
251.301500	4
258.172700	4
271.052800	4
283.064900	13
284.068300	4
295.056800	4
297.355800	4
301.146000	4
313.068800	33
314.072800	9
315.778200	4
321.421500	4
337.061600	16
367.059000	7
379.086600	15
397.089300	12
398.085700	4
415.098300	35
416.097400	7
433.106600	37
475.117700	12
483.448900	4
493.644500	4
495.525200	4
499.125600	4
509.657900	4
517.957200	4
577.167900	34
578.161100	10
595.176100	999
595.598200	16
595.879700	12
596.161200	310
596.607100	7
596.912300	7
597.170600	86
597.875400	4
598.180900	9
617.132000	26
618.135100	7
633.134300	4
645.209300	4
725.893300	4
816.153600	4
1038.641900	4
1157.737500	4
1218.249000	4
1527.691900	4
1590.833900	4
1719.876900	4
1845.601800	4
1918.515100	4
1946.142200	4
1947.923200	4
1964.371900	4
