Mass spectrum: Reynoutrin; LC-ESI-ITTOF; MS; [M+H]+
Name: Reynoutrin
Name: 2-(3,4-Dihydroxyphenyl)-5,7-dihydroxy-3-(beta-D-xylopyranosyloxy)-4H-1-benzopyran-4-one
Name: 3,3',4',5,7-Pentahydroxyflavone 3beta-D-xylopyranoside
Name: Quercetin 3-O-beta-xyloside
Name: Quercetin 3-beta-D-xylopyranoside
Name: Quercetin-3-O-beta-D-xylopyranoside
Name: Reinutrin
Class: Natural Product; Flavonoid
Formula: C20H18O11
Exact mass: 434.08491
SMILES: Oc(c4)c(O)cc(c4)C(O1)=C(OC(O3)C(O)C(O)C(O)C3)C(=O)c(c(O)2)c(cc(O)c2)1
InChI: InChI=1S/C20H18O11/c21-8-4-11(24)14-13(5-8)30-18(7-1-2-9(22)10(23)3-7)19(16(14)27)31-20-17(28)15(26)12(25)6-29-20/h1-5,12,15,17,20-26,28H,6H2/t12-,15+,17+,20-/m0/s1
Instrument: LCMS-IT-TOF
Instrument type: LC-ESI-ITTOF
Ms type: MS
Ion mode: POSITIVE
Column name: Waters Atlantis T3 (2.1 x 150 mm, 5 um)
Retention time: 11.435000 min
Base peak: 303.052300
m/z	relative intensity
209.886300	4
229.044100	8
257.048500	9
285.042900	8
303.052300	999
303.202800	15
303.353500	16
303.587800	12
304.056800	162
305.046300	25
435.091400	275
435.452300	6
435.693000	4
436.094200	55
437.098200	11
457.071000	10
