Mass spectrum: Luteolin; LC-ESI-ITTOF; MS; [M+H]+
Name: Luteolin
Name: 2-(3,4-Dihydroxyphenyl)-5,7-dihydroxy-4H-1-benzopyran-4-one
Name: 3',4',5,7-Tetrahydroxy-flavone
Name: 2-(3,4-Dihydroxyphenyl)-5,7-dihydroxy-4H-benzopyran-4-one
Name: 3',4',5,7-Tetrahydroxyflavone
Name: 5,7,3',4'-Tetrahydroxyflavone
Name: Cyanidenon
Name: Digitoflavone
Name: Flacitran
Name: Luteoline
Name: Luteolol
Name: Salifazide
Class: Natural Product; Flavonoid
Formula: C15H10O6
Exact mass: 286.04774
SMILES: Oc(c3)c(O)cc(c3)C(=C1)Oc(c2)c(c(O)cc(O)2)C(=O)1
InChI: InChI=1S/C15H10O6/c16-8-4-11(19)15-12(20)6-13(21-14(15)5-8)7-1-2-9(17)10(18)3-7/h1-6,16-19H
Instrument: LCMS-IT-TOF
Instrument type: LC-ESI-ITTOF
Ms type: MS
Ion mode: POSITIVE
Column name: Waters Atlantis T3 (2.1 x 150 mm, 5 um)
Retention time: 14.685000 min
Base peak: 287.053900
m/z	relative intensity
267.188800	3
287.053900	999
287.216700	18
287.395900	19
287.575100	10
288.064200	160
289.059900	23
391.263600	3
571.098100	14
597.061300	3
623.985700	3
625.018300	4
626.027700	41
627.013900	15
628.000900	9
879.636400	3
1733.656700	3
