Mass spectrum: Quercetin; LC-ESI-ITTOF; MS; [M+H]+
Name: Quercetin
Name: 2-(3,4-Dihydroxyphenyl)-3,5,7-trihydroxy-4H-1-benzopyran-4-one
Name: 3,3',4',5,7-Pentahydroxy-flavone
Name: 3,4',5,5',7-Pentahydroxy-flavone
Name: 2-(3,4-Dihydroxyphenyl)-3,5,7-trihydroxy-4H-benzopyran-4-one
Name: 3,3',4',5,7-Pentahydroxyflavone
Name: 3,5,7,3',4'-Pentahydroxyflavone
Name: 3'-Hydroxykaempferol
Name: Corvitin
Name: Cyanidelonon 1522
Name: Korvitin
Name: Meletin
Name: Quercetine
Name: Quercetol
Name: Quertin
Name: Quertine
Name: Sophoretin
Name: Xanthaurine
Class: Natural Product; Flavonoid
Formula: C15H10O7
Exact mass: 302.04265
SMILES: Oc(c3)c(O)cc(c3)C(O1)=C(O)C(=O)c(c(O)2)c(cc(O)c2)1
InChI: InChI=1S/C15H10O7/c16-7-4-10(19)12-11(5-7)22-15(14(21)13(12)20)6-1-2-8(17)9(18)3-6/h1-5,16-19,21H
Instrument: LCMS-IT-TOF
Instrument type: LC-ESI-ITTOF
Ms type: MS
Ion mode: POSITIVE
Column name: Waters Atlantis T3 (2.1 x 150 mm, 5 um)
Retention time: 14.618333 min
Base peak: 303.052300
m/z	relative intensity
217.429200	3
242.604900	3
244.074000	6
252.141800	7
257.048500	3
264.075400	3
272.575700	3
285.042900	7
287.042000	6
292.062200	19
293.064800	6
301.014700	6
303.052300	999
303.202800	19
303.353500	21
303.571100	10
304.056800	154
305.063100	32
317.062500	7
323.010700	11
344.086800	3
359.114300	7
444.178700	9
468.357500	3
471.085900	6
487.071200	6
577.378000	3
658.017400	33
659.003800	7
699.016300	3
703.903100	3
904.989500	3
982.017800	3
1287.640100	3
1305.078600	3
1470.841800	3
1477.040200	3
1503.752400	3
1576.041400	3
1700.176900	3
1757.718700	3
1801.626000	3
1933.045000	3
