Mass spectrum: Cinobufotalin; LC-ESI-ITTOF; MS; [M+H]+
Name: Cinobufotalin
Name: Bufa-20,22-dienolide, 16-(acetyloxy)-14,15-epoxy-3,5-dihydroxy-, (3beta,5beta,15beta,16beta)-
Name: 5beta-Bufa-20,22-dienolide, 14,15beta-epoxy-3beta,5,16beta-trihydroxy-, 16-acetate
Name: 14,15-Epoxy-14H-cyclopenta[a]phenanthrene, bufa-20,22-dienolide deriv.
Name: NSC 90326
Class: Natural Product; Steroid
Formula: C26H34O7
Exact mass: 458.23045
SMILES: C(OC(C5C(C=6)=COC(=O)C6)C(C(C52C)1C(C4)(C(C(C)(C(O)3C4)CCC(C3)O)(CC2)[H])[H])O1)(C)=O
InChI: InChI=1S/C26H34O7/c1-14(27)32-21-20(15-4-5-19(29)31-13-15)24(3)10-7-17-18(26(24)22(21)33-26)8-11-25(30)12-16(28)6-9-23(17,25)2/h4-5,13,16-18,20-22,28,30H,6-12H2,1-3H3/t16-,17-,18+,20-,21+,22+,23+,24+,25-,26+/m0/s1
Instrument: Shimadzu LC18A-IT-TOFMS
Instrument type: LC-ESI-ITTOF
Ms type: MS
Ion mode: POSITIVE
Column name: Waters Atlantis T3 (2.1 x 150 mm, 5 um)
Retention time: 1098.901
Ion type: [M+H]+
m/z	relative intensity
459.2372	999
460.2383	301
461.2421	53
