Mass spectrum: Fukugetin; LC-ESI-ITTOF; MS; [M+H]+
Name: Fukugetin
Name: (2R,3S)-2'-(3,4-Dihydroxyphenyl)-2,3-dihydro-5,5',7,7'-tetrahydroxy-2-(4-hydroxyphenyl)- [3,8'-bi-4H-1-benzopyran]-4,4'-dione
Name: 3-[2-(3,4-Dihydroxyphenyl)-5,7-dihydroxy-4-oxo-4H-1-benzopyran-8-yl]-4',5,7-trihydroxy-flavanone
Name: (+)-Morelloflavone
Name: Morelloflavone
Class: Natural Product; Flavonoid
Formula: C30H20O11
Exact mass: 556.10056
SMILES: c(O)(c1)cc(O)c(C3=O)c1OC(C3c(c54)c(O)cc(O)c4C(C=C(c(c6)ccc(O)c6O)O5)=O)c(c2)ccc(c2)O
InChI: InChI=1S/C30H20O11/c31-14-4-1-12(2-5-14)29-27(28(39)25-18(35)8-15(32)9-23(25)41-29)26-20(37)10-19(36)24-21(38)11-22(40-30(24)26)13-3-6-16(33)17(34)7-13/h1-11,27,29,31-37H/t27-,29+/m1/s1
Instrument: LCMS-IT-TOF
Instrument type: LC-ESI-ITTOF
Ms type: MS
Ion mode: POSITIVE
Column name: Waters Atlantis T3 (2.1 x 150 mm, 5 um)
Retention time: 15.593333 min
Base peak: 557.107400
m/z	relative intensity
211.098400	4
403.079500	25
405.088500	20
431.081000	30
432.079200	5
457.244700	4
557.107400	999
557.334300	14
557.583800	21
557.810800	12
558.105900	359
558.582700	7
559.105200	86
560.105400	8
587.100300	4
1113.201100	13
1114.195300	11
