Mass spectrum: Baicalein; LC-ESI-ITTOF; MS; [M-H]-
Name: Baicalein
Name: 4H-1-Benzopyran-4-one, 5,6,7-trihydroxy-2-phenyl-
Name: Flavone, 5,6,7-trihydroxy-
Name: 5,6,7-Trihydroxyflavone
Name: Baikalein
Name: NSC 661431
Name: Noroxylin
Class: Natural Product; Flavonoid
Formula: C15H10O5
Exact mass: 270.05282
SMILES: c(c3)ccc(c3)C(=C2)Oc(c1)c(C(=O)2)c(O)c(O)c(O)1
InChI: InChI=1S/C15H10O5/c16-9-6-11(8-4-2-1-3-5-8)20-12-7-10(17)14(18)15(19)13(9)12/h1-7,17-19H
Instrument: Shimadzu LC20A-IT-TOFMS
Instrument type: LC-ESI-ITTOF
Ms type: MS
Ion mode: NEGATIVE
Column name: Waters Atlantis T3 (2.1 x 150 mm, 5 um)
Retention time: 981.900 sec
Ion type: [M-H]-
m/z	relative intensity
267.0236	255
269.0439	999
