Mass spectrum: Prunin; LC-ESI-ITTOF; MS; [M-H]-
Name: Prunin
Name: (2S)-7-(beta-D-Glucopyranosyloxy)-2,3-dihydro-5-hydroxy-2-(4-hydroxyphenyl)-4H-1-benzopyran-4-one
Name: (S)-7-(beta-D-Glucopyranosyloxy)-2,3-dihydro-5-hydroxy-2-(4-hydroxyphenyl)-4H-1-benzopyran-4-one
Name: (-)-Naringenin 7-beta-D-glucoside
Name: 4',5,7-Trihydroxyflavanone 7-O-beta-D-glucopyranoside
Name: Naringenin 7-O-glucoside
Name: Naringenin 7-O-beta-D-glucopyranoside
Name: Naringenin 7-O-beta-D-glucoside
Name: Naringenin 7-glucoside
Class: Natural Product; Flavonoid
Formula: C21H22O10
Exact mass: 434.12130
SMILES: OCC(O1)C(O)C(O)C(O)C1Oc(c4)cc(O2)c(c(O)4)C(=O)CC(c(c3)ccc(O)c3)2
InChI: InChI=1S/C21H22O10/c22-8-16-18(26)19(27)20(28)21(31-16)29-11-5-12(24)17-13(25)7-14(30-15(17)6-11)9-1-3-10(23)4-2-9/h1-6,14,16,18-24,26-28H,7-8H2/t14-,16+,18+,19-,20+,21+/m0/s1
Instrument: LCMS-IT-TOF
Instrument type: LC-ESI-ITTOF
Ms type: MS
Ion mode: NEGATIVE
Column name: Waters Atlantis T3 (2.1 x 150 mm, 5 um)
Retention time: 12.205783 min
Base peak: 271.067900
m/z	relative intensity
271.067900	999
271.210300	19
271.337000	22
271.542800	12
272.065600	150
273.065100	19
433.119500	785
433.299500	16
433.479600	16
434.120000	226
434.540600	6
435.121700	55
436.124500	8
469.074200	13
496.113800	26
547.103600	159
548.115600	43
549.105900	8
867.225100	127
867.734500	32
868.244100	61
868.725600	8
869.235500	12
1084.277000	19
1084.783300	30
1085.289800	20
1085.796400	9
1301.894900	6
