Mass spectrum: Baicalein trimethyl ether; LC-ESI-ITTOF; MS; [M+H]+
Name: Baicalein trimethyl ether
Name: 5,6,7-Trimethoxy-2-phenyl-4H-1-benzopyran-4-one
Name: 5,6,7-Trimethoxy-flavone
Name: 5,6,7-Trimethoxyflavone
Name: 5,6,7-Trimethylbaicalein
Class: Natural Product; Flavonoid
Formula: C18H16O5
Exact mass: 312.09977
SMILES: COc(c1)c(OC)c(OC)c(C(=O)2)c1OC(c(c3)cccc3)=C2
InChI: InChI=1S/C18H16O5/c1-20-15-10-14-16(18(22-3)17(15)21-2)12(19)9-13(23-14)11-7-5-4-6-8-11/h4-10H,1-3H3
Instrument: LCMS-IT-TOF
Instrument type: LC-ESI-ITTOF
Ms type: MS
Ion mode: POSITIVE
Column name: Waters Atlantis T3 (2.1 x 150 mm, 5 um)
Retention time: 20.676667 min
Base peak: 313.100800
m/z	relative intensity
252.079200	53
255.063100	14
269.078300	24
279.068600	8
280.064800	12
281.078900	7
283.064000	48
284.067300	6
297.072700	18
298.083900	23
313.100800	999
313.270900	15
313.424000	22
313.645200	15
313.866500	5
314.104900	206
314.275200	4
315.110500	26
335.085700	8
351.068300	9
644.679700	3
647.195300	38
648.198000	16
663.158700	11
664.173700	5
