Mass spectrum: Barbaloin; LC-ESI-ITTOF; MS; [M+H]+
Name: Barbaloin
Name: 9(10H)-Anthracenone, 10-beta-D-glucopyranosyl-1,8-dihydroxy-3-(hydroxymethyl)-, (10S)-
Name: 9(10H)-Anthracenone, 10-beta-D-glucopyranosyl-1,8-dihydroxy-3-(hydroxymethyl)-, (S)-
Name: Anthrone, 10-glucopyranosyl-1,8-dihydroxy-3-(hydroxymethyl)-
Name: Aloin
Name: Aloin A
Name: Barbaloin A
Name: NSC 407305
Class: Natural Product; Anthraquinone
Formula: C21H22O9
Exact mass: 418.12638
SMILES: OCc(c4)cc(c(c(O)4)2)C([H])(c(c3)c(c(O)cc3)C(=O)2)C([H])(O1)C(O)C(O)C(O)C(CO)1
InChI: InChI=1S/C21H22O9/c22-6-8-4-10-14(21-20(29)19(28)17(26)13(7-23)30-21)9-2-1-3-11(24)15(9)18(27)16(10)12(25)5-8/h1-5,13-14,17,19-26,28-29H,6-7H2/t13-,14+,17-,19+,20-,21+/m1/s1
Instrument: Shimadzu LC20A-IT-TOFMS
Instrument type: LC-ESI-ITTOF
Ms type: MS
Ion mode: POSITIVE
Column name: Waters Atlantis T3 (2.1 x 150 mm, 5 um)
Retention time: 808.700
Ion type: [M+H]+
m/z	relative intensity	assigned
401.1176	53	
419.1317	999	
420.1342	244	
854.2835	62	
