Mass spectrum: Chikusetsusaponin IV; LC-ESI-ITTOF; MS; [M-H]-
Name: Chikusetsusaponin IV
Name: (3beta)-28-(beta-D-Glucopyranosyloxy)-28-oxoolean-12-en-3-yl 4-O-alpha-L-arabinofuranosyl-beta-D-glucopyranosiduronic acid
Name: Araloside A
Name: Oleanane beta-D-glucopyranosiduronic acid deriv.
Name: Chikusetsusaponin 4
Name: Oleanoside E
Class: Natural Product; Saponin
Formula: C47H74O18
Exact mass: 926.48752
SMILES: C(C(O)1)(O)C(OC(C(C)(C)3)CCC(C8([H])4)(C)C3(CCC(C(C)(C(=CC8)6)CCC(C(OC(C7O)OC(C(O)C(O)7)CO)=O)(C5([H])6)CCC(C5)(C)C)4C)[H])OC(C(O)=O)C(OC(O2)C(C(C(CO)2)O)O)1
InChI: InChI=1S/C47H74O18/c1-42(2)14-16-47(41(59)65-39-33(55)30(52)28(50)23(19-48)61-39)17-15-45(6)21(22(47)18-42)8-9-26-44(5)12-11-27(43(3,4)25(44)10-13-46(26,45)7)62-40-34(56)31(53)35(36(64-40)37(57)58)63-38-32(54)29(51)24(20-49)60-38/h8,22-36,38-40,48-56H,9-20H2,1-7H3,(H,57,58)/t22-,23+,24-,25-,26+,27-,28+,29-,30-,31+,32+,33+,34+,35-,36-,38-,39-,40+,44-,45+,46+,47-/m0/s1
Instrument: LCMS-IT-TOF
Instrument type: LC-ESI-ITTOF
Ms type: MS
Ion mode: NEGATIVE
Column name: Waters Atlantis T3 (2.1 x 150 mm, 5 um)
Retention time: 15.205783 min
Base peak: 925.472600
m/z	relative intensity
215.201300	10
485.237700	41
485.724600	10
486.233100	8
492.248200	136
492.738600	70
493.250700	29
493.741700	12
508.216500	8
925.472600	999
925.969600	821
926.232800	15
926.466800	640
926.993400	211
927.490800	104
927.988400	23
928.456900	15
982.483100	25
982.965100	12
988.456100	18
1039.461500	29
1040.484100	19
1041.476300	8
1388.714400	163
1389.215700	289
1389.717200	220
1390.218800	156
1390.756300	81
1391.222200	33
1391.795700	7
1852.923300	17
1853.461000	8
1854.371300	6
1973.413800	7
