Mass spectrum: Chikusetsusaponin III; LC-ESI-ITTOF; MS; [M-H]-
Name: Chikusetsusaponin III
Name: (3beta,12beta)-12,20-Dihydroxydammar-24-en-3-yl O-beta-D-glucopyranosyl-(1-2)-O-[beta-D-xylopyranosyl-(1-6)]-beta-D-glucopyranoside
Name: Dammarane beta-D-glucopyranoside deriv.
Class: Natural Product; Saponin
Formula: C47H80O17
Exact mass: 916.53955
SMILES: OC(C(OCC(C(O)6)OC(C(OC(O7)C(O)C(C(C7CO)O)O)C6O)OC(C5(C)C)CCC(C5([H])2)(C([H])(C4)C(C(C)(C(C4O)([H])3)CCC([H])(C(C)(O)CCC=C(C)C)3)(C)CC2)C)1)C(C(O)CO1)O
InChI: InChI=1S/C47H80O17/c1-22(2)10-9-14-47(8,58)23-11-16-46(7)31(23)24(49)18-29-44(5)15-13-30(43(3,4)28(44)12-17-45(29,46)6)63-42-39(64-41-38(57)35(54)33(52)26(19-48)61-41)36(55)34(53)27(62-42)21-60-40-37(56)32(51)25(50)20-59-40/h10,23-42,48-58H,9,11-21H2,1-8H3/t23-,24+,25+,26+,27+,28-,29+,30-,31-,32-,33+,34+,35-,36-,37+,38+,39+,40-,41-,42-,44-,45+,46+,47-/m0/s1
Instrument: LCMS-IT-TOF
Instrument type: LC-ESI-ITTOF
Ms type: MS
Ion mode: NEGATIVE
Column name: Waters Atlantis T3 (2.1 x 150 mm, 5 um)
Retention time: 21.414117 min
Base peak: 915.522400
m/z	relative intensity
265.876000	7
329.117800	7
336.515800	7
389.143400	7
487.257400	7
510.262400	7
511.196300	7
517.276200	33
517.779000	23
518.282000	7
537.066600	7
560.841200	7
597.280700	7
656.550700	7
793.784100	7
903.784000	7
915.086300	7
915.522400	999
915.813200	17
916.045900	182
916.540400	528
916.831400	20
917.035100	51
917.529900	156
917.937400	7
918.549000	10
938.519800	13
939.550500	7
945.539600	75
946.042000	89
946.544600	50
947.047300	14
947.550100	13
948.230600	7
951.488500	47
952.526300	33
953.505300	28
961.534200	117
962.517800	58
963.561600	20
975.080500	7
975.560700	530
976.071000	51
976.551400	306
977.062000	13
977.542700	88
978.053600	7
978.534500	63
979.526800	26
1025.745500	7
1029.503800	210
1030.182300	7
1030.521600	115
1031.509000	28
1034.597700	7
1044.046800	7
1065.425100	7
1083.158000	7
1092.794000	7
1206.240700	7
1373.790200	13
1374.288900	20
1374.787700	13
1375.322200	7
1375.821200	7
1835.612000	7
1964.957700	7
