Mass spectrum: Phloretin; LC-ESI-ITTOF; MS2; [M+H]+
Name: Phloretin
Name: 3-(4-Hydroxyphenyl)-1-(2,4,6-trihydroxyphenyl)-1-propanone
Name: 2',4',6'-Trihydroxy-3-(p-hydroxyphenyl)-propiophenone
Name: 2',4',6'-Trihydroxy-3-(4-hydroxyphenyl)propiophenone
Name: 2',4',6'-Trihydroxy-3-(p-hydroxyphenyl)propiophenone
Name: Dihydronaringenin
Name: Floretin
Name: Naringenin dihydrochalcone
Name: Phloretol
Name: beta-(p-Hydroxyphenyl)-2,4,6-trihydroxypropiophenone
Name: beta-(p-Hydroxyphenyl)phloropropiophenone
Class: Natural Product; Dihydrochalcone
Formula: C15H14O5
Exact mass: 274.08412
SMILES: Oc(c2)ccc(c2)CCC(=O)c(c(O)1)c(O)cc(O)c1
InChI: InChI=1S/C15H14O5/c16-10-4-1-9(2-5-10)3-6-12(18)15-13(19)7-11(17)8-14(15)20/h1-2,4-5,7-8,16-17,19-20H,3,6H2
Instrument: LCMS-IT-TOF
Instrument type: LC-ESI-ITTOF
Ms type: MS2
Ion mode: POSITIVE
Column name: Waters Atlantis T3 (2.1 x 150 mm, 5 um)
Retention time: 16.100350 min
Base peak: 107.053700
Precursor m/z: 275.089400
m/z	relative intensity
104.101400	5
105.044800	5
106.874800	10
107.053700	999
107.143200	20
107.262600	23
107.362100	15
108.050300	298
108.260100	10
109.041400	11
127.038100	302
127.146400	7
127.265600	7
128.047300	65
149.059900	262
150.058800	120
150.282600	5
151.049300	28
169.046700	412
170.047700	130
257.076300	11
277.080300	10
