Mass spectrum: Phloretin; LC-ESI-ITTOF; MS; [M-H]-
Name: Phloretin
Name: 3-(4-Hydroxyphenyl)-1-(2,4,6-trihydroxyphenyl)-1-propanone
Name: 2',4',6'-Trihydroxy-3-(p-hydroxyphenyl)-propiophenone
Name: 2',4',6'-Trihydroxy-3-(4-hydroxyphenyl)propiophenone
Name: 2',4',6'-Trihydroxy-3-(p-hydroxyphenyl)propiophenone
Name: Dihydronaringenin
Name: Floretin
Name: Naringenin dihydrochalcone
Name: Phloretol
Name: beta-(p-Hydroxyphenyl)-2,4,6-trihydroxypropiophenone
Name: beta-(p-Hydroxyphenyl)phloropropiophenone
Class: Natural Product; Dihydrochalcone
Formula: C15H14O5
Exact mass: 274.08412
SMILES: Oc(c2)ccc(c2)CCC(=O)c(c(O)1)c(O)cc(O)c1
InChI: InChI=1S/C15H14O5/c16-10-4-1-9(2-5-10)3-6-12(18)15-13(19)7-11(17)8-14(15)20/h1-2,4-5,7-8,16-17,19-20H,3,6H2
Instrument: LCMS-IT-TOF
Instrument type: LC-ESI-ITTOF
Ms type: MS
Ion mode: NEGATIVE
Column name: Waters Atlantis T3 (2.1 x 150 mm, 5 um)
Retention time: 16.230783 min
Base peak: 273.074400
m/z	relative intensity
273.074400	999
273.233200	14
273.376200	23
273.582700	11
274.075700	170
275.078900	23
387.067200	13
388.069900	5
547.162200	527
547.364500	8
547.566900	10
547.926700	7
548.174200	206
549.164600	48
550.178400	9
569.137000	5
929.648600	5
1298.441300	5
