Mass spectrum: Fortunellin; LC-ESI-ITTOF; MS2; [M+H]+
Name: Fortunellin
Name: Acacetin-7-O-neohesperidoside
Name: 5-hydroxy-2-(4-methoxyphenyl)-7-[3,4,5-trihydroxy-6-[(3,4,5-trihydroxy-6-methyl-oxan-2-yl)oxymethyl]oxan-2-yl]oxy-chromen-4-one
Name: 7-[[2-O-(6-Deoxy-alpha-L-mannopyranosyl)-beta-D-glucopyranosyl]oxy]-5-hydroxy-2-(4-methoxyphenyl)-4H-1-benzopyran-4-one
Name: Acac-7-Glc-2pp-Man
Class: Natural Product; Flavonoid
Formula: C28H32O14
Exact mass: 592.17921
SMILES: C[C@H]1[C@@H]([C@H]([C@H]([C@@H](O1)O[C@@H]2[C@H]([C@@H]([C@H](O[C@H]2OC3=CC(=C4C(=C3)OC(=CC4=O)C5=CC=C(C=C5)OC)O)CO)O)O)O)O)O
InChI: InChI=1S/C28H32O14/c1-11-21(32)23(34)25(36)27(38-11)42-26-24(35)22(33)19(10-29)41-28(26)39-14-7-15(30)20-16(31)9-17(40-18(20)8-14)12-3-5-13(37-2)6-4-12/h3-9,11,19,21-30,32-36H,10H2,1-2H3/t11-,19+,21-,22+,23+,24-,25+,26+,27-,28+/m0/s1
Instrument: LCMS-IT-TOF
Instrument type: LC-ESI-ITTOF
Ms type: MS2
Ion mode: POSITIVE
Column name: Waters Atlantis T3 (2.1 x 150 mm, 5 um)
Retention time: 13.563567 min
Base peak: 285.071000
Precursor m/z: 593.189600
m/z	relative intensity
186.059000	6
203.064500	4
225.031600	3
239.068200	10
241.048400	7
242.049100	186
242.303300	5
243.066800	10
257.538700	3
270.055200	58
271.035200	6
285.071000	999
285.233300	26
285.411800	19
285.606700	14
285.817800	7
286.077800	120
447.129600	27
448.146200	8
