Mass spectrum: Corydaline; LC-ESI-ITTOF; MS; [M+H]+
Name: Corydaline
Name: 5,8,13,13a-Tetrahydro-2,3,9,10-tetramethoxy-13-methyl-6H-dibenzo[a,g]quinolizine
Name: 2,3,9,10-Tetramethoxy-13-methylberbine
Name: Corydalis A
Name: 6H-Dibenzo[a,g]quinolizine, 5,8,13,13a-tetrahydro-2,3,9,10-tetramethoxy-13-methyl-, (13S,13aR)-
Name: 13a beta-Berbine, 2,3,9,10-tetramethoxy-13alpha-methyl-
Name: 6H-Dibenzo[a,g]quinolizine
Name: 5,8,13,13a-tetrahydro-2,3,9,10-tetramethoxy-13-methyl-, (13S-trans)-
Name: 7,8,13,13alpha-Tetrahydrocorydaline
Name: NSC 406036
Name: d-Corydaline
Name: Berbine, 2,3,9,10-tetramethoxy-13-methyl-
Name: (13S,13aR)-2,3,9,10-tetramethoxy-13-methyl-5,8,13,13a-tetrahydro-6H-isoquino[3,2-a]isoquinoline
Class: Natural Product; Alkaloid
Formula: C22H27NO4
Exact mass: 369.19401
SMILES: COc(c4)c(OC)cc(c43)C([H])(N(CC3)1)C(C)c(c2)c(c(OC)c(OC)c2)C1
InChI: InChI=1S/C22H27NO4/c1-13-15-6-7-18(24-2)22(27-5)17(15)12-23-9-8-14-10-19(25-3)20(26-4)11-16(14)21(13)23/h6-7,10-11,13,21H,8-9,12H2,1-5H3/t13-,21+/m0/s1
Instrument: Shimadzu LC20A-IT-TOFMS
Instrument type: LC-ESI-ITTOF
Ms type: MS
Ion mode: POSITIVE
Column name: Waters Atlantis T3 (2.1 x 150 mm, 5 um)
Retention time: 1518.901
Ion type: [M+H]+
m/z	relative intensity
368.1850	108
370.2010	999
371.2037	245
