Mass spectrum: Bisdemethoxycurcumin; LC-ESI-ITTOF; MS; [M+H]+
Name: Bisdemethoxycurcumin
Name: 1,6-Heptadiene-3,5-dione, 1,7-bis(4-hydroxyphenyl)-, (1E,6E)-
Name: 1,6-Heptadiene-3,5-dione, 1,7-bis(p-hydroxyphenyl)-, (E,E)-
Name: (1E,6E)-1,7-Bis(4-hydroxyphenyl)-1,6-heptadiene-3,5-dione
Name: Bisdesmethoxycurcumin
Name: Curcumin III
Name: Didemethoxycurcumin
Class: Natural Product; Diarylheptanoid
Formula: C19H16O4
Exact mass: 308.10486
SMILES: Oc(c1)ccc(C=CC(=O)CC(=O)C=Cc(c2)ccc(O)c2)c1
InChI: InChI=1S/C19H16O4/c20-16-7-1-14(2-8-16)5-11-18(22)13-19(23)12-6-15-3-9-17(21)10-4-15/h1-12,20-21H,13H2/b11-5+,12-6+
Instrument: Shimadzu LC20A-IT-TOFMS
Instrument type: LC-ESI-ITTOF
Ms type: MS
Ion mode: POSITIVE
Column name: Waters Atlantis T3 (2.1 x 150 mm, 5 um)
Retention time: 1278.200
Ion type: [M+H]+
m/z	relative intensity
309.1127	999
310.1166	232
