Mass spectrum: Bergenin; LC-ESI-ITTOF; MS; [M+H]+
Name: Bergenin
Name: Pyrano[3,2-c][2]benzopyran-6(2H)-one, 3,4,4a,10b-tetrahydro-3,4,8,10-tetrahydroxy-2-(hydroxymethyl)-9-methoxy-, (2R,3S,4S,4aR,10bS)-
Name: Pyrano[3,2-c][2]benzopyran-6(2H)-one, 3,4,4a,10b-tetrahydro-3,4,8,10-tetrahydroxy-2-(hydroxymethyl)-9-methoxy-, [2R-(2alpha,3beta,4alpha,4aalpha,10bbeta)]-
Name: alpha-Resorcylic acid, 4-methoxy-2-[tetrahydro-3,4,5-trihydroxy-6-(hydroxymethyl)pyran-2-yl]-, delta-lactone
Name: (+)-Bergenin
Name: Ai cha su
Name: Ardisic acid B
Name: Bergenit
Name: Corylopsin
Name: Cuscutin
Name: NSC 661749
Name: Peltophorin
Name: Vakerin
Class: Natural Product; Isocoumarin
Formula: C14H16O9
Exact mass: 328.07943
SMILES: OCC(C(O)1)OC([H])(c32)C([H])(OC(=O)c(cc(O)c(OC)c(O)3)2)C(O)1
InChI: InChI=1S/C14H16O9/c1-21-11-5(16)2-4-7(9(11)18)12-13(23-14(4)20)10(19)8(17)6(3-15)22-12/h2,6,8,10,12-13,15-19H,3H2,1H3/t6-,8-,10+,12+,13-/m1/s1
Instrument: Shimadzu LC20A-IT-TOFMS
Instrument type: LC-ESI-ITTOF
Ms type: MS
Ion mode: POSITIVE
Column name: Waters Atlantis T3 (2.1 x 150 mm, 5 um)
Retention time: 408.700
Ion type: [M+H]+
m/z	relative intensity
329.0862	999
330.0863	152
346.1119	488
347.1157	98
351.0656	124
367.0403	264
679.1480	119
840.1807	52
