Mass spectrum: Albiflorin; LC-ESI-ITTOF; MS; [M+Na]+
Name: Albiflorin
Name: 7-Oxatricyclo[4.3.0.03,9]nonan-8-one, 9-[(benzoyloxy)methyl]-1-(beta-D-glucopyranosyloxy)-4-hydroxy-6-methyl-, (1R,3R,4R,6S)-
Name: 7-Oxatricyclo[4.3.0.03,9]nonan-8-one, 9-[(benzoyloxy)methyl]-1-(beta-D-glucopyranosyloxy)-4-hydroxy-6-methyl-, [1R-(1R*,4R*)]-
Class: Natural Product; Monoterpene glycoside
Formula: C23H28O11
Exact mass: 480.16316
SMILES: OCC(C(O)5)OC(C(O)C(O)5)OC(C1)(C(C)23)C(COC(=O)c(c4)cccc4)(C(=O)O3)C([H])(C(O)C2)1
InChI: InChI=1S/C23H28O11/c1-21-8-13(25)12-7-23(21,33-19-17(28)16(27)15(26)14(9-24)32-19)22(12,20(30)34-21)10-31-18(29)11-5-3-2-4-6-11/h2-6,12-17,19,24-28H,7-10H2,1H3/t12-,13+,14+,15+,16-,17+,19-,21-,22-,23-/m0/s1
Instrument: Shimadzu LC20A-IT-TOFMS
Instrument type: LC-ESI-ITTOF
Ms type: MS
Ion mode: POSITIVE
Column name: Waters Atlantis T3 (2.1 x 150 mm, 5 um)
Retention time: 629.301
Ion type: [M+Na]+
m/z	relative intensity	assigned
481.1700	384	
503.1499	999	
504.1553	254	
519.1327	58	
983.3140	472	
984.3254	254	
