Mass spectrum: Acacetin diacetate; LC-ESI-ITTOF; MS; [M+H]+
Name: Acacetin diacetate
Name: 5,7-Bis(acetyloxy)-2-(4-methoxyphenyl)-4H-1-benzopyran-4-one
Name: 5,7-Dihydroxy-4'-methoxy-flavone diacetate
Name: 5,7-Diacetoxy-4'-methoxyflavone
Class: Natural Product; Flavonoid
Formula: C20H16O7
Exact mass: 368.08960
SMILES: COc(c3)ccc(c3)C(=C2)Oc(c1)c(C(=O)2)c(OC(C)=O)cc(OC(C)=O)1
InChI: InChI=1S/C20H16O7/c1-11(21)25-15-8-18(26-12(2)22)20-16(23)10-17(27-19(20)9-15)13-4-6-14(24-3)7-5-13/h4-10H,1-3H3
Instrument: LCMS-IT-TOF
Instrument type: LC-ESI-ITTOF
Ms type: MS
Ion mode: POSITIVE
Column name: Waters Atlantis T3 (2.1 x 150 mm, 5 um)
Retention time: 22.060000 min
Base peak: 327.077600
m/z	relative intensity
242.050200	57
243.052900	10
270.056500	20
285.072400	550
285.608000	6
286.079200	80
287.071500	10
327.077600	999
327.251400	17
327.407900	22
327.634000	14
327.860100	9
328.086400	131
329.096700	29
369.101500	993
369.433900	20
369.674000	12
370.099100	310
370.672400	5
371.098100	48
391.075100	9
407.045900	7
737.179300	17
759.179500	29
760.159500	15
761.166700	6
775.149400	6
