Mass spectrum: Embinin; LC-ESI-ITTOF; MS; [M-H]-
Name: Embinin
Name: 6-[2-O-(6-Deoxy-alpha-L-mannopyranosyl)-beta-D-glucopyranosyl]-5-hydroxy-7-methoxy-2-(4-methoxyphenyl)-4H-1-benzopyran-4-one
Class: Natural Product; Flavonoid
Formula: C29H34O14
Exact mass: 606.19486
SMILES: c(OC)(c(C(O5)C(C(C(C5CO)O)O)OC([H])(C(O)4)OC(C)C(O)C(O)4)1)cc(O2)c(C(=O)C=C2c(c3)ccc(OC)c3)c(O)1
InChI: InChI=1S/C29H34O14/c1-11-21(32)24(35)26(37)29(40-11)43-28-25(36)22(33)18(10-30)42-27(28)20-16(39-3)9-17-19(23(20)34)14(31)8-15(41-17)12-4-6-13(38-2)7-5-12/h4-9,11,18,21-22,24-30,32-37H,10H2,1-3H3/t11-,18+,21-,22+,24+,25-,26+,27-,28+,29-/m0/s1
Instrument: LCMS-IT-TOF
Instrument type: LC-ESI-ITTOF
Ms type: MS
Ion mode: NEGATIVE
Column name: Waters Atlantis T3 (2.1 x 150 mm, 5 um)
Retention time: 12.630783 min
Base peak: 605.177900
m/z	relative intensity
441.128000	3
591.170700	6
605.177900	999
605.414300	16
605.627100	21
605.934600	15
606.194800	313
606.620800	8
607.188900	79
608.183800	14
633.176600	5
641.156900	5
665.199700	49
666.191500	12
667.208800	7
668.177200	10
719.193400	19
720.198800	7
1211.375800	33
1212.379400	22
1213.349900	6
