Mass spectrum: Salvigenin; LC-ESI-ITTOF; MS; [M+H]+
Name: Salvigenin
Name: 5-Hydroxy-6,7-dimethoxy-2-(4-methoxyphenyl)-4H-1-benzopyran-4-one
Name: 5-Hydroxy-4',6,7-trimethoxy-flavone
Name: 5-Hydroxy-4',6,7-trimethoxyflavone
Name: 7-O-Methylpectolinarigenin
Name: Psathyrotin
Class: Natural Product; Flavonoid
Formula: C18H16O6
Exact mass: 328.09469
SMILES: COc(c3)ccc(c3)C(=C2)Oc(c1)c(C(=O)2)c(O)c(OC)c(OC)1
InChI: InChI=1S/C18H16O6/c1-21-11-6-4-10(5-7-11)13-8-12(19)16-14(24-13)9-15(22-2)18(23-3)17(16)20/h4-9,20H,1-3H3
Instrument: LCMS-IT-TOF
Instrument type: LC-ESI-ITTOF
Ms type: MS
Ion mode: POSITIVE
Column name: Waters Atlantis T3 (2.1 x 150 mm, 5 um)
Retention time: 23.393333 min
Base peak: 329.099200
m/z	relative intensity
268.070800	16
285.073400	7
296.064600	28
299.048400	6
313.085800	15
314.089800	37
315.078400	6
329.099200	999
329.256100	14
329.465400	16
329.639900	8
330.111100	196
330.408000	5
331.107100	30
351.089700	41
352.080800	6
367.040600	6
