Mass spectrum: Ginsenoside Rg1; LC-ESI-ITTOF; MS; [M+Na]+
Name: Ginsenoside Rg1
Name: beta-D-Glucopyranoside, (3beta,6alpha,12beta)-3,12-dihydroxydammar-24-ene-6,20-diyl bis-
Name: Panaxoside A
Name: Dammarane, beta-D-glucopyranoside deriv
Name: Ginsenoside A2
Name: Ginsenoside g1
Name: Panaxoside Rg1
Name: Sanchinoside C1
Name: Sanchinoside Rg1
Name: Dammar-24-ene-3,6,12,20-tetrol, 6,20-Di-O-beta-D-glucopyranoside
Class: Natural Product; Flavonoid
Formula: C42H72O14
Exact mass: 800.49221
SMILES: C(C6)(C32C)([H])C(C(C)(C4(C(O)6)[H])CCC(C(OC(C(O)5)OC(CO)C(C5O)O)(C)CCC=C(C)C)([H])4)(CC(C2(C(C(CC3)O)(C)C)[H])OC([H])(O1)C(C(O)C(O)C(CO)1)O)C
InChI: InChI=1S/C42H72O14/c1-20(2)10-9-13-42(8,56-37-34(52)32(50)30(48)25(19-44)55-37)21-11-15-40(6)28(21)22(45)16-26-39(5)14-12-27(46)38(3,4)35(39)23(17-41(26,40)7)53-36-33(51)31(49)29(47)24(18-43)54-36/h10,21-37,43-52H,9,11-19H2,1-8H3/t21-,22+,23-,24+,25+,26+,27-,28-,29+,30+,31-,32-,33+,34+,35-,36+,37-,39+,40+,41+,42-/m0/s1
Instrument: Shimadzu LC20A-IT-TOFMS
Instrument type: LC-ESI-ITTOF
Ms type: MS
Ion mode: POSITIVE
Column name: Waters Atlantis T3 (2.1 x 150 mm, 5 um)
Retention time: 780.501 sec
Ion type: [M+Na]+
m/z	relative intensity
405.3495	419
406.3529	120
423.3587	999
424.3618	327
425.3684	89
441.3689	403
442.3690	130
603.4188	390
604.4287	144
621.4323	297
622.4380	84
823.4819	56
