Mass spectrum: Hispidulin acetate; LC-ESI-ITTOF; MS2; [M-C2H3O]-
Name: Hispidulin acetate
Name: 5,7-Bis(acetyloxy)-2-[4-(acetyloxy)phenyl]-6-methoxy-4H-1-benzopyran-4-one
Name: 4',5,7-Trihydroxy-6-methoxy-flavone triacetate
Name: Dinatin triacetate
Name: Hispidulin triacetate
Class: Natural Product; Flavonoid
Formula: C22H18O9
Exact mass: 426.09508
SMILES: CC(=O)Oc(c3)ccc(c3)C(=C2)Oc(c1)c(C(=O)2)c(OC(C)=O)c(OC)c(OC(C)=O)1
InChI: InChI=1S/C22H18O9/c1-11(23)28-15-7-5-14(6-8-15)17-9-16(26)20-18(31-17)10-19(29-12(2)24)21(27-4)22(20)30-13(3)25/h5-10H,1-4H3
Instrument: LCMS-IT-TOF
Instrument type: LC-ESI-ITTOF
Ms type: MS2
Ion mode: NEGATIVE
Column name: Waters Atlantis T3 (2.1 x 150 mm, 5 um)
Retention time: 21.615383 min
Base peak: 326.045400
Precursor m/z: 383.075900
Precursor type: [M-C2H3O]-
m/z	relative intensity
255.025900	14
283.024700	223
284.027900	63
285.032900	8
297.082100	11
325.923900	8
326.045400	999
326.201600	14
326.357800	26
326.600900	12
326.826700	6
327.052600	258
327.348100	6
328.043900	29
341.067700	631
341.227400	9
341.387200	13
341.635800	9
342.062200	140
343.076000	19
