Mass spectrum: Kaempferitrin; LC-ESI-ITTOF; MS; [M+H]+
Name: Kaempferitrin
Name: 3-Rha-7-Rha Kaempferol
Name: Kaempferol-3-O-rhamnoside-7-O-rhamnoside
Name: 3,4',5,7-Tetrahydroxyflavone 3,7-dirhamnoside
Name: 3,7-Bis[(6-deoxy-alpha-L-mannopyranosyl)oxy]-5-hydroxy-2-(4-hydroxyphenyl)-4H-1-benzopyran-4-one
Name: Lespedin
Name: Lespenephryl
Class: Natural Product; Flavonoid
Formula: C27H30O14
Exact mass: 578.16356
SMILES: C[C@H]1[C@@H]([C@H]([C@H]([C@@H](O1)OC2=CC(=C3C(=C2)OC(=C(C3=O)O[C@H]4[C@@H]([C@@H]([C@H]([C@@H](O4)C)O)O)O)C5=CC=C(C=C5)O)O)O)O)O
InChI: InChI=1S/C27H30O14/c1-9-17(30)20(33)22(35)26(37-9)39-13-7-14(29)16-15(8-13)40-24(11-3-5-12(28)6-4-11)25(19(16)32)41-27-23(36)21(34)18(31)10(2)38-27/h3-10,17-18,20-23,26-31,33-36H,1-2H3/t9-,10-,17-,18-,20+,21+,22+,23+,26-,27-/m0/s1
Instrument: LCMS-IT-TOF
Instrument type: LC-ESI-ITTOF
Ms type: MS
Ion mode: POSITIVE
Column name: Waters Atlantis T3 (2.1 x 150 mm, 5 um)
Retention time: 11.126667 min
Base peak: 579.164100
m/z	relative intensity
287.053900	375
287.200400	8
288.047900	54
433.118600	952
433.538600	18
433.738800	9
434.119100	146
435.120800	20
579.164100	999
579.395400	16
579.649800	22
579.904400	11
580.182100	408
581.177800	88
582.174400	13
601.154000	13
725.224200	40
726.233800	13
727.218200	10
871.277000	6
