Mass spectrum: Benzoylmesaconine; LC-ESI-ITTOF; MS; [M+H]+
Name: Benzoylmesaconine
Name: (1alpha,3alpha,6alpha,14alpha,15alpha,16beta)- 1,6,16-Trimethoxy-4-(methoxymethyl)-20-methyl-aconitane-3,8,13,14,15-pentol 14-benzoate
Name: 2H-12,3,6a-Ethanylylidene-7,9-methanonaphth[2,3-b]azocine aconitane-3,8,13,14,15-pentol deriv.
Name: 14-O-Benzoylmesaconine
Name: 8-Deacetylmesaconitine
Name: Mesaconine 14-benzoate
Name: O8-Deacetylmesaconitine
Class: Natural Product; Alkaloid
Formula: C31H43NO10
Exact mass: 589.28870
SMILES: COC(C61[H])C([H])(C75COC)C(C6([H])N(C7)C)(C(OC)CC5O)C(C2)(C([H])(C(OC(c(c4)cccc4)=O)3)C1(O)C(O)C(OC)C23O)[H]
InChI: InChI=1S/C31H43NO10/c1-32-13-28(14-38-2)17(33)11-18(39-3)30-16-12-29(36)25(42-27(35)15-9-7-6-8-10-15)19(16)31(37,24(34)26(29)41-5)20(23(30)32)21(40-4)22(28)30/h6-10,16-26,33-34,36-37H,11-14H2,1-5H3/t16-,17-,18+,19-,20+,21+,22-,23+,24+,25-,26+,28+,29-,30+,31-/m1/s1
Instrument: LCMS-IT-TOF
Instrument type: LC-ESI-ITTOF
Ms type: MS
Ion mode: POSITIVE
Column name: Waters Atlantis T3 (2.1 x 150 mm, 5 um)
Retention time: 14.451667 min
Base peak: 590.295600
Ion type: [M+H]+
m/z	relative intensity
540.249100	6
558.265600	4
590.295600	999
590.786000	17
591.042900	15
591.299900	351
591.720600	7
592.047900	5
592.305200	80
593.311300	11
