Mass spectrum: Prunin; LC-ESI-ITTOF; MS2; [M-H]-
Name: Prunin
Name: (2S)-7-(beta-D-Glucopyranosyloxy)-2,3-dihydro-5-hydroxy-2-(4-hydroxyphenyl)-4H-1-benzopyran-4-one
Name: (S)-7-(beta-D-Glucopyranosyloxy)-2,3-dihydro-5-hydroxy-2-(4-hydroxyphenyl)-4H-1-benzopyran-4-one
Name: (-)-Naringenin 7-beta-D-glucoside
Name: 4',5,7-Trihydroxyflavanone 7-O-beta-D-glucopyranoside
Name: Naringenin 7-O-glucoside
Name: Naringenin 7-O-beta-D-glucopyranoside
Name: Naringenin 7-O-beta-D-glucoside
Name: Naringenin 7-glucoside
Class: Natural Product; Flavonoid
Formula: C21H22O10
Exact mass: 434.12130
SMILES: OCC(O1)C(O)C(O)C(O)C1Oc(c4)cc(O2)c(c(O)4)C(=O)CC(c(c3)ccc(O)c3)2
InChI: InChI=1S/C21H22O10/c22-8-16-18(26)19(27)20(28)21(31-16)29-11-5-12(24)17-13(25)7-14(30-15(17)6-11)9-1-3-10(23)4-2-9/h1-6,14,16,18-24,26-28H,7-8H2/t14-,16+,18+,19-,20+,21+/m0/s1
Instrument: LCMS-IT-TOF
Instrument type: LC-ESI-ITTOF
Ms type: MS2
Ion mode: NEGATIVE
Column name: Waters Atlantis T3 (2.1 x 150 mm, 5 um)
Retention time: 12.272017 min
Base peak: 271.067900
Precursor m/z: 433.111600
m/z	relative intensity
151.001300	69
152.006700	6
177.021900	33
270.957200	8
271.067900	999
271.210300	20
271.352800	23
271.542800	12
271.796200	4
272.065600	205
273.065100	16
313.067000	5
