Mass spectrum: Nodakenin; LC-ESI-ITTOF; MS2; [M+CH3COOH-H]-
Name: Nodakenin
Name: (2R)-2-[1-(beta-D-Glucopyranosyloxy)-1-methylethyl]-2,3-dihydro-7H-furo[3,2-g][1]benzopyran-7-one
Name: (R)-2-[1-(beta-D-Glucopyranosyloxy)-1-methylethyl]-2,3-dihydro-7H-furo[3,2-g][1]benzopyran-7-one
Name: (+)-Marmesinin
Name: Nodakenetin beta-D-glucopyranoside
Class: Natural Product; Coumarin
Formula: C20H24O9
Exact mass: 408.14203
SMILES: OCC(O1)C(O)C(O)C(O)C1OC(C)(C)C(C2)Oc(c3)c(cc(C=4)c(OC(=O)C4)3)2
InChI: InChI=1S/C20H24O9/c1-20(2,29-19-18(25)17(24)16(23)13(8-21)28-19)14-6-10-5-9-3-4-15(22)27-11(9)7-12(10)26-14/h3-5,7,13-14,16-19,21,23-25H,6,8H2,1-2H3/t13-,14-,16-,17+,18-,19+/m1/s1
Instrument: LCMS-IT-TOF
Instrument type: LC-ESI-ITTOF
Ms type: MS2
Ion mode: NEGATIVE
Column name: Waters Atlantis T3 (2.1 x 150 mm, 5 um)
Retention time: 11.887050 min
Base peak: 227.075100
Precursor m/z: 467.150700
m/z	relative intensity
167.047300	13
189.013100	6
211.034900	464
211.300200	10
211.481900	5
212.041200	112
213.049900	7
225.052300	13
226.973700	7
227.075100	999
227.205400	17
227.335800	23
227.524200	12
227.727100	4
228.075300	199
228.336600	5
229.077700	36
245.084700	52
246.078600	16
257.082400	16
258.084900	5
259.089300	10
287.092300	13
317.096400	5
407.125300	232
408.134200	65
409.144300	8
