Mass spectrum: Cirsiliol; LC-ESI-ITTOF; MS; [M-H]-
Name: Cirsiliol
Name: 2-(3,4-Dihydroxyphenyl)-5-hydroxy-6,7-dimethoxy-4H-1-benzopyran-4-one
Name: 3',4',5-Trihydroxy-6,7-dimethoxy-flavone
Name: 5,3',4'-Trihydroxy-6,7-dimethoxyflavone
Name: 6,7-Dimethoxy-5,3',4'-trihydroxyflavone
Name: 6-Hydroxyluteolin-6,7-dimethyl ether
Name: 6-Methoxyluteolin 7-methyl ether
Class: Natural Product; Flavonoid
Formula: C17H14O7
Exact mass: 330.07395
SMILES: COc(c1)c(OC)c(O)c(C(=O)3)c1OC(=C3)c(c2)cc(O)c(O)c2
InChI: InChI=1S/C17H14O7/c1-22-14-7-13-15(16(21)17(14)23-2)11(20)6-12(24-13)8-3-4-9(18)10(19)5-8/h3-7,18-19,21H,1-2H3
Instrument: LCMS-IT-TOF
Instrument type: LC-ESI-ITTOF
Ms type: MS
Ion mode: NEGATIVE
Column name: Waters Atlantis T3 (2.1 x 150 mm, 5 um)
Retention time: 18.464117 min
Base peak: 329.065600
m/z	relative intensity
285.028200	6
299.018000	58
300.015900	9
313.036900	12
314.040800	97
315.046300	12
329.065600	999
329.239900	13
329.379400	21
329.606200	14
330.077400	184
331.073300	35
392.066200	64
393.075300	13
443.056800	198
444.068700	34
659.127900	557
659.646100	15
659.917600	6
660.139800	234
661.152400	42
662.141100	9
681.117200	12
723.126000	7
750.329200	6
1113.159000	9
1205.040300	6
1339.771500	9
1555.596600	6
