Mass spectrum: Schizandrin; LC-ESI-ITTOF; MS; [M+NH3+H]+
Name: Schizandrin
Name: Dibenzo[a,c]cycloocten-6-ol, 5,6,7,8-tetrahydro-1,2,3,10,11,12-hexamethoxy-6,7-dimethyl-, (6S,7S,12aR)-
Name: (+)-Schizandrin
Name: Schisandrin
Name: Schisandrol A
Name: Schizandrol A
Name: Wuweizi alcohol A
Name: Wuweizichun A
Class: Natural Product; Lignan
Formula: C24H32O7
Exact mass: 432.21480
SMILES: COc(c3)c(OC)c(OC)c(c13)c(c(OC)2)c(cc(OC)c(OC)2)CC(C)(O)C(C)C1
InChI: InChI=1S/C24H32O7/c1-13-9-14-10-16(26-3)20(28-5)22(30-7)18(14)19-15(12-24(13,2)25)11-17(27-4)21(29-6)23(19)31-8/h10-11,13,25H,9,12H2,1-8H3
Instrument: Shimadzu LC20A-IT-TOFMS
Instrument type: LC-ESI-ITTOF
Ms type: MS
Ion mode: POSITIVE
Column name: Waters Atlantis T3 (2.1 x 150 mm, 5 um)
Retention time: 1315.600
Ion type: [M+NH3+H]+
m/z	relative intensity
415.2107	530
416.2108	128
433.2201	669
434.2236	184
450.2464	999
451.2503	304
452.2512	58
471.1753	64
882.4558	52
