Mass spectrum: 3',4',5,7-Tetramethylquercetin; LC-ESI-ITTOF; MS; [M+H]+
Name: 3',4',5,7-Tetramethylquercetin
Name: 2-(3,4-Dimethoxyphenyl)-3-hydroxy-5,7-dimethoxy-4H-1-benzopyran-4-one
Name: 3-Hydroxy-3',4',5,7-tetramethoxy-flavone
Name: 3-Hydroxy-3',4',5,7-tetramethoxyflavone
Name: 3-Hydroxy-5,7,3',4'-tetramethoxyflavone
Name: 3',4',5,7-Tetra-O-methylquercetin
Name: Averionol
Name: Quercetin 3',4',5,7-tetramethyl ether
Name: Quercetin 5,7,3',4'-tetramethyl ether
Class: Natural Product; Flavonoid
Formula: C19H18O7
Exact mass: 358.10525
SMILES: COc(c3)cc(O1)c(c(OC)3)C(=O)C(O)=C1c(c2)cc(OC)c(OC)c2
InChI: InChI=1S/C19H18O7/c1-22-11-8-14(25-4)16-15(9-11)26-19(18(21)17(16)20)10-5-6-12(23-2)13(7-10)24-3/h5-9,21H,1-4H3
Instrument: LCMS-IT-TOF
Instrument type: LC-ESI-ITTOF
Ms type: MS
Ion mode: POSITIVE
Column name: Waters Atlantis T3 (2.1 x 150 mm, 5 um)
Retention time: 20.351667 min
Base peak: 359.108200
m/z	relative intensity
283.047900	3
299.047000	4
301.061100	7
315.076400	6
329.061800	18
343.083900	31
344.099200	28
359.108200	999
359.290400	15
359.490800	19
359.691200	13
359.946400	4
360.110500	237
360.493600	5
360.694300	3
361.114200	34
381.086800	4
715.194000	14
716.196600	5
739.189700	19
740.209000	8
