Mass spectrum: Sennoside B; LC-ESI-ITTOF; MS; [M-H]-
Name: Sennoside B
Name: [9,9'-Bianthracene]-2,2'-dicarboxylic acid, 5,5'-bis(beta-D-glucopyranosyloxy)-9,9',10,10'-tetrahydro-4,4'-dihydroxy-10,10'-dioxo-, (9R,9'S)-
Name: [9,9'-Bianthracene]-2,2'-dicarboxylic acid, 5,5'-bis(beta-D-glucopyranosyloxy)-9,9',10,10'-tetrahydro-4,4'-dihydroxy-10,10'-dioxo-, (R*,S*)-
Class: Natural Product; Anthraquinone
Formula: C42H38O20
Exact mass: 862.19564
SMILES: OC(=O)c(c8)cc(c(c38)C(c(c(C([H])(C([H])(c67)c(c(C(c(c(cc(c7)C(O)=O)O)6)=O)4)cccc4OC(C(O)5)OC(CO)C(C5O)O)3)2)c(ccc2)OC(C(O)1)OC(CO)C(C1O)O)=O)O
InChI: InChI=1S/C42H38O20/c43-11-23-31(47)35(51)37(53)41(61-23)59-21-5-1-3-15-25(17-7-13(39(55)56)9-19(45)27(17)33(49)29(15)21)26-16-4-2-6-22(60-42-38(54)36(52)32(48)24(12-44)62-42)30(16)34(50)28-18(26)8-14(40(57)58)10-20(28)46/h1-10,23-26,31-32,35-38,41-48,51-54H,11-12H2,(H,55,56)(H,57,58)/t23-,24-,25-,26+,31-,32-,35+,36+,37-,38-,41-,42-/m1/s1
Instrument: Shimadzu LC20A-IT-TOFMS
Instrument type: LC-ESI-ITTOF
Ms type: MS
Ion mode: NEGATIVE
Column name: Waters Atlantis T3 (2.1 x 150 mm, 5 um)
Retention time: 212.269
Ion type: [M-H]-
m/z	relative intensity
386.0984	72
430.0877	999
430.5879	440
431.0889	133
861.1863	210
861.6842	68
862.1898	90
