Mass spectrum: Saikosaponin B2; LC-ESI-ITTOF; MS2; [M-H]-
Name: Saikosaponin B2
Name: (3beta,4alpha,16alpha)-16,23,28-Trihydroxyoleana-11,13(18)-dien-3-yl 6-deoxy-3-O-beta-D-glucopyranosyl-beta-D-galactopyranoside
Class: Natural Product; Saponin
Formula: C42H68O13
Exact mass: 780.46599
SMILES: C(C(O)1)C(C)(C3(C)7)C(C=CC3(C(C6)(C)C(CC7)(C(CO)(C(C6)OC([H])(C(O)4)OC(C)C(C(OC([H])(C5O)OC(CO)C(C5O)O)4)O)C)[H])[H])=C(C2)C1(CCC2(C)C)CO
InChI: InChI=1S/C42H68O13/c1-21-29(47)34(55-35-32(50)31(49)30(48)24(18-43)53-35)33(51)36(52-21)54-28-11-12-38(4)25(39(28,5)19-44)10-13-40(6)26(38)9-8-22-23-16-37(2,3)14-15-42(23,20-45)27(46)17-41(22,40)7/h8-9,21,24-36,43-51H,10-20H2,1-7H3/t21-,24-,25-,26-,27-,28+,29+,30-,31+,32-,33-,34+,35+,36+,38+,39+,40-,41-,42-/m1/s1
Instrument: LCMS-IT-TOF
Instrument type: LC-ESI-ITTOF
Ms type: MS2
Ion mode: NEGATIVE
Column name: Waters Atlantis T3 (2.1 x 150 mm, 5 um)
Retention time: 19.405383 min
Base peak: 617.400600
Precursor m/z: 779.458900
m/z	relative intensity
375.277700	17
391.305500	45
392.294600	12
403.295300	12
405.304800	6
406.311400	5
407.299800	14
421.303700	6
423.318000	76
424.326900	28
439.322700	156
440.330400	68
441.319000	7
451.327300	15
452.328100	12
465.336700	9
471.346700	69
472.348600	34
473.351600	10
514.365700	5
541.342800	26
542.349400	14
587.378800	5
617.400600	999
617.639400	12
617.830500	19
618.164900	12
618.403900	586
618.642900	6
618.858000	13
619.407900	218
619.838500	8
620.412800	36
621.418500	7
