Mass spectrum: Resibufogenin; LC-ESI-ITTOF; MS; [M+H]+
Name: Resibufogenin
Name: Bufa-20,22-dienolide, 14,15-epoxy-3-hydroxy-, (3beta,5beta,15beta)-
Name: 5beta-Bufa-20,22-dienolide, 14,15beta-epoxy-3beta-hydroxy-
Name: 14,15beta-Epoxy-3beta-hydroxy-5beta-bufa-20,22-dienolide
Name: 3beta-Hydroxy-14,15beta-epoxy-5beta-bufa-20,22-dienolide
Name: Bufogenin
Name: NSC 90783
Name: Recibufogenin
Name: Resi
Name: Respigon
Class: Natural Product; Steroid
Formula: C24H32O4
Exact mass: 384.23006
SMILES: C(C5(C)6)([H])(CC(O)CC6)CCC(C5([H])1)(C(O4)(C42)C(C(C(C=3)=COC(=O)C3)C2)(C)CC1)[H]
InChI: InChI=1S/C24H32O4/c1-22-9-7-16(25)11-15(22)4-5-18-17(22)8-10-23(2)19(12-20-24(18,23)28-20)14-3-6-21(26)27-13-14/h3,6,13,15-20,25H,4-5,7-12H2,1-2H3/t15-,16+,17+,18-,19-,20-,22+,23-,24-/m1/s1
Instrument: Shimadzu LC20A-IT-TOFMS
Instrument type: LC-ESI-ITTOF
Ms type: MS
Ion mode: POSITIVE
Column name: Waters Atlantis T3 (2.1 x 150 mm, 5 um)
Retention time: 1276.101
Ion type: [M+H]+
m/z	relative intensity
385.2366	999
386.2383	248
