Mass spectrum: Ginsenoside Rg1; LC-ESI-ITTOF; MS2; [M+CH3COOH-H]-
Name: Ginsenoside Rg1
Name: Bis-(3beta,6alpha,12beta)-3,12-dihydroxydammar-24-ene-6,20-diyl beta-D-glucopyranoside
Name: Panaxoside A
Name: Dammarane beta-D-glucopyranoside deriv.
Name: Ginsenoside A2
Name: Ginsenoside g1
Name: Panaxoside Rg1
Name: anaxsaponin Rg1
Name: Sanchinoside C1
Name: Sanchinoside Rg1
Class: Natural Product; Saponin
Formula: C42H72O14
Exact mass: 800.49221
SMILES: C(C6)(C32C)([H])C(C(C)(C4(C(O)6)[H])CCC(C(OC(C(O)5)OC(CO)C(C5O)O)(C)CCC=C(C)C)([H])4)(CC(C2(C(C(CC3)O)(C)C)[H])OC([H])(O1)C(C(O)C(O)C(CO)1)O)C
InChI: InChI=1S/C42H72O14/c1-20(2)10-9-13-42(8,56-37-34(52)32(50)30(48)25(19-44)55-37)21-11-15-40(6)28(21)22(45)16-26-39(5)14-12-27(46)38(3,4)35(39)23(17-41(26,40)7)53-36-33(51)31(49)29(47)24(18-43)54-36/h10,21-37,43-52H,9,11-19H2,1-8H3/t21-,22+,23-,24+,25+,26+,27-,28-,29+,30+,31-,32-,33+,34+,35-,36+,37-,39+,40+,41+,42-/m0/s1
Instrument: LCMS-IT-TOF
Instrument type: LC-ESI-ITTOF
Ms type: MS2
Ion mode: NEGATIVE
Column name: Waters Atlantis T3 (2.1 x 150 mm, 5 um)
Retention time: 13.305517 min
Base peak: 799.490200
Precursor m/z: 859.503500
m/z	relative intensity
389.255300	9
391.286500	175
392.275600	57
393.284900	7
457.369700	10
475.381700	435
475.758900	14
476.010500	7
476.367000	242
477.374200	58
478.382500	8
553.348000	7
579.880400	5
619.407900	13
620.412800	9
637.426400	324
638.421500	222
638.858600	6
639.441700	74
640.438300	18
799.490200	999
799.734800	17
799.979400	22
800.495900	677
800.985400	15
801.475000	208
802.481900	44
864.477400	5
