Mass spectrum: Morin; LC-ESI-ITTOF; MS; [M-H]-
Name: Morin
Name: 2-(2,4-Dihydroxyphenyl)-3,5,7-trihydroxy-4H-1-benzopyran-4-one
Name: 2',3,4',5,7-Pentahydroxy-flavone
Name: 2',3,4',5,7-Pentahydroxyflavone
Name: 2',4',3,5,7-Pentahydroxyflavone
Name: 2'-Hydroxypelargidenolon 1522
Name: 3,5,7,2',4'-Pentahydroxyflavone
Name: 3,5,7,2',4'-Pentahydroxyflavonol
Class: Natural Product; Flavonoid
Formula: C15H10O7
Exact mass: 302.04265
SMILES: Oc(c3)cc(O)c(c3)C(O1)=C(O)C(=O)c(c(O)2)c(cc(O)c2)1
InChI: InChI=1S/C15H10O7/c16-6-1-2-8(9(18)3-6)15-14(21)13(20)12-10(19)4-7(17)5-11(12)22-15/h1-5,16-19,21H
Instrument: LCMS-IT-TOF
Instrument type: LC-ESI-ITTOF
Ms type: MS
Ion mode: NEGATIVE
Column name: Waters Atlantis T3 (2.1 x 150 mm, 5 um)
Retention time: 10.155783 min
Base peak: 301.037200
m/z	relative intensity
229.051800	7
257.040200	6
271.013900	12
273.042600	9
299.023100	16
300.021000	4
301.037200	999
301.203900	15
301.337400	23
301.570900	12
302.038400	179
303.041300	28
315.017800	8
317.033600	16
415.025400	40
416.044000	7
601.048000	6
603.075800	109
604.090900	46
605.083300	8
619.062200	16
625.054000	8
