Mass spectrum: Sakuranetin; LC-ESI-ITTOF; MS; [M+H]+
Name: Sakuranetin
Name: (2S)-2,3-Dihydro-5-hydroxy-2-(4-hydroxyphenyl)-7-methoxy-4H-1-benzopyran-4-one
Name: (S)-2,3-Dihydro-5-hydroxy-2-(4-hydroxyphenyl)-7-methoxy-4H-1-benzopyran-4-one
Name: (S)-(-)-4',5-Dihydroxy-7-methoxy-flavanone
Name: (-)-(S)-Sakuranetin
Name: (S)-4',5-Dihydroxy-7-methoxyflavanone
Name: 5,4'-Dihydroxy-7-methoxyflavanone
Name: 7-O-Methylnaringenin
Name: Naringenin 7-O-methyl ether
Name: Naringenin 7-methyl ether
Class: Natural Product; Flavonoid
Formula: C16H14O5
Exact mass: 286.08412
SMILES: COc(c3)cc(O1)c(c(O)3)C(=O)CC1c(c2)ccc(O)c2
InChI: InChI=1S/C16H14O5/c1-20-11-6-12(18)16-13(19)8-14(21-15(16)7-11)9-2-4-10(17)5-3-9/h2-7,14,17-18H,8H2,1H3/t14-/m0/s1
Instrument: LCMS-IT-TOF
Instrument type: LC-ESI-ITTOF
Ms type: MS
Ion mode: POSITIVE
Column name: Waters Atlantis T3 (2.1 x 150 mm, 5 um)
Retention time: 20.526667 min
Base peak: 287.086400
m/z	relative intensity
200.144600	7
211.056500	7
285.087200	18
286.939900	7
287.086400	999
287.249300	13
287.379600	23
287.607700	12
287.819600	8
288.096800	124
289.092600	10
290.237500	4
304.051700	4
316.065000	3
333.116900	3
339.018400	3
344.151100	5
346.597800	5
353.104300	7
359.015600	4
362.026200	5
370.097500	6
392.024300	5
401.268000	4
423.097600	12
436.063400	3
449.102800	8
450.121700	5
450.611100	6
462.954400	3
476.240100	3
497.077900	5
531.638700	6
571.167000	23
591.135400	5
593.146400	6
594.129800	10
598.165400	6
604.150000	5
610.116900	18
626.099900	11
680.593100	4
735.169600	9
735.690800	5
935.827200	4
943.692800	6
1014.862000	4
1165.256300	5
1852.792200	8
