Mass spectrum: Scutellarein tetraacetate; LC-ESI-ITTOF; MS2; [M+H]+
Name: Scutellarein tetraacetate
Name: 5,6,7-Tris(acetyloxy)-2-[4-(acetyloxy)phenyl]-4H-1-benzopyran-4-one
Name: 4',5,6,7-Tetrahydroxy-flavone tetraacetate
Class: Natural Product; Flavonoid
Formula: C23H18O10
Exact mass: 454.09000
SMILES: CC(=O)Oc(c3)ccc(c3)C(=C2)Oc(c1)c(C(=O)2)c(OC(C)=O)c(OC(C)=O)c(OC(C)=O)1
InChI: InChI=1S/C23H18O10/c1-11(24)29-16-7-5-15(6-8-16)18-9-17(28)21-19(33-18)10-20(30-12(2)25)22(31-13(3)26)23(21)32-14(4)27/h5-10H,1-4H3
Instrument: LCMS-IT-TOF
Instrument type: LC-ESI-ITTOF
Ms type: MS2
Ion mode: POSITIVE
Column name: Waters Atlantis T3 (2.1 x 150 mm, 5 um)
Retention time: 21.607083 min
Base peak: 371.083700
Precursor m/z: 455.101900
m/z	relative intensity
287.056300	58
329.064400	239
329.221300	6
329.395700	6
371.083700	999
371.250300	18
371.417000	20
371.657800	12
372.084000	41
372.362100	4
395.062000	6
413.084100	439
413.494300	9
413.709300	6
414.100400	167
