Mass spectrum: Hispidulin acetate; LC-ESI-ITTOF; MS; [(M-C2H2O)-H]-
Name: Hispidulin acetate
Name: 5,7-Bis(acetyloxy)-2-[4-(acetyloxy)phenyl]-6-methoxy-4H-1-benzopyran-4-one
Name: 4',5,7-Trihydroxy-6-methoxy-flavone triacetate
Name: Dinatin triacetate
Name: Hispidulin triacetate
Class: Natural Product; Flavonoid
Formula: C22H18O9
Exact mass: 426.09508
SMILES: CC(=O)Oc(c3)ccc(c3)C(=C2)Oc(c1)c(C(=O)2)c(OC(C)=O)c(OC)c(OC(C)=O)1
InChI: InChI=1S/C22H18O9/c1-11(23)28-15-7-5-14(6-8-15)17-9-16(26)20-18(31-17)10-19(29-12(2)24)21(27-4)22(20)30-13(3)25/h5-10H,1-4H3
Instrument: LCMS-IT-TOF
Instrument type: LC-ESI-ITTOF
Ms type: MS
Ion mode: NEGATIVE
Column name: Waters Atlantis T3 (2.1 x 150 mm, 5 um)
Retention time: 21.639117 min
Base peak: 383.069500
m/z	relative intensity
283.024700	16
326.045400	82
327.052600	15
341.067700	254
341.227400	6
341.653600	4
342.062200	32
343.058200	6
355.050800	8
357.045400	4
363.044300	5
383.069500	999
383.257600	17
383.426900	23
383.690400	13
384.085800	244
384.424900	7
385.084600	46
415.044900	5
425.089500	21
441.047300	7
457.073000	6
465.079100	8
467.070700	7
468.068100	8
789.135100	7
