Mass spectrum: Hydrangenol; LC-ESI-ITTOF; MS; [M-H]-
Name: Hydrangenol
Name: 3,4-Dihydro-8-hydroxy-3-(4-hydroxyphenyl)-1H-2-benzopyran-1-one
Name: 3,4-Dihydro-8-hydroxy-3-(p-hydroxyphenyl)-isocoumarin
Class: Natural Product; Flavonoid
Formula: C15H12O4
Exact mass: 256.07356
SMILES: Oc(c3)ccc(c3)C(O1)Cc(c2)c(c(O)cc2)C(=O)1
InChI: InChI=1S/C15H12O4/c16-11-6-4-9(5-7-11)13-8-10-2-1-3-12(17)14(10)15(18)19-13/h1-7,13,16-17H,8H2/t13-/m1/s1
Instrument: LCMS-IT-TOF
Instrument type: LC-ESI-ITTOF
Ms type: MS
Ion mode: NEGATIVE
Column name: Waters Atlantis T3 (2.1 x 150 mm, 5 um)
Retention time: 19.322450 min
Base peak: 255.071900
m/z	relative intensity
208.046900	5
209.060000	30
210.061500	8
211.079500	349
211.372800	9
212.085900	41
237.061500	14
255.071900	999
255.210100	18
255.348300	26
255.563300	13
255.747700	5
256.070500	200
257.071000	32
269.040000	13
337.068600	6
430.974400	9
494.972400	33
509.139900	6
533.115100	27
534.136200	9
1499.519200	6
