Mass spectrum: Mangiferin; LC-ESI-ITTOF; MS; [M-H]-
Name: Mangiferin
Name: 2-beta-D-Glucopyranosyl-1,3,6,7-tetrahydroxy-9H-xanthen-9-one
Name: 1,3,6,7-Tetrahydroxyxanthone-C2-beta-D-glucoside
Name: 2-C-beta-D-Glucopyranosyl-1,3,6,7-tetrahydroxyxanthone
Name: Alpizarin
Name: Alpizarine
Name: Aphloiol
Name: Chinomin
Name: Chinonin
Name: Hedysarid
Name: Shamimin
Class: Natural Product; Xanthone
Formula: C19H18O11
Exact mass: 422.08491
SMILES: OCC(C(O)4)OC(C(O)C(O)4)c(c(O)3)c(O)c(C(=O)1)c(c3)Oc(c2)c(cc(O)c(O)2)1
InChI: InChI=1S/C19H18O11/c20-4-11-15(25)17(27)18(28)19(30-11)12-8(23)3-10-13(16(12)26)14(24)5-1-6(21)7(22)2-9(5)29-10/h1-3,11,15,17-23,25-28H,4H2/t11-,15-,17+,18-,19+/m1/s1
Instrument: LCMS-IT-TOF
Instrument type: LC-ESI-ITTOF
Ms type: MS
Ion mode: NEGATIVE
Column name: Waters Atlantis T3 (2.1 x 150 mm, 5 um)
Retention time: 7.055783 min
Base peak: 421.077000
m/z	relative intensity
285.032900	5
301.037200	46
302.021700	11
314.029300	6
331.044400	47
373.333100	9
403.053500	12
404.057300	6
419.048400	12
421.077000	999
421.254500	16
421.432000	21
421.688500	13
422.083300	210
422.261000	9
422.438700	7
423.090800	37
435.053700	15
436.056500	7
437.060400	6
447.529000	10
448.037300	6
453.075500	13
479.088700	7
519.031600	7
539.010900	5
594.024600	7
794.462100	6
843.156100	20
844.160900	9
896.057500	16
897.064500	9
1173.876700	6
1276.477500	6
