Mass spectrum: Cinobufotalin; LC-ESI-ITTOF; MS; [M+CH3COOH-H]-
Name: Cinobufotalin
Name: (3beta,5beta,15beta,16beta)-16-(Acetyloxy)-14,15-epoxy-3,5-dihydroxy-bufa-20,22-dienolide
Name: 14,15beta-Epoxy-3beta,5,16beta-trihydroxy-5beta-bufa-20,22-dienolide 16-acetate
Name: 14,15-Epoxy-14H-cyclopenta[a]phenanthrene bufa-20,22-dienolide deriv.
Class: Natural Product; Steroid
Formula: C26H34O7
Exact mass: 458.23045
SMILES: C(OC(C5C(C=6)=COC(=O)C6)C(C(C52C)1C(C4)(C(C(C)(C(O)3C4)CCC(C3)O)(CC2)[H])[H])O1)(C)=O
InChI: InChI=1S/C26H34O7/c1-14(27)32-21-20(15-4-5-19(29)31-13-15)24(3)10-7-17-18(26(24)22(21)33-26)8-11-25(30)12-16(28)6-9-23(17,25)2/h4-5,13,16-18,20-22,28,30H,6-12H2,1-3H3/t16-,17-,18+,20-,21+,22+,23+,24+,25-,26+/m0/s1
Instrument: LCMS-IT-TOF
Instrument type: LC-ESI-ITTOF
Ms type: MS
Ion mode: NEGATIVE
Column name: Waters Atlantis T3 (2.1 x 150 mm, 5 um)
Retention time: 18.680783 min
Base peak: 517.246500
Ion type: [M+CH3COOH-H]-
m/z	relative intensity
218.896200	7
238.050400	4
268.767900	7
278.928800	4
279.362300	4
297.922300	4
357.783300	4
365.972600	4
374.347500	4
397.201200	9
415.211500	4
416.210800	4
417.113000	4
431.243300	4
444.960100	9
445.953900	4
457.225800	86
458.212600	21
459.241700	13
461.241400	4
475.235100	11
476.241100	4
493.208000	45
494.190200	7
495.194700	15
496.200300	4
499.931800	4
503.224600	51
504.238300	22
505.209800	4
517.246500	999
517.465100	20
517.639900	19
517.946100	13
518.252300	392
518.646100	8
519.259100	83
520.223000	520
520.880700	4
521.209800	147
521.824200	4
522.219400	28
555.180500	4
568.115900	4
571.235100	33
572.223200	6
621.155000	4
788.820400	4
793.225900	8
803.789100	6
810.724200	4
815.409800	6
824.600800	7
829.658500	15
849.539400	4
883.968500	4
897.217600	4
915.472500	17
916.461300	7
917.479800	4
951.407000	4
1024.059000	4
1047.999000	4
1101.870100	4
1166.786900	4
1202.239900	4
1205.240400	7
1205.740900	11
1216.911300	11
1218.655000	6
1228.267900	4
1248.319800	4
1261.630100	4
1262.108000	4
1299.974100	4
1377.849500	4
1441.452600	4
1455.166500	6
1510.410300	9
1552.452300	4
1555.179700	4
1833.532800	4
1920.455900	4
