Mass spectrum: Isofraxidin; LC-ESI-ITTOF; MS; [M+H]+
Name: Isofraxidin
Name: 7-Hydroxy-6,8-dimethoxy-2H-1-benzopyran-2-one
Name: 7-Hydroxy-6,8-dimethoxy-coumarin
Name: 6,8-Dimethoxy-umbelliferone
Name: 6,8-Dimethoxy-7-hydroxycoumarin
Name: Phytodolor
Class: Natural Product; Coumarin
Formula: C11H10O5
Exact mass: 222.05282
SMILES: COc(c1)c(O)c(OC)c(O2)c(C=CC(=O)2)1
InChI: InChI=1S/C11H10O5/c1-14-7-5-6-3-4-8(12)16-10(6)11(15-2)9(7)13/h3-5,13H,1-2H3
Instrument: LCMS-IT-TOF
Instrument type: LC-ESI-ITTOF
Ms type: MS
Ion mode: POSITIVE
Column name: Waters Atlantis T3 (2.1 x 150 mm, 5 um)
Retention time: 11.835000 min
Base peak: 223.062100
m/z	relative intensity
207.028300	12
208.038900	47
209.038000	7
223.062100	999
223.191200	16
223.363600	23
223.507200	13
223.694000	7
224.067800	148
224.514000	5
225.061500	18
245.049600	38
261.021500	9
384.433200	5
441.075900	24
443.096400	34
444.088100	10
463.079700	5
465.087700	40
467.100100	7
481.055700	12
907.154600	11
