Mass spectrum: Cosmosiin; LC-ESI-ITTOF; MS; [M+H]+
Name: Cosmosiin
Name: 7-(beta-D-Glucopyranosyloxy)-5-hydroxy-2-(4-hydroxyphenyl)-4H-1-benzopyran-4-one
Name: Apigenin 7-beta-D-glucopyranoside
Name: 4',5,7-Trihydroxyflavone 7-glucoside
Name: 7-O-beta-D-Glucosylapigenin
Name: Apigenin 7-O-glucoside
Name: Apigenin 7-O-beta-D-glucopyranoside
Name: Apigenin 7-O-beta-D-glucoside
Name: Apigenin 7-O-beta-glucoside
Name: Apigenin 7-glucoside
Name: Apigenin 7-monoglucoside
Name: Apigenin 7-beta-D-glucoside
Name: Apigenin 7-beta-glucoside
Name: Apigenin-7-O-beta-glucopyranoside
Name: Apigetrin
Name: Cosmetin
Name: Cosmociin
Name: Cosmoside
Name: Cosmosiine
Name: Cosmosioside
Class: Natural Product; Flavonoid
Formula: C21H20O10
Exact mass: 432.10565
SMILES: OCC(O1)C(O)C(O)C(O)C1Oc(c4)cc(O2)c(c(O)4)C(=O)C=C(c(c3)ccc(O)c3)2
InChI: InChI=1S/C21H20O10/c22-8-16-18(26)19(27)20(28)21(31-16)29-11-5-12(24)17-13(25)7-14(30-15(17)6-11)9-1-3-10(23)4-2-9/h1-7,16,18-24,26-28H,8H2/t16-,18-,19+,20-,21-/m1/s1
Instrument: LCMS-IT-TOF
Instrument type: LC-ESI-ITTOF
Ms type: MS
Ion mode: POSITIVE
Column name: Waters Atlantis T3 (2.1 x 150 mm, 5 um)
Retention time: 11.966667 min
Base peak: 433.118600
m/z	relative intensity
238.889900	4
251.529000	4
256.629700	4
261.734900	4
263.167100	12
265.150700	20
271.066800	405
271.399200	20
271.573300	4
271.921800	8
272.064500	42
272.429200	4
273.159300	12
283.289000	4
291.794800	4
332.153000	20
333.643300	4
342.495200	4
359.434500	4
375.403700	4
378.313900	4
380.185300	4
383.772500	8
391.282600	4
392.176500	4
400.229200	12
408.227900	32
419.311000	10
424.640800	4
433.118600	999
433.318600	18
433.478600	18
433.979000	7
434.119100	189
435.120800	53
435.862800	6
436.123600	8
442.084200	4
445.201300	8
446.296900	12
449.102800	12
463.099100	12
471.074300	18
531.107100	14
594.246900	18
648.710600	4
670.129400	4
710.471400	4
733.112700	4
828.003400	4
841.608300	6
842.584400	4
866.263600	10
868.187900	6
887.205500	18
904.173800	28
912.805400	4
919.145700	19
949.458200	4
952.243600	4
1054.737900	4
1055.487000	4
1069.583000	4
1102.262700	4
1174.558300	4
1242.976100	4
1316.745700	10
1349.234100	4
1370.282800	18
1371.065500	4
1380.761100	4
1444.030900	4
1525.373800	4
1532.325100	4
1536.804800	10
1548.656500	8
1549.299500	4
1582.152500	4
1624.633000	4
1639.929900	4
1647.020200	4
1669.246400	4
1673.961200	4
1727.300600	4
1829.207300	4
1986.794500	4
