Mass spectrum: Hispidulin acetate; LC-ESI-ITTOF; MS; [M+H]+
Name: Hispidulin acetate
Name: 5,7-Bis(acetyloxy)-2-[4-(acetyloxy)phenyl]-6-methoxy-4H-1-benzopyran-4-one
Name: 4',5,7-Trihydroxy-6-methoxy-flavone triacetate
Name: Dinatin triacetate
Name: Hispidulin triacetate
Class: Natural Product; Flavonoid
Formula: C22H18O9
Exact mass: 426.09508
SMILES: CC(=O)Oc(c3)ccc(c3)C(=C2)Oc(c1)c(C(=O)2)c(OC(C)=O)c(OC)c(OC(C)=O)1
InChI: InChI=1S/C22H18O9/c1-11(23)28-15-7-5-14(6-8-15)17-9-16(26)20-18(31-17)10-19(29-12(2)24)21(27-4)22(20)30-13(3)25/h5-10H,1-4H3
Instrument: LCMS-IT-TOF
Instrument type: LC-ESI-ITTOF
Ms type: MS
Ion mode: POSITIVE
Column name: Waters Atlantis T3 (2.1 x 150 mm, 5 um)
Retention time: 21.795000 min
Base peak: 385.091400
m/z	relative intensity
286.045300	91
287.037600	12
288.047900	12
301.076300	75
302.060900	25
318.135600	4
327.093400	4
343.082300	167
343.402800	7
344.079800	53
346.079200	13
385.091400	999
385.261100	15
385.449800	23
385.695100	15
385.959300	9
386.091500	299
387.092900	30
388.095600	5
427.099800	763
427.298500	18
427.477300	19
427.735600	11
428.093400	177
428.491200	10
429.108000	22
449.062100	8
465.065800	12
771.192500	6
853.189600	68
854.200400	17
855.211800	12
875.195900	35
876.162700	12
891.131300	14
938.003900	10
1028.530800	10
1103.603100	7
1210.162600	8
1301.620600	7
1454.310500	9
1784.438800	6
