Mass spectrum: Robinin; LC-ESI-ITTOF; MS; [M+H]+
Name: Robinin
Name: 3-[[6-O-(6-Deoxy-alpha-L-mannopyranosyl)-beta-D-galactopyranosyl]oxy]-7-[(6-deoxy-alpha-L-mannopyranosyl)oxy]-5-hydroxy-2-(4-hydroxyphenyl)-4H-1-benzopyran-4-one
Name: Kaempferol 3-O-alpha-L-rhamnopyranosyl-(1-6)-beta-D-galactopyranosyl 7-O-alpha-L-rhamnopyranoside
Class: Natural Product; Flavonoid
Formula: C33H40O19
Exact mass: 740.21638
SMILES: [C@@H]([C@@H](O)5)(O)[C@@H](O[C@H](CO[C@@H]([C@H](O)6)O[C@H]([C@H](O)[C@H]6O)C)[C@@H]5O)OC(=C3c(c4)ccc(O)c4)C(c(c(O3)1)c(O)cc(O[C@H](O2)[C@@H]([C@H](O)[C@H]([C@@H]2C)O)O)c1)=O
InChI: InChI=1S/C33H40O19/c1-10-19(36)23(40)26(43)31(47-10)46-9-17-21(38)25(42)28(45)33(51-17)52-30-22(39)18-15(35)7-14(49-32-27(44)24(41)20(37)11(2)48-32)8-16(18)50-29(30)12-3-5-13(34)6-4-12/h3-8,10-11,17,19-21,23-28,31-38,40-45H,9H2,1-2H3/t10-,11-,17+,19-,20-,21-,23+,24+,25-,26+,27+,28+,31+,32-,33-/m0/s1
Instrument: LCMS-IT-TOF
Instrument type: LC-ESI-ITTOF
Ms type: MS
Ion mode: POSITIVE
Column name: Waters Atlantis T3 (2.1 x 150 mm, 5 um)
Retention time: 9.868333 min
Base peak: 741.227500
m/z	relative intensity
222.789900	8
226.130100	8
287.058300	336
287.367700	8
287.579500	8
288.052300	52
289.064400	8
317.713000	8
342.857900	8
377.873800	8
386.138100	8
397.800700	8
416.943400	8
433.109200	468
433.749400	8
434.109800	104
435.111500	29
444.178700	8
508.901100	8
568.659300	8
595.155100	356
595.624100	8
596.163700	108
596.750500	8
597.173100	8
617.134600	97
618.137700	29
629.852600	8
633.112800	15
658.288600	8
672.243500	8
741.227500	999
741.463000	15
741.698500	21
742.222100	390
742.483900	8
742.772000	8
743.217300	97
744.213200	15
757.220400	22
763.208600	207
764.217800	60
765.201100	8
773.170200	8
779.167400	15
794.343100	8
849.884900	8
945.738900	8
1216.811500	8
1245.676100	8
1327.952100	8
1352.155000	8
1452.031900	8
1475.267900	8
1571.999900	8
1605.594100	8
1656.671200	15
1705.848300	8
