Mass spectrum: Capsaicin; LC-ESI-ITTOF; MS; [M+H]+
Name: Capsaicin
Name: (6E)-N-[(4-Hydroxy-3-methoxyphenyl)methyl]-8-methyl-6-nonenamide
Name: E-Capsaicin
Class: Natural Product; Capsaicinoid
Formula: C18H27NO3
Exact mass: 305.199094
SMILES: CC(C)/C=C/CCCCC(=O)NCC1=CC(=C(C=C1)O)OC
InChI: InChI=1S/C18H27NO3/c1-14(2)8-6-4-5-7-9-18(21)19-13-15-10-11-16(20)17(12-15)22-3/h6,8,10-12,14,20H,4-5,7,9,13H2,1-3H3,(H,19,21)/b8-6+
Instrument: Shimadzu LC20A-IT-TOFMS
Instrument type: LC-ESI-ITTOF
Ms type: MS
Ion mode: POSITIVE
Column name: Waters Atlantis T3 (2.1 x 150 mm, 5 um)
Retention time: 1337.300
Ion type: [M+H]+
m/z	relative intensity
137.0595	53
306.2078	999
307.2116	210
328.1881	123
344.1633	188
611.4079	583
612.4105	262
633.3852	74
