Mass spectrum: Paeoniflorin; LC-ESI-ITTOF; MS2; [M+NH4]+
Name: Paeoniflorin
Name: Peoniflorin
Name: [1aR-(1aalpha,2beta,3aalpha,5alpha,5aalpha,5balpha)]-5b-[(Benzoyloxy)methyl]tetrahydro-5-hydroxy-2-methyl-2,5-methano-1H-3,4-dioxacyclobuta[cd]pentalen-1a(2H)-yl  beta-D-glucopyranoside
Name: (1aR,2S,3aR,5R,5aR,5bS)-5b-[(Benzoyloxy)methyl]tetrahydro-5-hydroxy-2-methyl-2,5-methano-1H-3,4-dioxacyclobuta[cd]pentalen-1a(2H)-yl beta-D-glucopyranoside
Class: Natural Product; monoterpene glycoside
Formula: C23H28O11
Exact mass: 480.16316
SMILES: C[C@]12C[C@@]3([C@@H]4C[C@]1([C@@]4([C@H](O2)O3)COC(=O)C5=CC=CC=C5)O[C@H]6[C@@H]([C@H]([C@@H]([C@H](O6)CO)O)O)O)O
InChI: InChI=1S/C23H28O11/c1-20-9-22(29)13-7-23(20,32-18-16(27)15(26)14(25)12(8-24)31-18)21(13,19(33-20)34-22)10-30-17(28)11-5-3-2-4-6-11/h2-6,12-16,18-19,24-27,29H,7-10H2,1H3/t12-,13-,14-,15+,16-,18+,19-,20+,21+,22-,23+/m1/s1
Instrument: LCMS-IT-TOF
Instrument type: LC-ESI-ITTOF
Ms type: MS2
Ion mode: POSITIVE
Column name: Waters Atlantis T3 (2.1 x 150 mm, 5 um)
Retention time: 10.390267 min
Precursor m/z: 498.193500
Precursor type: [M+NH4]+
m/z	relative intensity
105.627000	8
151.073400	14
152.079000	6
161.060200	80
162.061800	40
179.074600	999
179.190400	13
179.306100	22
179.473500	12
179.653700	5
180.079000	198
181.073400	14
197.071300	30
197.287200	5
198.084400	18
301.111100	560
301.261200	8
301.444700	13
301.628300	9
302.112500	219
302.413200	5
303.115500	9
319.114800	93
320.111200	22
341.128700	12
463.162400	111
464.155600	57
464.694100	4
481.161100	25
