Mass spectrum: Dimethylesculetin; LC-ESI-ITTOF; MS; [M+H]+
Name: Dimethylesculetin
Name: 2H-1-Benzopyran-2-one, 6,7-dimethoxy-
Name: Coumarin, 6,7-dimethoxy-
Name: 6,7-Dimethoxycoumarin
Name: 6,7-Dimethylesculetin
Name: Aesculetin dimethyl ether
Name: Escoparone
Name: Esculetin 6,7-dimethyl ether
Name: Esculetin dimethyl ether
Name: O,O-Dimethylesculetin
Name: O-Methylisoscopoletin
Name: O-Methylscopoletin
Name: Scoparon
Name: Scoparone
Name: Scopoletin methyl ether
Name: Scopoletin monomethyl ether
Class: Natural Product; Coumarin
Formula: C11H10O4
Exact mass: 206.05791
SMILES: COc(c1)c(OC)cc(O2)c(C=CC(=O)2)1
InChI: InChI=1S/C11H10O4/c1-13-9-5-7-3-4-11(12)15-8(7)6-10(9)14-2/h3-6H,1-2H3
Instrument: Shimadzu LC20A-IT-TOFMS
Instrument type: LC-ESI-ITTOF
Ms type: MS
Ion mode: POSITIVE
Column name: Waters Atlantis T3 (2.1 x 150 mm, 5 um)
Retention time: 864.800
Ion type: [M+H]+
m/z	relative intensity
207.0650	999
208.0678	137
229.0450	62
