Mass spectrum: Scoparin; LC-ESI-ITTOF; MS; [M+H]+
Name: Scoparin
Name: 8-beta-D-Glucopyranosyl-5,7-dihydroxy-2-(4-hydroxy-3-methoxyphenyl)-4H-1-benzopyran-4-one
Name: 8-C-beta-D-Glucopyranosylchrysoeriol
Name: Chrysoeriol 8-C-glucoside
Name: Scoparine
Name: Scoparoside
Class: Natural Product; Flavonoid
Formula: C22H22O11
Exact mass: 462.11621
SMILES: COc(c(O)4)cc(cc4)C(=C3)Oc(c2C(=O)3)c(c(O)cc(O)2)C(O1)C(O)C(O)C(O)C(CO)1
InChI: InChI=1S/C22H22O11/c1-31-14-4-8(2-3-9(14)24)13-6-12(27)16-10(25)5-11(26)17(21(16)32-13)22-20(30)19(29)18(28)15(7-23)33-22/h2-6,15,18-20,22-26,28-30H,7H2,1H3/t15-,18-,19+,20-,22+/m1/s1
Instrument: LCMS-IT-TOF
Instrument type: LC-ESI-ITTOF
Ms type: MS
Ion mode: POSITIVE
Column name: Waters Atlantis T3 (2.1 x 150 mm, 5 um)
Retention time: 10.876667 min
Base peak: 463.128800
m/z	relative intensity
313.068800	9
314.072800	9
328.054000	8
343.086900	56
344.084500	7
373.085700	8
397.089300	6
427.107700	23
445.108300	35
446.122600	7
463.128800	999
463.315000	15
463.542500	17
463.770100	13
464.122000	267
464.536200	6
465.116300	58
466.132400	9
