Mass spectrum: Baicalin; LC-ESI-ITTOF; MS; [M-H]-
Name: Baicalin
Name: beta-D-Glucopyranosiduronic acid, 5,6-dihydroxy-4-oxo-2-phenyl-4H-1-benzopyran-7-yl
Name: Baicalein 7-O-beta-D-glucuronide
Name: Baicalein 7-glucuronide
Name: Baicalein 7-O-glucuronide
Name: Baicalein-7-D-glucuronide
Name: 572667_ALDRICH
Name: STOCK1N-21299
Name: TJN-151
Name: AIDS001402
Name: 7-D-Glucuronic acid-5,6-dihydroxyflavone
Name: LS-71490
Name: 5,6,7-Trihydroxyflavone-7-O-beta-D-glucopyranosideuronic acid
Name: 5,6-dihydroxy-4-oxo-2-phenyl-4H-1-benzopyran-7-yl beta-D-glucopyranosiduronic acid
Name: 5,6-dihydroxy-4-oxo-2-phenyl-4H-chromen-7-yl beta-D-glucopyranosiduronic acid
Class: Natural Product; Flavonoid
Formula: C21H18O11
Exact mass: 446.08491
SMILES: OC(=O)[C@@H](O1)[C@@H](O)[C@H](O)[C@@H](O)[C@@H]1Oc(c2)c(O)c(O)c(C(=O)3)c(OC(c(c4)cccc4)=C3)2
InChI: InChI=1S/C21H18O11/c22-9-6-10(8-4-2-1-3-5-8)30-11-7-12(14(23)15(24)13(9)11)31-21-18(27)16(25)17(26)19(32-21)20(28)29/h1-7,16-19,21,23-27H,(H,28,29)/t16-,17-,18+,19-,21+/m0/s1
Instrument: Shimadzu LC20A-IT-TOFMS
Instrument type: LC-ESI-ITTOF
Ms type: MS
Ion mode: NEGATIVE
Column name: Waters Atlantis T3 (2.1 x 150 mm, 5 um)
Retention time: 638.699 sec
Ion type: [M-H]-
m/z	relative intensity
267.0272	143
269.0437	251
443.0553	51
445.0751	756
446.0769	188
889.1453	104
891.1593	999
892.1601	528
893.1622	204
