Mass spectrum: Alisol B 23-acetate; LC-ESI-ITTOF; MS; [M+CH3COOH-H]-
Name: Alisol B 23-acetate
Name: Dammar-13(17)-en-3-one, 23-(acetyloxy)-24,25-epoxy-11-hydroxy-, (8alpha,9beta,11beta,14beta,23S,24R)-
Name: 8alpha,9beta,14beta-Dammar-13(17)-en-3-one, 24,25-epoxy-11beta,23-dihydroxy-, 23-acetate, (23S,24R)-
Name: 23-O-Acetylalisol B
Name: Alisol B 23-monoacetate
Name: Alisol B monoacetate
Name: Acetylalisol B
Name: Alisol B acetate
Name: 24,25-Epoxy-11,23-dihydroxyprotost-13(17)-en-3-one, 23-Ac
Class: Natural Product; Saponin
Formula: C32H50O5
Exact mass: 514.36582
SMILES: C(C5([H])1)(C(=O)CCC1(C(C(CC5)(C)4)(C(O)CC(C43C)=C(CC3)C(C)CC(OC(C)=O)C([H])(O2)C2(C)C)[H])C)(C)C
InChI: InChI=1S/C32H50O5/c1-18(16-23(36-19(2)33)27-29(5,6)37-27)20-10-14-31(8)21(20)17-22(34)26-30(7)13-12-25(35)28(3,4)24(30)11-15-32(26,31)9/h18,22-24,26-27,34H,10-17H2,1-9H3/t18-,22+,23+,24+,26+,27-,30+,31+,32+/m1/s1
Instrument: Shimadzu LC20A-IT-TOFMS
Instrument type: LC-ESI-ITTOF
Ms type: MS
Ion mode: NEGATIVE
Ionization: ESI
Column name: Waters Atlantis T3 (2.1 x 150 mm, 5 um)
Retention time: 1920.799 sec
Ion type: [M+CH3COOH-H]-
m/z	relative intensity
573.3797	999
574.3830	429
575.3849	99
