Mass spectrum: Eleutheroside B; LC-ESI-ITTOF; MS; [M+CH3COOH-H]-
Name: Eleutheroside B
Name: beta-D-Glucopyranoside, 4-[(1E)-3-hydroxy-1-propen-1-yl]-2,6-dimethoxyphenyl
Name: Syringin
Name: beta-D-Glucopyranoside, 4-(3-hydroxy-1-propenyl)-2,6-dimethoxyphenyl, (E)-
Name: beta-D-Glucopyranoside, 4-[(1E)-3-hydroxy-1-propenyl]-2,6-dimethoxyphenyl
Name: Ilexanthin A
Name: Ligustrin
Name: Lilacin
Name: Magnolenin
Name: Methoxyconiferine
Name: NSC 287441
Name: Sinapyl alcohol 4-O-glucoside
Name: Siringin
Name: Syringoside
Class: Natural Product; Phenylpropanoid
Formula: C17H24O9
Exact mass: 372.14203
SMILES: OCC=Cc(c1)cc(OC)c(OC(O2)C(O)C(O)C(O)C(CO)2)c(OC)1
InChI: InChI=1S/C17H24O9/c1-23-10-6-9(4-3-5-18)7-11(24-2)16(10)26-17-15(22)14(21)13(20)12(8-19)25-17/h3-4,6-7,12-15,17-22H,5,8H2,1-2H3/b4-3+/t12-,13-,14+,15-,17+/m1/s1
Instrument: Shimadzu LC20A-IT-TOFMS
Instrument type: LC-ESI-ITTOF
Ms type: MS
Ion mode: NEGATIVE
Column name: Waters Atlantis T3 (2.1 x 150 mm, 5 um)
Retention time: 467.800
Ion type: [M+CH3COOH-H]-
m/z	relative intensity
209.0810	355
371.1335	261
431.1552	999
432.1578	308
433.1624	69
743.2706	61
