Mass spectrum: Rhoifolin; LC-ESI-ITTOF; MS; [M+H]+
Name: Rhoifolin
Name: 7-[[2-O-(6-Deoxy-alpha-L-mannopyranosyl)-beta-D-glucopyranosyl]oxy]-5-hydroxy-2-(4-hydroxyphenyl)-4H-1-Benzopyran-4-one
Name: beta-Apigenin-7 neohesperidoside
Name: Apigenin 7-O-neohesperidoside
Name: Apigenin 7-O-beta-D-neohesperidoside
Name: Apigenin 7-O-beta-neohesperidoside
Name: Apigenin 7-neohesperidoside
Name: Rhoifoloside
Class: Natural Product; Flavonoid
Formula: C27H30O14
Exact mass: 578.16356
SMILES: O([C@H]5C)[C@H]([C@@H]([C@@H]([C@H]5O)O)O)O[C@H]([C@H]4O)[C@@H](O[C@@H]([C@H]4O)CO)Oc(c3)cc(O1)c(c3O)C(C=C(c(c2)ccc(O)c2)1)=O
InChI: InChI=1S/C27H30O14/c1-10-20(32)22(34)24(36)26(37-10)41-25-23(35)21(33)18(9-28)40-27(25)38-13-6-14(30)19-15(31)8-16(39-17(19)7-13)11-2-4-12(29)5-3-11/h2-8,10,18,20-30,32-36H,9H2,1H3/t10-,18+,20-,21+,22+,23-,24+,25+,26-,27+/m0/s1
Instrument: LCMS-IT-TOF
Instrument type: LC-ESI-ITTOF
Ms type: MS
Ion mode: POSITIVE
Column name: Waters Atlantis T3 (2.1 x 150 mm, 5 um)
Retention time: 11.776667 min
Base peak: 579.180600
m/z	relative intensity
271.054700	170
271.387000	8
272.068200	24
433.109200	4
579.180600	999
579.643300	17
579.921000	11
580.175600	318
581.171400	77
582.168000	9
1157.349400	34
1158.330400	24
1159.377300	8
