Mass spectrum: Osthole; LC-ESI-ITTOF; MS; [M+H]+
Name: Osthole
Name: 2H-1-Benzopyran-2-one, 7-methoxy-8-(3-methyl-2-buten-1-yl)-
Name: 2H-1-Benzopyran-2-one, 7-methoxy-8-(3-methyl-2-butenyl)-
Name: Coumarin, 7-methoxy-8-(3-methyl-2-butenyl)-
Name: 7-Methoxy-8-(3-methyl-2-butenyl)coumarin
Name: 7-Methoxy-8-isopentenylcoumarin
Name: 8-(3-Methyl-2-butenyl)herniarin
Name: Osthol
Name: Ostol
Name: Ostole
Class: Natural Product; Coumarin
Formula: C15H16O3
Exact mass: 244.10994
SMILES: CC(C)=CCc(c(OC)1)c(O2)c(C=CC(=O)2)cc1
InChI: InChI=1S/C15H16O3/c1-10(2)4-7-12-13(17-3)8-5-11-6-9-14(16)18-15(11)12/h4-6,8-9H,7H2,1-3H3
Instrument: Shimadzu LC20A-IT-TOFMS
Instrument type: LC-ESI-ITTOF
Ms type: MS
Ion mode: POSITIVE
Column name: Waters Atlantis T3 (2.1 x 150 mm, 5 um)
Retention time: 1493.000
Ion type: [M+H]+
m/z	relative intensity
189.0554	276
245.1174	999
246.1207	144
