Mass spectrum: Cosmosiin; LC-ESI-ITTOF; MS; [M-H]-
Name: Apigenin-7-O-glucoside
Name: Apigetrin
Name: Cosmosiin
Name: 5-hydroxy-2-(4-hydroxyphenyl)-7-[(2S,3R,4S,5R,6R)-3,4,5-trihydroxy-6-(hydroxymethyl)oxan-2-yl]oxy-chromen-4-one
Class: Natural Product; Flavonoid
Formula: C21H20O10
Exact mass: 432.10565
SMILES: C1=CC(=CC=C1C2=CC(=O)C3=C(C=C(C=C3O2)O[C@H]4[C@@H]([C@H]([C@@H]([C@H](O4)CO)O)O)O)O)O
InChI: InChI=1S/C21H20O10/c22-8-16-18(26)19(27)20(28)21(31-16)29-11-5-12(24)17-13(25)7-14(30-15(17)6-11)9-1-3-10(23)4-2-9/h1-7,16,18-24,26-28H,8H2/t16-,18-,19+,20-,21-/m1/s1
Instrument: LCMS-IT-TOF
Instrument type: LC-ESI-ITTOF
Ms type: MS
Ion mode: NEGATIVE
Column name: Waters Atlantis T3 (2.1 x 150 mm, 5 um)
Retention time: 11.847450 min
Base peak: 431.094100
m/z	relative intensity
268.032200	5
269.040000	23
431.094100	999
431.293600	16
431.473300	22
431.752800	12
432.092300	246
432.292100	7
432.731700	4
433.111600	51
494.096200	71
495.100600	16
545.096200	132
546.106300	33
547.094800	6
647.156700	14
647.645700	8
863.197200	150
863.705500	29
864.213900	69
864.694300	5
865.231200	20
899.166900	5
900.175700	4
1079.738100	5
1080.243300	4
1295.811000	6
