Mass spectrum: Liquiritin; LC-ESI-ITTOF; MS2; [M-H]-
Name: Liquiritin
Name: Likviritin
Name: (2S)-2-[4-(beta-D-Glucopyranosyloxy)phenyl]-2,3-dihydro-7-hydroxy-4H-1-benzopyran-4-one
Name: (S)-2-[4-(beta-D-Glucopyranosyloxy)phenyl]-2,3-dihydro-7-hydroxy-4H-1-benzopyran-4-one
Name: 4',7-Dihydroxyflavanone 4'-(beta-D-glucopyranoside)
Name: 4',7-Dihydroxyflavanone 4'-(beta-D-glucoside)
Name: 7-Hydroxyflavanone 4'-O-glucoside
Name: Liquiritoside
Class: Natural Product; Flavonoid
Formula: C21H22O9
Exact mass: 418.12638
SMILES: OCC(O1)C(O)C(O)C(O)C(Oc(c4)ccc(c4)C(C2)Oc(c3)c(ccc(O)3)C(=O)2)1
InChI: InChI=1S/C21H22O9/c22-9-17-18(25)19(26)20(27)21(30-17)28-12-4-1-10(2-5-12)15-8-14(24)13-6-3-11(23)7-16(13)29-15/h1-7,15,17-23,25-27H,8-9H2/t15-,17+,18+,19-,20+,21+/m0/s1
Instrument: LCMS-IT-TOF
Instrument type: LC-ESI-ITTOF
Ms type: MS2
Ion mode: NEGATIVE
Column name: Waters Atlantis T3 (2.1 x 150 mm, 5 um)
Retention time: 10.820383 min
Base peak: 255.071900
Precursor m/z: 417.118600
m/z	relative intensity
135.007600	53
254.964500	5
255.071900	999
255.210100	19
255.348300	25
255.547900	13
256.070500	186
257.071000	29
