Mass spectrum: Icariin; LC-ESI-ITTOF; MS2; [M+CH3COOH-H]-
Name: Icariin
Name: 3-[(6-Deoxy-alpha-L-mannopyranosyl)oxy]-7-(beta-D-glucopyranosyloxy)-5-hydroxy-2-(4-methoxyphenyl)-8-(3-methyl-2-buten-1-yl)-4H-1-benzopyran-4-one
Class: Natural Product; Flavonoid
Formula: C33H40O15
Exact mass: 676.236721
SMILES: C[C@H]1[C@@H]([C@H]([C@H]([C@@H](O1)OC2=C(OC3=C(C2=O)C(=CC(=C3CC=C(C)C)O[C@H]4[C@@H]([C@H]([C@@H]([C@H](O4)CO)O)O)O)O)C5=CC=C(C=C5)OC)O)O)O
InChI: InChI=1S/C33H40O15/c1-13(2)5-10-17-19(45-33-28(42)26(40)23(37)20(12-34)46-33)11-18(35)21-24(38)31(48-32-27(41)25(39)22(36)14(3)44-32)29(47-30(17)21)15-6-8-16(43-4)9-7-15/h5-9,11,14,20,22-23,25-28,32-37,39-42H,10,12H2,1-4H3/t14-,20+,22-,23+,25+,26-,27+,28+,32-,33+/m0/s1
Instrument: LCMS-IT-TOF
Instrument type: LC-ESI-ITTOF
Ms type: MS2
Ion mode: NEGATIVE
Column name: Waters Atlantis T3 (2.1 x 150 mm, 5 um)
Retention time: 14.788817 min
Base peak: 513.181000
Precursor m/z: 735.248800
m/z	relative intensity
279.029600	7
295.048300	9
296.023000	8
297.032400	11
305.085600	8
308.030000	10
309.042700	15
311.056300	19
312.057000	7
323.067700	32
324.087600	6
351.078400	39
352.087400	17
366.108500	162
367.120500	177
368.115400	44
369.111700	6
409.134100	42
410.126100	18
433.131600	16
451.134400	6
485.186700	4
513.181000	999
513.376900	15
513.572900	24
513.856000	14
514.182800	479
514.379000	7
514.553300	10
515.185700	86
516.189500	7
675.225500	20
677.224700	4
