Mass spectrum: Mesaconitine; LC-ESI-ITTOF; MS; [M+H]+
Name: Mesaconitine
Name: N-Desethyl-N-methyaconitine
Name: Japaconitine A
Name: Japaconitine B
Name: 4-Methylaconitane-1,3,6,8,13,14,15,16,18-nonol, O1,O6,O16,O18-Tetra-Me, N-Me, 14-benzoyl, 8-Ac
Name: Aconitane-3,8,13,14,15-pentol, 1,6,16-trimethoxy-4-(methoxymethyl)-20-methyl-, 8-acetate 14-benzoate, (1alpha,3alpha,6alpha,14alpha,15alpha,16beta)-
Name: 2H-12,3,6a-Ethanylylidene-7,9-methanonaphth[2,3-b]azocine, aconitane-3,8,13,14,15-pentol deriv.
Name: NSC 77210
Class: Natural Product; Alkaloid
Formula: C33H45NO11
Exact mass: 631.29926
SMILES: O(C)C(C26[H])C(C(COC)17)([H])C(C6([H])N(C)C7)(C(C3)([H])C([H])(C4OC(=O)c(c5)cccc5)C2(C(C(C34O)OC)O)OC(C)=O)C(CC(O)1)OC
InChI: InChI=1S/C33H45NO11/c1-16(35)45-33-21-18(13-31(39,28(43-6)26(33)37)27(21)44-29(38)17-10-8-7-9-11-17)32-20(41-4)12-19(36)30(15-40-3)14-34(2)25(32)22(33)23(42-5)24(30)32/h7-11,18-28,36-37,39H,12-15H2,1-6H3/t18-,19-,20+,21-,22+,23+,24-,25+,26+,27-,28+,30+,31-,32+,33-/m1/s1
Instrument: Shimadzu LC20A-IT-TOFMS
Instrument type: LC-ESI-ITTOF
Ms type: MS
Ion mode: POSITIVE
Column name: Waters Atlantis T3 (2.1 x 150 mm, 5 um)
Retention time: 1135.301
Ion type: [M+H]+
m/z	relative intensity
632.3071	999
633.3092	397
634.3112	94
