Mass spectrum: Geniposide; LC-ESI-ITTOF; MS; [M+Na]+
Name: Geniposide
Name: Cyclopenta[c]pyran-4-carboxylic acid, 1-(beta-D-glucopyranosyloxy)-1,4a,5,7a-tetrahydro-7-(hydroxymethyl)-, methyl ester, (1S,4aS,7aS)-
Name: Cyclopenta[c]pyran-4-carboxylic acid, 1-(beta-D-glucopyranosyloxy)-1,4a,5,7a-tetrahydro-7-(hydroxymethyl)-, methyl ester, [1S-(1alpha,4aalpha,7aalpha)]-
Class: Natural Product; Iridoid
Formula: C17H24O10
Exact mass: 388.13695
SMILES: COC(=O)C(=C2)C([H])(C3)C([H])(C(CO)=C3)C(O2)OC([H])(O1)C(O)C(O)C(O)C(CO)1
InChI: InChI=1S/C17H24O10/c1-24-15(23)9-6-25-16(11-7(4-18)2-3-8(9)11)27-17-14(22)13(21)12(20)10(5-19)26-17/h2,6,8,10-14,16-22H,3-5H2,1H3/t8-,10-,11-,12-,13+,14-,16+,17+/m1/s1
Instrument: Shimadzu LC20A-IT-TOFMS
Instrument type: LC-ESI-ITTOF
Ms type: MS
Ion mode: POSITIVE
Column name: Waters Atlantis T3 (2.1 x 150 mm, 5 um)
Retention time: 518.901
Ion type: [M+Na]+
m/z	relative intensity
411.1261	999
412.1309	198
