Mass spectrum: Quercetin; LC-ESI-ITTOF; MS2; [M-H]-
Name: Quercetin
Name: 2-(3,4-Dihydroxyphenyl)-3,5,7-trihydroxy-4H-1-benzopyran-4-one
Name: 3,3',4',5,7-Pentahydroxy-flavone
Name: 3,4',5,5',7-Pentahydroxy-flavone
Name: 2-(3,4-Dihydroxyphenyl)-3,5,7-trihydroxy-4H-benzopyran-4-one
Name: 3,3',4',5,7-Pentahydroxyflavone
Name: 3,5,7,3',4'-Pentahydroxyflavone
Name: 3'-Hydroxykaempferol
Name: Corvitin
Name: Cyanidelonon 1522
Name: Korvitin
Name: Meletin
Name: Quercetine
Name: Quercetol
Name: Quertin
Name: Quertine
Name: Sophoretin
Name: Xanthaurine
Class: Natural Product; Flavonoid
Formula: C15H10O7
Exact mass: 302.04265
SMILES: Oc(c3)c(O)cc(c3)C(O1)=C(O)C(=O)c(c(O)2)c(cc(O)c2)1
InChI: InChI=1S/C15H10O7/c16-7-4-10(19)12-11(5-7)22-15(14(21)13(12)20)6-1-2-8(17)9(18)3-6/h1-5,16-19,21H
Instrument: LCMS-IT-TOF
Instrument type: LC-ESI-ITTOF
Ms type: MS2
Ion mode: NEGATIVE
Column name: Waters Atlantis T3 (2.1 x 150 mm, 5 um)
Retention time: 14.522017 min
Base peak: 151.001300
Precursor m/z: 301.035200
m/z	relative intensity
107.012900	71
108.019300	6
121.033500	32
125.030500	9
149.023900	8
150.930400	37
151.001300	999
151.119400	23
151.213900	22
151.379400	8
151.544900	5
152.006700	51
159.040900	12
161.034600	9
163.016200	6
178.996400	679
179.112100	10
179.240800	16
179.420900	7
180.000600	24
183.043200	7
185.050800	8
187.043200	14
192.004100	16
193.017400	47
200.035800	6
201.056500	10
203.037100	6
208.107400	4
211.042700	33
212.035000	6
213.057800	4
215.040100	11
227.025700	9
228.040400	11
229.042800	87
230.047400	8
239.039000	14
240.035500	16
245.049000	18
255.032000	16
257.046300	33
271.020500	12
272.033900	7
273.033400	66
283.031600	7
299.013800	13
