Mass spectrum: Iridin; LC-ESI-ITTOF; MS; [M-H]-
Name: Iridin
Name: 7-(beta-D-Glucopyranosyloxy)-5-hydroxy-3-(3-hydroxy-4,5-dimethoxyphenyl)-6-methoxy-4H-1-benzopyran-4-one
Name: Irigenin 7-glucoside
Name: Irigenin 7-beta-D-glucopyranoside
Name: Irigenin-7-O-beta-D-glucopyranoside
Class: Natural Product; Flavonoid
Formula: C24H26O13
Exact mass: 522.13734
SMILES: OCC(O1)C(O)C(O)C(O)C1Oc(c2)c(OC)c(O)c(C(=O)3)c(OC=C(c(c4)cc(OC)c(OC)c(O)4)3)2
InChI: InChI=1S/C24H26O13/c1-32-13-5-9(4-11(26)22(13)33-2)10-8-35-12-6-14(23(34-3)19(29)16(12)17(10)27)36-24-21(31)20(30)18(28)15(7-25)37-24/h4-6,8,15,18,20-21,24-26,28-31H,7H2,1-3H3/t15-,18-,20+,21-,24-/m1/s1
Instrument: LCMS-IT-TOF
Instrument type: LC-ESI-ITTOF
Ms type: MS
Ion mode: NEGATIVE
Column name: Waters Atlantis T3 (2.1 x 150 mm, 5 um)
Retention time: 12.776667 min
Base peak: 521.135500
m/z	relative intensity
232.746100	5
234.862000	5
247.803800	5
255.440400	5
287.341300	5
301.020500	5
312.991400	5
326.097400	5
339.507700	5
343.040400	10
344.055700	18
355.612300	5
359.082000	184
360.066000	21
361.087800	13
363.319000	5
367.746800	5
371.052800	5
372.572200	10
435.735500	5
446.716200	5
467.340700	10
500.525100	5
506.108800	24
521.135500	999
521.530400	20
521.837700	13
522.123100	259
522.474500	5
523.133600	35
524.123100	13
531.540900	5
551.125400	10
557.097100	10
558.095500	10
559.094800	10
581.143500	483
581.908200	8
582.163200	123
583.160600	21
584.112400	155
585.134800	28
586.111500	10
589.326300	5
607.828400	5
626.736800	5
635.112500	252
635.621100	5
636.130000	64
637.099900	10
660.647200	5
663.490700	5
702.819900	5
733.931900	5
750.661800	5
767.207500	5
782.185700	72
782.696400	164
783.207300	47
783.691500	21
874.186600	5
881.218700	126
882.217400	67
883.216700	13
897.525100	5
1038.211800	5
1043.264900	288
1043.761600	139
1044.258400	208
1044.755300	70
1045.252300	44
1046.246800	13
1054.749600	5
1081.222700	10
1122.947900	5
1189.866100	5
1265.514600	5
1304.334600	8
1304.820500	34
1305.341200	29
1305.792600	16
1332.317000	5
1352.385300	5
1356.558600	5
1383.877100	5
1462.942400	5
1524.554800	5
1543.826300	5
1545.223700	5
1564.739000	5
1565.385300	15
1567.477100	5
1596.717400	5
1639.508500	5
1665.760700	5
1755.096600	5
1766.710400	5
1822.399300	5
1857.353800	5
1882.703500	5
1889.965800	5
1906.042600	5
1962.166600	5
