Mass spectrum: 7-Hydroxy-5,6-dimethoxyflavone; LC-ESI-ITTOF; MS; [M+H]+
Name: Baicalein dimethyl ether
Name: 7-Hydroxy-5,6-dimethoxy-2-phenyl-4H-1-benzopyran-4-one
Name: 7-Hydroxy-5,6-dimethoxy-flavone
Name: 7-Hydroxy-5,6-dimethoxyflavone
Class: Natural Product; Flavonoid
Formula: C17H14O5
Exact mass: 298.08412
SMILES: COc(c(O)3)c(OC)c(C(=O)2)c(c3)OC(=C2)c(c1)cccc1
InChI: InChI=1S/C17H14O5/c1-20-16-12(19)9-14-15(17(16)21-2)11(18)8-13(22-14)10-6-4-3-5-7-10/h3-9,19H,1-2H3
Instrument: LCMS-IT-TOF
Instrument type: LC-ESI-ITTOF
Ms type: MS
Ion mode: POSITIVE
Column name: Waters Atlantis T3 (2.1 x 150 mm, 5 um)
Retention time: 23.843333 min
Base peak: 299.096800
m/z	relative intensity
238.060000	21
240.065900	5
255.063100	5
266.060300	32
267.064400	6
269.031000	5
283.064000	6
284.067300	32
299.096800	999
299.246400	15
299.396000	22
299.612200	13
299.828500	4
300.094800	208
301.094500	29
321.074800	18
329.096700	8
