Mass spectrum: Luteolin-7-O-glucoside; LC-ESI-ITTOF; MS; [M+H]+
Name: Luteolin 7-glucoside
Name: Cynaroside
Name: 2-(3,4-Dihydroxyphenyl)-7-(beta-D-glucopyranosyloxy)-5-hydroxy-4H-1-benzopyran-4-one
Name: Luteolin 7-beta-D-glucopyranoside
Name: 7-Glucoluteolin
Name: 7-beta-D-Glucosylluteolin
Name: 7-beta-Glucosylluteolin
Name: Cinaroside
Name: Glucoluteolin
Name: Luteolin 7-O-glucopyranoside
Name: Luteolin 7-O-glucoside
Name: Luteolin 7-O-monoglucoside
Name: Luteolin 7-O-beta-D-glucopyranoside
Name: Luteolin 7-O-beta-D-glucoside
Name: Luteolin 7-O-beta-glucopyranoside
Name: Luteolin 7-O-beta-glucoside
Name: Luteolin 7-monoglucoside
Name: Luteolin 7-beta-D-glucoside
Name: Luteolin 7-beta-glucoside
Name: Luteolin 7-beta-monoglucoside
Name: Luteolin-7-D-glucopyranoside
Name: Luteoloside
Name: Nephrocizin
Name: Nephrocizine
Name: Luteolin-7-O-glucoside
Class: Natural Product; Flavonoid
Formula: C21H20O11
Exact mass: 448.10056
SMILES: OC[C@@H](O1)[C@@H](O)[C@H](O)[C@@H](O)[C@@H]1Oc(c4)cc(O2)c(c(O)4)C(=O)C=C2c(c3)cc(O)c(O)c3
InChI: InChI=1S/C21H20O11/c22-7-16-18(27)19(28)20(29)21(32-16)30-9-4-12(25)17-13(26)6-14(31-15(17)5-9)8-1-2-10(23)11(24)3-8/h1-6,16,18-25,27-29H,7H2/t16-,18-,19+,20-,21-/m1/s1
Instrument: LCMS-IT-TOF
Instrument type: LC-ESI-ITTOF
Ms type: MS
Ion mode: POSITIVE
Column name: Waters Atlantis T3 (2.1 x 150 mm, 5 um)
Retention time: 11.151667 min
Base peak: 449.102800
m/z	relative intensity
204.079100	7
212.973400	7
236.164900	7
252.139000	13
255.522500	7
256.075800	7
272.429200	7
277.096300	7
287.053900	512
287.216700	16
287.395900	13
288.064200	90
288.602700	7
289.223300	7
290.073800	7
293.191800	7
295.219100	7
301.276500	7
305.880800	7
329.060300	7
329.217200	7
334.486400	7
335.277700	7
336.739700	7
337.710300	7
353.303000	7
369.746400	7
372.133900	7
378.351200	7
380.391400	7
403.774400	7
409.724300	7
417.541800	7
419.114200	7
429.147800	7
431.580000	7
435.582000	7
442.933200	7
444.167800	13
449.102800	999
449.489800	18
449.734400	12
450.121700	232
450.529500	7
451.121200	46
455.192100	7
463.016400	7
471.095100	7
474.333600	7
489.182200	7
510.146200	7
529.889700	13
557.016700	7
586.053000	7
595.184300	13
595.958200	7
598.165400	7
611.589500	7
623.097800	7
629.832400	7
630.507900	7
643.580900	7
686.019000	7
686.824600	7
687.958400	7
693.008700	7
709.882400	7
785.212700	7
827.561000	7
844.007600	7
897.223300	28
898.231000	7
919.174800	13
920.223900	7
921.186200	13
935.151200	13
943.250100	7
950.080100	13
960.564900	7
960.952100	7
966.052900	7
975.124200	13
1035.013000	7
1036.095400	7
1043.284100	7
1053.396300	7
1054.987500	7
1093.093300	7
1104.082000	7
1122.454300	7
1145.559700	7
1176.403300	7
1178.150900	7
1221.857700	7
1236.209400	7
1246.502100	7
1255.475200	7
1269.953900	7
1278.735900	7
1331.853000	7
1347.540300	7
1372.489200	7
1377.620500	7
1383.190300	7
1413.230200	7
1492.116300	7
1587.929600	7
1590.113000	7
1607.750500	7
1614.114500	7
1658.271200	7
1669.560500	7
1689.725100	7
1714.066300	7
1715.100900	7
1721.873200	7
1761.254100	7
1786.387800	7
1843.909600	7
1846.468900	7
1876.653100	7
1974.904400	7
