Mass spectrum: Saikosaponin A; LC-ESI-ITTOF; MS; [M-H]-
Name: Saikosaponin A
Name: beta-D-Galactopyranoside, (3beta,4alpha,16beta)-13,28-epoxy-16,23-dihydroxyolean-11-en-3-yl 6-deoxy-3-O-beta-D-glucopyranosyl-
Name: Oleanane, beta-D-galactopyranoside deriv
Name: AIDS211406
Class: Natural Product; Saponin
Formula: C42H68O13
Exact mass: 780.46599
SMILES: C(C([H])54)(C1)(C)C([H])(CCC4(C(C7)(C(O8)(C(C(C8)6C(O)7)(CC(CC6)(C)C)[H])C=C5)C)C)C(C(OC(O3)([H])C(C(C(C3C)O)OC(C(O)2)(OC(C(C2O)O)CO)[H])O)C1)(C)CO
InChI: InChI=1S/C42H68O13/c1-21-28(46)33(55-34-31(49)30(48)29(47)22(18-43)53-34)32(50)35(52-21)54-27-10-11-37(4)23(38(27,5)19-44)8-12-39(6)24(37)9-13-42-25-16-36(2,3)14-15-41(25,20-51-42)26(45)17-40(39,42)7/h9,13,21-35,43-50H,8,10-12,14-20H2,1-7H3/t21-,22-,23-,24-,25-,26+,27+,28+,29-,30+,31-,32-,33+,34+,35+,37+,38+,39-,40+,41-,42+/m1/s1
Instrument: Shimadzu LC20A-IT-TOFMS
Instrument type: LC-ESI-ITTOF
Ms type: MS
Ion mode: NEGATIVE
Column name: Waters Atlantis T3 (2.1 x 150 mm, 5 um)
Retention time: 1139.899 sec
Ion type: [M-H]-
m/z	relative intensity
779.4566	999
780.4591	424
781.4634	97
839.4764	216
840.4804	111
842.4509	91
893.4467	434
894.4488	223
895.4577	65
