Mass spectrum: Luteolin-7-O-glucoside; LC-ESI-ITTOF; MS2; [M+H]+
Name: Luteolin 7-glucoside
Name: Cynaroside
Name: 2-(3,4-Dihydroxyphenyl)-7-(beta-D-glucopyranosyloxy)-5-hydroxy-4H-1-benzopyran-4-one
Name: Luteolin 7-beta-D-glucopyranoside
Name: 7-Glucoluteolin
Name: 7-beta-D-Glucosylluteolin
Name: 7-beta-Glucosylluteolin
Name: Cinaroside
Name: Glucoluteolin
Name: Luteolin 7-O-glucopyranoside
Name: Luteolin 7-O-glucoside
Name: Luteolin 7-O-monoglucoside
Name: Luteolin 7-O-beta-D-glucopyranoside
Name: Luteolin 7-O-beta-D-glucoside
Name: Luteolin 7-O-beta-glucopyranoside
Name: Luteolin 7-O-beta-glucoside
Name: Luteolin 7-monoglucoside
Name: Luteolin 7-beta-D-glucoside
Name: Luteolin 7-beta-glucoside
Name: Luteolin 7-beta-monoglucoside
Name: Luteolin-7-D-glucopyranoside
Name: Luteoloside
Name: Nephrocizin
Name: Nephrocizine
Name: Luteolin-7-O-glucoside
Class: Natural Product; Flavonoid
Formula: C21H20O11
Exact mass: 448.10056
SMILES: OC[C@@H](O1)[C@@H](O)[C@H](O)[C@@H](O)[C@@H]1Oc(c4)cc(O2)c(c(O)4)C(=O)C=C2c(c3)cc(O)c(O)c3
InChI: InChI=1S/C21H20O11/c22-7-16-18(27)19(28)20(29)21(32-16)30-9-4-12(25)17-13(26)6-14(31-15(17)5-9)8-1-2-10(23)11(24)3-8/h1-6,16,18-25,27-29H,7H2/t16-,18-,19+,20-,21-/m1/s1
Instrument: LCMS-IT-TOF
Instrument type: LC-ESI-ITTOF
Ms type: MS2
Ion mode: POSITIVE
Column name: Waters Atlantis T3 (2.1 x 150 mm, 5 um)
Retention time: 11.188617 min
Base peak: 287.053900
Precursor m/z: 449.105600
m/z	relative intensity
153.016200	14
245.048400	4
287.053900	999
287.200400	19
287.395900	26
287.575100	17
287.787000	7
288.047900	102
