Mass spectrum: Astragaloside IV; LC-ESI-ITTOF; MS; [M+CH3COOH-H]-
Name: Astragaloside IV
Name: beta-D-Glucopyranoside, (3beta,6alpha,16beta,20R,24S)-20,24-epoxy-16,25-dihydroxy-3-(beta-D-xylopyranosyloxy)-9,19-cyclolanostan-6-yl
Name: 1H,19H-Cyclopropa[9,10]cyclopenta[a]phenanthrene, beta-D-glucopyranoside deriv
Name: 9,19-Cyclolanostane, beta-D-glucopyranoside deriv
Name: Astrasieversianin XIV
Name: Astraversianin XIV
Name: Cyclosieversioside F
Name: Cyclosiversioside F
Name: Astramembrannin I
Name: Astragaloside A
Name: 20,24-Epoxy-9,19-cyclolanostane-3,6,16,25-tetrol,3-O-beta-D-Xylopyranoside, 6-O-beta-D-glucopyranoside
Name: LS-177832
Class: Natural Product; Saponin
Formula: C41H68O14
Exact mass: 784.46091
SMILES: [H]C(C(C)(C)7)(C(CCC7OC(O8)([H])C(O)C(C(O)C8)O)23)C(CC([H])(C(C)46)C(CCC(C(C(C6)O)([H])C(C5)(C)OC(C(C)(C)O)C5)4C)2C3)OC(C1O)([H])OC(CO)C(C1O)O
InChI: InChI=1S/C41H68O14/c1-35(2)24(54-33-29(48)26(45)20(44)17-51-33)9-11-41-18-40(41)13-12-37(5)31(39(7)10-8-25(55-39)36(3,4)50)19(43)15-38(37,6)23(40)14-21(32(35)41)52-34-30(49)28(47)27(46)22(16-42)53-34/h19-34,42-50H,8-18H2,1-7H3/t19-,20+,21-,22+,23-,24-,25-,26-,27+,28-,29+,30+,31-,32-,33-,34+,37+,38-,39+,40-,41+/m0/s1
Instrument: Shimadzu LC20A-IT-TOFMS
Instrument type: LC-ESI-ITTOF
Ms type: MS
Ion mode: NEGATIVE
Ionization: ESI
Column name: Waters Atlantis T3 (2.1 x 150 mm, 5 um)
Retention time: 1049.499 sec
Ion type: [M+CH3COOH-H]-
m/z	relative intensity
783.4505	222
784.4538	83
843.4750	999
844.4794	547
845.4835	175
846.4613	116
897.4466	252
898.4493	126
