Mass spectrum: Hesperidin; LC-ESI-ITTOF; MS2; [M-H]-
Name: Hesperidin
Name: (2S)-7-[[6-O-(6-Deoxy-alpha-L-mannopyranosyl)-beta-D-glucopyranosyl]oxy]-2,3-dihydro-5-hydroxy-2-(3-hydroxy-4-methoxyphenyl)-4H-1-benzopyran-4-one
Name: (S)-7-[[6-O-(6-Deoxy-alpha-L-mannopyranosyl)-beta-D-glucopyranosyl]oxy]-2,3-dihydro-5-hydroxy-2-(3-hydroxy-4-methoxyphenyl)-4H-1-benzopyran-4-one
Name: 3',5,7-Trihydroxy-4'-methoxy-flavanone 7-(6-O-alpha-L-rhamnosyl-D-glucoside)
Name: (2S)-Hesperidin
Name: Atripliside B
Name: Cirantin
Name: Hesperetin 7-rhamnoglucoside
Name: Hesperetin 7-rutinoside
Name: Hesperidine
Name: Hesperidoside
Class: Natural Product; Flavonoid
Formula: C28H34O15
Exact mass: 610.18977
SMILES: c(O)(c3)c(C(=O)2)c(cc3OC(O4)C(O)C(O)C(O)C(COC(O5)C(O)C(C(C5C)O)O)4)OC(C2)c(c1)ccc(c1O)OC
InChI: InChI=1S/C28H34O15/c1-10-21(32)23(34)25(36)27(40-10)39-9-19-22(33)24(35)26(37)28(43-19)41-12-6-14(30)20-15(31)8-17(42-18(20)7-12)11-3-4-16(38-2)13(29)5-11/h3-7,10,17,19,21-30,32-37H,8-9H2,1-2H3/t10-,17-,19+,21-,22+,23+,24-,25+,26+,27+,28+/m0/s1
Instrument: LCMS-IT-TOF
Instrument type: LC-ESI-ITTOF
Ms type: MS2
Ion mode: NEGATIVE
Column name: Waters Atlantis T3 (2.1 x 150 mm, 5 um)
Retention time: 12.472083 min
Base peak: 301.065400
Precursor m/z: 609.181700
m/z	relative intensity
198.022200	11
199.037700	48
200.042200	6
201.022000	23
215.032200	23
215.483300	5
224.044400	8
226.062600	8
227.031600	19
233.094800	4
239.074500	4
241.054700	14
242.055300	44
243.058000	5
257.082400	10
258.054000	15
268.043700	14
283.052400	25
286.051200	64
287.043400	4
301.065400	999
301.232100	17
301.382200	23
301.599100	11
301.832800	6
302.066600	152
307.064000	8
310.051700	8
325.068500	26
886.169800	4
1131.088700	4
1148.347400	5
1235.890800	4
