Mass spectrum: Wogonin; LC-ESI-ITTOF; MS; [M-H]-
Name: Wogonin
Name: 4H-1-Benzopyran-4-one, 5,7-dihydroxy-8-methoxy-2-phenyl-
Name: Flavone, 5,7-dihydroxy-8-methoxy-
Name: 5,7-Dihydroxy-8-methoxyflavone
Name: Vogonin
Name: Norwogonin 8-methyl ether
Name: AIDS001403
Name: BRN 0287152
Name: NSC717845
Class: Natural Product; Flavonoid
Formula: C16H12O5
Exact mass: 284.06847
SMILES: COc(c(O)3)c(O1)c(c(O)c3)C(=O)C=C(c(c2)cccc2)1
InChI: InChI=1S/C16H12O5/c1-20-15-12(19)7-10(17)14-11(18)8-13(21-16(14)15)9-5-3-2-4-6-9/h2-8,17,19H,1H3
Instrument: Shimadzu LC20A-IT-TOFMS
Instrument type: LC-ESI-ITTOF
Ms type: MS
Ion mode: NEGATIVE
Column name: Waters Atlantis T3 (2.1 x 150 mm, 5 um)
Retention time: 1165.899 sec
Ion type: [M-H]-
m/z	relative intensity
268.0370	253
283.0596	999
284.0622	182
