Mass spectrum: Baicalin; LC-ESI-ITTOF; MS2; [M+H]+
Name: Baicalin
Name: 5,6-Dihydroxy-4-oxo-2-phenyl-4H-1-benzopyran-7-yl beta-D-glucopyranosiduronic acid
Name: Baicalein 7-O-beta-D-glucuronide
Name: Baicalein 7-glucuronide
Class: Natural Product; Flavonoid
Formula: C21H18O11
Exact mass: 446.08491
SMILES: OC(=O)[C@@H](O1)[C@@H](O)[C@H](O)[C@@H](O)[C@@H]1Oc(c2)c(O)c(O)c(C(=O)3)c(OC(c(c4)cccc4)=C3)2
InChI: InChI=1S/C21H18O11/c22-9-6-10(8-4-2-1-3-5-8)30-11-7-12(14(23)15(24)13(9)11)31-21-18(27)16(25)17(26)19(32-21)20(28)29/h1-7,16-19,21,23-27H,(H,28,29)/t16-,17-,18+,19-,21+/m0/s1
Instrument: LCMS-IT-TOF
Instrument type: LC-ESI-ITTOF
Ms type: MS2
Ion mode: POSITIVE
Column name: Waters Atlantis T3 (2.1 x 150 mm, 5 um)
Retention time: 11.147017 min
Base peak: 271.052300
Precursor m/z: 447.089100
m/z	relative intensity
169.009800	4
170.060800	5
207.042100	8
225.047000	7
253.041300	29
271.052300	999
271.384600	23
271.558800	12
272.065800	150
272.398800	4
337.041100	4
