Mass spectrum: Puerarin; LC-ESI-ITTOF; MS; [M-H]-
Name: Puerarin
Name: 4H-1-Benzopyran-4-one, 8beta-D-glucopyranosyl-7-hydroxy-3-(4-hydroxyphenyl)-
Name: Kakonein
Name: NPI 031G
Name: P5555_SIGMA
Name: 82435_FLUKA
Name: 8-(beta-D-Glucopyranosyl-7-hydroxy-3- (4-hydroxyphenyl)-4H-1-benzopyran-4-one
Class: Natural Product; Flavonoid
Formula: C21H20O9
Exact mass: 416.11073
SMILES: OC[C@H]([C@@H](O)4)O[C@H]([C@H](O)[C@@H](O)4)c(c(O)3)c(O2)c(cc3)C(=O)C(=C2)c(c1)ccc(O)c1
InChI: InChI=1S/C21H20O9/c22-7-14-17(26)18(27)19(28)21(30-14)15-13(24)6-5-11-16(25)12(8-29-20(11)15)9-1-3-10(23)4-2-9/h1-6,8,14,17-19,21-24,26-28H,7H2/t14-,17-,18+,19-,21+/m1/s1
Instrument: Shimadzu LC20A-IT-TOFMS
Instrument type: LC-ESI-ITTOF
Ms type: MS
Ion mode: NEGATIVE
Column name: Waters Atlantis T3 (2.1 x 150 mm, 5 um)
Retention time: 491.899 sec
Ion type: [M-H]-
m/z	relative intensity
415.1004	999
416.1036	256
529.0913	51
