Mass spectrum: Ginsenoside Rb1; LC-ESI-ITTOF; MS; [M-H]-
Name: Ginsenoside Rb1
Name: beta-D-Glucopyranoside, (3beta,12beta)-20-[(6-O-beta-D-glucopyranosyl-beta-D-glucopyranosyl)oxy]-12-hydroxydammar-24-en-3-yl 2-O-beta-D-glucopyranosyl-
Name: Dammarane, beta-D-glucopyranoside deriv
Name: Arasaponin E1
Name: Gynosaponin C
Name: Gypenoside III
Name: NSC 310103
Name: Notoginsenoside Rb1
Name: Panaxoside Rb1
Name: Sanchinoside E1
Name: Sanchinoside Rb1
Name: Panax saponin E
Name: Pseudoginsenoside D
Name: EINECS 255-532-8
Name: GRb 1
Name: AIDS058057
Name: G0777_SIGMA
Name: LS-71528
Class: Natural Product; Saponin
Formula: C54H92O23
Exact mass: 1108.60294
SMILES: C(OC(O8)(C(C(C(O)C8CO)O)OC(O7)(C(O)C(C(C7CO)O)O)[H])[H])(C1(C)C)CCC(C)(C2([H])6)C([H])(CCC2(C)C(C3([H])C(O)C6)(C)CCC(C(C)(OC(C5O)OC(C(C5O)O)COC(O4)C(C(O)C(O)C(CO)4)O)CCC=C(C)C)([H])3)1
InChI: InChI=1S/C54H92O23/c1-23(2)10-9-14-54(8,77-48-44(69)40(65)37(62)29(74-48)22-70-46-42(67)38(63)34(59)26(19-55)71-46)24-11-16-53(7)33(24)25(58)18-31-51(5)15-13-32(50(3,4)30(51)12-17-52(31,53)6)75-49-45(41(66)36(61)28(21-57)73-49)76-47-43(68)39(64)35(60)27(20-56)72-47/h10,24-49,55-69H,9,11-22H2,1-8H3/t24-,25+,26+,27+,28+,29+,30-,31+,32-,33-,34+,35+,36+,37+,38-,39-,40-,41-,42+,43+,44+,45+,46+,47-,48-,49-,51-,52+,53+,54-/m0/s1
Instrument: Shimadzu LC20A-IT-TOFMS
Instrument type: LC-ESI-ITTOF
Ms type: MS
Ion mode: NEGATIVE
Ionization: ESI
Column name: Waters Atlantis T3 (2.1 x 150 mm, 5 um)
Retention time: 953.099 sec
Ion type: [M-H]-
m/z	relative intensity
553.2934	999
553.7938	723
554.2940	246
554.7930	57
583.3016	206
583.8081	92
613.3141	127
613.8195	83
1107.5962	431
1108.0976	384
1108.5970	331
1109.0966	164
1109.5939	85
1221.5935	83
