Mass spectrum: Cirsimarin; LC-ESI-ITTOF; MS; [M+H]+
Name: Cirsimarin
Name: 2-[4-(beta-D-Glucopyranosyloxy)phenyl]-5-hydroxy-6,7-dimethoxy-4H-1-benzopyran-4-one
Name: 5,4'-Dihydroxy-6,7-dimethoxyflavone 4'-O-beta-D-glucoside
Name: Cirsimaretin
Name: Cirsimarine
Name: Cirsimaritin 4'-glucoside
Name: Cirsimartin
Name: Cirsitakaoside
Name: Cismaritin
Class: Natural Product; Flavonoid
Formula: C23H24O11
Exact mass: 476.13186
SMILES: OCC(O1)C(O)C(O)C(O)C(Oc(c4)ccc(c4)C(=C3)Oc(c2)c(C(=O)3)c(O)c(OC)c(OC)2)1
InChI: InChI=1S/C23H24O11/c1-30-15-8-14-17(19(27)22(15)31-2)12(25)7-13(33-14)10-3-5-11(6-4-10)32-23-21(29)20(28)18(26)16(9-24)34-23/h3-8,16,18,20-21,23-24,26-29H,9H2,1-2H3/t16-,18-,20+,21-,23-/m1/s1
Instrument: LCMS-IT-TOF
Instrument type: LC-ESI-ITTOF
Ms type: MS
Ion mode: POSITIVE
Column name: Waters Atlantis T3 (2.1 x 150 mm, 5 um)
Retention time: 14.176667 min
Base peak: 477.143400
m/z	relative intensity
254.051200	6
271.084000	6
282.046400	6
299.063600	6
300.061500	13
315.076400	123
316.083600	29
477.143400	999
477.332300	14
477.521300	19
477.815300	13
478.130400	289
478.529800	7
479.139600	52
480.149800	7
1925.848100	4
