Mass spectrum: Iristectorin A; LC-ESI-ITTOF; MS; [M+H]+
Name: Iristectorin A
Name: 7-(beta-D-Glucopyranosyloxy)-5-hydroxy-3-(3-hydroxy-4-methoxyphenyl)-6-methoxy-4H-1-benzopyran-4-one
Class: Natural Product; Flavonoid
Formula: C23H24O12
Exact mass: 492.12678
SMILES: COc(c4)c(O)cc(c4)C(=C3)C(=O)c(c(O)1)c(O3)cc(OC(O2)C(O)C(O)C(O)C(CO)2)c(OC)1
InChI: InChI=1S/C23H24O12/c1-31-12-4-3-9(5-11(12)25)10-8-33-13-6-14(22(32-2)19(28)16(13)17(10)26)34-23-21(30)20(29)18(27)15(7-24)35-23/h3-6,8,15,18,20-21,23-25,27-30H,7H2,1-2H3/t15-,18-,20+,21-,23-/m1/s1
Instrument: LCMS-IT-TOF
Instrument type: LC-ESI-ITTOF
Ms type: MS
Ion mode: POSITIVE
Column name: Waters Atlantis T3 (2.1 x 150 mm, 5 um)
Retention time: 12.626667 min
Base peak: 493.122100
m/z	relative intensity
245.048400	24
273.032200	13
298.032700	7
301.043000	20
316.065000	86
317.056700	15
331.085500	918
331.242900	18
331.400300	21
331.645300	14
331.890300	7
332.082900	120
333.081800	20
493.122100	999
493.335500	26
493.549000	20
494.146900	340
495.130100	64
496.135600	15
504.345900	7
515.107000	55
516.132500	9
531.084900	15
1007.253500	130
1008.260200	52
1009.236900	21
1023.206000	14
