Mass spectrum: Capreoside; LC-ESI-ITTOF; MS; [M+H]+
Name: Capreoside
Name: 7-[(6-O-alpha-L-Arabinofuranosyl-beta-D-glucopyranosyl)oxy]-5-hydroxy-2-(3-hydroxy-4-methoxyphenyl)-4H-1-benzopyran-4-one
Name: Diosmetin-7-arabinoglucoside
Class: Natural Product; Flavonoid
Formula: C27H30O15
Exact mass: 594.15847
SMILES: C(C5O)(CO)OC(C5O)OCC(O1)C(C(C(C1Oc(c4)cc(O2)c(c4O)C(C=C2c(c3)cc(O)c(OC)c3)=O)O)O)O
InChI: InChI=1S/C27H30O15/c1-37-15-3-2-10(4-12(15)29)16-7-14(31)20-13(30)5-11(6-17(20)40-16)39-27-25(36)23(34)22(33)19(42-27)9-38-26-24(35)21(32)18(8-28)41-26/h2-7,18-19,21-30,32-36H,8-9H2,1H3/t18-,19+,21-,22+,23-,24+,25+,26+,27+/m0/s1
Instrument: LCMS-IT-TOF
Instrument type: LC-ESI-ITTOF
Ms type: MS
Ion mode: POSITIVE
Column name: Waters Atlantis T3 (2.1 x 150 mm, 5 um)
Retention time: 11.543333 min
Base peak: 595.160900
m/z	relative intensity
258.047900	14
286.045300	13
287.037600	4
301.076300	90
302.060900	19
433.098600	4
463.119800	135
464.133700	18
595.160900	999
595.395300	13
595.653300	18
595.934800	11
596.169400	318
596.591800	8
596.920400	4
597.178700	87
598.165400	14
617.139200	29
618.142300	12
633.116600	5
1211.299500	9
1212.303100	7
