Mass spectrum: Swertiamarin; LC-ESI-ITTOF; MS; [M+H]+
Name: Swertiamarin
Name: 1H,3H-Pyrano[3,4-c]pyran-1-one, 5-ethenyl-6-(beta-D-glucopyranosyloxy)-4,4a,5,6-tetrahydro-4a-hydroxy-, (4aR,5R,6S)-
Name: 1H,3H-Pyrano[3,4-c]pyran-1-one, 5-ethenyl-6-(beta-D-glucopyranosyloxy)-4,4a,5,6-tetrahydro-4a-hydroxy-, [4aR-(4aalpha,5beta,6alpha)]-
Name: Swertiamarine
Name: Swertiamaroside
Class: Natural Product; Secoiridoid
Formula: C16H22O10
Exact mass: 374.12130
SMILES: OCC(C(O)1)OC([H])(OC(O3)C(C=C)C(O)(C2)C(=C3)C(=O)OC2)C(O)C(O)1
InChI: InChI=1S/C16H22O10/c1-2-7-14(24-6-8-13(21)23-4-3-16(7,8)22)26-15-12(20)11(19)10(18)9(5-17)25-15/h2,6-7,9-12,14-15,17-20,22H,1,3-5H2/t7-,9+,10+,11-,12+,14-,15-,16+/m0/s1
Instrument: Shimadzu LC20A-IT-TOFMS
Instrument type: LC-ESI-ITTOF
Ms type: MS
Ion mode: POSITIVE
Column name: Waters Atlantis T3 (2.1 x 150 mm, 5 um)
Retention time: 494.000
Ion type: [M+H]+
m/z	relative intensity	assigned
177.0560	347	
195.0665	673	
196.0676	56	
339.1054	178	
357.1183	415	
358.1163	73	
374.1425	91	
375.1282	999	
376.1298	203	
713.2283	806	
714.2302	251	
715.2360	77	
766.2755	475	
767.2785	175	
768.2743	61	
