Mass spectrum: Diosmetin; LC-ESI-ITTOF; MS2; [M-H]-
Name: Diosmetin
Name: 5,7-Dihydroxy-2-(3-hydroxy-4-methoxyphenyl)-4H-1-benzopyran-4-one
Name: 3',5,7-Trihydroxy-4'-methoxy-flavone
Name: 3',5,7-Trihydroxy-4'-methoxyflavone
Name: 4'-Methylluteolin
Name: 5,7,3'-Trihydroxy-4'-methoxyflavone
Name: Diosmetine
Name: Diosmetol
Name: Luteolin 4'-methyl ether
Name: Pillon
Class: Natural Product; Flavonoid
Formula: C16H12O6
Exact mass: 300.06339
SMILES: COc(c3)c(O)cc(c3)C(=C1)Oc(c2)c(c(O)cc(O)2)C(=O)1
InChI: InChI=1S/C16H12O6/c1-21-13-3-2-8(4-10(13)18)14-7-12(20)16-11(19)5-9(17)6-15(16)22-14/h2-7,17-19H,1H3
Instrument: LCMS-IT-TOF
Instrument type: LC-ESI-ITTOF
Ms type: MS2
Ion mode: NEGATIVE
Column name: Waters Atlantis T3 (2.1 x 150 mm, 5 um)
Retention time: 15.620417 min
Base peak: 284.027900
Precursor m/z: 299.055100
m/z	relative intensity
283.930800	12
284.027900	999
284.189900	17
284.335700	24
284.530200	11
285.032900	141
286.039700	24
