Mass spectrum: Neoponcirin; LC-ESI-ITTOF; MS; [M-H]-
Name: Neoponcirin
Name: (2S)-7-[[6-O-(6-Deoxy-alpha-L-mannopyranosyl)-beta-D-glucopyranosyl]oxy]-2,3-dihydr o-5-hydroxy-2-(4-methoxyphenyl)-4H-1-benzopyran-4-one
Name: (S)-7-[[6-O-(6-Deoxy-alpha-L-mannopyranosyl)-beta-D-glucopyranosyl]oxy]-2,3-dihydro-5-hydroxy-2-(4-methoxyphenyl)-4H-1-benzopyran-4-one
Name: Didymin
Name: 5,7-Dihydroxy-4'-methoxy-flavanone 7beta-rutinoside
Name: 4'-Methoxy-5,7-dihydroxyflavanone 7-O-rutinoside
Name: Didymine
Name: Isosakuranetin 7-rutinoside
Class: Natural Product; Flavonoid
Formula: C28H34O14
Exact mass: 594.19486
SMILES: c(O)(c3)c(C(=O)2)c(cc3OC(O4)C(O)C(O)C(O)C(COC(O5)C(O)C(C(C5C)O)O)4)OC(C2)c(c1)ccc(OC)c1
InChI: InChI=1S/C28H34O14/c1-11-21(31)23(33)25(35)27(39-11)38-10-19-22(32)24(34)26(36)28(42-19)40-14-7-15(29)20-16(30)9-17(41-18(20)8-14)12-3-5-13(37-2)6-4-12/h3-8,11,17,19,21-29,31-36H,9-10H2,1-2H3/t11-,17-,19+,21-,22+,23+,24-,25+,26+,27+,28+/m0/s1
Instrument: LCMS-IT-TOF
Instrument type: LC-ESI-ITTOF
Ms type: MS
Ion mode: NEGATIVE
Column name: Waters Atlantis T3 (2.1 x 150 mm, 5 um)
Retention time: 14.855783 min
Base peak: 593.181700
m/z	relative intensity
238.855100	4
243.901300	4
283.833600	4
285.065400	11
294.569800	4
298.524800	4
310.666600	4
388.372800	4
413.812500	4
522.540300	4
557.596200	4
562.827400	4
592.900900	4
593.181700	999
593.415800	15
593.603100	16
593.907500	9
594.188500	296
594.399300	10
594.610200	8
595.196200	86
596.181200	9
597.190600	4
611.886400	4
623.781300	4
626.207700	4
629.169000	19
653.208900	643
653.430000	8
653.651100	12
653.995100	9
654.216300	238
654.707900	11
655.224400	60
656.184100	96
657.193700	19
686.332900	4
687.819100	4
707.183100	92
708.180100	23
783.261100	4
788.001700	4
794.922600	4
810.605500	4
863.310200	4
951.041700	4
968.187900	4
993.225100	4
1000.020500	4
1008.181200	4
1058.091500	4
1081.507100	4
1092.500800	4
1137.161500	4
1156.426300	4
1187.381300	64
1188.374900	41
1189.402000	22
1247.393400	44
1248.377800	27
1249.396600	14
1404.436700	4
1407.211000	4
1445.754900	4
1459.526200	4
1579.369900	4
1608.836100	4
1624.484700	4
1697.918800	4
1710.295800	4
1739.671000	4
1779.659600	4
1867.182400	4
1887.835800	4
1926.571800	4
