Mass spectrum: Berberine; LC-ESI-ITTOF; MS; [M]+
Name: Berberine
Name: Umbellatine
Name: Berbericine
Name: Natural yellow 18
Name: Majarine
Name: Benzo[g]-1,3-benzodioxolo[5,6-a]quinolizinium, 5,6-dihydro-9,10-dimethoxy-
Name: Berbinium, 7,8,13,13a-tetradehydro-9,10-dimethoxy-2,3-(methylenedioxy)-
Name: 5,6-Dihydro-9,10-dimethoxybenzo[g]-1,3-benzodioxolo[5,6-a]quinolizinium
Name: Berberin
Name: Thalsine
Name: Coptis rhizome
Name: 9,10-dimethoxy-5,6-dihydro[1,3]dioxolo[4,5-g]isoquino[3,2-a]isoquinolin-7-ium
Name: 7,8,13,13a-tetradehydro-9,10-dimethoxy-2,3-[methylenebis(oxy)]berbinium
Class: Natural Product; Alkaloid
Formula: [C20H18NO4]+
Exact mass: 336.12358
SMILES: COc(c5)c(OC)c(c4)c(c5)cc([n+1]34)c(c1)c(CC3)cc(O2)c(OC2)1
InChI: InChI=1S/C20H18NO4/c1-22-17-4-3-12-7-16-14-9-19-18(24-11-25-19)8-13(14)5-6-21(16)10-15(12)20(17)23-2/h3-4,7-10H,5-6,11H2,1-2H3/q+1
Instrument: Shimadzu LC20A-IT-TOFMS
Instrument type: LC-ESI-ITTOF
Ms type: MS
Ion mode: POSITIVE
Column name: Waters Atlantis T3 (2.1 x 150 mm, 5 um)
Retention time: 979.701
Ion type: [M]+
m/z	relative intensity
336.1225	999
337.1262	243
