Mass spectrum: Diosmetin; LC-ESI-ITTOF; MS; [M-H]-
Name: Diosmetin
Name: 5,7-Dihydroxy-2-(3-hydroxy-4-methoxyphenyl)-4H-1-benzopyran-4-one
Name: 3',5,7-Trihydroxy-4'-methoxy-flavone
Name: 3',5,7-Trihydroxy-4'-methoxyflavone
Name: 4'-Methylluteolin
Name: 5,7,3'-Trihydroxy-4'-methoxyflavone
Name: Diosmetine
Name: Diosmetol
Name: Luteolin 4'-methyl ether
Name: Pillon
Class: Natural Product; Flavonoid
Formula: C16H12O6
Exact mass: 300.06339
SMILES: COc(c3)c(O)cc(c3)C(=C1)Oc(c2)c(c(O)cc(O)2)C(=O)1
InChI: InChI=1S/C16H12O6/c1-21-13-3-2-8(4-10(13)18)14-7-12(20)16-11(19)5-9(17)6-15(16)22-14/h2-7,17-19H,1H3
Instrument: LCMS-IT-TOF
Instrument type: LC-ESI-ITTOF
Ms type: MS
Ion mode: NEGATIVE
Column name: Waters Atlantis T3 (2.1 x 150 mm, 5 um)
Retention time: 15.314117 min
Base peak: 299.056400
m/z	relative intensity
281.071900	14
284.027900	352
284.173700	8
285.032900	50
299.056400	999
299.205900	14
299.355600	24
299.571700	13
300.054300	196
301.053800	22
413.050400	46
414.047100	5
599.117700	741
599.329400	9
599.611800	13
599.870600	9
600.129600	288
600.529800	5
600.859600	5
601.118700	66
611.126000	8
621.096200	17
622.102400	6
625.126000	15
635.088300	33
636.105800	12
637.099900	19
703.125700	5
779.124800	10
852.417600	6
940.137900	5
952.138500	6
1136.772700	5
