Mass spectrum: Hederagenin; LC-ESI-ITTOF; MS; [M-H]-
Name: Hederagenin
Name: 3,23-Dihydroxy-, (3beta,4alpha) -olean-12-en-28-oic acid
Name: 3beta,23-Dihydroxy-olean-12-en-28-oic acid
Name: Astrantiagenin E
Name: Caulosapogenin
Name: Hederagenic acid
Name: Hederagenine
Name: Hederagenol
Class: Natural Product; Terpenoid
Formula: C30H48O4
Exact mass: 472.35526
SMILES: C(=C53)CC([H])(C(C3(C)CCC(C5([H])4)(CCC(C4)(C)C)C(O)=O)(C)2)C(C)(C(CC2)([H])1)CCC(C(CO)1C)O
InChI: InChI=1S/C30H48O4/c1-25(2)13-15-30(24(33)34)16-14-28(5)19(20(30)17-25)7-8-22-26(3)11-10-23(32)27(4,18-31)21(26)9-12-29(22,28)6/h7,20-23,31-32H,8-18H2,1-6H3,(H,33,34)/t20-,21+,22+,23-,26-,27-,28+,29+,30-/m0/s1
Instrument: LCMS-IT-TOF
Instrument type: LC-ESI-ITTOF
Ms type: MS
Ion mode: NEGATIVE
Column name: Waters Atlantis T3 (2.1 x 150 mm, 5 um)
Retention time: 24.972450 min
Base peak: 471.337900
m/z	relative intensity
471.337900	999
471.546500	14
471.734400	21
472.005700	15
472.339800	344
472.548700	7
472.736700	8
473.342800	62
474.346900	10
507.320200	26
508.338000	6
509.313400	10
510.311500	4
943.706500	287
944.267500	7
944.710400	197
945.271700	6
945.685400	56
946.720000	12
965.677900	23
966.693500	23
967.709600	6
