Mass spectrum: Fustin; LC-ESI-ITTOF; MS; [M-H]-
Name: Fustin
Name: (2R,3R)-Rel-2-(3,4-dihydroxyphenyl)-2,3-dihydro-3,7-dihydroxy-4H-1-benzopyran-4-one
Name: trans-2-(3,4-Dihydroxyphenyl)-2,3-dihydro-3,7-dihydroxy-4H-1-benzopyran-4-one
Name: 3,3',4',7-Tetrahydroxy-flavanone
Name: (+-)-Fustin
Name: 2,3-Dihydrofisetin
Name: Dihydrofisetin
Name: trans-(+-)-3,3',4',7-Tetrahydroxyflavanone
Class: Natural Product; Flavonoid
Formula: C15H12O6
Exact mass: 288.06339
SMILES: Oc(c3)cc(O1)c(c3)C(=O)C(O)C1c(c2)cc(O)c(O)c2
InChI: InChI=1S/C15H12O6/c16-8-2-3-9-12(6-8)21-15(14(20)13(9)19)7-1-4-10(17)11(18)5-7/h1-6,14-18,20H/t14-,15+/m0/s1
Instrument: LCMS-IT-TOF
Instrument type: LC-ESI-ITTOF
Ms type: MS
Ion mode: NEGATIVE
Column name: Waters Atlantis T3 (2.1 x 150 mm, 5 um)
Retention time: 10.580783 min
Base peak: 575.113100
m/z	relative intensity
225.055400	20
259.062400	18
269.040000	161
269.181900	7
270.049800	22
285.032900	17
287.048200	365
287.357600	11
288.058500	58
288.548000	3
289.054300	10
333.777500	3
350.034800	7
363.428900	3
399.050600	3
401.049500	261
401.222700	7
402.050900	55
403.053500	8
430.994300	3
496.962600	3
520.960000	3
555.737100	3
573.109900	29
574.122600	8
575.113100	999
575.343500	13
575.551000	20
575.850700	10
576.127500	347
576.542700	14
577.119700	78
578.135900	10
594.094800	8
776.069900	3
827.077100	3
850.034500	3
953.176600	3
961.025000	3
963.081600	3
1066.642200	3
1222.706900	3
1660.000200	3
1807.006800	3
1982.652900	3
