Mass spectrum: Saikosaponin D; LC-ESI-ITTOF; MS; [M-H]-
Name: Saikosaponin D
Name: (3beta,4alpha,16alpha)-13,28-Epoxy-16,23-dihydroxyolean-11-en-3-yl 6-deoxy-3-O-beta-D-glucopyranosyl-beta-D-galactopyranoside
Class: Natural Product; Saponin
Formula: C42H68O13
Exact mass: 780.46599
SMILES: C(C([H])54)(C1)(C)C([H])(CCC4(C(C7)(C(O8)(C(C(C8)6C(O)7)(CC(CC6)(C)C)[H])C=C5)C)C)C(C(OC(O3)([H])C(C(C(C3C)O)OC(C(O)2)(OC(C(C2O)O)CO)[H])O)C1)(C)CO
InChI: InChI=1S/C42H68O13/c1-21-28(46)33(55-34-31(49)30(48)29(47)22(18-43)53-34)32(50)35(52-21)54-27-10-11-37(4)23(38(27,5)19-44)8-12-39(6)24(37)9-13-42-25-16-36(2,3)14-15-41(25,20-51-42)26(45)17-40(39,42)7/h9,13,21-35,43-50H,8,10-12,14-20H2,1-7H3/t21-,22-,23-,24-,25-,26-,27+,28+,29-,30+,31-,32-,33+,34+,35+,37+,38+,39-,40+,41-,42+/m1/s1
Instrument: LCMS-IT-TOF
Instrument type: LC-ESI-ITTOF
Ms type: MS
Ion mode: NEGATIVE
Column name: Waters Atlantis T3 (2.1 x 150 mm, 5 um)
Retention time: 22.000000 min
Base peak: 779.456100
m/z	relative intensity
594.948900	22
617.400600	16
779.456100	999
779.724400	16
780.449100	368
780.717500	13
781.469500	126
782.006900	6
782.463800	24
815.437200	23
816.425400	16
825.456500	20
826.478300	18
827.473200	5
839.486000	666
839.987200	13
840.488600	379
840.767200	13
841.491800	106
842.439900	660
842.969900	11
843.444300	300
844.449300	92
845.454900	16
893.450800	278
894.025400	6
894.456400	128
895.462600	50
896.440600	5
897.390300	8
1169.677300	59
1170.203200	98
1170.696300	57
1171.189500	26
1171.682900	12
1559.920300	41
1560.413700	13
1560.945200	40
1561.438800	5
1561.932500	20
