Mass spectrum: Gentiopicroside; LC-ESI-ITTOF; MS; [M+CH3COOH-H]-
Name: Gentiopicroside
Name: 1H,3H-Pyrano[3,4-c]pyran-1-one, 5-ethenyl-6-(beta-D-glucopyranosyloxy)-5,6-dihydro-, (5R,6S)-
Name: 1H,3H-Pyrano[3,4-c]pyran-1-one, 5-ethenyl-6-(beta-D-glucopyranosyloxy)-5,6-dihydro-, (5R-trans)-
Name: Gentiopicrin
Name: NSC 606402
Class: Natural Product; Secoiridoid
Formula: C16H20O9
Exact mass: 356.11073
SMILES: OCC(C(O)1)OC([H])(OC(O3)C(C=C)C(=C2)C(=C3)C(=O)OC2)C(O)C(O)1
InChI: InChI=1S/C16H20O9/c1-2-7-8-3-4-22-14(21)9(8)6-23-15(7)25-16-13(20)12(19)11(18)10(5-17)24-16/h2-3,6-7,10-13,15-20H,1,4-5H2/t7-,10-,11-,12+,13-,15+,16+/m1/s1
Instrument: Shimadzu LC20A-IT-TOFMS
Instrument type: LC-ESI-ITTOF
Ms type: MS
Ion mode: NEGATIVE
Column name: Waters Atlantis T3 (2.1 x 150 mm, 5 um)
Retention time: 542.700 sec
Ion type: [M+CH3COOH-H]-
m/z	relative intensity
179.0518	50
193.0519	176
415.1243	999
416.1292	108
417.1340	157
418.1026	139
