Mass spectrum: Kaempferitrin; LC-ESI-ITTOF; MS; [M-H]-
Name: Kaempferitrin
Name: 3-Rha-7-Rha Kaempferol
Name: Kaempferol-3-O-rhamnoside-7-O-rhamnoside
Name: 3,4',5,7-Tetrahydroxyflavone 3,7-dirhamnoside
Name: 3,7-Bis[(6-deoxy-alpha-L-mannopyranosyl)oxy]-5-hydroxy-2-(4-hydroxyphenyl)-4H-1-benzopyran-4-one
Name: Lespedin
Name: Lespenephryl
Class: Natural Product; Flavonoid
Formula: C27H30O14
Exact mass: 578.16356
SMILES: C[C@H]1[C@@H]([C@H]([C@H]([C@@H](O1)OC2=CC(=C3C(=C2)OC(=C(C3=O)O[C@H]4[C@@H]([C@@H]([C@H]([C@@H](O4)C)O)O)O)C5=CC=C(C=C5)O)O)O)O)O
InChI: InChI=1S/C27H30O14/c1-9-17(30)20(33)22(35)26(37-9)39-13-7-14(29)16-15(8-13)40-24(11-3-5-12(28)6-4-11)25(19(16)32)41-27-23(36)21(34)18(31)10(2)38-27/h3-10,17-18,20-23,26-31,33-36H,1-2H3/t9-,10-,17-,18-,20+,21+,22+,23+,26-,27-/m0/s1
Instrument: LCMS-IT-TOF
Instrument type: LC-ESI-ITTOF
Ms type: MS
Ion mode: NEGATIVE
Column name: Waters Atlantis T3 (2.1 x 150 mm, 5 um)
Retention time: 11.164117 min
Base peak: 577.165900
m/z	relative intensity
430.097000	10
431.094100	23
432.112300	7
576.865800	4
577.165900	999
577.373700	13
577.581500	21
577.881800	13
578.159000	279
578.575000	7
579.176100	70
580.171000	9
581.166700	6
613.123100	14
614.146700	10
637.172600	12
640.159700	58
641.156900	19
691.149800	101
692.135500	27
693.147100	5
866.249200	72
866.758300	79
867.239400	40
867.748800	13
868.258400	7
1155.315500	89
1155.838200	62
1156.328300	70
1156.851200	16
1157.308800	18
1444.403300	11
1444.878100	12
1445.426100	15
1445.864500	7
