Mass spectrum: Ginsenoside Rc; LC-ESI-ITTOF; MS; [M-H]-
Name: Ginsenoside Rc
Name: beta-D-Glucopyranoside, (3beta,12beta)-20-[(6-O-alpha-L-arabinofuranosyl-beta-D-glucopyranosyl)oxy]-12-hydroxydammar-24-en-3-yl 2-O-beta-D-glucopyranosyl-
Name: Dammarane, beta-D-glucopyranoside deriv
Name: NSC 310104
Name: Panaxoside Rc
Name: G0902_SIGMA
Name: EINECS 234-253-5
Name: BRN 1677618
Name: SMP2_000126
Name: LS-71253
Class: Natural Product; Saponin
Formula: C53H90O22
Exact mass: 1078.59237
SMILES: C(C8)(C(C(C)3C(C([H])78)(CCC(C74C)([H])C(C)(C)C(OC([H])(C5OC([H])(O6)C(C(C(O)C(CO)6)O)O)OC(C(O)C5O)CO)CC4)C)(C(CC3)([H])C(CCC=C(C)C)(OC(O1)C(C(O)C(C1COC(C(O)2)OC(CO)C2O)O)O)C)[H])O
InChI: InChI=1S/C53H90O22/c1-23(2)10-9-14-53(8,75-47-43(67)39(63)37(61)29(72-47)22-68-45-41(65)36(60)28(21-56)69-45)24-11-16-52(7)33(24)25(57)18-31-50(5)15-13-32(49(3,4)30(50)12-17-51(31,52)6)73-48-44(40(64)35(59)27(20-55)71-48)74-46-42(66)38(62)34(58)26(19-54)70-46/h10,24-48,54-67H,9,11-22H2,1-8H3/t24-,25+,26+,27+,28-,29+,30-,31+,32-,33-,34+,35+,36-,37+,38-,39-,40-,41+,42+,43+,44+,45+,46-,47-,48-,50-,51+,52+,53-/m0/s1
Instrument: Shimadzu LC20A-IT-TOFMS
Instrument type: LC-ESI-ITTOF
Ms type: MS
Ion mode: NEGATIVE
Ionization: ESI
Column name: Waters Atlantis T3 (2.1 x 150 mm, 5 um)
Retention time: 974.699 sec
Ion type: [M-H]-
m/z	relative intensity
538.7875	161
568.2976	999
568.7988	663
569.2987	283
569.8035	56
598.3090	136
598.8047	127
1077.5853	680
1078.0851	514
1078.5901	507
1079.0874	214
1079.5977	134
1191.5784	152
1192.5785	75
