Mass spectrum: Bufalin; LC-ESI-ITTOF; MS; [M+H]+
Name: Bufalin
Name: Bufa-20,22-dienolide,3,14-dihydroxy-,(3beta,5beta)-
Name: 5beta-Bufa-20,22-dienolide,3beta,14-dihydroxy-
Name: 3,14-dihydroxy-bufa-20,22-dienolide
Name: (3beta,5beta)-3,14-Dihydroxybufa-20,22-dienolide
Name: 3beta,14-Dihydroxy-5beta,20(22)-bufadienolide
Name: 5beta,20(22)-Bufadienolide-3beta,14-diol
Name: 3beta,14-Dihydroxy-5beta,14beta-bufa-20,22-dienolide
Name: 3,14-Dihydroxybufa-20,22-dienolide, (3beta,5beta,14beta)-form
Name: LMST01130001
Name: HSCI1_000110
Name: B0261_SIGMA
Name: SMP2_000290
Name: NSC 248518
Name: BRN 5141601
Name: NSC 89595
Name: LS-45286
Class: Natural Product; Saponin
Formula: C24H34O4
Exact mass: 386.24571
SMILES: C(C1([H])4)(C)(C5)C([H])(CC(O)C5)CCC(C(C(C)(CC4)2)(O)CCC2C(C=3)=COC(=O)C3)1[H]
InChI: InChI=1S/C24H34O4/c1-22-10-7-17(25)13-16(22)4-5-20-19(22)8-11-23(2)18(9-12-24(20,23)27)15-3-6-21(26)28-14-15/h3,6,14,16-20,25,27H,4-5,7-13H2,1-2H3/t16-,17+,18-,19+,20-,22+,23-,24+/m1/s1
Instrument: Shimadzu LC20A-IT-TOFMS
Instrument type: LC-ESI-ITTOF
Ms type: MS
Ion mode: POSITIVE
Ionization: ESI
Column name: Waters Atlantis T3 (2.1 x 150 mm, 5 um)
Retention time: 1182.501 sec
Ion type: [M+H]+
m/z	relative intensity
387.2518	999
388.2556	266
