Mass spectrum: Nodakenin; LC-ESI-ITTOF; MS; [M+H]+
Name: Nodakenin
Name: 7H-Furo[3,2-g][1]benzopyran-7-one, 2-[1-(beta-D-glucopyranosyloxy)-1-methylethyl]-2,3-dihydro-, (2R)-
Name: 7H-Furo[3,2-g][1]benzopyran-7-one, 2-[1-(beta-D-glucopyranosyloxy)-1-methylethyl]-2,3-dihydro-, (R)-
Name: (+)-Marmesinin
Name: Nodakenetin, beta-D-glucopyranoside
Class: Natural Product; Coumarin
Formula: C20H24O9
Exact mass: 408.14203
SMILES: OCC(O1)C(O)C(O)C(O)C1OC(C)(C)C(C2)Oc(c3)c(cc(C=4)c(OC(=O)C4)3)2
InChI: InChI=1S/C20H24O9/c1-20(2,29-19-18(25)17(24)16(23)13(8-21)28-19)14-6-10-5-9-3-4-15(22)27-11(9)7-12(10)26-14/h3-5,7,13-14,16-19,21,23-25H,6,8H2,1-2H3/t13-,14-,16-,17+,18-,19+/m1/s1
Instrument: Shimadzu LC20A-IT-TOFMS
Instrument type: LC-ESI-ITTOF
Ms type: MS
Ion mode: POSITIVE
Column name: Waters Atlantis T3 (2.1 x 150 mm, 5 um)
Retention time: 706.500
Ion type: [M+H]+
m/z	relative intensity
247.0959	271
409.1490	999
410.1519	247
426.1747	259
427.1746	56
