Mass spectrum: Atropine; LC-ESI-ITTOF; MS2; [M+H]+
Name: Atropine
Name: Benzeneacetic acid alpha-(hydroxymethyl)- (3-endo)-8-methyl-8-azabicyclo[3.2.1]oct-3-yl ester
Name: 1alphaH,5alphaH-Tropan-3alpha-ol (+-)-tropate (ester)
Name: alpha-(Hydroxymethyl)-benzeneacetic acid endo-8-Methyl-8-azabicyclo[3.2.1]oct-3-yl ester
Name: (+-)-Atropine
Name: (+-)-Hyoscyamine
Name: Atropin
Name: Atropinum sulphuricum
Name: Tropine (+-)-tropate
Name: Tropine tropate
Name: dl-Hyoscyamine
Name: dl-Tropyl tropate
Class: Natural Product; Alkaloid
Formula: C17H23NO3
Exact mass: 289.16779
SMILES: OCC(C(=O)OC(C2)CC(C3)N(C)C(C3)2)c(c1)cccc1
InChI: InChI=1S/C17H23NO3/c1-18-13-7-8-14(18)10-15(9-13)21-17(20)16(11-19)12-5-3-2-4-6-12/h2-6,13-16,19H,7-11H2,1H3/t13-,14+,15+,16?
Instrument: LCMS-IT-TOF
Instrument type: LC-ESI-ITTOF
Ms type: MS2
Ion mode: POSITIVE
Column name: Waters Atlantis T3 (2.1 x 150 mm, 5 um)
Retention time: 14.126917 min
Base peak: 124.109400
Precursor m/z: 260.164200
m/z	relative intensity
101.936500	4
102.431900	4
103.133300	4
104.278300	4
112.551500	4
113.665500	4
115.610100	4
117.717100	4
119.223300	4
120.485700	4
120.939700	4
121.500400	4
122.806800	4
124.109400	999
124.270100	28
124.441500	17
124.580900	9
124.720400	6
125.117800	767
125.311300	25
125.462000	8
125.634300	8
126.378600	4
127.005900	4
129.509000	4
130.067300	20
132.180000	4
135.560000	4
136.602500	4
142.999000	4
145.213800	4
147.072500	4
155.583000	4
156.543400	4
159.733600	4
160.865100	4
173.625700	4
175.148500	4
176.741800	4
177.701300	4
181.616900	4
183.122200	5
195.227500	4
203.284500	4
205.675500	4
206.006400	4
212.343800	4
214.168100	20
221.171600	4
222.961600	4
224.269300	4
232.591100	4
239.084200	4
241.273400	5
244.177800	20
251.728400	4
252.247000	4
252.705100	4
256.061600	4
261.145700	13
263.074900	12
291.140000	4
322.695400	4
332.382200	4
350.564400	4
362.906000	4
371.746300	4
382.495000	4
386.112000	4
396.203800	4
398.905400	4
400.288500	4
411.400400	6
414.505300	5
419.371500	4
433.020100	4
433.980400	4
434.681400	4
441.762400	4
454.619500	4
475.339900	4
483.863000	4
484.941600	4
514.955200	4
535.457500	4
537.059700	5
543.492600	4
547.802500	4
554.231400	4
556.949500	4
561.562800	4
569.240300	4
570.708600	4
577.893700	4
611.828200	4
622.139900	4
631.885300	4
633.625700	4
642.826700	4
644.777300	4
651.750500	4
660.488800	4
661.205200	4
671.798600	4
685.139900	4
686.952100	4
694.301000	4
701.001900	4
703.854500	4
706.508400	4
709.372100	4
720.523700	4
724.734400	4
739.921400	4
750.072100	4
755.556400	4
763.103300	4
775.550800	4
778.122000	4
783.922900	4
809.309200	5
827.563500	4
844.959500	4
949.164100	4
954.144400	4
960.090400	4
961.818200	4
967.010900	4
968.445800	4
980.204200	4
983.094700	4
984.541500	4
986.713700	4
991.065400	4
993.244800	4
996.154300	4
999.068200	4
1015.660400	4
1032.142200	4
1052.744000	4
1060.897700	4
1061.649000	4
1062.494600	4
1070.937500	4
1072.542000	4
1081.625000	4
1089.730900	4
1096.848500	4
1113.460700	4
1127.356500	4
1134.595600	4
1136.927400	4
1147.482700	4
1164.833300	4
1167.097400	4
1172.520600	4
1176.670400	4
1194.405500	4
1201.323500	4
1214.415600	4
1218.169200	4
1229.734400	4
1232.971700	4
1233.511600	4
1263.015600	4
1265.475700	4
1374.488400	4
1412.368300	4
1430.628800	4
1439.948900	4
1468.974600	4
