Mass spectrum: Capillarisin; LC-ESI-ITTOF; MS; [M+H]+
Name: Capillarisin
Name: 5,7-Dihydroxy-2-(4-hydroxyphenoxy)-6-methoxychromone
Name: 4H-1-Benzopyran-4-one, 5,7-dihydroxy-2-(4-hydroxyphenoxy)-6-methoxy-
Name: 2-(p-Hydroxyphenoxy)-6-methoxy-5,7-dihydroxychromone
Name: Capillarisine
Class: Natural Product; Chromone
Formula: C16H12O7
Exact mass: 316.05830
SMILES: COc(c(O)3)c(O)c(C(=O)1)c(c3)OC(Oc(c2)ccc(O)c2)=C1
InChI: InChI=1S/C16H12O7/c1-21-16-11(19)6-12-14(15(16)20)10(18)7-13(23-12)22-9-4-2-8(17)3-5-9/h2-7,17,19-20H,1H3
Instrument: Shimadzu LC20A-IT-TOFMS
Instrument type: LC-ESI-ITTOF
Ms type: MS
Ion mode: POSITIVE
Column name: Waters Atlantis T3 (2.1 x 150 mm, 5 um)
Retention time: 997.801 sec
Ion type: [M+H]+
m/z	relative intensity
302.0411	108
317.0645	999
318.0672	191
