Mass spectrum: Atractylenolide III; LC-ESI-ITTOF; MS; [M-H]-
Name: Atractylenolide III
Name: Naphtho[2,3-b]furan-2(4H)-one, 4a,5,6,7,8,8a,9,9a-octahydro-9a-hydroxy-3,8a-dimethyl-5-methylene-, (4aS,8aR,9aS)-
Name: Naphtho[2,3-b]furan-2(4H)-one, 4a,5,6,7,8,8a,9,9a-octahydro-9a-hydroxy-3,8a-dimethyl-5-methylene-, [4aS-(4aalpha,8abeta,9abeta)]-
Name: 8beta-Hydroxyasterolide
Name: Atractylenolide beta
Name: Codonolactone
Class: Natural Product; Sesquiterpene
Formula: C15H20O3
Exact mass: 248.14124
SMILES: O=C(O1)C(C)=C(C2)C(O)1CC(C)(C3)C([H])(C(=C)CC3)2
InChI: InChI=1S/C15H20O3/c1-9-5-4-6-14(3)8-15(17)12(7-11(9)14)10(2)13(16)18-15/h11,17H,1,4-8H2,2-3H3/t11-,14+,15-/m0/s1
Instrument: Shimadzu LC20A-IT-TOFMS
Instrument type: LC-ESI-ITTOF
Ms type: MS
Ion mode: NEGATIVE
Column name: Waters Atlantis T3 (2.1 x 150 mm, 5 um)
Retention time: 1303.300
Ion type: [M-H]-
m/z	relative intensity
203.1450	229
247.1342	999
248.1358	192
