Mass spectrum: [6]-Gingerol; LC-ESI-ITTOF; MS2; [M-H]-
Name: [6]-Gingerol
Name: (5S)-5-Hydroxy-1-(4-hydroxy-3-methoxyphenyl)-3-decanone
Name: (S)-5-Hydroxy-1-(4-hydroxy-3-methoxyphenyl)-3-decanone
Name: (S)-(+)-5-Hydroxy-1-(4-hydroxy-3-methoxyphenyl)-3-decanone
Name: (+)-5-Hydroxy-1-(4-hydroxy-3-methoxyphenyl)-3-decanone
Name: (+)-[6]-Gingerol
Name: (S)-(+)-[6]Gingerol
Name: (S)-[6]Gingerol
Class: Natural Product; capsaicinoid
Formula: C17H26O4
Exact mass: 294.18311
SMILES: CCCCCC(O)CC(=O)CCc(c1)cc(OC)c(O)c1
InChI: InChI=1S/C17H26O4/c1-3-4-5-6-14(18)12-15(19)9-7-13-8-10-16(20)17(11-13)21-2/h8,10-11,14,18,20H,3-7,9,12H2,1-2H3/t14-/m0/s1
Instrument: LCMS-IT-TOF
Instrument type: LC-ESI-ITTOF
Ms type: MS2
Ion mode: NEGATIVE
Column name: Waters Atlantis T3 (2.1 x 150 mm, 5 um)
Retention time: 20.738717 min
Base peak: 193.090600
Precursor m/z: 293.172700
m/z	relative intensity
121.030000	6
135.040400	51
136.047200	9
162.030700	8
163.047500	14
177.054200	28
178.065700	300
178.181200	6
178.309500	8
179.067300	40
192.770300	6
193.090600	999
193.210800	20
193.331100	20
193.504800	13
194.093400	148
195.085300	6
275.170100	37
276.175200	7
