Mass spectrum: Wogonin; LC-ESI-ITTOF; MS2; [M-H]-
Name: Wogonin
Name: 5,7-Dihydroxy-8-methoxy-2-phenyl-4H-1-benzopyran-4-one
Name: 5,7-Dihydroxy-8-methoxy-flavone
Name: 5,7-Dihydroxy-8-methoxyflavone
Class: Natural Product; Flavonoid
Formula: C16H12O5
Exact mass: 284.06847
SMILES: COc(c(O)3)c(O1)c(c(O)c3)C(=O)C=C(c(c2)cccc2)1
InChI: InChI=1S/C16H12O5/c1-20-15-12(19)7-10(17)14-11(18)8-13(21-16(14)15)9-5-3-2-4-6-9/h2-8,17,19H,1H3
Instrument: LCMS-IT-TOF
Instrument type: LC-ESI-ITTOF
Ms type: MS2
Ion mode: NEGATIVE
Column name: Waters Atlantis T3 (2.1 x 150 mm, 5 um)
Retention time: 19.688717 min
Base peak: 268.043700
Ion type: [M-H]-
Precursor m/z: 283.060100
m/z	relative intensity
137.024100	5
163.010700	5
172.052200	4
184.052200	12
196.052900	15
198.035800	11
212.041200	5
224.044400	5
239.029900	10
240.041200	15
241.039700	3
267.022100	21
267.933600	26
268.043700	999
268.185300	19
268.327000	27
268.531600	15
268.752100	6
269.035800	197
270.045500	28
