Mass spectrum: [6]-Gingerol; LC-ESI-ITTOF; MS; [M-H]-
Name: [6]-Gingerol
Name: 3-Decanone, 5-hydroxy-1-(4-hydroxy-3-methoxyphenyl)-, (5S)-
Name: 3-Decanone, 5-hydroxy-1-(4-hydroxy-3-methoxyphenyl)-, (S)-
Name: 3-Decanone, 5-hydroxy-1-(4-hydroxy-3-methoxyphenyl)-, (S)-(+)-
Name: (+)-5-Hydroxy-1-(4-hydroxy-3-methoxyphenyl)-3-decanone
Name: (+)-[6]-Gingerol
Name: (S)-(+)-[6]Gingerol
Name: (S)-[6]Gingerol
Class: Natural Product; Capsaicinoid
Formula: C17H26O4
Exact mass: 294.18311
SMILES: CCCCCC(O)CC(=O)CCc(c1)cc(OC)c(O)c1
InChI: InChI=1S/C17H26O4/c1-3-4-5-6-14(18)12-15(19)9-7-13-8-10-16(20)17(11-13)21-2/h8,10-11,14,18,20H,3-7,9,12H2,1-2H3/t14-/m0/s1
Instrument: Shimadzu LC20A-IT-TOFMS
Instrument type: LC-ESI-ITTOF
Ms type: MS
Ion mode: NEGATIVE
Column name: Waters Atlantis T3 (2.1 x 150 mm, 5 um)
Retention time: 1261.745
Ion type: [M-H]-
m/z	relative intensity
193.0853	58
293.1746	999
294.1768	177
353.1921	226
