Mass spectrum: Glabridin; LC-ESI-ITTOF; MS; [M-H]-
Name: Glabridin
Name: 1,3-Benzenediol, 4-[(3R)-3,4-dihydro-8,8-dimethyl-2H,8H-benzo[1,2-b:3,4-b']dipyran-3-yl]-
Name: 1,3-Benzenediol, 4-(3,4-dihydro-8,8-dimethyl-2H,8H-benzo[1,2-b:3,4-b']dipyran-3-yl)-, (R)-
Name: 2H,8H-Benzo[1,2-b:3,4-b']dipyran, 1,3-benzenediol deriv.
Class: Natural Product; Flavonoid
Formula: C20H20O4
Exact mass: 324.13616
SMILES: Oc(c4)cc(O)c(c4)C(C3)Cc(c2)c(O3)c(C=1)c(c2)OC(C)(C)C1
InChI: InChI=1S/C20H20O4/c1-20(2)8-7-16-18(24-20)6-3-12-9-13(11-23-19(12)16)15-5-4-14(21)10-17(15)22/h3-8,10,13,21-22H,9,11H2,1-2H3/t13-/m0/s1
Instrument: Shimadzu LC20A-IT-TOFMS
Instrument type: LC-ESI-ITTOF
Ms type: MS
Ion mode: NEGATIVE
Column name: Waters Atlantis T3 (2.1 x 150 mm, 5 um)
Retention time: 1408.000
Ion type: [M-H]-
m/z	relative intensity
323.1287	999
324.1314	179
647.2675	511
648.2712	274
649.2772	64
