Mass spectrum: Epihesperidin; LC-ESI-ITTOF; MS2; [M-H]-
Name: Epihesperidin
Name: (2R)-7-[[6-O-(6-Deoxy-alpha-L-mannopyranosyl)-beta-D-glucopyranosyl]oxy]-2,3-dihydro-5-hydroxy-2-(3-hydroxy-4-methoxyphenyl)-4H-1-benzopyran-4-one
Name: (2R)-Hesperidin
Class: Natural Product; Flavonoid
Formula: C28H34O15
Exact mass: 610.18977
SMILES: c(O)(c3)c(C(=O)2)c(cc3OC(O4)C(O)C(O)C(O)C(COC(O5)C(O)C(C(C5C)O)O)4)OC(C2)c(c1)ccc(c1O)OC
InChI: InChI=1S/C28H34O15/c1-10-21(32)23(34)25(36)27(40-10)39-9-19-22(33)24(35)26(37)28(43-19)41-12-6-14(30)20-15(31)8-17(42-18(20)7-12)11-3-4-16(38-2)13(29)5-11/h3-7,10,17,19,21-30,32-37H,8-9H2,1-2H3/t10-,17+,19+,21-,22+,23+,24-,25+,26+,27+,28+/m0/s1
Instrument: LCMS-IT-TOF
Instrument type: LC-ESI-ITTOF
Ms type: MS2
Ion mode: NEGATIVE
Column name: Waters Atlantis T3 (2.1 x 150 mm, 5 um)
Retention time: 12.487050 min
Base peak: 301.065400
Precursor m/z: 609.181900
m/z	relative intensity
198.035800	7
199.037700	64
200.042200	14
201.022000	14
214.061000	5
215.032200	35
216.033800	10
217.051900	4
224.044400	9
225.052300	6
227.031600	27
233.080200	6
240.041200	13
241.054700	20
242.055300	57
243.058000	11
257.067000	13
258.054000	17
268.043700	22
283.052400	34
284.071800	6
285.044400	6
286.051200	54
287.043400	10
292.030500	7
301.065400	999
301.232100	18
301.382200	25
301.599100	15
301.832800	6
302.066600	232
302.233600	5
302.601300	4
303.069500	27
307.064000	9
310.051700	8
325.068500	27
