Mass spectrum: Embinin; LC-ESI-ITTOF; MS; [M+H]+
Name: Embinin
Name: 6-[2-O-(6-Deoxy-alpha-L-mannopyranosyl)-beta-D-glucopyranosyl]-5-hydroxy-7-methoxy-2-(4-methoxyphenyl)-4H-1-benzopyran-4-one
Class: Natural Product; Flavonoid
Formula: C29H34O14
Exact mass: 606.19486
SMILES: c(OC)(c(C(O5)C(C(C(C5CO)O)O)OC([H])(C(O)4)OC(C)C(O)C(O)4)1)cc(O2)c(C(=O)C=C2c(c3)ccc(OC)c3)c(O)1
InChI: InChI=1S/C29H34O14/c1-11-21(32)24(35)26(37)29(40-11)43-28-25(36)22(33)18(10-30)42-27(28)20-16(39-3)9-17-19(23(20)34)14(31)8-15(41-17)12-4-6-13(38-2)7-5-12/h4-9,11,18,21-22,24-30,32-37H,10H2,1-3H3/t11-,18+,21-,22+,24+,25-,26+,27-,28+,29-/m0/s1
Instrument: LCMS-IT-TOF
Instrument type: LC-ESI-ITTOF
Ms type: MS
Ion mode: POSITIVE
Column name: Waters Atlantis T3 (2.1 x 150 mm, 5 um)
Retention time: 12.701667 min
Base peak: 607.200800
m/z	relative intensity
244.086600	3
298.082500	4
311.096100	17
312.080000	3
337.110200	7
341.109400	50
342.104100	7
365.104500	16
377.099900	4
395.112600	19
407.102500	11
425.116200	15
426.107400	3
443.135500	73
444.127300	10
461.136600	51
462.148300	8
589.197800	3
607.200800	999
607.437700	13
607.698200	18
607.958800	14
608.195800	367
608.622400	8
608.954400	5
609.191600	86
610.211900	24
