Mass spectrum: Aucubin; LC-ESI-ITTOF; MS
Name: Aucubin
Name: beta-D-Glucopyranoside, (1S,4aR,5S,7aS)-1,4a,5,7a-tetrahydro-5-hydroxy-7-(hydroxymethyl)cyclopenta[c]pyran-1-yl
Name: beta-D-Glucopyranoside, 1,4a,5,7a-tetrahydro-5-hydroxy-7-(hydroxymethyl)cyclopenta[c]pyran-1-yl, [1S-(1alpha,4aalpha,5alpha,7aalpha)]-
Name: Acubin
Name: Aucubine
Name: Aucubosid
Name: Aucuboside
Name: Rhimantin
Class: Natural Product; Iridoid
Formula: C15H22O9
Exact mass: 346.12638
SMILES: OCC(C(O)1)OC([H])(OC(O3)C([H])(C(CO)=2)C([H])(C=C3)C(O)C2)C(O)C(O)1
InChI: InChI=1S/C15H22O9/c16-4-6-3-8(18)7-1-2-22-14(10(6)7)24-15-13(21)12(20)11(19)9(5-17)23-15/h1-3,7-21H,4-5H2/t7-,8+,9+,10+,11+,12-,13+,14-,15-/m0/s1
Instrument: Shimadzu LC20A-IT-TOFMS
Instrument type: LC-ESI-ITTOF
Ms type: MS
Ion mode: POSITIVE
Column name: Waters Atlantis T3 (2.1 x 150 mm, 5 um)
Retention time: 178.400
m/z	relative intensity	assigned
311.1095	137	
329.1198	75	
347.1364	77	
364.1580	999	
365.1621	204	
369.1141	574	
370.1167	82	
385.0883	213	
715.2377	180	
716.2477	64	
