Mass spectrum: Cirsiliol; LC-ESI-ITTOF; MS; [M+H]+
Name: Cirsiliol
Name: 2-(3,4-Dihydroxyphenyl)-5-hydroxy-6,7-dimethoxy-4H-1-benzopyran-4-one
Name: 3',4',5-Trihydroxy-6,7-dimethoxy-flavone
Name: 5,3',4'-Trihydroxy-6,7-dimethoxyflavone
Name: 6,7-Dimethoxy-5,3',4'-trihydroxyflavone
Name: 6-Hydroxyluteolin-6,7-dimethyl ether
Name: 6-Methoxyluteolin 7-methyl ether
Class: Natural Product; Flavonoid
Formula: C17H14O7
Exact mass: 330.07395
SMILES: COc(c1)c(OC)c(O)c(C(=O)3)c1OC(=C3)c(c2)cc(O)c(O)c2
InChI: InChI=1S/C17H14O7/c1-22-14-7-13-15(16(21)17(14)23-2)11(20)6-12(24-13)8-3-4-9(18)10(19)5-8/h3-7,18-19,21H,1-2H3
Instrument: LCMS-IT-TOF
Instrument type: LC-ESI-ITTOF
Ms type: MS
Ion mode: POSITIVE
Column name: Waters Atlantis T3 (2.1 x 150 mm, 5 um)
Retention time: 17.301667 min
Base peak: 331.087000
m/z	relative intensity
226.144000	8
249.188600	4
256.646300	13
270.040700	19
275.181400	6
298.050700	15
315.059300	11
316.049400	28
331.087000	999
331.244400	13
331.401800	27
331.646800	14
331.804300	7
332.084400	264
332.417200	5
333.083400	49
334.066200	11
337.005800	5
353.069800	98
353.846600	4
354.063600	19
355.058800	20
369.027600	22
370.025100	16
394.083400	6
506.312700	5
570.318400	4
622.307600	6
680.594600	8
683.154200	35
684.134100	15
713.421900	4
838.491300	5
1027.701200	5
1408.146000	6
