Mass spectrum: Iristectorin A; LC-ESI-ITTOF; MS; [M-H]-
Name: Iristectorin A
Name: 7-(beta-D-Glucopyranosyloxy)-5-hydroxy-3-(3-hydroxy-4-methoxyphenyl)-6-methoxy-4H-1-benzopyran-4-one
Class: Natural Product; Flavonoid
Formula: C23H24O12
Exact mass: 492.12678
SMILES: COc(c4)c(O)cc(c4)C(=C3)C(=O)c(c(O)1)c(O3)cc(OC(O2)C(O)C(O)C(O)C(CO)2)c(OC)1
InChI: InChI=1S/C23H24O12/c1-31-12-4-3-9(5-11(12)25)10-8-33-13-6-14(22(32-2)19(28)16(13)17(10)26)34-23-21(30)20(29)18(27)15(7-24)35-23/h3-6,8,15,18,20-21,23-25,27-30H,7H2,1-2H3/t15-,18-,20+,21-,23-/m1/s1
Instrument: LCMS-IT-TOF
Instrument type: LC-ESI-ITTOF
Ms type: MS
Ion mode: NEGATIVE
Column name: Waters Atlantis T3 (2.1 x 150 mm, 5 um)
Retention time: 12.097450 min
Base peak: 491.110300
m/z	relative intensity
205.697200	5
214.471700	5
245.570000	5
247.350200	5
247.834000	5
253.677200	5
270.018200	5
313.042400	13
314.046300	84
315.034800	10
329.071600	360
329.333100	10
329.577300	5
330.066000	67
331.061800	10
362.605000	5
373.908900	5
476.085600	20
477.113600	5
491.110300	999
491.323200	20
491.515000	20
491.792000	15
492.111700	225
493.114100	49
518.856500	5
527.097200	20
529.084600	10
534.491600	5
551.148000	343
552.141100	96
553.135000	13
554.107300	80
555.125600	18
556.099600	5
592.129000	5
605.107000	381
606.123800	106
606.881100	5
607.117900	10
671.310800	5
698.470300	5
761.601500	5
769.978200	5
777.114300	5
799.698400	5
808.773400	5
821.200900	377
822.027300	7
822.192600	143
823.184900	36
983.256300	389
983.527500	10
983.828900	10
984.250900	197
985.246000	82
986.241600	15
995.649400	5
996.104300	5
1019.195400	10
1020.208100	5
1020.545700	5
1021.221200	5
1043.264900	33
1044.258400	13
1182.716900	5
1221.430400	5
1291.283400	5
1397.530700	5
1403.680500	5
1475.355200	23
1476.388900	5
1547.339800	5
1549.760000	5
1596.525400	5
1597.447100	5
1624.484700	5
1633.599400	5
1676.131200	5
1721.920200	5
1723.555500	5
1740.713300	5
1849.079900	5
1909.064600	5
1924.210400	5
1998.774700	5
