Mass spectrum: Fukugetin; LC-ESI-ITTOF; MS; [M-H]-
Name: Fukugetin
Name: (2R,3S)-2'-(3,4-Dihydroxyphenyl)-2,3-dihydro-5,5',7,7'-tetrahydroxy-2-(4-hydroxyphenyl)- [3,8'-bi-4H-1-benzopyran]-4,4'-dione
Name: 3-[2-(3,4-Dihydroxyphenyl)-5,7-dihydroxy-4-oxo-4H-1-benzopyran-8-yl]-4',5,7-trihydroxy-flavanone
Name: (+)-Morelloflavone
Name: Morelloflavone
Class: Natural Product; Flavonoid
Formula: C30H20O11
Exact mass: 556.10056
SMILES: c(O)(c1)cc(O)c(C3=O)c1OC(C3c(c54)c(O)cc(O)c4C(C=C(c(c6)ccc(O)c6O)O5)=O)c(c2)ccc(c2)O
InChI: InChI=1S/C30H20O11/c31-14-4-1-12(2-5-14)29-27(28(39)25-18(35)8-15(32)9-23(25)41-29)26-20(37)10-19(36)24-21(38)11-22(40-30(24)26)13-3-6-16(33)17(34)7-13/h1-11,27,29,31-37H/t27-,29+/m1/s1
Instrument: LCMS-IT-TOF
Instrument type: LC-ESI-ITTOF
Ms type: MS
Ion mode: NEGATIVE
Column name: Waters Atlantis T3 (2.1 x 150 mm, 5 um)
Retention time: 15.580783 min
Base peak: 555.103000
m/z	relative intensity
401.068800	12
403.072800	9
429.061300	149
430.057200	31
431.074100	9
553.067200	8
555.103000	999
555.306800	17
555.578500	28
555.805000	16
556.099600	339
556.303600	9
556.507600	8
557.097100	87
558.095500	17
591.077200	9
592.058800	5
618.082300	43
619.086100	13
669.096600	132
670.091300	61
671.086700	10
1111.192900	79
1112.186200	48
1113.211900	18
1166.119400	5
