Mass spectrum: Bisdemethoxycurcumin; LC-ESI-ITTOF; MS2; [M-H]-
Name: Bisdemethoxycurcumin
Name: Didemethoxycurcumin
Name: (1E,6E)-1,7-Bis(4-hydroxyphenyl)-1,6-heptadiene-3,5-dione
Name: (E,E)-1,7-Bis(p-hydroxyphenyl)-1,6-heptadiene-3,5-dione
Name: Bisdesmethoxycurcumin
Name: Curcumin III
Class: Natural Product; diarylheptanoid
Formula: C19H16O4
Exact mass: 308.10486
SMILES: Oc(c1)ccc(C=CC(=O)CC(=O)C=Cc(c2)ccc(O)c2)c1
InChI: InChI=1S/C19H16O4/c20-16-7-1-14(2-8-16)5-11-18(22)13-19(23)12-6-15-3-9-17(21)10-4-15/h1-12,20-21H,13H2/b11-5+,12-6+
Instrument: LCMS-IT-TOF
Instrument type: LC-ESI-ITTOF
Ms type: MS2
Ion mode: NEGATIVE
Column name: Waters Atlantis T3 (2.1 x 150 mm, 5 um)
Retention time: 20.988700 min
Base peak: 143.050600
Precursor m/z: 307.093500
m/z	relative intensity
115.058600	20
117.035700	24
118.914400	10
119.050700	185
120.059400	16
142.786400	10
143.050600	999
143.165600	17
143.292100	21
143.430200	12
144.052300	153
145.034300	161
146.031300	11
163.035300	12
187.036600	694
187.168000	13
187.286400	15
187.457300	9
188.049900	83
