Mass spectrum: Magnolol; LC-ESI-ITTOF; MS; [M-H]-
Name: Magnolol
Name: [1,1'-Biphenyl]-2,2'-diol, 5,5'-di-2-propen-1-yl-
Name: 2,2'-Bichavicol
Name: 2,2'-Biphenyldiol, 5,5'-diallyl-
Name: [1,1'-Biphenyl]-2,2'-diol, 5,5'-di-2-propenyl-
Name: 5,5'-Diallyl-2,2'-biphenyldiol
Name: NSC 293099
Class: Natural Product; Neolignan
Formula: C18H18O2
Exact mass: 266.13068
SMILES: C=CCc(c2)cc(c(O)c2)c(c1)c(O)ccc(CC=C)1
InChI: InChI=1S/C18H18O2/c1-3-5-13-7-9-17(19)15(11-13)16-12-14(6-4-2)8-10-18(16)20/h3-4,7-12,19-20H,1-2,5-6H2
Instrument: Shimadzu LC20A-IT-TOFMS
Instrument type: LC-ESI-ITTOF
Ms type: MS
Ion mode: NEGATIVE
Column name: Waters Atlantis T3 (2.1 x 150 mm, 5 um)
Retention time: 1495.900
Ion type: [M-H]-
m/z	relative intensity
265.1228	999
266.1259	227
