Mass spectrum: Anthricin; LC-ESI-ITTOF; MS; [M+NH3+H]+
Name: Anthricin
Name: (5R,5aR,8aR)-5,8,8a,9-Tetrahydro-5-(3,4,5-trimethoxyphenyl)-furo[3',4':6,7]naphtho[2,3-d]-1,3-dioxol-6(5aH)-one
Name: [5R-(5alpha,5abeta,8aalpha)]-5,8,8a,9-Tetrahydro-5-(3,4,5-trimethoxyphenyl)-furo[3',4':6,7]naphtho[2,3-d]-1,3-dioxol-6(5aH)-one
Name: Deoxy-podophyllotoxin
Name: (-)-Anthricin
Name: (-)-Deoxypodophyllotoxin
Name: (-)-Desoxypodophyllotoxin
Name: 4-Deoxypodophyllotoxin
Name: Deoxypodophyllotoxin
Name: Desoxypodophyllotoxin
Name: Silicicolin
Class: Natural Product; Flavonoid
Formula: C22H22O7
Exact mass: 398.13655
SMILES: COc(c(OC)5)cc(cc(OC)5)C(c21)C([H])(C(=O)4)C([H])(CO4)Cc(cc(O3)c(OC3)c2)1
InChI: InChI=1S/C22H22O7/c1-24-17-6-12(7-18(25-2)21(17)26-3)19-14-8-16-15(28-10-29-16)5-11(14)4-13-9-27-22(23)20(13)19/h5-8,13,19-20H,4,9-10H2,1-3H3/t13-,19+,20-/m0/s1
Instrument: LCMS-IT-TOF
Instrument type: LC-ESI-ITTOF
Ms type: MS
Ion mode: POSITIVE
Column name: Waters Atlantis T3 (2.1 x 150 mm, 5 um)
Retention time: 21.160000 min
Base peak: 416.170000
m/z	relative intensity
213.030500	10
231.069400	968
231.332400	22
231.522400	11
232.063800	94
399.135700	839
399.481400	16
399.788700	7
400.153900	170
401.154100	29
416.170000	999
416.581700	19
416.777900	11
417.170400	369
418.172000	60
421.124800	76
422.131100	16
437.088900	26
444.189400	11
814.292300	53
815.307300	32
819.263300	26
820.253800	17
822.291700	5
