Mass spectrum: Cosmosiin; LC-ESI-ITTOF; MS2; [M+H]+
Name: Apigenin-7-O-glucoside
Name: Apigetrin
Name: Cosmosiin
Name: 5-hydroxy-2-(4-hydroxyphenyl)-7-[(2S,3R,4S,5R,6R)-3,4,5-trihydroxy-6-(hydroxymethyl)oxan-2-yl]oxy-chromen-4-one
Class: Natural Product; Flavonoid
Formula: C21H20O10
Exact mass: 432.10565
SMILES: C1=CC(=CC=C1C2=CC(=O)C3=C(C=C(C=C3O2)O[C@H]4[C@@H]([C@H]([C@@H]([C@H](O4)CO)O)O)O)O)O
InChI: InChI=1S/C21H20O10/c22-8-16-18(26)19(27)20(28)21(31-16)29-11-5-12(24)17-13(25)7-14(30-15(17)6-11)9-1-3-10(23)4-2-9/h1-7,16,18-24,26-28H,8H2/t16-,18-,19+,20-,21-/m1/s1
Instrument: LCMS-IT-TOF
Instrument type: LC-ESI-ITTOF
Ms type: MS2
Ion mode: POSITIVE
Column name: Waters Atlantis T3 (2.1 x 150 mm, 5 um)
Retention time: 11.953550 min
Base peak: 271.051000
Precursor m/z: 433.310100
m/z	relative intensity
153.016200	21
203.064500	4
215.068100	4
225.046000	4
271.051000	999
271.209200	19
271.351700	24
271.557500	14
271.763400	7
272.064500	160
