Mass spectrum: Nodakenin; LC-ESI-ITTOF; MS; [M+CH3COOH-H]-
Name: Nodakenin
Name: (2R)-2-[1-(beta-D-Glucopyranosyloxy)-1-methylethyl]-2,3-dihydro-7H-furo[3,2-g][1]benzopyran-7-one
Name: (R)-2-[1-(beta-D-Glucopyranosyloxy)-1-methylethyl]-2,3-dihydro-7H-furo[3,2-g][1]benzopyran-7-one
Name: (+)-Marmesinin
Name: Nodakenetin beta-D-glucopyranoside
Class: Natural Product; Coumarin
Formula: C20H24O9
Exact mass: 408.14203
SMILES: OCC(O1)C(O)C(O)C(O)C1OC(C)(C)C(C2)Oc(c3)c(cc(C=4)c(OC(=O)C4)3)2
InChI: InChI=1S/C20H24O9/c1-20(2,29-19-18(25)17(24)16(23)13(8-21)28-19)14-6-10-5-9-3-4-15(22)27-11(9)7-12(10)26-14/h3-5,7,13-14,16-19,21,23-25H,6,8H2,1-2H3/t13-,14-,16-,17+,18-,19+/m1/s1
Instrument: LCMS-IT-TOF
Instrument type: LC-ESI-ITTOF
Ms type: MS
Ion mode: NEGATIVE
Column name: Waters Atlantis T3 (2.1 x 150 mm, 5 um)
Retention time: 11.930783 min
Base peak: 467.162600
m/z	relative intensity
227.075100	65
228.075300	6
245.084700	7
407.144700	165
407.493800	4
408.134200	28
409.144300	6
443.117400	10
453.146000	6
467.162600	999
467.349600	18
467.536600	24
467.827500	11
468.160100	285
469.158600	65
470.137400	42
471.138100	9
521.122000	72
522.131600	24
523.120200	5
815.272600	132
816.288100	57
817.276900	21
875.304200	55
876.299600	33
877.295500	5
