Mass spectrum: Myricetin; LC-ESI-ITTOF; MS; [M-H]-
Name: Myricetin
Name: 3,5,7-Trihydroxy-2-(3,4,5-trihydroxyphenyl)-4H-1-benzopyran-4-one
Name: 3,3',4',5,5',7-Hexahydroxy-flavone
Name: 3,3',4',5,5',7-Hexahydroxyflavone
Name: 3,5,7,3',4',5'-Hexahydroxyflavone
Name: Cannabiscetin
Name: Myricetol
Class: Natural Product; Flavonoid
Formula: C15H10O8
Exact mass: 318.03757
SMILES: Oc(c3)cc(O1)c(c(O)3)C(=O)C(O)=C1c(c2)cc(O)c(O)c(O)2
InChI: InChI=1S/C15H10O8/c16-6-3-7(17)11-10(4-6)23-15(14(22)13(11)21)5-1-8(18)12(20)9(19)2-5/h1-4,16-20,22H
Instrument: LCMS-IT-TOF
Instrument type: LC-ESI-ITTOF
Ms type: MS
Ion mode: NEGATIVE
Column name: Waters Atlantis T3 (2.1 x 150 mm, 5 um)
Retention time: 12.930783 min
Base peak: 317.033600
m/z	relative intensity
287.015600	9
315.017800	146
315.324800	6
316.024900	21
317.033600	999
317.187600	17
317.341600	20
317.581300	14
317.786900	6
318.026700	167
319.038600	20
333.023000	23
334.023400	7
380.028600	21
431.014300	127
431.652900	5
432.032400	26
433.031600	5
483.051200	9
497.026900	8
515.033000	21
517.019500	5
633.055700	67
634.047400	19
635.064000	426
635.500000	9
635.839200	5
636.057300	135
637.075600	24
638.046200	6
649.040400	13
651.049400	25
687.970300	5
