Mass spectrum: Juglanin; LC-ESI-ITTOF; MS; [M+H]+
Name: Juglanin
Name: 3-(alpha-L-Arabinofuranosyloxy)-5,7-dihydroxy-2-(4-hydroxyphenyl)-4H-1-benzopyran-4-one
Name: 3,4',5,7-Tetrahydroxy-flavone 3-alpha-L-arabinofuranoside
Name: alpha-L-5,7-Dihydroxy-2-(p-hydroxyphenyl)-4-oxo-4H-1-benzopyran-3-yl arabinofuranoside
Name: alpha-L-Kaempferol-3 arabinofuranoside
Name: 5,7,4'-Trihydroxyflavone 3-alpha-L-arabinofuranoside
Name: Euglanin
Name: Juglanin (Juglans)
Name: Kaempferol 3-O-arabinoside
Name: Kaempferol 3-O-alpha-L-arabinofuranoside
Name: Kaempferol 3-arabinoside
Class: Natural Product; Flavonoid
Formula: C20H18O10
Exact mass: 418.09000
SMILES: OCC(O1)C(O)C(O)C1OC(C(=O)2)=C(c(c4)ccc(O)c4)Oc(c3)c(c(O)cc(O)3)2
InChI: InChI=1S/C20H18O10/c21-7-13-15(25)17(27)20(29-13)30-19-16(26)14-11(24)5-10(23)6-12(14)28-18(19)8-1-3-9(22)4-2-8/h1-6,13,15,17,20-25,27H,7H2/t13-,15-,17+,20-/m0/s1
Instrument: LCMS-IT-TOF
Instrument type: LC-ESI-ITTOF
Ms type: MS
Ion mode: POSITIVE
Column name: Waters Atlantis T3 (2.1 x 150 mm, 5 um)
Retention time: 12.793333 min
Base peak: 287.053900
m/z	relative intensity
287.053900	999
287.200400	13
287.347000	19
287.575100	14
288.047900	132
289.059900	19
303.047100	25
419.094500	281
419.527400	7
420.098400	80
421.083800	7
435.080700	9
436.103600	5
441.074500	198
442.084200	25
457.059700	25
458.046400	5
459.054700	5
647.634100	9
859.178900	123
860.165000	52
861.179900	19
875.110600	5
