Mass spectrum: Catalpol; LC-ESI-ITTOF; MS; [M+NH3+H]+
Name: Catalpol
Name: beta-D-Glucopyranoside, (1aS,1bS,2S,5aR,6S,6aS)-1a,1b,2,5a,6,6a-hexahydro-6-hydroxy-1a-(hydroxymethyl)oxireno[4,5]cyclopenta[1,2-c]pyran-2-yl
Name: beta-D-Glucopyranoside, 1a,1b,2,5a,6,6a-hexahydro-6-hydroxy-1a-(hydroxymethyl)oxireno[4,5]cyclopenta[1,2-c]pyran-2-yl, [1aS-(1aalpha,1bbeta,2beta,5abeta,6beta,6aalpha)]-
Name: Catalpinoside
Name: De(p-hydroxybenzoyl)catalposide
Class: Natural Product; Iridoid
Formula: C15H22O10
Exact mass: 362.12130
SMILES: OCC(C(O)4)OC([H])(C(O)C(O)4)OC(O3)C([H])(C([H])(C=C3)2)C(CO)(O1)C1C(O)2
InChI: InChI=1S/C15H22O10/c16-3-6-9(19)10(20)11(21)14(23-6)24-13-7-5(1-2-22-13)8(18)12-15(7,4-17)25-12/h1-2,5-14,16-21H,3-4H2/t5-,6-,7-,8+,9-,10+,11-,12+,13+,14+,15-/m1/s1
Instrument: Shimadzu LC20A-IT-TOFMS
Instrument type: LC-ESI-ITTOF
Ms type: MS
Ion mode: POSITIVE
Column name: Waters Atlantis T3 (2.1 x 150 mm, 5 um)
Retention time: 137.200
Ion type: [M+NH3+H]+
m/z	relative intensity
183.0646	62
380.1535	999
381.1560	193
385.1051	74
