Mass spectrum: Sennoside A; LC-ESI-ITTOF; MS; [M+NH3+H]+
Name: Sennoside A
Name: (9R,9'R)-5,5'-Bis(beta-D-glucopyranosyloxy)-9,9',10,10'-tetrahydro-4,4'-dihydroxy-10,10'-dioxo- [9,9'-bianthracene]-2,2'-dicarboxylic acid
Name: (R*,R*)-5,5'-Bis(beta-D-glucopyranosyloxy)-9,9',10,10'-tetrahydro-4,4'-dihydroxy-10,10'-dioxo-[9,9'-bianthracene]-2,2'-dicarboxylic acid
Name: Gentle Nature
Name: Glysennid
Class: Natural Product; Anthraquinone
Formula: C42H38O20
Exact mass: 862.19564
SMILES: OC(=O)c(c8)cc(c(c38)C(c(c(C([H])(C([H])(c67)c(c(C(c(c(cc(c7)C(O)=O)O)6)=O)4)cccc4OC(C(O)5)OC(CO)C(C5O)O)3)2)c(ccc2)OC(C(O)1)OC(CO)C(C1O)O)=O)O
InChI: InChI=1S/C42H38O20/c43-11-23-31(47)35(51)37(53)41(61-23)59-21-5-1-3-15-25(17-7-13(39(55)56)9-19(45)27(17)33(49)29(15)21)26-16-4-2-6-22(60-42-38(54)36(52)32(48)24(12-44)62-42)30(16)34(50)28-18(26)8-14(40(57)58)10-20(28)46/h1-10,23-26,31-32,35-38,41-48,51-54H,11-12H2,(H,55,56)(H,57,58)/t23-,24-,25-,26-,31-,32-,35+,36+,37-,38-,41-,42-/m1/s1
Instrument: LCMS-IT-TOF
Instrument type: LC-ESI-ITTOF
Ms type: MS
Ion mode: POSITIVE
Column name: Waters Atlantis T3 (2.1 x 150 mm, 5 um)
Retention time: 3.693333 min
Base peak: 270.056500
m/z	relative intensity
200.118300	13
208.330000	13
211.183100	13
215.153600	13
221.743600	13
222.531300	13
223.349200	13
224.039100	13
236.402300	13
262.125000	13
266.201400	13
266.624900	13
269.031000	26
270.056500	999
270.293400	26
270.546300	24
271.052300	90
277.177600	26
283.241900	13
290.222500	13
291.796200	13
306.235300	18
313.321900	13
328.190800	13
336.335800	24
349.108500	13
378.334100	13
384.904400	13
385.451400	13
391.265100	13
392.292200	13
393.092000	13
395.840400	13
399.154900	13
401.192600	26
418.899400	13
429.567500	13
434.681400	13
442.510000	13
450.204500	13
451.122500	13
460.622100	13
475.507500	13
521.364400	13
527.769100	13
538.129200	13
539.088200	552
539.735500	13
540.092700	104
541.098200	13
556.088000	26
620.415300	13
624.250900	13
634.860000	13
637.963000	13
664.049900	13
672.795300	13
685.668200	13
692.378000	13
701.154600	44
723.493200	13
774.614400	21
797.243700	13
839.242800	13
855.663800	13
865.813400	13
866.350700	13
880.237300	854
880.807600	13
881.235400	457
881.577800	13
882.205600	129
882.690900	32
883.233500	44
885.176600	601
886.177500	310
886.749800	13
887.207700	57
888.209800	13
893.659600	13
894.176800	13
901.144400	110
901.606000	13
902.125500	63
903.164800	13
904.147000	13
904.667200	13
905.621300	13
906.315500	13
914.346800	13
971.109200	13
990.460400	13
1092.016200	13
1116.958600	13
1117.569000	13
1203.356200	13
1285.622100	13
1303.601900	13
1311.803200	24
1312.360100	24
1312.847600	13
1313.787800	13
1314.310400	38
1314.833000	13
1316.262100	26
1332.313600	13
1372.209200	13
1402.274200	13
1457.982700	13
1496.504900	13
1602.288400	13
1618.021000	13
1637.250400	13
1725.268400	13
1745.083000	21
1746.729300	13
1747.894200	13
1758.798800	26
1772.406600	26
1773.539500	13
1782.170100	13
1817.188400	13
1879.988300	13
1882.322400	13
1913.007100	26
1978.923700	13
