Mass spectrum: Ginsenoside Ro; LC-ESI-ITTOF; MS; [M-H]-
Name: Ginsenoside Ro
Name: (3beta)-28-(beta-D-Glucopyranosyloxy)-28-oxoolean-12-en-3-yl 2-O-beta-D-glucopyranosyl-beta-D-glucopyranosiduronic acid
Name: Chikusetsusaponin V
Name: Chikusetsusaponin 5
Name: Polysciasaponin P3
Class: Natural Product; Saponin
Formula: C48H76O19
Exact mass: 956.49808
SMILES: CC(C)(C8([H])3)C(CCC3(C(C(CC8)4C)([H])CC=C(C([H])56)C4(C)CCC(C(OC(O7)C(O)C(O)C(O)C7CO)=O)5CCC(C)(C)C6)C)OC(C(OC(C(O)2)OC(CO)C(O)C2O)1)OC(C(O)C(O)1)C(O)=O
InChI: InChI=1S/C48H76O19/c1-43(2)14-16-48(42(61)67-40-35(58)31(54)29(52)24(20-50)63-40)17-15-46(6)21(22(48)18-43)8-9-26-45(5)12-11-27(44(3,4)25(45)10-13-47(26,46)7)64-41-37(33(56)32(55)36(65-41)38(59)60)66-39-34(57)30(53)28(51)23(19-49)62-39/h8,22-37,39-41,49-58H,9-20H2,1-7H3,(H,59,60)/t22-,23+,24+,25-,26+,27-,28+,29+,30-,31-,32-,33-,34+,35+,36-,37+,39-,40-,41+,45-,46+,47+,48-/m0/s1
Instrument: LCMS-IT-TOF
Instrument type: LC-ESI-ITTOF
Ms type: MS
Ion mode: NEGATIVE
Column name: Waters Atlantis T3 (2.1 x 150 mm, 5 um)
Retention time: 14.480783 min
Base peak: 955.501800
m/z	relative intensity
500.232700	12
500.748600	12
507.242100	122
507.740000	85
508.259800	48
508.736500	8
899.464200	8
917.683500	8
955.501800	999
955.769200	22
955.977100	819
956.482300	635
956.749800	14
956.987600	242
957.493000	147
957.998600	23
958.474600	17
1018.469800	12
1019.482100	12
1020.464200	8
1069.479700	8
1274.324800	20
1274.633500	27
1274.976600	36
1275.354100	30
1275.662900	10
1275.971800	12
1343.889900	6
1433.728400	81
1434.237900	118
1434.747400	105
1435.257100	83
1435.730400	28
1436.240200	12
1436.750100	8
1912.967300	8
1913.934100	8
