Mass spectrum: Isofraxidin; LC-ESI-ITTOF; MS2; [M-H]-
Name: Isofraxidin
Name: 7-Hydroxy-6,8-dimethoxy-2H-1-benzopyran-2-one
Name: 7-Hydroxy-6,8-dimethoxy-coumarin
Name: 6,8-Dimethoxy-umbelliferone
Name: 6,8-Dimethoxy-7-hydroxycoumarin
Name: Phytodolor
Class: Natural Product; coumarin
Formula: C11H10O5
Exact mass: 222.05282
SMILES: COc(c1)c(O)c(OC)c(O2)c(C=CC(=O)2)1
InChI: InChI=1S/C11H10O5/c1-14-7-5-6-3-4-8(12)16-10(6)11(15-2)9(7)13/h3-5,13H,1-2H3
Instrument: LCMS-IT-TOF
Instrument type: LC-ESI-ITTOF
Ms type: MS2
Ion mode: NEGATIVE
Column name: Waters Atlantis T3 (2.1 x 150 mm, 5 um)
Retention time: 11.689050 min
Base peak: 206.025600
Precursor m/z: 221.043800
m/z	relative intensity
135.018000	4
163.010700	16
190.999900	266
191.398500	7
191.997200	23
192.997200	5
205.006200	8
205.584500	9
205.942900	42
206.025600	999
206.149800	19
206.274000	21
206.467200	13
207.019900	126
208.030400	9
