Mass spectrum: Hirsutrin; LC-ESI-ITTOF; MS; [M+H]+
Name: Hirsutrin
Name: 2-(3,4-Dihydroxyphenyl)-3-(beta-D-glucopyranosyloxy)-5,7-dihydroxy-4H-1-benzopyran-4-one
Name: 3-Glucosylquercetin
Name: 3-O-beta-D-Glucopyranosylquercetin
Name: 3',4',5,7-Tetrahydroxyflavone-3-beta-D-glucopyranoside
Name: Contigoside B
Name: Glucosyl-3-quercetin
Name: Isoquercetin
Name: Isoquercetrin
Name: Isoquercitrin
Name: Quercetin 3-D-glucoside
Name: Quercetin 3-O-glucopyranoside
Name: Quercetin 3-O-glucoside
Name: Quercetin 3-O-beta-D-glucopyranoside
Name: Quercetin 3-O-beta-D-glucoside
Name: Quercetin 3-O-beta-glucoside
Name: Quercetin 3-glucoside
Name: Quercetin 3-mono-D-glucoside
Name: Quercetin 3-monoglucoside
Name: Quercetin 3-beta-D-glucopyranoside
Name: Quercetin 3-beta-D-glucoside
Name: Quercetin 3beta-O-glucoside
Name: Quercetin 3beta-glucoside
Name: Quercetin glucoside
Name: Quercetin-3-glucose
Name: Quercetin-3-beta-glucopyranoside
Name: Quercetol 3-glucoside
Name: Quercetol 3-monoglucoside
Class: Natural Product; Flavonoid
Formula: C21H20O12
Exact mass: 464.09548
SMILES: OCC(O1)C(O)C(O)C(O)C1OC(C(=O)3)=C(Oc(c4)c(c(O)cc(O)4)3)c(c2)cc(O)c(O)c2
InChI: InChI=1S/C21H20O12/c22-6-13-15(27)17(29)18(30)21(32-13)33-20-16(28)14-11(26)4-8(23)5-12(14)31-19(20)7-1-2-9(24)10(25)3-7/h1-5,13,15,17-18,21-27,29-30H,6H2/t13-,15-,17+,18-,21+/m1/s1
Instrument: LCMS-IT-TOF
Instrument type: LC-ESI-ITTOF
Ms type: MS
Ion mode: POSITIVE
Column name: Waters Atlantis T3 (2.1 x 150 mm, 5 um)
Retention time: 10.835000 min
Base peak: 465.098000
m/z	relative intensity
257.048500	5
264.075400	7
303.052300	356
303.202800	7
303.353500	8
304.056800	52
305.046300	5
465.098000	999
465.305300	14
465.491900	16
465.761400	13
466.093300	234
467.110500	54
468.108000	7
524.189500	12
929.173300	5
