Mass spectrum: Sakuranetin; LC-ESI-ITTOF; MS; [M-H]-
Name: Sakuranetin
Name: (2S)-2,3-Dihydro-5-hydroxy-2-(4-hydroxyphenyl)-7-methoxy-4H-1-benzopyran-4-one
Name: (S)-2,3-Dihydro-5-hydroxy-2-(4-hydroxyphenyl)-7-methoxy-4H-1-benzopyran-4-one
Name: (S)-(-)-4',5-Dihydroxy-7-methoxy-flavanone
Name: (-)-(S)-Sakuranetin
Name: (S)-4',5-Dihydroxy-7-methoxyflavanone
Name: 5,4'-Dihydroxy-7-methoxyflavanone
Name: 7-O-Methylnaringenin
Name: Naringenin 7-O-methyl ether
Name: Naringenin 7-methyl ether
Class: Natural Product; Flavonoid
Formula: C16H14O5
Exact mass: 286.08412
SMILES: COc(c3)cc(O1)c(c(O)3)C(=O)CC1c(c2)ccc(O)c2
InChI: InChI=1S/C16H14O5/c1-20-11-6-12(18)16-13(19)8-14(21-15(16)7-11)9-2-4-10(17)5-3-9/h2-7,14,17-18H,8H2,1H3/t14-/m0/s1
Instrument: LCMS-IT-TOF
Instrument type: LC-ESI-ITTOF
Ms type: MS
Ion mode: NEGATIVE
Column name: Waters Atlantis T3 (2.1 x 150 mm, 5 um)
Retention time: 20.497450 min
Base peak: 285.081600
m/z	relative intensity
285.081600	999
285.227600	15
285.373700	24
285.601000	10
286.072200	208
286.397300	8
287.080800	23
321.050000	4
571.156200	80
571.822400	5
572.167100	32
573.155900	5
586.367400	4
