Mass spectrum: Hypaconitine; LC-ESI-ITTOF; MS; [M+H]+
Name: Hypaconitine
Name: Aconitane-8,13,14,15-tetrol, 1,6,16-trimethoxy-4-(methoxymethyl)-20-methyl-, 8-acetate 14-benzoate, (1alpha,6alpha,14alpha,15alpha,1beta)-
Name: 2H-12,3,6a-Ethanylylidene-7,9-methanonaphth[2,3-b]azocine, aconitane-8,13,14,15-tetrol deriv
Name: 4-Methylaconitane-1,6,8,13,14,15,16,18-octol, O1,O6,O16,O18,N-Penta-Me, 14-benzoyl, 8-Ac
Class: Natural Product; Alkaloid
Formula: C33H45NO10
Exact mass: 615.30435
SMILES: C(C562)([H])(N7C)C(C(C([H])5C(C7)(CCC6OC)COC)OC)(C(C31[H])(OC(C)=O)C(C(OC)C(C(OC(=O)c(c4)cccc4)3)(O)CC12[H])O)[H]
InChI: InChI=1S/C33H45NO10/c1-17(35)44-33-21-19(14-31(38,28(42-6)26(33)36)27(21)43-29(37)18-10-8-7-9-11-18)32-20(40-4)12-13-30(16-39-3)15-34(2)25(32)22(33)23(41-5)24(30)32/h7-11,19-28,36,38H,12-16H2,1-6H3/t19-,20+,21-,22+,23+,24-,25+,26+,27-,28+,30+,31-,32+,33-/m1/s1
Instrument: Shimadzu LC20A-IT-TOFMS
Instrument type: LC-ESI-ITTOF
Ms type: MS
Ion mode: POSITIVE
Column name: Waters Atlantis T3 (2.1 x 150 mm, 5 um)
Retention time: 1210.601
Ion type: [M+H]+
m/z	relative intensity
616.3120	999
617.3166	351
618.3183	95
