Mass spectrum: Naringin; LC-ESI-ITTOF; MS; [M-H]-
Name: Naringin
Name: 4H-1-Benzopyran-4-one, 7-[[2-O-(6-deoxy-alpha-L-mannopyranosyl)-beta-D-glucopyranosyl]oxy]-2,3-dihydro-5-hydroxy-2-(4-hydroxyphenyl)-, (2S)-
Name: (2S)-Naringin
Name: 7-[2-O-(6-Deoxy-alpha-L-mannopyranosyl)-beta-D-glucopyranosyloxy]-2,3-dihydro-4',5,7-trihydroxyflavone
Name: Naringenin 7-neohesperidoside
Name: Naringenin 7-rhamnoglucoside
Name: Naringenin 7beta-neohesperidoside
Name: Naringoside
Name: Naringenin 7-O-neohesperidoside
Name: 4'5-diOH-Flavone-7-rhgluc
Name: NINDS_000247
Name: AIDS005921
Class: Natural Product; Flavonoid
Formula: C27H32O14
Exact mass: 580.17921
SMILES: c(c3O)c(cc(O4)c3C(CC(c(c5)ccc(O)c5)4)=O)OC(O2)C(C(C(C2CO)O)O)OC(O1)(C(C(C(C1C)O)O)O)[H]
InChI: InChI=1S/C27H32O14/c1-10-20(32)22(34)24(36)26(37-10)41-25-23(35)21(33)18(9-28)40-27(25)38-13-6-14(30)19-15(31)8-16(39-17(19)7-13)11-2-4-12(29)5-3-11/h2-7,10,16,18,20-30,32-36H,8-9H2,1H3/t10-,16-,18+,20-,21+,22+,23-,24+,25+,26-,27+/m0/s1
Instrument: Shimadzu LC20A-IT-TOFMS
Instrument type: LC-ESI-ITTOF
Ms type: MS
Ion mode: NEGATIVE
Column name: Waters Atlantis T3 (2.1 x 150 mm, 5 um)
Retention time: 707.499 sec
Ion type: [M-H]-
m/z	relative intensity
579.1721	999
580.1754	367
581.1765	95
642.1678	52
693.1635	149
