Mass spectrum: Albiflorin; LC-ESI-ITTOF; MS2; [M+H]+
Name: Albiflorin
Name: (1R,3R,4R,6S,9S)-9-[(Benzoyloxy)methyl]-1-(beta-D-glucopyranosyloxy)-4-hydroxy-6-methyl-7-oxatricyclo[4.3.0.03,9]nonan-8-one
Class: Natural Product; monoterpen glycoside
Formula: C23H28O11
Exact mass: 480.16316
SMILES: C[C@]12C[C@H]([C@@H]3C[C@]1([C@@]3(C(=O)O2)COC(=O)C4=CC=CC=C4)O[C@H]5[C@@H]([C@H]([C@@H]([C@H](O5)CO)O)O)O)O
InChI: InChI=1S/C23H28O11/c1-21-8-13(25)12-7-23(21,33-19-17(28)16(27)15(26)14(9-24)32-19)22(12,20(30)34-21)10-31-18(29)11-5-3-2-4-6-11/h2-6,12-17,19,24-28H,7-10H2,1H3/t12-,13+,14+,15+,16-,17+,19-,21-,22-,23-/m0/s1
Instrument: LCMS-IT-TOF
Instrument type: LC-ESI-ITTOF
Ms type: MS2
Ion mode: POSITIVE
Column name: Waters Atlantis T3 (2.1 x 150 mm, 5 um)
Retention time: 10.148600 min
Base peak: 197.084800
Precursor m/z: 481.166500
m/z	relative intensity	assigned
151.073400	18	
152.079000	4	
161.060200	140	
162.074000	37	
169.084800	9	
179.074600	215	
179.306100	6	
180.079000	54	
197.084800	999	
197.206200	16	
197.327700	21	
197.516700	15	
198.084400	177	
199.086500	20	
301.111100	42	
302.112500	21	
303.115500	4	
319.114800	405	
319.475400	8	
320.111200	131	
359.126500	52	
360.128700	6	
