Mass spectrum: Bergenin; LC-ESI-ITTOF; MS; [M-H]-
Name: Bergenin
Name: (2R,3S,4S,4aR,10bS)-3,4,4a,10b-Tetrahydro-3,4,8,10-tetrahydroxy-2-(hydroxymethyl)-9-methoxy- pyrano[3,2-c][2]benzopyran-6(2H)-one
Name: [2R-(2alpha,3beta,4alpha,4aalpha,10bbeta)]- 3,4,4a,10b-Tetrahydro-3,4,8,10-tetrahydroxy-2-(hydroxymethyl)-9-methoxy- pyrano[3,2-c][2]benzopyran-6(2H)-one
Name: 4-Methoxy-2-[tetrahydro-3,4,5-trihydroxy-6-(hydroxymethyl)pyran-2-yl]-alpha-resorcylic acid delta-lactone
Name: (+)-Bergenin
Name: Ardisic acid B
Name: Bergenit
Name: Corylopsin
Name: Cuscutin
Name: Peltophorin
Name: Vakerin
Class: Natural Product; Flavonoid
Formula: C14H16O9
Exact mass: 328.07943
SMILES: OCC(C(O)1)OC([H])(c32)C([H])(OC(=O)c(cc(O)c(OC)c(O)3)2)C(O)1
InChI: InChI=1S/C14H16O9/c1-21-11-5(16)2-4-7(9(11)18)12-13(23-14(4)20)10(19)8(17)6(3-15)22-12/h2,6,8,10,12-13,15-19H,3H2,1H3/t6-,8-,10+,12+,13-/m1/s1
Instrument: LCMS-IT-TOF
Instrument type: LC-ESI-ITTOF
Ms type: MS
Ion mode: NEGATIVE
Column name: Waters Atlantis T3 (2.1 x 150 mm, 5 um)
Retention time: 6.930783 min
Base peak: 327.064000
Ion type: [M-H]-
m/z	relative intensity
207.033700	43
222.035200	5
234.020000	5
249.042000	45
312.051600	97
313.053900	10
327.064000	999
327.237800	16
327.394300	20
327.620300	10
328.072700	173
329.083000	36
363.055500	23
365.035700	8
390.070900	50
391.077400	8
441.056600	179
442.066200	23
655.161900	974
655.383200	15
655.604700	18
655.924600	15
656.146100	315
656.934000	8
657.155700	65
658.166100	20
677.135500	13
