Mass spectrum: Palmatine; LC-ESI-ITTOF; MS; [M]+
Name: Palmatine
Name: 5,6-Dihydro-2,3,9,10-tetramethoxydibenzo[a,g]quinolizinium
Name: 7,8,13,13a-Tetradehydro-2,3,9,10-tetrahydroxyberbinium
Name: Berbericinine
Name: Hindarinine
Name: Gindarinine
Name: Palmatin
Name: Calystigine
Name: Burasaine
Name: O,O-Dimethyldemethyleneberberine
Name: Dibenzo[a,g]quinolizinium, 5,6-dihydro-2,3,9,10-tetramethoxy-
Name: Berbinium, 7,8,13,13a-tetradehydro-2,3,9,10-tetramethoxy-
Name: Depiline
Name: 2,3,9,10-tetramethoxy-5,6-dihydroisoquino[3,2-a]isoquinolinium
Class: Natural Product; Alkaloid
Formula: [C21H22NO4]+
Exact mass: 352.15488
SMILES: COc(c4)c(OC)cc(c34)c(c1)[n+1](CC3)cc(c(OC)2)c(ccc(OC)2)1
InChI: InChI=1S/C21H22NO4/c1-23-18-6-5-13-9-17-15-11-20(25-3)19(24-2)10-14(15)7-8-22(17)12-16(13)21(18)26-4/h5-6,9-12H,7-8H2,1-4H3/q+1
Instrument: Shimadzu LC20A-IT-TOFMS
Instrument type: LC-ESI-ITTOF
Ms type: MS
Ion mode: POSITIVE
Column name: Waters Atlantis T3 (2.1 x 150 mm, 5 um)
Retention time: 958.101
Ion type: [M]+
m/z	relative intensity
352.1547	999
353.1572	254
