Mass spectrum: Hispidulin acetate; LC-ESI-ITTOF; MS2; [M+H]+
Name: Hispidulin acetate
Name: 5,7-Bis(acetyloxy)-2-[4-(acetyloxy)phenyl]-6-methoxy-4H-1-benzopyran-4-one
Name: 4',5,7-Trihydroxy-6-methoxy-flavone triacetate
Name: Dinatin triacetate
Name: Hispidulin triacetate
Class: Natural Product; Flavonoid
Formula: C22H18O9
Exact mass: 426.09508
SMILES: CC(=O)Oc(c3)ccc(c3)C(=C2)Oc(c1)c(C(=O)2)c(OC(C)=O)c(OC)c(OC(C)=O)1
InChI: InChI=1S/C22H18O9/c1-11(23)28-15-7-5-14(6-8-15)17-9-16(26)20-18(31-17)10-19(29-12(2)24)21(27-4)22(20)30-13(3)25/h5-10H,1-4H3
Instrument: LCMS-IT-TOF
Instrument type: LC-ESI-ITTOF
Ms type: MS2
Ion mode: POSITIVE
Column name: Waters Atlantis T3 (2.1 x 150 mm, 5 um)
Retention time: 21.930317 min
Base peak: 385.091400
Precursor m/z: 427.099200
m/z	relative intensity
286.045300	25
301.076300	186
301.376600	6
343.082300	920
343.242600	14
343.456200	16
343.652200	12
343.848100	8
344.079800	73
385.091400	999
385.487500	20
385.695100	17
386.091500	188
393.414400	5
