Mass spectrum: Pectolinarin; LC-ESI-ITTOF; MS; [M+H]+
Name: Pectolinarin
Name: 7-[[6-O-(6-Deoxy-alpha-L-mannopyranosyl)-beta-D-glucopyranosyl]oxy]-5-hydroxy-6-methoxy-2-(4-methoxyphenyl)-4H-1-benzopyran-4-one
Name: Pectolinaroside
Class: Natural Product; Flavonoid
Formula: C29H34O15
Exact mass: 622.18977
SMILES: c(c3)(c1c(c(c3OC(O4)C(O)C(O)C(O)C(COC(O5)C(O)C(C(C5C)O)O)4)OC)O)OC(c(c2)ccc(OC)c2)=CC1=O
InChI: InChI=1S/C29H34O15/c1-11-20(31)23(34)25(36)28(41-11)40-10-18-21(32)24(35)26(37)29(44-18)43-17-9-16-19(22(33)27(17)39-3)14(30)8-15(42-16)12-4-6-13(38-2)7-5-12/h4-9,11,18,20-21,23-26,28-29,31-37H,10H2,1-3H3/t11-,18+,20-,21+,23+,24-,25+,26+,28+,29+/m0/s1
Instrument: LCMS-IT-TOF
Instrument type: LC-ESI-ITTOF
Ms type: MS
Ion mode: POSITIVE
Column name: Waters Atlantis T3 (2.1 x 150 mm, 5 um)
Retention time: 14.260000 min
Base peak: 623.193800
m/z	relative intensity
300.060100	42
301.059700	6
314.069300	5
315.092000	111
316.082100	11
477.142300	140
478.150400	10
593.169800	21
623.193800	999
623.433700	12
623.649700	14
623.961700	14
624.201700	320
625.210500	85
626.003700	5
626.196100	24
645.166500	6
1578.447000	7
