Mass spectrum: Dehydrocorydaline; LC-ESI-ITTOF; MS; [M]+
Name: Dehydrocorydaline
Name: Dibenzo[a,g]quinolizinium, 5,6-dihydro-2,3,9,10-tetramethoxy-13-methyl-
Name: Berbinium, 7,8,13,13a-tetradehydro-2,3,9,10-tetramethoxy-13-methyl-
Name: Corydaline, dehydro-
Name: 13-Methylpalmatine
Name: Palmatine, 16-methyl-
Name: 5,6-Dihydro-2,3,9,10-tetramethoxy-13-methyldibenzo(a,g)quinolizinium
Name: Dibenzo(a,g)quinolizinium, 5,6-dihydro-13-methyl-2,3,9,10-tetramethoxy-
Class: Natural Product; Alkaloid
Formula: [C22H24NO4]+
Exact mass: 366.17053
SMILES: COc(c4)c(OC)cc(c34)c([n+1](CC3)2)c(C)c(c1)c(c2)c(OC)c(OC)c1
InChI: InChI=1S/C22H24NO4/c1-13-15-6-7-18(24-2)22(27-5)17(15)12-23-9-8-14-10-19(25-3)20(26-4)11-16(14)21(13)23/h6-7,10-12H,8-9H2,1-5H3/q+1
Instrument: Shimadzu LC20A-IT-TOFMS
Instrument type: LC-ESI-ITTOF
Ms type: MS
Ion mode: POSITIVE
Column name: Waters Atlantis T3 (2.1 x 150 mm, 5 um)
Retention time: 1017.701
Ion type: [M]+
m/z	relative intensity
366.1700	999
367.1723	271
