Mass spectrum: Luteolin; LC-ESI-ITTOF; MS; [M-H]-
Name: Luteolin
Name: 2-(3,4-Dihydroxyphenyl)-5,7-dihydroxy-4H-1-benzopyran-4-one
Name: 3',4',5,7-Tetrahydroxy-flavone
Name: 2-(3,4-Dihydroxyphenyl)-5,7-dihydroxy-4H-benzopyran-4-one
Name: 3',4',5,7-Tetrahydroxyflavone
Name: 5,7,3',4'-Tetrahydroxyflavone
Name: Cyanidenon
Name: Digitoflavone
Name: Flacitran
Name: Luteoline
Name: Luteolol
Name: Salifazide
Class: Natural Product; Flavonoid
Formula: C15H10O6
Exact mass: 286.04774
SMILES: Oc(c3)c(O)cc(c3)C(=C1)Oc(c2)c(c(O)cc(O)2)C(=O)1
InChI: InChI=1S/C15H10O6/c16-8-4-11(19)15-12(20)6-13(21-14(15)5-8)7-1-2-9(17)10(18)3-7/h1-6,16-19H
Instrument: LCMS-IT-TOF
Instrument type: LC-ESI-ITTOF
Ms type: MS
Ion mode: NEGATIVE
Column name: Waters Atlantis T3 (2.1 x 150 mm, 5 um)
Retention time: 14.539117 min
Base peak: 285.032900
m/z	relative intensity
285.032900	999
285.195200	18
285.341200	21
285.552300	6
286.039700	183
287.048200	18
399.031400	109
400.030200	35
553.044600	10
569.068200	30
570.077300	14
571.087300	725
571.317000	12
571.500700	14
571.822400	10
572.098200	252
573.086900	46
574.076500	6
593.064700	6
623.997300	14
625.005900	7
791.350200	6
910.034200	6
