Mass spectrum: Isorhamnetin; LC-ESI-ITTOF; MS; [M+H]+
Name: Isorhamnetin
Name: 3,5,7-Trihydroxy-2-(4-hydroxy-3-methoxyphenyl)-H-1-benzopyran-4-one
Name: 3,4',5,7-Tetrahydroxy-3'-methoxy-flavone
Name: 3,4',5,7-Tetrahydroxy-3'-methoxyflavone
Name: 3'-Methoxyquercetin
Name: 3'-Methylquercetin
Name: 3'-O-Methylquercetin
Name: Isorhamnetol
Name: Quercetin 3'-methyl ether
Class: Natural Product; Flavonoid
Formula: C16H12O7
Exact mass: 316.05830
SMILES: COc(c(O)3)cc(cc3)C(O1)=C(O)C(=O)c(c(O)2)c(cc(O)c2)1
InChI: InChI=1S/C16H12O7/c1-22-11-4-7(2-3-9(11)18)16-15(21)14(20)13-10(19)5-8(17)6-12(13)23-16/h2-6,17-19,21H,1H3
Instrument: LCMS-IT-TOF
Instrument type: LC-ESI-ITTOF
Ms type: MS
Ion mode: POSITIVE
Column name: Waters Atlantis T3 (2.1 x 150 mm, 5 um)
Retention time: 17.035000 min
Base peak: 317.073800
m/z	relative intensity
245.033300	4
273.048100	4
285.038500	10
287.053900	36
288.064200	6
301.059700	5
302.044200	38
303.047100	5
315.040800	16
316.047900	5
317.073800	999
317.227800	14
317.381900	19
317.604500	10
317.861400	6
318.067000	175
319.079000	25
337.039600	38
338.028300	18
339.053800	5
487.080300	5
631.111300	9
686.044100	6
1763.957300	3
