Mass spectrum: Scopolamine; LC-ESI-ITTOF; MS; [M+H]+
Name: Scopolamine hydrobromide
Name: Benzeneacetic acid, alpha-(hydroxymethyl)-, (1alpha,2beta,4beta,5alpha,7beta)-9-methyl-3-oxa-9-azatricyclo[3.3.1.02,4]non-7-yl ester, (alphaS)-
Name: 1alphaH,5alphaH-Tropan-3alpha-ol, 6beta,7beta-epoxy-, (-)-tropate (ester)
Name: Benzeneacetic acid, alpha-(hydroxymethyl)-, 9-methyl-3-oxa-9-azatricyclo[3.3.1.02,4]non-7-yl ester, [7(S)-(1alpha,2beta,4beta,5alpha,7beta)]-
Name: 3-Oxa-9-azatricyclo[3.3.1.02,4]nonane, benzeneacetic acid deriv.
Name: (-)-Hyoscine
Name: (-)-Scopolamine
Name: 6,7-Epoxytropine tropate
Name: 6beta,7beta-Epoxy-3alpha-tropanyl S-(-)-tropate
Name: 9-Methyl-3-oxa-9-azatricyclo[3.3.1.02,4]nonan-7-ol (-)-tropate
Name: Atrochin
Name: Hyoscine
Name: Scopine (-)-tropate
Name: Scopine tropate
Name: Scopolamine
Name: Transcop
Name: Transderm-Scop
Name: l-Scopolamine
Class: Natural Product; Alkaloid
Formula: C17H21NO4
Exact mass: 303.14706
SMILES: OCC(c(c4)cccc4)C(=O)OC(C2)CC(N(C)3)C(O1)C1C23
InChI: InChI=1S/C17H21NO4/c1-18-13-7-11(8-14(18)16-15(13)22-16)21-17(20)12(9-19)10-5-3-2-4-6-10/h2-6,11-16,19H,7-9H2,1H3/t11-,12-,13-,14+,15-,16+/m1/s1
Instrument: Shimadzu LC20A-IT-TOFMS
Instrument type: LC-ESI-ITTOF
Ms type: MS
Ion mode: POSITIVE
Column name: Waters Atlantis T3 (2.1 x 150 mm, 5 um)
Retention time: 712.600
Ion type: [M+H]+
m/z	relative intensity
304.1549	999
305.1573	189
