Mass spectrum: Honokiol; LC-ESI-ITTOF; MS; [M-H]-
Name: Honokiol
Name: [1,1'-Biphenyl]-2,4'-diol, 3',5-di-2-propen-1-yl-
Name: [1,1'-Biphenyl]-2,4'-diol, 3',5-di-2-propenyl-
Name: 3',5-Diallyl-2,4'-biphenyldiol
Name: NSC 293100
Class: Natural Product; Neolignan
Formula: C18H18O2
Exact mass: 266.13068
SMILES: C=CCc(c2)cc(c(O)c2)c(c1)cc(CC=C)c(O)c1
InChI: InChI=1S/C18H18O2/c1-3-5-13-7-9-18(20)16(11-13)14-8-10-17(19)15(12-14)6-4-2/h3-4,7-12,19-20H,1-2,5-6H2
Instrument: Shimadzu LC20A-IT-TOFMS
Instrument type: LC-ESI-ITTOF
Ms type: MS
Ion mode: NEGATIVE
Column name: Waters Atlantis T3 (2.1 x 150 mm, 5 um)
Retention time: 1430.970
Ion type: [M-H]-
m/z	relative intensity
265.1237	999
266.1265	192
531.2535	235
532.2579	85
