Mass spectrum: Liquiritin; LC-ESI-ITTOF; MS; [M-H]-
Name: Liquiritin
Name: Likviritin
Name: (2S)-2-[4-(beta-D-Glucopyranosyloxy)phenyl]-2,3-dihydro-7-hydroxy-4H-1-benzopyran-4-one
Name: (S)-2-[4-(beta-D-Glucopyranosyloxy)phenyl]-2,3-dihydro-7-hydroxy-4H-1-benzopyran-4-one
Name: 4',7-Dihydroxyflavanone 4'-(beta-D-glucopyranoside)
Name: 4',7-Dihydroxyflavanone 4'-(beta-D-glucoside)
Name: 7-Hydroxyflavanone 4'-O-glucoside
Name: Liquiritoside
Class: Natural Product; Flavonoid
Formula: C21H22O9
Exact mass: 418.12638
SMILES: OCC(O1)C(O)C(O)C(O)C(Oc(c4)ccc(c4)C(C2)Oc(c3)c(ccc(O)3)C(=O)2)1
InChI: InChI=1S/C21H22O9/c22-9-17-18(25)19(26)20(27)21(30-17)28-12-4-1-10(2-5-12)15-8-14(24)13-6-3-11(23)7-16(13)29-15/h1-7,15,17-23,25-27H,8-9H2/t15-,17+,18+,19-,20+,21+/m0/s1
Instrument: LCMS-IT-TOF
Instrument type: LC-ESI-ITTOF
Ms type: MS
Ion mode: NEGATIVE
Column name: Waters Atlantis T3 (2.1 x 150 mm, 5 um)
Retention time: 10.847450 min
Base peak: 417.122700
m/z	relative intensity
241.297000	4
255.071900	143
256.070500	10
351.114400	4
417.122700	999
417.299400	14
417.476100	22
417.731400	15
418.124300	224
418.301200	5
419.127000	45
453.096000	10
480.119900	24
481.110100	7
531.120100	87
532.117100	16
533.115100	5
835.250000	180
836.250100	98
837.278600	22
838.252100	9
839.254100	4
1462.464600	4
