Mass spectrum: Coptisine; LC-ESI-ITTOF; MS; [M]+
Name: Coptisine
Name: 6,7-Dihydrobis[1,3]benzodioxolo[5,6-a:4',5'-g]quinolizinium
Name: 2,3:9,10-Bismethylenedioxyprotoberberine
Name: Bis[1,3]benzodioxolo[5,6-a:4',5'-g]quinolizinium, 6,7-dihydro-
Name: Berbinium, 7,8,13,13a-tetradehydro-2,3:9,10-bis(methylenedioxy)-
Name: Alkaloid A, from Coptis groenlandica
Name: Coptisin
Name: YHL II
Name: 7,8,13,13a-Tetradehydro-2,3-9,10-bis(methylenedioxy)berbinium
Class: Natural Product; Alkaloid
Formula: [C19H14NO4]+
Exact mass: 320.09228
SMILES: C(O1)Oc(c2)c1cc(C6)c2c(c3)[n+1](C6)cc(c54)c(ccc(OCO5)4)3
InChI: InChI=1S/C19H14NO4/c1-2-16-19(24-10-21-16)14-8-20-4-3-12-6-17-18(23-9-22-17)7-13(12)15(20)5-11(1)14/h1-2,5-8H,3-4,9-10H2/q+1
Instrument: Shimadzu LC20A-IT-TOFMS
Instrument type: LC-ESI-ITTOF
Ms type: MS
Ion mode: POSITIVE
Column name: Waters Atlantis T3 (2.1 x 150 mm, 5 um)
Retention time: 883.301
Ion type: [M]+
m/z	relative intensity
320.0917	999
321.0953	195
