Mass spectrum: Hirsutine; LC-ESI-ITTOF; MS; [M-H]-
Name: Hirsutine
Name: 17,18-Seco-3beta-yohimban-16-carboxylic acid, 16,17-didehydro-17-methoxy-, methyl ester, (E)-
Name: Corynan-16-carboxylic acid, 16,17-didehydro-17-methoxy-, methyl ester, (3beta,16E)-
Name: Indolo[2,3-a]quinolizine-2-acetic acid, 3-ethyl-1,2,3,4,6,7,12,12b-octahydro-alpha-(methoxymethylene)-, methyl ester, [2S-[2alpha(E),3beta,12b alpha]]-
Name: Corynantheine,3-Epimer, 18,19-dihydro
Name: (E)-16,17-Didehydro-17-methoxy-17,18-seco-3-beta-yohimban-16-carboxylic acid methyl ester
Class: Natural Product; Alkaloid
Formula: C22H28N2O3
Exact mass: 368.20999
SMILES: CC[C@H]1CN2CCC3=C([C@H]2C[C@@H]1/C(=C\OC)/C(=O)OC)NC4=CC=CC=C34
InChI: InChI=1S/C22H28N2O3/c1-4-14-12-24-10-9-16-15-7-5-6-8-19(15)23-21(16)20(24)11-17(14)18(13-26-2)22(25)27-3/h5-8,13-14,17,20,23H,4,9-12H2,1-3H3/b18-13+/t14-,17-,20+/m0/s1
Instrument: Shimadzu LC20A-IT-TOFMS
Instrument type: LC-ESI-ITTOF
Ms type: MS
Ion mode: NEGATIVE
Column name: Waters Atlantis T3 (2.1 x 150 mm, 5 um)
Retention time: 1201.099 sec
Ion type: [M-H]-
m/z	relative intensity
367.2021	999
368.2051	250
427.2224	496
428.2241	132
