Mass spectrum: Quercetin acetate; LC-ESI-ITTOF; MS; [M+H]+
Name: Quercetin acetate
Name: 3,5,7-Tris(acetyloxy)-2-[3,4-bis(acetyloxy)phenyl]-4H-1-benzopyran-4-one
Name: 3,3',4',5,7-Pentahydroxy-flavone pentaacetate
Name: Quercetin pentaacetate
Name: 3,3',4',5,7-Pentaacetoxyflavone
Name: Pentaacetylquercetin
Class: Natural Product; Flavonoid
Formula: C25H20O12
Exact mass: 512.09548
SMILES: CC(=O)Oc(c3)cc(O1)c(c(OC(C)=O)3)C(=O)C(OC(C)=O)=C1c(c2)cc(OC(C)=O)c(OC(C)=O)c2
InChI: InChI=1S/C25H20O12/c1-11(26)32-17-9-20(35-14(4)29)22-21(10-17)37-24(25(23(22)31)36-15(5)30)16-6-7-18(33-12(2)27)19(8-16)34-13(3)28/h6-10H,1-5H3
Instrument: LCMS-IT-TOF
Instrument type: LC-ESI-ITTOF
Ms type: MS
Ion mode: POSITIVE
Column name: Waters Atlantis T3 (2.1 x 150 mm, 5 um)
Retention time: 21.893333 min
Base peak: 513.093700
m/z	relative intensity
200.757300	4
217.046800	4
291.028400	4
291.553300	4
303.052300	200
303.386900	4
304.056800	24
304.559800	4
327.047500	4
345.050100	156
345.425000	4
346.068300	13
346.336500	4
370.975000	4
387.063900	136
388.066600	21
389.051700	7
423.819800	4
429.078800	231
430.074700	47
431.071700	7
471.085900	458
471.273700	7
471.524000	7
471.732700	9
472.087600	107
473.090400	27
488.535700	4
495.014200	4
502.224400	4
513.093700	999
513.485600	15
513.790600	12
514.095600	284
514.880300	4
515.098400	71
516.102100	16
535.070500	21
536.093600	4
551.060100	13
563.127000	4
573.505100	4
581.055500	4
616.752700	4
666.921900	4
714.267000	4
723.620500	4
763.872500	4
822.761200	4
876.680200	4
906.377700	4
929.026800	4
1008.057500	4
1025.216800	9
1042.210600	101
1043.203600	54
1044.197100	25
1045.253200	4
1047.180400	17
1048.175800	14
1049.171700	4
1063.163500	7
1329.353300	4
1346.119100	4
1385.147100	4
1490.960000	4
1519.707400	4
1689.850000	4
1745.932900	4
1929.792900	4
1957.587100	4
1968.828700	4
1972.796500	4
