Mass spectrum: Pectolinarin; LC-ESI-ITTOF; MS; [M+CH3COOH-H]-
Name: Pectolinarin
Name: 7-[[6-O-(6-Deoxy-alpha-L-mannopyranosyl)-beta-D-glucopyranosyl]oxy]-5-hydroxy-6-methoxy-2-(4-methoxyphenyl)-4H-1-benzopyran-4-one
Name: Pectolinaroside
Class: Natural Product; Flavonoid
Formula: C29H34O15
Exact mass: 622.18977
SMILES: c(c3)(c1c(c(c3OC(O4)C(O)C(O)C(O)C(COC(O5)C(O)C(C(C5C)O)O)4)OC)O)OC(c(c2)ccc(OC)c2)=CC1=O
InChI: InChI=1S/C29H34O15/c1-11-20(31)23(34)25(36)28(41-11)40-10-18-21(32)24(35)26(37)29(44-18)43-17-9-16-19(22(33)27(17)39-3)14(30)8-15(42-16)12-4-6-13(38-2)7-5-12/h4-9,11,18,20-21,23-26,28-29,31-37H,10H2,1-3H3/t11-,18+,20-,21+,23+,24-,25+,26+,28+,29+/m0/s1
Instrument: LCMS-IT-TOF
Instrument type: LC-ESI-ITTOF
Ms type: MS
Ion mode: NEGATIVE
Column name: Waters Atlantis T3 (2.1 x 150 mm, 5 um)
Retention time: 14.289117 min
Base peak: 681.206700
m/z	relative intensity
205.407900	4
209.880500	4
233.802900	4
258.768600	4
283.040900	11
285.130300	4
298.043500	20
307.103100	4
313.076400	92
314.063400	18
338.287100	4
346.394700	4
367.120500	13
375.452800	4
375.899800	4
390.344900	4
459.047400	4
470.149400	4
498.120100	4
540.618400	4
542.094000	4
565.932100	4
591.170700	20
592.175800	7
603.854800	4
621.192000	585
621.407500	11
621.623100	15
622.174300	176
622.677800	7
623.181400	38
651.196500	39
652.202300	11
653.184400	7
654.167100	4
657.169100	29
658.154800	9
659.166000	20
681.206700	999
681.432500	17
681.658300	17
682.210300	341
683.038900	9
683.214700	72
684.169500	272
685.175300	71
686.181900	13
689.029300	4
713.175600	4
735.182000	33
736.146400	4
738.312100	4
780.198100	4
799.698400	4
803.316800	4
935.282600	17
936.252700	13
937.252600	4
938.282600	4
979.012200	4
1021.036900	4
1056.966500	4
1194.378400	4
1243.357800	43
1244.374600	27
1245.357800	7
1273.423700	7
1280.360100	4
1303.397700	11
1304.404000	11
1305.410700	4
1306.348300	4
1308.155000	4
1316.719000	4
1337.267300	4
1433.212900	4
1579.981000	4
1733.904000	4
1836.209500	4
1915.115800	4
1960.804700	4
1998.087400	4
