Mass spectrum: Prunin; LC-ESI-ITTOF; MS; [M+H]+
Name: Prunin
Name: (2S)-7-(beta-D-Glucopyranosyloxy)-2,3-dihydro-5-hydroxy-2-(4-hydroxyphenyl)-4H-1-benzopyran-4-one
Name: (S)-7-(beta-D-Glucopyranosyloxy)-2,3-dihydro-5-hydroxy-2-(4-hydroxyphenyl)-4H-1-benzopyran-4-one
Name: (-)-Naringenin 7-beta-D-glucoside
Name: 4',5,7-Trihydroxyflavanone 7-O-beta-D-glucopyranoside
Name: Naringenin 7-O-glucoside
Name: Naringenin 7-O-beta-D-glucopyranoside
Name: Naringenin 7-O-beta-D-glucoside
Name: Naringenin 7-glucoside
Class: Natural Product; Flavonoid
Formula: C21H22O10
Exact mass: 434.12130
SMILES: OCC(O1)C(O)C(O)C(O)C1Oc(c4)cc(O2)c(c(O)4)C(=O)CC(c(c3)ccc(O)c3)2
InChI: InChI=1S/C21H22O10/c22-8-16-18(26)19(27)20(28)21(31-16)29-11-5-12(24)17-13(25)7-14(30-15(17)6-11)9-1-3-10(23)4-2-9/h1-6,14,16,18-24,26-28H,7-8H2/t14-,16+,18+,19-,20+,21+/m0/s1
Instrument: LCMS-IT-TOF
Instrument type: LC-ESI-ITTOF
Ms type: MS
Ion mode: POSITIVE
Column name: Waters Atlantis T3 (2.1 x 150 mm, 5 um)
Retention time: 12.293333 min
Base peak: 273.067800
m/z	relative intensity
252.141800	9
265.388900	4
273.067800	999
273.226600	17
273.369600	18
273.576200	14
273.798700	7
274.085000	174
275.072300	26
298.187000	4
306.121500	4
321.423700	4
326.404800	4
342.929100	10
360.590900	4
378.322300	4
402.664700	4
417.120000	12
419.301400	4
433.109200	4
435.131500	416
435.492400	8
435.793300	6
436.134400	99
437.138400	15
449.093500	10
471.190200	20
472.171100	4
474.701200	4
534.426100	4
597.173100	4
642.407900	14
667.592200	4
684.206500	10
692.046600	4
696.985100	4
749.071100	4
802.598300	4
1003.638100	4
1079.678000	4
1132.862100	4
1164.126800	4
1165.438800	4
1330.755200	4
1339.182100	4
1390.302200	4
1510.916100	4
1593.064900	4
1821.136200	4
1865.615500	4
