Mass spectrum: Atropine; LC-ESI-ITTOF; MS; [M+H]+
Name: Atropine
Name: Benzeneacetic acid, alpha-(hydroxymethyl)- (3-endo)-8-methyl-8-azabicyclo[3.2.1]oct-3-yl ester
Name: 1alphaH,5alphaH-Tropan-3alpha-ol (+-)-tropate (ester)
Name: Benzeneacetic acid, alpha-(hydroxymethyl)-, 8-methyl-8-azabicyclo[3.2.1]oct-3-yl ester, endo-
Name: (+-)-Atropine
Name: (+-)-Hyoscyamine
Name: Tropine (+-)-tropate
Name: dl-Tropyl tropate
Name: dl-Hyoscyamine
Name: Tropine tropate
Name: Atropinol
Name: Eyesules
Name: Atropen
Name: Isopto-atropine
Name: Troyl tropate
Name: Belladenal
Name: Atropina
Name: Cytospaz
Name: Donnagel
Name: Anaspaz
Name: Atnaa
Name: Lonox
Name: Neo-Diophen
Name: DL-Tropanyl 2-hydroxy-1-phenylpropionate
Name: 2-Phenylhydracrylic acid 3-alpha-tropanyl ester
Name: tropan-3alpha-yl 3-hydroxy-2-phenylpropanoate
Name: 8-Methyl-8-azabicyclo[3.2.1]oct-3-yl tropate
Name: 8-Methyl-8-azabicyclo[3.2.1]oct-3-yl 3-hydroxy-2-phenylpropanoate
Name: alpha-(Hydroxymethyl)benzeneacetic acid 8-methyl-8-azabicyclo(3.2.1)oct-3-yl ester
Name: Benzeneacetic acid, alpha-(hydroxymethyl)-, (3-endo)-8-methyl-8-azabicyclo(3.2.1)oct-3-yl ester
Name: (3-endo)-8-methyl-8-azabicyclo[3.2.1]oct-3-yl (2S)-3-hydroxy-2-phenylpropanoate
Name: [(1R,5S)-8-methyl-8-azabicyclo[3.2.1]octan-3-yl] 3-hydroxy-2-phenylpropanoate
Name: beta-(Hydroxymethyl)benzeneacetic acid 8-methyl-8-azabicyclo[3.2.1]oct-3-yl ester
Name: endo-(+/-)-alpha-(Hydroxymethyl)benzeneacetic acid 8-methyl-8-azabicyclo[3.2.1]oct-3-yl ester
Class: Natural Product; Alkaloid
Formula: C17H23NO3
Exact mass: 289.16779
SMILES: OCC(C(=O)OC(C2)CC(C3)N(C)C(C3)2)c(c1)cccc1
InChI: InChI=1S/C17H23NO3/c1-18-13-7-8-14(18)10-15(9-13)21-17(20)16(11-19)12-5-3-2-4-6-12/h2-6,13-16,19H,7-11H2,1H3/t13-,14+,15+,16?
Instrument: Shimadzu LC20A-IT-TOFMS
Instrument type: LC-ESI-ITTOF
Ms type: MS
Ion mode: POSITIVE
Column name: Waters Atlantis T3 (2.1 x 150 mm, 5 um)
Retention time: 641.701
Ion type: [M+H]+
m/z	relative intensity
290.1754	999
291.1762	197
