Mass spectrum: Ponkanetin; LC-ESI-ITTOF; MS; [M+H]+
Name: Ponkanetin
Name: 5,6,7,8-Tetramethoxy-2-(4-methoxyphenyl)-4H-1-benzopyran-4-one
Name: 4',5,6,7,8-Pentamethoxy-flavone
Name: Tangeretin
Name: 4',5,6,7,8-Pentamethoxyflavone
Name: 5,6,7,8,4'-Pentamethoxyflavone
Name: Tangeritin
Class: Natural Product; Flavonoid
Formula: C20H20O7
Exact mass: 372.12090
SMILES: COc(c3)ccc(c3)C(=C2)Oc(c(OC)1)c(C(=O)2)c(OC)c(OC)c(OC)1
InChI: InChI=1S/C20H20O7/c1-22-12-8-6-11(7-9-12)14-10-13(21)15-16(23-2)18(24-3)20(26-5)19(25-4)17(15)27-14/h6-10H,1-5H3
Instrument: LCMS-IT-TOF
Instrument type: LC-ESI-ITTOF
Ms type: MS
Ion mode: POSITIVE
Column name: Waters Atlantis T3 (2.1 x 150 mm, 5 um)
Retention time: 21.951667 min
Base peak: 373.135600
m/z	relative intensity
312.096900	4
325.063200	7
328.067400	6
329.077700	4
343.082300	111
344.079800	21
358.105800	31
359.106700	4
373.135600	999
373.302700	17
373.506900	20
373.711300	14
373.952800	5
374.138600	209
375.124400	37
376.130200	5
767.248000	7
