Mass spectrum: Saikosaponin C; LC-ESI-ITTOF; MS; [M+CH3COOH-H]-
Name: Saikosaponin C
Name: (3beta,16beta)-13,28-Epoxy-16-hydroxyolean-11-en-3-yl O-6-deoxy-alpha-L-mannopyranosyl-(1-4)-O-[beta-D-glucopyranosyl-(1-6)]-beta-D-glucopyranoside
Name: Oleanane beta-D-glucopyranoside deriv.
Class: Natural Product; Saponin
Formula: C48H78O17
Exact mass: 926.52390
SMILES: C(C)(C([H])94)(CCC(C98C)([H])C(C(CC8)OC(O6)(C(O)C(O)C(C6COC(O7)C(C(C(C7CO)O)O)O)OC(C(O)5)(OC(C)C(O)C5O)[H])[H])(C)C)C(C2)(C(C=C4)(C3([H])1)OCC(CCC(C)(C)C3)1C(O)2)C
InChI: InChI=1S/C48H78O17/c1-22-30(51)32(53)36(57)40(61-22)65-38-24(20-59-39-35(56)33(54)31(52)23(19-49)62-39)63-41(37(58)34(38)55)64-29-11-12-44(6)25(43(29,4)5)9-13-45(7)26(44)10-14-48-27-17-42(2,3)15-16-47(27,21-60-48)28(50)18-46(45,48)8/h10,14,22-41,49-58H,9,11-13,15-21H2,1-8H3/t22-,23+,24+,25-,26+,27+,28-,29-,30-,31+,32+,33-,34+,35+,36+,37+,38+,39+,40-,41-,44-,45+,46-,47+,48-/m0/s1
Instrument: LCMS-IT-TOF
Instrument type: LC-ESI-ITTOF
Ms type: MS
Ion mode: NEGATIVE
Column name: Waters Atlantis T3 (2.1 x 150 mm, 5 um)
Retention time: 17.380783 min
Base peak: 985.527600
m/z	relative intensity
208.543600	6
223.843000	6
236.939700	6
264.734400	6
265.814300	6
269.240700	6
286.230000	11
307.165100	6
323.321000	6
329.274800	6
330.968400	11
331.983100	6
373.344200	6
394.982800	14
420.180200	17
479.518200	6
483.165400	6
484.179900	6
523.318000	6
593.309300	6
603.393300	6
653.171000	6
672.168500	6
694.853700	6
779.429300	11
795.446700	6
830.406000	6
839.486000	20
840.488600	14
842.439900	11
859.286400	6
885.941000	14
906.510100	6
925.531100	377
925.794200	11
926.525300	148
927.168900	9
927.520100	61
928.515400	17
961.481700	22
962.495100	11
963.479200	22
966.494200	6
971.519700	69
972.538300	38
972.868000	6
985.527600	999
986.100900	22
986.523400	595
987.157400	17
987.549900	165
988.516500	892
988.788400	11
989.151100	21
989.513800	454
990.118400	11
990.511600	192
991.509900	30
993.295900	6
1039.523400	29
1040.484100	11
1067.563600	6
1136.200800	6
1270.451400	6
1353.983800	6
1490.792700	6
1608.686600	6
1900.923800	6
