Mass spectrum: Oleonolic acid; LC-ESI-ITTOF; MS; [M-H]-
Name: Oleonolic acid
Name: (3beta)-3-Hydroxy-olean-12-en-28-oic acid
Name: 3beta-Hydroxy-olean-12-en-28-oic acid
Name: (+)-Oleanolic acid
Name: (3beta)-3-Hydroxyolean-12-en-28-oic acid
Name: 3beta-Hydroxyolean-12-en-28-oic acid
Name: Astrantiagenin C
Name: Caryophyllin
Name: Giganteumgenin C
Name: Gledigenin 1
Name: Virgaureagenin B
Class: Natural Product; Terpenoid
Formula: C30H48O3
Exact mass: 456.36035
SMILES: CC(C)(C5([H])1)C(CCC(C)1C(C4(C)CC5)(CC=C(C4(C)3)C(C(CC3)2C(O)=O)([H])CC(C)(C)CC2)[H])O
InChI: InChI=1S/C30H48O3/c1-25(2)14-16-30(24(32)33)17-15-28(6)19(20(30)18-25)8-9-22-27(5)12-11-23(31)26(3,4)21(27)10-13-29(22,28)7/h8,20-23,31H,9-18H2,1-7H3,(H,32,33)/t20-,21-,22+,23-,27-,28+,29+,30-/m0/s1
Instrument: LCMS-IT-TOF
Instrument type: LC-ESI-ITTOF
Ms type: MS
Ion mode: NEGATIVE
Column name: Waters Atlantis T3 (2.1 x 150 mm, 5 um)
Retention time: 31.622450 min
Base peak: 455.348900
m/z	relative intensity
455.348900	999
455.553900	17
455.738600	22
456.005300	14
456.354200	315
457.031900	4
457.360700	52
458.347600	8
787.624100	8
788.622200	6
911.716400	232
912.703200	154
913.719600	51
914.707500	13
