Mass spectrum: Juglanin; LC-ESI-ITTOF; MS; [M-H]-
Name: Juglanin
Name: 3-(alpha-L-Arabinofuranosyloxy)-5,7-dihydroxy-2-(4-hydroxyphenyl)-4H-1-benzopyran-4-one
Name: 3,4',5,7-Tetrahydroxy-flavone 3-alpha-L-arabinofuranoside
Name: alpha-L-5,7-Dihydroxy-2-(p-hydroxyphenyl)-4-oxo-4H-1-benzopyran-3-yl arabinofuranoside
Name: alpha-L-Kaempferol-3 arabinofuranoside
Name: 5,7,4'-Trihydroxyflavone 3-alpha-L-arabinofuranoside
Name: Euglanin
Name: Juglanin (Juglans)
Name: Kaempferol 3-O-arabinoside
Name: Kaempferol 3-O-alpha-L-arabinofuranoside
Name: Kaempferol 3-arabinoside
Class: Natural Product; Flavonoid
Formula: C20H18O10
Exact mass: 418.09000
SMILES: OCC(O1)C(O)C(O)C1OC(C(=O)2)=C(c(c4)ccc(O)c4)Oc(c3)c(c(O)cc(O)3)2
InChI: InChI=1S/C20H18O10/c21-7-13-15(25)17(27)20(29-13)30-19-16(26)14-11(24)5-10(23)6-12(14)28-18(19)8-1-3-9(22)4-2-8/h1-6,13,15,17,20-25,27H,7H2/t13-,15-,17+,20-/m0/s1
Instrument: LCMS-IT-TOF
Instrument type: LC-ESI-ITTOF
Ms type: MS
Ion mode: NEGATIVE
Column name: Waters Atlantis T3 (2.1 x 150 mm, 5 um)
Retention time: 12.596667 min
Base peak: 417.083500
m/z	relative intensity
284.027900	12
285.032900	121
286.055900	7
417.083500	999
417.279800	18
417.436800	22
417.711700	13
418.085000	236
419.087700	36
420.091600	6
480.077800	14
531.075800	78
532.072800	23
533.070700	10
835.166700	313
836.166700	131
837.167400	47
838.196500	10
871.177500	4
1253.748100	4
1254.258600	4
