Mass spectrum: Geniposidic acid; LC-ESI-ITTOF; MS; [M+NH3+H]+
Name: Geniposidic acid
Name: Cyclopenta[c]pyran-4-carboxylic acid, 1-(beta-D-glucopyranosyloxy)-1,4a,5,7a-tetrahydro-7-(hydroxymethyl)-, (1S,4aS,7aS)-
Name: Cyclopenta[c]pyran-4-carboxylic acid, 1-(beta-D-glucopyranosyloxy)-1,4a,5,7a-tetrahydro-7-(hydroxymethyl)-, [1S-(1alpha,4aalpha,7aalpha)]-
Name: Cyclopenta[c]pyran-4-carboxylic acid, 1alpha-(beta-D-glucopyranosyloxy)-1,4aalpha,5,7aalpha-tetrahydro-7-(hydroxymethyl)-
Class: Natural Product; Iridoid
Formula: C16H22O10
Exact mass: 374.12130
SMILES: OCC(C(O)1)OC([H])(OC(O2)C([H])(C(CO)=3)C([H])(CC3)C(C(O)=O)=C2)C(O)C(O)1
InChI: InChI=1S/C16H22O10/c17-3-6-1-2-7-8(14(22)23)5-24-15(10(6)7)26-16-13(21)12(20)11(19)9(4-18)25-16/h1,5,7,9-13,15-21H,2-4H2,(H,22,23)/t7-,9-,10-,11-,12+,13-,15+,16+/m1/s1
Instrument: Shimadzu LC20A-IT-TOFMS
Instrument type: LC-ESI-ITTOF
Ms type: MS
Ion mode: POSITIVE
Column name: Waters Atlantis T3 (2.1 x 150 mm, 5 um)
Retention time: 117.700
Ion type: [M+NH3+H]+
m/z	relative intensity
195.0637	197
213.0734	226
375.1273	161
392.1525	999
393.1558	221
397.1058	233
413.0825	86
