Mass spectrum: Bufotalin; LC-ESI-ITTOF; MS; [M+CH3COOH-H]-
Name: Bufotalin
Name: Bufa-20,22-dienolide, 16-(acetyloxy)-3,14-dihydroxy-, (3beta,5beta,16beta)-
Name: 5beta-Bufa-20,22-dienolide, 3beta,14,16beta-trihydroxy-, 16-acetate
Name: 3beta,14,16beta-Trihydroxy-5beta-bufa-20,22-dienolide 16-acetate
Name: LS-45309
Name: NSC89596
Name: Bufotaline
Name: 16beta-Acetoxy-3beta,14beta-dihydroxy-5beta-bufa-20,22-dienolide
Class: Natural Product; Saponin
Formula: C26H36O6
Exact mass: 444.25119
SMILES: C(C1([H])2)CC(C4C(C=5)=COC(=O)C5)(C(CC(OC(C)=O)4)(C1([H])CCC([H])(C3)C2(C)CCC3O)O)C
InChI: InChI=1S/C26H36O6/c1-15(27)32-21-13-26(30)20-6-5-17-12-18(28)8-10-24(17,2)19(20)9-11-25(26,3)23(21)16-4-7-22(29)31-14-16/h4,7,14,17-21,23,28,30H,5-6,8-13H2,1-3H3/t17-,18+,19+,20-,21+,23+,24+,25-,26+/m1/s1
Instrument: Shimadzu LC20A-IT-TOFMS
Instrument type: LC-ESI-ITTOF
Ms type: MS
Ion mode: NEGATIVE
Ionization: ESI
Column name: Waters Atlantis T3 (2.1 x 150 mm, 5 um)
Retention time: 1066.699 sec
Ion type: [M+CH3COOH-H]-
m/z	relative intensity
401.2303	117
417.2682	100
443.2432	423
444.2448	138
461.2544	90
503.2647	999
504.2682	367
505.2683	71
887.4984	253
888.4976	140
889.5030	60
