Mass spectrum: Isorhamnetin; LC-ESI-ITTOF; MS; [M-H]-
Name: Isorhamnetin
Name: 3,5,7-Trihydroxy-2-(4-hydroxy-3-methoxyphenyl)-H-1-benzopyran-4-one
Name: 3,4',5,7-Tetrahydroxy-3'-methoxy-flavone
Name: 3,4',5,7-Tetrahydroxy-3'-methoxyflavone
Name: 3'-Methoxyquercetin
Name: 3'-Methylquercetin
Name: 3'-O-Methylquercetin
Name: Isorhamnetol
Name: Quercetin 3'-methyl ether
Class: Natural Product; Flavonoid
Formula: C16H12O7
Exact mass: 316.05830
SMILES: COc(c(O)3)cc(cc3)C(O1)=C(O)C(=O)c(c(O)2)c(cc(O)c2)1
InChI: InChI=1S/C16H12O7/c1-22-11-4-7(2-3-9(11)18)16-15(21)14(20)13-10(19)5-8(17)6-12(13)23-16/h2-6,17-19,21H,1H3
Instrument: LCMS-IT-TOF
Instrument type: LC-ESI-ITTOF
Ms type: MS
Ion mode: NEGATIVE
Column name: Waters Atlantis T3 (2.1 x 150 mm, 5 um)
Retention time: 17.033333 min
Base peak: 631.098700
m/z	relative intensity
269.623500	8
270.018200	6
285.032900	24
299.006500	8
300.021000	116
300.370600	8
301.037200	32
313.042400	106
314.029300	20
315.051900	917
315.205400	16
315.359000	20
315.597900	14
316.059000	146
317.050700	28
331.044400	24
332.041700	8
389.282400	6
429.041400	171
430.037300	24
431.054200	8
631.098700	999
631.340200	16
631.557500	17
631.895600	11
632.113100	314
632.886400	8
633.104000	62
634.119900	8
647.107800	18
648.110400	14
653.110700	10
654.068800	8
667.084700	18
668.077900	8
733.697600	12
809.538800	10
833.501200	12
853.371800	10
939.107000	20
946.453900	10
992.135200	22
1009.493600	10
1045.904900	10
1099.818400	12
1117.191200	32
1161.005800	10
1165.791300	14
1175.918800	18
1180.602800	10
1215.627200	8
1276.340200	10
1285.040700	8
1285.316300	12
1320.732200	8
1358.966400	8
1390.068500	16
1472.145700	8
1499.705300	10
1667.604600	18
1673.928700	8
