Mass spectrum: Kaempferol 3-O-neohesperidoside; LC-ESI-ITTOF; MS; [M-H]-
Name: Kaempferol 3-O-neohesperidoside
Name: 3-[[2-O-(6-Deoxy-alpha-L-mannopyranosyl)-beta-D-glucopyranosyl]oxy]-5,7-dihydroxy-2-(4-hydroxyphenyl)-4H-1-benzopyran-4-one
Name: 3,4',5,7-Tetrahydroxy-flavone 3-[2-O-(6-deoxy-alpha-L-mannopyranosyl)-beta-D-glucopyranoside]
Name: Kaempferol 3-O-alpha-L-rhamnopyranosyl-(12)-beta-D-glucopyranoside
Name: Kaempferol 3-O-beta-neohesperidoside
Name: Kaempferol 3-neohesperidoside
Class: Natural Product; Flavonoid
Formula: C27H30O15
Exact mass: 594.15847
SMILES: c(c5)(O)cc(c(c51)C(C(OC(O4)C(C(C(C4CO)O)O)OC(O3)(C(C(C(C3C)O)O)O)[H])=C(c(c2)ccc(O)c2)O1)=O)O
InChI: InChI=1S/C27H30O15/c1-9-17(32)20(35)22(37)26(38-9)42-25-21(36)18(33)15(8-28)40-27(25)41-24-19(34)16-13(31)6-12(30)7-14(16)39-23(24)10-2-4-11(29)5-3-10/h2-7,9,15,17-18,20-22,25-33,35-37H,8H2,1H3/t9-,15+,17-,18+,20+,21-,22+,25+,26-,27-/m0/s1
Instrument: LCMS-IT-TOF
Instrument type: LC-ESI-ITTOF
Ms type: MS
Ion mode: NEGATIVE
Column name: Waters Atlantis T3 (2.1 x 150 mm, 5 um)
Retention time: 10.743333 min
Base peak: 593.158300
m/z	relative intensity
593.158300	999
593.369000	15
593.579600	22
593.884000	14
594.141700	315
594.657100	8
594.914900	6
595.149300	86
596.134300	6
629.120800	18
656.134800	47
657.144500	19
658.154800	6
707.132000	109
707.949900	4
708.154500	41
709.152200	12
711.098400	5
1187.315100	34
1188.308600	20
1189.335800	7
