Mass spectrum: Scoparin; LC-ESI-ITTOF; MS2; [M-H]-
Name: Scoparin
Name: 8-beta-D-Glucopyranosyl-5,7-dihydroxy-2-(4-hydroxy-3-methoxyphenyl)-4H-1-benzopyran-4-one
Name: 8-C-beta-D-Glucopyranosylchrysoeriol
Name: Chrysoeriol 8-C-glucoside
Name: Scoparine
Name: Scoparoside
Class: Natural Product; Flavonoid
Formula: C22H22O11
Exact mass: 462.11621
SMILES: COc(c(O)4)cc(cc4)C(=C3)Oc(c2C(=O)3)c(c(O)cc(O)2)C(O1)C(O)C(O)C(O)C(CO)1
InChI: InChI=1S/C22H22O11/c1-31-14-4-8(2-3-9(14)24)13-6-12(27)16-10(25)5-11(26)17(21(16)32-13)22-20(30)19(29)18(28)15(7-23)33-22/h2-6,15,18-20,22-26,28-30H,7H2,1H3/t15-,18-,19+,20-,22+/m1/s1
Instrument: LCMS-IT-TOF
Instrument type: LC-ESI-ITTOF
Ms type: MS2
Ion mode: NEGATIVE
Column name: Waters Atlantis T3 (2.1 x 150 mm, 5 um)
Retention time: 10.901983 min
Base peak: 341.063600
Precursor m/z: 461.114200
m/z	relative intensity
298.056100	208
298.404600	6
299.052300	68
300.066900	6
313.072300	91
314.076300	26
326.041300	59
327.048500	14
341.063600	999
341.241100	17
341.400900	23
341.614000	12
341.880400	5
342.075900	147
371.085900	18
