Mass spectrum: Capreoside; LC-ESI-ITTOF; MS2; [M+H]+
Name: Capreoside
Name: 7-[(6-O-alpha-L-Arabinofuranosyl-beta-D-glucopyranosyl)oxy]-5-hydroxy-2-(3-hydroxy-4-methoxyphenyl)-4H-1-benzopyran-4-one
Name: Diosmetin-7-arabinoglucoside
Class: Natural Product; Flavonoid
Formula: C27H30O15
Exact mass: 594.15847
SMILES: C(C5O)(CO)OC(C5O)OCC(O1)C(C(C(C1Oc(c4)cc(O2)c(c4O)C(C=C2c(c3)cc(O)c(OC)c3)=O)O)O)O
InChI: InChI=1S/C27H30O15/c1-37-15-3-2-10(4-12(15)29)16-7-14(31)20-13(30)5-11(6-17(20)40-16)39-27-25(36)23(34)22(33)19(42-27)9-38-26-24(35)21(32)18(8-28)41-26/h2-7,18-19,21-30,32-36H,8-9H2,1H3/t18-,19+,21-,22+,23-,24+,25+,26+,27+/m0/s1
Instrument: LCMS-IT-TOF
Instrument type: LC-ESI-ITTOF
Ms type: MS2
Ion mode: POSITIVE
Column name: Waters Atlantis T3 (2.1 x 150 mm, 5 um)
Retention time: 11.468567 min
Base peak: 301.076300
Precursor m/z: 595.154700
m/z	relative intensity
229.042400	14
257.045500	9
258.047900	148
259.052200	9
286.045300	215
287.053900	12
301.076300	999
301.226400	19
301.376600	24
301.610200	16
301.810500	6
302.077600	123
313.065400	5
463.119800	117
464.113000	44
