Mass spectrum: Chrysoeriol; LC-ESI-ITTOF; MS; [M+H]+
Name: Chrysoeriol
Name: 5,7-Dihydroxy-2-(4-hydroxy-3-methoxyphenyl)-4H-1-benzopyran-4-one
Name: 4',5,7-Trihydroxy-3'-methoxy-flavone
Name: 3'-Methoxy-4',5,7-trihydroxyflavone
Name: 3'-Methoxyapigenin
Name: 3'-O-Methylluteolin
Name: 5,7,4'-Trihydroxy-3'-methoxyflavone
Name: Chrysoriol
Name: Luteolin 3'-methyl ether
Class: Natural Product; flavonoid
Formula: C16H12O6
Exact mass: 300.06339
SMILES: COc(c(O)3)cc(cc3)C(=C1)Oc(c2)c(c(O)cc(O)2)C(=O)1
InChI: InChI=1S/C16H12O6/c1-21-14-4-8(2-3-10(14)18)13-7-12(20)16-11(19)5-9(17)6-15(16)22-13/h2-7,17-19H,1H3
Instrument: LCMS-IT-TOF
Instrument type: LC-ESI-ITTOF
Ms type: MS
Ion mode: POSITIVE
Column name: Waters Atlantis T3 (2.1 x 150 mm, 5 um)
Retention time: 16.701667 min
Base peak: 301.077800
m/z	relative intensity
203.120100	7
208.441000	7
229.028900	14
229.596400	7
240.632000	7
252.140200	14
253.148300	7
257.046700	7
258.049100	11
259.053500	7
260.835200	7
267.881600	7
269.046800	7
271.052300	53
272.049900	14
274.209800	7
275.691700	7
276.074800	7
277.097600	7
279.148900	7
279.920100	7
282.223900	7
286.046700	95
286.436900	7
287.039000	14
290.189700	7
293.045100	7
295.881400	7
297.951200	7
301.077800	999
301.378000	20
301.594900	11
302.079100	207
303.065300	17
317.092400	14
323.040700	27
324.164400	7
339.037600	17
340.029200	7
345.098200	7
349.072600	7
365.032600	14
365.289700	7
365.988000	7
371.190600	7
371.598000	7
378.296700	14
381.086800	14
381.593400	7
383.849400	7
387.416000	7
389.556300	13
390.030600	7
398.291400	7
426.962400	7
428.353400	7
429.288700	7
439.342000	7
456.095900	7
464.362700	7
469.325000	7
472.432100	7
475.256100	14
485.280300	7
504.433200	7
523.099300	14
546.184300	7
551.023500	7
555.680200	7
584.194300	7
586.333100	7
598.401500	7
599.342200	7
623.099000	14
629.062100	7
635.247400	7
639.080000	14
644.728500	7
653.051400	7
661.081600	7
679.041200	7
682.400900	7
709.167400	7
717.148500	7
732.828400	7
746.497100	7
749.019800	7
752.390000	7
760.212500	7
779.838600	7
814.127800	7
831.521400	7
837.295200	13
861.520700	7
865.502300	7
875.482400	7
899.616100	7
914.579300	7
925.860800	7
928.670000	7
939.006900	7
952.215900	14
955.094500	7
957.561100	7
966.921200	7
976.116700	7
977.077700	7
984.571700	7
992.578600	7
1030.568300	7
1039.627100	7
1040.463900	7
1066.256800	7
1071.535100	7
1075.565400	7
1129.325600	7
1145.075100	7
1171.599400	7
1178.121300	7
1187.242600	7
1187.772500	7
1211.905300	7
1212.407100	7
1212.808700	7
1217.532000	7
1223.541600	7
1264.757900	7
1299.441700	7
1302.491900	7
1307.108600	7
1308.881100	7
1318.633900	7
1341.343500	7
1351.675500	7
1354.892500	7
1381.051700	7
1387.988500	7
1423.658600	7
1479.490300	7
1528.646000	7
1533.609400	7
1547.111500	7
1580.934400	7
1643.477600	7
1648.038800	7
1676.679500	7
1711.167400	7
1715.940900	7
1869.004400	7
1871.456400	7
1977.427800	7
