Mass spectrum: Sinomenine; LC-ESI-ITTOF; MS; [M+H]+
Name: Sinomenine
Name: 7,8-Didehydro-4-hydroxy-3,7-dimethoxy-17-methylmorphinan-6-one
Name: Cucoline
Name: Kukoline
Name: Cuculine
Name: Sabianine A
Name: Morphinan-6-one, 7,8-didehydro-4-hydroxy-3,7-dimethoxy-17-methyl-, (9alpha,13alpha,14alpha)-
Name: 9alpha,13alpha,14alpha-Morphinan-6-one, 7,8-didehydro-4-hydroxy-3,7-dimethoxy-17-methyl-
Name: 4-hydroxy-3,7-dimethoxy-17-methylmorphin-7-en- 6-one
Name: (9alpha,13alpha,14alpha)-7,8-Didehydro-4-hydroxy-3,7-dimethoxy-17-methylmorphinan-6-one
Name: 7,8-Didehydro-4-hydroxy-3,7-dimethoxy-17-methyl-9-alpha,13-alpha,14-alpha-morphinan-6-one
Class: Natural Product; Alkaloid
Formula: C19H23NO4
Exact mass: 329.16271
SMILES: COc(c4)c(O)c(c(c4)1)C(C2)(C3)C([H])(C=C(OC)C(=O)3)C(N(C)C2)C1
InChI: InChI=1S/C19H23NO4/c1-20-7-6-19-10-14(21)16(24-3)9-12(19)13(20)8-11-4-5-15(23-2)18(22)17(11)19/h4-5,9,12-13,22H,6-8,10H2,1-3H3/t12-,13+,19-/m1/s1
Instrument: Shimadzu LC20A-IT-TOFMS
Instrument type: LC-ESI-ITTOF
Ms type: MS
Ion mode: POSITIVE
Column name: Waters Atlantis T3 (2.1 x 150 mm, 5 um)
Retention time: 655.701
Ion type: [M+H]+
m/z	relative intensity
330.1702	999
331.1731	241
659.3316	94
681.3126	76
