Mass spectrum: Alisol B; LC-ESI-ITTOF; MS; [M+CH3COOH-H]-
Name: Alisol B
Name: Dammar-13(17)-en-3-one, 24,25-epoxy-11,23-dihydroxy-, (8alpha,9beta,11beta,14beta,23S,24R)-
Name: 8alpha,9beta,14beta-Dammar-13(17)-en-3-one, 24,25-epoxy-11beta,23-dihydroxy-, (23S,24R)-
Name: 24,25-Epoxy-11,23-dihydroxyprotost-13(17)-en-3-one
Class: Natural Product; Saponin
Formula: C30H48O4
Exact mass: 472.35526
SMILES: CC(C3=4)(CCC4C(C)CC(C([H])(C5(C)C)O5)O)C(C)(C(C(O)C3)([H])1)CCC(C(C)(C)2)([H])C(CCC2=O)1C
InChI: InChI=1S/C30H48O4/c1-17(15-21(32)25-27(4,5)34-25)18-9-13-29(7)19(18)16-20(31)24-28(6)12-11-23(33)26(2,3)22(28)10-14-30(24,29)8/h17,20-22,24-25,31-32H,9-16H2,1-8H3/t17-,20+,21+,22+,24+,25-,28+,29+,30+/m1/s1
Instrument: Shimadzu LC20A-IT-TOFMS
Instrument type: LC-ESI-ITTOF
Ms type: MS
Ion mode: NEGATIVE
Ionization: ESI
Column name: Waters Atlantis T3 (2.1 x 150 mm, 5 um)
Retention time: 1797.999 sec
Ion type: [M+CH3COOH-H]-
m/z	relative intensity
531.3690	999
532.3726	404
533.3743	78
