Mass spectrum: Phloretin; LC-ESI-ITTOF; MS; [M+H]+
Name: Phloretin
Name: 3-(4-Hydroxyphenyl)-1-(2,4,6-trihydroxyphenyl)-1-propanone
Name: 2',4',6'-Trihydroxy-3-(p-hydroxyphenyl)-propiophenone
Name: 2',4',6'-Trihydroxy-3-(4-hydroxyphenyl)propiophenone
Name: 2',4',6'-Trihydroxy-3-(p-hydroxyphenyl)propiophenone
Name: Dihydronaringenin
Name: Floretin
Name: Naringenin dihydrochalcone
Name: Phloretol
Name: beta-(p-Hydroxyphenyl)-2,4,6-trihydroxypropiophenone
Name: beta-(p-Hydroxyphenyl)phloropropiophenone
Class: Natural Product; Dihydrochalcone
Formula: C15H14O5
Exact mass: 274.08412
SMILES: Oc(c2)ccc(c2)CCC(=O)c(c(O)1)c(O)cc(O)c1
InChI: InChI=1S/C15H14O5/c16-10-4-1-9(2-5-10)3-6-12(18)15-13(19)7-11(17)8-14(15)20/h1-2,4-5,7-8,16-17,19-20H,3,6H2
Instrument: LCMS-IT-TOF
Instrument type: LC-ESI-ITTOF
Ms type: MS
Ion mode: POSITIVE
Column name: Waters Atlantis T3 (2.1 x 150 mm, 5 um)
Retention time: 16.235000 min
Base peak: 275.084400
m/z	relative intensity
201.574600	3
226.576700	3
231.419000	3
242.108900	3
242.467900	3
271.051000	27
271.620900	3
275.084400	999
275.387300	21
275.594600	13
276.089400	207
276.329000	6
276.632600	3
277.096300	31
295.054100	3
313.031400	6
313.813900	3
315.040800	3
316.116300	10
317.056700	37
318.067000	3
336.651600	6
343.064500	3
398.194000	3
418.583200	3
431.101000	8
473.099600	3
547.172100	12
557.152800	6
561.106600	9
569.124900	9
584.146900	6
587.123600	18
601.083300	3
613.087600	3
679.991600	3
858.812700	3
872.979800	3
892.250400	3
987.768500	3
1046.514700	3
1064.497600	3
1111.566500	3
1208.257900	3
1284.067800	3
1339.825900	3
1400.542500	3
1467.680600	3
1491.745100	3
1533.115100	6
1593.065000	3
1692.254100	3
1757.022100	3
1885.322100	3
1961.177000	3
