Mass spectrum: Sennoside A; LC-ESI-ITTOF; MS2; [M+NH4]+
Name: Sennoside A
Name: (9R,9'R)-5,5'-Bis(beta-D-glucopyranosyloxy)-9,9',10,10'-tetrahydro-4,4'-dihydroxy-10,10'-dioxo- [9,9'-bianthracene]-2,2'-dicarboxylic acid
Name: (R*,R*)-5,5'-Bis(beta-D-glucopyranosyloxy)-9,9',10,10'-tetrahydro-4,4'-dihydroxy-10,10'-dioxo-[9,9'-bianthracene]-2,2'-dicarboxylic acid
Name: Gentle Nature
Name: Glysennid
Class: Natural Product; Anthraquinone
Formula: C42H38O20
Exact mass: 862.19564
SMILES: OC(=O)c(c8)cc(c(c38)C(c(c(C([H])(C([H])(c67)c(c(C(c(c(cc(c7)C(O)=O)O)6)=O)4)cccc4OC(C(O)5)OC(CO)C(C5O)O)3)2)c(ccc2)OC(C(O)1)OC(CO)C(C1O)O)=O)O
InChI: InChI=1S/C42H38O20/c43-11-23-31(47)35(51)37(53)41(61-23)59-21-5-1-3-15-25(17-7-13(39(55)56)9-19(45)27(17)33(49)29(15)21)26-16-4-2-6-22(60-42-38(54)36(52)32(48)24(12-44)62-42)30(16)34(50)28-18(26)8-14(40(57)58)10-20(28)46/h1-10,23-26,31-32,35-38,41-48,51-54H,11-12H2,(H,55,56)(H,57,58)/t23-,24-,25-,26-,31-,32-,35+,36+,37-,38-,41-,42-/m1/s1
Instrument: LCMS-IT-TOF
Instrument type: LC-ESI-ITTOF
Ms type: MS2
Ion mode: POSITIVE
Column name: Waters Atlantis T3 (2.1 x 150 mm, 5 um)
Retention time: 3.443600 min
Base peak: 270.056500
Precursor m/z: 880.227400
Precursor type: [M+NH4]+
m/z	relative intensity
193.726600	9
194.583500	5
213.226900	9
269.046800	27
270.056500	999
270.198700	14
270.325000	19
270.546300	11
271.052300	328
271.289700	10
271.558800	5
272.065800	49
325.116700	16
342.123400	4
537.104300	7
539.088200	726
539.311400	14
539.512200	20
539.802400	11
540.092700	484
540.316100	17
540.561800	15
541.098200	35
542.104500	13
579.188100	5
701.154600	54
702.147300	80
703.166300	11
739.059000	8
885.148000	11
