Mass spectrum: Gomisin N; LC-ESI-ITTOF; MS; [M+H]+
Name: Gomisin N
Name: Benzo[3,4]cycloocta[1,2-f][1,3]benzodioxole, 5,6,7,8-tetrahydro-1,2,3,13-tetramethoxy-6,7-dimethyl-, (6R,7S,13aS)-
Name: Benzo[3,4]cycloocta[1,2-f][1,3]benzodioxole, 5,6,7,8-tetrahydro-1,2,3,13-tetramethoxy-6,7-dimethyl-, stereoisomer
Name: (-)-Gomisin N
Class: Natural Product; Lignan
Formula: C23H28O6
Exact mass: 400.18859
SMILES: COc(c4)c(OC)c(OC)c(c34)c(c(CC(C)C(C)C3)1)c(OC)c(O2)c(OC2)c1
InChI: InChI=1S/C23H28O6/c1-12-7-14-9-16(24-3)20(25-4)22(26-5)18(14)19-15(8-13(12)2)10-17-21(23(19)27-6)29-11-28-17/h9-10,12-13H,7-8,11H2,1-6H3
Instrument: Shimadzu LC20A-IT-TOFMS
Instrument type: LC-ESI-ITTOF
Ms type: MS
Ion mode: POSITIVE
Column name: Waters Atlantis T3 (2.1 x 150 mm, 5 um)
Retention time: 1811.800
Ion type: [M+H]+
m/z	relative intensity
401.1971	999
402.2002	255
418.2218	798
419.2241	241
