Mass spectrum: Dihydrocapsaicin; LC-ESI-ITTOF; MS; [M-H]-
Name: Dihydrocapsaicin
Name: Nonanamide, N-[(4-hydroxy-3-methoxyphenyl)methyl]-8-methyl-
Name: Nonanamide, 8-methyl-N-vanillyl-
Name: 6,7-Dihydrocapsaicin
Name: Capsaicin, dihydro-
Class: Natural Product; Capsaicinoid
Formula: C18H29NO3
Exact mass: 307.21474
SMILES: CC(C)CCCCCCC(=O)NCc(c1)cc(OC)c(O)c1
InChI: InChI=1S/C18H29NO3/c1-14(2)8-6-4-5-7-9-18(21)19-13-15-10-11-16(20)17(12-15)22-3/h10-12,14,20H,4-9,13H2,1-3H3,(H,19,21)
Instrument: Shimadzu LC20A-IT-TOFMS
Instrument type: LC-ESI-ITTOF
Ms type: MS
Ion mode: NEGATIVE
Column name: Waters Atlantis T3 (2.1 x 150 mm, 5 um)
Retention time: 1424.469
Ion type: [M-H]-
m/z	relative intensity
306.2068	999
307.2102	193
366.2285	257
367.2305	68
611.4070	53
613.4202	88
