Mass spectrum: Myricetin; LC-ESI-ITTOF; MS; [M+H]+
Name: Myricetin
Name: 3,5,7-Trihydroxy-2-(3,4,5-trihydroxyphenyl)-4H-1-benzopyran-4-one
Name: 3,3',4',5,5',7-Hexahydroxy-flavone
Name: 3,3',4',5,5',7-Hexahydroxyflavone
Name: 3,5,7,3',4',5'-Hexahydroxyflavone
Name: Cannabiscetin
Name: Myricetol
Class: Natural Product; Flavonoid
Formula: C15H10O8
Exact mass: 318.03757
SMILES: Oc(c3)cc(O1)c(c(O)3)C(=O)C(O)=C1c(c2)cc(O)c(O)c(O)2
InChI: InChI=1S/C15H10O8/c16-6-3-7(17)11-10(4-6)23-15(14(22)13(11)21)5-1-8(18)12(20)9(19)2-5/h1-4,16-20,22H
Instrument: LCMS-IT-TOF
Instrument type: LC-ESI-ITTOF
Ms type: MS
Ion mode: POSITIVE
Column name: Waters Atlantis T3 (2.1 x 150 mm, 5 um)
Retention time: 12.835000 min
Base peak: 319.044700
m/z	relative intensity
202.927600	3
218.208000	3
226.461000	3
227.112200	3
245.048400	3
252.139000	3
264.072100	8
269.266200	3
273.032200	6
282.529400	3
287.037600	6
289.256000	3
290.041000	3
301.043000	6
302.044200	3
303.063800	6
317.056700	14
318.067000	3
318.650000	3
319.044700	999
319.216300	17
319.370900	22
319.594200	16
319.783200	6
320.041000	160
321.038800	20
322.038300	6
323.194700	3
337.586700	3
339.018400	11
351.282900	3
394.253500	3
410.989600	6
412.979100	6
415.992000	3
434.840200	3
502.987200	3
504.777600	3
539.913200	3
559.923500	3
574.755400	3
583.891500	3
605.426200	3
606.064800	3
633.044100	3
651.062400	25
652.068100	6
653.050000	3
657.059000	3
671.398700	3
685.113200	3
689.042700	3
690.001500	30
690.658000	3
691.011600	12
691.997100	3
725.146500	3
737.568700	3
749.017700	3
751.887100	3
766.795500	3
816.100800	3
822.068900	3
841.998700	3
931.716100	3
1004.175500	3
1008.016100	9
1024.989700	3
1056.829900	3
1061.990900	3
1091.664100	3
1098.055300	3
1183.434300	3
1265.847700	3
1348.104800	3
1378.762100	3
1409.836400	3
1424.814100	3
1458.674700	3
1544.461700	3
1545.557100	3
1556.342900	3
1569.944500	3
1790.411100	3
1827.563700	3
1860.038100	3
1877.319300	3
1890.081900	3
1904.774600	3
1905.949200	3
1948.600300	3
1980.289000	3
