Mass spectrum: Diosmetin; LC-ESI-ITTOF; MS; [M+H]+
Name: Diosmetin
Name: 5,7-Dihydroxy-2-(3-hydroxy-4-methoxyphenyl)-4H-1-benzopyran-4-one
Name: 3',5,7-Trihydroxy-4'-methoxy-flavone
Name: 3',5,7-Trihydroxy-4'-methoxyflavone
Name: 4'-Methylluteolin
Name: 5,7,3'-Trihydroxy-4'-methoxyflavone
Name: Diosmetine
Name: Diosmetol
Name: Luteolin 4'-methyl ether
Name: Pillon
Class: Natural Product; Flavonoid
Formula: C16H12O6
Exact mass: 300.06339
SMILES: COc(c3)c(O)cc(c3)C(=C1)Oc(c2)c(c(O)cc(O)2)C(=O)1
InChI: InChI=1S/C16H12O6/c1-21-13-3-2-8(4-10(13)18)14-7-12(20)16-11(19)5-9(17)6-15(16)22-14/h2-7,17-19H,1H3
Instrument: LCMS-IT-TOF
Instrument type: LC-ESI-ITTOF
Ms type: MS
Ion mode: POSITIVE
Column name: Waters Atlantis T3 (2.1 x 150 mm, 5 um)
Retention time: 15.526667 min
Base peak: 301.076300
m/z	relative intensity
229.056900	4
258.047900	40
286.045300	105
287.053900	13
301.076300	999
301.226400	16
301.376600	22
301.593500	14
301.827100	8
302.077600	184
302.395000	6
303.080600	23
621.204200	4
733.164700	7
770.152100	17
770.632200	12
771.139100	6
920.165600	9
920.661300	11
