Mass spectrum: Alkannin; LC-ESI-ITTOF; MS; [M-H]-
Name: Alkannin
Name: 1,4-Naphthalenedione, 5,8-dihydroxy-2-[(1S)-1-hydroxy-4-methyl-3-penten-1-yl]-
Name: 1,4-Naphthalenedione, 5,8-dihydroxy-2-(1-hydroxy-4-methyl-3-pentenyl)-, (S)-
Name: 1,4-Naphthalenedione, 5,8-dihydroxy-2-[(1S)-1-hydroxy-4-methyl-3-pentenyl]-
Name: 1,4-Naphthoquinone, 5,8-dihydroxy-2-(1-hydroxy-4-methyl-3-pentenyl)-, (-)-
Name: (-)-Alkannin
Name: Alkanna red
Name: Anchusa acid
Name: Anchusin
Name: C.I. 75530
Name: C.I. Natural red 20
Name: NSC 94524
Class: Natural Product; Naphthoquinone
Formula: C16H16O5
Exact mass: 288.09977
SMILES: CC(C)=CCC(O)c(c1)c(=O)c(c(O)2)c(c(O)cc2)c(=O)1
InChI: InChI=1S/C16H16O5/c1-8(2)3-4-10(17)9-7-13(20)14-11(18)5-6-12(19)15(14)16(9)21/h3,5-7,10,17-19H,4H2,1-2H3/t10-/m0/s1
Instrument: Shimadzu LC20A-IT-TOFMS
Instrument type: LC-ESI-ITTOF
Ms type: MS
Ion mode: NEGATIVE
Column name: Waters Atlantis T3 (2.1 x 150 mm, 5 um)
Retention time: 1432.700
Ion type: [M-H]-
m/z	relative intensity
218.0212	313
219.0258	57
287.0915	999
288.0943	189
