Mass spectrum: Fortunellin; LC-ESI-ITTOF; MS2; [M-H]-
Name: Fortunellin
Name: 7-[[2-O-(6-Deoxy-alpha-L-mannopyranosyl)-beta-D-glucopyranosyl]oxy]-5-hydroxy-2-(4-methoxyphenyl)-4H-1-benzopyran-4-one
Name: Acacetin 7-O-neohesperidoside
Class: Natural Product; Flavonoid
Formula: C28H32O14
Exact mass: 592.17921
SMILES: c(O)(c3)c(C(=O)2)c(cc3OC(O5)C(C(O)C(O)C(CO)5)OC(O4)C(O)C(O)C(O)C(C)4)OC(=C2)c(c1)ccc(OC)c1
InChI: InChI=1S/C28H32O14/c1-11-21(32)23(34)25(36)27(38-11)42-26-24(35)22(33)19(10-29)41-28(26)39-14-7-15(30)20-16(31)9-17(40-18(20)8-14)12-3-5-13(37-2)6-4-12/h3-9,11,19,21-30,32-36H,10H2,1-2H3/t11-,19+,21-,22+,23+,24-,25+,26+,27-,28+/m0/s1
Instrument: LCMS-IT-TOF
Instrument type: LC-ESI-ITTOF
Ms type: MS2
Ion mode: NEGATIVE
Column name: Waters Atlantis T3 (2.1 x 150 mm, 5 um)
Retention time: 14.288700 min
Base peak: 268.032200
Precursor m/z: 591.171200
m/z	relative intensity
211.037600	5
240.044700	12
267.057700	16
268.032200	999
268.189600	17
268.331200	25
268.535900	13
269.040000	218
269.371100	7
270.034000	25
279.061700	6
281.039700	17
282.055600	5
283.057000	865
283.218700	15
283.364300	20
283.574600	11
284.060300	218
285.065400	19
297.065500	8
305.068800	7
325.074400	22
367.083700	7
471.129300	6
