Mass spectrum: Glycyrrhizin; LC-ESI-ITTOF; MS; [M-H]-
Name: Glycyrrhizic acid
Name: alpha-D-Glucopyranosiduronic acid, (3beta,20beta)-20-carboxy-11-oxo-30-norolean-12-en-3-yl 2-O-beta-D-glucopyranuronosyl-
Name: 30-Noroleanane, alpha-D-glucopyranosiduronic acid deriv
Name: beta-Glycyrrhizin
Name: 18beta-Glycyrrhizic acid
Name: Glycyron
Name: Glycyrrhetinic acid glycoside
Name: Glycyrrhizin
Name: Glycyrrhizinic acid
Name: NSC 167409
Name: NSC 234419
Name: Potenlini
Class: Natural Product; Saponin
Formula: C42H62O16
Exact mass: 822.40379
SMILES: OC(=O)C(C)(C7)CC(C(C)(C7)1)(C(=C6)C(C)(C(C5([H])C6=O)(CCC([H])(C25C)C(C)(C)C(OC(O3)C(OC(O4)C(O)C(C(C4C(O)=O)O)O)C(C(C3C(O)=O)O)O)CC2)C)CC1)[H]
InChI: InChI=1S/C42H62O16/c1-37(2)21-8-11-42(7)31(20(43)16-18-19-17-39(4,36(53)54)13-12-38(19,3)14-15-41(18,42)6)40(21,5)10-9-22(37)55-35-30(26(47)25(46)29(57-35)33(51)52)58-34-27(48)23(44)24(45)28(56-34)32(49)50/h16,19,21-31,34-35,44-48H,8-15,17H2,1-7H3,(H,49,50)(H,51,52)(H,53,54)/t19-,21-,22-,23-,24-,25-,26-,27+,28-,29-,30+,31+,34-,35-,38+,39-,40-,41+,42+/m0/s1
Instrument: Shimadzu LC20A-IT-TOFMS
Instrument type: LC-ESI-ITTOF
Ms type: MS
Ion mode: NEGATIVE
Column name: Waters Atlantis T3 (2.1 x 150 mm, 5 um)
Retention time: 737.099 sec
Ion type: [M-H]-
m/z	relative intensity
821.3965	999
822.3966	495
823.3983	155
