Mass spectrum: Citrinin; LC-ESI-ITTOF; MS; [M+H]+
Name: Citrinin
Name: 3H-2-Benzopyran-7-carboxylic acid, 4,6-dihydro-8-hydroxy-3,4,5-trimethyl-6-oxo-, (3R,4S)-
Name: 3H-2-Benzopyran-7-carboxylic acid, 4,6-dihydro-8-hydroxy-3,4,5-trimethyl-6-oxo-, (3R-trans)-
Name: (-)-Citrinin
Name: 4,6-Dihydro-8-hydroxy-3,4,5-trimethyl-6-oxo-3H-2-benzopyran-7-carboxylic acid
Name: NSC 186
Class: Natural Product; Benzopyran
Formula: C13H14O5
Exact mass: 250.08412
SMILES: OC(=O)c(c(=O)1)c(O)c(=C2)c(C(C)C(C)O2)c(C)1
InChI: InChI=1S/C13H14O5/c1-5-7(3)18-4-8-9(5)6(2)11(14)10(12(8)15)13(16)17/h4-5,7,15H,1-3H3,(H,16,17)/t5-,7-/m1/s1
Instrument: Shimadzu LC20A-IT-TOFMS
Instrument type: LC-ESI-ITTOF
Ms type: MS
Ion mode: POSITIVE
Column name: Waters Atlantis T3 (2.1 x 150 mm, 5 um)
Retention time: 702.300
Ion type: [M+H]+
m/z	relative intensity
233.0801	633
234.0819	88
251.0907	999
252.0942	145
273.0727	199
