Mass spectrum: Rutin; LC-ESI-ITTOF; MS2; [M+H]+
Name: Rutin
Name: 3-[[6-O-(6-Deoxy-alpha-L-mannopyranosyl)-beta-D-glucopyranosyl]oxy]-2-(3,4-dihydroxyphenyl)-5,7-dihydroxy-4H-1-benzopyran-4-one
Name: 3,3',4',5,5',7-Hexahydroxy-flavone (6-O-alpha-L-rhamnosyl-beta-D-glucoside)
Name: Ilixanthin
Name: 3,3',4',5,7-Pentahydroxyflavone 3-O-rutinoside
Name: 3,3',4',5,7-Pentahydroxyflavone 3-rutinoside
Name: 3-O-Rutinosyl-quercetin
Name: 3-Rutinosylquercetin
Name: 5,7,3',4'-Tetrahydroxyflavonol-3-O-rutinoside
Name: Birutan
Name: Eldrin
Name: Globulariacitrin
Name: Globularicitrin
Name: Ilixathin
Name: Melin
Name: Myrticalorin
Name: Myrticolorin
Name: Myticolorin
Name: Novarrutina
Name: Osyritin
Name: Osyritrin
Name: Oxyritin
Name: Paliuroside
Name: Phytomelin
Name: Quercetin 3-O-rutinoside
Name: Quercetin 3-O-alpha-L-rhamnopyranosyl-(1-6)-beta-D-glucopyranoside
Name: Quercetin 3-O-alpha-rhamnopyranosyl(1''-6')-beta-D-glucopyranoside
Name: Quercetin 3-O-alpha-rhamnopyranosyl(1-6)-beta-glucopyranoside
Name: Quercetin 3-O-beta-D-rutinoside
Name: Quercetin 3-O-beta-rutinoside
Name: Quercetin 3-rhamnoglucoside
Name: Quercetin 3-rutinoside
Name: Quercetin 3-beta-rutinoside
Name: Rutabion
Name: Rutine
Name: Rutinic acid
Name: Rutosid
Name: Rutoside
Name: Rutozid
Name: Sophorin
Name: Tanrutin
Name: Violaquercetrin
Name: Violaquercitrin
Name: Yunxianggan
Class: Natural Product; Flavonoid
Formula: C27H30O16
Exact mass: 610.15338
SMILES: c(c5)(O)cc(c(c52)C(C(O[C@H](O3)[C@@H]([C@H]([C@@H]([C@H]3CO[C@@H]([C@@H]4O)O[C@H]([C@@H]([C@H]4O)O)C)O)O)O)=C(O2)c(c1)ccc(O)c1O)=O)O
InChI: InChI=1S/C27H30O16/c1-8-17(32)20(35)22(37)26(40-8)39-7-15-18(33)21(36)23(38)27(42-15)43-25-19(34)16-13(31)5-10(28)6-14(16)41-24(25)9-2-3-11(29)12(30)4-9/h2-6,8,15,17-18,20-23,26-33,35-38H,7H2,1H3/t8-,15+,17-,18+,20+,21-,22+,23+,26+,27-/m0/s1
Instrument: LCMS-IT-TOF
Instrument type: LC-ESI-ITTOF
Ms type: MS2
Ion mode: POSITIVE
Column name: Waters Atlantis T3 (2.1 x 150 mm, 5 um)
Retention time: 10.518633 min
Base peak: 303.050200
Precursor m/z: 611.165400
m/z	relative intensity
211.042200	7
215.039700	5
219.060500	3
229.042600	24
257.031400	24
285.040900	9
303.050200	999
303.200700	16
303.401600	24
303.569000	14
303.786700	5
304.054700	141
304.373200	4
315.044300	18
327.045300	7
345.065600	10
346.048100	5
369.068600	14
393.058900	5
447.097400	3
449.111400	9
465.116300	51
466.111700	13
