Mass spectrum: Oxymatrine; LC-ESI-ITTOF; MS; [M+H]+
Name: Oxymatrine
Name: 1H,5H,10H-Dipyrido[2,1-f:3',2',1'-ij][1,6]naphthyridin-10-one, dodecahydro-, 4-oxide, (4R,7aS,13aR,13bR,13cS)-
Name: Matridin-15-one, 1-oxide, (1beta)-
Name: Matrine, 1-oxide
Name: Matrine, N-oxide
Name: (+)-Matrine N-oxide
Name: 1H,5H,10H-Dipyrido[2,1-f:3',2',1'-ij][1,6]naphthyridin-10-one, dodecahydro-, 4-oxide, [4R-(4alpha,7a beta,13a alpha,13b beta,13c beta)]-
Name: Ammothamnine
Name: Kingbo
Name: Matrine 1beta-oxide
Name: Matrine N1-oxide
Name: Pachycarpidine
Name: Matrine, N1-Oxide
Class: Natural Product; Alkaloid
Formula: C15H24N2O2
Exact mass: 264.18378
SMILES: O=C(C4)N(C1)C([H])(CC4)C([H])(C3)C([H])(N(=O)2CC3)C([H])(CCC2)1
InChI: InChI=1S/C15H24N2O2/c18-14-7-1-6-13-12-5-3-9-17(19)8-2-4-11(15(12)17)10-16(13)14/h11-13,15H,1-10H2/t11-,12+,13+,15-,17+/m0/s1
Instrument: Shimadzu LC20A-IT-TOFMS
Instrument type: LC-ESI-ITTOF
Ms type: MS
Ion mode: POSITIVE
Column name: Waters Atlantis T3 (2.1 x 150 mm, 5 um)
Retention time: 428.901
Ion type: [M+H]+
m/z	relative intensity
265.1914	999
266.1955	169
529.3757	892
530.3782	327
531.3889	55
551.3584	52
