Mass spectrum: Valine_acylated_putrescine; ESI-QTOF; MS2; CE 30 V; [M+H]+
Name: Valine_acylated_putrescine
Class: Natural Product; Acylated Polyamines
Formula: C9H21N3O
Exact mass: 187.1685
SMILES: N[C@@H](C(C)C)C(NCCCCN)=O
InChI: InChI=1S/C9H21N3O/c1-7(2)8(11)9(13)12-6-4-3-5-10/h7-8H,3-6,10-11H2,1-2H3,(H,12,13)/t8-/m0/s1
Instrument: 1290 HPLC, Agilent; Q-TOF, Agilent
Instrument type: ESI-QTOF
Ms type: MS2
Ion mode: POSITIVE
Ionization: ESI
Collision energy: 30 V
Precursor m/z: 188.1765
Precursor type: [M+H]+	
m/z	relative intensity
55.0546	297
56.0576	16
57.0575	21
72.0814	999
73.0841	102
