Mass spectrum: Succinate_acylated_putrescine; ESI-QTOF; MS2; CE 20 V; [M+H]+
Name: Succinate_acylated_putrescine
Class: Natural Product; Acylated Polyamines
Formula: C8H16N2O3
Exact mass: 188.1161
InChI: InChI=1S/C8H16N2O3/c9-5-1-2-6-10-7(11)3-4-8(12)13/h1-6,9H2,(H,10,11)(H,12,13)
Instrument: 1290 HPLC, Agilent; Q-TOF, Agilent.
Instrument type: ESI-QTOF
Ms type: MS2
Ion mode: POSITIVE
Ionization: ESI
Collision energy: 20 V
Precursor m/z: 189.1232
Precursor type: [M+H]+
m/z	relative intensity
55.0174	41
55.0543	86
56.057	13
72.0441	30
72.0806	999
73.0283	64
73.0839	80
74.0236	25
82.9803	10
84.044	32
88.0215	16
98.0599	24
100.0388	233
101.023	137
105.9623	37
112.0386	51
125.0591	35
126.0909	29
154.0855	165
155.0884	13
172.0958	72
173.0995	15
