Name: Fumarate_acylated_putrescine
Class: Natural Product; Acylated Polyamines
Formula: C8H14N2O3
Exact mass: 186.1004
SMILES: O=C(O)/C=C/C(NCCCCN)=O
InChI: InChI=1S/C8H14N2O3/c9-5-1-2-6-10-7(11)3-4-8(12)13/h3-4H,1-2,5-6,9H2,(H,10,11)(H,12,13)/b4-3+
Instrument: 1290 HPLC, Agilent; Q-TOF, Agilent
Instrument type: ESI-QTOF
Ms type: MS2
Ion mode: POSITIVE
Ionization: ESI
Collision energy: 20 V
Precursor m/z: 187.1076
Precursor type: [M+H]+
m/z	relative intensity
53.0022	60
55.0542	78
57.0699	20
68.0488	39
70.0654	12
71.0686	15
72.0805	999
73.0835	33
74.0232	68
74.088	15
80.0491	22
81.0342	11
85.0277	50
86.0964	13
89.1061	13
99.007	419
100.0103	19
100.9552	16
110.0236	32
116.0345	65
116.0709	11
124.0734	15
128.0337	150
170.0803	87
171.0833	20
