Mass spectrum: Cinnamic_acid_acylated_spermidine; LC-ESI-QTOF; MS2; CE 20 V; [M+H]+
Name: Cinnamic_acid_acylated_spermidine
Class: Natural Product; Acylated Polyamines
Formula: C16H25N3O
Exact mass: 275.1998
SMILES: O=C(NCCCNCCCCN)/C=C/C1=CC=CC=C1
InChI: InChI=1S/C16H25N3O/c17-11-4-5-12-18-13-6-14-19-16(20)10-9-15-7-2-1-3-8-15/h1-3,7-10,18H,4-6,11-14,17H2,(H,19,20)/b10-9+
Instrument: 1290 HPLC, Agilent; Q-TOF, Agilent
Instrument type: LC-ESI-QTOF
Ms type: MS2
Ion mode: POSITIVE
Ionization: ESI
Collision energy: 20 V
Precursor m/z: 276.2084
Precursor type: [M+H]+
m/z	relative intensity
72.0808	61
73.0841	31
103.0538	19
112.1115	15
131.0488	339
132.0521	30
188.107	999
189.1099	198
190.1128	12
205.1327	16
259.1799	56
260.183	18
276.2062	13
