Name: Serine_acylated_putrescine
Class: Natural Product; Acylated Polyamines
Formula: C7H17N3O2
Exact mass: 175.1321
SMILES: N[C@@H](CO)C(NCCCCN)=O
InChI: InChI=1S/C7H17N3O2/c8-3-1-2-4-10-7(12)6(9)5-11/h6,11H,1-5,8-9H2,(H,10,12)/t6-/m0/s1
Instrument: 1290 HPLC, Agilent; Q-TOF, Agilent
Instrument type: ESI-QTOF
Ms type: MS2
Ion mode: POSITIVE
Ionization: ESI
Collision energy: 20 V
Precursor m/z: 176.1399
Precursor type: [M+H]+
m/z	relative intensity
55.0541	11
60.0445	999
61.0478	30
72.0808	711
73.0841	40
89.1068	16
159.1123	24
