Mass spectrum: Succinate_acylated_spermidine; ESI-QTOF; MS2; CE 40 V; [M+H]+
Name: Succinate_acylated_spermidine
Class: Natural Product; Acylated Polyamines
Formula: C11H23N3O3
Exact mass: 245.1739
SMILES: O=C(O)CCC(NCCCNCCCCN)=O
InChI: InChI=1S/C11H23N3O3/c12-6-1-2-7-13-8-3-9-14-10(15)4-5-11(16)17/h13H,1-9,12H2,(H,14,15)(H,16,17)
Instrument: 1290 HPLC, Agilent; Q-TOF, Agilent	
Instrument type: ESI-QTOF
Ms type: MS2
Ion mode: POSITIVE
Ionization: ESI
Collision energy: 40 V
Precursor m/z: 246.1829
Precursor type: [M+H]+
m/z	relative intensity
55.0176	84
55.054	15
56.0494	20
58.065	111
59.0491	23
69.0694	13
72.044	20
72.0805	999
73.0282	77
73.0839	52
84.0441	146
84.0802	48
100.0387	12
101.0229	148
112.0385	78
112.0748	26
112.1114	13
140.0699	43
158.0804	15
