Mass spectrum: Trimethoxybenzoic_acid_acylated_spermidine; ESI-QTOF; MS2; CE 30 V; [M+H]+
Name: Trimethoxybenzoic_acid_acylated_spermidine
Class: Natural Product; Acylated Polyamines
Formula: C15H34N4O
Exact mass: 339.2158
SMILES: O=C(NCCCNCCCCN)C(C)(C)C(C)CCN
InChI: InChI=1S/C15H34N4O/c1-13(7-9-17)15(2,3)14(20)19-12-6-11-18-10-5-4-8-16/h13,18H,4-12,16-17H2,1-3H3,(H,19,20)
Instrument: 1290 HPLC, Agilent; Q-TOF, Agilent
Instrument type: ESI-QTOF
Ms type: MS2
Ion mode: POSITIVE
Ionization: ESI
Collision energy: 30 V
Precursor m/z: 340.2237
Precursor type: [M+H]+
m/z	relative intensity
72.0808	460
73.0841	24
139.0747	18
152.0461	22
167.0697	24
191.0932	10
195.0654	999
196.0681	149
197.07	15
