Mass spectrum: Veratrosine; LC-ESI-TOF; MS2; CE: 60 V
Name: Veratrosine
Name: (10xi,25xi)-23-hydroxy-14,15,16,17-tetradehydroveratraman-3-yl hexopyranoside
Class: Natural Product; Alkaloid; Glycoside
Formula: C33H49NO7
Exact mass: 571.35090
SMILES: C[C@H]1C[C@H]([C@@H](NC1)[C@@H](C)C2=C(C3=C(C=C2)[C@@H]4CC=C5C[C@H](CC[C@@]5([C@H]4C3)C)O[C@H]6[C@@H]([C@H]([C@@H]([C@H](O6)CO)O)O)O)C)O
InChI: InChI=1S/C33H49NO7/c1-16-11-26(36)28(34-14-16)18(3)21-7-8-22-23-6-5-19-12-20(9-10-33(19,4)25(23)13-24(22)17(21)2)40-32-31(39)30(38)29(37)27(15-35)41-32/h5,7-8,16,18,20,23,25-32,34-39H,6,9-15H2,1-4H3/t16-,18-,20-,23-,25-,26+,27+,28-,29+,30-,31+,32+,33-/m0/s1
Instrument: Bruker maXis ESI-QTOF
Instrument type: LC-ESI-QTOF
Ms type: MS2
Ion mode: POSITIVE
Precursor m/z: 572.0
Precursor type: [M+H]+
m/z	relative intensity
84.1	161
85.1	38
87.0	21
97.0	17
99.0	12
102.1	26
105.1	20
107.1	28
109.0	11
114.1	466
115.1	21
117.1	12
119.1	17
121.1	30
124.1	266
125.1	21
127.0	102
129.1	29
131.1	634
132.1	57
133.1	421
134.1	34
141.1	14
142.1	482
144.1	18
146.1	61
147.1	35
155.1	73
156.1	30
157.1	793
158.1	82
159.1	828
160.1	79
161.1	11
167.1	17
168.1	17
169.1	313
170.1	41
171.1	725
172.1	75
173.1	32
179.1	11
181.1	108
182.1	26
183.1	290
184.1	41
185.1	66
193.1	32
194.1	11
195.1	128
196.1	26
197.1	95
198.1	14
206.1	15
207.1	69
208.1	17
209.1	64
210.1	11
211.1	152
212.1	25
219.1	16
220.1	17
221.1	100
222.1	24
223.1	30
233.1	31
234.1	17
235.1	102
236.2	22
237.2	16
247.1	23
248.2	30
249.2	43
250.2	10
251.2	11
258.1	17
261.2	11
262.2	81
263.2	25
275.2	14
277.2	475
278.2	83
279.2	15
293.2	14
295.2	116
296.2	21
301.2	13
392.3	12
443.2	14
457.3	999
458.3	257
459.3	26
471.3	10
495.3	12
537.3	15
554.3	120
555.3	37
572.4	39
573.4	12
