Mass spectrum: Cyclopamine; LC-ESI-TOF; MS2; CE: 50 V
Name: Cyclopamine
Name: 11-deoxojervine
Name: (3beta,22S,23R)-17,23-Epoxyveratraman-3-ol
Class: Natural Product; Alkaloid
Formula: C27H41NO2
Exact mass: 411.31372
SMILES: C[C@H]1C[C@@H]2[C@H]([C@H]([C@]3(O2)CC[C@H]4[C@@H]5CC=C6C[C@H](CC[C@@]6([C@H]5CC4=C3C)C)O)C)NC1
InChI: InChI=1S/C27H41NO2/c1-15-11-24-25(28-14-15)17(3)27(30-24)10-8-20-21-6-5-18-12-19(29)7-9-26(18,4)23(21)13-22(20)16(27)2/h5,15,17,19-21,23-25,28-29H,6-14H2,1-4H3/t15-,17+,19-,20-,21-,23-,24+,25-,26-,27-/m0/s1
Instrument: Bruker maXis ESI-QTOF
Instrument type: LC-ESI-QTOF
Ms type: MS2
Ion mode: POSITIVE
Precursor m/z: 412.3
Precursor type: [M+H]+
m/z	relative intensity
67.1	29
81.1	47
84.1	87
85.1	70
93.1	30
96.1	30
102.1	67
105.1	52
107.1	82
109.1	723
110.1	62
112.1	53
114.1	692
115.1	41
119.1	110
121.1	94
124.1	50
125.1	27
126.1	295
127.1	25
129.1	32
131.1	151
133.1	607
134.1	60
135.1	149
140.1	185
143.1	276
144.1	45
145.1	888
146.1	99
147.1	270
148.1	31
149.1	48
150.1	46
151.1	76
155.1	107
156.1	55
157.1	999
158.1	132
159.1	859
160.1	103
161.1	333
162.1	37
163.1	80
167.1	24
169.1	162
170.1	37
171.1	565
172.1	82
173.1	330
174.1	43
175.1	57
177.1	26
181.1	58
182.1	38
183.1	218
184.1	60
185.1	243
186.1	37
187.1	76
195.1	140
196.1	56
197.1	253
198.1	47
199.1	138
200.2	28
201.2	26
207.1	29
209.1	113
210.1	35
211.1	174
212.2	28
213.2	352
214.2	53
221.1	31
222.1	28
223.1	79
224.2	25
225.2	61
227.2	27
235.1	43
237.2	71
239.2	62
249.2	30
251.2	58
253.2	79
264.2	27
269.2	28
279.2	100
280.2	28
281.2	35
287.2	42
295.2	58
297.2	43
321.2	130
322.2	38
377.3	44
394.3	55
412.3	113
413.3	33
