Mass spectrum: Cycloposine; LC-ESI-TOF; MS2; CE: 60 V
Name: Cycloposine
Name: 17,23-Epoxyveratraman-3-yl hexopyranoside
Class: Natural Product; Alkaloid; Glycoside
Formula: C33H51NO7
Exact mass: 573.36655
SMILES: C[C@H]1C[C@@H]2[C@H]([C@H]([C@]3(O2)CC[C@H]4[C@@H]5CC=C6C[C@H](CC[C@@]6([C@H]5CC4=C3C)C)O[C@H]7[C@@H]([C@H]([C@@H]([C@H](O7)CO)O)O)O)C)NC1
InChI: InChI=1S/C33H51NO7/c1-16-11-25-27(34-14-16)18(3)33(41-25)10-8-21-22-6-5-19-12-20(7-9-32(19,4)24(22)13-23(21)17(33)2)39-31-30(38)29(37)28(36)26(15-35)40-31/h5,16,18,20-22,24-31,34-38H,6-15H2,1-4H3/t16-,18+,20-,21-,22-,24-,25+,26+,27-,28+,29-,30+,31+,32-,33-/m0/s1
Instrument: Bruker maXis ESI-QTOF
Instrument type: LC-ESI-QTOF
Ms type: MS2
Ion mode: POSITIVE
Precursor m/z: 574.0
Precursor type: [M+H]+
m/z	relative intensity
67.1	21
81.1	29
84.1	123
85.0	65
87.0	28
96.1	22
97.0	34
98.1	20
99.1	20
100.1	24
102.1	76
105.1	37
107.1	66
109.1	871
110.1	68
112.1	62
114.1	999
115.1	72
119.1	53
121.1	58
124.1	96
125.1	28
126.1	630
127.0	151
127.1	56
129.1	26
131.1	126
132.1	26
133.1	327
134.1	40
135.1	93
140.1	226
142.1	72
143.1	144
144.1	35
146.1	73
147.1	186
148.1	23
150.1	59
155.1	71
156.1	21
157.1	568
158.1	76
159.1	473
160.1	61
161.1	195
162.1	29
169.1	96
170.1	21
171.1	376
172.1	53
173.1	228
174.1	27
175.1	29
176.1	22
181.1	40
182.1	22
183.1	149
184.1	33
185.1	130
186.1	25
187.1	72
195.1	91
196.1	29
197.1	123
198.1	30
199.1	95
200.1	20
209.1	68
211.1	115
212.2	24
213.2	262
214.2	54
221.1	25
223.1	47
225.2	45
235.1	25
237.2	43
239.2	40
249.2	33
250.2	25
251.2	60
253.2	58
263.2	23
264.2	20
265.2	25
269.2	28
277.2	48
278.2	23
279.2	80
280.2	23
281.2	33
457.3	68
458.3	27
483.3	53
556.4	41
557.4	20
574.4	73
575.4	35
576.4	20
