Mass spectrum: Veratramine; LC-ESI-TOF; MS2; CE: 50 V
Name: Veratramine
Name: (3beta,23R)-14,15,16,17-Tetradehydroveratraman-3,23-diol
Class: Natural Product; Alkaloid
Formula: C27H39NO2
Exact mass: 409.29807
SMILES: C[C@H]1C[C@H]([C@@H](NC1)[C@@H](C)C2=C(C3=C(C=C2)[C@@H]4CC=C5C[C@H](CC[C@@]5([C@H]4C3)C)O)C)O
InChI: InChI=1S/C27H39NO2/c1-15-11-25(30)26(28-14-15)17(3)20-7-8-21-22-6-5-18-12-19(29)9-10-27(18,4)24(22)13-23(21)16(20)2/h5,7-8,15,17,19,22,24-26,28-30H,6,9-14H2,1-4H3/t15-,17-,19-,22-,24-,25+,26-,27-/m0/s1
Instrument: Bruker maXis ESI-QTOF
Instrument type: LC-ESI-QTOF
Ms type: MS2
Ion mode: POSITIVE
Precursor m/z: 410.3
Precursor type: [M+H]+
m/z	relative intensity
84.1	32
105.1	6
107.1	6
114.1	105
115.1	7
119.1	8
121.1	6
124.1	82
125.1	8
129.1	7
131.1	129
132.1	13
133.1	212
134.1	23
141.1	4
144.1	5
145.1	108
146.1	11
147.1	14
151.1	8
154.1	4
155.1	26
156.1	17
157.1	372
158.1	45
159.1	215
160.1	29
161.1	6
167.1	6
168.1	7
169.1	120
170.1	17
171.1	350
172.1	47
173.1	10
175.1	5
179.1	5
180.1	4
181.1	27
182.1	12
183.1	108
184.1	18
185.1	18
192.1	4
193.1	16
194.1	6
195.1	37
196.1	12
197.1	41
198.1	7
199.1	4
206.1	8
207.1	28
208.1	8
209.1	23
210.1	5
211.1	51
212.2	9
219.1	6
220.1	11
221.1	34
222.1	13
223.1	11
225.2	4
233.1	16
234.1	8
235.2	34
236.2	13
237.2	12
247.2	16
248.2	18
249.2	17
251.2	6
261.2	3
262.2	42
263.2	11
265.2	4
277.2	77
278.2	17
280.2	17
281.2	21
282.2	5
295.2	999
296.2	225
297.2	26
309.2	7
319.2	10
320.2	6
333.2	9
362.3	5
363.3	4
375.3	6
376.3	4
377.3	5
392.3	62
393.3	18
396.3	8
410.3	16
411.3	5
414.3	24
