Mass spectrum: PFPS; LC-ESI-FT; MS2
Name: PFPS
Name: 1,1,2,2,3,3,4,4,5,5,5-undecafluoropentane-1-sulfonic acid
Class: Non-Natural Product; Perfluoroalkyl sulfonic acid
Formula: C5HF11O3S
Exact mass: 349.94707485
SMILES: C(C(C(F)(F)F)(F)F)(C(C(F)(F)S(=O)(=O)O)(F)F)(F)F
InChI: InChI=1S/C5HF11O3S/c6-1(7,2(8,9)4(12,13)14)3(10,11)5(15,16)20(17,18)19/h(H,17,18,19)
Instrument: Vanquish LC, Thermo Scientific; Exploris 120 Orbitrap, Thermo Scientific
Instrument type: LC-ESI-FT
Ms type: MS2
Ion mode: NEGATIVE
Retention time: 6.07743175384204
Precursor m/z: 348.93936
Precursor type: [M-H]-
m/z	relative intensity
52.66854	5
66.00059	6
79.95720	677
82.96029	10
95.08640	7
98.94792	11
98.95554	151
102.59447	6
109.00016	5
118.99216	8
139.49419	6
140.38051	6
169.44128	7
317.84781	7
348.93936	999
