Mass spectrum: N-Methyl-2-pyrrolidone; LC-ESI-QFT; MS2; CE:20; [M+H]+
Name: N-Methyl-2-pyrrolidone
Name: Methylpyrrolidone
Class: Non-natural product; Industrial chemical
Formula: C5H9NO
Exact mass: 99.06840
SMILES: CN1CCCC1=O
InChI: InChI=1S/C5H9NO/c1-6-4-2-3-5(6)7/h2-4H2,1H3
Instrument:  QExactive Plus Orbitrap
Instrument type: LC-ESI-QFT
Ms type: MS2
Ion mode: POSITIVE
Collision energy: 20
Retention time: 5.92
Precursor m/z: 100.07568
Precursor type: [M+H]+
m/z	relative intensity
50.52296	14
55.05470	14
56.04990	23
58.02639	25
58.02909	270
69.03362	38
88.98087	13
98.05950	14
100.07568	999
