Mass spectrum: Dechlorane 603; GC-EI-QTOF; MS1; CE: 70
Name: Dechlorane 603
Name: 1,4:5,8:9,10-Trimethanoanthracene, 1,2,3,4,5,6,7,8,12,12,13,13-dodecachloro-1,4,4a,5,8,8a,9,9a,10,10a-decahydro-
Class: Non-natural product; Flame retardant
Formula: C17H8Cl12
Exact mass: 631.6888327752
SMILES: C1C2C3C(C1C4C2C5(C(=C(C4(C5(Cl)Cl)Cl)Cl)Cl)Cl)C6(C(=C(C3(C6(Cl)Cl)Cl)Cl)Cl)Cl
InChI: InChI=1S/C17H8Cl12/c18-8-10(20)14(24)6-3-1-2(4(6)12(8,22)16(14,26)27)5-7(3)15(25)11(21)9(19)13(5,23)17(15,28)29/h2-7H,1H2
Instrument: Agilent 7200 Accurate-Mass QToF GC/MS
Instrument type: GC-EI-QTOF
Ms type: MS1
Ion mode: POSITIVE
Ionization: EI
Collision energy: 70
Retention time: 11.68
m/z	relative intensity
35.976804574832	78
39.9626087323154	58
41.0392824874264	88
42.0340834936534	73
43.018459603045	48
43.0548311888428	115
43.9901965157407	164
46.9943615367915	55
51.0233866242627	67
56.0852763129967	59
57.0701821798175	162
65.0386964117477	149
66.0464263025396	870
66.0704981269024	48
67.0542950447767	47
69.0697818894185	39
71.0854618188709	61
73.0468730281295	137
75.0255132208021	50
79.074830376022	39
82.0770273493875	50
92.0607289903534	60
101.015805822869	109
103.006425397914	41
109.100795376805	43
118.902731725417	40
118.997062323626	47
126.045713012582	47
137.041330750545	39
147.065662352217	89
147.148682794941	39
149.042670266195	51
153.06953946202	44
160.008926621186	44
178.965379149231	39
186.02206419396	69
187.030793805968	38
190.921240677186	62
191.001304650395	60
192.922790550931	51
193.981335499702	43
195.983136085776	51
207.033158785392	84
208.0333733297	61
208.084280118366	89
209.030907001412	68
220.991409616532	42
226.897913432206	105
228.896132733778	120
229.945497882893	72
230.892333293993	58
231.945232424823	62
234.843912228887	89
235.850882965281	79
236.841352564664	166
237.847574261675	96
238.839004648159	83
239.845207612267	95
253.016988432773	87
253.07847196009	40
255.080735602325	40
260.859407269955	626
260.916687339026	44
261.86437109572	62
262.856986546729	999
262.91622869242	70
263.860762373314	99
264.853359976637	615
264.894104017228	40
264.910834109986	48
265.85846382809	57
266.850157218126	209
266.909718060794	51
267.029324583346	217
271.810176945891	52
273.806097037935	50
281.051766837781	39
281.116171501095	41
282.091216282796	51
282.873672664936	41
283.871492550479	39
327.035286919784	45
328.09128781381	45
385.003197346449	46
403.06567398742	71
405.082740517931	80
405.141617749852	103
415.037982781067	42
564.75399881656	50
566.751824346073	57
568.746434819152	43
596.717085052371	46
598.716621291654	152
599.722694767128	48
600.715585708601	275
601.715462446002	69
602.711253446994	261
603.71724072503	59
604.706325946211	162
606.706383290651	86
