Mass spectrum: Dimantine; ESI-QTOF; MS2; CE: 10
Name: Stearyldimethylamine
Name: Dimantine
Class: Non-natural product; Industrial chemical
Formula: C20H43N
Exact mass: 297.33955
SMILES: CCCCCCCCCCCCCCCCCCN(C)C
InChI: InChI=1S/C20H43N/c1-4-5-6-7-8-9-10-11-12-13-14-15-16-17-18-19-20-21(2)3/h4-20H2,1-3H3
Instrument: Agilent 6546 Q-ToF
Instrument type: ESI-QTOF
Ms type: MS2
Ion mode: POSITIVE
Ionization: ESI
Collision energy: 10
Precursor m/z: 298.3468
m/z	relative intensity
298.3472	999
298.3576	31
298.3852	20
299.3502	25
