Mass spectrum: 4-tert-Octylphenol; LC-ESI-QFT; MS2; CE:20; [M-H]-
Name: 4-tert-Octylphenol
Name: 4-(2,4,4-trimethylpentan-2-yl)phenol
Class: Non-natural product; Industrial chemical 
Formula: C14H22O
Exact mass: 206.16710
SMILES: CC(C)(C)CC(C)(C)C1=CC=C(C=C1)O
InChI: InChI=1S/C14H22O/c1-13(2,3)10-14(4,5)11-6-8-12(15)9-7-11/h6-9,15H,10H2,1-5H3
Instrument:  QExactive Plus Orbitrap
Instrument type: LC-ESI-QFT
Ms type: MS2
Ion mode: NEGATIVE
Collision energy: 20
Retention time: 16.9517135333333
Precursor m/z: 205.15982
Precursor type: [M-H]-
m/z	relative intensity
51.20903	0
66.92064	0
67.42670	0
69.12885	0
69.13218	1
131.08994	0
133.06606	1
148.09059	0
149.09657	1
173.09711	1
189.11052	0
189.12854	21
205.15987	999
206.16296	2
