Mass spectrum: PFBS; LC-ESI-FT; MS2
Name: PFBS
Name: 1,1,2,2,3,3,4,4,4-nonafluorobutane-1-sulfonic acid
Class: Non-Natural Product; Perfluoroalkyl sulfonic acid
Formula: C4HF9O3S
Exact mass: 299.95026852
SMILES: C(C(C(F)(F)S(=O)(=O)O)(F)F)(C(F)(F)F)(F)F
InChI: InChI=1S/C4HF9O3S/c5-1(6,3(9,10)11)2(7,8)4(12,13)17(14,15)16/h(H,14,15,16)
Instrument: Vanquish LC, Thermo Scientific; Exploris 120 Orbitrap, Thermo Scientific
Instrument type: LC-ESI-FT
Ms type: MS2
Ion mode: NEGATIVE
Retention time: 5.55878467218876
Precursor m/z: 298.94244
Precursor type: [M-H]-
m/z	relative intensity
67.87985	7
79.95721	666
82.96043	12
86.62799	7
98.95564	128
143.95619	9
183.42949	7
201.65140	9
210.66444	8
298.94247	999
