Mass spectrum: Metformin; ESI-QTOF; MS2; CE: 10
Name: Glucophage
Name: Metformin
Class: Non-natural product; Pharmaceutical
Formula: C4H12ClN5
Exact mass: 165.07812
SMILES: Cl.CN(C)C(=N)NC(N)=N
InChI: InChI=1S/C4H11N5.ClH/c1-9(2)4(7)8-3(5)6;/h1-2H3,(H5,5,6,7,8);1H
Instrument: Agilent 6546 Q-ToF
Instrument type: ESI-QTOF
Ms type: MS2
Ion mode: POSITIVE
Ionization: ESI
Collision energy: 10
Precursor m/z: 130.1087
m/z	relative intensity
60.0553	139
60.0606	11
71.0602	449
71.0661	31
85.0508	404
85.0569	31
88.0868	385
88.0932	30
113.0823	219
113.0896	17
130.1088	999
130.1168	67
130.1588	11
