Mass spectrum: Dechlorane plus anti; GC-EI-QTOF; MS1; CE 70 V
Name: Dechlorane plus anti
Name: Anti-dodecachloropentacyclooctadecadiene
Class: Non-natural product; Flame retardant
Formula: C18H12Cl12
Exact mass: 647.7201329028
SMILES: C1C[C@@H]2[C@H](CC[C@H]3[C@@H]1[C@]4(C(=C([C@@]3(C4(Cl)Cl)Cl)Cl)Cl)Cl)[C@@]5(C(=C([C@]2(C5(Cl)Cl)Cl)Cl)Cl)Cl
InChI: InChI=1S/C18H12Cl12/c19-9-10(20)15(25)7-3-4-8-6(2-1-5(7)13(9,23)17(15,27)28)14(24)11(21)12(22)16(8,26)18(14,29)30/h5-8H,1-4H2/t5-,6-,7+,8+,13-,14-,15+,16+
Instrument: Agilent 7200 Accurate-Mass QToF GC/MS
Instrument type: GC-EI-QTOF
Ms type: MS1
Ion mode: POSITIVE
Ionization: EI
Collision energy: 0
Retention time: 14.38
m/z	relative intensity
29.0389029498461	44
35.9767663375882	69
39.0235968129633	66
41.0392457066163	262
43.9901965907943	66
51.0233004624603	42
53.0389325955749	82
54.046416433527	110
55.0545096582943	129
57.070145538697	555
65.0385766411326	81
66.0458797471417	41
67.0541920658386	373
73.0484812283563	94
74.9992462813238	54
77.0384323295859	75
79.0537525156036	392
80.0609683999755	147
81.0696453671532	125
91.0541399619441	97
93.0694746918127	56
105.069461326525	65
107.084935328555	122
117.069138148258	53
126.036309358646	47
143.061813693236	56
147.116307543776	64
169.968919993589	56
175.14765295116	81
182.978570178753	50
191.141717250588	130
200.88182239827	43
202.880026519007	62
203.88786568557	44
207.040118104791	48
213.890594563721	53
215.886789338194	72
221.133925938644	42
226.897866520464	175
228.895242534298	222
230.892033240901	105
234.843339364104	190
235.005216873738	63
235.850967532542	324
236.840969143421	309
236.954092195493	66
237.848150577847	522
237.893229750721	53
238.839091345541	198
239.845369146284	331
240.837685786216	66
240.909456551178	43
241.842273705513	98
242.908781444803	47
250.85664266504	39
251.040524483323	42
252.912943121913	66
254.911348714835	77
261.865819727633	41
262.859260591862	50
263.8640046796	69
265.860985220124	44
267.070911110231	59
267.121413289446	40
269.812144678538	512
271.809122554565	999
271.865153945172	40
272.813193558366	53
273.806417213058	779
273.867218989124	53
274.81049494437	44
275.803304334629	312
277.800791749141	77
281.053540042359	205
291.076558827002	58
294.953090475312	115
296.959199510433	240
298.955179706774	119
306.968962640888	41
308.957971207336	81
316.198008923798	512
316.699584730827	210
317.200932068189	55
342.938711618209	73
344.933396604492	118
346.931148749421	83
347.147823986374	64
367.107806222739	65
406.154178617313	58
423.169916210789	47
430.163494532748	39
449.044328246211	43
479.228725915826	72
535.296253993196	71
