Mass spectrum: 4-IMIDAZOLEACETIC ACID; LC-ESI-QFT; MS2; CE:20; [M+H]+
Name: 4-IMIDAZOLEACETIC ACID
Name: 2-(1H-imidazol-5-yl)acetic acid
Class: Non-natural product
Formula: C5H6N2O2
Exact mass: 126.04293
SMILES: C1=C(NC=N1)CC(=O)O
InChI: InChI=1S/C5H6N2O2/c8-5(9)1-4-2-6-3-7-4/h2-3H,1H2,(H,6,7)(H,8,9)
Instrument:  QExactive Plus Orbitrap
Instrument type: LC-ESI-QFT
Ms type: MS2
Ion mode: POSITIVE
Collision energy: 20
Retention time: 1.41
Precursor m/z: 127.05022
Precursor type: [M+H]+
m/z	relative intensity
54.03425	109
81.04475	999
