Mass spectrum: Tans-4,4'-Azodiphenol ; ESI-QTOF; MS2; CE: 10
Name: Tans-4,4'-Azodiphenol 
Name: 4,4'-Dihydroxyazobenzene
Class: Non-Natural Product; Industrial Chemical
Formula: C12H10N2O2
Exact mass: 214.07423
SMILES: C1=CC(=CC=C1N=NC2=CC=C(C=C2)O)O
InChI: InChI=1S/C12H10N2O2/c15-11-5-1-9(2-6-11)13-14-10-3-7-12(16)8-4-10/h1-8,15-16H
Instrument: Agilent 6546 Q-ToF
Instrument type: ESI-QTOF
Ms type: MS2
Ion mode: POSITIVE
Ionization: ESI
Collision energy: 10
Precursor m/z: 411.2067
m/z	relative intensity
86.0965	11
88.1118	34
108.0444	148
121.0507	44
130.159	21
210.0915	43
225.0895	12
225.092	21
226.1225	554
226.1331	63
227.1253	13
237.0337	88
237.0379	13
290.1543	51
318.1487	804
318.1597	48
318.1635	14
319.1538	60
319.1578	14
396.1779	25
411.2036	32
411.2064	999
411.2153	36
411.2208	69
411.2393	18
411.2496	12
412.2042	13
412.2121	33
