Mass spectrum: Prolinamide; LC-ESI-QFT; MS2; CE:20; [M+H]+
Name: Prolinamide
Name: Pyrrolidine-2-carboxamide
Class: Non-natural product; Industrial chemical
Formula: C5H10N2O
Exact mass: 114.07931
SMILES: C1CC(NC1)C(=O)N
InChI: pyrrolidine-2-carboxamide
Instrument:  QExactive Plus Orbitrap
Instrument type: LC-ESI-QFT
Ms type: MS2
Ion mode: POSITIVE
Collision energy: 20
Retention time: 1.35
Precursor m/z: 115.08665
Precursor type: [M+H]+
m/z	relative intensity
53.03900	1
55.98772	1
62.32741	1
64.13417	1
68.04955	10
68.55465	1
69.57526	1
69.84514	1
70.06525	999
105.00343	2
115.08658	89
