Mass spectrum: Butyl diphenyl phosphate; GC-EI-FT; MS; Positive
Name: Butyl diphenyl phosphate
Name: Phosphoric acid, butyl diphenyl ester
Class: Non-Natural Product; Organophosphate
Formula: C16H19O4P
Exact mass: 306.102097 
SMILES: CCCCOP(=O)(OC1=CC=CC=C1)OC2=CC=CC=C2
InChI: InChI=1S/C16H19O4P/c1-2-3-14-18-21(17,19-15-10-6-4-7-11-15)20-16-12-8-5-9-13-16/h4-13H,2-3,14H2,1H3
Instrument: Thermo Scientific Q Exactive GC Hybrid Quadrupol-Orbitrap
Instrument type: GC-EI-FT
Ms type: MS
Ion mode: POSITIVE
Base peak: 249.0311
m/z	relative intensity
51.023	13
65.0386	65
66.0464	90
77.0386	266
78.042	18
93.0336	15
94.0414	848
95.0448	55
95.0492	30
100.0074	17
104.0621	17
105.0449	20
107.0492	15
115.0544	69
117.07	144
128.0621	16
129.01	13
132.0934	23
138.9944	69
140.0022	51
141.01	20
141.0699	141
142.0733	15
142.0779	68
151.0543	27
152.0621	128
153.0655	13
155.9971	32
157.0049	27
165.01	9
165.0698	41
168.0569	141
169.0647	420
170.0681	59
170.0725	603
171.076	78
174.0075	23
175.0154	51
179.0854	9
183.0205	12
183.0806	9
215.0256	74
216.029	10
232.0285	198
233.0316	16
233.0364	40
249.0311	999
250.0393	733
251.0467	875
263.0469	80
277.0625	45
305.0939	16
306.1017	100
307.105	17
