Mass spectrum: CLPFOS; LC-ESI-FT; MS2
Name: CLPFOS
Name: 8-chloro-1,1,2,2,3,3,4,4,5,5,6,6,7,7,8,8-hexadecafluorooctane-1-sulfonic acid
Class: Non-Natural Product; New PFAS
Formula: C8HClF16O3S
Exact mass: 515.9079434
SMILES: C(C(C(C(C(F)(F)Cl)(F)F)(F)F)(F)F)(C(C(C(F)(F)S(=O)(=O)O)(F)F)(F)F)(F)F
InChI: InChI=1S/C8HClF16O3S/c9-7(22,23)5(18,19)3(14,15)1(10,11)2(12,13)4(16,17)6(20,21)8(24,25)29(26,27)28/h(H,26,27,28)
Instrument: Vanquish LC, Thermo Scientific; Exploris 120 Orbitrap, Thermo Scientific
Instrument type: LC-ESI-FT
Ms type: MS2
Ion mode: NEGATIVE
Retention time: 7.35699245588779
Precursor m/z: 514.89996
Precursor type: [M-H]-
m/z	relative intensity
79.95721	558
82.96056	13
83.54147	5
89.35823	4
98.95557	175
129.95404	5
144.53381	4
325.07156	5
375.32104	4
514.89996	999
