Mass spectrum: Chlordene Plus; EI-QTOF; MS; CE: 70
Name: Chlordene Plus
Class: Non-natural product; Flame retardant
Formula: C15H6Cl12
Exact mass: 605.6731827114
SMILES: C1C2C(C3C1C4(C(=C(C3(C4(Cl)Cl)Cl)Cl)Cl)Cl)C5(C(=C(C2(C5(Cl)Cl)Cl)Cl)Cl)Cl
InChI: InChI=1S/C15H6Cl12/c16-6-8(18)12(22)4-2(10(6,20)14(12,24)25)1-3-5(4)13(23)9(19)7(17)11(3,21)15(13,26)27/h2-5H,1H2
Instrument: Agilent 7200 Accurate-Mass QToF GC/MS
Instrument type: EI-QTOF
Ms type: MS
Ion mode: POSITIVE
Ionization: EI
Collision energy: 70
Retention time: 9.88
m/z	relative intensity
35.9767289080313	27
40.0310473757192	17
51.023395684198	16
65.0387959754971	69
66.0466236945225	999
67.0540238936435	39
100.007328358244	38
101.015270904269	101
102.005142120303	14
103.010566478919	28
106.945241688463	14
116.906056163334	23
118.903158754661	22
126.04401404752	23
134.976664819364	29
136.973418504269	17
140.905971111695	24
142.903345352434	23
160.00755754171	41
161.013879545407	21
162.007342843148	13
169.968539273649	24
171.966278987581	15
182.97654601859	13
190.92204444633	16
193.971365983772	19
194.976963441309	17
195.983576287503	63
196.980763365982	13
197.981056307986	40
200.88330929024	19
202.88008181611	25
203.929458917378	21
204.935843830841	14
205.928132340185	19
206.934420128278	13
216.937417451483	12
226.897626674919	14
228.895489037595	15
229.945272500499	97
230.951096216422	32
231.942715808137	95
232.9490400358	31
233.940358202494	30
234.84397374597	99
234.88894422169	12
235.851561519036	89
236.841247028053	165
237.848747296162	145
237.889434884426	16
238.839269339667	103
238.894306757913	18
239.84577391381	93
239.894039568582	14
240.837265373518	35
240.896058162932	15
241.842465982646	30
241.900360041116	12
260.86042967436	19
262.857243133194	32
263.906127021389	14
264.854894853539	21
264.913612319844	42
265.911654695332	22
266.911923724176	51
267.914255891622	17
268.909688678021	24
269.812793895796	230
269.860676406486	32
269.909844126016	18
270.816551930457	16
271.810225218808	451
271.864349872257	22
272.813685674949	29
273.807179591959	352
273.864936626774	28
274.810894768577	24
275.804030690887	141
275.859474118429	17
277.801017782594	33
300.888713804652	29
302.887264215869	43
304.885038441167	28
336.850890227835	15
338.84799159541	12
570.704878729718	30
572.701803887533	111
573.704381892584	20
574.699167327014	182
575.702155258092	30
576.696335164115	176
577.699180621223	29
578.693496097894	111
579.696340657867	20
580.689573247469	48
582.688351891599	16
607.670880600652	12
609.669049942298	22
611.665141898484	24
613.661781940868	17
