Mass spectrum: CAPROLACTAM; ESI-QTOF; MS2; CE: 40
Name: CAPROLACTAM
Name: 2-Perhydroazepinone
Class: Non-natural product; Industrial chemical
Formula: C6H11NO
Exact mass: 113.084063972
SMILES: OC1CCCCCN=1
InChI: InChI=1S/C6H11NO/c8-6-4-2-1-3-5-7-6/h1-5H2,(H,7,8)
Instrument: Agilent 6546 Q-ToF
Instrument type: ESI-QTOF
Ms type: MS2
Ion mode: POSITIVE
Ionization: ESI
Collision energy: 40
Precursor m/z: 114.0913
m/z	relative intensity
77.0382	999
77.0404	199
79.0544	777
80.0495	251
84.0446	219
95.0491	166
105.0456	169
