Mass spectrum: 2-(2H-Benzotriazol-2-yl)-4,6-bis(1-methyl-1-phenylethyl)phenol; LC-ESI-QTOF; MSn
Name: UV-234
Name: 2-(2H-Benzotriazol-2-yl)-4,6-bis(1-methyl-1-phenylethyl)phenol
Class: Non-Natural Product; UV Stabilizer
Formula: C30H29N3O
Exact mass: 447.231062566
SMILES: CC(C)(C1=CC=CC=C1)C1=CC(N2N=C3C=CC=CC3=N2)=C(O)C(=C1)C(C)(C)C1=CC=CC=C1
InChI: InChI=1S/C30H29N3O/c1-29(2,21-13-7-5-8-14-21)23-19-24(30(3,4)22-15-9-6-10-16-22)28(34)27(20-23)33-31-25-17-11-12-18-26(25)32-33/h5-20,34H,1-4H3
Instrument: Waters G2-S QTOF
Instrument type: LC-ESI-QTOF
Ms type: MSn
Ion mode: POSITIVE
Precursor m/z: 448.2389
Precursor type: [M+H]+
m/z	relative intensity
119.0887	243
167.1470	1
212.2057	1
240.2351	3
252.1143	31
264.1146	2
292.1455	83
321.3175	37
322.3182	7
338.3427	318
339.3460	70
340.3481	6
344.3451	2
360.3264	7
370.1924	999
372.1973	29
376.3018	1
445.3615	2
448.2396	934
449.2429	286
450.2458	42
