Mass spectrum: Dechlorane plus axx Cl10; GC-EI-QTOF; MS1; CE: 70
Name: Dechlorane plus axx Cl10
Class: Non-natural product; Flame retardant
Formula: C18H14Cl10
Exact mass: 579.7980775466
Instrument: Agilent 7200 Accurate-Mass QToF GC/MS
Instrument type: GC-EI-QTOF
Ms type: MS1
Ion mode: POSITIVE
Ionization: EI
Collision energy: 70
Retention time: 12.82
m/z	relative intensity
35.9768130856959	20
39.0236489428559	26
41.0392641587731	48
53.0389438376182	19
54.0465675062922	35
55.054554872541	22
65.0387096632637	25
66.046064974484	13
67.0542706337221	118
74.9997518335004	13
77.0385312460801	35
79.0540045323677	113
80.0612294988034	51
81.069780795238	27
82.9448725428988	10
91.0541797832566	25
93.0695210924671	22
95.0853331375423	12
105.069631310322	12
107.085179483079	20
115.054019372604	18
128.061741332411	11
136.00771113629	19
149.014416607848	27
158.974594226955	10
162.022094440345	15
165.069666229716	14
166.92173445326	10
169.968028240159	17
170.976223906518	20
172.974227511317	12
179.929453954392	14
181.92697730407	12
182.976998322636	15
192.937479683202	19
194.934791168478	19
200.882936021181	51
201.890484010066	51
202.880388459086	68
203.887640493538	67
204.877927875411	33
204.935578539182	12
205.884627554126	31
206.93894744713	11
214.897908906686	13
216.895495414571	16
227.906354860762	22
228.89661200288	12
229.903196305262	28
231.900747553881	13
235.852005779943	605
236.854285755601	31
237.023207001636	11
237.849226311546	999
238.851810935825	53
239.846132551166	621
240.848566210447	31
241.842904754831	183
241.897084191895	11
242.845973393021	10
243.840090017568	27
253.017152945979	12
272.99800263373	11
274.997427056242	11
308.975494218352	10
