Mass spectrum: 2,2-Bis(4-hydroxy-3,5-dimethylphenyl)propane; ESI-QTOF; MS2; CE: 10
Name: 2,2-Bis(4-hydroxy-3,5-dimethylphenyl)propane
Name: TMBPA
Class: Non-natural product; Industrial chemical
Formula: C19H24O2
Exact mass: 284.17763
SMILES: CC(C)(C1=CC(C)=C(O)C(C)=C1)C1=CC(C)=C(O)C(C)=C1
InChI: InChI=1S/C19H24O2/c1-11-7-15(8-12(2)17(11)20)19(5,6)16-9-13(3)18(21)14(4)10-16/h7-10,20-21H,1-6H3
Instrument: Agilent 6546 Q-ToF
Instrument type: ESI-QTOF
Ms type: MS2
Ion mode: NEGATIVE
Ionization: ESI
Collision energy: 10
Precursor m/z: 283.17035
m/z	relative intensity
161.0134	10
161.0959	10
173.0834	12
250.9976	10
283.0317	10
283.1564	29
283.1703	999
283.1817	44
283.1871	22
283.2642	412
283.2687	29
283.275	43
284.1753	26
603.9264	18
817.3758	19
890.4106	13
922.6343	11
980.0165	26
