Mass spectrum: Bis[4-(4-aminophenoxy)phenyl]sulfone; ESI-QTOF; MS2; CE: 40
Name: Bis[4-(4-aminophenoxy)phenyl]sulfone
Name: BAPS
Class: Non-Natural Product; Industrial Chemical
Formula: C24H20N2O4S
Exact mass: 432.11438
SMILES: NC1C=CC(=CC=1)OC1C=CC(=CC=1)S(=O)(=O)C1C=CC(=CC=1)OC1C=CC(N)=CC=1
InChI: InChI=1S/C24H20N2O4S/c25-17-1-5-19(6-2-17)29-21-9-13-23(14-10-21)31(27,28)24-15-11-22(12-16-24)30-20-7-3-18(26)4-8-20/h1-16H,25-26H2
Instrument: Agilent 6546 Q-ToF
Instrument type: ESI-QTOF
Ms type: MS2
Ion mode: POSITIVE
Ionization: ESI
Collision energy: 40
Precursor m/z: 433.1217
m/z	relative intensity
92.0478	85
92.05	114
93.0572	999
108.0433	367
108.045	262
129.0686	103
130.0658	123
136.0618	95
144.9276	85
145.0831	72
152.9829	90
152.99	395
156.0816	366
161.1315	111
167.0739	68
184.0759	756
184.0788	140
185.0828	421
232.0406	75
233.0488	101
268.1233	105
276.1053	186
