Mass spectrum: Sorafenib; LC-ESI-QTOF; MSn
Name: Sorafenib
Name: 4-[4-[[4-chloro-3-(trifluoromethyl)phenyl]carbamoylamino]phenoxy]-N-methylpyridine-2-carboxamide
Class: Non-Natural Product; Diarylether
Formula: C21H16ClF3N4O3
Exact mass: 464.0863026
SMILES: CNC(=O)C1=CC(OC2=CC=C(NC(=O)NC3=CC=C(Cl)C(=C3)C(F)(F)F)C=C2)=CC=N1
InChI: InChI=1S/C21H16ClF3N4O3/c1-26-19(30)18-11-15(8-9-27-18)32-14-5-2-12(3-6-14)28-20(31)29-13-4-7-17(22)16(10-13)21(23,24)25/h2-11H,1H3,(H,26,30)(H2,28,29,31)
Instrument: Waters G2-S QTOF
Instrument type: LC-ESI-QTOF
Ms type: MSn
Ion mode: POSITIVE
Precursor m/z: 465.0941
Precursor type: [M+H]+
m/z	relative intensity
134.0623	1
183.0575	3
185.0710	2
197.0072	2
199.0906	1
201.9881	74
203.9849	23
212.0535	2
225.0688	8
226.0981	32
227.0999	4
229.0619	122
237.0596	1
244.1085	21
252.0778	295
253.0808	45
269.0326	1
270.0884	231
271.0908	33
272.0936	4
274.0281	1
292.0703	1
358.1901	3
359.0339	1
360.0461	1
361.0345	1
370.0801	18
378.0635	1
386.0515	41
388.0482	13
406.0578	132
408.0545	43
445.0853	1
447.0843	99
448.0863	22
449.0826	33
450.0871	6
465.0953	999
466.0979	212
467.0924	328
468.0953	71
469.0985	9
471.1041	1
487.0768	312
488.0797	67
489.0746	104
490.0760	22
491.0713	2
503.0498	92
504.0515	20
505.0481	37
506.0521	8
507.0446	1
509.1267	2
