Mass spectrum: 5,5',6,6'-Tetramethyl-3,3'-di-tert-butyl-1,1'-biphenyl-2,2'-diol; ESI-QTOF; MS2; CE: 20
Name: 5,5',6,6'-Tetramethyl-3,3'-di-tert-butyl-1,1'-biphenyl-2,2'-diol
Name: S-BIPHEN
Class: Non-natural product; Industrial chemical
Formula: C24H34O2
Exact mass: 354.25588
SMILES: CC(C)(C)C1C=C(C)C(C)=C(C2C(O)=C(C=C(C)C=2C)C(C)(C)C)C=1O
InChI: InChI=1S/C24H34O2/c1-13-11-17(23(5,6)7)21(25)19(15(13)3)20-16(4)14(2)12-18(22(20)26)24(8,9)10/h11-12,25-26H,1-10H3
Instrument: Agilent 6546 Q-ToF
Instrument type: ESI-QTOF
Ms type: MS2
Ion mode: NEGATIVE
Ionization: ESI
Collision energy: 20
Precursor m/z: 353.2486
m/z	relative intensity
113.0226	25
335.2405	17
353.199	25
353.2486	999
353.2608	27
353.2921	12
353.3442	12
354.2529	44
