Mass spectrum: Tributyl phosphate; GC-EI-FT; MS; Positive
Name: Tributyl phosphate
Name: Tri-n-butyl phosphate
Class: Non-Natural Product; Organophosphorus flame retardant
Formula: C12H27O4P
Exact mass: 266.164696
SMILES: CCCCOP(=O)(OCCCC)OCCCC
InChI: InChI=1S/C12H27O4P/c1-4-7-10-14-17(13,15-11-8-5-2)16-12-9-6-3/h4-12H2,1-3H3
Instrument: Thermo Scientific Q Exactive GC Hybrid Quadrupol-Orbitrap
Instrument type: GC-EI-FT
Ms type: MS
Ion mode: POSITIVE
Base peak: 98.98423
m/z	relative intensity
55.05443	6
64.97878	2
80.97366	14
81.98143	14
82.98925	7
98.98423	999
110.98418	17
111.99203	5
112.99985	26
119.02579	6
125	64
127.0155	18
137.03621	39
138.03954	2
139.01562	7
153.03128	8
155.04689	83
156.05026	4
167.04691	11
183.07828	2
211.10957	25
212.11258	2
