Mass spectrum: Dechlorane plus Cl10; GC-EI-QTOF; MS; CE: 70
Name: Dechlorane plus Cl10
Class: Non-natural product; Flame retardant
Formula: C18H14Cl10
Exact mass: 579.798077
SMILES: C1CC2C(CCC3C1C4(CC3(C(=C4Cl)Cl)Cl)Cl)C5(C(=C(C2(C5(Cl)Cl)Cl)Cl)Cl)Cl
InChI: InChI=1S/C18H14Cl10/c19-10-11(20)15(24)5-14(10,23)6-1-3-8-9(4-2-7(6)15)17(26)13(22)12(21)16(8,25)18(17,27)28/h6-9H,1-5H2
Instrument: Agilent 7200 Accurate-Mass QToF GC/MS
Instrument type: GC-EI-QTOF
Ms type: MS
Ion mode: POSITIVE
Ionization: EI
Collision energy: 70
Retention time: 12.61
m/z	relative intensity
31.9902158157321	14
35.9767175400786	15
39.0236507137914	25
41.0392801124858	34
53.039002240617	21
54.0466297527257	26
55.0545615964242	15
65.0386920891496	22
67.0542638785994	64
77.0385147814678	26
79.0540011542597	69
80.0610768143765	23
81.0697086576756	17
91.0542523782736	14
115.053944532488	17
135.062417989708	12
136.00769481764	13
149.014370632567	16
158.975731232459	10
166.921655630257	54
167.929137375597	18
168.919004339288	51
169.925803162287	18
169.968142908877	10
170.916428399427	15
170.976113534868	10
201.891012583451	754
202.892919867675	39
203.888111204119	999
204.890828041267	49
204.934414365017	10
205.884921596219	457
206.888431135081	22
207.881711336182	96
234.843832841864	15
236.840819887452	23
238.837965046981	16
