Mass spectrum: Tris(2,4-di-tert-butylphenyl) phosphate; GC-EI-FT; MS; Positive
Name: Tris(2,4-di-tert-butylphenyl) phosphate
Name: Tris(2,4-ditert-butylphenyl)phosphate
Class: Non-Natural Product; Organophosphorus flame retardant
Formula: C42H63O4P
Exact mass: 662.446396
SMILES: CC(C)(C)C1=CC(=C(C=C1)OP(=O)(OC2=C(C=C(C=C2)C(C)(C)C)C(C)(C)C)OC3=C(C=C(C=C3)C(C)(C)C)C(C)(C)C)C(C)(C)C
InChI: InChI=1S/C42H63O4P/c1-37(2,3)28-19-22-34(31(25-28)40(10,11)12)44-47(43,45-35-23-20-29(38(4,5)6)26-32(35)41(13,14)15)46-36-24-21-30(39(7,8)9)27-33(36)42(16,17)18/h19-27H,1-18H3
Instrument: Thermo Scientific Q Exactive GC Hybrid Quadrupol-Orbitrap
Instrument type: GC-EI-FT
Ms type: MS
Ion mode: POSITIVE
Base peak: 647.42188
m/z	relative intensity
57.06989	63
58.07325	3
71.93526	12
71.93665	33
72.04644	4
72.04813	12
73.60596	6
93.06981	3
95.04906	3
106.07314	3
115.05423	34
146.10451	2
147.11688	57
160.12019	3
175.01552	12
175.11169	26
183.08044	3
187.01559	12
189.12744	6
197.03632	24
213.0678	3
225.03122	1
237.10394	20
263.04684	21
277.06232	2
313.09863	1
316.1991	429
317.20245	45
323.23651	2
331.10962	10
367.10938	81
407.14063	22
423.17194	69
425.17856	3
443.23456	13
459.26593	17
463.20325	12
479.23438	70
480.23785	22
535.29688	124
536.30017	41
537.30365	9
575.32813	37
576.33179	16
591.3595	130
605.37457	9
645.40686	3
647.42188	999
648.42535	444
649.42865	106
650.43158	18
662.44544	249
