Mass spectrum: UV-329; GC-EI-FT; MS; Positive
Name: UV-329
Name: 2-(2H-BENZOTRIAZOL-2-YL)-4-(1,1,3,3-TETRAMETHYLBUTYL)PHENOL
Class: Non-Natural Product; Benzotriazole
Formula: C20H25N3O
Exact mass: 323.199762
SMILES: CC(C)(C)CC(C)(C)C1=CC(=C(C=C1)O)N2N=C3C=CC=CC3=N2
InChI: InChI=1S/C20H25N3O/c1-19(2,3)13-20(4,5)14-10-11-18(24)17(12-14)23-21-15-8-6-7-9-16(15)22-23/h6-12,24H,13H2,1-5H3
Instrument: Thermo Scientific Q Exactive GC Hybrid Quadrupol-Orbitrap
Instrument type: GC-EI-FT
Ms type: MS
Ion mode: POSITIVE
Base peak: 252.11311
m/z	relative intensity
120.05566	17
133.06484	92
251.10536	19
252.11311	999
253.11658	161
254.11998	12
323.1991	29
