Mass spectrum: Bemotrizinol ; ESI-QTOF; MS2; CE: 10
Name: Bemotrizinol 
Name: Bis-ethylhexyloxyphenol Methoxyphenyl Triazine
Class: Non-natural product; UV filter
Formula: C38H49N3O5
Exact mass: 627.36722
SMILES: COC1C=CC(=CC=1)C1N=C(N=C(N=1)C1C=CC(=CC=1O)OCC(CCCC)CC)C1C=CC(=CC=1O)OCC(CCCC)CC
InChI: InChI=1S/C38H49N3O5/c1-6-10-12-26(8-3)24-45-30-18-20-32(34(42)22-30)37-39-36(28-14-16-29(44-5)17-15-28)40-38(41-37)33-21-19-31(23-35(33)43)46-25-27(9-4)13-11-7-2/h14-23,26-27,42-43H,6-13,24-25H2,1-5H3
Instrument: Agilent 6546 Q-ToF
Instrument type: ESI-QTOF
Ms type: MS2
Ion mode: POSITIVE
Ionization: ESI
Collision energy: 10
Retention time: 9.28
Precursor m/z: 628.37513
m/z	relative intensity
628.3757	999
628.4266	37
