Mass spectrum: 2,2'-Diallylbisphenol A; ESI-QTOF; MS2; CE: 10
Name: 2,2'-Diallylbisphenol A
Name: 4,4'-(Propane-2,2-diyl)bis(2-allylphenol)
Class: Non-Natural Product; Industrial Chemical
Formula: C21H24O2
Exact mass: 308.17763
SMILES: CC(C)(C1C=C(CC=C)C(O)=CC=1)C1C=C(CC=C)C(O)=CC=1
InChI: InChI=1S/C21H24O2/c1-5-7-15-13-17(9-11-19(15)22)21(3,4)18-10-12-20(23)16(14-18)8-6-2/h5-6,9-14,22-23H,1-2,7-8H2,3-4H3
Instrument: Agilent 6546 Q-ToF
Instrument type: ESI-QTOF
Ms type: MS2
Ion mode: NEGATIVE
Ionization: ESI
Collision energy: 10
Precursor m/z: 307.17035
m/z	relative intensity
292.1462	13
307.016	13
307.1707	999
307.1822	67
308.1755	15
980.0164	17
