Mass spectrum: CAPROLACTAM; ESI-QTOF; MS2; CE: 10
Name: CAPROLACTAM
Name: 2-Perhydroazepinone
Class: Non-natural product; Industrial chemical
Formula: C6H11NO
Exact mass: 113.084063972
SMILES: OC1CCCCCN=1
InChI: InChI=1S/C6H11NO/c8-6-4-2-1-3-5-7-6/h1-5H2,(H,7,8)
Instrument: Agilent 6546 Q-ToF
Instrument type: ESI-QTOF
Ms type: MS2
Ion mode: POSITIVE
Ionization: ESI
Collision energy: 10
Precursor m/z: 114.0913
m/z	relative intensity
69.0698	25
79.0539	54
96.0807	55
97.065	21
114.0914	999
114.0982	81
114.1155	11
