Mass spectrum: 4,4'-Dimethoxytrityl chloride; ESI-QTOF; MS2; CE: 10
Name: 4,4'-Dimethoxytrityl chloride
Name: DMTrCl
Class: Non-natural product; Industrial chemical
Formula: C21H19ClO2
Exact mass: 338.10736
SMILES: COC1C=CC(=CC=1)C(Cl)(C1C=CC=CC=1)C1C=CC(=CC=1)OC
InChI: InChI=1S/C21H19ClO2/c1-23-19-12-8-17(9-13-19)21(22,16-6-4-3-5-7-16)18-10-14-20(24-2)15-11-18/h3-15H,1-2H3
Instrument: Agilent 6546 Q-ToF
Instrument type: ESI-QTOF
Ms type: MS2
Ion mode: POSITIVE
Ionization: ESI
Collision energy: 10
Precursor m/z: 339.11462
m/z	relative intensity
40.7146	334
81.0344	116
83.087	344
83.0925	148
111.0547	125
127.0759	116
131.0861	143
139.0515	127
157.108	299
159.0852	156
164.92	386
164.923	219
171.1356	130
204.1382	160
271.1136	169
277.1378	151
280.1807	144
298.0933	220
298.1458	165
303.2326	344
304.3068	117
305.237	121
321.2406	495
322.3215	147
338.3423	296
339.0713	198
339.0877	148
339.0998	186
339.1063	204
339.1148	112
339.1214	306
339.1412	137
339.1699	444
339.1794	666
339.2142	123
339.2509	415
339.2868	236
339.3454	999
340.1252	162
340.4004	108
