Mass spectrum: Tris(3,5-dimethylphenyl) phosphate; GC-EI-FT; MS; Positive
Name: Tris(3,5-dimethylphenyl) phosphate
Name: Phosphoric acid, tris(3,5-dimethylphenyl) ester
Class: Non-Natural Product; Organophosphate
Formula: C24H27O4P
Exact mass: 410.164696
SMILES: CC1=CC(=CC(=C1)OP(=O)(OC2=CC(=CC(=C2)C)C)OC3=CC(=CC(=C3)C)C)C
InChI: InChI=1S/C24H27O4P/c1-16-7-17(2)11-22(10-16)26-29(25,27-23-12-18(3)8-19(4)13-23)28-24-14-20(5)9-21(6)15-24/h7-15H,1-6H3
Instrument: Thermo Scientific Q Exactive GC Hybrid Quadrupol-Orbitrap
Instrument type: GC-EI-FT
Ms type: MS
Ion mode: POSITIVE
Base peak: 193.1011
m/z	relative intensity
77.0386	226
78.042	15
78.0465	139
79.0498	10
79.0543	177
80.0576	12
93.07	27
102.0465	11
103.0543	209
104.0577	19
104.0621	81
105.07	122
106.0734	12
107.0492	101
119.0493	12
120.0571	13
121.0648	131
122.0683	11
122.0727	119
152.062	23
153.01	10
165.0698	71
166.0732	9
166.0777	18
167.0257	89
167.0855	32
168.0336	19
168.0933	18
176.062	9
178.0776	377
179.081	56
179.0854	104
180.0888	16
181.101	16
182.1089	11
183.0206	28
183.117	31
189.0698	19
190.0777	20
191.0855	124
192.0889	16
192.0933	258
193.1011	999
194.1046	157
194.109	34
195.0804	60
195.108	12
195.1169	9
196.0883	16
198.1403	20
201.0311	15
205.1012	11
206.1091	47
207.1169	126
208.1201	16
208.1248	153
209.0961	84
209.1279	23
209.1328	25
210.1041	73
211.1119	56
223.1118	40
224.1198	51
225.1278	32
255.0571	15
271.0885	96
272.0918	17
273.0677	15
281.1327	17
282.1408	30
288.0915	12
297.1641	17
304.0859	17
305.0939	49
395.1406	104
396.1442	26
409.1565	64
410.1643	508
411.1677	129
412.1709	21
