Mass spectrum: 2-Anilino-3-methyl-6-(dibutylamino)fluoran; ESI-QTOF; MS2; CE: 10
Name: 2-Anilino-3-methyl-6-(dibutylamino)fluoran
Name: 2'-anilino-6'-(dibutylamino)-3'-methylspiro[2-benzofuran-3,9'-xanthene]-1-one
Class: Non-natural product; Industrial chemical
Formula: C35H36N2O3
Exact mass: 532.27259
SMILES: CC1=CC2OC3C=C(C=CC=3C3(OC(=O)C4=CC=CC=C34)C=2C=C1NC1C=CC=CC=1)N(CCCC)CCCC
InChI: InChI=1S/C35H36N2O3/c1-4-6-19-37(20-7-5-2)26-17-18-29-33(22-26)39-32-21-24(3)31(36-25-13-9-8-10-14-25)23-30(32)35(29)28-16-12-11-15-27(28)34(38)40-35/h8-18,21-23,36H,4-7,19-20H2,1-3H3
Instrument: Agilent 6546 Q-ToF
Instrument type: ESI-QTOF
Ms type: MS2
Ion mode: POSITIVE
Ionization: ESI
Collision energy: 10
Precursor m/z: 533.27991
m/z	relative intensity
533.2801	999
533.2945	19
534.2827	44
