Mass spectrum: TCEP; GC-EI-FT; MS; Positive
Name: TCEP
Name: Tris(2-chloroethyl) phosphate
Class: Non-Natural Product; Chlorinated Phosphate Ester
Formula: C6H12Cl3O4P
Exact mass: 283.953878
SMILES: C(CCl)OP(=O)(OCCCl)OCCCl
InChI: InChI=1S/C6H12Cl3O4P/c7-1-4-11-14(10,12-5-2-8)13-6-3-9/h1-6H2
Instrument: Thermo Scientific Q Exactive GC Hybrid Quadrupol-Orbitrap
Instrument type: GC-EI-FT
Ms type: MS
Ion mode: POSITIVE
Base peak: 283.953878
m/z	relative intensity
51.23851	7
51.73778	5
53.03859	9
55.74108	4
56.24043	2
57.03359	3
61.99186	24
62.2449	9
62.74416	5
62.96314	3
62.99968	215
63.98893	8
64.97875	6
64.99674	72
71.04921	9
76.97882	2
78.9945	6
79.05422	2
80.97373	71
81.98153	3
82.94486	2
82.98926	3
89.01534	57
90.99448	3
91.01244	17
92.97372	12
94.9894	4
98.98428	594
100.98854	4
106.98935	9
109.00506	5
110.98428	4
112.99994	4
116.95044	539
118.94752	173
118.95461	3
122.98441	11
123.99216	11
125.00001	650
126.0034	14
127.0042	5
134.91663	41
136.91364	28
136.99991	12
138.91078	5
139.01564	3
142.96606	992
143.96941	21
144.96312	320
144.9698	7
145.96658	7
151.01561	205
152.01892	8
158.96079	6
160.93221	10
160.95805	3
160.97665	417
161.98	8
162.92915	7
162.97365	132
162.98027	3
170.99728	3
172.97673	6
186.99223	702
187.99556	30
188.98935	224
188.99701	4
189.9926	9
204.95844	879
205.96172	37
206.95549	569
207.95877	25
208.95255	88
209.95573	3
213.008	17
215.00491	5
222.96898	501
223.97241	22
224.96605	322
225.96944	14
226.96315	50
226.97023	3
234.96904	45
235.97231	3
236.96613	29
238.96314	5
248.98471	999
249.9881	65
250.98184	632
251.98512	42
252.97888	102
252.98596	4
253.98256	6
284.96127	3
