Mass spectrum: Octrizole; LC-ESI-QTOF; MSn
Name: Octrizole
Name: UV-329
Class: Non-Natural Product; UV stabilizer
Formula: C20H25N3O
Exact mass: 323.199762437
SMILES: CC(C)(C)CC(C)(C)C1=CC(N2N=C3C=CC=CC3=N2)=C(O)C=C1
InChI: InChI=1S/C20H25N3O/c1-19(2,3)13-20(4,5)14-10-11-18(24)17(12-14)23-21-15-8-6-7-9-16(15)22-23/h6-12,24H,13H2,1-5H3
Instrument: Waters G2-S QTOF
Instrument type: LC-ESI-QTOF
Ms type: MSn
Ion mode: POSITIVE
Precursor m/z: 324.2076
Precursor type: [M+H]+
m/z	relative intensity
108.2272	1
212.0840	124
249.1985	2
274.0992	43
297.1964	3
299.9223	1
301.7130	1
302.0581	1
324.2084	999
325.2106	235
