Mass spectrum: 4,4'-(4-Methylpentane-2,2-diyl)diphenol; ESI-QTOF; MS2; CE: 40
Name: 4,4'-(4-Methylpentane-2,2-diyl)diphenol
Name: Bis_MIBK
Class: Non-natural product; Additive
Formula: C18H22O2
Exact mass: 270.16198
SMILES: CC(C)CC(C)(C1C=CC(O)=CC=1)C1C=CC(O)=CC=1
InChI: InChI=1S/C18H22O2/c1-13(2)12-18(3,14-4-8-16(19)9-5-14)15-6-10-17(20)11-7-15/h4-11,13,19-20H,12H2,1-3H3
Instrument: Agilent 6546 Q-ToF
Instrument type: ESI-QTOF
Ms type: MS2
Ion mode: NEGATIVE
Ionization: ESI
Collision energy: 40
Precursor m/z: 269.15469
m/z	relative intensity
95.0511	37
117.0351	99
132.0577	41
133.0667	51
160.0907	45
175.1142	90
210.069	46
211.0767	999
211.0856	77
219.8607	36
