Mass spectrum: N,N-Bis(4-tert-octylphenyl)amine; LC-ESI-QTOF; MSn
Name: N,N-Bis(4-tert-octylphenyl)amine
Name: 4-(2,4,4-trimethylpentan-2-yl)-N-[4-(2,4,4-trimethylpentan-2-yl)phenyl]aniline
Class: Non-Natural Product; Industrial chemical
Formula: C28H43N
Exact mass: 393.339550389
SMILES: CC(C)(C)CC(C)(C)C1=CC=C(NC2=CC=C(C=C2)C(C)(C)CC(C)(C)C)C=C1
InChI: InChI=1S/C28H43N/c1-25(2,3)19-27(7,8)21-11-15-23(16-12-21)29-24-17-13-22(14-18-24)28(9,10)20-26(4,5)6/h11-18,29H,19-20H2,1-10H3
Instrument: Waters G2-S QTOF
Instrument type: LC-ESI-QTOF
Ms type: MSn
Ion mode: POSITIVE
Precursor m/z: 394.3474
Precursor type: [M+H]+
m/z	relative intensity
134.0987	175
210.1274	3
220.1127	2
222.1269	1
235.1352	3
236.1438	29
237.1471	5
250.1598	62
251.1669	92
252.1708	16
253.1732	1
281.2131	3
282.2196	3
308.2366	1
322.2542	409
323.2572	137
324.2601	15
336.2658	2
378.3151	3
393.3395	120
394.3497	999
395.3511	480
396.3532	55
397.0412	2
397.3559	3
