Mass spectrum: Dodecylphenol; LC-ESI-QFT; MS2; CE:20; [M-H]-
Name: Dodecylphenol
Name: p-Dodecylphenol
Class: Non-natural product; Industrial chemical
Formula: C18H30O
Exact mass: 262.22975
SMILES: CCCCCCCCCCCCC1=CC=C(C=C1)O
InChI: InChI=1S/C18H30O/c1-2-3-4-5-6-7-8-9-10-11-12-17-13-15-18(19)16-14-17/h13-16,19H,2-12H2,1H3
Instrument:  QExactive Plus Orbitrap
Instrument type: LC-ESI-QFT
Ms type: MS2
Ion mode: NEGATIVE
Collision energy: 20
Retention time: 18.85
Precursor m/z: 261.22247
Precursor type: [M-H]-
m/z	relative intensity
68.81802	999
