Mass spectrum: Di-n-pentyl phthalate; GC-EI-FT; MS; Positive
Name: Di-n-pentyl phthalate
Name: dipentyl benzene-1,2-dicarboxylate
Class: Non-Natural Product; Phthalate
Formula: C18H26O4
Exact mass: 306.18311
SMILES: CCCCCOC(=O)C1=CC=CC=C1C(=O)OCCCCC
InChI: InChI=1S/C18H26O4/c1-3-5-9-13-21-17(19)15-11-7-8-12-16(15)18(20)22-14-10-6-4-2/h7-8,11-12H,3-6,9-10,13-14H2,1-2H3
Instrument: Thermo Scientific Q Exactive GC Hybrid Quadrupol-Orbitrap
Instrument type: GC-EI-FT
Ms type: MS
Ion mode: POSITIVE
Base peak: 149.02344
m/z	relative intensity
104.0257	8
105.03365	10
121.02855	21
122.03618	5
123.04401	5
149.02344	999
150.02673	88
167.03389	3
176.04677	3
219.10176	12
237.11231	24
238.11569	3
