Mass spectrum: Bisphenol M; LC-ESI-QFT; MS2; CE:20; [M-H]-
Name: Bisphenol-M
Name: 4-[2-[3-[2-(4-hydroxyphenyl)propan-2-yl]phenyl]propan-2-yl]phenol
Class: Non-natural product; Additive 
Formula: C24H26O2
Exact mass: 346.19359
SMILES: CC(C)(C1=CC=C(C=C1)O)C2=CC(=CC=C2)C(C)(C)C3=CC=C(C=C3)O
InChI: InChI=1S/C24H26O2/c1-23(2,17-8-12-21(25)13-9-17)19-6-5-7-20(16-19)24(3,4)18-10-14-22(26)15-11-18/h5-16,25-26H,1-4H3
Instrument:  QExactive Plus Orbitrap
Instrument type: LC-ESI-QFT
Ms type: MS2
Ion mode: NEGATIVE
Collision energy: 20
Retention time: 16.62
Precursor m/z: 345.18631
Precursor type: [M-H]-
m/z	relative intensity
60.97495	585
90.98587	146
133.06596	289
295.24643	999
