Mass spectrum: 4,4-Bisphenol S; LC-ESI-QFT; MS2; CE:20; [M-H]-
Name: 4,4-Bisphenol S
Name: 4-(4-hydroxyphenyl)sulfonylphenol
Class: Non-natural product; Additive 
Formula: C12H10O4S
Exact mass: 250.03006
SMILES: C1=CC(=CC=C1O)S(=O)(=O)C2=CC=C(C=C2)O
InChI: InChI=1S/C12H10O4S/c13-9-1-5-11(6-2-9)17(15,16)12-7-3-10(14)4-8-12/h1-8,13-14H
Instrument:  QExactive Plus Orbitrap
Instrument type: LC-ESI-QFT
Ms type: MS2
Ion mode: NEGATIVE
Collision energy: 20
Retention time: 11.1405041333333
Precursor m/z: 249.02278
Precursor type: [M-H]-
m/z	relative intensity
63.96231	16
108.02180	999
