Mass spectrum: Tris-biphenyl triazine; ESI-QTOF; MS2; CE: 40
Name: Tris-biphenyl triazine
Name: 2,4,6-tri([1,1'-biphenyl]-4-yl)-1,3,5-triazine
Class: Non-natural product; UV filter
Formula: C39H27N3
Exact mass: 537.2205
SMILES: C1=CC(=CC=C1C1N=C(N=C(N=1)C1C=CC(=CC=1)C1C=CC=CC=1)C1C=CC(=CC=1)C1C=CC=CC=1)C1C=CC=CC=1
InChI: InChI=1S/C39H27N3/c1-4-10-28(11-5-1)31-16-22-34(23-17-31)37-40-38(35-24-18-32(19-25-35)29-12-6-2-7-13-29)42-39(41-37)36-26-20-33(21-27-36)30-14-8-3-9-15-30/h1-27H
Instrument: Agilent 6546 Q-ToF
Instrument type: ESI-QTOF
Ms type: MS2
Ion mode: NEGATIVE
Ionization: ESI
Collision energy: 40
Precursor m/z: 536.2132
m/z	relative intensity
90.0474	660
161.0632	777
188.9401	609
297.2899	489
468.1134	999
