Mass spectrum: 2,2-Bis[4-(4-aminophenoxy)phenyl]propane; ESI-QTOF; MS2; CE: 10
Name: 2,2-Bis[4-(4-aminophenoxy)phenyl]propane
Name: BAPP
Class: Non-Natural Product; Industrial Chemical
Formula: C27H26N2O2
Exact mass: 410.19943
SMILES: CC(C)(C1C=CC(=CC=1)OC1C=CC(N)=CC=1)C1C=CC(=CC=1)OC1C=CC(N)=CC=1
InChI: InChI=1S/C27H26N2O2/c1-27(2,19-3-11-23(12-4-19)30-25-15-7-21(28)8-16-25)20-5-13-24(14-6-20)31-26-17-9-22(29)10-18-26/h3-18H,28-29H2,1-2H3
Instrument: Agilent 6546 Q-ToF
Instrument type: ESI-QTOF
Ms type: MS2
Ion mode: POSITIVE
Ionization: ESI
Collision energy: 10
Precursor m/z: 411.2067
m/z	relative intensity
86.0965	11
88.1118	34
108.0444	148
121.0507	44
130.159	21
210.0915	43
225.0895	12
225.092	21
226.1225	554
226.1331	63
227.1253	13
237.0337	88
237.0379	13
290.1543	51
318.1487	804
318.1597	48
318.1635	14
319.1538	60
319.1578	14
396.1779	25
411.2036	32
411.2064	999
411.2153	36
411.2208	69
411.2393	18
411.2496	12
412.2042	13
412.2121	33
