Mass spectrum: Bisphenol A dimethacrylate; ESI-QTOF; MS2; CE: 10
Name: Bisphenol A dimethacrylate
Name: 4,4'-Isopropylidenediphenol dimethacrylate
Class: Non-natural product; Industrial chemical
Formula: C23H24O4
Exact mass: 364.16746
SMILES: CC(C)(C1C=CC(=CC=1)OC(=O)C(C)=C)C1C=CC(=CC=1)OC(=O)C(C)=C
InChI: InChI=1S/C23H24O4/c1-15(2)21(24)26-19-11-7-17(8-12-19)23(5,6)18-9-13-20(14-10-18)27-22(25)16(3)4/h7-14H,1,3H2,2,4-6H3
Instrument: Agilent 6546 Q-ToF
Instrument type: ESI-QTOF
Ms type: MS2
Ion mode: POSITIVE
Ionization: ESI
Collision energy: 10
Precursor m/z: 365.17474
m/z	relative intensity
69.0326	77
94.0733	84
164.081	94
203.0537	113
203.1053	999
203.1105	140
221.1513	74
231.1393	80
307.2124	90
321.69	178
347.2332	91
348.1518	153
356.7192	115
365.1039	846
365.2202	147
365.2571	174
365.3	168
365.7372	68
403.137	87
423.2273	76
443.257	83
488.2998	91
802.132	68
829.1499	278
829.1698	89
889.565	124
896.1748	136
903.5596	76
922.0179	114
