Mass spectrum: Triethylphosphate; GC-EI-FT; MS; Positive
Name: Triethylphosphate
Name: Tris(ethyl) phosphate
Class: Non-Natural Product; Organophosphorus flame retardant
Formula: C6H15O4P
Exact mass: 182.070796
SMILES: CCOP(=O)(OCC)OCC
InChI: InChI=1S/C6H15O4P/c1-4-8-11(7,9-5-2)10-6-3/h4-6H2,1-3H3
Instrument: Thermo Scientific Q Exactive GC Hybrid Quadrupol-Orbitrap
Instrument type: GC-EI-FT
Ms type: MS
Ion mode: POSITIVE
Base peak: 98.98418 
m/z	relative intensity
31.75383	1
39.02285	1
42.00995	1
43.01777	10
44.02561	2
45.03346	38
46.03677	1
46.9683	11
47.97612	1
57.03345	1
62.96303	9
63.9709	1
64.97868	28
65.98653	2
78.99429	1
80.97049	2
80.97361	261
80.97675	2
81.97826	1
81.98144	186
82.97783	2
82.98595	1
82.98927	117
83.98569	1
84.9935	1
88.97872	1
90.99435	109
91.9977	2
92.97363	4
93.00994	1
94.01786	2
94.98923	2
96.96851	2
97.97643	1
98.97868	2
98.97996	6
98.98418	999
98.98742	7
98.98843	7
99.98835	2
100.9884	9
106.98927	1
109.00492	180
109.0098	1
110.00829	4
110.01273	6
110.98416	31
111.00922	1
111.02055	57
112.02403	1
112.99978	7
124.99982	78
126.0032	2
126.00761	3
127.00407	1
127.01547	299
127.02166	2
128.01881	6
129.01968	3
137.03616	1
138.04402	7
139.01546	40
140.01865	1
153.03114	7
155.04675	171
156.0501	8
157.05087	2
167.04672	1
181.06235	1
