Mass spectrum: 4-Octylphenol; LC-ESI-QFT; MS2; CE:20; [M-H]-
Name: 4-Octylphenol
Name: p-Octylphenol
Class: Non-natural product; Industrial chemical 
Formula: C14H22O
Exact mass: 206.16710
SMILES: CCCCCCCCC1=CC=C(C=C1)O
InChI: InChI=1S/C14H22O/c1-2-3-4-5-6-7-8-13-9-11-14(15)12-10-13/h9-12,15H,2-8H2,1H3
Instrument:  QExactive Plus Orbitrap
Instrument type: LC-ESI-QFT
Ms type: MS2
Ion mode: NEGATIVE
Collision energy: 20
Retention time: 17.3608273333333
Precursor m/z: 205.15982
Precursor type: [M-H]-
m/z	relative intensity
53.66591	3
54.32630	3
66.70103	3
69.97179	4
96.61292	3
106.04257	99
108.02176	14
119.04969	5
122.69498	3
138.03212	9
180.53166	3
188.86345	3
189.12837	6
190.86987	4
205.15990	999
