Mass spectrum: UV-320; LC-ESI-QTOF; MSn
Name: 2-(2'-Hydroxy-3',5'-di-tert-butylphenyl)benzotriazole
Name: UV-320
Class: Non-Natural Product; UV Stabilizer
Formula: C20H25N3O
Exact mass: 323.199762437
SMILES: CC(C)(C)C1=CC(N2N=C3C=CC=CC3=N2)=C(O)C(=C1)C(C)(C)C
InChI: InChI=1S/C20H25N3O/c1-19(2,3)13-11-14(20(4,5)6)18(24)17(12-13)23-21-15-9-7-8-10-16(15)22-23/h7-12,24H,1-6H3
Instrument: Waters G2-S QTOF
Instrument type: LC-ESI-QTOF
Ms type: MSn
Ion mode: POSITIVE
Precursor m/z: 324.2076
Precursor type: [M+H]+
m/z	relative intensity
210.0936	1
212.0829	82
222.8844	1
223.2128	1
249.1040	1
268.1459	301
269.1492	10
300.0857	1
324.2080	999
325.2110	194
