Mass spectrum: Dechlorane 604B; GC-EI-QTOF; MS1; CE 70 V
Name: Dechlorane 604B
Name: 1,2,3,4,7,7-Hexachloro-5-(2,4,6-tribromophenyl)bicyclo[2.2.1]hept-2-ene
Class: Non-natural product; Flame retardant
Formula: C13H5Br3Cl6
Exact mass: 607.6072551195
SMILES: C1C(C2(C(=C(C1(C2(Cl)Cl)Cl)Cl)Cl)Cl)C3=C(C=C(C=C3Br)Br)Br
InChI: InChI=1S/C13H5Br3Cl6/c14-4-1-6(15)8(7(16)2-4)5-3-11(19)9(17)10(18)12(5,20)13(11,21)22/h1-2,5H,3H2
Instrument: Agilent 7200 Accurate-Mass QToF GC/MS
Instrument type: GC-EI-QTOF
Ms type: MS1
Ion mode: POSITIVE
Ionization: EI
Collision energy: 70
Retention time: 9.99
m/z	relative intensity
35.9767754136526	33
50.0156213715601	25
51.0234348724572	45
62.0152921050901	16
74.0152777891546	97
75.0235054763248	109
79.9255368048483	16
86.0150515811895	28
87.0229857587817	33
98.0135138551951	23
99.0227795429575	34
100.030352383847	39
101.038667030335	146
102.045327115704	28
114.983412401682	17
115.486918578524	33
116.486214568245	20
116.905979108521	23
118.90293621084	22
132.468081593265	34
133.467557846596	32
140.906133273128	31
142.903643719528	31
150.454967878344	26
151.454670440755	31
161.038704794202	26
164.906294735269	16
172.430744098371	24
173.430029575365	44
174.428614887655	27
179.957174883316	174
180.958534720568	29
181.95529766575	165
182.959732788337	22
190.410705315797	20
195.000139608867	31
202.880224316928	17
212.385870287414	20
213.384654943446	23
213.890633579474	85
215.887953836618	94
217.885233992949	42
230.976186094005	58
232.973858345541	37
234.844571496878	112
235.851088142502	17
236.84153466333	182
237.847658893656	26
238.838492047362	114
239.844799199214	16
240.83539615948	35
248.859792863818	59
250.856903645298	89
252.853871759695	54
258.875425813954	58
259.878915743544	30
260.873624252536	116
261.879625145629	50
262.87213663072	57
263.87866203549	23
264.937512751273	33
266.936353079184	33
269.814071373707	29
271.810849219253	58
273.807293625177	48
275.804125701594	18
280.836233128212	18
282.834320550444	43
284.832033639711	30
337.794663705044	277
338.796575188195	23
339.794170427015	814
340.795544358917	71
341.792070620105	800
342.793348899637	67
343.788644995538	264
344.791609963933	21
344.861781092288	25
346.86132850597	45
348.85893540436	28
358.748157797204	296
359.750403542291	20
360.74813619103	907
361.7489440137	67
362.746781944582	999
363.746919254594	80
364.742161219422	569
365.744296174044	37
366.738552818475	79
390.811118623114	32
392.808955100411	28
424.773245456807	24
426.771443423646	27
532.685156427971	26
534.682662148772	22
609.605575913215	21
611.603582807507	45
613.600576511055	52
615.598230996043	37
617.59519409351	16
