Mass spectrum: 2,2-Bis(4-(3,4-dicarboxyphenoxy)phenyl)propane dianhydride; ESI-QTOF; MS2; CE: 10
Name: 2,2-Bis(4-(3,4-dicarboxyphenoxy)phenyl)propane dianhydride
Name: BPA_dianhydride
Class: Non-Natural Product; Industrial Chemical
Formula: C31H20O8
Exact mass: 520.11582
SMILES: CC(C)(C1C=CC(=CC=1)OC1=CC2=C(C=C1)C(=O)OC2=O)C1C=CC(=CC=1)OC1=CC2=C(C=C1)C(=O)OC2=O
InChI: InChI=1S/C31H20O8/c1-31(2,17-3-7-19(8-4-17)36-21-11-13-23-25(15-21)29(34)38-27(23)32)18-5-9-20(10-6-18)37-22-12-14-24-26(16-22)30(35)39-28(24)33/h3-16H,1-2H3
Instrument: Agilent 6546 Q-ToF
Instrument type: ESI-QTOF
Ms type: MS2
Ion mode: POSITIVE
Ionization: ESI
Collision energy: 10
Precursor m/z: 521.12311
m/z	relative intensity
433.7344	784
454.1693	631
521.2557	999
