Mass spectrum: Bisphenol E; LC-ESI-QFT; MS2; CE:20; [M-H]-
Name: Bisphenol E
Name: 4-[1-(4-hydroxyphenyl)ethyl]phenol
Class: Non-natural product; Additive 
Formula: C14H14O2
Exact mass: 214.09946
SMILES: CC(C1=CC=C(C=C1)O)C2=CC=C(C=C2)O
InChI: InChI=1S/C14H14O2/c1-10(11-2-6-13(15)7-3-11)12-4-8-14(16)9-5-12/h2-10,15-16H,1H3
Instrument:  QExactive Plus Orbitrap
Instrument type: LC-ESI-QFT
Ms type: MS2
Ion mode: NEGATIVE
Collision energy: 20
Retention time: 14.28
Precursor m/z: 213.09218
Precursor type: [M-H]-
m/z	relative intensity
63.96228	999
119.05027	623
147.10117	368
