Mass spectrum: Iscotrizinol; ESI-QTOF; MS2; CE: 40; [M+H]+
Name: Iscotrizinol
Name: 2-ethylhexyl 4-[[4-[4-(tert-butylcarbamoyl)anilino]-6-[4-(2-ethylhexoxycarbonyl)anilino]-1,3,5-triazin-2-yl]amino]benzoate
Class: Non-natural product; UV filter
Formula: C44H59N7O5
Exact mass: 765.45777
SMILES: CC(C)(C)NC(=O)C1C=CC(=CC=1)NC1N=C(NC2C=CC(=CC=2)C(=O)OCC(CCCC)CC)N=C(NC2C=CC(=CC=2)C(=O)OCC(CCCC)CC)N=1
InChI: InChI=1S/C44H59N7O5/c1-8-12-14-30(10-3)28-55-39(53)33-18-24-36(25-19-33)46-42-48-41(45-35-22-16-32(17-23-35)38(52)51-44(5,6)7)49-43(50-42)47-37-26-20-34(21-27-37)40(54)56-29-31(11-4)15-13-9-2/h16-27,30-31H,8-15,28-29H2,1-7H3,(H,51,52)(H3,45,46,47,48,49,50)
Instrument: Agilent 6546 Q-ToF
Instrument type: ESI-QTOF
Ms type: MS2
Ion mode: POSITIVE
Ionization: ESI
Collision energy: 40
Retention time: 5.959
Precursor m/z: 766.46503
Precursor type: [M+H]+
m/z	relative intensity
325.0935	11
450.129	12
453.1308	15
468.142	53
469.1253	28
475.2693	10
486.1536	12
524.2054	18
542.2158	25
565.2546	14
580.2682	37
581.2509	30
636.3297	59
654.3411	126
655.3454	11
693.3774	70
693.3936	16
710.3998	10
766.4668	999
766.5228	44
767.4688	75
