Mass spectrum: 1-3-Di-tolylguanidine; ESI-QTOF; MS2; CE: 40
Name: 1-3-Di-tolylguanidine
Name: 1,2-bis(2-methylphenyl)guanidine
Class: Non-natural product; Industrial chemical
Formula: C15H17N3
Exact mass: 239.14225
SMILES: CC1=CC=CC=C1NC(=N)NC1=CC=CC=C1C
InChI: InChI=1S/C15H17N3/c1-11-7-3-5-9-13(11)17-15(16)18-14-10-6-4-8-12(14)2/h3-10H,1-2H3,(H3,16,17,18)
Instrument: Agilent 6546 Q-ToF
Instrument type: ESI-QTOF
Ms type: MS2
Ion mode: POSITIVE
Ionization: ESI
Collision energy: 40
Precursor m/z: 240.14951
m/z	relative intensity
65.0387	11
77.0374	12
77.0384	42
79.054	118
89.0385	138
91.0542	716
91.0607	68
93.0574	405
93.0623	13
93.0644	19
104.0495	22
106.0651	999
106.0721	93
108.0807	365
108.088	35
116.0494	586
116.0566	36
116.058	17
117.0571	55
118.0523	56
118.0652	31
118.0666	14
131.0605	14
132.0681	88
133.0759	210
133.084	16
134.0605	15
208.099	11
223.124	12
