Mass spectrum: PFHPA; LC-ESI-FT; MS2
Name: PFHPA
Name: 2,2,3,3,4,4,5,5,6,6,7,7,7-tridecafluoroheptanoic acid
Class: Non-Natural Product; Perfluoroalkyl carboxylic acid
Formula: C7HF13O2
Exact mass: 363.9768954
SMILES: C(=O)(C(C(C(C(C(C(F)(F)F)(F)F)(F)F)(F)F)(F)F)(F)F)O
InChI: InChI=1S/C7HF13O2/c8-2(9,1(21)22)3(10,11)4(12,13)5(14,15)6(16,17)7(18,19)20/h(H,21,22)
Instrument: Vanquish LC, Thermo Scientific; Exploris 120 Orbitrap, Thermo Scientific
Instrument type: LC-ESI-FT
Ms type: MS2
Ion mode: NEGATIVE
Retention time: 5.93397260762056
Precursor m/z: 362.96906
Precursor type: [M-H]-
m/z	relative intensity
56.18586	34
62.89724	29
68.99612	41
70.83067	28
82.30859	30
100.80190	31
118.99253	314
134.37556	32
168.98920	999
187.17934	32
213.75392	29
318.97900	921
