Mass spectrum: Phenol, 4,4'-sulfonylbis[2-(2-propenyl)-; ESI-QTOF; MS2; CE: 40
Name: Phenol, 4,4'-sulfonylbis[2-(2-propenyl)-
Name: TGSH
Class: Non-natural product; Industrial chemical
Formula: C18H18O4S
Exact mass: 330.09258
SMILES: C=CCC1=CC(=CC=C1O)S(=O)(=O)C1C=C(CC=C)C(O)=CC=1
InChI: InChI=1S/C18H18O4S/c1-3-5-13-11-15(7-9-17(13)19)23(21,22)16-8-10-18(20)14(12-16)6-4-2/h3-4,7-12,19-20H,1-2,5-6H2
Instrument: Agilent 6546 Q-ToF
Instrument type: ESI-QTOF
Ms type: MS2
Ion mode: POSITIVE
Ionization: ESI
Collision energy: 40
Precursor m/z: 331.09985
m/z	relative intensity
65.0379	16
73.047	11
73.0638	10
77.0383	384
78.0453	12
79.0541	999
79.0598	62
83.088	13
84.081	16
89.038	12
91.0538	82
93.0315	14
93.0328	58
95.0866	10
97.0104	19
97.0761	12
103.0544	486
103.0575	14
103.062	16
105.0445	62
105.0699	526
105.0748	12
105.0773	31
107.0494	23
109.0272	30
112.0891	13
115.0545	235
116.0534	12
118.0403	10
119.0502	18
120.0826	10
121.0383	13
128.9543	14
129.0711	13
131.0486	79
131.0502	30
132.0602	24
133.0647	191
145.0631	28
149.0598	134
150.0701	14
152.0628	11
156.9967	16
157.0018	10
157.087	11
162.0078	28
171.1019	21
178.0755	13
178.0783	18
198.0661	17
198.0761	13
207.0335	24
210.954	11
315.1829	12
