Mass spectrum: PFECHS; LC-ESI-FT; MS2
Name: PFECHS
Name: 1,2,2,3,3,4,5,5,6,6-decafluoro-4-(1,1,2,2,2-pentafluoroethyl)cyclohexane-1-sulfonic acid
Class: Non-Natural Product; New PFAS
Formula: C8HF15O3S
Exact mass: 461.9406875
SMILES: C1(C(C(C(C(C1(F)F)(F)F)(F)S(=O)(=O)O)(F)F)(F)F)(C(C(F)(F)F)(F)F)F
InChI: InChI=1S/C8HF15O3S/c9-1(4(14,15)8(21,22)23)2(10,11)5(16,17)7(20,27(24,25)26)6(18,19)3(1,12)13/h(H,24,25,26)
Instrument: Vanquish LC, Thermo Scientific; Exploris 120 Orbitrap, Thermo Scientific
Instrument type: LC-ESI-FT
Ms type: MS2
Ion mode: NEGATIVE
Retention time: 6.85994373715719
Precursor m/z: 460.93262
Precursor type: [M-H]-
m/z	relative intensity
51.15618	5
68.99566	23
69.60473	4
72.06268	5
98.95560	745
118.99285	7
129.95035	4
284.48788	4
330.97800	5
380.97632	183
460.93286	999
