Mass spectrum: Cyclo-di-BADGE; ESI-QTOF; MS2; CE: 10
Name: Cyclo-di-BADGE
Name: 2,2,10,10-Tetramethyl-4,8,12,16-tetraoxa-1,3,9,11(1,4)-tetrabenzenacyclohexadecaphane-6,14-diol
Class: Non-natural product; Additive
Formula: C36H40O6
Exact mass: 568.28249
SMILES: CC1(C)C2C=CC(=CC=2)OCC(O)COC2C=CC(=CC=2)C(C)(C)C2C=CC(=CC=2)OCC(O)COC2C=CC1=CC=2
InChI: InChI=1S/C36H40O6/c1-35(2)25-5-13-31(14-6-25)39-21-29(37)23-41-33-17-9-27(10-18-33)36(3,4)28-11-19-34(20-12-28)42-24-30(38)22-40-32-15-7-26(35)8-16-32/h5-20,29-30,37-38H,21-24H2,1-4H3
Instrument: Agilent 6546 Q-ToF
Instrument type: ESI-QTOF
Ms type: MS2
Ion mode: POSITIVE
Ionization: ESI
Collision energy: 10
Precursor m/z: 586.32629
m/z	relative intensity
74.0948	11
83.0604	17
88.0758	21
88.1117	99
88.1132	15
97.0647	11
97.0762	36
101.096	19
102.1268	22
121.05	71
121.0526	15
130.1583	10
133.065	27
135.0799	68
135.0814	38
137.1053	10
145.576	13
170.1535	12
183.1604	15
183.1631	23
195.1424	10
285.1488	11
304.6579	11
325.1807	83
343.703	13
419.2152	18
419.2242	50
475.2472	20
551.5045	10
554.1311	10
569.2902	999
569.3048	122
570.2057	14
570.291	32
586.316	649
586.3208	67
586.3323	63
586.4765	10
587.3209	15
