Mass spectrum: 4-nonylphenol; LC-ESI-QFT; MS2; CE:20; [M-H]-
Name: 4-nonylphenol
Name: p-Nonylphenol
Class: Non-natural product; Additive 
Formula: C15H24O
Exact mass: 220.18285
SMILES: CCCCCCCCCC1=CC=C(C=C1)O
InChI: InChI=1S/C15H24O/c1-2-3-4-5-6-7-8-9-14-10-12-15(16)13-11-14/h10-13,16H,2-9H2,1H3
Instrument:  QExactive Plus Orbitrap
Instrument type: LC-ESI-QFT
Ms type: MS2
Ion mode: NEGATIVE
Collision energy: 20
Retention time: 17.69980075
Precursor m/z: 219.17557
Precursor type: [M-H]-
m/z	relative intensity
57.80059	1
61.98824	9
67.58984	1
68.66651	6
68.81685	1
74.77667	1
90.20917	1
106.04256	86
107.05029	2
108.02192	16
119.05004	6
133.06590	2
138.03239	8
149.07051	1
160.32840	1
172.88388	3
176.28816	1
177.98840	1
186.87811	1
219.17557	999
