Mass spectrum: Dimantine; ESI-QTOF; MS2; CE: 40
Name: Stearyldimethylamine
Name: Dimantine
Class: Non-natural product; Industrial chemical
Formula: C20H43N
Exact mass: 297.33955
SMILES: CCCCCCCCCCCCCCCCCCN(C)C
InChI: InChI=1S/C20H43N/c1-4-5-6-7-8-9-10-11-12-13-14-15-16-17-18-19-20-21(2)3/h4-20H2,1-3H3
Instrument: Agilent 6546 Q-ToF
Instrument type: ESI-QTOF
Ms type: MS2
Ion mode: POSITIVE
Ionization: ESI
Collision energy: 40
Precursor m/z: 298.3468
m/z	relative intensity
41.0381	13
55.0537	42
57.0695	171
57.0752	12
69.0603	11
69.07	23
70.0653	15
71.0796	12
71.0854	999
71.0903	27
71.0922	46
77.039	18
81.0697	25
85.101	333
87.0439	10
97.0648	11
117.0709	12
119.0336	17
121.0577	11
142.1589	16
147.0431	12
154.0878	18
166.0745	13
170.1914	14
174.1284	12
174.1333	13
175.0793	10
184.2036	10
212.2337	14
298.3467	465
298.357	59
299.3515	28
