Mass spectrum: Cyclo-di-BADGE; ESI-QTOF; MS2; CE: 20
Name: Cyclo-di-BADGE
Name: 2,2,10,10-Tetramethyl-4,8,12,16-tetraoxa-1,3,9,11(1,4)-tetrabenzenacyclohexadecaphane-6,14-diol
Class: Non-natural product; Additive
Formula: C36H40O6
Exact mass: 568.28249
SMILES: CC1(C)C2C=CC(=CC=2)OCC(O)COC2C=CC(=CC=2)C(C)(C)C2C=CC(=CC=2)OCC(O)COC2C=CC1=CC=2
InChI: InChI=1S/C36H40O6/c1-35(2)25-5-13-31(14-6-25)39-21-29(37)23-41-33-17-9-27(10-18-33)36(3,4)28-11-19-34(20-12-28)42-24-30(38)22-40-32-15-7-26(35)8-16-32/h5-20,29-30,37-38H,21-24H2,1-4H3
Instrument: Agilent 6546 Q-ToF
Instrument type: ESI-QTOF
Ms type: MS2
Ion mode: POSITIVE
Ionization: ESI
Collision energy: 20
Precursor m/z: 586.32629
m/z	relative intensity
74.0968	10
133.0642	15
133.0664	15
135.0798	217
135.0811	203
135.0831	25
135.0869	12
135.0884	20
147.0764	10
173.097	21
191.1053	48
277.6921	10
285.1484	234
286.1541	10
325.1777	106
325.1814	84
376.0015	10
405.9671	10
419.2188	22
419.2252	50
524.928	12
551.2761	10
569.2824	53
569.2899	999
569.3049	195
570.2891	36
570.2951	31
585.7087	13
716.2429	10
