Mass spectrum: 4,4'-(4-Methylpentane-2,2-diyl)diphenol; ESI-QTOF; MS2; CE: 20
Name: 4,4'-(4-Methylpentane-2,2-diyl)diphenol
Name: Bis_MIBK
Class: Non-natural product; Additive
Formula: C18H22O2
Exact mass: 270.16198
SMILES: CC(C)CC(C)(C1C=CC(O)=CC=1)C1C=CC(O)=CC=1
InChI: InChI=1S/C18H22O2/c1-13(2)12-18(3,14-4-8-16(19)9-5-14)15-6-10-17(20)11-7-15/h4-11,13,19-20H,12H2,1-3H3
Instrument: Agilent 6546 Q-ToF
Instrument type: ESI-QTOF
Ms type: MS2
Ion mode: NEGATIVE
Ionization: ESI
Collision energy: 20
Precursor m/z: 269.15469
m/z	relative intensity
83.0139	10
86.9448	13
111.083	18
115.0185	14
116.975	10
149.4958	21
175.1128	15
209.0811	12
211.0772	142
212.0845	921
212.0951	69
213.09	27
225.2212	15
254.1289	40
269.1548	999
269.1668	131
269.2485	108
