Mass spectrum: Bis(2-ethoxyethyl) phthalate; GC-EI-FT; MS; Positive
Name: Bis(2-ethoxyethyl) phthalate
Name: bis(2-ethoxyethyl) benzene-1,2-dicarboxylate
Class: Non-Natural Product; Phthalate
Formula: C16H22O6
Exact mass: 310.141638
SMILES: CCOCCOC(=O)C1=CC=CC=C1C(=O)OCCOCC
InChI: InChI=1S/C16H22O6/c1-3-19-9-11-21-15(17)13-7-5-6-8-14(13)16(18)22-12-10-20-4-2/h5-8H,3-4,9-12H2,1-2H3
Instrument: Thermo Scientific Q Exactive GC Hybrid Quadrupol-Orbitrap
Instrument type: GC-EI-FT
Ms type: MS
Ion mode: POSITIVE
Base peak: 149.02344
m/z	relative intensity
104.0257	139
105.02918	11
105.03365	37
121.02855	84
122.03618	13
132.02057	23
132.05692	40
133.02834	12
133.06479	175
134.06824	17
135.04405	11
147.04375	11
148.05183	129
149.02344	999
149.05556	11
150.02673	89
167.03389	13
176.04677	168
177.0502	18
193.04944	239
194.05287	26
