Mass spectrum: Phenol, 4,4'-sulfonylbis[2-(2-propenyl)-; ESI-QTOF; MS2; CE: 20
Name: Phenol, 4,4'-sulfonylbis[2-(2-propenyl)-
Name: TGSH
Class: Non-natural product; Industrial chemical
Formula: C18H18O4S
Exact mass: 330.09258
SMILES: C=CCC1=CC(=CC=C1O)S(=O)(=O)C1C=C(CC=C)C(O)=CC=1
InChI: InChI=1S/C18H18O4S/c1-3-5-13-11-15(7-9-17(13)19)23(21,22)16-8-10-18(20)14(12-16)6-4-2/h3-4,7-12,19-20H,1-2,5-6H2
Instrument: Agilent 6546 Q-ToF
Instrument type: ESI-QTOF
Ms type: MS2
Ion mode: POSITIVE
Ionization: ESI
Collision energy: 20
Precursor m/z: 331.09985
m/z	relative intensity
73.0638	14
77.0393	11
79.0541	205
80.0561	12
80.0597	14
83.0852	14
88.0206	13
88.022	14
91.054	18
91.0553	34
93.032	23
93.0334	23
95.086	18
98.9844	10
103.054	155
105.0698	449
105.0739	19
105.078	39
112.1214	14
115.0533	54
115.0552	23
116.053	19
117.07	14
118.0403	23
121.038	13
121.04	11
126.0653	11
132.057	28
133.0648	999
133.0734	82
134.0019	13
134.0673	13
134.0728	10
141.114	13
142.9401	11
145.0645	42
146.0734	11
147.0797	11
149.0598	728
149.0658	42
149.0693	58
150.027	10
150.0666	32
151.0772	34
152.0783	19
152.1065	14
155.0162	15
155.0226	14
156.9955	129
161.0595	12
161.071	433
161.0794	63
165.0708	17
165.0926	10
171.0136	12
173.0965	12
173.1326	13
174.1052	11
197.0269	541
197.0341	16
197.0384	13
198.0317	12
198.0667	14
207.0352	14
210.9564	14
212.9596	10
244.1917	19
249.2225	20
257.0307	11
263.0374	23
275.0422	12
303.0694	84
316.1609	18
331.0995	210
331.1069	10
331.1124	15
331.1726	15
331.1888	14
331.2084	122
331.214	119
331.2306	12
332.0984	12
332.225	12
