Mass spectrum: Dimethoxyethyl phthalate; GC-EI-FT; MS; Positive
Name: Dimethoxyethyl phthalate
Name: Bis(2-methoxyethyl) phthalate
Class: Non-Natural Product; Phthalate
Formula: C14H18O6
Exact mass: 282.110338
SMILES: COCCOC(=O)C1=CC=CC=C1C(=O)OCCOC
InChI: InChI=1S/C14H18O6/c1-17-7-9-19-13(15)11-5-3-4-6-12(11)14(16)20-10-8-18-2/h3-6H,7-10H2,1-2H3
Instrument: Thermo Scientific Q Exactive GC Hybrid Quadrupol-Orbitrap
Instrument type: GC-EI-FT
Ms type: MS
Ion mode: POSITIVE
Base peak: 149.02344
m/z	relative intensity
104.0257	187
105.02918	15
105.03365	30
121.02855	50
122.03618	10
132.05692	16
133.02834	26
133.06479	75
134.06824	7
135.04405	8
147.04375	28
148.05183	65
149.02344	999
149.05968	8
162.03111	7
163.03886	56
167.03389	90
175.03902	8
176.04677	225
194.0573	23
206.05731	24
207.06551	56
