Mass spectrum: 1,5-DPMA; GC-EI-QTOF; MS1; CE: 70
Name: 1,5-DPMA
Name: 1,5-Dechlorane Plus Monoadduct
Class: Non-natural product, Flame retardant
Formula: C13H12Cl6
Exact mass: 377.9070166428
Instrument: Agilent 7200 Accurate-Mass QToF GC/MS
Instrument type: GC-EI-QTOF
Ms type: MS1
Ion mode: POSITIVE
Ionization: EI
Collision energy: 70
Retention time: 7.04
m/z	relative intensity
27.0233341289562	35
27.9943368332835	63
31.9902799221763	29
35.9767599565045	56
39.0236945126666	212
41.0393146803097	214
43.9901346380769	41
51.0234063046753	57
53.0389842075813	108
54.0468122008525	268
55.0546222802142	56
59.049326747545	41
63.0229741115587	26
65.0387547490515	115
66.0462817587556	102
67.0544567058867	795
68.0609096326347	40
72.9842890051052	24
74.999674689522	32
75.0244421934432	22
77.0386793000166	141
78.046340878496	57
79.0543091937232	999
80.0616828613607	514
81.0696701956452	186
82.944981991246	25
91.0543247547321	134
93.0698220589812	141
95.0854847903842	25
101.01545637172	36
105.069808356507	64
107.085383952651	183
108.092387796108	38
113.015558867271	36
115.030230834022	29
127.030757705871	27
140.905921824424	24
141.04673176367	37
142.903532056454	25
149.014848855816	45
165.069695880703	37
169.968741629384	57
171.96597173075	34
182.976165506028	45
184.974457260167	30
192.931114385683	24
194.936645352757	22
195.983639991949	24
199.031463394903	27
200.038802320903	26
203.929984693637	24
204.936724978105	30
205.930543333062	22
206.935975297223	30
207.032625536123	22
213.890452247103	24
215.888167696564	30
216.937879096566	24
218.942007120473	24
226.898872351809	81
227.90462603861	23
228.897079378835	102
229.90283893948	28
229.94471004776	26
230.897157009049	47
230.951626487057	27
234.843903532466	74
235.007639591683	69
236.01459698211	64
236.841476008814	125
237.009041553963	47
237.84770739564	22
238.010618931689	39
238.838573758546	85
240.835713952841	27
252.913785527303	43
254.911729780389	52
256.908436363016	24
261.867605313278	136
262.860814849643	32
263.864900646798	214
264.861422793495	28
265.861825157982	131
266.914356595867	22
267.858377963815	43
269.812660121665	31
270.984920795564	101
271.81037098886	58
272.982600156202	95
273.807312172576	49
274.980584496893	32
306.961129506483	93
308.958680722729	122
310.956743651957	58
342.938327150119	129
343.939982503283	22
344.935292882913	206
345.937433332382	30
346.932616925007	134
348.929688884914	43
