Mass spectrum: 4,4'-(4-Methylpentane-2,2-diyl)diphenol; ESI-QTOF; MS2; CE: 10
Name: 4,4'-(4-Methylpentane-2,2-diyl)diphenol
Name: Bis_MIBK
Class: Non-natural product; Additive
Formula: C18H22O2
Exact mass: 270.16198
SMILES: CC(C)CC(C)(C1C=CC(O)=CC=1)C1C=CC(O)=CC=1
InChI: InChI=1S/C18H22O2/c1-13(2)12-18(3,14-4-8-16(19)9-5-14)15-6-10-17(20)11-7-15/h4-11,13,19-20H,12H2,1-3H3
Instrument: Agilent 6546 Q-ToF
Instrument type: ESI-QTOF
Ms type: MS2
Ion mode: NEGATIVE
Ionization: ESI
Collision energy: 10
Precursor m/z: 269.15469
m/z	relative intensity
211.076	19
212.0828	14
212.0846	46
269.1372	10
269.1551	999
269.1662	95
269.192	12
269.2475	33
269.2515	24
270.1577	12
955.9721	14
980.008	11
