Mass spectrum: Bis[4-(4-aminophenoxy)phenyl]sulfone; ESI-QTOF; MS2; CE: 20
Name: Bis[4-(4-aminophenoxy)phenyl]sulfone
Name: BAPS
Class: Non-Natural Product; Industrial Chemical
Formula: C24H20N2O4S
Exact mass: 432.11438
SMILES: NC1C=CC(=CC=1)OC1C=CC(=CC=1)S(=O)(=O)C1C=CC(=CC=1)OC1C=CC(N)=CC=1
InChI: InChI=1S/C24H20N2O4S/c25-17-1-5-19(6-2-17)29-21-9-13-23(14-10-21)31(27,28)24-15-11-22(12-16-24)30-20-7-3-18(26)4-8-20/h1-16H,25-26H2
Instrument: Agilent 6546 Q-ToF
Instrument type: ESI-QTOF
Ms type: MS2
Ion mode: POSITIVE
Ionization: ESI
Collision energy: 20
Precursor m/z: 433.1217
m/z	relative intensity
72.0808	119
84.0802	83
93.0575	737
108.0429	100
149.023	121
183.0682	107
184.0758	999
185.0836	881
219.0251	112
248.1092	73
258.9854	116
259.0164	292
259.9853	75
276.099	157
276.1037	358
326.085	70
433.1143	236
433.1244	373
646.325	77
