Mass spectrum: 4-tert-pentylphenol; LC-ESI-QFT; MS2; CE:20; [M-H]-
Name: 4-tert-pentylphenol
Name: 4-(2-methylbutan-2-yl)phenol
Class: Non-natural product; Industrial chemical 
Formula: C11H16O
Exact mass: 164.12021
SMILES: CCC(C)(C)C1=CC=C(C=C1)O
InChI: InChI=1S/C11H16O/c1-4-11(2,3)9-5-7-10(12)8-6-9/h5-8,12H,4H2,1-3H3
Instrument:  QExactive Plus Orbitrap
Instrument type: LC-ESI-QFT
Ms type: MS2
Ion mode: NEGATIVE
Collision energy: 20
Retention time: 16.1482325
Precursor m/z: 163.11293
Precursor type: [M-H]-
m/z	relative intensity
76.97015	999
108.99641	723
134.97330	796
