Mass spectrum: Bisphenol-FL; LC-ESI-QFT; MS2; CE:20; [M-H]-
Name: Bisphenol-FL
Name: 4-[9-(4-hydroxyphenyl)fluoren-9-yl]phenol
Class: Non-natural product; Additive 
Formula: C25H18O2
Exact mass: 350.13103
SMILES: C1=CC=C2C(=C1)C3=CC=CC=C3C2(C4=CC=C(C=C4)O)C5=CC=C(C=C5)O
InChI: InChI=1S/C25H18O2/c26-19-13-9-17(10-14-19)25(18-11-15-20(27)16-12-18)23-7-3-1-5-21(23)22-6-2-4-8-24(22)25/h1-16,26-27H
Instrument:  QExactive Plus Orbitrap
Instrument type: LC-ESI-QFT
Ms type: MS2
Ion mode: NEGATIVE
Collision energy: 20
Retention time: 15.92
Precursor m/z: 349.12375
Precursor type: [M-H]-
m/z	relative intensity
54.96889	8
56.48673	8
58.83266	9
70.78341	11
71.01858	9
71.59583	9
103.96610	10
110.48103	9
242.47580	10
256.08960	331
291.06992	24
348.11435	14
349.12378	999
349.19754	24
