Mass spectrum: Antioxidant 1098; LC-ESI-QTOF; MSn
Name: Antioxidant 1098
Name: Benzenepropanamide, N,N'-1,6-hexanediylbis(3,5-bis(1,1-dimethylethyl)-4-hydroxy-
Class: Non-Natural Product; Polymer
Formula: C40H64N2O4
Exact mass: 636.486608549
SMILES: CC(C)(C)C1=CC(CCC(=O)NCCCCCCNC(=O)CCC2=CC(=C(O)C(=C2)C(C)(C)C)C(C)(C)C)=CC(=C1O)C(C)(C)C
InChI: InChI=1S/C40H64N2O4/c1-37(2,3)29-23-27(24-30(35(29)45)38(4,5)6)17-19-33(43)41-21-15-13-14-16-22-42-34(44)20-18-28-25-31(39(7,8)9)36(46)32(26-28)40(10,11)12/h23-26,45-46H,13-22H2,1-12H3,(H,41,43)(H,42,44)
Instrument: Waters G2-S QTOF
Instrument type: LC-ESI-QTOF
Ms type: MSn
Ion mode: POSITIVE
Precursor m/z: 637.4944
Precursor type: [M+H]+
m/z	relative intensity
117.1410	3
149.0612	2
219.1753	22
220.1791	3
248.1657	41
249.1684	5
265.1923	59
266.1944	8
267.1950	1
304.2281	62
321.2554	314
322.2577	66
323.2606	6
359.3036	1
360.2904	11
361.2929	2
377.3173	92
378.3203	22
413.2445	28
414.2472	7
469.3074	131
470.3106	36
471.3105	5
507.3592	5
525.3705	347
526.3729	116
527.3760	20
581.4328	335
582.4357	125
583.4379	25
584.4385	2
637.4964	999
637.7377	5
638.4985	386
639.5011	114
640.5046	12
659.4768	409
660.4801	162
661.4824	35
662.4822	4
675.4499	67
676.4526	27
677.4505	9
678.4543	2
681.5294	1
682.5403	2
