Mass spectrum: Cyasorb; ESI-QTOF; MS2; CE: 10
Name: Cyasorb
Name: UV-1164
Class: Non-natural product; UV filter
Formula: C33H39N3O2
Exact mass: 509.30423
SMILES: CCCCCCCCOC1=CC(O)=C(C=C1)C1N=C(N=C(N=1)C1=CC=C(C)C=C1C)C1=CC=C(C)C=C1C
InChI: InChI=1S/C33H39N3O2/c1-6-7-8-9-10-11-18-38-26-14-17-29(30(37)21-26)33-35-31(27-15-12-22(2)19-24(27)4)34-32(36-33)28-16-13-23(3)20-25(28)5/h12-17,19-21,37H,6-11,18H2,1-5H3
Instrument: Agilent 6546 Q-ToF
Instrument type: ESI-QTOF
Ms type: MS2
Ion mode: POSITIVE
Ionization: ESI
Collision energy: 10
Retention time: 7.51
Precursor m/z: 510.31201
m/z	relative intensity
132.0808	9
248.1645	11
510.3127	999
510.3591	39
