Mass spectrum: 2,4-Bisphenol F; LC-ESI-QFT; MS2; CE:20; [M-H]-
Name: 2,4-Bisphenol F
Name: 2-[(4-hydroxyphenyl)methyl]phenol
Class: Non-natural product; Additive
Formula: C13H12O2
Exact mass: 200.08376
SMILES: C1=CC=C(C(=C1)CC2=CC=C(C=C2)O)O
InChI: InChI=1S/C13H12O2/c14-12-7-5-10(6-8-12)9-11-3-1-2-4-13(11)15/h1-8,14-15H,9H2
Instrument:  QExactive Plus Orbitrap
Instrument type: LC-ESI-QFT
Ms type: MS2
Ion mode: NEGATIVE
Collision energy: 20
Retention time: 13.8644593333333
Precursor m/z: 199.07648
Precursor type: [M-H]-
m/z	relative intensity
93.03456	999
166.91057	62
184.92085	61
199.07695	242
