Mass spectrum: 1-3-Di-tolylguanidine; ESI-QTOF; MS2; CE: 10
Name: 1-3-Di-tolylguanidine
Name: 1,2-bis(2-methylphenyl)guanidine
Class: Non-natural product; Industrial chemical
Formula: C15H17N3
Exact mass: 239.14225
SMILES: CC1=CC=CC=C1NC(=N)NC1=CC=CC=C1C
InChI: InChI=1S/C15H17N3/c1-11-7-3-5-9-13(11)17-15(16)18-14-10-6-4-8-12(14)2/h3-10H,1-2H3,(H3,16,17,18)
Instrument: Agilent 6546 Q-ToF
Instrument type: ESI-QTOF
Ms type: MS2
Ion mode: POSITIVE
Ionization: ESI
Collision energy: 10
Precursor m/z: 240.14951
m/z	relative intensity
88.1117	10
106.0653	17
108.0806	65
133.076	65
223.1231	33
240.1496	999
240.16	96
241.1522	12
