Mass spectrum: Bisphenol-G; LC-ESI-QFT; MS2; CE:20; [M-H]-
Name: Bisphenol-G
Name: 4-[2-(4-hydroxy-3-propan-2-ylphenyl)propan-2-yl]-2-propan-2-ylphenol
Class: Non-natural product; Additive 
Formula: C21H28O2
Exact mass: 312.20931
SMILES: CC(C)C1=C(C=CC(=C1)C(C)(C)C2=CC(=C(C=C2)O)C(C)C)O 
InChI: InChI=1S/C21H28O2/c1-13(2)17-11-15(7-9-19(17)22)21(5,6)16-8-10-20(23)18(12-16)14(3)4/h7-14,22-23H,1-6H3
Instrument:  QExactive Plus Orbitrap
Instrument type: LC-ESI-QFT
Ms type: MS2
Ion mode: NEGATIVE
Collision energy: 20
Retention time: 16.60
Precursor m/z: 311.20203
Precursor type: [M-H]-
m/z	relative intensity
73.69611	2
79.95703	17
98.95601	4
119.05029	11
170.00429	11
175.11285	13
179.02061	3
183.01215	439
184.01987	35
197.02780	23
198.03604	6
211.04396	3
216.00917	7
225.05894	8
239.07468	5
267.10883	3
293.21283	5
295.17038	32
302.09555	3
311.16846	999
311.20215	568
