Mass spectrum: 4,4'-Thiodiphenol; ESI-QTOF; MS2; CE: 40
Name: 4,4'-Thiodiphenol
Name: Bisphenol T
Class: Non-natural product; Additive
Formula: C12H10O2S
Exact mass: 218.04015
SMILES: OC1C=CC(=CC=1)SC1C=CC(O)=CC=1
InChI: InChI=1S/C12H10O2S/c13-9-1-5-11(6-2-9)15-12-7-3-10(14)4-8-12/h1-8,13-14H
Instrument: Agilent 6546 Q-ToF
Instrument type: ESI-QTOF
Ms type: MS2
Ion mode: NEGATIVE
Ionization: ESI
Collision energy: 40
Precursor m/z: 217.03287
m/z	relative intensity
96.0043	10
123.9989	999
124.0062	66
124.0239	11
