Mass spectrum: 2,2'-METHYLENE-BIS-(4-METHYL-6-TERT-BUTYLPHENOL); ESI-QTOF; MS2; CE: 10
Name: 2,2'-METHYLENE-BIS-(4-METHYL-6-TERT-BUTYLPHENOL)
Name: 6,6'-di-tert-butyl-2,2'-methylenedi-p-cresol
Class: Non-natural product; Antioxidant
Formula: C23H32O2
Exact mass: 340.240230264
SMILES: CC(C)(C)C1=CC(C)=CC(CC2C=C(C)C=C(C=2O)C(C)(C)C)=C1O
InChI: InChI=1S/C23H32O2/c1-14-9-16(20(24)18(11-14)22(3,4)5)13-17-10-15(2)12-19(21(17)25)23(6,7)8/h9-12,24-25H,13H2,1-8H3
Instrument: Agilent 6546 Q-ToF
Instrument type: ESI-QTOF
Ms type: MS2
Ion mode: NEGATIVE
Ionization: ESI
Collision energy: 10
Precursor m/z: 339.23294
m/z	relative intensity
163.1135	66
339.2338	999
340.2371	25
