Mass spectrum: UV-1577; ESI-QTOF; MS2; CE: 40; [M+H]+
Name: UV-1577
Name: 2-(4,6-Diphenyl-1,3,5-triazin-2-yl)-5-[(hexyl)oxy]-phenol
Class: Non-natural product; UV filer
Formula: C27H27N3O2
Exact mass: 425.21033
SMILES: CCCCCCOC1=CC(O)=C(C=C1)C1N=C(N=C(N=1)C1C=CC=CC=1)C1C=CC=CC=1
InChI: InChI=1S/C27H27N3O2/c1-2-3-4-11-18-32-22-16-17-23(24(31)19-22)27-29-25(20-12-7-5-8-13-20)28-26(30-27)21-14-9-6-10-15-21/h5-10,12-17,19,31H,2-4,11,18H2,1H3
Instrument: Agilent 6546 Q-ToF
Instrument type: ESI-QTOF
Ms type: MS2
Ion mode: POSITIVE
Ionization: ESI
Collision energy: 40
Retention time: 6.53
Precursor m/z: 426.21786
Precursor type: [M+H]+
m/z	relative intensity
77.0385	27
80.0494	18
92.0494	12
104.0497	999
104.072	36
136.0396	761
136.0651	29
220.1334	136
342.1238	50
426.2176	15
