Mass spectrum: 2,4,6-Tris(3-bromophenyl)-1,3,5-triazine; ESI-QTOF; MS2; CE: 40
Name: 2,4,6-Tris(3-bromophenyl)-1,3,5-triazine
Name: TbrPZ
Class: Non-natural product; Industrial chemical
Formula: C21H12Br3N3
Exact mass: 542.85813
SMILES: BrC1C=C(C=CC=1)C1N=C(N=C(N=1)C1=CC(Br)=CC=C1)C1=CC(Br)=CC=C1
InChI: InChI=1S/C21H12Br3N3/c22-16-7-1-4-13(10-16)19-25-20(14-5-2-8-17(23)11-14)27-21(26-19)15-6-3-9-18(24)12-15/h1-12H
Instrument: Agilent 6546 Q-ToF
Instrument type: ESI-QTOF
Ms type: MS2
Ion mode: POSITIVE
Ionization: ESI
Collision energy: 40
Precursor m/z: 545.88104
m/z	relative intensity
74.0957	999
83.0857	454
83.0873	340
85.0657	613
95.0863	886
147.1182	441
156.0722	364
159.1186	352
187.145	451
188.0982	388
194.155	386
299.2408	507
528.4793	307
756.8986	737
