Mass spectrum: HFPO-DA; LC-ESI-FT; MS2
Name: HFPO-DA
Name: 2,3,3,3-tetrafluoro-2-(1,1,2,2,3,3,3-heptafluoropropoxy)propanoic acid
Class: Non-Natural Product; New PFAS
Formula: C6HF11O3
Exact mass: 329.97500367
SMILES: C(=O)(C(C(F)(F)F)(OC(C(C(F)(F)F)(F)F)(F)F)F)O
InChI: InChI=1S/C6HF11O3/c7-2(1(18)19,4(10,11)12)20-6(16,17)3(8,9)5(13,14)15/h(H,18,19)
Instrument: Vanquish LC, Thermo Scientific; Exploris 120 Orbitrap, Thermo Scientific
Instrument type: LC-ESI-FT
Ms type: MS2
Ion mode: NEGATIVE
Retention time: 5.66780752794743
Precursor m/z: 328.96744
Precursor type: [M-H]-
m/z	relative intensity
56.44926	25
59.01397	34
118.99236	587
134.98740	21
168.98920	999
184.98399	501
185.00450	27
294.75842	20
