Mass spectrum: UV-384; LC-ESI-QTOF; MSn
Name: UV-384
Name: Octyl 3-[3-(2H-benzotriazol-2-yl)-5-tert-butyl-4-hydroxyphenyl]propanoate
Class: Non-Natural Product; UV Stabilizer
Formula: C27H37N3O3
Exact mass: 451.283492063
SMILES: CCCCCCCCOC(=O)CCC1=CC(=C(O)C(=C1)N1N=C2C=CC=CC2=N1)C(C)(C)C
InChI: InChI=1S/C27H37N3O3/c1-5-6-7-8-9-12-17-33-25(31)16-15-20-18-21(27(2,3)4)26(32)24(19-20)30-28-22-13-10-11-14-23(22)29-30/h10-11,13-14,18-19,32H,5-9,12,15-17H2,1-4H3
Instrument: Waters G2-S QTOF
Instrument type: LC-ESI-QTOF
Ms type: MSn
Ion mode: POSITIVE
Precursor m/z: 452.2913
Precursor type: [M+H]+
m/z	relative intensity
102.0374	7
224.0828	19
322.1561	3
396.2289	11
397.2368	2
420.4034	13
452.2918	999
453.2948	279
474.2724	67
490.2458	9
497.3495	37
