Mass spectrum: 4,4'-(9H-Fluorene-9,9-diyl)bis(2-chloroaniline); LC-ESI-QTOF; MSn
Name: 9,9-Bis(4-amino-3-chlorophenyl)fluorene
Name: 4,4'-(9H-Fluorene-9,9-diyl)bis(2-chloroaniline)
Class: Non-Natural Product; Industrial chemical
Formula: C25H18Cl2N2
Exact mass: 416.084704
SMILES: NC1=C(Cl)C=C(C=C1)C1(C2=CC=CC=C2C2=CC=CC=C12)C1=CC(Cl)=C(N)C=C1
InChI: InChI=1S/C25H18Cl2N2/c26-21-13-15(9-11-23(21)28)25(16-10-12-24(29)22(27)14-16)19-7-3-1-5-17(19)18-6-2-4-8-20(18)25/h1-14H,28-29H2
Instrument: Waters G2-S QTOF
Instrument type: LC-ESI-QTOF
Ms type: MSn
Ion mode: POSITIVE
Precursor m/z: 417.0925
Precursor type: [M+H]+
m/z	relative intensity
102.1265	2
119.0510	5
226.0764	11
227.0858	14
229.0996	13
236.1192	1
237.2287	1
240.1562	1
242.2842	1
253.0888	4
255.1002	15
256.1126	1
262.9341	1
269.1810	1
274.2739	1
275.2017	1
284.3230	1
290.0740	321
291.0756	71
292.0709	112
299.1196	2
300.0861	1
301.0918	3
302.1059	3
312.0891	1
313.2312	3
328.1082	29
329.1213	16
330.1228	14
338.0718	1
339.1454	2
343.1349	5
345.1385	29
346.1417	16
355.1090	3
370.2928	1
376.9074	1
383.1125	21
393.2255	1
417.0924	999
418.0941	255
419.0899	648
420.0898	162
