Mass spectrum: Arabitol; LC-ESI-QFT; MS2; CE:20; [M-H]-
Name: Arabitol
Name: (2R,4R)-pentane-1,2,3,4,5-pentol
Class: Natural product
Formula: C5H12O5
Exact mass: 152.06847
SMILES: C([C@H](C([C@@H](CO)O)O)O)O
InChI: InChI=1S/C5H12O5/c6-1-3(8)5(10)4(9)2-7/h3-10H,1-2H2/t3-,4-/m1/s1
Instrument:  QExactive Plus Orbitrap
Instrument type: LC-ESI-QFT
Ms type: MS2
Ion mode: NEGATIVE
Collision energy: 20
Retention time: 4.86
Precursor m/z: 151.0611
Precursor type: [M-H]-
m/z	relative intensity
57.03423	15.96
59.01352	762.68
74.02386	386.7
85.02943	115.81
89.02292	345.54
92.03445	318.07
96.96004	34.14
105.03777	388.21
115.92068	162.93
116.92844	999
117.92863	9.94
118.92679	23.97
133.0506	5.17
141.92834	37.9
149.04536	30.56
