Mass spectrum: 4-guanidinobutanamide; LC-ESI-QFT; MS2; CE:20; [M+H]+
Name: 4-guanidinobutanamide
Name: Tiformin
Class: Non-natural product; Pharmaceutical
Formula: C5H12N4O
Exact mass: 144.175
SMILES: C(CC(=O)N)CN=C(N)N
InChI: 4-(diaminomethylideneamino)butanamide
Instrument:  QExactive Plus Orbitrap
Instrument type: LC-ESI-QFT
Ion mode: Positive
Ms type: MS2
Collision energy: 20
Retention time: 1.51
Precursor m/z: 145.10841
Precursor type: [M+H]+
m/z	relative intensity
60.05597	169
86.06002	999
128.08185	256
