Mass spectrum: 2,4,6-Tris(3-bromophenyl)-1,3,5-triazine; ESI-QTOF; MS2; CE: 10
Name: 2,4,6-Tris(3-bromophenyl)-1,3,5-triazine
Name: TbrPZ
Class: Non-natural product; Industrial chemical
Formula: C21H12Br3N3
Exact mass: 542.85813
SMILES: BrC1C=C(C=CC=1)C1N=C(N=C(N=1)C1=CC(Br)=CC=C1)C1=CC(Br)=CC=C1
InChI: InChI=1S/C21H12Br3N3/c22-16-7-1-4-13(10-16)19-25-20(14-5-2-8-17(23)11-14)27-21(26-19)15-6-3-9-18(24)12-15/h1-12H
Instrument: Agilent 6546 Q-ToF
Instrument type: ESI-QTOF
Ms type: MS2
Ion mode: POSITIVE
Ionization: ESI
Collision energy: 10
Precursor m/z: 545.88104
m/z	relative intensity
217.1052	69
241.2176	85
250.187	89
283.2642	71
328.2564	100
365.295	82
371.1657	107
385.3468	72
435.0334	96
453.2046	70
468.4141	66
529.1896	65
545.415	73
545.4278	297
545.458	98
545.8606	270
545.8731	151
546.0195	223
546.4175	64
546.4855	999
546.5002	327
676.8822	101
721.5103	69
750.39	86
752.0295	76
817.2506	90
