Mass spectrum: 2,4-Bisphenol A; LC-ESI-QFT; MS2; CE:20; [M-H]-
Name: 2,4-Bisphenol A
Name: 2-[2-(4-hydroxyphenyl)propan-2-yl]phenol
Class: Non-natural product; Additive 
Formula: C15H16O2
Exact mass: 228.11521
SMILES: CC(C)(C1=CC=C(C=C1)O)C2=CC=CC=C2O
InChI: InChI=1S/C15H16O2/c1-15(2,11-7-9-12(16)10-8-11)13-5-3-4-6-14(13)17/h3-10,16-17H,1-2H3
Instrument:  QExactive Plus Orbitrap
Instrument type: LC-ESI-QFT
Ms type: MS2
Ion mode: NEGATIVE
Collision energy: 20
Retention time: 15.6021875833333
Precursor m/z: 227.10793
Precursor type: [M-H]-
m/z	relative intensity
93.03461	999
133.06602	286
184.00177	66
