Mass spectrum: Decamethyltetrasiloxane (L4); GC-EI-FT; MS; Positive
Name: L4
Name: Decamethyltetrasiloxane
Class: Non-Natural Product; Siloxane
Formula: C10H30O3Si4
Exact mass: 310.12720
SMILES: C[Si](C)(C)O[Si](C)(C)O[Si](C)(C)O[Si](C)(C)C
InChI: InChI=1S/C10H30O3Si4/c1-14(2,3)11-16(7,8)13-17(9,10)12-15(4,5)6/h1-10H3
Instrument: Thermo Scientific Q Exactive GC Hybrid Quadrupol-Orbitrap
Instrument type: GC-EI-FT
Ms type: MS
Ion mode: POSITIVE
Base peak: 207.0321
m/z	relative intensity
57.01553	0
59.03115	16
73.04681	398
91.05426	1
117.01864	8
129.01863	0
131.03429	14
147.06552	16
162.96965	6
164.98532	5
173.99835	0
176.98529	15
180.98022	1
191.00076	98
192.99776	10
203.03731	7
205.0529	5
207.0321	999
208.03166	149
224.98029	0
233.99277	0
263.04056	11
279.07181	18
281.07513	0
