Mass spectrum: 2,2-Bis[4-(4-aminophenoxy)phenyl]propane; ESI-QTOF; MS2; CE: 20
Name: 2,2-Bis[4-(4-aminophenoxy)phenyl]propane
Name: BAPP
Class: Non-Natural Product; Industrial Chemical
Formula: C27H26N2O2
Exact mass: 410.19943
SMILES: CC(C)(C1C=CC(=CC=1)OC1C=CC(N)=CC=1)C1C=CC(=CC=1)OC1C=CC(N)=CC=1
InChI: InChI=1S/C27H26N2O2/c1-27(2,19-3-11-23(12-4-19)30-25-15-7-21(28)8-16-25)20-5-13-24(14-6-20)31-26-17-9-22(29)10-18-26/h3-18H,28-29H2,1-2H3
Instrument: Agilent 6546 Q-ToF
Instrument type: ESI-QTOF
Ms type: MS2
Ion mode: POSITIVE
Ionization: ESI
Collision energy: 20
Precursor m/z: 411.2067
m/z	relative intensity
80.0489	11
93.0569	103
108.0443	999
108.051	69
108.0527	21
181.0985	10
181.1033	17
195.0786	11
195.081	28
197.0961	70
209.096	85
210.0915	353
210.1042	89
211.1119	19
219.0235	50
225.0905	94
226.1224	891
226.1256	12
226.1336	93
227.1266	19
237.0342	71
237.0372	17
290.1537	249
290.1653	12
291.1582	12
300.1388	15
303.1232	14
304.1329	52
318.149	937
318.1553	20
318.1614	90
319.1521	48
319.1578	96
319.1685	12
395.177	13
396.1788	126
396.1864	15
411.199	22
411.2045	34
411.2097	24
