Mass spectrum: F53B-long; LC-ESI-FT; MS2
Name: F53B-long
Name: 2-(8-chloro-1,1,2,2,3,3,4,4,5,5,6,6,7,7,8,8-hexadecafluorooctoxy)-1,1,2,2-tetrafluoroethanesulfonic acid
Class: Non-Natural Product; New PFAS
Formula: C10HClF20O4S
Exact mass: 631.8964706
SMILES: C(C(C(C(C(F)(F)Cl)(F)F)(F)F)(F)F)(C(C(C(OC(C(F)(F)S(=O)(=O)O)(F)F)(F)F)(F)F)(F)F)(F)F
InChI: InChI=1S/C10HClF20O4S/c11-7(24,25)5(20,21)3(16,17)1(12,13)2(14,15)4(18,19)6(22,23)8(26,27)35-9(28,29)10(30,31)36(32,33)34/h(H,32,33,34)
Instrument: Vanquish LC, Thermo Scientific; Exploris 120 Orbitrap, Thermo Scientific
Instrument type: LC-ESI-FT
Ms type: MS2
Ion mode: NEGATIVE
Retention time: 8.3335166112264
Precursor m/z: 630.88794
Precursor type: [M-H]-
m/z	relative intensity
82.96069	51
84.99059	18
98.95556	23
116.41689	3
129.70853	2
284.62665	2
429.69589	2
450.93784	220
630.88818	999
