Mass spectrum: 2,4,6-Trimethylbenzoic acid; LC-ESI-QFT; MS2; CE:20; [M-H]-
Name: 2,4,6-Trimethylbenzoic acid
Name: Mesitoic acid
Class: Non-natural product; Additive
Formula: C10H12O2
Exact mass: 164.08373
SMILES: Cc1cc(C)c(C(=O)O)c(C)c1
InChI: InChI=1S/C10H12O2/c1-6-4-7(2)9(10(11)12)8(3)5-6/h4-5H,1-3H3,(H,11,12)
Instrument: QExactive Plus Orbitrap
Instrument type: LC-ESI-QFT
Ms type: MS2
Ion mode: NEGATIVE
Collision energy: 20
Retention time: 11.24
Precursor m/z: 163.07631
Precursor type: [M-H]-
m/z	relative intensity
94.98059	112
119.08649	999
