Mass spectrum: 2,2-Bis(4-hydroxy-3,5-dimethylphenyl)propane; ESI-QTOF; MS2; CE: 40
Name: 2,2-Bis(4-hydroxy-3,5-dimethylphenyl)propane
Name: TMBPA
Class: Non-natural product; Industrial chemical
Formula: C19H24O2
Exact mass: 284.17763
SMILES: CC(C)(C1=CC(C)=C(O)C(C)=C1)C1=CC(C)=C(O)C(C)=C1
InChI: InChI=1S/C19H24O2/c1-11-7-15(8-12(2)17(11)20)19(5,6)16-9-13(3)18(21)14(4)10-16/h7-10,20-21H,1-6H3
Instrument: Agilent 6546 Q-ToF
Instrument type: ESI-QTOF
Ms type: MS2
Ion mode: NEGATIVE
Ionization: ESI
Collision energy: 40
Precursor m/z: 283.17035
m/z	relative intensity
59.0137	127
61.9871	117
73.0289	223
83.0498	104
95.9533	116
121.0658	192
161.097	999
224.0472	87
267.1385	295
267.1424	143
283.1727	188
283.265	106
