Mass spectrum: Metformin; ESI-QTOF; MS2; CE: 20
Name: Glucophage
Name: Metformin
Class: Non-natural product; Pharmaceutical
Formula: C4H12ClN5
Exact mass: 165.07812
SMILES: Cl.CN(C)C(=N)NC(N)=N
InChI: InChI=1S/C4H11N5.ClH/c1-9(2)4(7)8-3(5)6;/h1-2H3,(H5,5,6,7,8);1H
Instrument: Agilent 6546 Q-ToF
Instrument type: ESI-QTOF
Ms type: MS2
Ion mode: POSITIVE
Ionization: ESI
Collision energy: 20
Precursor m/z: 130.1087
m/z	relative intensity
60.0553	61
68.0241	48
71.0602	999
71.0661	65
85.0508	328
85.0571	27
88.0869	213
88.0929	15
96.0556	16
113.0822	93
130.1082	21
