Mass spectrum: Deacetylbisacodyl; ESI-QTOF; MS2; CE: 40
Name: Deacetylbisacodyl
Name: DDPM
Class: Non-natural product; Pharmaceutical metabolite
Formula: C18H15NO2
Exact mass: 277.1102787305
SMILES: OC1C=CC(=CC=1)C(C1=CC=CC=N1)C1C=CC(O)=CC=1
InChI: InChI=1S/C18H15NO2/c20-15-8-4-13(5-9-15)18(17-3-1-2-12-19-17)14-6-10-16(21)11-7-14/h1-12,18,20-21H
Instrument: Agilent 6546 Q-ToF
Instrument type: ESI-QTOF
Ms type: MS2
Ion mode: POSITIVE
Ionization: ESI
Collision energy: 40
Precursor m/z: 278.11761
m/z	relative intensity
78.0336	18
128.0627	10
129.0698	21
139.0542	19
141.0575	11
154.0652	125
155.073	41
156.0806	114
166.0651	79
167.0731	932
167.0819	66
168.0761	14
182.0604	23
183.068	999
183.077	74
184.0757	667
184.085	54
