Mass spectrum: V6; GC-EI-FT; MS; Positive
Name: V6
Name: [2-[bis(2-chloroethoxy)phosphoryloxymethyl]-3-chloro-2-(chloromethyl)propyl] bis(2-chloroethyl) phosphate
Class: Non-Natural Product; Organophosphorus flame retardant
Formula: C13H24Cl6O8P2
Exact mass: 579.907757
SMILES: C(CCl)OP(=O)(OCCCl)OCC(COP(=O)(OCCCl)OCCCl)(CCl)CCl
InChI: InChI=1S/C13H24Cl6O8P2/c14-1-5-22-28(20,23-6-2-15)26-11-13(9-18,10-19)12-27-29(21,24-7-3-16)25-8-4-17/h1-12H2
Instrument: Thermo Scientific Q Exactive GC Hybrid Quadrupol-Orbitrap
Instrument type: GC-EI-FT
Ms type: MS
Ion mode: POSITIVE
Base peak: 98.98421
m/z	relative intensity
71.0492	6
74.99965	31
76.9967	11
77.73819	4
78.99445	8
79.05426	15
80.74267	8
80.97367	87
81.06992	4
81.2419	8
82.9893	11
83.04917	128
84.05257	7
86.99967	73
88.9967	21
89.01527	34
90.91784	3
92.91578	4
92.93352	49
95.04927	9
98.98421	999
98.99959	11
100.00748	7
101.01533	283
102.01864	14
102.99452	5
103.01237	93
103.92566	3
104.93353	16
105.01015	10
106.98924	15
109.00504	13
110.9842	30
112.99985	39
113.01529	7
116.95035	543
118.94741	178
119.0259	54
121.02294	18
122.97637	37
124.97337	24
124.99991	341
126.97082	6
133.00496	16
134.91652	36
135.98416	105
136.91354	22
136.99204	20
136.99988	78
137.9812	68
138.98904	14
139.01556	35
141.91812	7
142.966	569
144.94505	16
144.96304	178
145.00497	8
146.98033	3
147.99202	6
148.9785	4
148.99988	124
150.00772	6
151.0155	129
156.98167	8
160.85754	14
160.93997	383
160.9765	454
162.97354	145
163.01549	210
168.98158	15
172.97652	11
174.95575	12
174.99228	8
175.01555	5
177.03117	17
178.94278	7
178.95049	338
180.95477	3
184.97641	29
186.95551	34
186.99213	52
188.98912	24
190.95035	6
196.91652	10
198.9922	117
200.98917	36
201.00772	54
204.95825	166
204.96626	37
206.95531	107
207.10202	2
207.95863	4
208.9525	21
210.99211	159
211.99553	6
212.9892	51
213.0078	81
215.00476	22
216.95827	151
217.96178	9
218.95523	98
220.95248	18
222.93227	111
222.96884	645
223.97221	29
224.00029	5
224.92944	32
224.96591	416
225.00778	126
225.96906	18
226.96295	68
227.00491	40
230.98161	10
234.96886	282
235.97209	16
236.96585	179
237.96935	7
238.96301	28
240.94284	103
242.93994	35
248.94801	6
248.96596	30
248.98439	52
250.96234	3
250.98145	23
252.97855	4
260.98459	327
261.9881	25
262.98175	212
263.98496	16
264.97858	33
272.94287	9
275.00024	250
276.00345	21
276.99722	166
278.00024	14
278.99414	25
284.92459	66
284.96121	92
286.92181	42
286.95837	86
287.00018	415
287.96191	6
288.00351	40
288.95554	28
288.99735	261
289.01489	7
290.00067	26
296.92465	26
296.96115	189
297.95056	10
298.92169	16
298.95825	177
299.96164	13
300.95529	57
302.93533	81
302.95245	4
304.93234	55
308.96121	466
309.9646	40
310.95825	439
311.96127	37
312.95526	144
312.97424	6
314.93518	251
316.93213	161
318.92911	25
322.97681	914
323.96646	10
323.98019	87
324.97385	884
325.97714	85
326.97092	290
327.97427	19
328.9678	28
330.94766	7
340.95102	22
342.94797	13
344.93753	12
346.91705	41
346.93494	17
348.91403	43
348.93103	6
358.91745	15
358.95349	184
359.9566	19
360.91446	18
360.95056	232
361.95404	18
362.91135	6
362.94757	109
363.95099	11
364.92752	71
364.94452	21
366.92453	72
368.92148	24
376.92752	190
378.92453	184
379.92716	11
380.92139	59
402.94278	11
404.94067	13
406.93692	4
426.91968	83
427.92346	7
428.91678	103
430.91376	45
432.91129	12
438.91983	280
439.92346	27
440.91681	348
441.92044	33
442.91394	171
443.91696	13
444.91046	30
447.34711	12
456.93024	44
458.92761	42
460.92471	27
462.922	4
468.92941	10
470.92694	9
484.94321	10
500.91226	375
501.91556	47
502.90918	592
503.91269	72
504.90625	377
505.91034	47
506.90338	123
507.90741	15
508.89984	18
516.92493	17
518.92279	14
530.9234	30
532.92004	47
533.92371	6
534.9173	31
536.9148	9
544.9389	68
546.93604	104
548.93292	70
550.92987	18
