Mass spectrum: 4-heptylphenol; LC-ESI-QFT; MS2; CE:20; [M-H]-
Name: 4-heptylphenol
Name: p-Heptylphenol
Class: Non-natural product; Industrial chemical
Formula: C13H20O
Exact mass: 192.15157
SMILES: CCCCCCCC1=CC=C(C=C1)O
InChI: InChI=1S/C13H20O/c1-2-3-4-5-6-7-12-8-10-13(14)11-9-12/h8-11,14H,2-7H2,1H3
Instrument:  QExactive Plus Orbitrap
Instrument type: LC-ESI-QFT
Ion mode: Negative
Ms type: MS2
Collision energy: 20
Retention time: 17.0452853333333
Precursor m/z: 191.14429
Precursor type: [M-H]-
m/z	relative intensity
106.04253	999
