Mass spectrum: 1,3-Bis(4-cyanophenyl)propane; ESI-QTOF; MS2; CE: 20; [M+H]+
Name: 1,3-Bis(4-cyanophenyl)propane
Name: BPA-dicyanate
Class: Non-natural product; Industrial chemical
Formula: C17H14N2O2
Exact mass: 278.10553
SMILES: CC(C)(C1C=CC(=CC=1)OC#N)C1C=CC(=CC=1)OC#N
InChI: InChI=1S/C17H14N2O2/c1-17(2,13-3-7-15(8-4-13)20-11-18)14-5-9-16(10-6-14)21-12-19/h3-10H,1-2H3
Instrument: Agilent 6546 Q-ToF
Instrument type: ESI-QTOF
Ms type: MS2
Ion mode: POSITIVE
Ionization: ESI
Collision energy: 20
Precursor m/z: 279.11279
Precursor type: [M+H]+
m/z	relative intensity
73.0641	222
105.0706	190
147.0908	537
149.0228	999
149.0267	264
149.0619	155
179.176	314
219.0249	153
233.1631	151
261.1954	151
279.1169	139
