Mass spectrum: 4,4'-Dimethoxytrityl chloride; ESI-QTOF; MS2; CE: 40
Name: 4,4'-Dimethoxytrityl chloride
Name: DMTrCl
Class: Non-natural product; Industrial chemical
Formula: C21H19ClO2
Exact mass: 338.10736
SMILES: COC1C=CC(=CC=1)C(Cl)(C1C=CC=CC=1)C1C=CC(=CC=1)OC
InChI: InChI=1S/C21H19ClO2/c1-23-19-12-8-17(9-13-19)21(22,16-6-4-3-5-7-16)18-10-14-20(24-2)15-11-18/h3-15H,1-2H3
Instrument: Agilent 6546 Q-ToF
Instrument type: ESI-QTOF
Ms type: MS2
Ion mode: POSITIVE
Ionization: ESI
Collision energy: 40
Precursor m/z: 339.11462
m/z	relative intensity
84.0526	999
87.0996	639
100.0855	834
175.1179	824
