Mass spectrum: 62FTS; LC-ESI-FT; MS2
Name: 62FTS
Name: 3,3,4,4,5,5,6,6,7,7,8,8,8-tridecafluorooctane-1-sulfonic acid
Class: Non-Natural Product; Fluorotelomer sulfonic acid
Formula: C8H5F13O3S
Exact mass: 427.9751813
SMILES: C(CS(=O)(=O)O)C(C(C(C(C(C(F)(F)F)(F)F)(F)F)(F)F)(F)F)(F)F
InChI: InChI=1S/C8H5F13O3S/c9-3(10,1-2-25(22,23)24)4(11,12)5(13,14)6(15,16)7(17,18)8(19,20)21/h1-2H2,(H,22,23,24)
Instrument: Vanquish LC, Thermo Scientific; Exploris 120 Orbitrap, Thermo Scientific
Instrument type: LC-ESI-FT
Ms type: MS2
Ion mode: NEGATIVE
Retention time: 6.15784160690307
Precursor m/z: 426.96738
Precursor type: [M-H]-
m/z	relative intensity
55.78954	5
56.49474	6
76.46037	6
79.95722	651
80.96504	712
91.66885	7
95.23634	7
102.95747	6
114.72237	6
141.83290	7
216.99117	9
254.98375	8
282.98047	10
292.98166	12
386.95447	10
406.96188	78
426.96735	999
