Mass spectrum: Phthalic acid; LC-ESI-QFT; MS2; CE:20; [M-H]-
Name: Phthalic acid
Name: 1,2-benzenedicarboxylic acid
Class: Non-natural product; Industrial chemical
Formula: C8H6O4
Exact mass: 166.02646
SMILES: C1=CC=C(C(=C1)C(=O)O)C(=O)O
InChI: InChI=1S/C8H6O4/c9-7(10)5-3-1-2-4-6(5)8(11)12/h1-4H,(H,9,10)(H,11,12)
Instrument:  QExactive Plus Orbitrap
Instrument type: LC-ESI-QFT
Ms type: MS2
Ion mode: NEGATIVE
Collision energy: 20
Retention time: 1.6879634
Precursor m/z: 165.01918
Precursor type: [M-H]-
m/z	relative intensity
78.95901	21
93.03437	20
121.02945	564
147.89282	453
164.89536	999
165.01900	97
