Mass spectrum: 42FTS; LC-ESI-FT; MS2
Name: 42FTS
Name: 3,3,4,4,5,5,6,6,6-nonafluorohexane-1-sulfonic acid
Class: Non-Natural Product; Fluorotelomer sulfonic acid
Formula: C6H5F9O3S
Exact mass: 327.98156865
SMILES: C(CS(=O)(=O)O)C(C(C(C(F)(F)F)(F)F)(F)F)(F)F
InChI: InChI=1S/C6H5F9O3S/c7-3(8,1-2-19(16,17)18)4(9,10)5(11,12)6(13,14)15/h1-2H2,(H,16,17,18)
Instrument: Vanquish LC, Thermo Scientific; Exploris 120 Orbitrap, Thermo Scientific
Instrument type: LC-ESI-FT
Ms type: MS2
Ion mode: NEGATIVE
Retention time: 5.28585841712157
Precursor m/z: 326.97379
Precursor type: [M-H]-
m/z	relative intensity
63.96210	6
79.95718	690
80.96500	737
103.34018	6
154.99203	10
182.98846	5
192.99004	9
220.34161	5
306.92206	8
306.96741	275
326.97372	999
