Mass spectrum: 2,4' Bisphenol-F; ESI-QTOF; MS2; CE: 40
Name: 2,4' Bisphenol-F
Name: 2,4'-Dihydroxydiphenylmethane
Class: Non-natural product; Additive
Formula: C13H12O2
Exact mass: 200.08373
SMILES: OC1C=CC(CC2=CC=CC=C2O)=CC=1
InChI: InChI=1S/C13H12O2/c14-12-7-5-10(6-8-12)9-11-3-1-2-4-13(11)15/h1-8,14-15H,9H2
Instrument: Agilent 6546 Q-ToF
Instrument type: ESI-QTOF
Ms type: MS2
Ion mode: POSITIVE
Ionization: ESI
Collision energy: 40
Precursor m/z: 298.3468
m/z	relative intensity
41.0381	13
55.0537	42
57.0695	171
57.0752	12
69.0603	11
69.07	23
70.0653	15
71.0796	12
71.0854	999
71.0903	27
71.0922	46
77.039	18
81.0697	25
85.101	333
87.0439	10
97.0648	11
117.0709	12
119.0336	17
121.0577	11
142.1589	16
147.0431	12
154.0878	18
166.0745	13
170.1914	14
174.1284	12
174.1333	13
175.0793	10
184.2036	10
212.2337	14
298.3467	465
298.357	59
299.3515	28
