Mass spectrum: 2,4' Bisphenol-F; ESI-QTOF; MS2; CE: 10
Name: 2,4' Bisphenol-F
Name: 2,4'-Dihydroxydiphenylmethane
Class: Non-natural product; Additive
Formula: C13H12O2
Exact mass: 200.08373
SMILES: OC1C=CC(CC2=CC=CC=C2O)=CC=1
InChI: InChI=1S/C13H12O2/c14-12-7-5-10(6-8-12)9-11-3-1-2-4-13(11)15/h1-8,14-15H,9H2
Instrument: Agilent 6546 Q-ToF
Instrument type: ESI-QTOF
Ms type: MS2
Ion mode: POSITIVE
Ionization: ESI
Collision energy: 10
Precursor m/z: 298.3468
m/z	relative intensity
298.3472	999
298.3576	31
298.3852	20
299.3502	25
