Mass spectrum: Tripropyl phosphate; GC-EI-FT; MS; Positive
Name: Tripropyl phosphate
Name: phosphoric acid tripropyl ester
Class: Non-Natural Product; Organophosphate
Formula: C9H21O4P
Exact mass: 224.117745
SMILES: CCCOP(=O)(OCCC)OCCC
InChI: InChI=1S/C9H21O4P/c1-4-7-11-14(10,12-8-5-2)13-9-6-3/h4-9H2,1-3H3
Instrument: Thermo Scientific Q Exactive GC Hybrid Quadrupol-Orbitrap
Instrument type: GC-EI-FT
Ms type: MS
Ion mode: POSITIVE
Base peak: 141.03111
m/z	relative intensity
100.98857	46
105.01012	103
110.98423	467
111.99204	86
112.99985	338
123.02058	789
124.02403	27
124.99986	782
139.01546	248
140.02335	110
141.03111	999
142.03456	35
153.0311	411
167.04674	24
183.07805	289
