Mass spectrum: 1,3-Bis(4-cyanophenyl)propane; ESI-QTOF; MS2; CE: 10; [M+H]+
Name: 1,3-Bis(4-cyanophenyl)propane
Name: BPA-dicyanate
Class: Non-natural product; Industrial chemical
Formula: C17H14N2O2
Exact mass: 278.10553
SMILES: CC(C)(C1C=CC(=CC=1)OC#N)C1C=CC(=CC=1)OC#N
InChI: InChI=1S/C17H14N2O2/c1-17(2,13-3-7-15(8-4-13)20-11-18)14-5-9-16(10-6-14)21-12-19/h3-10H,1-2H3
Instrument: Agilent 6546 Q-ToF
Instrument type: ESI-QTOF
Ms type: MS2
Ion mode: POSITIVE
Ionization: ESI
Collision energy: 10
Precursor m/z: 279.11279
Precursor type: [M+H]+
m/z	relative intensity
75.1001	106
84.0587	122
85.1025	157
86.0605	181
87.0821	183
87.0861	134
97.0754	415
101.0715	111
109.1016	149
112.0525	123
113.0364	110
121.0493	435
121.0517	225
127.1131	123
130.1598	112
140.0329	108
147.0907	312
147.0926	167
149.0236	999
160.0968	224
162.0493	164
167.1083	128
175.0581	135
187.6316	133
192.0857	208
202.0809	180
202.0892	120
261.0818	107
279.1055	152
279.1241	117
279.1944	150
279.2809	146
380.1497	117
771.7186	124
815.5204	125
