Mass spectrum: Bis(4-methyl-2-pentyl) phthalate; GC-EI-FT; MS; Positive
Name: Bis(4-methyl-2-pentyl) phthalate
Name: bis(4-methylpentan-2-yl) benzene-1,2-dicarboxylate
Class: Non-Natural Product; Phthalate
Formula: C20H30O4
Exact mass: 334.214409
SMILES: CC(C)CC(C)OC(=O)C1=CC=CC=C1C(=O)OC(C)CC(C)C
InChI: InChI=1S/C20H30O4/c1-13(2)11-15(5)23-19(21)17-9-7-8-10-18(17)20(22)24-16(6)12-14(3)4/h7-10,13-16H,11-12H2,1-6H3
Instrument: Thermo Scientific Q Exactive GC Hybrid Quadrupol-Orbitrap
Instrument type: GC-EI-FT
Ms type: MS
Ion mode: POSITIVE
Base peak: 149.02344
m/z	relative intensity
104.0257	13
105.03365	14
121.02855	20
122.03618	17
149.02344	999
150.02673	86
150.03107	19
151.03012	2
151.03447	2
167.03389	200
168.03735	18
251.12776	12
