Mass spectrum: Trehalose; LC-ESI-QFT; MS2; CE:20; [M-H]-
Name: Trehalose
Name: (2R,3S,4S,5R,6R)-2-(hydroxymethyl)-6-[(2R,3R,4S,5S,6R)-3,4,5-trihydroxy-6-(hydroxymethyl)oxan-2-yl]oxyoxane-3,4,5-triol
Class: Natural product
Formula: C12H22O11
Exact mass: 342.11621
SMILES: C([C@@H]1[C@H]([C@@H]([C@H]([C@H](O1)O[C@@H]2[C@@H]([C@H]([C@@H]([C@H](O2)CO)O)O)O)O)O)O)O
InChI: InChI=1S/C12H22O11/c13-1-3-5(15)7(17)9(19)11(21-3)23-12-10(20)8(18)6(16)4(2-14)22-12/h3-20H,1-2H2/t3-,4-,5-,6-,7+,8+,9-,10-,11-,12-/m1/s1
Instrument:  QExactive Plus Orbitrap
Instrument type: LC-ESI-QFT
Ms type: MS2
Ion mode: NEGATIVE
Collision energy: 20
Retention time: 5.99
Precursor m/z: 341.1087
Precursor type: [M-H]-
m/z	relative intensity
59.01352	273.126
61.98812	999
63.99234	14.492
74.02385	433.801
87.02717	29.179
92.03443	646.791
123.04836	277.278
161.04553	20.651
185.07602	372.789
339.13452	2.144
