Mass spectrum: Tans-4,4'-Azodiphenol ; ESI-QTOF; MS2; CE: 20
Name: Tans-4,4'-Azodiphenol 
Name: 4,4'-Dihydroxyazobenzene
Class: Non-Natural Product; Industrial Chemical
Formula: C12H10N2O2
Exact mass: 214.07423
SMILES: C1=CC(=CC=C1N=NC2=CC=C(C=C2)O)O
InChI: InChI=1S/C12H10N2O2/c15-11-5-1-9(2-6-11)13-14-10-3-7-12(16)8-4-10/h1-8,15-16H
Instrument: Agilent 6546 Q-ToF
Instrument type: ESI-QTOF
Ms type: MS2
Ion mode: POSITIVE
Ionization: ESI
Collision energy: 20
Precursor m/z: 411.2067
m/z	relative intensity
80.0489	11
93.0569	103
108.0443	999
108.051	69
108.0527	21
181.0985	10
181.1033	17
195.0786	11
195.081	28
197.0961	70
209.096	85
210.0915	353
210.1042	89
211.1119	19
219.0235	50
225.0905	94
226.1224	891
226.1256	12
226.1336	93
227.1266	19
237.0342	71
237.0372	17
290.1537	249
290.1653	12
291.1582	12
300.1388	15
303.1232	14
304.1329	52
318.149	937
318.1553	20
318.1614	90
319.1521	48
319.1578	96
319.1685	12
395.177	13
396.1788	126
396.1864	15
411.199	22
411.2045	34
411.2097	24
