Mass spectrum: Dechlorane 604; GC-EI-QTOF; MS1; CE: 70
Name: Dechlorane 604
Class: Non-natural product; Flame retardant
Formula: C13H4Br4Cl6
Exact mass: 685.5177679876
SMILES: C1[C@@H]([C@@]2(C(=C([C@]1(C2(Cl)Cl)Cl)Cl)Cl)Cl)C3=CC(=C(C(=C3Br)Br)Br)Br
InChI: InChI=1S/C13H4Br4Cl6/c14-5-1-3(6(15)8(17)7(5)16)4-2-11(20)9(18)10(19)12(4,21)13(11,22)23/h1,4H,2H2/t4-,11-,12+/m1/s1
Instrument: Agilent 7200 Accurate-Mass QToF GC/MS
Instrument type: GC-EI-QTOF
Ms type: MS1
Ion mode: POSITIVE
Ionization: EI
Collision energy: 70
Retention time: 12.19
m/z	relative intensity
35.9767660934679	74
73.0073879962166	31
74.0151178274494	140
75.0247827490176	38
79.9253784762962	44
81.9235313258727	41
86.014818907752	50
98.0146973952174	51
99.0225747017872	93
100.030131945142	129
101.037448581401	38
116.906042097442	35
118.902983670055	34
132.466752057366	36
133.466655798101	34
140.90612830677	50
142.903288565196	46
151.925673741615	31
153.925169985636	30
177.940554683494	30
178.949102516113	96
179.951604702804	47
180.947294260262	97
181.954176930682	40
190.409504231768	35
194.999234681777	44
202.880137915054	35
207.033213321648	36
212.384727285756	50
213.383859072945	55
213.89037912886	138
215.887744442914	162
217.884800341934	79
228.960435557416	38
230.365289514578	33
230.966588156579	31
234.843898011982	177
235.850857749978	33
236.84117278835	283
237.847466218486	45
238.838004891095	176
240.835189418641	56
248.859095251811	171
250.856511440656	265
252.339144067304	30
252.85297319059	165
254.849705039142	52
257.866858467887	138
258.867637680782	34
259.865556626679	264
260.86956875615	54
261.86470499295	126
264.935918837019	44
266.934123632477	39
269.812810785844	66
271.809816520654	125
273.806713822936	99
275.803404680144	41
310.884525797513	44
336.785284439151	40
337.791522105831	58
338.784131994113	124
339.790636587048	160
340.783365165942	129
341.788992203697	158
342.783632127617	47
343.787107003792	51
344.848078308954	48
346.850734558445	37
358.746861399589	45
360.744734086317	154
362.742874837719	175
364.740421345367	83
415.704386792369	142
417.702894307498	617
418.705415218579	55
419.701121582984	929
420.703426837763	80
421.69880018304	574
422.701435431331	49
423.69671648436	126
424.771451121757	64
426.769335805553	66
428.768126519136	32
436.657789093455	124
438.656121298905	583
439.658830845392	39
440.654304535763	999
441.656596650181	66
442.651929944755	766
443.654599183278	52
444.649099085775	267
446.647121328431	35
470.719073325576	38
504.682214050405	39
506.680948868973	32
689.514155861859	45
691.511739403518	68
693.509438028526	60
695.506296516544	35
