Mass spectrum: 4,4'-(2-Ethylhexylidene)diphenol; ESI-QTOF; MS2; CE: 10
Name: 4,4'-(2-Ethylhexylidene)diphenol
Name: 1,1-Bis(4-hydroxyphenyl)-2-ethylhexane
Class: Non-natural product; Industrial chemical
Formula: C20H26O2
Exact mass: 298.19328
SMILES: CCC(CCCC)C(C1C=CC(O)=CC=1)C1C=CC(O)=CC=1
InChI: InChI=1S/C20H26O2/c1-3-5-6-15(4-2)20(16-7-11-18(21)12-8-16)17-9-13-19(22)14-10-17/h7-15,20-22H,3-6H2,1-2H3
Instrument: Agilent 6546 Q-ToF
Instrument type: ESI-QTOF
Ms type: MS2
Ion mode: NEGATIVE
Ionization: ESI
Collision energy: 10
Precursor m/z: 297.186
m/z	relative intensity
61.9886	11
148.0327	11
197.0617	13
198.0688	300
198.0777	21
297.0475	22
297.1523	26
297.1862	999
297.1989	89
297.2434	17
297.2544	10
298.1904	16
773.8249	10
955.9652	20
980.0084	13
980.0191	63
