Mass spectrum: 2-(benzotriazol-2-yl)-4-(2-hydroxyethyl)phenol; LC-ESI-QTOF; MSn
Name: 2-(benzotriazol-2-yl)-4-(2-hydroxyethyl)phenol
Name: Benzeneethanol, 3-(2H-benzotriazol-2-yl)-4-hydroxy-
Class: Non-Natural Product; Benzotriazole
Formula: C14H13N3O2
Exact mass: 255.100776671
SMILES: OCCC1=CC(N2N=C3C=CC=CC3=N2)=C(O)C=C1
InChI: InChI=1S/C14H13N3O2/c18-8-7-10-5-6-14(19)13(9-10)17-15-11-3-1-2-4-12(11)16-17/h1-6,9,18-19H,7-8H2
Instrument: Waters G2-S QTOF
Instrument type: LC-ESI-QTOF
Ms type: MSn
Ion mode: POSITIVE
Precursor m/z: 256.1086
Precursor type: [M+H]+
m/z	relative intensity
101.5371	3
107.5926	2
108.0158	2
147.8780	2
148.3172	2
150.2936	3
164.1443	2
164.2809	2
202.2423	1
203.9710	1
212.3517	1
212.4955	3
215.8480	2
219.8230	1
219.8842	1
220.2691	1
222.0736	2
223.8987	1
226.2195	1
227.0870	5
238.0975	999
239.9996	2
241.5460	1
241.7158	4
242.3704	2
243.5352	1
243.8615	1
243.9447	3
247.5283	2
247.9355	1
248.3790	1
256.1082	440
