Mass spectrum: 2-(4,6-Diphenyl-1,3,5-triazin-2-yl)-5-methoxyphenol; ESI-QTOF; MS2; CE: 10
Name: 2-(4,6-Diphenyl-1,3,5-triazin-2-yl)-5-methoxyphenol
Name: UV-1579 
Class: Non-natural product; UV filer
Formula: C22H17N3O2
Exact mass: 355.13208
SMILES: COC1=CC(O)=C(C=C1)C1N=C(N=C(N=1)C1C=CC=CC=1)C1C=CC=CC=1
InChI: InChI=1S/C22H17N3O2/c1-27-17-12-13-18(19(26)14-17)22-24-20(15-8-4-2-5-9-15)23-21(25-22)16-10-6-3-7-11-16/h2-14,26H,1H3
Instrument: Agilent 6546 Q-ToF
Instrument type: ESI-QTOF
Ms type: MS2
Ion mode: POSITIVE
Ionization: ESI
Collision energy: 10
Retention time: 5.77
Precursor m/z: 356.13966
m/z	relative intensity
104.0495	26
150.055	30
356.1403	999
356.1795	37
