Mass spectrum: Kronisol; GC-EI-FT; MS; Positive
Name: Kronisol
Name: Bis(2-n-Butoxyethyl) phthalate
Class: Non-Natural Product; Phthalate ester
Formula: C20H30O6
Exact mass: 366.204239
SMILES: CCCCOCCOC(=O)C1=CC=CC=C1C(=O)OCCOCCCC
InChI: InChI=1S/C20H30O6/c1-3-5-11-23-13-15-25-19(21)17-9-7-8-10-18(17)20(22)26-16-14-24-12-6-4-2/h7-10H,3-6,11-16H2,1-2H3
Instrument: Thermo Scientific Q Exactive GC Hybrid Quadrupol-Orbitrap
Instrument type: GC-EI-FT
Ms type: MS
Ion mode: POSITIVE
Base peak: 149.02344
m/z	relative intensity
101.09621	16
104.0257	115
105.02918	9
117.09111	15
121.02855	50
122.03618	17
132.02057	32
132.05692	58
133.02834	13
133.06479	206
134.06824	20
148.05183	137
149.02344	999
149.05556	13
150.02673	88
163.03886	10
175.03902	12
176.04677	156
177.0502	17
177.05431	37
178.06252	12
191.03386	12
193.04944	386
194.05287	42
293.13846	9
