Mass spectrum: 82FTS; LC-ESI-FT; MS2
Name: 82FTS
Name: 3,3,4,4,5,5,6,6,7,7,8,8,9,9,10,10,10-heptadecafluorodecane-1-sulfonic acid
Class: Non-Natural Product; Fluorotelomer sulfonic acid
Formula: C10H5F17O3S
Exact mass: 527.9687939
SMILES: C(CS(=O)(=O)O)C(C(C(C(C(C(C(C(F)(F)F)(F)F)(F)F)(F)F)(F)F)(F)F)(F)F)(F)F
InChI: InChI=1S/C10H5F17O3S/c11-3(12,1-2-31(28,29)30)4(13,14)5(15,16)6(17,18)7(19,20)8(21,22)9(23,24)10(25,26)27/h1-2H2,(H,28,29,30)
Instrument: Vanquish LC, Thermo Scientific; Exploris 120 Orbitrap, Thermo Scientific
Instrument type: LC-ESI-FT
Ms type: MS2
Ion mode: NEGATIVE
Retention time: 6.87892594592571
Precursor m/z: 526.96051
Precursor type: [M-H]-
m/z	relative intensity
63.25400	12
79.95718	530
80.96503	722
129.88800	11
138.24197	11
198.44049	12
278.42172	11
316.98410	19
486.94482	26
506.95474	76
526.96082	999
