Mass spectrum: Methionine-sulfone; LC-ESI-QFT; MS2; CE:20; [M-H]-
Name: Methionine-sulfone
Name: (2S)-2-amino-4-methylsulfonylbutanoic acid
Class: Natural product; Metabolite
Formula: C5H11NO4S
Exact mass: 181.04076
SMILES: CS(=O)(=O)CC[C@@H](C(=O)O)N
InChI: InChI=1S/C5H11NO4S/c1-11(9,10)3-2-4(6)5(7)8/h4H,2-3,6H2,1H3,(H,7,8)/t4-/m0/s1
Instrument:  QExactive Plus Orbitrap
Instrument type: LC-ESI-QFT
Ms type: MS2
Ion mode: NEGATIVE
Collision energy: 20
Retention time: 1.45
Precursor m/z: 180.03348
Precursor type: [M-H]-
m/z	relative intensity
63.96225	685
78.98593	999
180.03352	93
