Mass spectrum: PFUNS; LC-ESI-FT; MS2
Name: PFUNS
Name: 1,1,2,2,3,3,4,4,5,5,6,6,7,7,8,8,9,9,10,10,11,11,11-tricosafluoroundecane-1-sulfonic acid
Class: Non-Natural Product; Perfluoroalkyl sulfonic acid
Formula: C11HF23O3S
Exact mass: 649.9279128
SMILES: C(C(C(C(C(C(F)(F)F)(F)F)(F)F)(F)F)(F)F)(C(C(C(C(C(F)(F)S(=O)(=O)O)(F)F)(F)F)(F)F)(F)F)(F)F
InChI: InChI=1S/C11HF23O3S/c12-1(13,2(14,15)4(18,19)6(22,23)8(26,27)10(30,31)32)3(16,17)5(20,21)7(24,25)9(28,29)11(33,34)38(35,36)37/h(H,35,36,37)
Instrument: Vanquish LC, Thermo Scientific; Exploris 120 Orbitrap, Thermo Scientific
Instrument type: LC-ESI-FT
Ms type: MS2
Ion mode: NEGATIVE
Retention time: 8.39851930893262
Precursor m/z: 648.91937
Precursor type: [M-H]-
m/z	relative intensity
79.95718	262
82.96067	5
98.95557	82
118.99249	5
125.14937	1
129.95412	8
144.13460	1
153.70493	1
168.98981	2
179.95067	2
190.12245	2
229.94873	7
279.94324	2
427.40454	1
648.91962	999
