Mass spectrum: 4,4-Bisphenol A; LC-ESI-QFT; MS2; CE:20; [M-H]-
Name: 4,4-Bisphenol A
Name: 4-[2-(4-hydroxyphenyl)propan-2-yl]phenol
Class: Non-natural product; Additive 
Formula: C15H16O2
Exact mass: 228.11514
SMILES: CC(C)(C1=CC=C(C=C1)O)C2=CC=C(C=C2)O
InChI: InChI=1S/C15H16O2/c1-15(2,11-3-7-13(16)8-4-11)12-5-9-14(17)10-6-12/h3-10,16-17H,1-2H3
Instrument:  QExactive Plus Orbitrap
Instrument type: LC-ESI-QFT
Ms type: MS2
Ion mode: NEGATIVE
Collision energy: 20
Retention time: 14.8757780833333
Precursor m/z: 227.10786
Precursor type: [M-H]-
m/z	relative intensity
76.97005	4
88.87929	2
93.03455	11
94.98029	3
104.98698	4
117.03444	2
133.06590	67
150.91629	2
160.42607	2
164.93198	1
176.92900	4
181.30939	1
183.13817	2
184.00230	3
194.94014	2
211.07646	140
226.87756	2
227.10789	999
