Mass spectrum: 2-PHENYLACETAMIDE; LC-ESI-QFT; MS2; CE:20; [M+H]+
Name: 2-PHENYLACETAMIDE
Name: Benzeneacetamide
Class: Natural product
Formula: C8H9NO
Exact mass: 135.16
SMILES: C1=CC=C(C=C1)CC(=O)N
InChI: InChI=1S/C8H9NO/c9-8(10)6-7-4-2-1-3-5-7/h1-5H,6H2,(H2,9,10)
Instrument:  QExactive Plus Orbitrap
Instrument type: LC-ESI-QFT
Ms type: MS2
Ion mode: POSITIVE
Collision energy: 20
Retention time: 9.10
Precursor m/z: 136.07574
Precursor type: [M+H]+
m/z	relative intensity
55.93476	23
65.03879	205
91.05421	999
136.07582	305
