Mass spectrum: Gentian Violet; LC-ESI-QTOF; MSn
Name: Gentian Violet
Name: [4-[bis[4-(dimethylamino)phenyl]methylidene]cyclohexa-2,5-dien-1-ylidene]-dimethylazanium
Class: Non-Natural Product; Dye
Formula: C25H30N3
Exact mass: 372.243424398
SMILES: CN(C)C1=CC=C(C=C1)C(C1=CC=C(C=C1)N(C)C)=C1C=CC(C=C1)=[N+](C)C
InChI: InChI=1S/C25H30N3.ClH/c1-26(2)22-13-7-19(8-14-22)25(20-9-15-23(16-10-20)27(3)4)21-11-17-24(18-12-21)28(5)6;/h7-18H,1-6H3;1H/q+1;/p-1
Instrument: Waters G2-S QTOF
Instrument type: LC-ESI-QTOF
Ms type: MSn
Ion mode: POSITIVE
Precursor m/z: 372.244
Precursor type: [M]+
m/z	relative intensity
235.1242	8
236.1307	4
239.0872	1
251.1552	12
252.1583	2
268.1125	1
284.1436	5
285.1485	1
311.1552	2
312.1613	4
313.1686	3
327.1856	2
328.1934	19
329.1990	7
340.1816	28
341.1864	10
342.1937	3
356.2137	387
357.2167	120
358.2201	13
372.2456	999
373.2477	322
374.2501	32
375.2508	2
