Mass spectrum: 2-(3-Bromophenyl)-4,6-diphenyl-1,3,5-triazine; ESI-QTOF; MS2; CE: 40
Name: 2-(3-Bromophenyl)-4,6-diphenyl-1,3,5-triazine
Name: 1,3,5-Triazine, 2-(3-bromophenyl)-4,6-diphenyl-
Class: Non-natural product; Industrial chemical
Formula: C21H14BrN3
Exact mass: 387.03711
SMILES: BrC1C=C(C=CC=1)C1N=C(N=C(N=1)C1C=CC=CC=1)C1C=CC=CC=1
InChI: InChI=1S/C21H14BrN3/c22-18-13-7-12-17(14-18)21-24-19(15-8-3-1-4-9-15)23-20(25-21)16-10-5-2-6-11-16/h1-14H
Instrument: Agilent 6546 Q-ToF
Instrument type: ESI-QTOF
Ms type: MS2
Ion mode: POSITIVE
Ionization: ESI
Collision energy: 40
Retention time: 6.07
Precursor m/z: 388.04499
m/z	relative intensity
77.0384	54
104.0497	999
104.072	39
181.9601	226
