Mass spectrum: 1,3-Bis(4-cyanophenyl)propane; ESI-QTOF; MS2; CE: 40
Name: 1,3-Bis(4-cyanophenyl)propane
Name: BPA-dicyanate
Class: Non-natural product; Industrial chemical
Formula: C17H14N2O2
Exact mass: 278.10553
SMILES: CC(C)(C1C=CC(=CC=1)OC#N)C1C=CC(=CC=1)OC#N
InChI: InChI=1S/C17H14N2O2/c1-17(2,13-3-7-15(8-4-13)20-11-18)14-5-9-16(10-6-14)21-12-19/h3-10H,1-2H3
Instrument: Agilent 6546 Q-ToF
Instrument type: ESI-QTOF
Ms type: MS2
Ion mode: POSITIVE
Ionization: ESI
Collision energy: 40
Precursor m/z: 296.1394
m/z	relative intensity
99.0433	481
172.0844	999
