Mass spectrum: 4IPPDPP; GC-EI-FT; MS; Positive
Name: 4IPPDPP
Name: Tris(4-isopropylphenyl)phosphate
Class: Non-Natural Product; Organophosphate
Formula: C21H21O4P
Exact mass: 368.117746
SMILES: CC(C)C1=CC=C(C=C1)OP(=O)(OC2=CC=C(C=C2)C(C)C)OC3=CC=C(C=C3)C(C)C
InChI: InChI=1S/C27H33O4P/c1-19(2)22-7-13-25(14-8-22)29-32(28,30-26-15-9-23(10-16-26)20(3)4)31-27-17-11-24(12-18-27)21(5)6/h7-21H,1-6H3
Instrument: Thermo Scientific Q Exactive GC Hybrid Quadrupol-Orbitrap
Instrument type: GC-EI-FT
Ms type: MS
Ion mode: POSITIVE
Base peak: 353.0935
m/z	relative intensity
51.023	11
65.0386	60
77.0386	386
79.0543	22
90.0465	21
91.0543	187
94.0414	40
95.0492	27
103.0543	136
104.0621	17
105.0448	31
107.0492	19
107.0857	16
116.0621	10
118.0737	12
118.0777	249
120.0571	45
121.0648	58
135.0805	27
138.9944	79
139.0543	14
141.0699	84
142.0733	10
142.0777	19
149.0152	74
151.0543	27
152.062	204
153.01	11
153.0698	71
165.0698	37
166.0179	18
166.0777	9
167.0257	80
168.0569	120
169.0603	16
169.0647	50
170.0725	22
175.0155	18
176.5466	58
177.0483	13
178.0776	393
179.0604	10
179.0854	65
181.0648	42
183.0206	69
187.0307	28
194.0726	23
194.109	19
195.0804	25
196.0883	17
197.0961	61
198.0995	10
200.0232	22
201.0311	15
240.0939	14
241.0413	58
249.0311	33
251.0467	149
252.0936	19
253.1013	16
259.052	36
277.0625	19
353.0935	999
354.0971	212
355.0999	27
367.1093	28
368.1173	287
369.1207	64
