Mass spectrum: TBEP; GC-EI-FT; MS; Positive
Name: TBEP
Name: Tris(2-butoxyethyl) phosphate
Class: Non-Natural Product; Organophosphate
Formula: C18H39O7P
Exact mass: 398.24334
SMILES: CCCCOCCOP(=O)(OCCOCCCC)OCCOCCCC
InChI: InChI=1S/C18H39O7P/c1-4-7-10-20-13-16-23-26(19,24-17-14-21-11-8-5-2)25-18-15-22-12-9-6-3/h4-18H2,1-3H3
Instrument: Thermo Scientific Q Exactive GC Hybrid Quadrupol-Orbitrap
Instrument type: GC-EI-FT
Ms type: MS
Ion mode: POSITIVE
Base peak: 124.9998
m/z	relative intensity
55.0543	67
81.9814	26
85.0648	733
86.0682	39
98.9843	416
100.0884	20
101.0962	132
111.992	19
112.9999	131
122.9842	26
124.9998	999
127.0154	266
139.0154	113
140.9948	30
141.0311	18
143.0105	96
151.0155	28
153.0311	320
154.039	74
155.0104	136
155.0467	73
171.0417	71
181.0623	19
199.073	266
225.0886	40
227.1043	141
253.12	25
255.0992	24
299.1618	60
