Mass spectrum: Bisphenol-AP; LC-ESI-QFT; MS2; CE:20; [M-H]-
Name: Bisphenol AP
Name: 4-[1-(4-hydroxyphenyl)-1-phenylethyl]phenol
Class: Non-natural product; Additive 
Formula: C20H18O2
Exact mass: 290.13097
SMILES: CC(C1=CC=CC=C1)(C2=CC=C(C=C2)O)C3=CC=C(C=C3)O
InChI: InChI=1S/C20H18O2/c1-20(15-5-3-2-4-6-15,16-7-11-18(21)12-8-16)17-9-13-19(22)14-10-17/h2-14,21-22H,1H3
Instrument:  QExactive Plus Orbitrap
Instrument type: LC-ESI-QFT
Ms type: MS2
Ion mode: NEGATIVE
Collision energy: 20
Retention time: 15.73
Precursor m/z: 289.12369
Precursor type: [M-H]-
m/z	relative intensity
93.03433	6
103.38277	2
195.08145	31
211.07654	27
256.96152	3
273.09229	100
274.10016	231
289.12360	999
