Mass spectrum: Tri(2-isopropylphenyl)phosphate; GC-EI-FT; MS; Positive
Name: Tri(2-isopropylphenyl)phosphate
Name: tris(2-propan-2-ylphenyl) phosphate
Class: Non-Natural Product; Organophosphate flame retardant
Formula: C27H33O4P
Exact mass: 452.211647
SMILES: CC(C)C1=CC=CC=C1OP(=O)(OC2=CC=CC=C2C(C)C)OC3=CC=CC=C3C(C)C
InChI: InChI=1S/C27H33O4P/c1-19(2)22-13-7-10-16-25(22)29-32(28,30-26-17-11-8-14-23(26)20(3)4)31-27-18-12-9-15-24(27)21(5)6/h7-21H,1-6H3
Instrument: Thermo Scientific Q Exactive GC Hybrid Quadrupol-Orbitrap
Instrument type: GC-EI-FT
Ms type: MS
Ion mode: POSITIVE
Base peak: 251.04678
m/z	relative intensity
50.24449	10
50.35599	3
51.02296	3
62.7604	9
62.76145	2
65.03856	14
73.272	3
75.02291	2
76.03082	2
77.03859	80
78.04199	5
78.04644	69
79.04982	5
79.05429	13
83.78368	1
89.03854	8
90.04651	1
91.05421	173
92.0578	13
93.06989	5
95.04916	11
98.98426	4
102.04641	13
103.05016	1
103.05431	89
104.05757	7
104.06202	6
105.03356	1
105.06995	10
107.04919	29
108.0525	2
113.05072	1
115.05428	138
116.0577	14
116.06212	15
117.06992	562
118.04141	1
118.07353	54
118.07765	822
118.08259	5
119.04917	10
119.08108	81
119.0854	8
120.05256	1
120.05704	3
120.08445	3
121.02837	1
121.06486	23
122.06815	2
128.0621	6
129.06993	5
131.04924	3
132.05702	3
133.02039	2
133.06484	3
134.07282	2
135.08041	9
136.05191	1
137.01509	12
141.00992	3
141.06996	2
143.08551	1
145.10126	4
149.01506	24
150.01859	2
150.06757	1
151.03076	2
152.06204	12
153.06986	13
154.07329	2
155.08554	1
157.00484	4
160.12466	1
163.03078	13
164.06198	1
165.00998	45
165.04642	3
165.0699	22
166.01334	3
166.07324	3
166.07764	2
167.02579	7
167.08562	2
168.05699	2
169.00497	2
169.06467	3
170.07254	1
174.00766	2
175.01544	136
176.01892	9
176.06215	4
177.06979	5
178.07765	68
179.02557	42
179.08099	9
179.08554	20
180.02882	4
180.08873	3
181.04134	8
181.06471	6
183.02051	23
183.08043	8
184.02391	2
187.01552	27
189.06981	11
190.07765	9
191.02548	1
191.08098	1
191.08554	9
192.08873	1
192.09337	3
193.10117	6
194.07259	2
195.08052	7
196.08345	1
197.03624	18
197.09596	4
198.03954	2
199.05188	4
201.03107	25
202.03438	2
202.07759	9
203.08553	9
204.08873	2
204.09343	3
205.10144	4
206.1091	3
207.08054	1
215.02557	10
215.04669	57
216.02878	2
216.05484	32
217.06256	20
218.06627	2
221.13236	23
222.13593	4
233.03626	10
239.08516	4
240.09399	2
241.04131	6
245.03633	3
249.03087	7
251.04678	999
252.05017	129
253.05205	10
253.10114	2
254.05469	1
255.05684	2
257.03632	3
259.05197	11
261.03131	6
263.04694	28
264.05048	4
267.05673	1
273.06757	16
274.07123	3
275.04657	4
275.08337	7
277.06247	52
278.06577	7
279.07788	2
289.06232	3
291.07816	145
292.08127	22
293.09375	419
294.09714	68
301.09888	3
305.09415	1
317.0939	4
319.10931	13
320.11258	4
327.07819	4
333.12494	20
334.13287	70
335.14084	178
336.14441	25
337.14722	4
339.07785	12
351.07809	2
353.09375	50
354.09699	10
365.09375	1
367.10931	82
368.11261	14
393.12494	2
395.14063	29
396.14407	7
397.14703	1
409.15628	86
410.15982	17
411.16309	3
437.18756	13
438.19153	4
447.34726	2
452.21109	218
453.21466	65
454.21756	11
