Mass spectrum: Tris(2,4-di-tert-butylphenyl) phosphate; LC-ESI-QTOF; MSn
Name: Phenol, 2,4-bis(1,1-dimethylethyl)-, phosphate
Name: Tris(2,4-di-tert-butylphenyl) phosphate
Class: Non-Natural Product; Organophosphate
Formula: C42H63O4P
Exact mass: 662.446397507
SMILES: CC(C)(C)C1=CC(=C(OP(=O)(OC2=C(C=C(C=C2)C(C)(C)C)C(C)(C)C)OC2=C(C=C(C=C2)C(C)(C)C)C(C)(C)C)C=C1)C(C)(C)C
InChI: InChI=1S/C42H63O4P/c1-37(2,3)28-19-22-34(31(25-28)40(10,11)12)44-47(43,45-35-23-20-29(38(4,5)6)26-32(35)41(13,14)15)46-36-24-21-30(39(7,8)9)27-33(36)42(16,17)18/h19-27H,1-18H3
Instrument: Waters G2-S QTOF
Instrument type: LC-ESI-QTOF
Ms type: MSn
Ion mode: POSITIVE
Precursor m/z: 663.4542
Precursor type: [M+H]+
m/z	relative intensity
251.0471	1
327.0789	37
328.0815	6
383.1416	80
384.1447	17
439.2049	198
440.2075	56
441.2100	8
495.2685	440
496.2708	169
497.2733	27
498.2750	4
551.3301	346
552.3324	135
553.3349	25
554.3362	3
607.3924	389
608.3953	159
609.3981	33
610.4013	5
663.4562	999
664.4585	601
665.4611	152
666.4640	18
