Mass spectrum: d-HCH; GC-EI-FT; MS; Positive
Name: d-HCH
Name: delta-hexachlorocyclohexane
Class: Non-Natural Product
Formula: C6H6Cl6
Exact mass: 287.86007
SMILES: C1(C(C(C(C(C1Cl)Cl)Cl)Cl)Cl)Cl
InChI: InChI=1S/C6H6Cl6/c7-1-2(8)4(10)6(12)5(11)3(1)9/h1-6H
Instrument: Trace 1310 GC, Thermo Scientific; Q Exactive Orbitrap, Thermo Scientific
Instrument type: GC-EI-FT
Ms type: MS
Ion mode: POSITIVE
Retention time: 11.59043
Base peak: 180.9372
m/z	relative intensity
53.03863	5
55.05426	26
56.06205	48
67.05425	8
74.01514	18
75.02299	87
77.0386	146
79.05425	39
80.06209	7
82.07774	7
85.02845	4
87.04412	2
92.06207	8
93.06995	28
95.0492	9
96.0934	4
97.06488	7
98.07267	6
107.0492	4
108.05701	4
108.9607	297
109.10124	7
110.95774	204
112.95477	34
113.04199	3
115.05429	8
118.07775	2
119.0856	12
120.96069	101
121.10123	20
122.95776	66
123.11686	6
128.06207	9
129.0699	5
131.0856	7
132.96069	43
134.10906	4
135.11688	11
139.00578	115
142.92171	66
143.08556	4
144.91875	56
145.96848	235
146.9763	280
147.96552	157
148.97339	177
153.06988	2
155.92953	67
157.9265	65
159.11681	12
163.1481	7
171.11676	10
172.96683	174
174.96384	114
179.17941	3
180.93724	999
181.94066	65
184.9314	307
186.9285	34
191.00101	4
207.03235	6
216.91406	287
218.91107	345
224.90225	1
277.1954	2
283.04813	2
