Mass spectrum: Erythritol; LC-ESI-QFT; MS2; CE:20; [M-H]-
Name: Erythritol
Name: (2S,3R)-butane-1,2,3,4-tetrol
Class: Natural product
Formula: C4H10O4
Exact mass: 122.05791
SMILES: C([C@H]([C@H](CO)O)O)O
InChI: InChI=1S/C4H10O4/c5-1-3(7)4(8)2-6/h3-8H,1-2H2/t3-,4+
Instrument:  QExactive Plus Orbitrap
Instrument type: LC-ESI-QFT
Ms type: MS2
Ion mode: NEGATIVE
Collision energy: 20
Retention time: 4.97
Precursor m/z: 121.0505
Precursor type: [M-H]-
m/z	relative intensity
59.01355	608.23
61.98814	122.35
63.96217	1.17
74.02389	200.4
79.95736	8.4
89.02441	59.22
91.93145	1.78
99.92584	999
113.92628	5.6
116.9285	626.63
121.05065	33.73
