Mass spectrum: PFHXS; LC-ESI-FT; MS2
Name: PFHXS
Name: 1,1,2,2,3,3,4,4,5,5,6,6,6-tridecafluorohexane-1-sulfonic acid
Class: Non-Natural Product; Perfluoroalkyl sulfonic acid
Formula: C6HF13O3S
Exact mass: 399.9438812
SMILES: C(C(C(C(F)(F)S(=O)(=O)O)(F)F)(F)F)(C(C(F)(F)F)(F)F)(F)F
InChI: InChI=1S/C6HF13O3S/c7-1(8,3(11,12)5(15,16)17)2(9,10)4(13,14)6(18,19)23(20,21)22/h(H,20,21,22)
Instrument: Vanquish LC, Thermo Scientific; Exploris 120 Orbitrap, Thermo Scientific
Instrument type: LC-ESI-FT
Ms type: MS2
Ion mode: NEGATIVE
Retention time: 6.51009647684097
Precursor m/z: 398.93607
Precursor type: [M-H]-
m/z	relative intensity
79.95721	644
82.96074	14
98.95568	177
118.99243	21
168.98997	10
398.93613	999
