Mass spectrum: TDCPP; GC-EI-FT; MS; Positive
Name: TDCPP
Name: Tris(1,3-dichloroisopropyl)phosphate
Class: Non-Natural Product; Organophosphate flame retardants
Formula: C9H15Cl6O4P
Exact mass: 427.883911
SMILES: C(C(CCl)OP(=O)(OC(CCl)CCl)OC(CCl)CCl)Cl
InChI: InChI=1S/C9H15Cl6O4P/c10-1-7(2-11)17-20(16,18-8(3-12)4-13)19-9(5-14)6-15/h7-9H,1-6H2
Instrument: Thermo Scientific Q Exactive GC Hybrid Quadrupol-Orbitrap
Instrument type: GC-EI-FT
Ms type: MS
Ion mode: POSITIVE
Base peak: 98.98421
m/z	relative intensity
50.98109	3
52.23721	3
52.73644	2
57.03357	79
58.03696	3
64.97878	4
67.23113	2
67.73047	1
72.98398	3
74.99966	433
76.00301	13
76.00748	4
76.9967	148
78.00005	5
78.00454	1
78.9946	11
80.97367	25
80.99162	4
81.03355	2
81.98148	1
82.94491	14
82.98929	1
88.97884	2
90.99451	5
92.99165	1
93.0103	2
94.98923	1
95.22247	1
96.96063	1
98.93977	4
98.98421	999
98.98804	6
98.99963	3
100.98843	8
104.97359	2
108.96074	6
109.96847	4
110.95776	4
110.9764	7
111.96545	2
112.97336	5
116.95035	31
118.9473	10
118.98938	3
121.005	4
122.98428	57
124.99994	8
128.95035	3
134.91641	2
134.98422	13
135.99208	2
136.99995	88
138.00324	3
140.9503	5
140.99486	7
142.9474	2
148.9997	2
152.95033	1
154.96605	234
155.96939	7
156.96312	76
157.96639	2
158.96086	273
159.96426	6
160.95799	86
160.96526	2
160.9998	2
161.96137	2
170.9608	4
171.96858	1
172.93208	5
172.97661	32
174.92921	3
174.97359	10
190.94264	764
191.94592	24
192.93971	491
193.94299	17
194.93677	78
195.94017	2
206.93762	2
208.95331	360
209.95657	12
210.95021	232
211.95357	7
212.94737	37
232.95331	7
234.89217	2
234.95039	5
234.96895	1
246.96893	17
248.96599	11
268.93021	207
269.9335	11
270.92719	195
271.93051	11
272.92435	62
274.92111	7
282.94562	7
284.94293	7
302.90897	12
304.90579	6
318.92246	38
319.92526	3
320.91922	49
321.92273	3
322.91647	23
323.91995	2
324.91361	5
356.93802	4
358.93503	5
360.93204	2
378.89908	101
379.90241	9
380.89618	160
381.89951	14
382.89301	101
383.89633	8
384.89002	32
385.89282	3
386.88687	5
394.91177	3
396.90884	1
