Mass spectrum: 1,3-DPMA; GC-EI-QTOF; MS1; CE: 70
Name: 1,3-DPMA
Name: 1,3-Dechlorane Plus Monoadduct
Class: Non-natural product, Flame retardant
Formula: C13H12Cl6
Exact mass: 377.9070166428
Instrument: Agilent 7200 Accurate-Mass QToF GC/MS
Instrument type: GC-EI-QTOF
Ms type: MS1
Ion mode: POSITIVE
Ionization: EI
Collision energy: 70
Retention time: 6.99
m/z	relative intensity
27.0233385459871	16
27.9943029471838	17
29.0389556976465	15
35.9767860258795	22
39.0236688764817	84
41.0392754943632	99
43.9900981757046	10
50.0156543454425	10
51.0234274064275	31
52.031068084879	12
53.0389417933917	42
54.0466071251379	22
55.0545740355351	34
63.0229877915474	16
65.0386994042239	64
66.0463133902649	96
67.0543233142137	216
68.0611404137127	12
72.9839136773565	14
74.0149737472474	10
74.9996765937381	20
75.0240246133369	16
77.0385176798611	118
78.0462761278305	105
79.0542346917978	770
80.0619142084634	801
81.0692605288654	69
91.0542384210633	91
92.0609298312836	9
93.0698581261457	482
94.0751325786044	34
95.0853084751342	17
101.01580379415	11
105.069716510357	16
107.085279021798	71
108.093500965738	999
109.098795353828	76
126.045507595448	10
129.045725707329	10
139.053693180379	21
140.906057146189	11
142.903189000257	10
149.015007880719	17
152.061636750291	13
160.00732536446	17
161.014251638594	11
162.02161684023	16
165.069783858896	25
169.968499034619	15
173.014875060386	16
175.027823850715	10
182.975818251741	23
184.974288419332	14
195.983537423787	26
197.981789665378	16
208.990088694681	10
213.890743293596	22
215.887646456277	28
216.937643518979	16
217.885079583565	13
217.943450577999	10
218.937329419371	16
220.968174911954	33
222.966156139733	32
226.897879305901	18
228.895553851197	22
229.945215484082	17
230.893146819849	10
230.951175844411	12
231.943449673328	16
232.950535586861	10
234.843778002662	24
235.00708169201	10
236.014624679512	12
236.840659629183	37
238.838033356561	24
249.848516128939	10
254.9119573312	9
261.866412805786	13
263.86419617524	19
265.861118000198	12
270.984257998521	16
272.982027766699	15
306.961110143286	13
308.95849247444	15
342.937451546184	18
344.934538442846	30
346.932409599465	19
379.903137255518	14
381.900325304123	12
