Mass spectrum: Dechlorane 602; GC-EI-QTOF; MS1; CE: 70
Name: Dechlorane 602
Name: 1,2,3,4,6,7,8,9,10,10,11,11-Dodecachloro-1,4,4a,5a,6,9,9a,9b-octahydro-1,4:6,9-dimethanodibenzofuran
Class: Non-natural product; Flame retardant
Formula: C14H4Cl12O
Exact mass: 607.6524472699
SMILES: C12C3C(C4(C(=C(C3(C4(Cl)Cl)Cl)Cl)Cl)Cl)OC1C5(C(=C(C2(C5(Cl)Cl)Cl)Cl)Cl)Cl
InChI: InChI=1S/C14H4Cl12O/c15-3-5(17)11(21)7-1(9(3,19)13(11,23)24)2-8(27-7)12(22)6(18)4(16)10(2,20)14(12,25)26/h1-2,7-8H
Instrument: Agilent 7200 Accurate-Mass QToF GC/MS
Instrument type: GC-EI-QTOF
Ms type: MS1
Ion mode: POSITIVE
Ionization: EI
Collision energy: 70
Retention time: 9.31
m/z	relative intensity
27.9943623209175	45
29.0128738303173	68
29.0389589506928	35
31.9902430273854	133
39.0236737693388	38
39.9829420087872	46
40.0310802282408	46
68.025828751541	838
69.0332173391354	29
73.0468567886981	40
75.000137144983	28
79.0830033937324	29
96.004261360597	28
96.0556494736577	32
102.995424873862	291
103.05349359433	28
104.988152648097	70
106.944622793395	35
116.90535527452	47
118.904140507476	43
135.062468314111	41
140.906429832026	47
142.902803209285	46
142.94453334377	30
166.904025720124	28
168.962731611196	28
169.968268581626	66
171.966511827495	38
190.920335027124	40
192.919361935054	44
200.883294829685	37
202.879964922312	50
203.929733723426	77
204.934401502493	34
205.927596701427	71
206.933643457587	30
208.113207168206	41
215.887924151033	32
234.844206436153	226
234.928577626794	33
235.851991342662	111
236.841359684436	364
236.881560104924	27
237.848625544002	180
237.889527744414	38
238.83858962784	244
238.895557913459	53
239.845797120588	118
239.88978939887	36
240.83548615199	72
240.892930142314	54
241.842157696164	37
253.017266386888	45
260.86188385468	37
262.85899926638	58
264.853808234635	39
266.894337223118	32
267.030821106625	79
268.891315526171	46
269.81302724474	496
269.855720280277	45
269.895430929046	47
270.815892487407	34
271.809921518008	999
271.858355011939	40
271.879272714752	75
272.813583446603	59
273.807305817697	779
273.872266865375	53
274.810925506024	44
275.804373499513	307
275.856280020048	46
277.801395002455	80
295.829017252435	30
297.825629650432	69
299.82354402329	57
302.872420095155	37
304.866609121322	53
306.865670263411	36
308.845358919834	37
310.833785080329	60
312.831181747681	48
337.841554731554	44
339.836536149153	90
341.833372291329	70
343.830212540246	39
370.833282248737	49
372.833251879121	31
384.966513867692	33
403.066107863465	28
404.798368830517	29
508.711383615854	44
510.709770002016	131
512.707821603834	185
512.776761373518	29
513.712168417994	32
514.703107480012	167
515.707399915038	31
516.701111482808	100
518.698758972918	38
