Mass spectrum: Bisphenol A dimethacrylate; ESI-QTOF; MS2; CE: 40
Name: Bisphenol A dimethacrylate
Name: 4,4'-Isopropylidenediphenol dimethacrylate
Class: Non-natural product; Industrial chemical
Formula: C23H24O4
Exact mass: 364.16746
SMILES: CC(C)(C1C=CC(=CC=1)OC(=O)C(C)=C)C1C=CC(=CC=1)OC(=O)C(C)=C
InChI: InChI=1S/C23H24O4/c1-15(2)21(24)26-19-11-7-17(8-12-19)23(5,6)18-9-13-20(14-10-18)27-22(25)16(3)4/h7-14H,1,3H2,2,4-6H3
Instrument: Agilent 6546 Q-ToF
Instrument type: ESI-QTOF
Ms type: MS2
Ion mode: POSITIVE
Ionization: ESI
Collision energy: 40
Precursor m/z: 365.17474
m/z	relative intensity
69.0325	732
86.0955	690
114.092	595
152.082	999
203.0659	877
