Mass spectrum: Santowhite; ESI-QTOF; MS2; CE: 40
Name: Santowhite
Name: BBM
Class: Non-natural product; Additive
Formula: C26H38O2
Exact mass: 382.28718
SMILES: CCCC(C1=CC(=C(O)C=C1C)C(C)(C)C)C1=CC(=C(O)C=C1C)C(C)(C)C
InChI: InChI=1S/C26H38O2/c1-10-11-18(19-14-21(25(4,5)6)23(27)12-16(19)2)20-15-22(26(7,8)9)24(28)13-17(20)3/h12-15,18,27-28H,10-11H2,1-9H3
Instrument: Agilent 6546 Q-ToF
Instrument type: ESI-QTOF
Ms type: MS2
Ion mode: NEGATIVE
Ionization: ESI
Collision energy: 40
Precursor m/z: 381.27991
m/z	relative intensity
61.9886	26
72.994	23
108.9907	16
147.0808	23
148.0844	16
163.1129	999
163.1203	28
170.9603	16
187.0069	17
202.1346	41
217.1584	49
217.1627	53
217.1675	15
232.9298	32
238.8838	18
281.1526	16
322.1953	24
323.2027	306
323.2077	18
335.2035	20
337.1781	30
337.2054	22
337.2114	49
337.2175	768
337.2274	35
338.0299	16
338.2254	595
338.2332	107
338.2391	43
365.2421	27
381.2673	41
381.2809	594
381.2938	21
382.2882	42
853.169	18
