Mass spectrum: 2,2-Bisphenol F; LC-ESI-QFT; MS2; CE:20; [M-H]-
Name: 2,2-Bisphenol F
Name: 2-[(2-hydroxyphenyl)methyl]phenol
Class: Non-natural product; Additive 
Formula: C13H12O2
Exact mass: 200.08379
SMILES: C1=CC=C(C(=C1)CC2=CC=CC=C2O)O
InChI: InChI=1S/C13H12O2/c14-12-7-3-1-5-10(12)9-11-6-2-4-8-13(11)15/h1-8,14-15H,9H2
Instrument:  QExactive Plus Orbitrap
Instrument type: LC-ESI-QFT
Ms type: MS2
Ion mode: NEGATIVE
Collision energy: 20
Retention time: 14.86
Precursor m/z: 199.07651
Precursor type: [M-H]-
m/z	relative intensity
51.66214	0
65.03957	12
69.90376	1
75.02398	1
76.97001	1
77.10296	0
79.95736	1
92.02677	1
92.92813	1
93.03452	999
94.03776	1
108.99684	1
150.91560	1
166.91005	2
166.98373	1
168.92540	0
184.92107	2
199.07652	392
199.13367	8
