Mass spectrum: PFDS; LC-ESI-FT; MS2
Name: PFDS
Name: 1,1,2,2,3,3,4,4,5,5,6,6,7,7,8,8,9,9,10,10,10-henicosafluorodecane-1-sulfonic acid
Class: Non-Natural Product; Perfluoroalkyl sulfonic acid
Formula: C10HF21O3S
Exact mass: 599.9311065
SMILES: C(C(C(C(C(C(F)(F)S(=O)(=O)O)(F)F)(F)F)(F)F)(F)F)(C(C(C(C(F)(F)F)(F)F)(F)F)(F)F)(F)F
InChI: InChI=1S/C10HF21O3S/c11-1(12,3(15,16)5(19,20)7(23,24)9(27,28)29)2(13,14)4(17,18)6(21,22)8(25,26)10(30,31)35(32,33)34/h(H,32,33,34)
Instrument: Vanquish LC, Thermo Scientific; Exploris 120 Orbitrap, Thermo Scientific
Instrument type: LC-ESI-FT
Ms type: MS2
Ion mode: NEGATIVE
Retention time: 8.00871182438532
Precursor m/z: 598.92285
Precursor type: [M-H]-
m/z	relative intensity
68.99551	2
79.95721	288
82.96058	8
86.78392	1
98.95558	87
118.99225	5
129.95438	6
146.24825	1
161.94312	2
168.98903	3
211.58142	1
229.94836	4
279.94333	2
379.93427	1
529.46143	1
598.92328	999
