Mass spectrum: N,N-DIMETHYLGLYCINE; LC-ESI-QFT; MS2; CE:20; [M+H]+
Name: N,N-DIMETHYLGLYCINE
Name: 2-(dimethylamino)acetic acid
Class: Natural product; Metabolite
Formula: C4H9NO2
Exact mass: 103.06333
SMILES: CN(C)CC(=O)O
InChI: InChI=1S/C4H9NO2/c1-5(2)3-4(6)7/h3H2,1-2H3,(H,6,7)
Instrument:  QExactive Plus Orbitrap
Instrument type: LC-ESI-QFT
Ms type: MS2
Ion mode: POSITIVE
Collision energy: 20
Retention time: 1.33
Precursor m/z: 104.07059
Precursor type: [M+H]+
m/z	relative intensity
55.93478	1
56.04987	10
57.05768	2
58.06548	999
69.84907	1
104.07058	123
104.10662	1
