Mass spectrum: 1,3 Cyclohexanedione; LC-ESI-QFT; MS2; CE:20; [M+H]+
Name: 1,3 Cyclohexanedione
Name: cyclohexane-1,3-dione
Class: Non-natural product; Industrial chemical
Formula: C6H8O2
Exact mass: 112.13
SMILES: C1CC(=O)CC(=O)C1
InChI: InChI=1S/C6H8O2/c7-5-2-1-3-6(8)4-5/h1-4H2
Instrument:  QExactive Plus Orbitrap
Instrument type: LC-ESI-QFT
Ms type: MS2
Ion mode: POSITIVE
Collision energy: 20
Retention time: 7.51
Precursor m/z: 113.05968
Precursor type: [M+H]+
m/z	relative intensity
67.05428	999
95.04929	558
