Mass spectrum: D-Glucose; LC-ESI-QFT; MS2; CE:20; [M-H]-
Name: D-Glucose
Name: (3R,4S,5S,6R)-6-(hydroxymethyl)oxane-2,3,4,5-tetrol
Class: Natural product
Formula: C6H12O6
Exact mass: 180.06339
SMILES: C([C@@H]1[C@H]([C@@H]([C@H](C(O1)O)O)O)O)O
InChI: InChI=1S/C6H12O6/c7-1-2-3(8)4(9)5(10)6(11)12-2/h2-11H,1H2/t2-,3-,4+,5-,6?/m1/s1
Instrument:  QExactive Plus Orbitrap
Instrument type: LC-ESI-QFT
Ms type: MS2
Ion mode: NEGATIVE
Collision energy: 20
Retention time: 4.75
Precursor m/z: 179.0559
Precursor type: [M-H]-
m/z	relative intensity
59.01352	999
71.01374	308.21
85.02943	48.7
89.02238	384.75
114.93403	21.57
115.92068	97.11
116.92849	357.25
117.92865	16.47
119.03488	181.78
127.00108	1.3
131.01353	16.32
143.92487	34.15
173.02751	0.94
