Mass spectrum: 2-(2H-Benzotriazol-2-yl)-4,6-bis(tert-pentyl)phenol N-oxide; LC-ESI-QTOF; MSn
Name: 2,4-bis(2-methylbutan-2-yl)-6-(1-oxidobenzotriazol-1-ium-2-yl)phenol
Name: 2-(2H-Benzotriazol-2-yl)-4,6-bis(tert-pentyl)phenol N-oxide
Class: Non-Natural Product; UV Stabilizer
Formula: C22H29N3O2
Exact mass: 367.225977186
SMILES: CCC(C)(C)C1=CC(=C(O)C(=C1)N1N=C2C=CC=CC2=[N+]1[O-])C(C)(C)CC
InChI: InChI=1S/C22H29N3O2/c1-7-21(3,4)15-13-16(22(5,6)8-2)20(26)19(14-15)24-23-17-11-9-10-12-18(17)25(24)27/h9-14,26H,7-8H2,1-6H3
Instrument: Waters G2-S QTOF
Instrument type: LC-ESI-QTOF
Ms type: MSn
Ion mode: POSITIVE
Precursor m/z: 368.2338
Precursor type: [M+H]+
m/z	relative intensity
183.0694	4
223.1006	2
224.1090	5
237.1079	1
238.0981	2
248.1986	1
250.1243	3
252.1148	100
253.1183	12
264.1429	1
265.1288	1
266.1289	6
280.1444	10
281.1534	2
292.1448	6
294.1589	14
298.1558	17
308.1772	3
322.1933	999
323.1954	213
336.2078	19
351.2315	95
352.2345	22
368.2356	439
369.2379	113
370.2401	7
