Mass spectrum: D4-Ph3; GC-EI-FT; MS; Positive
Name: D4-Ph3
Name: 2,2,4,6,8-pentamethyl-4,6,8-triphenyl-[1,3 ,5,7,2,4,6,8]cyclotetrasiloxane
Class: Non-Natural Product; Siloxane
Formula: C23H30O4Si4
Exact mass: 482.12212
SMILES: C[Si]1(O[Si](O[Si](O[Si](O1)(C)C2=CC=CC=C2)(C)C3=CC=CC=C3)(C)C4=CC=CC=C4)C
InChI: InChI=1S/C23H30O4Si4/c1-28(2)24-29(3,21-15-9-6-10-16-21)26-31(5,23-19-13-8-14-20-23)27-30(4,25-28)22-17-11-7-12-18-22/h6-20H,1-5H3
Instrument: Thermo Scientific Q Exactive GC Hybrid Quadrupol-Orbitrap
Instrument type: GC-EI-FT
Ms type: MS
Ion mode: POSITIVE
Base peak: 187.0134
m/z	relative intensity
55.05426	1
57.0699	2
63.02295	10
67.05424	2
69.06989	5
71.08555	12
73.04684	14
75.02611	65
77.00535	14
78.04644	31
88.95098	29
91.05425	246
92.05763	23
99.1169	2
102.04646	7
105.01558	32
107.03121	24
112.951	21
115.05428	49
117.01553	17
118.99796	50
120.97721	36
123.02608	13
124.33966	3
125.98758	24
127.51437	11
129.06988	10
131.03119	26
132.92282	61
133.97446	47
134.99283	43
135.06245	130
136.06586	16
139.05424	34
140.98225	61
142.97974	25
145.0468	25
146.9384	234
147.99005	39
148.91772	33
149.04172	47
149.98753	37
150.93338	11
151.05424	49
152.06203	119
153.06985	39
154.07767	28
156.00568	83
156.99533	173
157.49513	49
159.00938	11
162.93332	14
162.96967	53
164.02133	26
165.06981	270
166.00061	65
166.0732	54
167.0311	20
169.04672	9
171.98998	16
176.89456	9
176.98534	50
178.96458	102
180.94383	13
181.04671	57
182.99275	16
186.00566	23
187.01341	640
188.01193	120
188.98532	19
191.00096	50
192.00049	9
192.98024	133
194.52522	15
195.06236	149
196.01874	259
196.51851	74
197.01718	69
197.07803	51
199.05728	15
203.00092	11
205.01663	66
207.03226	60
208.95404	42
209.04478	35
210.99081	23
213.07292	25
215.0522	11
220.95718	16
222.96968	104
224.98531	33
226.96458	13
234.97288	19
236.98538	19
239.00098	191
240.98027	36
248.98856	113
251.0011	16
253.01665	269
254.99599	43
257.01172	16
259.09396	3
265.01675	23
267.03238	198
268.03195	51
271.02744	26
281.05112	6
282.97293	20
285.04297	31
292.95721	3
295.98084	4
301.01666	7
303.03238	4
311.00403	368
314.02029	12
323.00409	2
327.03568	81
329.01462	171
331.01154	26
356.98816	7
371.00406	16
373.01959	188
389.05087	999
401.05096	1
405.08252	16
451.06656	26
467.0975	286
