Mass spectrum: Bisphenol A bis(2-hydroxypropyl) ether; ESI-QTOF; MS2; CE: 40; [M+NH4]+
Name: Bisphenol A bis(2-hydroxypropyl) ether
Name: 1,1'-[Isopropylidenebis(p-phenyleneoxy)]di-2-propanol
Class: Non-natural product; Industrial chemical
Formula: C21H28O4
Exact mass: 344.19876
SMILES: CC(C)(C1C=CC(=CC=1)OCC(C)O)C1C=CC(=CC=1)OCC(C)O
InChI: InChI=1S/C21H28O4/c1-15(22)13-24-19-9-5-17(6-10-19)21(3,4)18-7-11-20(12-8-18)25-14-16(2)23/h5-12,15-16,22-23H,13-14H2,1-4H3
Instrument: Agilent 6546 Q-ToF
Instrument type: ESI-QTOF
Ms type: MS2
Ion mode: POSITIVE
Ionization: ESI
Collision energy: 40
Retention time: 4.415
Precursor m/z: 362.23261
Precursor type: [M+NH4]+
m/z	relative intensity
95.0492	48
107.0492	280
107.0558	19
119.0491	15
121.0285	22
135.0806	999
175.1119	21
193.1225	31
196.0881	42
254.1301	18
