Mass spectrum: Pyrazole; ESI-QTOF; MS2; CE: 10; [M+H]+
Name: Pyrazole
Name: 1H-pyrazole
Class: Non-natural product; Pharmaceutical
Formula: C3H4N2
Exact mass: 68.03745
SMILES: C1=CC=NN1
InChI: InChI=1S/C3H4N2/c1-2-4-5-3-1/h1-3H,(H,4,5)
Instrument: Agilent 6546 Q-ToF
Instrument type: ESI-QTOF
Ms type: MS2
Ion mode: POSITIVE
Ionization: ESI
Collision energy: 10
Precursor m/z: 69.0447
Precursor type: [M+H]+
m/z	relative intensity
69.0444	999
