Mass spectrum: Bisphenol A dimethacrylate; ESI-QTOF; MS2; CE: 20
Name: Bisphenol A dimethacrylate
Name: 4,4'-Isopropylidenediphenol dimethacrylate
Class: Non-natural product; Industrial chemical
Formula: C23H24O4
Exact mass: 364.16746
SMILES: CC(C)(C1C=CC(=CC=1)OC(=O)C(C)=C)C1C=CC(=CC=1)OC(=O)C(C)=C
InChI: InChI=1S/C23H24O4/c1-15(2)21(24)26-19-11-7-17(8-12-19)23(5,6)18-9-13-20(14-10-18)27-22(25)16(3)4/h7-14H,1,3H2,2,4-6H3
Instrument: Agilent 6546 Q-ToF
Instrument type: ESI-QTOF
Ms type: MS2
Ion mode: POSITIVE
Ionization: ESI
Collision energy: 20
Precursor m/z: 365.17474
m/z	relative intensity
69.0331	999
70.0648	232
120.0813	211
156.0754	130
167.0717	182
170.0929	173
203.0534	378
203.1079	634
219.0234	172
222.1266	163
247.1632	177
257.1977	160
259.0654	134
298.1384	121
365.1065	906
365.2421	169
365.2744	169
