Mass spectrum: 4,4'-(2-Ethylhexylidene)diphenol; ESI-QTOF; MS2; CE: 40
Name: 4,4'-(2-Ethylhexylidene)diphenol
Name: 1,1-Bis(4-hydroxyphenyl)-2-ethylhexane
Class: Non-natural product; Industrial chemical
Formula: C20H26O2
Exact mass: 298.19328
SMILES: CCC(CCCC)C(C1C=CC(O)=CC=1)C1C=CC(O)=CC=1
InChI: InChI=1S/C20H26O2/c1-3-5-6-15(4-2)20(16-7-11-18(21)12-8-16)17-9-13-19(22)14-10-17/h7-15,20-22H,3-6H2,1-2H3
Instrument: Agilent 6546 Q-ToF
Instrument type: ESI-QTOF
Ms type: MS2
Ion mode: NEGATIVE
Ionization: ESI
Collision energy: 40
Precursor m/z: 297.186
m/z	relative intensity
79.9579	26
93.0338	25
113.0229	19
118.9185	21
132.9828	19
183.0109	57
197.0275	37
197.0612	999
197.0718	26
198.0699	51
