Mass spectrum: 1,1,1-Tris(4-hydroxyphenyl)ethane; ESI-QTOF; MS2; CE: 20
Name: 1,1,1-Tris(4-hydroxyphenyl)ethane
Name: TrisP-HAP
Class: Non-natural product; Industrial chemical
Formula: C20H18O3
Exact mass: 306.1256
SMILES: CC(C1C=CC(O)=CC=1)(C1C=CC(O)=CC=1)C1C=CC(O)=CC=1
InChI: InChI=1S/C20H18O3/c1-20(14-2-8-17(21)9-3-14,15-4-10-18(22)11-5-15)16-6-12-19(23)13-7-16/h2-13,21-23H,1H3
Instrument: Agilent 6546 Q-ToF
Instrument type: ESI-QTOF
Ms type: MS2
Ion mode: NEGATIVE
Ionization: ESI
Collision energy: 20
Precursor m/z: 305.11832
m/z	relative intensity
59.0127	20
60.0174	20
71.0117	25
85.0277	35
95.0508	44
141.0171	46
211.077	116
223.0253	18
289.0881	33
290.0945	534
290.0989	209
290.1033	38
290.109	60
296.025	16
305.11	21
305.1184	999
305.1295	137
305.2464	35
