Mass spectrum: Bis(2-ethylhexyl) phthalate; GC-EI-FT; MS; Positive
Name: Bis(2-ethylhexyl) phthalate
Name: bis(2-ethylhexyl) benzene-1,2-dicarboxylate
Class: Non-Natural Product; Phthalate
Formula: C24H38O4
Exact mass: 390.27701
SMILES: CCCCC(CC)COC(=O)C1=CC=CC=C1C(=O)OCC(CC)CCCC
InChI: InChI=1S/C24H38O4/c1-5-9-13-19(7-3)17-27-23(25)21-15-11-12-16-22(21)24(26)28-18-20(8-4)14-10-6-2/h11-12,15-16,19-20H,5-10,13-14,17-18H2,1-4H3
Instrument: Thermo Scientific Q Exactive GC Hybrid Quadrupol-Orbitrap
Instrument type: GC-EI-FT
Ms type: MS
Ion mode: POSITIVE
Base peak: 149.02347
m/z	relative intensity
55.05431	17.39
56.06205	4.65
57.06995	23.82
65.03857	6.62
67.05428	5.24
69.06993	7.87
70.07778	17.09
71.08558	42.52
72.08891	2.57
76.03085	13.05
77.03861	4.08
79.05419	1.99
82.07775	5.33
83.08559	21.33
84.08894	1.43
84.09342	9.75
93.03365	6.56
97.10133	1.83
104.02585	29.98
105.02936	2.31
105.03355	10.17
112.12483	1.67
113.13258	8.4
121.02845	19.11
121.03964	3.1
122.03646	13.24
123.04427	2.53
132.02092	6.87
133.02861	1.4
149.02347	999
150.02683	86.65
150.03095	11.61
151.02768	5.4
151.03029	2.16
162.03137	3.15
163.03903	1.71
167.03397	189.45
168.03732	16.57
279.15924	30.63
280.16257	5.28
