Mass spectrum: Bisphenol B; LC-ESI-QFT; MS2; CE:20; [M-H]-
Name: Bisphenol B
Name: 4-[2-(4-hydroxyphenyl)butan-2-yl]phenol
Class: Non-natural product; Additive 
Formula: C16H18O2
Exact mass: 242.13088
SMILES: CCC(C)(C1=CC=C(C=C1)O)C2=CC=C(C=C2)O
InChI: InChI=1S/C16H18O2/c1-3-16(2,12-4-8-14(17)9-5-12)13-6-10-15(18)11-7-13/h4-11,17-18H,3H2,1-2H3
Instrument:  QExactive Plus Orbitrap
Instrument type: LC-ESI-QFT
Ms type: MS2
Ion mode: NEGATIVE
Collision energy: 20
Retention time: 15.48
Precursor m/z: 241.12360
Precursor type: [M-H]-
m/z	relative intensity
79.95745	944
184.00195	999
