Mass spectrum: UV-327; GC-EI-FT; MS; Positive
Name: UV-327
Name: 2-(2'HYDROXY-3',5'-DI-TERT-BUTYLPHENYL)-5-CHLOROBENZOTRIAZOLE
Class: Non-Natural Product; Chlorobenzotriazole
Formula: C20H24ClN3O
Exact mass: 357.16079
SMILES: CC(C)(C)C1=CC(=C(C(=C1)N2N=C3C=CC(=CC3=N2)Cl)O)C(C)(C)C
InChI: InChI=1S/C20H24ClN3O/c1-19(2,3)12-9-14(20(4,5)6)18(25)17(10-12)24-22-15-8-7-13(21)11-16(15)23-24/h7-11,25H,1-6H3
Instrument: Thermo Scientific Q Exactive GC Hybrid Quadrupol-Orbitrap
Instrument type: GC-EI-FT
Ms type: MS
Ion mode: POSITIVE
Base peak: 342.13660 
m/z	relative intensity
126.01059	63
128.00761	22
133.06484	77
149.54077	46
154.01668	38
258.043	32
286.07425	144
288.07141	46
300.08972	21
314.10553	37
342.1366	999
343.14035	206
344.13373	317
345.1373	68
357.16031	194
358.16373	40
359.15726	64
