Mass spectrum: Benzamide; LC-ESI-QFT; MS2; CE:20; [M+H]+
Name: Benzamide
Name: Benzenecarboxamide
Class: Non-natural product
Formula: C7H7NO
Exact mass: 121.14
SMILES: C1=CC=C(C=C1)C(=O)N
InChI: InChI=1S/C7H7NO/c8-7(9)6-4-2-1-3-5-6/h1-5H,(H2,8,9)
Instrument:  QExactive Plus Orbitrap
Instrument type: LC-ESI-QFT
Ms type: MS2
Ion mode: POSITIVE
Collision energy: 20
Retention time: 8.40
Precursor m/z: 122.06005
Precursor type: [M+H]+
m/z	relative intensity
51.02340	319
79.05429	608
105.03363	855
122.06007	999
