Mass spectrum: PFBA; LC-ESI-FT; MS2
Name: PFBA
Name: 2,2,3,3,4,4,4-heptafluorobutanoic acid
Class: Non-Natural Product; Perfluoroalkyl carboxylic acid
Formula: C4HF7O2
Exact mass: 213.98647640
SMILES: C(=O)(C(C(C(F)(F)F)(F)F)(F)F)O
InChI: InChI=1S/C4HF7O2/c5-2(6,1(12)13)3(7,8)4(9,10)11/h(H,12,13)
Instrument: Vanquish LC, Thermo Scientific; Exploris 120 Orbitrap, Thermo Scientific
Instrument type: LC-ESI-FT
Ms type: MS2
Ion mode: NEGATIVE
Retention time: 3.79649157083829
Precursor m/z: 212.97884
Precursor type: [M-H]-
m/z	relative intensity
63.96236	999
