Mass spectrum: DIBP; GC-EI-FT; MS; Positive
Name: DIBP
Name: Di-iso-butyl phthalate
Class: Non-Natural Product; Phthalate
Formula: C16H22O4
Exact mass: 278.15181
SMILES: CC(C)COC(=O)C1=CC=CC=C1C(=O)OCC(C)C
InChI: InChI=1S/C16H22O4/c1-11(2)9-19-15(17)13-7-5-6-8-14(13)16(18)20-10-12(3)4/h5-8,11-12H,9-10H2,1-4H3
Instrument: Thermo Scientific Q Exactive GC Hybrid Quadrupol-Orbitrap
Instrument type: GC-EI-FT
Ms type: MS
Ion mode: POSITIVE
Base peak: 149.02344
m/z	relative intensity
104.0257	17
105.03365	8
121.02855	25
122.03618	7
123.04401	5
132.02057	3
135.04405	2
149.02344	999
150.02673	89
151.02756	6
161.05981	2
167.03389	23
205.08603	5
223.09656	19
