Mass spectrum: Disflamoll TOF; GC-EI-FT; MS; Positive
Name: Disflamoll TOF
Name: Tris(2-ethylhexyl)phosphate
Class: Non-Natural Product; Organophosphate 
Formula: C24H51O4P
Exact mass: 434.352497
SMILES: CCCCC(CC)COP(=O)(OCC(CC)CCCC)OCC(CC)CCCC
InChI: InChI=1S/C24H51O4P/c1-7-13-16-22(10-4)19-26-29(25,27-20-23(11-5)17-14-8-2)28-21-24(12-6)18-15-9-3/h22-24H,7-21H2,1-6H3
Instrument: Thermo Scientific Q Exactive GC Hybrid Quadrupol-Orbitrap
Instrument type: GC-EI-FT
Ms type: MS
Ion mode: POSITIVE
Base peak: 98.9843
m/z	relative intensity
55.0543	20
69.0699	22
70.0778	8
71.0855	141
72.0889	8
80.9736	4
81.9814	21
82.0778	3
83.0856	15
84.0934	4
98.9843	999
111.117	4
111.992	52
112.9999	63
113.1326	23
114.136	2
124.9998	3
153.0311	6
181.0623	3
