Mass spectrum: Dibromoaldrin; GC-EI-QTOF; MS1; CE: 70
Name: Dibromoaldrin
Class: Non-natural product, Brominated flame retardant
Formula: C12H8Br2Cl6
Exact mass: 519.7123923152
SMILES: C1C2C3C(C1C(C2Br)Br)C4(C(=C(C3(C4(Cl)Cl)Cl)Cl)Cl)Cl
InChI: InChI=1S/C12H8Br2Cl6/c13-6-2-1-3(7(6)14)5-4(2)10(17)8(15)9(16)11(5,18)12(10,19)20/h2-7H,1H2
Instrument: Agilent 7200 Accurate-Mass QToF GC/MS
Instrument type: GC-EI-QTOF
Ms type: MS1
Ion mode: POSITIVE
Ionization: EI
Collision energy: 70
Retention time: 8.19
m/z	relative intensity
35.9767420085679	41
39.0236383831359	202
40.0309564221066	41
51.0232768339897	85
63.022858053761	66
65.0386971602128	621
66.0462859131356	754
67.054116006638	41
72.9836805660491	36
74.0149630067121	42
75.0242685992638	59
77.0384918423225	120
79.0538904550552	243
79.9253384619784	84
81.9232549842437	79
91.0541823896042	471
92.0609935180325	123
101.01517221501	117
103.012210068375	36
109.991397050101	76
110.991269677852	54
126.971928966966	50
127.973020319279	55
144.964043862117	326
145.958978911014	49
146.962398457994	316
146.996353563258	40
150.046093438806	69
151.053402284853	52
152.061761812984	66
156.963763757863	61
158.963245321588	52
160.007428110163	39
186.022262112029	143
187.028320891519	54
188.021246369343	42
190.922216895112	86
192.920086439574	81
215.887952053599	45
216.93674487531	52
218.935124570708	42
219.9839252091	120
220.99077800347	85
221.98435398984	69
222.984835016364	46
226.895433336143	58
228.894705485759	65
229.944105317713	40
231.942822440277	37
234.84399140456	95
236.841026671776	135
238.8381656142	92
254.952915862535	97
255.958073928493	78
256.951963453469	92
257.956473880637	74
258.955672951929	37
260.859292682845	265
261.864531844483	37
262.856491127079	423
263.862015464184	58
264.85377499209	264
264.908382949652	56
265.859254450599	37
265.903932803346	38
266.850415880933	86
266.909936081171	39
269.812743693745	53
271.809833258362	95
273.806625409946	77
289.921200014998	48
290.928539256946	99
291.922303524804	65
292.926193798751	124
293.923127358951	40
294.924531045996	57
297.8250328811	55
299.82270014414	42
324.890185307237	39
326.891649022992	71
327.894807043885	41
328.894063764441	57
360.86741422817	83
362.864615684051	173
364.861798351504	133
366.858867633493	59
406.81522964422	38
408.812502743152	40
484.744313322268	183
486.741575848498	684
486.815889357404	39
487.744310558673	88
488.73923214058	999
488.826642059988	46
489.742063239953	124
490.736321626802	742
491.739248255223	94
492.733705549657	302
493.738112818462	40
494.730794711285	72
