Mass spectrum: 1,1-Bis(4-hydroxy-3-methylphenyl)cyclohexane; ESI-QTOF; MS2; CE: 10
Name: 1,1-Bis(4-hydroxy-3-methylphenyl)cyclohexane
Name: Phenol, 4,4'-cyclohexylidenebis[2-methyl-
Class: Non-natural product; Industrial chemical
Formula: C20H24O2
Exact mass: 296.17763
SMILES: CC1=CC(=CC=C1O)C1(CCCCC1)C1C=C(C)C(O)=CC=1
InChI: InChI=1S/C20H24O2/c1-14-12-16(6-8-18(14)21)20(10-4-3-5-11-20)17-7-9-19(22)15(2)13-17/h6-9,12-13,21-22H,3-5,10-11H2,1-2H3
Instrument: Agilent 6546 Q-ToF
Instrument type: ESI-QTOF
Ms type: MS2
Ion mode: NEGATIVE
Ionization: ESI
Collision energy: 10
Precursor m/z: 295.17035
m/z	relative intensity
166.8763	10
294.904	11
295.1552	14
295.1701	999
295.1828	70
295.2271	12
296.1741	50
673.546	10
766.2849	12
793.1657	13
866.5935	12
912.7483	15
955.9807	10
961.8104	11
980.0129	53
