Mass spectrum: Ethyl(triphenyl)phosphonium; LC-ESI-QTOF; MSn
Name: Ethyl(triphenyl)phosphonium
Name: Phosphonium, ethyltriphenyl-
Class: Non-Natural Product; Organophosphorus Compound
Formula: C20H20P
Exact mass: 291.129714062
SMILES: CCP(C1=CC=CC=C1)(C1=CC=CC=C1)C1=CC=CC=C1
InChI: InChI=1S/C20H20P.BrH/c1-2-21(18-12-6-3-7-13-18,19-14-8-4-9-15-19)20-16-10-5-11-17-20;/h3-17H,2H2,1H3;1H/q+1;/p-1
Instrument: Waters G2-S QTOF
Instrument type: LC-ESI-QTOF
Ms type: MSn
Ion mode: POSITIVE
Precursor m/z: 291.1303
Precursor type: [M]+
m/z	relative intensity
108.0138	27
183.0364	169
184.0410	31
185.0510	31
261.0826	68
262.0897	81
263.0943	22
264.0990	2
275.0972	18
291.1297	999
292.1329	200
