Mass spectrum: UV-328; GC-EI-FT; MS; Positive
Name: UV-328
Name: 2-(2H-Benzotriazol-2-yl)-4,6-ditertpentylphenol
Class: Non-Natural Product; Benzotriazole
Formula: C22H29N3O
Exact mass: 351.231062
SMILES: CCC(C)(C)C1=CC(=C(C(=C1)N2N=C3C=CC=CC3=N2)O)C(C)(C)CC
InChI: InChI=1S/C22H29N3O/c1-7-21(3,4)15-13-16(22(5,6)8-2)20(26)19(14-15)25-23-17-11-9-10-12-18(17)24-25/h9-14,26H,7-8H2,1-6H3
Instrument: Thermo Scientific Q Exactive GC Hybrid Quadrupol-Orbitrap
Instrument type: GC-EI-FT
Ms type: MS
Ion mode: POSITIVE
Base peak: 322.19119
m/z	relative intensity
105.06992	47
115.05427	50
119.08554	42
132.56029	45
133.06484	38
224.08185	32
252.11311	131
253.11658	21
292.14462	20
294.16037	28
322.19119	999
323.19482	208
324.1984	22
336.20712	31
351.2305	84
