Mass spectrum: 2,8-Quinolinediol; LC-ESI-QFT; MS2; CE:20; [M-H]-
Name: 2,8-Quinolinediol
Name: 8-hydroxy-1H-quinolin-2-one
Class: Non-natural product; Industrial chemical
Formula: C9H7NO2
Exact mass: 161.04768
SMILES: C1=CC2=C(C(=C1)O)NC(=O)C=C2
InChI: InChI=1S/C9H7NO2/c11-7-3-1-2-6-4-5-8(12)10-9(6)7/h1-5,11H,(H,10,12)
Instrument: QExactive Plus Orbitrap
Instrument type: LC-ESI-QFT
Ms type: MS2
Ion mode: NEGATIVE
Collision energy: 20
Retention time: 10.44
Precursor m/z: 160.04022
Precursor type: [M-H]-
m/z	relative intensity
65.99831	103
89.03969	211
104.05067	272
131.03757	999
