Mass spectrum: 24-Di-11-biphenyl-4yl6-Chloro-135-triazine; ESI-QTOF; MS2; CE: 20
Name: 24-Di-11-biphenyl-4yl6-Chloro-135-triazine
Name: 2-chloro-4,6-bis(4-phenylphenyl)-1,3,5-triazine
Class: Non-natural product; Industrial chemical
Formula: C27H18ClN3
Exact mass: 419.11892
SMILES: ClC1N=C(N=C(N=1)C1C=CC(=CC=1)C1C=CC=CC=1)C1C=CC(=CC=1)C1C=CC=CC=1
InChI: InChI=1S/C27H18ClN3/c28-27-30-25(23-15-11-21(12-16-23)19-7-3-1-4-8-19)29-26(31-27)24-17-13-22(14-18-24)20-9-5-2-6-10-20/h1-18H
Instrument: Agilent 6546 Q-ToF
Instrument type: ESI-QTOF
Ms type: MS2
Ion mode: NEGATIVE
Ionization: ESI
Collision energy: 20
Precursor m/z: 418.11166
m/z	relative intensity
87.0022	700
281.2495	797
560.8444	999
