Mass spectrum: Bis(4-isopropylphenyl) phenyl phosphate; GC-EI-FT; MS; Positive
Name: Bis(4-isopropylphenyl) phenyl phosphate
Name: Phosphoric acid, bis(4-(1-methylethyl)phenyl) phenyl ester
Class: Non-Natural Product; Organophosphate
Formula: C24H27O4P
Exact mass: 410.164696
SMILES: CC(C)C1=CC=C(C=C1)OP(=O)(OC2=CC=CC=C2)OC3=CC=C(C=C3)C(C)C
InChI: InChI=1S/C24H27O4P/c1-18(2)20-10-14-23(15-11-20)27-29(25,26-22-8-6-5-7-9-22)28-24-16-12-21(13-17-24)19(3)4/h5-19H,1-4H3
Instrument: Thermo Scientific Q Exactive GC Hybrid Quadrupol-Orbitrap
Instrument type: GC-EI-FT
Ms type: MS
Ion mode: POSITIVE
Base peak: 395.1406
m/z	relative intensity
65.0386	28
77.0386	179
79.0543	49
90.0465	18
91.0543	261
93.07	32
94.0414	15
102.0465	19
103.0543	148
105.0448	14
105.07	61
107.0492	54
107.0857	37
115.0543	131
116.0578	11
117.0699	111
118.0737	11
118.0777	148
119.0493	40
119.0812	16
119.0857	16
120.0571	22
121.0648	147
122.0683	13
133.0649	21
135.0805	57
138.9944	20
149.0152	111
152.062	92
153.0698	43
155.0854	16
165.01	44
165.0698	59
166.0179	14
167.0257	142
167.0855	19
168.0291	13
169.0647	27
169.1012	21
175.0155	19
177.0698	19
178.0776	289
179.0257	22
179.081	42
179.0854	62
181.0648	29
183.0206	59
183.0804	11
183.117	10
189.0698	12
190.0583	255
190.0777	11
191.0855	27
192.0933	14
194.0726	15
195.0804	21
197.0961	21
201.0311	31
211.1119	12
211.148	22
215.0256	96
221.1326	13
239.0856	26
249.0311	26
251.0467	112
252.0502	14
253.1013	15
259.052	16
277.0625	168
292.0863	17
293.0938	26
353.0935	41
367.1093	48
368.1129	11
395.1406	999
396.1442	248
397.1469	35
409.1565	34
410.1643	308
411.1677	77
