Mass spectrum: PFHPS; LC-ESI-FT; MS2
Name: PFHPS
Name: 1,1,2,2,3,3,4,4,5,5,6,6,7,7,7-pentadecafluoroheptane-1-sulfonic acid
Class: Non-Natural Product; Perfluoroalkyl sulfonic acid
Formula: C7HF15O3S
Exact mass: 449.9406875
SMILES: C(C(C(C(F)(F)F)(F)F)(F)F)(C(C(C(F)(F)S(=O)(=O)O)(F)F)(F)F)(F)F
InChI: InChI=1S/C7HF15O3S/c8-1(9,2(10,11)4(14,15)6(18,19)20)3(12,13)5(16,17)7(21,22)26(23,24)25/h(H,23,24,25)
Instrument: Vanquish LC, Thermo Scientific; Exploris 120 Orbitrap, Thermo Scientific
Instrument type: LC-ESI-FT
Ms type: MS2
Ion mode: NEGATIVE
Retention time: 6.87103621797562
Precursor m/z: 448.93259
Precursor type: [M-H]-
m/z	relative intensity
55.85593	3
79.95719	655
82.96064	12
98.95557	196
102.52298	3
109.14244	3
117.56425	2
118.99195	17
134.54643	3
155.87218	3
168.98897	18
172.34283	3
337.24271	3
386.85416	3
448.93274	999
