Mass spectrum: Dicyclohexyl phthalate; GC-EI-FT; MS; Positive
Name: Dicyclohexyl phthalate
Name: dicyclohexyl benzene-1,2-dicarboxylate
Class: Non-Natural Product; Phthalate
Formula: C20H26O4
Exact mass: 330.18311
SMILES: C1CCC(CC1)OC(=O)C2=CC=CC=C2C(=O)OC3CCCCC3
InChI: InChI=1S/C20H26O4/c21-19(23-15-9-3-1-4-10-15)17-13-7-8-14-18(17)20(22)24-16-11-5-2-6-12-16/h7-8,13-16H,1-6,9-12H2
Instrument: Thermo Scientific Q Exactive GC Hybrid Quadrupol-Orbitrap
Instrument type: GC-EI-FT
Ms type: MS
Ion mode: POSITIVE
Base peak: 149.02344
m/z	relative intensity
105.03365	11
121.02855	19
122.03618	17
149.02344	999
150.02673	88
150.03107	35
151.03447	3
167.03389	156
168.03735	14
249.11217	11
