Mass spectrum: NADONA; LC-ESI-FT; MS2
Name: NADONA
Name: 2,2,3-trifluoro-3-[1,1,2,2,3,3-hexafluoro-3-(trifluoromethoxy)propoxy]propanoic acid
Class: Non-Natural Product; New PFAS
Formula: C7H2F12O4
Exact mass: 377.9761465
SMILES: C(C(C(=O)O)(F)F)(OC(C(C(OC(F)(F)F)(F)F)(F)F)(F)F)F
InChI: InChI=1S/C7H2F12O4/c8-1(3(9,10)2(20)21)22-5(13,14)4(11,12)6(15,16)23-7(17,18)19/h1H,(H,20,21)
Instrument: Vanquish LC, Thermo Scientific; Exploris 120 Orbitrap, Thermo Scientific
Instrument type: LC-ESI-FT
Ms type: MS2
Ion mode: NEGATIVE
Retention time: 6.08967909372648
Precursor m/z: 376.96835
Precursor type: [M-H]-
m/z	relative intensity
84.99054	999
