Mass spectrum: Santowhite; ESI-QTOF; MS2; CE: 20
Name: Santowhite
Name: BBM
Class: Non-natural product; Additive
Formula: C26H38O2
Exact mass: 382.28718
SMILES: CCCC(C1=CC(=C(O)C=C1C)C(C)(C)C)C1=CC(=C(O)C=C1C)C(C)(C)C
InChI: InChI=1S/C26H38O2/c1-10-11-18(19-14-21(25(4,5)6)23(27)12-16(19)2)20-15-22(26(7,8)9)24(28)13-17(20)3/h12-15,18,27-28H,10-11H2,1-9H3
Instrument: Agilent 6546 Q-ToF
Instrument type: ESI-QTOF
Ms type: MS2
Ion mode: NEGATIVE
Ionization: ESI
Collision energy: 20
Precursor m/z: 381.27991
m/z	relative intensity
163.1125	22
217.0032	13
338.225	50
381.28	999
381.292	62
381.323	17
381.3724	10
382.2834	32
