Mass spectrum: Quinoxyfen; LC-ESI-QTOF; MSn
Name: Quinoxyfen
Name: 5,7-dichloro-4-(4-fluorophenoxy)quinoline
Class: Non-Natural Product; Fungicide
Formula: C15H8Cl2FNO
Exact mass: 306.9966974
SMILES: FC1=CC=C(OC2=CC=NC3=CC(Cl)=CC(Cl)=C23)C=C1
InChI: InChI=1S/C15H8Cl2FNO/c16-9-7-12(17)15-13(8-9)19-6-5-14(15)20-11-3-1-10(18)2-4-11/h1-8H
Instrument: Waters G2-S QTOF
Instrument type: LC-ESI-QTOF
Ms type: MSn
Ion mode: POSITIVE
Precursor m/z: 308.0045
Precursor type: [M+H]+
m/z	relative intensity
150.0116	17
162.0116	77
164.0083	23
183.0605	4
183.9724	2
184.9797	10
196.9804	169
198.9774	106
201.9783	1
210.0705	10
213.9827	96
215.9800	60
217.9759	9
219.0233	3
225.0332	4
226.0419	1
227.0307	1
237.0590	27
238.0636	6
244.0325	20
245.0400	34
248.0395	1
253.0305	3
255.0249	2
256.0307	1
272.0279	104
274.0251	31
275.0279	5
280.0085	8
282.0058	5
287.9962	4
289.9958	2
308.0051	999
309.0081	154
310.0021	657
311.0051	89
311.9994	92
313.0006	11
