Mass spectrum: 1-3-Di-tolylguanidine; ESI-QTOF; MS2; CE: 20
Name: 1-3-Di-tolylguanidine
Name: 1,2-bis(2-methylphenyl)guanidine
Class: Non-natural product; Industrial chemical
Formula: C15H17N3
Exact mass: 239.14225
SMILES: CC1=CC=CC=C1NC(=N)NC1=CC=CC=C1C
InChI: InChI=1S/C15H17N3/c1-11-7-3-5-9-13(11)17-15(16)18-14-10-6-4-8-12(14)2/h3-10H,1-2H3,(H3,16,17,18)
Instrument: Agilent 6546 Q-ToF
Instrument type: ESI-QTOF
Ms type: MS2
Ion mode: POSITIVE
Ionization: ESI
Collision energy: 20
Precursor m/z: 240.14951
m/z	relative intensity
91.0542	61
93.0571	64
106.0651	369
106.0727	39
107.0727	23
108.0807	861
108.0879	77
116.0495	207
116.0572	14
117.0571	17
118.0652	17
133.076	999
133.0824	29
133.0843	60
208.0984	16
223.1227	349
223.1319	24
223.135	11
240.1496	957
240.1592	82
240.1617	34
