Mass spectrum: PFNA; LC-ESI-FT; MS2
Name: PFNA
Name: 2,2,3,3,4,4,5,5,6,6,7,7,8,8,9,9,9-heptadecafluorononanoic acid
Class: Non-Natural Product; Perfluoroalkyl carboxylic acid
Formula: C9HF17O2
Exact mass: 463.9705080
SMILES: C(=O)(C(C(C(C(C(C(C(C(F)(F)F)(F)F)(F)F)(F)F)(F)F)(F)F)(F)F)(F)F)O
InChI: InChI=1S/C9HF17O2/c10-2(11,1(27)28)3(12,13)4(14,15)5(16,17)6(18,19)7(20,21)8(22,23)9(24,25)26/h(H,27,28)
Instrument: Vanquish LC, Thermo Scientific; Exploris 120 Orbitrap, Thermo Scientific
Instrument type: LC-ESI-FT
Ms type: MS2
Ion mode: NEGATIVE
Retention time: 6.70476258254846
Precursor m/z: 462.96240
Precursor type: [M-H]-
m/z	relative intensity
50.87937	13
103.88829	12
118.99265	34
131.66896	11
165.91356	12
168.98904	370
169.00623	23
218.98586	543
224.51463	11
268.98260	137
418.97296	999
