Mass spectrum: ooo-TMPP; GC-EI-FT; MS; Positive
Name: ooo-TMPP
Name: o-Cresyl phosphate
Class: Non-Natural Product; Organophosphate
Formula: C21H21O4P
Exact mass: 368.117746
SMILES: CC1=CC=CC=C1OP(=O)(OC2=CC=CC=C2C)OC3=CC=CC=C3C
InChI: InChI=1S/C21H21O4P/c1-16-10-4-7-13-19(16)23-26(22,24-20-14-8-5-11-17(20)2)25-21-15-9-6-12-18(21)3/h4-15H,1-3H3
Instrument: Thermo Scientific Q Exactive GC Hybrid Quadrupol-Orbitrap
Instrument type: GC-EI-FT
Ms type: MS
Ion mode: POSITIVE
Base peak: 165.0698
m/z	relative intensity
65.0386	59
77.0386	88
78.0465	22
79.0543	56
80.0576	4
80.0621	9
89.0386	127
90.042	10
90.0465	83
91.05	7
91.0543	234
92.0577	18
104.0621	29
105.07	6
107.0492	171
108.0527	14
108.057	55
109.0604	4
109.065	4
121.0285	4
121.0648	10
128.062	10
136.0073	24
137.0152	4
139.0543	6
141.0699	12
152.0022	13
152.062	32
153.01	19
153.0654	4
153.0698	21
154.0178	5
154.0777	13
155.0854	4
163.0542	6
164.062	15
165.0698	999
166.0732	142
166.0777	47
167.0766	9
167.0811	7
167.0855	11
169.0049	30
169.1012	11
170.0127	35
171.0205	9
176.062	13
177.0698	14
178.0776	318
179.081	50
179.0854	411
180.0888	59
180.0933	181
181.0648	31
181.0967	26
181.101	338
182.0726	22
182.1045	50
183.0206	8
183.0804	9
184.9999	16
187.0155	18
189.0311	147
190.0344	11
195.0804	43
196.0837	6
197.0961	49
207.0918	8
239.0856	6
243.0571	7
253.1013	6
255.1171	6
259.052	14
261.0679	40
262.0711	6
263.0469	6
275.047	12
277.0625	167
278.0658	26
367.1093	8
368.1173	81
369.1207	19
