Mass spectrum: Bisphenol-BP; LC-ESI-QFT; MS2; CE:20; [M-H]-
Name: Bisphenol-BP
Name: 4-[(4-hydroxyphenyl)-diphenylmethyl]phenol
Class: Non-natural product; Additive 
Formula: C25H20O2
Exact mass: 352.1463
SMILES: C1=CC=C(C=C1)C(C2=CC=CC=C2)(C3=CC=C(C=C3)O)C4=CC=C(C=C4)O
InChI: InChI=1S/C25H20O2/c26-23-15-11-21(12-16-23)25(19-7-3-1-4-8-19,20-9-5-2-6-10-20)22-13-17-24(27)18-14-22/h1-18,26-27H
Instrument:  QExactive Plus Orbitrap
Instrument type: LC-ESI-QFT
Ms type: MS2
Ion mode: NEGATIVE
Collision energy: 20
Retention time: 16.26
Precursor m/z: 351.13913
Precursor type: [M+HCOO]-
m/z	relative intensity
93.03458	999
