Mass spectrum: UV-1130; LC-ESI-QTOF; MSn
Name: UV-1130
Name: Benzenepropanoic acid, 3-(2H-benzotriazol-2-yl)-5-(1,1-dimethylethyl)-4-hydroxy-, methyl ester
Class: Non-Natural Product; UV Stabilizer
Formula: C20H23N3O3
Exact mass: 353.173941613
SMILES: COC(=O)CCC1=CC(=C(O)C(=C1)N1N=C2C=CC=CC2=N1)C(C)(C)C
InChI: InChI=1S/C20H23N3O3/c1-20(2,3)14-11-13(9-10-18(24)26-4)12-17(19(14)25)23-21-15-7-5-6-8-16(15)22-23/h5-8,11-12,25H,9-10H2,1-4H3
Instrument: Waters G2-S QTOF
Instrument type: LC-ESI-QTOF
Ms type: MSn
Ion mode: POSITIVE
Precursor m/z: 354.1818
Precursor type: [M+H]+
m/z	relative intensity
119.0500	5
167.0745	22
224.0833	999
225.0863	135
226.0869	12
236.1021	2
238.0988	12
264.1106	9
265.1213	26
266.0930	43
267.0978	3
280.1456	419
281.1485	56
282.1465	3
298.1199	350
299.1229	43
300.1284	3
322.1570	28
354.1825	403
355.1855	80
373.1787	1
376.1634	43
377.1666	6
