Mass spectrum: 4,4-Bisphenol F; LC-ESI-QFT; MS2; CE:20; [M-H]-
Name: 4,4-Bisphenol F
Name: 4-[(4-hydroxyphenyl)methyl]phenol
Class: Non-natural product; Additive 
Formula: C13H12O2
Exact mass: 200.08377
SMILES: C1=CC(=CC=C1CC2=CC=C(C=C2)O)O
InChI: InChI=1S/C13H12O2/c14-12-5-1-10(2-6-12)9-11-3-7-13(15)8-4-11/h1-8,14-15H,9H2
Instrument:  QExactive Plus Orbitrap
Instrument type: LC-ESI-QFT
Ms type: MS2
Ion mode: NEGATIVE
Collision energy: 20
Retention time: 13.5885785
Precursor m/z: 199.07649
Precursor type: [M-H]-
m/z	relative intensity
93.03458	999
123.04528	550
