Mass spectrum: 4,4'-Bis(dimethylamino)-4''-(methylamino)trityl alcohol; LC-ESI-QTOF; MSn
Name: bis[4-(dimethylamino)phenyl]-[4-(methylamino)phenyl]methanol
Name: 4,4'-Bis(dimethylamino)-4''-(methylamino)trityl alcohol
Class: Non-Natural Product; Seondary Amine
Formula: C24H29N3O
Exact mass: 375.231062566
SMILES: CNC1=CC=C(C=C1)C(O)(C1=CC=C(C=C1)N(C)C)C1=CC=C(C=C1)N(C)C
InChI: InChI=1S/C24H29N3O/c1-25-21-12-6-18(7-13-21)24(28,19-8-14-22(15-9-19)26(2)3)20-10-16-23(17-11-20)27(4)5/h6-17,25,28H,1-5H3
Instrument: Waters G2-S QTOF
Instrument type: LC-ESI-QTOF
Ms type: MSn
Ion mode: POSITIVE
Precursor m/z: 376.2389
Precursor type: [M+H]+
m/z	relative intensity
221.1079	3
235.1251	4
237.1394	8
270.1300	3
272.1427	4
284.1360	1
298.1474	1
299.1531	1
312.1539	1
313.1685	5
327.1738	2
328.1792	3
342.1966	291
343.2006	105
344.2042	6
358.2283	999
359.2307	253
360.2338	26
361.2329	1
375.1967	1
