Mass spectrum: Phenol, 4,4'-sulfonylbis[2-(2-propenyl)-; ESI-QTOF; MS2; CE: 10
Name: Phenol, 4,4'-sulfonylbis[2-(2-propenyl)-
Name: TGSH
Class: Non-natural product; Industrial chemical
Formula: C18H18O4S
Exact mass: 330.09258
SMILES: C=CCC1=CC(=CC=C1O)S(=O)(=O)C1C=C(CC=C)C(O)=CC=1
InChI: InChI=1S/C18H18O4S/c1-3-5-13-11-15(7-9-17(13)19)23(21,22)16-8-10-18(20)14(12-16)6-4-2/h3-4,7-12,19-20H,1-2,5-6H2
Instrument: Agilent 6546 Q-ToF
Instrument type: ESI-QTOF
Ms type: MS2
Ion mode: POSITIVE
Ionization: ESI
Collision energy: 10
Precursor m/z: 331.09985
m/z	relative intensity
79.0536	17
105.0707	19
133.0644	168
145.0653	27
149.0603	94
156.9951	29
161.0714	39
197.0263	310
197.0322	13
197.0349	20
223.0635	22
303.0682	43
330.9985	11
331.0996	999
331.1119	142
331.132	10
331.1405	14
331.1842	10
331.2097	92
331.2189	36
332.1034	16
