Mass spectrum: PFTRDA; LC-ESI-FT; MS2
Name: PFTRDA
Name: 2,2,3,3,4,4,5,5,6,6,7,7,8,8,9,9,10,10,11,11,12,12,13,13,13-pentacosafluorotridecanoic acid
Class: Non-Natural Product; Perfluoroalkyl carboxylic acid
Formula: C13HF25O2
Exact mass: 663.9577333
SMILES: C(=O)(C(C(C(C(C(C(C(C(C(C(C(C(F)(F)F)(F)F)(F)F)(F)F)(F)F)(F)F)(F)F)(F)F)(F)F)(F)F)(F)F)(F)F)O
InChI: InChI=1S/C13HF25O2/c14-2(15,1(39)40)3(16,17)4(18,19)5(20,21)6(22,23)7(24,25)8(26,27)9(28,29)10(30,31)11(32,33)12(34,35)13(36,37)38/h(H,39,40)
Instrument: Vanquish LC, Thermo Scientific; Exploris 120 Orbitrap, Thermo Scientific
Instrument type: LC-ESI-FT
Ms type: MS2
Ion mode: NEGATIVE
Retention time: 8.2048639124314
Precursor m/z: 662.94971
Precursor type: [M-H]-
m/z	relative intensity
81.11736	2
118.99242	66
119.94852	2
150.71750	2
168.98909	200
172.28584	2
182.77283	2
218.98593	72
268.98257	80
318.97949	84
368.97610	82
418.97278	51
468.96915	5
618.95978	999
662.95270	16
