Mass spectrum: Dibutyl phenyl phosphate; GC-EI-FT; MS; Positive
Name: Dibutyl phenyl phosphate
Name: Phosphoric acid, dibutyl phenyl ester
Class: Non-Natural Product; Organophosphate
Formula: C14H23O4P
Exact mass: 286.133396
SMILES: CCCCOP(=O)(OCCCC)OC1=CC=CC=C1
InChI: InChI=1S/C14H23O4P/c1-3-5-12-16-19(15,17-13-6-4-2)18-14-10-8-7-9-11-14/h7-11H,3-6,12-13H2,1-2H3
Instrument: Thermo Scientific Q Exactive GC Hybrid Quadrupol-Orbitrap
Instrument type: GC-EI-FT
Ms type: MS
Ion mode: POSITIVE
Base peak: 175.0154
m/z	relative intensity
55.0543	5
66.0464	11
77.0386	51
78.042	3
78.0465	3
79.0543	3
81.0336	2
90.0465	3
94.0414	223
95.0448	15
95.0492	10
98.9843	12
103.0543	7
104.0621	7
105.0449	4
107.0492	21
109.0285	5
117.07	46
118.0734	5
129.01	5
131.0857	5
132.0934	7
137.0362	6
138.9944	5
140.0022	2
141.01	3
155.9971	8
157.0049	28
165.01	6
169.0049	2
172.9998	4
174.0075	256
175.0154	999
175.0576	2
176.0188	65
183.0205	9
187.0154	93
188.0187	7
188.0233	4
201.0311	55
202.0344	5
230.0703	29
231.0783	24
243.0782	10
286.133	8
