Mass spectrum: 2,2'-Diallylbisphenol A; ESI-QTOF; MS2; CE: 20
Name: 2,2'-Diallylbisphenol A
Name: 4,4'-(Propane-2,2-diyl)bis(2-allylphenol)
Class: Non-Natural Product; Industrial Chemical
Formula: C21H24O2
Exact mass: 308.17763
SMILES: CC(C)(C1C=C(CC=C)C(O)=CC=1)C1C=C(CC=C)C(O)=CC=1
InChI: InChI=1S/C21H24O2/c1-5-7-15-13-17(9-11-19(15)22)21(3,4)18-10-12-20(23)16(14-18)8-6-2/h5-6,9-14,22-23H,1-2,7-8H2,3-4H3
Instrument: Agilent 6546 Q-ToF
Instrument type: ESI-QTOF
Ms type: MS2
Ion mode: NEGATIVE
Ionization: ESI
Collision energy: 20
Precursor m/z: 307.17035
m/z	relative intensity
173.0981	22
264.1161	28
277.1236	124
277.1298	10
277.1359	11
291.1381	10
291.1414	16
292.1469	128
292.1573	13
307.1705	999
307.183	75
307.2081	12
308.1746	32
