Mass spectrum: PFPEA; LC-ESI-FT; MS2
Name: PFPEA
Name: 2,2,3,3,4,4,5,5,5-nonafluoropentanoic acid
Class: Non-Natural Product; Perfluoroalkyl carboxylic acid
Formula: C5HF9O2
Exact mass: 263.98328273
SMILES: C(=O)(C(C(C(C(F)(F)F)(F)F)(F)F)(F)F)O
InChI: InChI=1S/C5HF9O2/c6-2(7,1(15)16)3(8,9)4(10,11)5(12,13)14/h(H,15,16)
Instrument: Vanquish LC, Thermo Scientific; Exploris 120 Orbitrap, Thermo Scientific
Instrument type: LC-ESI-FT
Ms type: MS2
Ion mode: NEGATIVE
Retention time: 4.87623866256873
Precursor m/z: 262.97556
Precursor type: [M-H]-
m/z	relative intensity
95.47527	96
95.74044	89
152.35399	87
205.98953	83
218.98610	999
