Mass spectrum: Bis[4-(4-aminophenoxy)phenyl]sulfone; ESI-QTOF; MS2; CE: 10
Name: Bis[4-(4-aminophenoxy)phenyl]sulfone
Name: BAPS
Class: Non-Natural Product; Industrial Chemical
Formula: C24H20N2O4S
Exact mass: 432.11438
SMILES: NC1C=CC(=CC=1)OC1C=CC(=CC=1)S(=O)(=O)C1C=CC(=CC=1)OC1C=CC(N)=CC=1
InChI: InChI=1S/C24H20N2O4S/c25-17-1-5-19(6-2-17)29-21-9-13-23(14-10-21)31(27,28)24-15-11-22(12-16-24)30-20-7-3-18(26)4-8-20/h1-16H,25-26H2
Instrument: Agilent 6546 Q-ToF
Instrument type: ESI-QTOF
Ms type: MS2
Ion mode: POSITIVE
Ionization: ESI
Collision energy: 10
Precursor m/z: 433.1217
m/z	relative intensity
85.0507	43
85.1017	122
87.0796	67
88.1117	295
93.0576	114
102.1281	99
109.0406	51
112.0484	75
112.0516	77
114.0898	44
121.0516	354
149.0242	65
158.1534	35
160.1822	48
163.1474	43
183.162	52
184.0754	376
184.0771	139
185.0825	187
185.0858	83
185.1607	56
188.1258	47
193.1908	35
199.0661	35
219.0228	46
219.0259	59
223.2021	41
241.0067	43
259.0157	421
276.1014	59
276.1068	57
286.1563	37
294.6988	49
350.7208	65
371.0674	74
415.0567	42
415.1675	56
415.2551	42
433.1181	999
433.1234	820
433.1331	277
433.1395	74
434.1211	48
457.7771	52
907.5882	50
907.5993	44
