Mass spectrum: 1,1,1-Tris(4-hydroxyphenyl)ethane; ESI-QTOF; MS2; CE: 10
Name: 1,1,1-Tris(4-hydroxyphenyl)ethane
Name: TrisP-HAP
Class: Non-natural product; Industrial chemical
Formula: C20H18O3
Exact mass: 306.1256
SMILES: CC(C1C=CC(O)=CC=1)(C1C=CC(O)=CC=1)C1C=CC(O)=CC=1
InChI: InChI=1S/C20H18O3/c1-20(14-2-8-17(21)9-3-14,15-4-10-18(22)11-5-15)16-6-12-19(23)13-7-16/h2-13,21-23H,1H3
Instrument: Agilent 6546 Q-ToF
Instrument type: ESI-QTOF
Ms type: MS2
Ion mode: NEGATIVE
Ionization: ESI
Collision energy: 10
Precursor m/z: 305.11832
m/z	relative intensity
116.9729	21
141.0163	158
222.9359	13
245.0746	10
290.0952	87
290.1069	22
305.0681	16
305.087	14
305.1179	999
305.1306	97
313.0784	11
315.0757	14
585.3253	17
593.1706	14
625.1453	15
831.0134	14
835.1888	12
835.2008	13
870.1847	15
877.1405	16
878.2153	19
882.0877	16
894.1456	15
898.5024	20
943.1005	11
956.9698	10
967.0046	10
980.0065	18
980.0181	37
995.0817	14
