Mass spectrum: Deacetylbisacodyl; ESI-QTOF; MS2; CE: 10
Name: Deacetylbisacodyl
Name: DDPM
Class: Non-natural product; Pharmaceutical metabolite
Formula: C18H15NO2
Exact mass: 277.1102787305
SMILES: OC1C=CC(=CC=1)C(C1=CC=CC=N1)C1C=CC(O)=CC=1
InChI: InChI=1S/C18H15NO2/c20-15-8-4-13(5-9-15)18(17-3-1-2-12-19-17)14-6-10-16(21)11-7-14/h1-12,18,20-21H
Instrument: Agilent 6546 Q-ToF
Instrument type: ESI-QTOF
Ms type: MS2
Ion mode: POSITIVE
Ionization: ESI
Collision energy: 10
Precursor m/z: 278.11761
m/z	relative intensity
167.0732	14
183.068	12
184.0759	999
184.0846	27
185.0787	11
278.1177	602
278.1288	44
