Mass spectrum: Galactosan; LC-ESI-QFT; MS2; CE:20; [M-H]-
Name: Galactosan
Name: (1R,2R,3S,4R,5R)-6,8-dioxabicyclo[3.2.1]octane-2,3,4-triol
Class: Natural product
Formula: C6H10O5
Exact mass: 162.05282
SMILES: C1[C@@H]2[C@@H]([C@@H]([C@H]([C@H](O1)O2)O)O)O
InChI: InChI=1S/C6H10O5/c7-3-2-1-10-6(11-2)5(9)4(3)8/h2-9H,1H2/t2-,3+,4+,5-,6-/m1/s1
Instrument:  QExactive Plus Orbitrap
Instrument type: LC-ESI-QFT
Ms type: MS2
Ion mode: NEGATIVE
Collision energy: 20
Retention time: 7.20
Precursor m/z: 161.0453
Precursor type: [M-H]-
m/z	relative intensity
59.01353	450.56
59.967	20.72
61.98811	157.27
73.02945	4.26
76.97001	127.22
94.9795	1.94
96.96007	18.09
97.9313	46.38
99.92581	999
101.9241	25.28
113.92619	2.95
116.92847	864.65
117.92863	93.61
134.89461	68.54
143.91554	2.04
160.89262	1.32
