Mass spectrum: Bisphenol-PH; LC-ESI-QFT; MS2; CE:20; [M-H]-
Name: Bisphenol-PH
Name: 4-[2-(4-hydroxy-3-phenylphenyl)propan-2-yl]-2-phenylphenol
Class: Non-natural product; Additive 
Formula: C27H24O2
Exact mass: 380.17800
SMILES: CC(C)(C1=CC(=C(C=C1)O)C2=CC=CC=C2)C3=CC(=C(C=C3)O)C4=CC=CC=C4
InChI: InChI=1S/C27H24O2/c1-27(2,21-13-15-25(28)23(17-21)19-9-5-3-6-10-19)22-14-16-26(29)24(18-22)20-11-7-4-8-12-20/h3-18,28-29H,1-2H3
Instrument:  QExactive Plus Orbitrap
Instrument type: LC-ESI-QFT
Ms type: MS2
Ion mode: NEGATIVE
Collision energy: 20
Retention time: 16.74
Precursor m/z: 379.17072
Precursor type: [M-H]-
m/z	relative intensity
50.58608	2
55.62917	3
117.10417	3
134.49321	3
201.39133	2
209.09772	23
325.18420	12
328.70547	3
363.13901	16
364.14749	4
379.17081	999
