Mass spectrum: 2-Etylhexyldiphenylphosphate; GC-EI-FT; MS; Positive
Name: 2-Etylhexyldiphenylphosphate
Name: 2-ethylhexyl diphenyl phosphate
Class: Non-Natural Product; Phosphoric acid ester
Formula: C20H27O4P
Exact mass: 362.164696
SMILES: CCCCC(CC)COP(=O)(OC1=CC=CC=C1)OC2=CC=CC=C2
InChI: InChI=1S/C20H27O4P/c1-3-5-12-18(4-2)17-22-25(21,23-19-13-8-6-9-14-19)24-20-15-10-7-11-16-20/h6-11,13-16,18H,3-5,12,17H2,1-2H3
Instrument: Thermo Scientific Q Exactive GC Hybrid Quadrupol-Orbitrap
Instrument type: GC-EI-FT
Ms type: MS
Ion mode: POSITIVE
Base peak: 251.04680
m/z	relative intensity
115.05431	28
138.9944	10
139.05428	32
151.05425	12
152.062	59
153.06979	34
165.06981	19
168.05693	55
169.0647	95
170.06818	12
170.07254	152
171.07602	20
174.00766	58
175.01549	23
215.0256	30
232.02853	45
233.03639	19
249.03113	228
250.03946	139
251.0468	999
252.0502	129
253.0519	11
