Mass spectrum: 2,2-Bis[4-(4-aminophenoxy)phenyl]propane; ESI-QTOF; MS2; CE: 40
Name: 2,2-Bis[4-(4-aminophenoxy)phenyl]propane
Name: BAPP
Class: Non-Natural Product; Industrial Chemical
Formula: C27H26N2O2
Exact mass: 410.19943
SMILES: CC(C)(C1C=CC(=CC=1)OC1C=CC(N)=CC=1)C1C=CC(=CC=1)OC1C=CC(N)=CC=1
InChI: InChI=1S/C27H26N2O2/c1-27(2,19-3-11-23(12-4-19)30-25-15-7-21(28)8-16-25)20-5-13-24(14-6-20)31-26-17-9-22(29)10-18-26/h3-18H,28-29H2,1-2H3
Instrument: Agilent 6546 Q-ToF
Instrument type: ESI-QTOF
Ms type: MS2
Ion mode: POSITIVE
Ionization: ESI
Collision energy: 40
Precursor m/z: 411.2067
m/z	relative intensity
80.0494	83
93.0573	259
93.0618	10
93.0642	15
105.0694	21
108.0443	999
108.0506	44
108.0519	56
121.0286	11
165.0703	15
166.0767	13
167.0726	11
167.0849	30
169.1003	15
179.0862	14
181.1026	10
182.0716	27
182.0961	14
195.0804	105
196.088	13
197.0954	31
197.0978	10
198.0918	16
209.0969	21
210.0914	297
210.1032	57
211.0978	13
226.1232	111
303.1229	30
303.1272	38
304.1288	12
304.1336	49
304.1366	20
304.1429	10
379.1552	12
396.1784	53
