Mass spectrum: ETFOSAA; LC-ESI-FT; MS2
Name: ETFOSAA
Name: 2-[ethyl(1,1,2,2,3,3,4,4,5,5,6,6,7,7,8,8,8-heptadecafluorooctylsulfonyl)amino]acetic acid
Class: Non-Natural Product; Perfluoroalkyl sulfonamide
Formula: C12H8F17NO4S
Exact mass: 584.9902577
SMILES: CCN(CC(=O)O)S(=O)(=O)C(C(C(C(C(C(C(C(F)(F)F)(F)F)(F)F)(F)F)(F)F)(F)F)(F)F)(F)F
InChI: InChI=1S/C12H8F17NO4S/c1-2-30(3-4(31)32)35(33,34)12(28,29)10(23,24)8(19,20)6(15,16)5(13,14)7(17,18)9(21,22)11(25,26)27/h2-3H2,1H3,(H,31,32)
Instrument: Vanquish LC, Thermo Scientific; Exploris 120 Orbitrap, Thermo Scientific
Instrument type: LC-ESI-FT
Ms type: MS2
Ion mode: NEGATIVE
Retention time: 7.21319306688309
Precursor m/z: 583.98248
Precursor type: [M-H]-
m/z	relative intensity
82.96072	999
168.98923	640
