Mass spectrum: 4-((4-Isopropoxyphenyl)sulfonyl)phenol; ESI-QTOF; MS2; CE: 10
Name: 4-((4-Isopropoxyphenyl)sulfonyl)phenol
Name: 4-4-Isopropyloxypheol
Class: Non-natural product; Industrial chemical
Formula: C15H16O4S
Exact mass: 292.07693
SMILES: CC(C)OC1C=CC(=CC=1)S(=O)(=O)C1C=CC(O)=CC=1
InChI: InChI=1S/C15H16O4S/c1-11(2)19-13-5-9-15(10-6-13)20(17,18)14-7-3-12(16)4-8-14/h3-11,16H,1-2H3
Instrument: Agilent 6546 Q-ToF
Instrument type: ESI-QTOF
Ms type: MS2
Ion mode: NEGATIVE
Ionization: ESI
Collision energy: 10
Precursor m/z: 291.06964
m/z	relative intensity
248.0153	151
248.0266	11
291.0703	999
292.0735	14
