Mass spectrum: CAPROLACTAM; ESI-QTOF; MS2; CE: 20
Name: CAPROLACTAM
Name: 2-Perhydroazepinone
Class: Non-natural product; Industrial chemical
Formula: C6H11NO
Exact mass: 113.084063972
SMILES: OC1CCCCCN=1
InChI: InChI=1S/C6H11NO/c8-6-4-2-1-3-5-7-6/h1-5H2,(H,7,8)
Instrument: Agilent 6546 Q-ToF
Instrument type: ESI-QTOF
Ms type: MS2
Ion mode: POSITIVE
Ionization: ESI
Collision energy: 20
Precursor m/z: 114.0913
m/z	relative intensity
67.0536	12
68.0487	27
69.0697	378
69.0736	14
70.0652	25
72.0806	139
72.082	21
77.0383	118
79.0542	782
79.0595	48
79.061	36
81.0576	22
83.0841	11
84.0808	13
85.0643	15
86.096	55
86.0974	59
95.049	16
96.0808	431
96.0891	15
97.0645	201
105.0438	36
114.0913	999
114.0991	49
538.2962	16
