Mass spectrum: 2,2'-Diallylbisphenol A; ESI-QTOF; MS2; CE: 40
Name: 2,2'-Diallylbisphenol A
Name: 4,4'-(Propane-2,2-diyl)bis(2-allylphenol)
Class: Non-Natural Product; Industrial Chemical
Formula: C21H24O2
Exact mass: 308.17763
SMILES: CC(C)(C1C=C(CC=C)C(O)=CC=1)C1C=C(CC=C)C(O)=CC=1
InChI: InChI=1S/C21H24O2/c1-5-7-15-13-17(9-11-19(15)22)21(3,4)18-10-12-20(23)16(14-18)8-6-2/h5-6,9-14,22-23H,1-2,7-8H2,3-4H3
Instrument: Agilent 6546 Q-ToF
Instrument type: ESI-QTOF
Ms type: MS2
Ion mode: NEGATIVE
Ionization: ESI
Collision energy: 40
Precursor m/z: 307.17035
m/z	relative intensity
93.0336	14
93.0356	29
93.0414	14
93.4693	18
100.9544	12
116.9495	19
119.0521	24
133.0663	121
150.9933	12
157.0643	31
157.0659	69
159.0803	14
171.083	20
173.0964	394
173.1072	18
174.0974	17
196.0896	29
221.0971	59
222.1019	42
222.1099	13
223.0697	14
233.0562	19
233.0604	27
235.1138	11
248.0864	57
248.0967	18
249.0893	24
249.0941	62
251.1036	13
251.1076	89
261.0887	52
262.1012	62
262.1062	11
263.1096	105
264.1204	46
265.1226	12
277.1236	999
277.1312	98
277.135	66
277.1672	32
289.1238	13
291.1382	718
291.1459	85
291.1516	61
292.1444	37
292.1495	13
307.1721	142
307.1834	21
