Mass spectrum: Phenol, 2-(2H-benzotriazol-2-yl)-4-(1,1-dimethylethyl)-; LC-ESI-QTOF; MSn
Name: 2-(2H-Benzotriazol-2-yl)-4-tert-butylphenol
Name: Phenol, 2-(2H-benzotriazol-2-yl)-4-(1,1-dimethylethyl)-
Class: Non-Natural Product; UV stabilizer
Formula: C16H17N3O
Exact mass: 267.137162179
SMILES: CC(C)(C)C1=CC(N2N=C3C=CC=CC3=N2)=C(O)C=C1
InChI: InChI=1S/C16H17N3O/c1-16(2,3)11-8-9-15(20)14(10-11)19-17-12-6-4-5-7-13(12)18-19/h4-10,20H,1-3H3
Instrument: Waters G2-S QTOF
Instrument type: LC-ESI-QTOF
Ms type: MSn
Ion mode: POSITIVE
Precursor m/z: 268.145
Precursor type: [M+H]+
m/z	relative intensity
108.3650	1
148.3420	2
204.0529	1
212.0831	279
218.1771	2
219.9596	1
237.1093	5
238.2247	3
243.5221	1
243.9816	1
247.8011	1
251.1260	11
256.2338	2
264.2693	2
268.1450	999
269.1471	26
270.1456	3
274.2236	1
281.8975	1
284.2993	4
284.8537	3
285.2109	3
286.8576	3
287.6902	1
288.1350	1
