Mass spectrum: 1,1-Bis(4-hydroxy-3-methylphenyl)cyclohexane; ESI-QTOF; MS2; CE: 40
Name: 1,1-Bis(4-hydroxy-3-methylphenyl)cyclohexane
Name: Phenol, 4,4'-cyclohexylidenebis[2-methyl-
Class: Non-natural product; Industrial chemical
Formula: C20H24O2
Exact mass: 296.17763
SMILES: CC1=CC(=CC=C1O)C1(CCCCC1)C1C=C(C)C(O)=CC=1
InChI: InChI=1S/C20H24O2/c1-14-12-16(6-8-18(14)21)20(10-4-3-5-11-20)17-7-9-19(22)15(2)13-17/h6-9,12-13,21-22H,3-5,10-11H2,1-2H3
Instrument: Agilent 6546 Q-ToF
Instrument type: ESI-QTOF
Ms type: MS2
Ion mode: NEGATIVE
Ionization: ESI
Collision energy: 40
Precursor m/z: 295.17035
m/z	relative intensity
114.9358	121
131.0486	123
133.0646	67
144.0581	123
159.0777	185
159.0816	616
159.0836	588
159.0895	90
159.0925	100
180.0797	136
187.1076	124
187.1128	999
209.0623	93
221.0626	63
223.0582	75
225.0906	105
225.0943	285
235.0775	84
236.0845	315
239.1096	99
250.1022	64
251.1038	134
251.1074	986
251.1162	142
252.121	166
295.17	438
875.977	64
929.7535	121
