Mass spectrum: PFHXA; LC-ESI-FT; MS2
Name: PFHXA
Name: 2,2,3,3,4,4,5,5,6,6,6-undecafluorohexanoic acid
Class: Non-Natural Product; Perfluoroalkyl carboxylic acid
Formula: C6HF11O2
Exact mass: 313.98008905
SMILES: C(=O)(C(C(C(C(C(F)(F)F)(F)F)(F)F)(F)F)(F)F)O
InChI: InChI=1S/C6HF11O2/c7-2(8,1(18)19)3(9,10)4(11,12)5(13,14)6(15,16)17/h(H,18,19)
Instrument: Vanquish LC, Thermo Scientific; Exploris 120 Orbitrap, Thermo Scientific
Instrument type: LC-ESI-FT
Ms type: MS2
Ion mode: NEGATIVE
Retention time: 5.4790263370355
Precursor m/z: 312.97229
Precursor type: [M-H]-
m/z	relative intensity
55.81845	30
56.15676	29
62.04675	27
68.99579	49
114.77747	32
118.99217	351
137.85086	28
137.88152	29
137.89503	27
233.36497	28
268.98270	999
