Mass spectrum: Proline; LC-ESI-QFT; MS2; CE:20; [M+H]+
Name: Proline
Name: Pyrrolidine-2-carboxylic acid
Class: Non-natural product; Pharmaceutical
Formula: C5H9NO2
Exact mass: 115.06335
SMILES: C1CC(NC1)C(=O)O
InChI: InChI=1S/C5H9NO2/c7-5(8)4-2-1-3-6-4/h4,6H,1-3H2,(H,7,8)/t4-/m0/s1
Instrument:  QExactive Plus Orbitrap
Instrument type: LC-ESI-QFT
Ms type: MS2
Ion mode: POSITIVE
Collision energy: 20
Retention time: 1.50
Precursor m/z: 116.07063
Precursor type: [M+H]+
m/z	relative intensity
53.03899	1
68.04964	14
69.68152	1
70.06527	999
98.05988	1
116.07063	142
