Mass spectrum: 4-tert-butylphenol; LC-ESI-QFT; MS2; CE:20; [M-H]-
Name: 4-tert-butylphenol
Name: Butylphen
Class: Non-natural product; Industrial chemical 
Formula: C10H14O
Exact mass: 150.10448
SMILES: CC(C)(C)C1=CC=C(C=C1)O
InChI: InChI=1S/C10H14O/c1-10(2,3)8-4-6-9(11)7-5-8/h4-7,11H,1-3H3
Instrument:  QExactive Plus Orbitrap
Instrument type: LC-ESI-QFT
Ms type: MS2
Ion mode: NEGATIVE
Collision energy: 20
Retention time: 15.6469326666667
Precursor m/z: 149.09720
Precursor type: [M-H]-
m/z	relative intensity
50.26734	2
58.52290	2
58.67083	2
59.96688	3
69.65929	2
75.96233	5
76.97002	30
87.91441	1
92.85097	1
94.98067	36
108.99642	4
117.03429	3
121.02943	3
133.06595	85
134.97336	27
148.98895	9
149.00951	6
149.09724	999
150.00179	7
150.10060	10
