Mass spectrum: Bisphenol Z; LC-ESI-QFT; MS2; CE:20; [M-H]-
Name: Bisphenol-Z
Name: 4-[1-(4-hydroxyphenyl)cyclohexyl]phenol
Class: Non-natural product; Additive 
Formula: C18H20O2
Exact mass: 268.14656
SMILES: C1CCC(CC1)(C2=CC=C(C=C2)O)C3=CC=C(C=C3)O
InChI: InChI=1S/C18H20O2/c19-16-8-4-14(5-9-16)18(12-2-1-3-13-18)15-6-10-17(20)11-7-15/h4-11,19-20H,1-3,12-13H2
Instrument:  QExactive Plus Orbitrap
Instrument type: LC-ESI-QFT
Ms type: MS2
Ion mode: NEGATIVE
Collision energy: 20
Retention time: 16.0157821666667
Precursor m/z: 267.13928
Precursor type: [M-H]-
m/z	relative intensity
54.49002	2
58.08031	2
59.60910	2
91.52714	2
93.03452	16
95.78191	2
98.95588	6
117.03465	5
145.06604	64
173.09715	73
197.06064	24
198.06888	6
223.07654	75
224.08469	26
230.28523	2
267.13916	999
