Mass spectrum: Tans-4,4'-Azodiphenol ; ESI-QTOF; MS2; CE: 40
Name: Tans-4,4'-Azodiphenol 
Name: 4,4'-Dihydroxyazobenzene
Class: Non-Natural Product; Industrial Chemical
Formula: C12H10N2O2
Exact mass: 214.07423
SMILES: OC1C=CC(=CC=1)N=NC1C=CC(O)=CC=1
InChI: InChI=1S/C12H10N2O2/c15-11-5-1-9(2-6-11)13-14-10-3-7-12(16)8-4-10/h1-8,15-16H
Instrument: Agilent 6546 Q-ToF
Instrument type: ESI-QTOF
Ms type: MS2
Ion mode: POSITIVE
Ionization: ESI
Collision energy: 40
Precursor m/z: 411.2067
m/z	relative intensity
80.0494	83
93.0573	259
93.0618	10
93.0642	15
105.0694	21
108.0443	999
108.0506	44
108.0519	56
121.0286	11
165.0703	15
166.0767	13
167.0726	11
167.0849	30
169.1003	15
179.0862	14
181.1026	10
182.0716	27
182.0961	14
195.0804	105
196.088	13
197.0954	31
197.0978	10
198.0918	16
209.0969	21
210.0914	297
210.1032	57
211.0978	13
226.1232	111
303.1229	30
303.1272	38
304.1288	12
304.1336	49
304.1366	20
304.1429	10
379.1552	12
396.1784	53
