Mass spectrum: Cyclo-di-BADGE; ESI-QTOF; MS2; CE: 40
Name: Cyclo-di-BADGE
Name: 2,2,10,10-Tetramethyl-4,8,12,16-tetraoxa-1,3,9,11(1,4)-tetrabenzenacyclohexadecaphane-6,14-diol
Class: Non-natural product; Additive
Formula: C36H40O6
Exact mass: 568.28249
SMILES: CC1(C)C2C=CC(=CC=2)OCC(O)COC2C=CC(=CC=2)C(C)(C)C2C=CC(=CC=2)OCC(O)COC2C=CC1=CC=2
InChI: InChI=1S/C36H40O6/c1-35(2)25-5-13-31(14-6-25)39-21-29(37)23-41-33-17-9-27(10-18-33)36(3,4)28-11-19-34(20-12-28)42-24-30(38)22-40-32-15-7-26(35)8-16-32/h5-20,29-30,37-38H,21-24H2,1-4H3
Instrument: Agilent 6546 Q-ToF
Instrument type: ESI-QTOF
Ms type: MS2
Ion mode: POSITIVE
Ionization: ESI
Collision energy: 40
Precursor m/z: 586.32629
m/z	relative intensity
95.0494	25
105.0689	19
105.0708	19
107.0493	107
133.0648	199
133.0712	13
135.0803	999
135.088	66
135.0895	13
136.0839	11
173.0954	72
173.0979	13
191.1082	15
267.1361	10
285.1494	107
325.1782	60
