Mass spectrum: PFDOS; LC-ESI-FT; MS2
Name: PFDOS
Name: 1,1,2,2,3,3,4,4,5,5,6,6,7,7,8,8,9,9,10,10,11,11,12,12,12-pentacosafluorododecane-1-sulfonic acid
Class: Non-Natural Product; Perfluoroalkyl sulfonic acid
Formula: C12HF25O3S
Exact mass: 699.9247191
SMILES: C(C(C(C(C(C(C(F)(F)S(=O)(=O)O)(F)F)(F)F)(F)F)(F)F)(F)F)(C(C(C(C(C(F)(F)F)(F)F)(F)F)(F)F)(F)F)(F)F
InChI: InChI=1S/C12HF25O3S/c13-1(14,3(17,18)5(21,22)7(25,26)9(29,30)11(33,34)35)2(15,16)4(19,20)6(23,24)8(27,28)10(31,32)12(36,37)41(38,39)40/h(H,38,39,40)
Instrument: Vanquish LC, Thermo Scientific; Exploris 120 Orbitrap, Thermo Scientific
Instrument type: LC-ESI-FT
Ms type: MS2
Ion mode: NEGATIVE
Retention time: 8.7312227890571
Precursor m/z: 698.91620
Precursor type: [M-H]-
m/z	relative intensity
79.95719	227
82.96066	6
98.95556	81
104.53094	1
118.99234	5
129.95398	13
134.22891	1
151.94778	1
161.94411	1
168.98990	2
179.76195	1
179.95145	3
225.36150	1
229.94794	10
261.93561	1
279.94522	6
329.94247	3
379.93573	2
698.91638	999
