Mass spectrum: D-Galactose; LC-ESI-QFT; MS2; CE:20; [M-H]-
Name: D-Galactose
Name: (3R,4S,5R,6R)-6-(hydroxymethyl)oxane-2,3,4,5-tetrol
Class: Natural product
Formula: C6H12O6
Exact mass: 180.06339
SMILES: C([C@@H]1[C@@H]([C@@H]([C@H](C(O1)O)O)O)O)O
InChI: InChI=1S/C6H12O6/c7-1-2-3(8)4(9)5(10)6(11)12-2/h2-11H,1H2/t2-,3+,4+,5-,6?/m1/s1
Instrument:  QExactive Plus Orbitrap
Instrument type: LC-ESI-QFT
Ms type: MS2
Ion mode: NEGATIVE
Collision energy: 20
Retention time: 4.91
Precursor m/z: 179.0558
Precursor type: [M-H]-
m/z	relative intensity
59.01354	999
61.98813	97.48
71.01376	924.58
72.0171	61.48
85.02943	74.02
89.02235	735.11
96.96009	41.41
113.02445	163.21
115.9207	88.48
116.92851	399.28
129.01935	8.16
142.92482	79.75
147.02994	5.23
160.93544	66.68
171.94673	3.84
176.89523	18.2
179.05606	106.27
