Mass spectrum: PFUNDA; LC-ESI-FT; MS2
Name: PFUNDA
Name: 2,2,3,3,4,4,5,5,6,6,7,7,8,8,9,9,10,10,11,11,11-henicosafluoroundecanoic acid
Class: Non-Natural Product; Perfluoroalkyl carboxylic acid
Formula: C11HF21O2
Exact mass: 563.9641207
SMILES: C(=O)(C(C(C(C(C(C(C(C(C(C(F)(F)F)(F)F)(F)F)(F)F)(F)F)(F)F)(F)F)(F)F)(F)F)(F)F)O
InChI: InChI=1S/C11HF21O2/c12-2(13,1(33)34)3(14,15)4(16,17)5(18,19)6(20,21)7(22,23)8(24,25)9(26,27)10(28,29)11(30,31)32/h(H,33,34)
Instrument: Vanquish LC, Thermo Scientific; Exploris 120 Orbitrap, Thermo Scientific
Instrument type: LC-ESI-FT
Ms type: MS2
Ion mode: NEGATIVE
Retention time: 7.41667957461675
Precursor m/z: 562.95587
Precursor type: [M-H]-
m/z	relative intensity
62.71921	4
62.98869	5
68.20879	4
68.99522	5
91.68912	4
101.21754	4
102.26468	4
118.99231	72
132.70015	4
137.60968	4
168.98912	116
197.29196	4
218.98572	136
255.04399	4
268.98260	196
318.97922	130
368.97726	18
518.96625	999
562.96124	13
