Mass spectrum: Bisphenol TMC; LC-ESI-QFT; MS2; CE:20; [M-H]-
Name: Bisphenol TMC
Name: 4-[1-(4-hydroxyphenyl)-3,3,5-trimethylcyclohexyl]phenol
Class: Non-natural product; Additive 
Formula: C21H26O2
Exact mass: 310.19356
SMILES: CC1CC(CC(C1)(C2=CC=C(C=C2)O)C3=CC=C(C=C3)O)(C)C
InChI: InChI=1S/C21H26O2/c1-15-12-20(2,3)14-21(13-15,16-4-8-18(22)9-5-16)17-6-10-19(23)11-7-17/h4-11,15,22-23H,12-14H2,1-3H3
Instrument:  QExactive Plus Orbitrap
Instrument type: LC-ESI-QFT
Ms type: MS2
Ion mode: NEGATIVE
Collision energy: 20
Retention time: 16.67
Precursor m/z: 309.18628
Precursor type: [M-H]-
m/z	relative intensity
56.33100	13
56.93591	13
57.51418	12
59.42625	12
59.66322	12
61.24158	15
68.71682	49
77.90509	13
79.95742	84
91.06594	14
96.96013	570
129.28503	12
165.80136	12
176.92996	20
216.64323	13
242.14215	14
249.02249	14
255.92032	13
291.19928	20
309.17590	999
309.20767	90
