Mass spectrum: Tris(4-tert-butylphenyl) phosphate; GC-EI-FT; MS; Positive
Name: Tris(4-tert-butylphenyl) phosphate
Name: Phosphate, tris(tert-butylphenyl)
Class: Non-Natural Product; Organophosphate
Formula: C30H39O4P
Exact mass: 494.258596
SMILES: CC(C)(C)C1=CC=C(C=C1)OP(=O)(OC2=CC=C(C=C2)C(C)(C)C)OC3=CC=C(C=C3)C(C)(C)C
InChI: InChI=1S/C30H39O4P/c1-28(2,3)22-10-16-25(17-11-22)32-35(31,33-26-18-12-23(13-19-26)29(4,5)6)34-27-20-14-24(15-21-27)30(7,8)9/h10-21H,1-9H3
Instrument: Thermo Scientific Q Exactive GC Hybrid Quadrupol-Orbitrap
Instrument type: GC-EI-FT
Ms type: MS
Ion mode: POSITIVE
Base peak: 479.2347
m/z	relative intensity
107.0492	120
118.0778	30
133.0649	32
135.0805	211
149.0962	17
153.0101	58
153.0698	17
163.0308	35
165.0698	34
183.0507	26
183.0806	45
197.0363	55
218.0897	39
232.6071	111
249.0311	26
367.1095	163
368.1132	36
407.1409	50
423.1727	57
479.2347	999
480.2382	315
481.2412	57
495.262	46
