Mass spectrum: Pergafast 201; ESI-QTOF; MS2; CE: 20
Name: Pergafast 201
Name: 3-(3-Tosylureido)phenyl p-toluenesulfonate
Class: Non-natural product; Additive
Formula: C21H20N2O6S2
Exact mass: 460.07628
SMILES: CC1C=CC(=CC=1)S(=O)(=O)OC1C=C(C=CC=1)N=C(O)NS(=O)(=O)C1C=CC(C)=CC=1
InChI: InChI=1S/C21H20N2O6S2/c1-15-6-10-19(11-7-15)30(25,26)23-21(24)22-17-4-3-5-18(14-17)29-31(27,28)20-12-8-16(2)9-13-20/h3-14H,1-2H3,(H2,22,23,24)
Instrument: Agilent 6546 Q-ToF
Instrument type: ESI-QTOF
Ms type: MS2
Ion mode: NEGATIVE
Ionization: ESI
Collision energy: 20
Retention time: 4.34
Precursor m/z: 459.06912
m/z	relative intensity
106.0663	25
154.0097	11
170.0284	999
171.0121	53
262.0545	24
459.0697	15
