Mass spectrum: DPP; GC-EI-FT; MS; Positive
Name: DPP
Name: Dipentyl phthalate
Class: Non-Natural Product; Phthalate
Formula: C18H26O4
Exact mass: 306.18311
SMILES: CCCCCOC(=O)C1=CC=CC=C1C(=O)OCCCCC
InChI: InChI=1S/C18H26O4/c1-3-5-9-13-21-17(19)15-11-7-8-12-16(15)18(20)22-14-10-6-4-2/h7-8,11-12H,3-6,9-10,13-14H2,1-2H3
Instrument: Thermo Scientific Q Exactive GC Hybrid Quadrupol-Orbitrap
Instrument type: GC-EI-FT
Ms type: MS
Ion mode: POSITIVE
Base peak: 149.0234
m/z	relative intensity
55.05432	5.476
56.06207	2.822
57.06989	20.542
65.03862	6.903
66.04652	1.051
67.05421	2.092
69.06988	56.797
70.07336	3.416
76.03082	8.949
77.03857	4.41
79.05424	1.209
83.08566	3.501
84.09343	16.918
85.10126	93.538
86.10463	6.144
91.05423	1.237
93.03374	4.492
101.09628	1.241
104.02582	20.16
105.0336	22.118
106.03702	1.7
121.02866	30.505
122.03639	24.712
123.03958	2.711
132.02086	1.532
148.01508	1.271
149.02341	999
149.05664	1.535
150.02678	110.717
151.02785	9.073
167.03386	159.381
168.03711	14.148
169.0376	1.251
251.12753	7.353
252.13084	1.289
