Mass spectrum: 1,1,1-Tris(4-hydroxyphenyl)ethane; ESI-QTOF; MS2; CE: 40
Name: 1,1,1-Tris(4-hydroxyphenyl)ethane
Name: TrisP-HAP
Class: Non-natural product; Industrial chemical
Formula: C20H18O3
Exact mass: 306.1256
SMILES: CC(C1C=CC(O)=CC=1)(C1C=CC(O)=CC=1)C1C=CC(O)=CC=1
InChI: InChI=1S/C20H18O3/c1-20(14-2-8-17(21)9-3-14,15-4-10-18(22)11-5-15)16-6-12-19(23)13-7-16/h2-13,21-23H,1H3
Instrument: Agilent 6546 Q-ToF
Instrument type: ESI-QTOF
Ms type: MS2
Ion mode: NEGATIVE
Ionization: ESI
Collision energy: 40
Precursor m/z: 305.11832
m/z	relative intensity
59.0135	141
61.9882	92
93.0354	506
99.0079	102
182.0744	154
196.0521	121
211.077	247
248.0464	93
288.079	97
289.0869	999
289.0903	114
