Mass spectrum: 2,2-Bis(4-hydroxy-3,5-dimethylphenyl)propane; ESI-QTOF; MS2; CE: 20
Name: 2,2-Bis(4-hydroxy-3,5-dimethylphenyl)propane
Name: TMBPA
Class: Non-natural product; Industrial chemical
Formula: C19H24O2
Exact mass: 284.17763
SMILES: CC(C)(C1=CC(C)=C(O)C(C)=C1)C1=CC(C)=C(O)C(C)=C1
InChI: InChI=1S/C19H24O2/c1-11-7-15(8-12(2)17(11)20)19(5,6)16-9-13(3)18(21)14(4)10-16/h7-10,20-21H,1-6H3
Instrument: Agilent 6546 Q-ToF
Instrument type: ESI-QTOF
Ms type: MS2
Ion mode: NEGATIVE
Ionization: ESI
Collision energy: 20
Precursor m/z: 283.17035
m/z	relative intensity
59.0129	11
90.9735	14
106.0426	15
121.0665	23
139.1141	13
161.0968	88
199.3813	14
221.1521	14
223.1069	17
224.9034	19
237.1501	11
239.2348	21
267.1368	16
267.1421	15
268.1441	24
268.1488	52
268.1553	12
283.0963	12
283.1698	999
283.1836	74
283.2644	283
283.2689	57
283.2761	42
284.173	99
