Mass spectrum: Dechlorane plus ax Cl11; GC-EI-QTOF; MS1; CE: 70
Name: Dechlorane plus ax Cl11
Class: Non-natural product; Flame retardant
Formula: C18H13Cl11
Exact mass: 613.7591052247
Instrument: Agilent 7200 Accurate-Mass QToF GC/MS
Instrument type: GC-EI-QTOF
Ms type: MS1
Ion mode: POSITIVE
Ionization: EI
Collision energy: 70
Retention time: 13.62
m/z	relative intensity
27.9943072733812	21
31.9902011915781	12
35.9767846342652	28
39.0236393162015	34
41.0392700245423	55
53.0389464036004	30
54.0466345822436	43
55.0545592031453	34
65.0387448227211	28
66.0461628908506	15
67.0542649326068	133
72.983651631585	11
74.999465488888	19
75.0255037262459	14
77.0385292155922	35
78.0462423722907	12
79.0539780436193	151
80.061151693663	60
81.0697292233364	43
82.9453561686166	12
91.0541758836396	32
93.0696167305941	29
95.0853433363573	15
105.069598145216	17
107.08515964306	37
115.053896547969	14
136.007834915602	16
149.014310362101	27
156.047769683898	11
158.973728865445	10
162.021445498753	15
163.005749816147	10
165.069420400576	14
169.968604706899	21
170.976554757678	14
171.967460731055	15
172.974139015159	11
179.929631005498	13
181.926484257597	11
182.976986620559	21
184.976472121114	14
192.935982730521	19
194.934775531357	18
195.982955638383	10
200.882534035217	43
201.890480261501	47
202.880357819477	59
203.88721718449	58
203.928165017358	11
204.87792265231	29
204.935848668894	17
205.884454160414	29
205.934813650169	11
206.938445110481	14
213.890088045776	15
214.898014162463	15
215.888413965987	20
216.895410663963	19
216.936356179661	10
217.885867007772	10
218.942398944426	11
226.898377527007	28
227.905617881077	17
228.895715902785	35
229.903023970931	23
230.894250053057	17
231.900513553716	11
234.843780465978	34
235.851758829398	597
236.845614499867	68
237.849008403944	999
238.847557320936	65
238.895873745189	11
239.845906370171	619
239.8939008149	15
240.846953551322	36
240.908228907036	13
241.842556945034	182
241.89972892717	19
242.844688728668	10
242.909591419412	14
243.840018274561	29
253.017219837912	13
263.86450182396	12
269.81244286477	41
271.809619126954	84
272.991146678478	12
273.806465220734	68
274.995990680937	10
275.803667828253	28
296.957767373729	16
298.957337232659	11
308.960499284639	10
327.035158862923	19
331.0637049892	10
342.935959270165	13
344.934500652791	17
346.931219083517	11
