Mass spectrum: TETRABUTYLAMMONIUM BROMIDE; ESI-QTOF; MS2; CE: 10
Name: TETRABUTYLAMMONIUM BROMIDE
Name: N,N,N-TRIBUTYL-1-BUTANAMINUM BROMIDE
Class: Non-natural product; Industrial chemical
Formula: C16H36BrN
Exact mass: 321.203112252
SMILES: [Br-].CCCC[N+](CCCC)(CCCC)CCCC
InChI: InChI=1S/C16H36N.BrH/c1-5-9-13-17(14-10-6-2,15-11-7-3)16-12-8-4;/h5-16H2,1-4H3;1H/q+1;/p-1
Instrument: Agilent 6546 Q-ToF
Instrument type: ESI-QTOF
Ms type: MS2
Ion mode: POSITIVE
Ionization: ESI
Collision energy: 10
Precursor m/z: 242.28419
m/z	relative intensity
100.1121	12
142.1592	36
184.2064	10
186.2212	19
242.2845	999
242.294	18
