Mass spectrum: 2,4,6-Tris(3-bromophenyl)-1,3,5-triazine; ESI-QTOF; MS2; CE: 20
Name: 2,4,6-Tris(3-bromophenyl)-1,3,5-triazine
Name: TbrPZ
Class: Non-natural product; Industrial chemical
Formula: C21H12Br3N3
Exact mass: 542.85813
SMILES: BrC1C=C(C=CC=1)C1N=C(N=C(N=1)C1=CC(Br)=CC=C1)C1=CC(Br)=CC=C1
InChI: InChI=1S/C21H12Br3N3/c22-16-7-1-4-13(10-16)19-25-20(14-5-2-8-17(23)11-14)27-21(26-19)15-6-3-9-18(24)12-15/h1-12H
Instrument: Agilent 6546 Q-ToF
Instrument type: ESI-QTOF
Ms type: MS2
Ion mode: POSITIVE
Ionization: ESI
Collision energy: 20
Precursor m/z: 545.88104
m/z	relative intensity
74.0965	191
159.5997	205
160.0752	207
249.2574	140
283.2624	150
297.2812	123
302.2915	128
307.2668	119
309.2759	416
327.2772	121
528.4872	179
540.3145	172
545.4156	143
545.876	270
546.4801	281
546.4895	999
546.5087	154
763.155	201
764.8353	308
785.5462	122
