Mass spectrum: mmm-TMPP; GC-EI-FT; MS; Positive
Name: mmm-TMPP
Name: Tri-m-tolylphosphate
Class: Non-Natural Product; Organophosphate
Formula: C21H21O4P
Exact mass: 368.117746
SMILES: CC1=CC(=CC=C1)OP(=O)(OC2=CC=CC(=C2)C)OC3=CC=CC(=C3)C
InChI: InChI=1S/C21H21O4P/c1-16-7-4-10-19(13-16)23-26(22,24-20-11-5-8-17(2)14-20)25-21-12-6-9-18(3)15-21/h4-15H,1-3H3
Instrument: Thermo Scientific Q Exactive GC Hybrid Quadrupol-Orbitrap
Instrument type: GC-EI-FT
Ms type: MS
Ion mode: POSITIVE
Base peak: 165.0698
m/z	relative intensity
65.0386	135
77.0386	168
78.042	12
79.0543	108
80.0621	20
89.0386	129
90.0465	133
91.0543	353
92.0577	28
105.0448	13
107.0492	131
108.0527	11
108.057	128
109.0604	10
109.065	11
128.062	30
129.07	25
138.9944	10
141.0699	29
152.062	67
153.01	89
153.0698	69
154.0178	28
154.0733	10
154.0777	40
155.0854	45
163.0542	10
164.062	28
165.0698	999
166.0732	143
166.0777	56
167.0855	24
168.0569	18
169.0049	15
169.1012	14
176.062	14
177.0698	15
178.0776	277
179.081	39
179.0854	248
180.0888	36
180.0933	110
181.0648	96
181.101	43
182.0681	12
182.0726	117
182.1089	15
183.076	17
183.0804	159
184.0838	22
187.0155	9
189.0311	21
195.0804	150
196.0837	18
196.0883	150
197.0915	17
197.0961	133
198.0995	16
198.1039	128
199.1072	20
239.0856	31
240.0939	24
241.0413	16
242.0493	39
243.0571	299
244.0604	46
245.0365	10
253.1013	18
254.1094	22
255.1171	51
259.052	37
260.06	95
261.0679	172
262.0711	27
269.1327	16
270.1409	11
276.0552	17
277.0625	65
353.0935	16
367.1093	355
368.1173	416
369.1207	96
370.1235	12
