Mass spectrum: TCPP; GC-EI-FT; MS; Positive
Name: TCPP
Name: tris(1-chloropropan-2-yl) phosphate
Class: Non-Natural Product; Chlorinated Phosphate Ester
Formula: C9H18Cl3O4P
Exact mass: 326.000828
SMILES: CC(CCl)OP(=O)(OC(C)CCl)OC(C)CCl
InChI: InChI=1S/C9H18Cl3O4P/c1-7(4-10)14-17(13,15-8(2)5-11)16-9(3)6-12/h7-9H,4-6H2,1-3H3
Instrument: Thermo Scientific Q Exactive GC Hybrid Quadrupol-Orbitrap
Instrument type: GC-EI-FT
Ms type: MS
Ion mode: POSITIVE
Base peak: 124.99985
m/z	relative intensity
50.2509	3
50.75015	1
57.03351	4
64.9787	2
67.0542	2
69.25269	1
74.99968	3
76.00744	5
76.99668	1
77.01532	11
78.00449	1
78.99447	2
79.01232	4
80.97365	28
81.07002	1
81.98154	2
82.98926	1
88.97871	1
93.01025	1
98.98032	4
98.98109	2
98.98415	539
98.98727	3
98.98794	3
99.98843	1
100.98846	4
102.99437	5
106.98928	1
116.95033	226
118.9474	74
118.95432	1
121.00497	12
122.9842	6
123.99217	1
124.99442	7
124.99549	4
124.99985	999
125.00424	5
125.00521	6
125.00687	3
126.00323	21
127.00407	8
136.99997	11
138.00774	9
139.0155	127
140.01886	4
141.01991	1
156.98161	163
157.98508	5
158.96085	22
158.97862	53
159.98206	2
160.95795	7
165.03111	4
172.97652	18
174.97354	6
174.99213	64
175.99539	2
176.98917	21
177.99252	1
179.04694	1
201.00775	336
202.01108	18
203.00481	106
203.01111	1
203.01311	1
204.00812	6
214.01555	1
215.02341	47
216.02679	3
217.02054	15
218.02396	1
232.98961	6
234.96884	3
234.98671	4
236.96587	2
248.9846	1
251.00026	5
252.99724	3
277.0159	75
278.01935	6
279.01291	47
280.01639	4
281.00992	8
291.03159	11
292.03507	1
293.02863	7
327.00839	1
