Mass spectrum: ppp-TMPP; GC-EI-FT; MS; Positive
Name: ppp-TMPP
Name: Tri-p-tolyl phosphate
Class: Non-Natural Product; Organophosphate
Formula: C21H21O4P
Exact mass: 368.117746
SMILES: CC1=CC=C(C=C1)OP(=O)(OC2=CC=C(C=C2)C)OC3=CC=C(C=C3)C
InChI: InChI=1S/C21H21O4P/c1-16-4-10-19(11-5-16)23-26(22,24-20-12-6-17(2)7-13-20)25-21-14-8-18(3)9-15-21/h4-15H,1-3H3
Instrument: Thermo Scientific Q Exactive GC Hybrid Quadrupol-Orbitrap
Instrument type: GC-EI-FT
Ms type: MS
Ion mode: POSITIVE
Base peak: 165.0698
m/z	relative intensity
65.0386	119
77.0386	438
79.0543	369
80.0576	27
80.0621	45
89.0386	114
90.0465	214
91.05	17
91.0543	377
106.0414	27
107.0492	586
108.0527	48
108.057	430
137.0152	19
141.0699	40
152.062	58
153.01	129
153.0698	76
154.0178	75
154.0777	55
164.062	20
165.0698	999
166.0732	139
168.0569	21
169.1012	32
170.0127	21
178.0776	113
179.081	16
179.0854	222
180.0888	33
180.0933	81
181.0648	114
181.101	150
182.0726	165
182.1045	20
182.1089	97
183.0804	241
183.1124	15
184.0838	32
195.0804	172
196.0883	168
197.0915	19
197.0961	217
198.0995	26
198.1039	297
242.0493	55
243.0571	366
245.0365	17
254.1094	16
255.1171	56
259.052	52
260.06	187
262.0711	37
269.1327	19
270.1409	28
276.0552	20
277.0625	89
367.1093	532
368.1173	577
369.1207	127
