Mass spectrum: 2-Isopropylphenyl diphenyl phosphate; GC-EI-FT; MS; Positive
Name: 2-Isopropylphenyl diphenyl phosphate
Name: Phosphoric acid, 2-(1-methylethyl)phenyl diphenyl ester
Class: Non-Natural Product; Organophosphate
Formula: C21H21O4P
Exact mass: 368.117746
SMILES: CC(C)C1=CC=CC=C1OP(=O)(OC2=CC=CC=C2)OC3=CC=CC=C3
InChI: InChI=1S/C21H21O4P/c1-17(2)20-15-9-10-16-21(20)25-26(22,23-18-11-5-3-6-12-18)24-19-13-7-4-8-14-19/h3-17H,1-2H3
Instrument: Thermo Scientific Q Exactive GC Hybrid Quadrupol-Orbitrap
Instrument type: GC-EI-FT
Ms type: MS
Ion mode: POSITIVE
Base peak: 251.04680
m/z	relative intensity
102.04652	24
103.05434	107
105.07004	15
115.05431	229
116.05774	22
117.06992	788
118.07332	76
118.07773	803
119.04926	17
119.0812	80
121.06485	18
137.01517	34
138.9944	26
139.05428	34
140.00223	20
141.06986	43
149.01517	46
150.04642	23
151.05425	33
152.062	174
153.06566	21
153.06979	66
165.01003	108
165.06981	42
168.05693	62
169.0647	61
170.07254	68
174.00766	56
175.01549	52
176.06206	34
178.07762	210
179.02564	36
179.08099	31
179.08539	31
181.06477	26
183.02058	61
197.03621	15
232.02853	20
233.03639	34
239.08563	16
249.03113	97
250.03946	68
251.0468	999
259.052	18
263.04694	16
276.05484	14
277.0625	56
291.07822	30
353.09357	108
368.11722	314
