Mass spectrum: 4-((4-Isopropoxyphenyl)sulfonyl)phenol; ESI-QTOF; MS2; CE: 40
Name: 4-((4-Isopropoxyphenyl)sulfonyl)phenol
Name: 4-4-Isopropyloxypheol
Class: Non-natural product; Industrial chemical
Formula: C15H16O4S
Exact mass: 292.07693
SMILES: CC(C)OC1C=CC(=CC=1)S(=O)(=O)C1C=CC(O)=CC=1
InChI: InChI=1S/C15H16O4S/c1-11(2)19-13-5-9-15(10-6-13)20(17,18)14-7-3-12(16)4-8-14/h3-11,16H,1-2H3
Instrument: Agilent 6546 Q-ToF
Instrument type: ESI-QTOF
Ms type: MS2
Ion mode: NEGATIVE
Ionization: ESI
Collision energy: 40
Precursor m/z: 291.06964
m/z	relative intensity
82.9961	17
91.0189	223
91.026	17
92.0267	462
92.0333	19
108.0216	626
108.0291	33
128.0632	149
130.042	11
138.9857	21
139.9938	217
140.0023	13
143.05	18
155.0502	13
155.9887	69
156.0579	391
156.0669	29
183.0452	68
184.0532	999
184.0631	68
185.0561	21
199.0404	60
220.0202	26
247.0081	11
248.0148	404
248.0255	30
249.0218	12
