Mass spectrum: 2-(2H-Benzotriazol-2-yl)-4-methyl-6-(2-propenyl)phenol; LC-ESI-QTOF; MSn
Name: UV-9
Name: 2-(2H-Benzotriazol-2-yl)-4-methyl-6-(2-propenyl)phenol
Class: Non-Natural Product; Triazole
Formula: C16H15N3O
Exact mass: 265.121512115
SMILES: CC1=CC(CC=C)=C(O)C(=C1)N1N=C2C=CC=CC2=N1
InChI: InChI=1S/C16H15N3O/c1-3-6-12-9-11(2)10-15(16(12)20)19-17-13-7-4-5-8-14(13)18-19/h3-5,7-10,20H,1,6H2,2H3
Instrument: Waters G2-S QTOF
Instrument type: LC-ESI-QTOF
Ms type: MSn
Ion mode: POSITIVE
Precursor m/z: 266.1293
Precursor type: [M+H]+
m/z	relative intensity
238.0970	104
255.1005	47
266.1299	999
273.9322	2
