Mass spectrum: 1,1-Bis(4-hydroxy-3-methylphenyl)cyclohexane; ESI-QTOF; MS2; CE: 20
Name: 1,1-Bis(4-hydroxy-3-methylphenyl)cyclohexane
Name: Phenol, 4,4'-cyclohexylidenebis[2-methyl-
Class: Non-natural product; Industrial chemical
Formula: C20H24O2
Exact mass: 296.17763
SMILES: CC1=CC(=CC=C1O)C1(CCCCC1)C1C=C(C)C(O)=CC=1
InChI: InChI=1S/C20H24O2/c1-14-12-16(6-8-18(14)21)20(10-4-3-5-11-20)17-7-9-19(22)15(2)13-17/h6-9,12-13,21-22H,3-5,10-11H2,1-2H3
Instrument: Agilent 6546 Q-ToF
Instrument type: ESI-QTOF
Ms type: MS2
Ion mode: NEGATIVE
Ionization: ESI
Collision energy: 20
Precursor m/z: 295.17035
m/z	relative intensity
107.0501	33
114.9367	11
159.0829	17
187.1129	29
187.1155	14
222.9147	10
235.0757	13
251.1101	17
252.1158	45
295.171	999
295.1799	152
295.1853	19
295.1988	15
295.2097	15
296.1712	11
296.1741	13
674.8592	15
