Mass spectrum: 4,4'-(2-Ethylhexylidene)diphenol; ESI-QTOF; MS2; CE: 20
Name: 4,4'-(2-Ethylhexylidene)diphenol
Name: 1,1-Bis(4-hydroxyphenyl)-2-ethylhexane
Class: Non-natural product; Industrial chemical
Formula: C20H26O2
Exact mass: 298.19328
SMILES: CCC(CCCC)C(C1C=CC(O)=CC=1)C1C=CC(O)=CC=1
InChI: InChI=1S/C20H26O2/c1-3-5-6-15(4-2)20(16-7-11-18(21)12-8-16)17-9-13-19(22)14-10-17/h7-15,20-22H,3-6H2,1-2H3
Instrument: Agilent 6546 Q-ToF
Instrument type: ESI-QTOF
Ms type: MS2
Ion mode: NEGATIVE
Ionization: ESI
Collision energy: 20
Precursor m/z: 297.186
m/z	relative intensity
197.0614	88
198.0691	999
198.0744	39
198.0791	65
264.9883	12
297.1521	23
297.1584	21
297.1866	166
297.2423	21
297.2792	11
