Mass spectrum: F53B; LC-ESI-FT; MS2
Name: F53B
Name: 2-(6-chloro-1,1,2,2,3,3,4,4,5,5,6,6-dodecafluorohexoxy)-1,1,2,2-tetrafluoroethanesulfonic acid
Class: Non-Natural Product; New PFAS
Formula: C8HClF16O4S
Exact mass: 531.9028580
SMILES: C(C(C(C(F)(F)Cl)(F)F)(F)F)(C(C(OC(C(F)(F)S(=O)(=O)O)(F)F)(F)F)(F)F)(F)F
InChI: InChI=1S/C8HClF16O4S/c9-5(18,19)3(14,15)1(10,11)2(12,13)4(16,17)6(20,21)29-7(22,23)8(24,25)30(26,27)28/h(H,26,27,28)
Instrument: Vanquish LC, Thermo Scientific; Exploris 120 Orbitrap, Thermo Scientific
Instrument type: LC-ESI-FT
Ms type: MS2
Ion mode: NEGATIVE
Retention time: 7.54187626795769
Precursor m/z: 530.89478
Precursor type: [M-H]-
m/z	relative intensity
60.52582	3
67.39808	3
82.96063	39
84.99049	20
98.95551	20
134.83119	4
173.38196	4
350.88806	6
350.94455	174
530.89496	999
