Mass spectrum: 3,7-MePFOA; LC-ESI-FT; MS2
Name: 3,7-MePFOA
Name: 2,2,3,4,4,5,5,6,6,7,8,8,8-tridecafluoro-3,7-bis(trifluoromethyl)octanoic acid
Class: Non-Natural Product; Perfluoroalkyl carboxylic acid
Formula: C10HF19O2
Exact mass: 513.9673143
SMILES: C(=O)(C(C(C(C(C(C(C(F)(F)F)(C(F)(F)F)F)(F)F)(F)F)(F)F)(C(F)(F)F)F)(F)F)O
InChI: InChI=1S/C10HF19O2/c11-2(12,1(30)31)3(13,8(21,22)23)5(15,16)7(19,20)6(17,18)4(14,9(24,25)26)10(27,28)29/h(H,30,31)
Instrument: Vanquish LC, Thermo Scientific; Exploris 120 Orbitrap, Thermo Scientific
Instrument type: LC-ESI-FT
Ms type: MS2
Ion mode: NEGATIVE
Retention time: 6.86351363715331
Precursor m/z: 512.95947
Precursor type: [M-H]-
m/z	relative intensity
68.99557	530
69.00002	33
76.74815	21
79.43188	20
97.17636	22
138.55908	21
155.91606	21
166.98927	21
218.98668	158
268.98264	662
270.48108	21
468.96970	999
