Mass spectrum: Bisoctrizole; LC-ESI-QTOF; MSn
Name: Bisoctrizole
Name: UV-360
Class: Non-Natural Product; UV Stabilizer
Formula: C41H50N6O2
Exact mass: 658.399524874
SMILES: CC(C)(C)CC(C)(C)C1=CC(CC2=C(O)C(=CC(=C2)C(C)(C)CC(C)(C)C)N2N=C3C=CC=CC3=N2)=C(O)C(=C1)N1N=C2C=CC=CC2=N1
InChI: InChI=1S/C41H50N6O2/c1-38(2,3)24-40(7,8)28-20-26(36(48)34(22-28)46-42-30-15-11-12-16-31(30)43-46)19-27-21-29(41(9,10)25-39(4,5)6)23-35(37(27)49)47-44-32-17-13-14-18-33(32)45-47/h11-18,20-23,48-49H,19,24-25H2,1-10H3
Instrument: Waters G2-S QTOF
Instrument type: LC-ESI-QTOF
Ms type: MSn
Ion mode: POSITIVE
Precursor m/z: 659.4073
Precursor type: [M+H]+
m/z	relative intensity
224.0828	165
225.0852	24
226.0884	1
250.0983	13
251.1007	2
264.1136	7
265.1214	51
266.1277	29
267.1289	4
280.1411	2
324.2077	3
336.2095	999
337.2108	312
338.2134	27
338.6550	1
338.7842	1
435.1568	12
547.2824	58
548.2851	20
549.4735	1
565.5622	1
659.4091	760
660.4112	392
661.4136	89
662.4149	11
680.3769	2
681.3892	48
682.3923	21
683.3917	4
697.3572	4
