Mass spectrum: Sucrose; LC-ESI-QFT; MS2; CE:20; [M-H]-
Name: Sucrose
Name: Saccharose
Class: Natural product
Formula: C12H22O11
Exact mass: 342.11621
SMILES: C([C@@H]1[C@H]([C@@H]([C@H]([C@H](O1)O[C@]2([C@H]([C@@H]([C@H](O2)CO)O)O)CO)O)O)O)O 
InChI: InChI=1S/C12H22O11/c13-1-4-6(16)8(18)9(19)11(21-4)23-12(3-15)10(20)7(17)5(2-14)22-12/h4-11,13-20H,1-3H2/t4-,5-,6-,7-,8+,9-,10+,11-,12+/m1/s1
Instrument:  QExactive Plus Orbitrap
Instrument type: LC-ESI-QFT
Ion mode: Negative
Ms type: MS2
Collision energy: 20
Retention time: 8.52
Precursor m/z: 341.1085
Precursor type: [M-H]-
m/z	relative intensity
73.02942	4.2
113.02441	133.46
274.82654	3.49
314.78467	20.42
341.10876	999
