Mass spectrum: 5,5',6,6'-Tetramethyl-3,3'-di-tert-butyl-1,1'-biphenyl-2,2'-diol; ESI-QTOF; MS2; CE: 40
Name: 5,5',6,6'-Tetramethyl-3,3'-di-tert-butyl-1,1'-biphenyl-2,2'-diol
Name: S-BIPHEN
Class: Non-natural product; Industrial chemical
Formula: C24H34O2
Exact mass: 354.25588
SMILES: CC(C)(C)C1C=C(C)C(C)=C(C2C(O)=C(C=C(C)C=2C)C(C)(C)C)C=1O
InChI: InChI=1S/C24H34O2/c1-13-11-17(23(5,6)7)21(25)19(15(13)3)20-16(4)14(2)12-18(22(20)26)24(8,9)10/h11-12,25-26H,1-10H3
Instrument: Agilent 6546 Q-ToF
Instrument type: ESI-QTOF
Ms type: MS2
Ion mode: NEGATIVE
Ionization: ESI
Collision energy: 40
Precursor m/z: 353.2486
m/z	relative intensity
59.0138	88
61.9875	24
79.9571	22
81.0716	23
82.9749	53
87.0089	27
95.9518	23
96.9603	213
101.061	30
119.9465	31
122.9745	27
123.0797	28
151.113	30
158.0706	25
177.1275	85
177.1308	23
177.1373	23
178.1341	22
180.0802	31
188.9411	22
217.1677	19
227.0731	24
255.2377	29
263.1423	29
277.1572	63
279.1727	201
279.1771	50
279.1866	28
281.1552	754
281.1652	65
281.1697	93
295.1731	24
297.1848	38
298.1868	22
323.1981	50
335.2376	404
335.2433	84
353.1024	35
353.2425	53
353.2494	999
353.2596	122
354.2504	68
512.3957	23
589.0355	61
668.8573	34
740.6242	20
