Mass spectrum: Dechlorane plus Cl11; GC-EI-QTOF; MS1; CE: 70
Name: Dechlorane plus Cl11
Class: Non-natural product; Flame retardant
Formula: C18H12Cl11
Exact mass: 612.7512801928
Instrument: Agilent 7200 Accurate-Mass QToF GC/MS
Instrument type: GC-EI-QTOF
Ms type: MS1
Ion mode: POSITIVE
Ionization: EI
Collision energy: 70
Retention time: 14.2
m/z	relative intensity
35.9767460692077	20
39.0236256113518	25
41.0392431943392	48
53.0388955793491	21
54.0465877870588	35
55.0545456274281	13
65.038655868511	23
66.0460255881784	12
67.0542913261301	102
74.999731201353	12
77.0384504328484	25
79.0539271558416	97
80.0613102751966	47
81.0697054842484	22
93.0694799513072	17
107.085105397911	12
115.053754351782	13
135.114359713316	10
136.008034158413	13
149.014135103636	16
162.020307476114	10
169.96867547272	16
170.976400055259	11
171.966855880791	10
182.977259699196	13
192.935887664075	10
194.934168201052	11
200.882927092372	43
201.890132677816	22
202.879844548675	61
203.886942941207	31
204.877116335708	30
204.934268430421	11
205.884371557417	15
215.887388098349	12
226.897992839664	16
228.895703983826	19
230.893454127488	10
234.843586812805	22
235.85175722135	603
236.847877187137	51
237.849007212044	999
238.849134055154	60
239.845904902699	614
240.847297644745	33
241.842619473269	181
241.898404876957	18
243.840003281055	26
269.811929722503	11
271.809586756272	22
273.806232814142	17
282.11508883816	16
327.105760279367	16
344.93454642206	10
355.14278820287	15
