Mass spectrum: PFDA; LC-ESI-FT; MS2
Name: PFDA
Name: 2,2,3,3,4,4,5,5,6,6,7,7,8,8,9,9,10,10,10-nonadecafluorodecanoic acid
Class: Non-Natural Product; Perfluoroalkyl carboxylic acid
Formula: C10HF19O2
Exact mass: 513.9673143
SMILES: C(=O)(C(C(C(C(C(C(C(C(C(F)(F)F)(F)F)(F)F)(F)F)(F)F)(F)F)(F)F)(F)F)(F)F)O
InChI: InChI=1S/C10HF19O2/c11-2(12,1(30)31)3(13,14)4(15,16)5(17,18)6(19,20)7(21,22)8(23,24)9(25,26)10(27,28)29/h(H,30,31)
Instrument: Vanquish LC, Thermo Scientific; Exploris 120 Orbitrap, Thermo Scientific
Instrument type: LC-ESI-FT
Ms type: MS2
Ion mode: NEGATIVE
Retention time: 7.05959289229711
Precursor m/z: 512.95911
Precursor type: [M-H]-
m/z	relative intensity
62.98867	9
68.99557	11
84.48540	5
87.44125	4
118.99238	54
168.98921	139
194.35905	4
196.98199	4
216.21370	5
218.98570	308
236.08130	5
268.98254	273
318.98013	49
391.56647	5
468.96951	999
512.96234	10
