Mass spectrum: Di-n-hexyl phthalate; GC-EI-FT; MS; Positive
Name: Di-n-hexyl phthalate
Name: dihexyl benzene-1,2-dicarboxylate
Class: Non-Natural Product; Phthalate
Formula: C20H30O4
Exact mass: 334.214409
SMILES: CCCCCCOC(=O)C1=CC=CC=C1C(=O)OCCCCCC
InChI: InChI=1S/C20H30O4/c1-3-5-7-11-15-23-19(21)17-13-9-10-14-18(17)20(22)24-16-12-8-6-4-2/h9-10,13-14H,3-8,11-12,15-16H2,1-2H3
Instrument: Thermo Scientific Q Exactive GC Hybrid Quadrupol-Orbitrap
Instrument type: GC-EI-FT
Ms type: MS
Ion mode: POSITIVE
Base peak: 149.02344
m/z	relative intensity
105.03365	8
121.02855	16
122.03618	5
123.04401	7
149.02344	999
150.02673	87
167.03389	4
176.04677	3
233.11717	9
251.12776	27
252.13109	4
