Mass spectrum: Triisobutyl phosphate; LC-ESI-QTOF; MS2; CE: 35eV; R=7000; [M+H]+
Name: Triisobutyl phosphate
Name: tris(2-methylpropyl) phosphate
Formula: C12H27O4P
Exact mass: 266.1647
SMILES: CC(C)COP(=O)(OCC(C)C)OCC(C)C
InChI: InChI=1S/C12H27O4P/c1-10(2)7-14-17(13,15-8-11(3)4)16-9-12(5)6/h10-12H,7-9H2,1-6H3
Instrument: Agilent 6560 QTOF
Instrument type: LC-ESI-QTOF
Ms type: MS2
Ion mode: POSITIVE
Ionization: ESI
Fragmentation mode: CID
Collision energy: 35 eV
Resolution: 7000
Retention time: 0.147 min
Base peak: 289.1554
Precursor m/z: 267.172
Precursor type: [M+H]+
Precursor intensity: 10758.77
m/z	relative intensity	assigned
57.0709	96	C4H9+
62.9634	35	O2P+
69.0352	35	C4H5O+
80.9735	332	H2O3P+
98.9842	999	H4O4P+
