Mass spectrum: Mono-ethyl phthalate; LC-ESI-QTOF; MS2; CE: 5eV; R=7000; [M-H]-
Name: Mono-ethyl phthalate
Name: Monoethyl phthalate
Name: 2-ethoxycarbonylbenzoic acid
Formula: C10H10O4
Exact mass: 194.0579
SMILES: CCOC(=O)C1=CC=CC=C1C(=O)O
InChI: InChI=1S/C10H10O4/c1-2-14-10(13)8-6-4-3-5-7(8)9(11)12/h3-6H,2H2,1H3,(H,11,12)
Instrument: Agilent 6560 QTOF
Instrument type: LC-ESI-QTOF
Ms type: MS2
Ion mode: NEGATIVE
Ionization: ESI
Fragmentation mode: CID
Collision energy: 5 eV
Resolution: 7000
Column name: ZORBAX Extend-C18 3.5um, 2.1x50mm, Agilent Technologies
Retention time: 0.402 min
Base peak: 193.0508
Precursor m/z: 193.0506
Precursor type: [M-H]-
Precursor intensity: 20095.43
m/z	relative intensity	assigned
77.0397	999	C6H5-
119.049	39	C8H7O-
121.0289	281	C7H5O2-
121.0647	76	C8H9O-
147.0086	65	C8H3O3-
149.059	31	C9H9O2-
193.0509	228	C10H9O4-
