Mass spectrum: Triisobutyl phosphate; LC-ESI-QTOF; MS2; CE: 10eV; R=7000; [M+Na]+
Name: Triisobutyl phosphate
Name: tris(2-methylpropyl) phosphate
Formula: C12H27O4P
Exact mass: 266.1647
SMILES: CC(C)COP(=O)(OCC(C)C)OCC(C)C
InChI: InChI=1S/C12H27O4P/c1-10(2)7-14-17(13,15-8-11(3)4)16-9-12(5)6/h10-12H,7-9H2,1-6H3
Instrument: Agilent 6560 QTOF
Instrument type: LC-ESI-QTOF
Ms type: MS2
Ion mode: POSITIVE
Ionization: ESI
Fragmentation mode: CID
Collision energy: 10 eV
Resolution: 7000
Retention time: 0.145 min
Base peak: 289.1562
Precursor m/z: 289.1539
Precursor type: [M+Na]+
Precursor intensity: 162232.87
m/z	relative intensity	assigned
120.966	30	H3NaO4P+
177.0285	191	C4H11NaO4P+
178.0345	2	C4H12NaO4P+
233.0917	567	C8H19NaO4P+
234.0949	26	C8H20NaO4P+
289.1547	999	C12H27NaO4P+
