Mass spectrum: Mono(2-ethyl-5-hydroxyhexyl)phthalate; LC-ESI-QTOF; MS2; CE: 5eV; R=7000; [M-H]-
Name: Mono(2-ethyl-5-hydroxyhexyl)phthalate
Name: Mono(2-ethyl-5-hydroxyhexyl) phthalate
Name: 2-(2-ethyl-5-hydroxyhexoxy)carbonylbenzoic acid
Formula: C16H22O5
Exact mass: 294.1467
SMILES: CCC(CCC(C)O)COC(=O)C1=CC=CC=C1C(=O)O
InChI: InChI=1S/C16H22O5/c1-3-12(9-8-11(2)17)10-21-16(20)14-7-5-4-6-13(14)15(18)19/h4-7,11-12,17H,3,8-10H2,1-2H3,(H,18,19)
Instrument: Agilent 6560 QTOF
Instrument type: LC-ESI-QTOF
Ms type: MS2
Ion mode: NEGATIVE
Ionization: ESI
Fragmentation mode: CID
Collision energy: 5 eV
Resolution: 7000
Column name: ZORBAX Extend-C18 3.5um, 2.1x50mm, Agilent Technologies
Retention time: 3.406 min
Base peak: 293.14
Precursor m/z: 293.1394
Precursor type: [M-H]-
Precursor intensity: 165795.94
m/z	relative intensity	assigned
77.0397	84	C6H5-
83.0882	13	C6H11-
97.1031	3	C7H13-
121.0292	678	C7H5O2-
127.1132	11	C8H15O-
143.107	79	C8H15O2-
145.1233	684	C8H17O2-
147.0087	10	C8H3O3-
293.1398	999	C16H21O5-
