Mass spectrum: Mono(2-ethyl-5-oxohexyl) adipate; LC-ESI-QTOF; MS2; CE: 45eV; R=7000; [M-H]-
Name: Mono(2-ethyl-5-oxohexyl) adipate
Name: 6-(2-ethyl-5-oxohexoxy)-6-oxohexanoic acid
Formula: C14H24O5
Exact mass: 272.1624
SMILES: CCC(CCC(=O)C)COC(=O)CCCCC(=O)O
InChI: InChI=1S/C14H24O5/c1-3-12(9-8-11(2)15)10-19-14(18)7-5-4-6-13(16)17/h12H,3-10H2,1-2H3,(H,16,17)
Instrument: Agilent 6560 QTOF
Instrument type: LC-ESI-QTOF
Ms type: MS2
Ion mode: NEGATIVE
Ionization: ESI
Fragmentation mode: CID
Collision energy: 45 eV
Resolution: 7000
Column name: ZORBAX Extend-C18 3.5um, 2.1x50mm, Agilent Technologies
Retention time: 3.476 min
Base peak: 980.0164
Precursor m/z: 271.1551
Precursor type: [M-H]-
Precursor intensity: 9613.58
m/z	relative intensity	assigned
53.0406	77	C4H5-
57.035	87	C3H5O-
81.0354	999	C5H5O-
83.0498	342	C5H7O-
