Mass spectrum: Tris(2-ethylhexyl)trimellitate; LC-ESI-QTOF; MS2; CE: 30eV; R=7000; [M+Na]+
Name: Tris(2-ethylhexyl)trimellitate
Name: Tris(2-ethylhexyl) trimellitate
Name: tris(2-ethylhexyl) benzene-1,2,4-tricarboxylate
Formula: C33H54O6
Exact mass: 546.3920
SMILES: CCCCC(CC)COC(=O)C1=CC(=C(C=C1)C(=O)OCC(CC)CCCC)C(=O)OCC(CC)CCCC
InChI: InChI=1S/C33H54O6/c1-7-13-16-25(10-4)22-37-31(34)28-19-20-29(32(35)38-23-26(11-5)17-14-8-2)30(21-28)33(36)39-24-27(12-6)18-15-9-3/h19-21,25-27H,7-18,22-24H2,1-6H3
Instrument: Agilent 6560 QTOF
Instrument type: LC-ESI-QTOF
Ms type: MS2
Ion mode: POSITIVE
Ionization: ESI
Fragmentation mode: CID
Collision energy: 30 eV
Resolution: 7000
Retention time: 0.145 min
Base peak: 569.3811
Precursor m/z: 569.3813
Precursor type: [M+Na]+
Precursor intensity: 8053.8
m/z	relative intensity	assigned
327.1169	150	C26H15+
345.1308	285	C17H22NaO6+
346.133	114	C24H19NaO+
457.255	944	C25H38NaO6+
458.2664	146	C27H38O6+
569.3803	999	C33H54NaO6+
