Mass spectrum: Tris(2-butoxyethyl) phosphate; LC-ESI-QTOF; MS2; CE: 40eV; R=7000; [M+H]+
Name: Tris(2-butoxyethyl) phosphate
Formula: C18H39O7P
Exact mass: 398.2433
SMILES: CCCCOCCOP(=O)(OCCOCCCC)OCCOCCCC
InChI: InChI=1S/C18H39O7P/c1-4-7-10-20-13-16-23-26(19,24-17-14-21-11-8-5-2)25-18-15-22-12-9-6-3/h4-18H2,1-3H3
Instrument: Agilent 6560 QTOF
Instrument type: LC-ESI-QTOF
Ms type: MS2
Ion mode: POSITIVE
Ionization: ESI
Fragmentation mode: CID
Collision energy: 40 eV
Resolution: 7000
Retention time: 0.115 min
Base peak: 149.0236
Precursor m/z: 399.2506
Precursor type: [M+H]+
Precursor intensity: 5347.38
m/z	relative intensity	assigned
55.0543	561	C4H7+
57.0699	999	C4H9+
98.9834	141	H4O4P+
