Mass spectrum: 4-tert-Octylphenol; LC-ESI-QTOF; MS2; CE: 15eV; R=7000; [M-H]-
Name: 4-tert-Octylphenol
Name: 4-(2,4,4-trimethylpentan-2-yl)phenol
Formula: C14H22O
Exact mass: 206.1671
SMILES: CC(C)(C)CC(C)(C)C1=CC=C(C=C1)O
InChI: InChI=1S/C14H22O/c1-13(2,3)10-14(4,5)11-6-8-12(15)9-7-11/h6-9,15H,10H2,1-5H3
Instrument: Agilent 6560 QTOF
Instrument type: LC-ESI-QTOF
Ms type: MS2
Ion mode: NEGATIVE
Ionization: ESI
Fragmentation mode: CID
Collision energy: 15 eV
Resolution: 7000
Column name: ZORBAX Extend-C18 3.5um, 2.1x50mm, Agilent Technologies
Retention time: 5.207 min
Base peak: 955.9717
Precursor m/z: 205.1598
Precursor type: [M-H]-
Precursor intensity: 6795.23
m/z	relative intensity	assigned
133.0665	303	C9H9O-
134.0735	66	C9H10O-
205.1594	999	C14H21O-
