Mass spectrum: Bisphenol Z; LC-ESI-QTOF; MS2; CE: 30eV; R=7000; [M-H]-
Name: Bisphenol Z
Name: 1,1-Bis(4-hydroxyphenyl)cyclohexane
Name: 4-[1-(4-hydroxyphenyl)cyclohexyl]phenol
Formula: C18H20O2
Exact mass: 268.1463
SMILES: C1CCC(CC1)(C2=CC=C(C=C2)O)C3=CC=C(C=C3)O
InChI: InChI=1S/C18H20O2/c19-16-8-4-14(5-9-16)18(12-2-1-3-13-18)15-6-10-17(20)11-7-15/h4-11,19-20H,1-3,12-13H2
Instrument: Agilent 6560 QTOF
Instrument type: LC-ESI-QTOF
Ms type: MS2
Ion mode: NEGATIVE
Ionization: ESI
Fragmentation mode: CID
Collision energy: 30 eV
Resolution: 7000
Retention time: 0.189 min
Base peak: 982.9904
Precursor m/z: 267.1391
Precursor type: [M-H]-
Precursor intensity: 9095.27
m/z	relative intensity	assigned
93.0348	354	C6H5O-
145.0657	999	C10H9O-
173.0979	776	C12H13O-
197.0611	250	C13H9O2-
198.0681	234	C13H10O2-
222.0689	155	C15H10O2-
223.0755	671	C15H11O2-
224.0848	360	C15H12O2-
267.14	278	C18H19O2-
