Mass spectrum: 2-Hydroxy benzothiazole; LC-ESI-QTOF; MS2; CE: 55eV; R=7000; [M-H]-
Name: 2-Hydroxy benzothiazole
Name: 2(3H)-Benzothiazolone
Name: 3H-1,3-benzothiazol-2-one
Formula: C7H5NOS
Exact mass: 151.0092
SMILES: C1=CC=C2C(=C1)NC(=O)S2
InChI: InChI=1S/C7H5NOS/c9-7-8-5-3-1-2-4-6(5)10-7/h1-4H,(H,8,9)
Instrument: Agilent 6560 QTOF
Instrument type: LC-ESI-QTOF
Ms type: MS2
Ion mode: NEGATIVE
Ionization: ESI
Fragmentation mode: CID
Collision energy: 55 eV
Resolution: 7000
Retention time: 0.192 min
Base peak: 150.0021
Precursor m/z: 150.0019
Precursor type: [M-H]-
Precursor intensity: 2811.22
m/z	relative intensity	assigned
56.9805	999	C2HS-
