Mass spectrum: gamma-Linolenic acid; LC-ESI-QTOF; MS2; CE: 10eV; R=7000; [M+CH3COO]-
Name: gamma-Linolenic acid
Name: (6Z,9Z,12Z)-octadeca-6,9,12-trienoic acid
Formula: C18H30O2
Exact mass: 278.2246
SMILES: CCCCC\C=C/C\C=C/C\C=C/CCCCC(O)=O
InChI: InChI=1S/C18H30O2/c1-2-3-4-5-6-7-8-9-10-11-12-13-14-15-16-17-18(19)20/h6-7,9-10,12-13H,2-5,8,11,14-17H2,1H3,(H,19,20)/b7-6-,10-9-,13-12-
Instrument: Agilent 6560 QTOF
Instrument type: LC-ESI-QTOF
Ms type: MS2
Ion mode: NEGATIVE
Ionization: ESI
Fragmentation mode: CID
Collision energy: 10 eV
Resolution: 7000
Column name: N/A
Retention time: 0.217 min
Base peak: 357.1895
Precursor m/z: 337.2384
Precursor type: [M+CH3COO]-
Precursor intensity: 49509
m/z	relative intensity	assigned
185.062	8	C12H9O2-
195.1428	5	C12H19O2-
254.2216	5	C16H30O2-
255.2333	999	C16H31O2-
256.2382	76	C16H32O2-
279.231	15	C18H31O2-
337.2348	301	C20H33O4-
