Mass spectrum: 1-octadecenoyl-rac-glycerol; LC-ESI-QTOF; MS2; CE: 40eV; R=7000; [M+CH3COO]-
Name: 1-octadecenoyl-rac-glycerol
Name: Glyceryl monooleate
Name: 2,3-dihydroxypropyl (Z)-octadec-9-enoate
Formula: C21H40O4
Exact mass: 356.2927
SMILES: CCCCCCCC/C=C\CCCCCCCC(=O)OCC(CO)O
InChI: InChI=1S/C21H40O4/c1-2-3-4-5-6-7-8-9-10-11-12-13-14-15-16-17-21(24)25-19-20(23)18-22/h9-10,20,22-23H,2-8,11-19H2,1H3/b10-9-
Instrument: Agilent 6560 QTOF
Instrument type: LC-ESI-QTOF
Ms type: MS2
Ion mode: NEGATIVE
Ionization: ESI
Fragmentation mode: CID
Collision energy: 40 eV
Resolution: 7000
Column name: N/A
Retention time: 0.168 min
Base peak: 980.0164
Precursor m/z: 415.3065
Precursor type: [M+CH3COO]-
Precursor intensity: 16325
m/z	relative intensity	assigned
107.0853	999	C8H11-
138.1261	447	C6H18O3-
179.0678	248	C10H11O3-
279.119	435	C22H15-
321.1394	689	C17H21O6-
338.3087	235	C18H42O5-
