Mass spectrum: 4-Methylbenzotriazole; LC-ESI-QTOF; MS2; CE: 35eV; R=7000; [M+H]+
Name: 4-Methylbenzotriazole
Name: 4-Methyl-1H-benzotriazole
Name: 4-methyl-2H-benzotriazole
Formula: C7H7N3
Exact mass: 133.0640
SMILES: CC1=CC=CC2=NNN=C12
InChI: InChI=1S/C7H7N3/c1-5-3-2-4-6-7(5)9-10-8-6/h2-4H,1H3,(H,8,9,10)
Instrument: Agilent 6560 QTOF
Instrument type: LC-ESI-QTOF
Ms type: MS2
Ion mode: POSITIVE
Ionization: ESI
Fragmentation mode: CID
Collision energy: 35 eV
Resolution: 7000
Retention time: 0.146 min
Base peak: 134.0712
Precursor m/z: 134.0713
Precursor type: [M+H]+
Precursor intensity: 40304.93
m/z	relative intensity	assigned
51.0231	523	C4H3+
53.039	98	C4H5+
54.034	20	C3H4N+
63.0231	43	C5H3+
64.0308	12	C5H4+
65.0246	27	C4H3N+
65.0382	42	C5H5+
66.0342	10	C4H4N+
66.0464	10	C5H6+
67.0413	44	C4H5N+
77.0386	999	C6H5+
79.0542	71	C6H7+
80.0482	18	C5H6N+
106.0649	14	C7H8N+
