Mass spectrum: Tri-p-tolyl phosphate; LC-ESI-QTOF; MS2; CE: 5eV; R=7000; [M+H]+
Name: Tri-p-tolyl phosphate
Name: Tricresyl phosphate
Name: tris(4-methylphenyl) phosphate
Formula: C21H21O4P
Exact mass: 368.1177
SMILES: CC1=CC=C(C=C1)OP(=O)(OC2=CC=C(C=C2)C)OC3=CC=C(C=C3)C
InChI: InChI=1S/C21H21O4P/c1-16-4-10-19(11-5-16)23-26(22,24-20-12-6-17(2)7-13-20)25-21-14-8-18(3)9-15-21/h4-15H,1-3H3
Instrument: Agilent 6560 QTOF
Instrument type: LC-ESI-QTOF
Ms type: MS2
Ion mode: POSITIVE
Ionization: ESI
Fragmentation mode: CID
Collision energy: 5 eV
Resolution: 7000
Retention time: 0.108 min
Base peak: 369.125
Precursor m/z: 369.125
Precursor type: [M+H]+
Precursor intensity: 310409.13
m/z	relative intensity	assigned
65.039	1	C5H5+
91.0538	5	C7H7+
107.0491	3	C7H7O+
165.0694	10	C13H9+
166.078	10	C13H10+
181.1009	3	C14H13+
189.0306	1	C7H10O4P+
196.0916	1	C14H12O+
243.0558	7	C14H12O2P+
256.1256	1	C20H16+
261.0661	7	C14H14O3P+
279.0775	3	C14H16O4P+
369.1246	999	C21H22O4P+
