Mass spectrum: Bisphenol AF; LC-ESI-QTOF; MS2; CE: 55eV; R=7000; [M-H]-
Name: Bisphenol AF
Name: 4-[1,1,1,3,3,3-hexafluoro-2-(4-hydroxyphenyl)propan-2-yl]phenol
Formula: C15H10F6O2
Exact mass: 336.0585
SMILES: C1=CC(=CC=C1C(C2=CC=C(C=C2)O)(C(F)(F)F)C(F)(F)F)O
InChI: InChI=1S/C15H10F6O2/c16-14(17,18)13(15(19,20)21,9-1-5-11(22)6-2-9)10-3-7-12(23)8-4-10/h1-8,22-23H
Instrument: Agilent 6560 QTOF
Instrument type: LC-ESI-QTOF
Ms type: MS2
Ion mode: NEGATIVE
Ionization: ESI
Fragmentation mode: CID
Collision energy: 55 eV
Resolution: 7000
Retention time: 0.186 min
Base peak: 335.053
Precursor m/z: 335.0512
Precursor type: [M-H]-
Precursor intensity: 193027.89
m/z	relative intensity	assigned
68.996	999	CF3-
73.0079	20	C6H-
91.019	17	C6H3O-
111.0252	200	C6H4FO-
117.0334	7	C3H5F4-
123.0245	10	C10H3-
139.054	4	C3H8F5-
141.034	20	C2H6F5O-
149.0396	340	C12H5-
151.0188	10	C3H4F5O-
153.0342	12	C3H6F5O-
161.038	5	C5H6F5-
167.0497	61	C4H8F5O-
168.0421	6	C6H7F3O2-
169.046	111	C12H6F-
170.0496	12	C4H8F6-
171.0258	5	C8H5F2O2-
176.028	15	C10H5FO2-
177.0346	456	C13H5O-
178.0396	51	C8H6F4-
179.0286	18	C5H5F6-
188.043	23	C12H6F2-
195.0457	160	C13H7O2-
196.0324	27	C5H6F6O-
196.0522	37	C8H8F4O-
197.0408	194	C13H6FO-
198.0446	33	C8H7F5-
199.0367	10	C13H5F2-
205.0296	48	C14H5O2-
207.0256	27	C14H4FO-
215.0505	11	C8H8F5O-
216.039	105	C13H6F2O-
217.0456	7	C8H7F6-
224.0285	46	C14H5FO2-
225.0363	96	C14H6FO2-
226.0426	19	C9H7F5O-
227.0312	19	C14H5F2O-
228.0333	5	C9H6F6-
244.0343	198	C14H6F2O2-
245.0417	78	C14H7F2O2-
265.0485	101	C14H8F3O2-
