Mass spectrum: Tris(tert-butylphenyl) phosphate; LC-ESI-QTOF; MS2; CE: 15eV; R=7000; [M+H]+
Name: Tris(tert-butylphenyl) phosphate
Name: tris(2-tert-butylphenyl) phosphate
Formula: C30H39O4P
Exact mass: 494.2586
SMILES: CC(C)(C)C1=CC=CC=C1OP(=O)(OC2=CC=CC=C2C(C)(C)C)OC3=CC=CC=C3C(C)(C)C
InChI: InChI=1S/C30H39O4P/c1-28(2,3)22-16-10-13-19-25(22)32-35(31,33-26-20-14-11-17-23(26)29(4,5)6)34-27-21-15-12-18-24(27)30(7,8)9/h10-21H,1-9H3
Instrument: Agilent 6560 QTOF
Instrument type: LC-ESI-QTOF
Ms type: MS2
Ion mode: POSITIVE
Ionization: ESI
Fragmentation mode: CID
Collision energy: 15 eV
Resolution: 7000
Retention time: 0.113 min
Base peak: 495.265
Precursor m/z: 495.2659
Precursor type: [M+H]+
Precursor intensity: 110683.89
m/z	relative intensity	assigned
57.0703	42	C4H9+
215.0208	4	C12H8O2P+
283.1726	6	C19H23O2+
327.0771	117	C18H16O4P+
328.0798	18	C18H17O4P+
383.1402	165	C22H24O4P+
384.1424	29	C22H25O4P+
399.0949	3	C28H16OP+
439.2023	346	C26H32O4P+
440.2058	50	C26H33O4P+
495.2653	999	C30H40O4P+
