Mass spectrum: 5-Hydroxy-2-ethylhexyl diphenyl phosphate; LC-ESI-QTOF; MS2; CE: 45eV; R=7000; [M+H]+
Name: 5-Hydroxy-2-ethylhexyl diphenyl phosphate
Name: 2-Ethyl-5-hydroxyhexyl diphenyl phosphate
Name: (2-ethyl-5-hydroxyhexyl) diphenyl phosphate
Formula: C20H27O5P
Exact mass: 378.1596
SMILES: CCC(CCC(C)O)COP(=O)(Oc1ccccc1)Oc2ccccc2
InChI: InChI=1S/C20H27O5P/c1-3-18(15-14-17(2)21)16-23-26(22,24-19-10-6-4-7-11-19)25-20-12-8-5-9-13-20/h4-13,17-18,21H,3,14-16H2,1-2H3
Instrument: Agilent 6560 QTOF
Instrument type: LC-ESI-QTOF
Ms type: MS2
Ion mode: POSITIVE
Ionization: ESI
Fragmentation mode: CID
Collision energy: 45 eV
Resolution: 7000
Retention time: 0.149 min
Base peak: 401.1509
Precursor m/z: 379.1669
Precursor type: [M+H]+
Precursor intensity: 50387.92
m/z	relative intensity	assigned
51.0234	66	C4H3+
55.0548	90	C4H7+
65.038	20	C5H5+
69.07	172	C5H9+
77.0387	999	C6H5+
95.049	95	C6H7O+
151.0545	25	C12H7+
152.0621	241	C12H8+
153.0703	160	C12H9+
157.0048	43	C6H6O3P+
168.0562	16	C12H8O+
175.0154	134	C6H8O4P+
215.0255	116	C12H8O2P+
251.0468	57	C12H12O4P+
