Mass spectrum: Myristoyl-L-carnitine; LC-ESI-QTOF; MS2; CE: 20eV; R=7000; [M+H]+
Name: Myristoyl-L-carnitine
Name: Myristoylcarnitine
Name: 3-tetradecanoyloxy-4-(trimethylazaniumyl)butanoate
Formula: C21H41NO4
Exact mass: 371.3036
SMILES: O(C(CCCCCCCCCCCCC)=O)C(CC(=O)[O-])C[N+](C)(C)C
InChI: InChI=1S/C21H41NO4/c1-5-6-7-8-9-10-11-12-13-14-15-16-21(25)26-19(17-20(23)24)18-22(2,3)4/h19H,5-18H2,1-4H3
Instrument: Agilent 6560 QTOF
Instrument type: LC-ESI-QTOF
Ms type: MS2
Ion mode: POSITIVE
Ionization: ESI
Fragmentation mode: CID
Collision energy: 20 eV
Resolution: 7000
Column name: Direct injection
Retention time: 0.157 min
Base peak: 372.3124
Precursor m/z: 372.3108
Precursor type: [M+H]+
Precursor intensity: 911281
m/z	relative intensity	assigned
71.0489	1	C4H7O+
71.0853	9	C5H11+
81.0699	5	C6H9+
83.0867	5	C6H11+
85.0284	999	C4H5O2+
89.0601	1	C4H9O2+
95.0855	13	C7H11+
97.1015	7	C7H13+
107.0859	1	C8H11+
109.1007	8	C8H13+
111.1167	4	C8H15+
113.0967	1	C7H13O+
123.1167	2	C9H15+
129.0778	2	C6H11NO2+
137.1333	2	C10H17+
144.1019	23	C7H14NO2+
145.1197	2	C8H17O2+
162.1139	1	C7H16NO3+
191.1794	1	C14H23+
211.205	18	C14H27O+
229.2188	3	C14H29O2+
313.2376	40	C18H33O4+
372.3109	144	C21H42NO4+
