Mass spectrum: Oleic acid; LC-ESI-QTOF; MS2; CE: 20eV; R=7000; [M-H]-
Name: Oleic acid
Name: (Z)-octadec-9-enoic acid
Formula: C18H34O2
Exact mass: 282.2559
SMILES: CCCCCCCC/C=C\CCCCCCCC(=O)O
InChI: InChI=1S/C18H34O2/c1-2-3-4-5-6-7-8-9-10-11-12-13-14-15-16-17-18(19)20/h9-10H,2-8,11-17H2,1H3,(H,19,20)/b10-9-
Instrument: Agilent 6560 QTOF
Instrument type: LC-ESI-QTOF
Ms type: MS2
Ion mode: NEGATIVE
Ionization: ESI
Fragmentation mode: CID
Collision energy: 20 eV
Resolution: 7000
Column name: N/A
Retention time: 0.142 min
Base peak: 281.249
Precursor m/z: 281.2486
Precursor type: [M-H]-
Precursor intensity: 57543
m/z	relative intensity	assigned
196.185	2	C13H24O-
256.2398	4	C16H32O2-
281.2479	999	C18H33O2-
