Mass spectrum: 1-hexadecanoyl-2-(9Z-octadecenoyl)-sn-glycero-3-phosphocholine; LC-ESI-QTOF; MS2; CE: 20eV; R=7000; [M+Na]+
Name: 1-hexadecanoyl-2-(9Z-octadecenoyl)-sn-glycero-3-phosphocholine
Name: 1-Palmitoyl-2-oleoyl-sn-glycero-3-phosphocholine
Name: [(2R)-3-hexadecanoyloxy-2-[(Z)-octadec-9-enoyl]oxypropyl] 2-(trimethylazaniumyl)ethyl phosphate
Formula: C42H82NO8P
Exact mass: 759.5778
SMILES: [C@](COP(=O)([O-])OCC[N+](C)(C)C)([H])(OC(CCCCCCC/C=C\CCCCCCCC)=O)COC(CCCCCCCCCCCCCCC)=O
InChI: InChI=1S/C42H82NO8P/c1-6-8-10-12-14-16-18-20-21-23-25-27-29-31-33-35-42(45)51-40(39-50-52(46,47)49-37-36-43(3,4)5)38-48-41(44)34-32-30-28-26-24-22-19-17-15-13-11-9-7-2/h20-21,40H,6-19,22-39H2,1-5H3/b21-20-/t40-/m1/s1
Instrument: Agilent 6560 QTOF
Instrument type: LC-ESI-QTOF
Ms type: MS2
Ion mode: POSITIVE
Ionization: ESI
Fragmentation mode: CID
Collision energy: 20 eV
Resolution: 7000
Column name: Direct injection
Retention time: 0.211 min
Base peak: 760.5872
Precursor m/z: 782.567
Precursor type: [M+Na]+
Precursor intensity: 248517
m/z	relative intensity	assigned
71.0858	1	CH14NP+
81.0705	2	C2H12NP+
83.0827	5	C4H12Na+
86.0967	106	C5H12N+
93.0666	1	C5H10Na+
95.0843	2	CH15NNaP+
97.0993	8	CH17NNaP+
109.4754	1	C2H62Na+
111.1154	3	C2H19NNaP+
127.0765	4	C3H14NO2P+
133.0825	3	C4H14NaO3+
146.9822	179	C2H5NaO4P+
184.0724	9	C9H12O4+
195.1751	3	C9H26NOP+
219.4661	1	C7H65NaOP+
239.2377	12	C12H34NOP+
250.2025	1	C11H32NaO2P+
265.3979	1	C7H55NO7+
307.2597	4	C18H36NaO2+
344.0127	1	C26H2NO+
357.0617	4	C14H16NO8P+
375.1046	2	C29H13N+
393.3023	1	C27H39NO+
419.306	3	C24H45NaO2P+
431.0797	4	C27H13NO5+
467.2583	1	C33H34NNa+
468.0428	2	C29H11NO4P+
479.2881	4	C26H41NO7+
491.3729	1	C30H51O5+
500.3052	3	C31H44NNaOP+
504.3442	2	C30H48O6+
523.4754	1	C36H61NO+
526.2512	2	C33H37NO3P+
526.3242	15	C35H45NOP+
526.3987	1	C32H55NaO4+
527.3294	2	C33H47NNaOP+
577.5197	53	C33H72NO4P+
578.52	12	C37H71O2P+
584.9482	1	C37NO6P+
599.5023	292	C33H71NNaO4P+
600.5045	42	C39H69O2P+
723.4945	431	C39H73NaO8P+
724.4961	65	C40H71NO8P+
729.5427	2	C41H78O8P+
782.5686	999	C42H82NNaO8P+
