Mass spectrum: Mono(2-ethylhexyl) phthalate; LC-ESI-QTOF; MS2; CE: 30eV; R=7000; [M-H]-
Name: Mono(2-ethylhexyl) phthalate
Name: 2-(((2-Ethylhexyl)oxy)carbonyl)benzoic acid
Name: 2-(2-ethylhexoxycarbonyl)benzoic acid
Formula: C16H22O4
Exact mass: 278.1518
SMILES: CCCCC(CC)COC(=O)C1=CC=CC=C1C(=O)O
InChI: InChI=1S/C16H22O4/c1-3-5-8-12(4-2)11-20-16(19)14-10-7-6-9-13(14)15(17)18/h6-7,9-10,12H,3-5,8,11H2,1-2H3,(H,17,18)
Instrument: Agilent 6560 QTOF
Instrument type: LC-ESI-QTOF
Ms type: MS2
Ion mode: NEGATIVE
Ionization: ESI
Fragmentation mode: CID
Collision energy: 30 eV
Resolution: 7000
Retention time: 0.115 min
Base peak: 277.1455
Precursor m/z: 277.1445
Precursor type: [M-H]-
Precursor intensity: 47509.42
m/z	relative intensity	assigned
75.0247	209	C6H3-
77.0403	999	C6H5-
83.0512	9	C5H7O-
103.0185	22	C7H3O-
111.0812	11	C7H11O-
119.0147	24	C7H3O2-
121.0299	144	C7H5O2-
125.0984	43	C8H13O-
127.1141	202	C8H15O-
134.0366	31	C8H6O2-
135.047	13	C8H7O2-
147.0093	112	C8H3O3-
