Mass spectrum: L-Valine; LC-ESI-QTOF; MS2; CE: 20eV; R=5000; [M+H]+
Name: L-Valine
Name: Valine
Name: (2S)-2-amino-3-methylbutanoic acid
Formula: C5H11NO2
Exact mass: 117.0790
SMILES: CC(C)[C@@H](C(=O)O)N
InChI: InChI=1S/C5H11NO2/c1-3(2)4(6)5(7)8/h3-4H,6H2,1-2H3,(H,7,8)/t4-/m0/s1
Instrument: Agilent 6530 QTOF
Instrument type: LC-ESI-QTOF
Ms type: MS2
Ion mode: POSITIVE
Ionization: ESI
Fragmentation mode: CID
Collision energy: 20 eV
Resolution: 5000
Column name: N/A
Retention time: 0.561 min
Base peak: 121.0508
Precursor m/z: 118.0863
Precursor type: [M+H]+
Precursor intensity: 52222
m/z	relative intensity	assigned
51.9939	6	C3O+
55.0531	163	C4H7+
58.0643	999	C3H8N+
59.072	181	C3H9N+
60.0936	4	C4H12+
72.0792	60	C4H10N+
