Mass spectrum: 1-(9Z-octadecenoyl)-2-hexadecanoyl-sn-glycero-3-phosphocholine; LC-ESI-QTOF; MS2; CE: 10eV; R=7000; [M+Na]+
Name: 1-(9Z-octadecenoyl)-2-hexadecanoyl-sn-glycero-3-phosphocholine
Name: 1-Oleoyl-2-palmitoyl-sn-glycero-3-phosphocholine
Name: [(2R)-2-hexadecanoyloxy-3-[(Z)-octadec-9-enoyl]oxypropyl] 2-(trimethylazaniumyl)ethyl phosphate
Formula: C42H82NO8P
Exact mass: 759.5778
SMILES: [C@](COP(=O)([O-])OCC[N+](C)(C)C)([H])(OC(CCCCCCCCCCCCCCC)=O)COC(CCCCCCC/C=C\CCCCCCCC)=O
InChI: InChI=1S/C42H82NO8P/c1-6-8-10-12-14-16-18-20-21-23-24-26-28-30-32-34-41(44)48-38-40(39-50-52(46,47)49-37-36-43(3,4)5)51-42(45)35-33-31-29-27-25-22-19-17-15-13-11-9-7-2/h20-21,40H,6-19,22-39H2,1-5H3/b21-20-/t40-/m1/s1
Instrument: Agilent 6560 QTOF
Instrument type: LC-ESI-QTOF
Ms type: MS2
Ion mode: POSITIVE
Ionization: ESI
Fragmentation mode: CID
Collision energy: 10 eV
Resolution: 7000
Column name: Direct injection
Retention time: 0.246 min
Base peak: 760.5873
Precursor m/z: 782.567
Precursor type: [M+Na]+
Precursor intensity: 497959
m/z	relative intensity	assigned
83.0846	2	C6H11+
86.096	7	C5H12N+
95.0854	1	C7H11+
120.1008	1	C5H14NO2+
135.1137	2	C8H16Na+
146.9814	24	C2H5NaO4P+
149.134	2	C7H20NP+
151.1474	1	C11H19+
163.0134	1	C3H9NaO4P+
184.0725	1	C9H12O4+
419.2131	1	C27H32O2P+
442.2427	1	C30H35OP+
467.249	1	C22H38NNaO8+
577.518	6	C31H73NNaO4P+
599.5015	28	C33H71NNaO4P+
600.5124	2	C35H71NO4P+
723.494	71	C39H73NaO8P+
724.4973	16	C39H74NaO8P+
725.4979	1	C40H72NO8P+
782.5686	999	C42H82NNaO8P+
