Mass spectrum: 1-(9Z-octadecenoyl)-sn-glycero-3-phosphoserine; LC-ESI-QTOF; MS2; CE: 10eV; R=7000; [M-H]-
Name: 1-(9Z-octadecenoyl)-sn-glycero-3-phosphoserine
Name: (2S)-2-amino-3-[hydroxy-[(2R)-2-hydroxy-3-[(Z)-octadec-9-enoyl]oxypropoxy]phosphoryl]oxypropanoic acid
Formula: C24H46NO9P
Exact mass: 523.2910
SMILES: [H][C@@](O)(COC(=O)CCCCCCC\C=C/CCCCCCCC)COP(O)(=O)OC[C@]([H])(N)C(O)=O
InChI: InChI=1S/C24H46NO9P/c1-2-3-4-5-6-7-8-9-10-11-12-13-14-15-16-17-23(27)32-18-21(26)19-33-35(30,31)34-20-22(25)24(28)29/h9-10,21-22,26H,2-8,11-20,25H2,1H3,(H,28,29)(H,30,31)/b10-9-/t21-,22+/m1/s1
Instrument: Agilent 6560 QTOF
Instrument type: LC-ESI-QTOF
Ms type: MS2
Ion mode: NEGATIVE
Ionization: ESI
Fragmentation mode: CID
Collision energy: 10 eV
Resolution: 7000
Column name: N/A
Retention time: 0.168 min
Base peak: 980.0164
Precursor m/z: 522.2837
Precursor type: [M-H]-
Precursor intensity: 75179
m/z	relative intensity	assigned
78.9588	84	O3P-
79.9653	21	HO3P-
146.0155	8	C12H2-
152.9956	544	C3H6O5P-
171.003	12	C2H5NO8-
177.2697	16	C9H38P-
335.1906	5	C22H25NO2-
341.97	11	C18NO7-
406.2579	17	C16H41NO8P-
433.0855	7	C24H18O6P-
435.2514	817	C21H40O7P-
436.2582	179	C21H41O7P-
522.2838	999	C24H45NO9P-
