Mass spectrum: Methyltestosterone; LC-ESI-QTOF; MS2; CE: 20eV; R=7000; [M+H]+
Name: Methyltestosterone
Name: Androst-4-en-3-one, 17-hydroxy-17-methyl-, (17beta)-
Name: 17-hydroxy-10,13,17-trimethyl-2,6,7,8,9,11,12,14,15,16-decahydro-1H-cyclopenta[a]phenanthren-3-one
Formula: C20H30O2
Exact mass: 302.2246
SMILES: CC12CCC(=O)C=C1CCC3C2CCC4(C3CCC4(C)O)C
InChI: InChI=1S/C20H30O2/c1-18-9-6-14(21)12-13(18)4-5-15-16(18)7-10-19(2)17(15)8-11-20(19,3)22/h12,15-17,22H,4-11H2,1-3H3
Instrument: Agilent 6560 QTOF
Instrument type: LC-ESI-QTOF
Ms type: MS2
Ion mode: POSITIVE
Ionization: ESI
Fragmentation mode: CID
Collision energy: 20 eV
Resolution: 7000
Column name: Direct injection
Retention time: 0.154 min
Base peak: 303.2326
Precursor m/z: 303.2319
Precursor type: [M+H]+
Precursor intensity: 446714
m/z	relative intensity	assigned
71.0488	8	C4H7O+
77.0386	25	C6H5+
79.0538	57	C6H7+
81.0703	84	C6H9+
83.0489	64	C5H7O+
83.0843	3	C6H11+
85.064	8	C5H9O+
91.0541	29	C7H7+
93.0703	59	C7H9+
95.0857	150	C7H11+
97.0648	999	C6H9O+
105.0691	41	C8H9+
107.0863	83	C8H11+
109.0649	883	C7H9O+
109.1011	56	C8H13+
113.0585	9	C6H9O2+
113.0975	8	C7H13O+
117.0697	5	C9H9+
119.0855	69	C9H11+
121.0644	16	C8H9O+
121.1003	54	C9H13+
123.0806	94	C8H11O+
131.0862	29	C10H11+
133.1012	62	C10H13+
135.0793	9	C9H11O+
135.1166	30	C10H15+
137.0967	17	C9H13O+
137.1317	17	C10H17+
141.0707	3	C11H9+
143.0839	4	C11H11+
145.0991	24	C11H13+
147.0775	4	C10H11O+
147.1168	32	C11H15+
149.0938	10	C10H13O+
149.132	19	C11H17+
150.1368	5	C11H18+
151.111	3	C10H15O+
155.0847	17	C12H11+
156.0933	2	C12H12+
157.1019	19	C12H13+
159.1169	60	C12H15+
161.0958	12	C11H13O+
161.1322	36	C12H17+
163.113	44	C11H15O+
163.147	4	C12H19+
169.1018	7	C13H13+
170.1084	7	C13H14+
171.1163	30	C13H15+
173.1327	29	C13H17+
175.1101	1	C12H15O+
175.1476	32	C13H19+
176.1526	3	C13H20+
177.1274	27	C12H17O+
177.163	36	C13H21+
183.1168	9	C14H15+
185.132	25	C14H17+
187.1082	2	C13H15O+
187.1488	30	C14H19+
189.1271	12	C13H17O+
189.1638	121	C14H21+
191.1406	5	C13H19O+
196.1264	1	C15H16+
197.1333	11	C15H17+
199.113	1	C14H15O+
199.1458	14	C15H19+
200.1555	4	C15H20+
201.1279	15	C14H17O+
201.1656	28	C15H21+
202.1345	2	C14H18O+
203.1449	5	C14H19O+
203.1821	30	C15H23+
209.1306	3	C16H17+
211.1481	34	C16H19+
215.1437	13	C15H19O+
215.1779	16	C16H23+
224.1538	3	C17H20+
225.1646	19	C17H21+
227.1795	67	C17H23+
228.1826	5	C17H24+
229.1598	14	C16H21O+
230.1627	1	C16H22O+
239.1765	3	C18H23+
241.1969	3	C18H25+
245.1899	51	C17H25O+
255.175	1	C18H23O+
257.2257	10	C19H29+
267.2102	88	C20H27+
268.2121	8	C20H28+
270.2001	4	C19H26O+
285.2212	95	C20H29O+
286.2275	11	C20H30O+
303.232	117	C20H31O2+
