Mass spectrum: 1-octadecanoyl-sn-glycero-3-phosphocholine; LC-ESI-QTOF; MS2; CE: 20eV; R=7000; [M+CH3COO]-
Name: 1-octadecanoyl-sn-glycero-3-phosphocholine
Name: [(2R)-2-hydroxy-3-octadecanoyloxypropyl] 2-(trimethylazaniumyl)ethyl phosphate
Formula: C26H54NO7P
Exact mass: 523.3638
SMILES: CCCCCCCCCCCCCCCCCC(=O)OC[C@H](COP(=O)([O-])OCC[N+](C)(C)C)O
InChI: InChI=1S/C26H54NO7P/c1-5-6-7-8-9-10-11-12-13-14-15-16-17-18-19-20-26(29)32-23-25(28)24-34-35(30,31)33-22-21-27(2,3)4/h25,28H,5-24H2,1-4H3/t25-/m1/s1
Instrument: Agilent 6560 QTOF
Instrument type: LC-ESI-QTOF
Ms type: MS2
Ion mode: NEGATIVE
Ionization: ESI
Fragmentation mode: CID
Collision energy: 20 eV
Resolution: 7000
Column name: N/A
Retention time: 0.166 min
Base peak: 582.3793
Precursor m/z: 582.3776
Precursor type: [M+CH3COO]-
Precursor intensity: 313807
m/z	relative intensity	assigned
78.9592	10	O3P-
99.2587	1	C3H33NO-
114.0177	1	CH6O6-
121.3831	1	C6H49-
122.9829	2	CHNO6-
124.9993	5	C2H6O4P-
141.3924	4	C2H53O4-
152.9942	20	C3H6O5P-
153.0494	1	H11NO8-
166.0366	1	C4H8NO6-
168.0462	10	C11H6NO-
194.3792	1	C11H48N-
224.0695	74	C7H15NO5P-
242.0777	11	C4H19O9P-
242.9534	1	C7H2NO7P-
250.0852	1	C9H17NO5P-
283.265	999	C14H38NO2P-
284.2689	71	C11H41O5P-
284.3328	4	C19H42N-
285.4212	1	C14H55NO3-
299.2904	1	C11H41NO7-
368.3741	1	C20H50NO4-
380.1532	1	C23H25O3P-
411.4433	2	C27H57NO-
419.2495	1	C28H36OP-
420.409	1	C25H57O2P-
433.0058	2	C28H3NO5-
437.2619	2	C28H38O2P-
453.1022	3	C23H20NO7P-
463.2913	1	C23H43O9-
505.0029	2	C27H8NO8P-
505.0566	2	C25H16NO9P-
505.2902	1	C25H46O8P-
505.3586	1	C26H51NO8-
505.3992	1	C27H55NO7-
506.1794	1	C28H28NO8-
508.3416	799	C25H51NO7P-
509.3456	82	C25H52NO7P-
510.3647	1	C25H52NO9-
520.1276	1	C28H25O8P-
522.1884	1	C25H33NO9P-
523.3117	1	C28H45NO8-
582.3706	1	C28H57NO9P-
