Mass spectrum: 5-Chlorobenzotriazole; LC-ESI-QTOF; MS2; CE: 30eV; R=7000; [M+H]+
Name: 5-Chlorobenzotriazole
Name: 5-chloro-2H-benzotriazole
Formula: C6H4ClN3
Exact mass: 153.0094
SMILES: C1=CC2=NNN=C2C=C1Cl
InChI: InChI=1S/C6H4ClN3/c7-4-1-2-5-6(3-4)9-10-8-5/h1-3H,(H,8,9,10)
Instrument: Agilent 6560 QTOF
Instrument type: LC-ESI-QTOF
Ms type: MS2
Ion mode: POSITIVE
Ionization: ESI
Fragmentation mode: CID
Collision energy: 30 eV
Resolution: 7000
Retention time: 0.146 min
Base peak: 154.0168
Precursor m/z: 154.0167
Precursor type: [M+H]+
Precursor intensity: 15283.31
m/z	relative intensity	assigned
63.0233	430	C5H3+
64.019	222	C4H2N+
64.03	69	C5H4+
72.9843	723	C3H2Cl+
90.0343	221	C6H4N+
91.0416	119	C6H5N+
98.9995	999	C5H4Cl+
126.0093	47	C6H5ClN+
