Mass spectrum: Tris(tert-butylphenyl) phosphate; LC-ESI-QTOF; MS2; CE: 25eV; R=7000; [M+H]+
Name: Tris(tert-butylphenyl) phosphate
Name: tris(2-tert-butylphenyl) phosphate
Formula: C30H39O4P
Exact mass: 494.2586
SMILES: CC(C)(C)C1=CC=CC=C1OP(=O)(OC2=CC=CC=C2C(C)(C)C)OC3=CC=CC=C3C(C)(C)C
InChI: InChI=1S/C30H39O4P/c1-28(2,3)22-16-10-13-19-25(22)32-35(31,33-26-20-14-11-17-23(26)29(4,5)6)34-27-21-15-12-18-24(27)30(7,8)9/h10-21H,1-9H3
Instrument: Agilent 6560 QTOF
Instrument type: LC-ESI-QTOF
Ms type: MS2
Ion mode: POSITIVE
Ionization: ESI
Fragmentation mode: CID
Collision energy: 25 eV
Resolution: 7000
Retention time: 0.111 min
Base peak: 495.2656
Precursor m/z: 495.2659
Precursor type: [M+H]+
Precursor intensity: 101719.12
m/z	relative intensity	assigned
57.0702	474	C4H9+
153.0656	11	C5H14O3P+
233.0355	9	C12H10O3P+
327.0778	783	C18H16O4P+
328.0822	87	C18H17O4P+
383.1405	999	C22H24O4P+
384.1417	163	C25H20O4+
439.2022	827	C26H32O4P+
440.2055	134	C26H33O4P+
495.2648	356	C30H40O4P+
