Mass spectrum: Mono(2-ethyl-oxo-hexyl) trimelliate; LC-ESI-QTOF; MS2; CE: 20eV; R=7000; [M-H]-
Name: Mono(2-ethyl-oxo-hexyl) trimelliate
Name: 2-(2-ethyl-5-oxohexoxy)carbonylterephthalic acid
Formula: C17H20O7
Exact mass: 336.1209
SMILES: CCC(CCC(C)=O)COC(=O)c1cc(C(=O)O)ccc1C(=O)O
InChI: InChI=1S/C17H20O7/c1-3-11(5-4-10(2)18)9-24-17(23)14-8-12(15(19)20)6-7-13(14)16(21)22/h6-8,11H,3-5,9H2,1-2H3,(H,19,20)(H,21,22)
Instrument: Agilent 6560 QTOF
Instrument type: LC-ESI-QTOF
Ms type: MS2
Ion mode: NEGATIVE
Ionization: ESI
Fragmentation mode: CID
Collision energy: 20 eV
Resolution: 7000
Column name: ZORBAX Extend-C18 3.5um, 2.1x50mm, Agilent Technologies
Retention time: 0.440 min
Base peak: 335.1133
Precursor m/z: 335.1136
Precursor type: [M-H]-
Precursor intensity: 63606.38
m/z	relative intensity	assigned
77.0397	384	C6H5-
99.0814	8	C6H11O-
113.0964	6	C7H13O-
119.0499	58	C8H7O-
121.0292	999	C7H5O2-
147.0081	51	C8H3O3-
165.0191	80	C8H5O4-
173.1308	7	C13H17-
291.1279	8	C16H19O5-
