Mass spectrum: N-oleoyl-D-erythro-sphingosine; LC-ESI-QTOF; MS2; CE: 10eV; R=7000; [M+CH3COO]-
Name: N-oleoyl-D-erythro-sphingosine
Name: N-(oleoyl)-ceramide
Name: (Z)-N-[(E,2S,3R)-1,3-dihydroxyoctadec-4-en-2-yl]octadec-9-enamide
Formula: C36H69NO3
Exact mass: 563.5277
SMILES: CCCCCCCCCCCCC/C=C/[C@H]([C@H](CO)NC(=O)CCCCCCC/C=C\CCCCCCCC)O
InChI: InChI=1S/C36H69NO3/c1-3-5-7-9-11-13-15-17-18-20-22-24-26-28-30-32-36(40)37-34(33-38)35(39)31-29-27-25-23-21-19-16-14-12-10-8-6-4-2/h17-18,29,31,34-35,38-39H,3-16,19-28,30,32-33H2,1-2H3,(H,37,40)/b18-17-,31-29+/t34-,35+/m0/s1
Instrument: Agilent 6560 QTOF
Instrument type: LC-ESI-QTOF
Ms type: MS2
Ion mode: NEGATIVE
Ionization: ESI
Fragmentation mode: CID
Collision energy: 10 eV
Resolution: 7000
Column name: N/A
Retention time: 0.141 min
Base peak: 622.5438
Precursor m/z: 622.5416
Precursor type: [M+CH3COO]-
Precursor intensity: 607755
m/z	relative intensity	assigned
111.0798	1	C7H11O-
133.2277	1	C2H31NO4-
237.223	8	C16H29O-
239.2269	1	C15H29NO-
263.2381	11	C18H31O-
280.2644	8	C18H34NO-
281.2464	4	C18H33O2-
306.2811	23	C20H36NO-
307.2779	1	C16H37NO4-
322.2751	2	C20H36NO2-
388.1504	1	C28H20O2-
502.5023	4	C34H64NO-
514.4931	1	C32H66O4-
530.4941	4	C35H64NO2-
532.5124	7	C35H66NO2-
533.5079	1	C31H67NO5-
559.1568	1	C38H23O5-
559.3778	1	C37H51O4-
562.5222	999	C36H68NO3-
563.5251	158	C36H69NO3-
622.5461	5	C38H72NO5-
