Mass spectrum: Hippuric acid; LC-ESI-QTOF; MS2; CE: 10eV; R=5000; [M+H]+
Name: Hippuric acid
Name: 2-benzamidoacetic acid
Formula: C9H9NO3
Exact mass: 179.0582
SMILES: C1=CC=C(C=C1)C(=O)NCC(=O)O
InChI: InChI=1S/C9H9NO3/c11-8(12)6-10-9(13)7-4-2-1-3-5-7/h1-5H,6H2,(H,10,13)(H,11,12)
Instrument: Agilent 6530 QTOF
Instrument type: LC-ESI-QTOF
Ms type: MS2
Ion mode: POSITIVE
Ionization: ESI
Fragmentation mode: CID
Collision energy: 10 eV
Resolution: 5000
Column name: N/A
Retention time: 0.249 min
Base peak: 121.0508
Precursor m/z: 180.0655
Precursor type: [M+H]+
Precursor intensity: 24960
m/z	relative intensity	assigned
51.0228	30	C4H3+
77.0378	359	C6H5+
105.0314	999	C7H5O+
107.0593	3	C3H9NO3+
