Mass spectrum: Butyryl trihexyl citrate; LC-ESI-QTOF; MS2; CE: 30eV; R=7000; [M+H]+
Name: Butyryl trihexyl citrate
Name: trihexyl 2-butanoyloxypropane-1,2,3-tricarboxylate
Formula: C28H50O8
Exact mass: 514.3506
SMILES: CCCCCCOC(=O)CC(CC(=O)OCCCCCC)(C(=O)OCCCCCC)OC(=O)CCC
InChI: InChI=1S/C28H50O8/c1-5-9-12-15-19-33-25(30)22-28(36-24(29)18-8-4,27(32)35-21-17-14-11-7-3)23-26(31)34-20-16-13-10-6-2/h5-23H2,1-4H3
Instrument: Agilent 6560 QTOF
Instrument type: LC-ESI-QTOF
Ms type: MS2
Ion mode: POSITIVE
Ionization: ESI
Fragmentation mode: CID
Collision energy: 30 eV
Resolution: 7000
Retention time: 0.108 min
Base peak: 537.3395
Precursor m/z: 515.3578
Precursor type: [M+H]+
Precursor intensity: 63471.83
m/z	relative intensity	assigned
57.0702	86	C4H9+
61.0271	12	C2H5O2+
68.9972	55	C3HO2+
71.0493	291	C4H7O+
85.0276	9	C4H5O2+
85.1019	138	C6H13+
89.0596	175	C4H9O2+
111.0078	246	C5H3O3+
129.0184	999	C5H5O4+
139.0027	415	C6H3O4+
157.0112	25	C6H5O5+
213.1118	68	C11H17O4+
