Mass spectrum: SPERMIDINE; LC-ESI-QTOF; MS2; CE: 40eV; R=5000; [M+H]+
Name: SPERMIDINE
Name: N`-(3-aminopropyl)butane-1,4-diamine
Formula: C7H19N3
Exact mass: 145.15790
SMILES: NCCCCNCCCN
InChI: InChI=1S/C7H19N3/c8-4-1-2-6-10-7-3-5-9/h10H,1-9H2
Instrument: Agilent 6530 QTOF
Instrument type: LC-ESI-QTOF
Ms type: MS2
Ion mode: POSITIVE
Ionization: ESI
Fragmentation mode: CID
Collision energy: 40 eV
Resolution: 5000
Column name: N/A
Retention time: 0.561 min
Base peak: 146.1653
Precursor m/z: 146.1652
Precursor type: [M+H]+
Precursor intensity: 242175
m/z	relative intensity	assigned
44.0489	15	C2H6N+
53.0386	27	C4H5+
55.0546	398	C4H7+
56.0499	76	C3H6N+
57.0703	9	C4H9+
58.0651	138	C3H8N+
72.0812	999	C4H10N+
73.0903	8	C4H11N+
82.0668	5	C5H8N+
84.0814	383	C5H10N+
98.0958	16	C6H12N+
