Mass spectrum: DEOXYGUANOSINE; LC-ESI-QTOF; MS2; CE: 40eV; R=5000; [M+H]+
Name: DEOXYGUANOSINE
Name: CID 187790
Name: 2-amino-9-[(2R,4S,5R)-4-hydroxy-5-(hydroxymethyl)oxolan-2-yl]-3H-purin-6-one
Formula: C10H13N5O4
Exact mass: 267.0968
SMILES: NC1=NC2=C(N=CN2[C@H]2C[C@H](O)[C@@H](CO)O2)C(=O)N1
InChI: InChI=1S/C10H13N5O4/c11-10-13-8-7(9(18)14-10)12-3-15(8)6-1-4(17)5(2-16)19-6/h3-6,16-17H,1-2H2,(H3,11,13,14,18)/t4-,5+,6+/m0/s1
Instrument: Agilent 6530 QTOF
Instrument type: LC-ESI-QTOF
Ms type: MS2
Ion mode: POSITIVE
Ionization: ESI
Fragmentation mode: CID
Collision energy: 40 eV
Resolution: 5000
Column name: N/A
Retention time: 0.220 min
Base peak: 152.0564
Precursor m/z: 268.104
Precursor type: [M+H]+
Precursor intensity: 697080
m/z	relative intensity	assigned
41.0394	45	C3H5+
53.0247	14	C3H3N+
53.0936	1	H11N3+
55.0298	83	C2H3N2+
57.0331	1	C3H5O+
65.0124	1	C3HN2+
68.0136	11	C3H2NO+
69.0332	12	C4H5O+
71.0501	13	C4H7O+
73.0288	30	C3H5O2+
75.0554	1	C2H7N2O+
80.0253	34	C5H4O+
81.0311	11	C3H3N3+
82.041	46	C5H6O+
93.0084	15	C4HN2O+
94.0605	2	CH8N3O2+
99.0381	1	H7N2O4+
101.0117	1	C3H3NO3+
107.0359	35	C4H3N4+
108.0165	1	CH4N2O4+
109.0509	22	C4H5N4+
110.0359	431	C6H6O2+
117.0538	2	C3H7N3O2+
133.0492	1	C5H9O4+
135.0306	999	C5H3N4O+
136.0334	6	C2H6N3O4+
136.1118	2	C9H14N+
139.1105	1	C7H13N3+
152.0572	369	C5H6N5O+
