Mass spectrum: D-lactosyl-beta-1,1 N-octanoyl-D-erythro-sphingosine; LC-ESI-QTOF; MS2; CE: 20eV; R=7000; [M+H]+
Name: D-lactosyl-beta-1,1 N-octanoyl-D-erythro-sphingosine
Name: C8 Lactosyl(beta) Ceramide (d18:1/8:0), D-lactosyl-beta-1,1` N-octanoyl-D-erythro-sphingosine, powder
Name: N-[(E,2S,3R)-1-[(2R,5S,6R)-3,4-dihydroxy-6-(hydroxymethyl)-5-[(2S,5R,6R)-3,4,5-trihydroxy-6-(hydroxymethyl)oxan-2-yl]oxyoxan-2-yl]oxy-3-hydroxyoctadec-4-en-2-yl]octanamide
Formula: C38H71NO13
Exact mass: 749.4925
SMILES: CCCCCCCCCCCCC/C=C/[C@H]([C@H](CO[C@H]1C(C([C@@H]([C@H](O1)CO)O[C@H]2C(C([C@H]([C@H](O2)CO)O)O)O)O)O)NC(=O)CCCCCCC)O
InChI: InChI=1S/C38H71NO13/c1-3-5-7-9-10-11-12-13-14-15-16-18-19-21-27(42)26(39-30(43)22-20-17-8-6-4-2)25-49-37-35(48)33(46)36(29(24-41)51-37)52-38-34(47)32(45)31(44)28(23-40)50-38/h19,21,26-29,31-38,40-42,44-48H,3-18,20,22-25H2,1-2H3,(H,39,43)/b21-19+/t26-,27+,28+,29+,31-,32?,33?,34?,35?,36+,37+,38-/m0/s1
Instrument: Agilent 6560 QTOF
Instrument type: LC-ESI-QTOF
Ms type: MS2
Ion mode: POSITIVE
Ionization: ESI
Fragmentation mode: CID
Collision energy: 20 eV
Resolution: 7000
Column name: Direct injection
Retention time: 0.155 min
Base peak: 256.9651
Precursor m/z: 750.4998
Precursor type: [M+H]+
Precursor intensity: 178893
m/z	relative intensity	assigned
82.0659	21	C5H8N+
83.0842	4	C6H11+
97.0286	5	C5H5O2+
109.0988	4	C8H13+
127.0393	8	C6H7O3+
144.1362	30	C5H20O4+
145.0491	9	C6H9O4+
149.1304	1	C11H17+
211.2069	16	C14H27O+
247.2406	13	C3H37NO10+
252.2685	57	C17H34N+
264.2693	763	C18H34N+
265.2715	61	H43NO13+
266.466	2	C13H62O3+
282.2793	80	C18H36NO+
283.2841	9	C15H39O4+
378.3738	50	C25H48NO+
379.3772	6	C22H51O4+
390.3743	210	C26H48NO+
391.3763	28	C23H51O4+
392.3927	10	C16H56O9+
399.245	3	C17H37NO9+
408.3845	999	C26H50NO2+
409.3872	110	C23H53O5+
426.3891	13	C23H54O6+
457.9639	5	C26H2O9+
570.4338	43	C29H62O10+
571.4368	7	C36H59O5+
605.1856	2	C32H31NO11+
606.3832	8	C30H56NO11+
732.4901	227	C38H70NO12+
733.494	63	C38H71NO12+
