Mass spectrum: Trimyristin; LC-ESI-QTOF; MS2; CE: 40eV; R=7000; [M+Na]+
Name: Trimyristin
Name: 2,3-di(tetradecanoyloxy)propyl tetradecanoate
Formula: C45H86O6
Exact mass: 722.6424
SMILES: CCCCCCCCCCCCCC(=O)OCC(COC(=O)CCCCCCCCCCCCC)OC(=O)CCCCCCCCCCCCC
InChI: InChI=1S/C45H86O6/c1-4-7-10-13-16-19-22-25-28-31-34-37-43(46)49-40-42(51-45(48)39-36-33-30-27-24-21-18-15-12-9-6-3)41-50-44(47)38-35-32-29-26-23-20-17-14-11-8-5-2/h42H,4-41H2,1-3H3
Instrument: Agilent 6560 QTOF
Instrument type: LC-ESI-QTOF
Ms type: MS2
Ion mode: POSITIVE
Ionization: ESI
Fragmentation mode: CID
Collision energy: 40 eV
Resolution: 7000
Column name: Direct injection
Retention time: 0.324 min
Base peak: 647.4608
Precursor m/z: 745.6317
Precursor type: [M+Na]+
Precursor intensity: 21661
m/z	relative intensity	assigned
71.0833	174	C3H12Na+
81.0697	999	C6H9+
83.0849	163	C6H11+
95.0847	512	C7H11+
97.0993	280	C5H14Na+
109.1001	402	C8H13+
109.5355	26	C2H69O+
123.1153	240	C7H16Na+
137.1317	77	C10H17+
184.1708	128	C8H24O4+
200.1335	158	C9H21NaO3+
211.207	324	C14H27O+
285.2364	145	C15H34NaO3+
327.9739	79	C20HNaO4+
495.4411	915	C31H59O4+
496.4375	48	C29H61NaO4+
517.4202	291	C31H58NaO4+
745.6249	383	C45H86NaO6+
