Mass spectrum: 4-((4-(Allyloxy)phenyl)sulfonyl)phenol; LC-ESI-QTOF; MS2; CE: 55eV; R=7000; [M-H]-
Name: 4-((4-(Allyloxy)phenyl)sulfonyl)phenol
Name: 4-(4-prop-2-enoxyphenyl)sulfonylphenol
Formula: C15H14O4S
Exact mass: 290.0613
SMILES: C=CCOC1=CC=C(C=C1)S(=O)(=O)C2=CC=C(C=C2)O
InChI: InChI=1S/C15H14O4S/c1-2-11-19-13-5-9-15(10-6-13)20(17,18)14-7-3-12(16)4-8-14/h2-10,16H,1,11H2
Instrument: Agilent 6560 QTOF
Instrument type: LC-ESI-QTOF
Ms type: MS2
Ion mode: NEGATIVE
Ionization: ESI
Fragmentation mode: CID
Collision energy: 55 eV
Resolution: 7000
Retention time: 0.148 min
Base peak: 289.0549
Precursor m/z: 289.054
Precursor type: [M-H]-
Precursor intensity: 78026.49
m/z	relative intensity	assigned
63.9619	27	O2S-
82.9961	6	C4H3S-
91.019	107	C6H3O-
92.0267	999	C6H4O-
95.013	9	C5H3O2-
108.0215	590	C6H4O2-
115.0567	6	C9H7-
128.0623	49	C10H8-
130.0411	8	C9H6O-
138.985	23	C6H3O2S-
139.9927	33	C6H4O2S-
143.0482	10	C10H7O-
145.0314	7	C6H9O2S-
154.0409	9	C11H6O-
156.0578	23	C11H8O-
182.039	10	C12H6O2-
183.0439	11	C12H7O2-
184.051	8	C12H8O2-
198.0332	9	C12H6O3-
199.0402	11	C12H7O3-
