Mass spectrum: Tetrekis(2-chlorethyl) dichloroisopentyldiphosphate; LC-ESI-QTOF; MS2; CE: 50eV; R=7000; [M+H]+
Name: Tetrekis(2-chlorethyl) dichloroisopentyldiphosphate
Name: Phosphoric acid, 2,2-bis(chloromethyl)-1,3-propanediyl tetrakis(2-chloroethyl) ester
Name: [2-[bis(2-chloroethoxy)phosphoryloxymethyl]-3-chloro-2-(chloromethyl)propyl] bis(2-chloroethyl) phosphate
Formula: C13H24Cl6O8P2
Exact mass: 579.9078
SMILES: C(CCl)OP(=O)(OCCCl)OCC(COP(=O)(OCCCl)OCCCl)(CCl)CCl
InChI: InChI=1S/C13H24Cl6O8P2/c14-1-5-22-28(20,23-6-2-15)26-11-13(9-18,10-19)12-27-29(21,24-7-3-16)25-8-4-17/h1-12H2
Instrument: Agilent 6560 QTOF
Instrument type: LC-ESI-QTOF
Ms type: MS2
Ion mode: POSITIVE
Ionization: ESI
Fragmentation mode: CID
Collision energy: 50 eV
Resolution: 7000
Retention time: 0.111 min
Base peak: 582.9123
Precursor m/z: 580.915
Precursor type: [M+H]+
Precursor intensity: 15313.32
m/z	relative intensity	assigned
62.9999	497	C2H4Cl+
65.0389	999	C5H5+
74.9983	102	C2H4OP+
80.9743	108	CH2ClO2+
83.0493	161	C5H7O+
98.9842	915	H4O4P+
110.9839	126	CH4O4P+
116.9513	57	CH3Cl2O2+
122.9842	65	C2H4O4P+
163.0144	69	Cl2H13O5+
234.9693	150	C6H10Cl3O3+
