Mass spectrum: Para-hydroxy triphenyl phosphate; LC-ESI-QTOF; MS2; CE: 20eV; R=7000; [M+H]+
Name: Para-hydroxy triphenyl phosphate
Name: 4-Hydroxyphenyl diphenyl phosphate
Name: (4-hydroxyphenyl) diphenyl phosphate
Formula: C18H15O5P
Exact mass: 342.0657
SMILES: C1=CC=C(C=C1)OP(=O)(OC2=CC=CC=C2)OC3=CC=C(C=C3)O
InChI: InChI=1S/C18H15O5P/c19-15-11-13-18(14-12-15)23-24(20,21-16-7-3-1-4-8-16)22-17-9-5-2-6-10-17/h1-14,19H
Instrument: Agilent 6560 QTOF
Instrument type: LC-ESI-QTOF
Ms type: MS2
Ion mode: POSITIVE
Ionization: ESI
Fragmentation mode: CID
Collision energy: 20 eV
Resolution: 7000
Retention time: 0.148 min
Base peak: 343.0733
Precursor m/z: 343.073
Precursor type: [M+H]+
Precursor intensity: 134793.62
m/z	relative intensity	assigned
65.0387	60	C5H5+
77.0388	139	C6H5+
81.0336	15	C5H5O+
93.0336	30	C6H5O+
95.0495	9	C6H7O+
98.9829	5	H4O4P+
109.0285	119	C6H5O2+
110.0363	12	C6H6O2+
111.0426	10	C6H7O2+
115.054	27	C9H7+
141.0096	49	C6H6O2P+
141.0697	212	C11H9+
142.0733	16	C4H15O3P+
151.0523	6	C5H12O3P+
152.0621	64	C12H8+
153.0699	99	C12H9+
154.0718	6	C5H15O3P+
154.9899	8	C6H4O3P+
155.9975	19	C6H5O3P+
156.0583	5	C11H8O+
159.0757	5	C4H16O4P+
168.0562	10	C12H8O+
169.0647	108	C12H9O+
171.0815	28	C12H11O+
175.0146	43	C6H8O4P+
184.0517	8	C12H8O2+
185.0612	5	C12H9O2+
186.0664	6	C12H10O2+
187.0759	25	C12H11O2+
199.0326	7	C12H8OP+
202.0785	16	C16H10+
215.0253	86	C12H8O2P+
215.0866	9	C17H11+
216.0282	7	C12H9O2P+
216.0926	7	C17H12+
217.1007	17	C17H13+
226.0774	36	C18H10+
227.0856	14	C18H11+
228.092	6	C18H12+
231.0203	93	C12H8O3P+
232.0249	18	C12H9O3P+
233.0351	61	C12H10O3P+
244.0907	7	C18H12O+
245.0947	18	C18H13O+
249.0308	154	C12H10O4P+
250.0373	20	C12H11O4P+
251.0463	49	C12H12O4P+
267.0422	140	C12H12O5P+
268.0447	4	C12H13O5P+
307.0513	12	C18H12O3P+
325.062	12	C18H14O4P+
343.0735	999	C18H16O5P+
