Mass spectrum: ADENOSINE23CYCLICPHOSPHATE; LC-ESI-QTOF; MS2; CE: 20eV; R=5000; [M+H]+
Name: ADENOSINE23CYCLICPHOSPHATE
Name: Adenosine 2`,3`-cyclic phosphate
Name: [4-(6-aminopurin-9-yl)-2-hydroxy-2-oxo-3a,4,6,6a-tetrahydrofuro[3,4-d][1,3,2]dioxaphosphol-6-yl]methanol
Formula: C10H12N5O6P
Exact mass: 329.0525
SMILES: NC1=NC=NC2=C1N=CN2C1OC(CO)C2OP(O)(=O)OC12
InChI: InChI=1S/C10H12N5O6P/c11-8-5-9(13-2-12-8)15(3-14-5)10-7-6(4(1-16)19-10)20-22(17,18)21-7/h2-4,6-7,10,16H,1H2,(H,17,18)(H2,11,12,13)
Instrument: Agilent 6530 QTOF
Instrument type: LC-ESI-QTOF
Ms type: MS2
Ion mode: POSITIVE
Ionization: ESI
Fragmentation mode: CID
Collision energy: 20 eV
Resolution: 5000
Column name: N/A
Retention time: 0.215 min
Base peak: 121.0508
Precursor m/z: 330.0598
Precursor type: [M+H]+
Precursor intensity: 179569
m/z	relative intensity	assigned
41.0385	1	C3H5+
57.0712	4	H12NP+
69.0348	94	H8NOP+
80.9724	21	H2O3P+
84.0794	15	C2H12O3+
85.0295	8	H8NO2P+
88.0714	3	CH12O4+
89.0668	2	H11NO4+
94.0379	2	CH6N2O3+
98.9846	100	H4O4P+
101.0075	1	H5O6+
104.1066	3	C3H12N4+
105.0699	6	C8H9+
109.0476	5	CH7N3O3+
119.0339	32	C4H7O4+
136.0618	999	C5H6N5+
137.0628	16	C4H12NO2P+
143.0336	1	C6H7O4+
148.9954	6	C3H3NO6+
149.0549	1	C2H7N5O3+
164.9496	1	C2NO6P+
176.0534	2	C4H8N4O4+
194.9998	9	C10H2N3P+
202.0758	17	C7H13N3O2P+
229.0886	1	C8H13N4O4+
330.0634	92	C10H13N5O6P+
