Mass spectrum: Tri-o-tolyl phosphate; LC-ESI-QTOF; MS2; CE: 10eV; R=7000; [M+H]+
Name: Tri-o-tolyl phosphate
Name: Tri-O-cresyl phosphate
Name: tris(2-methylphenyl) phosphate
Formula: C21H21O4P
Exact mass: 368.1177
SMILES: CC1=CC=CC=C1OP(=O)(OC2=CC=CC=C2C)OC3=CC=CC=C3C
InChI: InChI=1S/C21H21O4P/c1-16-10-4-7-13-19(16)23-26(22,24-20-14-8-5-11-17(20)2)25-21-15-9-6-12-18(21)3/h4-15H,1-3H3
Instrument: Agilent 6560 QTOF
Instrument type: LC-ESI-QTOF
Ms type: MS2
Ion mode: POSITIVE
Ionization: ESI
Fragmentation mode: CID
Collision energy: 10 eV
Resolution: 7000
Retention time: 0.111 min
Base peak: 369.1253
Precursor m/z: 369.125
Precursor type: [M+H]+
Precursor intensity: 302215.8
m/z	relative intensity	assigned
65.0391	4	C5H5+
91.0544	30	C7H7+
105.0684	2	C8H9+
107.048	2	C7H7O+
109.0655	1	C7H9O+
115.0552	1	C9H7+
121.0652	1	C8H9O+
152.0616	1	C12H8+
153.0091	3	C7H6O2P+
153.0675	2	C5H14O3P+
165.0699	14	C13H9+
166.0773	25	C13H10+
167.0812	2	C6H16O3P+
169.1009	1	C13H13+
178.0757	2	C14H10+
179.0845	6	C14H11+
180.0926	2	C14H12+
181.0641	1	C13H9O+
181.0998	11	C7H18O3P+
182.1025	1	C7H19O3P+
187.0156	1	C7H8O4P+
189.0316	6	C7H10O4P+
197.0962	2	C14H13O+
241.1011	2	C19H13+
242.1055	1	C12H19O3P+
243.0567	3	C14H12O2P+
256.1247	12	C20H16+
257.1339	1	C20H17+
261.0665	11	C14H14O3P+
262.0674	2	C17H10O3+
271.1501	1	C21H19+
277.0619	6	C14H14O4P+
279.0796	5	C21H11O+
369.1251	999	C21H22O4P+
