Mass spectrum: N-Heptadecanoyl-D-erythro-Sphingosine; LC-ESI-QTOF; MS2; CE: 10eV; R=7000; [M+HCOOH-H]-
Name: N-Heptadecanoyl-D-erythro-Sphingosine
Name: N-Heptadecanoylsphingosine
Name: N-[(E,2S,3R)-1,3-dihydroxyoctadec-4-en-2-yl]heptadecanamide
Formula: C35H69NO3
Exact mass: 551.5277
SMILES: OC[C@H](NC(CCCCCCCCCCCCCCCC)=O)[C@H](O)/C=C/CCCCCCCCCCCCC
InChI: InChI=1S/C35H69NO3/c1-3-5-7-9-11-13-15-17-19-21-23-25-27-29-31-35(39)36-33(32-37)34(38)30-28-26-24-22-20-18-16-14-12-10-8-6-4-2/h28,30,33-34,37-38H,3-27,29,31-32H2,1-2H3,(H,36,39)/b30-28+/t33-,34+/m0/s1
Instrument: Agilent 6560 QTOF
Instrument type: LC-ESI-QTOF
Ms type: MS2
Ion mode: NEGATIVE
Ionization: ESI
Fragmentation mode: CID
Collision energy: 10 eV
Resolution: 7000
Column name: N/A
Retention time: 0.219 min
Base peak: 610.5424
Precursor m/z: 596.5259
Precursor type: [M+HCOOH-H]-
Precursor intensity: 14775
m/z	relative intensity	assigned
126.0926	40	C7H12NO-
255.2335	51	C16H31O2-
259.2974	77	C17H39O-
270.2423	62	C13H34O5-
282.9907	161	C17HNO4-
309.3953	32	C16H53O4-
374.9872	80	C26HNO3-
377.5294	58	C23H69O2-
474.1796	87	C32H26O4-
520.5146	24	C34H66NO2-
536.5053	161	C34H66NO3-
550.5227	999	C35H68NO3-
551.5205	627	C35H69NO3-
596.5218	323	C36H70NO5-
