Mass spectrum: beta-Carotene; LC-ESI-QTOF; MS2; CE: 20eV; R=7000; [M]+
Name: beta-Carotene
Name: 1,3,3-trimethyl-2-[(1E,3E,5E,7E,9E,11E,13E,15E,17E)-3,7,12,16-tetramethyl-18-(2,6,6-trimethylcyclohexen-1-yl)octadeca-1,3,5,7,9,11,13,15,17-nonaenyl]cyclohexene
Formula: C40H56
Exact mass: 536.4382
SMILES: CC1=C(C(CCC1)(C)C)/C=C/C(=C/C=C/C(=C/C=C/C=C(/C=C/C=C(/C=C/C2=C(CCCC2(C)C)C)\C)\C)/C)/C
InChI: InChI=1S/C40H56/c1-31(19-13-21-33(3)25-27-37-35(5)23-15-29-39(37,7)8)17-11-12-18-32(2)20-14-22-34(4)26-28-38-36(6)24-16-30-40(38,9)10/h11-14,17-22,25-28H,15-16,23-24,29-30H2,1-10H3/b12-11+,19-13+,20-14+,27-25+,28-26+,31-17+,32-18+,33-21+,34-22+
Instrument: Agilent 6560 QTOF
Instrument type: LC-ESI-QTOF
Ms type: MS2
Ion mode: POSITIVE
Ionization: ESI
Fragmentation mode: CID
Collision energy: 20 eV
Resolution: 7000
Column name: Direct injection
Retention time: 0.325 min
Base peak: 647.4612
Precursor m/z: 536.4377
Precursor type: [M]+
Precursor intensity: 26214
m/z	relative intensity	assigned
105.0709	624	C8H9+
107.0871	541	C8H11+
119.0856	446	C9H11+
121.0988	77	C9H13+
133.1031	196	C10H13+
136.1255	269	C10H16+
137.1297	178	C10H17+
144.0905	91	C11H12+
145.1011	223	C11H13+
147.1178	371	C11H15+
157.0997	304	C12H13+
161.1326	439	C12H17+
169.0989	128	C13H13+
171.1159	550	C13H15+
173.1346	414	C13H17+
177.1644	222	C13H21+
181.1026	68	C14H13+
183.1138	81	C14H15+
187.1477	267	C14H19+
197.1301	82	C15H17+
201.1624	88	C15H21+
208.1249	440	C16H16+
209.1308	203	C16H17+
211.1499	254	C16H19+
216.1891	258	C16H24+
221.1325	56	C17H17+
223.1472	280	C17H19+
237.1633	519	C18H21+
243.2091	155	C18H27+
256.2135	146	C19H28+
267.2118	76	C20H27+
273.164	115	C21H21+
276.1852	54	C21H24+
321.258	187	C24H33+
331.239	161	C25H31+
378.3203	190	C28H42+
429.3479	86	C32H45+
430.3579	71	C32H46+
444.3765	999	C33H48+
445.378	506	C33H49+
456.3712	438	C34H48+
536.4355	284	C40H56+
