Mass spectrum: Retinoic acid; LC-ESI-QTOF; MS2; CE: 20eV; R=7000; [M-H]-
Name: Retinoic acid
Name: Tretinoin
Name: (2E,4E,6E,8E)-3,7-dimethyl-9-(2,6,6-trimethylcyclohexen-1-yl)nona-2,4,6,8-tetraenoic acid
Formula: C20H28O2
Exact mass: 300.2089
SMILES: C\C(\C=C\C1=C(C)CCCC1(C)C)=C/C=C/C(/C)=C/C(O)=O
InChI: InChI=1S/C20H28O2/c1-15(8-6-9-16(2)14-19(21)22)11-12-18-17(3)10-7-13-20(18,4)5/h6,8-9,11-12,14H,7,10,13H2,1-5H3,(H,21,22)/b9-6+,12-11+,15-8+,16-14+
Instrument: Agilent 6560 QTOF
Instrument type: LC-ESI-QTOF
Ms type: MS2
Ion mode: NEGATIVE
Ionization: ESI
Fragmentation mode: CID
Collision energy: 20 eV
Resolution: 7000
Column name: N/A
Retention time: 0.168 min
Base peak: 255.233
Precursor m/z: 299.2017
Precursor type: [M-H]-
Precursor intensity: 46328
m/z	relative intensity	assigned
79.0558	212	C6H7-
93.0731	66	C7H9-
105.0721	150	C8H9-
119.0861	654	C9H11-
131.0884	57	C10H11-
169.1017	112	C13H13-
197.1362	47	C15H17-
199.1497	38	C15H19-
225.1306	16	C16H17O-
239.1781	93	C18H23-
255.2122	999	C19H27-
