Mass spectrum: GUANOSINEDIPHOSPHATEMANNOSE; LC-ESI-QTOF; MS2; CE: 10eV; R=5000; [M+H]+
Name: GUANOSINEDIPHOSPHATEMANNOSE
Name: CID 18396
Name: [[(2R,3S,4R,5R)-5-(2-amino-6-oxo-3H-purin-9-yl)-3,4-dihydroxyoxolan-2-yl]methoxy-hydroxyphosphoryl] [(2R,3S,4S,5S,6R)-3,4,5-trihydroxy-6-(hydroxymethyl)oxan-2-yl] hydrogen phosphate
Formula: C16H25N5O16P2
Exact mass: 605.0772
SMILES: NC1=NC2=C(N=CN2[C@@H]2O[C@H](COP(O)(=O)OP(O)(=O)O[C@H]3O[C@H](CO)[C@@H](O)[C@H](O)[C@@H]3O)[C@@H](O)[C@H]2O)C(=O)N1
InChI: InChI=1S/C16H25N5O16P2/c17-16-19-12-6(13(28)20-16)18-3-21(12)14-10(26)8(24)5(34-14)2-33-38(29,30)37-39(31,32)36-15-11(27)9(25)7(23)4(1-22)35-15/h3-5,7-11,14-15,22-27H,1-2H2,(H,29,30)(H,31,32)(H3,17,19,20,28)/t4-,5-,7-,8-,9+,10-,11+,14-,15-/m1/s1
Instrument: Agilent 6530 QTOF
Instrument type: LC-ESI-QTOF
Ms type: MS2
Ion mode: POSITIVE
Ionization: ESI
Fragmentation mode: CID
Collision energy: 10 eV
Resolution: 5000
Column name: N/A
Retention time: 0.356 min
Base peak: 121.0508
Precursor m/z: 606.0844
Precursor type: [M+H]+
Precursor intensity: 24302
m/z	relative intensity	assigned
96.0125	11	CH8NP2+
102.9761	14	C2H3NP2+
110.0286	95	C2H10NP2+
121.9571	7	CH2NO2P2+
123.0911	33	C7H11N2+
136.9431	5	CHNO3P2+
144.9972	6	C5H7OP2+
146.1807	4	C4H25N3P+
150.9861	29	C7H5P2+
152.0523	999	CH12O8+
153.1385	14	C9H17N2+
199.0245	6	H13N2O6P2+
207.0906	13	C5H21O4P2+
215.0939	16	C13H13NO2+
238.1337	4	C15H16N3+
245.9106	6	C6O7P2+
273.0782	1	C14H14N2O2P+
273.9425	12	C2N3O13+
280.2119	8	C14H26N5O+
293.8817	5	C2O13P2+
300.9627	11	C10N5O5P+
302.0515	14	C3H18N3O9P2+
338.0103	8	C14H12O6P2+
351.1883	8	C16H25N5O4+
364.0718	21	C9H18NO14+
395.8665	1	C3N3O16P2+
440.0668	15	C14H18NO15+
444.0266	778	C13H10N5O13+
445.9536	3	C11H6N5O11P2+
512.9977	2	C16H9N4O16+
585.0261	7	C16H19N4O16P2+
