Mass spectrum: Bis(2-butoxyethyl) 3?-hydroxy-2-butoxyethyl phosphate ; LC-ESI-QTOF; MS2; CE: 25eV; R=7000; [M+H]+
Name: Bis(2-butoxyethyl) 3?-hydroxy-2-butoxyethyl phosphate 
Name: Bis(2-butoxyethyl) 3-hydroxyl-2-butoxyethyl phosphate
Name: bis(2-butoxyethyl) 2-(3-hydroxybutoxy)ethyl phosphate
Formula: C18H39O8P
Exact mass: 414.2383
SMILES: CCCCOCCOP(=O)(OCCOCCCC)OCCOCCC(C)O
InChI: InChI=1S/C18H39O8P/c1-4-6-9-21-12-15-24-27(20,25-16-13-22-10-7-5-2)26-17-14-23-11-8-18(3)19/h18-19H,4-17H2,1-3H3
Instrument: Agilent 6560 QTOF
Instrument type: LC-ESI-QTOF
Ms type: MS2
Ion mode: POSITIVE
Ionization: ESI
Fragmentation mode: CID
Collision energy: 25 eV
Resolution: 7000
Retention time: 0.148 min
Base peak: 415.2481
Precursor m/z: 415.2455
Precursor type: [M+H]+
Precursor intensity: 228246.63
m/z	relative intensity	assigned
55.0547	999	C4H7+
57.0703	774	C4H9+
59.0494	94	C3H7O+
69.0693	48	C5H9+
71.0495	122	C4H7O+
73.0647	55	C4H9O+
79.0541	5	C6H7+
81.0701	49	C6H9+
83.0853	167	C6H11+
89.0595	8	C4H9O2+
98.9841	527	H4O4P+
101.0959	41	C6H13O+
121.1006	3	C9H13+
124.9994	217	C2H6O4P+
140.9945	15	C2H6O5P+
143.0101	276	C2H8O5P+
144.0139	3	C9H5P+
151.0166	6	C4H8O4P+
155.0101	42	C3H8O5P+
169.0252	9	C4H10O5P+
187.0355	11	C4H12O6P+
197.0583	13	C6H14O5P+
199.0732	76	C6H16O5P+
243.0987	49	C8H20O6P+
255.0999	5	C9H20O6P+
297.1462	6	C12H26O6P+
