Mass spectrum: Cortisone; LC-ESI-QTOF; MS2; CE: 40eV; R=7000; [M+Cl]-
Name: Cortisone
Name: (8S,9S,10R,13S,14S,17R)-17-hydroxy-17-(2-hydroxyacetyl)-10,13-dimethyl-1,2,6,7,8,9,12,14,15,16-decahydrocyclopenta[a]phenanthrene-3,11-dione
Formula: C21H28O5
Exact mass: 360.1937
SMILES: C[C@]12CCC(=O)C=C1CC[C@@H]3[C@@H]2C(=O)C[C@]4([C@H]3CC[C@@]4(C(=O)CO)O)C
InChI: InChI=1S/C21H28O5/c1-19-7-5-13(23)9-12(19)3-4-14-15-6-8-21(26,17(25)11-22)20(15,2)10-16(24)18(14)19/h9,14-15,18,22,26H,3-8,10-11H2,1-2H3/t14-,15-,18+,19-,20-,21-/m0/s1
Instrument: Agilent 6560 QTOF
Instrument type: LC-ESI-QTOF
Ms type: MS2
Ion mode: NEGATIVE
Ionization: ESI
Fragmentation mode: CID
Collision energy: 40 eV
Resolution: 7000
Column name: N/A
Retention time: 0.168 min
Base peak: 327.1607
Precursor m/z: 395.1631
Precursor type: [M+Cl]-
Precursor intensity: 616075
m/z	relative intensity	assigned
70.0068	50	C3H2O2-
77.0818	47	H13O4-
80.0841	51	C3H12O2-
82.1929	63	C2H26O2-
86.0516	46	C2H11ClO-
87.2139	41	C5H27-
89.0229	375	C3H5O3-
89.0395	72	C7H5-
90.0827	50	C2H15ClO-
91.1356	41	C2H19O3-
92.0053	43	C3H5ClO-
93.1403	60	C3H22Cl-
94.9909	63	C2H4ClO2-
95.123	69	C2H20ClO-
95.9642	47	CHClO3-
97.044	40	C3H10ClO-
99.1049	44	C3H15O3-
100.1336	49	H20O5-
102.0452	43	C2H11ClO2-
102.1033	59	ClH19O3-
102.1847	53	CH26O4-
103.0752	50	C5H11O2-
103.1479	43	CH24ClO2-
105.1152	46	C2H17O4-
108.1939	40	H28O5-
111.1207	44	C8H15-
111.9777	46	C4O4-
112.11	53	C4H16O3-
112.2209	46	C7H28-
112.9855	56	C4HO4-
114.1731	44	C3H27ClO-
114.9952	57	C5H4ClO-
115.0791	46	C6H11O2-
115.0915	47	C4H16ClO-
116.0043	53	C5H5ClO-
116.0664	62	C2H12O5-
116.082	50	ClH17O4-
116.1779	43	C5H24O2-
117.0477	43	C6H10Cl-
117.9681	60	ClH3O5-
119.1036	53	ClH20O4-
119.1635	50	C4H23O3-
121.029	40	C7H5O2-
122.0513	50	C5H11ClO-
122.0742	57	C8H10O-
125.0759	57	C5H14ClO-
125.139	66	C2H21O5-
126.9935	57	C6H4ClO-
127.186	51	C4H28ClO-
129.1509	47	C5H21O3-
131.0476	379	C3H12ClO3-
131.0833	66	C4H16ClO2-
131.9756	60	C8HCl-
132.0344	53	C6H9ClO-
132.0711	66	C7H13Cl-
132.1519	44	C8H20O-
133.1398	47	C5H22ClO-
134.1303	47	C7H18O2-
135.0475	56	C8H7O2-
135.2112	50	C9H27-
136.0354	51	C4H8O5-
136.0492	381	C2H13ClO4-
137.0604	889	C8H9O2-
137.0834	184	C5H13O4-
137.1699	46	C5H26ClO-
138.0082	47	C4H7ClO3-
138.0674	692	C2H15ClO4-
138.136	67	C4H23ClO2-
138.1956	73	C8H26O-
139.043	65	C7H7O3-
139.1466	58	C4H24ClO2-
140.1417	64	C6H20O3-
141.1523	43	C6H21O3-
143.0847	43	C5H16ClO2-
144.0912	60	C5H17ClO2-
145.067	47	C10H9O-
147.0469	51	C9H7O2-
147.099	44	CH20ClO5-
148.0841	43	C4H17ClO3-
149.9868	59	C8H3ClO-
152.1232	47	C10H16O-
153.0893	50	C3H18ClO4-
153.1529	56	C7H21O3-
157.1789	46	C7H25O3-
158.0539	62	C8H11ClO-
158.15	59	C6H22O4-
158.9655	53	C9ClO-
159.1847	47	C8H28Cl-
161.1782	43	C6H25O4-
162.0659	50	C4H15ClO4-
165.0512	53	C3H14ClO5-
167.9821	57	C4H5ClO5-
168.1361	40	C7H20O4-
169.154	64	C5H26ClO3-
170.0187	49	C14H2-
170.1328	66	C10H18O2-
171.1734	46	C5H28ClO3-
172.0202	43	C10H4O3-
172.1058	56	C3H21ClO5-
174.104	59	C12H14O-
174.9978	50	C10H4ClO-
175.0315	50	C11H8Cl-
175.1463	49	C7H24ClO2-
177.0025	46	C12HO2-
179.1185	61	C9H20ClO-
179.9734	57	C12HCl-
180.0023	43	C15-
182.077	57	C13H10O-
183.0103	999	C11H3O3-
183.0829	92	C13H11O-
184.0633	43	C10H13ClO-
184.1311	57	C7H20O5-
186.1755	40	C9H27ClO-
188.0369	50	C12H9Cl-
188.962	46	C6H2ClO5-
189.1451	43	C4H26ClO5-
190.017	44	C11H7ClO-
190.1152	47	C10H19ClO-
190.1478	43	C11H23Cl-
192.0309	65	C11H9ClO-
192.1455	40	C7H25ClO3-
193.1052	57	C8H17O5-
195.1138	57	C9H20ClO2-
198.0444	50	C10H11ClO2-
198.1495	63	C8H22O5-
199.1735	44	C12H23O2-
201.9791	44	C11H3ClO2-
202.0447	53	C15H6O-
203.1332	46	C10H19O4-
204.0428	59	C11H8O4-
204.0805	58	C12H12O3-
204.1781	47	C11H24O3-
205.0662	64	C15H9O-
205.0901	57	C12H13O3-
205.1117	49	C9H17O5-
208.0293	57	C11H9ClO2-
208.1864	60	C14H24O-
209.1232	50	C12H17O3-
209.1774	47	C10H25O4-
210.0472	46	C17H6-
211.0532	57	C11H12ClO2-
212.0493	50	C13H8O3-
214.0514	57	C14H11Cl-
214.0982	47	C8H19ClO4-
215.1575	62	C13H24Cl-
215.9794	44	C15HCl-
216.0421	40	C12H8O4-
217.1059	40	C10H17O5-
218.0139	47	C12H7ClO2-
219.1353	50	C8H24ClO4-
220.0535	53	C15H8O2-
220.9799	50	C14H2ClO-
221.0204	40	C8H10ClO5-
222.0835	60	C13H15ClO-
222.1223	40	C7H23ClO5-
222.1775	56	C12H27ClO-
224.1321	53	C14H21Cl-
224.9955	51	C10H6ClO4-
226.971	59	C16Cl-
227.0075	40	C10H8ClO4-
227.9734	47	C16HCl-
228.1332	76	C12H20O4-
229.0669	50	C17H9O-
229.1129	40	C11H17O5-
230.0372	47	C16H6O2-
231.0337	44	C12H7O5-
233.0868	53	C13H13O4-
234.0531	43	C12H10O5-
236.0153	44	C14H4O4-
237.0481	43	C16H10Cl-
237.0974	44	C16H13O2-
237.1434	63	C15H22Cl-
239.0724	43	C15H11O3-
240.1491	49	C11H25ClO3-
240.2145	44	C15H28O2-
243.1692	50	C11H28ClO3-
243.1955	43	C14H27O3-
244.087	53	C12H17ClO3-
244.222	46	C18H28-
246.9444	60	C11ClO5-
248.0228	50	C13H9ClO3-
248.0496	46	C16H8O3-
249.1832	53	C16H25O2-
250.1962	47	C16H26O2-
250.9776	53	C11H4ClO5-
252.0301	50	C16H9ClO-
254.0684	53	C13H15ClO3-
254.2095	43	C19H26-
254.9476	43	C13ClO4-
255.0428	51	C12H12ClO4-
255.1966	60	C15H27O3-
256.0004	57	C20O-
256.0388	47	C14H8O5-
256.0688	60	C16H13ClO-
259.069	45	C12H16ClO4-
259.1373	45	C16H19O3-
259.9755	57	C15O5-
260.0687	43	C14H12O5-
262.1982	46	C17H26O2-
264.0378	44	C17H9ClO-
264.1057	50	C14H16O5-
264.9678	47	C15H2ClO3-
266.0626	47	C16H10O4-
267.0076	56	C12H8ClO5-
267.0976	43	C11H20ClO5-
268.064	44	C17H13ClO-
268.1381	40	C14H20O5-
269.1404	64	C14H21O5-
270.9503	47	C13ClO5-
271.032	50	C19H8Cl-
271.1717	47	C18H23O2-
271.9733	53	C16O5-
273.0268	56	C15H10ClO3-
274.9955	53	C16H3O5-
275.9956	63	C17H5ClO2-
277.1907	50	C21H25-
277.9985	64	C13H7ClO5-
278.1048	53	C16H19ClO2-
279.1861	63	C18H28Cl-
281.0818	53	C17H13O4-
282.0323	43	C19H6O3-
282.0726	50	C20H10O2-
283.9932	43	C21O2-
284.1815	56	C19H24O2-
284.9942	50	C15H6ClO4-
285.0411	40	C20H10Cl-
285.1864	46	C19H25O2-
285.9697	59	C14H3ClO5-
286.0298	54	C18H6O4-
287.0493	50	C16H12ClO3-
288.003	46	C17H4O5-
288.1434	40	C15H25ClO3-
288.2042	59	C19H28O2-
288.986	80	C21H2Cl-
290.0197	50	C17H6O5-
290.0516	47	C19H11ClO-
293.0677	47	C19H14ClO-
293.1374	54	C16H21O5-
294.104	55	C16H19ClO3-
294.1774	53	C18H27ClO-
295.0393	40	C20H7O3-
295.1869	45	C18H28ClO-
296.1272	43	C20H21Cl-
297.165	44	C17H26ClO2-
298.0395	50	C17H11ClO3-
298.1494	47	C20H23Cl-
299.1448	47	C16H24ClO3-
300.0021	47	C19H5ClO2-
300.0714	119	C21H13Cl-
300.1065	46	C17H16O5-
301.9951	57	C15H7ClO5-
304.0329	43	C19H9ClO2-
307.0004	41	C20H3O4-
308.1207	50	C17H21ClO3-
308.2002	40	C18H28O4-
310.1216	40	C19H18O4-
310.9852	40	C20H4ClO2-
311.1287	46	C19H19O4-
311.1521	43	C21H24Cl-
311.1876	207	C17H27O5-
312.1529	53	C17H25ClO3-
312.191	64	C17H28O5-
314.1069	57	C19H19ClO2-
315.0012	40	C16H8ClO5-
315.0827	50	C18H16ClO3-
315.1477	44	C20H24ClO-
316.0658	49	C21H13ClO-
319.0842	46	C21H16ClO-
320.0762	53	C17H17ClO4-
321.0133	43	C21H5O4-
321.9709	52	C17H3ClO5-
322.1504	67	C15H27ClO5-
325.1362	45	C21H22ClO-
326.1446	356	C21H23ClO-
329.0742	63	C21H13O4-
330.0123	46	C20H7ClO3-
332.0666	47	C20H12O5-
332.1566	53	C20H25ClO2-
332.9673	46	C18H2ClO5-
334.0991	49	C18H19ClO4-
335.0713	50	C17H16ClO5-
335.1449	43	C19H24ClO3-
336.1285	66	C21H20O4-
337.1276	43	C18H22ClO4-
339.005	46	C18H8ClO5-
340.0935	63	C20H17ClO3-
341.1415	52	C20H21O5-
342.0677	47	C19H15ClO4-
342.1299	46	C17H23ClO5-
342.1786	57	C21H26O4-
343.9797	62	C20H5ClO4-
344.0216	50	C21H9ClO3-
344.1436	46	C17H25ClO5-
345.974	47	C19H3ClO5-
347.0777	57	C18H16ClO5-
347.1107	46	C19H20ClO4-
349.0839	46	C18H18ClO5-
355.9846	51	C21H5ClO4-
360.0188	40	C21H9ClO4-
361.1275	40	C20H22ClO4-
364.1081	53	C19H21ClO5-
364.149	53	C20H25ClO4-
367.9553	63	C21HClO5-
373.9986	53	C21H7ClO5-
379.0319	43	C21H12ClO5-
