Mass spectrum: Cortisol; LC-ESI-QTOF; MS2; CE: 40eV; R=7000; [M+CH3COO]-
Name: Cortisol
Name: Hydrocortisone
Name: (8S,9S,10R,11S,13S,14S,17R)-11,17-dihydroxy-17-(2-hydroxyacetyl)-10,13-dimethyl-2,6,7,8,9,11,12,14,15,16-decahydro-1H-cyclopenta[a]phenanthren-3-one
Formula: C21H30O5
Exact mass: 362.2093
SMILES: C[C@]12CCC(=O)C=C1CC[C@@H]3[C@@H]2[C@H](C[C@]4([C@H]3CC[C@@]4(C(=O)CO)O)C)O
InChI: InChI=1S/C21H30O5/c1-19-7-5-13(23)9-12(19)3-4-14-15-6-8-21(26,17(25)11-22)20(15,2)10-16(24)18(14)19/h9,14-16,18,22,24,26H,3-8,10-11H2,1-2H3/t14-,15-,16-,18+,19-,20-,21-/m0/s1
Instrument: Agilent 6560 QTOF
Instrument type: LC-ESI-QTOF
Ms type: MS2
Ion mode: NEGATIVE
Ionization: ESI
Fragmentation mode: CID
Collision energy: 40 eV
Resolution: 7000
Column name: N/A
Retention time: 0.169 min
Base peak: 421.224
Precursor m/z: 421.2232
Precursor type: [M+CH3COO]-
Precursor intensity: 209313
m/z	relative intensity	assigned
79.0536	9	C6H7-
90.0311	1	C3H6O3-
95.0495	19	C6H7O-
97.0654	15	C6H9O-
107.0493	39	C7H7O-
109.0637	10	C7H9O-
109.1972	2	C7H25-
121.0651	12	C8H9O-
121.0867	1	C5H13O3-
123.0444	22	C7H7O2-
123.081	43	C8H11O-
125.0607	383	C7H9O2-
135.0426	12	C8H7O2-
135.0818	38	C9H11O-
135.1457	2	H23O7-
143.0478	6	C10H7O-
147.0793	20	C10H11O-
149.0938	12	C10H13O-
151.0772	14	C9H11O2-
151.9867	1	C10O2-
156.056	7	C11H8O-
159.0442	22	C10H7O2-
159.081	7	C11H11O-
161.0612	30	C10H9O2-
161.097	13	C11H13O-
163.1122	7	C11H15O-
172.0492	2	C11H8O2-
173.0609	6	C11H9O2-
173.0932	8	C12H13O-
174.0663	2	C11H10O2-
175.0751	17	C11H11O2-
175.112	7	C12H15O-
183.0107	5	C11H3O3-
189.0922	184	C12H13O2-
190.1731	2	C14H22-
199.1144	6	C14H15O-
202.0092	5	C7H6O7-
209.097	6	C15H13O-
211.1478	3	C16H19-
241.1216	8	C16H17O2-
253.1565	5	C18H21O-
259.1362	5	C16H19O3-
264.1108	6	C18H16O2-
269.1569	15	C18H21O2-
279.1401	26	C19H19O2-
280.1371	19	C15H20O5-
280.209	2	C17H28O3-
282.1263	999	C18H18O3-
283.1283	104	C18H19O3-
285.1808	4	C19H25O2-
287.1659	8	C18H23O3-
295.1335	16	C19H19O3-
297.1499	539	C19H21O3-
298.1525	48	C19H22O3-
298.2033	3	C13H30O7-
300.0571	3	C23H8O-
301.1747	12	C19H25O3-
301.9821	5	C17H2O6-
309.1536	1	C20H21O3-
310.1568	11	C20H22O3-
313.1788	42	C20H25O3-
314.0592	3	C20H10O4-
314.1857	8	C20H26O3-
315.164	55	C19H23O4-
331.1541	3	C19H23O5-
331.1899	36	C20H27O4-
343.1874	4	C21H27O4-
344.1965	2	C21H28O4-
