Mass spectrum: Tris(2-butoxyethyl) phosphate; LC-ESI-QTOF; MS2; CE: 15eV; R=7000; [M+H]+
Name: Tris(2-butoxyethyl) phosphate
Formula: C18H39O7P
Exact mass: 398.2433
SMILES: CCCCOCCOP(=O)(OCCOCCCC)OCCOCCCC
InChI: InChI=1S/C18H39O7P/c1-4-7-10-20-13-16-23-26(19,24-17-14-21-11-8-5-2)25-18-15-22-12-9-6-3/h4-18H2,1-3H3
Instrument: Agilent 6560 QTOF
Instrument type: LC-ESI-QTOF
Ms type: MS2
Ion mode: POSITIVE
Ionization: ESI
Fragmentation mode: CID
Collision energy: 15 eV
Resolution: 7000
Retention time: 0.114 min
Base peak: 399.2511
Precursor m/z: 399.2506
Precursor type: [M+H]+
Precursor intensity: 20699.89
m/z	relative intensity	assigned
55.0549	456	C4H7+
57.0706	999	C4H9+
59.0503	97	C3H7O+
83.0864	218	C6H11+
98.9837	99	H4O4P+
124.9996	51	C2H6O4P+
143.0092	252	C2H8O5P+
199.0725	763	C6H16O5P+
299.1629	292	C12H28O6P+
399.2525	61	C18H40O7P+
