Mass spectrum: TYRAMINE; LC-ESI-QTOF; MS2; CE: 10eV; R=5000; [M+H]+
Name: TYRAMINE
Name: 4-(2-aminoethyl)phenol
Formula: C8H11NO
Exact mass: 137.0841
SMILES: NCCC1=CC=C(O)C=C1
InChI: InChI=1S/C8H11NO/c9-6-5-7-1-3-8(10)4-2-7/h1-4,10H,5-6,9H2
Instrument: Agilent 6530 QTOF
Instrument type: LC-ESI-QTOF
Ms type: MS2
Ion mode: POSITIVE
Ionization: ESI
Fragmentation mode: CID
Collision energy: 10 eV
Resolution: 5000
Column name: N/A
Retention time: 0.287 min
Base peak: 121.0653
Precursor m/z: 138.0913
Precursor type: [M+H]+
Precursor intensity: 1901482
m/z	relative intensity	assigned
51.0219	9	C4H3+
65.037	8	C5H5+
77.0377	211	C6H5+
79.0542	2	C6H7+
81.0328	1	C5H5O+
91.0522	163	C7H7+
93.0681	161	C7H9+
103.0521	180	C8H7+
121.062	999	C8H9O+
122.098	1	C8H12N+
