Mass spectrum: N-Palmitoyl-D-sphingosine; LC-ESI-QTOF; MS2; CE: 10eV; R=7000; [M+CH3COO]-
Name: N-Palmitoyl-D-sphingosine
Name: N-Palmitoylsphingosine
Name: N-[(E,2S,3R)-1,3-dihydroxyoctadec-4-en-2-yl]hexadecanamide
Formula: C34H67NO3
Exact mass: 537.5121
SMILES: [H][C@@](CO)(NC(=O)CCCCCCCCCCCCCCC)[C@H](O)\C=C\CCCCCCCCCCCCC
InChI: InChI=1S/C34H67NO3/c1-3-5-7-9-11-13-15-17-19-21-23-25-27-29-33(37)32(31-36)35-34(38)30-28-26-24-22-20-18-16-14-12-10-8-6-4-2/h27,29,32-33,36-37H,3-26,28,30-31H2,1-2H3,(H,35,38)/b29-27+/t32-,33+/m0/s1
Instrument: Agilent 6560 QTOF
Instrument type: LC-ESI-QTOF
Ms type: MS2
Ion mode: NEGATIVE
Ionization: ESI
Fragmentation mode: CID
Collision energy: 10 eV
Resolution: 7000
Column name: N/A
Retention time: 0.143 min
Base peak: 596.5276
Precursor m/z: 596.5259
Precursor type: [M+CH3COO]-
Precursor intensity: 581850
m/z	relative intensity	assigned
119.4608	1	C5H59-
167.0737	1	C12H9N-
237.2221	7	C16H29O-
254.2485	9	C16H32NO-
255.2315	1	C16H31O2-
263.2362	6	C18H31O-
264.241	2	C18H32O-
280.2644	23	C18H34NO-
281.2697	2	C15H37O4-
296.2597	6	C18H34NO2-
298.2737	3	C15H38O5-
372.4208	1	C24H54NO-
502.2331	2	C34H32NO3-
504.4834	3	C33H62NO2-
506.492	9	C30H66O5-
521.3283	1	C33H45O5-
533.2192	1	C34H31NO5-
533.3709	1	C35H49O4-
533.487	1	C34H63NO3-
534.0354	1	C36H8NO5-
536.5056	999	C34H66NO3-
537.5082	173	C34H67NO3-
539.4284	1	C35H57NO3-
596.5236	5	C36H70NO5-
