Mass spectrum: Hydroxy-L-Proline Standard; LC-ESI-QTOF; MS2; CE: 10eV; R=5000; [M+H]+
Name: Hydroxy-L-Proline Standard
Name: Hydroxyproline
Name: (2S,4R)-4-hydroxypyrrolidine-2-carboxylic acid
Formula: C5H9NO3
Exact mass: 131.05824
SMILES: C1[C@H](CN[C@@H]1C(=O)O)O
InChI: InChI=1S/C5H9NO3/c7-3-1-4(5(8)9)6-2-3/h3-4,6-7H,1-2H2,(H,8,9)/t3-,4+/m1/s1
Instrument: Agilent 6530 QTOF
Instrument type: LC-ESI-QTOF
Ms type: MS2
Ion mode: POSITIVE
Ionization: ESI
Fragmentation mode: CID
Collision energy: 10 eV
Resolution: 5000
Column name: N/A
Retention time: 0.215 min
Base peak: 132.0655
Precursor m/z: 132.0655
Precursor type: [M+H]+
Precursor intensity: 805499
m/z	relative intensity	assigned
41.0395	111	C3H5+
68.0505	612	C4H6N+
86.0606	999	C4H8NO+
96.0432	2	C5H6NO+
114.054	18	C5H8NO2+
132.0654	434	C5H10NO3+
