Mass spectrum: 2-(Methylthio)benzothiazole; LC-ESI-QTOF; MS2; CE: 40eV; R=7000; [M+H]+
Name: 2-(Methylthio)benzothiazole
Name: 2-methylsulfanyl-1,3-benzothiazole
Formula: C8H7NS2
Exact mass: 181.002
SMILES: CSC1=NC2=CC=CC=C2S1
InChI: InChI=1S/C8H7NS2/c1-10-8-9-6-4-2-3-5-7(6)11-8/h2-5H,1H3
Instrument: Agilent 6560 QTOF
Instrument type: LC-ESI-QTOF
Ms type: MS2
Ion mode: POSITIVE
Ionization: ESI
Fragmentation mode: CID
Collision energy: 40 eV
Resolution: 7000
Column name: ZORBAX Extend-C18 3.5um, 2.1x50mm, Agilent Technologies
Retention time: 5.564 min
Base peak: 182.0093
Precursor m/z: 182.0093
Precursor type: [M+H]+
Precursor intensity: 27270.97
m/z	relative intensity	assigned
63.9435	278	S2+
64.0315	257	C5H4+
65.0387	633	C5H5+
68.9791	98	C3HS+
69.9877	89	C3H2S+
76.0312	94	C6H4+
77.0383	167	C6H5+
81.987	157	C4H2S+
91.0419	321	C6H5N+
96.0029	340	C5H4S+
108.0036	341	C6H4S+
109.0104	840	C6H5S+
122.0067	127	C6H4NS+
123.0137	999	C6H5NS+
135.0127	337	C7H5NS+
139.9744	281	C6H4S2+
140.9709	55	C5H3NS2+
166.9853	936	C7H5NS2+
