Mass spectrum: 1,2-dihexadecanoyl-sn-glycero-3-phosphoethanolamine; LC-ESI-QTOF; MS2; CE: 20eV; R=7000; [M+Na]+
Name: 1,2-dihexadecanoyl-sn-glycero-3-phosphoethanolamine
Name: 1,2-Dipalmitoyl-sn-glycero-3-phosphoethanolamine
Name: [(2R)-3-[2-aminoethoxy(hydroxy)phosphoryl]oxy-2-hexadecanoyloxypropyl] hexadecanoate
Formula: C37H74NO8P
Exact mass: 691.5152
SMILES: CCCCCCCCCCCCCCCC(=O)OC[C@H](COP(=O)(O)OCCN)OC(=O)CCCCCCCCCCCCCCC
InChI: InChI=1S/C37H74NO8P/c1-3-5-7-9-11-13-15-17-19-21-23-25-27-29-36(39)43-33-35(34-45-47(41,42)44-32-31-38)46-37(40)30-28-26-24-22-20-18-16-14-12-10-8-6-4-2/h35H,3-34,38H2,1-2H3,(H,41,42)/t35-/m1/s1
Instrument: Agilent 6560 QTOF
Instrument type: LC-ESI-QTOF
Ms type: MS2
Ion mode: POSITIVE
Ionization: ESI
Fragmentation mode: CID
Collision energy: 20 eV
Resolution: 7000
Column name: Direct injection
Retention time: 0.238 min
Base peak: 692.5243
Precursor m/z: 714.5044
Precursor type: [M+Na]+
Precursor intensity: 14713
m/z	relative intensity	assigned
120.9644	176	H3NaO4P+
121.0793	35	C5H14OP+
164.008	999	C6H5NaO4+
239.234	35	C14H32NaO+
338.9678	58	C21NaO4+
572.9367	33	C34HNNaO6P+
573.4884	387	C33H68NO4P+
610.9392	36	C37HNaO7P+
632.9663	50	C36H5NNaO8P+
671.4659	219	C37H68O8P+
672.4676	51	C35H70NaO8P+
714.5059	462	C37H74NNaO8P+
