Mass spectrum: N-ACETYLLEUCINE; LC-ESI-QTOF; MS2; CE: 40eV; R=5000; [M+H]+
Name: N-ACETYLLEUCINE
Name: N-Acetyl-L-leucine
Name: (2S)-2-acetamido-4-methylpentanoic acid
Formula: C8H15NO3
Exact mass: 173.1052
SMILES: CC(C)C[C@H](NC(C)=O)C(O)=O
InChI: InChI=1S/C8H15NO3/c1-5(2)4-7(8(11)12)9-6(3)10/h5,7H,4H2,1-3H3,(H,9,10)(H,11,12)/t7-/m0/s1
Instrument: Agilent 6530 QTOF
Instrument type: LC-ESI-QTOF
Ms type: MS2
Ion mode: POSITIVE
Ionization: ESI
Fragmentation mode: CID
Collision energy: 40 eV
Resolution: 5000
Column name: N/A
Retention time: 0.217 min
Base peak: 174.1123
Precursor m/z: 174.1125
Precursor type: [M+H]+
Precursor intensity: 274038
m/z	relative intensity	assigned
41.0389	536	C3H5+
43.0183	759	C2H3O+
43.0543	802	C3H7+
44.0502	999	C2H6N+
86.0961	76	C5H12N+
