Mass spectrum: 1,2-dihexadecanoyl-sn-glycero-3-phosphoethanolamine; LC-ESI-QTOF; MS2; CE: 40eV; R=7000; [M+H]+
Name: 1,2-dihexadecanoyl-sn-glycero-3-phosphoethanolamine
Name: 1,2-Dipalmitoyl-sn-glycero-3-phosphoethanolamine
Name: [(2R)-3-[2-aminoethoxy(hydroxy)phosphoryl]oxy-2-hexadecanoyloxypropyl] hexadecanoate
Formula: C37H74NO8P
Exact mass: 691.5152
SMILES: CCCCCCCCCCCCCCCC(=O)OC[C@H](COP(=O)(O)OCCN)OC(=O)CCCCCCCCCCCCCCC
InChI: InChI=1S/C37H74NO8P/c1-3-5-7-9-11-13-15-17-19-21-23-25-27-29-36(39)43-33-35(34-45-47(41,42)44-32-31-38)46-37(40)30-28-26-24-22-20-18-16-14-12-10-8-6-4-2/h35H,3-34,38H2,1-2H3,(H,41,42)/t35-/m1/s1
Instrument: Agilent 6560 QTOF
Instrument type: LC-ESI-QTOF
Ms type: MS2
Ion mode: POSITIVE
Ionization: ESI
Fragmentation mode: CID
Collision energy: 40 eV
Resolution: 7000
Column name: Direct injection
Retention time: 0.182 min
Base peak: 692.5242
Precursor m/z: 692.5225
Precursor type: [M+H]+
Precursor intensity: 82791
m/z	relative intensity	assigned
71.0858	999	CH14NP+
81.0702	676	C2H12NP+
83.0857	151	C2H14NP+
85.1016	359	C2H16NP+
93.0705	39	C3H12NP+
95.0856	778	C7H11+
97.1014	230	C3H16NP+
109.1012	519	C8H13+
111.1171	46	C4H18NP+
123.1165	199	C9H15+
137.1317	48	C10H17+
138.1338	12	C2H20NO5+
151.1495	11	C7H22NP+
165.1651	9	C8H24NP+
198.0497	22	C2H15O8P+
221.2278	35	C12H32NP+
239.2351	30	C9H36O4P+
240.2406	39	C9H37O4P+
265.249	7	C11H38O4P+
279.1486	12	C15H21NO4+
282.279	351	C18H36NO+
313.2717	211	C12H42O6P+
313.3148	12	C13H45O7+
314.2763	22	C11H40NO8+
315.1582	13	C19H23O4+
449.295	25	C30H42OP+
453.1847	6	C33H25O2+
537.0699	10	C37H14O3P+
551.5043	211	C31H70NO4P+
552.3012	21	C33H45O5P+
552.5068	32	C28H73O7P+
573.4322	12	C35H60NO3P+
