Mass spectrum: N-ACETYLMANNOSAMINE; LC-ESI-QTOF; MS2; CE: 20eV; R=5000; [M+H]+
Name: N-ACETYLMANNOSAMINE
Name: N-[(2R,3S,4R,5S,6R)-2,4,5-trihydroxy-6-(hydroxymethyl)oxan-3-yl]acetamide
Formula: C8H15NO6
Exact mass: 221.0899
SMILES: [H][C@@]1(O)O[C@H](CO)[C@@H](O)[C@H](O)[C@@H]1NC(C)=O
InChI: InChI=1S/C8H15NO6/c1-3(11)9-5-7(13)6(12)4(2-10)15-8(5)14/h4-8,10,12-14H,2H2,1H3,(H,9,11)/t4-,5+,6-,7-,8-/m1/s1
Instrument: Agilent 6530 QTOF
Instrument type: LC-ESI-QTOF
Ms type: MS2
Ion mode: POSITIVE
Ionization: ESI
Fragmentation mode: CID
Collision energy: 20 eV
Resolution: 5000
Column name: N/A
Retention time: 0.219 min
Base peak: 244.0791
Precursor m/z: 222.0972
Precursor type: [M+H]+
Precursor intensity: 288989
m/z	relative intensity	assigned
41.0393	38	C3H5+
43.0181	83	C2H3O+
44.0486	5	C2H6N+
55.0543	7	C4H7+
56.0493	54	C3H6N+
60.0441	24	C2H6NO+
68.0487	9	C4H6N+
69.0327	32	C4H5O+
70.0613	15	CH10O3+
71.0487	4	C4H7O+
72.0442	13	C3H6NO+
80.0492	18	C5H6N+
81.0336	56	C5H5O+
82.026	10	CH6O4+
84.0439	999	C4H6NO+
85.0881	3	C5H11N+
86.0942	1	C2H14O3+
87.0432	8	C4H7O2+
96.0436	147	C5H6NO+
97.0279	64	C5H5O2+
98.0582	77	C2H10O4+
99.0511	16	CH9NO4+
100.0373	10	CH8O5+
103.0419	2	C7H5N+
109.0279	59	C6H5O2+
110.0602	4	C6H8NO+
124.0346	4	C3H8O5+
126.053	282	C3H10O5+
132.075	3	C6H12O3+
138.0531	336	C4H10O5+
144.0631	59	C3H12O6+
168.0653	4	C8H10NO3+
