Mass spectrum: Mono(2-ethylhexyl) phthalate; LC-ESI-QTOF; MS2; CE: 10eV; R=7000; [M-H]-
Name: Mono(2-ethylhexyl) phthalate
Name: 2-(((2-Ethylhexyl)oxy)carbonyl)benzoic acid
Name: 2-(2-ethylhexoxycarbonyl)benzoic acid
Formula: C16H22O4
Exact mass: 278.1518
SMILES: CCCCC(CC)COC(=O)C1=CC=CC=C1C(=O)O
InChI: InChI=1S/C16H22O4/c1-3-5-8-12(4-2)11-20-16(19)14-10-7-6-9-13(14)15(17)18/h6-7,9-10,12H,3-5,8,11H2,1-2H3,(H,17,18)
Instrument: Agilent 6560 QTOF
Instrument type: LC-ESI-QTOF
Ms type: MS2
Ion mode: NEGATIVE
Ionization: ESI
Fragmentation mode: CID
Collision energy: 10 eV
Resolution: 7000
Retention time: 0.147 min
Base peak: 277.1463
Precursor m/z: 277.1445
Precursor type: [M-H]-
Precursor intensity: 152467.71
m/z	relative intensity	assigned
77.0401	626	C6H5-
105.034	12	C7H5O-
107.0505	48	C7H7O-
119.0125	11	C7H3O2-
121.0295	287	C7H5O2-
127.1135	609	C8H15O-
129.1299	51	C8H17O-
134.0378	999	C8H6O2-
135.0455	63	C8H7O2-
147.0085	138	C8H3O3-
203.1406	5	C14H19O-
205.1599	42	C14H21O-
231.1374	5	C15H19O2-
233.1544	61	C15H21O2-
277.1454	469	C16H21O4-
