Mass spectrum: NORMETANEPHRINE; LC-ESI-QTOF; MS2; CE: 10eV; R=5000; [M+H]+
Name: NORMETANEPHRINE
Name: 4-(2-amino-1-hydroxyethyl)-2-methoxyphenol
Formula: C9H13NO3
Exact mass: 183.0895
SMILES: COC1=CC(=CC=C1O)C(O)CN
InChI: InChI=1S/C9H13NO3/c1-13-9-4-6(8(12)5-10)2-3-7(9)11/h2-4,8,11-12H,5,10H2,1H3
Instrument: Agilent 6530 QTOF
Instrument type: LC-ESI-QTOF
Ms type: MS2
Ion mode: POSITIVE
Ionization: ESI
Fragmentation mode: CID
Collision energy: 10 eV
Resolution: 5000
Column name: N/A
Retention time: 0.323 min
Base peak: 166.0858
Precursor m/z: 184.0968
Precursor type: [M+H]+
Precursor intensity: 105858
m/z	relative intensity	assigned
71.9841	1	C2O3+
77.0384	116	C6H5+
85.0664	1	C5H9O+
95.0482	80	C6H7O+
105.0523	28	C4H9O3+
106.0638	482	C4H10O3+
116.0485	28	C8H6N+
117.0547	48	C5H9O3+
121.0631	486	C8H9O+
124.0414	13	C6H6NO2+
124.0982	2	C4H14NO3+
134.0574	568	C8H8NO+
137.0564	11	C8H9O2+
149.0578	486	C9H9O2+
151.0618	120	C8H9NO2+
156.077	10	C8H12O3+
166.0837	999	C9H12NO2+
