Mass spectrum: Progesterone; LC-ESI-QTOF; MS2; CE: 40eV; R=7000; [M+H]+
Name: Progesterone
Name: (8S,9S,10R,13S,14S,17S)-17-acetyl-10,13-dimethyl-1,2,6,7,8,9,11,12,14,15,16,17-dodecahydrocyclopenta[a]phenanthren-3-one
Formula: C21H30O2
Exact mass: 314.2246
SMILES: CC(=O)[C@H]1CC[C@@H]2[C@@]1(CC[C@H]3[C@H]2CCC4=CC(=O)CC[C@]34C)C
InChI: InChI=1S/C21H30O2/c1-13(22)17-6-7-18-16-5-4-14-12-15(23)8-10-20(14,2)19(16)9-11-21(17,18)3/h12,16-19H,4-11H2,1-3H3/t16-,17+,18-,19-,20-,21+/m0/s1
Instrument: Agilent 6560 QTOF
Instrument type: LC-ESI-QTOF
Ms type: MS2
Ion mode: POSITIVE
Ionization: ESI
Fragmentation mode: CID
Collision energy: 40 eV
Resolution: 7000
Column name: Direct injection
Retention time: 0.155 min
Base peak: 315.2328
Precursor m/z: 315.2319
Precursor type: [M+H]+
Precursor intensity: 277675
m/z	relative intensity	assigned
71.0502	34	C4H7O+
77.0388	140	C6H5+
79.0545	369	C6H7+
80.0601	12	C6H8+
81.0705	257	C6H9+
83.0485	37	C5H7O+
85.0647	11	C5H9O+
91.0543	82	C7H7+
93.07	104	C7H9+
94.0417	18	C6H6O+
95.0496	14	C6H7O+
95.0854	98	C7H11+
97.065	999	C6H9O+
103.0531	7	C8H7+
105.0693	100	C8H9+
106.0771	13	C8H10+
107.0501	29	C7H7O+
107.0861	15	C8H11+
108.0566	5	C7H8O+
109.0648	921	C7H9O+
111.08	9	C7H11O+
115.0521	6	C9H7+
117.0696	31	C9H9+
119.0858	73	C9H11+
121.0657	16	C8H9O+
121.1011	23	C9H13+
122.0714	3	C8H10O+
123.0798	45	C8H11O+
124.0866	2	C8H12O+
128.0602	2	C10H8+
129.069	10	C10H9+
131.0838	23	C10H11+
133.0999	46	C10H13+
135.0798	3	C9H11O+
135.1152	4	C10H15+
141.0683	8	C11H9+
142.0764	9	C11H10+
143.0862	9	C11H11+
144.0918	5	C11H12+
145.1004	29	C11H13+
146.0733	4	C10H10O+
147.117	14	C11H15+
149.1907	1	C9H25O+
151.1104	5	C10H15O+
153.0669	5	C12H9+
154.0749	5	C12H10+
155.086	26	C12H11+
156.0922	7	C12H12+
157.1017	36	C12H13+
158.1102	10	C12H14+
159.1163	10	C12H15+
167.0854	5	C13H11+
168.0931	8	C13H12+
169.1052	1	C13H13+
171.1205	15	C13H15+
173.1305	14	C13H17+
181.1011	1	C14H13+
183.1156	3	C14H15+
187.1103	4	C13H15O+
198.1373	3	C15H18+
199.1432	7	C15H19+
228.1846	3	C17H24+
239.1826	4	C18H23+
