Mass spectrum: Phylloquinone; LC-ESI-QTOF; MS2; CE: 40eV; R=7000; [M+NH4]+
Name: Phylloquinone
Name: Vitamin K1
Name: 2-methyl-3-[(E,7R,11R)-3,7,11,15-tetramethylhexadec-2-enyl]naphthalene-1,4-dione
Formula: C31H46O2
Exact mass: 450.3498
SMILES: CC(C)CCC[C@@H](C)CCC[C@@H](C)CCC\C(C)=C\CC1=C(C)C(=O)C2=C(C=CC=C2)C1=O
InChI: InChI=1S/C31H46O2/c1-22(2)12-9-13-23(3)14-10-15-24(4)16-11-17-25(5)20-21-27-26(6)30(32)28-18-7-8-19-29(28)31(27)33/h7-8,18-20,22-24H,9-17,21H2,1-6H3/b25-20+/t23-,24-/m1/s1
Instrument: Agilent 6560 QTOF
Instrument type: LC-ESI-QTOF
Ms type: MS2
Ion mode: POSITIVE
Ionization: ESI
Fragmentation mode: CID
Collision energy: 40 eV
Resolution: 7000
Column name: Direct injection
Retention time: 0.209 min
Base peak: 415.2127
Precursor m/z: 468.3836
Precursor type: [M+NH4]+
Precursor intensity: 41173
m/z	relative intensity	assigned
70.0638	20	C4H8N+
71.0859	109	C5H11+
72.0436	10	C3H6NO+
81.0697	159	C6H9+
83.0855	69	C6H11+
84.0807	283	C5H10N+
85.0646	444	C5H9O+
85.1023	42	C6H13+
88.0775	9	C4H10NO+
95.0858	116	C7H11+
97.0992	43	C7H13+
102.0914	999	C5H12NO+
109.1001	31	C8H13+
121.0996	16	C9H13+
128.1068	40	C7H14NO+
159.0793	11	C11H11O+
163.1447	58	C12H19+
311.2951	771	C20H39O2+
312.2986	73	C20H40O2+
368.35	71	C23H46NO2+
