Mass spectrum: O-SUCCINYL-HOMOSERINE; LC-ESI-QTOF; MS2; CE: 10eV; R=5000; [M+H]+
Name: O-SUCCINYL-HOMOSERINE
Name: Homoserine, O-succinyl-
Name: 2-amino-4-(3-carboxypropanoyloxy)butanoic acid
Formula: C8H13NO6
Exact mass: 219.0743
SMILES: C(COC(=O)CCC(=O)O)C(C(=O)O)N
InChI: InChI=1S/C8H13NO6/c9-5(8(13)14)3-4-15-7(12)2-1-6(10)11/h5H,1-4,9H2,(H,10,11)(H,13,14)
Instrument: Agilent 6530 QTOF
Instrument type: LC-ESI-QTOF
Ms type: MS2
Ion mode: POSITIVE
Ionization: ESI
Fragmentation mode: CID
Collision energy: 10 eV
Resolution: 5000
Column name: N/A
Retention time: 0.218 min
Base peak: 121.0508
Precursor m/z: 220.0816
Precursor type: [M+H]+
Precursor intensity: 633121
m/z	relative intensity	assigned
44.0499	34	C2H6N+
46.029	1	CH4NO+
55.0189	31	C3H3O+
56.0498	280	C3H6N+
62.0611	5	C2H8NO+
73.0277	38	C3H5O2+
74.059	407	C3H8NO+
79.0526	1	C6H7+
80.0253	16	C5H4O+
84.0449	73	C4H6NO+
85.0265	9	C4H5O2+
98.0624	6	C5H8NO+
101.0236	156	C4H5O3+
102.0543	999	C4H8NO2+
104.0663	1	CH12O5+
120.0639	293	CH12O6+
121.0698	1	CH13O6+
126.0535	25	C3H10O5+
138.0541	12	C7H8NO2+
174.0788	8	C7H12NO4+
184.0573	33	C8H10NO4+
220.0796	293	C8H14NO6+
