Mass spectrum: Butyryl trihexyl citrate; LC-ESI-QTOF; MS2; CE: 10eV; R=7000; [M+Na]+
Name: Butyryl trihexyl citrate
Name: trihexyl 2-butanoyloxypropane-1,2,3-tricarboxylate
Formula: C28H50O8
Exact mass: 514.3506
SMILES: CCCCCCOC(=O)CC(CC(=O)OCCCCCC)(C(=O)OCCCCCC)OC(=O)CCC
InChI: InChI=1S/C28H50O8/c1-5-9-12-15-19-33-25(30)22-28(36-24(29)18-8-4,27(32)35-21-17-14-11-7-3)23-26(31)34-20-16-13-10-6-2/h5-23H2,1-4H3
Instrument: Agilent 6560 QTOF
Instrument type: LC-ESI-QTOF
Ms type: MS2
Ion mode: POSITIVE
Ionization: ESI
Fragmentation mode: CID
Collision energy: 10 eV
Resolution: 7000
Retention time: 0.147 min
Base peak: 537.3419
Precursor m/z: 537.3398
Precursor type: [M+Na]+
Precursor intensity: 744240.11
m/z	relative intensity	assigned
337.1981	5	C17H30NaO5+
365.1918	2	C18H30NaO6+
383.2043	2	C18H32NaO7+
449.2873	35	C24H42NaO6+
450.2905	5	C24H43NaO6+
453.245	1	C22H38NaO8+
467.2979	1	C24H44NaO7+
537.3398	999	C28H50NaO8+
