Mass spectrum: Di-n-butyl sebacate; LC-ESI-QTOF; MS2; CE: 60eV; R=7000; [M+H]+
Name: Di-n-butyl sebacate
Name: Dibutyl sebacate
Name: dibutyl decanedioate
Formula: C18H34O4
Exact mass: 314.2457
SMILES: CCCCOC(=O)CCCCCCCCC(=O)OCCCC
InChI: InChI=1S/C18H34O4/c1-3-5-15-21-17(19)13-11-9-7-8-10-12-14-18(20)22-16-6-4-2/h3-16H2,1-2H3
Instrument: Agilent 6560 QTOF
Instrument type: LC-ESI-QTOF
Ms type: MS2
Ion mode: POSITIVE
Ionization: ESI
Fragmentation mode: CID
Collision energy: 60 eV
Resolution: 7000
Retention time: 0.145 min
Base peak: 337.2371
Precursor m/z: 315.253
Precursor type: [M+H]+
Precursor intensity: 20896.53
m/z	relative intensity	assigned
55.0182	68	C3H3O+
55.0542	999	C4H7+
57.0701	31	C4H9+
67.0544	187	C5H7+
69.07	304	C5H9+
77.0386	90	C6H5+
79.0538	156	C6H7+
81.0699	188	C6H9+
83.0492	47	C5H7O+
91.0543	43	C7H7+
93.0691	165	C7H9+
95.0842	79	C7H11+
97.0652	80	C6H9O+
105.0684	46	C8H9+
