Mass spectrum: 1-(9Z-octadecenoyl)-sn-glycero-3-phosphoethanolamine; LC-ESI-QTOF; MS2; CE: 20eV; R=7000; [M+Na]+
Name: 1-(9Z-octadecenoyl)-sn-glycero-3-phosphoethanolamine
Name: [(2R)-3-[2-aminoethoxy(hydroxy)phosphoryl]oxy-2-hydroxypropyl] (Z)-octadec-9-enoate
Formula: C23H46NO7P
Exact mass: 479.3012
SMILES: CCCCCCCC/C=C\CCCCCCCC(=O)OC[C@H](COP(=O)([O-])OCC[NH3+])O
InChI: InChI=1S/C23H46NO7P/c1-2-3-4-5-6-7-8-9-10-11-12-13-14-15-16-17-23(26)29-20-22(25)21-31-32(27,28)30-19-18-24/h9-10,22,25H,2-8,11-21,24H2,1H3,(H,27,28)/b10-9-/t22-/m1/s1
Instrument: Agilent 6560 QTOF
Instrument type: LC-ESI-QTOF
Ms type: MS2
Ion mode: POSITIVE
Ionization: ESI
Fragmentation mode: CID
Collision energy: 20 eV
Resolution: 7000
Column name: Direct injection
Retention time: 0.209 min
Base peak: 480.3106
Precursor m/z: 502.2904
Precursor type: [M+Na]+
Precursor intensity: 25738
m/z	relative intensity	assigned
120.9662	20	H3NaO4P+
121.1019	16	C5H16NP+
145.9952	14	C6H3NaO3+
164.01	67	C8H4O4+
176.9903	71	C4H3NO7+
177.1619	74	C7H25NNaP+
182.0029	13	C14N+
195.0058	20	C6H7NNaO3P+
256.9625	33	C12H2O5P+
260.9604	24	C14NO3P+
262.9811	25	C12H2NNaO5+
272.9736	11	C16H2O3P+
305.2295	40	C14H34NaO5+
338.9659	188	C14H5NaO7P+
339.2889	153	C21H39O3+
361.2755	48	C19H40NO3P+
393.19	24	C21H29O7+
415.0395	28	C23H12O6P+
441.2389	109	C23H38O6P+
442.2487	51	C23H39O6P+
459.2497	999	C23H40O7P+
460.2496	196	C22H39NO7P+
484.2772	21	C23H44NNaO6P+
485.2627	34	C23H43NaO7P+
502.2921	53	C23H46NNaO7P+
