Mass spectrum: INOSINE; LC-ESI-QTOF; MS2; CE: 10eV; R=5000; [M+H]+
Name: INOSINE
Name: CID 6021
Name: 9-[(2R,3R,4S,5R)-3,4-dihydroxy-5-(hydroxymethyl)oxolan-2-yl]-3H-purin-6-one
Formula: C10H12N4O5
Exact mass: 268.08077
SMILES: OC[C@H]1O[C@H]([C@H](O)[C@@H]1O)N1C=NC2=C1N=CNC2=O
InChI: InChI=1S/C10H12N4O5/c15-1-4-6(16)7(17)10(19-4)14-3-13-5-8(14)11-2-12-9(5)18/h2-4,6-7,10,15-17H,1H2,(H,11,12,18)/t4-,6-,7-,10-/m1/s1
Instrument: Agilent 6530 QTOF
Instrument type: LC-ESI-QTOF
Ms type: MS2
Ion mode: POSITIVE
Ionization: ESI
Fragmentation mode: CID
Collision energy: 10 eV
Resolution: 5000
Column name: N/A
Retention time: 0.216 min
Base peak: 137.0455
Precursor m/z: 269.088
Precursor type: [M+H]+
Precursor intensity: 1013720
m/z	relative intensity	assigned
40.0186	1	C2H2N+
55.0282	3	C2H3N2+
73.027	1	CH3N3O+
82.0391	3	C3H4N3+
85.0276	1	C2H3N3O+
94.0425	3	C6H6O+
97.0284	1	C5H5O2+
110.0375	9	C6H6O2+
115.0393	1	C5H7O3+
119.0368	7	C7H5NO+
120.0204	1	C7H4O2+
133.0506	2	C6H5N4+
137.0473	999	C7H7NO2+
269.0894	2	C10H13N4O5+
