Mass spectrum: Isodecyl diphenyl phosphate; LC-ESI-QTOF; MS2; CE: 45eV; R=7000; [M+H]+
Name: Isodecyl diphenyl phosphate
Name: 8-methylnonyl diphenyl phosphate
Formula: C22H31O4P
Exact mass: 390.1960
SMILES: CC(C)CCCCCCCOP(=O)(OC1=CC=CC=C1)OC2=CC=CC=C2
InChI: InChI=1S/C22H31O4P/c1-20(2)14-8-4-3-5-13-19-24-27(23,25-21-15-9-6-10-16-21)26-22-17-11-7-12-18-22/h6-7,9-12,15-18,20H,3-5,8,13-14,19H2,1-2H3
Instrument: Agilent 6560 QTOF
Instrument type: LC-ESI-QTOF
Ms type: MS2
Ion mode: POSITIVE
Ionization: ESI
Fragmentation mode: CID
Collision energy: 45 eV
Resolution: 7000
Retention time: 0.109 min
Base peak: 251.0463
Precursor m/z: 391.2033
Precursor type: [M+H]+
Precursor intensity: 52051.47
m/z	relative intensity	assigned
51.0235	59	C4H3+
55.0541	12	C4H7+
57.0697	132	C4H9+
77.0387	999	C6H5+
95.0491	156	C6H7O+
129.0088	10	C5H6O2P+
151.0537	26	C12H7+
152.0614	212	C12H8+
153.0695	195	C12H9+
154.0716	16	C5H15O3P+
157.0035	9	C6H6O3P+
168.0574	39	C12H8O+
175.0144	134	C6H8O4P+
176.0201	11	C6H9O4P+
215.0243	113	C12H8O2P+
233.0365	30	C12H10O3P+
251.0448	44	C12H12O4P+
