Mass spectrum: N-ACETYLLEUCINE; LC-ESI-QTOF; MS2; CE: 20eV; R=5000; [M+H]+
Name: N-ACETYLLEUCINE
Name: N-Acetyl-L-leucine
Name: (2S)-2-acetamido-4-methylpentanoic acid
Formula: C8H15NO3
Exact mass: 173.1052
SMILES: CC(C)C[C@H](NC(C)=O)C(O)=O
InChI: InChI=1S/C8H15NO3/c1-5(2)4-7(8(11)12)9-6(3)10/h5,7H,4H2,1-3H3,(H,9,10)(H,11,12)/t7-/m0/s1
Instrument: Agilent 6530 QTOF
Instrument type: LC-ESI-QTOF
Ms type: MS2
Ion mode: POSITIVE
Ionization: ESI
Fragmentation mode: CID
Collision energy: 20 eV
Resolution: 5000
Column name: N/A
Retention time: 0.218 min
Base peak: 174.1122
Precursor m/z: 174.1125
Precursor type: [M+H]+
Precursor intensity: 660865
m/z	relative intensity	assigned
41.039	22	C3H5+
43.0184	116	C2H3O+
43.0542	120	C3H7+
44.0505	169	C2H6N+
45.0574	2	C2H7N+
53.0376	1	C4H5+
60.0452	1	C2H6NO+
69.0706	8	C5H9+
86.0967	999	C5H12N+
128.1042	4	C7H14NO+
132.1012	24	C6H14NO2+
