Mass spectrum: Tri-m-tolyl phosphate; LC-ESI-QTOF; MS2; CE: 35eV; R=7000; [M+H]+
Name: Tri-m-tolyl phosphate
Name: Tri-M-cresyl phosphate
Name: tris(3-methylphenyl) phosphate
Formula: C21H21O4P
Exact mass: 368.1177
SMILES: CC1=CC(=CC=C1)OP(=O)(OC2=CC=CC(=C2)C)OC3=CC=CC(=C3)C
InChI: InChI=1S/C21H21O4P/c1-16-7-4-10-19(13-16)23-26(22,24-20-11-5-8-17(2)14-20)25-21-12-6-9-18(3)15-21/h4-15H,1-3H3
Instrument: Agilent 6560 QTOF
Instrument type: LC-ESI-QTOF
Ms type: MS2
Ion mode: POSITIVE
Ionization: ESI
Fragmentation mode: CID
Collision energy: 35 eV
Resolution: 7000
Retention time: 0.145 min
Base peak: 391.1087
Precursor m/z: 369.125
Precursor type: [M+H]+
Precursor intensity: 139044.64
m/z	relative intensity	assigned
63.0235	9	C5H3+
65.0386	175	C5H5+
79.0532	9	C6H7+
81.0698	8	C6H9+
91.0541	999	C7H7+
92.0578	39	H13O3P+
105.069	9	C8H9+
107.0487	35	C7H7O+
108.0527	6	H13O4P+
109.0647	51	C7H9O+
115.0547	8	C9H7+
141.0692	22	C11H9+
142.0774	7	C11H10+
143.0261	7	C6H8O2P+
152.0633	20	C12H8+
153.0084	20	C7H6O2P+
153.0708	37	C12H9+
165.0697	630	C13H9+
166.0772	655	C13H10+
167.0808	38	C6H16O3P+
169.1008	9	C13H13+
178.0766	56	C14H10+
179.0845	118	C14H11+
180.092	36	C7H17O3P+
181.0638	6	C13H9O+
181.1001	56	C14H13+
182.0721	8	C13H10O+
184.0859	12	C6H17O4P+
187.0196	6	C14H3O+
189.0321	20	C7H10O4P+
195.078	13	C7H16O4P+
196.0877	137	C14H12O+
197.0927	20	C7H18O4P+
215.0598	29	C13H12OP+
215.0877	12	C17H11+
225.046	7	C14H10OP+
228.0925	8	C18H12+
229.1002	7	C18H13+
233.0723	9	C13H14O2P+
239.0858	6	C19H11+
240.0901	7	C12H17O3P+
241.1017	60	C19H13+
243.0567	249	C14H12O2P+
244.0603	12	C14H13O2P+
255.1159	57	C20H15+
256.1224	34	C13H21O3P+
257.0908	6	C12H18O4P+
257.1255	13	C13H22O3P+
261.0665	28	C14H14O3P+
279.0767	81	C14H16O4P+
369.1264	12	C21H22O4P+
