Mass spectrum: Testosterone; LC-ESI-QTOF; MS2; CE: 40eV; R=7000; [M+H]+
Name: Testosterone
Name: (8R,9S,10R,13S,14S,17S)-17-hydroxy-10,13-dimethyl-1,2,6,7,8,9,11,12,14,15,16,17-dodecahydrocyclopenta[a]phenanthren-3-one
Formula: C19H28O2
Exact mass: 288.2089
SMILES: C[C@]12CC[C@H]3[C@H]([C@@H]1CC[C@@H]2O)CCC4=CC(=O)CC[C@]34C
InChI: InChI=1S/C19H28O2/c1-18-9-7-13(20)11-12(18)3-4-14-15-5-6-17(21)19(15,2)10-8-16(14)18/h11,14-17,21H,3-10H2,1-2H3/t14-,15-,16-,17-,18-,19-/m0/s1
Instrument: Agilent 6560 QTOF
Instrument type: LC-ESI-QTOF
Ms type: MS2
Ion mode: POSITIVE
Ionization: ESI
Fragmentation mode: CID
Collision energy: 40 eV
Resolution: 7000
Column name: Direct injection
Retention time: 0.152 min
Base peak: 289.2168
Precursor m/z: 289.2162
Precursor type: [M+H]+
Precursor intensity: 224368
m/z	relative intensity	assigned
77.038	87	C6H5+
79.0539	473	C6H7+
80.0602	15	C6H8+
81.0695	339	C6H9+
83.0497	81	C5H7O+
91.0542	260	C7H7+
92.06	10	C7H8+
93.0692	97	C7H9+
94.0392	9	C6H6O+
95.0848	42	C7H11+
97.0644	999	C6H9O+
103.0524	3	C8H7+
104.0606	4	C8H8+
105.0691	122	C8H9+
107.0503	2	C7H7O+
107.0858	9	C8H11+
108.0561	5	C7H8O+
109.0645	904	C7H9O+
117.0681	21	C9H9+
119.0849	48	C9H11+
121.0645	17	C8H9O+
121.1	9	C9H13+
123.0803	67	C8H11O+
128.0612	5	C10H8+
129.069	31	C10H9+
130.0783	13	C10H10+
131.0855	36	C10H11+
133.1004	17	C10H13+
142.0771	14	C11H10+
143.0853	33	C11H11+
144.0933	6	C11H12+
145.1024	6	C11H13+
147.1153	14	C11H15+
149.0934	9	C10H13O+
155.084	20	C12H11+
158.1097	23	C12H14+
161.1303	4	C12H17+
165.0682	8	C13H9+
167.0835	7	C13H11+
171.1161	25	C13H15+
177.1287	3	C12H17O+
179.085	6	C14H11+
184.1203	4	C14H16+
185.1297	10	C14H17+
189.1287	4	C13H17O+
197.131	2	C15H17+
201.1636	9	C15H21+
211.1444	3	C16H19+
