Mass spectrum: Bis(2-butoxyethyl) 3?-hydroxy-2-butoxyethyl phosphate ; LC-ESI-QTOF; MS2; CE: 20eV; R=7000; [M+H]+
Name: Bis(2-butoxyethyl) 3?-hydroxy-2-butoxyethyl phosphate 
Name: Bis(2-butoxyethyl) 3-hydroxyl-2-butoxyethyl phosphate
Name: bis(2-butoxyethyl) 2-(3-hydroxybutoxy)ethyl phosphate
Formula: C18H39O8P
Exact mass: 414.2383
SMILES: CCCCOCCOP(=O)(OCCOCCCC)OCCOCCC(C)O
InChI: InChI=1S/C18H39O8P/c1-4-6-9-21-12-15-24-27(20,25-16-13-22-10-7-5-2)26-17-14-23-11-8-18(3)19/h18-19H,4-17H2,1-3H3
Instrument: Agilent 6560 QTOF
Instrument type: LC-ESI-QTOF
Ms type: MS2
Ion mode: POSITIVE
Ionization: ESI
Fragmentation mode: CID
Collision energy: 20 eV
Resolution: 7000
Retention time: 0.148 min
Base peak: 415.2481
Precursor m/z: 415.2455
Precursor type: [M+H]+
Precursor intensity: 285933.27
m/z	relative intensity	assigned
55.0546	999	C4H7+
57.0702	809	C4H9+
59.0493	86	C3H7O+
69.07	29	C5H9+
71.0494	144	C4H7O+
73.0646	60	C4H9O+
75.0447	3	C3H7O2+
81.07	101	C6H9+
83.0852	266	C6H11+
89.0601	16	C4H9O2+
98.984	472	H4O4P+
101.0959	135	C6H13O+
117.0889	10	C6H13O2+
124.9996	238	C2H6O4P+
140.995	8	C2H6O5P+
143.0099	536	C2H8O5P+
151.0158	6	C4H8O4P+
153.0297	13	C4H10O4P+
155.0106	40	C3H8O5P+
156.0109	5	C10H5P+
169.025	25	C4H10O5P+
187.0353	19	C4H12O6P+
197.0572	35	C6H14O5P+
199.073	330	C6H16O5P+
200.0759	6	C13H13P+
215.0653	5	C6H16O6P+
225.0877	14	C8H18O5P+
241.082	6	C8H18O6P+
243.099	269	C8H20O6P+
244.1036	8	C15H17OP+
255.0978	15	C9H20O6P+
297.1458	83	C12H26O6P+
298.1489	12	C12H27O6P+
299.1622	27	C12H28O6P+
315.1567	10	C12H28O7P+
343.1883	7	C14H32O7P+
415.2418	4	C18H40O8P+
