Mass spectrum: Triphenyl phosphate; LC-ESI-QTOF; MS2; CE: 60eV; R=7000; [M+H]+
Name: Triphenyl phosphate
Formula: C18H15O4P
Exact mass: 326.0708
SMILES: C1=CC=C(C=C1)OP(=O)(OC2=CC=CC=C2)OC3=CC=CC=C3
InChI: InChI=1S/C18H15O4P/c19-23(20-16-10-4-1-5-11-16,21-17-12-6-2-7-13-17)22-18-14-8-3-9-15-18/h1-15H
Instrument: Agilent 6560 QTOF
Instrument type: LC-ESI-QTOF
Ms type: MS2
Ion mode: POSITIVE
Ionization: ESI
Fragmentation mode: CID
Collision energy: 60 eV
Resolution: 7000
Retention time: 0.114 min
Base peak: 327.0783
Precursor m/z: 327.0781
Precursor type: [M+H]+
Precursor intensity: 55888.34
m/z	relative intensity	assigned
51.0238	302	C4H3+
65.038	36	C5H5+
77.0388	999	C6H5+
95.0039	12	C5H4P+
115.0532	14	C9H7+
126.0461	24	C10H6+
127.0528	50	C3H12O3P+
138.9938	13	C6H4O2P+
139.0546	18	C11H7+
141.0702	12	C11H9+
150.0452	25	C5H11O3P+
151.0545	120	C12H7+
152.0616	644	C12H8+
153.0661	46	C5H14O3P+
168.0567	222	C12H8O+
175.0144	28	C6H8O4P+
202.0746	27	C9H15O3P+
215.0264	19	C12H8O2P+
226.076	36	C11H15O3P+
227.0804	15	C11H16O3P+
