Mass spectrum: Behenic acid; LC-ESI-QTOF; MS2; CE: 10eV; R=7000; [M-H]-
Name: Behenic acid
Name: docosanoic acid
Formula: C22H44O2
Exact mass: 340.3341
SMILES: CCCCCCCCCCCCCCCCCCCCCC(=O)O
InChI: InChI=1S/C22H44O2/c1-2-3-4-5-6-7-8-9-10-11-12-13-14-15-16-17-18-19-20-21-22(23)24/h2-21H2,1H3,(H,23,24)
Instrument: Agilent 6560 QTOF
Instrument type: LC-ESI-QTOF
Ms type: MS2
Ion mode: NEGATIVE
Ionization: ESI
Fragmentation mode: CID
Collision energy: 10 eV
Resolution: 7000
Column name: N/A
Retention time: 0.143 min
Base peak: 339.3284
Precursor m/z: 339.3269
Precursor type: [M-H]-
Precursor intensity: 393575
m/z	relative intensity	assigned
101.2462	2	C3H33O2-
319.2998	1	C22H39O-
337.3147	2	C22H41O2-
339.3281	999	C22H43O2-
