Mass spectrum: THIOPURINE S-METHYLETHER; LC-ESI-QTOF; MS2; CE: 10eV; R=5000; [M+H]+
Name: THIOPURINE S-METHYLETHER
Name: 6-Methylmercaptopurine
Name: 6-methylsulfanyl-7H-purine
Formula: C6H6N4S
Exact mass: 166.0313
SMILES: CSC1=NC=NC2=C1NC=N2
InChI: InChI=1S/C6H6N4S/c1-11-6-4-5(8-2-7-4)9-3-10-6/h2-3H,1H3,(H,7,8,9,10)
Instrument: Agilent 6530 QTOF
Instrument type: LC-ESI-QTOF
Ms type: MS2
Ion mode: POSITIVE
Ionization: ESI
Fragmentation mode: CID
Collision energy: 10 eV
Resolution: 5000
Column name: N/A
Retention time: 0.219 min
Base peak: 167.0403
Precursor m/z: 167.0386
Precursor type: [M+H]+
Precursor intensity: 14830831
m/z	relative intensity	assigned
65.0128	2	C3HN2+
67.0279	3	C3H3N2+
70.9823	5	C2HNS+
71.9892	4	C2H2NS+
79.0289	1	C4H3N2+
81.0329	1	C3H3N3+
92.0232	7	C4H2N3+
93.0301	1	C4H3N3+
94.039	7	C4H4N3+
98.9996	10	C3H3N2S+
106.0384	25	C5H4N3+
107.0462	3	C5H5N3+
108.0535	1	C5H6N3+
113.0156	1	C4H5N2S+
119.0335	93	C5H3N4+
120.0414	2	C5H4N4+
121.0486	11	C5H5N4+
125.0023	38	C4H3N3S+
126.0104	109	C4H4N3S+
133.049	21	C6H5N4+
134.0569	73	C6H6N4+
140.0261	5	C5H6N3S+
152.0133	132	C5H4N4S+
167.0365	999	C6H7N4S+
