Mass spectrum: URIDINEMONOPHOSPHATE; LC-ESI-QTOF; MS2; CE: 20eV; R=5000; [M+H]+
Name: URIDINEMONOPHOSPHATE
Name: Uridine-5`-monophosphate
Name: [(2R,3S,4R,5R)-5-(2,4-dioxopyrimidin-1-yl)-3,4-dihydroxyoxolan-2-yl]methyl dihydrogen phosphate
Formula: C9H13N2O9P
Exact mass: 324.0359
SMILES: O[C@H]1[C@@H](O)[C@@H](O[C@@H]1COP(O)(O)=O)N1C=CC(=O)NC1=O
InChI: InChI=1S/C9H13N2O9P/c12-5-1-2-11(9(15)10-5)8-7(14)6(13)4(20-8)3-19-21(16,17)18/h1-2,4,6-8,13-14H,3H2,(H,10,12,15)(H2,16,17,18)/t4-,6-,7-,8-/m1/s1
Instrument: Agilent 6530 QTOF
Instrument type: LC-ESI-QTOF
Ms type: MS2
Ion mode: POSITIVE
Ionization: ESI
Fragmentation mode: CID
Collision energy: 20 eV
Resolution: 5000
Column name: N/A
Retention time: 0.288 min
Base peak: 121.0508
Precursor m/z: 325.0431
Precursor type: [M+H]+
Precursor intensity: 82863
m/z	relative intensity	assigned
41.0387	88	C3H5+
43.0173	8	C2H3O+
43.054	1	C3H7+
69.0346	11	H8NOP+
70.0244	12	H6O4+
82.0758	1	C6H10+
91.0562	6	C3H10NP+
92.9942	1	HN2O4+
97.0287	999	CH8NO2P+
112.0396	8	CH9N2O2P+
113.034	70	C4H5N2O2+
130.0272	8	CH9NO4P+
166.0551	2	CH12NO8+
167.0408	13	CH11O9+
190.9424	4	H2NO9P+
209.0545	3	C2H14N2O7P+
228.0465	1	C6H12O9+
240.9476	6	C3H2N2O9P+
248.0077	3	C8H9O7P+
