Mass spectrum: DEOXYGUANOSINE; LC-ESI-QTOF; MS2; CE: 20eV; R=5000; [M+H]+
Name: DEOXYGUANOSINE
Name: CID 187790
Name: 2-amino-9-[(2R,4S,5R)-4-hydroxy-5-(hydroxymethyl)oxolan-2-yl]-3H-purin-6-one
Formula: C10H13N5O4
Exact mass: 267.0968
SMILES: NC1=NC2=C(N=CN2[C@H]2C[C@H](O)[C@@H](CO)O2)C(=O)N1
InChI: InChI=1S/C10H13N5O4/c11-10-13-8-7(9(18)14-10)12-3-15(8)6-1-4(17)5(2-16)19-6/h3-6,16-17H,1-2H2,(H3,11,13,14,18)/t4-,5+,6+/m0/s1
Instrument: Agilent 6530 QTOF
Instrument type: LC-ESI-QTOF
Ms type: MS2
Ion mode: POSITIVE
Ionization: ESI
Fragmentation mode: CID
Collision energy: 20 eV
Resolution: 5000
Column name: N/A
Retention time: 0.221 min
Base peak: 152.0564
Precursor m/z: 268.104
Precursor type: [M+H]+
Precursor intensity: 1016687
m/z	relative intensity	assigned
41.0381	2	C3H5+
45.0339	18	C2H5O+
55.029	6	C2H3N2+
57.0323	6	CH3N3+
59.0502	2	C3H7O+
61.0259	1	H3N3O+
65.0134	2	C3HN2+
69.0324	5	C2H3N3+
71.05	11	C4H7O+
73.0267	21	CH3N3O+
80.0215	2	H4N2O3+
81.0327	6	C3H3N3+
82.0387	3	C3H4N3+
89.0578	1	C2H7N3O+
93.0058	1	CH3NO4+
99.0412	21	H7N2O4+
107.0346	1	C4H3N4+
109.0486	6	CH7N3O3+
110.0322	53	CH6N2O4+
117.0512	21	C3H7N3O2+
121.0673	1	C8H9O+
135.0266	161	C2H5N3O4+
152.0535	999	C2H8N4O4+
153.0593	3	C2H9N4O4+
153.9959	1	C9NO2+
