Mass spectrum: Ethyl 4-(dimethylamino)benzoate; LC-ESI-QTOF; MS2; CE: 10eV; R=7000; [M+H]+
Name: Ethyl 4-(dimethylamino)benzoate
Name: Ethyl 4-dimethylaminobenzoate
Formula: C11H15NO2
Exact mass: 193.1103
SMILES: CCOC(=O)C1=CC=C(C=C1)N(C)C
InChI: InChI=1S/C11H15NO2/c1-4-14-11(13)9-5-7-10(8-6-9)12(2)3/h5-8H,4H2,1-3H3
Instrument: Agilent 6560 QTOF
Instrument type: LC-ESI-QTOF
Ms type: MS2
Ion mode: POSITIVE
Ionization: ESI
Fragmentation mode: CID
Collision energy: 10 eV
Resolution: 7000
Column name: ZORBAX Extend-C18 3.5um, 2.1x50mm, Agilent Technologies
Retention time: 3.434 min
Base peak: 453.349
Precursor m/z: 194.1176
Precursor type: [M+H]+
Precursor intensity: 164347.99
m/z	relative intensity	assigned
65.0385	6	C5H5+
78.0465	4	C6H6+
79.0537	8	C6H7+
91.053	6	C7H7+
106.0663	8	C7H8N+
107.0723	20	C7H9N+
120.0816	4	C8H10N+
121.0884	16	C8H11N+
122.0965	33	C8H12N+
134.06	130	C8H8NO+
134.0962	7	C9H12N+
135.0679	10	C8H9NO+
148.0752	28	C9H10NO+
150.0536	21	C8H8NO2+
151.0621	280	C8H9NO2+
164.0696	11	C9H10NO2+
166.0858	691	C9H12NO2+
167.0905	3	C9H13NO2+
179.0936	462	C10H13NO2+
194.1169	999	C11H16NO2+
