Mass spectrum: 5-Hydroxy-2-ethylhexyl diphenyl phosphate; LC-ESI-QTOF; MS2; CE: 60eV; R=7000; [M+H]+
Name: 5-Hydroxy-2-ethylhexyl diphenyl phosphate
Name: 2-Ethyl-5-hydroxyhexyl diphenyl phosphate
Name: (2-ethyl-5-hydroxyhexyl) diphenyl phosphate
Formula: C20H27O5P
Exact mass: 378.1596
SMILES: CCC(CCC(C)O)COP(=O)(Oc1ccccc1)Oc2ccccc2
InChI: InChI=1S/C20H27O5P/c1-3-18(15-14-17(2)21)16-23-26(22,24-19-10-6-4-7-11-19)25-20-12-8-5-9-13-20/h4-13,17-18,21H,3,14-16H2,1-2H3
Instrument: Agilent 6560 QTOF
Instrument type: LC-ESI-QTOF
Ms type: MS2
Ion mode: POSITIVE
Ionization: ESI
Fragmentation mode: CID
Collision energy: 60 eV
Resolution: 7000
Retention time: 0.146 min
Base peak: 401.1507
Precursor m/z: 379.1669
Precursor type: [M+H]+
Precursor intensity: 55368.71
m/z	relative intensity	assigned
51.0237	191	C4H3+
53.0384	13	C4H5+
55.0546	60	C4H7+
65.0386	12	C5H5+
69.0702	90	C5H9+
77.0389	999	C6H5+
95.0496	102	C6H7O+
127.0545	33	C10H7+
151.0535	51	C12H7+
152.0622	319	C12H8+
153.0685	43	C5H14O3P+
157.0058	16	C6H6O3P+
168.0575	32	C12H8O+
175.0153	78	C6H8O4P+
215.0261	30	C12H8O2P+
