Mass spectrum: DEOXYGUANOSINE; LC-ESI-QTOF; MS2; CE: 10eV; R=5000; [M+H]+
Name: DEOXYGUANOSINE
Name: CID 187790
Name: 2-amino-9-[(2R,4S,5R)-4-hydroxy-5-(hydroxymethyl)oxolan-2-yl]-3H-purin-6-one
Formula: C10H13N5O4
Exact mass: 267.0968
SMILES: NC1=NC2=C(N=CN2[C@H]2C[C@H](O)[C@@H](CO)O2)C(=O)N1
InChI: InChI=1S/C10H13N5O4/c11-10-13-8-7(9(18)14-10)12-3-15(8)6-1-4(17)5(2-16)19-6/h3-6,16-17H,1-2H2,(H3,11,13,14,18)/t4-,5+,6+/m0/s1
Instrument: Agilent 6530 QTOF
Instrument type: LC-ESI-QTOF
Ms type: MS2
Ion mode: POSITIVE
Ionization: ESI
Fragmentation mode: CID
Collision energy: 10 eV
Resolution: 5000
Column name: N/A
Retention time: 0.222 min
Base peak: 152.0564
Precursor m/z: 268.104
Precursor type: [M+H]+
Precursor intensity: 1054515
m/z	relative intensity	assigned
43.0533	6	C3H7+
45.0332	4	C2H5O+
69.0335	3	C4H5O+
71.0498	6	C4H7O+
73.0287	7	C3H5O2+
80.0231	1	C3H2N3+
81.0346	2	C5H5O+
99.0425	10	C3H5N3O+
110.0344	15	C4H4N3O+
117.0539	29	C3H7N3O2+
135.0291	44	C5H3N4O+
152.0566	999	C5H6N5O+
153.0846	2	C2H11N5O3+
