Mass spectrum: Trimyristin; LC-ESI-QTOF; MS2; CE: 40eV; R=7000; [M+NH4]+
Name: Trimyristin
Name: 2,3-di(tetradecanoyloxy)propyl tetradecanoate
Formula: C45H86O6
Exact mass: 722.6424
SMILES: CCCCCCCCCCCCCC(=O)OCC(COC(=O)CCCCCCCCCCCCC)OC(=O)CCCCCCCCCCCCC
InChI: InChI=1S/C45H86O6/c1-4-7-10-13-16-19-22-25-28-31-34-37-43(46)49-40-42(51-45(48)39-36-33-30-27-24-21-18-15-12-9-6-3)41-50-44(47)38-35-32-29-26-23-20-17-14-11-8-5-2/h42H,4-41H2,1-3H3
Instrument: Agilent 6560 QTOF
Instrument type: LC-ESI-QTOF
Ms type: MS2
Ion mode: POSITIVE
Ionization: ESI
Fragmentation mode: CID
Collision energy: 40 eV
Resolution: 7000
Column name: Direct injection
Retention time: 0.324 min
Base peak: 647.4608
Precursor m/z: 740.6763
Precursor type: [M+NH4]+
Precursor intensity: 45444
m/z	relative intensity	assigned
71.0858	575	C5H11+
79.0552	43	C6H7+
81.0703	195	C6H9+
83.0856	199	C6H11+
84.0802	94	C5H10N+
85.1012	317	C6H13+
95.0855	999	C7H11+
97.0994	93	C7H13+
109.1004	231	C8H13+
111.1175	253	C8H15+
113.1329	11	C8H17+
123.1169	198	C9H15+
137.1321	125	C10H17+
151.1495	28	C11H19+
177.1288	19	C12H17O+
193.1829	59	C13H23N+
211.2054	36	C14H27O+
212.1033	17	C11H16O4+
229.2133	48	C14H29O2+
285.2424	46	C17H33O3+
340.314	21	C25H40+
392.2306	7	C26H32O3+
495.4404	584	C31H59O4+
496.4429	37	C31H60O4+
