Mass spectrum: Eicosapentaenoic acid; LC-ESI-QTOF; MS2; CE: 40eV; R=7000; [M-H]-
Name: Eicosapentaenoic acid
Name: (5Z,8Z,11Z,14Z,17Z)-icosa-5,8,11,14,17-pentaenoic acid
Formula: C20H30O2
Exact mass: 302.2246
SMILES: CC\C=C/C\C=C/C\C=C/C\C=C/C\C=C/CCCC(O)=O
InChI: InChI=1S/C20H30O2/c1-2-3-4-5-6-7-8-9-10-11-12-13-14-15-16-17-18-19-20(21)22/h3-4,6-7,9-10,12-13,15-16H,2,5,8,11,14,17-19H2,1H3,(H,21,22)/b4-3-,7-6-,10-9-,13-12-,16-15-
Instrument: Agilent 6560 QTOF
Instrument type: LC-ESI-QTOF
Ms type: MS2
Ion mode: NEGATIVE
Ionization: ESI
Fragmentation mode: CID
Collision energy: 40 eV
Resolution: 7000
Column name: N/A
Retention time: 0.187 min
Base peak: 357.1892
Precursor m/z: 301.2173
Precursor type: [M-H]-
Precursor intensity: 9636
m/z	relative intensity	assigned
77.0403	194	C6H5-
91.0201	775	C6H3O-
99.0797	430	C6H11O-
149.0067	337	C11HO-
199.022	315	C15H3O-
217.0647	999	C16H9O-
218.0722	227	C16H10O-
