Mass spectrum: METHIONINESULFOXIMINE; LC-ESI-QTOF; MS2; CE: 10eV; R=5000; [M+H]+
Name: METHIONINESULFOXIMINE
Name: Methionine sulfoximine
Name: 2-amino-4-(methylsulfonimidoyl)butanoic acid
Formula: C5H12N2O3S
Exact mass: 180.05686
SMILES: CS(=N)(=O)CCC(N)C(O)=O
InChI: InChI=1S/C5H12N2O3S/c1-11(7,10)3-2-4(6)5(8)9/h4,7H,2-3,6H2,1H3,(H,8,9)
Instrument: Agilent 6530 QTOF
Instrument type: LC-ESI-QTOF
Ms type: MS2
Ion mode: POSITIVE
Ionization: ESI
Fragmentation mode: CID
Collision energy: 10 eV
Resolution: 5000
Column name: N/A
Retention time: 0.215 min
Base peak: 121.0508
Precursor m/z: 181.0641
Precursor type: [M+H]+
Precursor intensity: 591123
m/z	relative intensity	assigned
44.0505	44	C2H6N+
46.0277	17	CH4NO+
54.033	4	C3H4N+
56.0496	780	C3H6N+
62.9895	17	CH3OS+
72.0429	17	C3H6NO+
77.0061	1	C2H5OS+
80.0159	182	CH6NOS+
84.0436	163	C4H6NO+
85.0275	33	C4H5O2+
88.0378	6	C3H6NO2+
91.0226	3	C3H7OS+
100.039	8	C4H6NO2+
102.0539	999	C4H8NO2+
103.0633	1	C4H9NO2+
115.9666	1	C2N2O2S+
163.0528	29	C5H11N2O2S+
164.0353	4	C5H10NO3S+
181.0624	170	C5H13N2O3S+
