Mass spectrum: Testosterone; LC-ESI-QTOF; MS2; CE: 20eV; R=7000; [M+H]+
Name: Testosterone
Name: (8R,9S,10R,13S,14S,17S)-17-hydroxy-10,13-dimethyl-1,2,6,7,8,9,11,12,14,15,16,17-dodecahydrocyclopenta[a]phenanthren-3-one
Formula: C19H28O2
Exact mass: 288.2089
SMILES: C[C@]12CC[C@H]3[C@H]([C@@H]1CC[C@@H]2O)CCC4=CC(=O)CC[C@]34C
InChI: InChI=1S/C19H28O2/c1-18-9-7-13(20)11-12(18)3-4-14-15-5-6-17(21)19(15,2)10-8-16(14)18/h11,14-17,21H,3-10H2,1-2H3/t14-,15-,16-,17-,18-,19-/m0/s1
Instrument: Agilent 6560 QTOF
Instrument type: LC-ESI-QTOF
Ms type: MS2
Ion mode: POSITIVE
Ionization: ESI
Fragmentation mode: CID
Collision energy: 20 eV
Resolution: 7000
Column name: Direct injection
Retention time: 0.152 min
Base peak: 289.2172
Precursor m/z: 289.2162
Precursor type: [M+H]+
Precursor intensity: 292959
m/z	relative intensity	assigned
77.0387	10	C6H5+
79.0546	46	C6H7+
81.0704	68	C6H9+
83.0495	32	C5H7O+
91.0539	15	C7H7+
93.0704	24	C7H9+
95.0862	42	C7H11+
97.0653	999	C6H9O+
105.0699	20	C8H9+
107.0857	38	C8H11+
108.0572	3	C7H8O+
109.0652	708	C7H9O+
117.0703	19	C9H9+
119.0868	25	C9H11+
121.0649	3	C8H9O+
121.1016	9	C9H13+
123.0804	55	C8H11O+
128.0609	1	C10H8+
131.085	7	C10H11+
133.1014	19	C10H13+
137.098	8	C9H13O+
139.1118	2	C9H15O+
142.0785	4	C11H10+
143.089	4	C11H11+
145.1012	28	C11H13+
147.0797	2	C10H11O+
147.1156	26	C11H15+
149.095	7	C10H13O+
149.1333	2	C11H17+
150.1009	2	C10H14O+
155.0869	9	C12H11+
157.1021	12	C12H13+
158.1089	1	C12H14+
159.0792	3	C11H11O+
159.113	2	C12H15+
161.0965	1	C11H13O+
161.1313	3	C12H17+
163.1105	1	C11H15O+
163.1501	8	C12H19+
167.1092	2	C10H15O2+
167.1461	1	C11H19O+
169.1011	7	C13H13+
170.1083	2	C13H14+
172.128	3	C13H16+
173.134	5	C13H17+
175.1104	2	C12H15O+
175.1489	15	C13H19+
177.1267	4	C12H17O+
182.1064	3	C14H14+
183.1168	13	C14H15+
185.1314	8	C14H17+
187.1482	19	C14H19+
189.1279	5	C13H17O+
189.1641	12	C14H21+
193.1581	1	C13H21O+
197.1295	3	C15H17+
199.1468	7	C15H19+
201.1639	2	C15H21+
203.1421	2	C14H19O+
211.1488	16	C16H19+
212.1518	3	C16H20+
213.1618	8	C16H21+
227.1819	6	C17H23+
245.1839	3	C17H25O+
253.195	26	C19H25+
271.205	24	C19H27O+
289.2164	87	C19H29O2+
