Mass spectrum: N-ACETYLTRYPTOPHAN; LC-ESI-QTOF; MS2; CE: 40eV; R=5000; [M+H]+
Name: N-ACETYLTRYPTOPHAN
Name: N-Acetyl-L-tryptophan
Name: (2S)-2-acetamido-3-(1H-indol-3-yl)propanoic acid
Formula: C13H14N2O3
Exact mass: 246.1004
SMILES: CC(=O)N[C@@H](CC1=CNC2=C1C=CC=C2)C(O)=O
InChI: InChI=1S/C13H14N2O3/c1-8(16)15-12(13(17)18)6-9-7-14-11-5-3-2-4-10(9)11/h2-5,7,12,14H,6H2,1H3,(H,15,16)(H,17,18)/t12-/m0/s1
Instrument: Agilent 6530 QTOF
Instrument type: LC-ESI-QTOF
Ms type: MS2
Ion mode: POSITIVE
Ionization: ESI
Fragmentation mode: CID
Collision energy: 40 eV
Resolution: 5000
Column name: N/A
Retention time: 0.219 min
Base peak: 247.1078
Precursor m/z: 247.1077
Precursor type: [M+H]+
Precursor intensity: 447934
m/z	relative intensity	assigned
41.0377	7	C3H5+
46.0276	16	CH4NO+
51.0236	17	C4H3+
55.0552	8	C4H7+
59.0479	23	C3H7O+
63.0243	9	C5H3+
65.0397	26	C5H5+
72.081	6	C4H10N+
73.0276	8	C3H5O2+
74.0247	12	C2H4NO2+
79.052	10	CH7N2O2+
81.046	17	C4H5N2+
84.0763	2	C2H12O3+
85.0653	22	C5H9O+
89.038	48	C7H5+
90.0482	23	C7H6+
91.0564	277	C7H7+
92.0701	2	C3H10NO2+
93.0095	1	C4HN2O+
102.0472	6	C8H6+
103.0559	133	C8H7+
105.0675	38	C3H9N2O2+
106.0645	1	C7H8N+
107.0871	1	C8H11+
115.0565	774	C9H7+
116.0559	84	C4H8N2O2+
118.0673	999	C8H8N+
119.0757	7	C8H9N+
120.011	5	C6H2NO2+
121.0631	2	C8H9O+
128.0584	37	C5H8N2O2+
129.0591	6	C9H7N+
131.0747	54	C9H9N+
132.0834	607	C9H10N+
133.091	4	C9H11N+
137.0411	1	C11H5+
139.1241	3	C8H15N2+
140.0491	38	C10H6N+
142.0681	432	C10H8N+
143.0755	221	C10H9N+
144.0838	89	C10H10N+
146.0623	155	C9H8NO+
156.0796	7	C11H10N+
158.0853	39	C10H10N2+
159.0947	158	C10H11N2+
168.0673	10	C11H8N2+
170.0636	109	C11H8NO+
183.0994	18	C10H15O3+
184.0745	9	C12H10NO+
