Mass spectrum: Tetrekis(2-chlorethyl) dichloroisopentyldiphosphate; LC-ESI-QTOF; MS2; CE: 35eV; R=7000; [M+H]+
Name: Tetrekis(2-chlorethyl) dichloroisopentyldiphosphate
Name: Phosphoric acid, 2,2-bis(chloromethyl)-1,3-propanediyl tetrakis(2-chloroethyl) ester
Name: [2-[bis(2-chloroethoxy)phosphoryloxymethyl]-3-chloro-2-(chloromethyl)propyl] bis(2-chloroethyl) phosphate
Formula: C13H24Cl6O8P2
Exact mass: 579.9078
SMILES: C(CCl)OP(=O)(OCCCl)OCC(COP(=O)(OCCCl)OCCCl)(CCl)CCl
InChI: InChI=1S/C13H24Cl6O8P2/c14-1-5-22-28(20,23-6-2-15)26-11-13(9-18,10-19)12-27-29(21,24-7-3-16)25-8-4-17/h1-12H2
Instrument: Agilent 6560 QTOF
Instrument type: LC-ESI-QTOF
Ms type: MS2
Ion mode: POSITIVE
Ionization: ESI
Fragmentation mode: CID
Collision energy: 35 eV
Resolution: 7000
Retention time: 0.111 min
Base peak: 582.9129
Precursor m/z: 580.915
Precursor type: [M+H]+
Precursor intensity: 20821.83
m/z	relative intensity	assigned
62.9998	206	C2H4Cl+
65.0388	258	C5H5+
74.9995	30	C2H4OP+
98.9841	282	H4O4P+
101.0148	98	C4H6OP+
124.9991	145	C2H6O4P+
160.9749	57	CH7O5P2+
163.0164	55	C6H8ClO3+
198.9909	53	Cl3H14O5+
234.9686	999	C4H10ClO5P2+
260.9844	66	C7H12Cl2O4P+
296.9606	288	C6H13Cl2O5P2+
358.9458	32	C11H17Cl6+
