Mass spectrum: Palmitoleic acid; LC-ESI-QTOF; MS2; CE: 10eV; R=7000; [M-H]-
Name: Palmitoleic acid
Name: (Z)-hexadec-9-enoic acid
Formula: C16H30O2
Exact mass: 254.2246
SMILES: CCCCCC\C=C/CCCCCCCC(O)=O
InChI: InChI=1S/C16H30O2/c1-2-3-4-5-6-7-8-9-10-11-12-13-14-15-16(17)18/h7-8H,2-6,9-15H2,1H3,(H,17,18)/b8-7-
Instrument: Agilent 6560 QTOF
Instrument type: LC-ESI-QTOF
Ms type: MS2
Ion mode: NEGATIVE
Ionization: ESI
Fragmentation mode: CID
Collision energy: 10 eV
Resolution: 7000
Column name: N/A
Retention time: 0.163 min
Base peak: 255.2338
Precursor m/z: 253.2173
Precursor type: [M-H]-
Precursor intensity: 271077
m/z	relative intensity	assigned
207.1398	2	C13H19O2-
253.2177	999	C16H29O2-
