Mass spectrum: Tetrekis(2-chlorethyl) dichloroisopentyldiphosphate; LC-ESI-QTOF; MS2; CE: 60eV; R=7000; [M+H]+
Name: Tetrekis(2-chlorethyl) dichloroisopentyldiphosphate
Name: Phosphoric acid, 2,2-bis(chloromethyl)-1,3-propanediyl tetrakis(2-chloroethyl) ester
Name: [2-[bis(2-chloroethoxy)phosphoryloxymethyl]-3-chloro-2-(chloromethyl)propyl] bis(2-chloroethyl) phosphate
Formula: C13H24Cl6O8P2
Exact mass: 579.9078
SMILES: C(CCl)OP(=O)(OCCCl)OCC(COP(=O)(OCCCl)OCCCl)(CCl)CCl
InChI: InChI=1S/C13H24Cl6O8P2/c14-1-5-22-28(20,23-6-2-15)26-11-13(9-18,10-19)12-27-29(21,24-7-3-16)25-8-4-17/h1-12H2
Instrument: Agilent 6560 QTOF
Instrument type: LC-ESI-QTOF
Ms type: MS2
Ion mode: POSITIVE
Ionization: ESI
Fragmentation mode: CID
Collision energy: 60 eV
Resolution: 7000
Retention time: 0.111 min
Base peak: 582.9123
Precursor m/z: 580.915
Precursor type: [M+H]+
Precursor intensity: 16613.73
m/z	relative intensity	assigned
62.9998	999	C2H4Cl+
65.0388	781	C5H5+
74.9997	100	C3H4Cl+
98.9844	812	CH4ClO3+
101.0152	238	C5H6Cl+
234.9674	294	Cl4H15O5+
