Mass spectrum: Sphinganine; LC-ESI-QTOF; MS2; CE: 10eV; R=7000; [M-H2O+H]+
Name: Sphinganine
Name: (2S,3R)-2-aminooctadecane-1,3-diol
Formula: C18H39NO2
Exact mass: 301.2981
SMILES: CCCCCCCCCCCCCCC[C@@H](O)[C@@H](N)CO
InChI: InChI=1S/C18H39NO2/c1-2-3-4-5-6-7-8-9-10-11-12-13-14-15-18(21)17(19)16-20/h17-18,20-21H,2-16,19H2,1H3/t17-,18+/m0/s1
Instrument: Agilent 6560 QTOF
Instrument type: LC-ESI-QTOF
Ms type: MS2
Ion mode: POSITIVE
Ionization: ESI
Fragmentation mode: CID
Collision energy: 10 eV
Resolution: 7000
Column name: Direct injection
Retention time: 0.265 min
Base peak: 302.3059
Precursor m/z: 284.2948
Precursor type: [M-H2O+H]+
Precursor intensity: 12374
m/z	relative intensity	assigned
81.0712	85	C6H9+
85.0997	27	C6H13+
95.085	237	C7H11+
254.2829	185	C17H36N+
266.2822	113	C18H36N+
284.2935	999	C18H38NO+
