Mass spectrum: N-ACETYLASPARTATE; LC-ESI-QTOF; MS2; CE: 40eV; R=5000; [M+H]+
Name: N-ACETYLASPARTATE
Name: N-Acetyl-L-aspartic acid
Name: (2S)-2-acetamidobutanedioic acid
Formula: C6H9NO5
Exact mass: 175.0481
SMILES: CC(=O)N[C@@H](CC(O)=O)C(O)=O
InChI: InChI=1S/C6H9NO5/c1-3(8)7-4(6(11)12)2-5(9)10/h4H,2H2,1H3,(H,7,8)(H,9,10)(H,11,12)/t4-/m0/s1
Instrument: Agilent 6530 QTOF
Instrument type: LC-ESI-QTOF
Ms type: MS2
Ion mode: POSITIVE
Ionization: ESI
Fragmentation mode: CID
Collision energy: 40 eV
Resolution: 5000
Column name: N/A
Retention time: 0.249 min
Base peak: 922.0098
Precursor m/z: 176.0553
Precursor type: [M+H]+
Precursor intensity: 15499
m/z	relative intensity	assigned
44.0486	564	C2H6N+
44.9968	315	CHO2+
46.0282	999	CH4NO+
70.025	816	H6O4+
74.023	659	C2H4NO2+
