Mass spectrum: N-Heptadecanoyl-D-erythro-Sphingosine; LC-ESI-QTOF; MS2; CE: 40eV; R=7000; [M+H]+
Name: N-Heptadecanoyl-D-erythro-Sphingosine
Name: N-Heptadecanoylsphingosine
Name: N-[(E,2S,3R)-1,3-dihydroxyoctadec-4-en-2-yl]heptadecanamide
Formula: C35H69NO3
Exact mass: 551.5277
SMILES: OC[C@H](NC(CCCCCCCCCCCCCCCC)=O)[C@H](O)/C=C/CCCCCCCCCCCCC
InChI: InChI=1S/C35H69NO3/c1-3-5-7-9-11-13-15-17-19-21-23-25-27-29-31-35(39)36-33(32-37)34(38)30-28-26-24-22-20-18-16-14-12-10-8-6-4-2/h28,30,33-34,37-38H,3-27,29,31-32H2,1-2H3,(H,36,39)/b30-28+/t33-,34+/m0/s1
Instrument: Agilent 6560 QTOF
Instrument type: LC-ESI-QTOF
Ms type: MS2
Ion mode: POSITIVE
Ionization: ESI
Fragmentation mode: CID
Collision energy: 40 eV
Resolution: 7000
Column name: Direct injection
Retention time: 0.182 min
Base peak: 574.5191
Precursor m/z: 552.535
Precursor type: [M+H]+
Precursor intensity: 169086
m/z	relative intensity	assigned
70.0651	29	C4H8N+
71.0848	3	C5H11+
72.0433	8	C3H6NO+
77.0402	3	C6H5+
79.0537	27	C6H7+
80.0475	6	C2H8O3+
81.0569	12	C5H7N+
81.0695	17	C6H9+
82.0652	250	C5H8N+
83.0846	12	C6H11+
84.0819	9	C5H10N+
85.1008	6	C6H13+
88.0748	3	C4H10NO+
93.0689	37	C7H9+
95.0855	50	C7H11+
96.0808	39	C6H10N+
97.1017	17	C7H13+
98.0948	5	C3H14O3+
102.0918	3	C5H12NO+
109.102	6	C8H13+
121.0996	18	C9H13+
127.0605	1	C6H9NO2+
135.1145	12	C10H15+
178.0962	3	C11H14O2+
252.2693	102	C17H34N+
253.2696	6	C14H37O3+
264.2692	999	C18H34N+
265.2728	104	C15H37O3+
270.2814	17	C17H36NO+
282.2791	73	C18H36NO+
283.286	7	C18H37NO+
300.3618	7	C20H46N+
