Mass spectrum: Prostaglandin E1; LC-ESI-QTOF; MS2; CE: 40eV; R=7000; [M-H2O+H]+
Name: Prostaglandin E1
Name: Alprostadil
Name: 7-[(1R,2R,3R)-3-hydroxy-2-[(E,3S)-3-hydroxyoct-1-enyl]-5-oxocyclopentyl]heptanoic acid
Formula: C20H34O5
Exact mass: 354.2406
SMILES: CCCCC[C@@H](/C=C/[C@H]1[C@@H](CC(=O)[C@@H]1CCCCCCC(=O)O)O)O
InChI: InChI=1S/C20H34O5/c1-2-3-6-9-15(21)12-13-17-16(18(22)14-19(17)23)10-7-4-5-8-11-20(24)25/h12-13,15-17,19,21,23H,2-11,14H2,1H3,(H,24,25)/b13-12+/t15-,16+,17+,19+/m0/s1
Instrument: Agilent 6560 QTOF
Instrument type: LC-ESI-QTOF
Ms type: MS2
Ion mode: POSITIVE
Ionization: ESI
Fragmentation mode: CID
Collision energy: 40 eV
Resolution: 7000
Column name: Direct injection
Retention time: 0.180 min
Base peak: 377.2317
Precursor m/z: 337.2373
Precursor type: [M-H2O+H]+
Precursor intensity: 30137
m/z	relative intensity	assigned
71.0131	826	C3H3O2+
77.0396	205	C6H5+
79.0535	469	C6H7+
81.0701	764	C6H9+
83.0498	242	C5H7O+
83.0839	178	C6H11+
91.0545	999	C7H7+
93.0696	554	C7H9+
95.0485	217	C6H7O+
95.0849	276	C7H11+
97.0636	98	C6H9O+
105.0699	581	C8H9+
107.0508	73	C7H7O+
107.0843	54	C8H11+
109.0627	46	C7H9O+
111.0435	99	C6H7O2+
117.0694	178	C9H9+
119.0859	277	C9H11+
121.0649	105	C8H9O+
121.1018	62	C9H13+
129.0705	125	C10H9+
133.0633	146	C9H9O+
137.0955	75	C9H13O+
142.0759	93	C11H10+
143.0859	58	C11H11+
145.0675	57	C10H9O+
145.0997	80	C11H13+
147.078	145	C10H11O+
153.0706	53	C12H9+
175.1492	48	C13H19+
187.1107	52	C13H15O+
