Mass spectrum: BIOTIN; LC-ESI-QTOF; MS2; CE: 10eV; R=5000; [M+H]+
Name: BIOTIN
Name: 5-[(3aS,4S,6aR)-2-oxo-1,3,3a,4,6,6a-hexahydrothieno[3,4-d]imidazol-4-yl]pentanoic acid
Formula: C10H16N2O3S
Exact mass: 244.0882
SMILES: [H][C@]12CS[C@@H](CCCCC(O)=O)[C@@]1([H])NC(=O)N2
InChI: InChI=1S/C10H16N2O3S/c13-8(14)4-2-1-3-7-9-6(5-16-7)11-10(15)12-9/h6-7,9H,1-5H2,(H,13,14)(H2,11,12,15)/t6-,7-,9-/m0/s1
Instrument: Agilent 6530 QTOF
Instrument type: LC-ESI-QTOF
Ms type: MS2
Ion mode: POSITIVE
Ionization: ESI
Fragmentation mode: CID
Collision energy: 10 eV
Resolution: 5000
Column name: N/A
Retention time: 0.215 min
Base peak: 121.0508
Precursor m/z: 245.0954
Precursor type: [M+H]+
Precursor intensity: 372437
m/z	relative intensity	assigned
55.0534	3	C4H7+
65.0358	1	H5N2O2+
68.0565	4	H8N2O2+
69.0654	3	H9N2O2+
76.0234	4	C2H6NS+
79.0552	6	C6H7+
81.0679	2	C6H9+
82.0268	4	C4H4NO+
83.085	3	C6H11+
85.028	8	C4H5O2+
86.0025	1	C6N+
87.026	2	C4H7S+
92.0569	1	C2H8N2O2+
96.0839	1	C3H14NS+
97.0399	29	C4H5N2O+
98.0896	1	C2H14N2S+
99.0254	3	C5H7S+
100.0182	1	C7H2N+
101.0402	1	C8H5+
105.0683	15	H13N2O2S+
106.0569	1	C3H10N2S+
108.0837	4	C4H14NS+
111.0207	4	CH7N2O2S+
112.0249	2	C4H4N2O2+
113.0397	2	C9H5+
114.0325	1	C8H4N+
115.0526	3	CH11N2O2S+
121.0679	6	C5H13OS+
122.1013	1	C5H16NS+
123.028	16	C7H7S+
124.0611	1	C6H8N2O+
125.0427	4	C7H9S+
132.0754	1	C6H12O3+
133.075	5	C8H9N2+
134.0746	1	C6H14OS+
138.0397	7	C7H8NS+
139.0539	12	C3H11N2O2S+
142.0269	2	C9H4NO+
143.0282	2	C5H7N2OS+
148.0752	2	C9H10NO+
149.0403	1	C9H9S+
150.0856	2	C5H14N2OS+
151.0864	3	C8H11N2O+
163.0818	2	C7H15O2S+
166.0682	31	C9H12NS+
167.0505	23	C9H11OS+
182.0656	6	C9H12NOS+
184.0818	15	C8H12N2O3+
185.0664	2	C9H13O2S+
192.0473	7	C10H10NOS+
199.0887	27	C9H15N2OS+
209.0736	18	C10H13N2OS+
210.0988	1	C10H14N2O3+
227.0866	999	C10H15N2O2S+
245.0958	171	C10H17N2O3S+
