Mass spectrum: D-lactosyl-beta-1,1 N-octanoyl-D-erythro-sphingosine; LC-ESI-QTOF; MS2; CE: 10eV; R=7000; [M-H2O+H]+
Name: D-lactosyl-beta-1,1 N-octanoyl-D-erythro-sphingosine
Name: C8 Lactosyl(beta) Ceramide (d18:1/8:0), D-lactosyl-beta-1,1` N-octanoyl-D-erythro-sphingosine, powder
Name: N-[(E,2S,3R)-1-[(2R,5S,6R)-3,4-dihydroxy-6-(hydroxymethyl)-5-[(2S,5R,6R)-3,4,5-trihydroxy-6-(hydroxymethyl)oxan-2-yl]oxyoxan-2-yl]oxy-3-hydroxyoctadec-4-en-2-yl]octanamide
Formula: C38H71NO13
Exact mass: 749.4925
SMILES: CCCCCCCCCCCCC/C=C/[C@H]([C@H](CO[C@H]1C(C([C@@H]([C@H](O1)CO)O[C@H]2C(C([C@H]([C@H](O2)CO)O)O)O)O)O)NC(=O)CCCCCCC)O
InChI: InChI=1S/C38H71NO13/c1-3-5-7-9-10-11-12-13-14-15-16-18-19-21-27(42)26(39-30(43)22-20-17-8-6-4-2)25-49-37-35(48)33(46)36(29(24-41)51-37)52-38-34(47)32(45)31(44)28(23-40)50-38/h19,21,26-29,31-38,40-42,44-48H,3-18,20,22-25H2,1-2H3,(H,39,43)/b21-19+/t26-,27+,28+,29+,31-,32?,33?,34?,35?,36+,37+,38-/m0/s1
Instrument: Agilent 6560 QTOF
Instrument type: LC-ESI-QTOF
Ms type: MS2
Ion mode: POSITIVE
Ionization: ESI
Fragmentation mode: CID
Collision energy: 10 eV
Resolution: 7000
Column name: Direct injection
Retention time: 0.211 min
Base peak: 772.4839
Precursor m/z: 732.4893
Precursor type: [M-H2O+H]+
Precursor intensity: 11199
m/z	relative intensity	assigned
171.1382	64	C10H19O2+
264.266	29	C15H36O3+
344.9771	35	C14H3NO10+
374.3263	47	C21H44NO4+
390.3721	134	C26H48NO+
392.3875	54	C26H50NO+
408.3835	48	C26H50NO2+
409.3836	37	C30H49+
486.9911	43	C34HNO4+
570.4233	24	C28H60NO10+
616.4457	40	C33H62NO9+
732.4886	999	C38H70NO12+
