Mass spectrum: GUANINE; LC-ESI-QTOF; MS2; CE: 20eV; R=5000; [M+H]+
Name: GUANINE
Name: CID 764
Name: 2-amino-3,7-dihydropurin-6-one
Formula: C5H5N5O
Exact mass: 151.04941
SMILES: NC1=NC(=O)C2=C(N1)N=CN2
InChI: InChI=1S/C5H5N5O/c6-5-9-3-2(4(11)10-5)7-1-8-3/h1H,(H4,6,7,8,9,10,11)
Instrument: Agilent 6530 QTOF
Instrument type: LC-ESI-QTOF
Ms type: MS2
Ion mode: POSITIVE
Ionization: ESI
Fragmentation mode: CID
Collision energy: 20 eV
Resolution: 5000
Column name: N/A
Retention time: 0.219 min
Base peak: 121.0508
Precursor m/z: 152.0567
Precursor type: [M+H]+
Precursor intensity: 65368
m/z	relative intensity	assigned
43.0288	204	CH3N2+
53.0123	75	C2HN2+
68.0122	74	CN4+
82.0403	137	C3H4N3+
83.0212	8	CHN5+
91.0501	88	H5N5O+
107.0343	75	C4H3N4+
110.0338	378	C4H4N3O+
135.0284	999	C5H3N4O+
152.0555	290	C5H6N5O+
