Mass spectrum: 2-Aminobenzothiazole; LC-ESI-QTOF; MS2; CE: 35eV; R=7000; [M+H]+
Name: 2-Aminobenzothiazole
Name: 1,3-benzothiazol-2-amine
Formula: C7H6N2S
Exact mass: 150.0252
SMILES: C1=CC=C2C(=C1)N=C(S2)N
InChI: InChI=1S/C7H6N2S/c8-7-9-5-3-1-2-4-6(5)10-7/h1-4H,(H2,8,9)
Instrument: Agilent 6560 QTOF
Instrument type: LC-ESI-QTOF
Ms type: MS2
Ion mode: POSITIVE
Ionization: ESI
Fragmentation mode: CID
Collision energy: 35 eV
Resolution: 7000
Retention time: 0.150 min
Base peak: 151.0331
Precursor m/z: 151.0324
Precursor type: [M+H]+
Precursor intensity: 253184.51
m/z	relative intensity	assigned
51.023	15	C4H3+
53.0388	28	C4H5+
59.9905	3	CH2NS+
63.0234	39	C5H3+
64.019	11	C4H2N+
65.0386	999	C5H5+
66.0458	10	C5H6+
68.9793	121	C3HS+
77.0385	83	C6H5+
80.0496	349	C5H6N+
82.9952	10	C4H3S+
90.0333	48	C6H4N+
91.0416	61	C6H5N+
92.0494	55	C6H6N+
93.0578	9	C6H7N+
96.0024	3	C5H4S+
97.0103	48	C5H5S+
106.995	8	C6H3S+
108.0028	31	C6H4S+
109.0107	660	C6H5S+
118.0527	91	C7H6N2+
123.0142	4	C6H5NS+
124.0215	120	C6H6NS+
134.0066	8	C7H4NS+
150.0225	2	C7H6N2S+
151.0319	44	C7H7N2S+
