Mass spectrum: 1-Hydroxy-2-naphthoate; LC-ESI-QTOF; MS2; CE: 10eV; R=7000; [M-H]-
Name: 1-Hydroxy-2-naphthoate
Name: 1-Hydroxy-2-naphthoic acid
Name: 1-hydroxynaphthalene-2-carboxylic acid
Formula: C11H8O3
Exact mass: 188.0473
SMILES: C1=CC=C2C(=C1)C=CC(=C2O)C(=O)O
InChI: InChI=1S/C11H8O3/c12-10-8-4-2-1-3-7(8)5-6-9(10)11(13)14/h1-6,12H,(H,13,14)
Instrument: Agilent 6560 QTOF
Instrument type: LC-ESI-QTOF
Ms type: MS2
Ion mode: NEGATIVE
Ionization: ESI
Fragmentation mode: CID
Collision energy: 10 eV
Resolution: 7000
Column name: N/A
Retention time: 0.165 min
Base peak: 255.2334
Precursor m/z: 187.0401
Precursor type: [M-H]-
Precursor intensity: 1982665
m/z	relative intensity	assigned
76.0319	1	C6H4-
84.0238	1	C4H4O2-
107.0137	1	C6H3O2-
115.0548	8	C9H7-
120.0004	1	C10-
143.0505	999	C10H7O-
187.0403	268	C11H7O3-
