Mass spectrum: Palmitic acid; LC-ESI-QTOF; MS2; CE: 20eV; R=7000; [M-H]-
Name: Palmitic acid
Name: hexadecanoic acid
Formula: C16H32O2
Exact mass: 256.2402
SMILES: CCCCCCCCCCCCCCCC(O)=O
InChI: InChI=1S/C16H32O2/c1-2-3-4-5-6-7-8-9-10-11-12-13-14-15-16(17)18/h2-15H2,1H3,(H,17,18)
Instrument: Agilent 6560 QTOF
Instrument type: LC-ESI-QTOF
Ms type: MS2
Ion mode: NEGATIVE
Ionization: ESI
Fragmentation mode: CID
Collision energy: 20 eV
Resolution: 7000
Column name: N/A
Retention time: 0.354 min
Base peak: 980.0164
Precursor m/z: 255.233
Precursor type: [M-H]-
Precursor intensity: 16071
m/z	relative intensity	assigned
203.2024	36	C12H27O2-
255.233	999	C16H31O2-
