Mass spectrum: PYRIDOXAL; LC-ESI-QTOF; MS2; CE: 40eV; R=5000; [M+H]+
Name: PYRIDOXAL
Name: 3-hydroxy-5-(hydroxymethyl)-2-methylpyridine-4-carbaldehyde
Formula: C8H9NO3
Exact mass: 167.05824
SMILES: CC1=NC=C(CO)C(C=O)=C1O
InChI: InChI=1S/C8H9NO3/c1-5-8(12)7(4-11)6(3-10)2-9-5/h2,4,10,12H,3H2,1H3
Instrument: Agilent 6530 QTOF
Instrument type: LC-ESI-QTOF
Ms type: MS2
Ion mode: POSITIVE
Ionization: ESI
Fragmentation mode: CID
Collision energy: 40 eV
Resolution: 5000
Column name: N/A
Retention time: 0.253 min
Base peak: 150.057
Precursor m/z: 168.0655
Precursor type: [M+H]+
Precursor intensity: 2819009
m/z	relative intensity	assigned
41.0392	999	C3H5+
42.0346	97	C2H4N+
43.0184	8	C2H3O+
50.0144	4	C4H2+
51.0233	160	C4H3+
53.0389	691	C4H5+
55.0176	7	C3H3O+
55.0543	3	C4H7+
56.0491	8	C3H6N+
63.0222	9	C5H3+
64.0304	2	C5H4+
65.0386	571	C5H5+
67.0542	895	C5H7+
75.0217	4	C6H3+
77.0384	433	C6H5+
78.0338	76	C5H4N+
79.0532	63	C6H7+
80.0484	11	C5H6N+
81.0344	18	C5H5O+
82.0625	4	C2H10O3+
92.048	41	C3H8O3+
93.0567	195	C6H7N+
94.0646	660	C6H8N+
96.0441	2	C5H6NO+
104.0457	3	C4H8O3+
106.0637	34	C4H10O3+
107.0363	2	C6H5NO+
108.0422	9	C6H6NO+
110.0573	2	C6H8NO+
120.047	8	C7H6NO+
122.0591	97	C7H8NO+
148.0378	13	C8H6NO2+
150.0536	21	C8H8NO2+
