Mass spectrum: Bis(2-butoxyethyl) 3?-hydroxy-2-butoxyethyl phosphate ; LC-ESI-QTOF; MS2; CE: 25eV; R=7000; [M+Na]+
Name: Bis(2-butoxyethyl) 3?-hydroxy-2-butoxyethyl phosphate 
Name: Bis(2-butoxyethyl) 3-hydroxyl-2-butoxyethyl phosphate
Name: bis(2-butoxyethyl) 2-(3-hydroxybutoxy)ethyl phosphate
Formula: C18H39O8P
Exact mass: 414.2383
SMILES: CCCCOCCOP(=O)(OCCOCCCC)OCCOCCC(C)O
InChI: InChI=1S/C18H39O8P/c1-4-6-9-21-12-15-24-27(20,25-16-13-22-10-7-5-2)26-17-14-23-11-8-18(3)19/h18-19H,4-17H2,1-3H3
Instrument: Agilent 6560 QTOF
Instrument type: LC-ESI-QTOF
Ms type: MS2
Ion mode: POSITIVE
Ionization: ESI
Fragmentation mode: CID
Collision energy: 25 eV
Resolution: 7000
Retention time: 0.148 min
Base peak: 415.2481
Precursor m/z: 437.2275
Precursor type: [M+Na]+
Precursor intensity: 145978.56
m/z	relative intensity	assigned
120.966	101	H3NaO4P+
139.0731	67	CH16O5P+
141.0897	16	CH18O5P+
146.9812	525	C2H5NaO4P+
157.0832	710	C6H14NaO3+
158.086	9	C8H15OP+
164.992	59	C2H7NaO5P+
177.0275	8	C4H11NaO4P+
203.044	30	C6H13NaO4P+
219.0393	293	C6H13NaO5P+
221.0552	322	C6H15NaO5P+
222.0576	18	C13H12NaP+
237.0494	604	C6H15NaO6P+
238.0538	9	C15H11OP+
257.171	32	C5H31NaO7P+
263.0632	20	C17H12OP+
293.1108	13	C10H23NaO6P+
319.1276	20	C12H25NaO6P+
321.1432	131	C12H27NaO6P+
322.1461	18	C17H22O6+
337.1386	999	C12H27NaO7P+
338.1429	45	C12H28NaO7P+
393.1996	15	C16H35NaO7P+
437.2272	792	C18H39NaO8P+
