Mass spectrum: 2(E)-octenoyl-L-carnitine; LC-ESI-QTOF; MS2; CE: 10eV; R=7000; [M+H]+
Name: 2(E)-octenoyl-L-carnitine
Name: 3-oct-2-enoyloxy-4-(trimethylazaniumyl)butanoate
Formula: C15H27NO4
Exact mass: 285.1940
SMILES: CCCCCC=CC(=O)OC(CC(=O)[O-])C[N+](C)(C)C
InChI: InChI=1S/C15H27NO4/c1-5-6-7-8-9-10-15(19)20-13(11-14(17)18)12-16(2,3)4/h9-10,13H,5-8,11-12H2,1-4H3
Instrument: Agilent 6560 QTOF
Instrument type: LC-ESI-QTOF
Ms type: MS2
Ion mode: POSITIVE
Ionization: ESI
Fragmentation mode: CID
Collision energy: 10 eV
Resolution: 7000
Column name: Direct injection
Retention time: 0.156 min
Base peak: 286.2021
Precursor m/z: 286.2013
Precursor type: [M+H]+
Precursor intensity: 986191
m/z	relative intensity	assigned
73.0283	18	C3H5O2+
79.0536	4	C6H7+
81.0705	2	C6H9+
85.0284	999	C4H5O2+
97.1012	10	C7H13+
101.0581	1	C5H9O2+
107.0852	2	C8H11+
125.0961	126	C8H13O+
143.1064	65	C8H15O2+
144.1014	25	C7H14NO2+
227.1279	172	C12H19O4+
228.1313	13	C12H20O4+
286.202	391	C15H28NO4+
