Mass spectrum: N-Heptadecanoyl-D-erythro-Sphingosine; LC-ESI-QTOF; MS2; CE: 40eV; R=7000; [M+HCOOH-H]-
Name: N-Heptadecanoyl-D-erythro-Sphingosine
Name: N-Heptadecanoylsphingosine
Name: N-[(E,2S,3R)-1,3-dihydroxyoctadec-4-en-2-yl]heptadecanamide
Formula: C35H69NO3
Exact mass: 551.5277
SMILES: OC[C@H](NC(CCCCCCCCCCCCCCCC)=O)[C@H](O)/C=C/CCCCCCCCCCCCC
InChI: InChI=1S/C35H69NO3/c1-3-5-7-9-11-13-15-17-19-21-23-25-27-29-31-35(39)36-33(32-37)34(38)30-28-26-24-22-20-18-16-14-12-10-8-6-4-2/h28,30,33-34,37-38H,3-27,29,31-32H2,1-2H3,(H,36,39)/b30-28+/t33-,34+/m0/s1
Instrument: Agilent 6560 QTOF
Instrument type: LC-ESI-QTOF
Ms type: MS2
Ion mode: NEGATIVE
Ionization: ESI
Fragmentation mode: CID
Collision energy: 40 eV
Resolution: 7000
Column name: N/A
Retention time: 0.239 min
Base peak: 610.5431
Precursor m/z: 596.5259
Precursor type: [M+HCOOH-H]-
Precursor intensity: 8906
m/z	relative intensity	assigned
237.2213	364	C16H29O-
251.2404	334	C17H31O-
281.5366	113	C15H69O2-
294.2783	999	C16H38O4-
294.35	67	C18H46O2-
537.2705	116	C35H37O5-
