Mass spectrum: Bisphenol AF; LC-ESI-QTOF; MS2; CE: 15eV; R=7000; [M-H]-
Name: Bisphenol AF
Name: 4-[1,1,1,3,3,3-hexafluoro-2-(4-hydroxyphenyl)propan-2-yl]phenol
Formula: C15H10F6O2
Exact mass: 336.0585
SMILES: C1=CC(=CC=C1C(C2=CC=C(C=C2)O)(C(F)(F)F)C(F)(F)F)O
InChI: InChI=1S/C15H10F6O2/c16-14(17,18)13(15(19,20)21,9-1-5-11(22)6-2-9)10-3-7-12(23)8-4-10/h1-8,22-23H
Instrument: Agilent 6560 QTOF
Instrument type: LC-ESI-QTOF
Ms type: MS2
Ion mode: NEGATIVE
Ionization: ESI
Fragmentation mode: CID
Collision energy: 15 eV
Resolution: 7000
Retention time: 0.188 min
Base peak: 335.0527
Precursor m/z: 335.0512
Precursor type: [M-H]-
Precursor intensity: 428218.29
m/z	relative intensity	assigned
68.9958	37	CF3-
111.0241	2	C9H3-
161.0218	9	C7H4F3O-
169.0436	1	C4H7F6-
177.0335	4	C8H5F4-
195.0442	2	C8H7F4O-
197.0398	5	C8H6F5-
205.029	1	C6H6F5O2-
225.035	5	C9H6F5O-
226.0433	1	C6H8F6O2-
244.0352	4	C14H6F2O2-
245.0414	6	C14H7F2O2-
246.0503	2	C14H8F2O2-
265.0481	999	C14H8F3O2-
266.0514	74	C12H8F6-
275.0356	1	C15H6F3O2-
295.0383	5	C15H7F4O2-
315.0448	20	C15H8F5O2-
316.0471	2	C15H9F5O2-
335.0512	73	C15H9F6O2-
