Mass spectrum: Tributyl acetylcitrate; LC-ESI-QTOF; MS2; CE: 10eV; R=7000; [M+H]+
Name: Tributyl acetylcitrate
Name: Acetyl tributyl citrate
Name: tributyl 2-acetyloxypropane-1,2,3-tricarboxylate
Formula: C20H34O8
Exact mass: 402.2254
SMILES: CCCCOC(=O)CC(CC(=O)OCCCC)(C(=O)OCCCC)OC(=O)C
InChI: InChI=1S/C20H34O8/c1-5-8-11-25-17(22)14-20(28-16(4)21,19(24)27-13-10-7-3)15-18(23)26-12-9-6-2/h5-15H2,1-4H3
Instrument: Agilent 6560 QTOF
Instrument type: LC-ESI-QTOF
Ms type: MS2
Ion mode: POSITIVE
Ionization: ESI
Fragmentation mode: CID
Collision energy: 10 eV
Resolution: 7000
Retention time: 0.110 min
Base peak: 425.2143
Precursor m/z: 403.2326
Precursor type: [M+H]+
Precursor intensity: 134101.1
m/z	relative intensity	assigned
57.0701	34	C4H9+
61.0286	109	C2H5O2+
68.9966	23	C3HO2+
87.0078	7	C3H3O3+
111.0074	130	C5H3O3+
129.0181	999	C5H5O4+
139.0022	569	C6H3O4+
157.013	477	C6H5O5+
158.0149	25	C13H2+
185.0806	869	C9H13O4+
213.0755	99	C10H13O5+
214.0776	18	C17H10+
217.034	229	C8H9O7+
218.038	6	C15H6O2+
259.1535	282	C13H23O5+
260.1568	48	C20H20+
273.0969	58	C12H17O7+
305.1571	7	C14H25O7+
329.1593	29	C16H25O7+
361.22	34	C18H33O7+
362.2227	6	C18H34O7+
