Mass spectrum: Bisphenol AF; LC-ESI-QTOF; MS2; CE: 40eV; R=7000; [M-H]-
Name: Bisphenol AF
Name: 4-[1,1,1,3,3,3-hexafluoro-2-(4-hydroxyphenyl)propan-2-yl]phenol
Formula: C15H10F6O2
Exact mass: 336.0585
SMILES: C1=CC(=CC=C1C(C2=CC=C(C=C2)O)(C(F)(F)F)C(F)(F)F)O
InChI: InChI=1S/C15H10F6O2/c16-14(17,18)13(15(19,20)21,9-1-5-11(22)6-2-9)10-3-7-12(23)8-4-10/h1-8,22-23H
Instrument: Agilent 6560 QTOF
Instrument type: LC-ESI-QTOF
Ms type: MS2
Ion mode: NEGATIVE
Ionization: ESI
Fragmentation mode: CID
Collision energy: 40 eV
Resolution: 7000
Retention time: 0.186 min
Base peak: 335.0528
Precursor m/z: 335.0512
Precursor type: [M-H]-
Precursor intensity: 286599.35
m/z	relative intensity	assigned
68.9961	999	CF3-
73.0091	5	C3H2FO-
93.034	13	C6H5O-
111.0249	256	C6H4FO-
112.0295	6	CH5F5-
117.0357	5	C5H6FO2-
134.015	5	C3H3F5-
139.0538	5	C3H8F5-
141.0349	11	C10H5O-
149.0395	178	C4H6F5-
153.0354	10	F6H7O2-
161.0219	20	C7H4F3O-
167.0507	49	C12H7O-
168.0551	7	C7H8F4-
169.0453	157	C4H7F6-
170.0509	13	C4H8F6-
171.0243	6	C14H3-
177.0344	475	C5H6F5O-
178.0399	33	C8H6F4-
179.0301	8	C5H5F6-
188.0445	11	C12H6F2-
189.0516	7	C12H7F2-
195.0457	186	C13H7O2-
196.0348	28	C10H6F2O2-
196.0511	60	C8H8F4O-
197.0408	543	C13H6FO-
198.0464	53	C8H7F5-
199.0377	6	C10H6F3O-
205.0296	82	C14H5O2-
206.0359	38	C9H6F4O-
207.0247	15	C6H5F6O-
215.0513	17	C13H8FO2-
216.0385	94	C8H6F6-
217.0453	22	C8H7F6-
219.0397	9	C13H6F3-
224.0271	57	C9H5F5O-
225.0357	310	C14H6FO2-
226.0411	26	C12H6F4-
227.0313	36	C14H5F2O-
235.0214	12	C15H4FO2-
237.0528	7	C13H8F3O-
244.0339	389	C14H6F2O2-
245.042	331	C14H7F2O2-
246.0455	22	C12H7F5-
247.0387	12	C11H7F4O2-
255.0268	17	C15H5F2O2-
265.0484	991	C14H8F3O2-
266.052	109	C12H8F6-
275.0325	7	C15H6F3O2-
295.0371	9	C15H7F4O2-
