Mass spectrum: N-Palmitoyl-D-sphingosine; LC-ESI-QTOF; MS2; CE: 40eV; R=7000; [M+HCOOH-H]-
Name: N-Palmitoyl-D-sphingosine
Name: N-Palmitoylsphingosine
Name: N-[(E,2S,3R)-1,3-dihydroxyoctadec-4-en-2-yl]hexadecanamide
Formula: C34H67NO3
Exact mass: 537.5121
SMILES: [H][C@@](CO)(NC(=O)CCCCCCCCCCCCCCC)[C@H](O)\C=C\CCCCCCCCCCCCC
InChI: InChI=1S/C34H67NO3/c1-3-5-7-9-11-13-15-17-19-21-23-25-27-29-33(37)32(31-36)35-34(38)30-28-26-24-22-20-18-16-14-12-10-8-6-4-2/h27,29,32-33,36-37H,3-26,28,30-31H2,1-2H3,(H,35,38)/b29-27+/t32-,33+/m0/s1
Instrument: Agilent 6560 QTOF
Instrument type: LC-ESI-QTOF
Ms type: MS2
Ion mode: NEGATIVE
Ionization: ESI
Fragmentation mode: CID
Collision energy: 40 eV
Resolution: 7000
Column name: N/A
Retention time: 0.264 min
Base peak: 596.5281
Precursor m/z: 582.5103
Precursor type: [M+HCOOH-H]-
Precursor intensity: 9381
m/z	relative intensity	assigned
226.1476	194	C12H20NO3-
233.3087	559	C15H39N-
237.2181	999	C16H29O-
238.0753	240	C11H12NO5-
239.2358	243	C16H31O-
249.2224	196	C17H29O-
251.2323	490	C17H31O-
253.2484	353	C17H33O-
255.2567	437	C16H33NO-
256.0509	122	C18H8O2-
276.1508	127	C20H20O-
278.4549	188	C13H60NO3-
280.2629	793	C15H36O4-
288.1374	284	C17H20O4-
321.3774	172	C20H49O2-
356.9996	298	C27HO2-
382.1641	753	C22H24NO5-
488.4854	760	C33H62NO-
506.4986	381	C33H64NO2-
