Mass spectrum: Tetrekis(2-chlorethyl) dichloroisopentyldiphosphate; LC-ESI-QTOF; MS2; CE: 55eV; R=7000; [M+H]+
Name: Tetrekis(2-chlorethyl) dichloroisopentyldiphosphate
Name: Phosphoric acid, 2,2-bis(chloromethyl)-1,3-propanediyl tetrakis(2-chloroethyl) ester
Name: [2-[bis(2-chloroethoxy)phosphoryloxymethyl]-3-chloro-2-(chloromethyl)propyl] bis(2-chloroethyl) phosphate
Formula: C13H24Cl6O8P2
Exact mass: 579.9078
SMILES: C(CCl)OP(=O)(OCCCl)OCC(COP(=O)(OCCCl)OCCCl)(CCl)CCl
InChI: InChI=1S/C13H24Cl6O8P2/c14-1-5-22-28(20,23-6-2-15)26-11-13(9-18,10-19)12-27-29(21,24-7-3-16)25-8-4-17/h1-12H2
Instrument: Agilent 6560 QTOF
Instrument type: LC-ESI-QTOF
Ms type: MS2
Ion mode: POSITIVE
Ionization: ESI
Fragmentation mode: CID
Collision energy: 55 eV
Resolution: 7000
Retention time: 0.111 min
Base peak: 582.9123
Precursor m/z: 580.915
Precursor type: [M+H]+
Precursor intensity: 16787.51
m/z	relative intensity	assigned
63	601	C2H4Cl+
65.0394	999	C5H5+
75.0006	127	C3H4Cl+
83.0482	56	C5H7O+
98.9843	777	H4O4P+
101.0158	375	C5H6Cl+
102.0171	69	H6O6+
110.983	161	CH4O4P+
124.9997	69	C2H6O4P+
136.9997	67	C3H6O4P+
163.014	99	Cl2H13O5+
234.9674	465	Cl4H15O5+
