Mass spectrum: URIDINE5DIPHOSPHATE; LC-ESI-QTOF; MS2; CE: 10eV; R=5000; [M+H]+
Name: URIDINE5DIPHOSPHATE
Name: Uridine-5`-diphosphate
Name: [(2R,3S,4R,5R)-5-(2,4-dioxopyrimidin-1-yl)-3,4-dihydroxyoxolan-2-yl]methyl phosphono hydrogen phosphate
Formula: C9H14N2O12P2
Exact mass: 404.0022
SMILES: O[C@H]1[C@@H](O)[C@@H](O[C@@H]1COP(O)(=O)OP(O)(O)=O)N1C=CC(=O)NC1=O
InChI: InChI=1S/C9H14N2O12P2/c12-5-1-2-11(9(15)10-5)8-7(14)6(13)4(22-8)3-21-25(19,20)23-24(16,17)18/h1-2,4,6-8,13-14H,3H2,(H,19,20)(H,10,12,15)(H2,16,17,18)/t4-,6-,7-,8-/m1/s1
Instrument: Agilent 6530 QTOF
Instrument type: LC-ESI-QTOF
Ms type: MS2
Ion mode: POSITIVE
Ionization: ESI
Fragmentation mode: CID
Collision energy: 10 eV
Resolution: 5000
Column name: N/A
Retention time: 0.322 min
Base peak: 121.0508
Precursor m/z: 405.0095
Precursor type: [M+H]+
Precursor intensity: 54028
m/z	relative intensity	assigned
41.0389	18	C3H5+
97.0274	999	C5H5O2+
98.0319	14	H6N2O4+
98.1079	2	C7H14+
113.0319	34	CH7NO5+
136.1154	5	C9H14N+
155.0448	11	C6H7N2O3+
160.1001	2	C7H14NO3+
166.0525	8	C9H11OP+
176.9896	43	C8H5NP2+
178.9399	1	C2HN2O4P2+
189.98	4	C2H8O6P2+
227.0676	52	C9H11N2O5+
232.9491	5	C2H5NO8P2+
233.0069	1	H13NO9P2+
242.9281	1	C2N2O10P+
254.0232	5	C2H10N2O12+
274.9654	9	C8H3O11+
275.9332	1	C6H2N2O7P2+
282.9008	2	HN2O12P2+
292.9733	13	C7H7N2O7P2+
293.0559	1	C9H14N2O7P+
307.0256	17	C9H13N2O6P2+
308.9079	1	C6HNO10P2+
362.9885	5	C8H13O12P2+
404.9997	21	C9H15N2O12P2+
