Mass spectrum: METHIONINE; LC-ESI-QTOF; MS2; CE: 10eV; R=5000; [M+H]+
Name: METHIONINE
Name: (2S)-2-amino-4-methylsulfanylbutanoic acid
Formula: C5H11NO2S
Exact mass: 149.05105
SMILES: CSCC[C@H](N)C(O)=O
InChI: InChI=1S/C5H11NO2S/c1-9-3-2-4(6)5(7)8/h4H,2-3,6H2,1H3,(H,7,8)/t4-/m0/s1
Instrument: Agilent 6530 QTOF
Instrument type: LC-ESI-QTOF
Ms type: MS2
Ion mode: POSITIVE
Ionization: ESI
Fragmentation mode: CID
Collision energy: 10 eV
Resolution: 5000
Column name: N/A
Retention time: 0.216 min
Base peak: 150.0583
Precursor m/z: 150.0583
Precursor type: [M+H]+
Precursor intensity: 1004327
m/z	relative intensity	assigned
41.0389	3	C3H5+
44.0496	8	C2H6N+
44.9798	17	CHS+
45.9873	4	CH2S+
46.0278	7	CH4NO+
49.0106	8	CH5S+
53.0376	9	C4H5+
56.0495	999	C3H6N+
58.9944	13	C2H3S+
61.0103	625	C2H5S+
65.0385	4	C5H5+
65.9996	1	H4NOS+
70.0651	11	C4H8N+
72.0012	5	C3H4S+
75.0255	10	C3H7S+
77.0057	9	C2H5OS+
84.0435	23	C4H6NO+
85.0264	16	C4H5O2+
87.0248	79	C4H7S+
88.0746	2	C4H10NO+
102.0538	143	C4H8NO2+
104.0522	548	C4H10NS+
115.0212	1	C5H7OS+
133.0301	426	C5H9O2S+
150.0569	150	C5H12NO2S+
