Mass spectrum: Tri-o-tolyl phosphate; LC-ESI-QTOF; MS2; CE: 30eV; R=7000; [M+H]+
Name: Tri-o-tolyl phosphate
Name: Tri-O-cresyl phosphate
Name: tris(2-methylphenyl) phosphate
Formula: C21H21O4P
Exact mass: 368.1177
SMILES: CC1=CC=CC=C1OP(=O)(OC2=CC=CC=C2C)OC3=CC=CC=C3C
InChI: InChI=1S/C21H21O4P/c1-16-10-4-7-13-19(16)23-26(22,24-20-14-8-5-11-17(20)2)25-21-15-9-6-12-18(21)3/h4-15H,1-3H3
Instrument: Agilent 6560 QTOF
Instrument type: LC-ESI-QTOF
Ms type: MS2
Ion mode: POSITIVE
Ionization: ESI
Fragmentation mode: CID
Collision energy: 30 eV
Resolution: 7000
Retention time: 0.110 min
Base peak: 369.1252
Precursor m/z: 369.125
Precursor type: [M+H]+
Precursor intensity: 248317.52
m/z	relative intensity	assigned
65.0388	117	C5H5+
77.0377	3	C6H5+
79.0536	7	C6H7+
91.0544	999	C7H7+
92.0575	56	H13O3P+
98.9845	5	H4O4P+
103.0537	5	C8H7+
105.0339	7	C7H5O+
105.0698	17	C8H9+
107.0484	66	C7H7O+
108.0523	3	H13O4P+
109.0646	11	C7H9O+
121.0643	20	C8H9O+
122.068	4	CH15O4P+
129.067	6	C10H9+
141.0694	35	C11H9+
151.0535	5	C12H7+
152.0625	9	C12H8+
153.0096	48	C7H6O2P+
153.0694	35	C12H9+
154.0157	4	C7H7O2P+
154.0738	6	C5H15O3P+
155.0839	3	C5H16O3P+
156.0915	3	C5H17O3P+
165.0698	347	C13H9+
166.0773	446	C13H10+
167.0254	25	C8H8O2P+
167.0807	27	C6H16O3P+
169.0059	6	C7H6O3P+
169.0987	16	C6H18O3P+
171.02	8	C7H8O3P+
178.0783	76	C14H10+
179.0851	158	C14H11+
180.091	17	C7H17O3P+
181.0656	6	C13H9O+
181.1012	84	C14H13+
182.0725	19	C13H10O+
182.1033	12	C7H19O3P+
183.019	3	C8H8O3P+
185.0789	3	C9H13O4+
187.0124	9	C7H8O4P+
189.0314	53	C7H10O4P+
195.0811	20	C14H11O+
196.0877	14	C14H12O+
197.0955	55	C14H13O+
199.1094	5	C7H20O4P+
206.1046	3	C9H19O3P+
215.083	5	C10H16O3P+
225.0476	5	C14H10OP+
227.0836	4	C11H16O3P+
229.1011	11	C18H13+
239.0844	8	C19H11+
240.0927	5	C19H12+
241.1001	47	C19H13+
242.1057	7	C12H19O3P+
243.0569	60	C14H12O2P+
244.0532	3	C17H8O2+
254.1051	3	C13H19O3P+
255.1161	22	C20H15+
256.1246	48	C20H16+
257.1252	3	C13H22O3P+
259.0501	9	C14H12O3P+
261.0672	42	C14H14O3P+
262.0712	6	C14H15O3P+
271.1456	11	C21H19+
277.0621	23	C14H14O4P+
279.0782	109	C14H16O4P+
280.0839	12	C14H17O4P+
369.1241	89	C21H22O4P+
