Mass spectrum: L-Tryptophan; LC-ESI-QTOF; MS2; CE: 10eV; R=5000; [M+H]+
Name: L-Tryptophan
Name: Tryptophan
Name: (2S)-2-amino-3-(1H-indol-3-yl)propanoic acid
Formula: C11H12N2O2
Exact mass: 204.08988
SMILES: C1=CC=C2C(=C1)C(=CN2)C[C@@H](C(=O)O)N
InChI: InChI=1S/C11H12N2O2/c12-9(11(14)15)5-7-6-13-10-4-2-1-3-8(7)10/h1-4,6,9,13H,5,12H2,(H,14,15)/t9-/m0/s1
Instrument: Agilent 6530 QTOF
Instrument type: LC-ESI-QTOF
Ms type: MS2
Ion mode: POSITIVE
Ionization: ESI
Fragmentation mode: CID
Collision energy: 10 eV
Resolution: 5000
Column name: N/A
Retention time: 0.219 min
Base peak: 121.0508
Precursor m/z: 205.0972
Precursor type: [M+H]+
Precursor intensity: 570237
m/z	relative intensity	assigned
51.022	2	C4H3+
74.0252	10	C2H4NO2+
77.0343	1	CH5N2O2+
89.0386	4	C7H5+
91.0531	19	C7H7+
103.0548	1	C8H7+
115.0543	27	C9H7+
116.0624	5	C9H8+
117.0642	20	C4H9N2O2+
118.0656	267	C8H8N+
127.0535	2	C10H7+
130.0629	36	C9H8N+
132.0805	72	C9H10N+
142.0641	32	C10H8N+
143.0729	26	C10H9N+
144.0814	165	C10H10N+
146.0606	726	C9H8NO+
149.0263	12	C11H3N+
149.1088	2	C9H13N2+
159.0905	74	C10H11N2+
160.0771	7	C10H10NO+
170.0583	70	C11H8NO+
171.0655	4	C11H9NO+
188.0715	999	C11H10NO2+
205.0963	33	C11H13N2O2+
