Mass spectrum: Butyryl trihexyl citrate; LC-ESI-QTOF; MS2; CE: 60eV; R=7000; [M+H]+
Name: Butyryl trihexyl citrate
Name: trihexyl 2-butanoyloxypropane-1,2,3-tricarboxylate
Formula: C28H50O8
Exact mass: 514.3506
SMILES: CCCCCCOC(=O)CC(CC(=O)OCCCCCC)(C(=O)OCCCCCC)OC(=O)CCC
InChI: InChI=1S/C28H50O8/c1-5-9-12-15-19-33-25(30)22-28(36-24(29)18-8-4,27(32)35-21-17-14-11-7-3)23-26(31)34-20-16-13-10-6-2/h5-23H2,1-4H3
Instrument: Agilent 6560 QTOF
Instrument type: LC-ESI-QTOF
Ms type: MS2
Ion mode: POSITIVE
Ionization: ESI
Fragmentation mode: CID
Collision energy: 60 eV
Resolution: 7000
Retention time: 0.110 min
Base peak: 537.3393
Precursor m/z: 515.3578
Precursor type: [M+H]+
Precursor intensity: 26015.61
m/z	relative intensity	assigned
57.0702	174	C4H9+
68.9976	999	C3HO2+
71.0498	199	C4H7O+
85.1014	34	C6H13+
87.0083	122	C3H3O3+
89.0607	66	C4H9O2+
111.0076	795	C5H3O3+
129.0183	422	C5H5O4+
139.0026	348	C6H3O4+
