Mass spectrum: Diphenylcresyl phosphate; LC-ESI-QTOF; MS2; CE: 5eV; R=7000; [M+H]+
Name: Diphenylcresyl phosphate
Name: Phosphoric acid, 2-methylphenyl diphenyl ester
Name: (2-methylphenyl) diphenyl phosphate
Formula: C19H17O4P
Exact mass: 340.0864
SMILES: CC1=CC=CC=C1OP(=O)(OC2=CC=CC=C2)OC3=CC=CC=C3
InChI: InChI=1S/C19H17O4P/c1-16-10-8-9-15-19(16)23-24(20,21-17-11-4-2-5-12-17)22-18-13-6-3-7-14-18/h2-15H,1H3
Instrument: Agilent 6560 QTOF
Instrument type: LC-ESI-QTOF
Ms type: MS2
Ion mode: POSITIVE
Ionization: ESI
Fragmentation mode: CID
Collision energy: 5 eV
Resolution: 7000
Retention time: 0.110 min
Base peak: 341.0943
Precursor m/z: 341.0937
Precursor type: [M+H]+
Precursor intensity: 189453.96
m/z	relative intensity	assigned
65.0385	3	C5H5+
77.0377	2	C6H5+
91.0545	9	C7H7+
95.0841	1	H16O3P+
152.0613	15	C12H8+
153.0709	2	C12H9+
165.0696	7	C13H9+
167.0838	5	C6H16O3P+
175.0168	2	C13H3O+
228.0933	4	C18H12+
229.0407	15	C13H10O2P+
247.0523	8	C13H12O3P+
265.061	5	C13H14O4P+
323.0836	2	C19H16O3P+
341.0944	999	C19H18O4P+
