Mass spectrum: HOMOSERINE; LC-ESI-QTOF; MS2; CE: 20eV; R=5000; [M+H]+
Name: HOMOSERINE
Name: L-homoserine
Name: (2S)-2-amino-4-hydroxybutanoic acid
Formula: C4H9NO3
Exact mass: 119.0582
SMILES: N[C@@H](CCO)C(O)=O
InChI: InChI=1S/C4H9NO3/c5-3(1-2-6)4(7)8/h3,6H,1-2,5H2,(H,7,8)/t3-/m0/s1
Instrument: Agilent 6530 QTOF
Instrument type: LC-ESI-QTOF
Ms type: MS2
Ion mode: POSITIVE
Ionization: ESI
Fragmentation mode: CID
Collision energy: 20 eV
Resolution: 5000
Column name: N/A
Retention time: 0.218 min
Base peak: 121.0508
Precursor m/z: 120.0655
Precursor type: [M+H]+
Precursor intensity: 119378
m/z	relative intensity	assigned
41.0393	26	C3H5+
44.0496	399	C2H6N+
52.0172	5	C3H2N+
56.0494	999	C3H6N+
57.0549	4	H9O3+
58.0648	40	C3H8N+
63.009	1	C4HN+
74.059	229	C3H8NO+
77.0094	6	CH3NO3+
84.0461	6	C4H6NO+
93.042	16	C2H7NO3+
