Mass spectrum: Diphenylcresyl phosphate; LC-ESI-QTOF; MS2; CE: 30eV; R=7000; [M+H]+
Name: Diphenylcresyl phosphate
Name: Phosphoric acid, 2-methylphenyl diphenyl ester
Name: (2-methylphenyl) diphenyl phosphate
Formula: C19H17O4P
Exact mass: 340.0864
SMILES: CC1=CC=CC=C1OP(=O)(OC2=CC=CC=C2)OC3=CC=CC=C3
InChI: InChI=1S/C19H17O4P/c1-16-10-8-9-15-19(16)23-24(20,21-17-11-4-2-5-12-17)22-18-13-6-3-7-14-18/h2-15H,1H3
Instrument: Agilent 6560 QTOF
Instrument type: LC-ESI-QTOF
Ms type: MS2
Ion mode: POSITIVE
Ionization: ESI
Fragmentation mode: CID
Collision energy: 30 eV
Resolution: 7000
Retention time: 0.110 min
Base peak: 341.0936
Precursor m/z: 341.0937
Precursor type: [M+H]+
Precursor intensity: 156311.46
m/z	relative intensity	assigned
50.0156	15	C4H2+
51.0239	44	C4H3+
65.0388	167	C5H5+
77.0385	464	C6H5+
79.0547	14	C6H7+
91.0545	999	C7H7+
92.0579	59	H13O3P+
93.0329	12	C6H5O+
95.0486	31	C6H7O+
98.9833	10	H4O4P+
107.0486	76	C7H7O+
108.0546	11	H13O4P+
109.0651	19	C7H9O+
115.0535	10	C9H7+
129.069	17	C10H9+
138.9928	16	C6H4O2P+
141.0684	18	C4H14O3P+
142.0779	9	C11H10+
151.0531	88	C12H7+
152.0618	892	C12H8+
153.0679	149	C5H14O3P+
165.0693	495	C13H9+
166.076	133	C6H15O3P+
167.0854	160	C13H11+
168.056	41	C12H8O+
169.0652	8	C12H9O+
175.0154	53	C6H8O4P+
181.0635	29	C6H14O4P+
182.0718	153	C13H10O+
183.0767	20	C6H16O4P+
185.098	14	C13H13O+
187.0293	13	C11H8OP+
189.0312	18	C7H10O4P+
201.0456	27	C12H10OP+
215.0256	191	C12H8O2P+
215.0782	10	C10H16O3P+
226.0811	10	C18H10+
227.0846	60	C18H11+
228.0932	120	C18H12+
229.0408	417	C13H10O2P+
229.0974	35	C11H18O3P+
230.0435	52	C13H11O2P+
233.0348	30	C12H10O3P+
240.0886	8	C12H17O3P+
241.0991	15	C12H18O3P+
242.1093	19	C19H14+
243.1155	15	C19H15+
247.0516	83	C13H12O3P+
248.0536	17	C13H13O3P+
251.0469	95	C12H12O4P+
265.0625	130	C13H14O4P+
266.0676	12	C13H15O4P+
305.072	12	C19H14O2P+
341.0931	81	C19H18O4P+
