Mass spectrum: Bisphenol AF; LC-ESI-QTOF; MS2; CE: 45eV; R=7000; [M-H]-
Name: Bisphenol AF
Name: 4-[1,1,1,3,3,3-hexafluoro-2-(4-hydroxyphenyl)propan-2-yl]phenol
Formula: C15H10F6O2
Exact mass: 336.0585
SMILES: C1=CC(=CC=C1C(C2=CC=C(C=C2)O)(C(F)(F)F)C(F)(F)F)O
InChI: InChI=1S/C15H10F6O2/c16-14(17,18)13(15(19,20)21,9-1-5-11(22)6-2-9)10-3-7-12(23)8-4-10/h1-8,22-23H
Instrument: Agilent 6560 QTOF
Instrument type: LC-ESI-QTOF
Ms type: MS2
Ion mode: NEGATIVE
Ionization: ESI
Fragmentation mode: CID
Collision energy: 45 eV
Resolution: 7000
Retention time: 0.186 min
Base peak: 335.0528
Precursor m/z: 335.0512
Precursor type: [M-H]-
Precursor intensity: 228726.3
m/z	relative intensity	assigned
68.996	999	CF3-
84.9895	5	CF3O-
91.0185	7	C6H3O-
111.025	268	C6H4FO-
117.0337	6	C3H5F4-
125.0408	5	C7H6FO-
141.0361	5	C7H6FO2-
149.0396	268	C12H5-
153.0332	11	C6H5F4-
161.0214	22	C10H3F2-
167.0501	65	C4H8F5O-
169.0456	186	C4H7F6-
170.052	13	C4H8F6-
176.0267	8	C13H4O-
177.0347	558	C13H5O-
178.0388	63	C8H6F4-
179.0291	17	C5H5F6-
187.0195	14	C3H5F6O2-
188.0437	24	C12H6F2-
195.0454	149	C13H7O2-
196.0331	45	C13H5FO-
196.0503	40	C11H7F3-
197.0408	382	C13H6FO-
198.0455	18	C8H7F5-
199.0358	21	C13H5F2-
205.0295	94	C14H5O2-
206.0362	13	C9H6F4O-
207.0255	22	C14H4FO-
215.0515	10	C13H8FO2-
216.0397	116	C13H6F2O-
217.0439	26	C8H7F6-
224.0279	78	C14H5FO2-
225.0355	154	C6H7F6O2-
226.0409	20	C12H6F4-
227.0321	25	C11H6F3O2-
235.0227	7	C15H4FO2-
244.0339	227	C14H6F2O2-
245.0414	207	C14H7F2O2-
246.046	9	C12H7F5-
255.0273	10	C15H5F2O2-
263.0313	6	C12H5F6-
265.0483	285	C14H8F3O2-
266.0513	18	C12H8F6-
275.0343	5	C15H6F3O2-
