Mass spectrum: Progesterone; LC-ESI-QTOF; MS2; CE: 10eV; R=7000; [M-CH3]-
Name: Progesterone
Name: (8S,9S,10R,13S,14S,17S)-17-acetyl-10,13-dimethyl-1,2,6,7,8,9,11,12,14,15,16,17-dodecahydrocyclopenta[a]phenanthren-3-one
Formula: C21H30O2
Exact mass: 314.2246
SMILES: CC(=O)[C@H]1CC[C@@H]2[C@@]1(CC[C@H]3[C@H]2CCC4=CC(=O)CC[C@]34C)C
InChI: InChI=1S/C21H30O2/c1-13(22)17-6-7-18-16-5-4-14-12-15(23)8-10-20(14,2)19(16)9-11-21(17,18)3/h12,16-19H,4-11H2,1-3H3/t16-,17+,18-,19-,20-,21+/m0/s1
Instrument: Agilent 6560 QTOF
Instrument type: LC-ESI-QTOF
Ms type: MS2
Ion mode: NEGATIVE
Ionization: ESI
Fragmentation mode: CID
Collision energy: 10 eV
Resolution: 7000
Column name: N/A
Retention time: 0.265 min
Base peak: 980.0164
Precursor m/z: 299.2017
Precursor type: [M-CH3]-
Precursor intensity: 9635
m/z	relative intensity	assigned
274.1907	999	C18H26O2-
299.1971	663	C20H27O2-
