Mass spectrum: ADENOSINEDIPHOSPHATERIBOSE; LC-ESI-QTOF; MS2; CE: 20eV; R=5000; [M+H]+
Name: ADENOSINEDIPHOSPHATERIBOSE
Name: Adenosine diphosphate ribose
Name: [[5-(6-aminopurin-9-yl)-3,4-dihydroxyoxolan-2-yl]methoxy-hydroxyphosphoryl] (3,4,5-trihydroxyoxolan-2-yl)methyl hydrogen phosphate
Formula: C15H23N5O14P2
Exact mass: 559.0717
SMILES: NC1=C2N=CN(C3OC(COP(O)(=O)OP(O)(=O)OCC4OC(O)C(O)C4O)C(O)C3O)C2=NC=N1
InChI: InChI=1S/C15H23N5O14P2/c16-12-7-13(18-3-17-12)20(4-19-7)14-10(23)8(21)5(32-14)1-30-35(26,27)34-36(28,29)31-2-6-9(22)11(24)15(25)33-6/h3-6,8-11,14-15,21-25H,1-2H2,(H,26,27)(H,28,29)(H2,16,17,18)
Instrument: Agilent 6530 QTOF
Instrument type: LC-ESI-QTOF
Ms type: MS2
Ion mode: POSITIVE
Ionization: ESI
Fragmentation mode: CID
Collision energy: 20 eV
Resolution: 5000
Column name: N/A
Retention time: 0.286 min
Base peak: 121.0508
Precursor m/z: 560.079
Precursor type: [M+H]+
Precursor intensity: 70375
m/z	relative intensity	assigned
59.0474	7	CH5N3+
65.0167	2	CH6OP+
69.0339	2	H8NOP+
73.0533	1	C3H7NO+
87.1458	3	H17N5+
94.0381	12	CH6N2O3+
97.0255	86	H5N2O4+
105.0431	4	C3H7NO3+
105.0774	1	C2H9N4O+
115.0734	30	C4H9N3O+
119.0373	7	C3H8N2OP+
136.0599	999	C4H10NO4+
137.0639	16	C5H15P2+
137.122	4	C3H23OP2+
137.9588	4	CHNO5P+
138.1184	1	C2H22NOP2+
138.1993	6	C6H24N3+
173.0014	2	C3H5N5P2+
175.9454	6	C7NOP2+
179.986	1	C3H6N2O3P2+
180.1617	1	C11H20N2+
190.0619	9	CH14N5O2P2+
190.1314	1	C4H21N3O3P+
202.9212	2	CO10P+
232.0786	20	C6H16O9+
250.0889	56	C6H18O10+
251.0791	4	C8H16N2O5P+
269.0842	3	C11H17N3OP2+
285.1528	1	C9H23N3O7+
306.0922	2	C5H23O12P+
327.8809	6	N3O14P2+
327.9428	1	C13H2N2O5P2+
345.8684	5	C5O14P2+
348.0648	278	C8H16N2O13+
349.0826	4	C11H19N4O5P2+
349.1303	6	C15H20N5O3P+
350.0523	1	C9H20O10P2+
352.0487	1	C13H14N4O4P2+
428.0315	99	C13H10N5O12+
430.0053	2	C10H14N3O12P2+
461.9642	2	C15H6N5O9P2+
462.004	1	C13H11N4O13P+
487.964	5	C13H8N5O12P2+
524.0377	15	C15H18N4O13P2+
542.0574	10	C15H22N5O13P2+
560.075	20	C15H24N5O14P2+
