Mass spectrum: Diphenylcresyl phosphate; LC-ESI-QTOF; MS2; CE: 55eV; R=7000; [M+H]+
Name: Diphenylcresyl phosphate
Name: Phosphoric acid, 2-methylphenyl diphenyl ester
Name: (2-methylphenyl) diphenyl phosphate
Formula: C19H17O4P
Exact mass: 340.0864
SMILES: CC1=CC=CC=C1OP(=O)(OC2=CC=CC=C2)OC3=CC=CC=C3
InChI: InChI=1S/C19H17O4P/c1-16-10-8-9-15-19(16)23-24(20,21-17-11-4-2-5-12-17)22-18-13-6-3-7-14-18/h2-15H,1H3
Instrument: Agilent 6560 QTOF
Instrument type: LC-ESI-QTOF
Ms type: MS2
Ion mode: POSITIVE
Ionization: ESI
Fragmentation mode: CID
Collision energy: 55 eV
Resolution: 7000
Retention time: 0.148 min
Base peak: 363.0756
Precursor m/z: 341.0937
Precursor type: [M+H]+
Precursor intensity: 65638.84
m/z	relative intensity	assigned
50.0154	30	C4H2+
51.0236	173	C4H3+
63.0243	40	C5H3+
65.0389	424	C5H5+
77.0384	611	C6H5+
79.0545	32	C6H7+
91.054	999	C7H7+
95.0484	39	C6H7O+
107.0488	67	C7H7O+
121.0284	21	C7H5O2+
127.0507	24	C3H12O3P+
141.0676	48	C4H14O3P+
147.038	17	C9H8P+
150.0461	17	C12H6+
151.0533	72	C12H7+
152.0614	778	C12H8+
153.0666	55	C5H14O3P+
155.083	32	C5H16O3P+
165.0698	529	C13H9+
166.0747	150	C6H15O3P+
167.0846	31	C13H11+
168.0567	90	C12H8O+
169.0592	24	C5H14O4P+
181.0641	158	C13H9O+
182.0724	124	C13H10O+
183.0769	38	C6H16O4P+
186.0205	29	C11H7OP+
202.0769	36	C16H10+
215.0261	35	C12H8O2P+
224.0593	17	C11H13O3P+
226.0779	74	C18H10+
227.0837	87	C11H16O3P+
229.0404	39	C13H10O2P+
230.041	21	C16H6O2+
