Mass spectrum: D-lactosyl-beta-1,1 N-octanoyl-D-erythro-sphingosine; LC-ESI-QTOF; MS2; CE: 10eV; R=7000; [M+H]+
Name: D-lactosyl-beta-1,1 N-octanoyl-D-erythro-sphingosine
Name: C8 Lactosyl(beta) Ceramide (d18:1/8:0), D-lactosyl-beta-1,1` N-octanoyl-D-erythro-sphingosine, powder
Name: N-[(E,2S,3R)-1-[(2R,5S,6R)-3,4-dihydroxy-6-(hydroxymethyl)-5-[(2S,5R,6R)-3,4,5-trihydroxy-6-(hydroxymethyl)oxan-2-yl]oxyoxan-2-yl]oxy-3-hydroxyoctadec-4-en-2-yl]octanamide
Formula: C38H71NO13
Exact mass: 749.4925
SMILES: CCCCCCCCCCCCC/C=C/[C@H]([C@H](CO[C@H]1C(C([C@@H]([C@H](O1)CO)O[C@H]2C(C([C@H]([C@H](O2)CO)O)O)O)O)O)NC(=O)CCCCCCC)O
InChI: InChI=1S/C38H71NO13/c1-3-5-7-9-10-11-12-13-14-15-16-18-19-21-27(42)26(39-30(43)22-20-17-8-6-4-2)25-49-37-35(48)33(46)36(29(24-41)51-37)52-38-34(47)32(45)31(44)28(23-40)50-38/h19,21,26-29,31-38,40-42,44-48H,3-18,20,22-25H2,1-2H3,(H,39,43)/b21-19+/t26-,27+,28+,29+,31-,32?,33?,34?,35?,36+,37+,38-/m0/s1
Instrument: Agilent 6560 QTOF
Instrument type: LC-ESI-QTOF
Ms type: MS2
Ion mode: POSITIVE
Ionization: ESI
Fragmentation mode: CID
Collision energy: 10 eV
Resolution: 7000
Column name: Direct injection
Retention time: 0.182 min
Base peak: 750.5016
Precursor m/z: 750.4998
Precursor type: [M+H]+
Precursor intensity: 218183
m/z	relative intensity	assigned
73.0298	4	C3H5O2+
85.0274	3	C4H5O2+
144.1383	5	C8H18NO+
168.1352	3	C7H20O4+
247.2431	5	C18H31+
252.2688	23	C17H34N+
264.2692	222	C18H34N+
265.2727	10	H43NO13+
265.4619	1	C13H61O3+
282.2787	27	C18H36NO+
365.122	2	C18H21O8+
376.2582	2	C23H36O4+
378.3738	14	C25H48NO+
390.3728	104	C26H48NO+
391.3774	17	C23H51O4+
391.5205	2	C27H67+
392.3894	7	C26H50NO+
393.3847	2	C12H57O12+
398.2381	1	C17H36NO9+
408.3843	999	C26H50NO2+
409.3876	116	C23H53O5+
426.3956	106	C26H52NO3+
427.3969	9	C23H55O6+
428.3253	2	C13H50NO13+
491.4104	5	C31H55O4+
522.3822	6	C23H56NO11+
570.4361	39	C32H60NO7+
571.44	10	C29H63O10+
572.1675	2	C32H28O10+
585.971	4	C30H4NO13+
588.4034	4	C38H54NO4+
588.4398	3	C36H60O6+
589.4499	4	C29H65O11+
732.4902	470	C38H70NO12+
733.4945	119	C38H71NO12+
734.5057	1	C38H72NO12+
750.5033	35	C38H72NO13+
