Mass spectrum: SARCOSINE; LC-ESI-QTOF; MS2; CE: 40eV; R=5000; [M+H]+
Name: SARCOSINE
Name: 2-(methylamino)acetic acid
Formula: C3H7NO2
Exact mass: 89.04768
SMILES: CNCC(O)=O
InChI: InChI=1S/C3H7NO2/c1-4-2-3(5)6/h4H,2H2,1H3,(H,5,6)
Instrument: Agilent 6530 QTOF
Instrument type: LC-ESI-QTOF
Ms type: MS2
Ion mode: POSITIVE
Ionization: ESI
Fragmentation mode: CID
Collision energy: 40 eV
Resolution: 5000
Column name: N/A
Retention time: 0.287 min
Base peak: 121.0508
Precursor m/z: 90.055
Precursor type: [M+H]+
Precursor intensity: 25868
m/z	relative intensity	assigned
43.0413	999	C2H5N+
68.0125	210	C3H2NO+
