Mass spectrum: 2,2`-{Propane-2,2-diylbis[(4,1-phenylene)oxymethylene]}bis(oxirane); LC-ESI-QTOF; MS2; CE: 10eV; R=7000; [M+NH4]+
Name: 2,2`-{Propane-2,2-diylbis[(4,1-phenylene)oxymethylene]}bis(oxirane)
Name: Bisphenol A diglycidyl ether
Name: 2-[[4-[2-[4-(oxiran-2-ylmethoxy)phenyl]propan-2-yl]phenoxy]methyl]oxirane
Formula: C21H24O4
Exact mass: 340.1675
SMILES: CC(C)(C1=CC=C(C=C1)OCC2CO2)C3=CC=C(C=C3)OCC4CO4
InChI: InChI=1S/C21H24O4/c1-21(2,15-3-7-17(8-4-15)22-11-19-13-24-19)16-5-9-18(10-6-16)23-12-20-14-25-20/h3-10,19-20H,11-14H2,1-2H3
Instrument: Agilent 6560 QTOF
Instrument type: LC-ESI-QTOF
Ms type: MS2
Ion mode: POSITIVE
Ionization: ESI
Fragmentation mode: CID
Collision energy: 10 eV
Resolution: 7000
Column name: ZORBAX Extend-C18 3.5um, 2.1x50mm, Agilent Technologies
Retention time: 3.576 min
Base peak: 358.2011
Precursor m/z: 358.2013
Precursor type: [M+NH4]+
Precursor intensity: 103157.22
m/z	relative intensity	assigned
74.0609	8	C3H8NO+
105.0686	6	C8H9+
107.05	13	C7H7O+
107.0833	3	C8H11+
121.0643	3	C8H9O+
133.0639	6	C9H9O+
135.0803	75	C9H11O+
143.0855	4	C11H11+
147.0825	3	C10H11O+
161.0952	236	C11H13O+
173.0955	8	C12H13O+
191.1078	999	C12H15O2+
203.1064	5	C13H15O2+
227.1452	3	C16H19O+
281.1528	22	C19H21O2+
311.1623	18	C20H23O3+
323.1612	5	C21H23O3+
358.1994	113	C21H28NO4+
