Mass spectrum: D-lactosyl-beta-1,1 N-octanoyl-D-erythro-sphingosine; LC-ESI-QTOF; MS2; CE: 40eV; R=7000; [M+Na]+
Name: D-lactosyl-beta-1,1 N-octanoyl-D-erythro-sphingosine
Name: C8 Lactosyl(beta) Ceramide (d18:1/8:0), D-lactosyl-beta-1,1` N-octanoyl-D-erythro-sphingosine, powder
Name: N-[(E,2S,3R)-1-[(2R,5S,6R)-3,4-dihydroxy-6-(hydroxymethyl)-5-[(2S,5R,6R)-3,4,5-trihydroxy-6-(hydroxymethyl)oxan-2-yl]oxyoxan-2-yl]oxy-3-hydroxyoctadec-4-en-2-yl]octanamide
Formula: C38H71NO13
Exact mass: 749.4925
SMILES: CCCCCCCCCCCCC/C=C/[C@H]([C@H](CO[C@H]1C(C([C@@H]([C@H](O1)CO)O[C@H]2C(C([C@H]([C@H](O2)CO)O)O)O)O)O)NC(=O)CCCCCCC)O
InChI: InChI=1S/C38H71NO13/c1-3-5-7-9-10-11-12-13-14-15-16-18-19-21-27(42)26(39-30(43)22-20-17-8-6-4-2)25-49-37-35(48)33(46)36(29(24-41)51-37)52-38-34(47)32(45)31(44)28(23-40)50-38/h19,21,26-29,31-38,40-42,44-48H,3-18,20,22-25H2,1-2H3,(H,39,43)/b21-19+/t26-,27+,28+,29+,31-,32?,33?,34?,35?,36+,37+,38-/m0/s1
Instrument: Agilent 6560 QTOF
Instrument type: LC-ESI-QTOF
Ms type: MS2
Ion mode: POSITIVE
Ionization: ESI
Fragmentation mode: CID
Collision energy: 40 eV
Resolution: 7000
Column name: Direct injection
Retention time: 0.208 min
Base peak: 772.483
Precursor m/z: 772.4818
Precursor type: [M+Na]+
Precursor intensity: 174467
m/z	relative intensity	assigned
181.0819	1	C8H14NaO3+
203.0507	5	C15H7O+
207.0269	6	C8H8NaO5+
221.0843	8	C3H18NaO9+
245.0592	2	C2H15NO12+
259.0797	2	C9H16NaO7+
262.9764	2	C3H5NO13+
272.1139	3	C12H18NO6+
305.0828	6	C22H11NO+
347.0943	27	C24H13NO2+
348.0958	4	C19H17NaO5+
365.1042	55	C24H15NO3+
366.1065	6	C19H19NaO6+
388.2016	1	C24H29NaO3+
398.2391	17	C17H36NO9+
406.9856	2	C14H8NaO13+
448.3816	3	C18H56O11+
490.3844	2	C25H55NaO7+
576.4158	1	C36H57NaO4+
592.4118	2	C38H56O5+
610.4288	79	C32H61NNaO8+
611.4326	8	C29H64NaO11+
675.0911	3	C38H20NaO11+
754.4722	3	C38H69NNaO12+
755.4812	2	C38H70NNaO12+
772.4821	999	C38H71NNaO13+
