Mass spectrum: Tetrekis(2-chlorethyl) dichloroisopentyldiphosphate; LC-ESI-QTOF; MS2; CE: 45eV; R=7000; [M+H]+
Name: Tetrekis(2-chlorethyl) dichloroisopentyldiphosphate
Name: Phosphoric acid, 2,2-bis(chloromethyl)-1,3-propanediyl tetrakis(2-chloroethyl) ester
Name: [2-[bis(2-chloroethoxy)phosphoryloxymethyl]-3-chloro-2-(chloromethyl)propyl] bis(2-chloroethyl) phosphate
Formula: C13H24Cl6O8P2
Exact mass: 579.9078
SMILES: C(CCl)OP(=O)(OCCCl)OCC(COP(=O)(OCCCl)OCCCl)(CCl)CCl
InChI: InChI=1S/C13H24Cl6O8P2/c14-1-5-22-28(20,23-6-2-15)26-11-13(9-18,10-19)12-27-29(21,24-7-3-16)25-8-4-17/h1-12H2
Instrument: Agilent 6560 QTOF
Instrument type: LC-ESI-QTOF
Ms type: MS2
Ion mode: POSITIVE
Ionization: ESI
Fragmentation mode: CID
Collision energy: 45 eV
Resolution: 7000
Retention time: 0.111 min
Base peak: 582.9129
Precursor m/z: 580.915
Precursor type: [M+H]+
Precursor intensity: 17865.56
m/z	relative intensity	assigned
63	643	C2H4Cl+
65.0388	673	C5H5+
66.0451	64	C5H6+
74.9977	60	C2H4OP+
80.9731	89	H2O3P+
83.0492	62	C5H7O+
98.9847	687	CH4ClO3+
101.0159	256	C5H6Cl+
110.9833	73	CH4O4P+
120.0284	62	H8O7+
136.9923	67	C5H7Cl2+
142.9668	93	C3H5Cl2O2+
163.0155	104	C5H8O4P+
234.9681	999	C4H10ClO5P2+
235.97	54	C11H7ClP2+
296.9597	79	C2H18Cl5O5+
