Mass spectrum: 2(E)-octenoyl-L-carnitine; LC-ESI-QTOF; MS2; CE: 20eV; R=7000; [M+H]+
Name: 2(E)-octenoyl-L-carnitine
Name: 3-oct-2-enoyloxy-4-(trimethylazaniumyl)butanoate
Formula: C15H27NO4
Exact mass: 285.1940
SMILES: CCCCCC=CC(=O)OC(CC(=O)[O-])C[N+](C)(C)C
InChI: InChI=1S/C15H27NO4/c1-5-6-7-8-9-10-15(19)20-13(11-14(17)18)12-16(2,3)4/h9-10,13H,5-8,11-12H2,1-4H3
Instrument: Agilent 6560 QTOF
Instrument type: LC-ESI-QTOF
Ms type: MS2
Ion mode: POSITIVE
Ionization: ESI
Fragmentation mode: CID
Collision energy: 20 eV
Resolution: 7000
Column name: Direct injection
Retention time: 0.153 min
Base peak: 286.2019
Precursor m/z: 286.2013
Precursor type: [M+H]+
Precursor intensity: 762484
m/z	relative intensity	assigned
73.0283	48	C3H5O2+
79.0546	4	C6H7+
81.0698	1	C6H9+
83.0846	2	C6H11+
85.0282	999	C4H5O2+
97.1009	6	C7H13+
107.0858	1	C8H11+
125.0955	33	C8H13O+
129.0781	1	C6H11NO2+
143.107	24	C8H15O2+
144.1007	15	C7H14NO2+
227.1275	10	C12H19O4+
228.1317	1	C12H20O4+
286.2016	12	C15H28NO4+
