Mass spectrum: Tris(2-chloroethyl) phosphate; LC-ESI-QTOF; MS2; CE: 40eV; R=7000; [M+H]+
Name: Tris(2-chloroethyl) phosphate
Formula: C6H12Cl3O4P
Exact mass: 283.9539
SMILES: C(CCl)OP(=O)(OCCCl)OCCCl
InChI: InChI=1S/C6H12Cl3O4P/c7-1-4-11-14(10,12-5-2-8)13-6-3-9/h1-6H2
Instrument: Agilent 6560 QTOF
Instrument type: LC-ESI-QTOF
Ms type: MS2
Ion mode: POSITIVE
Ionization: ESI
Fragmentation mode: CID
Collision energy: 40 eV
Resolution: 7000
Column name: ZORBAX Extend-C18 3.5um, 2.1x50mm, Agilent Technologies
Retention time: 1.779 min
Base peak: 284.961
Precursor m/z: 284.9612
Precursor type: [M+H]+
Precursor intensity: 3418.27
m/z	relative intensity	assigned
62.9633	148	CClO+
62.9997	999	C2H4Cl+
80.9744	645	CH2ClO2+
98.9843	579	CH4ClO3+
