Mass spectrum: 1-hexadecanoyl-2--(5Z,8Z,11Z,14Z-eicosatetraenoyl)-sn-glycero-3-phosphocholine; LC-ESI-QTOF; MS2; CE: 20eV; R=7000; [M+Na]+
Name: 1-hexadecanoyl-2--(5Z,8Z,11Z,14Z-eicosatetraenoyl)-sn-glycero-3-phosphocholine
Name: PC(16:0/20:4(5Z,8Z,11Z,14Z))
Name: [(2R)-3-hexadecanoyloxy-2-[(5Z,8Z,11Z,14Z)-icosa-5,8,11,14-tetraenoyl]oxypropyl] 2-(trimethylazaniumyl)ethyl phosphate
Formula: C44H80NO8P
Exact mass: 781.5622
SMILES: CCCCCCCCCCCCCCCC(=O)OC[C@H](COP(=O)([O-])OCC[N+](C)(C)C)OC(=O)CCC/C=C\C/C=C\C/C=C\C/C=C\CCCCC
InChI: InChI=1S/C44H80NO8P/c1-6-8-10-12-14-16-18-20-21-22-23-25-27-29-31-33-35-37-44(47)53-42(41-52-54(48,49)51-39-38-45(3,4)5)40-50-43(46)36-34-32-30-28-26-24-19-17-15-13-11-9-7-2/h14,16,20-21,23,25,29,31,42H,6-13,15,17-19,22,24,26-28,30,32-41H2,1-5H3/b16-14-,21-20-,25-23-,31-29-/t42-/m1/s1
Instrument: Agilent 6560 QTOF
Instrument type: LC-ESI-QTOF
Ms type: MS2
Ion mode: POSITIVE
Ionization: ESI
Fragmentation mode: CID
Collision energy: 20 eV
Resolution: 7000
Column name: Direct injection
Retention time: 0.241 min
Base peak: 782.5736
Precursor m/z: 804.5514
Precursor type: [M+Na]+
Precursor intensity: 1715430
m/z	relative intensity	assigned
79.0546	2	C2H10NP+
81.0696	1	C6H9+
86.0965	98	C5H12N+
95.0835	1	CH15NNaP+
117.0689	1	C9H9+
121.1022	3	C5H16NP+
123.1153	2	C3H19NNaP+
146.9814	88	C2H5NaO4P+
171.1161	1	C13H15+
184.0742	1	C5H15NO4P+
237.0795	132	C14H15NaP+
238.0808	15	C10H15NaO5+
239.237	1	C16H31O+
281.0494	2	C18H11NaP+
311.0991	6	C22H16P+
312.1006	1	C14H19NO5P+
313.2735	10	C19H37O3+
314.2747	1	C11H40NO8+
355.0699	1	C17H17NaO5P+
356.0705	1	C25H10NO2+
371.0998	1	C19H17NO7+
372.1015	1	C26H14NO2+
415.2259	1	C28H31O3+
441.2392	4	C28H34NaO3+
478.3293	5	C24H49NO6P+
489.2375	6	C25H39NaO6P+
500.315	1	C33H42NO3+
533.4507	1	C25H67NaO7P+
548.3079	2	C37H43NOP+
549.3169	1	C37H44NOP+
599.5055	29	C42H65NO+
600.5122	2	C35H71NO4P+
621.4871	354	C41H65O4+
622.4888	47	C41H67O2P+
745.4798	432	C43H70O8P+
746.4831	67	C41H72NaO8P+
747.4854	1	C42H70NO8P+
804.5542	999	C44H80NNaO8P+
