Mass spectrum: 1-palmitoyl-2-linoleoyl-sn-glycero-3-phosphoethanol; LC-ESI-QTOF; MS2; CE: 20eV; R=7000; [M-H]-
Name: 1-palmitoyl-2-linoleoyl-sn-glycero-3-phosphoethanol
Formula: C39H73O8P
Exact mass: 700.5043
SMILES: O=C(O[C@@H](COP(O)(=O)OCC)COC(=O)CCCCCCCCCCCCCCC)CCCCCCC/C=C\C\C=C\CCCCC
InChI: InChI=1S/C39H73O8P/c1-4-7-9-11-13-15-17-19-20-22-24-26-28-30-32-34-39(41)47-37(36-46-48(42,43)45-6-3)35-44-38(40)33-31-29-27-25-23-21-18-16-14-12-10-8-5-2/h13,15,19-20,37H,4-12,14,16-18,21-36H2,1-3H3,(H,42,43)/b15-13+,20-19-/t37-/m1/s1
Instrument: Agilent 6560 QTOF
Instrument type: LC-ESI-QTOF
Ms type: MS2
Ion mode: NEGATIVE
Ionization: ESI
Fragmentation mode: CID
Collision energy: 20 eV
Resolution: 7000
Column name: N/A
Retention time: 0.073 min
Base peak: 980.0164
Precursor m/z: 699.497
Precursor type: [M-H]-
Precursor intensity: 64909
m/z	relative intensity	assigned
112.3464	5	H49O2P-
124.9988	12	C2H6O4P-
125.4567	2	H61O4-
146.173	15	C2H26O6-
152.9897	9	C10H2P-
181.0259	52	C5H10O5P-
199.04	54	C12H7O3-
246.2398	6	C4H39O8P-
255.2336	336	C16H31O2-
256.2431	5	C16H32O2-
256.3204	5	C11H44O5-
261.2216	18	C18H29O-
266.1355	43	C11H22O7-
266.1676	6	C19H22O-
279.2342	999	C18H31O2-
280.2424	57	C18H32O2-
280.3599	4	C14H48O4-
280.5063	5	C11H68O5-
281.133	5	C22H17-
307.2512	4	C16H35O5-
307.4036	4	C13H55O6-
390.0784	8	C26H15O2P-
419.2569	41	C21H40O6P-
437.2644	47	C21H42O7P-
437.5219	2	C28H70P-
461.2725	22	C30H37O4-
521.9636	3	C30H3O8P-
699.4964	309	C39H72O8P-
