Mass spectrum: Resorcinol bis(diphenyl phosphate); LC-ESI-QTOF; MS2; CE: 10eV; R=7000; [M+H]+
Name: Resorcinol bis(diphenyl phosphate)
Name: (3-diphenoxyphosphoryloxyphenyl) diphenyl phosphate
Formula: C30H24O8P2
Exact mass: 574.0946
SMILES: C1=CC=C(C=C1)OP(=O)(OC2=CC=CC=C2)OC3=CC(=CC=C3)OP(=O)(OC4=CC=CC=C4)OC5=CC=CC=C5
InChI: InChI=1S/C30H24O8P2/c31-39(33-25-14-5-1-6-15-25,34-26-16-7-2-8-17-26)37-29-22-13-23-30(24-29)38-40(32,35-27-18-9-3-10-19-27)36-28-20-11-4-12-21-28/h1-24H
Instrument: Agilent 6560 QTOF
Instrument type: LC-ESI-QTOF
Ms type: MS2
Ion mode: POSITIVE
Ionization: ESI
Fragmentation mode: CID
Collision energy: 10 eV
Resolution: 7000
Column name: InfinityLab Poroshell 120 EC-C18 2.7Âµm, 3x100mm, Agilent Technologies
Retention time: 10.256 min
Base peak: 634.176
Precursor m/z: 575.1019
Precursor type: [M+H]+
Precursor intensity: 38460.91
m/z	relative intensity	assigned
481.061	8	C24H19O7P2+
575.1024	999	C30H25O8P2+
