Mass spectrum: Diphenylcresyl phosphate; LC-ESI-QTOF; MS2; CE: 40eV; R=7000; [M+H]+
Name: Diphenylcresyl phosphate
Name: Phosphoric acid, 2-methylphenyl diphenyl ester
Name: (2-methylphenyl) diphenyl phosphate
Formula: C19H17O4P
Exact mass: 340.0864
SMILES: CC1=CC=CC=C1OP(=O)(OC2=CC=CC=C2)OC3=CC=CC=C3
InChI: InChI=1S/C19H17O4P/c1-16-10-8-9-15-19(16)23-24(20,21-17-11-4-2-5-12-17)22-18-13-6-3-7-14-18/h2-15H,1H3
Instrument: Agilent 6560 QTOF
Instrument type: LC-ESI-QTOF
Ms type: MS2
Ion mode: POSITIVE
Ionization: ESI
Fragmentation mode: CID
Collision energy: 40 eV
Resolution: 7000
Retention time: 0.145 min
Base peak: 363.0757
Precursor m/z: 341.0937
Precursor type: [M+H]+
Precursor intensity: 67755.83
m/z	relative intensity	assigned
51.0234	54	C4H3+
65.0388	321	C5H5+
77.0389	567	C6H5+
79.0536	35	C6H7+
89.0382	21	C7H5+
91.0541	999	C7H7+
92.0592	34	H13O3P+
95.0478	22	C6H7O+
107.0493	27	C7H7O+
115.0546	28	C9H7+
127.0519	16	C3H12O3P+
128.0602	22	C3H13O3P+
138.9952	18	C6H4O2P+
141.0711	31	C11H9+
151.0546	75	C12H7+
152.0619	639	C12H8+
153.0657	101	C5H14O3P+
155.086	15	C12H11+
157.0033	17	C6H6O3P+
165.0692	284	C13H9+
166.0738	54	C6H15O3P+
167.085	59	C13H11+
168.0562	82	C12H8O+
169.0593	27	C5H14O4P+
175.0194	16	C6H8O4P+
176.0589	15	C7H13O3P+
181.0642	52	C13H9O+
182.0727	176	C13H10O+
183.0777	20	C6H16O4P+
215.0244	41	C12H8O2P+
226.078	41	C11H15O3P+
227.0835	57	C11H16O3P+
228.0935	69	C18H12+
229.0414	76	C13H10O2P+
230.0408	15	C16H6O2+
231.1191	13	C18H15+
247.0536	15	C13H12O3P+
251.0455	26	C12H12O4P+
265.0605	14	C13H14O4P+
