Mass spectrum: Epitestosterone; LC-ESI-QTOF; MS2; CE: 10eV; R=7000; [M+H]+
Name: Epitestosterone
Name: (8R,9S,10R,13S,14S,17R)-17-hydroxy-10,13-dimethyl-1,2,6,7,8,9,11,12,14,15,16,17-dodecahydrocyclopenta[a]phenanthren-3-one
Formula: C19H28O2
Exact mass: 288.2089
SMILES: C[C@]12CC[C@H]3[C@H]([C@@H]1CC[C@H]2O)CCC4=CC(=O)CC[C@]34C
InChI: InChI=1S/C19H28O2/c1-18-9-7-13(20)11-12(18)3-4-14-15-5-6-17(21)19(15,2)10-8-16(14)18/h11,14-17,21H,3-10H2,1-2H3/t14-,15-,16-,17+,18-,19-/m0/s1
Instrument: Agilent 6560 QTOF
Instrument type: LC-ESI-QTOF
Ms type: MS2
Ion mode: POSITIVE
Ionization: ESI
Fragmentation mode: CID
Collision energy: 10 eV
Resolution: 7000
Column name: Direct injection
Retention time: 0.154 min
Base peak: 289.2167
Precursor m/z: 289.2162
Precursor type: [M+H]+
Precursor intensity: 647525
m/z	relative intensity	assigned
71.0476	1	C4H7O+
77.0376	11	C6H5+
79.0541	20	C6H7+
81.0709	13	C6H9+
83.0483	23	C5H7O+
91.0541	24	C7H7+
93.07	21	C7H9+
95.0859	47	C7H11+
97.0648	585	C6H9O+
105.0693	14	C8H9+
107.0484	3	C7H7O+
107.0853	13	C8H11+
109.0646	399	C7H9O+
119.0854	14	C9H11+
121.0639	17	C8H9O+
121.1011	21	C9H13+
123.0796	43	C8H11O+
129.0695	5	C10H9+
131.0848	10	C10H11+
133.1023	12	C10H13+
135.1174	12	C10H15+
137.0949	7	C9H13O+
139.1097	2	C9H15O+
143.0847	10	C11H11+
144.0903	2	C11H12+
145.1004	37	C11H13+
147.117	38	C11H15+
149.0942	10	C10H13O+
149.1323	11	C11H17+
152.0587	2	C12H8+
155.0857	2	C12H11+
157.1008	19	C12H13+
159.1163	30	C12H15+
160.1215	1	C12H16+
161.097	11	C11H13O+
161.132	25	C12H17+
163.1116	13	C11H15O+
163.148	14	C12H19+
169.1009	7	C13H13+
171.1174	45	C13H15+
172.1209	2	C13H16+
173.134	13	C13H17+
175.1119	3	C12H15O+
175.1484	69	C13H19+
177.1271	12	C12H17O+
183.1168	9	C14H15+
185.1333	16	C14H17+
187.1477	22	C14H19+
189.1263	5	C13H17O+
189.1634	37	C14H21+
190.1679	1	C14H22+
197.1331	23	C15H17+
199.1468	19	C15H19+
201.1257	1	C14H17O+
201.164	6	C15H21+
203.1394	3	C14H19O+
211.1482	17	C16H19+
213.1633	17	C16H21+
215.1431	4	C15H19O+
217.1587	11	C15H21O+
225.1642	12	C17H21+
227.1777	4	C17H23+
229.1598	1	C16H21O+
229.1959	3	C17H25+
238.1751	4	C18H22+
243.2094	1	C18H27+
253.1949	173	C19H25+
254.2012	4	C19H26+
271.2058	127	C19H27O+
272.2089	12	C19H28O+
289.2165	999	C19H29O2+
