Mass spectrum: Cholesteryl linoleate; LC-ESI-QTOF; MS2; CE: 20eV; R=7000; [M+NH4]+
Name: Cholesteryl linoleate
Name: [(3S,8S,9S,10R,13R,14S,17R)-10,13-dimethyl-17-[(2R)-6-methylheptan-2-yl]-2,3,4,7,8,9,11,12,14,15,16,17-dodecahydro-1H-cyclopenta[a]phenanthren-3-yl] (9Z,12Z)-octadeca-9,12-dienoate
Formula: C45H76O2
Exact mass: 648.5845
SMILES: CCCCC/C=C\C/C=C\CCCCCCCC(=O)O[C@H]1CC[C@@]2([C@H]3CC[C@]4([C@H]([C@@H]3CC=C2C1)CC[C@@H]4[C@H](C)CCCC(C)C)C)C
InChI: InChI=1S/C45H76O2/c1-7-8-9-10-11-12-13-14-15-16-17-18-19-20-21-25-43(46)47-38-30-32-44(5)37(34-38)26-27-39-41-29-28-40(36(4)24-22-23-35(2)3)45(41,6)33-31-42(39)44/h11-12,14-15,26,35-36,38-42H,7-10,13,16-25,27-34H2,1-6H3/b12-11-,15-14-/t36-,38+,39+,40-,41+,42+,44+,45-/m1/s1
Instrument: Agilent 6560 QTOF
Instrument type: LC-ESI-QTOF
Ms type: MS2
Ion mode: POSITIVE
Ionization: ESI
Fragmentation mode: CID
Collision energy: 20 eV
Resolution: 7000
Column name: Direct injection
Retention time: 0.580 min
Base peak: 256.9654
Precursor m/z: 666.6184
Precursor type: [M+NH4]+
Precursor intensity: 10455
m/z	relative intensity	assigned
81.071	102	C6H9+
105.0696	81	C8H9+
123.1164	32	C9H15+
135.1164	165	C10H15+
147.1144	192	C11H15+
149.1301	70	C11H17+
161.1303	65	C12H17+
175.1444	35	C13H19+
179.1791	102	C13H23+
189.1601	27	C14H21+
207.2121	70	C15H27+
217.1916	54	C16H25+
219.2093	88	C16H27+
229.1932	80	C17H25+
230.1945	39	C16H24N+
233.2289	32	C17H29+
369.3538	999	C27H45+
370.3533	82	C27H46+
404.0123	26	C31H2NO+
