Mass spectrum: Thymine; LC-ESI-QTOF; MS2; CE: 10eV; R=5000; [M+H]+
Name: Thymine
Name: 5-methyl-1H-pyrimidine-2,4-dione
Formula: C5H6N2O2
Exact mass: 126.0429
SMILES: CC1=CNC(=O)NC1=O
InChI: InChI=1S/C5H6N2O2/c1-3-2-6-5(9)7-4(3)8/h2H,1H3,(H2,6,7,8,9)
Instrument: Agilent 6530 QTOF
Instrument type: LC-ESI-QTOF
Ms type: MS2
Ion mode: POSITIVE
Ionization: ESI
Fragmentation mode: CID
Collision energy: 10 eV
Resolution: 5000
Column name: N/A
Retention time: 0.250 min
Base peak: 922.0098
Precursor m/z: 127.0502
Precursor type: [M+H]+
Precursor intensity: 54812
m/z	relative intensity	assigned
43.0543	44	C3H7+
56.0498	176	C3H6N+
57.0335	15	C3H5O+
84.0437	156	C4H6NO+
109.0383	195	C5H5N2O+
110.0216	709	C5H4NO2+
112.0392	3	C5H6NO2+
127.0483	999	C5H7N2O2+
