Mass spectrum: THYMIDINE; LC-ESI-QTOF; MS2; CE: 40eV; R=5000; [M+H]+
Name: THYMIDINE
Name: 1-[(2R,4S,5R)-4-hydroxy-5-(hydroxymethyl)oxolan-2-yl]-5-methylpyrimidine-2,4-dione
Formula: C10H14N2O5
Exact mass: 242.0903
SMILES: CC1=CN([C@H]2C[C@H](O)[C@@H](CO)O2)C(=O)NC1=O
InChI: InChI=1S/C10H14N2O5/c1-5-3-12(10(16)11-9(5)15)8-2-6(14)7(4-13)17-8/h3,6-8,13-14H,2,4H2,1H3,(H,11,15,16)/t6-,7+,8+/m0/s1
Instrument: Agilent 6530 QTOF
Instrument type: LC-ESI-QTOF
Ms type: MS2
Ion mode: POSITIVE
Ionization: ESI
Fragmentation mode: CID
Collision energy: 40 eV
Resolution: 5000
Column name: N/A
Retention time: 0.250 min
Base peak: 127.0499
Precursor m/z: 243.0975
Precursor type: [M+H]+
Precursor intensity: 81800
m/z	relative intensity	assigned
41.0389	163	C3H5+
43.0175	75	C2H3O+
43.0546	255	C3H7+
45.034	349	C2H5O+
54.0337	617	C3H4N+
56.0496	228	C3H6N+
57.0324	130	C3H5O+
58.064	97	C3H8N+
67.053	13	C5H7+
67.9876	2	C3O2+
69.0338	259	C4H5O+
73.0284	30	C3H5O2+
78.0441	14	CH6N2O2+
80.0586	42	CH8N2O2+
81.056	156	C5H7N+
82.027	95	CH6O4+
93.0681	75	C7H9+
102.0924	115	C5H12NO+
109.0387	247	C5H5N2O+
110.022	999	C2H6O5+
127.0482	567	C2H9NO5+
130.0703	5	C2H12NO5+
152.0603	5	C7H8N2O2+
178.084	34	C7H14O5+
197.033	16	C8H7NO5+
197.0953	14	C9H13N2O3+
