Mass spectrum: 2-Ethyl-oxo-hexylsalicylate; LC-ESI-QTOF; MS2; CE: 20eV; R=7000; [M-H]-
Name: 2-Ethyl-oxo-hexylsalicylate
Formula: C15H20O4
Exact mass: 264.1362
SMILES: CCC(CCC(C)=O)COC(=O)c1ccccc1O
InChI: InChI=1S/C15H20O4/c1-3-12(9-8-11(2)16)10-19-15(18)13-6-4-5-7-14(13)17/h4-7,12,17H,3,8-10H2,1-2H3
Instrument: Agilent 6560 QTOF
Instrument type: LC-ESI-QTOF
Ms type: MS2
Ion mode: NEGATIVE
Ionization: ESI
Fragmentation mode: CID
Collision energy: 20 eV
Resolution: 7000
Column name: ZORBAX Extend-C18 3.5um, 2.1x50mm, Agilent Technologies
Retention time: 6.812 min
Base peak: 982.9902
Precursor m/z: 263.1289
Precursor type: [M-H]-
Precursor intensity: 20690.99
m/z	relative intensity	assigned
93.035	999	C6H5O-
119.048	35	C8H7O-
135.0456	62	C8H7O2-
137.0239	827	C7H5O3-
147.0432	33	C9H7O2-
221.1169	42	C13H17O3-
