Mass spectrum: Aldosterone; LC-ESI-QTOF; MS2; CE: 20eV; R=7000; [M+H]+
Name: Aldosterone
Name: (8S,9S,10R,11S,13R,14S,17S)-11-hydroxy-17-(2-hydroxyacetyl)-10-methyl-3-oxo-1,2,6,7,8,9,11,12,14,15,16,17-dodecahydrocyclopenta[a]phenanthrene-13-carbaldehyde
Formula: C21H28O5
Exact mass: 360.1937
SMILES: C[C@]12CCC(=O)C=C1CC[C@@H]3[C@@H]2[C@H](C[C@]4([C@H]3CC[C@@H]4C(=O)CO)C=O)O
InChI: InChI=1S/C21H28O5/c1-20-7-6-13(24)8-12(20)2-3-14-15-4-5-16(18(26)10-22)21(15,11-23)9-17(25)19(14)20/h8,11,14-17,19,22,25H,2-7,9-10H2,1H3/t14-,15-,16+,17-,19+,20-,21+/m0/s1
Instrument: Agilent 6560 QTOF
Instrument type: LC-ESI-QTOF
Ms type: MS2
Ion mode: POSITIVE
Ionization: ESI
Fragmentation mode: CID
Collision energy: 20 eV
Resolution: 7000
Column name: Direct injection
Retention time: 0.184 min
Base peak: 338.3425
Precursor m/z: 361.201
Precursor type: [M+H]+
Precursor intensity: 78812
m/z	relative intensity	assigned
79.0539	68	C6H7+
81.069	58	C6H9+
83.0479	42	C5H7O+
91.0536	188	C7H7+
93.0714	126	C7H9+
101.0577	26	C5H9O2+
105.0321	125	C7H5O+
105.0692	90	C8H9+
107.0465	54	C7H7O+
109.0642	136	C7H9O+
111.0795	104	C7H11O+
118.1216	45	C3H18O4+
121.0643	126	C8H9O+
121.0991	55	C9H13+
123.0798	56	C8H11O+
129.0158	161	C5H5O4+
131.0843	191	C10H11+
135.0773	40	C9H11O+
143.0847	82	C11H11+
145.1017	150	C11H13+
155.0833	155	C12H11+
157.1008	106	C12H13+
161.0949	32	C11H13O+
163.112	53	C11H15O+
169.099	109	C13H13+
171.0796	32	C12H11O+
171.117	128	C13H15+
173.13	17	C13H17+
175.1094	98	C12H15O+
177.1247	21	C12H17O+
179.0857	18	C14H11+
181.1008	45	C14H13+
183.1142	116	C14H15+
185.0953	31	C13H13O+
185.1327	115	C14H17+
187.1091	20	C13H15O+
189.0903	81	C12H13O2+
189.1288	56	C13H17O+
193.0998	33	C15H13+
194.0723	48	C14H10O+
197.1309	111	C15H17+
199.1081	130	C14H15O+
201.091	78	C13H13O2+
203.1037	35	C13H15O2+
207.1177	288	C16H15+
208.1212	40	C16H16+
209.1332	205	C16H17+
215.1054	38	C14H15O2+
221.1293	20	C17H17+
222.1022	80	C16H14O+
222.1421	17	C17H18+
223.1479	198	C17H19+
225.1297	10	C16H17O+
227.139	179	C16H19O+
229.1205	90	C15H17O2+
229.1621	36	C16H21O+
232.0738	43	C13H12O4+
233.1281	25	C18H17+
235.1461	84	C18H19+
237.1255	39	C17H17O+
239.1394	101	C17H19O+
239.1809	68	C18H23+
240.153	110	C17H20O+
241.1603	129	C17H21O+
241.1963	54	C18H25+
241.2184	14	C15H29O2+
242.1248	18	C16H18O2+
248.1192	79	C18H16O+
251.1437	50	C18H19O+
253.1578	262	C18H21O+
254.1643	53	C18H22O+
255.1716	114	C18H23O+
256.1806	30	C18H24O+
257.1885	20	C18H25O+
261.1627	95	C20H21+
263.141	234	C19H19O+
265.1622	46	C19H21O+
267.1547	98	C15H23O4+
270.1633	39	C18H22O2+
277.1626	41	C20H21O+
279.1338	32	C19H19O2+
279.1738	168	C20H23O+
281.1518	48	C19H21O2+
283.1319	21	C18H19O3+
283.1663	30	C19H23O2+
285.1514	43	C18H21O3+
290.1642	37	C21H22O+
292.1461	28	C20H20O2+
295.1652	22	C20H23O2+
297.1844	324	C20H25O2+
298.189	70	C20H26O2+
299.1627	249	C19H23O3+
300.1688	83	C19H24O3+
301.1754	42	C19H25O3+
307.1663	45	C21H23O2+
308.0131	15	C20H4O4+
313.1782	72	C20H25O3+
315.1976	708	C20H27O3+
325.1806	584	C21H25O3+
326.1836	75	C21H26O3+
343.1905	999	C21H27O4+
361.2011	402	C21H29O5+
