Mass spectrum: BisphenolA; LC-ESI-QTOF; MS2; CE: 15eV; R=7000; [M-H]-
Name: BisphenolA
Name: Bisphenol A
Name: 4-[2-(4-hydroxyphenyl)propan-2-yl]phenol
Formula: C15H16O2
Exact mass: 228.115
SMILES: CC(C)(C1=CC=C(C=C1)O)C2=CC=C(C=C2)O
InChI: InChI=1S/C15H16O2/c1-15(2,11-3-7-13(16)8-4-11)12-5-9-14(17)10-6-12/h3-10,16-17H,1-2H3
Instrument: Agilent 6560 QTOF
Instrument type: LC-ESI-QTOF
Ms type: MS2
Ion mode: NEGATIVE
Ionization: ESI
Fragmentation mode: CID
Collision energy: 15 eV
Resolution: 7000
Column name: ZORBAX Extend-C18 3.5um, 2.1x50mm, Agilent Technologies
Retention time: 2.875 min
Base peak: 982.9911
Precursor m/z: 227.1078
Precursor type: [M-H]-
Precursor intensity: 11744.19
m/z	relative intensity	assigned
133.0657	178	C9H9O-
211.0779	52	C14H11O2-
212.0837	681	C14H12O2-
213.087	137	C14H13O2-
227.108	999	C15H15O2-
