Mass spectrum: Ursodeoxycholic acid; LC-ESI-QTOF; MS2; CE: 40eV; R=7000; [M-H]-
Name: Ursodeoxycholic acid
Name: (4R)-4-[(3R,5S,7S,8R,9S,10S,13R,14S,17R)-3,7-dihydroxy-10,13-dimethyl-2,3,4,5,6,7,8,9,11,12,14,15,16,17-tetradecahydro-1H-cyclopenta[a]phenanthren-17-yl]pentanoic acid
Formula: C24H40O4
Exact mass: 392.2927
SMILES: [H][C@@]1(CC[C@@]2([H])[C@]3([H])[C@@H](O)C[C@]4([H])C[C@H](O)CC[C@]4(C)[C@@]3([H])CC[C@]12C)[C@H](C)CCC(O)=O
InChI: InChI=1S/C24H40O4/c1-14(4-7-21(27)28)17-5-6-18-22-19(9-11-24(17,18)3)23(2)10-8-16(25)12-15(23)13-20(22)26/h14-20,22,25-26H,4-13H2,1-3H3,(H,27,28)/t14-,15+,16-,17-,18+,19+,20+,22+,23+,24-/m1/s1
Instrument: Agilent 6560 QTOF
Instrument type: LC-ESI-QTOF
Ms type: MS2
Ion mode: NEGATIVE
Ionization: ESI
Fragmentation mode: CID
Collision energy: 40 eV
Resolution: 7000
Column name: N/A
Retention time: 0.163 min
Base peak: 391.2865
Precursor m/z: 391.2854
Precursor type: [M-H]-
Precursor intensity: 37305
m/z	relative intensity	assigned
183.1427	15	C11H19O2-
225.0334	8	C17H5O-
238.2658	30	C17H34-
268.0558	3	C19H8O2-
304.0907	6	C23H12O-
313.2537	9	C22H33O-
349.0906	5	C24H13O3-
373.2747	37	C24H37O3-
389.2663	17	C24H37O4-
391.2851	999	C24H39O4-
