Mass spectrum: Triphenyl phosphate; LC-ESI-QTOF; MS2; CE: 15eV; R=7000; [M+H]+
Name: Triphenyl phosphate
Formula: C18H15O4P
Exact mass: 326.0708
SMILES: C1=CC=C(C=C1)OP(=O)(OC2=CC=CC=C2)OC3=CC=CC=C3
InChI: InChI=1S/C18H15O4P/c19-23(20-16-10-4-1-5-11-16,21-17-12-6-2-7-13-17)22-18-14-8-3-9-15-18/h1-15H
Instrument: Agilent 6560 QTOF
Instrument type: LC-ESI-QTOF
Ms type: MS2
Ion mode: POSITIVE
Ionization: ESI
Fragmentation mode: CID
Collision energy: 15 eV
Resolution: 7000
Retention time: 0.114 min
Base peak: 327.078
Precursor m/z: 327.0781
Precursor type: [M+H]+
Precursor intensity: 73249.44
m/z	relative intensity	assigned
77.0391	58	C6H5+
152.0627	48	C12H8+
153.0697	98	C12H9+
168.0578	12	C12H8O+
171.0799	20	C12H11O+
175.0154	11	C6H8O4P+
201.0698	5	C16H9+
215.0259	129	C12H8O2P+
228.0946	31	C18H12+
229.0995	47	C18H13+
233.0354	95	C12H10O3P+
251.0456	63	C12H12O4P+
252.0507	7	C12H13O4P+
309.0704	5	C18H14O3P+
327.0778	999	C18H16O4P+
