Mass spectrum: Isodecyl diphenyl phosphate; LC-ESI-QTOF; MS2; CE: 20eV; R=7000; [M+Na]+
Name: Isodecyl diphenyl phosphate
Name: 8-methylnonyl diphenyl phosphate
Formula: C22H31O4P
Exact mass: 390.1960
SMILES: CC(C)CCCCCCCOP(=O)(OC1=CC=CC=C1)OC2=CC=CC=C2
InChI: InChI=1S/C22H31O4P/c1-20(2)14-8-4-3-5-13-19-24-27(23,25-21-15-9-6-10-16-21)26-22-17-11-7-12-18-22/h6-7,9-12,15-18,20H,3-5,8,13-14,19H2,1-2H3
Instrument: Agilent 6560 QTOF
Instrument type: LC-ESI-QTOF
Ms type: MS2
Ion mode: POSITIVE
Ionization: ESI
Fragmentation mode: CID
Collision energy: 20 eV
Resolution: 7000
Retention time: 0.148 min
Base peak: 413.1862
Precursor m/z: 413.1852
Precursor type: [M+Na]+
Precursor intensity: 29743.59
m/z	relative intensity	assigned
273.0287	999	C12H11NaO4P+
274.0331	75	C12H12NaO4P+
413.1852	274	C22H31NaO4P+
