Mass spectrum: Acetyltriethyl citrate; LC-ESI-QTOF; MS2; CE: 20eV; R=7000; [M+Na]+
Name: Acetyltriethyl citrate
Name: Acetyl triethyl citrate
Name: triethyl 2-acetyloxypropane-1,2,3-tricarboxylate
Formula: C14H22O8
Exact mass: 318.1315
SMILES: CCOC(=O)CC(CC(=O)OCC)(C(=O)OCC)OC(=O)C
InChI: InChI=1S/C14H22O8/c1-5-19-11(16)8-14(22-10(4)15,13(18)21-7-3)9-12(17)20-6-2/h5-9H2,1-4H3
Instrument: Agilent 6560 QTOF
Instrument type: LC-ESI-QTOF
Ms type: MS2
Ion mode: POSITIVE
Ionization: ESI
Fragmentation mode: CID
Collision energy: 20 eV
Resolution: 7000
Retention time: 0.146 min
Base peak: 341.1227
Precursor m/z: 341.1207
Precursor type: [M+Na]+
Precursor intensity: 30335.6
m/z	relative intensity	assigned
129.017	19	C5H5O4+
139.0013	25	C4H4NaO4+
179.0299	29	C7H8NaO4+
184.0151	23	C11H4O3+
225.0716	251	C9H14NaO5+
271.0792	20	C10H16NaO7+
281.0992	999	C12H18NaO6+
282.1005	121	C12H19NaO6+
299.1111	52	C12H20NaO7+
313.089	50	C12H18NaO8+
341.1206	915	C14H22NaO8+
