Mass spectrum: Cortisone; LC-ESI-QTOF; MS2; CE: 10eV; R=7000; [M+H]+
Name: Cortisone
Name: (8S,9S,10R,13S,14S,17R)-17-hydroxy-17-(2-hydroxyacetyl)-10,13-dimethyl-1,2,6,7,8,9,12,14,15,16-decahydrocyclopenta[a]phenanthrene-3,11-dione
Formula: C21H28O5
Exact mass: 360.1937
SMILES: C[C@]12CCC(=O)C=C1CC[C@@H]3[C@@H]2C(=O)C[C@]4([C@H]3CC[C@@]4(C(=O)CO)O)C
InChI: InChI=1S/C21H28O5/c1-19-7-5-13(23)9-12(19)3-4-14-15-6-8-21(26,17(25)11-22)20(15,2)10-16(24)18(14)19/h9,14-15,18,22,26H,3-8,10-11H2,1-2H3/t14-,15-,18+,19-,20-,21-/m0/s1
Instrument: Agilent 6560 QTOF
Instrument type: LC-ESI-QTOF
Ms type: MS2
Ion mode: POSITIVE
Ionization: ESI
Fragmentation mode: CID
Collision energy: 10 eV
Resolution: 7000
Column name: Direct injection
Retention time: 0.240 min
Base peak: 415.2124
Precursor m/z: 361.201
Precursor type: [M+H]+
Precursor intensity: 62120
m/z	relative intensity	assigned
76.073	4	H12O4+
79.0529	11	C6H7+
83.0485	14	C5H7O+
91.0532	55	C7H7+
93.0707	23	C7H9+
97.0635	25	C6H9O+
109.0634	29	C7H9O+
119.0844	10	C9H11+
121.0634	8	C8H9O+
135.0802	15	C9H11O+
143.0853	10	C11H11+
143.1269	7	C5H19O4+
145.0631	26	C10H9O+
146.1125	4	C4H18O5+
163.0736	25	C10H11O2+
163.1107	198	C11H15O+
164.1176	25	C11H16O+
165.0914	4	C10H13O2+
169.0675	30	C12H9O+
169.1	23	C13H13+
182.0717	10	C13H10O+
185.1286	14	C14H17+
187.1105	9	C13H15O+
197.0919	21	C14H13O+
198.1866	12	C9H26O4+
207.0992	16	C12H15O3+
209.1342	23	C16H17+
219.1151	12	C17H15+
237.1225	30	C17H17O+
241.1211	6	C16H17O2+
245.1318	6	C19H17+
247.1442	19	C19H19+
249.1224	10	C18H17O+
249.1621	17	C19H21+
256.1822	20	C18H24O+
257.1512	13	C17H21O2+
258.1615	33	C17H22O2+
265.1546	13	C19H21O+
266.1632	28	C19H22O+
267.1737	34	C19H23O+
277.1605	10	C20H21O+
281.1487	6	C19H21O2+
281.1897	9	C20H25O+
283.1687	16	C19H23O2+
285.1465	9	C18H21O3+
285.1743	4	C15H25O5+
286.1935	23	C19H26O2+
295.1642	7	C20H23O2+
299.169	7	C19H23O3+
301.1766	59	C19H25O3+
307.1731	24	C21H23O2+
311.1619	23	C20H23O3+
312.1707	28	C20H24O3+
331.1865	14	C20H27O4+
332.1932	3	C20H28O4+
343.1908	105	C21H27O4+
361.201	999	C21H29O5+
