Mass spectrum: Para-hydroxy triphenyl phosphate; LC-ESI-QTOF; MS2; CE: 40eV; R=7000; [M+H]+
Name: Para-hydroxy triphenyl phosphate
Name: 4-Hydroxyphenyl diphenyl phosphate
Name: (4-hydroxyphenyl) diphenyl phosphate
Formula: C18H15O5P
Exact mass: 342.0657
SMILES: C1=CC=C(C=C1)OP(=O)(OC2=CC=CC=C2)OC3=CC=C(C=C3)O
InChI: InChI=1S/C18H15O5P/c19-15-11-13-18(14-12-15)23-24(20,21-16-7-3-1-4-8-16)22-17-9-5-2-6-10-17/h1-14,19H
Instrument: Agilent 6560 QTOF
Instrument type: LC-ESI-QTOF
Ms type: MS2
Ion mode: POSITIVE
Ionization: ESI
Fragmentation mode: CID
Collision energy: 40 eV
Resolution: 7000
Retention time: 0.147 min
Base peak: 343.0731
Precursor m/z: 343.073
Precursor type: [M+H]+
Precursor intensity: 96869.53
m/z	relative intensity	assigned
51.0234	103	C4H3+
65.0387	410	C5H5+
77.0386	999	C6H5+
81.0331	87	C5H5O+
93.0334	77	C6H5O+
95.0491	54	C6H7O+
98.9992	14	C4H4OP+
109.0285	370	C6H5O2+
110.0359	59	C6H6O2+
111.0435	22	C6H7O2+
115.054	449	C9H7+
116.0586	16	C2H13O3P+
121.0272	11	H10O5P+
127.054	11	C10H7+
128.0639	12	C10H8+
138.9923	12	C6H4O2P+
139.0547	34	C11H7+
140.0599	17	C4H13O3P+
141.0093	32	C6H6O2P+
141.0692	399	C11H9+
142.0733	25	C4H15O3P+
151.0544	99	C12H7+
152.0617	528	C12H8+
153.0681	63	C5H14O3P+
155.9971	95	C6H5O3P+
156.0564	15	C11H8O+
157.0039	12	C6H6O3P+
157.0654	19	C11H9O+
167.0475	12	C5H12O4P+
168.0561	219	C12H8O+
169.0639	67	C12H9O+
172.9989	18	C6H6O4P+
175.016	50	C6H8O4P+
184.0522	44	C12H8O2+
185.0601	12	C12H9O2+
189.065	13	C8H14O3P+
191.0096	21	C6H8O5P+
202.0781	37	C16H10+
203.0247	34	C11H8O2P+
203.0823	15	C9H16O3P+
215.0255	163	C12H8O2P+
215.0851	49	C17H11+
217.103	15	C17H13+
226.0777	84	C18H10+
231.0215	88	C12H8O3P+
244.0861	13	C18H12O+
249.0326	24	C12H10O4P+
251.0461	50	C12H12O4P+
267.0411	41	C12H12O5P+
