Mass spectrum: Prostaglandin E1; LC-ESI-QTOF; MS2; CE: 10eV; R=7000; [M-H2O+H]+
Name: Prostaglandin E1
Name: Alprostadil
Name: 7-[(1R,2R,3R)-3-hydroxy-2-[(E,3S)-3-hydroxyoct-1-enyl]-5-oxocyclopentyl]heptanoic acid
Formula: C20H34O5
Exact mass: 354.2406
SMILES: CCCCC[C@@H](/C=C/[C@H]1[C@@H](CC(=O)[C@@H]1CCCCCCC(=O)O)O)O
InChI: InChI=1S/C20H34O5/c1-2-3-6-9-15(21)12-13-17-16(18(22)14-19(17)23)10-7-4-5-8-11-20(24)25/h12-13,15-17,19,21,23H,2-11,14H2,1H3,(H,24,25)/b13-12+/t15-,16+,17+,19+/m0/s1
Instrument: Agilent 6560 QTOF
Instrument type: LC-ESI-QTOF
Ms type: MS2
Ion mode: POSITIVE
Ionization: ESI
Fragmentation mode: CID
Collision energy: 10 eV
Resolution: 7000
Column name: Direct injection
Retention time: 0.184 min
Base peak: 377.231
Precursor m/z: 337.2373
Precursor type: [M-H2O+H]+
Precursor intensity: 65566
m/z	relative intensity	assigned
77.0382	124	C6H5+
79.0551	287	C6H7+
81.0694	823	C6H9+
83.0871	286	C6H11+
91.0525	300	C7H7+
93.0692	139	C7H9+
107.083	192	C8H11+
109.1018	145	C8H13+
114.0904	130	C3H14O4+
117.0682	220	C9H9+
119.0848	131	C9H11+
121.0997	154	C9H13+
123.0796	37	C8H11O+
131.0861	391	C10H11+
135.1184	101	C10H15+
137.0951	67	C9H13O+
145.101	186	C11H13+
147.1152	287	C11H15+
149.0968	71	C10H13O+
149.1322	264	C11H17+
151.1112	88	C10H15O+
157.1025	273	C12H13+
159.1171	87	C12H15+
161.1303	33	C12H17+
163.149	84	C12H19+
169.1019	43	C13H13+
171.1175	50	C13H15+
173.1313	78	C13H17+
175.1144	102	C12H15O+
175.1456	64	C13H19+
177.1608	57	C13H21+
185.1317	55	C14H17+
187.1457	95	C14H19+
189.1273	85	C13H17O+
189.1605	143	C14H21+
191.1057	87	C12H15O2+
191.1394	25	C13H19O+
191.1784	47	C14H23+
193.1219	145	C12H17O2+
195.101	139	C11H15O3+
198.0932	69	C10H14O4+
199.1098	80	C14H15O+
201.1283	95	C14H17O+
203.1053	387	C13H15O2+
203.1448	127	C14H19O+
204.146	32	C14H20O+
205.1175	82	C13H17O2+
209.1123	47	C12H17O3+
211.143	98	C16H19+
212.2397	55	C11H32O3+
213.164	84	C16H21+
215.1387	55	C15H19O+
217.1576	205	C15H21O+
219.1998	39	C12H27O3+
231.1726	102	C16H23O+
233.1528	108	C15H21O2+
241.1543	19	C17H21O+
243.2135	31	C18H27+
247.2041	62	C17H27O+
249.1834	40	C16H25O2+
249.2193	55	C17H29O+
253.191	32	C19H25+
255.2093	289	C19H27+
257.1932	21	C18H25O+
259.1689	72	C17H23O2+
261.2196	231	C18H29O+
265.1944	41	C20H25+
265.2212	46	C17H29O2+
271.2065	127	C19H27O+
273.2181	179	C19H29O+
275.1989	226	C18H27O2+
277.2183	202	C18H29O2+
283.2065	294	C20H27O+
289.2158	688	C19H29O2+
290.2173	29	C19H30O2+
291.2337	184	C19H31O2+
301.2152	999	C20H29O2+
302.2203	57	C20H30O2+
319.2259	934	C20H31O3+
320.2364	136	C20H32O3+
337.2374	406	C20H33O4+
