Mass spectrum: PALMITOYLCARNITINE; LC-ESI-QTOF; MS2; CE: 10eV; R=5000; [M+H]+
Name: PALMITOYLCARNITINE
Name: L-Palmitoylcarnitine
Name: (3R)-3-hexadecanoyloxy-4-(trimethylazaniumyl)butanoate
Formula: C23H45NO4
Exact mass: 399.3349
SMILES: CCCCCCCCCCCCCCCC(=O)O[C@H](CC(=O)[O-])C[N+](C)(C)C
InChI: InChI=1S/C23H45NO4/c1-5-6-7-8-9-10-11-12-13-14-15-16-17-18-23(27)28-21(19-22(25)26)20-24(2,3)4/h21H,5-20H2,1-4H3/t21-/m1/s1
Instrument: Agilent 6530 QTOF
Instrument type: LC-ESI-QTOF
Ms type: MS2
Ion mode: POSITIVE
Ionization: ESI
Fragmentation mode: CID
Collision energy: 10 eV
Resolution: 5000
Column name: N/A
Retention time: 0.218 min
Base peak: 400.3431
Precursor m/z: 400.3421
Precursor type: [M+H]+
Precursor intensity: 7589334
m/z	relative intensity	assigned
43.0552	2	C3H7+
57.0343	6	C3H5O+
57.0701	11	C4H9+
58.0653	1	C3H8N+
60.0817	85	C3H10N+
67.0547	1	C5H7+
69.069	2	C5H9+
71.0857	8	C5H11+
81.0697	6	C6H9+
83.0859	6	C6H11+
85.0288	675	C4H5O2+
95.0864	5	C7H11+
97.1005	1	C7H13+
109.101	5	C8H13+
111.1169	1	C8H15+
123.1168	4	C9H15+
137.1311	1	C10H17+
144.1019	18	C7H14NO2+
221.2261	1	C16H29+
239.2359	24	C16H31O+
257.2476	5	C16H33O2+
341.268	77	C20H37O4+
342.2709	2	C20H38O4+
400.3427	999	C23H46NO4+
