Mass spectrum: Triamylphosphate; LC-ESI-QTOF; MS2; CE: 40eV; R=7000; [M+H]+
Name: Triamylphosphate
Name: tripentyl phosphate
Formula: C15H33O4P
Exact mass: 308.2116
SMILES: CCCCCOP(=O)(OCCCCC)OCCCCC
InChI: InChI=1S/C15H33O4P/c1-4-7-10-13-17-20(16,18-14-11-8-5-2)19-15-12-9-6-3/h4-15H2,1-3H3
Instrument: Agilent 6560 QTOF
Instrument type: LC-ESI-QTOF
Ms type: MS2
Ion mode: POSITIVE
Ionization: ESI
Fragmentation mode: CID
Collision energy: 40 eV
Resolution: 7000
Retention time: 0.148 min
Base peak: 331.2012
Precursor m/z: 309.2189
Precursor type: [M+H]+
Precursor intensity: 83274.83
m/z	relative intensity	assigned
62.963	17	O2P+
80.9738	265	H2O3P+
89.0364	4	H10O3P+
98.9845	999	H4O4P+
