Mass spectrum: HOMOSERINE; LC-ESI-QTOF; MS2; CE: 10eV; R=5000; [M+H]+
Name: HOMOSERINE
Name: L-homoserine
Name: (2S)-2-amino-4-hydroxybutanoic acid
Formula: C4H9NO3
Exact mass: 119.0582
SMILES: N[C@@H](CCO)C(O)=O
InChI: InChI=1S/C4H9NO3/c5-3(1-2-6)4(7)8/h3,6H,1-2,5H2,(H,7,8)/t3-/m0/s1
Instrument: Agilent 6530 QTOF
Instrument type: LC-ESI-QTOF
Ms type: MS2
Ion mode: POSITIVE
Ionization: ESI
Fragmentation mode: CID
Collision energy: 10 eV
Resolution: 5000
Column name: N/A
Retention time: 0.217 min
Base peak: 121.0508
Precursor m/z: 120.0655
Precursor type: [M+H]+
Precursor intensity: 208075
m/z	relative intensity	assigned
44.05	339	C2H6N+
52.0175	15	C3H2N+
56.0507	745	C3H6N+
57.0574	1	C3H7N+
64.0162	6	CH4O3+
74.0606	999	C3H8NO+
84.0431	6	C4H6NO+
85.0302	16	C4H5O2+
102.0556	70	C4H8NO2+
120.0669	113	C4H10NO3+
