Mass spectrum: Prostaglandin A1; LC-ESI-QTOF; MS2; CE: 40eV; R=7000; [M-H]-
Name: Prostaglandin A1
Name: 7-[(1R,2S)-2-[(E,3S)-3-hydroxyoct-1-enyl]-5-oxocyclopent-3-en-1-yl]heptanoic acid
Formula: C20H32O4
Exact mass: 336.2301
SMILES: CCCCC[C@@H](/C=C/[C@H]1C=CC(=O)[C@@H]1CCCCCCC(=O)O)O
InChI: InChI=1S/C20H32O4/c1-2-3-6-9-17(21)14-12-16-13-15-19(22)18(16)10-7-4-5-8-11-20(23)24/h12-18,21H,2-11H2,1H3,(H,23,24)/b14-12+/t16-,17-,18+/m0/s1
Instrument: Agilent 6560 QTOF
Instrument type: LC-ESI-QTOF
Ms type: MS2
Ion mode: NEGATIVE
Ionization: ESI
Fragmentation mode: CID
Collision energy: 40 eV
Resolution: 7000
Column name: N/A
Retention time: 0.169 min
Base peak: 317.2129
Precursor m/z: 335.2228
Precursor type: [M-H]-
Precursor intensity: 37486
m/z	relative intensity	assigned
80.0267	852	C5H4O-
81.0338	486	C5H5O-
83.0501	248	C5H7O-
85.0663	138	C5H9O-
95.0489	254	C6H7O-
106.0414	653	C7H6O-
107.0487	95	C7H7O-
109.0668	999	C7H9O-
113.098	824	C7H13O-
120.0605	174	C8H8O-
121.0641	213	C8H9O-
128.06	55	C10H8-
130.0425	311	C9H6O-
131.0471	337	C9H7O-
133.0676	83	C9H9O-
135.0805	327	C9H11O-
137.1	46	C9H13O-
143.0851	122	C11H11-
144.0607	75	C10H8O-
145.0668	83	C10H9O-
148.0867	21	C10H12O-
149.0972	193	C10H13O-
157.0677	151	C11H9O-
159.0841	91	C11H11O-
160.0861	127	C11H12O-
161.0964	42	C11H13O-
163.1144	344	C11H15O-
173.1323	54	C13H17-
175.111	92	C12H15O-
177.1266	309	C12H17O-
179.1457	58	C12H19O-
187.1114	59	C13H15O-
189.1279	137	C13H17O-
190.1347	42	C13H18O-
191.1431	73	C13H19O-
203.149	106	C14H19O-
209.1158	297	C12H17O3-
215.1415	54	C15H19O-
259.1313	66	C16H19O3-
281.1897	84	C20H25O-
