Mass spectrum: Liothyronine; LC-ESI-QTOF; MS2; CE: 20eV; R=7000; [M+H]+
Name: Liothyronine
Name: (2S)-2-amino-3-[4-(4-hydroxy-3-iodophenoxy)-3,5-diiodophenyl]propanoic acid
Formula: C15H12I3NO4
Exact mass: 650.7901
SMILES: N[C@@H](CC1=CC(I)=C(OC2=CC=C(O)C(I)=C2)C(I)=C1)C(O)=O
InChI: InChI=1S/C15H12I3NO4/c16-9-6-8(1-2-13(9)20)23-14-10(17)3-7(4-11(14)18)5-12(19)15(21)22/h1-4,6,12,20H,5,19H2,(H,21,22)/t12-/m0/s1
Instrument: Agilent 6560 QTOF
Instrument type: LC-ESI-QTOF
Ms type: MS2
Ion mode: POSITIVE
Ionization: ESI
Fragmentation mode: CID
Collision energy: 20 eV
Resolution: 7000
Column name: Direct injection
Retention time: 0.211 min
Base peak: 437.1944
Precursor m/z: 651.7973
Precursor type: [M+H]+
Precursor intensity: 123895
m/z	relative intensity	assigned
160.0134	13	C9H4O3+
167.071	3	C9H11O3+
168.0791	6	C9H12O3+
170.0718	6	C12H10O+
197.0586	10	C13H9O2+
198.0659	22	C13H10O2+
202.9325	6	C6H4I+
208.0504	9	C14H8O2+
210.0644	3	C14H10O2+
219.9355	14	C6H5IO+
224.0454	2	C14H8O3+
224.0695	13	C14H10NO2+
225.0516	4	C14H9O3+
225.0787	29	C14H11NO2+
232.9436	3	C7H6IO+
234.922	8	C6H4IO2+
234.9429	5	C3H8IO4+
235.931	5	C6H5IO2+
236.0445	7	C15H8O3+
243.9577	1	C5H9IO3+
253.0489	5	C15H9O4+
254.056	37	C15H10O4+
255.053	5	C14H9NO4+
286.9207	10	C9H4IO3+
295.9595	1	C11H7INO+
322.9876	5	C14H12IO+
325.9753	6	C13H11IO2+
335.9577	4	C13H7INO2+
344.9842	14	C12H12INO3+
350.9752	4	C14H10INO2+
351.9834	27	C14H11INO2+
352.9688	4	C14H10IO3+
363.9527	4	C14H7INO3+
372.8242	3	C7H3I2O2+
373.8222	1	C6H2I2NO2+
379.9503	2	C15H9IO4+
380.9672	10	C15H10IO4+
386.8389	9	C8H5I2O2+
437.8553	1	C12H8I2O2+
448.8444	9	C12H5I2NO2+
450.868	17	C13H9I2O2+
451.8727	8	C13H10I2O2+
460.8567	3	C14H7I2O2+
462.8689	27	C14H9I2O2+
463.8699	8	C13H8I2NO2+
465.8517	18	C13H8I2O3+
466.8508	2	C12H7I2NO3+
477.882	5	C14H10I2NO2+
478.8873	112	C14H11I2NO2+
479.8837	9	C14H12I2NO2+
489.8581	12	C15H8I2O3+
490.8567	4	C14H7I2NO3+
507.8656	185	C15H10I2O4+
508.8679	12	C15H11I2O4+
592.7555	39	C13H8I3O3+
593.7592	3	C12H7I3NO3+
605.7912	999	C14H11I3NO2+
606.7929	86	C14H12I3NO2+
607.8038	2	C14H13I3NO2+
634.7662	13	C15H10I3O4+
635.7677	3	C14H9I3NO4+
651.7996	42	C15H13I3NO4+
