Mass spectrum: Bisphenol S; LC-ESI-QTOF; MS2; CE: 10eV; R=7000; [M-H]-
Name: Bisphenol S
Name: 4,4`-Sulfonyldiphenol
Name: 4-(4-hydroxyphenyl)sulfonylphenol
Formula: C12H10O4S
Exact mass: 250.0300
SMILES: C1=CC(=CC=C1O)S(=O)(=O)C2=CC=C(C=C2)O
InChI: InChI=1S/C12H10O4S/c13-9-1-5-11(6-2-9)17(15,16)12-7-3-10(14)4-8-12/h1-8,13-14H
Instrument: Agilent 6560 QTOF
Instrument type: LC-ESI-QTOF
Ms type: MS2
Ion mode: NEGATIVE
Ionization: ESI
Fragmentation mode: CID
Collision energy: 10 eV
Resolution: 7000
Retention time: 0.187 min
Base peak: 249.0236
Precursor m/z: 249.0227
Precursor type: [M-H]-
Precursor intensity: 240913.73
m/z	relative intensity	assigned
92.0274	48	C6H4O-
108.0219	159	C6H4O2-
139.9939	2	C6H4O2S-
155.9891	53	C6H4O3S-
156.9918	1	C9HO3-
157.0651	2	C11H9O-
184.0531	10	C12H8O2-
185.061	14	C12H9O2-
249.023	999	C12H9O4S-
