Mass spectrum: Mono(2-ethyl-5-oxohexyl)phthalate; LC-ESI-QTOF; MS2; CE: 20eV; R=7000; [M-H]-
Name: Mono(2-ethyl-5-oxohexyl)phthalate
Name: 2-(2-ethyl-5-oxohexoxy)carbonylbenzoic acid
Formula: C16H20O5
Exact mass: 292.1311
SMILES: CCC(CCC(=O)C)COC(=O)C1=CC=CC=C1C(=O)O
InChI: InChI=1S/C16H20O5/c1-3-12(9-8-11(2)17)10-21-16(20)14-7-5-4-6-13(14)15(18)19/h4-7,12H,3,8-10H2,1-2H3,(H,18,19)
Instrument: Agilent 6560 QTOF
Instrument type: LC-ESI-QTOF
Ms type: MS2
Ion mode: NEGATIVE
Ionization: ESI
Fragmentation mode: CID
Collision energy: 20 eV
Resolution: 7000
Column name: ZORBAX Extend-C18 3.5um, 2.1x50mm, Agilent Technologies
Retention time: 2.670 min
Base peak: 291.1249
Precursor m/z: 291.1238
Precursor type: [M-H]-
Precursor intensity: 128867.12
m/z	relative intensity	assigned
55.02	9	C3H3O-
57.0346	53	C3H5O-
69.035	6	C4H5O-
71.0506	92	C4H7O-
75.0253	10	C6H3-
77.0401	657	C6H5-
83.0511	8	C5H7O-
99.0821	66	C6H11O-
111.082	5	C7H11O-
113.0974	115	C7H13O-
119.051	44	C8H7O-
121.0297	999	C7H5O2-
123.0822	9	C8H11O-
125.097	20	C8H13O-
143.1077	153	C8H15O2-
147.0084	17	C8H3O3-
