Mass spectrum: 1-octadecanoyl-sn-glycero-3-phosphocholine; LC-ESI-QTOF; MS2; CE: 40eV; R=7000; [M+CH3COO]-
Name: 1-octadecanoyl-sn-glycero-3-phosphocholine
Name: [(2R)-2-hydroxy-3-octadecanoyloxypropyl] 2-(trimethylazaniumyl)ethyl phosphate
Formula: C26H54NO7P
Exact mass: 523.3638
SMILES: CCCCCCCCCCCCCCCCCC(=O)OC[C@H](COP(=O)([O-])OCC[N+](C)(C)C)O
InChI: InChI=1S/C26H54NO7P/c1-5-6-7-8-9-10-11-12-13-14-15-16-17-18-19-20-26(29)32-23-25(28)24-34-35(30,31)33-22-21-27(2,3)4/h25,28H,5-24H2,1-4H3/t25-/m1/s1
Instrument: Agilent 6560 QTOF
Instrument type: LC-ESI-QTOF
Ms type: MS2
Ion mode: NEGATIVE
Ionization: ESI
Fragmentation mode: CID
Collision energy: 40 eV
Resolution: 7000
Column name: N/A
Retention time: 0.142 min
Base peak: 980.0164
Precursor m/z: 582.3776
Precursor type: [M+CH3COO]-
Precursor intensity: 141851
m/z	relative intensity	assigned
78.9594	77	O3P-
96.9691	8	H2O4P-
117.053	3	C5H9O3-
125.1475	1	C6H22P-
130.0849	3	C3H14O5-
152.0663	2	C5H12O5-
152.9966	14	C3H6O5P-
168.0448	35	C11H6NO-
191.2177	5	H33NO9-
210.3972	3	C8H52NO3-
224.0697	74	C7H15NO5P-
225.0753	7	C4H18O8P-
225.0966	4	C8H17O7-
242.0787	19	C11H14O6-
265.2537	5	C18H33O-
281.9483	2	C9HNO8P-
283.2651	999	C14H38NO2P-
284.2708	58	C11H41O5P-
284.3338	5	C19H42N-
285.3736	3	C17H49O2-
286.4274	2	C14H56NO3-
339.9971	2	C23H3NOP-
342.9582	5	C22O3P-
366.1647	3	C22H25NO2P-
