Mass spectrum: Tris(2-ethylhexyl)phosphate; LC-ESI-QTOF; MS2; CE: 5eV; R=7000; [M+Na]+
Name: Tris(2-ethylhexyl)phosphate
Name: tris(2-ethylhexyl) phosphate
Formula: C24H51O4P
Exact mass: 434.3525
SMILES: CCCCC(CC)COP(=O)(OCC(CC)CCCC)OCC(CC)CCCC
InChI: InChI=1S/C24H51O4P/c1-7-13-16-22(10-4)19-26-29(25,27-20-23(11-5)17-14-8-2)28-21-24(12-6)18-15-9-3/h22-24H,7-21H2,1-6H3
Instrument: Agilent 6560 QTOF
Instrument type: LC-ESI-QTOF
Ms type: MS2
Ion mode: POSITIVE
Ionization: ESI
Fragmentation mode: CID
Collision energy: 5 eV
Resolution: 7000
Retention time: 0.146 min
Base peak: 457.343
Precursor m/z: 457.3417
Precursor type: [M+Na]+
Precursor intensity: 325036.37
m/z	relative intensity	assigned
120.966	25	H3NaO4P+
233.091	37	C8H19NaO4P+
234.0931	1	C13H14O4+
345.2159	70	C16H35NaO4P+
346.2189	9	C21H30O4+
457.3414	999	C24H51NaO4P+
