Mass spectrum: METHIONINE; LC-ESI-QTOF; MS2; CE: 40eV; R=5000; [M+H]+
Name: METHIONINE
Name: (2S)-2-amino-4-methylsulfanylbutanoic acid
Formula: C5H11NO2S
Exact mass: 149.05105
SMILES: CSCC[C@H](N)C(O)=O
InChI: InChI=1S/C5H11NO2S/c1-9-3-2-4(6)5(7)8/h4H,2-3,6H2,1H3,(H,7,8)/t4-/m0/s1
Instrument: Agilent 6530 QTOF
Instrument type: LC-ESI-QTOF
Ms type: MS2
Ion mode: POSITIVE
Ionization: ESI
Fragmentation mode: CID
Collision energy: 40 eV
Resolution: 5000
Column name: N/A
Retention time: 0.254 min
Base peak: 150.0582
Precursor m/z: 150.0583
Precursor type: [M+H]+
Precursor intensity: 172787
m/z	relative intensity	assigned
42.0336	30	C2H4N+
44.9786	47	CHS+
45.0333	20	C2H5O+
45.9873	125	CH2S+
46.994	54	CH3S+
49.0115	9	CH5S+
51.0229	6	C4H3+
54.0367	5	H8NS+
55.0416	6	C3H5N+
56.0489	592	C3H6N+
58.9946	26	C2H3S+
60.0024	4	C2H4S+
61.0102	999	C2H5S+
66.0358	1	CH8NS+
67.0744	1	C2H11O2+
70.064	2	C4H8N+
70.9933	37	C3H3S+
74.0236	25	C2H4NO2+
