Mass spectrum: Mono-hydroxy-isononyl phthalate; LC-ESI-QTOF; MS2; CE: 10eV; R=7000; [M-H]-
Name: Mono-hydroxy-isononyl phthalate
Name: 1,2-Benzenedicarboxylic Acid 1-(7-Hydroxy-4-methyloctyl) Ester
Name: 2-(7-hydroxy-4-methyloctoxy)carbonylbenzoic acid
Formula: C17H24O5
Exact mass: 308.1624
SMILES: CC(O)CCC(C)CCCOC(=O)C1=CC=CC=C1C(O)=O
InChI: InChI=1S/C17H24O5/c1-12(9-10-13(2)18)6-5-11-22-17(21)15-8-4-3-7-14(15)16(19)20/h3-4,7-8,12-13,18H,5-6,9-11H2,1-2H3,(H,19,20)
Instrument: Agilent 6560 QTOF
Instrument type: LC-ESI-QTOF
Ms type: MS2
Ion mode: NEGATIVE
Ionization: ESI
Fragmentation mode: CID
Collision energy: 10 eV
Resolution: 7000
Column name: ZORBAX Extend-C18 3.5um, 2.1x50mm, Agilent Technologies
Retention time: 3.734 min
Base peak: 307.1555
Precursor m/z: 307.1551
Precursor type: [M-H]-
Precursor intensity: 120903.52
m/z	relative intensity	assigned
57.0343	4	C3H5O-
77.0397	133	C6H5-
113.0972	3	C7H13O-
121.0296	999	C7H5O2-
137.0982	3	C9H13O-
139.114	6	C9H15O-
147.0081	31	C8H3O3-
155.1083	3	C9H15O2-
157.1238	64	C9H17O2-
159.1389	81	C9H19O2-
307.1555	302	C17H23O5-
