Mass spectrum: HOMOCYSTEINE; LC-ESI-QTOF; MS2; CE: 40eV; R=5000; [M+H]+
Name: HOMOCYSTEINE
Name: DL-Homocysteine
Name: 2-amino-4-sulfanylbutanoic acid
Formula: C4H9NO2S
Exact mass: 135.0354
SMILES: C(CS)C(C(=O)O)N
InChI: InChI=1S/C4H9NO2S/c5-3(1-2-8)4(6)7/h3,8H,1-2,5H2,(H,6,7)
Instrument: Agilent 6530 QTOF
Instrument type: LC-ESI-QTOF
Ms type: MS2
Ion mode: POSITIVE
Ionization: ESI
Fragmentation mode: CID
Collision energy: 40 eV
Resolution: 5000
Column name: N/A
Retention time: 0.255 min
Base peak: 242.2842
Precursor m/z: 136.0427
Precursor type: [M+H]+
Precursor intensity: 24093
m/z	relative intensity	assigned
44.9795	325	CHS+
46.9951	999	CH3S+
47.0486	92	C2H7O+
51.0226	179	C4H3+
56.0493	993	C3H6N+
68.9794	108	C3HS+
69.0242	8	H7NOS+
