Mass spectrum: S-CARBOXYMETHYLCYSTEINE; LC-ESI-QTOF; MS2; CE: 10eV; R=5000; [M+Na]+
Name: S-CARBOXYMETHYLCYSTEINE
Name: Rhinathiol
Name: 2-amino-3-(carboxymethylsulfanyl)propanoic acid
Formula: C5H9NO4S
Exact mass: 179.0252
SMILES: NC(CSCC(O)=O)C(O)=O
InChI: InChI=1S/C5H9NO4S/c6-3(5(9)10)1-11-2-4(7)8/h3H,1-2,6H2,(H,7,8)(H,9,10)
Instrument: Agilent 6530 QTOF
Instrument type: LC-ESI-QTOF
Ms type: MS2
Ion mode: POSITIVE
Ionization: ESI
Fragmentation mode: CID
Collision energy: 10 eV
Resolution: 5000
Column name: N/A
Retention time: 0.214 min
Base peak: 121.0508
Precursor m/z: 202.0144
Precursor type: [M+Na]+
Precursor intensity: 356345
m/z	relative intensity	assigned
41.0389	20	C3H5+
44.0495	100	C2H6N+
56.0508	7	C3H6N+
57.0692	172	C4H9+
58.0626	39	H10O3+
62.06	999	C2H8NO+
69.0691	29	C5H9+
84.0803	123	C5H10N+
85.0639	125	C5H9O+
90.0514	22	C4H10S+
94.9962	12	C5H3S+
99.0361	1	CH9NO2S+
113.9875	15	H4NO4S+
114.056	1	C5H8NO2+
116.9979	12	C4H5O2S+
139.9977	11	C5H2NO4+
162.9973	2	C4H5NO4S+
