Mass spectrum: TRYPTOPHAN; LC-ESI-QTOF; MS2; CE: 10eV; R=5000; [M+H]+
Name: TRYPTOPHAN
Name: D-Tryptophan
Name: (2R)-2-amino-3-(1H-indol-3-yl)propanoic acid
Formula: C11H12N2O2
Exact mass: 204.0899
SMILES: N[C@H](CC1=CNC2=CC=CC=C12)C(O)=O
InChI: InChI=1S/C11H12N2O2/c12-9(11(14)15)5-7-6-13-10-4-2-1-3-8(7)10/h1-4,6,9,13H,5,12H2,(H,14,15)/t9-/m1/s1
Instrument: Agilent 6530 QTOF
Instrument type: LC-ESI-QTOF
Ms type: MS2
Ion mode: POSITIVE
Ionization: ESI
Fragmentation mode: CID
Collision energy: 10 eV
Resolution: 5000
Column name: N/A
Retention time: 0.216 min
Base peak: 121.0508
Precursor m/z: 205.0972
Precursor type: [M+H]+
Precursor intensity: 916907
m/z	relative intensity	assigned
63.0201	2	H3N2O2+
65.0371	1	C5H5+
74.023	9	C2H4NO2+
77.0363	2	CH5N2O2+
78.0405	1	CH6N2O2+
89.0373	4	C7H5+
90.0475	2	C7H6+
91.0532	18	C7H7+
103.0538	1	C8H7+
115.0535	17	C9H7+
116.0623	2	C9H8+
117.064	26	C4H9N2O2+
118.0642	245	C8H8N+
127.0525	6	C10H7+
128.0506	1	C9H6N+
130.0658	19	C9H8N+
132.0802	76	C9H10N+
142.0639	30	C10H8N+
143.0721	40	C10H9N+
144.0803	171	C10H10N+
146.0589	855	C9H8NO+
159.0901	90	C10H11N2+
160.073	9	C10H10NO+
170.0609	70	C11H8NO+
188.0697	999	C11H10NO2+
205.0935	30	C11H13N2O2+
