Mass spectrum: Tris(2-butoxyethyl) phosphate; LC-ESI-QTOF; MS2; CE: 30eV; R=7000; [M+H]+
Name: Tris(2-butoxyethyl) phosphate
Formula: C18H39O7P
Exact mass: 398.2433
SMILES: CCCCOCCOP(=O)(OCCOCCCC)OCCOCCCC
InChI: InChI=1S/C18H39O7P/c1-4-7-10-20-13-16-23-26(19,24-17-14-21-11-8-5-2)25-18-15-22-12-9-6-3/h4-18H2,1-3H3
Instrument: Agilent 6560 QTOF
Instrument type: LC-ESI-QTOF
Ms type: MS2
Ion mode: POSITIVE
Ionization: ESI
Fragmentation mode: CID
Collision energy: 30 eV
Resolution: 7000
Retention time: 0.115 min
Base peak: 149.0233
Precursor m/z: 399.2506
Precursor type: [M+H]+
Precursor intensity: 9027.47
m/z	relative intensity	assigned
55.0543	519	C4H7+
57.0701	999	C4H9+
59.0497	66	C3H7O+
98.9845	302	H4O4P+
