Mass spectrum: Di-n-butyl sebacate; LC-ESI-QTOF; MS2; CE: 40eV; R=7000; [M+H]+
Name: Di-n-butyl sebacate
Name: Dibutyl sebacate
Name: dibutyl decanedioate
Formula: C18H34O4
Exact mass: 314.2457
SMILES: CCCCOC(=O)CCCCCCCCC(=O)OCCCC
InChI: InChI=1S/C18H34O4/c1-3-5-15-21-17(19)13-11-9-7-8-10-12-14-18(20)22-16-6-4-2/h3-16H2,1-2H3
Instrument: Agilent 6560 QTOF
Instrument type: LC-ESI-QTOF
Ms type: MS2
Ion mode: POSITIVE
Ionization: ESI
Fragmentation mode: CID
Collision energy: 40 eV
Resolution: 7000
Retention time: 0.146 min
Base peak: 337.2369
Precursor m/z: 315.253
Precursor type: [M+H]+
Precursor intensity: 31906.59
m/z	relative intensity	assigned
55.018	232	C3H3O+
55.0545	999	C4H7+
57.0703	121	C4H9+
59.0497	103	C3H7O+
67.0547	316	C5H7+
69.0338	63	C4H5O+
69.0701	722	C5H9+
71.049	49	C4H7O+
73.0644	121	C4H9O+
77.0391	106	C6H5+
79.054	408	C6H7+
81.07	209	C6H9+
83.0491	119	C5H7O+
85.0668	58	C5H9O+
91.0538	54	C7H7+
93.0699	341	C7H9+
95.0856	457	C7H11+
97.0653	192	C6H9O+
97.1011	163	C7H13+
107.0853	52	C8H11+
121.0999	131	C9H13+
