Mass spectrum: Bisphenol P; LC-ESI-QTOF; MS2; CE: 35eV; R=7000; [M-H]-
Name: Bisphenol P
Name: alpha,alpha`-Bis(4-hydroxyphenyl)-1,4-diisopropylbenzene
Name: 4-[2-[4-[2-(4-hydroxyphenyl)propan-2-yl]phenyl]propan-2-yl]phenol
Formula: C24H26O2
Exact mass: 346.1933
SMILES: CC(C)(C1=CC=C(C=C1)C(C)(C)C2=CC=C(C=C2)O)C3=CC=C(C=C3)O
InChI: InChI=1S/C24H26O2/c1-23(2,19-9-13-21(25)14-10-19)17-5-7-18(8-6-17)24(3,4)20-11-15-22(26)16-12-20/h5-16,25-26H,1-4H3
Instrument: Agilent 6560 QTOF
Instrument type: LC-ESI-QTOF
Ms type: MS2
Ion mode: NEGATIVE
Ionization: ESI
Fragmentation mode: CID
Collision energy: 35 eV
Resolution: 7000
Retention time: 0.189 min
Base peak: 345.1865
Precursor m/z: 345.186
Precursor type: [M-H]-
Precursor intensity: 5068.51
m/z	relative intensity	assigned
101.0013	159	C7HO-
133.0651	381	C9H9O-
315.1389	999	C22H19O2-
329.153	147	C23H21O2-
330.1633	537	C23H22O2-
345.1855	149	C24H25O2-
