Mass spectrum: N-ACETYLLEUCINE; LC-ESI-QTOF; MS2; CE: 10eV; R=5000; [M+H]+
Name: N-ACETYLLEUCINE
Name: N-Acetyl-L-leucine
Name: (2S)-2-acetamido-4-methylpentanoic acid
Formula: C8H15NO3
Exact mass: 173.1052
SMILES: CC(C)C[C@H](NC(C)=O)C(O)=O
InChI: InChI=1S/C8H15NO3/c1-5(2)4-7(8(11)12)9-6(3)10/h5,7H,4H2,1-3H3,(H,9,10)(H,11,12)/t7-/m0/s1
Instrument: Agilent 6530 QTOF
Instrument type: LC-ESI-QTOF
Ms type: MS2
Ion mode: POSITIVE
Ionization: ESI
Fragmentation mode: CID
Collision energy: 10 eV
Resolution: 5000
Column name: N/A
Retention time: 0.222 min
Base peak: 174.1124
Precursor m/z: 174.1125
Precursor type: [M+H]+
Precursor intensity: 1344679
m/z	relative intensity	assigned
43.0183	42	C2H3O+
43.0533	19	C3H7+
44.0503	41	C2H6N+
60.045	3	C2H6NO+
69.07	6	C5H9+
72.0432	4	C3H6NO+
73.066	1	C4H9O+
86.0966	999	C5H12N+
128.1062	177	C7H14NO+
132.101	224	C6H14NO2+
156.1004	11	C8H14NO2+
174.1093	10	C8H16NO3+
