Mass spectrum: Cortisol; LC-ESI-QTOF; MS2; CE: 10eV; R=7000; [M+H]+
Name: Cortisol
Name: Hydrocortisone
Name: (8S,9S,10R,11S,13S,14S,17R)-11,17-dihydroxy-17-(2-hydroxyacetyl)-10,13-dimethyl-2,6,7,8,9,11,12,14,15,16-decahydro-1H-cyclopenta[a]phenanthren-3-one
Formula: C21H30O5
Exact mass: 362.2093
SMILES: C[C@]12CCC(=O)C=C1CC[C@@H]3[C@@H]2[C@H](C[C@]4([C@H]3CC[C@@]4(C(=O)CO)O)C)O
InChI: InChI=1S/C21H30O5/c1-19-7-5-13(23)9-12(19)3-4-14-15-6-8-21(26,17(25)11-22)20(15,2)10-16(24)18(14)19/h9,14-16,18,22,24,26H,3-8,10-11H2,1-2H3/t14-,15-,16-,18+,19-,20-,21-/m0/s1
Instrument: Agilent 6560 QTOF
Instrument type: LC-ESI-QTOF
Ms type: MS2
Ion mode: POSITIVE
Ionization: ESI
Fragmentation mode: CID
Collision energy: 10 eV
Resolution: 7000
Column name: Direct injection
Retention time: 0.180 min
Base peak: 363.2179
Precursor m/z: 363.2166
Precursor type: [M+H]+
Precursor intensity: 120744
m/z	relative intensity	assigned
77.0374	11	C6H5+
79.0547	18	C6H7+
83.0474	26	C5H7O+
95.0845	18	C7H11+
97.0648	103	C6H9O+
99.0438	25	C5H7O2+
105.0676	16	C8H9+
107.0474	16	C7H7O+
109.0638	14	C7H9O+
119.0847	9	C9H11+
121.0646	312	C8H9O+
123.0785	65	C8H11O+
131.0861	11	C10H11+
133.1026	23	C10H13+
135.0806	9	C9H11O+
135.1159	5	C10H15+
137.0954	10	C9H13O+
143.087	57	C11H11+
145.0664	16	C10H9O+
145.1017	16	C11H13+
147.0812	11	C10H11O+
147.1143	41	C11H15+
151.0767	7	C9H11O2+
155.0863	7	C12H11+
157.0999	13	C12H13+
159.0767	5	C11H11O+
159.1157	21	C12H15+
161.0982	25	C11H13O+
161.1309	18	C12H17+
163.1124	16	C11H15O+
169.1007	10	C13H13+
171.1157	6	C13H15+
173.0955	33	C12H13O+
173.1335	38	C13H17+
175.1127	28	C12H15O+
177.1303	14	C12H17O+
179.0822	11	C14H11+
183.1167	35	C14H15+
185.1374	28	C7H21O5+
187.1106	59	C13H15O+
187.1476	8	C14H19+
193.1002	4	C15H13+
195.1166	18	C15H15+
197.0928	10	C14H13O+
197.1299	6	C15H17+
199.1072	10	C14H15O+
200.1513	9	C15H20+
201.1278	8	C14H17O+
201.1623	4	C15H21+
202.1303	10	C14H18O+
207.1376	10	C13H19O2+
209.1296	37	C16H17+
211.1514	12	C9H23O5+
213.1241	34	C15H17O+
213.1649	12	C16H21+
215.1413	18	C15H19O+
221.0976	16	C16H13O+
221.128	12	C17H17+
223.1073	11	C16H15O+
224.1162	25	C16H16O+
225.1236	6	C16H17O+
225.1641	16	C17H21+
227.1404	10	C16H19O+
229.1549	4	C16H21O+
231.1018	10	C14H15O3+
231.1378	8	C15H19O2+
236.1216	8	C17H16O+
237.1244	13	C17H17O+
237.1633	14	C18H21+
238.1376	11	C17H18O+
239.1448	22	C17H19O+
239.1764	21	C18H23+
241.1605	13	C17H21O+
243.1366	13	C16H19O2+
247.145	20	C19H19+
250.1704	9	C19H22+
251.1383	20	C18H19O+
251.1774	11	C19H23+
252.1462	10	C18H20O+
253.1577	26	C18H21O+
253.1916	17	C19H25+
255.1761	29	C18H23O+
263.1434	13	C19H19O+
264.1478	12	C19H20O+
267.1746	108	C19H23O+
268.1789	21	C19H24O+
269.1905	57	C19H25O+
270.1937	7	C19H26O+
271.1704	23	C18H23O2+
273.1618	22	C21H21+
278.1604	19	C20H22O+
279.1731	15	C20H23O+
281.1909	24	C20H25O+
285.1428	9	C18H21O3+
285.1888	36	C19H25O2+
286.1902	18	C19H26O2+
287.1994	34	C19H27O2+
291.1739	39	C21H23O+
297.1837	55	C20H25O2+
298.1829	5	C16H26O5+
299.1612	12	C19H23O3+
299.1959	19	C20H27O2+
309.185	164	C21H25O2+
310.1835	28	C17H26O5+
315.1949	21	C20H27O3+
327.1937	137	C21H27O3+
345.2049	128	C21H29O4+
346.2061	3	C21H30O4+
363.2167	999	C21H31O5+
