Mass spectrum: Lithocholic acid; LC-ESI-QTOF; MS2; CE: 40eV; R=7000; [M-H]-
Name: Lithocholic acid
Name: 3a-Hydroxycholanoic acid
Name: (4R)-4-[(3R,8R,9S,10S,13R,14S,17R)-3-hydroxy-10,13-dimethyl-2,3,4,5,6,7,8,9,11,12,14,15,16,17-tetradecahydro-1H-cyclopenta[a]phenanthren-17-yl]pentanoic acid
Formula: C24H40O3
Exact mass: 376.2977
SMILES: [H][C@@]12CC[C@H]([C@H](C)CCC(O)=O)[C@@]1(C)CC[C@@]1([H])[C@@]2([H])CCC2C[C@H](O)CC[C@]12C
InChI: InChI=1S/C24H40O3/c1-15(4-9-22(26)27)19-7-8-20-18-6-5-16-14-17(25)10-12-23(16,2)21(18)11-13-24(19,20)3/h15-21,25H,4-14H2,1-3H3,(H,26,27)/t15-,16?,17-,18+,19-,20+,21+,23+,24-/m1/s1
Instrument: Agilent 6560 QTOF
Instrument type: LC-ESI-QTOF
Ms type: MS2
Ion mode: NEGATIVE
Ionization: ESI
Fragmentation mode: CID
Collision energy: 40 eV
Resolution: 7000
Column name: N/A
Retention time: 0.166 min
Base peak: 375.2907
Precursor m/z: 375.2905
Precursor type: [M-H]-
Precursor intensity: 53846
m/z	relative intensity	assigned
167.0697	23	C9H11O3-
177.0904	7	C11H13O2-
211.0728	17	C14H11O2-
220.1453	19	C14H20O2-
221.1532	30	C14H21O2-
232.1131	3	C14H16O3-
357.2772	7	C24H37O2-
375.29	999	C24H39O3-
