Mass spectrum: Corticosterone; LC-ESI-QTOF; MS2; CE: 40eV; R=7000; [M+H]+
Name: Corticosterone
Name: (8S,9S,10R,11S,13S,14S,17S)-11-hydroxy-17-(2-hydroxyacetyl)-10,13-dimethyl-1,2,6,7,8,9,11,12,14,15,16,17-dodecahydrocyclopenta[a]phenanthren-3-one
Formula: C21H30O4
Exact mass: 346.2144
SMILES: C[C@]12CCC(=O)C=C1CC[C@@H]3[C@@H]2[C@H](C[C@]4([C@H]3CC[C@@H]4C(=O)CO)C)O
InChI: InChI=1S/C21H30O4/c1-20-8-7-13(23)9-12(20)3-4-14-15-5-6-16(18(25)11-22)21(15,2)10-17(24)19(14)20/h9,14-17,19,22,24H,3-8,10-11H2,1-2H3/t14-,15-,16+,17-,19+,20-,21-/m0/s1
Instrument: Agilent 6560 QTOF
Instrument type: LC-ESI-QTOF
Ms type: MS2
Ion mode: POSITIVE
Ionization: ESI
Fragmentation mode: CID
Collision energy: 40 eV
Resolution: 7000
Column name: Direct injection
Retention time: 0.182 min
Base peak: 347.2226
Precursor m/z: 347.2217
Precursor type: [M+H]+
Precursor intensity: 124800
m/z	relative intensity	assigned
71.0491	73	C4H7O+
77.0392	399	C6H5+
79.0539	710	C6H7+
81.071	276	C6H9+
83.0487	562	C5H7O+
91.054	999	C7H7+
93.0705	830	C7H9+
95.0473	48	C6H7O+
95.085	768	C7H11+
97.0652	817	C6H9O+
103.0543	26	C8H7+
105.07	905	C8H9+
107.0492	42	C7H7O+
107.0856	133	C8H11+
108.0019	35	C9+
109.0642	135	C7H9O+
111.0443	44	C6H7O2+
115.0516	173	C9H7+
116.0623	321	C9H8+
117.0704	159	C9H9+
119.0851	515	C9H11+
121.0649	738	C8H9O+
123.0436	92	C7H7O2+
123.08	622	C8H11O+
127.0537	32	C10H7+
128.0621	310	C10H8+
129.0694	324	C10H9+
129.2061	19	C3H29O4+
130.0764	144	C10H10+
131.0848	341	C10H11+
133.0623	121	C9H9O+
133.1033	198	C10H13+
135.0797	201	C9H11O+
141.0702	109	C11H9+
142.0764	248	C11H10+
143.0847	469	C11H11+
145.0647	95	C10H9O+
145.1014	535	C11H13+
147.0796	154	C10H11O+
147.1152	195	C11H15+
148.0875	178	C10H12O+
149.0939	91	C10H13O+
151.0543	34	C12H7+
154.0763	220	C12H10+
155.0834	105	C12H11+
156.0925	72	C12H12+
157.101	265	C12H13+
159.0783	69	C11H11O+
159.1162	97	C12H15+
161.0965	126	C11H13O+
163.1119	160	C11H15O+
165.0686	156	C13H9+
166.0744	71	C13H10+
167.0879	32	C13H11+
168.0965	146	C13H12+
169.101	107	C13H13+
170.1107	66	C13H14+
171.081	9	C12H11O+
171.1157	120	C13H15+
173.1302	11	C13H17+
175.1102	99	C12H15O+
177.1247	83	C12H17O+
178.0786	69	C14H10+
181.0998	268	C14H13+
182.1063	43	C14H14+
183.115	41	C14H15+
185.1334	31	C14H17+
187.1106	52	C13H15O+
189.1249	41	C13H17O+
193.1009	118	C15H13+
194.106	30	C15H14+
196.1252	20	C15H16+
197.0945	22	C14H13O+
197.1307	103	C15H17+
200.1188	98	C14H16O+
201.1266	40	C14H17O+
205.0988	54	C16H13+
207.1141	55	C16H15+
208.1235	35	C16H16+
209.133	37	C16H17+
211.1458	58	C16H19+
219.1172	57	C17H15+
221.1346	32	C17H17+
223.1088	108	C16H15O+
223.1484	19	C17H19+
227.1377	20	C16H19O+
233.1321	31	C18H17+
234.1381	36	C18H18+
238.1925	30	C15H26O2+
251.1826	24	C19H23+
255.1747	22	C18H23O+
256.1784	39	C18H24O+
266.2001	40	C20H26+
283.1723	79	C19H23O2+
299.1651	34	C19H23O3+
