Mass spectrum: DEOXYGUANOSINEMONOPHOSPHATE; LC-ESI-QTOF; MS2; CE: 20eV; R=5000; [M+H]+
Name: DEOXYGUANOSINEMONOPHOSPHATE
Name: CID 65059
Name: [(2R,3S,5R)-5-(2-amino-6-oxo-3H-purin-9-yl)-3-hydroxyoxolan-2-yl]methyl dihydrogen phosphate
Formula: C10H14N5O7P
Exact mass: 347.0631
SMILES: NC1=NC2=C(N=CN2[C@H]2C[C@H](O)[C@@H](COP(O)(O)=O)O2)C(=O)N1
InChI: InChI=1S/C10H14N5O7P/c11-10-13-8-7(9(17)14-10)12-3-15(8)6-1-4(16)5(22-6)2-21-23(18,19)20/h3-6,16H,1-2H2,(H2,18,19,20)(H3,11,13,14,17)/t4-,5+,6+/m0/s1
Instrument: Agilent 6530 QTOF
Instrument type: LC-ESI-QTOF
Ms type: MS2
Ion mode: POSITIVE
Ionization: ESI
Fragmentation mode: CID
Collision energy: 20 eV
Resolution: 5000
Column name: N/A
Retention time: 0.323 min
Base peak: 121.0508
Precursor m/z: 348.0704
Precursor type: [M+H]+
Precursor intensity: 80363
m/z	relative intensity	assigned
81.0332	187	C5H5O+
82.0419	10	CH9NOP+
109.0431	13	C3H10O2P+
110.0311	45	CH6N2O4+
117.012	2	C4H6O2P+
135.0299	81	C5H3N4O+
137.0583	1	C6H7N3O+
140.0058	1	CH4N2O6+
152.0554	999	C4H10NO5+
153.0671	13	C5H14O3P+
160.9836	6	C3HN2O6+
184.0806	1	C3H12N4O5+
