Mass spectrum: 1,2-Dioleoyl-sn-glycero-3-phosphocholine; LC-ESI-QTOF; MS2; CE: 10eV; R=7000; [M+CH3COO]-
Name: 1,2-Dioleoyl-sn-glycero-3-phosphocholine
Name: [(2R)-2,3-bis[[(Z)-octadec-9-enoyl]oxy]propyl] 2-(trimethylazaniumyl)ethyl phosphate
Formula: C44H84NO8P
Exact mass: 785.5935
SMILES: CCCCCCCC/C=C\CCCCCCCC(=O)OC[C@H](COP(=O)([O-])OCC[N+](C)(C)C)OC(=O)CCCCCCC/C=C\CCCCCCCC
InChI: InChI=1S/C44H84NO8P/c1-6-8-10-12-14-16-18-20-22-24-26-28-30-32-34-36-43(46)50-40-42(41-52-54(48,49)51-39-38-45(3,4)5)53-44(47)37-35-33-31-29-27-25-23-21-19-17-15-13-11-9-7-2/h20-23,42H,6-19,24-41H2,1-5H3/b22-20-,23-21-/t42-/m1/s1
Instrument: Agilent 6560 QTOF
Instrument type: LC-ESI-QTOF
Ms type: MS2
Ion mode: NEGATIVE
Ionization: ESI
Fragmentation mode: CID
Collision energy: 10 eV
Resolution: 7000
Column name: N/A
Retention time: 0.166 min
Base peak: 223.0294
Precursor m/z: 844.6073
Precursor type: [M+CH3COO]-
Precursor intensity: 103905
m/z	relative intensity	assigned
125.4023	18	C5H51N-
281.2495	255	C14H36NO2P-
282.2562	38	C18H34O2-
282.3091	2	C8H44NO8-
282.6395	8	C10H84NO4-
400.1216	4	C25H21O3P-
413.4568	28	C24H61O4-
413.5079	2	C14H71NO10-
436.627	14	C23H82NO4-
477.0376	3	C24H14O9P-
506.3232	15	C22H51O10P-
558.2895	7	C35H43O4P-
572.5728	2	C29H81O7P-
759.9366	4	C46H3NO10P-
765.2647	1	C43H44NO10P-
765.3901	5	C46H55NO9-
766.1018	3	C46H23O10P-
766.2177	2	C45H37NO9P-
766.4006	3	C46H56NO9-
767.1104	6	C46H24O10P-
770.5714	999	C43H81NO8P-
771.5745	171	C43H82NO8P-
772.3138	9	C46H46NO10-
772.5074	8	C45H73O8P-
772.62	7	C44H87NO7P-
773.2278	5	C44H40NO10P-
774.2399	6	C44H41NO10P-
785.533	10	C43H78O10P-
786.3749	3	C45H57NO9P-
844.6088	793	C46H87NO10P-
