Mass spectrum: RIBOFLAVIN; LC-ESI-QTOF; MS2; CE: 20eV; R=5000; [M+H]+
Name: RIBOFLAVIN
Name: 7,8-dimethyl-10-[(2S,3S,4R)-2,3,4,5-tetrahydroxypentyl]benzo[g]pteridine-2,4-dione
Formula: C17H20N4O6
Exact mass: 376.13828
SMILES: CC1=C(C)C=C2N(C[C@H](O)[C@H](O)[C@H](O)CO)C3=NC(=O)NC(=O)C3=NC2=C1
InChI: InChI=1S/C17H20N4O6/c1-7-3-9-10(4-8(7)2)21(5-11(23)14(25)12(24)6-22)15-13(18-9)16(26)20-17(27)19-15/h3-4,11-12,14,22-25H,5-6H2,1-2H3,(H,20,26,27)/t11-,12+,14-/m0/s1
Instrument: Agilent 6530 QTOF
Instrument type: LC-ESI-QTOF
Ms type: MS2
Ion mode: POSITIVE
Ionization: ESI
Fragmentation mode: CID
Collision energy: 20 eV
Resolution: 5000
Column name: N/A
Retention time: 0.218 min
Base peak: 922.0098
Precursor m/z: 377.1456
Precursor type: [M+H]+
Precursor intensity: 202191
m/z	relative intensity	assigned
41.0395	18	C3H5+
43.0183	80	C2H3O+
43.0536	30	C3H7+
45.0345	28	C2H5O+
51.024	4	C4H3+
53.0373	20	C4H5+
61.0285	17	C2H5O2+
61.0861	1	H13O3+
62.0575	1	H6N4+
71.034	45	H7O4+
73.0279	30	C3H5O2+
75.0425	7	CH5N3O+
80.048	12	C2H8O3+
81.0532	14	H7N3O2+
99.0438	33	C5H7O2+
103.053	6	C8H7+
109.0729	6	C3H11NO3+
117.0567	12	C8H7N+
126.0567	7	C6H8NO2+
130.0677	3	H10N4O4+
132.0746	7	CH12N2O5+
133.1492	6	C7H19NO+
146.0838	2	C9H10N2+
155.0458	8	C6H7N2O3+
157.0748	6	C10H9N2+
170.071	32	C10H8N3+
170.1649	2	C9H20N3+
172.0877	222	C12H12O+
173.1057	9	C8H15NO3+
177.0767	1	C8H9N4O+
183.091	11	C12H11N2+
186.102	6	C11H12N3+
187.1122	5	C13H15O+
191.1286	2	C10H15N4+
197.0997	11	C5H15N3O5+
198.066	99	C11H8N3O+
199.0774	6	C13H11O2+
200.082	33	C11H10N3O+
202.9927	1	C8HN3O4+
203.1139	1	C7H15N4O3+
207.0928	4	C14H11N2+
209.1265	1	C8H19NO5+
211.0863	23	C13H11N2O+
214.0881	4	C13H12NO2+
218.0985	4	C16H12N+
220.1105	4	C13H16O3+
223.1117	6	C16H15O+
225.1154	4	C15H15NO+
226.0823	19	C9H12N3O4+
227.059	2	C16H7N2+
228.0889	69	C13H12N2O2+
229.0961	63	C13H13N2O2+
230.1675	2	C14H20N3+
231.115	7	C13H15N2O2+
239.0877	30	C10H13N3O4+
240.1119	9	C14H14N3O+
241.0329	1	C8H7N3O6+
242.0844	3	C17H10N2+
243.0883	999	C12H11N4O2+
244.0958	47	C12H12N4O2+
245.0778	4	C9H13N2O6+
246.1058	17	C9H16N3O5+
246.9945	1	C10H3N2O6+
252.0079	1	C17H2NO2+
252.1094	4	C12H16N2O4+
254.1331	10	C8H20N3O6+
255.1209	6	C11H17N3O4+
256.0178	1	C17H4O3+
256.1055	6	C11H16N2O5+
257.1191	14	C16H17O3+
269.0807	6	C16H13O4+
271.0984	5	C17H11N4+
273.1047	5	C11H17N2O6+
274.0352	1	C13H8NO6+
274.1182	9	C14H16N3O3+
275.1289	5	C17H15N4+
280.086	11	C16H12N2O3+
282.0847	38	C12H14N2O6+
285.1055	3	C12H17N2O6+
299.1126	19	C15H15N4O3+
300.0967	40	C15H14N3O4+
311.1139	2	C16H15N4O3+
317.1259	6	C17H19NO5+
329.123	1	C16H17N4O4+
334.1337	15	C17H20NO6+
353.0845	1	C17H13N4O5+
359.1386	18	C17H19N4O5+
360.121	103	C17H18N3O6+
377.1476	361	C17H21N4O6+
