Mass spectrum: Prostaglandin A1; LC-ESI-QTOF; MS2; CE: 40eV; R=7000; [M+Na]+
Name: Prostaglandin A1
Name: 7-[(1R,2S)-2-[(E,3S)-3-hydroxyoct-1-enyl]-5-oxocyclopent-3-en-1-yl]heptanoic acid
Formula: C20H32O4
Exact mass: 336.2301
SMILES: CCCCC[C@@H](/C=C/[C@H]1C=CC(=O)[C@@H]1CCCCCCC(=O)O)O
InChI: InChI=1S/C20H32O4/c1-2-3-6-9-17(21)14-12-16-13-15-19(22)18(16)10-7-4-5-8-11-20(23)24/h12-18,21H,2-11H2,1H3,(H,23,24)/b14-12+/t16-,17-,18+/m0/s1
Instrument: Agilent 6560 QTOF
Instrument type: LC-ESI-QTOF
Ms type: MS2
Ion mode: POSITIVE
Ionization: ESI
Fragmentation mode: CID
Collision energy: 40 eV
Resolution: 7000
Column name: Direct injection
Retention time: 0.182 min
Base peak: 301.2168
Precursor m/z: 359.2193
Precursor type: [M+Na]+
Precursor intensity: 5604
m/z	relative intensity	assigned
91.0547	999	C7H7+
171.065	36	C8H11O4+
172.1103	88	C9H16O3+
198.1298	93	C11H18O3+
198.2219	255	C10H30O3+
201.0381	176	C15H5O+
235.0958	149	C13H15O4+
257.0731	168	C13H14NaO4+
