Mass spectrum: Di-n-butyl sebacate; LC-ESI-QTOF; MS2; CE: 15eV; R=7000; [M+H]+
Name: Di-n-butyl sebacate
Name: Dibutyl sebacate
Name: dibutyl decanedioate
Formula: C18H34O4
Exact mass: 314.2457
SMILES: CCCCOC(=O)CCCCCCCCC(=O)OCCCC
InChI: InChI=1S/C18H34O4/c1-3-5-15-21-17(19)13-11-9-7-8-10-12-14-18(20)22-16-6-4-2/h3-16H2,1-2H3
Instrument: Agilent 6560 QTOF
Instrument type: LC-ESI-QTOF
Ms type: MS2
Ion mode: POSITIVE
Ionization: ESI
Fragmentation mode: CID
Collision energy: 15 eV
Resolution: 7000
Retention time: 0.109 min
Base peak: 337.2348
Precursor m/z: 315.253
Precursor type: [M+H]+
Precursor intensity: 96598.26
m/z	relative intensity	assigned
55.0546	59	C4H7+
57.0334	27	C3H5O+
57.07	55	C4H9+
59.0502	16	C3H7O+
67.0538	54	C5H7+
69.0702	300	C5H9+
79.0545	90	C6H7+
81.0693	238	C6H9+
83.0489	28	C5H7O+
85.0648	23	C5H9O+
93.0696	207	C7H9+
95.085	84	C7H11+
97.0642	76	C6H9O+
97.1008	110	C7H13+
101.0598	27	C5H9O2+
105.069	13	C8H9+
107.0699	9	C4H11O3+
107.0855	75	C8H11+
111.1169	68	C8H15+
119.0853	20	C9H11+
121.101	716	C9H13+
131.0848	56	C10H11+
139.1114	999	C9H15O+
149.0963	101	C10H13O+
157.1215	90	C9H17O2+
167.1063	66	C10H15O2+
185.1168	449	C10H17O3+
