Mass spectrum: Tri-p-tolyl phosphate; LC-ESI-QTOF; MS2; CE: 25eV; R=7000; [M+H]+
Name: Tri-p-tolyl phosphate
Name: Tricresyl phosphate
Name: tris(4-methylphenyl) phosphate
Formula: C21H21O4P
Exact mass: 368.1177
SMILES: CC1=CC=C(C=C1)OP(=O)(OC2=CC=C(C=C2)C)OC3=CC=C(C=C3)C
InChI: InChI=1S/C21H21O4P/c1-16-4-10-19(11-5-16)23-26(22,24-20-12-6-17(2)7-13-20)25-21-14-8-18(3)9-15-21/h4-15H,1-3H3
Instrument: Agilent 6560 QTOF
Instrument type: LC-ESI-QTOF
Ms type: MS2
Ion mode: POSITIVE
Ionization: ESI
Fragmentation mode: CID
Collision energy: 25 eV
Resolution: 7000
Retention time: 0.111 min
Base peak: 369.125
Precursor m/z: 369.125
Precursor type: [M+H]+
Precursor intensity: 265865.59
m/z	relative intensity	assigned
65.0393	69	C5H5+
77.0389	25	C6H5+
79.0538	70	C6H7+
81.0695	4	C6H9+
90.0458	4	C7H6+
91.0543	496	C7H7+
92.058	21	H13O3P+
105.0691	13	C8H9+
107.0488	316	C7H7O+
108.0542	18	H13O4P+
109.0647	31	C7H9O+
115.054	6	C9H7+
129.0689	8	C10H9+
135.0423	5	C8H7O2+
141.0702	37	C11H9+
142.0746	5	C4H15O3P+
143.0844	6	C11H11+
152.0607	5	C5H13O3P+
153.0083	21	C7H6O2P+
153.0706	59	C12H9+
154.0177	20	C7H7O2P+
165.0695	501	C13H9+
166.0773	896	C13H10+
167.0814	57	C6H16O3P+
171.0183	14	C7H8O3P+
171.1178	5	C13H15+
178.0758	12	C7H15O3P+
179.0852	70	C14H11+
180.0936	42	C14H12+
181.1013	149	C14H13+
182.1046	22	C7H19O3P+
184.0891	10	C13H12O+
187.0123	6	C7H8O4P+
189.0301	36	C7H10O4P+
195.0771	7	C7H16O4P+
196.0877	57	C14H12O+
197.0947	19	C7H18O4P+
198.1002	8	C7H19O4P+
199.112	36	C14H15O+
200.0377	5	C12H9OP+
200.1155	5	C7H21O4P+
215.0615	17	C13H12OP+
216.0919	5	C10H17O3P+
229.0984	16	C11H18O3P+
240.0912	10	C12H17O3P+
241.1016	55	C19H13+
243.0567	604	C14H12O2P+
244.0608	50	C14H13O2P+
255.1157	48	C20H15+
256.1237	165	C20H16+
257.1267	22	C13H22O3P+
261.0671	203	C14H14O3P+
262.0697	30	C14H15O3P+
270.1408	5	C21H18+
271.1498	16	C21H19+
278.0679	5	C14H15O4P+
279.0774	267	C14H16O4P+
280.0822	21	C14H17O4P+
333.1041	9	C21H18O2P+
351.112	13	C21H20O3P+
369.1247	999	C21H22O4P+
