Mass spectrum: Isodecyl diphenyl phosphate; LC-ESI-QTOF; MS2; CE: 20eV; R=7000; [M+H]+
Name: Isodecyl diphenyl phosphate
Name: 8-methylnonyl diphenyl phosphate
Formula: C22H31O4P
Exact mass: 390.1960
SMILES: CC(C)CCCCCCCOP(=O)(OC1=CC=CC=C1)OC2=CC=CC=C2
InChI: InChI=1S/C22H31O4P/c1-20(2)14-8-4-3-5-13-19-24-27(23,25-21-15-9-6-10-16-21)26-22-17-11-7-12-18-22/h6-7,9-12,15-18,20H,3-5,8,13-14,19H2,1-2H3
Instrument: Agilent 6560 QTOF
Instrument type: LC-ESI-QTOF
Ms type: MS2
Ion mode: POSITIVE
Ionization: ESI
Fragmentation mode: CID
Collision energy: 20 eV
Resolution: 7000
Retention time: 0.110 min
Base peak: 251.0467
Precursor m/z: 391.2033
Precursor type: [M+H]+
Precursor intensity: 78241.85
m/z	relative intensity	assigned
57.0699	80	C4H9+
71.0857	31	C5H11+
77.0384	65	C6H5+
85.1013	26	C6H13+
95.0478	23	C6H7O+
137.0967	4	C9H13O+
149.0215	10	C8H5O3+
152.0633	13	C12H8+
153.0689	51	C12H9+
154.0721	8	C5H15O3P+
157.0047	15	C6H6O3P+
168.0567	5	C12H8O+
175.0157	7	C6H8O4P+
176.0192	4	C6H9O4P+
215.0251	20	C12H8O2P+
233.0363	25	C12H10O3P+
244.1338	5	C16H21P+
251.0468	999	C12H12O4P+
252.0499	88	C12H13O4P+
