Mass spectrum: ADENOSINEDIPHOSPHATERIBOSE; LC-ESI-QTOF; MS2; CE: 40eV; R=5000; [M+H]+
Name: ADENOSINEDIPHOSPHATERIBOSE
Name: Adenosine diphosphate ribose
Name: [[5-(6-aminopurin-9-yl)-3,4-dihydroxyoxolan-2-yl]methoxy-hydroxyphosphoryl] (3,4,5-trihydroxyoxolan-2-yl)methyl hydrogen phosphate
Formula: C15H23N5O14P2
Exact mass: 559.0717
SMILES: NC1=C2N=CN(C3OC(COP(O)(=O)OP(O)(=O)OCC4OC(O)C(O)C4O)C(O)C3O)C2=NC=N1
InChI: InChI=1S/C15H23N5O14P2/c16-12-7-13(18-3-17-12)20(4-19-7)14-10(23)8(21)5(32-14)1-30-35(26,27)34-36(28,29)31-2-6-9(22)11(24)15(25)33-6/h3-6,8-11,14-15,21-25H,1-2H2,(H,26,27)(H,28,29)(H2,16,17,18)
Instrument: Agilent 6530 QTOF
Instrument type: LC-ESI-QTOF
Ms type: MS2
Ion mode: POSITIVE
Ionization: ESI
Fragmentation mode: CID
Collision energy: 40 eV
Resolution: 5000
Column name: N/A
Retention time: 0.285 min
Base peak: 121.0508
Precursor m/z: 560.079
Precursor type: [M+H]+
Precursor intensity: 52326
m/z	relative intensity	assigned
97.0298	110	CH8NO2P+
110.0584	1	C4H6N4+
114.154	1	C5H23P+
119.0348	41	C5H3N4+
120.0413	18	C4H8O4+
135.01	6	C10HN+
136.0643	999	C5H13O2P+
137.1262	2	C2H19NO5+
138.1025	3	C7H12N3+
139.0076	1	C3H9O2P2+
147.0413	2	C2H12O5P+
180.9606	4	C7H3O2P2+
188.1176	1	C2H24NO4P2+
202.0831	4	C9H14O5+
204.0747	5	C3H15N3O5P+
204.1122	1	C6H21O5P+
214.0783	10	C9H16N2P2+
214.9282	2	C6HO5P2+
215.0615	12	C7H13N4P2+
226.0203	2	C6H4N5O5+
234.1382	2	CH22N4O9+
242.1748	1	C13H24NO3+
247.148	2	C15H22NP+
260.9741	1	CH4N5O9P+
263.1476	6	C10H21N3O5+
305.8751	4	C3O13P2+
312.0234	3	C3H14N4O9P2+
317.0167	5	C14H7NO8+
331.975	1	C13H6N2O5P2+
348.0666	12	C2H24NO14P2+
394.1554	5	C13H24N5O9+
452.0467	3	C10H20N3O13P2+
464.0968	5	C11H24N5O11P2+
466.9474	1	C14H4N4O13P+
479.0261	7	C15H17N2O12P2+
479.1127	2	C15H21N5O13+
