Mass spectrum: Liothyronine; LC-ESI-QTOF; MS2; CE: 10eV; R=7000; [M-H]-
Name: Liothyronine
Name: (2S)-2-amino-3-[4-(4-hydroxy-3-iodophenoxy)-3,5-diiodophenyl]propanoic acid
Formula: C15H12I3NO4
Exact mass: 650.7901
SMILES: N[C@@H](CC1=CC(I)=C(OC2=CC=C(O)C(I)=C2)C(I)=C1)C(O)=O
InChI: InChI=1S/C15H12I3NO4/c16-9-6-8(1-2-13(9)20)23-14-10(17)3-7(4-11(14)18)5-12(19)15(21)22/h1-4,6,12,20H,5,19H2,(H,21,22)/t12-/m0/s1
Instrument: Agilent 6560 QTOF
Instrument type: LC-ESI-QTOF
Ms type: MS2
Ion mode: NEGATIVE
Ionization: ESI
Fragmentation mode: CID
Collision energy: 10 eV
Resolution: 7000
Column name: N/A
Retention time: 0.143 min
Base peak: 649.7826
Precursor m/z: 649.7828
Precursor type: [M-H]-
Precursor intensity: 512805
m/z	relative intensity	assigned
72.0088	83	C2H2NO2-
126.9039	485	I-
190.8811	2	IO4-
222.0599	2	C14H8NO2-
349.9638	2	C14H9INO2-
350.9731	4	C14H10INO2-
357.9314	1	C15H5INO2-
375.9453	3	C15H7INO3-
393.9537	1	C15H9INO4-
448.8545	37	C13H7I2O2-
449.7145	1	C3HI3O2-
449.8648	1	C13H8I2O2-
450.8601	1	C12H7I2NO2-
461.8587	1	C14H8I2O2-
463.7429	1	CH7I3O4-
475.859	1	C14H8I2NO2-
477.877	18	C14H10I2NO2-
478.8846	19	C14H11I2NO2-
504.833	2	C14H5I2NO4-
505.8498	33	C15H8I2O4-
506.8574	3	C15H9I2O4-
513.7654	3	C8H7I3NO-
521.869	4	C15H10I2NO4-
522.8785	48	C15H11I2NO4-
575.7612	1	C13H7I3O2-
576.7665	23	C13H8I3O2-
577.7705	2	C13H9I3O2-
632.7558	355	C15H8I3O4-
633.7607	27	C15H9I3O4-
634.763	1	C14H8I3NO4-
649.7826	999	C15H11I3NO4-
