Mass spectrum: SEROTONIN; LC-ESI-QTOF; MS2; CE: 40eV; R=5000; [M+H]+
Name: SEROTONIN
Name: 3-(2-aminoethyl)-1H-indol-5-ol
Formula: C10H12N2O
Exact mass: 176.09496
SMILES: NCCC1=CNC2=CC=C(O)C=C12
InChI: InChI=1S/C10H12N2O/c11-4-3-7-6-12-10-2-1-8(13)5-9(7)10/h1-2,5-6,12-13H,3-4,11H2
Instrument: Agilent 6530 QTOF
Instrument type: LC-ESI-QTOF
Ms type: MS2
Ion mode: POSITIVE
Ionization: ESI
Fragmentation mode: CID
Collision energy: 40 eV
Resolution: 5000
Column name: N/A
Retention time: 0.182 min
Base peak: 160.0758
Precursor m/z: 177.1022
Precursor type: [M+H]+
Precursor intensity: 1029869
m/z	relative intensity	assigned
42.0337	11	C2H4N+
51.0235	108	C4H3+
55.0186	58	C3H3O+
63.0236	80	C5H3+
65.0395	244	C5H5+
67.0428	101	C4H5N+
74.0138	6	C6H2+
75.0233	10	C6H3+
77.0395	717	C6H5+
78.0451	149	C6H6+
79.0546	225	C6H7+
80.0506	21	C5H6N+
87.0232	9	C7H3+
88.0322	11	C7H4+
89.0395	398	C7H5+
90.0471	182	C7H6+
91.0535	98	C7H7+
94.0406	45	C6H6O+
98.0166	1	C8H2+
101.038	1	C8H5+
102.045	23	C8H6+
103.0549	249	C8H7+
104.0498	235	C7H6N+
107.0504	42	C7H7O+
108.0428	3	C6H6NO+
109.0523	1	C6H7NO+
114.0472	18	C9H6+
115.0545	999	C9H7+
116.052	139	C8H6N+
117.0578	522	C8H7N+
120.0542	9	C8H8O+
122.0949	1	C8H12N+
128.0517	26	C9H6N+
129.0473	5	C8H5N2+
130.0657	381	C9H8N+
132.0695	58	C8H8N2+
133.0549	201	C8H7NO+
134.0573	6	C8H8NO+
140.0483	53	C10H6N+
141.0568	69	C10H7N+
142.0641	92	C10H8N+
143.0728	131	C10H9N+
158.0623	75	C10H8NO+
159.069	113	C10H9NO+
160.0757	26	C10H10NO+
