Mass spectrum: Tetrekis(2-chlorethyl) dichloroisopentyldiphosphate; LC-ESI-QTOF; MS2; CE: 30eV; R=7000; [M+H]+
Name: Tetrekis(2-chlorethyl) dichloroisopentyldiphosphate
Name: Phosphoric acid, 2,2-bis(chloromethyl)-1,3-propanediyl tetrakis(2-chloroethyl) ester
Name: [2-[bis(2-chloroethoxy)phosphoryloxymethyl]-3-chloro-2-(chloromethyl)propyl] bis(2-chloroethyl) phosphate
Formula: C13H24Cl6O8P2
Exact mass: 579.9078
SMILES: C(CCl)OP(=O)(OCCCl)OCC(COP(=O)(OCCCl)OCCCl)(CCl)CCl
InChI: InChI=1S/C13H24Cl6O8P2/c14-1-5-22-28(20,23-6-2-15)26-11-13(9-18,10-19)12-27-29(21,24-7-3-16)25-8-4-17/h1-12H2
Instrument: Agilent 6560 QTOF
Instrument type: LC-ESI-QTOF
Ms type: MS2
Ion mode: POSITIVE
Ionization: ESI
Fragmentation mode: CID
Collision energy: 30 eV
Resolution: 7000
Retention time: 0.146 min
Base peak: 604.8951
Precursor m/z: 580.915
Precursor type: [M+H]+
Precursor intensity: 14521.62
m/z	relative intensity	assigned
63.0006	152	C2H4Cl+
65.0385	207	C5H5+
74.9995	48	C2H4OP+
98.9837	160	H4O4P+
101.0145	47	C4H6OP+
124.9992	45	C2H6O4P+
160.9763	98	CH7O5P2+
234.9691	999	C6H10Cl3O3+
296.9606	448	C6H13Cl2O5P2+
358.9532	214	C8H16Cl3O5P2+
