Mass spectrum: N-Palmitoyl-D-sphingosine; LC-ESI-QTOF; MS2; CE: 20eV; R=7000; [M-H]-
Name: N-Palmitoyl-D-sphingosine
Name: N-Palmitoylsphingosine
Name: N-[(E,2S,3R)-1,3-dihydroxyoctadec-4-en-2-yl]hexadecanamide
Formula: C34H67NO3
Exact mass: 537.5121
SMILES: [H][C@@](CO)(NC(=O)CCCCCCCCCCCCCCC)[C@H](O)\C=C\CCCCCCCCCCCCC
InChI: InChI=1S/C34H67NO3/c1-3-5-7-9-11-13-15-17-19-21-23-25-27-29-33(37)32(31-36)35-34(38)30-28-26-24-22-20-18-16-14-12-10-8-6-4-2/h27,29,32-33,36-37H,3-26,28,30-31H2,1-2H3,(H,35,38)/b29-27+/t32-,33+/m0/s1
Instrument: Agilent 6560 QTOF
Instrument type: LC-ESI-QTOF
Ms type: MS2
Ion mode: NEGATIVE
Ionization: ESI
Fragmentation mode: CID
Collision energy: 20 eV
Resolution: 7000
Column name: N/A
Retention time: 0.148 min
Base peak: 596.5275
Precursor m/z: 536.5048
Precursor type: [M-H]-
Precursor intensity: 64423
m/z	relative intensity	assigned
225.2173	28	C15H29O-
236.2179	18	C16H28O-
237.222	669	C16H29O-
238.2273	20	C16H30O-
238.4421	12	C14H56N-
251.237	54	C17H31O-
254.2479	203	C16H32NO-
254.4543	42	C11H60NO3-
255.2361	159	C16H31O2-
256.235	34	C16H32O2-
263.2358	167	C18H31O-
264.2401	29	C18H32O-
266.2536	8	C17H32NO-
280.2647	941	C18H34NO-
284.209	9	C20H28O-
296.2598	96	C18H34NO2-
296.3119	19	C20H40O-
296.3404	13	C21H44-
298.275	56	C18H36NO2-
299.2783	57	C22H35-
401.1499	5	C29H21O2-
450.2192	14	C31H30O3-
450.4816	30	C31H62O-
488.4872	56	C33H62NO-
504.4786	88	C33H62NO2-
505.4764	19	C33H63NO2-
506.4933	244	C33H64NO2-
507.5007	83	C33H65NO2-
518.4907	57	C34H64NO2-
536.5063	999	C34H66NO3-
