Mass spectrum: SPERMIDINE; LC-ESI-QTOF; MS2; CE: 10eV; R=5000; [M+H]+
Name: SPERMIDINE
Name: N`-(3-aminopropyl)butane-1,4-diamine
Formula: C7H19N3
Exact mass: 145.15790
SMILES: NCCCCNCCCN
InChI: InChI=1S/C7H19N3/c8-4-1-2-6-10-7-3-5-9/h10H,1-9H2
Instrument: Agilent 6530 QTOF
Instrument type: LC-ESI-QTOF
Ms type: MS2
Ion mode: POSITIVE
Ionization: ESI
Fragmentation mode: CID
Collision energy: 10 eV
Resolution: 5000
Column name: N/A
Retention time: 0.218 min
Base peak: 146.166
Precursor m/z: 146.1652
Precursor type: [M+H]+
Precursor intensity: 5817221
m/z	relative intensity	assigned
41.0388	1	C3H5+
42.0332	3	C2H4N+
55.0541	5	C4H7+
58.0649	83	C3H8N+
70.0653	4	C4H8N+
72.0804	999	C4H10N+
75.0913	53	C3H11N2+
84.0802	121	C5H10N+
112.1109	217	C7H14N+
129.1371	118	C7H17N2+
146.1631	184	C7H20N3+
