Mass spectrum: LAUROYLCARNITINE; LC-ESI-QTOF; MS2; CE: 40eV; R=5000; [M+H]+
Name: LAUROYLCARNITINE
Name: (3R)-3-dodecanoyloxy-4-(trimethylazaniumyl)butanoate
Formula: C19H37NO4
Exact mass: 343.2723
SMILES: CCCCCCCCCCCC(=O)O[C@H](CC([O-])=O)C[N+](C)(C)C
InChI: InChI=1S/C19H37NO4/c1-5-6-7-8-9-10-11-12-13-14-19(23)24-17(15-18(21)22)16-20(2,3)4/h17H,5-16H2,1-4H3/t17-/m1/s1
Instrument: Agilent 6530 QTOF
Instrument type: LC-ESI-QTOF
Ms type: MS2
Ion mode: POSITIVE
Ionization: ESI
Fragmentation mode: CID
Collision energy: 40 eV
Resolution: 5000
Column name: N/A
Retention time: 0.561 min
Base peak: 121.0508
Precursor m/z: 344.2795
Precursor type: [M+H]+
Precursor intensity: 539893
m/z	relative intensity	assigned
40.0313	1	C3H4+
53.0373	1	C4H5+
55.0532	7	C4H7+
57.0691	50	C4H9+
58.0665	8	C3H8N+
67.0551	13	C5H7+
69.0692	6	C5H9+
79.0523	1	C6H7+
81.0711	9	C6H9+
85.0305	999	C4H5O2+
95.0873	10	C7H11+
109.0997	2	C8H13+
121.0518	1	C7H7NO+
129.0795	1	C6H11NO2+
144.103	30	C7H14NO2+
