Mass spectrum: Methandrostenolone; LC-ESI-QTOF; MS2; CE: 20eV; R=7000; [M+H]+
Name: Methandrostenolone
Name: (8R,9S,10R,13S,14S,17S)-17-hydroxy-10,13,17-trimethyl-7,8,9,11,12,14,15,16-octahydro-6H-cyclopenta[a]phenanthren-3-one
Formula: C20H28O2
Exact mass: 300.2089
SMILES: C[C@]12CC[C@H]3[C@H]([C@@H]1CC[C@]2(C)O)CCC4=CC(=O)C=C[C@]34C
InChI: InChI=1S/C20H28O2/c1-18-9-6-14(21)12-13(18)4-5-15-16(18)7-10-19(2)17(15)8-11-20(19,3)22/h6,9,12,15-17,22H,4-5,7-8,10-11H2,1-3H3/t15-,16+,17+,18+,19+,20+/m1/s1
Instrument: Agilent 6560 QTOF
Instrument type: LC-ESI-QTOF
Ms type: MS2
Ion mode: POSITIVE
Ionization: ESI
Fragmentation mode: CID
Collision energy: 20 eV
Resolution: 7000
Column name: Direct injection
Retention time: 0.154 min
Base peak: 301.2173
Precursor m/z: 301.2162
Precursor type: [M+H]+
Precursor intensity: 376302
m/z	relative intensity	assigned
71.0496	16	C4H7O+
77.039	35	C6H5+
79.0545	37	C6H7+
81.07	93	C6H9+
83.0502	4	C5H7O+
83.0863	3	C6H11+
85.0637	2	C5H9O+
91.054	41	C7H7+
93.0693	185	C7H9+
95.0852	60	C7H11+
103.0522	5	C8H7+
105.0705	35	C8H9+
107.0852	127	C8H11+
109.1003	46	C8H13+
115.054	12	C9H7+
117.0679	3	C9H9+
119.0857	43	C9H11+
121.0648	999	C8H9O+
121.0998	64	C9H13+
123.079	4	C8H11O+
123.1182	14	C9H15+
125.0953	5	C8H13O+
127.0559	1	C10H7+
131.0461	2	C9H7O+
131.0866	6	C10H11+
133.0644	11	C9H9O+
133.1006	17	C10H13+
135.0799	42	C9H11O+
135.116	8	C10H15+
136.0866	1	C9H12O+
137.0585	2	C8H9O2+
143.0839	1	C11H11+
144.0572	1	C10H8O+
145.0644	18	C10H9O+
145.1001	1	C11H13+
146.0735	3	C10H10O+
147.08	60	C10H11O+
147.1168	12	C11H15+
149.1326	248	C11H17+
150.1368	21	C11H18+
155.0855	1	C12H11+
157.0679	3	C11H9O+
157.1001	2	C12H13+
158.0751	4	C11H10O+
159.0791	15	C11H11O+
159.1161	3	C12H15+
160.1208	3	C12H16+
161.0967	28	C11H13O+
161.1322	22	C12H17+
163.1482	41	C12H19+
171.0794	4	C12H11O+
173.096	58	C12H13O+
175.1157	13	C12H15O+
175.1471	8	C13H19+
177.0899	1	C11H13O2+
185.0959	2	C13H13O+
185.1337	3	C14H17+
187.1109	27	C13H15O+
189.1263	6	C13H17O+
199.11	6	C14H15O+
201.1286	6	C14H17O+
213.1232	5	C15H17O+
215.145	2	C15H19O+
227.1422	11	C16H19O+
228.1471	4	C16H20O+
243.1768	2	C17H23O+
283.2068	8	C20H27O+
