Mass spectrum: Bis(2-ethylhexyl)phthalate; LC-ESI-QTOF; MS2; CE: 10eV; R=7000; [M+Na]+
Name: Bis(2-ethylhexyl)phthalate
Name: Bis(2-ethylhexyl) phthalate
Name: bis(2-ethylhexyl) benzene-1,2-dicarboxylate
Formula: C24H38O4
Exact mass: 390.2770
SMILES: CCCCC(CC)COC(=O)C1=CC=CC=C1C(=O)OCC(CC)CCCC
InChI: InChI=1S/C24H38O4/c1-5-9-13-19(7-3)17-27-23(25)21-15-11-12-16-22(21)24(26)28-18-20(8-4)14-10-6-2/h11-12,15-16,19-20H,5-10,13-14,17-18H2,1-4H3
Instrument: Agilent 6560 QTOF
Instrument type: LC-ESI-QTOF
Ms type: MS2
Ion mode: POSITIVE
Ionization: ESI
Fragmentation mode: CID
Collision energy: 10 eV
Resolution: 7000
Column name: Direct injection
Retention time: 0.180 min
Base peak: 149.0241
Precursor m/z: 413.2662
Precursor type: [M+Na]+
Precursor intensity: 143380
m/z	relative intensity	assigned
119.0861	35	C9H11+
133.0652	6	C9H9O+
151.0707	1	C7H12NaO2+
171.0048	9	C8H4NaO3+
189.0172	12	C10H5O4+
262.9788	5	C16NaO3+
295.1968	2	C19H28NaO+
301.1418	97	C16H22NaO4+
302.1473	5	C16H23NaO4+
413.2677	999	C24H38NaO4+
