Mass spectrum: 1,2-diheptadecanoyl-sn-glycero-3-phosphocholine; LC-ESI-QTOF; MS2; CE: 10eV; R=7000; [M+H]+
Name: 1,2-diheptadecanoyl-sn-glycero-3-phosphocholine
Name: [(2R)-2,3-di(heptadecanoyloxy)propyl] 2-(trimethylazaniumyl)ethyl phosphate
Formula: C42H84NO8P
Exact mass: 761.5935
SMILES: CCCCCCCCCCCCCCCCC(=O)OC[C@H](COP(=O)([O-])OCC[N+](C)(C)C)OC(=O)CCCCCCCCCCCCCCCC
InChI: InChI=1S/C42H84NO8P/c1-6-8-10-12-14-16-18-20-22-24-26-28-30-32-34-41(44)48-38-40(39-50-52(46,47)49-37-36-43(3,4)5)51-42(45)35-33-31-29-27-25-23-21-19-17-15-13-11-9-7-2/h40H,6-39H2,1-5H3/t40-/m1/s1
Instrument: Agilent 6560 QTOF
Instrument type: LC-ESI-QTOF
Ms type: MS2
Ion mode: POSITIVE
Ionization: ESI
Fragmentation mode: CID
Collision energy: 10 eV
Resolution: 7000
Column name: Direct injection
Retention time: 0.155 min
Base peak: 762.6034
Precursor m/z: 762.6007
Precursor type: [M+H]+
Precursor intensity: 309945
m/z	relative intensity	assigned
86.096	4	C5H12N+
95.4748	2	H64P+
104.1079	6	C5H14NO+
125	3	C2H6O4P+
166.06	4	C2H15O6P+
184.0736	529	C5H15NO4P+
349.2994	3	C22H39NO2+
455.3499	1	C23H52O6P+
492.3493	3	C32H46NO3+
510.354	4	C29H50O7+
762.6028	999	C42H85NO8P+
