Mass spectrum: METHYL4-AMINOBUTYRATE; LC-ESI-QTOF; MS2; CE: 10eV; R=5000; [M+H]+
Name: METHYL4-AMINOBUTYRATE
Name: methyl 4-aminobutanoate
Formula: C5H11NO2
Exact mass: 117.07898
SMILES: COC(CCCN)=O
InChI: InChI=1S/C5H11NO2/c1-8-5(7)3-2-4-6/h2-4,6H2,1H3
Instrument: Agilent 6530 QTOF
Instrument type: LC-ESI-QTOF
Ms type: MS2
Ion mode: POSITIVE
Ionization: ESI
Fragmentation mode: CID
Collision energy: 10 eV
Resolution: 5000
Column name: N/A
Retention time: 0.565 min
Base peak: 121.0508
Precursor m/z: 118.0863
Precursor type: [M+H]+
Precursor intensity: 585498
m/z	relative intensity	assigned
41.0395	61	C3H5+
44.0259	2	C2H4O+
58.0665	88	C3H8N+
59.0135	182	C2H3O2+
69.035	121	C4H5O+
74.0964	2	C4H12N+
86.0616	48	C4H8NO+
101.061	999	C5H9O2+
118.0873	239	C5H12NO2+
