Mass spectrum: INOSINE; LC-ESI-QTOF; MS2; CE: 40eV; R=5000; [M+H]+
Name: INOSINE
Name: CID 6021
Name: 9-[(2R,3R,4S,5R)-3,4-dihydroxy-5-(hydroxymethyl)oxolan-2-yl]-3H-purin-6-one
Formula: C10H12N4O5
Exact mass: 268.08077
SMILES: OC[C@H]1O[C@H]([C@H](O)[C@@H]1O)N1C=NC2=C1N=CNC2=O
InChI: InChI=1S/C10H12N4O5/c15-1-4-6(16)7(17)10(19-4)14-3-13-5-8(14)11-2-12-9(5)18/h2-4,6-7,10,15-17H,1H2,(H,11,12,18)/t4-,6-,7-,10-/m1/s1
Instrument: Agilent 6530 QTOF
Instrument type: LC-ESI-QTOF
Ms type: MS2
Ion mode: POSITIVE
Ionization: ESI
Fragmentation mode: CID
Collision energy: 40 eV
Resolution: 5000
Column name: N/A
Retention time: 0.222 min
Base peak: 137.0456
Precursor m/z: 269.088
Precursor type: [M+H]+
Precursor intensity: 716820
m/z	relative intensity	assigned
40.0179	2	C2H2N+
41.0383	9	C3H5+
43.0177	15	C2H3O+
45.0324	30	H3N3+
55.0284	109	C2H3N2+
57.0329	35	C3H5O+
61.0275	11	H3N3O+
65.0118	9	H3NO3+
67.0286	33	C3H3N2+
69.0322	10	C2H3N3+
71.0121	16	C3H3O2+
73.0174	1	C2H3NO2+
82.0384	107	H6N2O3+
83.0245	13	C3H3N2O+
85.0263	3	C2H3N3O+
92.0219	25	CH4N2O3+
93.0045	3	CH3NO4+
94.0378	127	CH6N2O3+
110.0318	347	CH6N2O4+
119.0316	283	C2H5N3O3+
120.0173	26	C2H4N2O4+
136.0016	1	C4N4O2+
137.0421	999	C2H7N3O4+
