Mass spectrum: N-palmitoyl-D-erythro-sphinganine; LC-ESI-QTOF; MS2; CE: 10eV; R=7000; [M-H]-
Name: N-palmitoyl-D-erythro-sphinganine
Name: N-(hexadecanoyl)-sphinganine
Name: N-[(2S,3R)-1,3-dihydroxyoctadecan-2-yl]hexadecanamide
Formula: C34H69NO3
Exact mass: 539.5277
SMILES: CCCCCCCCCCCCCCC[C@H]([C@H](CO)NC(=O)CCCCCCCCCCCCCCC)O
InChI: InChI=1S/C34H69NO3/c1-3-5-7-9-11-13-15-17-19-21-23-25-27-29-33(37)32(31-36)35-34(38)30-28-26-24-22-20-18-16-14-12-10-8-6-4-2/h32-33,36-37H,3-31H2,1-2H3,(H,35,38)/t32-,33+/m0/s1
Instrument: Agilent 6560 QTOF
Instrument type: LC-ESI-QTOF
Ms type: MS2
Ion mode: NEGATIVE
Ionization: ESI
Fragmentation mode: CID
Collision energy: 10 eV
Resolution: 7000
Column name: N/A
Retention time: 0.165 min
Base peak: 598.5423
Precursor m/z: 538.5205
Precursor type: [M-H]-
Precursor intensity: 205783
m/z	relative intensity	assigned
142.067	1	C10H8N-
195.3468	1	C10H45NO-
233.0278	1	C18H3N-
237.2198	23	C16H29O-
237.3516	1	C16H45-
237.4388	2	C14H55N-
238.2254	2	C16H30O-
239.2373	10	C16H31O-
254.2464	8	C16H32NO-
255.1388	1	C17H19O2-
255.2333	17	C16H31O2-
278.5298	1	C15H68NO-
280.2649	82	C18H34NO-
281.2706	4	C18H35NO-
296.2594	13	C18H34NO2-
297.2604	1	C22H33-
297.4167	1	C15H55NO3-
298.2751	2	C18H36NO2-
300.2939	4	C18H38NO2-
306.1102	2	C19H16NO3-
315.5028	2	C17H65NO2-
335.4399	1	C18H57NO3-
370.2509	1	C24H34O3-
374.9871	1	C26HNO3-
416.2806	4	C29H36O2-
418.0729	1	C34H10-
490.4999	32	C33H64NO-
491.5027	9	C33H65NO-
502.5029	3	C34H64NO-
503.2492	1	C34H33NO3-
503.4354	1	C32H57NO3-
506.5007	13	C34H66O2-
507.4914	1	C33H65NO2-
538.521	999	C34H68NO3-
