Mass spectrum: Tri-p-tolyl phosphate; LC-ESI-QTOF; MS2; CE: 45eV; R=7000; [M+H]+
Name: Tri-p-tolyl phosphate
Name: Tricresyl phosphate
Name: tris(4-methylphenyl) phosphate
Formula: C21H21O4P
Exact mass: 368.1177
SMILES: CC1=CC=C(C=C1)OP(=O)(OC2=CC=C(C=C2)C)OC3=CC=C(C=C3)C
InChI: InChI=1S/C21H21O4P/c1-16-4-10-19(11-5-16)23-26(22,24-20-12-6-17(2)7-13-20)25-21-14-8-18(3)9-15-21/h4-15H,1-3H3
Instrument: Agilent 6560 QTOF
Instrument type: LC-ESI-QTOF
Ms type: MS2
Ion mode: POSITIVE
Ionization: ESI
Fragmentation mode: CID
Collision energy: 45 eV
Resolution: 7000
Retention time: 0.109 min
Base peak: 369.1248
Precursor m/z: 369.125
Precursor type: [M+H]+
Precursor intensity: 231131.76
m/z	relative intensity	assigned
51.0236	13	C4H3+
57.0702	3	C4H9+
63.024	12	C5H3+
65.0389	377	C5H5+
77.0389	117	C6H5+
79.0542	190	C6H7+
81.0685	5	C6H9+
90.0463	26	C7H6+
91.0544	903	C7H7+
105.068	4	CH14O3P+
106.0377	4	H11O4P+
107.0491	161	C7H7O+
108.0561	18	C7H8O+
109.0648	31	C7H9O+
115.0543	8	C9H7+
128.0605	4	C10H8+
139.0541	5	C11H7+
141.0689	36	C11H9+
150.0474	5	C12H6+
152.0615	14	C12H8+
153.0095	6	C7H6O2P+
153.0701	29	C12H9+
154.0176	8	C7H7O2P+
154.078	18	C12H10+
155.0221	5	C7H8O2P+
155.0865	6	C12H11+
163.0531	6	C13H7+
164.0623	11	C13H8+
165.0698	999	C13H9+
166.0764	401	C6H15O3P+
167.081	38	C6H16O3P+
178.0768	35	C14H10+
179.0854	48	C14H11+
180.0923	16	C14H12+
181.0646	39	C13H9O+
181.0999	10	C7H18O3P+
182.073	4	C13H10O+
189.0272	4	C7H10O4P+
195.0792	47	C7H16O4P+
196.0876	155	C14H12O+
197.0948	7	C7H18O4P+
200.0363	14	C12H9OP+
213.0459	4	C13H10OP+
215.0612	29	C13H12OP+
225.0477	4	C14H10OP+
226.075	8	C11H15O3P+
229.0986	9	C11H18O3P+
239.085	11	C19H11+
240.0916	29	C12H17O3P+
241.1007	33	C19H13+
242.1029	5	C12H19O3P+
243.0561	103	C14H12O2P+
244.0598	8	C14H13O2P+
253.0981	4	C13H18O3P+
255.1157	24	C20H15+
256.1211	13	C13H21O3P+
261.0636	6	C14H14O3P+
277.0603	5	C14H14O4P+
279.074	16	C14H16O4P+
335.0762	3	C20H16O3P+
