Mass spectrum: ((propane-2,2-diylbis(4,1-phenylene))bis(oxy))bis(3,6,9,12,15-pentaoxaheptadecane-17,1-diyl) bis(2-methylacrylate); LC-ESI-QTOF; MS2; CE: 40eV; R=7000; [M+NH4]+
Name: ((propane-2,2-diylbis(4,1-phenylene))bis(oxy))bis(3,6,9,12,15-pentaoxaheptadecane-17,1-diyl) bis(2-methylacrylate)
Name: Bismethacrylic acid [dimethylmethylenebis[1,4-phenyleneoxy(3,6,9,12,15-pentaoxaheptadecane-1,17-diyl)]] ester
Name: 2-[2-[2-[2-[2-[2-[4-[2-[4-[2-[2-[2-[2-[2-[2-(2-methylprop-2-enoyloxy)ethoxy]ethoxy]ethoxy]ethoxy]ethoxy]ethoxy]phenyl]propan-2-yl]phenoxy]ethoxy]ethoxy]ethoxy]ethoxy]ethoxy]ethyl 2-methylprop-2-enoate
Formula: C47H72O16
Exact mass: 892.4820
SMILES: CC(C1=CC=C(OCCOCCOCCOCCOCCOCCOC(C(C)=C)=O)C=C1)(C)C2=CC=C(OCCOCCOCCOCCOCCOCCOC(C(C)=C)=O)C=C2
InChI: InChI=1S/C47H72O16/c1-39(2)45(48)62-37-33-58-29-25-54-21-17-50-15-19-52-23-27-56-31-35-60-43-11-7-41(8-12-43)47(5,6)42-9-13-44(14-10-42)61-36-32-57-28-24-53-20-16-51-18-22-55-26-30-59-34-38-63-46(49)40(3)4/h7-14H,1,3,15-38H2,2,4-6H3
Instrument: Agilent 6560 QTOF
Instrument type: LC-ESI-QTOF
Ms type: MS2
Ion mode: POSITIVE
Ionization: ESI
Fragmentation mode: CID
Collision energy: 40 eV
Resolution: 7000
Column name: ZORBAX Extend-C18 3.5um, 2.1x50mm, Agilent Technologies
Retention time: 4.082 min
Base peak: 453.3483
Precursor m/z: 910.5159
Precursor type: [M+NH4]+
Precursor intensity: 146995.17
m/z	relative intensity	assigned
69.0334	55	C4H5O+
71.0873	2	C5H11+
87.044	6	C4H7O2+
89.0599	11	C4H9O2+
95.0501	2	C6H7O+
105.07	3	C8H9+
113.0606	999	C6H9O2+
129.0713	2	C10H9+
133.065	6	C9H9O+
133.0861	7	C6H13O3+
133.098	7	C10H13+
135.0792	14	C9H11O+
147.081	4	C10H11O+
157.0849	8	C8H13O3+
159.0809	2	C11H11O+
161.095	53	C11H13O+
162.0983	5	C3H16NO6+
163.11	2	C11H15O+
179.1054	7	C11H15O2+
187.1092	9	C13H15O+
203.1043	3	C13H15O2+
205.1219	57	C13H17O2+
206.1228	4	C5H20NO7+
223.1291	4	C13H19O3+
231.136	3	H25NO12+
249.147	3	H27NO13+
275.157	2	C9H25NO8+
281.1526	3	C4H27NO12+
291.1557	9	C2H29NO14+
311.1811	4	C24H23+
327.1578	2	C5H29NO14+
335.1849	8	C19H27O5+
379.2047	2	C13H33NO11+
