Mass spectrum: Mono(2-ethylhexyl) terephthalate; LC-ESI-QTOF; MS2; CE: 20eV; R=7000; [M-H]-
Name: Mono(2-ethylhexyl) terephthalate
Name: 4-(2-ethylhexoxycarbonyl)benzoic acid
Formula: C16H22O4
Exact mass: 278.1518
SMILES: CCCCC(CC)COC(=O)C1=CC=C(C=C1)C(=O)O
InChI: InChI=1S/C16H22O4/c1-3-5-6-12(4-2)11-20-16(19)14-9-7-13(8-10-14)15(17)18/h7-10,12H,3-6,11H2,1-2H3,(H,17,18)
Instrument: Agilent 6560 QTOF
Instrument type: LC-ESI-QTOF
Ms type: MS2
Ion mode: NEGATIVE
Ionization: ESI
Fragmentation mode: CID
Collision energy: 20 eV
Resolution: 7000
Retention time: 0.152 min
Base peak: 277.1471
Precursor m/z: 277.1445
Precursor type: [M-H]-
Precursor intensity: 214688.69
m/z	relative intensity	assigned
76.0329	338	C6H4-
77.0391	5	C6H5-
120.0224	559	C7H4O2-
121.0305	42	C7H5O2-
134.0357	2	C8H6O2-
233.1561	999	C15H21O2-
277.1453	8	C16H21O4-
