Mass spectrum: RIBOFLAVIN; LC-ESI-QTOF; MS2; CE: 40eV; R=5000; [M+H]+
Name: RIBOFLAVIN
Name: 7,8-dimethyl-10-[(2S,3S,4R)-2,3,4,5-tetrahydroxypentyl]benzo[g]pteridine-2,4-dione
Formula: C17H20N4O6
Exact mass: 376.13828
SMILES: CC1=C(C)C=C2N(C[C@H](O)[C@H](O)[C@H](O)CO)C3=NC(=O)NC(=O)C3=NC2=C1
InChI: InChI=1S/C17H20N4O6/c1-7-3-9-10(4-8(7)2)21(5-11(23)14(25)12(24)6-22)15-13(18-9)16(26)20-17(27)19-15/h3-4,11-12,14,22-25H,5-6H2,1-2H3,(H,20,26,27)/t11-,12+,14-/m0/s1
Instrument: Agilent 6530 QTOF
Instrument type: LC-ESI-QTOF
Ms type: MS2
Ion mode: POSITIVE
Ionization: ESI
Fragmentation mode: CID
Collision energy: 40 eV
Resolution: 5000
Column name: N/A
Retention time: 0.217 min
Base peak: 922.0098
Precursor m/z: 377.1456
Precursor type: [M+H]+
Precursor intensity: 137867
m/z	relative intensity	assigned
40.0999	4	H12N2+
41.039	66	C3H5+
43.0181	175	C2H3O+
45.034	270	C2H5O+
49.1597	1	CH21O+
53.0376	63	C4H5+
55.0544	27	C4H7+
57.0344	162	C3H5O+
61.0276	96	H3N3O+
68.0262	2	C4H4O+
69.0332	174	C4H5O+
81.0332	19	C5H5O+
85.0663	11	C5H9O+
99.0404	42	H7N2O4+
101.9839	3	C2NO4+
103.054	89	C8H7+
104.0467	63	C4H8O3+
117.0685	31	C9H9+
118.0634	50	C5H10O3+
125.0613	7	C7H9O2+
128.0466	30	C6H8O3+
129.0346	9	C9H5O+
130.0621	38	C6H10O3+
131.0658	25	CH11N2O5+
131.1418	1	C6H17N3+
139.0858	1	C7H11N2O+
141.016	17	C4H3N3O3+
141.0631	1	C3H11NO5+
143.0507	79	C10H7O+
144.0637	4	C4H8N4O2+
145.0726	126	C4H9N4O2+
153.0436	40	C10H5N2+
156.0644	47	C5H8N4O2+
157.0734	556	C7H11NO3+
158.0779	34	C4H14O6+
159.0883	32	C5H11N4O2+
161.0722	1	C9H9N2O+
162.0457	2	C13H6+
164.075	7	H12N4O6+
167.1051	2	C8H13N3O+
168.9905	3	C10HO3+
170.0686	101	C7H10N2O3+
172.0843	999	C7H12N2O3+
173.0859	48	C2H13N4O5+
174.0932	15	C11H12NO+
183.09	237	C9H13NO3+
185.0701	48	C11H9N2O+
186.0902	58	C10H10N4+
187.0871	34	C11H11N2O+
189.9782	3	C8NO5+
191.1005	19	C2H15N4O6+
194.0729	1	C14H10O+
197.0827	39	C11H9N4+
198.0636	756	C8H10N2O4+
199.1112	16	C14H15O+
200.0797	170	C8H12N2O4+
201.0958	3	C4H15N3O6+
202.124	3	C13H16NO+
209.0942	39	C13H11N3+
211.0797	24	C5H13N3O6+
211.1422	7	C8H21NO5+
212.0805	65	C9H12N2O4+
213.0927	23	C14H13O2+
214.1106	21	C13H14N2O+
224.1097	15	C6H16N4O5+
225.0752	41	C11H13O5+
226.0391	2	C15H4N3+
228.0867	359	C10H14NO5+
229.0936	249	C8H13N4O4+
230.1039	20	C13H14N2O2+
239.075	34	C9H11N4O4+
243.0862	239	C11H15O6+
244.9884	9	C15HO4+
245.0688	2	C13H11NO4+
245.1136	1	C10H17N2O5+
246.9925	1	C14HNO4+
258.9816	4	C10HN3O6+
260.1419	22	C16H20O3+
268.1033	4	C12H16N2O5+
291.9822	4	C13N4O5+
300.0841	14	C14H12N4O4+
344.0821	1	C16H14N3O6+
