Mass spectrum: Mono(2-ethyl-5-oxohexyl)phthalate; LC-ESI-QTOF; MS2; CE: 15eV; R=7000; [M-H]-
Name: Mono(2-ethyl-5-oxohexyl)phthalate
Name: 2-(2-ethyl-5-oxohexoxy)carbonylbenzoic acid
Formula: C16H20O5
Exact mass: 292.1311
SMILES: CCC(CCC(=O)C)COC(=O)C1=CC=CC=C1C(=O)O
InChI: InChI=1S/C16H20O5/c1-3-12(9-8-11(2)17)10-21-16(20)14-7-5-4-6-13(14)15(18)19/h4-7,12H,3,8-10H2,1-2H3,(H,18,19)
Instrument: Agilent 6560 QTOF
Instrument type: LC-ESI-QTOF
Ms type: MS2
Ion mode: NEGATIVE
Ionization: ESI
Fragmentation mode: CID
Collision energy: 15 eV
Resolution: 7000
Column name: ZORBAX Extend-C18 3.5um, 2.1x50mm, Agilent Technologies
Retention time: 2.670 min
Base peak: 291.1253
Precursor m/z: 291.1238
Precursor type: [M-H]-
Precursor intensity: 159687.44
m/z	relative intensity	assigned
57.0348	34	C3H5O-
69.034	7	C4H5O-
71.051	66	C4H7O-
77.0403	372	C6H5-
81.0703	3	C6H9-
83.0515	4	C5H7O-
99.0817	61	C6H11O-
113.0977	107	C7H13O-
115.1109	6	C7H15O-
119.0508	56	C8H7O-
121.0301	999	C7H5O2-
125.0972	23	C8H13O-
127.0767	3	C7H11O2-
141.0922	3	C8H13O2-
143.1081	303	C8H15O2-
147.0101	4	C8H3O3-
205.1239	5	C13H17O2-
291.1259	8	C16H19O5-
