Mass spectrum: Diisononyl hexahydrophthalate; LC-ESI-QTOF; MS2; CE: 35eV; R=7000; [M+H]+
Name: Diisononyl hexahydrophthalate
Name: bis(7-methyloctyl) cyclohexane-1,2-dicarboxylate
Formula: C26H48O4
Exact mass: 424.3553
SMILES: CC(C)CCCCCCOC(=O)C1CCCCC1C(=O)OCCCCCCC(C)C
InChI: InChI=1S/C26H48O4/c1-21(2)15-9-5-7-13-19-29-25(27)23-17-11-12-18-24(23)26(28)30-20-14-8-6-10-16-22(3)4/h21-24H,5-20H2,1-4H3
Instrument: Agilent 6560 QTOF
Instrument type: LC-ESI-QTOF
Ms type: MS2
Ion mode: POSITIVE
Ionization: ESI
Fragmentation mode: CID
Collision energy: 35 eV
Resolution: 7000
Retention time: 0.114 min
Base peak: 447.3445
Precursor m/z: 425.3625
Precursor type: [M+H]+
Precursor intensity: 36974.85
m/z	relative intensity	assigned
57.0704	518	C4H9+
71.0863	341	C5H11+
79.055	44	C6H7+
81.0697	999	C6H9+
85.1014	58	C6H13+
109.0642	94	C7H9O+
127.0748	93	C7H11O2+
155.0685	25	C8H11O3+
215.0877	13	C17H11+
