Mass spectrum: Mono(2-ethyl-5-hydroxyhexyl) terephthalate; LC-ESI-QTOF; MS2; CE: 30eV; R=7000; [M-H]-
Name: Mono(2-ethyl-5-hydroxyhexyl) terephthalate
Name: 4-(2-ethyl-5-hydroxyhexoxy)carbonylbenzoic acid
Formula: C16H22O5
Exact mass: 294.1467
SMILES: CCC(CCC(C)O)COC(=O)c1ccc(C(=O)O)cc1
InChI: InChI=1S/C16H22O5/c1-3-12(5-4-11(2)17)10-21-16(20)14-8-6-13(7-9-14)15(18)19/h6-9,11-12,17H,3-5,10H2,1-2H3,(H,18,19)
Instrument: Agilent 6560 QTOF
Instrument type: LC-ESI-QTOF
Ms type: MS2
Ion mode: NEGATIVE
Ionization: ESI
Fragmentation mode: CID
Collision energy: 30 eV
Resolution: 7000
Retention time: 0.153 min
Base peak: 293.1417
Precursor m/z: 293.1394
Precursor type: [M-H]-
Precursor intensity: 78262.49
m/z	relative intensity	assigned
76.0312	7	C6H4-
77.0403	999	C6H5-
99.0819	4	C6H11O-
121.0299	298	C7H5O2-
164.0864	4	C10H12O2-
192.1157	4	C12H16O2-
205.1232	7	C13H17O2-
221.1568	20	C14H21O2-
