Mass spectrum: Tris(tert-butylphenyl) phosphate; LC-ESI-QTOF; MS2; CE: 55eV; R=7000; [M+H]+
Name: Tris(tert-butylphenyl) phosphate
Name: tris(2-tert-butylphenyl) phosphate
Formula: C30H39O4P
Exact mass: 494.2586
SMILES: CC(C)(C)C1=CC=CC=C1OP(=O)(OC2=CC=CC=C2C(C)(C)C)OC3=CC=CC=C3C(C)(C)C
InChI: InChI=1S/C30H39O4P/c1-28(2,3)22-16-10-13-19-25(22)32-35(31,33-26-20-14-11-17-23(26)29(4,5)6)34-27-21-15-12-18-24(27)30(7,8)9/h10-21H,1-9H3
Instrument: Agilent 6560 QTOF
Instrument type: LC-ESI-QTOF
Ms type: MS2
Ion mode: POSITIVE
Ionization: ESI
Fragmentation mode: CID
Collision energy: 55 eV
Resolution: 7000
Retention time: 0.113 min
Base peak: 495.2656
Precursor m/z: 495.2659
Precursor type: [M+H]+
Precursor intensity: 52277.83
m/z	relative intensity	assigned
57.0703	999	C4H9+
77.0383	50	C6H5+
151.0529	22	C5H12O3P+
152.061	95	C12H8+
153.069	145	C12H9+
154.073	16	C5H15O3P+
157.0059	13	C6H6O3P+
168.0576	40	C12H8O+
171.0814	17	C12H11O+
215.0251	178	C12H8O2P+
216.0325	12	C12H9O2P+
228.0933	26	C18H12+
229.1015	33	C18H13+
233.0356	93	C12H10O3P+
251.0462	68	C12H12O4P+
327.0777	572	C18H16O4P+
328.0811	77	C18H17O4P+
383.1366	24	C22H24O4P+
