Mass spectrum: 2,4-Di-(2-ethylhexyl) trimellitate ; LC-ESI-QTOF; MS2; CE: 30eV; R=7000; [M-H]-
Name: 2,4-Di-(2-ethylhexyl) trimellitate 
Name: 2,4-bis(2-ethylhexoxycarbonyl)benzoic acid
Formula: C25H38O6
Exact mass: 434.2668
SMILES: CCCCC(CC)COC(=O)c1ccc(C(=O)O)c(C(=O)OCC(CC)CCCC)c1
InChI: InChI=1S/C25H38O6/c1-5-9-11-18(7-3)16-30-24(28)20-13-14-21(23(26)27)22(15-20)25(29)31-17-19(8-4)12-10-6-2/h13-15,18-19H,5-12,16-17H2,1-4H3,(H,26,27)
Instrument: Agilent 6560 QTOF
Instrument type: LC-ESI-QTOF
Ms type: MS2
Ion mode: NEGATIVE
Ionization: ESI
Fragmentation mode: CID
Collision energy: 30 eV
Resolution: 7000
Retention time: 0.148 min
Base peak: 433.262
Precursor m/z: 433.2596
Precursor type: [M-H]-
Precursor intensity: 83127.38
m/z	relative intensity	assigned
76.032	258	C6H4-
105.0338	27	C7H5O-
120.0213	410	C7H4O2-
121.0293	128	C7H5O2-
125.0964	30	C8H13O-
127.1138	208	C8H15O-
133.0292	128	C8H5O2-
134.0368	32	C8H6O2-
149.0252	45	C8H5O3-
176.0109	10	C9H4O4-
177.0197	188	C9H5O4-
187.148	25	C14H19-
203.144	35	C14H19O-
215.1433	235	C15H19O-
216.1471	10	C15H20O-
217.0532	12	C12H9O4-
217.1577	16	C15H21O-
231.1411	25	C15H19O2-
233.1553	999	C15H21O2-
234.1597	46	C15H22O2-
245.0804	12	C14H13O4-
247.1332	12	C15H19O3-
263.1658	25	C16H23O3-
275.1303	10	C16H19O4-
277.1452	111	C16H21O4-
290.1531	207	C17H22O4-
291.1608	24	C17H23O4-
319.2658	42	C21H35O2-
345.2804	35	C23H37O2-
387.2553	24	C24H35O4-
389.2702	53	C24H37O4-
