Mass spectrum: D-lactosyl-beta-1,1 N-octanoyl-D-erythro-sphingosine; LC-ESI-QTOF; MS2; CE: 20eV; R=7000; [M-H]-
Name: D-lactosyl-beta-1,1 N-octanoyl-D-erythro-sphingosine
Name: C8 Lactosyl(beta) Ceramide (d18:1/8:0), D-lactosyl-beta-1,1` N-octanoyl-D-erythro-sphingosine, powder
Name: N-[(E,2S,3R)-1-[(2R,5S,6R)-3,4-dihydroxy-6-(hydroxymethyl)-5-[(2S,5R,6R)-3,4,5-trihydroxy-6-(hydroxymethyl)oxan-2-yl]oxyoxan-2-yl]oxy-3-hydroxyoctadec-4-en-2-yl]octanamide
Formula: C38H71NO13
Exact mass: 749.4925
SMILES: CCCCCCCCCCCCC/C=C/[C@H]([C@H](CO[C@H]1C(C([C@@H]([C@H](O1)CO)O[C@H]2C(C([C@H]([C@H](O2)CO)O)O)O)O)O)NC(=O)CCCCCCC)O
InChI: InChI=1S/C38H71NO13/c1-3-5-7-9-10-11-12-13-14-15-16-18-19-21-27(42)26(39-30(43)22-20-17-8-6-4-2)25-49-37-35(48)33(46)36(29(24-41)51-37)52-38-34(47)32(45)31(44)28(23-40)50-38/h19,21,26-29,31-38,40-42,44-48H,3-18,20,22-25H2,1-2H3,(H,39,43)/b21-19+/t26-,27+,28+,29+,31-,32?,33?,34?,35?,36+,37+,38-/m0/s1
Instrument: Agilent 6560 QTOF
Instrument type: LC-ESI-QTOF
Ms type: MS2
Ion mode: NEGATIVE
Ionization: ESI
Fragmentation mode: CID
Collision energy: 20 eV
Resolution: 7000
Column name: N/A
Retention time: 0.143 min
Base peak: 980.0164
Precursor m/z: 748.4853
Precursor type: [M-H]-
Precursor intensity: 154165
m/z	relative intensity	assigned
71.0132	61	C3H3O2-
73.0285	47	C3H5O2-
83.0131	39	C4H3O2-
89.0248	123	C3H5O3-
90.0492	1	C7H6-
95.0148	14	C5H3O2-
97.028	32	C5H5O2-
101.0241	126	C4H5O3-
103.0066	2	C6HNO-
104.2711	10	C3H36O2-
113.0239	110	C5H5O3-
119.0343	37	C4H7O4-
123.0128	7	C9HN-
124.3735	2	C5H48O-
125.0612	1	C7H9O2-
125.1645	3	C2H23NO4-
131.3973	2	H53NO4-
142.1201	6	C5H18O4-
143.033	31	C6H7O4-
143.0785	2	H15O8-
143.1067	37	C8H15O2-
143.1421	4	C9H19O-
143.2365	2	C8H31O-
143.3689	3	C8H47-
144.1098	13	H18NO7-
144.15	1	C9H20O-
149.046	14	C5H9O5-
153.3412	1	C8H43N-
160.2131	5	C3H30NO5-
161.0455	29	C6H9O5-
162.0459	5	C13H6-
168.1371	3	C7H20O4-
179.5092	1	C7H65NO-
179.5326	1	C4H69NO3-
221.065	9	C8H13O7-
221.1122	1	C5H19NO8-
222.0681	4	H16NO12-
236.0804	5	C8H14NO7-
248.971	31	C3H5O13-
249.0166	1	C15H5O4-
262.3373	1	C6H48NO8-
262.48	4	C7H66O7-
263.0731	16	C20H9N-
264.0822	4	C20H10N-
269.3088	2	C18H39N-
275.3359	5	C11H47O6-
307.3559	4	C4H53NO12-
323.0939	8	C22H13NO2-
331.0246	2	C19H7O6-
376.3713	6	C26H48O-
418.3653	6	C24H50O5-
424.3105	10	C14H48O13-
424.3784	127	C26H50NO3-
425.3784	3	C15H55NO11-
433.5213	2	C25H69O4-
440.1243	2	C27H20O6-
442.3165	7	C32H42O-
442.3349	2	C32H42O-
460.3342	3	C17H50NO12-
533.1526	6	C25H27NO12-
534.3646	6	C27H52NO9-
551.0309	2	C32H9NO9-
568.4217	102	C32H58NO7-
569.4205	9	C36H57O5-
586.4328	191	C32H60NO8-
587.4365	36	C29H63O11-
588.4587	4	C33H64O8-
628.4316	10	C38H60O7-
628.4733	5	C32H68O11-
629.441	13	C38H61O7-
748.4866	999	C38H70NO13-
