Mass spectrum: URIDINEMONOPHOSPHATE; LC-ESI-QTOF; MS2; CE: 40eV; R=5000; [M+H]+
Name: URIDINEMONOPHOSPHATE
Name: Uridine-5`-monophosphate
Name: [(2R,3S,4R,5R)-5-(2,4-dioxopyrimidin-1-yl)-3,4-dihydroxyoxolan-2-yl]methyl dihydrogen phosphate
Formula: C9H13N2O9P
Exact mass: 324.0359
SMILES: O[C@H]1[C@@H](O)[C@@H](O[C@@H]1COP(O)(O)=O)N1C=CC(=O)NC1=O
InChI: InChI=1S/C9H13N2O9P/c12-5-1-2-11(9(15)10-5)8-7(14)6(13)4(20-8)3-19-21(16,17)18/h1-2,4,6-8,13-14H,3H2,(H,10,12,15)(H2,16,17,18)/t4-,6-,7-,8-/m1/s1
Instrument: Agilent 6530 QTOF
Instrument type: LC-ESI-QTOF
Ms type: MS2
Ion mode: POSITIVE
Ionization: ESI
Fragmentation mode: CID
Collision energy: 40 eV
Resolution: 5000
Column name: N/A
Retention time: 0.321 min
Base peak: 121.0508
Precursor m/z: 325.0431
Precursor type: [M+H]+
Precursor intensity: 42549
m/z	relative intensity	assigned
45.9917	6	NO2+
67.0502	15	H7N2O2+
69.0337	358	H8NOP+
70.0864	6	CH12NO2+
80.9732	17	H2O3P+
97.0287	999	CH8NO2P+
101.0099	6	C3H3NO3+
101.0265	4	C3H6N2P+
109.049	20	C3H9O4+
113.0366	228	C2H10O3P+
167.0493	14	C8H10NOP+
174.9252	11	O9P+
