Mass spectrum: Deoxycorticosterone acetate; LC-ESI-QTOF; MS2; CE: 20eV; R=7000; [M+H]+
Name: Deoxycorticosterone acetate
Name: Percorten
Name: [2-(10,13-dimethyl-3-oxo-1,2,6,7,8,9,11,12,14,15,16,17-dodecahydrocyclopenta[a]phenanthren-17-yl)-2-oxoethyl] acetate
Formula: C23H32O4
Exact mass: 372.2301
SMILES: CC(=O)OCC(=O)C1CCC2C1(CCC3C2CCC4=CC(=O)CCC34C)C
InChI: InChI=1S/C23H32O4/c1-14(24)27-13-21(26)20-7-6-18-17-5-4-15-12-16(25)8-10-22(15,2)19(17)9-11-23(18,20)3/h12,17-20H,4-11,13H2,1-3H3
Instrument: Agilent 6560 QTOF
Instrument type: LC-ESI-QTOF
Ms type: MS2
Ion mode: POSITIVE
Ionization: ESI
Fragmentation mode: CID
Collision energy: 20 eV
Resolution: 7000
Column name: Direct injection
Retention time: 0.180 min
Base peak: 415.2126
Precursor m/z: 373.2373
Precursor type: [M+H]+
Precursor intensity: 230367
m/z	relative intensity	assigned
79.0552	26	C6H7+
81.0338	8	C5H5O+
83.049	48	C5H7O+
93.0706	30	C7H9+
95.0855	26	C7H11+
97.0648	999	C6H9O+
99.0418	3	C5H7O2+
101.0589	7	C5H9O2+
105.0698	26	C8H9+
107.049	7	C7H7O+
107.0848	21	C8H11+
109.0648	781	C7H9O+
111.0798	11	C7H11O+
117.0673	2	C9H9+
119.0849	30	C9H11+
123.0812	106	C8H11O+
131.0858	46	C10H11+
133.0986	11	C10H13+
135.0797	2	C9H11O+
135.1141	3	C10H15+
137.0955	5	C9H13O+
139.0198	9	C10H3O+
141.0672	2	C11H9+
142.0761	5	C11H10+
145.1007	25	C11H13+
147.1159	10	C11H15+
149.0957	13	C10H13O+
149.1297	12	C11H17+
153.0713	9	C12H9+
153.0902	18	C9H13O2+
155.0845	8	C12H11+
157.0995	28	C12H13+
159.1161	14	C12H15+
161.1338	33	C12H17+
169.0981	10	C13H13+
171.0826	6	C12H11O+
171.1179	30	C13H15+
173.0956	4	C12H13O+
174.1427	3	C13H18+
175.1467	4	C13H19+
177.1279	36	C12H17O+
179.1076	3	C11H15O2+
183.1163	13	C14H15+
185.1292	7	C14H17+
187.1122	18	C13H15O+
187.1502	10	C14H19+
189.1285	21	C13H17O+
191.1418	9	C13H19O+
193.066	4	C14H9O+
195.084	9	C14H11O+
195.1144	16	C15H15+
197.1304	2	C15H17+
199.1135	4	C14H15O+
199.148	16	C15H19+
201.1288	40	C14H17O+
203.1421	15	C14H19O+
204.1473	4	C14H20O+
205.1589	16	C14H21O+
209.1505	4	C13H21O2+
210.0642	2	C14H10O2+
211.1482	21	C16H19+
212.151	7	C16H20+
213.1299	9	C15H17O+
213.1638	31	C16H21+
214.1698	11	C16H22+
217.155	7	C15H21O+
221.135	7	C17H17+
223.1443	3	C17H19+
225.1646	16	C17H21+
227.142	3	C16H19O+
228.1823	6	C17H24+
231.1728	6	C16H23O+
233.1288	11	C18H17+
235.1517	7	C18H19+
237.1609	25	C18H21+
239.144	9	C17H19O+
239.1758	32	C18H23+
241.1585	3	C17H21O+
243.1767	13	C17H23O+
243.2104	4	C18H27+
245.1908	5	C17H25O+
246.1883	1	C13H26O4+
251.1778	8	C19H23+
253.163	3	C18H21O+
253.1958	42	C19H25+
254.1998	2	C19H26+
255.1733	6	C18H23O+
256.1703	4	C14H24O4+
265.197	12	C20H25+
269.0005	3	C21HO+
269.1909	6	C19H25O+
271.1386	7	C17H19O3+
271.1643	4	C18H23O2+
271.2062	38	C19H27O+
272.2099	6	C19H28O+
277.1935	38	C21H25+
278.1984	8	C21H26+
283.2044	8	C20H27O+
295.2065	61	C21H27O+
295.9962	3	C22O2+
296.2118	4	C21H28O+
298.1899	1	C20H26O2+
313.2163	55	C21H29O2+
315.192	8	C20H27O3+
317.1782	1	C19H25O4+
331.2262	109	C21H31O3+
332.2292	13	C21H32O3+
355.2245	8	C23H31O3+
373.2373	98	C23H33O4+
