Mass spectrum: Mono-2-(propyl-6-oxoheptyl)-phthalate; LC-ESI-QTOF; MS2; CE: 30eV; R=7000; [M-H]-
Name: Mono-2-(propyl-6-oxoheptyl)-phthalate
Name: 2-(((6-Oxo-2-propylheptyl)oxy)carbonyl)benzoic Acid
Name: 2-(6-oxo-2-propylheptoxy)carbonylbenzoic acid
Formula: C18H24O5
Exact mass: 320.1624
SMILES: CCCC(CCCC(C)=O)COC(=O)c1ccccc1C(=O)O
InChI: InChI=1S/C18H24O5/c1-3-7-14(9-6-8-13(2)19)12-23-18(22)16-11-5-4-10-15(16)17(20)21/h4-5,10-11,14H,3,6-9,12H2,1-2H3,(H,20,21)
Instrument: Agilent 6560 QTOF
Instrument type: LC-ESI-QTOF
Ms type: MS2
Ion mode: NEGATIVE
Ionization: ESI
Fragmentation mode: CID
Collision energy: 30 eV
Resolution: 7000
Column name: ZORBAX Extend-C18 3.5um, 2.1x50mm, Agilent Technologies
Retention time: 3.945 min
Base peak: 319.1563
Precursor m/z: 319.1551
Precursor type: [M-H]-
Precursor intensity: 91719.32
m/z	relative intensity	assigned
57.0351	108	C3H5O-
59.015	5	C2H3O2-
69.0347	17	C4H5O-
71.0504	8	C4H7O-
75.0246	30	C6H3-
77.0402	999	C6H5-
85.0676	14	C5H9O-
99.081	20	C6H11O-
119.0506	29	C8H7O-
121.0299	658	C7H5O2-
123.0835	16	C8H11O-
125.0966	38	C8H13O-
127.1126	27	C8H15O-
141.1298	29	C9H17O-
147.0089	14	C8H3O3-
151.1119	19	C10H15O-
169.1207	6	C10H17O2-
171.1392	11	C10H19O2-
