Mass spectrum: CL 14_1_14_1_14_1_15_1; LC-ESI-QTOF; MS2; CE: 10eV; R=7000; [M-H]-
Name: CL 14_1_14_1_14_1_15_1
Name: 1`-[1,2-di-(9Z-tetradecenoyl)-sn-glycero-3-phospho],3`-[1-(9Z-tetradecenoyl),2-(10Z-pentadecenoyl)-sn-glycero-3-phospho]-rac-glycerol
Name: [(2R)-1-[[3-[[(2R)-2,3-bis[[(Z)-tetradec-9-enoyl]oxy]propoxy]-hydroxyphosphoryl]oxy-2-hydroxypropoxy]-hydroxyphosphoryl]oxy-3-[(Z)-tetradec-9-enoyl]oxypropan-2-yl] (Z)-pentadec-10-enoate
Formula: C66H120O17P2
Exact mass: 1246.8001
SMILES: P(OC[C@]([H])(OC(CCCCCCC/C=C\CCCC)=O)COC(CCCCCCC/C=C\CCCC)=O)(O)(OCC(O)([H])COP(OC[C@]([H])(OC(CCCCCCCC/C=C\CCCC)=O)COC(CCCCCCC/C=C\CCCC)=O)(O)=O)=O
InChI: InChI=1S/C66H120O17P2/c1-5-9-13-17-21-25-29-33-37-41-45-49-53-66(71)83-62(57-77-64(69)51-47-43-39-35-31-27-23-19-15-11-7-3)59-81-85(74,75)79-55-60(67)54-78-84(72,73)80-58-61(82-65(70)52-48-44-40-36-32-28-24-20-16-12-8-4)56-76-63(68)50-46-42-38-34-30-26-22-18-14-10-6-2/h17-24,60-62,67H,5-16,25-59H2,1-4H3,(H,72,73)(H,74,75)/b21-17-,22-18-,23-19-,24-20-/t60?,61-,62-/m1/s1
Instrument: Agilent 6560 QTOF
Instrument type: LC-ESI-QTOF
Ms type: MS2
Ion mode: NEGATIVE
Ionization: ESI
Fragmentation mode: CID
Collision energy: 10 eV
Resolution: 7000
Column name: N/A
Retention time: 0.244 min
Base peak: 980.0164
Precursor m/z: 1245.7928
Precursor type: [M-H]-
Precursor intensity: 36657
m/z	relative intensity	assigned
122.3025	13	H42O5-
134.5198	34	H71O2P-
134.5399	15	C4H70O-
144.8076	52	C2H104O-
144.8464	8	C3H108-
176.4135	10	C6H57OP-
371.0724	15	C5H25O14P2-
404.9488	8	C5H11O17P2-
428.4227	48	C27H56O3-
428.4692	8	C7H73O15P-
447.2761	15	C5H53O17P2-
468.9889	16	C21H11O9P2-
477.4396	9	C10H70O16P-
540.2383	19	C16H45O17P-
541.9865	11	C16H16O17P2-
553.9621	28	C34H3O7P-
601.3973	13	C43H54P-
626.7579	22	C33H102O8-
820.2311	5	C52H36O10-
849.2895	9	C44H50O15P-
924.1606	28	C53H33O14P-
935.1263	13	C64H24O7P-
949.3914	26	C47H67O16P2-
986.9774	15	C63H8O12P-
1070.7519	41	C56H112O14P2-
1092.3826	13	C59H66O16P2-
1110.3885	29	C66H64O12P2-
1202.5468	12	C65H88O17P2-
1245.7892	999	C66H119O17P2-
