Mass spectrum: Tri-m-tolyl phosphate; LC-ESI-QTOF; MS2; CE: 15eV; R=7000; [M+H]+
Name: Tri-m-tolyl phosphate
Name: Tri-M-cresyl phosphate
Name: tris(3-methylphenyl) phosphate
Formula: C21H21O4P
Exact mass: 368.1177
SMILES: CC1=CC(=CC=C1)OP(=O)(OC2=CC=CC(=C2)C)OC3=CC=CC(=C3)C
InChI: InChI=1S/C21H21O4P/c1-16-7-4-10-19(13-16)23-26(22,24-20-11-5-8-17(2)14-20)25-21-12-6-9-18(3)15-21/h4-15H,1-3H3
Instrument: Agilent 6560 QTOF
Instrument type: LC-ESI-QTOF
Ms type: MS2
Ion mode: POSITIVE
Ionization: ESI
Fragmentation mode: CID
Collision energy: 15 eV
Resolution: 7000
Retention time: 0.109 min
Base peak: 369.1255
Precursor m/z: 369.125
Precursor type: [M+H]+
Precursor intensity: 384225.18
m/z	relative intensity	assigned
65.0382	4	C5H5+
79.0549	1	C6H7+
91.0544	27	C7H7+
105.0691	1	C8H9+
107.0496	4	C7H7O+
109.0639	3	H14O4P+
141.0697	1	C11H9+
153.009	2	C7H6O2P+
153.069	4	C12H9+
165.0694	38	C13H9+
166.0772	67	C13H10+
167.08	7	C6H16O3P+
169.0035	1	C7H6O3P+
178.0764	2	C7H15O3P+
179.0845	11	C14H11+
180.0925	3	C14H12+
181.1011	23	C14H13+
182.1052	1	C7H19O3P+
187.0158	1	C7H8O4P+
189.0315	10	C7H10O4P+
195.0794	1	C14H11O+
196.0891	6	C14H12O+
197.0939	1	C7H18O4P+
199.1119	4	C14H15O+
215.0622	1	C13H12OP+
241.1022	6	C19H13+
243.0566	44	C14H12O2P+
244.0601	4	C14H13O2P+
255.118	1	C20H15+
256.1258	15	C20H16+
257.1259	2	C13H22O3P+
261.0672	34	C14H14O3P+
262.0728	1	C14H15O3P+
271.1485	3	C21H19+
279.0788	19	C14H16O4P+
280.0812	3	C14H17O4P+
333.1075	1	C21H18O2P+
351.1152	5	C21H20O3P+
369.125	999	C21H22O4P+
