Mass spectrum: GUANOSINE; LC-ESI-QTOF; MS2; CE: 20eV; R=5000; [M+H]+
Name: GUANOSINE
Name: CID 6802
Name: 2-amino-9-[(2R,3R,4S,5R)-3,4-dihydroxy-5-(hydroxymethyl)oxolan-2-yl]-3H-purin-6-one
Formula: C10H13N5O5
Exact mass: 283.09167
SMILES: NC1=NC2=C(N=CN2[C@@H]2O[C@H](CO)[C@@H](O)[C@H]2O)C(=O)N1
InChI: InChI=1S/C10H13N5O5/c11-10-13-7-4(8(19)14-10)12-2-15(7)9-6(18)5(17)3(1-16)20-9/h2-3,5-6,9,16-18H,1H2,(H3,11,13,14,19)/t3-,5-,6-,9-/m1/s1
Instrument: Agilent 6530 QTOF
Instrument type: LC-ESI-QTOF
Ms type: MS2
Ion mode: POSITIVE
Ionization: ESI
Fragmentation mode: CID
Collision energy: 20 eV
Resolution: 5000
Column name: N/A
Retention time: 0.218 min
Base peak: 306.0806
Precursor m/z: 284.0989
Precursor type: [M+H]+
Precursor intensity: 124781
m/z	relative intensity	assigned
41.0376	4	C3H5+
43.0281	2	CH3N2+
55.0185	5	C3H3O+
57.0314	8	CH3N3+
82.0362	2	H6N2O3+
109.0463	14	CH7N3O3+
110.0321	27	CH6N2O4+
110.1078	1	C8H14+
135.0266	131	C2H5N3O4+
136.0626	1	C7H8N2O+
152.0535	999	C2H8N4O4+
153.0606	10	C2H9N4O4+
184.1216	1	C7H14N5O+
