Mass spectrum: Retinoic acid; LC-ESI-QTOF; MS2; CE: 10eV; R=7000; [M-H]-
Name: Retinoic acid
Name: Tretinoin
Name: (2E,4E,6E,8E)-3,7-dimethyl-9-(2,6,6-trimethylcyclohexen-1-yl)nona-2,4,6,8-tetraenoic acid
Formula: C20H28O2
Exact mass: 300.2089
SMILES: C\C(\C=C\C1=C(C)CCCC1(C)C)=C/C=C/C(/C)=C/C(O)=O
InChI: InChI=1S/C20H28O2/c1-15(8-6-9-16(2)14-19(21)22)11-12-18-17(3)10-7-13-20(18,4)5/h6,8-9,11-12,14H,7,10,13H2,1-5H3,(H,21,22)/b9-6+,12-11+,15-8+,16-14+
Instrument: Agilent 6560 QTOF
Instrument type: LC-ESI-QTOF
Ms type: MS2
Ion mode: NEGATIVE
Ionization: ESI
Fragmentation mode: CID
Collision energy: 10 eV
Resolution: 7000
Column name: N/A
Retention time: 0.167 min
Base peak: 255.2335
Precursor m/z: 299.2017
Precursor type: [M-H]-
Precursor intensity: 64738
m/z	relative intensity	assigned
79.0556	12	C6H7-
81.0714	30	C6H9-
97.0271	12	C5H5O2-
119.0861	85	C9H11-
175.0777	35	C11H11O2-
217.1201	12	C14H17O2-
225.0895	25	C15H13O2-
239.1812	8	C18H23-
255.2118	999	C19H27-
299.2017	316	C20H27O2-
