Mass spectrum: 1-octadecanoyl-sn-glycero-3-phosphocholine; LC-ESI-QTOF; MS2; CE: 40eV; R=7000; [M+Na]+
Name: 1-octadecanoyl-sn-glycero-3-phosphocholine
Name: [(2R)-2-hydroxy-3-octadecanoyloxypropyl] 2-(trimethylazaniumyl)ethyl phosphate
Formula: C26H54NO7P
Exact mass: 523.3638
SMILES: CCCCCCCCCCCCCCCCCC(=O)OC[C@H](COP(=O)([O-])OCC[N+](C)(C)C)O
InChI: InChI=1S/C26H54NO7P/c1-5-6-7-8-9-10-11-12-13-14-15-16-17-18-19-20-26(29)32-23-25(28)24-34-35(30,31)33-22-21-27(2,3)4/h25,28H,5-24H2,1-4H3/t25-/m1/s1
Instrument: Agilent 6560 QTOF
Instrument type: LC-ESI-QTOF
Ms type: MS2
Ion mode: POSITIVE
Ionization: ESI
Fragmentation mode: CID
Collision energy: 40 eV
Resolution: 7000
Column name: Direct injection
Retention time: 0.213 min
Base peak: 524.3724
Precursor m/z: 546.353
Precursor type: [M+Na]+
Precursor intensity: 54106
m/z	relative intensity	assigned
71.0724	32	C4H9N+
71.0859	127	CH14NP+
73.0266	11	CH6NaO2+
83.0859	61	C2H14NP+
85.0999	19	H17NNaP+
86.0971	293	C5H12N+
87.3168	7	CH44P+
95.0841	14	CH15NNaP+
97.0637	15	H13NNaOP+
97.1018	40	C3H16NP+
103.0748	11	C5H11O2+
104.1071	999	C5H14NO+
105.1096	15	H18NaO4+
105.145	6	CH22NaO3+
109.1011	19	C8H13+
117.0928	6	C2H16NO2P+
146.9812	215	C2H5NaO4P+
147.9871	7	C3H2NO6+
162.1265	11	C4H21NO3P+
221.0207	19	C12H6NaO3+
285.2819	7	C9H42NaO7+
341.3029	163	C15H45NNaO3P+
342.31	11	C19H43NaO3+
443.2546	9	C23H40O6P+
487.2753	53	C23H45NaO7P+
488.2918	8	C26H44NNaO4P+
