Mass spectrum: Inosine; LC-ESI-QTOF; MS2; CE: 10eV; R=5000; [M+Na]+
Name: Inosine
Name: CID 6021
Name: 9-[(2R,3R,4S,5R)-3,4-dihydroxy-5-(hydroxymethyl)oxolan-2-yl]-3H-purin-6-one
Formula: C10H12N4O5
Exact mass: 268.0808
SMILES: C1=NC2=C(C(=O)N1)N=CN2[C@H]3[C@@H]([C@@H]([C@H](O3)CO)O)O
InChI: InChI=1S/C10H12N4O5/c15-1-4-6(16)7(17)10(19-4)14-3-13-5-8(14)11-2-12-9(5)18/h2-4,6-7,10,15-17H,1H2,(H,11,12,18)/t4-,6-,7-,10-/m1/s1
Instrument: Agilent 6530 QTOF
Instrument type: LC-ESI-QTOF
Ms type: MS2
Ion mode: POSITIVE
Ionization: ESI
Fragmentation mode: CID
Collision energy: 10 eV
Resolution: 5000
Column name: N/A
Retention time: 0.216 min
Base peak: 137.0455
Precursor m/z: 291.07
Precursor type: [M+Na]+
Precursor intensity: 413426
m/z	relative intensity	assigned
57.0688	1	C4H9+
85.027	1	C2H3N3O+
113.0595	1	C6H9O2+
159.0311	999	C9H5NO2+
160.0349	5	C4H6N3O4+
291.0763	255	C10H12N4NaO5+
