Mass spectrum: CYSTINE; LC-ESI-QTOF; MS2; CE: 10eV; R=5000; [M+H]+
Name: CYSTINE
Name: L-cystine
Name: (2R)-2-amino-3-[[(2R)-2-amino-2-carboxyethyl]disulfanyl]propanoic acid
Formula: C6H12N2O4S2
Exact mass: 240.0238
SMILES: N[C@@H](CSSC[C@H](N)C(O)=O)C(O)=O
InChI: InChI=1S/C6H12N2O4S2/c7-3(5(9)10)1-13-14-2-4(8)6(11)12/h3-4H,1-2,7-8H2,(H,9,10)(H,11,12)/t3-,4-/m0/s1
Instrument: Agilent 6530 QTOF
Instrument type: LC-ESI-QTOF
Ms type: MS2
Ion mode: POSITIVE
Ionization: ESI
Fragmentation mode: CID
Collision energy: 10 eV
Resolution: 5000
Column name: N/A
Retention time: 0.217 min
Base peak: 121.0508
Precursor m/z: 241.0311
Precursor type: [M+H]+
Precursor intensity: 244404
m/z	relative intensity	assigned
42.0339	12	C2H4N+
55.018	12	C3H3O+
74.0243	705	C2H4NO2+
88.0395	18	C3H6NO2+
89.0456	12	CH13S2+
96.0783	22	C3H12O3+
105.0006	33	C3H5O2S+
105.9772	10	C2H4NS2+
120.0137	793	H10NO2S2+
122.028	418	C3H8NO2S+
123.0295	2	C4H11S2+
136.9693	11	C6HO2S+
137.0362	12	C6H5N2O2+
148.0494	2	C4H8N2O4+
151.9855	999	C5N2O4+
153.9996	96	C3H8NO2S2+
163.9842	12	C4H6NO2S2+
170.9946	3	C6H5NO3S+
171.036	1	C4H13NO2S2+
178.0019	54	C4H6N2O4S+
181.9936	11	C4H8NO3S2+
195.0274	122	C5H11N2O2S2+
205.9902	8	C6H8NO3S2+
224.005	21	C6H10NO4S2+
241.0357	619	C6H13N2O4S2+
