Mass spectrum: 2-Aminobenzothiazole; LC-ESI-QTOF; MS2; CE: 55eV; R=7000; [M+H]+
Name: 2-Aminobenzothiazole
Name: 1,3-benzothiazol-2-amine
Formula: C7H6N2S
Exact mass: 150.0252
SMILES: C1=CC=C2C(=C1)N=C(S2)N
InChI: InChI=1S/C7H6N2S/c8-7-9-5-3-1-2-4-6(5)10-7/h1-4H,(H2,8,9)
Instrument: Agilent 6560 QTOF
Instrument type: LC-ESI-QTOF
Ms type: MS2
Ion mode: POSITIVE
Ionization: ESI
Fragmentation mode: CID
Collision energy: 55 eV
Resolution: 7000
Retention time: 0.148 min
Base peak: 151.0329
Precursor m/z: 151.0324
Precursor type: [M+H]+
Precursor intensity: 148165.95
m/z	relative intensity	assigned
51.0235	143	C4H3+
53.0391	131	C4H5+
58.9954	7	C2H3S+
59.9903	25	CH2NS+
62.0153	25	C5H2+
63.0233	120	C5H3+
64.0185	119	C4H2N+
64.0293	42	C5H4+
65.0388	999	C5H5+
66.0449	11	C5H6+
67.0406	14	C4H5N+
67.9714	11	C3S+
68.9795	437	C3HS+
69.9874	13	C3H2S+
70.9934	15	C3H3S+
74.0138	7	C6H2+
75.0217	5	C6H3+
77.0387	205	C6H5+
80.0495	217	C5H6N+
80.9802	11	C4HS+
81.9876	20	C4H2S+
82.9938	9	C4H3S+
90.0339	44	C6H4N+
91.0418	44	C6H5N+
92.0489	9	C6H6N+
92.9789	19	C5HS+
93.9755	5	C4NS+
94.9943	7	C5H3S+
96.0025	21	C5H4S+
97.0113	18	C5H5S+
106.9955	6	C6H3S+
108.0029	59	C6H4S+
109.0104	113	C6H5S+
118.0512	15	C7H6N2+
122.005	5	C6H4NS+
124.0212	6	C6H6NS+
