Mass spectrum: Kynurenate; LC-ESI-QTOF; MS2; CE: 10eV; R=5000; [M+H]+
Name: Kynurenate
Name: Kynurenic acid
Name: 4-oxo-1H-quinoline-2-carboxylic acid
Formula: C10H7NO3
Exact mass: 189.0426
SMILES: OC(=O)C1=CC(=O)C2=CC=CC=C2N1
InChI: InChI=1S/C10H7NO3/c12-9-5-8(10(13)14)11-7-4-2-1-3-6(7)9/h1-5H,(H,11,12)(H,13,14)
Instrument: Agilent 6530 QTOF
Instrument type: LC-ESI-QTOF
Ms type: MS2
Ion mode: POSITIVE
Ionization: ESI
Fragmentation mode: CID
Collision energy: 10 eV
Resolution: 5000
Column name: N/A
Retention time: 0.253 min
Base peak: 121.0508
Precursor m/z: 190.0499
Precursor type: [M+H]+
Precursor intensity: 160804
m/z	relative intensity	assigned
89.0384	41	C7H5+
108.0219	1	C6H4O2+
109.0065	9	C9H+
116.0482	65	C8H6N+
144.0432	999	C9H6NO+
172.0372	183	C10H6NO2+
173.0481	5	C10H7NO2+
190.0494	197	C10H8NO3+
