Mass spectrum: 3-Hydroxyphenyl diphenyl phosphate ; LC-ESI-QTOF; MS2; CE: 10eV; R=7000; [M+H]+
Name: 3-Hydroxyphenyl diphenyl phosphate 
Name: 3-(Diphenoxyphosphinyloxy)phenol
Name: (3-hydroxyphenyl) diphenyl phosphate
Formula: C18H15O5P
Exact mass: 342.0657
SMILES: C1=CC=C(C=C1)OP(=O)(OC2=CC=CC=C2)OC3=CC=CC(=C3)O
InChI: InChI=1S/C18H15O5P/c19-15-8-7-13-18(14-15)23-24(20,21-16-9-3-1-4-10-16)22-17-11-5-2-6-12-17/h1-14,19H
Instrument: Agilent 6560 QTOF
Instrument type: LC-ESI-QTOF
Ms type: MS2
Ion mode: POSITIVE
Ionization: ESI
Fragmentation mode: CID
Collision energy: 10 eV
Resolution: 7000
Retention time: 0.114 min
Base peak: 343.0736
Precursor m/z: 343.073
Precursor type: [M+H]+
Precursor intensity: 146964.07
m/z	relative intensity	assigned
65.0388	10	C5H5+
77.0387	8	C6H5+
93.0331	7	C6H5O+
95.0505	2	C6H7O+
111.0458	2	C6H7O2+
115.0528	1	C2H12O3P+
141.0695	15	C11H9+
152.0624	1	C12H8+
153.0699	7	C12H9+
168.0562	2	C12H8O+
169.0636	6	C12H9O+
184.0501	1	C5H13O5P+
215.025	4	C12H8O2P+
226.0785	1	C18H10+
227.0823	3	C11H16O3P+
231.021	15	C12H8O3P+
233.0365	5	C12H10O3P+
249.0316	10	C12H10O4P+
251.0469	10	C12H12O4P+
267.0437	3	C12H12O5P+
307.0522	1	C18H12O3P+
325.0633	3	C18H14O4P+
343.0737	999	C18H16O5P+
