Mass spectrum: 1,2-Dipalmitoyl-rac-glycerol; LC-ESI-QTOF; MS2; CE: 20eV; R=7000; [M+Na]+
Name: 1,2-Dipalmitoyl-rac-glycerol
Name: 1,2-Dipalmitoyl-sn-glycerol
Name: [(2S)-2-hexadecanoyloxy-3-hydroxypropyl] hexadecanoate
Formula: C35H68O5
Exact mass: 568.5067
SMILES: [H][C@](CO)(COC(=O)CCCCCCCCCCCCCCC)OC(=O)CCCCCCCCCCCCCCC
InChI: InChI=1S/C35H68O5/c1-3-5-7-9-11-13-15-17-19-21-23-25-27-29-34(37)39-32-33(31-36)40-35(38)30-28-26-24-22-20-18-16-14-12-10-8-6-4-2/h33,36H,3-32H2,1-2H3/t33-/m0/s1
Instrument: Agilent 6560 QTOF
Instrument type: LC-ESI-QTOF
Ms type: MS2
Ion mode: POSITIVE
Ionization: ESI
Fragmentation mode: CID
Collision energy: 20 eV
Resolution: 7000
Column name: Direct injection
Retention time: 0.151 min
Base peak: 591.4981
Precursor m/z: 591.4959
Precursor type: [M+Na]+
Precursor intensity: 141036
m/z	relative intensity	assigned
71.0854	4	C5H11+
83.0828	4	C4H12Na+
85.0992	3	C4H14Na+
97.1014	4	C7H13+
109.1015	3	C8H13+
123.1167	4	C9H15+
279.2331	2	C18H31O2+
280.2326	1	C16H33NaO2+
313.274	19	C19H37O3+
314.2741	6	C17H39NaO3+
335.2541	10	C19H36NaO3+
336.341	1	C23H44O+
364.227	6	C21H32O5+
488.4039	4	C35H52O+
535.157	2	C34H24NaO5+
591.497	999	C35H68NaO5+
