Mass spectrum: beta-Carotene; LC-ESI-QTOF; MS2; CE: 40eV; R=7000; [M]+
Name: beta-Carotene
Name: 1,3,3-trimethyl-2-[(1E,3E,5E,7E,9E,11E,13E,15E,17E)-3,7,12,16-tetramethyl-18-(2,6,6-trimethylcyclohexen-1-yl)octadeca-1,3,5,7,9,11,13,15,17-nonaenyl]cyclohexene
Formula: C40H56
Exact mass: 536.4382
SMILES: CC1=C(C(CCC1)(C)C)/C=C/C(=C/C=C/C(=C/C=C/C=C(/C=C/C=C(/C=C/C2=C(CCCC2(C)C)C)\C)\C)/C)/C
InChI: InChI=1S/C40H56/c1-31(19-13-21-33(3)25-27-37-35(5)23-15-29-39(37,7)8)17-11-12-18-32(2)20-14-22-34(4)26-28-38-36(6)24-16-30-40(38,9)10/h11-14,17-22,25-28H,15-16,23-24,29-30H2,1-10H3/b12-11+,19-13+,20-14+,27-25+,28-26+,31-17+,32-18+,33-21+,34-22+
Instrument: Agilent 6560 QTOF
Instrument type: LC-ESI-QTOF
Ms type: MS2
Ion mode: POSITIVE
Ionization: ESI
Fragmentation mode: CID
Collision energy: 40 eV
Resolution: 7000
Column name: Direct injection
Retention time: 0.321 min
Base peak: 647.4611
Precursor m/z: 536.4377
Precursor type: [M]+
Precursor intensity: 24324
m/z	relative intensity	assigned
81.0716	512	C6H9+
83.0856	223	C6H11+
93.0688	254	C7H9+
95.0858	712	C7H11+
107.0836	251	C8H11+
109.1021	40	C8H13+
119.0838	999	C9H11+
120.0905	200	C9H12+
121.0996	181	C9H13+
131.0835	547	C10H11+
133.0995	231	C10H13+
135.1157	119	C10H15+
143.0859	723	C11H11+
145.1011	408	C11H13+
153.0706	120	C12H9+
157.0983	194	C12H13+
159.116	366	C12H15+
161.1305	460	C12H17+
165.0663	373	C13H9+
166.0788	108	C13H10+
169.0979	127	C13H13+
171.115	265	C13H15+
173.1316	390	C13H17+
177.1654	112	C13H21+
178.0733	217	C14H10+
181.1026	41	C14H13+
183.1168	140	C14H15+
188.1513	110	C14H20+
195.116	143	C15H15+
197.1327	190	C15H17+
209.1327	175	C16H17+
211.1457	226	C16H19+
215.1771	48	C16H23+
241.1929	93	C18H25+
247.1431	59	C19H19+
254.2042	78	C19H26+
287.1813	58	C22H23+
300.1804	165	C23H24+
303.2084	115	C23H27+
321.2556	155	C24H33+
