Mass spectrum: 1-octadecanoyl-sn-glycero-3-phosphocholine; LC-ESI-QTOF; MS2; CE: 20eV; R=7000; [M+H]+
Name: 1-octadecanoyl-sn-glycero-3-phosphocholine
Name: [(2R)-2-hydroxy-3-octadecanoyloxypropyl] 2-(trimethylazaniumyl)ethyl phosphate
Formula: C26H54NO7P
Exact mass: 523.3638
SMILES: CCCCCCCCCCCCCCCCCC(=O)OC[C@H](COP(=O)([O-])OCC[N+](C)(C)C)O
InChI: InChI=1S/C26H54NO7P/c1-5-6-7-8-9-10-11-12-13-14-15-16-17-18-19-20-26(29)32-23-25(28)24-34-35(30,31)33-22-21-27(2,3)4/h25,28H,5-24H2,1-4H3/t25-/m1/s1
Instrument: Agilent 6560 QTOF
Instrument type: LC-ESI-QTOF
Ms type: MS2
Ion mode: POSITIVE
Ionization: ESI
Fragmentation mode: CID
Collision energy: 20 eV
Resolution: 7000
Column name: Direct injection
Retention time: 0.152 min
Base peak: 524.3728
Precursor m/z: 524.3711
Precursor type: [M+H]+
Precursor intensity: 286506
m/z	relative intensity	assigned
71.074	7	C4H9N+
86.0963	82	C5H12N+
98.9828	1	H4O4P+
104.1072	713	C5H14NO+
124.9987	38	C2H6O4P+
139.0731	2	CH16O5P+
163.0147	2	C5H8O4P+
166.0618	8	C9H10O3+
181.0228	8	C4H7NO7+
184.0734	999	C5H15NO4P+
185.0758	29	C2H18O7P+
192.1388	2	C12H18NO+
258.1089	29	C12H18O6+
308.2959	2	C20H38NO+
317.1243	3	C17H19NO5+
323.1764	5	C18H28O3P+
341.3027	17	C14H46O6P+
342.3096	6	C14H47O6P+
374.9409	1	C22O5P+
506.3611	94	C26H53NO6P+
507.361	9	C26H54NO6P+
524.371	277	C26H55NO7P+
