Mass spectrum: O-PHOSPHOETHANOLAMINE; LC-ESI-QTOF; MS2; CE: 40eV; R=5000; [M+H]+
Name: O-PHOSPHOETHANOLAMINE
Name: 2-aminoethyl dihydrogen phosphate
Formula: C2H8NO4P
Exact mass: 141.0191
SMILES: NCCOP(O)(O)=O
InChI: InChI=1S/C2H8NO4P/c3-1-2-7-8(4,5)6/h1-3H2,(H2,4,5,6)
Instrument: Agilent 6530 QTOF
Instrument type: LC-ESI-QTOF
Ms type: MS2
Ion mode: POSITIVE
Ionization: ESI
Fragmentation mode: CID
Collision energy: 40 eV
Resolution: 5000
Column name: N/A
Retention time: 0.291 min
Base peak: 121.0508
Precursor m/z: 142.0264
Precursor type: [M+H]+
Precursor intensity: 22282
m/z	relative intensity	assigned
44.049	999	C2H6N+
