Mass spectrum: GUANOSINEDIPHOSPHATEMANNOSE; LC-ESI-QTOF; MS2; CE: 40eV; R=5000; [M+H]+
Name: GUANOSINEDIPHOSPHATEMANNOSE
Name: CID 18396
Name: [[(2R,3S,4R,5R)-5-(2-amino-6-oxo-3H-purin-9-yl)-3,4-dihydroxyoxolan-2-yl]methoxy-hydroxyphosphoryl] [(2R,3S,4S,5S,6R)-3,4,5-trihydroxy-6-(hydroxymethyl)oxan-2-yl] hydrogen phosphate
Formula: C16H25N5O16P2
Exact mass: 605.0772
SMILES: NC1=NC2=C(N=CN2[C@@H]2O[C@H](COP(O)(=O)OP(O)(=O)O[C@H]3O[C@H](CO)[C@@H](O)[C@H](O)[C@@H]3O)[C@@H](O)[C@H]2O)C(=O)N1
InChI: InChI=1S/C16H25N5O16P2/c17-16-19-12-6(13(28)20-16)18-3-21(12)14-10(26)8(24)5(34-14)2-33-38(29,30)37-39(31,32)36-15-11(27)9(25)7(23)4(1-22)35-15/h3-5,7-11,14-15,22-27H,1-2H2,(H,29,30)(H,31,32)(H3,17,19,20,28)/t4-,5-,7-,8-,9+,10-,11+,14-,15-/m1/s1
Instrument: Agilent 6530 QTOF
Instrument type: LC-ESI-QTOF
Ms type: MS2
Ion mode: POSITIVE
Ionization: ESI
Fragmentation mode: CID
Collision energy: 40 eV
Resolution: 5000
Column name: N/A
Retention time: 0.359 min
Base peak: 121.0508
Precursor m/z: 606.0844
Precursor type: [M+H]+
Precursor intensity: 25173
m/z	relative intensity	assigned
41.0387	48	C3H5+
65.1208	6	C3H15N+
65.1639	1	H21N2O+
71.0691	66	CH11O3+
71.1301	4	C2H17NO+
87.0527	6	H9NO4+
110.0283	27	C2H10NP2+
110.1673	9	C2H25NOP+
130.9687	1	C3H3NOP2+
134.0464	45	C5H4N5+
135.0271	88	C2H5N3O4+
142.9794	10	C7N2P+
143.0304	2	CH7N2O6+
152.0553	999	C4H10NO5+
153.0623	37	C2H9N4O4+
157.0205	12	C6H9NP2+
162.9353	1	C3HO4P2+
179.9284	8	C2NO5P2+
179.9986	2	H6NO10+
180.9507	9	CN3O6P+
180.9889	2	C2H4N3O5P+
181.0775	2	C10H14OP+
188.1596	3	C5H22N3O4+
211.9695	1	C6N2O7+
217.0011	6	C2H9N3O5P2+
219.0551	18	C14H7N2O+
219.1213	1	C8H17N3O4+
234.9163	31	HN2O9P2+
251.984	13	C13H3NO3P+
252.0521	4	C5H18O7P2+
262.0197	14	C4H11N2O9P+
275.0099	1	C13H8O5P+
283.0726	4	C13H16O5P+
324.9864	3	C7H9N3O8P2+
371.0109	9	C7H10N5O11P+
379.1006	3	C16H17N3O8+
401.9201	11	C5HN5O15P+
402.9989	2	C15H9N4O6P2+
433.9107	6	C15H2NO11P2+
435.995	4	C14H14O12P2+
448.9316	22	C14H3N4O10P2+
453.0391	3	C6H21N3O16P2+
502.9514	2	C13H7N5O13P2+
507.9885	2	C10H14N4O16P2+
546.0851	11	C11H26N5O16P2+
551.8617	5	C16N3O16P2+
