Mass spectrum: L-Carnitine hydrochloride; LC-ESI-QTOF; MS2; CE: 40eV; R=5000; [M+H]+
Name: L-Carnitine hydrochloride
Name: Levocarnitine
Name: (3R)-3-hydroxy-4-(trimethylazaniumyl)butanoate
Formula: C7H15NO3
Exact mass: 161.1052
SMILES: C[N+](C)(C)C[C@@H](CC(=O)[O-])O
InChI: InChI=1S/C7H15NO3/c1-8(2,3)5-6(9)4-7(10)11/h6,9H,4-5H2,1-3H3/t6-/m1/s1
Instrument: Agilent 6530 QTOF
Instrument type: LC-ESI-QTOF
Ms type: MS2
Ion mode: POSITIVE
Ionization: ESI
Fragmentation mode: CID
Collision energy: 40 eV
Resolution: 5000
Column name: N/A
Retention time: 0.563 min
Base peak: 162.1125
Precursor m/z: 162.1125
Precursor type: [M+H]+
Precursor intensity: 407144
m/z	relative intensity	assigned
41.0394	30	C3H5+
43.0181	892	C2H3O+
44.0497	257	C2H6N+
45.0571	244	C2H7N+
57.0336	85	C3H5O+
58.0651	999	C3H8N+
59.073	102	C3H9N+
60.0806	316	C3H10N+
84.0791	11	C2H12O3+
85.0287	29	C4H5O2+
91.0523	4	C7H7+
100.1092	2	C3H16O3+
102.0893	68	C5H12NO+
103.0371	5	C4H7O3+
133.9982	1	C7H2O3+
