Mass spectrum: 1-palmitoyl-2-linoleoyl-sn-glycero-3-phosphoethanol; LC-ESI-QTOF; MS2; CE: 40eV; R=7000; [M-H]-
Name: 1-palmitoyl-2-linoleoyl-sn-glycero-3-phosphoethanol
Formula: C39H73O8P
Exact mass: 700.5043
SMILES: O=C(O[C@@H](COP(O)(=O)OCC)COC(=O)CCCCCCCCCCCCCCC)CCCCCCC/C=C\C\C=C\CCCCC
InChI: InChI=1S/C39H73O8P/c1-4-7-9-11-13-15-17-19-20-22-24-26-28-30-32-34-39(41)47-37(36-46-48(42,43)45-6-3)35-44-38(40)33-31-29-27-25-23-21-18-16-14-12-10-8-5-2/h13,15,19-20,37H,4-12,14,16-18,21-36H2,1-3H3,(H,42,43)/b15-13+,20-19-/t37-/m1/s1
Instrument: Agilent 6560 QTOF
Instrument type: LC-ESI-QTOF
Ms type: MS2
Ion mode: NEGATIVE
Ionization: ESI
Fragmentation mode: CID
Collision energy: 40 eV
Resolution: 7000
Column name: N/A
Retention time: 0.076 min
Base peak: 980.0164
Precursor m/z: 699.497
Precursor type: [M-H]-
Precursor intensity: 27851
m/z	relative intensity	assigned
71.013	59	C3H3O2-
78.9574	67	O3P-
181.0279	99	C5H10O5P-
255.2321	304	C16H31O2-
279.2322	999	C18H31O2-
311.1612	8	C13H28O6P-
325.2185	25	C22H29O2-
327.1438	40	C16H23O7-
476.3395	9	C29H49O3P-
491.0687	13	C29H16O6P-
491.362	62	C26H51O8-
531.0808	48	C35H16O4P-
574.4295	16	C39H59OP-
