Mass spectrum: Aldosterone; LC-ESI-QTOF; MS2; CE: 40eV; R=7000; [M+H]+
Name: Aldosterone
Name: (8S,9S,10R,11S,13R,14S,17S)-11-hydroxy-17-(2-hydroxyacetyl)-10-methyl-3-oxo-1,2,6,7,8,9,11,12,14,15,16,17-dodecahydrocyclopenta[a]phenanthrene-13-carbaldehyde
Formula: C21H28O5
Exact mass: 360.1937
SMILES: C[C@]12CCC(=O)C=C1CC[C@@H]3[C@@H]2[C@H](C[C@]4([C@H]3CC[C@@H]4C(=O)CO)C=O)O
InChI: InChI=1S/C21H28O5/c1-20-7-6-13(24)8-12(20)2-3-14-15-4-5-16(18(26)10-22)21(15,11-23)9-17(25)19(14)20/h8,11,14-17,19,22,25H,2-7,9-10H2,1H3/t14-,15-,16+,17-,19+,20-,21+/m0/s1
Instrument: Agilent 6560 QTOF
Instrument type: LC-ESI-QTOF
Ms type: MS2
Ion mode: POSITIVE
Ionization: ESI
Fragmentation mode: CID
Collision energy: 40 eV
Resolution: 7000
Column name: Direct injection
Retention time: 0.183 min
Base peak: 338.343
Precursor m/z: 361.201
Precursor type: [M+H]+
Precursor intensity: 61271
m/z	relative intensity	assigned
77.0391	157	C6H5+
79.0531	98	C6H7+
83.0488	343	C5H7O+
87.0427	27	C4H7O2+
91.0539	952	C7H7+
93.0706	178	C7H9+
95.0851	169	C7H11+
97.0638	999	C6H9O+
101.0578	35	C5H9O2+
105.0701	359	C8H9+
107.0837	173	C8H11+
109.0647	586	C7H9O+
110.0704	88	C7H10O+
115.0551	175	C9H7+
117.0692	360	C9H9+
119.0853	30	C9H11+
121.0653	659	C8H9O+
127.0545	182	C10H7+
128.0611	437	C10H8+
129.0681	518	C10H9+
131.0858	420	C10H11+
133.0639	56	C9H9O+
141.0694	363	C11H9+
142.0754	201	C11H10+
143.0859	757	C11H11+
145.1025	522	C11H13+
147.0791	281	C10H11O+
153.069	35	C12H9+
155.0864	419	C12H11+
158.0723	195	C11H10O+
159.0805	54	C11H11O+
159.1145	163	C12H15+
161.0966	229	C11H13O+
163.077	70	C10H11O2+
163.1122	263	C11H15O+
165.0722	63	C13H9+
167.0853	95	C13H11+
168.0922	159	C13H12+
169.0976	68	C13H13+
171.0786	228	C12H11O+
171.116	119	C13H15+
173.131	41	C13H17+
178.0791	190	C14H10+
180.0918	170	C14H12+
181.1031	114	C14H13+
182.1095	231	C14H14+
183.0767	73	C13H11O+
183.1165	215	C14H15+
185.1333	42	C14H17+
192.091	371	C15H12+
193.102	264	C15H13+
195.0782	117	C14H11O+
195.1174	161	C15H15+
196.1246	129	C15H16+
198.1365	100	C15H18+
199.1123	203	C14H15O+
204.0896	52	C16H12+
205.0966	116	C16H13+
207.1128	296	C16H15+
209.1295	132	C16H17+
211.1505	45	C16H19+
212.1164	106	C15H16O+
213.1242	264	C15H17O+
215.0812	65	C17H11+
215.1417	35	C15H19O+
218.1055	150	C17H14+
219.1119	36	C17H15+
223.113	336	C16H15O+
223.1487	147	C17H19+
224.1203	58	C16H16O+
225.1304	180	C16H17O+
226.1325	135	C16H18O+
227.1096	70	C15H15O2+
227.1413	49	C16H19O+
227.1755	40	C17H23+
228.0959	101	C18H12+
229.1557	128	C16H21O+
234.1013	58	C17H14O+
235.1475	48	C18H19+
239.1467	69	C17H19O+
240.15	157	C17H20O+
241.1205	163	C16H17O2+
241.1579	95	C17H21O+
250.0975	109	C17H14O2+
251.1445	131	C18H19O+
253.1592	108	C18H21O+
254.1622	80	C18H22O+
257.1516	82	C17H21O2+
266.1655	21	C19H22O+
269.1566	48	C18H21O2+
274.1315	109	C20H18O+
279.1736	73	C20H23O+
285.1838	224	C19H25O2+
299.1627	48	C19H23O3+
301.1756	57	C19H25O3+
315.1909	59	C20H27O3+
