Mass spectrum: SPERMIDINE; LC-ESI-QTOF; MS2; CE: 20eV; R=5000; [M+H]+
Name: SPERMIDINE
Name: N`-(3-aminopropyl)butane-1,4-diamine
Formula: C7H19N3
Exact mass: 145.15790
SMILES: NCCCCNCCCN
InChI: InChI=1S/C7H19N3/c8-4-1-2-6-10-7-3-5-9/h10H,1-9H2
Instrument: Agilent 6530 QTOF
Instrument type: LC-ESI-QTOF
Ms type: MS2
Ion mode: POSITIVE
Ionization: ESI
Fragmentation mode: CID
Collision energy: 20 eV
Resolution: 5000
Column name: N/A
Retention time: 0.561 min
Base peak: 146.1652
Precursor m/z: 146.1652
Precursor type: [M+H]+
Precursor intensity: 951116
m/z	relative intensity	assigned
42.0342	9	C2H4N+
53.0384	1	C4H5+
55.0543	28	C4H7+
56.0495	2	C3H6N+
58.0654	111	C3H8N+
67.0535	1	C5H7+
70.0648	7	C4H8N+
72.0806	999	C4H10N+
75.0908	10	C3H11N2+
84.0804	230	C5H10N+
98.0964	1	C6H12N+
112.111	116	C7H14N+
129.1355	4	C7H17N2+
