Mass spectrum: 1-octadecanoyl-sn-glycero-3-phosphocholine; LC-ESI-QTOF; MS2; CE: 10eV; R=7000; [M+Na]+
Name: 1-octadecanoyl-sn-glycero-3-phosphocholine
Name: [(2R)-2-hydroxy-3-octadecanoyloxypropyl] 2-(trimethylazaniumyl)ethyl phosphate
Formula: C26H54NO7P
Exact mass: 523.3638
SMILES: CCCCCCCCCCCCCCCCCC(=O)OC[C@H](COP(=O)([O-])OCC[N+](C)(C)C)O
InChI: InChI=1S/C26H54NO7P/c1-5-6-7-8-9-10-11-12-13-14-15-16-17-18-19-20-26(29)32-23-25(28)24-34-35(30,31)33-22-21-27(2,3)4/h25,28H,5-24H2,1-4H3/t25-/m1/s1
Instrument: Agilent 6560 QTOF
Instrument type: LC-ESI-QTOF
Ms type: MS2
Ion mode: POSITIVE
Ionization: ESI
Fragmentation mode: CID
Collision energy: 10 eV
Resolution: 7000
Column name: Direct injection
Retention time: 0.209 min
Base peak: 524.3726
Precursor m/z: 546.353
Precursor type: [M+Na]+
Precursor intensity: 162951
m/z	relative intensity	assigned
83.0858	8	C2H14NP+
86.0959	59	C5H12N+
97.1001	3	CH17NNaP+
104.1069	436	C5H14NO+
105.1091	15	H18NaO4+
146.9812	25	C2H5NaO4P+
341.3045	49	C21H41O3+
342.3089	3	C12H48NaO6P+
395.1536	1	C25H25NaOP+
403.9984	1	C26H6NaO2P+
487.2793	326	C23H45NaO7P+
488.2834	40	C23H46NaO7P+
546.3541	999	C26H54NNaO7P+
