Mass spectrum: Methandrostenolone; LC-ESI-QTOF; MS2; CE: 10eV; R=7000; [M+H]+
Name: Methandrostenolone
Name: (8R,9S,10R,13S,14S,17S)-17-hydroxy-10,13,17-trimethyl-7,8,9,11,12,14,15,16-octahydro-6H-cyclopenta[a]phenanthren-3-one
Formula: C20H28O2
Exact mass: 300.2089
SMILES: C[C@]12CC[C@H]3[C@H]([C@@H]1CC[C@]2(C)O)CCC4=CC(=O)C=C[C@]34C
InChI: InChI=1S/C20H28O2/c1-18-9-6-14(21)12-13(18)4-5-15-16(18)7-10-19(2)17(15)8-11-20(19,3)22/h6,9,12,15-17,22H,4-5,7-8,10-11H2,1-3H3/t15-,16+,17+,18+,19+,20+/m1/s1
Instrument: Agilent 6560 QTOF
Instrument type: LC-ESI-QTOF
Ms type: MS2
Ion mode: POSITIVE
Ionization: ESI
Fragmentation mode: CID
Collision energy: 10 eV
Resolution: 7000
Column name: Direct injection
Retention time: 0.180 min
Base peak: 301.2172
Precursor m/z: 301.2162
Precursor type: [M+H]+
Precursor intensity: 414779
m/z	relative intensity	assigned
71.049	13	C4H7O+
77.0381	26	C6H5+
78.0446	3	C6H6+
79.0549	7	C6H7+
81.0706	82	C6H9+
85.0653	3	C5H9O+
91.0545	35	C7H7+
93.0696	94	C7H9+
95.0855	89	C7H11+
105.0705	16	C8H9+
107.0853	72	C8H11+
109.0632	5	C7H9O+
109.1004	49	C8H13+
111.0801	8	C7H11O+
119.0866	15	C9H11+
121.0651	999	C8H9O+
121.1009	120	C9H13+
122.107	4	C9H14+
123.0787	6	C8H11O+
123.1166	36	C9H15+
125.0953	1	C8H13O+
132.0593	2	C9H8O+
133.0639	47	C9H9O+
133.1015	7	C10H13+
135.0798	48	C9H11O+
135.1173	50	C10H15+
137.0596	24	C8H9O2+
141.0729	6	C11H9+
145.0639	5	C10H9O+
145.1011	3	C11H13+
146.0735	9	C10H10O+
147.0808	120	C10H11O+
147.1167	8	C11H15+
148.0863	5	C10H12O+
149.1328	858	C11H17+
159.0809	43	C11H11O+
159.1158	4	C12H15+
161.0961	70	C11H13O+
161.132	89	C12H17+
163.1484	65	C12H19+
164.1549	5	C12H20+
167.1431	5	C11H19O+
169.0627	4	C12H9O+
171.0811	6	C12H11O+
172.0903	4	C12H12O+
173.0959	115	C12H13O+
175.1127	8	C12H15O+
175.149	45	C13H19+
177.0917	1	C11H13O2+
187.1119	43	C13H15O+
189.1265	7	C13H17O+
189.1616	4	C14H21+
193.1601	3	C13H21O+
198.1037	5	C14H14O+
199.1097	7	C14H15O+
201.1282	21	C14H17O+
213.1263	37	C15H17O+
214.1316	2	C15H18O+
227.1429	43	C16H19O+
228.1486	10	C16H20O+
231.1761	4	C16H23O+
243.1755	12	C17H23O+
246.1424	4	C19H18+
255.1715	9	C18H23O+
265.1964	3	C20H25+
272.177	4	C18H24O2+
283.2057	309	C20H27O+
284.2097	5	C20H28O+
301.2174	241	C20H29O2+
