Mass spectrum: Butyryl trihexyl citrate; LC-ESI-QTOF; MS2; CE: 15eV; R=7000; [M+Na]+
Name: Butyryl trihexyl citrate
Name: trihexyl 2-butanoyloxypropane-1,2,3-tricarboxylate
Formula: C28H50O8
Exact mass: 514.3506
SMILES: CCCCCCOC(=O)CC(CC(=O)OCCCCCC)(C(=O)OCCCCCC)OC(=O)CCC
InChI: InChI=1S/C28H50O8/c1-5-9-12-15-19-33-25(30)22-28(36-24(29)18-8-4,27(32)35-21-17-14-11-7-3)23-26(31)34-20-16-13-10-6-2/h5-23H2,1-4H3
Instrument: Agilent 6560 QTOF
Instrument type: LC-ESI-QTOF
Ms type: MS2
Ion mode: POSITIVE
Ionization: ESI
Fragmentation mode: CID
Collision energy: 15 eV
Resolution: 7000
Retention time: 0.147 min
Base peak: 537.3419
Precursor m/z: 537.3398
Precursor type: [M+Na]+
Precursor intensity: 648158.98
m/z	relative intensity	assigned
235.0937	2	C11H16NaO4+
337.198	11	C17H30NaO5+
338.2002	2	C24H27Na+
365.194	3	C18H30NaO6+
383.2024	5	C18H32NaO7+
449.287	79	C24H42NaO6+
450.2906	13	C24H43NaO6+
453.2451	4	C22H38NaO8+
467.2967	3	C24H44NaO7+
537.3396	999	C28H50NaO8+
