Mass spectrum: Prostaglandin E1; LC-ESI-QTOF; MS2; CE: 20eV; R=7000; [M-H2O+H]+
Name: Prostaglandin E1
Name: Alprostadil
Name: 7-[(1R,2R,3R)-3-hydroxy-2-[(E,3S)-3-hydroxyoct-1-enyl]-5-oxocyclopentyl]heptanoic acid
Formula: C20H34O5
Exact mass: 354.2406
SMILES: CCCCC[C@@H](/C=C/[C@H]1[C@@H](CC(=O)[C@@H]1CCCCCCC(=O)O)O)O
InChI: InChI=1S/C20H34O5/c1-2-3-6-9-15(21)12-13-17-16(18(22)14-19(17)23)10-7-4-5-8-11-20(24)25/h12-13,15-17,19,21,23H,2-11,14H2,1H3,(H,24,25)/b13-12+/t15-,16+,17+,19+/m0/s1
Instrument: Agilent 6560 QTOF
Instrument type: LC-ESI-QTOF
Ms type: MS2
Ion mode: POSITIVE
Ionization: ESI
Fragmentation mode: CID
Collision energy: 20 eV
Resolution: 7000
Column name: Direct injection
Retention time: 0.182 min
Base peak: 377.2316
Precursor m/z: 337.2373
Precursor type: [M-H2O+H]+
Precursor intensity: 58814
m/z	relative intensity	assigned
71.0128	401	C3H3O2+
73.027	22	C3H5O2+
77.0381	236	C6H5+
81.0702	999	C6H9+
83.0501	209	C5H7O+
83.0839	81	C6H11+
86.058	153	CH10O4+
91.0543	362	C7H7+
93.071	820	C7H9+
95.0469	106	C6H7O+
95.0847	531	C7H11+
97.0655	211	C6H9O+
97.1009	430	C7H13+
99.0463	155	C5H7O2+
105.0684	376	C8H9+
107.0497	147	C7H7O+
107.0846	222	C8H11+
109.0636	117	C7H9O+
109.1006	270	C8H13+
111.0439	104	C6H7O2+
111.0794	327	C7H11O+
117.0709	62	C9H9+
119.0481	77	C8H7O+
121.0651	51	C8H9O+
121.1026	143	C9H13+
123.1171	65	C9H15+
125.0961	52	C8H13O+
128.0629	94	C10H8+
128.1055	209	C4H16O4+
129.0693	120	C10H9+
131.0862	136	C10H11+
133.0661	217	C9H9O+
133.0885	27	C6H13O3+
135.1144	123	C10H15+
137.0589	65	C8H9O2+
142.1225	93	C5H18O4+
143.0832	257	C11H11+
145.1013	226	C11H13+
147.082	92	C10H11O+
147.1166	165	C11H15+
149.0971	57	C10H13O+
149.1311	35	C11H17+
151.1126	25	C10H15O+
153.0674	61	C12H9+
155.0862	56	C12H11+
157.1011	229	C12H13+
159.1177	349	C12H15+
161.1318	85	C12H17+
165.1263	63	C11H17O+
166.0774	76	C13H10+
167.0841	40	C13H11+
171.1161	242	C13H15+
171.1554	14	C7H23O4+
173.1318	282	C13H17+
175.1134	40	C12H15O+
175.149	163	C13H19+
181.1982	14	C13H25+
183.1164	32	C14H15+
185.131	74	C14H17+
189.1309	12	C13H17O+
190.1324	43	C13H18O+
191.1036	87	C12H15O2+
191.1394	166	C13H19O+
193.1554	42	C13H21O+
199.1465	53	C15H19+
203.1047	191	C13H15O2+
203.181	187	C15H23+
207.1729	226	C14H23O+
208.1208	184	C16H16+
219.2149	33	C16H27+
221.185	62	C15H25O+
235.2044	80	C16H27O+
255.212	177	C19H27+
259.2033	79	C18H27O+
261.2203	63	C18H29O+
265.2135	145	C17H29O2+
271.1899	77	C15H27O4+
273.2212	298	C19H29O+
275.1961	50	C18H27O2+
283.204	36	C20H27O+
289.2149	26	C19H29O2+
291.23	84	C19H31O2+
301.2212	24	C20H29O2+
302.2202	179	C20H30O2+
319.2302	319	C20H31O3+
320.2283	58	C20H32O3+
