Mass spectrum: BPS glucuronide; LC-ESI-QTOF; MS2; CE: 40eV; R=7000; [M-H]-
Name: BPS glucuronide
Formula: C18H18O10S
Exact mass: 426.0621
SMILES: C1=CC(=CC=C1O)S(=O)(=O)C2=CC=C(C=C2)O[C@H]3C(C([C@H](C(O3)C(=O)O)O)O)O
InChI: InChI=1S/C18H18O10S/c19-9-1-5-11(6-2-9)29(25,26)12-7-3-10(4-8-12)27-18-15(22)13(20)14(21)16(28-18)17(23)24/h1-8,13-16,18-22H,(H,23,24)/t13?,14-,15?,16?,18-/m1/s1
Instrument: Agilent 6560 QTOF
Instrument type: LC-ESI-QTOF
Ms type: MS2
Ion mode: NEGATIVE
Ionization: ESI
Fragmentation mode: CID
Collision energy: 40 eV
Resolution: 7000
Column name: ZORBAX Extend-C18 3.5um, 2.1x50mm, Agilent Technologies
Retention time: 1.190 min
Base peak: 980.0164
Precursor m/z: 425.0548
Precursor type: [M-H]-
Precursor intensity: 6088.07
m/z	relative intensity	assigned
55.0197	280	C3H3O-
59.0138	274	C2H3O2-
87.0083	250	C3H3O3-
92.0259	329	C6H4O-
108.0228	999	C6H4O2-
155.9878	307	C6H4O3S-
249.022	906	C12H9O4S-
