Mass spectrum: Di-n-butyl sebacate; LC-ESI-QTOF; MS2; CE: 50eV; R=7000; [M+H]+
Name: Di-n-butyl sebacate
Name: Dibutyl sebacate
Name: dibutyl decanedioate
Formula: C18H34O4
Exact mass: 314.2457
SMILES: CCCCOC(=O)CCCCCCCCC(=O)OCCCC
InChI: InChI=1S/C18H34O4/c1-3-5-15-21-17(19)13-11-9-7-8-10-12-14-18(20)22-16-6-4-2/h3-16H2,1-2H3
Instrument: Agilent 6560 QTOF
Instrument type: LC-ESI-QTOF
Ms type: MS2
Ion mode: POSITIVE
Ionization: ESI
Fragmentation mode: CID
Collision energy: 50 eV
Resolution: 7000
Retention time: 0.145 min
Base peak: 337.2371
Precursor m/z: 315.253
Precursor type: [M+H]+
Precursor intensity: 18732.93
m/z	relative intensity	assigned
53.0379	51	C4H5+
55.0174	80	C3H3O+
55.0546	999	C4H7+
57.0703	64	C4H9+
59.0496	33	C3H7O+
67.0546	207	C5H7+
69.0705	267	C5H9+
79.0548	269	C6H7+
83.0488	32	C5H7O+
91.0543	58	C7H7+
93.0716	57	C7H9+
95.085	88	C7H11+
