Mass spectrum: 5,6-Dimethylbenzotriazole; LC-ESI-QTOF; MS2; CE: 45eV; R=7000; [M+H]+
Name: 5,6-Dimethylbenzotriazole
Name: 5,6-Dimethyl-1H-benzotriazole
Name: 5,6-dimethyl-2H-benzotriazole
Formula: C8H9N3
Exact mass: 147.0796
SMILES: CC1=CC2=NNN=C2C=C1C
InChI: InChI=1S/C8H9N3/c1-5-3-7-8(4-6(5)2)10-11-9-7/h3-4H,1-2H3,(H,9,10,11)
Instrument: Agilent 6560 QTOF
Instrument type: LC-ESI-QTOF
Ms type: MS2
Ion mode: POSITIVE
Ionization: ESI
Fragmentation mode: CID
Collision energy: 45 eV
Resolution: 7000
Retention time: 0.145 min
Base peak: 148.087
Precursor m/z: 148.0869
Precursor type: [M+H]+
Precursor intensity: 45726.97
m/z	relative intensity	assigned
50.0153	53	C4H2+
51.0235	986	C4H3+
52.0301	52	C4H4+
53.0395	176	C4H5+
54.0344	64	C3H4N+
63.0233	45	C5H3+
65.0389	432	C5H5+
66.0457	65	C5H6+
67.053	20	C5H7+
77.0387	999	C6H5+
78.034	168	C5H4N+
79.0537	19	C6H7+
80.0489	141	C5H6N+
91.0545	357	C7H7+
92.0495	57	C6H6N+
93.0582	59	C6H7N+
104.0498	225	C7H6N+
105.0565	25	C7H7N+
118.0656	45	C8H8N+
