Mass spectrum: 5-Hydroxy-2-ethylhexyl diphenyl phosphate; LC-ESI-QTOF; MS2; CE: 25eV; R=7000; [M+H]+
Name: 5-Hydroxy-2-ethylhexyl diphenyl phosphate
Name: 2-Ethyl-5-hydroxyhexyl diphenyl phosphate
Name: (2-ethyl-5-hydroxyhexyl) diphenyl phosphate
Formula: C20H27O5P
Exact mass: 378.1596
SMILES: CCC(CCC(C)O)COP(=O)(Oc1ccccc1)Oc2ccccc2
InChI: InChI=1S/C20H27O5P/c1-3-18(15-14-17(2)21)16-23-26(22,24-19-10-6-4-7-11-19)25-20-12-8-5-9-13-20/h4-13,17-18,21H,3,14-16H2,1-2H3
Instrument: Agilent 6560 QTOF
Instrument type: LC-ESI-QTOF
Ms type: MS2
Ion mode: POSITIVE
Ionization: ESI
Fragmentation mode: CID
Collision energy: 25 eV
Resolution: 7000
Retention time: 0.146 min
Base peak: 401.1512
Precursor m/z: 379.1669
Precursor type: [M+H]+
Precursor intensity: 87981.19
m/z	relative intensity	assigned
55.0547	37	C4H7+
57.0698	14	C4H9+
59.0487	9	C3H7O+
69.0701	280	C5H9+
77.0386	180	C6H5+
95.0485	64	C6H7O+
111.1167	15	C8H15+
152.0624	38	C12H8+
153.0695	170	C12H9+
154.074	9	C5H15O3P+
156.9886	6	C9HO3+
157.0056	24	C6H6O3P+
168.0562	6	C12H8O+
175.0148	32	C6H8O4P+
215.0262	69	C12H8O2P+
233.0364	86	C12H10O3P+
251.0468	999	C12H12O4P+
252.0497	55	C12H13O4P+
