Mass spectrum: 2-Ethyl-4-hydroxyhexylsalicylate; LC-ESI-QTOF; MS2; CE: 25eV; R=7000; [M-H]-
Name: 2-Ethyl-4-hydroxyhexylsalicylate
Formula: C15H22O4
Exact mass: 266.1518
SMILES: CCC(O)CC(CC)COC(=O)c1ccccc1O
InChI: InChI=1S/C15H22O4/c1-3-11(9-12(16)4-2)10-19-15(18)13-7-5-6-8-14(13)17/h5-8,11-12,16-17H,3-4,9-10H2,1-2H3
Instrument: Agilent 6560 QTOF
Instrument type: LC-ESI-QTOF
Ms type: MS2
Ion mode: NEGATIVE
Ionization: ESI
Fragmentation mode: CID
Collision energy: 25 eV
Resolution: 7000
Column name: ZORBAX Extend-C18 3.5um, 2.1x50mm, Agilent Technologies
Retention time: 7.448 min
Base peak: 982.99
Precursor m/z: 265.1445
Precursor type: [M-H]-
Precursor intensity: 36347.68
m/z	relative intensity	assigned
57.0358	47	C3H5O-
91.0185	13	C6H3O-
92.0256	21	C6H4O-
93.0348	999	C6H5O-
137.0249	425	C7H5O3-
