Mass spectrum: Bis(2-butoxyethyl) 3?-hydroxy-2-butoxyethyl phosphate ; LC-ESI-QTOF; MS2; CE: 15eV; R=7000; [M+Na]+
Name: Bis(2-butoxyethyl) 3?-hydroxy-2-butoxyethyl phosphate 
Name: Bis(2-butoxyethyl) 3-hydroxyl-2-butoxyethyl phosphate
Name: bis(2-butoxyethyl) 2-(3-hydroxybutoxy)ethyl phosphate
Formula: C18H39O8P
Exact mass: 414.2383
SMILES: CCCCOCCOP(=O)(OCCOCCCC)OCCOCCC(C)O
InChI: InChI=1S/C18H39O8P/c1-4-6-9-21-12-15-24-27(20,25-16-13-22-10-7-5-2)26-17-14-23-11-8-18(3)19/h18-19H,4-17H2,1-3H3
Instrument: Agilent 6560 QTOF
Instrument type: LC-ESI-QTOF
Ms type: MS2
Ion mode: POSITIVE
Ionization: ESI
Fragmentation mode: CID
Collision energy: 15 eV
Resolution: 7000
Retention time: 0.145 min
Base peak: 437.2308
Precursor m/z: 437.2275
Precursor type: [M+Na]+
Precursor intensity: 418857.75
m/z	relative intensity	assigned
120.9655	4	H3NaO4P+
139.0731	2	CH16O5P+
146.9819	26	C2H5NaO4P+
157.0834	34	C6H14NaO3+
158.0869	1	C8H15OP+
164.9927	4	C2H7NaO5P+
203.0455	2	C6H13NaO4P+
219.0394	28	C6H13NaO5P+
220.041	2	C13H10NaP+
221.0549	23	C6H15NaO5P+
237.0501	37	C6H15NaO6P+
247.0716	1	C8H17NaO5P+
321.1444	20	C12H27NaO6P+
322.1472	1	C12H28NaO6P+
337.1391	170	C12H27NaO7P+
338.1413	9	C12H28NaO7P+
393.201	1	C16H35NaO7P+
437.228	999	C18H39NaO8P+
