Mass spectrum: 6-Hydroxy Monopropylheptylphthalate; LC-ESI-QTOF; MS2; CE: 15eV; R=7000; [M-H]-
Name: 6-Hydroxy Monopropylheptylphthalate
Name: Monopropylheptylphthalate 6-Hydroxy
Name: 2-(6-hydroxy-2-propylheptoxy)carbonylbenzoic acid
Formula: C18H26O5
Exact mass: 322.1780
SMILES: CCCC(CCCC(C)O)COC(=O)C1=CC=CC=C1C(=O)O
InChI: InChI=1S/C18H26O5/c1-3-7-14(9-6-8-13(2)19)12-23-18(22)16-11-5-4-10-15(16)17(20)21/h4-5,10-11,13-14,19H,3,6-9,12H2,1-2H3,(H,20,21)
Instrument: Agilent 6560 QTOF
Instrument type: LC-ESI-QTOF
Ms type: MS2
Ion mode: NEGATIVE
Ionization: ESI
Fragmentation mode: CID
Collision energy: 15 eV
Resolution: 7000
Column name: ZORBAX Extend-C18 3.5um, 2.1x50mm, Agilent Technologies
Retention time: 4.248 min
Base peak: 321.1713
Precursor m/z: 321.1707
Precursor type: [M-H]-
Precursor intensity: 77083.77
m/z	relative intensity	assigned
77.0399	326	C6H5-
78.0459	5	C6H6-
107.0502	6	C7H7O-
121.0295	999	C7H5O2-
141.1297	8	C9H17O-
147.0076	15	C8H3O3-
171.1384	80	C10H19O2-
173.1546	95	C10H21O2-
321.1724	52	C18H25O5-
