Mass spectrum: 5,6-Dimethylbenzotriazole; LC-ESI-QTOF; MS2; CE: 55eV; R=7000; [M+H]+
Name: 5,6-Dimethylbenzotriazole
Name: 5,6-Dimethyl-1H-benzotriazole
Name: 5,6-dimethyl-2H-benzotriazole
Formula: C8H9N3
Exact mass: 147.0796
SMILES: CC1=CC2=NNN=C2C=C1C
InChI: InChI=1S/C8H9N3/c1-5-3-7-8(4-6(5)2)10-11-9-7/h3-4H,1-2H3,(H,9,10,11)
Instrument: Agilent 6560 QTOF
Instrument type: LC-ESI-QTOF
Ms type: MS2
Ion mode: POSITIVE
Ionization: ESI
Fragmentation mode: CID
Collision energy: 55 eV
Resolution: 7000
Retention time: 0.115 min
Base peak: 148.0872
Precursor m/z: 148.0869
Precursor type: [M+H]+
Precursor intensity: 62787.85
m/z	relative intensity	assigned
50.0154	34	C4H2+
51.0236	999	C4H3+
52.0313	77	C4H4+
53.0389	110	C4H5+
54.0349	48	C3H4N+
63.0227	20	C5H3+
65.0392	294	C5H5+
66.0466	35	C5H6+
67.0417	21	C4H5N+
67.0545	14	C5H7+
74.0157	16	C6H2+
76.0303	29	C6H4+
77.039	459	C6H5+
78.0347	202	C5H4N+
80.0497	104	C5H6N+
91.0545	208	C7H7+
92.0486	21	C6H6N+
93.0578	47	C6H7N+
102.0471	16	C8H6+
103.0536	15	C8H7+
104.0498	151	C7H6N+
118.0652	25	C8H8N+
