Mass spectrum: O-PHOSPHOSERINE; LC-ESI-QTOF; MS2; CE: 40eV; R=5000; [M+H]+
Name: O-PHOSPHOSERINE
Name: dl-O-Phosphoserine
Name: 2-amino-3-phosphonooxypropanoic acid
Formula: C3H8NO6P
Exact mass: 185.0089
SMILES: NC(COP(O)(O)=O)C(O)=O
InChI: InChI=1S/C3H8NO6P/c4-2(3(5)6)1-10-11(7,8)9/h2H,1,4H2,(H,5,6)(H2,7,8,9)
Instrument: Agilent 6530 QTOF
Instrument type: LC-ESI-QTOF
Ms type: MS2
Ion mode: POSITIVE
Ionization: ESI
Fragmentation mode: CID
Collision energy: 40 eV
Resolution: 5000
Column name: N/A
Retention time: 0.355 min
Base peak: 121.0508
Precursor m/z: 186.0162
Precursor type: [M+H]+
Precursor intensity: 15835
m/z	relative intensity	assigned
42.0338	999	C2H4N+
50.0147	24	H5NP+
56.0487	19	C3H6N+
88.0386	101	C3H6NO2+
