Mass spectrum: Bisphenol AF; LC-ESI-QTOF; MS2; CE: 10eV; R=7000; [M-H]-
Name: Bisphenol AF
Name: 4-[1,1,1,3,3,3-hexafluoro-2-(4-hydroxyphenyl)propan-2-yl]phenol
Formula: C15H10F6O2
Exact mass: 336.0585
SMILES: C1=CC(=CC=C1C(C2=CC=C(C=C2)O)(C(F)(F)F)C(F)(F)F)O
InChI: InChI=1S/C15H10F6O2/c16-14(17,18)13(15(19,20)21,9-1-5-11(22)6-2-9)10-3-7-12(23)8-4-10/h1-8,22-23H
Instrument: Agilent 6560 QTOF
Instrument type: LC-ESI-QTOF
Ms type: MS2
Ion mode: NEGATIVE
Ionization: ESI
Fragmentation mode: CID
Collision energy: 10 eV
Resolution: 7000
Retention time: 0.188 min
Base peak: 335.0527
Precursor m/z: 335.0512
Precursor type: [M-H]-
Precursor intensity: 448582.72
m/z	relative intensity	assigned
68.9957	23	CF3-
111.0233	2	CH4F5-
149.04	1	C12H5-
161.0226	8	C4H5F4O2-
169.0456	1	C4H7F6-
177.0351	1	C2H7F6O2-
195.0453	1	C13H7O2-
197.0402	3	C5H7F6O-
199.0374	1	C10H6F3O-
216.0413	1	C10H7F3O2-
225.0341	1	C9H6F5O-
226.0401	1	C12H6F4-
244.032	3	C12H5F5-
245.0418	3	C14H7F2O2-
246.0497	3	C14H8F2O2-
247.0365	1	C14H6F3O-
265.0483	999	C14H8F3O2-
266.052	61	C12H8F6-
295.0381	2	C15H7F4O2-
315.0447	21	C15H8F5O2-
316.0497	1	C15H9F5O2-
335.0513	443	C15H9F6O2-
