Mass spectrum: Bis(2-butoxyethyl) 3?-hydroxy-2-butoxyethyl phosphate ; LC-ESI-QTOF; MS2; CE: 5eV; R=7000; [M+Na]+
Name: Bis(2-butoxyethyl) 3?-hydroxy-2-butoxyethyl phosphate 
Name: Bis(2-butoxyethyl) 3-hydroxyl-2-butoxyethyl phosphate
Name: bis(2-butoxyethyl) 2-(3-hydroxybutoxy)ethyl phosphate
Formula: C18H39O8P
Exact mass: 414.2383
SMILES: CCCCOCCOP(=O)(OCCOCCCC)OCCOCCC(C)O
InChI: InChI=1S/C18H39O8P/c1-4-6-9-21-12-15-24-27(20,25-16-13-22-10-7-5-2)26-17-14-23-11-8-18(3)19/h18-19H,4-17H2,1-3H3
Instrument: Agilent 6560 QTOF
Instrument type: LC-ESI-QTOF
Ms type: MS2
Ion mode: POSITIVE
Ionization: ESI
Fragmentation mode: CID
Collision energy: 5 eV
Resolution: 7000
Retention time: 0.145 min
Base peak: 437.2308
Precursor m/z: 437.2275
Precursor type: [M+Na]+
Precursor intensity: 583782.32
m/z	relative intensity	assigned
146.9817	3	C2H5NaO4P+
157.0832	5	C6H14NaO3+
219.0403	3	C6H13NaO5P+
221.054	2	C6H15NaO5P+
237.0493	4	C6H15NaO6P+
321.1446	1	C12H27NaO6P+
337.139	23	C12H27NaO7P+
437.2283	999	C18H39NaO8P+
