Mass spectrum: 4-((4-(Allyloxy)phenyl)sulfonyl)phenol; LC-ESI-QTOF; MS2; CE: 10eV; R=7000; [M-H]-
Name: 4-((4-(Allyloxy)phenyl)sulfonyl)phenol
Name: 4-(4-prop-2-enoxyphenyl)sulfonylphenol
Formula: C15H14O4S
Exact mass: 290.0613
SMILES: C=CCOC1=CC=C(C=C1)S(=O)(=O)C2=CC=C(C=C2)O
InChI: InChI=1S/C15H14O4S/c1-2-11-19-13-5-9-15(10-6-13)20(17,18)14-7-3-12(16)4-8-14/h2-10,16H,1,11H2
Instrument: Agilent 6560 QTOF
Instrument type: LC-ESI-QTOF
Ms type: MS2
Ion mode: NEGATIVE
Ionization: ESI
Fragmentation mode: CID
Collision energy: 10 eV
Resolution: 7000
Retention time: 0.132 min
Base peak: 289.0549
Precursor m/z: 289.054
Precursor type: [M-H]-
Precursor intensity: 310561.67
m/z	relative intensity	assigned
91.0187	1	C6H3O-
92.0261	1	C6H4O-
108.0219	11	C6H4O2-
139.9942	2	C6H4O2S-
155.9887	20	C6H4O3S-
156.0587	4	C11H8O-
184.0534	30	C12H8O2-
199.036	1	C12H7O3-
248.0151	999	C12H8O4S-
249.0181	35	C15H5O4-
289.0543	321	C15H13O4S-
