Mass spectrum: 1-hexadecanoyl-2--(5Z,8Z,11Z,14Z-eicosatetraenoyl)-sn-glycero-3-phosphocholine; LC-ESI-QTOF; MS2; CE: 20eV; R=7000; [M+H]+
Name: 1-hexadecanoyl-2--(5Z,8Z,11Z,14Z-eicosatetraenoyl)-sn-glycero-3-phosphocholine
Name: PC(16:0/20:4(5Z,8Z,11Z,14Z))
Name: [(2R)-3-hexadecanoyloxy-2-[(5Z,8Z,11Z,14Z)-icosa-5,8,11,14-tetraenoyl]oxypropyl] 2-(trimethylazaniumyl)ethyl phosphate
Formula: C44H80NO8P
Exact mass: 781.5622
SMILES: CCCCCCCCCCCCCCCC(=O)OC[C@H](COP(=O)([O-])OCC[N+](C)(C)C)OC(=O)CCC/C=C\C/C=C\C/C=C\C/C=C\CCCCC
InChI: InChI=1S/C44H80NO8P/c1-6-8-10-12-14-16-18-20-21-22-23-25-27-29-31-33-35-37-44(47)53-42(41-52-54(48,49)51-39-38-45(3,4)5)40-50-43(46)36-34-32-30-28-26-24-19-17-15-13-11-9-7-2/h14,16,20-21,23,25,29,31,42H,6-13,15,17-19,22,24,26-28,30,32-41H2,1-5H3/b16-14-,21-20-,25-23-,31-29-/t42-/m1/s1
Instrument: Agilent 6560 QTOF
Instrument type: LC-ESI-QTOF
Ms type: MS2
Ion mode: POSITIVE
Ionization: ESI
Fragmentation mode: CID
Collision energy: 20 eV
Resolution: 7000
Column name: Direct injection
Retention time: 0.375 min
Base peak: 782.5716
Precursor m/z: 782.5694
Precursor type: [M+H]+
Precursor intensity: 610577
m/z	relative intensity	assigned
86.0961	23	C5H12N+
98.9842	2	H4O4P+
104.1066	3	C5H14NO+
125.0002	13	C2H6O4P+
166.0622	1	C9H10O3+
181.0204	1	C12H6P+
184.0735	999	C5H15NO4P+
185.0762	12	C2H18O7P+
496.3394	3	C28H48O7+
526.3246	1	C35H45NOP+
537.4865	1	C27H70O7P+
544.3392	1	C32H48O7+
782.5704	241	C44H81NO8P+
