Mass spectrum: 5,6-Dimethylbenzotriazole; LC-ESI-QTOF; MS2; CE: 35eV; R=7000; [M+H]+
Name: 5,6-Dimethylbenzotriazole
Name: 5,6-Dimethyl-1H-benzotriazole
Name: 5,6-dimethyl-2H-benzotriazole
Formula: C8H9N3
Exact mass: 147.0796
SMILES: CC1=CC2=NNN=C2C=C1C
InChI: InChI=1S/C8H9N3/c1-5-3-7-8(4-6(5)2)10-11-9-7/h3-4H,1-2H3,(H,9,10,11)
Instrument: Agilent 6560 QTOF
Instrument type: LC-ESI-QTOF
Ms type: MS2
Ion mode: POSITIVE
Ionization: ESI
Fragmentation mode: CID
Collision energy: 35 eV
Resolution: 7000
Retention time: 0.145 min
Base peak: 148.087
Precursor m/z: 148.0869
Precursor type: [M+H]+
Precursor intensity: 61821.57
m/z	relative intensity	assigned
51.0233	412	C4H3+
53.0389	88	C4H5+
54.0347	33	C3H4N+
63.0229	10	C5H3+
65.0388	189	C5H5+
66.0463	63	C5H6+
77.0386	999	C6H5+
78.0462	77	C6H6+
79.0424	18	C5H5N+
80.0487	83	C5H6N+
91.0543	407	C7H7+
92.049	51	C6H6N+
93.0577	80	C6H7N+
103.0557	20	C8H7+
104.0497	212	C7H6N+
105.0571	34	C7H7N+
117.0575	18	C8H7N+
118.0641	43	C8H8N+
