Mass spectrum: Liothyronine; LC-ESI-QTOF; MS2; CE: 10eV; R=7000; [M+H]+
Name: Liothyronine
Name: (2S)-2-amino-3-[4-(4-hydroxy-3-iodophenoxy)-3,5-diiodophenyl]propanoic acid
Formula: C15H12I3NO4
Exact mass: 650.7901
SMILES: N[C@@H](CC1=CC(I)=C(OC2=CC=C(O)C(I)=C2)C(I)=C1)C(O)=O
InChI: InChI=1S/C15H12I3NO4/c16-9-6-8(1-2-13(9)20)23-14-10(17)3-7(4-11(14)18)5-12(19)15(21)22/h1-4,6,12,20H,5,19H2,(H,21,22)/t12-/m0/s1
Instrument: Agilent 6560 QTOF
Instrument type: LC-ESI-QTOF
Ms type: MS2
Ion mode: POSITIVE
Ionization: ESI
Fragmentation mode: CID
Collision energy: 10 eV
Resolution: 7000
Column name: Direct injection
Retention time: 0.212 min
Base peak: 437.1942
Precursor m/z: 651.7973
Precursor type: [M+H]+
Precursor intensity: 142363
m/z	relative intensity	assigned
144.0811	4	C10H10N+
160.0123	4	C9H4O3+
197.0589	4	C13H9O2+
198.0687	3	C13H10O2+
225.0757	2	C14H11NO2+
254.0581	15	C15H10O4+
259.9559	5	C8H7INO+
323.9824	1	C10H13IO4+
330.9684	8	C11H10INO3+
344.985	7	C12H12INO3+
385.8466	2	C5H8I2O4+
414.8312	7	C9H5I2O3+
450.8659	6	C13H9I2O2+
451.8779	3	C13H10I2O2+
463.8756	4	C14H10I2O2+
478.879	16	C14H11I2NO2+
507.8644	134	C15H10I2O4+
508.8696	9	C15H11I2O4+
592.7596	19	C13H8I3O3+
593.8137	1	C14H13I3O2+
605.7907	999	C14H11I3NO2+
606.7917	74	C14H12I3NO2+
616.7495	3	C14H6I3NO3+
634.7694	61	C15H10I3O4+
635.779	4	C15H11I3O4+
651.7954	546	C15H13I3NO4+
