Mass spectrum: Bisphenol Z; LC-ESI-QTOF; MS2; CE: 35eV; R=7000; [M-H]-
Name: Bisphenol Z
Name: 1,1-Bis(4-hydroxyphenyl)cyclohexane
Name: 4-[1-(4-hydroxyphenyl)cyclohexyl]phenol
Formula: C18H20O2
Exact mass: 268.1463
SMILES: C1CCC(CC1)(C2=CC=C(C=C2)O)C3=CC=C(C=C3)O
InChI: InChI=1S/C18H20O2/c19-16-8-4-14(5-9-16)18(12-2-1-3-13-18)15-6-10-17(20)11-7-15/h4-11,19-20H,1-3,12-13H2
Instrument: Agilent 6560 QTOF
Instrument type: LC-ESI-QTOF
Ms type: MS2
Ion mode: NEGATIVE
Ionization: ESI
Fragmentation mode: CID
Collision energy: 35 eV
Resolution: 7000
Retention time: 0.190 min
Base peak: 982.9912
Precursor m/z: 267.1391
Precursor type: [M-H]-
Precursor intensity: 6779.69
m/z	relative intensity	assigned
93.0331	89	C6H5O-
117.0356	157	C8H5O-
145.0659	999	C10H9O-
173.0962	305	C12H13O-
223.0751	391	C15H11O2-
