Mass spectrum: Ethyl 4-(dimethylamino)benzoate; LC-ESI-QTOF; MS2; CE: 20eV; R=7000; [M+H]+
Name: Ethyl 4-(dimethylamino)benzoate
Name: Ethyl 4-dimethylaminobenzoate
Formula: C11H15NO2
Exact mass: 193.1103
SMILES: CCOC(=O)C1=CC=C(C=C1)N(C)C
InChI: InChI=1S/C11H15NO2/c1-4-14-11(13)9-5-7-10(8-6-9)12(2)3/h5-8H,4H2,1-3H3
Instrument: Agilent 6560 QTOF
Instrument type: LC-ESI-QTOF
Ms type: MS2
Ion mode: POSITIVE
Ionization: ESI
Fragmentation mode: CID
Collision energy: 20 eV
Resolution: 7000
Column name: ZORBAX Extend-C18 3.5um, 2.1x50mm, Agilent Technologies
Retention time: 3.434 min
Base peak: 453.349
Precursor m/z: 194.1176
Precursor type: [M+H]+
Precursor intensity: 148904.7
m/z	relative intensity	assigned
65.039	11	C5H5+
77.0387	13	C6H5+
78.0464	6	C6H6+
79.0552	27	C6H7+
104.0625	6	C8H8+
106.0649	64	C7H8N+
107.0497	5	C7H7O+
107.073	80	C7H9N+
120.0797	25	C8H10N+
121.0881	25	C8H11N+
122.0956	13	C8H12N+
134.0599	566	C8H8NO+
135.0658	30	C8H9NO+
148.0747	39	C9H10NO+
150.0539	148	C8H8NO2+
151.0626	999	C8H9NO2+
164.0694	23	C9H10NO2+
165.0748	8	C9H11NO2+
166.0861	313	C9H12NO2+
178.0861	10	C10H12NO2+
179.0932	263	C10H13NO2+
194.1174	27	C11H16NO2+
