Mass spectrum: N-oleoyl-D-erythro-sphingosine; LC-ESI-QTOF; MS2; CE: 10eV; R=7000; [M+HCOOH-H]-
Name: N-oleoyl-D-erythro-sphingosine
Name: N-(oleoyl)-ceramide
Name: (Z)-N-[(E,2S,3R)-1,3-dihydroxyoctadec-4-en-2-yl]octadec-9-enamide
Formula: C36H69NO3
Exact mass: 563.5277
SMILES: CCCCCCCCCCCCC/C=C/[C@H]([C@H](CO)NC(=O)CCCCCCC/C=C\CCCCCCCC)O
InChI: InChI=1S/C36H69NO3/c1-3-5-7-9-11-13-15-17-18-20-22-24-26-28-30-32-36(40)37-34(33-38)35(39)31-29-27-25-23-21-19-16-14-12-10-8-6-4-2/h17-18,29,31,34-35,38-39H,3-16,19-28,30,32-33H2,1-2H3,(H,37,40)/b18-17-,31-29+/t34-,35+/m0/s1
Instrument: Agilent 6560 QTOF
Instrument type: LC-ESI-QTOF
Ms type: MS2
Ion mode: NEGATIVE
Ionization: ESI
Fragmentation mode: CID
Collision energy: 10 eV
Resolution: 7000
Column name: N/A
Retention time: 0.261 min
Base peak: 622.5437
Precursor m/z: 608.5259
Precursor type: [M+HCOOH-H]-
Precursor intensity: 7825
m/z	relative intensity	assigned
192.5243	33	C9H68O-
248.4109	124	C11H54NO3-
262.0474	85	C16H8NO3-
280.2638	78	C18H34NO-
281.2978	78	C15H39NO3-
368.9804	116	C24HO5-
381.1249	83	C29H17O-
382.2842	66	C26H38O2-
401.2508	75	C28H33O2-
562.5215	999	C36H68NO3-
563.5274	411	C36H69NO3-
564.3252	79	C37H42NO4-
589.5222	115	C37H67NO4-
608.524	363	C37H70NO5-
