Mass spectrum: Para-hydroxy triphenyl phosphate; LC-ESI-QTOF; MS2; CE: 10eV; R=7000; [M+H]+
Name: Para-hydroxy triphenyl phosphate
Name: 4-Hydroxyphenyl diphenyl phosphate
Name: (4-hydroxyphenyl) diphenyl phosphate
Formula: C18H15O5P
Exact mass: 342.0657
SMILES: C1=CC=C(C=C1)OP(=O)(OC2=CC=CC=C2)OC3=CC=C(C=C3)O
InChI: InChI=1S/C18H15O5P/c19-15-11-13-18(14-12-15)23-24(20,21-16-7-3-1-4-8-16)22-17-9-5-2-6-10-17/h1-14,19H
Instrument: Agilent 6560 QTOF
Instrument type: LC-ESI-QTOF
Ms type: MS2
Ion mode: POSITIVE
Ionization: ESI
Fragmentation mode: CID
Collision energy: 10 eV
Resolution: 7000
Retention time: 0.146 min
Base peak: 343.0735
Precursor m/z: 343.073
Precursor type: [M+H]+
Precursor intensity: 116529.17
m/z	relative intensity	assigned
77.039	6	C6H5+
93.0338	3	C6H5O+
109.0286	6	C6H5O2+
111.0451	3	C6H7O2+
141.0108	4	C6H6O2P+
141.0694	18	C11H9+
153.0692	6	C12H9+
169.065	4	C12H9O+
170.0728	2	C12H10O+
175.0163	2	C6H8O4P+
202.076	2	C9H15O3P+
215.0247	6	C12H8O2P+
217.1007	3	C17H13+
231.0219	10	C12H8O3P+
233.0359	8	C12H10O3P+
245.0933	4	C18H13O+
249.0325	17	C12H10O4P+
251.0442	6	C12H12O4P+
267.0422	9	C12H12O5P+
325.063	5	C18H14O4P+
343.0736	999	C18H16O5P+
