Mass spectrum: 1,2-Dipalmitoyl-rac-glycerol; LC-ESI-QTOF; MS2; CE: 10eV; R=7000; [M+NH4]+
Name: 1,2-Dipalmitoyl-rac-glycerol
Name: 1,2-Dipalmitoyl-sn-glycerol
Name: [(2S)-2-hexadecanoyloxy-3-hydroxypropyl] hexadecanoate
Formula: C35H68O5
Exact mass: 568.5067
SMILES: [H][C@](CO)(COC(=O)CCCCCCCCCCCCCCC)OC(=O)CCCCCCCCCCCCCCC
InChI: InChI=1S/C35H68O5/c1-3-5-7-9-11-13-15-17-19-21-23-25-27-29-34(37)39-32-33(31-36)40-35(38)30-28-26-24-22-20-18-16-14-12-10-8-6-4-2/h33,36H,3-32H2,1-2H3/t33-/m0/s1
Instrument: Agilent 6560 QTOF
Instrument type: LC-ESI-QTOF
Ms type: MS2
Ion mode: POSITIVE
Ionization: ESI
Fragmentation mode: CID
Collision energy: 10 eV
Resolution: 7000
Column name: Direct injection
Retention time: 0.240 min
Base peak: 591.4972
Precursor m/z: 586.5405
Precursor type: [M+NH4]+
Precursor intensity: 77696
m/z	relative intensity	assigned
71.0863	7	C5H11+
89.0594	9	C4H9O2+
95.0845	18	C7H11+
117.0562	7	C8H7N+
139.1458	12	C10H19+
239.2395	5	C16H31O+
257.2435	10	C16H33O2+
313.2737	999	C19H37O3+
314.2778	103	C19H38O3+
314.5591	9	C19H72N+
358.2821	3	C24H38O2+
360.3214	9	C21H44O4+
407.1715	3	C24H25NO5+
551.5044	587	C35H67O4+
552.5073	109	C35H68O4+
586.5329	3	C35H72NO5+
