Mass spectrum: gamma-Linolenic acid; LC-ESI-QTOF; MS2; CE: 20eV; R=7000; [M+CH3COO]-
Name: gamma-Linolenic acid
Name: (6Z,9Z,12Z)-octadeca-6,9,12-trienoic acid
Formula: C18H30O2
Exact mass: 278.2246
SMILES: CCCCC\C=C/C\C=C/C\C=C/CCCCC(O)=O
InChI: InChI=1S/C18H30O2/c1-2-3-4-5-6-7-8-9-10-11-12-13-14-15-16-17-18(19)20/h6-7,9-10,12-13H,2-5,8,11,14-17H2,1H3,(H,19,20)/b7-6-,10-9-,13-12-
Instrument: Agilent 6560 QTOF
Instrument type: LC-ESI-QTOF
Ms type: MS2
Ion mode: NEGATIVE
Ionization: ESI
Fragmentation mode: CID
Collision energy: 20 eV
Resolution: 7000
Column name: N/A
Retention time: 0.211 min
Base peak: 357.1898
Precursor m/z: 337.2384
Precursor type: [M+CH3COO]-
Precursor intensity: 33544
m/z	relative intensity	assigned
124.2427	7	C5H32O2-
135.2132	7	C9H27-
170.0186	6	C14H2-
195.1018	28	C11H15O3-
242.1147	21	C19H14-
255.2332	999	C16H31O2-
256.2356	62	C16H32O2-
