Mass spectrum: Thyroxine; LC-ESI-QTOF; MS2; CE: 40eV; R=7000; [M-H]-
Name: Thyroxine
Name: Levothyroxine
Name: (2S)-2-amino-3-[4-(4-hydroxy-3,5-diiodophenoxy)-3,5-diiodophenyl]propanoic acid
Formula: C15H11I4NO4
Exact mass: 776.6867
SMILES: N[C@@H](CC1=CC(I)=C(OC2=CC(I)=C(O)C(I)=C2)C(I)=C1)C(O)=O
InChI: InChI=1S/C15H11I4NO4/c16-8-4-7(5-9(17)13(8)21)24-14-10(18)1-6(2-11(14)19)3-12(20)15(22)23/h1-2,4-5,12,21H,3,20H2,(H,22,23)/t12-/m0/s1
Instrument: Agilent 6560 QTOF
Instrument type: LC-ESI-QTOF
Ms type: MS2
Ion mode: NEGATIVE
Ionization: ESI
Fragmentation mode: CID
Collision energy: 40 eV
Resolution: 7000
Column name: N/A
Retention time: 0.188 min
Base peak: 255.2324
Precursor m/z: 775.6794
Precursor type: [M-H]-
Precursor intensity: 178321
m/z	relative intensity	assigned
72.0081	13	C2H2NO2-
119.0596	1	C4H9NO3-
126.9038	999	I-
204.9145	3	C5H2IO-
253.8041	4	I2-
277.9499	1	C11H5IN-
279.8989	2	C10HIO2-
292.9431	8	C12H6IO-
304.9709	3	C13H8IN-
334.9527	2	C14H8IO2-
344.8221	1	C6H3I2O-
359.8134	22	C6H2I2O2-
359.8673	1	C4H10I2O3-
370.8414	3	C8H5I2O-
384.8183	1	C8H3I2O2-
447.844	15	C13H6I2O2-
448.8565	1	C13H7I2O2-
461.8548	14	C13H6I2NO2-
462.858	2	C13H7I2NO2-
475.8504	4	C14H6I2O3-
476.8685	10	C14H9I2NO2-
485.7027	3	C6HI3O2-
501.8413	2	C15H6I2NO3-
504.836	2	C14H5I2NO4-
560.7307	3	C12H4I3O2-
573.7383	5	C13H5I3O2-
574.7487	146	C13H6I3O2-
575.7591	14	C13H7I3O2-
576.7013	1	C15I3O-
586.7518	2	C14H6I3O2-
588.7651	26	C14H8I3O2-
589.7645	3	C13H7I3NO2-
602.7364	3	C13H4I3NO3-
603.7592	7	C14H7I3O3-
604.7865	2	C14H10I3NO2-
631.744	4	C15H7I3O4-
647.7607	1	C15H9I3NO4-
680.6545	1	C14H5I4-
701.6456	3	C12H4I4NO2-
702.6564	5	C12H5I4NO2-
730.6563	7	C14H7I4O3-
731.6447	3	C13H6I4NO3-
758.6431	7	C14H5I4NO4-
775.6823	1	C15H10I4NO4-
