Mass spectrum: Tributyl acetylcitrate; LC-ESI-QTOF; MS2; CE: 20eV; R=7000; [M+H]+
Name: Tributyl acetylcitrate
Name: Acetyl tributyl citrate
Name: tributyl 2-acetyloxypropane-1,2,3-tricarboxylate
Formula: C20H34O8
Exact mass: 402.2254
SMILES: CCCCOC(=O)CC(CC(=O)OCCCC)(C(=O)OCCCC)OC(=O)C
InChI: InChI=1S/C20H34O8/c1-5-8-11-25-17(22)14-20(28-16(4)21,19(24)27-13-10-7-3)15-18(23)26-12-9-6-2/h5-15H2,1-4H3
Instrument: Agilent 6560 QTOF
Instrument type: LC-ESI-QTOF
Ms type: MS2
Ion mode: POSITIVE
Ionization: ESI
Fragmentation mode: CID
Collision energy: 20 eV
Resolution: 7000
Retention time: 0.110 min
Base peak: 425.2153
Precursor m/z: 403.2326
Precursor type: [M+H]+
Precursor intensity: 116370.18
m/z	relative intensity	assigned
57.0702	89	C4H9+
61.029	51	C2H5O2+
68.9977	59	C3HO2+
87.0061	9	C3H3O3+
111.0078	165	C5H3O3+
113.0246	7	C5H5O3+
129.0182	999	C5H5O4+
139.0022	474	C6H3O4+
157.0127	99	C6H5O5+
158.0146	7	C13H2+
185.0806	342	C9H13O4+
213.0743	4	C10H13O5+
217.0344	10	C8H9O7+
259.1526	4	C13H23O5+
