Mass spectrum: Cortisone; LC-ESI-QTOF; MS2; CE: 10eV; R=7000; [M+Cl]-
Name: Cortisone
Name: (8S,9S,10R,13S,14S,17R)-17-hydroxy-17-(2-hydroxyacetyl)-10,13-dimethyl-1,2,6,7,8,9,12,14,15,16-decahydrocyclopenta[a]phenanthrene-3,11-dione
Formula: C21H28O5
Exact mass: 360.1937
SMILES: C[C@]12CCC(=O)C=C1CC[C@@H]3[C@@H]2C(=O)C[C@]4([C@H]3CC[C@@]4(C(=O)CO)O)C
InChI: InChI=1S/C21H28O5/c1-19-7-5-13(23)9-12(19)3-4-14-15-6-8-21(26,17(25)11-22)20(15,2)10-16(24)18(14)19/h9,14-15,18,22,26H,3-8,10-11H2,1-2H3/t14-,15-,18+,19-,20-,21-/m0/s1
Instrument: Agilent 6560 QTOF
Instrument type: LC-ESI-QTOF
Ms type: MS2
Ion mode: NEGATIVE
Ionization: ESI
Fragmentation mode: CID
Collision energy: 10 eV
Resolution: 7000
Column name: N/A
Retention time: 0.163 min
Base peak: 329.1762
Precursor m/z: 395.1631
Precursor type: [M+Cl]-
Precursor intensity: 415875
m/z	relative intensity	assigned
73.0284	57	C3H5O2-
75.1528	9	ClH24O-
77.1188	10	CH17O3-
80.981	8	HO5-
82.042	9	C5H6O-
83.0839	11	ClH16O2-
84.1651	9	C2H25Cl-
84.9841	9	C4H2Cl-
86.0482	11	C2H11ClO-
87.0072	9	C3H3O3-
87.1167	8	ClH20O2-
89.0476	8	H9O5-
95.048	9	ClH12O3-
95.1091	10	C4H15O2-
95.1792	9	ClH28O2-
96.1002	9	H16O5-
102.1156	8	C4H19Cl-
102.9572	10	C3ClO2-
103.0508	9	C2H12ClO2-
105.0352	12	C7H5O-
105.1488	9	C3H21O3-
109.0085	10	C9H-
109.0511	11	C3H9O4-
109.0658	9	C7H9O-
109.1008	11	C2H18ClO2-
115.1939	8	C2H27O4-
115.9887	9	CH5ClO4-
117.0346	9	C8H5O-
119.0689	9	C5H11O3-
119.1056	11	ClH20O4-
131.1662	11	C5H23O3-
134.9838	9	C4H4ClO3-
137.0231	9	CH10ClO5-
137.9844	10	C7H3ClO-
138.03	10	CH11ClO5-
142.0215	8	C7H7ClO-
147.1635	9	C5H23O4-
148.0408	9	C5H8O5-
148.1492	11	C8H20O2-
150.1286	9	C7H18O3-
151.0711	9	C3H16ClO4-
151.1484	10	C11H19-
152.1196	9	C10H16O-
157.1961	8	C11H25-
158.1546	9	C6H22O4-
159.1255	8	C5H19O5-
160.0056	9	C10H5Cl-
161.1585	9	C9H21O2-
164.1564	11	C12H20-
167.0447	9	C6H12ClO3-
170.9856	10	C7H4ClO3-
172.0486	11	C5H13ClO4-
172.1357	9	C6H20O5-
174.9994	27	C10H4ClO-
179.1039	51	C5H20ClO4-
179.1541	12	C10H24Cl-
181.082	9	C4H18ClO5-
181.177	11	C9H25O3-
193.0331	16	C13H5O2-
195.0988	9	C5H20ClO5-
197.1189	8	C11H17O3-
198.1657	9	C12H22O2-
201.9853	9	C11H3ClO2-
202.1658	10	C9H27ClO2-
207.9593	11	C9HClO4-
209.1666	10	C11H26ClO-
210.1367	11	C10H23ClO2-
211.9836	9	C9H5ClO4-
212.1	9	C12H17ClO-
212.1354	8	C13H21Cl-
216.0204	10	C9H9ClO4-
216.0605	13	C16H8O-
217.2009	10	C16H25-
221.9965	11	C13H2O4-
223.0362	9	C8H12ClO5-
227.0283	9	C14H8ClO-
227.1528	14	C14H24Cl-
231.0204	9	C13H8ClO2-
231.12	11	C18H15-
232.0286	11	C13H9ClO2-
236.0191	10	C12H9ClO3-
236.0767	8	C10H17ClO4-
238.9875	9	C14H4ClO2-
239.0838	11	C13H16ClO2-
241.185	12	C14H25O3-
245.0188	8	C17H6Cl-
246.0932	9	C14H14O4-
249.075	10	C13H13O5-
249.1761	9	C12H25O5-
251.9768	10	C18HCl-
253.1169	12	C11H22ClO4-
253.1653	9	C18H21O-
259.9612	10	C16HClO2-
261.1702	12	C13H25O5-
261.9804	10	C16H3ClO2-
263.1397	10	C13H24ClO3-
265.0116	8	C15H5O5-
266.9863	10	C15H4ClO3-
269.0381	8	C16H10ClO2-
269.1375	9	C14H21O5-
270.1221	9	C11H23ClO5-
274.1135	9	C17H19ClO-
276.145	8	C14H25ClO3-
278.9814	21	C16H4ClO3-
279.0574	10	C18H12ClO-
281.0609	8	C20H9O2-
283.0731	10	C14H16ClO4-
284.0936	10	C18H17ClO-
284.134	8	C19H21Cl-
284.1963	11	C16H28O4-
285.1844	11	C19H25O2-
288.137	9	C17H20O4-
289.9958	11	C21H3Cl-
290.0861	10	C20H15Cl-
291.1161	11	C17H20ClO2-
295.2068	10	C21H27O-
297.1108	10	C18H17O4-
298.1039	9	C21H14O2-
301.1786	90	C19H25O3-
302.1463	9	C19H23ClO-
305.0601	9	C16H14ClO4-
306.9594	8	C20ClO2-
308.0804	10	C16H17ClO4-
309.0023	9	C17H6ClO4-
310.1766	9	C17H26O5-
311.1362	9	C17H24ClO3-
311.1614	22	C14H28ClO5-
315.9851	11	C21O4-
316.1336	11	C18H20O5-
317.1502	9	C16H26ClO4-
318.0237	9	C16H11ClO5-
319.0363	9	C16H12ClO5-
321.1775	9	C18H25O5-
325.1452	13	C20H21O4-
326.0755	8	C19H15ClO3-
328.0466	31	C18H13ClO4-
329.1774	418	C20H25O4-
330.0288	24	C17H11ClO5-
330.185	81	C20H26O4-
337.9726	9	C21H3ClO3-
339.0939	11	C17H20ClO5-
346.034	8	C21H11ClO3-
348.1511	9	C20H25ClO3-
349.1148	11	C19H22ClO4-
356.1447	11	C18H25ClO5-
357.0523	9	C19H14ClO5-
368.0368	11	C20H13ClO5-
372.1224	8	C21H21ClO4-
395.165	999	C21H28ClO5-
