Mass spectrum: 4-Nonylphenol; LC-ESI-QTOF; MS2; CE: 10eV; R=7000; [M-H]-
Name: 4-Nonylphenol
Formula: C15H24O
Exact mass: 220.1827
SMILES: CCCCCCCCCC1=CC=C(C=C1)O
InChI: InChI=1S/C15H24O/c1-2-3-4-5-6-7-8-9-14-10-12-15(16)13-11-14/h10-13,16H,2-9H2,1H3
Instrument: Agilent 6560 QTOF
Instrument type: LC-ESI-QTOF
Ms type: MS2
Ion mode: NEGATIVE
Ionization: ESI
Fragmentation mode: CID
Collision energy: 10 eV
Resolution: 7000
Column name: ZORBAX Extend-C18 3.5um, 2.1x50mm, Agilent Technologies
Retention time: 6.203 min
Base peak: 955.9737
Precursor m/z: 219.1754
Precursor type: [M-H]-
Precursor intensity: 3554.29
m/z	relative intensity	assigned
106.0414	197	C7H6O-
219.1765	999	C15H23O-
