Mass spectrum: Dipropyleneglycol-dibenzoate; LC-ESI-QTOF; MS2; CE: 20eV; R=7000; [M+H]+
Name: Dipropyleneglycol-dibenzoate
Name: Di(propylene glycol) dibenzoate
Name: 1-(2-benzoyloxypropoxy)propan-2-yl benzoate
Formula: C20H22O5
Exact mass: 342.1467
SMILES: CC(COCC(C)OC(=O)C1=CC=CC=C1)OC(=O)C1=CC=CC=C1
InChI: InChI=1S/C20H22O5/c1-15(24-19(21)17-9-5-3-6-10-17)13-23-14-16(2)25-20(22)18-11-7-4-8-12-18/h3-12,15-16H,13-14H2,1-2H3
Instrument: Agilent 6560 QTOF
Instrument type: LC-ESI-QTOF
Ms type: MS2
Ion mode: POSITIVE
Ionization: ESI
Fragmentation mode: CID
Collision energy: 20 eV
Resolution: 7000
Column name: ZORBAX Extend-C18 3.5um, 2.1x50mm, Agilent Technologies
Retention time: 5.387 min
Base peak: 365.1373
Precursor m/z: 343.154
Precursor type: [M+H]+
Precursor intensity: 34053.24
m/z	relative intensity	assigned
77.039	39	C6H5+
91.0533	9	C7H7+
105.0334	999	C7H5O+
163.0751	462	C10H11O2+
