Mass spectrum: Cortisone; LC-ESI-QTOF; MS2; CE: 40eV; R=7000; [M-H]-
Name: Cortisone
Name: (8S,9S,10R,13S,14S,17R)-17-hydroxy-17-(2-hydroxyacetyl)-10,13-dimethyl-1,2,6,7,8,9,12,14,15,16-decahydrocyclopenta[a]phenanthrene-3,11-dione
Formula: C21H28O5
Exact mass: 360.1937
SMILES: C[C@]12CCC(=O)C=C1CC[C@@H]3[C@@H]2C(=O)C[C@]4([C@H]3CC[C@@]4(C(=O)CO)O)C
InChI: InChI=1S/C21H28O5/c1-19-7-5-13(23)9-12(19)3-4-14-15-6-8-21(26,17(25)11-22)20(15,2)10-16(24)18(14)19/h9,14-15,18,22,26H,3-8,10-11H2,1-2H3/t14-,15-,18+,19-,20-,21-/m0/s1
Instrument: Agilent 6560 QTOF
Instrument type: LC-ESI-QTOF
Ms type: MS2
Ion mode: NEGATIVE
Ionization: ESI
Fragmentation mode: CID
Collision energy: 40 eV
Resolution: 7000
Column name: N/A
Retention time: 0.214 min
Base peak: 327.16
Precursor m/z: 359.1864
Precursor type: [M-H]-
Precursor intensity: 215994
m/z	relative intensity	assigned
81.0355	347	C5H5O-
81.0729	44	C6H9-
98.1525	23	CH22O4-
101.0396	20	C8H5-
109.0668	265	C7H9O-
111.0821	177	C7H11O-
113.061	182	C6H9O2-
122.0377	123	C7H6O2-
123.0458	415	C7H7O2-
123.0832	274	C8H11O-
129.9912	19	C4H2O5-
130.0654	28	C6H10O3-
135.0419	82	C8H7O2-
136.0528	281	C8H8O2-
137.0591	999	C8H9O2-
143.0933	23	C4H15O5-
148.0547	53	C9H8O2-
149.0584	466	C9H9O2-
149.1168	34	C7H17O3-
151.0757	33	C9H11O2-
158.0613	22	C7H10O4-
162.0677	286	C10H10O2-
162.1458	48	C5H22O5-
163.0739	309	C10H11O2-
171.0841	69	C12H11O-
171.9776	20	C9O4-
180.0824	42	C10H12O3-
181.0477	474	C9H9O4-
187.1568	26	C7H23O5-
192.0032	23	C16-
195.0853	19	C14H11O-
223.1443	23	C17H19-
224.0113	19	C13H4O4-
235.1533	19	C11H23O5-
237.1293	19	C17H17O-
243.1437	175	C16H19O2-
243.181	38	C17H23O-
244.1213	20	C19H16-
247.072	19	C17H11O2-
250.0966	81	C17H14O2-
250.1307	37	C18H18O-
255.009	25	C17H3O3-
261.0766	20	C14H13O5-
267.1444	19	C18H19O2-
271.1326	90	C17H19O3-
277.1824	49	C17H25O3-
280.1357	22	C15H20O5-
283.1329	117	C18H19O3-
286.1365	84	C21H18O-
292.1743	20	C17H24O4-
310.1711	23	C17H26O5-
313.0479	26	C20H9O4-
313.0832	23	C21H13O3-
320.1358	22	C21H20O3-
321.0272	22	C21H5O4-
347.1818	20	C20H27O5-
