Mass spectrum: 1-Dehydrotestosterone; LC-ESI-QTOF; MS2; CE: 10eV; R=7000; [M-H2O+H]+
Name: 1-Dehydrotestosterone
Name: Boldenone
Name: (8R,9S,10R,13S,14S,17S)-17-hydroxy-10,13-dimethyl-6,7,8,9,11,12,14,15,16,17-decahydrocyclopenta[a]phenanthren-3-one
Formula: C19H26O2
Exact mass: 286.1933
SMILES: C[C@]12CC[C@H]3[C@H]([C@@H]1CC[C@@H]2O)CCC4=CC(=O)C=C[C@]34C
InChI: InChI=1S/C19H26O2/c1-18-9-7-13(20)11-12(18)3-4-14-15-5-6-17(21)19(15,2)10-8-16(14)18/h7,9,11,14-17,21H,3-6,8,10H2,1-2H3/t14-,15-,16-,17-,18-,19-/m0/s1
Instrument: Agilent 6560 QTOF
Instrument type: LC-ESI-QTOF
Ms type: MS2
Ion mode: POSITIVE
Ionization: ESI
Fragmentation mode: CID
Collision energy: 10 eV
Resolution: 7000
Column name: Direct injection
Retention time: 0.183 min
Base peak: 287.201
Precursor m/z: 269.19
Precursor type: [M-H2O+H]+
Precursor intensity: 112328
m/z	relative intensity	assigned
77.039	26	C6H5+
79.0556	34	C6H7+
81.0686	50	C6H9+
91.0538	46	C7H7+
93.069	87	C7H9+
95.0851	27	C7H11+
105.0709	32	C8H9+
107.0857	12	C8H11+
109.1036	32	C8H13+
119.0848	43	C9H11+
121.0649	999	C8H9O+
123.1153	10	C9H15+
129.071	7	C10H9+
131.0854	12	C10H11+
133.0636	44	C9H9O+
133.0985	27	C10H13+
135.0812	100	C9H11O+
135.1167	374	C10H15+
144.0565	13	C10H8O+
145.0642	9	C10H9O+
147.08	109	C10H11O+
147.1186	34	C11H15+
149.133	183	C11H17+
155.085	9	C12H11+
158.0705	7	C11H10O+
159.0814	154	C11H11O+
159.117	18	C12H15+
161.0971	15	C11H13O+
161.1316	96	C12H17+
173.0959	262	C12H13O+
175.108	9	C12H15O+
187.1116	56	C13H15O+
187.1461	25	C14H19+
199.1123	22	C14H15O+
213.1244	35	C15H17O+
227.1401	12	C16H19O+
269.1961	150	C19H25O+
