Mass spectrum: N-Palmitoyl-D-sphingosine; LC-ESI-QTOF; MS2; CE: 40eV; R=7000; [M-H2O+H]+
Name: N-Palmitoyl-D-sphingosine
Name: N-Palmitoylsphingosine
Name: N-[(E,2S,3R)-1,3-dihydroxyoctadec-4-en-2-yl]hexadecanamide
Formula: C34H67NO3
Exact mass: 537.5121
SMILES: [H][C@@](CO)(NC(=O)CCCCCCCCCCCCCCC)[C@H](O)\C=C\CCCCCCCCCCCCC
InChI: InChI=1S/C34H67NO3/c1-3-5-7-9-11-13-15-17-19-21-23-25-27-29-33(37)32(31-36)35-34(38)30-28-26-24-22-20-18-16-14-12-10-8-6-4-2/h27,29,32-33,36-37H,3-26,28,30-31H2,1-2H3,(H,35,38)/b29-27+/t32-,33+/m0/s1
Instrument: Agilent 6560 QTOF
Instrument type: LC-ESI-QTOF
Ms type: MS2
Ion mode: POSITIVE
Ionization: ESI
Fragmentation mode: CID
Collision energy: 40 eV
Resolution: 7000
Column name: Direct injection
Retention time: 0.152 min
Base peak: 560.5031
Precursor m/z: 520.5088
Precursor type: [M-H2O+H]+
Precursor intensity: 75548
m/z	relative intensity	assigned
70.0647	16	C4H8N+
71.0854	96	C5H11+
77.0381	8	C6H5+
79.0546	21	C6H7+
80.061	20	C6H8+
81.0694	60	C6H9+
82.0652	278	C5H8N+
83.0858	20	C6H11+
84.0802	6	C5H10N+
85.1	8	C6H13+
86.0618	19	C4H8NO+
91.0534	10	C7H7+
95.0726	21	C6H9N+
95.0858	68	C7H11+
96.0803	47	C6H10N+
107.0857	17	C8H11+
109.1009	30	C8H13+
110.0957	10	C7H12N+
116.1062	3	C6H14NO+
121.0997	20	C9H13+
123.1155	11	C9H15+
135.1169	14	C10H15+
156.1734	7	C10H22N+
236.276	3	C14H36O2+
252.2696	21	C17H34N+
253.2719	17	C17H35N+
254.2838	5	C17H36N+
256.2605	9	C16H34NO+
264.2695	999	C18H34N+
280.2604	5	C18H34NO+
282.2783	39	C18H36NO+
323.355	2	C22H45N+
