Mass spectrum: Mono(2-ethylhexyl) adipate; LC-ESI-QTOF; MS2; CE: 25eV; R=7000; [M-H]-
Name: Mono(2-ethylhexyl) adipate
Name: 6-(2-ethylhexoxy)-6-oxohexanoic acid
Formula: C14H26O4
Exact mass: 258.1831
SMILES: CCCCC(CC)COC(=O)CCCCC(=O)O
InChI: InChI=1S/C14H26O4/c1-3-5-8-12(4-2)11-18-14(17)10-7-6-9-13(15)16/h12H,3-11H2,1-2H3,(H,15,16)
Instrument: Agilent 6560 QTOF
Instrument type: LC-ESI-QTOF
Ms type: MS2
Ion mode: NEGATIVE
Ionization: ESI
Fragmentation mode: CID
Collision energy: 25 eV
Resolution: 7000
Column name: ZORBAX Extend-C18 3.5um, 2.1x50mm, Agilent Technologies
Retention time: 4.888 min
Base peak: 257.1763
Precursor m/z: 257.1758
Precursor type: [M-H]-
Precursor intensity: 62060.38
m/z	relative intensity	assigned
53.0401	41	C4H5-
81.0351	999	C5H5O-
83.051	993	C5H7O-
127.1129	182	C8H15O-
