Mass spectrum: Myristoyl-L-carnitine; LC-ESI-QTOF; MS2; CE: 40eV; R=7000; [M+H]+
Name: Myristoyl-L-carnitine
Name: Myristoylcarnitine
Name: 3-tetradecanoyloxy-4-(trimethylazaniumyl)butanoate
Formula: C21H41NO4
Exact mass: 371.3036
SMILES: O(C(CCCCCCCCCCCCC)=O)C(CC(=O)[O-])C[N+](C)(C)C
InChI: InChI=1S/C21H41NO4/c1-5-6-7-8-9-10-11-12-13-14-15-16-21(25)26-19(17-20(23)24)18-22(2,3)4/h19H,5-18H2,1-4H3
Instrument: Agilent 6560 QTOF
Instrument type: LC-ESI-QTOF
Ms type: MS2
Ion mode: POSITIVE
Ionization: ESI
Fragmentation mode: CID
Collision energy: 40 eV
Resolution: 7000
Column name: Direct injection
Retention time: 0.153 min
Base peak: 372.312
Precursor m/z: 372.3108
Precursor type: [M+H]+
Precursor intensity: 556419
m/z	relative intensity	assigned
71.0494	1	C4H7O+
71.0863	10	C5H11+
79.054	1	C6H7+
81.07	5	C6H9+
85.0281	999	C4H5O2+
95.0845	11	C7H11+
98.0964	1	C6H12N+
103.0387	1	C4H7O3+
103.0746	2	C5H11O2+
109.1004	2	C8H13+
129.0756	1	C6H11NO2+
144.1012	17	C7H14NO2+
162.1098	1	C7H16NO3+
