Mass spectrum: Prostaglandin A1; LC-ESI-QTOF; MS2; CE: 10eV; R=7000; [M-H2O+H]+
Name: Prostaglandin A1
Name: 7-[(1R,2S)-2-[(E,3S)-3-hydroxyoct-1-enyl]-5-oxocyclopent-3-en-1-yl]heptanoic acid
Formula: C20H32O4
Exact mass: 336.2301
SMILES: CCCCC[C@@H](/C=C/[C@H]1C=CC(=O)[C@@H]1CCCCCCC(=O)O)O
InChI: InChI=1S/C20H32O4/c1-2-3-6-9-17(21)14-12-16-13-15-19(22)18(16)10-7-4-5-8-11-20(23)24/h12-18,21H,2-11H2,1H3,(H,23,24)/b14-12+/t16-,17-,18+/m0/s1
Instrument: Agilent 6560 QTOF
Instrument type: LC-ESI-QTOF
Ms type: MS2
Ion mode: POSITIVE
Ionization: ESI
Fragmentation mode: CID
Collision energy: 10 eV
Resolution: 7000
Column name: Direct injection
Retention time: 0.181 min
Base peak: 301.2171
Precursor m/z: 319.2268
Precursor type: [M-H2O+H]+
Precursor intensity: 117458
m/z	relative intensity	assigned
79.0527	10	C6H7+
81.0689	93	C6H9+
83.085	8	C6H11+
91.053	37	C7H7+
93.0703	44	C7H9+
95.0859	99	C7H11+
97.0649	16	C6H9O+
97.1012	12	C7H13+
99.0787	14	C6H11O+
105.0696	86	C8H9+
107.0486	8	C7H7O+
107.0832	17	C8H11+
109.0997	16	C8H13+
116.0617	13	C9H8+
117.0693	18	C9H9+
119.0856	60	C9H11+
121.0647	22	C8H9O+
123.0428	17	C7H7O2+
123.0776	9	C8H11O+
125.0949	6	C8H13O+
129.069	46	C10H9+
130.0765	13	C10H10+
131.0879	24	C10H11+
133.0639	57	C9H9O+
133.0996	12	C10H13+
135.1166	75	C10H15+
143.0851	43	C11H11+
145.0621	9	C10H9O+
145.1007	70	C11H13+
147.0807	82	C10H11O+
147.1161	83	C11H15+
149.0979	7	C10H13O+
151.0771	11	C9H11O2+
157.1006	70	C12H13+
159.0776	6	C11H11O+
159.1155	56	C12H15+
161.0194	29	C9H5O3+
161.1333	63	C12H17+
167.0816	4	C13H11+
168.0896	10	C13H12+
169.1019	10	C13H13+
171.0787	11	C12H11O+
171.1145	67	C13H15+
173.1318	76	C13H17+
175.1123	47	C12H15O+
177.1291	70	C12H17O+
178.132	25	C12H18O+
181.1009	11	C14H13+
185.0988	23	C13H13O+
185.1346	43	C14H17+
186.1384	19	C14H18+
187.0717	5	C12H11O2+
187.1479	22	C14H19+
189.128	33	C13H17O+
191.1417	157	C13H19O+
193.1246	7	C12H17O2+
195.1149	6	C15H15+
199.1482	31	C15H19+
201.1295	17	C14H17O+
201.1593	7	C15H21+
203.1422	142	C14H19O+
203.1809	8	C15H23+
205.1192	13	C13H17O2+
209.1305	32	C16H17+
213.1312	17	C15H17O+
213.1595	21	C16H21+
215.1809	11	C16H23+
216.1473	14	C15H20O+
217.1581	37	C15H21O+
224.1521	12	C17H20+
227.1401	14	C16H19O+
228.1518	2	C16H20O+
229.16	5	C16H21O+
231.1758	12	C16H23O+
232.143	17	C15H20O2+
233.1506	7	C15H21O2+
236.154	6	C18H20+
239.1812	5	C18H23+
241.1583	12	C17H21O+
241.1971	15	C18H25+
245.153	25	C16H21O2+
245.225	12	C18H29+
255.2104	89	C19H27+
259.1688	4	C17H23O2+
259.2041	5	C18H27O+
265.1916	24	C20H25+
273.2209	213	C19H29O+
283.2038	153	C20H27O+
301.217	999	C20H29O2+
302.2202	157	C20H30O2+
319.2273	124	C20H31O3+
