Mass spectrum: 4-((4-(Allyloxy)phenyl)sulfonyl)phenol; LC-ESI-QTOF; MS2; CE: 5eV; R=7000; [M-H]-
Name: 4-((4-(Allyloxy)phenyl)sulfonyl)phenol
Name: 4-(4-prop-2-enoxyphenyl)sulfonylphenol
Formula: C15H14O4S
Exact mass: 290.0613
SMILES: C=CCOC1=CC=C(C=C1)S(=O)(=O)C2=CC=C(C=C2)O
InChI: InChI=1S/C15H14O4S/c1-2-11-19-13-5-9-15(10-6-13)20(17,18)14-7-3-12(16)4-8-14/h2-10,16H,1,11H2
Instrument: Agilent 6560 QTOF
Instrument type: LC-ESI-QTOF
Ms type: MS2
Ion mode: NEGATIVE
Ionization: ESI
Fragmentation mode: CID
Collision energy: 5 eV
Resolution: 7000
Retention time: 0.132 min
Base peak: 289.0549
Precursor m/z: 289.054
Precursor type: [M-H]-
Precursor intensity: 341030.27
m/z	relative intensity	assigned
91.019	2	C6H3O-
92.0275	6	C6H4O-
108.0221	16	C6H4O2-
128.0617	1	C10H8-
139.9925	4	C6H4O2S-
143.0516	1	C10H7O-
155.9891	8	C6H4O3S-
156.058	8	C11H8O-
183.0456	3	C12H7O2-
184.0531	45	C12H8O2-
247.0081	1	C12H7O4S-
248.0151	999	C12H8O4S-
249.0185	27	C15H5O4-
289.0534	41	C15H13O4S-
