Mass spectrum: Isodecyl diphenyl phosphate; LC-ESI-QTOF; MS2; CE: 55eV; R=7000; [M+H]+
Name: Isodecyl diphenyl phosphate
Name: 8-methylnonyl diphenyl phosphate
Formula: C22H31O4P
Exact mass: 390.1960
SMILES: CC(C)CCCCCCCOP(=O)(OC1=CC=CC=C1)OC2=CC=CC=C2
InChI: InChI=1S/C22H31O4P/c1-20(2)14-8-4-3-5-13-19-24-27(23,25-21-15-9-6-10-16-21)26-22-17-11-7-12-18-22/h6-7,9-12,15-18,20H,3-5,8,13-14,19H2,1-2H3
Instrument: Agilent 6560 QTOF
Instrument type: LC-ESI-QTOF
Ms type: MS2
Ion mode: POSITIVE
Ionization: ESI
Fragmentation mode: CID
Collision energy: 55 eV
Resolution: 7000
Retention time: 0.108 min
Base peak: 251.0465
Precursor m/z: 391.2033
Precursor type: [M+H]+
Precursor intensity: 58771.5
m/z	relative intensity	assigned
51.0233	78	C4H3+
55.0541	15	C4H7+
57.0706	53	C4H9+
65.0398	17	C5H5+
77.0388	999	C6H5+
93.0339	13	C6H5O+
95.0486	81	C6H7O+
127.0533	9	C10H7+
138.9951	16	C6H4O2P+
151.0529	26	C5H12O3P+
152.0618	298	C12H8+
153.0676	104	C5H14O3P+
154.0718	10	C5H15O3P+
157.0019	13	C6H6O3P+
168.0564	36	C12H8O+
175.0156	80	C6H8O4P+
187.0299	19	C11H8OP+
215.0245	56	C12H8O2P+
251.0459	19	C12H12O4P+
