Mass spectrum: Di-n-butyl phosphate; LC-ESI-QTOF; MS2; CE: 30eV; R=7000; [M-H]-
Name: Di-n-butyl phosphate
Name: Dibutyl phosphate
Name: dibutyl hydrogen phosphate
Formula: C8H19O4P
Exact mass: 210.1021
SMILES: CCCCOP(=O)(O)OCCCC
InChI: InChI=1S/C8H19O4P/c1-3-5-7-11-13(9,10)12-8-6-4-2/h3-8H2,1-2H3,(H,9,10)
Instrument: Agilent 6560 QTOF
Instrument type: LC-ESI-QTOF
Ms type: MS2
Ion mode: NEGATIVE
Ionization: ESI
Fragmentation mode: CID
Collision energy: 30 eV
Resolution: 7000
Retention time: 0.149 min
Base peak: 209.0954
Precursor m/z: 209.0948
Precursor type: [M-H]-
Precursor intensity: 162959.48
m/z	relative intensity	assigned
62.9637	137	O2P-
76.9779	1	CH2O2P-
78.9583	999	O3P-
96.9678	2	H2O4P-
110.985	1	CH4O4P-
