Mass spectrum: 5,6-Dimethylbenzotriazole; LC-ESI-QTOF; MS2; CE: 5eV; R=7000; [M+H]+
Name: 5,6-Dimethylbenzotriazole
Name: 5,6-Dimethyl-1H-benzotriazole
Name: 5,6-dimethyl-2H-benzotriazole
Formula: C8H9N3
Exact mass: 147.0796
SMILES: CC1=CC2=NNN=C2C=C1C
InChI: InChI=1S/C8H9N3/c1-5-3-7-8(4-6(5)2)10-11-9-7/h3-4H,1-2H3,(H,9,10,11)
Instrument: Agilent 6560 QTOF
Instrument type: LC-ESI-QTOF
Ms type: MS2
Ion mode: POSITIVE
Ionization: ESI
Fragmentation mode: CID
Collision energy: 5 eV
Resolution: 7000
Retention time: 0.151 min
Base peak: 148.0868
Precursor m/z: 148.0869
Precursor type: [M+H]+
Precursor intensity: 79146.01
m/z	relative intensity	assigned
77.0387	11	C6H5+
80.0483	3	C5H6N+
91.0539	9	C7H7+
93.0699	16	C7H9+
103.0544	6	C8H7+
104.0479	3	C7H6N+
120.0804	17	C8H10N+
148.0868	999	C8H10N3+
