Mass spectrum: Bisphenol AF; LC-ESI-QTOF; MS2; CE: 30eV; R=7000; [M-H]-
Name: Bisphenol AF
Name: 4-[1,1,1,3,3,3-hexafluoro-2-(4-hydroxyphenyl)propan-2-yl]phenol
Formula: C15H10F6O2
Exact mass: 336.0585
SMILES: C1=CC(=CC=C1C(C2=CC=C(C=C2)O)(C(F)(F)F)C(F)(F)F)O
InChI: InChI=1S/C15H10F6O2/c16-14(17,18)13(15(19,20)21,9-1-5-11(22)6-2-9)10-3-7-12(23)8-4-10/h1-8,22-23H
Instrument: Agilent 6560 QTOF
Instrument type: LC-ESI-QTOF
Ms type: MS2
Ion mode: NEGATIVE
Ionization: ESI
Fragmentation mode: CID
Collision energy: 30 eV
Resolution: 7000
Retention time: 0.187 min
Base peak: 335.0528
Precursor m/z: 335.0512
Precursor type: [M-H]-
Precursor intensity: 369026.21
m/z	relative intensity	assigned
68.996	174	CF3-
108.9901	1	C3F3O-
111.0249	34	C6H4FO-
149.0393	9	C4H6F5-
150.0437	1	C4H7F5-
154.0217	1	C3H4F6-
161.0216	12	C7H4F3O-
167.0501	1	C4H8F5O-
169.0452	11	C4H7F6-
177.0343	39	C5H6F5O-
178.0399	3	C8H6F4-
195.0446	24	C5H8F5O2-
196.0502	4	C11H7F3-
197.0409	71	C13H6FO-
198.0461	10	C8H7F5-
205.0293	14	C6H6F5O2-
206.0361	2	C9H6F4O-
207.025	3	C6H5F6O-
215.0513	1	C5H9F6O2-
216.0397	6	C13H6F2O-
217.0456	5	C8H7F6-
219.0416	1	C13H6F3-
222.0118	2	C6H4F6O2-
224.0274	4	C6H6F6O2-
225.0356	58	C6H7F6O2-
226.0427	12	C9H7F5O-
227.032	10	C11H6F3O2-
235.0191	2	C10H4F5O-
237.052	1	C13H8F3O-
244.0338	52	C14H6F2O2-
245.0421	85	C14H7F2O2-
246.047	9	C12H7F5-
247.0344	1	C14H6F3O-
255.026	6	C15H5F2O2-
264.0406	1	C14H7F3O2-
265.0483	999	C14H8F3O2-
266.0516	74	C12H8F6-
275.0312	6	C13H5F6-
276.0366	1	C13H6F6-
294.0285	1	C15H6F4O2-
295.0385	10	C15H7F4O2-
