Mass spectrum: 2-Ethylhexyl diphenyl phosphate; LC-ESI-QTOF; MS2; CE: 15eV; R=7000; [M+Na]+
Name: 2-Ethylhexyl diphenyl phosphate
Formula: C20H27O4P
Exact mass: 362.1647
SMILES: CCCCC(CC)COP(=O)(OC1=CC=CC=C1)OC2=CC=CC=C2
InChI: InChI=1S/C20H27O4P/c1-3-5-12-18(4-2)17-22-25(21,23-19-13-8-6-9-14-19)24-20-15-10-7-11-16-20/h6-11,13-16,18H,3-5,12,17H2,1-2H3
Instrument: Agilent 6560 QTOF
Instrument type: LC-ESI-QTOF
Ms type: MS2
Ion mode: POSITIVE
Ionization: ESI
Fragmentation mode: CID
Collision energy: 15 eV
Resolution: 7000
Retention time: 0.148 min
Base peak: 385.155
Precursor m/z: 385.1539
Precursor type: [M+Na]+
Precursor intensity: 109471.86
m/z	relative intensity	assigned
57.0704	3	C4H9+
273.0282	999	C12H11NaO4P+
274.0312	87	C17H6O4+
385.1539	56	C20H27NaO4P+
