Mass spectrum: CL 14_1_22_1_22_1_22_1; LC-ESI-QTOF; MS2; CE: 10eV; R=7000; [M-H]-
Name: CL 14_1_22_1_22_1_22_1
Name: 1`-[1,2-di-(13Z-docosenoyl)-sn-glycero-3-phospho],3`-[1-(13Z-docosenoyl),2-(9Z-tetradecenoyl)-sn-glycero-3-phospho]-rac-glycerol
Name: [(2R)-2-[(Z)-docos-13-enoyl]oxy-3-[[3-[[(2R)-3-[(Z)-docos-13-enoyl]oxy-2-[(Z)-tetradec-9-enoyl]oxypropoxy]-hydroxyphosphoryl]oxy-2-hydroxypropoxy]-hydroxyphosphoryl]oxypropyl] (Z)-docos-13-enoate
Formula: C89H166O17P2
Exact mass: 1569.1600
SMILES: P(OC[C@]([H])(OC(CCCCCCCCCCC/C=C\CCCCCCCC)=O)COC(CCCCCCCCCCC/C=C\CCCCCCCC)=O)(O)(OCC(O)([H])COP(OC[C@]([H])(OC(CCCCCCC/C=C\CCCC)=O)COC(CCCCCCCCCCC/C=C\CCCCCCCC)=O)(O)=O)=O
InChI: InChI=1S/C89H166O17P2/c1-5-9-13-17-21-25-29-32-35-38-41-44-47-50-54-57-61-65-69-73-86(91)99-79-84(105-88(93)75-71-67-63-59-53-28-24-20-16-12-8-4)81-103-107(95,96)101-77-83(90)78-102-108(97,98)104-82-85(106-89(94)76-72-68-64-60-56-52-49-46-43-40-37-34-31-27-23-19-15-11-7-3)80-100-87(92)74-70-66-62-58-55-51-48-45-42-39-36-33-30-26-22-18-14-10-6-2/h20,24,32-37,83-85,90H,5-19,21-23,25-31,38-82H2,1-4H3,(H,95,96)(H,97,98)/b24-20-,35-32-,36-33-,37-34-/t83?,84-,85-/m1/s1
Instrument: Agilent 6560 QTOF
Instrument type: LC-ESI-QTOF
Ms type: MS2
Ion mode: NEGATIVE
Ionization: ESI
Fragmentation mode: CID
Collision energy: 10 eV
Resolution: 7000
Column name: N/A
Retention time: 0.338 min
Base peak: 980.0164
Precursor m/z: 1568.1528
Precursor type: [M-H]-
Precursor intensity: 30973
m/z	relative intensity	assigned
192.7238	59	H96O6-
203.5984	27	C5H79O4-
207.4348	27	C7H60O2P-
215.2291	124	C3H35O9-
256.1027	97	C16H17OP-
256.1631	132	H34O10P2-
277.7605	136	C15H97-
369.562	64	C22H73O2-
386.218	39	C12H163OP2-
386.9422	27	C4H131O11P-
392.9441	48	C18H2O9P-
401.7175	27	C23H93O2-
486.9135	27	C22O12P-
491.1776	61	C21H31O13-
502.4122	207	C11H67O17P-
553.0253	60	C29H15O8P2-
572.9156	83	C10H134O16P2-
651.9915	170	C35H8O14-
825.6105	232	C58H82OP-
851.4013	454	C50H59O12-
928.1363	131	C66H26O3P2-
1088.5267	136	C60H81O16P-
1151.5362	98	C72H81O9P2-
1208.3508	196	C69H62O16P2-
1321.5041	91	C88H74O10P-
1397.3038	41	C88H55O14P2-
1504.1264	84	C84H161O17P2-
1565.1616	52	C89H162O17P2-
1568.1564	999	C89H165O17P2-
