Mass spectrum: Mono(2-ethyl-5-carboxypentyl) terephthalate; LC-ESI-QTOF; MS2; CE: 25eV; R=7000; [M-H]-
Name: Mono(2-ethyl-5-carboxypentyl) terephthalate
Name: Mono-2-ethyl-5-carboxypentyl terephthalate
Name: 4-(5-carboxy-2-ethylpentoxy)carbonylbenzoic acid
Formula: C16H20O6
Exact mass: 308.1260
SMILES: CCC(CCCC(=O)O)COC(=O)C1=CC=C(C=C1)C(=O)O
InChI: InChI=1S/C16H20O6/c1-2-11(4-3-5-14(17)18)10-22-16(21)13-8-6-12(7-9-13)15(19)20/h6-9,11H,2-5,10H2,1H3,(H,17,18)(H,19,20)
Instrument: Agilent 6560 QTOF
Instrument type: LC-ESI-QTOF
Ms type: MS2
Ion mode: NEGATIVE
Ionization: ESI
Fragmentation mode: CID
Collision energy: 25 eV
Resolution: 7000
Column name: ZORBAX Extend-C18 3.5um, 2.1x50mm, Agilent Technologies
Retention time: 0.795 min
Base peak: 955.9731
Precursor m/z: 307.1187
Precursor type: [M-H]-
Precursor intensity: 11863.74
m/z	relative intensity	assigned
77.0404	184	C6H5-
121.0294	999	C7H5O2-
