Mass spectrum: Hypoxantine; LC-ESI-QTOF; MS2; CE: 40eV; R=5000; [M+H]+
Name: Hypoxantine
Name: CID 790
Name: 3,7-dihydropurin-6-one
Formula: C5H4N4O
Exact mass: 136.0385
SMILES: C1=NC2=C(N1)C(=O)NC=N2
InChI: InChI=1S/C5H4N4O/c10-5-3-4(7-1-6-3)8-2-9-5/h1-2H,(H2,6,7,8,9,10)
Instrument: Agilent 6530 QTOF
Instrument type: LC-ESI-QTOF
Ms type: MS2
Ion mode: POSITIVE
Ionization: ESI
Fragmentation mode: CID
Collision energy: 40 eV
Resolution: 5000
Column name: N/A
Retention time: 0.598 min
Base peak: 121.0508
Precursor m/z: 137.0458
Precursor type: [M+H]+
Precursor intensity: 77720
m/z	relative intensity	assigned
40.0176	161	C2H2N+
55.0293	999	C2H3N2+
65.0137	346	C3HN2+
67.0295	93	C3H3N2+
68.0227	19	C2H2N3+
77.0129	36	C4HN2+
82.0396	73	C3H4N3+
92.024	142	C4H2N3+
94.0378	44	C4H4N3+
110.0337	75	C4H4N3O+
119.0345	76	C5H3N4+
137.0424	17	C5H5N4O+
