Mass spectrum: Tris(1,3-dichloro-2-propyl)phosphate; LC-ESI-QTOF; MS2; CE: 10eV; R=7000; [M+H]+
Name: Tris(1,3-dichloro-2-propyl)phosphate
Name: tris(1,3-dichloropropan-2-yl) phosphate
Formula: C9H15Cl6O4P
Exact mass: 427.8839
SMILES: C(C(CCl)OP(=O)(OC(CCl)CCl)OC(CCl)CCl)Cl
InChI: InChI=1S/C9H15Cl6O4P/c10-1-7(2-11)17-20(16,18-8(3-12)4-13)19-9(5-14)6-15/h7-9H,1-6H2
Instrument: Agilent 6560 QTOF
Instrument type: LC-ESI-QTOF
Ms type: MS2
Ion mode: POSITIVE
Ionization: ESI
Fragmentation mode: CID
Collision energy: 10 eV
Resolution: 7000
Column name: InfinityLab Poroshell 120 EC-C18 2.7Âµm, 3x100mm, Agilent Technologies
Retention time: 8.421 min
Base peak: 430.8887
Precursor m/z: 428.8912
Precursor type: [M+H]+
Precursor intensity: 43060.79
m/z	relative intensity	assigned
74.9991	56	C2H4OP+
80.9736	36	H2O3P+
98.9844	999	CH4ClO3+
172.9741	18	C3H7ClO4P+
208.9531	516	C3H8Cl2O4P+
318.9215	414	C6H12Cl4O4P+
428.8907	149	C9H16Cl6O4P+
