Mass spectrum: XANTHINE; LC-ESI-QTOF; MS2; CE: 20eV; R=5000; [M+H]+
Name: XANTHINE
Name: 3,7-dihydropurine-2,6-dione
Formula: C5H4N4O2
Exact mass: 152.03343
SMILES: O=C1NC2=C(NC=N2)C(=O)N1
InChI: InChI=1S/C5H4N4O2/c10-4-2-3(7-1-6-2)8-5(11)9-4/h1H,(H3,6,7,8,9,10,11)
Instrument: Agilent 6530 QTOF
Instrument type: LC-ESI-QTOF
Ms type: MS2
Ion mode: POSITIVE
Ionization: ESI
Fragmentation mode: CID
Collision energy: 20 eV
Resolution: 5000
Column name: N/A
Retention time: 0.532 min
Base peak: 121.0508
Precursor m/z: 153.0407
Precursor type: [M+H]+
Precursor intensity: 9542
m/z	relative intensity	assigned
135.03	999	C5H3N4O+
