Mass spectrum: 5-Methylbenzotriazole; LC-ESI-QTOF; MS2; CE: 15eV; R=7000; [M-H]-
Name: 5-Methylbenzotriazole
Name: 5-Methyl-1H-benzotriazole
Name: 5-methyl-2H-benzotriazole
Formula: C7H7N3
Exact mass: 133.0640
SMILES: CC1=CC2=NNN=C2C=C1
InChI: InChI=1S/C7H7N3/c1-5-2-3-6-7(4-5)9-10-8-6/h2-4H,1H3,(H,8,9,10)
Instrument: Agilent 6560 QTOF
Instrument type: LC-ESI-QTOF
Ms type: MS2
Ion mode: NEGATIVE
Ionization: ESI
Fragmentation mode: CID
Collision energy: 15 eV
Resolution: 7000
Retention time: 0.188 min
Base peak: 132.0569
Precursor m/z: 132.0567
Precursor type: [M-H]-
Precursor intensity: 42020.62
m/z	relative intensity	assigned
50.004	10	C3N-
64.0194	188	C4H2N-
102.0355	29	C7H4N-
103.0427	267	C7H5N-
104.0502	151	C7H6N-
132.0566	999	C7H6N3-
