Mass spectrum: 11-Deoxycortisol; LC-ESI-QTOF; MS2; CE: 10eV; R=7000; [M-H]-
Name: 11-Deoxycortisol
Name: Reichsteins Substance S
Name: 17-hydroxy-17-(2-hydroxyacetyl)-10,13-dimethyl-2,6,7,8,9,11,12,14,15,16-decahydro-1H-cyclopenta[a]phenanthren-3-one
Formula: C21H30O4
Exact mass: 346.2144
SMILES: CC12CCC(=O)C=C1CCC3C2CCC4(C3CCC4(C(=O)CO)O)C
InChI: InChI=1S/C21H30O4/c1-19-8-5-14(23)11-13(19)3-4-15-16(19)6-9-20(2)17(15)7-10-21(20,25)18(24)12-22/h11,15-17,22,25H,3-10,12H2,1-2H3
Instrument: Agilent 6560 QTOF
Instrument type: LC-ESI-QTOF
Ms type: MS2
Ion mode: NEGATIVE
Ionization: ESI
Fragmentation mode: CID
Collision energy: 10 eV
Resolution: 7000
Column name: N/A
Retention time: 0.241 min
Base peak: 357.1902
Precursor m/z: 345.2071
Precursor type: [M-H]-
Precursor intensity: 27043
m/z	relative intensity	assigned
85.0281	65	C4H5O2-
271.1674	47	C18H23O2-
273.1881	49	C18H25O2-
299.1682	61	C19H23O3-
299.2083	9	C20H27O2-
300.1692	40	C19H24O3-
302.1827	106	C19H26O3-
315.1971	999	C20H27O3-
316.2033	94	C20H28O3-
327.1946	62	C21H27O3-
