Mass spectrum: Cortisol; LC-ESI-QTOF; MS2; CE: 20eV; R=7000; [M-H]-
Name: Cortisol
Name: Hydrocortisone
Name: (8S,9S,10R,11S,13S,14S,17R)-11,17-dihydroxy-17-(2-hydroxyacetyl)-10,13-dimethyl-2,6,7,8,9,11,12,14,15,16-decahydro-1H-cyclopenta[a]phenanthren-3-one
Formula: C21H30O5
Exact mass: 362.2093
SMILES: C[C@]12CCC(=O)C=C1CC[C@@H]3[C@@H]2[C@H](C[C@]4([C@H]3CC[C@@]4(C(=O)CO)O)C)O
InChI: InChI=1S/C21H30O5/c1-19-7-5-13(23)9-12(19)3-4-14-15-6-8-21(26,17(25)11-22)20(15,2)10-16(24)18(14)19/h9,14-16,18,22,24,26H,3-8,10-11H2,1-2H3/t14-,15-,16-,18+,19-,20-,21-/m0/s1
Instrument: Agilent 6560 QTOF
Instrument type: LC-ESI-QTOF
Ms type: MS2
Ion mode: NEGATIVE
Ionization: ESI
Fragmentation mode: CID
Collision energy: 20 eV
Resolution: 7000
Column name: N/A
Retention time: 0.219 min
Base peak: 421.2243
Precursor m/z: 361.202
Precursor type: [M-H]-
Precursor intensity: 8143
m/z	relative intensity	assigned
141.0575	116	C7H9O3-
158.1168	93	C5H18O5-
189.0899	359	C12H13O2-
208.1824	283	C14H24O-
247.1314	235	C15H19O3-
282.1279	999	C18H18O3-
297.1472	438	C19H21O3-
297.1825	57	C20H25O2-
315.0678	103	C20H11O4-
315.1577	107	C19H23O4-
332.1944	458	C20H28O4-
