Mass spectrum: Bisphenol AF; LC-ESI-QTOF; MS2; CE: 35eV; R=7000; [M-H]-
Name: Bisphenol AF
Name: 4-[1,1,1,3,3,3-hexafluoro-2-(4-hydroxyphenyl)propan-2-yl]phenol
Formula: C15H10F6O2
Exact mass: 336.0585
SMILES: C1=CC(=CC=C1C(C2=CC=C(C=C2)O)(C(F)(F)F)C(F)(F)F)O
InChI: InChI=1S/C15H10F6O2/c16-14(17,18)13(15(19,20)21,9-1-5-11(22)6-2-9)10-3-7-12(23)8-4-10/h1-8,22-23H
Instrument: Agilent 6560 QTOF
Instrument type: LC-ESI-QTOF
Ms type: MS2
Ion mode: NEGATIVE
Ionization: ESI
Fragmentation mode: CID
Collision energy: 35 eV
Resolution: 7000
Retention time: 0.186 min
Base peak: 335.0528
Precursor m/z: 335.0512
Precursor type: [M-H]-
Precursor intensity: 317329.53
m/z	relative intensity	assigned
68.996	422	CF3-
73.0089	8	C6H-
84.9913	2	CF3O-
111.0253	87	C6H4FO-
141.035	2	C10H5O-
149.0395	40	C4H6F5-
161.0212	20	C10H3F2-
167.0495	3	C4H8F5O-
168.038	3	C12H5F-
168.0563	4	C7H8F4-
169.046	58	C12H6F-
177.0343	135	C5H6F5O-
178.0385	13	C8H6F4-
189.0508	2	C12H7F2-
195.0453	78	C13H7O2-
196.0344	7	C10H6F2O2-
196.0521	15	C8H8F4O-
197.0411	238	C13H6FO-
198.0454	25	C8H7F5-
205.0295	47	C14H5O2-
207.0245	15	C6H5F6O-
215.051	5	C5H9F6O2-
216.0397	33	C13H6F2O-
217.0477	13	C10H8F3O2-
224.0271	17	C9H5F5O-
225.0355	134	C6H7F6O2-
226.0401	22	C12H6F4-
227.0313	17	C14H5F2O-
235.0202	3	C15H4FO2-
244.034	169	C14H6F2O2-
245.0421	195	C14H7F2O2-
246.0458	22	C12H7F5-
247.0349	4	C14H6F3O-
255.0273	10	C15H5F2O2-
263.0313	2	C14H6F3O2-
265.0484	999	C14H8F3O2-
266.0517	63	C12H8F6-
275.0311	8	C13H5F6-
295.038	7	C15H7F4O2-
