Mass spectrum: 2,4-Di-(2-ethylhexyl) trimellitate ; LC-ESI-QTOF; MS2; CE: 5eV; R=7000; [M-H]-
Name: 2,4-Di-(2-ethylhexyl) trimellitate 
Name: 2,4-bis(2-ethylhexoxycarbonyl)benzoic acid
Formula: C25H38O6
Exact mass: 434.2668
SMILES: CCCCC(CC)COC(=O)c1ccc(C(=O)O)c(C(=O)OCC(CC)CCCC)c1
InChI: InChI=1S/C25H38O6/c1-5-9-11-18(7-3)16-30-24(28)20-13-14-21(23(26)27)22(15-20)25(29)31-17-19(8-4)12-10-6-2/h13-15,18-19H,5-12,16-17H2,1-4H3,(H,26,27)
Instrument: Agilent 6560 QTOF
Instrument type: LC-ESI-QTOF
Ms type: MS2
Ion mode: NEGATIVE
Ionization: ESI
Fragmentation mode: CID
Collision energy: 5 eV
Resolution: 7000
Retention time: 0.150 min
Base peak: 433.2613
Precursor m/z: 433.2596
Precursor type: [M-H]-
Precursor intensity: 153684.86
m/z	relative intensity	assigned
77.0387	3	C6H5-
120.0201	4	C7H4O2-
121.0275	4	C7H5O2-
127.1126	22	C8H15O-
133.028	3	C8H5O2-
215.1449	6	C15H19O-
231.1381	3	C15H19O2-
233.1553	73	C15H21O2-
259.1361	2	C16H19O3-
262.1583	16	C16H22O3-
263.1655	3	C16H23O3-
277.1443	69	C16H21O4-
290.1527	110	C17H22O4-
291.1585	7	C17H23O4-
345.2777	5	C23H37O2-
361.2726	8	C23H37O3-
389.2709	359	C24H37O4-
433.2612	999	C25H37O6-
