Mass spectrum: Petroselinic acid; LC-ESI-QTOF; MS2; CE: 10eV; R=7000; [M-H]-
Name: Petroselinic acid
Name: (Z)-octadec-6-enoic acid
Formula: C18H34O2
Exact mass: 282.2559
SMILES: CCCCCCCCCCC/C=C\CCCCC(O)=O
InChI: InChI=1S/C18H34O2/c1-2-3-4-5-6-7-8-9-10-11-12-13-14-15-16-17-18(19)20/h12-13H,2-11,14-17H2,1H3,(H,19,20)/b13-12-
Instrument: Agilent 6560 QTOF
Instrument type: LC-ESI-QTOF
Ms type: MS2
Ion mode: NEGATIVE
Ionization: ESI
Fragmentation mode: CID
Collision energy: 10 eV
Resolution: 7000
Column name: N/A
Retention time: 0.168 min
Base peak: 281.2489
Precursor m/z: 281.2486
Precursor type: [M-H]-
Precursor intensity: 481681
m/z	relative intensity	assigned
83.0504	2	C5H7O-
263.2369	7	C18H31O-
264.2414	2	C18H32O-
281.2494	999	C18H33O2-
