Mass spectrum: Tri-o-tolyl phosphate; LC-ESI-QTOF; MS2; CE: 60eV; R=7000; [M+H]+
Name: Tri-o-tolyl phosphate
Name: Tri-O-cresyl phosphate
Name: tris(2-methylphenyl) phosphate
Formula: C21H21O4P
Exact mass: 368.1177
SMILES: CC1=CC=CC=C1OP(=O)(OC2=CC=CC=C2C)OC3=CC=CC=C3C
InChI: InChI=1S/C21H21O4P/c1-16-10-4-7-13-19(16)23-26(22,24-20-14-8-5-11-17(20)2)25-21-15-9-6-12-18(21)3/h4-15H,1-3H3
Instrument: Agilent 6560 QTOF
Instrument type: LC-ESI-QTOF
Ms type: MS2
Ion mode: POSITIVE
Ionization: ESI
Fragmentation mode: CID
Collision energy: 60 eV
Resolution: 7000
Retention time: 0.145 min
Base peak: 391.1073
Precursor m/z: 369.125
Precursor type: [M+H]+
Precursor intensity: 113967.93
m/z	relative intensity	assigned
51.0227	7	C4H3+
63.0234	29	C5H3+
65.0385	848	C5H5+
77.0389	39	C6H5+
79.0549	19	C6H7+
89.0386	8	C7H5+
91.054	999	C7H7+
103.0522	8	C8H7+
105.0313	21	C7H5O+
107.0491	33	C7H7O+
115.0509	8	C2H12O3P+
137.0159	6	C7H6OP+
141.0669	27	C4H14O3P+
142.0738	9	C4H15O3P+
151.0524	16	C5H12O3P+
152.0607	54	C5H13O3P+
153.0084	8	C7H6O2P+
153.068	27	C5H14O3P+
154.0756	11	C5H15O3P+
163.0537	8	C13H7+
164.061	9	C13H8+
165.069	684	C13H9+
166.0744	114	C6H15O3P+
167.0815	7	C6H16O3P+
169.0012	7	C7H6O3P+
178.0772	138	C14H10+
179.0837	41	C7H16O3P+
181.0645	20	C13H9O+
182.0733	18	C13H10O+
195.0784	16	C7H16O4P+
216.0661	8	C13H13OP+
216.0924	6	C17H12+
229.0394	7	C13H10O2P+
239.0845	25	C19H11+
240.0935	20	C19H12+
241.0997	31	C12H18O3P+
243.0582	7	C14H12O2P+
253.0987	8	C13H18O3P+
255.1191	10	C20H15+
256.1164	9	C13H21O3P+
