Mass spectrum: N-oleoyl-D-erythro-sphingosine; LC-ESI-QTOF; MS2; CE: 10eV; R=7000; [M+Cl]-
Name: N-oleoyl-D-erythro-sphingosine
Name: N-(oleoyl)-ceramide
Name: (Z)-N-[(E,2S,3R)-1,3-dihydroxyoctadec-4-en-2-yl]octadec-9-enamide
Formula: C36H69NO3
Exact mass: 563.5277
SMILES: CCCCCCCCCCCCC/C=C/[C@H]([C@H](CO)NC(=O)CCCCCCC/C=C\CCCCCCCC)O
InChI: InChI=1S/C36H69NO3/c1-3-5-7-9-11-13-15-17-18-20-22-24-26-28-30-32-36(40)37-34(33-38)35(39)31-29-27-25-23-21-19-16-14-12-10-8-6-4-2/h17-18,29,31,34-35,38-39H,3-16,19-28,30,32-33H2,1-2H3,(H,37,40)/b18-17-,31-29+/t34-,35+/m0/s1
Instrument: Agilent 6560 QTOF
Instrument type: LC-ESI-QTOF
Ms type: MS2
Ion mode: NEGATIVE
Ionization: ESI
Fragmentation mode: CID
Collision energy: 10 eV
Resolution: 7000
Column name: N/A
Retention time: 0.165 min
Base peak: 622.5431
Precursor m/z: 598.4971
Precursor type: [M+Cl]-
Precursor intensity: 18674
m/z	relative intensity	assigned
156.3352	66	C2H49ClO3-
166.9915	14	C8H4ClO2-
269.2466	28	C17H33O2-
275.1235	18	C17H20ClO-
288.9556	29	C16ClNO3-
372.1415	21	C27H18NO-
455.3089	69	C30H44ClO-
494.1475	16	C35H23ClO-
527.1627	13	C35H26ClNO2-
529.9555	26	C36HClNO3-
538.4706	55	C34H65ClNO-
538.5168	12	C34H68NO3-
545.5186	34	C36H67NO2-
562.523	26	C36H68NO3-
598.4978	999	C36H69ClNO3-
