Mass spectrum: Cholic acid; LC-ESI-QTOF; MS2; CE: 10eV; R=7000; [M-H]-
Name: Cholic acid
Name: (4R)-4-[(3R,5S,7R,8R,9S,10S,12S,13R,14S,17R)-3,7,12-trihydroxy-10,13-dimethyl-2,3,4,5,6,7,8,9,11,12,14,15,16,17-tetradecahydro-1H-cyclopenta[a]phenanthren-17-yl]pentanoic acid
Formula: C24H40O5
Exact mass: 408.2876
SMILES: C[C@H](CCC(=O)O)[C@H]1CC[C@@H]2[C@@]1([C@H](C[C@H]3[C@H]2[C@@H](C[C@H]4[C@@]3(CC[C@H](C4)O)C)O)O)C
InChI: InChI=1S/C24H40O5/c1-13(4-7-21(28)29)16-5-6-17-22-18(12-20(27)24(16,17)3)23(2)9-8-15(25)10-14(23)11-19(22)26/h13-20,22,25-27H,4-12H2,1-3H3,(H,28,29)/t13-,14+,15-,16-,17+,18+,19-,20+,22+,23+,24-/m1/s1
Instrument: Agilent 6560 QTOF
Instrument type: LC-ESI-QTOF
Ms type: MS2
Ion mode: NEGATIVE
Ionization: ESI
Fragmentation mode: CID
Collision energy: 10 eV
Resolution: 7000
Column name: N/A
Retention time: 0.141 min
Base peak: 255.2345
Precursor m/z: 407.2803
Precursor type: [M-H]-
Precursor intensity: 249410
m/z	relative intensity	assigned
118.2171	1	C2H30O4-
153.1841	1	C8H25O2-
189.0933	1	C12H13O2-
205.1601	3	C14H21O-
227.258	1	C12H35O3-
289.2137	6	C19H29O2-
293.0361	1	C24H5-
309.2116	4	C18H29O4-
325.1877	3	C21H25O3-
343.2676	6	C23H35O2-
344.266	3	C23H36O2-
345.2804	10	C23H37O2-
363.286	2	C23H39O3-
371.2521	3	C24H35O3-
389.2666	2	C24H37O4-
407.2815	999	C24H39O5-
