Mass spectrum: 11-Deoxycortisol; LC-ESI-QTOF; MS2; CE: 20eV; R=7000; [M+H]+
Name: 11-Deoxycortisol
Name: Reichsteins Substance S
Name: 17-hydroxy-17-(2-hydroxyacetyl)-10,13-dimethyl-2,6,7,8,9,11,12,14,15,16-decahydro-1H-cyclopenta[a]phenanthren-3-one
Formula: C21H30O4
Exact mass: 346.2144
SMILES: CC12CCC(=O)C=C1CCC3C2CCC4(C3CCC4(C(=O)CO)O)C
InChI: InChI=1S/C21H30O4/c1-19-8-5-14(23)11-13(19)3-4-15-16(19)6-9-20(2)17(15)7-10-21(20,25)18(24)12-22/h11,15-17,22,25H,3-10,12H2,1-2H3
Instrument: Agilent 6560 QTOF
Instrument type: LC-ESI-QTOF
Ms type: MS2
Ion mode: POSITIVE
Ionization: ESI
Fragmentation mode: CID
Collision energy: 20 eV
Resolution: 7000
Column name: Direct injection
Retention time: 0.185 min
Base peak: 415.2124
Precursor m/z: 347.2217
Precursor type: [M+H]+
Precursor intensity: 110676
m/z	relative intensity	assigned
79.0524	97	C6H7+
81.0684	8	C6H9+
83.0487	33	C5H7O+
91.0538	97	C7H7+
93.0684	18	C7H9+
95.0847	16	C7H11+
97.0643	999	C6H9O+
101.0585	29	C5H9O2+
105.0703	33	C8H9+
107.085	14	C8H11+
109.0638	837	C7H9O+
116.1058	35	C3H16O4+
117.0684	5	C9H9+
119.085	91	C9H11+
121.062	34	C8H9O+
121.1009	73	C9H13+
123.0787	72	C8H11O+
131.0852	21	C10H11+
133.1007	76	C10H13+
135.0781	13	C9H11O+
135.1174	33	C10H15+
143.0856	11	C11H11+
145.1008	80	C11H13+
149.0953	21	C10H13O+
155.082	16	C12H11+
156.0925	16	C12H12+
157.1005	26	C12H13+
159.0789	17	C11H11O+
159.1164	76	C12H15+
161.0946	14	C11H13O+
161.1299	22	C12H17+
163.1094	30	C11H15O+
169.0989	8	C13H13+
171.0784	12	C12H11O+
173.0944	32	C12H13O+
173.1288	27	C13H17+
175.1084	22	C12H15O+
181.0987	10	C14H13+
183.0782	37	C13H11O+
183.1137	56	C14H15+
185.1333	38	C14H17+
186.1053	10	C13H14O+
187.1102	31	C13H15O+
187.1468	39	C14H19+
189.1251	54	C13H17O+
191.1398	13	C13H19O+
195.1354	25	C12H19O2+
196.1203	6	C15H16+
199.1476	4	C15H19+
201.1229	26	C14H17O+
203.1411	17	C14H19O+
207.1174	7	C16H15+
211.1512	40	C16H19+
212.155	16	C16H20+
213.165	36	C16H21+
215.1036	19	C14H15O2+
221.1331	11	C17H17+
223.1497	14	C17H19+
225.1638	44	C17H21+
235.1439	14	C18H19+
237.1641	9	C18H21+
239.1416	17	C17H19O+
246.1356	23	C19H18+
249.1601	13	C19H21+
250.1335	12	C18H18O+
251.1789	43	C19H23+
252.186	12	C19H24+
253.1586	27	C18H21O+
253.1929	33	C19H25+
255.139	22	C17H19O2+
260.1581	31	C20H20+
263.1426	18	C19H19O+
265.1949	16	C20H25+
267.1746	23	C19H23O+
269.1885	16	C19H25O+
271.2012	46	C19H27O+
275.1807	11	C21H23+
281.1853	21	C20H25O+
282.1931	10	C20H26O+
283.1678	10	C19H23O2+
283.2082	19	C20H27O+
293.19	48	C21H25O+
299.2034	9	C20H27O2+
302.219	9	C20H30O2+
311.2017	100	C21H27O2+
312.2069	4	C21H28O2+
347.2203	201	C21H31O4+
