Mass spectrum: Triphenyl phosphate; LC-ESI-QTOF; MS2; CE: 40eV; R=7000; [M+H]+
Name: Triphenyl phosphate
Formula: C18H15O4P
Exact mass: 326.0708
SMILES: C1=CC=C(C=C1)OP(=O)(OC2=CC=CC=C2)OC3=CC=CC=C3
InChI: InChI=1S/C18H15O4P/c19-23(20-16-10-4-1-5-11-16,21-17-12-6-2-7-13-17)22-18-14-8-3-9-15-18/h1-15H
Instrument: Agilent 6560 QTOF
Instrument type: LC-ESI-QTOF
Ms type: MS2
Ion mode: POSITIVE
Ionization: ESI
Fragmentation mode: CID
Collision energy: 40 eV
Resolution: 7000
Retention time: 0.116 min
Base peak: 327.0779
Precursor m/z: 327.0781
Precursor type: [M+H]+
Precursor intensity: 62961.01
m/z	relative intensity	assigned
51.0235	111	C4H3+
65.0394	15	C5H5+
77.0388	999	C6H5+
91.0528	9	H12O3P+
93.0328	26	C6H5O+
95.049	45	C6H7O+
139.0553	9	C11H7+
150.047	23	C12H6+
151.0536	116	C12H7+
152.0618	539	C12H8+
153.0683	170	C5H14O3P+
157.0048	12	C6H6O3P+
168.0563	260	C12H8O+
169.0612	20	C5H14O4P+
175.0163	21	C6H8O4P+
187.0282	14	C11H8OP+
202.077	31	C16H10+
215.0258	106	C12H8O2P+
227.0848	10	C18H11+
228.0922	76	C18H12+
233.0366	12	C12H10O3P+
251.0459	40	C12H12O4P+
