Mass spectrum: Tetrekis(2-chlorethyl) dichloroisopentyldiphosphate; LC-ESI-QTOF; MS2; CE: 15eV; R=7000; [M+H]+
Name: Tetrekis(2-chlorethyl) dichloroisopentyldiphosphate
Name: Phosphoric acid, 2,2-bis(chloromethyl)-1,3-propanediyl tetrakis(2-chloroethyl) ester
Name: [2-[bis(2-chloroethoxy)phosphoryloxymethyl]-3-chloro-2-(chloromethyl)propyl] bis(2-chloroethyl) phosphate
Formula: C13H24Cl6O8P2
Exact mass: 579.9078
SMILES: C(CCl)OP(=O)(OCCCl)OCC(COP(=O)(OCCCl)OCCCl)(CCl)CCl
InChI: InChI=1S/C13H24Cl6O8P2/c14-1-5-22-28(20,23-6-2-15)26-11-13(9-18,10-19)12-27-29(21,24-7-3-16)25-8-4-17/h1-12H2
Instrument: Agilent 6560 QTOF
Instrument type: LC-ESI-QTOF
Ms type: MS2
Ion mode: POSITIVE
Ionization: ESI
Fragmentation mode: CID
Collision energy: 15 eV
Resolution: 7000
Retention time: 0.110 min
Base peak: 582.913
Precursor m/z: 580.915
Precursor type: [M+H]+
Precursor intensity: 27172.96
m/z	relative intensity	assigned
62.9993	28	CH4OP+
65.0393	20	C5H5+
160.9743	16	CH7O5P2+
222.9694	40	C5H10Cl3O3+
234.9692	176	C6H10Cl3O3+
260.9838	67	C6H12ClO5P2+
284.9581	62	C13H2O6P+
296.9607	268	C6H13Cl2O5P2+
358.9541	999	C10H16Cl5O3+
359.9557	41	C10H11Cl2O8P+
580.9121	151	C13H25Cl6O8P2+
