Mass spectrum: 5,6-Dimethylbenzotriazole; LC-ESI-QTOF; MS2; CE: 10eV; R=7000; [M+H]+
Name: 5,6-Dimethylbenzotriazole
Name: 5,6-Dimethyl-1H-benzotriazole
Name: 5,6-dimethyl-2H-benzotriazole
Formula: C8H9N3
Exact mass: 147.0796
SMILES: CC1=CC2=NNN=C2C=C1C
InChI: InChI=1S/C8H9N3/c1-5-3-7-8(4-6(5)2)10-11-9-7/h3-4H,1-2H3,(H,9,10,11)
Instrument: Agilent 6560 QTOF
Instrument type: LC-ESI-QTOF
Ms type: MS2
Ion mode: POSITIVE
Ionization: ESI
Fragmentation mode: CID
Collision energy: 10 eV
Resolution: 7000
Retention time: 0.151 min
Base peak: 148.0868
Precursor m/z: 148.0869
Precursor type: [M+H]+
Precursor intensity: 79224.29
m/z	relative intensity	assigned
51.022	4	C4H3+
65.0372	5	C5H5+
66.0334	4	C4H4N+
77.0385	67	C6H5+
78.0465	6	C6H6+
80.049	12	C5H6N+
80.0602	5	C6H8+
91.0541	50	C7H7+
92.0498	4	C6H6N+
93.0695	90	C7H9+
94.0638	5	C6H8N+
103.0536	30	C8H7+
104.0488	9	C7H6N+
118.0648	4	C8H8N+
119.0734	6	C8H9N+
120.0808	37	C8H10N+
148.0867	999	C8H10N3+
