Mass spectrum: 4-((4-(Allyloxy)phenyl)sulfonyl)phenol; LC-ESI-QTOF; MS2; CE: 45eV; R=7000; [M-H]-
Name: 4-((4-(Allyloxy)phenyl)sulfonyl)phenol
Name: 4-(4-prop-2-enoxyphenyl)sulfonylphenol
Formula: C15H14O4S
Exact mass: 290.0613
SMILES: C=CCOC1=CC=C(C=C1)S(=O)(=O)C2=CC=C(C=C2)O
InChI: InChI=1S/C15H14O4S/c1-2-11-19-13-5-9-15(10-6-13)20(17,18)14-7-3-12(16)4-8-14/h2-10,16H,1,11H2
Instrument: Agilent 6560 QTOF
Instrument type: LC-ESI-QTOF
Ms type: MS2
Ion mode: NEGATIVE
Ionization: ESI
Fragmentation mode: CID
Collision energy: 45 eV
Resolution: 7000
Retention time: 0.155 min
Base peak: 289.055
Precursor m/z: 289.054
Precursor type: [M-H]-
Precursor intensity: 103323.55
m/z	relative intensity	assigned
63.9623	27	O2S-
82.9958	41	C4H3S-
91.0188	225	C6H3O-
92.0269	999	C6H4O-
101.0399	11	C8H5-
108.0218	842	C6H4O2-
110.9891	15	C5H3OS-
111.9989	7	C5H4OS-
115.055	8	C9H7-
128.0631	108	C10H8-
138.9851	50	C6H3O2S-
139.9938	110	C6H4O2S-
143.0481	22	C10H7O-
155.0481	18	C11H7O-
156.0577	85	C11H8O-
183.0446	20	C12H7O2-
184.0524	87	C12H8O2-
185.0568	10	C12H9O2-
190.0078	6	C10H6O2S-
199.0397	37	C12H7O3-
