Mass spectrum: 2,2`-{Methylenebis[(4,1-phenylene)oxymethylene]}bis(oxirane); LC-ESI-QTOF; MS2; CE: 10eV; R=7000; [M+NH4]+
Name: 2,2`-{Methylenebis[(4,1-phenylene)oxymethylene]}bis(oxirane)
Name: Bis(4-glycidyloxyphenyl)methane
Name: 2-[[4-[[4-(oxiran-2-ylmethoxy)phenyl]methyl]phenoxy]methyl]oxirane
Formula: C19H20O4
Exact mass: 312.1362
SMILES: C1C(O1)COC2=CC=C(C=C2)CC3=CC=C(C=C3)OCC4CO4
InChI: InChI=1S/C19H20O4/c1-5-16(20-10-18-12-22-18)6-2-14(1)9-15-3-7-17(8-4-15)21-11-19-13-23-19/h1-8,18-19H,9-13H2
Instrument: Agilent 6560 QTOF
Instrument type: LC-ESI-QTOF
Ms type: MS2
Ion mode: POSITIVE
Ionization: ESI
Fragmentation mode: CID
Collision energy: 10 eV
Resolution: 7000
Column name: ZORBAX Extend-C18 3.5um, 2.1x50mm, Agilent Technologies
Retention time: 3.399 min
Base peak: 330.1701
Precursor m/z: 330.17
Precursor type: [M+NH4]+
Precursor intensity: 236132.74
m/z	relative intensity	assigned
74.0574	29	H10O4+
119.0828	35	C9H11+
143.0824	29	C11H11+
161.0928	42	C11H13O+
164.0744	64	C9H10NO2+
169.0607	16	C12H9O+
177.0866	327	C11H13O2+
178.0866	16	C10H12NO2+
180.0974	66	C14H12+
189.0865	999	C12H13O2+
191.0773	11	C14H9N+
194.0678	14	C14H10O+
207.0971	336	C12H15O3+
209.091	30	C15H13O+
211.0711	46	C14H11O2+
213.088	12	C14H13O2+
220.0839	14	C16H12O+
225.1521	15	C16H19N+
236.0795	57	C16H12O2+
237.087	111	C16H13O2+
237.1252	22	C17H17O+
240.1086	20	C16H16O2+
244.0806	12	C17H10NO+
248.079	23	C17H12O2+
249.0838	83	C16H11NO2+
251.1006	37	C17H15O2+
253.1173	18	C17H17O2+
255.0942	15	C15H13NO3+
265.1172	77	C18H17O2+
266.0885	54	C17H14O3+
267.0971	92	C17H15O3+
277.1158	34	C18H15NO2+
295.1263	54	C18H17NO3+
313.1394	36	C19H21O4+
330.1651	259	C19H24NO4+
