Mass spectrum: Tris(2-chloroethyl) phosphate; LC-ESI-QTOF; MS2; CE: 20eV; R=7000; [M+H]+
Name: Tris(2-chloroethyl) phosphate
Formula: C6H12Cl3O4P
Exact mass: 283.9539
SMILES: C(CCl)OP(=O)(OCCCl)OCCCl
InChI: InChI=1S/C6H12Cl3O4P/c7-1-4-11-14(10,12-5-2-8)13-6-3-9/h1-6H2
Instrument: Agilent 6560 QTOF
Instrument type: LC-ESI-QTOF
Ms type: MS2
Ion mode: POSITIVE
Ionization: ESI
Fragmentation mode: CID
Collision energy: 20 eV
Resolution: 7000
Column name: ZORBAX Extend-C18 3.5um, 2.1x50mm, Agilent Technologies
Retention time: 1.779 min
Base peak: 284.961
Precursor m/z: 284.9612
Precursor type: [M+H]+
Precursor intensity: 3786.05
m/z	relative intensity	assigned
62.9997	999	C2H4Cl+
98.9838	753	H4O4P+
160.9796	140	C3H7Cl2O3+
