Mass spectrum: Di-n-butyl sebacate; LC-ESI-QTOF; MS2; CE: 55eV; R=7000; [M+H]+
Name: Di-n-butyl sebacate
Name: Dibutyl sebacate
Name: dibutyl decanedioate
Formula: C18H34O4
Exact mass: 314.2457
SMILES: CCCCOC(=O)CCCCCCCCC(=O)OCCCC
InChI: InChI=1S/C18H34O4/c1-3-5-15-21-17(19)13-11-9-7-8-10-12-14-18(20)22-16-6-4-2/h3-16H2,1-2H3
Instrument: Agilent 6560 QTOF
Instrument type: LC-ESI-QTOF
Ms type: MS2
Ion mode: POSITIVE
Ionization: ESI
Fragmentation mode: CID
Collision energy: 55 eV
Resolution: 7000
Retention time: 0.145 min
Base peak: 337.2371
Precursor m/z: 315.253
Precursor type: [M+H]+
Precursor intensity: 26839.09
m/z	relative intensity	assigned
53.0398	46	C4H5+
55.0546	999	C4H7+
57.0348	38	C3H5O+
57.0704	81	C4H9+
59.0495	85	C3H7O+
65.0374	34	C5H5+
67.0545	340	C5H7+
69.07	426	C5H9+
77.0388	136	C6H5+
79.0544	355	C6H7+
81.0691	188	C6H9+
83.0497	118	C5H7O+
91.0542	101	C7H7+
93.0699	316	C7H9+
95.0855	79	C7H11+
97.0648	68	C6H9O+
105.0687	43	C8H9+
121.1016	39	C9H13+
131.0683	38	C6H11O3+
