Mass spectrum: Prostaglandin A1; LC-ESI-QTOF; MS2; CE: 20eV; R=7000; [M+Na]+
Name: Prostaglandin A1
Name: 7-[(1R,2S)-2-[(E,3S)-3-hydroxyoct-1-enyl]-5-oxocyclopent-3-en-1-yl]heptanoic acid
Formula: C20H32O4
Exact mass: 336.2301
SMILES: CCCCC[C@@H](/C=C/[C@H]1C=CC(=O)[C@@H]1CCCCCCC(=O)O)O
InChI: InChI=1S/C20H32O4/c1-2-3-6-9-17(21)14-12-16-13-15-19(22)18(16)10-7-4-5-8-11-20(23)24/h12-18,21H,2-11H2,1H3,(H,23,24)/b14-12+/t16-,17-,18+/m0/s1
Instrument: Agilent 6560 QTOF
Instrument type: LC-ESI-QTOF
Ms type: MS2
Ion mode: POSITIVE
Ionization: ESI
Fragmentation mode: CID
Collision energy: 20 eV
Resolution: 7000
Column name: Direct injection
Retention time: 0.184 min
Base peak: 301.2171
Precursor m/z: 359.2193
Precursor type: [M+Na]+
Precursor intensity: 13766
m/z	relative intensity	assigned
91.0539	134	C7H7+
117.0701	27	C9H9+
149.083	26	C6H13O4+
209.0634	30	C14H9O2+
211.1324	63	C12H19O3+
213.0724	38	C17H9+
341.2095	53	C20H30NaO3+
342.2082	10	C20H31NaO3+
359.2206	999	C20H32NaO4+
