Mass spectrum: PTERIN; LC-ESI-QTOF; MS2; CE: 40eV; R=5000; [M+H]+
Name: PTERIN
Name: CID 73000
Name: 2-amino-1H-pteridin-4-one
Formula: C6H5N5O
Exact mass: 163.04941
SMILES: NC1=NC2=NC=CN=C2C(=O)N1
InChI: InChI=1S/C6H5N5O/c7-6-10-4-3(5(12)11-6)8-1-2-9-4/h1-2H,(H3,7,9,10,11,12)
Instrument: Agilent 6530 QTOF
Instrument type: LC-ESI-QTOF
Ms type: MS2
Ion mode: POSITIVE
Ionization: ESI
Fragmentation mode: CID
Collision energy: 40 eV
Resolution: 5000
Column name: N/A
Retention time: 0.251 min
Base peak: 121.0508
Precursor m/z: 164.0567
Precursor type: [M+H]+
Precursor intensity: 27424
m/z	relative intensity	assigned
40.0175	165	C2H2N+
43.0298	202	CH3N2+
56.049	82	C3H6N+
65.0134	126	C3HN2+
68.0261	999	C4H4O+
74.0169	16	C6H2+
77.0386	140	C6H5+
79.0294	51	C4H3N2+
80.037	142	C4H4N2+
92.0249	644	C4H2N3+
94.0398	101	C4H4N3+
95.0219	47	C2HN5+
96.0559	129	C4H6N3+
121.0501	86	C5H5N4+
