Mass spectrum: Behenic acid; LC-ESI-QTOF; MS2; CE: 40eV; R=7000; [M-CH3]-
Name: Behenic acid
Name: docosanoic acid
Formula: C22H44O2
Exact mass: 340.3341
SMILES: CCCCCCCCCCCCCCCCCCCCCC(=O)O
InChI: InChI=1S/C22H44O2/c1-2-3-4-5-6-7-8-9-10-11-12-13-14-15-16-17-18-19-20-21-22(23)24/h2-21H2,1H3,(H,23,24)
Instrument: Agilent 6560 QTOF
Instrument type: LC-ESI-QTOF
Ms type: MS2
Ion mode: NEGATIVE
Ionization: ESI
Fragmentation mode: CID
Collision energy: 40 eV
Resolution: 7000
Column name: N/A
Retention time: 0.240 min
Base peak: 339.3278
Precursor m/z: 325.3112
Precursor type: [M-CH3]-
Precursor intensity: 6878
m/z	relative intensity	assigned
100.0901	213	C6H12O-
119.0504	999	C8H7O-
