Mass spectrum: Nandrolone; LC-ESI-QTOF; MS2; CE: 20eV; R=7000; [M+H]+
Name: Nandrolone
Name: (8R,9S,10R,13S,14S,17S)-17-hydroxy-13-methyl-2,6,7,8,9,10,11,12,14,15,16,17-dodecahydro-1H-cyclopenta[a]phenanthren-3-one
Formula: C18H26O2
Exact mass: 274.1933
SMILES: C[C@]12CC[C@H]3[C@H]([C@@H]1CC[C@@H]2O)CCC4=CC(=O)CC[C@H]34
InChI: InChI=1S/C18H26O2/c1-18-9-8-14-13-5-3-12(19)10-11(13)2-4-15(14)16(18)6-7-17(18)20/h10,13-17,20H,2-9H2,1H3/t13-,14+,15+,16-,17-,18-/m0/s1
Instrument: Agilent 6560 QTOF
Instrument type: LC-ESI-QTOF
Ms type: MS2
Ion mode: POSITIVE
Ionization: ESI
Fragmentation mode: CID
Collision energy: 20 eV
Resolution: 7000
Column name: Direct injection
Retention time: 0.155 min
Base peak: 275.2017
Precursor m/z: 275.2006
Precursor type: [M+H]+
Precursor intensity: 272994
m/z	relative intensity	assigned
71.05	5	C4H7O+
77.0377	9	C6H5+
79.0547	239	C6H7+
81.0698	316	C6H9+
83.0494	602	C5H7O+
91.0549	222	C7H7+
93.0699	391	C7H9+
95.0497	13	C6H7O+
95.0864	240	C7H11+
97.0658	24	C6H9O+
105.0699	323	C8H9+
107.0486	129	C7H7O+
107.0854	164	C8H11+
109.0648	999	C7H9O+
109.0989	53	C8H13+
110.1295	3	C5H18O2+
111.0809	14	C7H11O+
111.1143	17	C8H15+
115.0532	4	C9H7+
117.0694	130	C9H9+
119.0858	147	C9H11+
121.1015	125	C9H13+
123.0805	30	C8H11O+
123.1156	11	C9H15+
128.0636	14	C10H8+
129.071	123	C10H9+
131.0848	99	C10H11+
131.143	22	C8H19O+
133.0674	49	C9H9O+
133.102	154	C10H13+
135.0807	39	C9H11O+
135.1172	206	C10H15+
141.0674	33	C11H9+
143.0859	84	C11H11+
145.1017	284	C11H13+
146.1083	18	C11H14+
147.0787	26	C10H11O+
147.1159	287	C11H15+
149.0973	110	C10H13O+
149.1323	79	C11H17+
153.0714	9	C12H9+
155.0848	27	C12H11+
156.093	8	C12H12+
157.1011	127	C12H13+
159.1159	163	C12H15+
161.096	80	C11H13O+
161.1316	50	C12H17+
163.1115	173	C11H15O+
168.0928	6	C13H12+
169.102	31	C13H13+
170.1106	14	C13H14+
171.117	55	C13H15+
172.0877	4	C12H12O+
172.1226	13	C13H16+
173.1324	18	C13H17+
175.1118	23	C12H15O+
175.1506	16	C13H19+
177.1265	16	C12H17O+
183.1158	111	C14H15+
184.1204	3	C14H16+
185.1318	170	C14H17+
186.1362	9	C14H18+
187.1479	129	C14H19+
189.1295	10	C13H17O+
191.1427	13	C13H19O+
195.1122	24	C15H15+
196.1285	3	C15H16+
197.1328	138	C15H17+
198.1397	19	C15H18+
199.1481	122	C15H19+
200.1525	11	C15H20+
201.1274	76	C14H17O+
203.1422	10	C14H19O+
204.1502	2	C14H20O+
210.1421	39	C16H18+
211.1485	8	C16H19+
213.1628	78	C16H21+
215.1412	28	C15H19O+
217.158	18	C15H21O+
228.1525	7	C16H20O+
229.1608	4	C16H21O+
229.1963	3	C17H25+
231.1764	59	C16H23O+
239.1795	249	C18H23+
255.1698	3	C18H23O+
257.19	177	C18H25O+
258.1914	10	C18H26O+
275.2016	230	C18H27O2+
