Mass spectrum: Bisphenol AP; LC-ESI-QTOF; MS2; CE: 40eV; R=7000; [M-H]-
Name: Bisphenol AP
Name: 4,4`-(1-Phenylethylidene)bisphenol
Name: 4-[1-(4-hydroxyphenyl)-1-phenylethyl]phenol
Formula: C20H18O2
Exact mass: 290.1307
SMILES: CC(C1=CC=CC=C1)(C2=CC=C(C=C2)O)C3=CC=C(C=C3)O
InChI: InChI=1S/C20H18O2/c1-20(15-5-3-2-4-6-15,16-7-11-18(21)12-8-16)17-9-13-19(22)14-10-17/h2-14,21-22H,1H3
Instrument: Agilent 6560 QTOF
Instrument type: LC-ESI-QTOF
Ms type: MS2
Ion mode: NEGATIVE
Ionization: ESI
Fragmentation mode: CID
Collision energy: 40 eV
Resolution: 7000
Retention time: 0.148 min
Base peak: 289.1238
Precursor m/z: 289.1234
Precursor type: [M-H]-
Precursor intensity: 4371.17
m/z	relative intensity	assigned
93.0334	515	C6H5O-
155.0506	268	C11H7O-
180.056	278	C13H8O-
195.0821	332	C14H11O-
273.0913	999	C19H13O2-
