Mass spectrum: 1-Dehydrotestosterone; LC-ESI-QTOF; MS2; CE: 40eV; R=7000; [M+H]+
Name: 1-Dehydrotestosterone
Name: Boldenone
Name: (8R,9S,10R,13S,14S,17S)-17-hydroxy-10,13-dimethyl-6,7,8,9,11,12,14,15,16,17-decahydrocyclopenta[a]phenanthren-3-one
Formula: C19H26O2
Exact mass: 286.1933
SMILES: C[C@]12CC[C@H]3[C@H]([C@@H]1CC[C@@H]2O)CCC4=CC(=O)C=C[C@]34C
InChI: InChI=1S/C19H26O2/c1-18-9-7-13(20)11-12(18)3-4-14-15-5-6-17(21)19(15,2)10-8-16(14)18/h7,9,11,14-17,21H,3-6,8,10H2,1-2H3/t14-,15-,16-,17-,18-,19-/m0/s1
Instrument: Agilent 6560 QTOF
Instrument type: LC-ESI-QTOF
Ms type: MS2
Ion mode: POSITIVE
Ionization: ESI
Fragmentation mode: CID
Collision energy: 40 eV
Resolution: 7000
Column name: Direct injection
Retention time: 0.153 min
Base peak: 287.2012
Precursor m/z: 287.2006
Precursor type: [M+H]+
Precursor intensity: 274058
m/z	relative intensity	assigned
71.0507	3	C4H7O+
77.0389	776	C6H5+
78.0463	20	C6H6+
79.0544	151	C6H7+
81.07	124	C6H9+
83.0487	9	C5H7O+
85.065	2	C5H9O+
91.0541	639	C7H7+
93.0698	310	C7H9+
95.0499	8	C6H7O+
95.0855	106	C7H11+
97.0634	3	C6H9O+
103.0543	135	C8H7+
104.0614	5	C8H8+
105.0692	165	C8H9+
107.0469	11	C7H7O+
107.0854	53	C8H11+
108.0569	6	C7H8O+
109.063	8	C7H9O+
109.1016	15	C8H13+
115.0539	27	C9H7+
117.0703	19	C9H9+
118.0753	5	C9H10+
119.0484	9	C8H7O+
119.086	64	C9H11+
120.057	6	C8H8O+
121.0648	999	C8H9O+
127.0527	13	C10H7+
128.0613	7	C10H8+
129.0691	7	C10H9+
130.0779	1	C10H10+
131.0478	23	C9H7O+
131.0863	8	C10H11+
132.0567	45	C9H8O+
133.1018	15	C10H13+
135.0792	11	C9H11O+
135.1192	31	C10H15+
137.1327	5	C10H17+
141.0691	16	C11H9+
143.0868	7	C11H11+
144.0535	2	C10H8O+
145.0657	27	C10H9O+
145.1016	19	C11H13+
146.0723	19	C10H10O+
147.0815	51	C10H11O+
147.1145	13	C11H15+
155.0875	11	C12H11+
157.0614	3	C11H9O+
157.0975	3	C12H13+
158.0719	43	C11H10O+
159.0808	17	C11H11O+
166.0783	5	C13H10+
173.0958	10	C12H13O+
