Mass spectrum: Tri-n-hexyl trimellitate; LC-ESI-QTOF; MS2; CE: 60eV; R=7000; [M+H]+
Name: Tri-n-hexyl trimellitate
Name: trihexyl benzene-1,2,4-tricarboxylate
Formula: C27H42O6
Exact mass: 462.2981
SMILES: CCCCCCOC(=O)C1=CC(=C(C=C1)C(=O)OCCCCCC)C(=O)OCCCCCC
InChI: InChI=1S/C27H42O6/c1-4-7-10-13-18-31-25(28)22-16-17-23(26(29)32-19-14-11-8-5-2)24(21-22)27(30)33-20-15-12-9-6-3/h16-17,21H,4-15,18-20H2,1-3H3
Instrument: Agilent 6560 QTOF
Instrument type: LC-ESI-QTOF
Ms type: MS2
Ion mode: POSITIVE
Ionization: ESI
Fragmentation mode: CID
Collision energy: 60 eV
Resolution: 7000
Retention time: 0.115 min
Base peak: 371.1012
Precursor m/z: 463.3054
Precursor type: [M+H]+
Precursor intensity: 18100.12
m/z	relative intensity	assigned
55.0187	48	C3H3O+
81.0336	126	C5H5O+
107.0134	51	C6H3O2+
109.0288	177	C6H5O2+
137.0245	152	C7H5O3+
165.0174	568	C8H5O4+
193.0127	999	C9H5O5+
194.0174	102	C16H2+
207.0314	67	C10H7O5+
