Mass spectrum: Tri-p-tolyl phosphate; LC-ESI-QTOF; MS2; CE: 60eV; R=7000; [M+H]+
Name: Tri-p-tolyl phosphate
Name: Tricresyl phosphate
Name: tris(4-methylphenyl) phosphate
Formula: C21H21O4P
Exact mass: 368.1177
SMILES: CC1=CC=C(C=C1)OP(=O)(OC2=CC=C(C=C2)C)OC3=CC=C(C=C3)C
InChI: InChI=1S/C21H21O4P/c1-16-4-10-19(11-5-16)23-26(22,24-20-12-6-17(2)7-13-20)25-21-14-8-18(3)9-15-21/h4-15H,1-3H3
Instrument: Agilent 6560 QTOF
Instrument type: LC-ESI-QTOF
Ms type: MS2
Ion mode: POSITIVE
Ionization: ESI
Fragmentation mode: CID
Collision energy: 60 eV
Resolution: 7000
Retention time: 0.109 min
Base peak: 369.1255
Precursor m/z: 369.125
Precursor type: [M+H]+
Precursor intensity: 192753.02
m/z	relative intensity	assigned
51.0232	12	C4H3+
63.0226	17	C5H3+
65.0388	631	C5H5+
77.0389	211	C6H5+
78.0476	5	C6H6+
79.0544	136	C6H7+
80.0601	6	C6H8+
81.0709	4	C6H9+
89.0382	6	C7H5+
90.0467	19	C7H6+
91.0543	727	C7H7+
107.0484	98	C7H7O+
108.0561	20	C7H8O+
109.0642	14	C7H9O+
110.0685	5	H15O4P+
115.0533	26	C9H7+
128.0614	11	C10H8+
139.0543	9	C11H7+
140.0595	4	C4H13O3P+
141.0708	32	C11H9+
152.062	32	C12H8+
153.0105	8	C7H6O2P+
153.0671	12	C5H14O3P+
154.0176	5	C7H7O2P+
155.0819	9	C5H16O3P+
162.0471	4	C13H6+
164.0618	16	C13H8+
165.0699	999	C13H9+
166.0769	140	C13H10+
167.08	6	C6H16O3P+
178.0769	60	C14H10+
179.0828	27	C7H16O3P+
181.0658	43	C13H9O+
181.0972	4	C7H18O3P+
182.0684	6	C6H15O4P+
183.0775	8	C6H16O4P+
189.0304	7	C7H10O4P+
195.0805	80	C14H11O+
196.0885	65	C14H12O+
197.0523	6	C13H10P+
200.0384	12	C12H9OP+
215.061	10	C13H12OP+
226.0757	12	C11H15O3P+
229.0998	4	C11H18O3P+
239.0844	34	C19H11+
240.0907	17	C12H17O3P+
241.1013	18	C19H13+
242.1047	6	C12H19O3P+
243.0562	32	C14H12O2P+
253.1038	4	C20H13+
254.1085	10	C20H14+
255.1171	13	C20H15+
