Mass spectrum: 4-((4-(Allyloxy)phenyl)sulfonyl)phenol; LC-ESI-QTOF; MS2; CE: 50eV; R=7000; [M-H]-
Name: 4-((4-(Allyloxy)phenyl)sulfonyl)phenol
Name: 4-(4-prop-2-enoxyphenyl)sulfonylphenol
Formula: C15H14O4S
Exact mass: 290.0613
SMILES: C=CCOC1=CC=C(C=C1)S(=O)(=O)C2=CC=C(C=C2)O
InChI: InChI=1S/C15H14O4S/c1-2-11-19-13-5-9-15(10-6-13)20(17,18)14-7-3-12(16)4-8-14/h2-10,16H,1,11H2
Instrument: Agilent 6560 QTOF
Instrument type: LC-ESI-QTOF
Ms type: MS2
Ion mode: NEGATIVE
Ionization: ESI
Fragmentation mode: CID
Collision energy: 50 eV
Resolution: 7000
Retention time: 0.148 min
Base peak: 289.0549
Precursor m/z: 289.054
Precursor type: [M-H]-
Precursor intensity: 52137.92
m/z	relative intensity	assigned
63.962	25	O2S-
79.0199	8	C5H3O-
82.9956	7	C4H3S-
91.0193	74	C6H3O-
92.0268	999	C6H4O-
108.0216	514	C6H4O2-
109.0277	9	C6H5O2-
110.991	23	C5H3OS-
115.0549	25	C9H7-
122.9929	9	C6H3OS-
138.9838	14	C6H3O2S-
139.9935	16	C6H4O2S-
141.0342	7	C10H5O-
143.0493	9	C10H7O-
171.0436	8	C11H7O2-
182.0358	13	C12H6O2-
199.0426	8	C9H11O3S-
