Mass spectrum: 5-Chlorobenzotriazole; LC-ESI-QTOF; MS2; CE: 45eV; R=7000; [M+H]+
Name: 5-Chlorobenzotriazole
Name: 5-chloro-2H-benzotriazole
Formula: C6H4ClN3
Exact mass: 153.0094
SMILES: C1=CC2=NNN=C2C=C1Cl
InChI: InChI=1S/C6H4ClN3/c7-4-1-2-5-6(3-4)9-10-8-5/h1-3H,(H,8,9,10)
Instrument: Agilent 6560 QTOF
Instrument type: LC-ESI-QTOF
Ms type: MS2
Ion mode: POSITIVE
Ionization: ESI
Fragmentation mode: CID
Collision energy: 45 eV
Resolution: 7000
Retention time: 0.145 min
Base peak: 154.0171
Precursor m/z: 154.0167
Precursor type: [M+H]+
Precursor intensity: 11374.58
m/z	relative intensity	assigned
62.0146	56	C5H2+
63.023	470	C5H3+
64.0189	151	C4H2N+
64.0306	183	C5H4+
72.9843	999	C3H2Cl+
75.0115	112	C5HN+
98.9987	246	C5H4Cl+
