Mass spectrum: 3,5-Ditert-butyl-4-hydroxybenzaldehyde; LC-ESI-QTOF; MS2; CE: 50eV; R=7000; [M+H]+
Name: 3,5-Ditert-butyl-4-hydroxybenzaldehyde
Name: 3,5-Di-tert-butyl-4-hydroxybenzaldehyde
Formula: C15H22O2
Exact mass: 234.162
SMILES: CC(C)(C)C1=CC(=CC(=C1O)C(C)(C)C)C=O
InChI: InChI=1S/C15H22O2/c1-14(2,3)11-7-10(9-16)8-12(13(11)17)15(4,5)6/h7-9,17H,1-6H3
Instrument: Agilent 6560 QTOF
Instrument type: LC-ESI-QTOF
Ms type: MS2
Ion mode: POSITIVE
Ionization: ESI
Fragmentation mode: CID
Collision energy: 50 eV
Resolution: 7000
Column name: ZORBAX Extend-C18 3.5um, 2.1x50mm, Agilent Technologies
Retention time: 5.518 min
Base peak: 235.1693
Precursor m/z: 235.1693
Precursor type: [M+H]+
Precursor intensity: 3117.9
m/z	relative intensity	assigned
51.0233	560	C4H3+
65.0387	350	C5H5+
77.0385	535	C6H5+
91.0548	999	C7H7+
107.0481	411	C7H7O+
115.0521	330	C9H7+
