Mass spectrum: N-ACETYLMANNOSAMINE; LC-ESI-QTOF; MS2; CE: 40eV; R=5000; [M+H]+
Name: N-ACETYLMANNOSAMINE
Name: N-[(2R,3S,4R,5S,6R)-2,4,5-trihydroxy-6-(hydroxymethyl)oxan-3-yl]acetamide
Formula: C8H15NO6
Exact mass: 221.0899
SMILES: [H][C@@]1(O)O[C@H](CO)[C@@H](O)[C@H](O)[C@@H]1NC(C)=O
InChI: InChI=1S/C8H15NO6/c1-3(11)9-5-7(13)6(12)4(2-10)15-8(5)14/h4-8,10,12-14H,2H2,1H3,(H,9,11)/t4-,5+,6-,7-,8-/m1/s1
Instrument: Agilent 6530 QTOF
Instrument type: LC-ESI-QTOF
Ms type: MS2
Ion mode: POSITIVE
Ionization: ESI
Fragmentation mode: CID
Collision energy: 40 eV
Resolution: 5000
Column name: N/A
Retention time: 0.218 min
Base peak: 244.0793
Precursor m/z: 222.0972
Precursor type: [M+H]+
Precursor intensity: 173666
m/z	relative intensity	assigned
40.0175	14	C2H2N+
41.0391	315	C3H5+
43.0187	344	C2H3O+
43.0535	99	C3H7+
53.039	271	C4H5+
55.0174	180	C3H3O+
56.0499	546	C3H6N+
58.0627	12	H10O3+
60.0455	111	C2H6NO+
68.0484	147	C4H6N+
69.0344	229	C4H5O+
70.0666	73	C4H8N+
73.0271	26	C3H5O2+
80.049	65	C5H6N+
82.0645	64	C5H8N+
83.0349	86	CH7O4+
84.0438	999	C4H6NO+
85.085	2	C2H13O3+
86.0608	9	C4H8NO+
96.0439	662	C5H6NO+
97.0271	165	C5H5O2+
98.0609	55	C5H8NO+
99.0889	1	C2H13NO3+
100.0365	17	CH8O5+
109.0926	3	H15NO5+
110.0461	7	C2H8NO4+
110.1103	1	C8H14+
115.0461	14	CH9NO5+
138.0532	100	C4H10O5+
147.0085	3	C8H3O3+
