Mass spectrum: Di-n-butyl phosphate; LC-ESI-QTOF; MS2; CE: 20eV; R=7000; [M-H]-
Name: Di-n-butyl phosphate
Name: Dibutyl phosphate
Name: dibutyl hydrogen phosphate
Formula: C8H19O4P
Exact mass: 210.1021
SMILES: CCCCOP(=O)(O)OCCCC
InChI: InChI=1S/C8H19O4P/c1-3-5-7-11-13(9,10)12-8-6-4-2/h3-8H2,1-2H3,(H,9,10)
Instrument: Agilent 6560 QTOF
Instrument type: LC-ESI-QTOF
Ms type: MS2
Ion mode: NEGATIVE
Ionization: ESI
Fragmentation mode: CID
Collision energy: 20 eV
Resolution: 7000
Retention time: 0.149 min
Base peak: 209.0954
Precursor m/z: 209.0948
Precursor type: [M-H]-
Precursor intensity: 186278.7
m/z	relative intensity	assigned
62.964	76	O2P-
78.9584	999	O3P-
96.9689	1	H2O4P-
153.0311	6	C4H10O4P-
