Mass spectrum: N-ACETYLPHENYLALANINE; LC-ESI-QTOF; MS2; CE: 10eV; R=5000; [M+H]+
Name: N-ACETYLPHENYLALANINE
Name: N-Acetyl-L-phenylalanine
Name: (2S)-2-acetamido-3-phenylpropanoic acid
Formula: C11H13NO3
Exact mass: 207.0895
SMILES: CC(=O)N[C@@H](CC1=CC=CC=C1)C(O)=O
InChI: InChI=1S/C11H13NO3/c1-8(13)12-10(11(14)15)7-9-5-3-2-4-6-9/h2-6,10H,7H2,1H3,(H,12,13)(H,14,15)/t10-/m0/s1
Instrument: Agilent 6530 QTOF
Instrument type: LC-ESI-QTOF
Ms type: MS2
Ion mode: POSITIVE
Ionization: ESI
Fragmentation mode: CID
Collision energy: 10 eV
Resolution: 5000
Column name: N/A
Retention time: 0.215 min
Base peak: 121.0508
Precursor m/z: 208.0968
Precursor type: [M+H]+
Precursor intensity: 764331
m/z	relative intensity	assigned
77.0372	12	C6H5+
91.0543	8	C7H7+
103.0523	55	C8H7+
107.0472	4	C7H7O+
120.0788	999	C5H12O3+
149.0568	11	C9H9O2+
162.0892	106	C10H12NO+
166.0844	163	C9H12NO2+
190.0871	5	C11H12NO2+
208.0935	7	C11H14NO3+
