Mass spectrum: PYRIDOXAL; LC-ESI-QTOF; MS2; CE: 10eV; R=5000; [M+H]+
Name: PYRIDOXAL
Name: 3-hydroxy-5-(hydroxymethyl)-2-methylpyridine-4-carbaldehyde
Formula: C8H9NO3
Exact mass: 167.05824
SMILES: CC1=NC=C(CO)C(C=O)=C1O
InChI: InChI=1S/C8H9NO3/c1-5-8(12)7(4-11)6(3-10)2-9-5/h2,4,10,12H,3H2,1H3
Instrument: Agilent 6530 QTOF
Instrument type: LC-ESI-QTOF
Ms type: MS2
Ion mode: POSITIVE
Ionization: ESI
Fragmentation mode: CID
Collision energy: 10 eV
Resolution: 5000
Column name: N/A
Retention time: 0.214 min
Base peak: 150.0569
Precursor m/z: 168.0655
Precursor type: [M+H]+
Precursor intensity: 7537328
m/z	relative intensity	assigned
41.0391	5	C3H5+
42.0338	1	C2H4N+
53.0384	19	C4H5+
65.0383	10	C5H5+
67.0539	72	C5H7+
77.0377	12	C6H5+
78.0346	2	C5H4N+
79.0534	9	C6H7+
81.0341	1	C5H5O+
93.056	3	C6H7N+
94.0643	191	C6H8N+
106.0636	56	C4H10O3+
122.0586	135	C7H8NO+
148.0368	6	C8H6NO2+
150.0529	999	C8H8NO2+
168.0631	43	C8H10NO3+
