Mass spectrum: N-palmitoyl-D-erythro-sphinganine; LC-ESI-QTOF; MS2; CE: 40eV; R=7000; [M+Na]+
Name: N-palmitoyl-D-erythro-sphinganine
Name: N-(hexadecanoyl)-sphinganine
Name: N-[(2S,3R)-1,3-dihydroxyoctadecan-2-yl]hexadecanamide
Formula: C34H69NO3
Exact mass: 539.5277
SMILES: CCCCCCCCCCCCCCC[C@H]([C@H](CO)NC(=O)CCCCCCCCCCCCCCC)O
InChI: InChI=1S/C34H69NO3/c1-3-5-7-9-11-13-15-17-19-21-23-25-27-29-33(37)32(31-36)35-34(38)30-28-26-24-22-20-18-16-14-12-10-8-6-4-2/h32-33,36-37H,3-31H2,1-2H3,(H,35,38)/t32-,33+/m0/s1
Instrument: Agilent 6560 QTOF
Instrument type: LC-ESI-QTOF
Ms type: MS2
Ion mode: POSITIVE
Ionization: ESI
Fragmentation mode: CID
Collision energy: 40 eV
Resolution: 7000
Column name: Direct injection
Retention time: 0.157 min
Base peak: 540.5365
Precursor m/z: 562.517
Precursor type: [M+Na]+
Precursor intensity: 3179
m/z	relative intensity	assigned
104.9922	406	C4H2NaO2+
207.0692	107	C14H9NO+
281.2898	258	C13H40NNaO3+
282.304	77	C15H40NO3+
376.2727	219	C25H37NaO+
481.2086	288	C34H27NO2+
562.5186	999	C34H69NNaO3+
