Mass spectrum: N-ACETYLGLUTAMATE; LC-ESI-QTOF; MS2; CE: 40eV; R=5000; [M+H]+
Name: N-ACETYLGLUTAMATE
Name: N-acetylglutamic acid
Name: 2-acetamidopentanedioic acid
Formula: C7H11NO5
Exact mass: 189.0637
SMILES: CC(=O)NC(CCC(O)=O)C(O)=O
InChI: InChI=1S/C7H11NO5/c1-4(9)8-5(7(12)13)2-3-6(10)11/h5H,2-3H2,1H3,(H,8,9)(H,10,11)(H,12,13)
Instrument: Agilent 6530 QTOF
Instrument type: LC-ESI-QTOF
Ms type: MS2
Ion mode: POSITIVE
Ionization: ESI
Fragmentation mode: CID
Collision energy: 40 eV
Resolution: 5000
Column name: N/A
Retention time: 0.215 min
Base peak: 922.0098
Precursor m/z: 190.071
Precursor type: [M+H]+
Precursor intensity: 115426
m/z	relative intensity	assigned
41.0388	416	C3H5+
43.0186	251	C2H3O+
51.0227	15	C4H3+
56.049	999	C3H6N+
57.0704	3	C4H9+
66.0311	31	CH6O3+
84.0432	829	C4H6NO+
94.9864	5	HNO5+
102.05	9	CH10O5+
162.051	1	C6H10O5+
