Mass spectrum: ADENOSINEMONOPHOSPHATE; LC-ESI-QTOF; MS2; CE: 40eV; R=5000; [M+H]+
Name: ADENOSINEMONOPHOSPHATE
Name: Adenosine monophosphate
Name: [(2R,3S,4R,5R)-5-(6-aminopurin-9-yl)-3,4-dihydroxyoxolan-2-yl]methyl dihydrogen phosphate
Formula: C10H14N5O7P
Exact mass: 347.0631
SMILES: NC1=C2N=CN([C@@H]3O[C@H](COP(O)(O)=O)[C@@H](O)[C@H]3O)C2=NC=N1
InChI: InChI=1S/C10H14N5O7P/c11-8-5-9(13-2-12-8)15(3-14-5)10-7(17)6(16)4(22-10)1-21-23(18,19)20/h2-4,6-7,10,16-17H,1H2,(H2,11,12,13)(H2,18,19,20)/t4-,6-,7-,10-/m1/s1
Instrument: Agilent 6530 QTOF
Instrument type: LC-ESI-QTOF
Ms type: MS2
Ion mode: POSITIVE
Ionization: ESI
Fragmentation mode: CID
Collision energy: 40 eV
Resolution: 5000
Column name: N/A
Retention time: 0.319 min
Base peak: 121.0508
Precursor m/z: 348.0704
Precursor type: [M+H]+
Precursor intensity: 37223
m/z	relative intensity	assigned
41.0389	55	C3H5+
68.0496	22	C4H6N+
69.0335	115	C4H5O+
92.0241	20	C4H2N3+
94.0413	26	C6H6O+
97.0292	134	CH8NO2P+
98.9942	1	C3HNO3+
109.0493	53	C3H9O4+
116.0396	7	C5H9OP+
116.9981	45	C3H4NO2P+
119.0346	130	H10NO4P+
121.0538	6	C3H10N2OP+
131.0228	36	C5HN5+
136.0614	999	C5H6N5+
137.0914	5	C4H13N2O3+
148.0544	9	H10N3O6+
156.9412	4	NO7P+
163.0728	29	CH14N3O4P+
165.0967	11	CH15N3O6+
169.0589	2	H14N2O6P+
170.9821	11	C4H2N3O3P+
172.9538	3	C4NO5P+
270.9717	5	C6H2N5O6P+
321.0664	15	C9H14N4O7P+
