Mass spectrum: Coenzyme Q10; LC-ESI-QTOF; MS2; CE: 20eV; R=7000; [M+NH4]+
Name: Coenzyme Q10
Name: 2-[(2E,6E,10E,14E,18E,22E,26E,30E,34E)-3,7,11,15,19,23,27,31,35,39-decamethyltetraconta-2,6,10,14,18,22,26,30,34,38-decaenyl]-5,6-dimethoxy-3-methylcyclohexa-2,5-diene-1,4-dione
Formula: C59H90O4
Exact mass: 862.6839
SMILES: CC1=C(C(=O)C(=C(C1=O)OC)OC)C/C=C(\C)/CC/C=C(\C)/CC/C=C(\C)/CC/C=C(\C)/CC/C=C(\C)/CC/C=C(\C)/CC/C=C(\C)/CC/C=C(\C)/CC/C=C(\C)/CCC=C(C)C
InChI: InChI=1S/C59H90O4/c1-44(2)24-15-25-45(3)26-16-27-46(4)28-17-29-47(5)30-18-31-48(6)32-19-33-49(7)34-20-35-50(8)36-21-37-51(9)38-22-39-52(10)40-23-41-53(11)42-43-55-54(12)56(60)58(62-13)59(63-14)57(55)61/h24,26,28,30,32,34,36,38,40,42H,15-23,25,27,29,31,33,35,37,39,41,43H2,1-14H3/b45-26+,46-28+,47-30+,48-32+,49-34+,50-36+,51-38+,52-40+,53-42+
Instrument: Agilent 6560 QTOF
Instrument type: LC-ESI-QTOF
Ms type: MS2
Ion mode: POSITIVE
Ionization: ESI
Fragmentation mode: CID
Collision energy: 20 eV
Resolution: 7000
Column name: Direct injection
Retention time: 0.325 min
Base peak: 647.4601
Precursor m/z: 880.7177
Precursor type: [M+NH4]+
Precursor intensity: 191191
m/z	relative intensity	assigned
79.0547	11	C6H7+
81.0703	126	C6H9+
83.0842	3	C6H11+
93.068	27	C7H9+
95.0854	146	C7H11+
97.1013	58	C7H13+
105.0687	18	C8H9+
109.1004	180	C8H13+
117.0699	28	C9H9+
119.0856	29	C9H11+
120.0922	6	C9H12+
121.1006	74	C9H13+
123.1165	50	C9H15+
125.1301	6	C9H17+
133.1022	35	C10H13+
135.1163	78	C10H15+
135.3589	5	C6H47O+
137.1326	38	C10H17+
143.0886	4	C11H11+
145.0627	19	C10H9O+
145.0993	11	C11H13+
147.1168	38	C11H15+
149.1322	65	C11H17+
150.1313	6	C10H16N+
151.0749	26	C9H11O2+
158.074	4	C11H10O+
159.1165	17	C12H15+
161.1302	39	C12H17+
163.148	106	C12H19+
165.0549	5	C9H9O3+
165.1663	4	C12H21+
167.0707	11	C9H11O3+
169.0725	11	C8H11NO3+
170.0852	5	C8H12NO3+
171.0642	13	C8H11O4+
171.1138	13	C13H15+
173.0592	7	C11H9O2+
173.0956	7	C12H13O+
173.1324	16	C13H17+
173.2454	3	C9H33O2+
175.1472	55	C13H19+
177.0886	20	C11H13O2+
177.1637	71	C13H21+
179.1772	17	C13H23+
181.0867	37	C10H13O3+
183.1156	6	C14H15+
184.1206	3	C14H16+
187.1491	6	C14H19+
189.0556	11	C11H9O3+
189.0882	4	C12H13O2+
189.163	62	C14H21+
191.0716	15	C14H9N+
191.181	13	C14H23+
192.0756	5	C11H12O3+
193.0453	11	C10H9O4+
195.0994	28	C11H15O3+
197.0808	999	C10H13O4+
198.084	99	C10H14O4+
199.0732	17	C13H11O2+
199.1469	2	C15H19+
201.1648	20	C15H21+
203.109	14	C13H15O2+
203.1792	12	C15H23+
203.7317	3	C8H93N+
204.179	6	C14H22N+
205.083	6	C12H13O3+
205.1942	11	C15H25+
208.0698	5	C11H12O4+
209.114	5	C12H17O3+
211.095	28	C11H15O4+
213.0741	7	C17H9+
215.181	17	C16H23+
217.1948	54	C16H25+
218.0959	10	C16H12N+
219.0983	18	C13H15O3+
220.104	12	C13H16O3+
221.1178	17	C13H17O3+
222.0909	4	C15H12NO+
223.0965	6	C12H15O4+
229.1214	8	C15H17O2+
229.1961	21	C17H25+
231.1016	65	C14H15O3+
231.1394	7	C15H19O2+
231.2122	18	C17H27+
235.0951	25	C13H15O4+
235.1331	21	C14H19O3+
236.3336	3	C15H42N+
237.1126	62	C13H17O4+
237.1662	11	C18H21+
238.116	7	C13H18O4+
241.1167	6	C16H17O2+
241.1945	9	C18H25+
243.2069	6	C18H27+
245.1168	18	C15H17O3+
245.2236	8	C18H29+
247.132	25	C15H19O3+
247.2389	12	C18H31+
249.1098	3	C14H17O4+
251.126	28	C14H19O4+
253.1223	10	C17H17O2+
255.1388	18	C17H19O2+
255.1777	3	C18H23O+
255.2092	28	C19H27+
257.1527	20	C17H21O2+
257.2272	21	C19H29+
258.229	9	C19H30+
259.2389	18	C19H31+
261.1246	8	C19H17O+
263.1241	12	C15H19O4+
267.138	7	C18H19O2+
268.138	14	C17H18NO2+
269.1569	10	C18H21O2+
269.2201	3	C20H29+
271.2384	23	C20H31+
273.1879	3	C18H25O2+
273.2571	6	C20H33+
273.5761	6	C11H77O4+
275.1281	7	C16H19O4+
275.1675	11	C20H21N+
275.2339	2	C19H31O+
277.1466	6	C19H19NO+
279.1519	3	C15H21NO4+
281.2265	10	C21H29+
284.251	4	C21H32+
285.1461	31	C18H21O3+
285.1839	7	C19H25O2+
285.2593	6	C21H33+
286.1527	2	C18H22O3+
287.1661	21	C21H21N+
287.2701	7	C21H35+
288.1637	4	C17H22NO3+
289.1463	3	C20H19NO+
289.1815	3	C21H23N+
289.2836	9	C21H37+
291.1609	6	C20H21NO+
295.2418	4	C22H31+
297.2632	6	C18H35NO2+
298.2573	7	C21H32N+
299.1607	22	C19H23O3+
299.2777	16	C18H37NO2+
302.181	9	C18H24NO3+
303.1564	3	C18H23O4+
303.1931	5	C19H27O3+
305.1751	6	C18H25O4+
307.2401	8	C23H31+
311.2739	11	C23H35+
313.179	17	C20H25O3+
313.292	9	C23H37+
319.1953	20	C22H25NO+
319.2327	3	C23H29N+
321.1786	4	C22H25O2+
321.2564	3	C24H33+
325.209	5	C21H27NO2+
325.2862	8	C24H37+
327.1956	9	C21H27O3+
329.3168	4	C24H41+
337.2883	7	C25H37+
341.2063	3	C22H29O3+
341.2446	4	C23H33O2+
341.3153	16	C25H41+
345.2078	2	C24H27NO+
351.3036	5	C26H39+
353.2424	8	C24H33O2+
353.3245	3	C26H41+
355.2221	3	C23H31O3+
357.2033	8	C22H29O4+
365.3204	8	C27H41+
367.3391	4	C27H43+
368.2364	6	C27H30N+
369.2133	2	C26H27NO+
369.2499	4	C27H31N+
371.2229	12	C23H31O4+
371.2558	6	C24H35O3+
373.2374	24	C23H33O4+
379.3274	4	C27H41N+
381.2384	10	C25H33O3+
383.3682	15	C28H47+
391.3294	10	C28H41N+
409.3835	4	C30H49+
410.3865	9	C30H50+
411.2467	4	C25H33NO4+
413.2652	4	C26H37O4+
423.2842	12	C28H39O3+
433.279	2	C32H35N+
435.287	9	C29H39O3+
435.3988	4	C32H51+
436.3921	2	C28H52O3+
445.3758	5	C32H47N+
447.3924	9	C33H51+
449.3057	12	C30H41O3+
461.4061	8	C33H51N+
464.434	4	C34H56+
465.2921	4	C29H39NO4+
467.188	9	C33H25NO2+
467.323	9	C33H41NO+
468.3156	8	C29H42NO4+
475.4179	7	C34H53N+
477.299	3	C31H41O4+
477.3323	5	C32H45O3+
477.4474	17	C35H57+
498.2795	13	C36H36NO+
503.4611	4	C37H59+
505.3643	6	C34H49O3+
509.3647	5	C36H47NO+
525.4071	2	C38H53O+
533.3629	1	C35H49O4+
534.3688	3	C35H50O4+
536.3761	4	C34H50NO4+
545.3953	3	C37H53O3+
570.5019	7	C38H66O3+
577.4224	10	C38H57O4+
578.432	2	C38H58O4+
585.5381	2	C43H69+
591.4421	2	C42H57NO+
591.4759	2	C40H63O3+
597.5231	4	C40H69O3+
603.4477	5	C43H57NO+
616.4834	5	C42H64O3+
635.4578	4	C48H59+
659.4975	3	C44H67O4+
667.6139	5	C49H79+
680.5011	9	C46H66NO3+
699.5345	5	C47H71O4+
708.5364	3	C48H70NO3+
727.5626	5	C49H75O4+
739.5723	7	C53H73NO+
783.5847	1	C59H75+
832.6733	8	C58H88O3+
863.6905	25	C59H91O4+
864.686	14	C58H90NO4+
