Mass spectrum: 1-octadecenoyl-rac-glycerol; LC-ESI-QTOF; MS2; CE: 20eV; R=7000; [M+CH3COO]-
Name: 1-octadecenoyl-rac-glycerol
Name: Glyceryl monooleate
Name: 2,3-dihydroxypropyl (Z)-octadec-9-enoate
Formula: C21H40O4
Exact mass: 356.2927
SMILES: CCCCCCCC/C=C\CCCCCCCC(=O)OCC(CO)O
InChI: InChI=1S/C21H40O4/c1-2-3-4-5-6-7-8-9-10-11-12-13-14-15-16-17-21(24)25-19-20(23)18-22/h9-10,20,22-23H,2-8,11-19H2,1H3/b10-9-
Instrument: Agilent 6560 QTOF
Instrument type: LC-ESI-QTOF
Ms type: MS2
Ion mode: NEGATIVE
Ionization: ESI
Fragmentation mode: CID
Collision energy: 20 eV
Resolution: 7000
Column name: N/A
Retention time: 0.164 min
Base peak: 980.0164
Precursor m/z: 415.3065
Precursor type: [M+CH3COO]-
Precursor intensity: 20390
m/z	relative intensity	assigned
86.1526	109	H22O4-
116.063	101	C9H8-
132.995	186	C7HO3-
194.1482	104	C9H22O4-
209.0796	999	C11H13O4-
220.2074	110	C12H28O3-
227.1469	115	C16H19O-
255.2318	474	C16H31O2-
260.1572	143	C20H20-
305.1391	148	C17H21O5-
332.981	183	C21HO5-
340.1277	971	C20H20O5-
340.2079	105	C22H28O3-
