Mass spectrum: 1,2-Dipalmitoyl-rac-glycerol; LC-ESI-QTOF; MS2; CE: 20eV; R=7000; [M+CH3COO]-
Name: 1,2-Dipalmitoyl-rac-glycerol
Name: 1,2-Dipalmitoyl-sn-glycerol
Name: [(2S)-2-hexadecanoyloxy-3-hydroxypropyl] hexadecanoate
Formula: C35H68O5
Exact mass: 568.5067
SMILES: [H][C@](CO)(COC(=O)CCCCCCCCCCCCCCC)OC(=O)CCCCCCCCCCCCCCC
InChI: InChI=1S/C35H68O5/c1-3-5-7-9-11-13-15-17-19-21-23-25-27-29-34(37)39-32-33(31-36)40-35(38)30-28-26-24-22-20-18-16-14-12-10-8-6-4-2/h33,36H,3-32H2,1-2H3/t33-/m0/s1
Instrument: Agilent 6560 QTOF
Instrument type: LC-ESI-QTOF
Ms type: MS2
Ion mode: NEGATIVE
Ionization: ESI
Fragmentation mode: CID
Collision energy: 20 eV
Resolution: 7000
Column name: N/A
Retention time: 0.191 min
Base peak: 223.0293
Precursor m/z: 627.5205
Precursor type: [M+CH3COO]-
Precursor intensity: 11846
m/z	relative intensity	assigned
70.2308	146	C2H30O-
87.493	119	C2H63-
102.1989	371	C5H26O-
208.9747	999	C8HO7-
224.0252	211	C17H4O-
244.9893	182	C15HO4-
276.1695	338	C17H24O3-
277.3569	89	C11H49O6-
295.3111	207	C13H43O6-
303.0479	213	C22H7O2-
321.0953	314	C16H17O7-
341.3475	149	C15H49O7-
379.1231	183	C22H19O6-
499.1619	263	C33H23O5-
541.2728	176	C34H37O6-
585.2784	96	C36H41O7-
