Mass spectrum: Butyryl trihexyl citrate; LC-ESI-QTOF; MS2; CE: 35eV; R=7000; [M+Na]+
Name: Butyryl trihexyl citrate
Name: trihexyl 2-butanoyloxypropane-1,2,3-tricarboxylate
Formula: C28H50O8
Exact mass: 514.3506
SMILES: CCCCCCOC(=O)CC(CC(=O)OCCCCCC)(C(=O)OCCCCCC)OC(=O)CCC
InChI: InChI=1S/C28H50O8/c1-5-9-12-15-19-33-25(30)22-28(36-24(29)18-8-4,27(32)35-21-17-14-11-7-3)23-26(31)34-20-16-13-10-6-2/h5-23H2,1-4H3
Instrument: Agilent 6560 QTOF
Instrument type: LC-ESI-QTOF
Ms type: MS2
Ion mode: POSITIVE
Ionization: ESI
Fragmentation mode: CID
Collision energy: 35 eV
Resolution: 7000
Retention time: 0.147 min
Base peak: 537.3406
Precursor m/z: 537.3398
Precursor type: [M+Na]+
Precursor intensity: 39834.82
m/z	relative intensity	assigned
129.0179	34	C5H5O4+
139.0001	34	C4H4NaO4+
235.0931	498	C11H16NaO4+
236.0938	30	C9H16O7+
263.0873	25	C12H16NaO5+
281.0487	35	C16H9O5+
281.1	84	C12H18NaO6+
282.0518	29	C16H10O5+
299.1111	71	C12H20NaO7+
323.1784	42	C25H23+
337.1972	559	C17H30NaO5+
338.2013	112	C24H27Na+
365.1918	296	C18H30NaO6+
383.2036	361	C18H32NaO7+
384.2056	41	C25H29NaO2+
449.2862	999	C24H42NaO6+
450.2912	147	C24H43NaO6+
453.2416	39	C22H38NaO8+
467.296	87	C24H44NaO7+
537.3392	483	C28H50NaO8+
