Mass spectrum: N-ACETYLASPARTATE; LC-ESI-QTOF; MS2; CE: 10eV; R=5000; [M+H]+
Name: N-ACETYLASPARTATE
Name: N-Acetyl-L-aspartic acid
Name: (2S)-2-acetamidobutanedioic acid
Formula: C6H9NO5
Exact mass: 175.0481
SMILES: CC(=O)N[C@@H](CC(O)=O)C(O)=O
InChI: InChI=1S/C6H9NO5/c1-3(8)7-4(6(11)12)2-5(9)10/h4H,2H2,1H3,(H,7,8)(H,9,10)(H,11,12)/t4-/m0/s1
Instrument: Agilent 6530 QTOF
Instrument type: LC-ESI-QTOF
Ms type: MS2
Ion mode: POSITIVE
Ionization: ESI
Fragmentation mode: CID
Collision energy: 10 eV
Resolution: 5000
Column name: N/A
Retention time: 0.251 min
Base peak: 922.0098
Precursor m/z: 176.0553
Precursor type: [M+H]+
Precursor intensity: 77333
m/z	relative intensity	assigned
43.0185	235	C2H3O+
46.0285	145	CH4NO+
60.0446	56	C2H6NO+
70.028	131	C3H4NO+
74.023	677	C2H4NO2+
88.0378	999	H8O5+
98.0198	5	CH6O5+
116.0321	363	C4H6NO3+
134.0418	523	C4H8NO4+
158.0414	190	C6H8NO4+
176.0546	26	C6H10NO5+
