Mass spectrum: Corticosterone; LC-ESI-QTOF; MS2; CE: 40eV; R=7000; [M-H]-
Name: Corticosterone
Name: (8S,9S,10R,11S,13S,14S,17S)-11-hydroxy-17-(2-hydroxyacetyl)-10,13-dimethyl-1,2,6,7,8,9,11,12,14,15,16,17-dodecahydrocyclopenta[a]phenanthren-3-one
Formula: C21H30O4
Exact mass: 346.2144
SMILES: C[C@]12CCC(=O)C=C1CC[C@@H]3[C@@H]2[C@H](C[C@]4([C@H]3CC[C@@H]4C(=O)CO)C)O
InChI: InChI=1S/C21H30O4/c1-20-8-7-13(23)9-12(20)3-4-14-15-5-6-16(18(25)11-22)21(15,2)10-17(24)19(14)20/h9,14-17,19,22,24H,3-8,10-11H2,1-2H3/t14-,15-,16+,17-,19+,20-,21-/m0/s1
Instrument: Agilent 6560 QTOF
Instrument type: LC-ESI-QTOF
Ms type: MS2
Ion mode: NEGATIVE
Ionization: ESI
Fragmentation mode: CID
Collision energy: 40 eV
Resolution: 7000
Column name: N/A
Retention time: 0.168 min
Base peak: 405.2302
Precursor m/z: 345.2071
Precursor type: [M-H]-
Precursor intensity: 6401
m/z	relative intensity	assigned
85.0312	503	C4H5O2-
117.0704	186	C9H9-
123.08	999	C8H11O-
174.07	833	C11H10O2-
275.9845	587	C19O3-
295.1336	671	C19H19O3-
