Mass spectrum: Tricosylic acid; LC-ESI-QTOF; MS2; CE: 40eV; R=7000; [M-H]-
Name: Tricosylic acid
Name: tricosanoic acid
Formula: C23H46O2
Exact mass: 354.3498
SMILES: CCCCCCCCCCCCCCCCCCCCCCC(O)=O
InChI: InChI=1S/C23H46O2/c1-2-3-4-5-6-7-8-9-10-11-12-13-14-15-16-17-18-19-20-21-22-23(24)25/h2-22H2,1H3,(H,24,25)
Instrument: Agilent 6560 QTOF
Instrument type: LC-ESI-QTOF
Ms type: MS2
Ion mode: NEGATIVE
Ionization: ESI
Fragmentation mode: CID
Collision energy: 40 eV
Resolution: 7000
Column name: N/A
Retention time: 0.147 min
Base peak: 353.3428
Precursor m/z: 353.3425
Precursor type: [M-H]-
Precursor intensity: 750532
m/z	relative intensity	assigned
73.0068	402	C6H-
76.0891	425	C4H12O-
76.124	417	C5H16-
80.9996	472	C4HO2-
81.035	433	C5H5O-
86.1109	404	C6H14-
86.3174	426	CH42O2-
87.0438	378	C4H7O2-
88.3116	372	C4H40-
89.3195	378	C4H41-
89.3405	331	CH45O2-
90.3298	378	C4H42-
91.2986	387	C3H39O-
93.0898	473	C4H13O2-
94.1367	307	C5H18O-
95.274	307	C5H35-
96.2103	354	C3H28O2-
97.2541	404	C4H33O-
100.2748	421	C4H36O-
101.0983	372	C6H13O-
103.1716	357	C4H23O2-
103.2626	496	C3H35O2-
104.2502	591	C6H32-
108.2847	542	C6H36-
108.3018	401	C3H40O2-
111.9942	491	C8O-
114.1036	443	C7H14O-
119.1078	351	C6H15O2-
124.0289	451	C10H4-
126.1961	345	C7H26O-
128.0255	331	C9H4O-
129.2588	421	C8H33-
130.2855	351	C5H38O2-
131.0111	426	C8H3O2-
131.2011	354	C6H27O2-
133.0999	421	C10H13-
134.0155	378	C11H2-
134.132	345	C7H18O2-
134.3173	485	C5H42O2-
135.0789	519	C9H11O-
135.1415	390	C7H19O2-
136.2177	390	C9H28-
137.288	307	C7H37O-
138.047	310	C11H6-
138.1997	378	C8H26O-
140.0822	311	C8H12O2-
141.0697	401	C11H9-
142.3249	283	C7H42O-
144.0614	351	C10H8O-
144.2117	399	C7H28O2-
146.0382	354	C9H6O2-
148.1834	354	C9H24O-
148.2404	330	C7H32O2-
149.1941	307	C9H25O-
149.3245	430	C9H41-
159.0244	425	C13H3-
161.1574	372	C9H21O2-
162.1042	357	C11H14O-
163.1496	425	C12H19-
163.2056	473	C10H27O-
164.0878	469	C10H12O2-
164.16	390	C12H20-
165.1686	355	C12H21-
166.2337	401	C10H30O-
167.241	378	C10H31O-
168.2483	356	C10H32O-
170.3162	307	C8H42O2-
172.0517	319	C11H8O2-
172.3339	403	C8H44O2-
173.0369	496	C14H5-
173.19	330	C11H25O-
173.2245	383	C12H29-
174.1645	330	C10H22O2-
175.0199	364	C13H3O-
177.3483	307	C11H45-
178.1328	331	C12H18O-
179.0894	307	C14H11-
182.1314	357	C11H18O2-
183.0831	331	C13H11O-
183.9991	345	C14O-
187.2474	330	C13H31-
187.3034	378	C11H39O-
188.2148	513	C12H28O-
189.184	430	C11H25O2-
190.1404	364	C13H18O-
191.2747	345	C13H35-
193.0046	439	C16H-
193.1004	283	C15H13-
193.2936	333	C13H37-
194.0367	331	C13H6O2-
195.0461	449	C13H7O2-
198.0489	378	C16H6-
198.0734	383	C13H10O2-
198.2912	417	C12H38O-
199.2639	431	C11H35O2-
200.1761	345	C12H24O2-
200.3489	373	C13H44-
201.096	330	C13H13O2-
203.0535	283	C15H7O-
204.0042	319	C17-
208.1429	401	C13H20O2-
209.1902	364	C14H25O-
209.2227	351	C15H29-
211.1755	364	C13H23O2-
211.2434	354	C15H31-
212.254	330	C15H32-
213.093	462	C14H13O2-
215.0521	283	C16H7O-
217.0053	354	C18H-
217.3133	999	C12H41O2-
219.3314	404	C12H43O2-
220.2354	311	C13H32O2-
220.2755	372	C14H36O-
221.1361	330	C17H17-
225.3479	311	C15H45-
226.1755	283	C17H22-
227.0178	283	C16H3O2-
229.1258	355	C15H17O2-
231.0483	357	C16H7O2-
231.2355	357	C14H31O2-
231.2672	292	C15H35O-
232.0936	410	C17H12O-
232.121	378	C18H16-
232.3147	319	C16H40-
233.0371	536	C19H5-
233.226	399	C17H29-
233.2843	383	C15H37O-
236.2098	331	C16H28O-
237.092	337	C16H13O2-
237.1817	378	C15H25O2-
238.2881	425	C14H38O2-
240.0272	383	C17H4O2-
241.1027	331	C19H13-
241.3117	283	C14H41O2-
242.1683	337	C17H22O-
243.3306	308	C14H43O2-
245.1314	331	C19H17-
245.2335	330	C18H29-
245.3252	337	C17H41-
246.1104	337	C18H14O-
247.3022	359	C16H39O-
249.2812	398	C15H37O2-
250.3252	373	C16H42O-
252.3433	310	C16H44O-
253.1011	373	C20H13-
253.3526	364	C16H45O-
255.2694	307	C17H35O-
256.2184	590	C19H28-
256.9996	359	C20HO-
257.2813	333	C17H37O-
258.3276	364	C18H42-
260.0886	421	C18H12O2-
260.1198	354	C19H16O-
261.1665	378	C20H21-
261.9996	378	C19H2O2-
262.1384	421	C19H18O-
262.291	356	C16H38O2-
264.1889	311	C20H24-
266.1289	357	C18H18O2-
269.0424	378	C22H5-
269.0906	307	C20H13O-
272.1629	401	C21H20-
272.2754	307	C17H36O2-
274.0041	330	C20H2O2-
276.1514	497	C20H20O-
277.103	337	C22H13-
278.0442	378	C20H6O2-
278.2973	364	C20H38-
286.2363	307	C20H30O-
286.2851	357	C18H38O2-
287.0887	354	C23H11-
287.3332	401	C19H43O-
288.2974	378	C18H40O2-
289.1293	395	C20H17O2-
290.2981	308	C21H38-
291.1404	567	C20H19O2-
293.2297	319	C22H29-
295.0724	330	C21H11O2-
295.1689	330	C20H23O2-
295.2987	439	C20H39O-
298.192	337	C20H26O2-
298.3179	513	C20H42O-
299.1994	378	C20H27O2-
300.2058	390	C20H28O2-
300.2514	331	C21H32O-
300.3094	395	C19H40O2-
301.1662	351	C22H21O-
301.2008	425	C23H25-
302.0733	330	C23H10O-
302.2231	417	C20H30O2-
304.1539	307	C21H20O2-
307.1063	465	C23H15O-
307.3027	386	C21H39O-
309.1285	421	C23H17O-
311.0154	330	C23H3O2-
311.2089	378	C21H27O2-
311.2723	417	C23H35-
313.1522	405	C23H21O-
314.1643	330	C23H22O-
316.2767	491	C22H36O-
317.1909	286	C23H25O-
319.2642	333	C21H35O2-
320.2695	398	C21H36O2-
324.1102	395	C23H16O2-
335.3359	901	C23H43O-
338.3111	307	C22H42O2-
348.3035	404	C23H40O2-
349.3033	404	C23H41O2-
352.3346	357	C23H44O2-
