Mass spectrum: LAUROYLCARNITINE; LC-ESI-QTOF; MS2; CE: 20eV; R=5000; [M+H]+
Name: LAUROYLCARNITINE
Name: (3R)-3-dodecanoyloxy-4-(trimethylazaniumyl)butanoate
Formula: C19H37NO4
Exact mass: 343.2723
SMILES: CCCCCCCCCCCC(=O)O[C@H](CC([O-])=O)C[N+](C)(C)C
InChI: InChI=1S/C19H37NO4/c1-5-6-7-8-9-10-11-12-13-14-19(23)24-17(15-18(21)22)16-20(2,3)4/h17H,5-16H2,1-4H3/t17-/m1/s1
Instrument: Agilent 6530 QTOF
Instrument type: LC-ESI-QTOF
Ms type: MS2
Ion mode: POSITIVE
Ionization: ESI
Fragmentation mode: CID
Collision energy: 20 eV
Resolution: 5000
Column name: N/A
Retention time: 0.567 min
Base peak: 121.0508
Precursor m/z: 344.2795
Precursor type: [M+H]+
Precursor intensity: 761828
m/z	relative intensity	assigned
43.0544	5	C3H7+
55.0549	5	C4H7+
57.0338	10	C3H5O+
60.082	75	C3H10N+
71.0856	9	C5H11+
81.0684	4	C6H9+
83.0851	5	C6H11+
85.029	999	C4H5O2+
86.0356	2	C4H6O2+
86.1312	1	C3H18O2+
95.0875	17	C7H11+
97.1013	2	C7H13+
103.0741	2	C5H11O2+
109.0985	9	C8H13+
129.0813	1	C6H11NO2+
144.1032	19	C7H14NO2+
165.1646	1	C12H21+
183.1739	34	C12H23O+
201.1844	3	C12H25O2+
270.1318	1	C17H18O3+
285.2074	36	C19H27NO+
344.2819	142	C19H38NO4+
