Mass spectrum: trans-2-octenoyl-L-carnitine; LC-ESI-QTOF; MS2; CE: 20eV; R=5000; [M+H]+
Name: trans-2-octenoyl-L-carnitine
Name: (2E)-octenoylcarnitine
Name: 3-[(E)-oct-2-enoyl]oxy-4-(trimethylazaniumyl)butanoate
Formula: C15H27NO4
Exact mass: 285.1940
SMILES: O=C(OC(CC([O-])=O)C[N+](C)(C)C)/C=C/CCCCC
InChI: InChI=1S/C15H27NO4/c1-5-6-7-8-9-10-15(19)20-13(11-14(17)18)12-16(2,3)4/h9-10,13H,5-8,11-12H2,1-4H3/b10-9+
Instrument: Agilent 6530 QTOF
Instrument type: LC-ESI-QTOF
Ms type: MS2
Ion mode: POSITIVE
Ionization: ESI
Fragmentation mode: CID
Collision energy: 20 eV
Resolution: 5000
Column name: N/A
Retention time: 0.216 min
Base peak: 121.0508
Precursor m/z: 286.2013
Precursor type: [M+H]+
Precursor intensity: 1016442
m/z	relative intensity	assigned
55.0179	38	C3H3O+
58.0651	2	C3H8N+
59.0734	1	C3H9N+
60.0811	43	C3H10N+
73.0287	38	C3H5O2+
81.0686	4	C6H9+
83.0875	1	C6H11+
85.0287	999	C4H5O2+
86.1083	2	C6H14+
87.0442	1	C4H7O2+
97.1	8	C7H13+
125.0955	96	C8H13O+
129.0777	1	C6H11NO2+
143.1065	43	C8H15O2+
144.1003	16	C7H14NO2+
227.1269	51	C12H19O4+
286.199	44	C15H28NO4+
