Mass spectrum: Para-hydroxy triphenyl phosphate; LC-ESI-QTOF; MS2; CE: 50eV; R=7000; [M+H]+
Name: Para-hydroxy triphenyl phosphate
Name: 4-Hydroxyphenyl diphenyl phosphate
Name: (4-hydroxyphenyl) diphenyl phosphate
Formula: C18H15O5P
Exact mass: 342.0657
SMILES: C1=CC=C(C=C1)OP(=O)(OC2=CC=CC=C2)OC3=CC=C(C=C3)O
InChI: InChI=1S/C18H15O5P/c19-15-11-13-18(14-12-15)23-24(20,21-16-7-3-1-4-8-16)22-17-9-5-2-6-10-17/h1-14,19H
Instrument: Agilent 6560 QTOF
Instrument type: LC-ESI-QTOF
Ms type: MS2
Ion mode: POSITIVE
Ionization: ESI
Fragmentation mode: CID
Collision energy: 50 eV
Resolution: 7000
Retention time: 0.147 min
Base peak: 343.0726
Precursor m/z: 343.073
Precursor type: [M+H]+
Precursor intensity: 75812.89
m/z	relative intensity	assigned
50.0151	22	C4H2+
51.0234	327	C4H3+
53.0388	31	C4H5+
65.0388	313	C5H5+
74.0147	12	C6H2+
77.0388	999	C6H5+
81.0336	232	C5H5O+
82.0412	22	C5H6O+
94.0399	19	C6H6O+
102.0465	14	C8H6+
109.0277	139	C6H5O2+
110.0357	31	C6H6O2+
115.054	582	C9H7+
116.0571	12	C2H13O3P+
125.0386	12	C10H5+
127.0527	29	C3H12O3P+
128.0614	54	C10H8+
138.9923	13	C6H4O2P+
139.0537	136	C11H7+
140.0613	64	C11H8+
141.0688	35	C11H9+
150.0458	31	C12H6+
151.0538	56	C12H7+
152.0617	441	C12H8+
153.0662	12	C5H14O3P+
163.0541	12	C13H7+
168.0566	130	C12H8O+
169.0642	18	C12H9O+
184.0499	45	C5H13O5P+
202.0765	22	C9H15O3P+
215.084	15	C10H16O3P+
224.063	11	C18H8+
226.0786	13	C18H10+
