Mass spectrum: 4-n-Octylphenol; LC-ESI-QTOF; MS2; CE: 10eV; R=7000; [M-H]-
Name: 4-n-Octylphenol
Name: 4-octylphenol
Formula: C14H22O
Exact mass: 206.1671
SMILES: CCCCCCCCC1=CC=C(C=C1)O
InChI: InChI=1S/C14H22O/c1-2-3-4-5-6-7-8-13-9-11-14(15)12-10-13/h9-12,15H,2-8H2,1H3
Instrument: Agilent 6560 QTOF
Instrument type: LC-ESI-QTOF
Ms type: MS2
Ion mode: NEGATIVE
Ionization: ESI
Fragmentation mode: CID
Collision energy: 10 eV
Resolution: 7000
Column name: ZORBAX Extend-C18 3.5um, 2.1x50mm, Agilent Technologies
Retention time: 5.817 min
Base peak: 955.9716
Precursor m/z: 205.1598
Precursor type: [M-H]-
Precursor intensity: 4671.92
m/z	relative intensity	assigned
205.1605	999	C14H21O-
