Mass spectrum: Prostaglandin E1; LC-ESI-QTOF; MS2; CE: 20eV; R=7000; [M-H]-
Name: Prostaglandin E1
Name: Alprostadil
Name: 7-[(1R,2R,3R)-3-hydroxy-2-[(E,3S)-3-hydroxyoct-1-enyl]-5-oxocyclopentyl]heptanoic acid
Formula: C20H34O5
Exact mass: 354.2406
SMILES: CCCCC[C@@H](/C=C/[C@H]1[C@@H](CC(=O)[C@@H]1CCCCCCC(=O)O)O)O
InChI: InChI=1S/C20H34O5/c1-2-3-6-9-15(21)12-13-17-16(18(22)14-19(17)23)10-7-4-5-8-11-20(24)25/h12-13,15-17,19,21,23H,2-11,14H2,1H3,(H,24,25)/b13-12+/t15-,16+,17+,19+/m0/s1
Instrument: Agilent 6560 QTOF
Instrument type: LC-ESI-QTOF
Ms type: MS2
Ion mode: NEGATIVE
Ionization: ESI
Fragmentation mode: CID
Collision energy: 20 eV
Resolution: 7000
Column name: N/A
Retention time: 0.148 min
Base peak: 353.2356
Precursor m/z: 353.2333
Precursor type: [M-H]-
Precursor intensity: 317072
m/z	relative intensity	assigned
83.0498	33	C5H7O-
85.0275	25	C4H5O2-
95.0491	14	C6H7O-
97.067	28	C6H9O-
103.0565	1	C8H7-
106.0433	36	C7H6O-
107.0514	17	C7H7O-
107.088	13	C8H11-
109.0667	192	C7H9O-
111.0829	12	C7H11O-
113.0981	263	C7H13O-
119.0494	11	C8H7O-
123.082	109	C8H11O-
125.0595	16	C7H9O2-
125.0983	12	C8H13O-
135.118	11	C10H15-
137.098	103	C9H13O-
139.1134	10	C9H15O-
147.1187	15	C11H15-
148.1251	2	C11H16-
149.0969	11	C10H13O-
149.1334	20	C11H17-
159.2209	3	C4H31O5-
160.0877	31	C11H12O-
160.1461	1	C9H20O2-
161.0974	10	C11H13O-
161.1925	2	C10H25O-
162.1043	25	C11H14O-
163.1141	89	C11H15O-
163.1529	14	C5H23O5-
165.1652	27	C12H21-
173.098	9	C12H13O-
173.1326	16	C13H17-
174.1061	17	C12H14O-
175.1145	24	C12H15O-
175.1743	1	C10H23O2-
177.1292	65	C12H17O-
179.1459	17	C12H19O-
184.185	1	C12H24O-
185.1168	8	C10H17O3-
188.1223	30	C13H16O-
188.1593	3	C14H20-
189.089	14	C12H13O2-
189.1298	30	C13H17O-
189.1693	3	C7H25O5-
190.1356	6	C13H18O-
191.1451	318	C13H19O-
192.1501	32	C13H20O-
193.126	7	C12H17O2-
197.1194	16	C11H17O3-
201.0911	21	C13H13O2-
201.1683	15	C8H25O5-
202.0993	8	C13H14O2-
202.1359	12	C14H18O-
203.1088	17	C13H15O2-
203.1447	6	C14H19O-
205.1597	16	C14H21O-
207.1012	38	C12H15O3-
207.1771	9	C14H23O-
209.1192	210	C12H17O3-
210.1617	2	C13H22O2-
211.0175	3	C16H3O-
217.1253	22	C14H17O2-
219.1416	25	C14H19O2-
219.1763	140	C15H23O-
220.1785	16	C15H24O-
221.1197	195	C13H17O3-
222.1257	4	C13H18O3-
223.135	225	C13H19O3-
224.1388	49	C13H20O3-
231.2128	10	C17H27-
231.2367	2	C14H31O2-
232.1833	12	C16H24O-
234.0166	1	C18H2O-
234.0993	1	C17H14O-
235.1355	796	C14H19O3-
236.1399	73	C14H20O3-
236.1835	5	C15H24O2-
244.0011	3	C19O-
245.1956	14	C17H25O-
246.2028	15	C17H26O-
247.204	19	C17H27O-
247.2275	6	C14H31O3-
250.1553	4	C15H22O3-
255.2149	28	C12H31O5-
256.2354	5	C16H32O2-
257.1897	13	C18H25O-
264.1345	6	C15H20O4-
271.206	37	C19H27O-
273.2239	920	C19H29O-
274.2279	111	C19H30O-
275.2036	35	C18H27O2-
289.2147	15	C19H29O2-
297.1878	16	C20H25O2-
299.2031	39	C20H27O2-
300.2023	11	C20H28O2-
300.2309	5	C17H32O4-
307.229	10	C19H31O3-
315.199	14	C20H27O3-
317.2141	999	C20H29O3-
318.2159	104	C20H30O3-
335.2233	67	C20H31O4-
336.2263	17	C20H32O4-
353.2295	5	C20H33O5-
