Mass spectrum: D-ORNITHINE; LC-ESI-QTOF; MS2; CE: 20eV; R=5000; [M+H]+
Name: D-ORNITHINE
Name: (2R)-2,5-diaminopentanoic acid
Formula: C5H12N2O2
Exact mass: 132.0899
SMILES: NCCC[C@@H](N)C(O)=O
InChI: InChI=1S/C5H12N2O2/c6-3-1-2-4(7)5(8)9/h4H,1-3,6-7H2,(H,8,9)/t4-/m1/s1
Instrument: Agilent 6530 QTOF
Instrument type: LC-ESI-QTOF
Ms type: MS2
Ion mode: POSITIVE
Ionization: ESI
Fragmentation mode: CID
Collision energy: 20 eV
Resolution: 5000
Column name: N/A
Retention time: 0.221 min
Base peak: 121.0508
Precursor m/z: 133.0972
Precursor type: [M+H]+
Precursor intensity: 312447
m/z	relative intensity	assigned
41.0391	10	C3H5+
43.0548	33	C3H7+
68.0483	7	C4H6N+
70.0656	999	C4H8N+
116.0681	12	C5H10NO2+
