Mass spectrum: Nandrolone; LC-ESI-QTOF; MS2; CE: 10eV; R=7000; [M+H]+
Name: Nandrolone
Name: (8R,9S,10R,13S,14S,17S)-17-hydroxy-13-methyl-2,6,7,8,9,10,11,12,14,15,16,17-dodecahydro-1H-cyclopenta[a]phenanthren-3-one
Formula: C18H26O2
Exact mass: 274.1933
SMILES: C[C@]12CC[C@H]3[C@H]([C@@H]1CC[C@@H]2O)CCC4=CC(=O)CC[C@H]34
InChI: InChI=1S/C18H26O2/c1-18-9-8-14-13-5-3-12(19)10-11(13)2-4-15(14)16(18)6-7-17(18)20/h10,13-17,20H,2-9H2,1H3/t13-,14+,15+,16-,17-,18-/m0/s1
Instrument: Agilent 6560 QTOF
Instrument type: LC-ESI-QTOF
Ms type: MS2
Ion mode: POSITIVE
Ionization: ESI
Fragmentation mode: CID
Collision energy: 10 eV
Resolution: 7000
Column name: Direct injection
Retention time: 0.157 min
Base peak: 275.2012
Precursor m/z: 275.2006
Precursor type: [M+H]+
Precursor intensity: 331788
m/z	relative intensity	assigned
71.0477	3	C4H7O+
75.0218	6	C6H3+
77.0385	4	C6H5+
79.0553	27	C6H7+
81.0703	85	C6H9+
83.0492	91	C5H7O+
83.0852	13	C6H11+
91.0544	51	C7H7+
93.0694	43	C7H9+
95.0863	29	C7H11+
97.0641	5	C6H9O+
99.0782	6	C6H11O+
105.0701	33	C8H9+
107.0481	53	C7H7O+
107.0855	54	C8H11+
109.0649	251	C7H9O+
109.0996	27	C8H13+
117.0691	12	C9H9+
119.0847	17	C9H11+
121.1017	46	C9H13+
123.0789	10	C8H11O+
126.1016	4	C8H14O+
131.0846	43	C10H11+
133.0639	2	C9H9O+
133.1014	20	C10H13+
135.0801	37	C9H11O+
135.116	64	C10H15+
137.0973	5	C9H13O+
139.1113	2	C9H15O+
141.0687	13	C11H9+
143.0851	36	C11H11+
145.1022	83	C11H13+
147.081	21	C10H11O+
147.1173	82	C11H15+
149.0966	16	C10H13O+
149.1336	61	C11H17+
150.1373	1	C11H18+
157.1021	39	C12H13+
159.077	2	C11H11O+
159.1177	31	C12H15+
161.0952	19	C11H13O+
161.1314	23	C12H17+
163.112	109	C11H15O+
164.1158	5	C11H16O+
167.0884	2	C13H11+
169.0997	6	C13H13+
171.1165	17	C13H15+
173.1332	7	C13H17+
175.1111	10	C12H15O+
175.1495	10	C13H19+
177.1264	12	C12H17O+
181.1	5	C14H13+
183.1167	62	C14H15+
184.1213	18	C14H16+
185.132	66	C14H17+
187.1127	9	C13H15O+
187.1493	36	C14H19+
191.1426	4	C13H19O+
197.132	32	C15H17+
198.1379	10	C15H18+
199.1489	75	C15H19+
200.1511	11	C15H20+
201.1254	25	C14H17O+
201.167	6	C15H21+
203.1428	21	C14H19O+
205.1568	6	C14H21O+
210.1369	2	C16H18+
211.1467	6	C16H19+
213.1636	27	C16H21+
214.1373	6	C15H18O+
215.0883	2	C17H11+
215.1803	23	C16H23+
224.1546	4	C17H20+
229.1952	8	C17H25+
231.1721	19	C16H23O+
232.1765	3	C16H24O+
239.18	268	C18H23+
240.184	3	C18H24+
257.1902	273	C18H25O+
275.2011	999	C18H27O2+
