Mass spectrum: Aldosterone; LC-ESI-QTOF; MS2; CE: 10eV; R=7000; [M+H]+
Name: Aldosterone
Name: (8S,9S,10R,11S,13R,14S,17S)-11-hydroxy-17-(2-hydroxyacetyl)-10-methyl-3-oxo-1,2,6,7,8,9,11,12,14,15,16,17-dodecahydrocyclopenta[a]phenanthrene-13-carbaldehyde
Formula: C21H28O5
Exact mass: 360.1937
SMILES: C[C@]12CCC(=O)C=C1CC[C@@H]3[C@@H]2[C@H](C[C@]4([C@H]3CC[C@@H]4C(=O)CO)C=O)O
InChI: InChI=1S/C21H28O5/c1-20-7-6-13(24)8-12(20)2-3-14-15-4-5-16(18(26)10-22)21(15,11-23)9-17(25)19(14)20/h8,11,14-17,19,22,25H,2-7,9-10H2,1H3/t14-,15-,16+,17-,19+,20-,21+/m0/s1
Instrument: Agilent 6560 QTOF
Instrument type: LC-ESI-QTOF
Ms type: MS2
Ion mode: POSITIVE
Ionization: ESI
Fragmentation mode: CID
Collision energy: 10 eV
Resolution: 7000
Column name: Direct injection
Retention time: 0.183 min
Base peak: 338.3428
Precursor m/z: 361.201
Precursor type: [M+H]+
Precursor intensity: 78643
m/z	relative intensity	assigned
97.0652	18	C6H9O+
99.0809	12	C6H11O+
109.0651	38	C7H9O+
115.0522	16	C9H7+
123.0779	25	C8H11O+
141.0673	13	C11H9+
145.1015	55	C11H13+
147.081	42	C10H11O+
149.0955	40	C10H13O+
155.0854	11	C12H11+
157.0993	33	C12H13+
159.0814	3	C11H11O+
159.1177	15	C12H15+
169.0652	17	C12H9O+
171.115	14	C13H15+
173.0983	8	C12H13O+
175.1106	22	C12H15O+
179.0856	7	C14H11+
189.1261	5	C13H17O+
193.0845	20	C11H13O3+
193.1033	11	C15H13+
195.1146	27	C15H15+
197.1342	10	C15H17+
197.153	3	C12H21O2+
203.1055	12	C13H15O2+
219.1218	28	C10H19O5+
223.1074	12	C16H15O+
223.1507	8	C17H19+
229.1185	12	C15H17O2+
229.1558	16	C16H21O+
233.1349	4	C18H17+
237.1285	28	C17H17O+
239.144	28	C17H19O+
239.178	12	C18H23+
241.1554	30	C17H21O+
246.1364	21	C19H18+
250.0824	15	C13H14O5+
251.1823	11	C19H23+
253.1578	12	C18H21O+
255.1758	32	C18H23O+
256.1207	7	C20H16+
257.1536	11	C17H21O2+
257.1906	17	C18H25O+
267.1739	36	C19H23O+
279.1744	76	C20H23O+
281.1468	23	C19H21O2+
284.1741	31	C19H24O2+
285.1823	16	C19H25O2+
289.1603	32	C21H21O+
297.1851	35	C20H25O2+
298.1847	8	C16H26O5+
299.1647	88	C19H23O3+
300.1661	23	C19H24O3+
301.1764	25	C19H25O3+
307.1701	24	C21H23O2+
313.1747	9	C20H25O3+
314.183	45	C20H26O3+
315.1967	161	C20H27O3+
316.196	11	C20H28O3+
325.179	133	C21H25O3+
326.1799	33	C21H26O3+
343.1896	648	C21H27O4+
344.1954	93	C21H28O4+
361.2015	999	C21H29O5+
