Mass spectrum: Mono-2-(propyl-6-oxoheptyl)-phthalate; LC-ESI-QTOF; MS2; CE: 25eV; R=7000; [M-H]-
Name: Mono-2-(propyl-6-oxoheptyl)-phthalate
Name: 2-(((6-Oxo-2-propylheptyl)oxy)carbonyl)benzoic Acid
Name: 2-(6-oxo-2-propylheptoxy)carbonylbenzoic acid
Formula: C18H24O5
Exact mass: 320.1624
SMILES: CCCC(CCCC(C)=O)COC(=O)c1ccccc1C(=O)O
InChI: InChI=1S/C18H24O5/c1-3-7-14(9-6-8-13(2)19)12-23-18(22)16-11-5-4-10-15(16)17(20)21/h4-5,10-11,14H,3,6-9,12H2,1-2H3,(H,20,21)
Instrument: Agilent 6560 QTOF
Instrument type: LC-ESI-QTOF
Ms type: MS2
Ion mode: NEGATIVE
Ionization: ESI
Fragmentation mode: CID
Collision energy: 25 eV
Resolution: 7000
Column name: ZORBAX Extend-C18 3.5um, 2.1x50mm, Agilent Technologies
Retention time: 3.945 min
Base peak: 319.1563
Precursor m/z: 319.1551
Precursor type: [M-H]-
Precursor intensity: 121146.72
m/z	relative intensity	assigned
57.0353	122	C3H5O-
69.0353	7	C4H5O-
75.0246	21	C6H3-
77.0401	999	C6H5-
85.0662	41	C5H9O-
99.0809	25	C6H11O-
119.0142	4	C7H3O2-
119.0506	24	C8H7O-
121.0297	914	C7H5O2-
123.0812	7	C8H11O-
125.098	47	C8H13O-
127.113	50	C8H15O-
129.0581	6	C6H9O3-
137.0968	5	C9H13O-
139.1121	5	C9H15O-
141.1277	38	C9H17O-
147.0082	29	C8H3O3-
151.1129	35	C10H15O-
169.1251	14	C10H17O2-
171.1396	32	C10H19O2-
