Mass spectrum: Bis(2-ethylhexyl)phthalate; LC-ESI-QTOF; MS2; CE: 10eV; R=7000; [M+H]+
Name: Bis(2-ethylhexyl)phthalate
Name: Bis(2-ethylhexyl) phthalate
Name: bis(2-ethylhexyl) benzene-1,2-dicarboxylate
Formula: C24H38O4
Exact mass: 390.2770
SMILES: CCCCC(CC)COC(=O)C1=CC=CC=C1C(=O)OCC(CC)CCCC
InChI: InChI=1S/C24H38O4/c1-5-9-13-19(7-3)17-27-23(25)21-15-11-12-16-22(21)24(26)28-18-20(8-4)14-10-6-2/h11-12,15-16,19-20H,5-10,13-14,17-18H2,1-4H3
Instrument: Agilent 6560 QTOF
Instrument type: LC-ESI-QTOF
Ms type: MS2
Ion mode: POSITIVE
Ionization: ESI
Fragmentation mode: CID
Collision energy: 10 eV
Resolution: 7000
Column name: Direct injection
Retention time: 0.209 min
Base peak: 149.0238
Precursor m/z: 391.2843
Precursor type: [M+H]+
Precursor intensity: 276413
m/z	relative intensity	assigned
71.0863	137	C5H11+
93.0341	7	C6H5O+
102.0889	1	C2H14O4+
121.0311	6	C7H5O2+
149.0239	999	C8H5O3+
167.0338	77	C8H7O4+
175.0566	1	C14H7+
247.0033	2	C15H3O4+
279.1586	8	C16H23O4+
280.1616	2	C16H24O4+
391.2809	3	C24H39O4+
