Mass spectrum: ((((((propane-2,2-diylbis(4,1-phenylene))bis(oxy))bis(ethane-2,1-diyl))bis(oxy))bis(ethane-2,1-diyl))bis(oxy))bis(ethane-2,1-diyl) bis(2-methylacrylate); LC-ESI-QTOF; MS2; CE: 40eV; R=7000; [M+NH4]+
Name: ((((((propane-2,2-diylbis(4,1-phenylene))bis(oxy))bis(ethane-2,1-diyl))bis(oxy))bis(ethane-2,1-diyl))bis(oxy))bis(ethane-2,1-diyl) bis(2-methylacrylate)
Name: 2-Propenoic acid, 2-methyl-, (1-methylethylidene)bis(4,1-phenyleneoxy-2,1-ethanediyloxy-2,1-ethanediyloxy-2,1-ethanediyl) ester
Name: 2-[2-[2-[4-[2-[4-[2-[2-[2-(2-methylprop-2-enoyloxy)ethoxy]ethoxy]ethoxy]phenyl]propan-2-yl]phenoxy]ethoxy]ethoxy]ethyl 2-methylprop-2-enoate
Formula: C35H48O10
Exact mass: 628.3247
SMILES: CC(C1=CC=C(OCCOCCOCCOC(C(C)=C)=O)C=C1)(C)C2=CC=C(OCCOCCOCCOC(C(C)=C)=O)C=C2
InChI: InChI=1S/C35H48O10/c1-27(2)33(36)44-25-21-40-17-15-38-19-23-42-31-11-7-29(8-12-31)35(5,6)30-9-13-32(14-10-30)43-24-20-39-16-18-41-22-26-45-34(37)28(3)4/h7-14H,1,3,15-26H2,2,4-6H3
Instrument: Agilent 6560 QTOF
Instrument type: LC-ESI-QTOF
Ms type: MS2
Ion mode: POSITIVE
Ionization: ESI
Fragmentation mode: CID
Collision energy: 40 eV
Resolution: 7000
Column name: ZORBAX Extend-C18 3.5um, 2.1x50mm, Agilent Technologies
Retention time: 4.212 min
Base peak: 646.3676
Precursor m/z: 646.3586
Precursor type: [M+NH4]+
Precursor intensity: 324519.26
m/z	relative intensity	assigned
69.034	174	C4H5O+
87.0445	1	C4H7O2+
89.0588	1	C4H9O2+
91.0537	3	C7H7+
105.0695	5	C8H9+
107.0491	9	C7H7O+
113.0602	999	C6H9O2+
119.0869	1	C9H11+
121.0651	2	C8H9O+
131.0493	1	C9H7O+
131.0857	2	C10H11+
133.0638	12	C9H9O+
133.1002	5	C10H13+
135.08	62	C9H11O+
136.0836	1	CH14NO6+
143.0841	1	C11H11+
157.0848	1	C8H13O3+
159.0798	1	C11H11O+
161.095	62	C11H13O+
177.0917	1	C11H13O2+
187.1107	2	C13H15O+
205.1196	9	C13H17O2+
291.1581	14	C17H23O4+
292.16	1	C9H26NO9+
