Mass spectrum: Triethylphosphate; LC-ESI-QTOF; MS2; CE: 30eV; R=7000; [M+H]+
Name: Triethylphosphate
Name: triethyl phosphate
Formula: C6H15O4P
Exact mass: 182.0708
SMILES: CCOP(=O)(OCC)OCC
InChI: InChI=1S/C6H15O4P/c1-4-8-11(7,9-5-2)10-6-3/h4-6H2,1-3H3
Instrument: Agilent 6560 QTOF
Instrument type: LC-ESI-QTOF
Ms type: MS2
Ion mode: POSITIVE
Ionization: ESI
Fragmentation mode: CID
Collision energy: 30 eV
Resolution: 7000
Retention time: 0.145 min
Base peak: 205.0602
Precursor m/z: 183.0781
Precursor type: [M+H]+
Precursor intensity: 21168.08
m/z	relative intensity	assigned
62.963	53	O2P+
80.9734	869	H2O3P+
98.9844	999	H4O4P+
