Mass spectrum: N-Heptadecanoyl-D-erythro-Sphingosine; LC-ESI-QTOF; MS2; CE: 10eV; R=7000; [M+CH3COO]-
Name: N-Heptadecanoyl-D-erythro-Sphingosine
Name: N-Heptadecanoylsphingosine
Name: N-[(E,2S,3R)-1,3-dihydroxyoctadec-4-en-2-yl]heptadecanamide
Formula: C35H69NO3
Exact mass: 551.5277
SMILES: OC[C@H](NC(CCCCCCCCCCCCCCCC)=O)[C@H](O)/C=C/CCCCCCCCCCCCC
InChI: InChI=1S/C35H69NO3/c1-3-5-7-9-11-13-15-17-19-21-23-25-27-29-31-35(39)36-33(32-37)34(38)30-28-26-24-22-20-18-16-14-12-10-8-6-4-2/h28,30,33-34,37-38H,3-27,29,31-32H2,1-2H3,(H,36,39)/b30-28+/t33-,34+/m0/s1
Instrument: Agilent 6560 QTOF
Instrument type: LC-ESI-QTOF
Ms type: MS2
Ion mode: NEGATIVE
Ionization: ESI
Fragmentation mode: CID
Collision energy: 10 eV
Resolution: 7000
Column name: N/A
Retention time: 0.148 min
Base peak: 610.5436
Precursor m/z: 610.5416
Precursor type: [M+CH3COO]-
Precursor intensity: 684387
m/z	relative intensity	assigned
95.0502	1	C6H7O-
188.091	1	C8H14NO4-
212.0815	1	C14H12O2-
237.2219	1	C16H29O-
250.254	3	C17H32N-
251.2378	5	C17H31O-
263.239	9	C18H31O-
266.1658	1	C19H22O-
268.2645	9	C17H34NO-
269.2522	4	C17H33O2-
294.2819	25	C19H36NO-
295.2814	1	C16H39O4-
310.273	5	C16H38O5-
502.4941	2	C31H66O4-
518.4971	4	C34H64NO2-
519.4953	1	C31H67O5-
520.5061	6	C31H68O5-
521.5185	2	C34H67NO2-
532.508	2	C32H68O5-
547.3464	2	C35H47O5-
547.4037	1	C36H53NO3-
550.5219	999	C35H68NO3-
551.5245	200	C35H69NO3-
610.5422	8	C37H72NO5-
