Mass spectrum: N-ACETYLSERINE; LC-ESI-QTOF; MS2; CE: 10eV; R=5000; [M+H]+
Name: N-ACETYLSERINE
Name: (2S)-2-acetamido-3-hydroxypropanoic acid
Formula: C5H9NO4
Exact mass: 147.0532
SMILES: CC(=O)N[C@@H](CO)C(O)=O
InChI: InChI=1S/C5H9NO4/c1-3(8)6-4(2-7)5(9)10/h4,7H,2H2,1H3,(H,6,8)(H,9,10)/t4-/m0/s1
Instrument: Agilent 6530 QTOF
Instrument type: LC-ESI-QTOF
Ms type: MS2
Ion mode: POSITIVE
Ionization: ESI
Fragmentation mode: CID
Collision energy: 10 eV
Resolution: 5000
Column name: N/A
Retention time: 0.249 min
Base peak: 121.0508
Precursor m/z: 148.0604
Precursor type: [M+H]+
Precursor intensity: 68344
m/z	relative intensity	assigned
42.0341	95	C2H4N+
56.0492	52	C3H6N+
60.044	999	C2H6NO+
62.0732	3	C3H10O+
70.0299	103	C3H4NO+
71.0115	12	C3H3O2+
71.0509	1	C4H7O+
84.043	24	CH8O4+
106.0481	548	C3H8NO3+
130.0496	76	C5H8NO3+
