Mass spectrum: Coenzyme Q10; LC-ESI-QTOF; MS2; CE: 10eV; R=7000; [M+NH4]+
Name: Coenzyme Q10
Name: 2-[(2E,6E,10E,14E,18E,22E,26E,30E,34E)-3,7,11,15,19,23,27,31,35,39-decamethyltetraconta-2,6,10,14,18,22,26,30,34,38-decaenyl]-5,6-dimethoxy-3-methylcyclohexa-2,5-diene-1,4-dione
Formula: C59H90O4
Exact mass: 862.6839
SMILES: CC1=C(C(=O)C(=C(C1=O)OC)OC)C/C=C(\C)/CC/C=C(\C)/CC/C=C(\C)/CC/C=C(\C)/CC/C=C(\C)/CC/C=C(\C)/CC/C=C(\C)/CC/C=C(\C)/CC/C=C(\C)/CCC=C(C)C
InChI: InChI=1S/C59H90O4/c1-44(2)24-15-25-45(3)26-16-27-46(4)28-17-29-47(5)30-18-31-48(6)32-19-33-49(7)34-20-35-50(8)36-21-37-51(9)38-22-39-52(10)40-23-41-53(11)42-43-55-54(12)56(60)58(62-13)59(63-14)57(55)61/h24,26,28,30,32,34,36,38,40,42H,15-23,25,27,29,31,33,35,37,39,41,43H2,1-14H3/b45-26+,46-28+,47-30+,48-32+,49-34+,50-36+,51-38+,52-40+,53-42+
Instrument: Agilent 6560 QTOF
Instrument type: LC-ESI-QTOF
Ms type: MS2
Ion mode: POSITIVE
Ionization: ESI
Fragmentation mode: CID
Collision energy: 10 eV
Resolution: 7000
Column name: Direct injection
Retention time: 0.325 min
Base peak: 647.4607
Precursor m/z: 880.7177
Precursor type: [M+NH4]+
Precursor intensity: 198345
m/z	relative intensity	assigned
77.0375	5	C6H5+
81.0706	87	C6H9+
83.0849	25	C6H11+
93.0698	22	C7H9+
95.0858	73	C7H11+
97.0993	28	C7H13+
99.0813	4	C6H11O+
101.0589	10	C5H9O2+
107.0851	31	C8H11+
109.1018	124	C8H13+
111.1174	8	C8H15+
119.0871	15	C9H11+
120.0542	3	C8H8O+
121.1013	89	C9H13+
123.1165	63	C9H15+
132.0541	5	C9H8O+
135.1175	86	C10H15+
137.058	6	C8H9O2+
137.1335	33	C10H17+
141.1288	2	C9H17O+
145.0638	1	C10H9O+
145.0995	9	C11H13+
147.1169	42	C11H15+
149.1312	74	C11H17+
151.0752	12	C9H11O2+
157.1018	14	C12H13+
159.117	12	C12H15+
161.0942	9	C11H13O+
161.131	69	C12H17+
163.1462	29	C12H19+
169.0484	6	C8H9O4+
171.0789	22	C12H11O+
173.132	31	C13H17+
175.1479	38	C13H19+
177.164	73	C13H21+
179.0718	10	C13H9N+
179.1442	7	C12H19O+
179.1799	7	C13H23+
181.087	15	C10H13O3+
183.1191	7	C14H15+
187.0783	6	C12H11O2+
187.1483	18	C14H19+
189.1639	24	C14H21+
191.071	19	C11H11O3+
191.1795	37	C14H23+
193.0873	19	C14H11N+
195.1168	2	C15H15+
195.2486	3	C8H35O4+
197.0813	999	C10H13O4+
198.3097	5	C9H42O3+
199.0736	3	C13H11O2+
203.1791	29	C15H23+
205.0879	9	C15H11N+
205.1951	37	C15H25+
207.1705	5	C14H23O+
208.0727	8	C11H12O4+
209.0797	19	C11H13O4+
211.0957	9	C11H15O4+
211.1114	9	C15H15O+
215.1758	9	C16H23+
217.0854	5	C13H13O3+
217.1219	19	C14H17O2+
217.1947	22	C16H25+
219.0994	35	C13H15O3+
219.2117	3	C16H27+
221.1149	4	C13H17O3+
223.0948	19	C12H15O4+
225.1114	4	C12H17O4+
227.1089	4	C15H15O2+
227.1819	3	C17H23+
229.1953	7	C17H25+
231.1016	22	C14H15O3+
231.2119	13	C17H27+
232.1046	9	C14H16O3+
233.1174	48	C14H17O3+
233.221	9	C17H29+
233.4383	5	C12H57O2+
235.0979	19	C16H13NO+
235.1304	6	C14H19O3+
237.113	88	C13H17O4+
238.1145	10	C13H18O4+
241.2793	5	C16H35N+
243.2093	18	C18H27+
245.2257	16	C18H29+
247.2403	2	C18H31+
249.1226	12	C18H17O+
251.1286	16	C14H19O4+
253.1213	7	C17H17O2+
255.2145	8	C19H27+
257.1502	10	C17H21O2+
257.2261	15	C19H29+
259.2457	8	C19H31+
261.1077	4	C15H17O4+
261.1498	17	C16H21O3+
263.129	55	C15H19O4+
263.2337	3	C18H31O+
267.1365	2	C18H19O2+
269.117	14	C17H17O3+
270.1296	8	C20H16N+
271.2412	3	C20H31+
273.1457	10	C17H21O3+
277.1418	5	C16H21O4+
285.1504	8	C21H19N+
285.1855	17	C19H25O2+
285.2553	9	C21H33+
287.2637	3	C20H33N+
288.1667	3	C18H24O3+
291.1523	10	C16H21NO4+
293.1701	7	C17H25O4+
295.1886	9	C17H27O4+
297.2633	7	C18H35NO2+
299.1703	6	C22H21N+
299.2686	6	C22H35+
300.2769	4	C22H36+
301.1807	15	C19H25O3+
301.2911	7	C22H37+
303.1561	9	C18H23O4+
305.1713	4	C18H25O4+
307.6769	11	C17H87O+
312.2787	2	C23H36+
313.181	26	C20H25O3+
313.2952	4	C19H39NO2+
314.2917	8	C23H38+
317.1758	3	C19H25O4+
319.191	9	C19H27O4+
319.4557	13	C15H61NO4+
323.204	7	C22H27O2+
323.2764	6	C24H35+
325.293	15	C24H37+
326.2905	5	C23H36N+
327.3073	15	C24H39+
329.1724	5	C20H25O4+
329.3255	6	C20H43NO2+
331.191	27	C20H27O4+
331.3287	3	C23H41N+
339.1942	10	C22H27O3+
339.2271	7	C23H31O2+
339.3053	9	C25H39+
341.21	13	C22H29O3+
341.3257	8	C21H43NO2+
350.2132	8	C23H28NO2+
351.3007	17	C26H39+
353.215	15	C26H27N+
355.2263	7	C23H31O3+
359.2174	4	C22H31O4+
360.2389	6	C26H32O+
368.3329	5	C26H42N+
369.2429	11	C24H33O3+
369.3449	19	C26H43N+
371.2341	6	C27H31O+
373.2381	10	C23H33O4+
375.2512	8	C23H35O4+
377.2455	2	C26H33O2+
381.2461	6	C28H31N+
381.3501	6	C28H45+
385.2409	8	C27H31NO+
387.2535	6	C24H35O4+
394.3543	3	C29H46+
394.658	2	C23H86O2+
395.3704	3	C29H47+
396.3657	3	C28H46N+
399.2505	16	C25H35O4+
407.3685	35	C30H47+
409.3841	3	C30H49+
411.4022	4	C30H51+
413.2622	2	C25H35NO4+
421.293	7	C32H37+
423.3942	10	C31H51+
428.2843	2	C26H38NO4+
433.3828	5	C32H49+
435.2838	4	C29H39O3+
435.3985	11	C32H51+
439.2817	7	C28H39O4+
441.3028	4	C31H39NO+
443.3307	2	C32H43O+
444.3063	3	C31H40O2+
449.412	11	C33H53+
451.3187	6	C30H43O3+
451.4296	5	C33H55+
453.3012	16	C29H41O4+
455.3158	8	C29H43O4+
455.4627	3	C33H59+
456.3155	7	C28H42NO4+
461.4103	12	C34H53+
463.4311	10	C34H55+
464.4292	6	C33H54N+
467.3128	20	C30H43O4+
469.3278	4	C30H45O4+
475.4252	12	C35H55+
479.3009	3	C30H41NO4+
481.3211	5	C30H43NO4+
489.335	9	C33H45O3+
489.4437	4	C36H57+
491.4443	6	C32H59O3+
495.5898	1	C35H75+
496.3564	2	C35H46NO+
501.3407	4	C37H43N+
503.4605	10	C37H59+
505.4725	7	C37H61+
507.3374	4	C32H45NO4+
509.3651	19	C36H47NO+
510.3648	6	C33H50O4+
511.3836	4	C36H49NO+
521.3621	13	C34H49O4+
523.3798	6	C37H49NO+
531.4892	1	C39H63+
533.4945	3	C38H63N+
535.3781	11	C35H51O4+
536.3874	9	C38H50NO+
546.5004	5	C36H66O3+
547.3847	3	C39H49NO+
549.3903	8	C36H53O4+
560.4181	5	C38H56O3+
563.4099	7	C37H55O4+
571.406	2	C38H53NO3+
573.5435	5	C42H69+
575.4034	8	C38H55O4+
577.4151	5	C37H55NO4+
585.5439	6	C39H71NO2+
587.631	2	C38H83O3+
589.418	5	C38H55NO4+
591.4389	17	C39H59O4+
597.5461	11	C40H71NO2+
603.4422	6	C43H57NO+
615.4429	8	C44H57NO+
631.4693	7	C42H63O4+
657.4768	8	C43H63NO4+
665.6018	7	C49H77+
667.6296	11	C45H81NO2+
671.4999	6	C45H67O4+
672.5292	1	C49H68O+
679.6078	12	C49H77N+
711.526	7	C47H69NO4+
713.5554	17	C51H71NO+
740.5574	1	C49H74NO4+
767.5974	6	C52H79O4+
780.6344	1	C53H82NO3+
781.6172	17	C56H79NO+
784.3294	3	C59H44O2+
785.651	6	C56H83NO+
790.4913	1	C55H66O4+
795.6283	7	C54H83O4+
807.6336	8	C58H81NO+
817.6886	5	C58H89O2+
831.6601	8	C58H87O3+
832.6614	4	C57H86NO3+
863.692	165	C59H91O4+
864.6962	31	C59H92O4+
880.7076	14	C59H94NO4+
