Mass spectrum: 5-Hydroxy-2-ethylhexyl diphenyl phosphate; LC-ESI-QTOF; MS2; CE: 50eV; R=7000; [M+H]+
Name: 5-Hydroxy-2-ethylhexyl diphenyl phosphate
Name: 2-Ethyl-5-hydroxyhexyl diphenyl phosphate
Name: (2-ethyl-5-hydroxyhexyl) diphenyl phosphate
Formula: C20H27O5P
Exact mass: 378.1596
SMILES: CCC(CCC(C)O)COP(=O)(Oc1ccccc1)Oc2ccccc2
InChI: InChI=1S/C20H27O5P/c1-3-18(15-14-17(2)21)16-23-26(22,24-19-10-6-4-7-11-19)25-20-12-8-5-9-13-20/h4-13,17-18,21H,3,14-16H2,1-2H3
Instrument: Agilent 6560 QTOF
Instrument type: LC-ESI-QTOF
Ms type: MS2
Ion mode: POSITIVE
Ionization: ESI
Fragmentation mode: CID
Collision energy: 50 eV
Resolution: 7000
Retention time: 0.146 min
Base peak: 401.1507
Precursor m/z: 379.1669
Precursor type: [M+H]+
Precursor intensity: 46215.14
m/z	relative intensity	assigned
51.0233	200	C4H3+
55.0547	78	C4H7+
65.0394	10	C5H5+
69.0699	55	C5H9+
73.0642	10	C4H9O+
77.0389	999	C6H5+
95.0494	51	C6H7O+
98.9826	13	H4O4P+
127.0541	10	C10H7+
138.9941	9	C6H4O2P+
151.0534	36	C12H7+
152.0617	275	C12H8+
153.0691	35	C12H9+
168.057	63	C12H8O+
175.0155	25	C6H8O4P+
215.0245	11	C12H8O2P+
