Mass spectrum: Thymine; LC-ESI-QTOF; MS2; CE: 40eV; R=5000; [M+H]+
Name: Thymine
Name: 5-methyl-1H-pyrimidine-2,4-dione
Formula: C5H6N2O2
Exact mass: 126.0429
SMILES: CC1=CNC(=O)NC1=O
InChI: InChI=1S/C5H6N2O2/c1-3-2-6-5(9)7-4(3)8/h2H,1H3,(H2,6,7,8,9)
Instrument: Agilent 6530 QTOF
Instrument type: LC-ESI-QTOF
Ms type: MS2
Ion mode: POSITIVE
Ionization: ESI
Fragmentation mode: CID
Collision energy: 40 eV
Resolution: 5000
Column name: N/A
Retention time: 0.220 min
Base peak: 922.0098
Precursor m/z: 127.0502
Precursor type: [M+H]+
Precursor intensity: 10366
m/z	relative intensity	assigned
54.0337	999	C3H4N+
56.0498	533	C3H6N+
122.0131	89	C5H2N2O2+
