Mass spectrum: 2,4-Di-(2-ethylhexyl) trimellitate ; LC-ESI-QTOF; MS2; CE: 20eV; R=7000; [M-H]-
Name: 2,4-Di-(2-ethylhexyl) trimellitate 
Name: 2,4-bis(2-ethylhexoxycarbonyl)benzoic acid
Formula: C25H38O6
Exact mass: 434.2668
SMILES: CCCCC(CC)COC(=O)c1ccc(C(=O)O)c(C(=O)OCC(CC)CCCC)c1
InChI: InChI=1S/C25H38O6/c1-5-9-11-18(7-3)16-30-24(28)20-13-14-21(23(26)27)22(15-20)25(29)31-17-19(8-4)12-10-6-2/h13-15,18-19H,5-12,16-17H2,1-4H3,(H,26,27)
Instrument: Agilent 6560 QTOF
Instrument type: LC-ESI-QTOF
Ms type: MS2
Ion mode: NEGATIVE
Ionization: ESI
Fragmentation mode: CID
Collision energy: 20 eV
Resolution: 7000
Retention time: 0.148 min
Base peak: 433.262
Precursor m/z: 433.2596
Precursor type: [M-H]-
Precursor intensity: 164562.26
m/z	relative intensity	assigned
76.0323	55	C6H4-
77.0395	8	C6H5-
105.0327	8	C7H5O-
119.0509	9	C8H7O-
120.0215	86	C7H4O2-
121.0298	51	C7H5O2-
127.1133	168	C8H15O-
133.0297	33	C8H5O2-
134.0368	22	C8H6O2-
149.0232	38	C8H5O3-
155.1058	8	C9H15O2-
177.0199	37	C9H5O4-
187.1513	7	C14H19-
215.1442	111	C15H19O-
216.1472	8	C15H20O-
231.139	29	C15H19O2-
233.1556	999	C15H21O2-
234.1577	11	C15H22O2-
262.1562	58	C16H22O3-
263.1663	43	C16H23O3-
277.1459	276	C16H21O4-
278.149	8	C16H22O4-
290.1534	631	C17H22O4-
291.1592	61	C17H23O4-
303.1239	12	C17H19O5-
319.2628	11	C21H35O2-
345.2798	57	C23H37O2-
359.2607	10	C23H35O3-
361.2772	24	C23H37O3-
387.2507	25	C24H35O4-
389.271	757	C24H37O4-
