Mass spectrum: Tributyl acetylcitrate; LC-ESI-QTOF; MS2; CE: 30eV; R=7000; [M+Na]+
Name: Tributyl acetylcitrate
Name: Acetyl tributyl citrate
Name: tributyl 2-acetyloxypropane-1,2,3-tricarboxylate
Formula: C20H34O8
Exact mass: 402.2254
SMILES: CCCCOC(=O)CC(CC(=O)OCCCC)(C(=O)OCCCC)OC(=O)C
InChI: InChI=1S/C20H34O8/c1-5-8-11-25-17(22)14-20(28-16(4)21,19(24)27-13-10-7-3)15-18(23)26-12-9-6-2/h5-15H2,1-4H3
Instrument: Agilent 6560 QTOF
Instrument type: LC-ESI-QTOF
Ms type: MS2
Ion mode: POSITIVE
Ionization: ESI
Fragmentation mode: CID
Collision energy: 30 eV
Resolution: 7000
Retention time: 0.147 min
Base peak: 425.2174
Precursor m/z: 425.2146
Precursor type: [M+Na]+
Precursor intensity: 19774.53
m/z	relative intensity	assigned
139.0027	178	C6H3O4+
181.0823	53	C8H14NaO3+
207.0627	495	C9H12NaO4+
215.0884	44	C8H16NaO5+
281.1349	704	C13H22NaO5+
282.1399	53	C20H19Na+
309.1304	197	C14H22NaO6+
327.1405	105	C14H24NaO7+
328.1454	88	C14H25NaO7+
365.1931	999	C18H30NaO6+
366.196	118	C18H31NaO6+
369.1518	50	C16H26NaO8+
383.1984	64	C18H32NaO7+
425.2145	428	C20H34NaO8+
