Mass spectrum: Bisphenol AF; LC-ESI-QTOF; MS2; CE: 60eV; R=7000; [M-H]-
Name: Bisphenol AF
Name: 4-[1,1,1,3,3,3-hexafluoro-2-(4-hydroxyphenyl)propan-2-yl]phenol
Formula: C15H10F6O2
Exact mass: 336.0585
SMILES: C1=CC(=CC=C1C(C2=CC=C(C=C2)O)(C(F)(F)F)C(F)(F)F)O
InChI: InChI=1S/C15H10F6O2/c16-14(17,18)13(15(19,20)21,9-1-5-11(22)6-2-9)10-3-7-12(23)8-4-10/h1-8,22-23H
Instrument: Agilent 6560 QTOF
Instrument type: LC-ESI-QTOF
Ms type: MS2
Ion mode: NEGATIVE
Ionization: ESI
Fragmentation mode: CID
Collision energy: 60 eV
Resolution: 7000
Retention time: 0.186 min
Base peak: 335.053
Precursor m/z: 335.0512
Precursor type: [M-H]-
Precursor intensity: 152457.77
m/z	relative intensity	assigned
65.0045	10	C4HO-
68.996	999	CF3-
73.008	42	C6H-
91.0193	8	C6H3O-
111.0249	205	C6H4FO-
117.0335	9	C3H5F4-
121.0107	7	C4H3F2O2-
139.0559	11	F6H9O-
141.0354	38	C7H6FO2-
148.0333	6	C9H5FO-
149.0394	491	C4H6F5-
150.0439	20	C4H7F5-
151.0182	13	C3H4F5O-
153.0338	13	C6H5F4-
159.0246	6	C2H5F6O-
161.0224	8	C7H4F3O-
165.0313	8	C7H5F4-
167.0504	120	C12H7O-
168.0381	8	C12H5F-
168.0546	10	C7H8F4-
169.0293	9	C3H6F5O2-
169.0466	100	C9H7F2O-
170.0519	9	C4H8F6-
176.0254	18	C8H4F4-
177.0345	411	C13H5O-
178.0389	33	C8H6F4-
179.0326	12	C7H6F3O2-
188.0441	31	C12H6F2-
195.0457	139	C13H7O2-
196.0332	69	C13H5FO-
196.0475	35	C11H7F3-
197.0414	98	C13H6FO-
198.0462	19	C8H7F5-
199.037	9	C13H5F2-
205.0296	36	C14H5O2-
207.0262	6	C11H5F2O2-
216.0397	116	C13H6F2O-
217.0423	8	C8H7F6-
224.0281	59	C14H5FO2-
225.0366	43	C14H6FO2-
227.0295	9	C9H5F6-
244.0339	78	C14H6F2O2-
245.0414	48	C14H7F2O2-
246.0452	9	C12H7F5-
265.0485	38	C14H8F3O2-
