Mass spectrum: Hippuric acid; LC-ESI-QTOF; MS2; CE: 40eV; R=5000; [M+H]+
Name: Hippuric acid
Name: 2-benzamidoacetic acid
Formula: C9H9NO3
Exact mass: 179.0582
SMILES: C1=CC=C(C=C1)C(=O)NCC(=O)O
InChI: InChI=1S/C9H9NO3/c11-8(12)6-10-9(13)7-4-2-1-3-5-7/h1-5H,6H2,(H,10,13)(H,11,12)
Instrument: Agilent 6530 QTOF
Instrument type: LC-ESI-QTOF
Ms type: MS2
Ion mode: POSITIVE
Ionization: ESI
Fragmentation mode: CID
Collision energy: 40 eV
Resolution: 5000
Column name: N/A
Retention time: 0.220 min
Base peak: 922.0098
Precursor m/z: 180.0655
Precursor type: [M+H]+
Precursor intensity: 124631
m/z	relative intensity	assigned
50.0163	6	C4H2+
51.024	272	C4H3+
75.0229	3	C6H3+
77.0394	999	C6H5+
105.0337	50	C7H5O+
120.08	7	C8H10N+
