Mass spectrum: Cortisone; LC-ESI-QTOF; MS2; CE: 40eV; R=7000; [M+H]+
Name: Cortisone
Name: (8S,9S,10R,13S,14S,17R)-17-hydroxy-17-(2-hydroxyacetyl)-10,13-dimethyl-1,2,6,7,8,9,12,14,15,16-decahydrocyclopenta[a]phenanthrene-3,11-dione
Formula: C21H28O5
Exact mass: 360.1937
SMILES: C[C@]12CCC(=O)C=C1CC[C@@H]3[C@@H]2C(=O)C[C@]4([C@H]3CC[C@@]4(C(=O)CO)O)C
InChI: InChI=1S/C21H28O5/c1-19-7-5-13(23)9-12(19)3-4-14-15-6-8-21(26,17(25)11-22)20(15,2)10-16(24)18(14)19/h9,14-15,18,22,26H,3-8,10-11H2,1-2H3/t14-,15-,18+,19-,20-,21-/m0/s1
Instrument: Agilent 6560 QTOF
Instrument type: LC-ESI-QTOF
Ms type: MS2
Ion mode: POSITIVE
Ionization: ESI
Fragmentation mode: CID
Collision energy: 40 eV
Resolution: 7000
Column name: Direct injection
Retention time: 0.210 min
Base peak: 437.1943
Precursor m/z: 361.201
Precursor type: [M+H]+
Precursor intensity: 63622
m/z	relative intensity	assigned
77.0385	273	C6H5+
79.0536	555	C6H7+
81.0708	221	C6H9+
83.0489	73	C5H7O+
84.0797	191	C2H12O3+
88.0733	97	CH12O4+
91.0542	416	C7H7+
91.2057	41	C4H27O+
93.0691	498	C7H9+
95.0496	113	C6H7O+
95.0854	212	C7H11+
97.0649	472	C6H9O+
103.053	169	C8H7+
105.0701	999	C8H9+
107.0498	103	C7H7O+
107.0861	342	C8H11+
111.078	107	C7H11O+
116.0628	108	C9H8+
117.069	153	C9H9+
119.0851	225	C9H11+
120.0911	45	C9H12+
121.0639	837	C8H9O+
121.1026	196	C9H13+
123.0809	341	C8H11O+
128.061	370	C10H8+
129.0711	335	C10H9+
130.0754	44	C10H10+
131.0843	219	C10H11+
133.0616	192	C9H9O+
133.1002	285	C10H13+
134.0723	107	C9H10O+
135.0806	120	C9H11O+
135.1158	191	C10H15+
142.0816	91	C4H14O5+
143.0839	65	C11H11+
145.0617	67	C10H9O+
145.1023	235	C11H13+
146.074	15	C10H10O+
147.0806	260	C10H11O+
147.1139	92	C11H15+
157.0975	90	C12H13+
163.1108	673	C11H15O+
166.0792	69	C13H10+
167.0851	191	C13H11+
169.1019	57	C13H13+
171.1149	203	C13H15+
172.0863	38	C12H12O+
175.0715	25	C11H11O2+
181.065	143	C13H9O+
184.1228	91	C14H16+
190.0957	63	C12H14O2+
194.1051	52	C15H14+
197.0933	149	C14H13O+
198.0698	53	C13H10O2+
199.1479	67	C15H19+
203.0899	96	C9H15O5+
204.0919	29	C16H12+
218.1109	82	C17H14+
222.1387	34	C17H18+
228.1474	33	C16H20O+
231.1188	125	C18H15+
232.1069	52	C14H16O3+
234.1026	35	C17H14O+
237.1252	56	C17H17O+
237.1649	34	C18H21+
239.1441	123	C17H19O+
241.1546	46	C17H21O+
243.1392	144	C16H19O2+
251.1376	78	C18H19O+
259.1107	81	C19H15O+
260.1204	65	C19H16O+
264.1457	42	C19H20O+
269.1508	13	C18H21O2+
299.1605	51	C19H23O3+
