Mass spectrum: SPERMINE; LC-ESI-QTOF; MS2; CE: 40eV; R=5000; [M+H]+
Name: SPERMINE
Name: N,N`-bis(3-aminopropyl)butane-1,4-diamine
Formula: C10H26N4
Exact mass: 202.21575
SMILES: NCCCNCCCCNCCCN
InChI: InChI=1S/C10H26N4/c11-5-3-9-13-7-1-2-8-14-10-4-6-12/h13-14H,1-12H2
Instrument: Agilent 6530 QTOF
Instrument type: LC-ESI-QTOF
Ms type: MS2
Ion mode: POSITIVE
Ionization: ESI
Fragmentation mode: CID
Collision energy: 40 eV
Resolution: 5000
Column name: N/A
Retention time: 0.561 min
Base peak: 203.2231
Precursor m/z: 203.223
Precursor type: [M+H]+
Precursor intensity: 561543
m/z	relative intensity	assigned
44.0492	53	C2H6N+
56.0505	311	C3H6N+
67.0536	54	C5H7+
68.0497	7	C4H6N+
69.0582	20	C4H7N+
70.0665	419	C4H8N+
73.171	7	C2H21N2+
82.0667	42	C5H8N+
98.0965	38	C6H12N+
100.1132	23	C6H14N+
112.114	999	C7H14N+
114.0356	1	C8H4N+
129.1356	11	C7H17N2+
