Mass spectrum: Tri-m-tolyl phosphate; LC-ESI-QTOF; MS2; CE: 20eV; R=7000; [M+H]+
Name: Tri-m-tolyl phosphate
Name: Tri-M-cresyl phosphate
Name: tris(3-methylphenyl) phosphate
Formula: C21H21O4P
Exact mass: 368.1177
SMILES: CC1=CC(=CC=C1)OP(=O)(OC2=CC=CC(=C2)C)OC3=CC=CC(=C3)C
InChI: InChI=1S/C21H21O4P/c1-16-7-4-10-19(13-16)23-26(22,24-20-11-5-8-17(2)14-20)25-21-12-6-9-18(3)15-21/h4-15H,1-3H3
Instrument: Agilent 6560 QTOF
Instrument type: LC-ESI-QTOF
Ms type: MS2
Ion mode: POSITIVE
Ionization: ESI
Fragmentation mode: CID
Collision energy: 20 eV
Resolution: 7000
Retention time: 0.145 min
Base peak: 391.1083
Precursor m/z: 369.125
Precursor type: [M+H]+
Precursor intensity: 149794.35
m/z	relative intensity	assigned
65.0391	14	C5H5+
79.0534	4	C6H7+
91.0541	160	C7H7+
107.0489	13	C7H7O+
109.0613	4	H14O4P+
141.0699	7	C11H9+
152.0613	3	C12H8+
153.0092	9	C7H6O2P+
153.0694	25	C12H9+
154.0725	6	C5H15O3P+
165.0693	129	C13H9+
166.0772	217	C13H10+
167.0806	19	C6H16O3P+
169.1012	4	C6H18O3P+
178.0742	3	C7H15O3P+
179.0839	51	C7H16O3P+
180.0926	9	C14H12+
181.1006	79	C14H13+
182.1027	6	C7H19O3P+
187.0138	8	C7H8O4P+
189.0309	46	C7H10O4P+
195.0785	4	C7H16O4P+
196.0881	12	C14H12O+
197.0972	20	C14H13O+
199.1106	25	C7H20O4P+
200.1164	6	C7H21O4P+
215.0613	5	C13H12OP+
241.0991	16	C12H18O3P+
243.0565	178	C14H12O2P+
244.0595	13	C14H13O2P+
255.1175	5	C20H15+
256.124	50	C20H16+
257.1279	13	C13H22O3P+
261.0676	100	C14H14O3P+
262.0684	11	C17H10O3+
271.145	10	C21H19+
277.061	5	C14H14O4P+
279.0772	56	C14H16O4P+
280.0803	7	C14H17O4P+
333.105	7	C21H18O2P+
351.1142	18	C21H20O3P+
369.1249	999	C21H22O4P+
