Mass spectrum: GUANOSINEMONOPHOSPHATE; LC-ESI-QTOF; MS2; CE: 40eV; R=5000; [M+H]+
Name: GUANOSINEMONOPHOSPHATE
Name: CID 6804
Name: [(2R,3S,4R,5R)-5-(2-amino-6-oxo-3H-purin-9-yl)-3,4-dihydroxyoxolan-2-yl]methyl dihydrogen phosphate
Formula: C10H14N5O8P
Exact mass: 363.0580
SMILES: NC1=NC2=C(N=CN2[C@@H]2O[C@H](COP(O)(O)=O)[C@@H](O)[C@H]2O)C(=O)N1
InChI: InChI=1S/C10H14N5O8P/c11-10-13-7-4(8(18)14-10)12-2-15(7)9-6(17)5(16)3(23-9)1-22-24(19,20)21/h2-3,5-6,9,16-17H,1H2,(H2,19,20,21)(H3,11,13,14,18)/t3-,5-,6-,9-/m1/s1
Instrument: Agilent 6530 QTOF
Instrument type: LC-ESI-QTOF
Ms type: MS2
Ion mode: POSITIVE
Ionization: ESI
Fragmentation mode: CID
Collision energy: 40 eV
Resolution: 5000
Column name: N/A
Retention time: 0.355 min
Base peak: 121.0508
Precursor m/z: 364.0653
Precursor type: [M+H]+
Precursor intensity: 50305
m/z	relative intensity	assigned
55.0289	132	C2H3N2+
72.9926	5	C2HO3+
79.0845	5	H9N5+
80.0218	36	H4N2O3+
80.0751	3	C3H13P+
85.025	40	C2H3N3O+
85.0868	2	C2H13O3+
93.0037	14	CH3NO4+
97.0258	71	C3H3N3O+
102.0297	2	C2H4N3O2+
105.0302	12	C2H5N2O3+
109.051	17	C4H5N4+
110.0323	136	CH6N2O4+
111.0807	2	C3H14NOP+
111.9698	12	C4HO2P+
129.0115	12	C5H6O2P+
135.0271	745	C2H5N3O4+
136.0298	16	C7H7NP+
136.1027	5	C4H15N3P+
152.0539	999	C2H8N4O4+
153.1222	4	C3H15N5O2+
157.1247	2	C7H15N3O+
162.0574	4	C10H11P+
168.9827	7	C8N3P+
174.0062	1	C4H5N3O3P+
191.9642	3	C3N2O8+
201.0926	3	C7H14N4OP+
206.9945	6	C6H2N5O2P+
213.0299	5	C7H8N3O3P+
259.9704	3	C6H3N3O7P+
314.068	10	C10H13N5O5P+
