Mass spectrum: Tris(tert-butylphenyl) phosphate; LC-ESI-QTOF; MS2; CE: 50eV; R=7000; [M+H]+
Name: Tris(tert-butylphenyl) phosphate
Name: tris(2-tert-butylphenyl) phosphate
Formula: C30H39O4P
Exact mass: 494.2586
SMILES: CC(C)(C)C1=CC=CC=C1OP(=O)(OC2=CC=CC=C2C(C)(C)C)OC3=CC=CC=C3C(C)(C)C
InChI: InChI=1S/C30H39O4P/c1-28(2,3)22-16-10-13-19-25(22)32-35(31,33-26-20-14-11-17-23(26)29(4,5)6)34-27-21-15-12-18-24(27)30(7,8)9/h10-21H,1-9H3
Instrument: Agilent 6560 QTOF
Instrument type: LC-ESI-QTOF
Ms type: MS2
Ion mode: POSITIVE
Ionization: ESI
Fragmentation mode: CID
Collision energy: 50 eV
Resolution: 7000
Retention time: 0.113 min
Base peak: 495.2656
Precursor m/z: 495.2659
Precursor type: [M+H]+
Precursor intensity: 38967.64
m/z	relative intensity	assigned
51.0219	17	C4H3+
57.0701	999	C4H9+
77.0386	127	C6H5+
95.0489	28	C6H7O+
105.0715	16	C8H9+
151.0529	40	C5H12O3P+
152.0612	171	C12H8+
153.069	194	C12H9+
168.0555	18	C5H13O4P+
215.0255	205	C12H8O2P+
228.0938	87	C18H12+
229.1008	28	C18H13+
233.0357	53	C12H10O3P+
251.0454	115	C12H12O4P+
291.0575	19	C18H12O2P+
327.0769	168	C18H16O4P+
328.0812	24	C18H17O4P+
