Mass spectrum: XANTHOSINE; LC-ESI-QTOF; MS2; CE: 20eV; R=5000; [M+H]+
Name: XANTHOSINE
Name: 9-[(2R,3R,4S,5R)-3,4-dihydroxy-5-(hydroxymethyl)oxolan-2-yl]-3H-purine-2,6-dione
Formula: C10H12N4O6
Exact mass: 284.07568
SMILES: OC[C@H]1O[C@H]([C@H](O)[C@@H]1O)N1C=NC2=C1N=C(O)N=C2O
InChI: InChI=1S/C10H12N4O6/c15-1-3-5(16)6(17)9(20-3)14-2-11-4-7(14)12-10(19)13-8(4)18/h2-3,5-6,9,15-17H,1H2,(H2,12,13,18,19)/t3-,5-,6-,9-/m1/s1
Instrument: Agilent 6530 QTOF
Instrument type: LC-ESI-QTOF
Ms type: MS2
Ion mode: POSITIVE
Ionization: ESI
Fragmentation mode: CID
Collision energy: 20 eV
Resolution: 5000
Column name: N/A
Retention time: 0.185 min
Base peak: 202.1801
Precursor m/z: 285.083
Precursor type: [M+H]+
Precursor intensity: 127872
m/z	relative intensity	assigned
41.0376	11	C3H5+
43.0166	60	HN3+
45.033	26	C2H5O+
49.0274	15	CH5O2+
55.0192	213	C3H3O+
57.0339	192	C3H5O+
59.0487	27	C3H7O+
60.0822	11	C3H10N+
61.0293	47	C2H5O2+
69.0662	28	H9N2O2+
71.0856	22	C5H11+
73.0286	66	C3H5O2+
76.0171	2	C5H2N+
79.0528	6	C6H7+
82.0356	16	H6N2O3+
85.0283	62	C4H5O2+
87.0452	54	C4H7O2+
97.0277	39	C3H3N3O+
101.0549	4	H9N2O4+
103.0536	16	C8H7+
110.0353	47	C4H4N3O+
112.0482	2	CH8N2O4+
115.041	41	C8H5N+
117.0763	5	C2H13O5+
133.0505	55	C6H5N4+
136.014	205	C5H2N3O2+
139.0275	1	C6H5NO3+
153.0421	999	C7H7NO3+
154.0982	5	C7H12N3O+
155.0303	1	C2H7N2O6+
213.0802	13	C4H13N4O6+
