Mass spectrum: 9(Z),12(Z)-octadecadienoyl-L-carnitine; LC-ESI-QTOF; MS2; CE: 40eV; R=7000; [M+H]+
Name: 9(Z),12(Z)-octadecadienoyl-L-carnitine
Name: 3-octadeca-9,12-dienoyloxy-4-(trimethylazaniumyl)butanoate
Formula: C25H45NO4
Exact mass: 423.3349
SMILES: CCCCCC=CCC=CCCCCCCCC(=O)OC(CC(=O)[O-])C[N+](C)(C)C
InChI: InChI=1S/C25H45NO4/c1-5-6-7-8-9-10-11-12-13-14-15-16-17-18-19-20-25(29)30-23(21-24(27)28)22-26(2,3)4/h9-10,12-13,23H,5-8,11,14-22H2,1-4H3
Instrument: Agilent 6560 QTOF
Instrument type: LC-ESI-QTOF
Ms type: MS2
Ion mode: POSITIVE
Ionization: ESI
Fragmentation mode: CID
Collision energy: 40 eV
Resolution: 7000
Column name: Direct injection
Retention time: 0.157 min
Base peak: 424.3439
Precursor m/z: 424.3421
Precursor type: [M+H]+
Precursor intensity: 321291
m/z	relative intensity	assigned
71.0497	2	C4H7O+
79.054	28	C6H7+
81.07	73	C6H9+
83.0481	3	C5H7O+
83.0858	22	C6H11+
85.0285	999	C4H5O2+
91.0536	18	C7H7+
93.0713	14	C7H9+
95.0852	46	C7H11+
97.0635	4	C6H9O+
97.1016	4	C7H13+
105.0699	5	C8H9+
107.0857	13	C8H11+
109.1009	12	C8H13+
117.0705	1	C9H9+
119.0842	7	C9H11+
121.1001	2	C9H13+
123.1166	5	C9H15+
129.0775	12	C6H11NO2+
133.1008	4	C10H13+
135.08	1	C9H11O+
135.1169	1	C10H15+
137.0965	1	C9H13O+
137.1326	2	C10H17+
144.1016	36	C7H14NO2+
147.1148	2	C11H15+
165.1272	2	C11H17O+
169.0855	2	C9H13O3+
177.1295	1	C12H17O+
