Mass spectrum: Mono-(2-ethyl-5-carboxypentyl) phthalate; LC-ESI-QTOF; MS2; CE: 5eV; R=7000; [M-H]-
Name: Mono-(2-ethyl-5-carboxypentyl) phthalate
Name: 2-Ethyl-5-carboxypentyl phthalate
Name: 2-(5-carboxy-2-ethylpentoxy)carbonylbenzoic acid
Formula: C16H20O6
Exact mass: 308.1260
SMILES: CCC(CCCC(=O)O)COC(=O)C1=CC=CC=C1C(=O)O
InChI: InChI=1S/C16H20O6/c1-2-11(6-5-9-14(17)18)10-22-16(21)13-8-4-3-7-12(13)15(19)20/h3-4,7-8,11H,2,5-6,9-10H2,1H3,(H,17,18)(H,19,20)
Instrument: Agilent 6560 QTOF
Instrument type: LC-ESI-QTOF
Ms type: MS2
Ion mode: NEGATIVE
Ionization: ESI
Fragmentation mode: CID
Collision energy: 5 eV
Resolution: 7000
Column name: ZORBAX Extend-C18 3.5um, 2.1x50mm, Agilent Technologies
Retention time: 0.649 min
Base peak: 159.1026
Precursor m/z: 307.1187
Precursor type: [M-H]-
Precursor intensity: 51055.28
m/z	relative intensity	assigned
77.0388	10	C6H5-
113.0964	13	C7H13O-
121.0286	29	C7H5O2-
159.1026	999	C8H15O3-
165.0188	45	C8H5O4-
307.1155	9	C16H19O6-
