Mass spectrum: 1-tridecanoyl-sn-glycero-3-phosphoethanolamine; LC-ESI-QTOF; MS2; CE: 40eV; R=7000; [M-H]-
Name: 1-tridecanoyl-sn-glycero-3-phosphoethanolamine
Name: [(2R)-3-[2-aminoethoxy(hydroxy)phosphoryl]oxy-2-hydroxypropyl] tridecanoate
Formula: C18H38NO7P
Exact mass: 411.2386
SMILES: [C@](COP(=O)(O)OCCN)([H])(O)COC(CCCCCCCCCCCC)=O
InChI: InChI=1S/C18H38NO7P/c1-2-3-4-5-6-7-8-9-10-11-12-18(21)24-15-17(20)16-26-27(22,23)25-14-13-19/h17,20H,2-16,19H2,1H3,(H,22,23)/t17-/m1/s1
Instrument: Agilent 6560 QTOF
Instrument type: LC-ESI-QTOF
Ms type: MS2
Ion mode: NEGATIVE
Ionization: ESI
Fragmentation mode: CID
Collision energy: 40 eV
Resolution: 7000
Column name: N/A
Retention time: 0.167 min
Base peak: 410.2326
Precursor m/z: 410.2313
Precursor type: [M-H]-
Precursor intensity: 50082
m/z	relative intensity	assigned
78.9588	711	O3P-
83.0705	9	C2H11O3-
96.969	24	H2O4P-
103.2656	6	C3H35O2-
122.0008	24	C6H2O3-
140.0126	166	C2H7NO4P-
152.9956	28	C3H6O5P-
166.0271	49	C8H6O4-
191.0204	4	C2H10NO7P-
195.1746	55	C13H23O-
195.229	4	C4H36O5P-
196.041	14	C12H6NO2-
196.2067	11	C13H26N-
197.2448	2	C3H35NO7-
213.1858	999	C13H25O2-
214.1916	52	C6H31O5P-
220.2011	6	C5H33O6P-
254.2128	8	C15H28NO2-
288.155	17	C17H23NOP-
292.0661	10	C18H13O2P-
