Mass spectrum: Diphenylcresyl phosphate; LC-ESI-QTOF; MS2; CE: 20eV; R=7000; [M+H]+
Name: Diphenylcresyl phosphate
Name: Phosphoric acid, 2-methylphenyl diphenyl ester
Name: (2-methylphenyl) diphenyl phosphate
Formula: C19H17O4P
Exact mass: 340.0864
SMILES: CC1=CC=CC=C1OP(=O)(OC2=CC=CC=C2)OC3=CC=CC=C3
InChI: InChI=1S/C19H17O4P/c1-16-10-8-9-15-19(16)23-24(20,21-17-11-4-2-5-12-17)22-18-13-6-3-7-14-18/h2-15H,1H3
Instrument: Agilent 6560 QTOF
Instrument type: LC-ESI-QTOF
Ms type: MS2
Ion mode: POSITIVE
Ionization: ESI
Fragmentation mode: CID
Collision energy: 20 eV
Resolution: 7000
Retention time: 0.110 min
Base peak: 341.0936
Precursor m/z: 341.0937
Precursor type: [M+H]+
Precursor intensity: 145039.91
m/z	relative intensity	assigned
51.0233	10	C4H3+
65.0387	15	C5H5+
77.0391	68	C6H5+
91.0543	225	C7H7+
92.0575	6	H13O3P+
93.0322	10	C6H5O+
95.0492	5	C6H7O+
107.0491	22	C7H7O+
108.0524	6	H13O4P+
109.0653	7	C7H9O+
151.0539	34	C12H7+
152.0622	246	C12H8+
153.068	71	C5H14O3P+
154.0718	9	C5H15O3P+
165.0695	155	C13H9+
166.0773	49	C13H10+
167.0854	166	C13H11+
168.0563	9	C12H8O+
168.0892	19	C6H17O3P+
171.0795	10	C12H11O+
175.0146	39	C6H8O4P+
178.0763	6	C7H15O3P+
181.0643	11	C13H9O+
182.0732	7	C13H10O+
183.0782	7	C6H16O4P+
185.0954	34	C13H13O+
189.0324	6	C14H5O+
202.0542	5	C12H11OP+
215.0255	83	C12H8O2P+
215.0836	8	C10H16O3P+
227.0858	10	C18H11+
228.0928	106	C18H12+
229.0411	271	C13H10O2P+
229.0949	19	C11H18O3P+
230.0452	23	C13H11O2P+
233.0367	46	C12H10O3P+
241.1008	9	C19H13+
242.1101	8	C19H14+
243.1153	14	C19H15+
247.0508	147	C13H12O3P+
248.0547	19	C13H13O3P+
251.0459	66	C12H12O4P+
252.0491	10	C12H13O4P+
259.1117	5	C19H15O+
265.0615	112	C13H14O4P+
266.0658	6	C13H15O4P+
305.0735	14	C19H14O2P+
323.0818	12	C19H16O3P+
341.0936	999	C19H18O4P+
