Mass spectrum: Tricosylic acid; LC-ESI-QTOF; MS2; CE: 10eV; R=7000; [M-H]-
Name: Tricosylic acid
Name: tricosanoic acid
Formula: C23H46O2
Exact mass: 354.3498
SMILES: CCCCCCCCCCCCCCCCCCCCCCC(O)=O
InChI: InChI=1S/C23H46O2/c1-2-3-4-5-6-7-8-9-10-11-12-13-14-15-16-17-18-19-20-21-22-23(24)25/h2-22H2,1H3,(H,24,25)
Instrument: Agilent 6560 QTOF
Instrument type: LC-ESI-QTOF
Ms type: MS2
Ion mode: NEGATIVE
Ionization: ESI
Fragmentation mode: CID
Collision energy: 10 eV
Resolution: 7000
Column name: N/A
Retention time: 0.143 min
Base peak: 353.3428
Precursor m/z: 353.3425
Precursor type: [M-H]-
Precursor intensity: 1393233
m/z	relative intensity	assigned
255.2338	4	C16H31O2-
294.1039	1	C22H14O-
335.3324	1	C23H43O-
353.3435	999	C23H45O2-
