Mass spectrum: Mono(2-ethyl-5-hydroxyhexyl)phthalate; LC-ESI-QTOF; MS2; CE: 15eV; R=7000; [M-H]-
Name: Mono(2-ethyl-5-hydroxyhexyl)phthalate
Name: Mono(2-ethyl-5-hydroxyhexyl) phthalate
Name: 2-(2-ethyl-5-hydroxyhexoxy)carbonylbenzoic acid
Formula: C16H22O5
Exact mass: 294.1467
SMILES: CCC(CCC(C)O)COC(=O)C1=CC=CC=C1C(=O)O
InChI: InChI=1S/C16H22O5/c1-3-12(9-8-11(2)17)10-21-16(20)14-7-5-4-6-13(14)15(18)19/h4-7,11-12,17H,3,8-10H2,1-2H3,(H,18,19)
Instrument: Agilent 6560 QTOF
Instrument type: LC-ESI-QTOF
Ms type: MS2
Ion mode: NEGATIVE
Ionization: ESI
Fragmentation mode: CID
Collision energy: 15 eV
Resolution: 7000
Column name: ZORBAX Extend-C18 3.5um, 2.1x50mm, Agilent Technologies
Retention time: 3.406 min
Base peak: 293.14
Precursor m/z: 293.1394
Precursor type: [M-H]-
Precursor intensity: 111442.56
m/z	relative intensity	assigned
71.05	6	C4H7O-
77.0394	397	C6H5-
99.0811	16	C6H11O-
113.0976	9	C7H13O-
121.0291	999	C7H5O2-
125.0965	7	C8H13O-
129.0913	4	C7H13O2-
143.1076	80	C8H15O2-
145.1232	126	C8H17O2-
147.0082	22	C8H3O3-
293.1395	13	C16H21O5-
