Mass spectrum: N-ACETYLMANNOSAMINE; LC-ESI-QTOF; MS2; CE: 10eV; R=5000; [M+H]+
Name: N-ACETYLMANNOSAMINE
Name: N-[(2R,3S,4R,5S,6R)-2,4,5-trihydroxy-6-(hydroxymethyl)oxan-3-yl]acetamide
Formula: C8H15NO6
Exact mass: 221.0899
SMILES: [H][C@@]1(O)O[C@H](CO)[C@@H](O)[C@H](O)[C@@H]1NC(C)=O
InChI: InChI=1S/C8H15NO6/c1-3(11)9-5-7(13)6(12)4(2-10)15-8(5)14/h4-8,10,12-14H,2H2,1H3,(H,9,11)/t4-,5+,6-,7-,8-/m1/s1
Instrument: Agilent 6530 QTOF
Instrument type: LC-ESI-QTOF
Ms type: MS2
Ion mode: POSITIVE
Ionization: ESI
Fragmentation mode: CID
Collision energy: 10 eV
Resolution: 5000
Column name: N/A
Retention time: 0.216 min
Base peak: 244.0791
Precursor m/z: 222.0972
Precursor type: [M+H]+
Precursor intensity: 345697
m/z	relative intensity	assigned
56.0501	19	C3H6N+
60.0458	32	C2H6NO+
69.0326	24	C4H5O+
71.0493	19	C4H7O+
82.0665	2	C5H8N+
83.0124	2	C4H3O2+
84.0461	686	C4H6NO+
85.0878	3	C5H11N+
87.046	1	C4H7O2+
88.0392	2	C3H6NO2+
90.0517	2	H10O5+
96.0467	120	C5H6NO+
97.0299	21	C5H5O2+
98.062	49	C5H8NO+
100.0406	2	C4H6NO2+
102.0538	15	C4H8NO2+
103.0947	2	C2H15O4+
108.0412	6	C3H8O4+
109.0272	20	C6H5O2+
114.0545	7	C5H8NO2+
116.07	5	C5H10NO2+
124.0398	8	C6H6NO2+
126.0564	999	C6H8NO2+
138.0572	503	C7H8NO2+
139.0635	1	C7H9NO2+
144.067	144	C6H10NO3+
150.038	3	C4H8NO5+
162.0748	8	C6H12NO4+
166.0806	2	C6H14O5+
168.0673	76	C8H10NO3+
186.079	75	C8H12NO4+
187.0866	1	C8H13NO4+
204.0899	124	C8H14NO5+
222.0981	3	C8H16NO6+
