Mass spectrum: N-palmitoyl-D-erythro-sphinganine; LC-ESI-QTOF; MS2; CE: 20eV; R=7000; [M+H]+
Name: N-palmitoyl-D-erythro-sphinganine
Name: N-(hexadecanoyl)-sphinganine
Name: N-[(2S,3R)-1,3-dihydroxyoctadecan-2-yl]hexadecanamide
Formula: C34H69NO3
Exact mass: 539.5277
SMILES: CCCCCCCCCCCCCCC[C@H]([C@H](CO)NC(=O)CCCCCCCCCCCCCCC)O
InChI: InChI=1S/C34H69NO3/c1-3-5-7-9-11-13-15-17-19-21-23-25-27-29-33(37)32(31-36)35-34(38)30-28-26-24-22-20-18-16-14-12-10-8-6-4-2/h32-33,36-37H,3-31H2,1-2H3,(H,35,38)/t32-,33+/m0/s1
Instrument: Agilent 6560 QTOF
Instrument type: LC-ESI-QTOF
Ms type: MS2
Ion mode: POSITIVE
Ionization: ESI
Fragmentation mode: CID
Collision energy: 20 eV
Resolution: 7000
Column name: Direct injection
Retention time: 0.155 min
Base peak: 540.5368
Precursor m/z: 540.535
Precursor type: [M+H]+
Precursor intensity: 486838
m/z	relative intensity	assigned
70.0648	32	C4H8N+
71.0854	14	C5H11+
74.06	2	C3H8NO+
81.0699	46	C6H9+
83.0861	40	C6H11+
85.0992	3	C6H13+
88.0753	1	C4H10NO+
95.0847	53	C7H11+
97.1013	20	C7H13+
97.278	1	C4H35N+
109.1012	31	C8H13+
123.1161	9	C9H15+
137.1324	7	C10H17+
151.1457	3	C11H19+
158.1503	4	C9H20NO+
165.1643	1	C12H21+
180.1759	2	C12H22N+
205.1947	3	C15H25+
212.2378	3	C14H30N+
238.2522	2	C16H32N+
239.2375	6	C16H31O+
240.2684	6	C16H34N+
241.2729	4	C13H37O3+
248.0242	1	C19H4O+
249.2573	6	C18H33+
250.2623	1	C18H34+
252.2736	3	C17H34N+
254.284	22	C17H36N+
256.264	241	C16H34NO+
257.2673	17	C16H35NO+
266.2846	243	C18H36N+
267.2846	9	C15H39O3+
280.2606	4	C18H34NO+
284.2946	447	C18H38NO+
285.2992	36	C18H39NO+
296.2958	3	C19H38NO+
298.2737	3	C18H36NO2+
302.3055	121	C18H40NO2+
303.3077	5	C22H39+
434.2709	1	C28H36NO3+
459.1935	2	C32H27O3+
504.5139	59	C34H66NO+
505.5169	12	C34H67NO+
522.5255	999	C34H68NO2+
523.5293	207	C34H69NO2+
540.5349	28	C34H70NO3+
