Mass spectrum: Mono-carboxy-isononyl phthalate; LC-ESI-QTOF; MS2; CE: 25eV; R=7000; [M-H]-
Name: Mono-carboxy-isononyl phthalate
Name: Mono-carboxy isononyl phthalate
Name: 2-(9-carboxynonan-2-yloxycarbonyl)benzoic acid
Formula: C18H24O6
Exact mass: 336.1573
SMILES: CC(CCCCCCCC(=O)O)OC(=O)C1=CC=CC=C1C(=O)O
InChI: InChI=1S/C18H24O6/c1-13(9-5-3-2-4-6-12-16(19)20)24-18(23)15-11-8-7-10-14(15)17(21)22/h7-8,10-11,13H,2-6,9,12H2,1H3,(H,19,20)(H,21,22)
Instrument: Agilent 6560 QTOF
Instrument type: LC-ESI-QTOF
Ms type: MS2
Ion mode: NEGATIVE
Ionization: ESI
Fragmentation mode: CID
Collision energy: 25 eV
Resolution: 7000
Column name: ZORBAX Extend-C18 3.5um, 2.1x50mm, Agilent Technologies
Retention time: 2.802 min
Base peak: 335.1504
Precursor m/z: 335.15
Precursor type: [M-H]-
Precursor intensity: 51001.06
m/z	relative intensity	assigned
71.0511	20	C4H7O-
75.0251	23	C6H3-
77.0397	352	C6H5-
121.0297	356	C7H5O2-
141.1272	24	C9H17O-
165.0188	23	C8H5O4-
169.123	10	C10H17O2-
185.1182	25	C10H17O3-
187.1339	999	C10H19O3-
