Mass spectrum: N-Palmitoyl-D-sphingosine; LC-ESI-QTOF; MS2; CE: 20eV; R=7000; [M+HCOOH-H]-
Name: N-Palmitoyl-D-sphingosine
Name: N-Palmitoylsphingosine
Name: N-[(E,2S,3R)-1,3-dihydroxyoctadec-4-en-2-yl]hexadecanamide
Formula: C34H67NO3
Exact mass: 537.5121
SMILES: [H][C@@](CO)(NC(=O)CCCCCCCCCCCCCCC)[C@H](O)\C=C\CCCCCCCCCCCCC
InChI: InChI=1S/C34H67NO3/c1-3-5-7-9-11-13-15-17-19-21-23-25-27-29-33(37)32(31-36)35-34(38)30-28-26-24-22-20-18-16-14-12-10-8-6-4-2/h27,29,32-33,36-37H,3-26,28,30-31H2,1-2H3,(H,35,38)/b29-27+/t32-,33+/m0/s1
Instrument: Agilent 6560 QTOF
Instrument type: LC-ESI-QTOF
Ms type: MS2
Ion mode: NEGATIVE
Ionization: ESI
Fragmentation mode: CID
Collision energy: 20 eV
Resolution: 7000
Column name: N/A
Retention time: 0.267 min
Base peak: 596.5277
Precursor m/z: 582.5103
Precursor type: [M+HCOOH-H]-
Precursor intensity: 12813
m/z	relative intensity	assigned
163.0591	58	C6H11O5-
206.1021	43	C8H16NO5-
225.4376	22	C6H59NO5-
233.0024	51	C18HO-
237.2195	52	C16H29O-
280.2619	181	C15H36O4-
488.482	33	C30H64O4-
522.4852	90	C33H64NO3-
536.5052	999	C34H66NO3-
537.5099	234	C34H67NO3-
538.2816	70	C35H38O5-
