Mass spectrum: Tri-m-tolyl phosphate; LC-ESI-QTOF; MS2; CE: 5eV; R=7000; [M+H]+
Name: Tri-m-tolyl phosphate
Name: Tri-M-cresyl phosphate
Name: tris(3-methylphenyl) phosphate
Formula: C21H21O4P
Exact mass: 368.1177
SMILES: CC1=CC(=CC=C1)OP(=O)(OC2=CC=CC(=C2)C)OC3=CC=CC(=C3)C
InChI: InChI=1S/C21H21O4P/c1-16-7-4-10-19(13-16)23-26(22,24-20-11-5-8-17(2)14-20)25-21-12-6-9-18(3)15-21/h4-15H,1-3H3
Instrument: Agilent 6560 QTOF
Instrument type: LC-ESI-QTOF
Ms type: MS2
Ion mode: POSITIVE
Ionization: ESI
Fragmentation mode: CID
Collision energy: 5 eV
Resolution: 7000
Retention time: 0.109 min
Base peak: 369.1255
Precursor m/z: 369.125
Precursor type: [M+H]+
Precursor intensity: 378143.86
m/z	relative intensity	assigned
65.0389	2	C5H5+
91.0537	10	C7H7+
107.0491	1	C7H7O+
152.0617	1	C12H8+
153.007	1	C7H6O2P+
153.0708	1	C12H9+
165.0694	10	C13H9+
166.0772	11	C13H10+
179.0838	1	C7H16O3P+
181.1002	2	C14H13+
189.0314	1	C7H10O4P+
243.0566	7	C14H12O2P+
256.1242	3	C20H16+
261.0676	8	C14H14O3P+
279.0792	1	C14H16O4P+
369.1248	999	C21H22O4P+
