Mass spectrum: TAURINE; LC-ESI-QTOF; MS2; CE: 10eV; R=5000; [M+H]+
Name: TAURINE
Name: 2-aminoethanesulfonic acid
Formula: C2H7NO3S
Exact mass: 125.0147
SMILES: NCCS(O)(=O)=O
InChI: InChI=1S/C2H7NO3S/c3-1-2-7(4,5)6/h1-3H2,(H,4,5,6)
Instrument: Agilent 6530 QTOF
Instrument type: LC-ESI-QTOF
Ms type: MS2
Ion mode: POSITIVE
Ionization: ESI
Fragmentation mode: CID
Collision energy: 10 eV
Resolution: 5000
Column name: N/A
Retention time: 0.218 min
Base peak: 121.0508
Precursor m/z: 126.0219
Precursor type: [M+H]+
Precursor intensity: 82247
m/z	relative intensity	assigned
44.0494	999	C2H6N+
78.9857	16	CH3O2S+
108.0088	335	C2H6NO2S+
126.0196	853	C2H8NO3S+
