Mass spectrum: 1,2-diheptadecanoyl-sn-glycero-3-phosphate; LC-ESI-QTOF; MS2; CE: 20eV; R=7000; [M-H]-
Name: 1,2-diheptadecanoyl-sn-glycero-3-phosphate
Name: [(2R)-2-heptadecanoyloxy-3-phosphonooxypropyl] heptadecanoate
Formula: C37H73O8P
Exact mass: 676.5043
SMILES: [C@](COP(=O)(O)O)([H])(OC(CCCCCCCCCCCCCCCC)=O)COC(CCCCCCCCCCCCCCCC)=O
InChI: InChI=1S/C37H73O8P/c1-3-5-7-9-11-13-15-17-19-21-23-25-27-29-31-36(38)43-33-35(34-44-46(40,41)42)45-37(39)32-30-28-26-24-22-20-18-16-14-12-10-8-6-4-2/h35H,3-34H2,1-2H3,(H2,40,41,42)/t35-/m1/s1
Instrument: Agilent 6560 QTOF
Instrument type: LC-ESI-QTOF
Ms type: MS2
Ion mode: NEGATIVE
Ionization: ESI
Fragmentation mode: CID
Collision energy: 20 eV
Resolution: 7000
Column name: N/A
Retention time: 0.192 min
Base peak: 980.0164
Precursor m/z: 675.497
Precursor type: [M-H]-
Precursor intensity: 26893
m/z	relative intensity	assigned
78.9591	275	O3P-
79.1695	16	C2H23O2-
96.9685	80	H2O4P-
114.3991	11	CH55OP-
152.993	175	C3H6O5P-
154.0198	40	C7H7O2P-
214.138	15	C15H18O-
233.3091	14	C5H45O8-
249.1404	22	C15H22OP-
269.2474	999	C10H38O5P-
336.525	11	C21H68O-
341.3224	20	C25H41-
402.9553	19	C27O3P-
405.2418	269	C20H38O6P-
405.316	20	C29H41O-
423.2518	296	C20H40O7P-
565.3042	17	C34H46O5P-
605.3338	83	C37H50O5P-
675.4926	444	C37H72O8P-
