Mass spectrum: METHIONINESULFOXIMINE; LC-ESI-QTOF; MS2; CE: 20eV; R=5000; [M+H]+
Name: METHIONINESULFOXIMINE
Name: Methionine sulfoximine
Name: 2-amino-4-(methylsulfonimidoyl)butanoic acid
Formula: C5H12N2O3S
Exact mass: 180.05686
SMILES: CS(=N)(=O)CCC(N)C(O)=O
InChI: InChI=1S/C5H12N2O3S/c1-11(7,10)3-2-4(6)5(8)9/h4,7H,2-3,6H2,1H3,(H,8,9)
Instrument: Agilent 6530 QTOF
Instrument type: LC-ESI-QTOF
Ms type: MS2
Ion mode: POSITIVE
Ionization: ESI
Fragmentation mode: CID
Collision energy: 20 eV
Resolution: 5000
Column name: N/A
Retention time: 0.221 min
Base peak: 121.0508
Precursor m/z: 181.0641
Precursor type: [M+H]+
Precursor intensity: 316972
m/z	relative intensity	assigned
41.0388	4	C3H5+
44.0494	34	C2H6N+
46.0287	63	CH4NO+
54.0316	4	H6O3+
56.0495	999	C3H6N+
57.0535	8	H9O3+
62.9907	31	CH3OS+
74.0225	349	C2H4NO2+
80.0161	52	CH6NOS+
84.0437	133	C4H6NO+
85.0279	26	C4H5O2+
89.0623	2	CH13O2S+
102.0538	220	C4H8NO2+
120.0099	3	C3H6NO2S+
