Mass spectrum: trans-Cinnamic acid; LC-ESI-QTOF; MS2; CE: 20eV; R=7000; [M-H]-
Name: trans-Cinnamic acid
Name: Cinnamic acid
Name: (E)-3-phenylprop-2-enoic acid
Formula: C9H8O2
Exact mass: 148.0524
SMILES: OC(=O)\C=C\C1=CC=CC=C1
InChI: InChI=1S/C9H8O2/c10-9(11)7-6-8-4-2-1-3-5-8/h1-7H,(H,10,11)/b7-6+
Instrument: Agilent 6560 QTOF
Instrument type: LC-ESI-QTOF
Ms type: MS2
Ion mode: NEGATIVE
Ionization: ESI
Fragmentation mode: CID
Collision energy: 20 eV
Resolution: 7000
Column name: N/A
Retention time: 0.475 min
Base peak: 980.0164
Precursor m/z: 147.0452
Precursor type: [M-H]-
Precursor intensity: 1866808
m/z	relative intensity	assigned
70.0063	589	C3H2O2-
72.023	689	C3H4O2-
75.0222	621	C6H3-
75.0446	577	C3H7O2-
83.0514	805	C5H7O-
85.0094	751	C7H-
87.0257	656	C7H3-
92.0269	826	C6H4O-
94.0445	651	C6H6O-
99.0227	844	C8H3-
100.0325	999	C8H4-
106.0052	765	C6H2O2-
112.0345	691	C9H4-
115.0169	604	C8H3O-
129.0323	682	C9H5O-
133.0288	698	C8H5O2-
