Mass spectrum: 11-Deoxycortisol; LC-ESI-QTOF; MS2; CE: 40eV; R=7000; [M+CH3COO]-
Name: 11-Deoxycortisol
Name: Reichsteins Substance S
Name: 17-hydroxy-17-(2-hydroxyacetyl)-10,13-dimethyl-2,6,7,8,9,11,12,14,15,16-decahydro-1H-cyclopenta[a]phenanthren-3-one
Formula: C21H30O4
Exact mass: 346.2144
SMILES: CC12CCC(=O)C=C1CCC3C2CCC4(C3CCC4(C(=O)CO)O)C
InChI: InChI=1S/C21H30O4/c1-19-8-5-14(23)11-13(19)3-4-15-16(19)6-9-20(2)17(15)7-10-21(20,25)18(24)12-22/h11,15-17,22,25H,3-10,12H2,1-2H3
Instrument: Agilent 6560 QTOF
Instrument type: LC-ESI-QTOF
Ms type: MS2
Ion mode: NEGATIVE
Ionization: ESI
Fragmentation mode: CID
Collision energy: 40 eV
Resolution: 7000
Column name: N/A
Retention time: 0.239 min
Base peak: 357.1899
Precursor m/z: 405.2283
Precursor type: [M+CH3COO]-
Precursor intensity: 70651
m/z	relative intensity	assigned
123.081	53	C8H11O-
125.059	21	C7H9O2-
135.0796	13	C9H11O-
173.1007	34	C5H17O6-
175.0751	46	C11H11O2-
175.1141	21	C12H15O-
175.1343	6	C9H19O3-
184.085	7	C13H12O-
195.0826	15	C14H11O-
225.1264	13	C16H17O-
241.2141	11	C15H29O2-
268.1475	6	C18H20O2-
269.1541	23	C18H21O2-
270.2052	4	C12H30O6-
271.1698	60	C18H23O2-
281.1548	43	C19H21O2-
283.1678	31	C19H23O2-
285.1836	33	C19H25O2-
286.188	29	C19H26O2-
295.1267	10	C19H19O3-
297.1488	45	C19H21O3-
297.183	29	C20H25O2-
297.2602	2	C22H33-
299.1661	999	C19H23O3-
300.167	154	C19H24O3-
300.2132	12	C20H28O2-
305.0229	2	C21H5O3-
313.1781	16	C20H25O3-
313.2438	4	C18H33O4-
315.1962	240	C20H27O3-
316.2019	24	C20H28O3-
327.1973	8	C21H27O3-
