Mass spectrum: 1-(9Z-octadecenoyl)-2-hexadecanoyl-sn-glycero-3-phosphocholine; LC-ESI-QTOF; MS2; CE: 40eV; R=7000; [M+Na]+
Name: 1-(9Z-octadecenoyl)-2-hexadecanoyl-sn-glycero-3-phosphocholine
Name: 1-Oleoyl-2-palmitoyl-sn-glycero-3-phosphocholine
Name: [(2R)-2-hexadecanoyloxy-3-[(Z)-octadec-9-enoyl]oxypropyl] 2-(trimethylazaniumyl)ethyl phosphate
Formula: C42H82NO8P
Exact mass: 759.5778
SMILES: [C@](COP(=O)([O-])OCC[N+](C)(C)C)([H])(OC(CCCCCCCCCCCCCCC)=O)COC(CCCCCCC/C=C\CCCCCCCC)=O
InChI: InChI=1S/C42H82NO8P/c1-6-8-10-12-14-16-18-20-21-23-24-26-28-30-32-34-41(44)48-38-40(39-50-52(46,47)49-37-36-43(3,4)5)51-42(45)35-33-31-29-27-25-22-19-17-15-13-11-9-7-2/h20-21,40H,6-19,22-39H2,1-5H3/b21-20-/t40-/m1/s1
Instrument: Agilent 6560 QTOF
Instrument type: LC-ESI-QTOF
Ms type: MS2
Ion mode: POSITIVE
Ionization: ESI
Fragmentation mode: CID
Collision energy: 40 eV
Resolution: 7000
Column name: Direct injection
Retention time: 0.243 min
Base peak: 760.5878
Precursor m/z: 782.567
Precursor type: [M+Na]+
Precursor intensity: 231962
m/z	relative intensity	assigned
71.0481	2	C4H7O+
71.0853	42	C5H11+
72.0921	5	C3H13Na+
79.0542	2	C6H7+
81.0688	73	C6H9+
83.0497	3	CH10NOP+
83.0853	64	C6H11+
84.0898	4	C4H13Na+
85.0637	3	C5H9O+
86.0966	379	C5H12N+
87.1004	2	C2H15O3+
88.1971	2	CH29OP+
91.054	5	C7H7+
93.0679	7	CH13NNaP+
93.1159	4	C4H15NO+
95.0851	53	C7H11+
97.0637	3	H13NNaOP+
97.1003	29	C7H13+
107.0832	11	CH16O3P+
109.1011	63	C8H13+
111.0783	4	CH15NNaOP+
111.1167	5	C8H15+
121.1009	24	C9H13+
122.105	3	H20NaO3P+
123.1184	13	C5H18NP+
124.1205	2	H22NaO3P+
125.0011	2	C3H5NNaOP+
135.1162	21	C10H15+
137.1313	1	C4H21NNaP+
139.1502	2	CH24NaO5+
146.9815	999	C2H5NaO4P+
148.3013	2	C8H38N+
148.9857	6	CH5NNaO4P+
149.1323	20	C11H17+
151.1485	12	C7H22NP+
151.3434	1	C5H45NO2+
155.1398	4	C8H20NaO+
163.1514	4	C3H24NaO5+
165.1595	4	C3H27NaO3P+
166.1659	4	C4H24NO5+
169.1574	1	C5H25NNaOP+
170.5442	1	C3H73NOP+
179.1773	2	C7H27NNaP+
184.0747	3	C12H10NO+
195.1783	2	H31NNaO6P+
239.2396	9	C7H36NaO6+
240.245	2	C12H35NOP+
247.2381	6	C9H37NaO3P+
265.2536	24	C14H36NOP+
307.2623	7	C20H35O2+
398.2747	3	C18H40NO8+
419.2532	3	C19H41NaO6P+
420.1049	3	C21H19NNaO7+
441.2366	35	C22H35NO8+
442.479	1	C16H70NNaO7P+
445.2772	1	C21H42NaO8+
467.2488	6	C22H38NNaO8+
478.3296	5	C24H49NO6P+
504.3436	1	C30H48O6+
526.3268	3	C26H50NNaO6P+
537.5503	2	C34H75NaP+
577.5207	214	C40H67NO+
578.5304	23	C40H68NO+
580.2688	1	C36H38NO6+
599.502	213	C33H71NNaO4P+
600.5047	29	C30H74NaO7P+
601.1756	1	C35H31NaO6P+
723.4958	14	C41H72O8P+
782.567	2	C42H82NNaO8P+
