Mass spectrum: L-Carnitine hydrochloride; LC-ESI-QTOF; MS2; CE: 20eV; R=5000; [M+H]+
Name: L-Carnitine hydrochloride
Name: Levocarnitine
Name: (3R)-3-hydroxy-4-(trimethylazaniumyl)butanoate
Formula: C7H15NO3
Exact mass: 161.1052
SMILES: C[N+](C)(C)C[C@@H](CC(=O)[O-])O
InChI: InChI=1S/C7H15NO3/c1-8(2,3)5-6(9)4-7(10)11/h6,9H,4-5H2,1-3H3/t6-/m1/s1
Instrument: Agilent 6530 QTOF
Instrument type: LC-ESI-QTOF
Ms type: MS2
Ion mode: POSITIVE
Ionization: ESI
Fragmentation mode: CID
Collision energy: 20 eV
Resolution: 5000
Column name: N/A
Retention time: 0.598 min
Base peak: 162.1129
Precursor m/z: 162.1125
Precursor type: [M+H]+
Precursor intensity: 2156932
m/z	relative intensity	assigned
41.0392	46	C3H5+
43.0184	963	C2H3O+
44.05	55	C2H6N+
45.0575	50	C2H7N+
57.0336	292	C3H5O+
58.0651	232	C3H8N+
59.0729	183	C3H9N+
60.0808	999	C3H10N+
61.1087	2	H15NO2+
85.0279	766	C4H5O2+
102.0904	554	C5H12NO+
103.0377	782	C4H7O3+
144.0994	2	C7H14NO2+
162.1105	456	C7H16NO3+
