Mass spectrum: ADENOSINE; LC-ESI-QTOF; MS2; CE: 20eV; R=5000; [M+H]+
Name: ADENOSINE
Name: (2R,3R,4S,5R)-2-(6-aminopurin-9-yl)-5-(hydroxymethyl)oxolane-3,4-diol
Formula: C10H13N5O4
Exact mass: 267.0968
SMILES: NC1=NC=NC2=C1N=CN2[C@@H]1O[C@H](CO)[C@@H](O)[C@H]1O
InChI: InChI=1S/C10H13N5O4/c11-8-5-9(13-2-12-8)15(3-14-5)10-7(18)6(17)4(1-16)19-10/h2-4,6-7,10,16-18H,1H2,(H2,11,12,13)/t4-,6-,7-,10-/m1/s1
Instrument: Agilent 6530 QTOF
Instrument type: LC-ESI-QTOF
Ms type: MS2
Ion mode: POSITIVE
Ionization: ESI
Fragmentation mode: CID
Collision energy: 20 eV
Resolution: 5000
Column name: N/A
Retention time: 0.185 min
Base peak: 121.0508
Precursor m/z: 268.104
Precursor type: [M+H]+
Precursor intensity: 1885183
m/z	relative intensity	assigned
43.0185	6	C2H3O+
45.0345	2	C2H5O+
55.019	15	C3H3O+
57.0335	28	C3H5O+
59.0473	2	CH5N3+
61.0288	2	C2H5O2+
65.0124	1	C3HN2+
67.0271	1	H5NO3+
69.0339	4	C4H5O+
71.0137	6	C3H3O2+
73.0279	9	C3H5O2+
85.0284	16	C4H5O2+
87.0424	2	C2H5N3O+
92.0218	1	CH4N2O3+
94.0395	3	C4H4N3+
97.0287	2	C5H5O2+
103.0368	1	C2H5N3O2+
109.0476	1	CH7N3O3+
115.0386	4	C5H7O3+
119.0343	22	C4H7O4+
133.0465	5	C3H7N3O3+
136.0615	999	C5H6N5+
178.0658	1	C10H10O3+
268.1016	10	C10H14N5O4+
