Mass spectrum: {(Propane-2,2-diyl)bis[(4,1-phenylene)oxy]-2-hydroxypropane-3,1-diyl} bis(2-methylprop-2-enoate); LC-ESI-QTOF; MS2; CE: 10eV; R=7000; [M+NH4]+
Name: {(Propane-2,2-diyl)bis[(4,1-phenylene)oxy]-2-hydroxypropane-3,1-diyl} bis(2-methylprop-2-enoate)
Name: Silux
Name: [2-hydroxy-3-[4-[2-[4-[2-hydroxy-3-(2-methylprop-2-enoyloxy)propoxy]phenyl]propan-2-yl]phenoxy]propyl] 2-methylprop-2-enoate
Formula: C29H36O8
Exact mass: 512.2410
SMILES: CC(=C)C(=O)OCC(O)COC1=CC=C(C=C1)C(C)(C)C1=CC=C(OCC(O)COC(=O)C(C)=C)C=C1
InChI: InChI=1S/C29H36O8/c1-19(2)27(32)36-17-23(30)15-34-25-11-7-21(8-12-25)29(5,6)22-9-13-26(14-10-22)35-16-24(31)18-37-28(33)20(3)4/h7-14,23-24,30-31H,1,3,15-18H2,2,4-6H3
Instrument: Agilent 6560 QTOF
Instrument type: LC-ESI-QTOF
Ms type: MS2
Ion mode: POSITIVE
Ionization: ESI
Fragmentation mode: CID
Collision energy: 10 eV
Resolution: 7000
Column name: ZORBAX Extend-C18 3.5um, 2.1x50mm, Agilent Technologies
Retention time: 3.791 min
Base peak: 530.2827
Precursor m/z: 530.2748
Precursor type: [M+NH4]+
Precursor intensity: 598931.78
m/z	relative intensity	assigned
57.034	12	C3H5O+
59.0487	5	C3H7O+
69.034	83	C4H5O+
85.1012	1	C6H13+
87.0449	21	C4H7O2+
97.1051	1	H17O5+
105.0702	1	C8H9+
107.0478	2	C7H7O+
135.0798	55	C9H11O+
136.0825	1	CH14NO6+
143.0704	999	C7H11O3+
145.063	1	C10H9O+
157.086	4	C8H13O3+
159.0786	2	C11H11O+
161.0948	4	C11H13O+
173.0957	321	C12H13O+
174.0989	21	C4H16NO6+
191.1059	116	C12H15O2+
192.1091	4	C4H18NO7+
209.1162	347	C12H17O3+
210.1203	21	C4H20NO8+
211.0956	110	C11H15O4+
221.1876	1	C15H25O+
259.1315	67	C16H19O3+
260.1347	9	C8H22NO8+
275.1247	5	C16H19O4+
275.2987	1	C17H39O2+
277.1431	675	C16H21O4+
278.1456	63	C16H22O4+
293.1538	4	C20H21O2+
305.1517	30	C21H21O2+
306.1534	4	C13H24NO7+
323.1637	27	C21H23O3+
324.1639	5	C13H26NO8+
341.1739	44	C21H25O4+
342.1782	2	C21H26O4+
345.1649	2	C27H21+
379.1887	1	C24H27O4+
391.19	6	C25H27O4+
409.2008	23	C25H29O5+
410.2018	3	C24H28NO5+
427.2107	372	C25H31O6+
428.2135	31	C25H32O6+
477.2244	6	C29H33O6+
495.2381	482	C29H35O7+
496.2394	84	C29H36O7+
513.2461	28	C29H37O8+
514.2514	1	C29H38O8+
530.2738	58	C29H40NO8+
