Mass spectrum: Tri-o-tolyl phosphate; LC-ESI-QTOF; MS2; CE: 35eV; R=7000; [M+H]+
Name: Tri-o-tolyl phosphate
Name: Tri-O-cresyl phosphate
Name: tris(2-methylphenyl) phosphate
Formula: C21H21O4P
Exact mass: 368.1177
SMILES: CC1=CC=CC=C1OP(=O)(OC2=CC=CC=C2C)OC3=CC=CC=C3C
InChI: InChI=1S/C21H21O4P/c1-16-10-4-7-13-19(16)23-26(22,24-20-14-8-5-11-17(20)2)25-21-15-9-6-12-18(21)3/h4-15H,1-3H3
Instrument: Agilent 6560 QTOF
Instrument type: LC-ESI-QTOF
Ms type: MS2
Ion mode: POSITIVE
Ionization: ESI
Fragmentation mode: CID
Collision energy: 35 eV
Resolution: 7000
Retention time: 0.146 min
Base peak: 391.1072
Precursor m/z: 369.125
Precursor type: [M+H]+
Precursor intensity: 137293.2
m/z	relative intensity	assigned
51.022	7	C4H3+
55.0167	5	C3H3O+
63.0234	5	C5H3+
65.0383	207	C5H5+
77.0394	23	C6H5+
79.0542	9	C6H7+
91.054	999	C7H7+
105.0699	18	C8H9+
107.0479	68	H12O4P+
109.0625	9	H14O4P+
115.0548	9	C9H7+
119.0476	8	CH12O4P+
121.0645	19	C8H9O+
141.0684	30	C4H14O3P+
153.0085	34	C7H6O2P+
153.069	21	C12H9+
154.0768	7	C12H10+
155.0835	5	C5H16O3P+
164.0612	6	C13H8+
165.0691	389	C13H9+
166.077	362	C13H10+
167.0809	46	C6H16O3P+
169.1004	4	C13H13+
178.0763	99	C7H15O3P+
179.0845	95	C14H11+
180.0905	26	C7H17O3P+
181.0638	8	C13H9O+
181.0993	42	C7H18O3P+
182.0706	4	C6H15O4P+
187.0143	9	C7H8O4P+
189.0293	24	C7H10O4P+
195.0792	26	C7H16O4P+
196.0859	16	C7H17O4P+
197.0947	37	C7H18O4P+
215.08	7	C10H16O3P+
226.0754	6	C11H15O3P+
239.0836	5	C12H16O3P+
241.1007	31	C19H13+
242.1043	10	C12H19O3P+
243.0563	35	C14H12O2P+
253.0969	7	C13H18O3P+
255.1167	21	C20H15+
256.1237	27	C20H16+
261.066	7	C14H14O3P+
277.0636	6	C21H9O+
279.0779	42	C14H16O4P+
280.077	8	C17H12O4+
369.1185	10	C21H22O4P+
