Mass spectrum: N-Palmitoyl-D-sphingosine; LC-ESI-QTOF; MS2; CE: 20eV; R=7000; [M+CH3COO]-
Name: N-Palmitoyl-D-sphingosine
Name: N-Palmitoylsphingosine
Name: N-[(E,2S,3R)-1,3-dihydroxyoctadec-4-en-2-yl]hexadecanamide
Formula: C34H67NO3
Exact mass: 537.5121
SMILES: [H][C@@](CO)(NC(=O)CCCCCCCCCCCCCCC)[C@H](O)\C=C\CCCCCCCCCCCCC
InChI: InChI=1S/C34H67NO3/c1-3-5-7-9-11-13-15-17-19-21-23-25-27-29-33(37)32(31-36)35-34(38)30-28-26-24-22-20-18-16-14-12-10-8-6-4-2/h27,29,32-33,36-37H,3-26,28,30-31H2,1-2H3,(H,35,38)/b29-27+/t32-,33+/m0/s1
Instrument: Agilent 6560 QTOF
Instrument type: LC-ESI-QTOF
Ms type: MS2
Ion mode: NEGATIVE
Ionization: ESI
Fragmentation mode: CID
Collision energy: 20 eV
Resolution: 7000
Column name: N/A
Retention time: 0.148 min
Base peak: 596.5275
Precursor m/z: 596.5259
Precursor type: [M+CH3COO]-
Precursor intensity: 496560
m/z	relative intensity	assigned
87.103	1	C2H15O3-
206.3909	1	C13H50-
226.4875	1	C7H64NO4-
237.2219	107	C16H29O-
239.2357	1	C16H31O-
243.1604	2	C13H23O4-
254.2492	43	C16H32NO-
255.2317	26	C16H31O2-
263.2384	45	C18H31O-
264.2451	5	C18H32O-
266.2487	1	C17H32NO-
268.264	4	C17H34NO-
279.2463	2	C14H33NO4-
280.2643	197	C18H34NO-
281.2684	14	C15H37O4-
296.2603	32	C18H34NO2-
298.2753	12	C18H36NO2-
299.2757	1	C22H35-
306.2828	2	C20H36NO-
346.2058	1	C20H28NO4-
368.2467	1	C20H34NO5-
408.1382	1	C30H18NO-
477.4584	1	C31H59NO2-
488.4862	27	C33H62NO-
489.4753	3	C29H63NO4-
500.1986	1	C34H28O4-
504.4793	40	C33H62NO2-
505.4841	2	C30H65O5-
506.4959	66	C33H64NO2-
507.4981	11	C30H67O5-
518.502	2	C35H66O2-
519.4898	1	C30H65NO5-
533.1204	2	C35H19NO5-
533.2326	1	C35H33O5-
536.5061	999	C34H66NO3-
537.5103	168	C34H67NO3-
539.5286	1	C34H69NO3-
579.3941	3	C36H53NO5-
