Mass spectrum: Linoleic acid; LC-ESI-QTOF; MS2; CE: 10eV; R=7000; [M-H]-
Name: Linoleic acid
Name: (9Z,12Z)-octadeca-9,12-dienoic acid
Formula: C18H32O2
Exact mass: 280.2402
SMILES: CCCCC\C=C/C\C=C/CCCCCCCC(O)=O
InChI: InChI=1S/C18H32O2/c1-2-3-4-5-6-7-8-9-10-11-12-13-14-15-16-17-18(19)20/h6-7,9-10H,2-5,8,11-17H2,1H3,(H,19,20)/b7-6-,10-9-
Instrument: Agilent 6560 QTOF
Instrument type: LC-ESI-QTOF
Ms type: MS2
Ion mode: NEGATIVE
Ionization: ESI
Fragmentation mode: CID
Collision energy: 10 eV
Resolution: 7000
Column name: N/A
Retention time: 0.191 min
Base peak: 357.1891
Precursor m/z: 279.233
Precursor type: [M-H]-
Precursor intensity: 66989
m/z	relative intensity	assigned
217.1581	8	C15H21O-
261.2237	3	C18H29O-
279.2316	999	C18H31O2-
