Mass spectrum: Bisphenol B; LC-ESI-QTOF; MS2; CE: 35eV; R=7000; [M-H]-
Name: Bisphenol B
Name: 4-[2-(4-hydroxyphenyl)butan-2-yl]phenol
Formula: C16H18O2
Exact mass: 242.1307
SMILES: CCC(C)(C1=CC=C(C=C1)O)C2=CC=C(C=C2)O
InChI: InChI=1S/C16H18O2/c1-3-16(2,12-4-8-14(17)9-5-12)13-6-10-15(18)11-7-13/h4-11,17-18H,3H2,1-2H3
Instrument: Agilent 6560 QTOF
Instrument type: LC-ESI-QTOF
Ms type: MS2
Ion mode: NEGATIVE
Ionization: ESI
Fragmentation mode: CID
Collision energy: 35 eV
Resolution: 7000
Column name: ZORBAX Extend-C18 3.5um, 2.1x50mm, Agilent Technologies
Retention time: 3.617 min
Base peak: 241.1237
Precursor m/z: 241.1234
Precursor type: [M-H]-
Precursor intensity: 10145.35
m/z	relative intensity	assigned
117.0341	63	C8H5O-
146.0722	41	C10H10O-
147.0818	65	C10H11O-
168.0599	78	C12H8O-
211.0761	999	C14H11O2-
212.0802	77	C14H12O2-
