Mass spectrum: L-ORNITHINE; LC-ESI-QTOF; MS2; CE: 10eV; R=5000; [M+H]+
Name: L-ORNITHINE
Name: (2S)-2,5-diaminopentanoic acid
Formula: C5H12N2O2
Exact mass: 132.0899
SMILES: NCCC[C@H](N)C(O)=O
InChI: InChI=1S/C5H12N2O2/c6-3-1-2-4(7)5(8)9/h4H,1-3,6-7H2,(H,8,9)/t4-/m0/s1
Instrument: Agilent 6530 QTOF
Instrument type: LC-ESI-QTOF
Ms type: MS2
Ion mode: POSITIVE
Ionization: ESI
Fragmentation mode: CID
Collision energy: 10 eV
Resolution: 5000
Column name: N/A
Retention time: 0.216 min
Base peak: 133.0969
Precursor m/z: 133.0972
Precursor type: [M+H]+
Precursor intensity: 1040818
m/z	relative intensity	assigned
41.0388	1	C3H5+
43.0538	8	C3H7+
68.0508	4	C4H6N+
70.066	999	C4H8N+
87.0908	2	C4H11N2+
97.077	1	C5H9N2+
115.0862	50	C5H11N2O+
116.0705	234	C5H10NO2+
133.0981	33	C5H13N2O2+
