Mass spectrum: Dopamine HCl; LC-ESI-QTOF; MS2; CE: 20eV; R=5000; [M+H]+
Name: Dopamine HCl
Name: Dopamine
Name: 4-(2-aminoethyl)benzene-1,2-diol
Formula: C8H11NO2
Exact mass: 153.0790
SMILES: C1=CC(=C(C=C1CCN)O)O
InChI: InChI=1S/C8H11NO2/c9-4-3-6-1-2-7(10)8(11)5-6/h1-2,5,10-11H,3-4,9H2
Instrument: Agilent 6530 QTOF
Instrument type: LC-ESI-QTOF
Ms type: MS2
Ion mode: POSITIVE
Ionization: ESI
Fragmentation mode: CID
Collision energy: 20 eV
Resolution: 5000
Column name: N/A
Retention time: 0.256 min
Base peak: 121.0508
Precursor m/z: 154.0863
Precursor type: [M+H]+
Precursor intensity: 100386
m/z	relative intensity	assigned
51.9948	2	C3O+
65.0379	275	C5H5+
66.0471	17	C5H6+
91.0529	999	C7H7+
94.0884	1	C3H12NO2+
107.0385	2	C6H5NO+
119.0481	196	C8H7O+
137.0568	167	C8H9O2+
