Mass spectrum: 4-Methylbenzotriazole; LC-ESI-QTOF; MS2; CE: 40eV; R=7000; [M+H]+
Name: 4-Methylbenzotriazole
Name: 4-Methyl-1H-benzotriazole
Name: 4-methyl-2H-benzotriazole
Formula: C7H7N3
Exact mass: 133.0640
SMILES: CC1=CC=CC2=NNN=C12
InChI: InChI=1S/C7H7N3/c1-5-3-2-4-6-7(5)9-10-8-6/h2-4H,1H3,(H,8,9,10)
Instrument: Agilent 6560 QTOF
Instrument type: LC-ESI-QTOF
Ms type: MS2
Ion mode: POSITIVE
Ionization: ESI
Fragmentation mode: CID
Collision energy: 40 eV
Resolution: 7000
Retention time: 0.146 min
Base peak: 134.0712
Precursor m/z: 134.0713
Precursor type: [M+H]+
Precursor intensity: 35824.38
m/z	relative intensity	assigned
51.0231	999	C4H3+
53.0382	90	C4H5+
54.0344	32	C3H4N+
63.0227	74	C5H3+
65.0386	89	C5H5+
66.0461	45	C5H6+
67.0407	21	C4H5N+
75.0217	16	C6H3+
77.0386	884	C6H5+
79.0537	28	C6H7+
80.0503	25	C5H6N+
104.0483	27	C7H6N+
105.0439	16	C6H5N2+
