Mass spectrum: Diphenylcresyl phosphate; LC-ESI-QTOF; MS2; CE: 10eV; R=7000; [M+H]+
Name: Diphenylcresyl phosphate
Name: Phosphoric acid, 2-methylphenyl diphenyl ester
Name: (2-methylphenyl) diphenyl phosphate
Formula: C19H17O4P
Exact mass: 340.0864
SMILES: CC1=CC=CC=C1OP(=O)(OC2=CC=CC=C2)OC3=CC=CC=C3
InChI: InChI=1S/C19H17O4P/c1-16-10-8-9-15-19(16)23-24(20,21-17-11-4-2-5-12-17)22-18-13-6-3-7-14-18/h2-15H,1H3
Instrument: Agilent 6560 QTOF
Instrument type: LC-ESI-QTOF
Ms type: MS2
Ion mode: POSITIVE
Ionization: ESI
Fragmentation mode: CID
Collision energy: 10 eV
Resolution: 7000
Retention time: 0.110 min
Base peak: 341.0943
Precursor m/z: 341.0937
Precursor type: [M+H]+
Precursor intensity: 169561
m/z	relative intensity	assigned
51.0234	1	C4H3+
65.0398	3	C5H5+
77.0385	4	C6H5+
91.0543	15	C7H7+
99.0223	1	C8H3+
141.07	1	C11H9+
151.0545	3	C12H7+
152.0606	13	C5H13O3P+
153.0678	4	C5H14O3P+
165.0689	15	C13H9+
166.0786	5	C13H10+
167.0853	17	C13H11+
168.0561	2	C12H8O+
168.0894	1	C6H17O3P+
175.0154	3	C6H8O4P+
182.0715	2	C13H10O+
185.0978	2	C13H13O+
202.077	2	C16H10+
215.0247	4	C12H8O2P+
215.0823	2	C10H16O3P+
228.0928	9	C18H12+
229.0411	15	C13H10O2P+
233.039	1	C19H5+
234.0357	2	C15H6O3+
243.1161	3	C19H15+
247.0521	18	C13H12O3P+
251.0448	4	C12H12O4P+
265.0611	9	C13H14O4P+
323.0817	1	C19H16O3P+
341.094	999	C19H18O4P+
