Mass spectrum: Bisphenol S; LC-ESI-QTOF; MS2; CE: 25eV; R=7000; [M-H]-
Name: Bisphenol S
Name: 4,4`-Sulfonyldiphenol
Name: 4-(4-hydroxyphenyl)sulfonylphenol
Formula: C12H10O4S
Exact mass: 250.0300
SMILES: C1=CC(=CC=C1O)S(=O)(=O)C2=CC=C(C=C2)O
InChI: InChI=1S/C12H10O4S/c13-9-1-5-11(6-2-9)17(15,16)12-7-3-10(14)4-8-12/h1-8,13-14H
Instrument: Agilent 6560 QTOF
Instrument type: LC-ESI-QTOF
Ms type: MS2
Ion mode: NEGATIVE
Ionization: ESI
Fragmentation mode: CID
Collision energy: 25 eV
Resolution: 7000
Retention time: 0.189 min
Base peak: 249.0234
Precursor m/z: 249.0227
Precursor type: [M-H]-
Precursor intensity: 196129.82
m/z	relative intensity	assigned
63.9624	4	O2S-
92.027	578	C6H4O-
93.0332	23	C6H5O-
95.0116	2	C5H3O2-
108.0212	999	C6H4O2-
119.049	2	C8H7O-
123.9985	2	C6H4OS-
139.9933	9	C6H4O2S-
143.0505	2	C10H7O-
155.9883	65	C6H4O3S-
156.0569	3	C11H8O-
156.9957	4	C6H5O3S-
157.0667	5	C11H9O-
158.0366	3	C10H6O2-
184.053	46	C12H8O2-
185.0605	10	C12H9O2-
249.0233	73	C12H9O4S-
