Mass spectrum: Isodecyl diphenyl phosphate; LC-ESI-QTOF; MS2; CE: 50eV; R=7000; [M+H]+
Name: Isodecyl diphenyl phosphate
Name: 8-methylnonyl diphenyl phosphate
Formula: C22H31O4P
Exact mass: 390.1960
SMILES: CC(C)CCCCCCCOP(=O)(OC1=CC=CC=C1)OC2=CC=CC=C2
InChI: InChI=1S/C22H31O4P/c1-20(2)14-8-4-3-5-13-19-24-27(23,25-21-15-9-6-10-16-21)26-22-17-11-7-12-18-22/h6-7,9-12,15-18,20H,3-5,8,13-14,19H2,1-2H3
Instrument: Agilent 6560 QTOF
Instrument type: LC-ESI-QTOF
Ms type: MS2
Ion mode: POSITIVE
Ionization: ESI
Fragmentation mode: CID
Collision energy: 50 eV
Resolution: 7000
Retention time: 0.108 min
Base peak: 251.0465
Precursor m/z: 391.2033
Precursor type: [M+H]+
Precursor intensity: 46227.1
m/z	relative intensity	assigned
50.0157	8	C4H2+
51.0238	234	C4H3+
57.0705	28	C4H9+
77.0387	999	C6H5+
95.0486	57	C6H7O+
138.9946	9	C6H4O2P+
151.0522	34	C5H12O3P+
152.0623	277	C12H8+
157.0043	11	C6H6O3P+
159.0347	14	C10H8P+
168.0551	42	C5H13O4P+
175.0136	33	C6H8O4P+
187.0328	8	C11H8OP+
215.0254	16	C12H8O2P+
