Mass spectrum: 1-(9Z-octadecenoyl)-sn-glycero-3-phosphoethanolamine; LC-ESI-QTOF; MS2; CE: 20eV; R=7000; [M-H]-
Name: 1-(9Z-octadecenoyl)-sn-glycero-3-phosphoethanolamine
Name: [(2R)-3-[2-aminoethoxy(hydroxy)phosphoryl]oxy-2-hydroxypropyl] (Z)-octadec-9-enoate
Formula: C23H46NO7P
Exact mass: 479.3012
SMILES: CCCCCCCC/C=C\CCCCCCCC(=O)OC[C@H](COP(=O)([O-])OCC[NH3+])O
InChI: InChI=1S/C23H46NO7P/c1-2-3-4-5-6-7-8-9-10-11-12-13-14-15-16-17-23(26)29-20-22(25)21-31-32(27,28)30-19-18-24/h9-10,22,25H,2-8,11-21,24H2,1H3,(H,27,28)/b10-9-/t22-/m1/s1
Instrument: Agilent 6560 QTOF
Instrument type: LC-ESI-QTOF
Ms type: MS2
Ion mode: NEGATIVE
Ionization: ESI
Fragmentation mode: CID
Collision energy: 20 eV
Resolution: 7000
Column name: N/A
Retention time: 0.145 min
Base peak: 980.0164
Precursor m/z: 478.2939
Precursor type: [M-H]-
Precursor intensity: 117117
m/z	relative intensity	assigned
78.9583	4	O3P-
140.0109	3	C6H4O4-
152.9959	12	C3H6O5P-
153.0395	1	C4H9O6-
166.0267	9	C8H6O4-
170.2967	2	C11H38-
196.0376	146	C9H8O5-
214.0481	17	C9H10O6-
214.22	1	C13H28NO-
214.2588	2	C7H36NO5-
215.0498	12	C16H7O-
280.0571	3	C13H12O7-
280.243	3	C14H35NO2P-
281.2491	999	C14H36NO2P-
282.2531	117	C11H39O5P-
302.25	1	C20H32NO-
478.2928	65	C23H45NO7P-
