Mass spectrum: Di(2-ethylhexyl) adipate; LC-ESI-QTOF; MS2; CE: 30eV; R=7000; [M+H]+
Name: Di(2-ethylhexyl) adipate
Name: Bis(2-ethylhexyl) adipate
Name: bis(2-ethylhexyl) hexanedioate
Formula: C22H42O4
Exact mass: 370.3083
SMILES: CCCCC(CC)COC(=O)CCCCC(=O)OCC(CC)CCCC
InChI: InChI=1S/C22H42O4/c1-5-9-13-19(7-3)17-25-21(23)15-11-12-16-22(24)26-18-20(8-4)14-10-6-2/h19-20H,5-18H2,1-4H3
Instrument: Agilent 6560 QTOF
Instrument type: LC-ESI-QTOF
Ms type: MS2
Ion mode: POSITIVE
Ionization: ESI
Fragmentation mode: CID
Collision energy: 30 eV
Resolution: 7000
Retention time: 0.288 min
Base peak: 393.2988
Precursor m/z: 371.3156
Precursor type: [M+H]+
Precursor intensity: 55240.88
m/z	relative intensity	assigned
55.0544	999	C4H7+
57.0702	402	C4H9+
59.0501	69	C3H7O+
71.0856	245	C5H11+
83.0491	368	C5H7O+
101.0595	923	C5H9O2+
111.0441	696	C6H7O2+
129.0542	35	C6H9O3+
282.2782	18	C15H38O4+
