Mass spectrum: HOMOCYSTEINE; LC-ESI-QTOF; MS2; CE: 10eV; R=5000; [M+H]+
Name: HOMOCYSTEINE
Name: DL-Homocysteine
Name: 2-amino-4-sulfanylbutanoic acid
Formula: C4H9NO2S
Exact mass: 135.0354
SMILES: C(CS)C(C(=O)O)N
InChI: InChI=1S/C4H9NO2S/c5-3(1-2-8)4(6)7/h3,8H,1-2,5H2,(H,6,7)
Instrument: Agilent 6530 QTOF
Instrument type: LC-ESI-QTOF
Ms type: MS2
Ion mode: POSITIVE
Ionization: ESI
Fragmentation mode: CID
Collision energy: 10 eV
Resolution: 5000
Column name: N/A
Retention time: 0.256 min
Base peak: 242.284
Precursor m/z: 136.0427
Precursor type: [M+H]+
Precursor intensity: 65407
m/z	relative intensity	assigned
44.0492	43	C2H6N+
46.9948	204	CH3S+
56.0487	999	C3H6N+
66.0542	6	CH8NO2+
74.0236	20	C2H4NO2+
90.0366	575	C3H8NS+
118.0305	62	C4H8NOS+
119.0419	1	C4H9NOS+
