Mass spectrum: 1,2-diheptadecanoyl-sn-glycero-3-phosphate; LC-ESI-QTOF; MS2; CE: 40eV; R=7000; [M-H]-
Name: 1,2-diheptadecanoyl-sn-glycero-3-phosphate
Name: [(2R)-2-heptadecanoyloxy-3-phosphonooxypropyl] heptadecanoate
Formula: C37H73O8P
Exact mass: 676.5043
SMILES: [C@](COP(=O)(O)O)([H])(OC(CCCCCCCCCCCCCCCC)=O)COC(CCCCCCCCCCCCCCCC)=O
InChI: InChI=1S/C37H73O8P/c1-3-5-7-9-11-13-15-17-19-21-23-25-27-29-31-36(38)43-33-35(34-44-46(40,41)42)45-37(39)32-30-28-26-24-22-20-18-16-14-12-10-8-6-4-2/h35H,3-34H2,1-2H3,(H2,40,41,42)/t35-/m1/s1
Instrument: Agilent 6560 QTOF
Instrument type: LC-ESI-QTOF
Ms type: MS2
Ion mode: NEGATIVE
Ionization: ESI
Fragmentation mode: CID
Collision energy: 40 eV
Resolution: 7000
Column name: N/A
Retention time: 0.187 min
Base peak: 980.0164
Precursor m/z: 675.497
Precursor type: [M-H]-
Precursor intensity: 26001
m/z	relative intensity	assigned
78.9585	259	O3P-
81.1427	17	CH22OP-
96.9683	13	H2O4P-
152.9932	249	C3H6O5P-
171.008	16	C10H3O3-
186.3673	20	C6H51O2P-
250.4477	13	C5H62O8-
269.2482	999	C17H33O2-
270.2523	155	C10H39O5P-
270.423	16	C18H54-
313.1413	8	C12H26O7P-
340.1915	23	C18H28O6-
361.1649	13	C20H25O6-
415.3978	10	C22H55O6-
424.2555	23	C27H37O2P-
424.28	7	C31H36O-
509.9666	11	C33H3O5P-
