Mass spectrum: 1,2-diheptadecanoyl-sn-glycero-3-phosphocholine; LC-ESI-QTOF; MS2; CE: 10eV; R=7000; [M+CH3COO]-
Name: 1,2-diheptadecanoyl-sn-glycero-3-phosphocholine
Name: [(2R)-2,3-di(heptadecanoyloxy)propyl] 2-(trimethylazaniumyl)ethyl phosphate
Formula: C42H84NO8P
Exact mass: 761.5935
SMILES: CCCCCCCCCCCCCCCCC(=O)OC[C@H](COP(=O)([O-])OCC[N+](C)(C)C)OC(=O)CCCCCCCCCCCCCCCC
InChI: InChI=1S/C42H84NO8P/c1-6-8-10-12-14-16-18-20-22-24-26-28-30-32-34-41(44)48-38-40(39-50-52(46,47)49-37-36-43(3,4)5)51-42(45)35-33-31-29-27-25-23-21-19-17-15-13-11-9-7-2/h40H,6-39H2,1-5H3/t40-/m1/s1
Instrument: Agilent 6560 QTOF
Instrument type: LC-ESI-QTOF
Ms type: MS2
Ion mode: NEGATIVE
Ionization: ESI
Fragmentation mode: CID
Collision energy: 10 eV
Resolution: 7000
Column name: N/A
Retention time: 0.167 min
Base peak: 223.0268
Precursor m/z: 820.6073
Precursor type: [M+CH3COO]-
Precursor intensity: 118177
m/z	relative intensity	assigned
140.2188	3	CH32O6-
181.0905	4	C13H11N-
200.0446	5	C5H13O6P-
229.1044	2	C4H22O8P-
238.3749	2	C5H52NO7-
241.933	13	C3HNO10P-
241.9628	3	C8H3O7P-
267.9698	2	C17HO2P-
269.2458	192	C10H38O5P-
306.6378	19	C9H86O7-
413.2756	17	C19H41O9-
420.6426	4	C24H84O3-
474.3975	3	C31H55OP-
477.3155	5	C35H41O-
494.3144	2	C27H44NO7-
495.3235	7	C28H48O5P-
599.6389	2	C42H81N-
653.9997	3	C42H6O9-
705.1537	3	C42H28NO8P-
741.51	3	C44H72NO6P-
741.5624	4	C39H82O10P-
741.9833	3	C44H9NO10P-
742.495	4	C44H71O7P-
742.5355	3	C41H77NO8P-
743.0907	2	C43H22NO10P-
746.5694	999	C41H81NO8P-
747.5749	131	C41H82NO8P-
749.4433	8	C44H64NO7P-
750.29	2	C43H45NO9P-
820.6066	590	C44H87NO10P-
