Mass spectrum: 2-(Methylthio)benzothiazole; LC-ESI-QTOF; MS2; CE: 30eV; R=7000; [M+H]+
Name: 2-(Methylthio)benzothiazole
Name: 2-methylsulfanyl-1,3-benzothiazole
Formula: C8H7NS2
Exact mass: 181.002
SMILES: CSC1=NC2=CC=CC=C2S1
InChI: InChI=1S/C8H7NS2/c1-10-8-9-6-4-2-3-5-7(6)11-8/h2-5H,1H3
Instrument: Agilent 6560 QTOF
Instrument type: LC-ESI-QTOF
Ms type: MS2
Ion mode: POSITIVE
Ionization: ESI
Fragmentation mode: CID
Collision energy: 30 eV
Resolution: 7000
Column name: ZORBAX Extend-C18 3.5um, 2.1x50mm, Agilent Technologies
Retention time: 5.564 min
Base peak: 182.0094
Precursor m/z: 182.0093
Precursor type: [M+H]+
Precursor intensity: 38119.84
m/z	relative intensity	assigned
63.944	52	S2+
64.031	13	C5H4+
65.0388	34	C5H5+
68.9777	17	C3HS+
76.0298	17	C6H4+
77.0387	19	C6H5+
91.042	146	C6H5N+
96.0031	44	C5H4S+
101.9475	17	C2NS2+
103.0414	35	C7H5N+
108.002	12	C6H4S+
109.0111	165	C6H5S+
123.0136	163	C6H5NS+
135.0134	67	C7H5NS+
136.0203	12	C7H6NS+
139.9738	55	C6H4S2+
166.9858	999	C7H5NS2+
182.0125	16	C8H8NS2+
