Mass spectrum: N-ACETYLPROLINE; LC-ESI-QTOF; MS2; CE: 20eV; R=5000; [M+H]+
Name: N-ACETYLPROLINE
Name: N-Acetyl-L-proline
Name: (2S)-1-acetylpyrrolidine-2-carboxylic acid
Formula: C7H11NO3
Exact mass: 157.0739
SMILES: [H][C@]1(CCCN1C(C)=O)C(O)=O
InChI: InChI=1S/C7H11NO3/c1-5(9)8-4-2-3-6(8)7(10)11/h6H,2-4H2,1H3,(H,10,11)/t6-/m0/s1
Instrument: Agilent 6530 QTOF
Instrument type: LC-ESI-QTOF
Ms type: MS2
Ion mode: POSITIVE
Ionization: ESI
Fragmentation mode: CID
Collision energy: 20 eV
Resolution: 5000
Column name: N/A
Retention time: 0.249 min
Base peak: 158.0811
Precursor m/z: 158.0812
Precursor type: [M+H]+
Precursor intensity: 1309310
m/z	relative intensity	assigned
41.0387	1	C3H5+
43.0181	54	C2H3O+
58.0642	1	C3H8N+
68.0486	6	C4H6N+
70.0651	999	C4H8N+
112.0737	30	C6H10NO+
116.0689	48	C5H10NO2+
