Mass spectrum: TRANS-4-HYDROXY-L-PROLINE; LC-ESI-QTOF; MS2; CE: 20eV; R=5000; [M+H]+
Name: TRANS-4-HYDROXY-L-PROLINE
Name: Hydroxyproline
Name: (2S,4R)-4-hydroxypyrrolidine-2-carboxylic acid
Formula: C5H9NO3
Exact mass: 131.0582
SMILES: O[C@H]1CN[C@@H](C1)C(O)=O
InChI: InChI=1S/C5H9NO3/c7-3-1-4(5(8)9)6-2-3/h3-4,6-7H,1-2H2,(H,8,9)/t3-,4+/m1/s1
Instrument: Agilent 6530 QTOF
Instrument type: LC-ESI-QTOF
Ms type: MS2
Ion mode: POSITIVE
Ionization: ESI
Fragmentation mode: CID
Collision energy: 20 eV
Resolution: 5000
Column name: N/A
Retention time: 0.220 min
Base peak: 132.0653
Precursor m/z: 132.0655
Precursor type: [M+H]+
Precursor intensity: 787236
m/z	relative intensity	assigned
51.0225	1	C4H3+
56.0506	2	C3H6N+
57.0579	1	C3H7N+
58.0663	192	C3H8N+
66.0317	2	CH6O3+
67.0389	2	CH7O3+
68.0504	999	C4H6N+
86.0606	656	C4H8NO+
132.0672	31	C5H10NO3+
