Mass spectrum: Cholic acid; LC-ESI-QTOF; MS2; CE: 20eV; R=7000; [M-H]-
Name: Cholic acid
Name: (4R)-4-[(3R,5S,7R,8R,9S,10S,12S,13R,14S,17R)-3,7,12-trihydroxy-10,13-dimethyl-2,3,4,5,6,7,8,9,11,12,14,15,16,17-tetradecahydro-1H-cyclopenta[a]phenanthren-17-yl]pentanoic acid
Formula: C24H40O5
Exact mass: 408.2876
SMILES: C[C@H](CCC(=O)O)[C@H]1CC[C@@H]2[C@@]1([C@H](C[C@H]3[C@H]2[C@@H](C[C@H]4[C@@]3(CC[C@H](C4)O)C)O)O)C
InChI: InChI=1S/C24H40O5/c1-13(4-7-21(28)29)16-5-6-17-22-18(12-20(27)24(16,17)3)23(2)9-8-15(25)10-14(23)11-19(22)26/h13-20,22,25-27H,4-12H2,1-3H3,(H,28,29)/t13-,14+,15-,16-,17+,18+,19-,20+,22+,23+,24-/m1/s1
Instrument: Agilent 6560 QTOF
Instrument type: LC-ESI-QTOF
Ms type: MS2
Ion mode: NEGATIVE
Ionization: ESI
Fragmentation mode: CID
Collision energy: 20 eV
Resolution: 7000
Column name: N/A
Retention time: 0.141 min
Base peak: 255.2342
Precursor m/z: 407.2803
Precursor type: [M-H]-
Precursor intensity: 200556
m/z	relative intensity	assigned
83.0514	4	C5H7O-
93.0348	6	C6H5O-
95.0514	7	C6H7O-
112.2261	1	H32O5-
186.1798	1	C8H26O4-
205.1562	2	C14H21O-
207.171	2	C14H23O-
211.1351	1	C12H19O3-
237.0816	1	C12H13O5-
237.1654	5	C18H21-
245.0451	1	C13H9O5-
257.0221	2	C17H5O3-
270.1948	5	C19H26O-
287.2061	3	C19H27O2-
289.2134	8	C19H29O2-
293.225	1	C22H29-
309.2173	3	C22H29O-
315.2619	2	C22H35O-
325.2521	7	C23H33O-
327.2275	3	C22H31O2-
343.266	26	C23H35O2-
345.2809	30	C23H37O2-
346.283	3	C23H38O2-
363.2819	2	C23H39O3-
407.2813	999	C24H39O5-
