Mass spectrum: D-(+)-Glucosamine hydrochloride; LC-ESI-QTOF; MS2; CE: 10eV; R=5000; [M+Na]+
Name: D-(+)-Glucosamine hydrochloride
Name: D-Glucosamine
Name: (3R,4R,5S,6R)-3-amino-6-(hydroxymethyl)oxane-2,4,5-triol
Formula: C6H13NO5
Exact mass: 179.0794
SMILES: C([C@@H]1[C@H]([C@@H]([C@H](C(O1)O)N)O)O)O
InChI: InChI=1S/C6H13NO5/c7-3-5(10)4(9)2(1-8)12-6(3)11/h2-6,8-11H,1,7H2/t2-,3-,4-,5-,6?/m1/s1
Instrument: Agilent 6530 QTOF
Instrument type: LC-ESI-QTOF
Ms type: MS2
Ion mode: POSITIVE
Ionization: ESI
Fragmentation mode: CID
Collision energy: 10 eV
Resolution: 5000
Column name: N/A
Retention time: 0.221 min
Base peak: 121.0508
Precursor m/z: 202.0686
Precursor type: [M+Na]+
Precursor intensity: 102056
m/z	relative intensity	assigned
41.0356	2	CH6Na+
82.0137	5	H4NO4+
102.0894	35	C3H13NNaO+
112.0341	111	H9NaO5+
113.019	71	C3H6NaO3+
116.9944	6	C5H2NaO2+
125.9804	1	C2HNNaO4+
136.0357	4	C4H8O5+
136.0726	2	C5H12O4+
139.0603	7	C5H10NNaO2+
143.0285	505	C4H8NaO4+
144.999	3	C2H4NNaO5+
145.0511	2	C6H9O4+
172.0587	1	C5H11NNaO4+
183.0305	2	C6H8NaO5+
202.0637	999	C6H13NNaO5+
