Mass spectrum: TYROSINE; LC-ESI-QTOF; MS2; CE: 40eV; R=5000; [M+H]+
Name: TYROSINE
Name: (2S)-2-amino-3-(4-hydroxyphenyl)propanoic acid
Formula: C9H11NO3
Exact mass: 181.0739
SMILES: N[C@@H](CC1=CC=C(O)C=C1)C(O)=O
InChI: InChI=1S/C9H11NO3/c10-8(9(12)13)5-6-1-3-7(11)4-2-6/h1-4,8,11H,5,10H2,(H,12,13)/t8-/m0/s1
Instrument: Agilent 6530 QTOF
Instrument type: LC-ESI-QTOF
Ms type: MS2
Ion mode: POSITIVE
Ionization: ESI
Fragmentation mode: CID
Collision energy: 40 eV
Resolution: 5000
Column name: N/A
Retention time: 0.220 min
Base peak: 202.1798
Precursor m/z: 182.0812
Precursor type: [M+H]+
Precursor intensity: 157736
m/z	relative intensity	assigned
42.0346	35	C2H4N+
55.018	10	C3H3O+
63.0802	1	C3H11O+
65.0395	517	C5H5+
67.0533	13	C5H7+
75.0226	21	C6H3+
77.0384	863	C6H5+
79.0536	64	C6H7+
90.0459	8	C7H6+
91.0548	999	C7H7+
94.0423	27	C6H6O+
95.049	158	C6H7O+
103.0547	9	C8H7+
106.065	29	C7H8N+
107.0487	257	C7H7O+
117.0561	31	C8H7N+
118.0627	69	C5H10O3+
123.041	14	C7H7O2+
136.0787	13	C8H10NO+
181.0702	5	C9H11NO3+
