Mass spectrum: Isodecyl diphenyl phosphate; LC-ESI-QTOF; MS2; CE: 5eV; R=7000; [M+H]+
Name: Isodecyl diphenyl phosphate
Name: 8-methylnonyl diphenyl phosphate
Formula: C22H31O4P
Exact mass: 390.1960
SMILES: CC(C)CCCCCCCOP(=O)(OC1=CC=CC=C1)OC2=CC=CC=C2
InChI: InChI=1S/C22H31O4P/c1-20(2)14-8-4-3-5-13-19-24-27(23,25-21-15-9-6-10-16-21)26-22-17-11-7-12-18-22/h6-7,9-12,15-18,20H,3-5,8,13-14,19H2,1-2H3
Instrument: Agilent 6560 QTOF
Instrument type: LC-ESI-QTOF
Ms type: MS2
Ion mode: POSITIVE
Ionization: ESI
Fragmentation mode: CID
Collision energy: 5 eV
Resolution: 7000
Retention time: 0.107 min
Base peak: 251.0464
Precursor m/z: 391.2033
Precursor type: [M+H]+
Precursor intensity: 125262.49
m/z	relative intensity	assigned
57.0705	21	C4H9+
71.0862	15	C5H11+
77.0385	8	C6H5+
85.101	7	C6H13+
95.0503	2	C6H7O+
149.0242	4	C8H5O3+
152.0641	2	C12H8+
157.0058	2	C6H6O3P+
215.0275	2	C12H8O2P+
233.035	2	C12H10O3P+
251.0466	999	C12H12O4P+
252.0501	74	C12H13O4P+
391.201	21	C22H32O4P+
