Mass spectrum: METHYL4-AMINOBUTYRATE; LC-ESI-QTOF; MS2; CE: 20eV; R=5000; [M+H]+
Name: METHYL4-AMINOBUTYRATE
Name: methyl 4-aminobutanoate
Formula: C5H11NO2
Exact mass: 117.07898
SMILES: COC(CCCN)=O
InChI: InChI=1S/C5H11NO2/c1-8-5(7)3-2-4-6/h2-4,6H2,1H3
Instrument: Agilent 6530 QTOF
Instrument type: LC-ESI-QTOF
Ms type: MS2
Ion mode: POSITIVE
Ionization: ESI
Fragmentation mode: CID
Collision energy: 20 eV
Resolution: 5000
Column name: N/A
Retention time: 0.564 min
Base peak: 121.0508
Precursor m/z: 118.0863
Precursor type: [M+H]+
Precursor intensity: 311523
m/z	relative intensity	assigned
41.0391	122	C3H5+
58.0646	145	C3H8N+
59.0123	240	C2H3O2+
59.0491	999	C3H7O+
68.0482	9	C4H6N+
69.0325	84	C4H5O+
73.0647	3	C4H9O+
101.0583	132	C5H9O2+
102.0889	1	C5H12NO+
118.084	27	C5H12NO2+
