Mass spectrum: CL 15_0_15_0_15_0_16_1; LC-ESI-QTOF; MS2; CE: 40eV; R=7000; [M-H]-
Name: CL 15_0_15_0_15_0_16_1
Name: 1`-[1,2-dipentadecanoyl-sn-glycero-3-phospho],3`-[1-pentadecanoyl,2-(9Z-hexadecenoyl)-sn-glycero-3-phospho]-rac-glycerol
Name: [(2R)-1-[[3-[[(2R)-2,3-di(pentadecanoyloxy)propoxy]-hydroxyphosphoryl]oxy-2-hydroxypropoxy]-hydroxyphosphoryl]oxy-3-pentadecanoyloxypropan-2-yl] (Z)-hexadec-9-enoate
Formula: C70H134O17P2
Exact mass: 1308.9096
SMILES: P(OC[C@]([H])(OC(CCCCCCCCCCCCCC)=O)COC(CCCCCCCCCCCCCC)=O)(O)(OCC(O)([H])COP(OC[C@]([H])(OC(CCCCCCC/C=C\CCCCCC)=O)COC(CCCCCCCCCCCCCC)=O)(O)=O)=O
InChI: InChI=1S/C70H134O17P2/c1-5-9-13-17-21-25-29-33-37-41-45-49-53-57-70(75)87-66(61-81-68(73)55-51-47-43-39-35-31-27-23-19-15-11-7-3)63-85-89(78,79)83-59-64(71)58-82-88(76,77)84-62-65(86-69(74)56-52-48-44-40-36-32-28-24-20-16-12-8-4)60-80-67(72)54-50-46-42-38-34-30-26-22-18-14-10-6-2/h25,29,64-66,71H,5-24,26-28,30-63H2,1-4H3,(H,76,77)(H,78,79)/b29-25-/t64?,65-,66-/m1/s1
Instrument: Agilent 6560 QTOF
Instrument type: LC-ESI-QTOF
Ms type: MS2
Ion mode: NEGATIVE
Ionization: ESI
Fragmentation mode: CID
Collision energy: 40 eV
Resolution: 7000
Column name: N/A
Retention time: 0.282 min
Base peak: 980.0164
Precursor m/z: 1307.9023
Precursor type: [M-H]-
Precursor intensity: 46505
m/z	relative intensity	assigned
77.0051	185	C5HO-
110.0447	28	C3H12P2-
143.5994	89	H79O4-
147.7604	42	H99O3-
154.2479	104	C6H34O3-
167.1253	111	H24O7P-
173.069	44	C4H13O7-
176.91	75	C5H116-
227.845	36	C3H111O5-
241.2149	233	C8H34O5P-
241.2504	31	C9H38O4P-
241.2875	18	C10H42O3P-
241.5185	41	C2H74O7P-
314.4435	44	C6H68O7P2-
315.4063	207	C15H55O5-
315.4569	24	C20H59O-
315.4809	16	C3H72O11P-
318.7175	18	C16H95P-
332.3844	71	C11H57O7P-
335.6773	96	C11H91O7-
340.5004	35	C23H64-
340.733	16	C15H96O4-
374.766	17	C16H103O3P-
377.2088	366	C7H37O16-
377.2859	54	C6H51O12P2-
378.1106	37	C22H18O6-
395.2194	167	C7H39O17-
395.2575	25	C19H40O6P-
404.4235	77	C25H56O3-
407.6929	68	H105O15P2-
432.8215	22	C12H112O11-
495.2403	19	C29H35O7-
538.8753	48	C16H123O12P-
575.4431	27	C21H67O16-
615.7911	36	C26H113O8P2-
619.4267	481	C33H65O6P2-
619.5349	44	C36H77O3P2-
619.9464	56	C22H132O12P-
621.3278	38	C33H49O11-
628.5433	69	C41H72O4-
631.4379	256	C20H73O16P2-
632.1552	63	C44H25O3P-
632.4621	36	C24H74O13P2-
633.1567	77	C40H25O8-
681.2754	56	C37H47O8P2-
687.4604	133	C37H68O9P-
687.5741	34	C26H89O14P2-
700.5319	99	C29H81O15P-
743.0303	61	C42H17O10P2-
755.4136	93	C43H65O7P2-
755.4397	34	C50H59O6-
756.9047	46	C31H130O12P2-
789.2205	57	C55H34O4P-
806.5466	27	C46H79O9P-
825.5975	16	C61H77O-
867.7156	18	C59H96O2P-
880.8663	45	C57H118OP2-
899.0266	25	C69H8O2P-
908.5989	67	C44H93O16P-
908.6408	18	C44H93O16P-
908.7669	52	C59H106O2P2-
941.4393	51	C57H66O10P-
1026.09	96	C58H28O15P2-
1061.1663	19	C70H29O12-
1097.1115	121	C68H25O16-
1102.3329	16	C66H55O14P-
1125.7267	121	C68H101O13-
1165.5114	137	C68H78O15P-
1165.5921	26	C67H91O13P2-
1172.5037	43	C63H82O17P2-
1172.5646	20	C68H85O15P-
1298.8124	44	C70H124O17P2-
1307.8992	999	C70H133O17P2-
