Mass spectrum: 5-Chlorobenzotriazole; LC-ESI-QTOF; MS2; CE: 20eV; R=7000; [M+H]+
Name: 5-Chlorobenzotriazole
Name: 5-chloro-2H-benzotriazole
Formula: C6H4ClN3
Exact mass: 153.0094
SMILES: C1=CC2=NNN=C2C=C1Cl
InChI: InChI=1S/C6H4ClN3/c7-4-1-2-5-6(3-4)9-10-8-5/h1-3H,(H,8,9,10)
Instrument: Agilent 6560 QTOF
Instrument type: LC-ESI-QTOF
Ms type: MS2
Ion mode: POSITIVE
Ionization: ESI
Fragmentation mode: CID
Collision energy: 20 eV
Resolution: 7000
Retention time: 0.146 min
Base peak: 154.0168
Precursor m/z: 154.0167
Precursor type: [M+H]+
Precursor intensity: 17017.05
m/z	relative intensity	assigned
63.0235	111	C5H3+
72.9836	149	C3H2Cl+
90.0336	395	C6H4N+
91.0422	110	C6H5N+
98.9996	999	C5H4Cl+
126.0113	84	C6H5ClN+
154.0163	417	C6H5ClN3+
