Mass spectrum: Sphinganine; LC-ESI-QTOF; MS2; CE: 20eV; R=7000; [M+H]+
Name: Sphinganine
Name: (2S,3R)-2-aminooctadecane-1,3-diol
Formula: C18H39NO2
Exact mass: 301.2981
SMILES: CCCCCCCCCCCCCCC[C@@H](O)[C@@H](N)CO
InChI: InChI=1S/C18H39NO2/c1-2-3-4-5-6-7-8-9-10-11-12-13-14-15-18(21)17(19)16-20/h17-18,20-21H,2-16,19H2,1H3/t17-,18+/m0/s1
Instrument: Agilent 6560 QTOF
Instrument type: LC-ESI-QTOF
Ms type: MS2
Ion mode: POSITIVE
Ionization: ESI
Fragmentation mode: CID
Collision energy: 20 eV
Resolution: 7000
Column name: Direct injection
Retention time: 0.153 min
Base peak: 302.3067
Precursor m/z: 302.3054
Precursor type: [M+H]+
Precursor intensity: 83808
m/z	relative intensity	assigned
70.0651	113	C4H8N+
71.0497	169	C4H7O+
71.0866	200	C5H11+
79.0544	43	C6H7+
81.0699	626	C6H9+
83.0854	337	C6H11+
85.1002	86	C6H13+
88.0763	12	C4H10NO+
93.0685	23	C7H9+
95.0856	801	C7H11+
97.1019	375	C7H13+
107.0867	40	C8H11+
109.1005	252	C8H13+
111.1164	22	C8H15+
123.1155	85	C9H15+
151.1511	32	C11H19+
170.1893	25	C11H24N+
212.2325	32	C14H30N+
226.2546	5	C15H32N+
238.131	21	C17H18O+
240.2683	92	C16H34N+
254.285	999	C17H36N+
255.2885	107	C17H37N+
266.284	229	C18H36N+
284.2956	770	C18H38NO+
285.2977	115	C18H39NO+
302.3035	11	C18H40NO2+
