Mass spectrum: Bisphenol S; LC-ESI-QTOF; MS2; CE: 5eV; R=7000; [M-H]-
Name: Bisphenol S
Name: 4,4`-Sulfonyldiphenol
Name: 4-(4-hydroxyphenyl)sulfonylphenol
Formula: C12H10O4S
Exact mass: 250.0300
SMILES: C1=CC(=CC=C1O)S(=O)(=O)C2=CC=C(C=C2)O
InChI: InChI=1S/C12H10O4S/c13-9-1-5-11(6-2-9)17(15,16)12-7-3-10(14)4-8-12/h1-8,13-14H
Instrument: Agilent 6560 QTOF
Instrument type: LC-ESI-QTOF
Ms type: MS2
Ion mode: NEGATIVE
Ionization: ESI
Fragmentation mode: CID
Collision energy: 5 eV
Resolution: 7000
Retention time: 0.187 min
Base peak: 249.0236
Precursor m/z: 249.0227
Precursor type: [M-H]-
Precursor intensity: 263522.14
m/z	relative intensity	assigned
92.0265	12	C6H4O-
108.0216	53	C6H4O2-
155.9886	18	C6H4O3S-
184.0544	5	C12H8O2-
185.0622	6	C12H9O2-
249.023	999	C12H9O4S-
