Mass spectrum: 1,2-dihexadecanoyl-sn-glycero-3-phosphoethanolamine; LC-ESI-QTOF; MS2; CE: 10eV; R=7000; [M+H]+
Name: 1,2-dihexadecanoyl-sn-glycero-3-phosphoethanolamine
Name: 1,2-Dipalmitoyl-sn-glycero-3-phosphoethanolamine
Name: [(2R)-3-[2-aminoethoxy(hydroxy)phosphoryl]oxy-2-hexadecanoyloxypropyl] hexadecanoate
Formula: C37H74NO8P
Exact mass: 691.5152
SMILES: CCCCCCCCCCCCCCCC(=O)OC[C@H](COP(=O)(O)OCCN)OC(=O)CCCCCCCCCCCCCCC
InChI: InChI=1S/C37H74NO8P/c1-3-5-7-9-11-13-15-17-19-21-23-25-27-29-36(39)43-33-35(34-45-47(41,42)44-32-31-38)46-37(40)30-28-26-24-22-20-18-16-14-12-10-8-6-4-2/h35H,3-34,38H2,1-2H3,(H,41,42)/t35-/m1/s1
Instrument: Agilent 6560 QTOF
Instrument type: LC-ESI-QTOF
Ms type: MS2
Ion mode: POSITIVE
Ionization: ESI
Fragmentation mode: CID
Collision energy: 10 eV
Resolution: 7000
Column name: Direct injection
Retention time: 0.180 min
Base peak: 692.5245
Precursor m/z: 692.5225
Precursor type: [M+H]+
Precursor intensity: 186887
m/z	relative intensity	assigned
71.0842	2	C5H11+
81.0707	5	C2H12NP+
83.0858	7	C2H14NP+
85.1006	5	C6H13+
95.086	9	C3H14NP+
97.1009	8	C7H13+
103.0738	1	C5H11O2+
109.1013	3	C8H13+
137.129	1	C3H22O3P+
151.1463	3	C4H24O3P+
221.2239	5	C9H34O3P+
282.2802	8	C18H36NO+
300.2854	5	C8H45O8P+
313.2769	2	C22H35N+
436.2805	1	C25H40O6+
437.2809	7	C25H42O4P+
446.9735	1	C28H2NO4P+
454.2883	4	C28H41NO2P+
525.9649	3	C33H3O6P+
527.9807	2	C33H5O6P+
531.2854	1	C30H44O6P+
551.5047	999	C31H70NO4P+
552.5079	160	C28H73O7P+
611.2115	1	C35H34NO7P+
675.3766	2	C37H58NO8P+
692.5231	86	C37H75NO8P+
