Mass spectrum: Para-hydroxy triphenyl phosphate; LC-ESI-QTOF; MS2; CE: 15eV; R=7000; [M+H]+
Name: Para-hydroxy triphenyl phosphate
Name: 4-Hydroxyphenyl diphenyl phosphate
Name: (4-hydroxyphenyl) diphenyl phosphate
Formula: C18H15O5P
Exact mass: 342.0657
SMILES: C1=CC=C(C=C1)OP(=O)(OC2=CC=CC=C2)OC3=CC=C(C=C3)O
InChI: InChI=1S/C18H15O5P/c19-15-11-13-18(14-12-15)23-24(20,21-16-7-3-1-4-8-16)22-17-9-5-2-6-10-17/h1-14,19H
Instrument: Agilent 6560 QTOF
Instrument type: LC-ESI-QTOF
Ms type: MS2
Ion mode: POSITIVE
Ionization: ESI
Fragmentation mode: CID
Collision energy: 15 eV
Resolution: 7000
Retention time: 0.146 min
Base peak: 343.0735
Precursor m/z: 343.073
Precursor type: [M+H]+
Precursor intensity: 106831.37
m/z	relative intensity	assigned
51.0223	3	C4H3+
65.0384	5	C5H5+
77.0386	30	C6H5+
93.0342	4	C6H5O+
109.0286	32	C6H5O2+
112.0447	3	C6H9P+
141.0102	11	C6H6O2P+
141.07	55	C11H9+
152.0614	13	C12H8+
153.0689	26	C12H9+
155.9966	5	C6H5O3P+
168.0556	4	C5H13O4P+
169.0644	24	C12H9O+
170.072	10	C12H10O+
175.0166	9	C6H8O4P+
185.0601	4	C12H9O2+
187.0746	8	C12H11O2+
191.0098	3	C6H8O5P+
202.0785	7	C16H10+
215.0248	19	C12H8O2P+
217.0999	7	C17H13+
226.0792	10	C18H10+
227.0857	9	C18H11+
231.0213	31	C12H8O3P+
233.0348	23	C12H10O3P+
244.0862	3	C18H12O+
245.097	5	C18H13O+
249.0315	50	C12H10O4P+
251.0463	11	C12H12O4P+
267.0421	35	C12H12O5P+
268.0434	3	C12H13O5P+
307.0499	8	C18H12O3P+
325.0602	3	C18H14O4P+
343.0739	999	C18H16O5P+
