Mass spectrum: METHYLTHIOADENOSINE; LC-ESI-QTOF; MS2; CE: 40eV; R=5000; [M+H]+
Name: METHYLTHIOADENOSINE
Name: 5`-Deoxy-5`-methylthioadenosine
Name: (2R,3R,4S,5S)-2-(6-aminopurin-9-yl)-5-(methylsulfanylmethyl)oxolane-3,4-diol
Formula: C11H15N5O3S
Exact mass: 297.08956
SMILES: CSC[C@H]1O[C@H]([C@H](O)[C@@H]1O)N1C=NC2=C1N=CN=C2N
InChI: InChI=1S/C11H15N5O3S/c1-20-2-5-7(17)8(18)11(19-5)16-4-15-6-9(12)13-3-14-10(6)16/h3-5,7-8,11,17-18H,2H2,1H3,(H2,12,13,14)/t5-,7-,8-,11-/m1/s1
Instrument: Agilent 6530 QTOF
Instrument type: LC-ESI-QTOF
Ms type: MS2
Ion mode: POSITIVE
Ionization: ESI
Fragmentation mode: CID
Collision energy: 40 eV
Resolution: 5000
Column name: N/A
Retention time: 0.629 min
Base peak: 121.0508
Precursor m/z: 298.0968
Precursor type: [M+H]+
Precursor intensity: 171936
m/z	relative intensity	assigned
61.0108	204	C2H5S+
65.0123	16	C3HN2+
67.0266	6	H5NO3+
69.0329	9	C4H5O+
71.0113	6	CHN3O+
73.013	4	HN4O+
75.0251	95	C3H7S+
76.0375	2	H4N4O+
77.0102	6	CH3NO3+
92.0242	26	C4H2N3+
94.0404	32	C4H4N3+
97.0267	15	C3H3N3O+
97.0965	1	C2H13N2O2+
103.0226	1	C4H7OS+
109.0461	5	CH7N3O3+
119.0343	207	C5H3N4+
122.0187	1	C7H6S+
135.0308	1	C7H5NO2+
136.0597	999	C2H8N4O3+
137.0664	2	C2H9N4O3+
217.9777	2	C9H2N2O3S+
