Mass spectrum: Resorcinol bis(diphenyl phosphate); LC-ESI-QTOF; MS2; CE: 40eV; R=7000; [M+H]+
Name: Resorcinol bis(diphenyl phosphate)
Name: (3-diphenoxyphosphoryloxyphenyl) diphenyl phosphate
Formula: C30H24O8P2
Exact mass: 574.0946
SMILES: C1=CC=C(C=C1)OP(=O)(OC2=CC=CC=C2)OC3=CC(=CC=C3)OP(=O)(OC4=CC=CC=C4)OC5=CC=CC=C5
InChI: InChI=1S/C30H24O8P2/c31-39(33-25-14-5-1-6-15-25,34-26-16-7-2-8-17-26)37-29-22-13-23-30(24-29)38-40(32,35-27-18-9-3-10-19-27)36-28-20-11-4-12-21-28/h1-24H
Instrument: Agilent 6560 QTOF
Instrument type: LC-ESI-QTOF
Ms type: MS2
Ion mode: POSITIVE
Ionization: ESI
Fragmentation mode: CID
Collision energy: 40 eV
Resolution: 7000
Column name: InfinityLab Poroshell 120 EC-C18 2.7Âµm, 3x100mm, Agilent Technologies
Retention time: 10.256 min
Base peak: 634.176
Precursor m/z: 575.1019
Precursor type: [M+H]+
Precursor intensity: 35646.9
m/z	relative intensity	assigned
51.0239	115	C4H3+
77.0386	473	C6H5+
141.0721	271	C11H9+
151.0548	282	C12H7+
152.0619	550	C12H8+
153.0685	275	C5H14O3P+
168.0566	421	C12H8O+
169.0651	266	C12H9O+
202.0776	210	C16H10+
215.0246	449	C12H8O2P+
215.0849	377	C17H11+
217.1008	196	C17H13+
219.0801	108	C16H11O+
226.0774	384	C18H10+
227.0858	235	C18H11+
231.0196	807	C12H8O3P+
233.0353	368	C12H10O3P+
234.9536	163	C6H5O6P2+
245.0949	165	C11H18O4P+
248.0192	113	C5H14O7P2+
251.0463	334	C12H12O4P+
289.0375	136	C11H15O5P2+
294.9927	113	C12H9O5P2+
299.0468	159	C16H12O4P+
302.1086	154	C24H14+
306.9157	109	C11HO7P2+
307.0504	447	C11H17O6P2+
308.0566	104	C11H18O6P2+
310.9863	540	C12H9O6P2+
325.0654	261	C25H9O+
327.0822	142	C25H11O+
328.9962	119	C12H11O7P2+
343.0752	542	C25H11O2+
369.0075	257	C18H11O5P2+
383.0793	106	C17H21O6P2+
387.0188	325	C18H13O6P2+
405.0309	565	C25H10O4P+
419.103	746	C17H25O8P2+
420.107	152	C24H22O3P2+
463.0473	156	C24H17O6P2+
481.0591	999	C24H19O7P2+
482.0594	122	C27H15O7P+
499.0698	359	C24H21O8P2+
575.1021	773	C30H25O8P2+
