Mass spectrum: XANTHOSINE; LC-ESI-QTOF; MS2; CE: 10eV; R=5000; [M+H]+
Name: XANTHOSINE
Name: 9-[(2R,3R,4S,5R)-3,4-dihydroxy-5-(hydroxymethyl)oxolan-2-yl]-3H-purine-2,6-dione
Formula: C10H12N4O6
Exact mass: 284.07568
SMILES: OC[C@H]1O[C@H]([C@H](O)[C@@H]1O)N1C=NC2=C1N=C(O)N=C2O
InChI: InChI=1S/C10H12N4O6/c15-1-3-5(16)6(17)9(20-3)14-2-11-4-7(14)12-10(19)13-8(4)18/h2-3,5-6,9,15-17H,1H2,(H2,12,13,18,19)/t3-,5-,6-,9-/m1/s1
Instrument: Agilent 6530 QTOF
Instrument type: LC-ESI-QTOF
Ms type: MS2
Ion mode: POSITIVE
Ionization: ESI
Fragmentation mode: CID
Collision energy: 10 eV
Resolution: 5000
Column name: N/A
Retention time: 0.188 min
Base peak: 202.1799
Precursor m/z: 285.083
Precursor type: [M+H]+
Precursor intensity: 162110
m/z	relative intensity	assigned
43.0168	9	HN3+
45.0334	16	C2H5O+
55.0171	53	CHN3+
57.0332	45	C3H5O+
59.0469	7	CH5N3+
61.0285	16	C2H5O2+
69.0329	41	C4H5O+
71.0868	2	C5H11+
73.0264	59	CH3N3O+
80.0224	4	H4N2O3+
85.0276	90	C2H3N3O+
87.0435	9	C4H7O2+
97.0268	19	C3H3N3O+
103.0379	16	C2H5N3O2+
110.0337	25	C4H4N3O+
111.0254	6	H5N3O4+
115.0345	77	H7N2O5+
131.0818	5	C5H11N2O2+
133.0478	99	C3H7N3O3+
136.0114	70	C2H4N2O5+
149.0803	4	C6H13O4+
153.0379	999	C2H7N3O5+
154.0989	2	C7H12N3O+
159.073	5	CH11N4O5+
206.9988	2	C8H3N2O5+
213.0694	7	C8H11N3O4+
251.0444	4	C9H7N4O5+
