Mass spectrum: Taurocholic acid; LC-ESI-QTOF; MS2; CE: 20eV; R=7000; [M+Na]+
Name: Taurocholic acid
Name: 2-[[(4R)-4-[(3R,5S,7R,8R,9S,10S,12S,13R,14S,17R)-3,7,12-trihydroxy-10,13-dimethyl-2,3,4,5,6,7,8,9,11,12,14,15,16,17-tetradecahydro-1H-cyclopenta[a]phenanthren-17-yl]pentanoyl]amino]ethanesulfonic acid
Formula: C26H45NO7S
Exact mass: 515.2917
SMILES: C[C@H](CCC(=O)NCCS(=O)(=O)O)[C@H]1CC[C@@H]2[C@@]1([C@H](C[C@H]3[C@H]2[C@@H](C[C@H]4[C@@]3(CC[C@H](C4)O)C)O)O)C
InChI: InChI=1S/C26H45NO7S/c1-15(4-7-23(31)27-10-11-35(32,33)34)18-5-6-19-24-20(14-22(30)26(18,19)3)25(2)9-8-17(28)12-16(25)13-21(24)29/h15-22,24,28-30H,4-14H2,1-3H3,(H,27,31)(H,32,33,34)/t15-,16+,17-,18-,19+,20+,21-,22+,24+,25+,26-/m1/s1
Instrument: Agilent 6560 QTOF
Instrument type: LC-ESI-QTOF
Ms type: MS2
Ion mode: POSITIVE
Ionization: ESI
Fragmentation mode: CID
Collision energy: 20 eV
Resolution: 7000
Column name: Direct injection
Retention time: 0.212 min
Base peak: 398.2425
Precursor m/z: 538.2809
Precursor type: [M+Na]+
Precursor intensity: 31092
m/z	relative intensity	assigned
107.0836	16	C6H12Na+
148.0037	999	CH8O6S+
157.1013	83	C12H13+
186.9938	44	C6H5NO4S+
255.1691	37	C5H30NNaO6S+
269.1369	75	C12H22NaO5+
311.297	41	C17H43O2S+
359.2311	43	C13H38NNaO6S+
360.341	22	C25H44O+
371.1589	20	C23H24NaO3+
377.2457	79	C24H34NaO2+
378.1619	18	C22H27NaO2S+
390.1753	102	C21H28NO4S+
395.2547	419	C24H36NaO3+
396.2555	143	C20H39NNaO3S+
413.2638	313	C24H38NaO4+
413.9588	19	C23H3NaO5S+
414.2672	71	C22H40NO4S+
484.2477	456	C23H41NaO7S+
485.2517	150	C26H38NaO7+
502.2599	254	C26H41NNaO5S+
503.263	73	C26H42NNaO5S+
520.2706	298	C26H43NNaO6S+
538.2728	263	C26H45NNaO7S+
