Mass spectrum: NORVALINE; LC-ESI-QTOF; MS2; CE: 40eV; R=5000; [M+H]+
Name: NORVALINE
Name: D-Norvaline
Name: (2R)-2-aminopentanoic acid
Formula: C5H11NO2
Exact mass: 117.0790
SMILES: CCC[C@@H](N)C(O)=O
InChI: InChI=1S/C5H11NO2/c1-2-3-4(6)5(7)8/h4H,2-3,6H2,1H3,(H,7,8)/t4-/m1/s1
Instrument: Agilent 6530 QTOF
Instrument type: LC-ESI-QTOF
Ms type: MS2
Ion mode: POSITIVE
Ionization: ESI
Fragmentation mode: CID
Collision energy: 40 eV
Resolution: 5000
Column name: N/A
Retention time: 0.565 min
Base peak: 121.0508
Precursor m/z: 118.0863
Precursor type: [M+H]+
Precursor intensity: 37027
m/z	relative intensity	assigned
40.0186	10	C2H2N+
43.0417	112	C2H5N+
55.0545	19	C4H7+
58.0659	999	C3H8N+
