Mass spectrum: Bisphenol S; LC-ESI-QTOF; MS2; CE: 35eV; R=7000; [M-H]-
Name: Bisphenol S
Name: 4,4`-Sulfonyldiphenol
Name: 4-(4-hydroxyphenyl)sulfonylphenol
Formula: C12H10O4S
Exact mass: 250.0300
SMILES: C1=CC(=CC=C1O)S(=O)(=O)C2=CC=C(C=C2)O
InChI: InChI=1S/C12H10O4S/c13-9-1-5-11(6-2-9)17(15,16)12-7-3-10(14)4-8-12/h1-8,13-14H
Instrument: Agilent 6560 QTOF
Instrument type: LC-ESI-QTOF
Ms type: MS2
Ion mode: NEGATIVE
Ionization: ESI
Fragmentation mode: CID
Collision energy: 35 eV
Resolution: 7000
Retention time: 0.186 min
Base peak: 249.0235
Precursor m/z: 249.0227
Precursor type: [M-H]-
Precursor intensity: 149202.1
m/z	relative intensity	assigned
63.9628	8	O2S-
65.0408	3	C5H5-
92.0271	999	C6H4O-
93.0338	47	C6H5O-
108.0217	768	C6H4O2-
139.9933	5	C6H4O2S-
155.9875	3	C6H4O3S-
184.0532	16	C12H8O2-
