Mass spectrum: Mono(2-ethyl-5-oxohexyl)phthalate; LC-ESI-QTOF; MS2; CE: 5eV; R=7000; [M-H]-
Name: Mono(2-ethyl-5-oxohexyl)phthalate
Name: 2-(2-ethyl-5-oxohexoxy)carbonylbenzoic acid
Formula: C16H20O5
Exact mass: 292.1311
SMILES: CCC(CCC(=O)C)COC(=O)C1=CC=CC=C1C(=O)O
InChI: InChI=1S/C16H20O5/c1-3-12(9-8-11(2)17)10-21-16(20)14-7-5-4-6-13(14)15(18)19/h4-7,12H,3,8-10H2,1-2H3,(H,18,19)
Instrument: Agilent 6560 QTOF
Instrument type: LC-ESI-QTOF
Ms type: MS2
Ion mode: NEGATIVE
Ionization: ESI
Fragmentation mode: CID
Collision energy: 5 eV
Resolution: 7000
Column name: ZORBAX Extend-C18 3.5um, 2.1x50mm, Agilent Technologies
Retention time: 2.670 min
Base peak: 291.1253
Precursor m/z: 291.1238
Precursor type: [M-H]-
Precursor intensity: 215127.94
m/z	relative intensity	assigned
57.035	10	C3H5O-
59.0151	11	C2H3O2-
71.0507	24	C4H7O-
77.0404	90	C6H5-
99.0815	14	C6H11O-
113.0976	62	C7H13O-
115.1125	10	C7H15O-
119.0508	52	C8H7O-
121.0301	956	C7H5O2-
122.0346	4	C7H6O2-
123.0832	3	C8H11O-
125.0984	14	C8H13O-
127.0741	3	C7H11O2-
143.1084	999	C8H15O2-
147.0089	11	C8H3O3-
165.0177	5	C8H5O4-
199.1132	4	C14H15O-
205.1243	7	C13H17O2-
247.1349	25	C15H19O3-
291.1248	791	C16H19O5-
