Mass spectrum: 5-METHYLCYTOSINE; LC-ESI-QTOF; MS2; CE: 20eV; R=5000; [M+H]+
Name: 5-METHYLCYTOSINE
Name: 6-amino-5-methyl-1H-pyrimidin-2-one
Formula: C5H7N3O
Exact mass: 125.0589
SMILES: CC1=C(N)NC(=O)N=C1
InChI: InChI=1S/C5H7N3O/c1-3-2-7-5(9)8-4(3)6/h2H,1H3,(H3,6,7,8,9)
Instrument: Agilent 6530 QTOF
Instrument type: LC-ESI-QTOF
Ms type: MS2
Ion mode: POSITIVE
Ionization: ESI
Fragmentation mode: CID
Collision energy: 20 eV
Resolution: 5000
Column name: N/A
Retention time: 0.214 min
Base peak: 126.0672
Precursor m/z: 126.0662
Precursor type: [M+H]+
Precursor intensity: 4836048
m/z	relative intensity	assigned
40.0172	3	C2H2N+
41.0265	1	C2H3N+
42.0331	3	C2H4N+
43.029	17	CH3N2+
44.0122	21	CH2NO+
54.0333	684	C3H4N+
56.0487	563	C3H6N+
64.0183	1	C4H2N+
66.0323	39	C4H4N+
68.0245	1	C2H2N3+
69.0074	15	C2HN2O+
71.0225	76	C2H3N2O+
81.043	471	C4H5N2+
82.0272	238	C4H4NO+
83.0587	555	C4H7N2+
109.0371	999	C5H5N2O+
