Mass spectrum: 1-tridecanoyl-sn-glycero-3-phosphoethanolamine; LC-ESI-QTOF; MS2; CE: 20eV; R=7000; [M-H]-
Name: 1-tridecanoyl-sn-glycero-3-phosphoethanolamine
Name: [(2R)-3-[2-aminoethoxy(hydroxy)phosphoryl]oxy-2-hydroxypropyl] tridecanoate
Formula: C18H38NO7P
Exact mass: 411.2386
SMILES: [C@](COP(=O)(O)OCCN)([H])(O)COC(CCCCCCCCCCCC)=O
InChI: InChI=1S/C18H38NO7P/c1-2-3-4-5-6-7-8-9-10-11-12-18(21)24-15-17(20)16-26-27(22,23)25-14-13-19/h17,20H,2-16,19H2,1H3,(H,22,23)/t17-/m1/s1
Instrument: Agilent 6560 QTOF
Instrument type: LC-ESI-QTOF
Ms type: MS2
Ion mode: NEGATIVE
Ionization: ESI
Fragmentation mode: CID
Collision energy: 20 eV
Resolution: 7000
Column name: N/A
Retention time: 0.164 min
Base peak: 410.2329
Precursor m/z: 410.2313
Precursor type: [M-H]-
Precursor intensity: 193310
m/z	relative intensity	assigned
78.9596	32	O3P-
94.9888	2	CH4O3P-
122.9834	4	C2H4O4P-
140.0119	35	C2H7NO4P-
196.0379	87	C9H8O5-
211.97	2	C11HO3P-
212.0348	1	C12H6NO3-
212.125	2	C8H20O6-
213.1865	999	C9H28NO2P-
214.1891	93	C5H28NO7-
311.0517	1	C17H12O4P-
351.1905	1	C16H32O6P-
367.1947	1	C16H32O7P-
410.2317	18	C18H37NO7P-
