Mass spectrum: N-ACETYLASPARTATE; LC-ESI-QTOF; MS2; CE: 20eV; R=5000; [M+H]+
Name: N-ACETYLASPARTATE
Name: N-Acetyl-L-aspartic acid
Name: (2S)-2-acetamidobutanedioic acid
Formula: C6H9NO5
Exact mass: 175.0481
SMILES: CC(=O)N[C@@H](CC(O)=O)C(O)=O
InChI: InChI=1S/C6H9NO5/c1-3(8)7-4(6(11)12)2-5(9)10/h4H,2H2,1H3,(H,7,8)(H,9,10)(H,11,12)/t4-/m0/s1
Instrument: Agilent 6530 QTOF
Instrument type: LC-ESI-QTOF
Ms type: MS2
Ion mode: POSITIVE
Ionization: ESI
Fragmentation mode: CID
Collision energy: 20 eV
Resolution: 5000
Column name: N/A
Retention time: 0.254 min
Base peak: 922.0098
Precursor m/z: 176.0553
Precursor type: [M+H]+
Precursor intensity: 44552
m/z	relative intensity	assigned
41.0386	11	C3H5+
43.0179	312	C2H3O+
46.0285	279	CH4NO+
53.0011	69	C3HO+
70.0298	438	C3H4NO+
72.0006	5	C6+
74.0234	999	C2H4NO2+
88.0389	963	C3H6NO2+
98.0223	62	CH6O5+
116.0321	412	C4H6NO3+
134.0449	48	C4H8NO4+
