Mass spectrum: Cholesterol; LC-ESI-QTOF; MS2; CE: 10eV; R=7000; [M-H2O+H]+
Name: Cholesterol
Name: Cholest-5-en-3-ol
Name: 10,13-dimethyl-17-(6-methylheptan-2-yl)-2,3,4,7,8,9,11,12,14,15,16,17-dodecahydro-1H-cyclopenta[a]phenanthren-3-ol
Formula: C27H46O
Exact mass: 386.3549
SMILES: CC(C)CCCC(C)C1CCC2C1(CCC3C2CC=C4C3(CCC(C4)O)C)C
InChI: InChI=1S/C27H46O/c1-18(2)7-6-8-19(3)23-11-12-24-22-10-9-20-17-21(28)13-15-26(20,4)25(22)14-16-27(23,24)5/h9,18-19,21-25,28H,6-8,10-17H2,1-5H3
Instrument: Agilent 6560 QTOF
Instrument type: LC-ESI-QTOF
Ms type: MS2
Ion mode: POSITIVE
Ionization: ESI
Fragmentation mode: CID
Collision energy: 10 eV
Resolution: 7000
Column name: Direct injection
Retention time: 22.046 min
Base peak: 369.3528
Precursor m/z: 369.3516
Precursor type: [M-H2O+H]+
Precursor intensity: 5351
m/z	relative intensity	assigned
81.0712	204	C6H9+
95.0876	241	C7H11+
107.0863	170	C8H11+
147.1144	154	C11H15+
149.1319	483	C11H17+
161.1328	471	C12H17+
175.1467	276	C13H19+
179.1772	247	C13H23+
189.1655	173	C14H21+
217.1947	93	C16H25+
259.2417	245	C19H31+
287.271	281	C21H35+
369.3535	999	C27H45+
