Mass spectrum: N-palmitoyl-D-erythro-sphinganine; LC-ESI-QTOF; MS2; CE: 40eV; R=7000; [M-H]-
Name: N-palmitoyl-D-erythro-sphinganine
Name: N-(hexadecanoyl)-sphinganine
Name: N-[(2S,3R)-1,3-dihydroxyoctadecan-2-yl]hexadecanamide
Formula: C34H69NO3
Exact mass: 539.5277
SMILES: CCCCCCCCCCCCCCC[C@H]([C@H](CO)NC(=O)CCCCCCCCCCCCCCC)O
InChI: InChI=1S/C34H69NO3/c1-3-5-7-9-11-13-15-17-19-21-23-25-27-29-33(37)32(31-36)35-34(38)30-28-26-24-22-20-18-16-14-12-10-8-6-4-2/h32-33,36-37H,3-31H2,1-2H3,(H,35,38)/t32-,33+/m0/s1
Instrument: Agilent 6560 QTOF
Instrument type: LC-ESI-QTOF
Ms type: MS2
Ion mode: NEGATIVE
Ionization: ESI
Fragmentation mode: CID
Collision energy: 40 eV
Resolution: 7000
Column name: N/A
Retention time: 0.143 min
Base peak: 598.5427
Precursor m/z: 538.5205
Precursor type: [M-H]-
Precursor intensity: 58203
m/z	relative intensity	assigned
140.1557	10	C10H20-
168.4442	7	C4H58NO3-
235.2056	39	C16H27O-
237.2212	486	C16H29O-
239.2387	242	C16H31O-
253.254	219	C17H33O-
254.2508	79	C16H32NO-
255.2327	87	C16H31O2-
255.2873	6	C14H39O3-
268.2682	41	C17H34NO-
278.4829	12	C18H62-
280.2645	999	C18H34NO-
281.2694	161	C18H35NO-
281.3414	10	C17H45O2-
282.244	8	C17H32NO2-
296.2573	105	C18H34NO2-
297.2675	10	C18H35NO2-
298.1679	13	C23H22-
336.1598	9	C21H22NO3-
400.27	7	C28H34NO-
436.1284	31	C31H18NO2-
487.302	8	C32H41NO3-
490.4986	221	C33H64NO-
491.5057	30	C33H65NO-
499.3314	5	C34H43O3-
506.4906	52	C33H64NO2-
506.5251	41	C34H68NO-
507.497	25	C33H65NO2-
507.5212	11	C34H67O2-
