Mass spectrum: Diisononyl hexahydrophthalate; LC-ESI-QTOF; MS2; CE: 15eV; R=7000; [M+H]+
Name: Diisononyl hexahydrophthalate
Name: bis(7-methyloctyl) cyclohexane-1,2-dicarboxylate
Formula: C26H48O4
Exact mass: 424.3553
SMILES: CC(C)CCCCCCOC(=O)C1CCCCC1C(=O)OCCCCCCC(C)C
InChI: InChI=1S/C26H48O4/c1-21(2)15-9-5-7-13-19-29-25(27)23-17-11-12-18-24(23)26(28)30-20-14-8-6-10-16-22(3)4/h21-24H,5-20H2,1-4H3
Instrument: Agilent 6560 QTOF
Instrument type: LC-ESI-QTOF
Ms type: MS2
Ion mode: POSITIVE
Ionization: ESI
Fragmentation mode: CID
Collision energy: 15 eV
Resolution: 7000
Retention time: 0.113 min
Base peak: 447.3446
Precursor m/z: 425.3625
Precursor type: [M+H]+
Precursor intensity: 59916.95
m/z	relative intensity	assigned
57.0702	655	C4H9+
71.0856	999	C5H11+
81.07	460	C6H9+
85.1009	629	C6H13+
109.0647	219	C7H9O+
127.0752	375	C7H11O2+
155.0699	775	C8H11O3+
319.169	16	C22H23O2+
