Mass spectrum: Mono-2-(propyl-6-oxoheptyl)-phthalate; LC-ESI-QTOF; MS2; CE: 5eV; R=7000; [M-H]-
Name: Mono-2-(propyl-6-oxoheptyl)-phthalate
Name: 2-(((6-Oxo-2-propylheptyl)oxy)carbonyl)benzoic Acid
Name: 2-(6-oxo-2-propylheptoxy)carbonylbenzoic acid
Formula: C18H24O5
Exact mass: 320.1624
SMILES: CCCC(CCCC(C)=O)COC(=O)c1ccccc1C(=O)O
InChI: InChI=1S/C18H24O5/c1-3-7-14(9-6-8-13(2)19)12-23-18(22)16-11-5-4-10-15(16)17(20)21/h4-5,10-11,14H,3,6-9,12H2,1-2H3,(H,20,21)
Instrument: Agilent 6560 QTOF
Instrument type: LC-ESI-QTOF
Ms type: MS2
Ion mode: NEGATIVE
Ionization: ESI
Fragmentation mode: CID
Collision energy: 5 eV
Resolution: 7000
Column name: ZORBAX Extend-C18 3.5um, 2.1x50mm, Agilent Technologies
Retention time: 3.945 min
Base peak: 319.1561
Precursor m/z: 319.1551
Precursor type: [M-H]-
Precursor intensity: 231853.27
m/z	relative intensity	assigned
57.0351	23	C3H5O-
59.0146	3	C2H3O2-
77.0397	63	C6H5-
85.0654	4	C5H9O-
119.0503	26	C8H7O-
121.0298	722	C7H5O2-
127.1127	10	C8H15O-
141.128	12	C9H17O-
147.008	6	C8H3O3-
151.1145	2	C10H15O-
153.127	4	C10H17O-
155.1091	2	C9H15O2-
165.0183	4	C8H5O4-
171.1395	537	C10H19O2-
233.1528	3	C15H21O2-
275.1653	20	C17H23O3-
319.1553	999	C18H23O5-
