Mass spectrum: Dimethylbenzimidazole; LC-ESI-QTOF; MS2; CE: 20eV; R=7000; [M+H]+
Name: Dimethylbenzimidazole
Name: 5,6-Dimethylbenzimidazole
Name: 5,6-dimethyl-1H-benzimidazole
Formula: C9H10N2
Exact mass: 146.0844
SMILES: CC1=CC2=C(C=C1C)N=CN2
InChI: InChI=1S/C9H10N2/c1-6-3-8-9(4-7(6)2)11-5-10-8/h3-5H,1-2H3,(H,10,11)
Instrument: Agilent 6560 QTOF
Instrument type: LC-ESI-QTOF
Ms type: MS2
Ion mode: POSITIVE
Ionization: ESI
Fragmentation mode: CID
Collision energy: 20 eV
Resolution: 7000
Column name: Direct injection
Retention time: 0.184 min
Base peak: 147.0919
Precursor m/z: 147.0917
Precursor type: [M+H]+
Precursor intensity: 211928
m/z	relative intensity	assigned
77.0386	64	C6H5+
78.047	2	C6H6+
79.054	20	C6H7+
91.0546	32	C7H7+
92.0615	2	C7H8+
93.0703	38	C7H9+
103.0553	15	C8H7+
104.0512	15	C7H6N+
105.0549	4	C7H7N+
105.0679	3	C8H9+
106.0642	41	C7H8N+
117.0592	2	C8H7N+
118.0636	2	C8H8N+
119.0619	4	C7H7N2+
120.0807	100	C8H10N+
131.0602	312	C8H7N2+
132.0683	500	C8H8N2+
145.0766	64	C9H9N2+
146.0841	50	C9H10N2+
147.0913	999	C9H11N2+
