Mass spectrum: 11-Deoxycortisol; LC-ESI-QTOF; MS2; CE: 10eV; R=7000; [M+CH3COO]-
Name: 11-Deoxycortisol
Name: Reichsteins Substance S
Name: 17-hydroxy-17-(2-hydroxyacetyl)-10,13-dimethyl-2,6,7,8,9,11,12,14,15,16-decahydro-1H-cyclopenta[a]phenanthren-3-one
Formula: C21H30O4
Exact mass: 346.2144
SMILES: CC12CCC(=O)C=C1CCC3C2CCC4(C3CCC4(C(=O)CO)O)C
InChI: InChI=1S/C21H30O4/c1-19-8-5-14(23)11-13(19)3-4-15-16(19)6-9-20(2)17(15)7-10-21(20,25)18(24)12-22/h11,15-17,22,25H,3-10,12H2,1-2H3
Instrument: Agilent 6560 QTOF
Instrument type: LC-ESI-QTOF
Ms type: MS2
Ion mode: NEGATIVE
Ionization: ESI
Fragmentation mode: CID
Collision energy: 10 eV
Resolution: 7000
Column name: N/A
Retention time: 0.241 min
Base peak: 357.1902
Precursor m/z: 405.2283
Precursor type: [M+CH3COO]-
Precursor intensity: 174989
m/z	relative intensity	assigned
115.1197	1	H19O6-
127.0023	6	C5H3O4-
147.0819	2	C10H11O-
183.0659	3	C9H11O4-
209.0644	3	C14H9O2-
266.0642	1	C16H10O4-
271.1717	2	C18H23O2-
285.1883	19	C19H25O2-
286.064	2	C19H10O3-
286.1877	4	C19H26O2-
297.1508	5	C19H21O3-
299.1652	21	C19H23O3-
300.1718	5	C19H24O3-
313.2567	2	C22H33O-
314.1118	2	C18H18O5-
315.1973	999	C20H27O3-
316.2016	142	C20H28O3-
317.2344	1	C17H33O5-
323.2211	14	C19H31O4-
327.1956	28	C21H27O3-
328.2041	1	C21H28O3-
345.2047	7	C21H29O4-
387.1849	1	C22H27O6-
