Mass spectrum: N-ACETYLSERINE; LC-ESI-QTOF; MS2; CE: 20eV; R=5000; [M+H]+
Name: N-ACETYLSERINE
Name: (2S)-2-acetamido-3-hydroxypropanoic acid
Formula: C5H9NO4
Exact mass: 147.0532
SMILES: CC(=O)N[C@@H](CO)C(O)=O
InChI: InChI=1S/C5H9NO4/c1-3(8)6-4(2-7)5(9)10/h4,7H,2H2,1H3,(H,6,8)(H,9,10)/t4-/m0/s1
Instrument: Agilent 6530 QTOF
Instrument type: LC-ESI-QTOF
Ms type: MS2
Ion mode: POSITIVE
Ionization: ESI
Fragmentation mode: CID
Collision energy: 20 eV
Resolution: 5000
Column name: N/A
Retention time: 0.354 min
Base peak: 121.0508
Precursor m/z: 148.0604
Precursor type: [M+H]+
Precursor intensity: 15836
m/z	relative intensity	assigned
43.0183	999	C2H3O+
56.0508	755	C3H6N+
88.0409	330	C3H6NO2+
