Mass spectrum: Tri-o-tolyl phosphate; LC-ESI-QTOF; MS2; CE: 50eV; R=7000; [M+H]+
Name: Tri-o-tolyl phosphate
Name: Tri-O-cresyl phosphate
Name: tris(2-methylphenyl) phosphate
Formula: C21H21O4P
Exact mass: 368.1177
SMILES: CC1=CC=CC=C1OP(=O)(OC2=CC=CC=C2C)OC3=CC=CC=C3C
InChI: InChI=1S/C21H21O4P/c1-16-10-4-7-13-19(16)23-26(22,24-20-14-8-5-11-17(20)2)25-21-15-9-6-12-18(21)3/h4-15H,1-3H3
Instrument: Agilent 6560 QTOF
Instrument type: LC-ESI-QTOF
Ms type: MS2
Ion mode: POSITIVE
Ionization: ESI
Fragmentation mode: CID
Collision energy: 50 eV
Resolution: 7000
Retention time: 0.145 min
Base peak: 391.1073
Precursor m/z: 369.125
Precursor type: [M+H]+
Precursor intensity: 101421.06
m/z	relative intensity	assigned
51.0231	21	C4H3+
63.0234	42	C5H3+
65.0386	940	C5H5+
77.0384	57	C6H5+
79.0542	23	C6H7+
89.0361	8	H10O3P+
91.0539	999	C7H7+
92.0575	20	H13O3P+
105.0324	10	C7H5O+
107.049	15	C7H7O+
115.0536	60	C2H12O3P+
121.0631	8	CH14O4P+
128.0634	17	C10H8+
139.0534	8	C11H7+
141.069	24	C11H9+
150.0461	8	C12H6+
152.0612	45	C12H8+
153.0682	49	C5H14O3P+
154.0773	15	C12H10+
163.0551	11	C13H7+
164.0613	37	C13H8+
165.0695	770	C13H9+
166.0749	79	C6H15O3P+
167.0816	15	C6H16O3P+
176.0617	10	C14H8+
177.0692	14	C14H9+
178.0773	141	C14H10+
179.0829	31	C7H16O3P+
182.0701	8	C6H15O4P+
195.0786	16	C7H16O4P+
239.0862	27	C19H11+
240.092	21	C12H17O3P+
241.103	20	C19H13+
253.0982	8	C13H18O3P+
