Mass spectrum: ((propane-2,2-diylbis(4,1-phenylene))bis(oxy))bis(3,6,9,12-tetraoxatetradecane-14,1-diyl) bis(2-methylacrylate); LC-ESI-QTOF; MS2; CE: 20eV; R=7000; [M+NH4]+
Name: ((propane-2,2-diylbis(4,1-phenylene))bis(oxy))bis(3,6,9,12-tetraoxatetradecane-14,1-diyl) bis(2-methylacrylate)
Name: Bismethacrylic acid isopropylidenebis[(4,1-phenylene)(oxyethyleneoxyethyleneoxyethyleneoxyethyleneoxyethylene)] ester
Name: 2-[2-[2-[2-[2-[4-[2-[4-[2-[2-[2-[2-[2-(2-methylprop-2-enoyloxy)ethoxy]ethoxy]ethoxy]ethoxy]ethoxy]phenyl]propan-2-yl]phenoxy]ethoxy]ethoxy]ethoxy]ethoxy]ethyl 2-methylprop-2-enoate
Formula: C43H64O14
Exact mass: 804.4296
SMILES: CC(C1=CC=C(OCCOCCOCCOCCOCCOC(C(C)=C)=O)C=C1)(C)C2=CC=C(OCCOCCOCCOCCOCCOC(C(C)=C)=O)C=C2
InChI: InChI=1S/C43H64O14/c1-35(2)41(44)56-33-29-52-25-21-48-17-15-46-19-23-50-27-31-54-39-11-7-37(8-12-39)43(5,6)38-9-13-40(14-10-38)55-32-28-51-24-20-47-16-18-49-22-26-53-30-34-57-42(45)36(3)4/h7-14H,1,3,15-34H2,2,4-6H3
Instrument: Agilent 6560 QTOF
Instrument type: LC-ESI-QTOF
Ms type: MS2
Ion mode: POSITIVE
Ionization: ESI
Fragmentation mode: CID
Collision energy: 20 eV
Resolution: 7000
Column name: ZORBAX Extend-C18 3.5um, 2.1x50mm, Agilent Technologies
Retention time: 4.116 min
Base peak: 822.4729
Precursor m/z: 822.4634
Precursor type: [M+NH4]+
Precursor intensity: 338017.98
m/z	relative intensity	assigned
69.0342	36	C4H5O+
73.0664	1	C4H9O+
87.0443	2	C4H7O2+
89.0598	7	C4H9O2+
105.0699	1	C8H9+
113.0603	999	C6H9O2+
133.0653	2	C9H9O+
133.0858	5	C6H13O3+
135.0798	4	C9H11O+
147.0796	1	C10H11O+
157.0844	15	C8H13O3+
161.0949	14	C11H13O+
163.107	1	C3H17NO6+
205.1214	20	C13H17O2+
206.125	2	C5H20NO7+
207.1353	1	C13H19O2+
213.1252	1	H23NO11+
223.1328	6	C13H19O3+
231.1374	7	H25NO12+
245.1364	5	C12H21O5+
247.1294	1	H25NO13+
249.1465	8	H27NO13+
250.1485	3	C7H24NO8+
251.1608	1	H29NO13+
267.1613	3	C18H21NO+
273.1495	1	C17H21O3+
291.1586	19	C2H29NO14+
293.1738	5	C2H31NO14+
309.1693	1	C17H25O5+
311.1822	2	C24H23+
335.1844	78	C19H27O5+
336.1888	4	C26H24+
337.198	2	C26H25+
355.2097	1	C19H31O6+
379.2103	68	C21H31O6+
380.2143	6	C28H28O+
405.2198	1	C15H35NO11+
423.2376	35	C23H35O7+
424.2392	3	C15H38NO12+
467.2618	19	C35H33N+
511.289	12	C27H43O9+
703.3523	1	C37H53NO12+
805.4362	2	C43H65O14+
822.465	446	C43H68NO14+
