Mass spectrum: Bisphenol S; LC-ESI-QTOF; MS2; CE: 30eV; R=7000; [M-H]-
Name: Bisphenol S
Name: 4,4`-Sulfonyldiphenol
Name: 4-(4-hydroxyphenyl)sulfonylphenol
Formula: C12H10O4S
Exact mass: 250.0300
SMILES: C1=CC(=CC=C1O)S(=O)(=O)C2=CC=C(C=C2)O
InChI: InChI=1S/C12H10O4S/c13-9-1-5-11(6-2-9)17(15,16)12-7-3-10(14)4-8-12/h1-8,13-14H
Instrument: Agilent 6560 QTOF
Instrument type: LC-ESI-QTOF
Ms type: MS2
Ion mode: NEGATIVE
Ionization: ESI
Fragmentation mode: CID
Collision energy: 30 eV
Resolution: 7000
Retention time: 0.189 min
Base peak: 249.0234
Precursor m/z: 249.0227
Precursor type: [M-H]-
Precursor intensity: 168034.57
m/z	relative intensity	assigned
63.9632	6	O2S-
92.027	930	C6H4O-
93.0328	43	C6H5O-
108.0217	999	C6H4O2-
117.0333	6	C8H5O-
138.9864	3	C6H3O2S-
139.994	12	C6H4O2S-
145.0097	3	C12H-
155.9874	20	C6H4O3S-
156.0568	8	C11H8O-
156.9949	4	C6H5O3S-
157.0658	3	C11H9O-
184.053	26	C12H8O2-
185.0576	5	C12H9O2-
249.0223	19	C12H9O4S-
