Mass spectrum: PUTRESCINE; LC-ESI-QTOF; MS2; CE: 20eV; R=5000; [M+H]+
Name: PUTRESCINE
Name: 1,4-Diaminobutane
Name: butane-1,4-diamine
Formula: C4H12N2
Exact mass: 88.10005
SMILES: NCCCCN
InChI: InChI=1S/C4H12N2/c5-3-1-2-4-6/h1-6H2
Instrument: Agilent 6530 QTOF
Instrument type: LC-ESI-QTOF
Ms type: MS2
Ion mode: POSITIVE
Ionization: ESI
Fragmentation mode: CID
Collision energy: 20 eV
Resolution: 5000
Column name: N/A
Retention time: 0.217 min
Base peak: 202.1807
Precursor m/z: 89.1073
Precursor type: [M+H]+
Precursor intensity: 177885
m/z	relative intensity	assigned
53.0382	7	C4H5+
55.0536	40	C4H7+
72.0809	999	C4H10N+
74.0831	2	C3H10N2+
