Mass spectrum: 2,2-Bis(4-hydroxyphenyl)propane dimethacrylate; LC-ESI-QTOF; MS2; CE: 20eV; R=7000; [M+NH4]+
Name: 2,2-Bis(4-hydroxyphenyl)propane dimethacrylate
Name: Bisphenol A dimethacrylate
Name: [4-[2-[4-(2-methylprop-2-enoyloxy)phenyl]propan-2-yl]phenyl] 2-methylprop-2-enoate
Formula: C23H24O4
Exact mass: 364.1675
SMILES: CC(=C)C(=O)Oc1ccc(cc1)C(C)(C)c2ccc(OC(=O)C(C)=C)cc2
InChI: InChI=1S/C23H24O4/c1-15(2)21(24)26-19-11-7-17(8-12-19)23(5,6)18-9-13-20(14-10-18)27-22(25)16(3)4/h7-14H,1,3H2,2,4-6H3
Instrument: Agilent 6560 QTOF
Instrument type: LC-ESI-QTOF
Ms type: MS2
Ion mode: POSITIVE
Ionization: ESI
Fragmentation mode: CID
Collision energy: 20 eV
Resolution: 7000
Column name: ZORBAX Extend-C18 3.5um, 2.1x50mm, Agilent Technologies
Retention time: 4.407 min
Base peak: 382.2017
Precursor m/z: 382.2013
Precursor type: [M+NH4]+
Precursor intensity: 136586.6
m/z	relative intensity	assigned
69.0342	999	C4H5O+
203.1063	853	C13H15O2+
210.1478	6	C12H20NO2+
