Mass spectrum: HOMOCYSTEINE; LC-ESI-QTOF; MS2; CE: 20eV; R=5000; [M+H]+
Name: HOMOCYSTEINE
Name: DL-Homocysteine
Name: 2-amino-4-sulfanylbutanoic acid
Formula: C4H9NO2S
Exact mass: 135.0354
SMILES: C(CS)C(C(=O)O)N
InChI: InChI=1S/C4H9NO2S/c5-3(1-2-8)4(6)7/h3,8H,1-2,5H2,(H,6,7)
Instrument: Agilent 6530 QTOF
Instrument type: LC-ESI-QTOF
Ms type: MS2
Ion mode: POSITIVE
Ionization: ESI
Fragmentation mode: CID
Collision energy: 20 eV
Resolution: 5000
Column name: N/A
Retention time: 0.250 min
Base peak: 242.2841
Precursor m/z: 136.0427
Precursor type: [M+H]+
Precursor intensity: 52121
m/z	relative intensity	assigned
44.9795	55	CHS+
46.9949	763	CH3S+
56.049	999	C3H6N+
73.0095	75	C3H5S+
74.022	90	C2H4NO2+
74.0735	10	C4H10O+
90.0356	159	C3H8NS+
117.9961	3	C3H4NO2S+
