Mass spectrum: 1-octadecanoyl-rac-glycerol; LC-ESI-QTOF; MS2; CE: 20eV; R=7000; [M+CH3COO]-
Name: 1-octadecanoyl-rac-glycerol
Name: Glyceryl monostearate
Name: 2,3-dihydroxypropyl octadecanoate
Formula: C21H42O4
Exact mass: 358.3083
SMILES: CCCCCCCCCCCCCCCCCC(=O)OCC(CO)O
InChI: InChI=1S/C21H42O4/c1-2-3-4-5-6-7-8-9-10-11-12-13-14-15-16-17-21(24)25-19-20(23)18-22/h20,22-23H,2-19H2,1H3
Instrument: Agilent 6560 QTOF
Instrument type: LC-ESI-QTOF
Ms type: MS2
Ion mode: NEGATIVE
Ionization: ESI
Fragmentation mode: CID
Collision energy: 20 eV
Resolution: 7000
Column name: N/A
Retention time: 0.164 min
Base peak: 980.0164
Precursor m/z: 417.3222
Precursor type: [M+CH3COO]-
Precursor intensity: 15351
m/z	relative intensity	assigned
92.12	125	C5H16O-
117.0362	999	C8H5O-
133.0083	875	C11H-
193.1822	330	C10H25O3-
256.2981	125	C14H40O3-
259.9947	138	C19O2-
265.2058	304	C13H29O5-
273.1502	227	C17H21O3-
293.1775	267	C17H25O4-
375.179	840	C21H27O6-
