Mass spectrum: Isodecyl diphenyl phosphate; LC-ESI-QTOF; MS2; CE: 30eV; R=7000; [M+H]+
Name: Isodecyl diphenyl phosphate
Name: 8-methylnonyl diphenyl phosphate
Formula: C22H31O4P
Exact mass: 390.1960
SMILES: CC(C)CCCCCCCOP(=O)(OC1=CC=CC=C1)OC2=CC=CC=C2
InChI: InChI=1S/C22H31O4P/c1-20(2)14-8-4-3-5-13-19-24-27(23,25-21-15-9-6-10-16-21)26-22-17-11-7-12-18-22/h6-7,9-12,15-18,20H,3-5,8,13-14,19H2,1-2H3
Instrument: Agilent 6560 QTOF
Instrument type: LC-ESI-QTOF
Ms type: MS2
Ion mode: POSITIVE
Ionization: ESI
Fragmentation mode: CID
Collision energy: 30 eV
Resolution: 7000
Retention time: 0.110 min
Base peak: 251.0467
Precursor m/z: 391.2033
Precursor type: [M+H]+
Precursor intensity: 59717.03
m/z	relative intensity	assigned
51.0237	32	C4H3+
57.0701	139	C4H9+
71.0856	23	C5H11+
77.0386	398	C6H5+
85.1012	15	C6H13+
95.0485	196	C6H7O+
151.0542	39	C12H7+
152.0615	163	C12H8+
153.0697	254	C12H9+
157.0051	53	C6H6O3P+
168.0562	10	C12H8O+
171.0786	12	C5H16O4P+
175.0148	47	C6H8O4P+
215.0256	125	C12H8O2P+
233.0345	66	C12H10O3P+
234.0431	11	C12H11O3P+
251.0467	999	C12H12O4P+
252.0488	85	C12H13O4P+
