Mass spectrum: Butyryl trihexyl citrate; LC-ESI-QTOF; MS2; CE: 55eV; R=7000; [M+Na]+
Name: Butyryl trihexyl citrate
Name: trihexyl 2-butanoyloxypropane-1,2,3-tricarboxylate
Formula: C28H50O8
Exact mass: 514.3506
SMILES: CCCCCCOC(=O)CC(CC(=O)OCCCCCC)(C(=O)OCCCCCC)OC(=O)CCC
InChI: InChI=1S/C28H50O8/c1-5-9-12-15-19-33-25(30)22-28(36-24(29)18-8-4,27(32)35-21-17-14-11-7-3)23-26(31)34-20-16-13-10-6-2/h5-23H2,1-4H3
Instrument: Agilent 6560 QTOF
Instrument type: LC-ESI-QTOF
Ms type: MS2
Ion mode: POSITIVE
Ionization: ESI
Fragmentation mode: CID
Collision energy: 55 eV
Resolution: 7000
Retention time: 0.147 min
Base peak: 537.3414
Precursor m/z: 537.3398
Precursor type: [M+Na]+
Precursor intensity: 5793.86
m/z	relative intensity	assigned
57.0697	490	C4H9+
139.0017	883	C6H3O4+
148.0685	502	C4H13NaO4+
207.033	483	C10H7O5+
235.0961	999	C13H15O4+
249.9848	528	C12H3NaO5+
265.017	565	C15H5O5+
281.048	786	C16H9O5+
