Mass spectrum: Mono-2-(propyl-6-oxoheptyl)-phthalate; LC-ESI-QTOF; MS2; CE: 35eV; R=7000; [M-H]-
Name: Mono-2-(propyl-6-oxoheptyl)-phthalate
Name: 2-(((6-Oxo-2-propylheptyl)oxy)carbonyl)benzoic Acid
Name: 2-(6-oxo-2-propylheptoxy)carbonylbenzoic acid
Formula: C18H24O5
Exact mass: 320.1624
SMILES: CCCC(CCCC(C)=O)COC(=O)c1ccccc1C(=O)O
InChI: InChI=1S/C18H24O5/c1-3-7-14(9-6-8-13(2)19)12-23-18(22)16-11-5-4-10-15(16)17(20)21/h4-5,10-11,14H,3,6-9,12H2,1-2H3,(H,20,21)
Instrument: Agilent 6560 QTOF
Instrument type: LC-ESI-QTOF
Ms type: MS2
Ion mode: NEGATIVE
Ionization: ESI
Fragmentation mode: CID
Collision energy: 35 eV
Resolution: 7000
Column name: ZORBAX Extend-C18 3.5um, 2.1x50mm, Agilent Technologies
Retention time: 3.939 min
Base peak: 319.1546
Precursor m/z: 319.1551
Precursor type: [M-H]-
Precursor intensity: 41126.54
m/z	relative intensity	assigned
57.0351	78	C3H5O-
69.0346	11	C4H5O-
71.0502	20	C4H7O-
75.0248	21	C6H3-
77.0401	999	C6H5-
83.0513	11	C5H7O-
85.0656	27	C5H9O-
119.0504	9	C8H7O-
121.0293	305	C7H5O2-
123.0825	19	C8H11O-
125.097	33	C8H13O-
127.1124	14	C8H15O-
147.0087	15	C8H3O3-
