Mass spectrum: Deoxycorticosterone acetate; LC-ESI-QTOF; MS2; CE: 40eV; R=7000; [M+H]+
Name: Deoxycorticosterone acetate
Name: Percorten
Name: [2-(10,13-dimethyl-3-oxo-1,2,6,7,8,9,11,12,14,15,16,17-dodecahydrocyclopenta[a]phenanthren-17-yl)-2-oxoethyl] acetate
Formula: C23H32O4
Exact mass: 372.2301
SMILES: CC(=O)OCC(=O)C1CCC2C1(CCC3C2CCC4=CC(=O)CCC34C)C
InChI: InChI=1S/C23H32O4/c1-14(24)27-13-21(26)20-7-6-18-17-5-4-15-12-16(25)8-10-22(15,2)19(17)9-11-23(18,20)3/h12,17-20H,4-11,13H2,1-3H3
Instrument: Agilent 6560 QTOF
Instrument type: LC-ESI-QTOF
Ms type: MS2
Ion mode: POSITIVE
Ionization: ESI
Fragmentation mode: CID
Collision energy: 40 eV
Resolution: 7000
Column name: Direct injection
Retention time: 0.185 min
Base peak: 415.2126
Precursor m/z: 373.2373
Precursor type: [M+H]+
Precursor intensity: 165424
m/z	relative intensity	assigned
77.0377	16	C6H5+
79.0545	183	C6H7+
81.0336	8	C5H5O+
81.0698	152	C6H9+
83.0494	47	C5H7O+
91.0552	82	C7H7+
93.0694	60	C7H9+
95.0851	35	C7H11+
97.065	767	C6H9O+
99.0457	32	C5H7O2+
103.0535	11	C8H7+
105.0692	113	C8H9+
107.0849	74	C8H11+
109.065	999	C7H9O+
119.0857	67	C9H11+
121.0628	12	C8H9O+
121.1018	37	C9H13+
123.0815	73	C8H11O+
128.0606	14	C10H8+
129.0694	16	C10H9+
131.0861	62	C10H11+
133.1005	41	C10H13+
135.0798	33	C9H11O+
135.1174	9	C10H15+
143.0873	28	C11H11+
145.1017	44	C11H13+
146.1081	8	C11H14+
147.0794	2	C10H11O+
147.1184	25	C11H15+
149.0975	9	C10H13O+
151.1105	15	C10H15O+
153.0942	2	C9H13O2+
154.077	5	C12H10+
155.0877	21	C12H11+
156.0917	20	C12H12+
157.1022	46	C12H13+
159.1163	25	C12H15+
161.096	7	C11H13O+
161.1169	1	C8H17O3+
163.1105	18	C11H15O+
165.0681	8	C13H9+
167.0669	4	C9H11O3+
167.0847	4	C13H11+
169.101	7	C13H13+
171.1128	7	C13H15+
173.1308	18	C13H17+
181.1008	20	C14H13+
182.1076	14	C14H14+
183.1185	11	C14H15+
184.1262	11	C14H16+
189.1281	9	C13H17O+
195.1195	13	C15H15+
199.1071	9	C14H15O+
199.1471	18	C15H19+
207.1156	2	C16H15+
213.1642	23	C16H21+
214.1321	9	C15H18O+
215.1794	8	C16H23+
220.1269	7	C17H16+
222.1409	18	C17H18+
223.1504	3	C17H19+
225.1639	9	C17H21+
227.1452	14	C16H19O+
237.1663	7	C18H21+
239.1385	3	C17H19O+
243.1715	5	C17H23O+
251.1823	2	C19H23+
252.1867	4	C19H24+
253.1963	16	C19H25+
255.2099	4	C19H27+
280.1817	19	C20H24O+
313.2158	14	C21H29O2+
