Mass spectrum: Diphenylcresyl phosphate; LC-ESI-QTOF; MS2; CE: 60eV; R=7000; [M+H]+
Name: Diphenylcresyl phosphate
Name: Phosphoric acid, 2-methylphenyl diphenyl ester
Name: (2-methylphenyl) diphenyl phosphate
Formula: C19H17O4P
Exact mass: 340.0864
SMILES: CC1=CC=CC=C1OP(=O)(OC2=CC=CC=C2)OC3=CC=CC=C3
InChI: InChI=1S/C19H17O4P/c1-16-10-8-9-15-19(16)23-24(20,21-17-11-4-2-5-12-17)22-18-13-6-3-7-14-18/h2-15H,1H3
Instrument: Agilent 6560 QTOF
Instrument type: LC-ESI-QTOF
Ms type: MS2
Ion mode: POSITIVE
Ionization: ESI
Fragmentation mode: CID
Collision energy: 60 eV
Resolution: 7000
Retention time: 0.148 min
Base peak: 363.0756
Precursor m/z: 341.0937
Precursor type: [M+H]+
Precursor intensity: 59278.44
m/z	relative intensity	assigned
51.0231	207	C4H3+
63.0237	42	C5H3+
65.0388	658	C5H5+
77.0387	688	C6H5+
79.0545	18	C6H7+
90.0467	43	C7H6+
91.0539	605	C7H7+
92.0596	39	H13O3P+
115.0538	24	C9H7+
127.0526	51	C3H12O3P+
128.0643	42	C10H8+
139.0512	22	C4H12O3P+
141.0691	41	C11H9+
151.0541	139	C12H7+
152.0618	999	C12H8+
153.0667	77	C5H14O3P+
164.0613	19	C13H8+
165.0691	421	C13H9+
166.0741	46	C6H15O3P+
168.0567	135	C12H8O+
181.0643	139	C13H9O+
182.0723	78	C13H10O+
186.0203	17	C11H7OP+
202.0785	44	C16H10+
226.0776	105	C18H10+
228.09	17	C11H17O3P+
229.0387	24	C13H10O2P+
