Mass spectrum: Mono(2-ethyl-5-oxohexyl)phthalate; LC-ESI-QTOF; MS2; CE: 35eV; R=7000; [M-H]-
Name: Mono(2-ethyl-5-oxohexyl)phthalate
Name: 2-(2-ethyl-5-oxohexoxy)carbonylbenzoic acid
Formula: C16H20O5
Exact mass: 292.1311
SMILES: CCC(CCC(=O)C)COC(=O)C1=CC=CC=C1C(=O)O
InChI: InChI=1S/C16H20O5/c1-3-12(9-8-11(2)17)10-21-16(20)14-7-5-4-6-13(14)15(18)19/h4-7,12H,3,8-10H2,1-2H3,(H,18,19)
Instrument: Agilent 6560 QTOF
Instrument type: LC-ESI-QTOF
Ms type: MS2
Ion mode: NEGATIVE
Ionization: ESI
Fragmentation mode: CID
Collision energy: 35 eV
Resolution: 7000
Column name: ZORBAX Extend-C18 3.5um, 2.1x50mm, Agilent Technologies
Retention time: 2.662 min
Base peak: 980.0164
Precursor m/z: 291.1238
Precursor type: [M-H]-
Precursor intensity: 5055.33
m/z	relative intensity	assigned
77.0402	999	C6H5-
121.0297	153	C7H5O2-
