Mass spectrum: Methyltestosterone; LC-ESI-QTOF; MS2; CE: 40eV; R=7000; [M+H]+
Name: Methyltestosterone
Name: Androst-4-en-3-one, 17-hydroxy-17-methyl-, (17beta)-
Name: 17-hydroxy-10,13,17-trimethyl-2,6,7,8,9,11,12,14,15,16-decahydro-1H-cyclopenta[a]phenanthren-3-one
Formula: C20H30O2
Exact mass: 302.2246
SMILES: CC12CCC(=O)C=C1CCC3C2CCC4(C3CCC4(C)O)C
InChI: InChI=1S/C20H30O2/c1-18-9-6-14(21)12-13(18)4-5-15-16(18)7-10-19(2)17(15)8-11-20(19,3)22/h12,15-17,22H,4-11H2,1-3H3
Instrument: Agilent 6560 QTOF
Instrument type: LC-ESI-QTOF
Ms type: MS2
Ion mode: POSITIVE
Ionization: ESI
Fragmentation mode: CID
Collision energy: 40 eV
Resolution: 7000
Column name: Direct injection
Retention time: 0.156 min
Base peak: 303.2331
Precursor m/z: 303.2319
Precursor type: [M+H]+
Precursor intensity: 371707
m/z	relative intensity	assigned
71.0508	5	C4H7O+
77.039	173	C6H5+
79.0547	493	C6H7+
80.0629	12	C6H8+
81.0705	276	C6H9+
83.0492	47	C5H7O+
91.0545	253	C7H7+
93.0698	148	C7H9+
95.0491	28	C6H7O+
95.0855	157	C7H11+
97.0652	999	C6H9O+
103.0546	11	C8H7+
104.0618	7	C8H8+
105.0696	247	C8H9+
107.049	21	C7H7O+
107.0856	76	C8H11+
109.0651	974	C7H9O+
111.0826	3	C7H11O+
115.0542	14	C9H7+
116.0606	11	C9H8+
117.0701	50	C9H9+
118.075	13	C9H10+
119.0854	129	C9H11+
121.0628	37	C8H9O+
121.1012	51	C9H13+
122.0739	5	C8H10O+
123.0808	127	C8H11O+
125.0947	4	C8H13O+
128.0613	42	C10H8+
129.0703	34	C10H9+
130.0772	3	C10H10+
131.0865	37	C10H11+
133.1009	72	C10H13+
135.1187	4	C10H15+
136.0902	13	C9H12O+
141.0706	4	C11H9+
143.0854	37	C11H11+
144.0941	7	C11H12+
145.1021	22	C11H13+
147.08	9	C10H11O+
147.1164	12	C11H15+
148.0893	3	C10H12O+
149.0959	20	C10H13O+
155.0874	9	C12H11+
156.0923	15	C12H12+
157.1013	9	C12H13+
158.0723	8	C11H10O+
158.1101	16	C12H14+
159.1174	15	C12H15+
161.0979	5	C11H13O+
161.1319	17	C12H17+
165.1254	2	C11H17O+
169.1024	10	C13H13+
171.1146	5	C13H15+
172.128	5	C13H16+
173.1322	4	C13H17+
175.1106	3	C12H15O+
177.1283	1	C12H17O+
177.1651	6	C13H21+
182.1102	10	C14H14+
183.1138	1	C14H15+
185.1329	22	C14H17+
187.1117	6	C13H15O+
187.1482	9	C14H19+
189.1651	4	C14H21+
195.1159	12	C15H15+
198.1372	2	C15H18+
201.1301	4	C14H17O+
202.1327	5	C14H18O+
211.1501	5	C16H19+
212.1581	4	C16H20+
227.1811	12	C17H23+
237.1646	7	C18H21+
