Mass spectrum: 1,2-diheptadecanoyl-sn-glycero-3-phosphocholine; LC-ESI-QTOF; MS2; CE: 40eV; R=7000; [M+CH3COO]-
Name: 1,2-diheptadecanoyl-sn-glycero-3-phosphocholine
Name: [(2R)-2,3-di(heptadecanoyloxy)propyl] 2-(trimethylazaniumyl)ethyl phosphate
Formula: C42H84NO8P
Exact mass: 761.5935
SMILES: CCCCCCCCCCCCCCCCC(=O)OC[C@H](COP(=O)([O-])OCC[N+](C)(C)C)OC(=O)CCCCCCCCCCCCCCCC
InChI: InChI=1S/C42H84NO8P/c1-6-8-10-12-14-16-18-20-22-24-26-28-30-32-34-41(44)48-38-40(39-50-52(46,47)49-37-36-43(3,4)5)51-42(45)35-33-31-29-27-25-23-21-19-17-15-13-11-9-7-2/h40H,6-39H2,1-5H3/t40-/m1/s1
Instrument: Agilent 6560 QTOF
Instrument type: LC-ESI-QTOF
Ms type: MS2
Ion mode: NEGATIVE
Ionization: ESI
Fragmentation mode: CID
Collision energy: 40 eV
Resolution: 7000
Column name: N/A
Retention time: 0.167 min
Base peak: 223.0281
Precursor m/z: 820.6073
Precursor type: [M+CH3COO]-
Precursor intensity: 131744
m/z	relative intensity	assigned
78.9583	15	O3P-
78.9817	1	H2NO2P-
120.2187	5	CH30NO4-
131.6582	1	H85NO2-
148.2253	2	C3H32O5-
162.4396	1	C6H59P-
168.0415	9	CH13O7P-
168.2325	2	C9H30NO-
179.5653	2	C5H73NO2-
201.6211	1	C9H79N-
204.2797	1	C7H41O3P-
217.3286	2	C2H50O7P-
218.306	2	C11H40NO2-
219.4103	1	H59O10-
224.0669	5	C4H17O8P-
240.0703	3	C15H13OP-
244.0724	1	C7H17O7P-
259.0787	1	C4H20O10P-
267.5602	1	C11H73NO3-
267.5908	1	C2H84O8P-
267.6775	2	C15H87-
269.2483	999	C17H33O2-
270.2523	62	C10H39O5P-
271.2625	1	C10H40O5P-
272.2884	1	C6H42NO9-
273.2248	1	C5H38O9P-
288.2748	1	C13H38NO5-
293.9966	1	C15H5NO4P-
317.1475	2	C14H23NO7-
333.2853	1	C15H41O7-
342.3679	1	C12H55O7P-
405.4427	1	C22H62O3P-
427.0318	1	C31H8OP-
457.0088	4	C34H4NP-
471.0196	10	C32H8O3P-
476.3188	6	C31H42NO3-
491.3677	2	C22H53NO10-
494.3221	23	C21H51O10P-
499.0242	2	C33H7O6-
518.382	1	C28H54O8-
534.5805	2	C30H78O6-
741.5675	1	C42H80NO7P-
746.5685	13	C41H81NO8P-
