Mass spectrum: Progesterone; LC-ESI-QTOF; MS2; CE: 20eV; R=7000; [M+H]+
Name: Progesterone
Name: (8S,9S,10R,13S,14S,17S)-17-acetyl-10,13-dimethyl-1,2,6,7,8,9,11,12,14,15,16,17-dodecahydrocyclopenta[a]phenanthren-3-one
Formula: C21H30O2
Exact mass: 314.2246
SMILES: CC(=O)[C@H]1CC[C@@H]2[C@@]1(CC[C@H]3[C@H]2CCC4=CC(=O)CC[C@]34C)C
InChI: InChI=1S/C21H30O2/c1-13(22)17-6-7-18-16-5-4-14-12-15(23)8-10-20(14,2)19(16)9-11-21(17,18)3/h12,16-19H,4-11H2,1-3H3/t16-,17+,18-,19-,20-,21+/m0/s1
Instrument: Agilent 6560 QTOF
Instrument type: LC-ESI-QTOF
Ms type: MS2
Ion mode: POSITIVE
Ionization: ESI
Fragmentation mode: CID
Collision energy: 20 eV
Resolution: 7000
Column name: Direct injection
Retention time: 0.152 min
Base peak: 315.2325
Precursor m/z: 315.2319
Precursor type: [M+H]+
Precursor intensity: 389780
m/z	relative intensity	assigned
71.0485	1	C4H7O+
79.0541	48	C6H7+
81.0711	70	C6H9+
83.0493	88	C5H7O+
85.0654	32	C5H9O+
91.0539	19	C7H7+
93.069	29	C7H9+
95.0853	39	C7H11+
97.0648	999	C6H9O+
104.0606	1	C8H8+
105.0695	38	C8H9+
107.0487	8	C7H7O+
107.0848	46	C8H11+
109.0649	862	C7H9O+
111.0806	10	C7H11O+
113.0584	5	C6H9O2+
113.0972	1	C7H13O+
117.0677	3	C9H9+
119.0853	19	C9H11+
121.0653	13	C8H9O+
121.101	48	C9H13+
123.0806	69	C8H11O+
123.1166	7	C9H15+
129.0701	2	C10H9+
131.0867	22	C10H11+
133.0253	4	C8H5O2+
133.1025	42	C10H13+
135.0796	5	C9H11O+
135.1169	6	C10H15+
137.0952	20	C9H13O+
137.1338	4	C10H17+
143.0863	17	C11H11+
145.1016	44	C11H13+
147.1175	32	C11H15+
149.0974	4	C10H13O+
149.1301	6	C11H17+
151.1121	3	C10H15O+
155.0859	2	C12H11+
157.1001	30	C12H13+
159.1154	31	C12H15+
161.131	18	C12H17+
163.1126	18	C11H15O+
167.0855	2	C13H11+
169.1	7	C13H13+
171.1167	23	C13H15+
172.1221	10	C13H16+
173.0941	1	C12H13O+
173.1319	11	C13H17+
175.1102	2	C12H15O+
175.1481	15	C13H19+
177.1287	31	C12H17O+
179.1437	8	C12H19O+
183.1175	10	C14H15+
184.1208	2	C14H16+
185.097	1	C13H13O+
185.1328	29	C14H17+
186.1388	2	C14H18+
187.1137	5	C13H15O+
187.1489	12	C14H19+
189.1268	13	C13H17O+
191.1408	2	C13H19O+
197.131	13	C15H17+
198.1397	2	C15H18+
199.1493	10	C15H19+
201.1271	8	C14H17O+
201.1638	6	C15H21+
203.1463	5	C14H19O+
209.1339	7	C16H17+
211.1459	10	C16H19+
213.1284	4	C15H17O+
213.1616	13	C16H21+
215.1436	10	C15H19O+
215.1795	6	C16H23+
219.1742	4	C15H23O+
223.1488	5	C17H19+
226.1673	3	C17H22+
227.1451	3	C16H19O+
227.1775	6	C17H23+
229.1581	6	C16H21O+
231.1748	2	C16H23O+
232.1823	1	C16H24O+
237.1626	7	C18H21+
239.1789	18	C18H23+
240.1819	2	C18H24+
241.1614	14	C17H21O+
245.1899	6	C17H25O+
253.1941	5	C19H25+
255.1749	2	C18H23O+
255.2106	9	C19H27+
257.1945	2	C18H25O+
267.2061	1	C20H27+
269.1884	1	C19H25O+
269.2233	7	C20H29+
273.2211	7	C19H29O+
274.2257	2	C19H30O+
279.2085	17	C21H27+
287.1937	2	C19H27O2+
297.2215	23	C21H29O+
315.2306	68	C21H31O2+
