Mass spectrum: Tri-o-tolyl phosphate; LC-ESI-QTOF; MS2; CE: 15eV; R=7000; [M+H]+
Name: Tri-o-tolyl phosphate
Name: Tri-O-cresyl phosphate
Name: tris(2-methylphenyl) phosphate
Formula: C21H21O4P
Exact mass: 368.1177
SMILES: CC1=CC=CC=C1OP(=O)(OC2=CC=CC=C2C)OC3=CC=CC=C3C
InChI: InChI=1S/C21H21O4P/c1-16-10-4-7-13-19(16)23-26(22,24-20-14-8-5-11-17(20)2)25-21-15-9-6-12-18(21)3/h4-15H,1-3H3
Instrument: Agilent 6560 QTOF
Instrument type: LC-ESI-QTOF
Ms type: MS2
Ion mode: POSITIVE
Ionization: ESI
Fragmentation mode: CID
Collision energy: 15 eV
Resolution: 7000
Retention time: 0.111 min
Base peak: 369.1253
Precursor m/z: 369.125
Precursor type: [M+H]+
Precursor intensity: 286960.35
m/z	relative intensity	assigned
65.0388	6	C5H5+
91.0538	91	C7H7+
105.0704	1	C8H9+
107.0486	10	C7H7O+
121.0641	1	C8H9O+
129.0672	1	C3H14O3P+
141.0689	1	C11H9+
152.0601	1	C5H13O3P+
153.0096	4	C7H6O2P+
153.0699	7	C12H9+
165.0691	34	C13H9+
166.077	80	C13H10+
167.0816	4	C6H16O3P+
178.0771	5	C14H10+
179.0853	21	C14H11+
180.0912	4	C7H17O3P+
181.1006	39	C14H13+
182.1056	3	C7H19O3P+
183.0179	1	C8H8O3P+
187.0151	4	C7H8O4P+
189.0304	20	C7H10O4P+
197.0948	13	C7H18O4P+
199.1125	2	C14H15O+
229.1012	1	C18H13+
239.0842	1	C12H16O3P+
241.0991	7	C12H18O3P+
243.0568	14	C14H12O2P+
244.0587	3	C14H13O2P+
255.1157	1	C20H15+
256.1234	21	C13H21O3P+
257.1282	2	C13H22O3P+
261.0674	28	C14H14O3P+
262.0691	4	C14H15O3P+
271.1475	6	C21H19+
277.0618	12	C14H14O4P+
279.0785	23	C14H16O4P+
351.1118	3	C21H20O3P+
352.1142	1	C21H21O3P+
369.125	999	C21H22O4P+
