Mass spectrum: 1-palmitoyl-2-oleoyl-sn-glycero-3-phosphoethanol; LC-ESI-QTOF; MS2; CE: 10eV; R=7000; [M-H]-
Name: 1-palmitoyl-2-oleoyl-sn-glycero-3-phosphoethanol
Formula: C39H75O8P
Exact mass: 702.5200
SMILES: O=C(O[C@@H](COP(O)(=O)OCC)COC(=O)CCCCCCCCCCCCCCC)CCCCCCC/C=C\CCCCCCCC
InChI: InChI=1S/C39H75O8P/c1-4-7-9-11-13-15-17-19-20-22-24-26-28-30-32-34-39(41)47-37(36-46-48(42,43)45-6-3)35-44-38(40)33-31-29-27-25-23-21-18-16-14-12-10-8-5-2/h19-20,37H,4-18,21-36H2,1-3H3,(H,42,43)/b20-19-/t37-/m1/s1
Instrument: Agilent 6560 QTOF
Instrument type: LC-ESI-QTOF
Ms type: MS2
Ion mode: NEGATIVE
Ionization: ESI
Fragmentation mode: CID
Collision energy: 10 eV
Resolution: 7000
Column name: N/A
Retention time: 0.209 min
Base peak: 701.5139
Precursor m/z: 701.5127
Precursor type: [M-H]-
Precursor intensity: 1356181
m/z	relative intensity	assigned
78.9572	1	O3P-
89.0244	2	C3H5O3-
124.9997	3	C2H6O4P-
181.0278	3	C5H10O5P-
255.2335	64	C16H31O2-
256.2391	1	C9H37O5P-
280.2397	1	C18H32O2-
281.2486	211	C18H33O2-
282.2539	8	C11H39O5P-
419.2596	2	C28H35O3-
437.269	15	C28H37O4-
438.2797	1	C28H38O4-
445.2729	1	C23H42O6P-
463.2864	3	C30H39O4-
701.5142	999	C39H74O8P-
