Mass spectrum: 1-(9Z-octadecenoyl)-sn-glycero-3-phosphoethanolamine; LC-ESI-QTOF; MS2; CE: 40eV; R=7000; [M-H]-
Name: 1-(9Z-octadecenoyl)-sn-glycero-3-phosphoethanolamine
Name: [(2R)-3-[2-aminoethoxy(hydroxy)phosphoryl]oxy-2-hydroxypropyl] (Z)-octadec-9-enoate
Formula: C23H46NO7P
Exact mass: 479.3012
SMILES: CCCCCCCC/C=C\CCCCCCCC(=O)OC[C@H](COP(=O)([O-])OCC[NH3+])O
InChI: InChI=1S/C23H46NO7P/c1-2-3-4-5-6-7-8-9-10-11-12-13-14-15-16-17-23(26)29-20-22(25)21-31-32(27,28)30-19-18-24/h9-10,22,25H,2-8,11-21,24H2,1H3,(H,27,28)/b10-9-/t22-/m1/s1
Instrument: Agilent 6560 QTOF
Instrument type: LC-ESI-QTOF
Ms type: MS2
Ion mode: NEGATIVE
Ionization: ESI
Fragmentation mode: CID
Collision energy: 40 eV
Resolution: 7000
Column name: N/A
Retention time: 0.164 min
Base peak: 478.2954
Precursor m/z: 478.2939
Precursor type: [M-H]-
Precursor intensity: 70885
m/z	relative intensity	assigned
78.9597	312	O3P-
119.9846	17	C6O3-
122.0008	23	C6H2O3-
122.9835	11	C2H4O4P-
140.0124	200	C2H7NO4P-
152.994	42	C3H6O5P-
166.0238	25	CH11O7P-
166.0364	6	C4H8NO6-
196.0361	109	C9H8O5-
196.1385	5	C12H21P-
214.0618	2	C6H15O6P-
281.2488	999	C14H36NO2P-
282.2521	116	C11H39O5P-
282.329	7	C20H42-
326.1604	8	C16H24NO6-
372.0754	2	C19H17O6P-
