Mass spectrum: Tri-o-tolyl phosphate; LC-ESI-QTOF; MS2; CE: 55eV; R=7000; [M+H]+
Name: Tri-o-tolyl phosphate
Name: Tri-O-cresyl phosphate
Name: tris(2-methylphenyl) phosphate
Formula: C21H21O4P
Exact mass: 368.1177
SMILES: CC1=CC=CC=C1OP(=O)(OC2=CC=CC=C2C)OC3=CC=CC=C3C
InChI: InChI=1S/C21H21O4P/c1-16-10-4-7-13-19(16)23-26(22,24-20-14-8-5-11-17(20)2)25-21-15-9-6-12-18(21)3/h4-15H,1-3H3
Instrument: Agilent 6560 QTOF
Instrument type: LC-ESI-QTOF
Ms type: MS2
Ion mode: POSITIVE
Ionization: ESI
Fragmentation mode: CID
Collision energy: 55 eV
Resolution: 7000
Retention time: 0.145 min
Base peak: 391.1073
Precursor m/z: 369.125
Precursor type: [M+H]+
Precursor intensity: 126742.2
m/z	relative intensity	assigned
51.0232	7	C4H3+
65.0383	481	C5H5+
77.0376	32	C6H5+
79.0538	15	C6H7+
91.0539	999	C7H7+
92.0582	49	H13O3P+
103.0546	15	C8H7+
105.0342	9	C7H5O+
107.0492	46	C7H7O+
109.0649	7	C7H9O+
115.0541	25	C2H12O3P+
119.047	6	CH12O4P+
121.0649	5	C8H9O+
128.0607	7	C10H8+
129.0687	5	C3H14O3P+
141.0687	23	C11H9+
151.0531	6	C12H7+
152.0605	38	C5H13O3P+
153.0667	15	C5H14O3P+
154.0767	18	C12H10+
155.0827	5	C5H16O3P+
164.0606	17	C6H13O3P+
165.0693	646	C13H9+
166.0758	163	C6H15O3P+
167.0813	17	C6H16O3P+
169.1007	13	C13H13+
176.0597	7	C7H13O3P+
177.0701	13	C14H9+
178.0766	155	C14H10+
179.082	52	C7H16O3P+
180.0872	7	C7H17O3P+
181.0634	22	C6H14O4P+
181.1007	14	C14H13+
182.071	8	C6H15O4P+
189.0323	6	C14H5O+
196.0876	12	C14H12O+
215.0821	5	C10H16O3P+
228.0908	7	C11H17O3P+
239.0841	18	C12H16O3P+
241.1003	25	C19H13+
253.0995	7	C13H18O3P+
255.1156	12	C13H20O3P+
