Mass spectrum: Tetrekis(2-chlorethyl) dichloroisopentyldiphosphate; LC-ESI-QTOF; MS2; CE: 25eV; R=7000; [M+H]+
Name: Tetrekis(2-chlorethyl) dichloroisopentyldiphosphate
Name: Phosphoric acid, 2,2-bis(chloromethyl)-1,3-propanediyl tetrakis(2-chloroethyl) ester
Name: [2-[bis(2-chloroethoxy)phosphoryloxymethyl]-3-chloro-2-(chloromethyl)propyl] bis(2-chloroethyl) phosphate
Formula: C13H24Cl6O8P2
Exact mass: 579.9078
SMILES: C(CCl)OP(=O)(OCCCl)OCC(COP(=O)(OCCCl)OCCCl)(CCl)CCl
InChI: InChI=1S/C13H24Cl6O8P2/c14-1-5-22-28(20,23-6-2-15)26-11-13(9-18,10-19)12-27-29(21,24-7-3-16)25-8-4-17/h1-12H2
Instrument: Agilent 6560 QTOF
Instrument type: LC-ESI-QTOF
Ms type: MS2
Ion mode: POSITIVE
Ionization: ESI
Fragmentation mode: CID
Collision energy: 25 eV
Resolution: 7000
Retention time: 0.146 min
Base peak: 604.8951
Precursor m/z: 580.915
Precursor type: [M+H]+
Precursor intensity: 14021.51
m/z	relative intensity	assigned
63.0004	203	C2H4Cl+
65.0389	157	C5H5+
98.985	161	CH4ClO3+
101.0155	128	C5H6Cl+
160.9756	172	CH7O5P2+
163.0175	82	C12H3O+
222.9666	85	C3H10ClO5P2+
234.9681	999	C4H10ClO5P2+
260.9819	127	Cl2H17O7P2+
296.9609	870	C6H13Cl2O5P2+
358.9528	694	C8H16Cl3O5P2+
