Mass spectrum: Estrone; LC-ESI-QTOF; MS2; CE: 40eV; R=7000; [M-H]-
Name: Estrone
Name: (8R,9S,13S,14S)-3-hydroxy-13-methyl-7,8,9,11,12,14,15,16-octahydro-6H-cyclopenta[a]phenanthren-17-one
Formula: C18H22O2
Exact mass: 270.1620
SMILES: C[C@]12CC[C@H]3[C@H]([C@@H]1CCC2=O)CCC4=C3C=CC(=C4)O
InChI: InChI=1S/C18H22O2/c1-18-9-8-14-13-5-3-12(19)10-11(13)2-4-15(14)16(18)6-7-17(18)20/h3,5,10,14-16,19H,2,4,6-9H2,1H3/t14-,15-,16+,18+/m1/s1
Instrument: Agilent 6560 QTOF
Instrument type: LC-ESI-QTOF
Ms type: MS2
Ion mode: NEGATIVE
Ionization: ESI
Fragmentation mode: CID
Collision energy: 40 eV
Resolution: 7000
Column name: N/A
Retention time: 0.167 min
Base peak: 980.0164
Precursor m/z: 269.1547
Precursor type: [M-H]-
Precursor intensity: 113798
m/z	relative intensity	assigned
95.0497	23	C6H7O-
106.0424	14	C7H6O-
107.0487	7	C7H7O-
115.0526	8	C9H7-
119.0501	21	C8H7O-
119.1076	1	C6H15O2-
123.0805	3	C8H11O-
130.0429	55	C9H6O-
143.0504	124	C10H7O-
143.1092	6	C8H15O2-
145.0665	999	C10H9O-
146.0706	56	C10H10O-
146.1068	4	C11H14-
146.1288	3	C8H18O2-
147.0801	6	C10H11O-
157.0648	58	C11H9O-
157.1262	3	C9H17O2-
158.073	44	C11H10O-
159.0817	92	C11H11O-
171.0809	17	C12H11O-
171.115	1	C13H15-
171.9936	4	C13O-
181.0654	7	C13H9O-
183.0814	84	C13H11O-
184.0532	9	C12H8O2-
184.0885	24	C13H12O-
185.1008	2	C13H13O-
197.095	12	C14H13O-
198.103	12	C14H14O-
200.1161	7	C14H16O-
207.0835	5	C15H11O-
211.0767	11	C14H11O2-
223.1109	14	C16H15O-
239.1059	5	C16H15O2-
251.1067	3	C17H15O2-
253.1241	69	C17H17O2-
267.1405	12	C18H19O2-
269.1529	69	C18H21O2-
