Mass spectrum: Tris(2-ethylhexyl)trimellitate; LC-ESI-QTOF; MS2; CE: 5eV; R=7000; [M+H]+
Name: Tris(2-ethylhexyl)trimellitate
Name: Tris(2-ethylhexyl) trimellitate
Name: tris(2-ethylhexyl) benzene-1,2,4-tricarboxylate
Formula: C33H54O6
Exact mass: 546.3920
SMILES: CCCCC(CC)COC(=O)C1=CC(=C(C=C1)C(=O)OCC(CC)CCCC)C(=O)OCC(CC)CCCC
InChI: InChI=1S/C33H54O6/c1-7-13-16-25(10-4)22-37-31(34)28-19-20-29(32(35)38-23-26(11-5)17-14-8-2)30(21-28)33(36)39-24-27(12-6)18-15-9-3/h19-21,25-27H,7-18,22-24H2,1-6H3
Instrument: Agilent 6560 QTOF
Instrument type: LC-ESI-QTOF
Ms type: MS2
Ion mode: POSITIVE
Ionization: ESI
Fragmentation mode: CID
Collision energy: 5 eV
Resolution: 7000
Retention time: 0.113 min
Base peak: 547.3996
Precursor m/z: 547.3993
Precursor type: [M+H]+
Precursor intensity: 58635.96
m/z	relative intensity	assigned
57.0705	159	C4H9+
71.0858	229	C5H11+
81.034	7	C5H5O+
113.1319	14	C8H17+
193.0137	48	C9H5O5+
305.1377	999	C17H21O5+
306.1417	105	C24H18+
323.1487	176	C17H23O6+
435.2729	75	C25H39O6+
547.3975	143	C33H55O6+
