Mass spectrum: 1-tridecanoyl-sn-glycero-3-phosphoethanolamine; LC-ESI-QTOF; MS2; CE: 10eV; R=7000; [M-H]-
Name: 1-tridecanoyl-sn-glycero-3-phosphoethanolamine
Name: [(2R)-3-[2-aminoethoxy(hydroxy)phosphoryl]oxy-2-hydroxypropyl] tridecanoate
Formula: C18H38NO7P
Exact mass: 411.2386
SMILES: [C@](COP(=O)(O)OCCN)([H])(O)COC(CCCCCCCCCCCC)=O
InChI: InChI=1S/C18H38NO7P/c1-2-3-4-5-6-7-8-9-10-11-12-18(21)24-15-17(20)16-26-27(22,23)25-14-13-19/h17,20H,2-16,19H2,1H3,(H,22,23)/t17-/m1/s1
Instrument: Agilent 6560 QTOF
Instrument type: LC-ESI-QTOF
Ms type: MS2
Ion mode: NEGATIVE
Ionization: ESI
Fragmentation mode: CID
Collision energy: 10 eV
Resolution: 7000
Column name: N/A
Retention time: 0.143 min
Base peak: 980.0164
Precursor m/z: 410.2313
Precursor type: [M-H]-
Precursor intensity: 129364
m/z	relative intensity	assigned
75.1884	1	H28OP-
98.0842	10	C2H12NO3-
116.9911	3	C7H2P-
125.2564	4	CH35NO4-
140.0116	27	C6H4O4-
141.2826	2	C6H37O2-
152.1657	1	C7H22NO2-
177.1943	5	C6H27NO4-
196.0389	125	C5H11NO5P-
212.147	2	C15H18N-
213.1865	999	C9H28NO2P-
214.0515	55	C12H8NO3-
214.1903	120	C6H31O5P-
214.2522	8	C7H37NO3P-
215.2761	1	C15H35-
325.1824	4	C17H28NO3P-
349.1798	11	C16H30O6P-
353.1543	5	C18H26O5P-
379.2494	2	C18H37NO7-
410.2322	644	C18H37NO7P-
