Mass spectrum: 1-(9Z-octadecenoyl)-sn-glycero-3-phosphoethanolamine; LC-ESI-QTOF; MS2; CE: 40eV; R=7000; [M+H]+
Name: 1-(9Z-octadecenoyl)-sn-glycero-3-phosphoethanolamine
Name: [(2R)-3-[2-aminoethoxy(hydroxy)phosphoryl]oxy-2-hydroxypropyl] (Z)-octadec-9-enoate
Formula: C23H46NO7P
Exact mass: 479.3012
SMILES: CCCCCCCC/C=C\CCCCCCCC(=O)OC[C@H](COP(=O)([O-])OCC[NH3+])O
InChI: InChI=1S/C23H46NO7P/c1-2-3-4-5-6-7-8-9-10-11-12-13-14-15-16-17-23(26)29-20-22(25)21-31-32(27,28)30-19-18-24/h9-10,22,25H,2-8,11-21,24H2,1H3,(H,27,28)/b10-9-/t22-/m1/s1
Instrument: Agilent 6560 QTOF
Instrument type: LC-ESI-QTOF
Ms type: MS2
Ion mode: POSITIVE
Ionization: ESI
Fragmentation mode: CID
Collision energy: 40 eV
Resolution: 7000
Column name: Direct injection
Retention time: 0.181 min
Base peak: 480.3103
Precursor m/z: 480.3085
Precursor type: [M+H]+
Precursor intensity: 13891
m/z	relative intensity	assigned
71.0856	248	C5H11+
79.0545	455	C2H10NP+
81.0703	429	C2H12NP+
83.0489	118	C5H7O+
83.0852	382	C6H11+
93.0688	77	C7H9+
95.0851	999	C7H11+
98.9831	254	H4O4P+
107.0851	485	C8H11+
109.1004	420	C8H13+
111.1169	315	C8H15+
135.1179	277	C6H18NP+
308.2972	354	C20H38NO+
339.2899	437	C17H42NO3P+
398.2424	206	C18H39O7P+
