Mass spectrum: Lithocholyltaurine; LC-ESI-QTOF; MS2; CE: 40eV; R=7000; [M-H2O+H]+
Name: Lithocholyltaurine
Name: Taurolithocholic acid
Name: 2-[[(4R)-4-[(3R,5R,8R,9S,10S,13R,14S,17R)-3-hydroxy-10,13-dimethyl-2,3,4,5,6,7,8,9,11,12,14,15,16,17-tetradecahydro-1H-cyclopenta[a]phenanthren-17-yl]pentanoyl]amino]ethanesulfonic acid
Formula: C26H45NO5S
Exact mass: 483.3018
SMILES: [H][C@@]1(CC[C@@]2([H])[C@]3([H])CC[C@]4([H])C[C@H](O)CC[C@]4(C)[C@@]3([H])CC[C@]12C)[C@H](C)CCC(=O)NCCS(O)(=O)=O
InChI: InChI=1S/C26H45NO5S/c1-17(4-9-24(29)27-14-15-33(30,31)32)21-7-8-22-20-6-5-18-16-19(28)10-12-25(18,2)23(20)11-13-26(21,22)3/h17-23,28H,4-16H2,1-3H3,(H,27,29)(H,30,31,32)/t17-,18-,19-,20+,21-,22+,23+,25+,26-/m1/s1
Instrument: Agilent 6560 QTOF
Instrument type: LC-ESI-QTOF
Ms type: MS2
Ion mode: POSITIVE
Ionization: ESI
Fragmentation mode: CID
Collision energy: 40 eV
Resolution: 7000
Column name: Direct injection
Retention time: 0.181 min
Base peak: 415.2126
Precursor m/z: 466.2986
Precursor type: [M-H2O+H]+
Precursor intensity: 58899
m/z	relative intensity	assigned
70.0269	50	H6O4+
79.0545	23	C6H7+
81.0705	310	C6H9+
83.0857	157	C6H11+
91.0543	153	C7H7+
93.069	101	C7H9+
95.086	248	C7H11+
97.0656	21	C6H9O+
97.0996	40	C7H13+
98.9765	29	C3HNOS+
102.0898	70	C2H14O4+
105.0681	108	C8H9+
106.0634	39	C4H10O3+
107.0869	380	C8H11+
108.9949	48	C2H5O3S+
109.1014	298	C8H13+
111.2187	16	C3H29NO2+
119.0847	242	C9H11+
121.1008	322	C9H13+
123.1167	24	C9H15+
126.0222	999	C2H8NO3S+
127.0235	54	C6H7OS+
131.0869	123	C10H11+
133.1002	95	C10H13+
135.0821	62	C9H11O+
135.1173	382	C10H15+
137.0953	28	C9H13O+
141.068	31	C11H9+
145.1017	165	C11H13+
147.1189	87	C8H19S+
149.1321	380	C11H17+
150.1348	34	C7H20NS+
157.1008	31	C12H13+
159.115	92	C12H15+
163.1496	73	C12H19+
165.1321	13	C8H21OS+
166.0526	55	C5H12NO3S+
171.1193	50	C10H19S+
173.132	95	C13H17+
175.1457	78	C13H19+
177.1265	105	C12H17O+
177.1622	46	C13H21+
180.0322	64	C5H10NO4S+
187.1489	122	C14H19+
189.1685	96	C11H25S+
192.0341	37	C6H10NO4S+
194.0489	24	C6H12NO4S+
201.17	24	C11H23NO2+
202.1022	26	C10H18O2S+
203.1788	59	C15H23+
208.0601	69	C10H10NO4+
213.1609	35	C16H21+
215.179	143	C16H23+
219.1755	98	C15H23O+
231.1699	13	C16H23O+
241.1915	38	C18H25+
248.0906	21	C13H14NO4+
278.1368	20	C15H20NO4+
292.1586	24	C13H26NO4S+
297.2401	22	C18H33O3+
313.2897	54	C23H37+
323.2763	21	C21H39S+
341.2852	6	C24H37O+
342.2883	19	C24H38O+
