Mass spectrum: CL 14_1_14_1_14_1_15_1; LC-ESI-QTOF; MS2; CE: 20eV; R=7000; [M-H]-
Name: CL 14_1_14_1_14_1_15_1
Name: 1`-[1,2-di-(9Z-tetradecenoyl)-sn-glycero-3-phospho],3`-[1-(9Z-tetradecenoyl),2-(10Z-pentadecenoyl)-sn-glycero-3-phospho]-rac-glycerol
Name: [(2R)-1-[[3-[[(2R)-2,3-bis[[(Z)-tetradec-9-enoyl]oxy]propoxy]-hydroxyphosphoryl]oxy-2-hydroxypropoxy]-hydroxyphosphoryl]oxy-3-[(Z)-tetradec-9-enoyl]oxypropan-2-yl] (Z)-pentadec-10-enoate
Formula: C66H120O17P2
Exact mass: 1246.8001
SMILES: P(OC[C@]([H])(OC(CCCCCCC/C=C\CCCC)=O)COC(CCCCCCC/C=C\CCCC)=O)(O)(OCC(O)([H])COP(OC[C@]([H])(OC(CCCCCCCC/C=C\CCCC)=O)COC(CCCCCCC/C=C\CCCC)=O)(O)=O)=O
InChI: InChI=1S/C66H120O17P2/c1-5-9-13-17-21-25-29-33-37-41-45-49-53-66(71)83-62(57-77-64(69)51-47-43-39-35-31-27-23-19-15-11-7-3)59-81-85(74,75)79-55-60(67)54-78-84(72,73)80-58-61(82-65(70)52-48-44-40-36-32-28-24-20-16-12-8-4)56-76-63(68)50-46-42-38-34-30-26-22-18-14-10-6-2/h17-24,60-62,67H,5-16,25-59H2,1-4H3,(H,72,73)(H,74,75)/b21-17-,22-18-,23-19-,24-20-/t60?,61-,62-/m1/s1
Instrument: Agilent 6560 QTOF
Instrument type: LC-ESI-QTOF
Ms type: MS2
Ion mode: NEGATIVE
Ionization: ESI
Fragmentation mode: CID
Collision energy: 20 eV
Resolution: 7000
Column name: N/A
Retention time: 0.262 min
Base peak: 980.0164
Precursor m/z: 1245.7928
Precursor type: [M-H]-
Precursor intensity: 25506
m/z	relative intensity	assigned
80.9675	17	H3OP2-
131.126	20	C4H19O4-
132.2068	17	C6H28O2-
147.665	48	CH87O3-
225.1831	26	C7H30O5P-
226.932	16	C7HO5P2-
249.4499	18	C2H66O8P-
277.799	13	C2H110O7P-
297.049	27	C20H10OP-
297.3913	23	CH63O10P2-
325.1837	25	C7H34O11P-
327.5443	12	C6H81O7P2-
361.1828	48	C3H39O14P2-
379.7586	11	C4H108O12P-
540.489	10	C30H69O5P-
618.066	37	C41H15O5P-
658.4147	19	C31H62O14-
816.3803	16	C50H57O8P-
838.7235	11	C44H103O11P-
913.393	11	C51H62O13P-
1088.71	22	C65H101O11P-
1245.7989	999	C66H119O17P2-
