Mass spectrum: 1-palmitoyl-2-oleoyl-sn-glycero-3-phosphoethanol; LC-ESI-QTOF; MS2; CE: 40eV; R=7000; [M-H]-
Name: 1-palmitoyl-2-oleoyl-sn-glycero-3-phosphoethanol
Formula: C39H75O8P
Exact mass: 702.5200
SMILES: O=C(O[C@@H](COP(O)(=O)OCC)COC(=O)CCCCCCCCCCCCCCC)CCCCCCC/C=C\CCCCCCCC
InChI: InChI=1S/C39H75O8P/c1-4-7-9-11-13-15-17-19-20-22-24-26-28-30-32-34-39(41)47-37(36-46-48(42,43)45-6-3)35-44-38(40)33-31-29-27-25-23-21-18-16-14-12-10-8-5-2/h19-20,37H,4-18,21-36H2,1-3H3,(H,42,43)/b20-19-/t37-/m1/s1
Instrument: Agilent 6560 QTOF
Instrument type: LC-ESI-QTOF
Ms type: MS2
Ion mode: NEGATIVE
Ionization: ESI
Fragmentation mode: CID
Collision energy: 40 eV
Resolution: 7000
Column name: N/A
Retention time: 0.210 min
Base peak: 701.5147
Precursor m/z: 701.5127
Precursor type: [M-H]-
Precursor intensity: 1036508
m/z	relative intensity	assigned
78.9594	32	O3P-
89.0261	2	C3H5O3-
125.0014	31	C2H6O4P-
152.9948	4	C3H6O5P-
163.0127	2	C5H8O4P-
181.0266	43	C5H10O5P-
199.0369	2	C5H12O6P-
255.2338	391	C16H31O2-
256.2379	6	C9H37O5P-
279.2344	1	C18H31O2-
279.4632	1	C10H63O6-
279.5168	1	C15H67O2-
280.2427	1	C18H32O2-
281.2498	999	C18H33O2-
282.2529	36	C11H39O5P-
419.255	1	C21H40O6P-
437.2666	3	C21H42O7P-
438.2728	1	C21H43O7P-
456.237	1	C30H32O4-
604.3912	1	C35H57O6P-
634.3779	1	C39H55O5P-
