Mass spectrum: Capric acid; LC-ESI-QTOF; MS2; CE: 10eV; R=7000; [M-H]-
Name: Capric acid
Name: decanoic acid
Formula: C10H20O2
Exact mass: 172.1463
SMILES: CCCCCCCCCC(=O)O
InChI: InChI=1S/C10H20O2/c1-2-3-4-5-6-7-8-9-10(11)12/h2-9H2,1H3,(H,11,12)
Instrument: Agilent 6560 QTOF
Instrument type: LC-ESI-QTOF
Ms type: MS2
Ion mode: NEGATIVE
Ionization: ESI
Fragmentation mode: CID
Collision energy: 10 eV
Resolution: 7000
Column name: N/A
Retention time: 0.168 min
Base peak: 384.1825
Precursor m/z: 171.1391
Precursor type: [M-H]-
Precursor intensity: 55981
m/z	relative intensity	assigned
151.1098	11	C10H15O-
171.1392	999	C10H19O2-
