Mass spectrum: Tri-m-tolyl phosphate; LC-ESI-QTOF; MS2; CE: 25eV; R=7000; [M+H]+
Name: Tri-m-tolyl phosphate
Name: Tri-M-cresyl phosphate
Name: tris(3-methylphenyl) phosphate
Formula: C21H21O4P
Exact mass: 368.1177
SMILES: CC1=CC(=CC=C1)OP(=O)(OC2=CC=CC(=C2)C)OC3=CC=CC(=C3)C
InChI: InChI=1S/C21H21O4P/c1-16-7-4-10-19(13-16)23-26(22,24-20-11-5-8-17(2)14-20)25-21-12-6-9-18(3)15-21/h4-15H,1-3H3
Instrument: Agilent 6560 QTOF
Instrument type: LC-ESI-QTOF
Ms type: MS2
Ion mode: POSITIVE
Ionization: ESI
Fragmentation mode: CID
Collision energy: 25 eV
Resolution: 7000
Retention time: 0.145 min
Base peak: 391.1083
Precursor m/z: 369.125
Precursor type: [M+H]+
Precursor intensity: 147962.59
m/z	relative intensity	assigned
65.0386	86	C5H5+
79.0531	17	C6H7+
91.0543	803	C7H7+
92.0577	35	H13O3P+
98.9841	19	H4O4P+
105.07	17	C8H9+
107.0489	109	C7H7O+
109.0646	42	C7H9O+
115.0544	11	C9H7+
137.0143	10	C7H6OP+
141.0694	42	C11H9+
153.0705	99	C12H9+
154.0738	16	C5H15O3P+
165.0696	609	C13H9+
166.0773	999	C13H10+
167.0811	92	C6H16O3P+
169.0954	12	C6H18O3P+
178.078	28	C14H10+
179.0855	118	C14H11+
180.0922	40	C14H12+
181.1015	203	C14H13+
182.1045	20	C7H19O3P+
189.0297	52	C7H10O4P+
193.0987	11	C8H18O3P+
194.0707	12	C7H15O4P+
195.0787	10	C7H16O4P+
196.0884	108	C14H12O+
197.0954	34	C14H13O+
199.1108	64	C14H15O+
215.0638	9	C13H12OP+
215.0835	12	C10H16O3P+
226.076	9	C11H15O3P+
229.0996	14	C11H18O3P+
239.0835	21	C12H16O3P+
241.1008	46	C19H13+
243.0569	566	C14H12O2P+
244.0592	31	C14H13O2P+
255.1144	52	C13H20O3P+
256.049	11	C18H8O2+
256.1238	167	C20H16+
257.1306	19	C13H22O3P+
261.0671	205	C14H14O3P+
262.0701	29	C14H15O3P+
271.1457	11	C21H19+
279.0782	239	C14H16O4P+
280.0818	19	C14H17O4P+
333.1071	10	C21H18O2P+
369.1251	920	C21H22O4P+
