Mass spectrum: ((propane-2,2-diylbis(4,1-phenylene))bis(oxy))bis(3,6,9,12,15-pentaoxaheptadecane-17,1-diyl) bis(2-methylacrylate); LC-ESI-QTOF; MS2; CE: 10eV; R=7000; [M+NH4]+
Name: ((propane-2,2-diylbis(4,1-phenylene))bis(oxy))bis(3,6,9,12,15-pentaoxaheptadecane-17,1-diyl) bis(2-methylacrylate)
Name: Bismethacrylic acid [dimethylmethylenebis[1,4-phenyleneoxy(3,6,9,12,15-pentaoxaheptadecane-1,17-diyl)]] ester
Name: 2-[2-[2-[2-[2-[2-[4-[2-[4-[2-[2-[2-[2-[2-[2-(2-methylprop-2-enoyloxy)ethoxy]ethoxy]ethoxy]ethoxy]ethoxy]ethoxy]phenyl]propan-2-yl]phenoxy]ethoxy]ethoxy]ethoxy]ethoxy]ethoxy]ethyl 2-methylprop-2-enoate
Formula: C47H72O16
Exact mass: 892.4820
SMILES: CC(C1=CC=C(OCCOCCOCCOCCOCCOCCOC(C(C)=C)=O)C=C1)(C)C2=CC=C(OCCOCCOCCOCCOCCOCCOC(C(C)=C)=O)C=C2
InChI: InChI=1S/C47H72O16/c1-39(2)45(48)62-37-33-58-29-25-54-21-17-50-15-19-52-23-27-56-31-35-60-43-11-7-41(8-12-43)47(5,6)42-9-13-44(14-10-42)61-36-32-57-28-24-53-20-16-51-18-22-55-26-30-59-34-38-63-46(49)40(3)4/h7-14H,1,3,15-38H2,2,4-6H3
Instrument: Agilent 6560 QTOF
Instrument type: LC-ESI-QTOF
Ms type: MS2
Ion mode: POSITIVE
Ionization: ESI
Fragmentation mode: CID
Collision energy: 10 eV
Resolution: 7000
Column name: ZORBAX Extend-C18 3.5um, 2.1x50mm, Agilent Technologies
Retention time: 4.082 min
Base peak: 453.3483
Precursor m/z: 910.5159
Precursor type: [M+NH4]+
Precursor intensity: 174793.51
m/z	relative intensity	assigned
69.0336	8	C4H5O+
89.0594	3	C4H9O2+
113.0595	261	C6H9O2+
133.0841	5	C6H13O3+
140.1791	2	C7H24O2+
157.0859	4	C8H13O3+
161.0962	6	C11H13O+
187.1123	2	C13H15O+
205.1217	3	C13H17O2+
223.133	2	C13H19O3+
245.136	4	C12H21O5+
249.1494	4	C15H21O3+
291.1601	2	C17H23O4+
335.1831	7	C4H33NO15+
379.2116	13	C21H31O6+
423.236	12	C23H35O7+
467.2599	5	C35H33N+
511.2932	3	C30H41NO6+
893.4833	3	C47H73O16+
894.4897	3	C46H72NO16+
910.5192	999	C47H76NO16+
