Mass spectrum: Taurocholic acid; LC-ESI-QTOF; MS2; CE: 10eV; R=7000; [M+Na]+
Name: Taurocholic acid
Name: 2-[[(4R)-4-[(3R,5S,7R,8R,9S,10S,12S,13R,14S,17R)-3,7,12-trihydroxy-10,13-dimethyl-2,3,4,5,6,7,8,9,11,12,14,15,16,17-tetradecahydro-1H-cyclopenta[a]phenanthren-17-yl]pentanoyl]amino]ethanesulfonic acid
Formula: C26H45NO7S
Exact mass: 515.2917
SMILES: C[C@H](CCC(=O)NCCS(=O)(=O)O)[C@H]1CC[C@@H]2[C@@]1([C@H](C[C@H]3[C@H]2[C@@H](C[C@H]4[C@@]3(CC[C@H](C4)O)C)O)O)C
InChI: InChI=1S/C26H45NO7S/c1-15(4-7-23(31)27-10-11-35(32,33)34)18-5-6-19-24-20(14-22(30)26(18,19)3)25(2)9-8-17(28)12-16(25)13-21(24)29/h15-22,24,28-30H,4-14H2,1-3H3,(H,27,31)(H,32,33,34)/t15-,16+,17-,18-,19+,20+,21-,22+,24+,25+,26-/m1/s1
Instrument: Agilent 6560 QTOF
Instrument type: LC-ESI-QTOF
Ms type: MS2
Ion mode: POSITIVE
Ionization: ESI
Fragmentation mode: CID
Collision energy: 10 eV
Resolution: 7000
Column name: Direct injection
Retention time: 0.209 min
Base peak: 398.243
Precursor m/z: 538.2809
Precursor type: [M+Na]+
Precursor intensity: 37885
m/z	relative intensity	assigned
148.0049	98	C2H7NNaO3S+
148.0253	15	C4H6NO5+
227.1454	26	C13H23OS+
255.1744	21	C18H23O+
271.167	38	C16H24NaO2+
299.0059	17	C14H5NO7+
311.2173	37	C16H32NaO4+
359.2312	17	C13H38NNaO6S+
377.2478	29	C26H33O2+
395.258	202	C26H35O3+
396.262	45	C24H37NaO3+
396.3099	4	C23H42NO4+
413.2643	457	C24H38NaO4+
414.2681	52	C22H40NO4S+
419.1046	50	C20H21NO7S+
456.9419	46	C24H2NaO7S+
468.2438	11	C24H38NO6S+
484.2036	43	C25H35NNaO5S+
484.2467	165	C23H41NaO7S+
485.2446	14	C24H39NO7S+
502.2607	263	C26H41NNaO5S+
503.2621	56	C26H42NNaO5S+
520.2704	495	C26H43NNaO6S+
521.2751	119	C26H44NNaO6S+
538.2802	999	C26H45NNaO7S+
