Mass spectrum: Mono-2-(propyl-6-oxoheptyl)-phthalate; LC-ESI-QTOF; MS2; CE: 20eV; R=7000; [M-H]-
Name: Mono-2-(propyl-6-oxoheptyl)-phthalate
Name: 2-(((6-Oxo-2-propylheptyl)oxy)carbonyl)benzoic Acid
Name: 2-(6-oxo-2-propylheptoxy)carbonylbenzoic acid
Formula: C18H24O5
Exact mass: 320.1624
SMILES: CCCC(CCCC(C)=O)COC(=O)c1ccccc1C(=O)O
InChI: InChI=1S/C18H24O5/c1-3-7-14(9-6-8-13(2)19)12-23-18(22)16-11-5-4-10-15(16)17(20)21/h4-5,10-11,14H,3,6-9,12H2,1-2H3,(H,20,21)
Instrument: Agilent 6560 QTOF
Instrument type: LC-ESI-QTOF
Ms type: MS2
Ion mode: NEGATIVE
Ionization: ESI
Fragmentation mode: CID
Collision energy: 20 eV
Resolution: 7000
Column name: ZORBAX Extend-C18 3.5um, 2.1x50mm, Agilent Technologies
Retention time: 3.945 min
Base peak: 319.1563
Precursor m/z: 319.1551
Precursor type: [M-H]-
Precursor intensity: 128178.88
m/z	relative intensity	assigned
51.0241	4	C4H3-
57.0356	84	C3H5O-
69.0346	11	C4H5O-
71.0504	9	C4H7O-
77.0399	486	C6H5-
85.0662	29	C5H9O-
99.0828	8	C6H11O-
105.0343	6	C7H5O-
109.1018	9	C8H13-
119.0505	33	C8H7O-
121.0298	999	C7H5O2-
123.0814	6	C8H11O-
125.0977	28	C8H13O-
127.1132	43	C8H15O-
134.0367	6	C8H6O2-
137.0983	4	C9H13O-
139.1129	4	C9H15O-
141.1287	42	C9H17O-
147.0081	22	C8H3O3-
151.1124	25	C10H15O-
155.109	7	C9H15O2-
169.1242	8	C10H17O2-
171.1396	109	C10H19O2-
238.1189	3	C13H18O4-
