Mass spectrum: N-Heptadecanoyl-D-erythro-Sphingosine; LC-ESI-QTOF; MS2; CE: 10eV; R=7000; [M+H]+
Name: N-Heptadecanoyl-D-erythro-Sphingosine
Name: N-Heptadecanoylsphingosine
Name: N-[(E,2S,3R)-1,3-dihydroxyoctadec-4-en-2-yl]heptadecanamide
Formula: C35H69NO3
Exact mass: 551.5277
SMILES: OC[C@H](NC(CCCCCCCCCCCCCCCC)=O)[C@H](O)/C=C/CCCCCCCCCCCCC
InChI: InChI=1S/C35H69NO3/c1-3-5-7-9-11-13-15-17-19-21-23-25-27-29-31-35(39)36-33(32-37)34(38)30-28-26-24-22-20-18-16-14-12-10-8-6-4-2/h28,30,33-34,37-38H,3-27,29,31-32H2,1-2H3,(H,36,39)/b30-28+/t33-,34+/m0/s1
Instrument: Agilent 6560 QTOF
Instrument type: LC-ESI-QTOF
Ms type: MS2
Ion mode: POSITIVE
Ionization: ESI
Fragmentation mode: CID
Collision energy: 10 eV
Resolution: 7000
Column name: Direct injection
Retention time: 0.161 min
Base peak: 574.5188
Precursor m/z: 552.535
Precursor type: [M+H]+
Precursor intensity: 261766
m/z	relative intensity	assigned
83.0485	1	C5H7O+
83.0849	6	C6H11+
85.0996	3	C6H13+
93.0689	5	C7H9+
95.0859	1	C7H11+
121.1005	5	C9H13+
135.1152	6	C10H15+
149.1316	5	C11H17+
193.1555	2	C13H21O+
198.1355	1	C15H18+
247.2376	4	C18H31+
252.2695	52	C17H34N+
264.2693	852	C18H34N+
265.2731	88	C15H37O3+
270.2789	17	C17H36NO+
271.2804	1	C17H37NO+
282.2803	117	C18H36NO+
283.2912	8	C18H37NO+
294.2822	3	C19H36NO+
371.102	2	C27H15O2+
504.5158	20	C34H66NO+
505.5145	9	C34H67NO+
516.5141	126	C35H66NO+
517.5193	30	C35H67NO+
534.5257	999	C35H68NO2+
535.528	142	C35H69NO2+
540.5313	2	C34H70NO3+
