Mass spectrum: SPERMINE; LC-ESI-QTOF; MS2; CE: 10eV; R=5000; [M+H]+
Name: SPERMINE
Name: N,N`-bis(3-aminopropyl)butane-1,4-diamine
Formula: C10H26N4
Exact mass: 202.21575
SMILES: NCCCNCCCCNCCCN
InChI: InChI=1S/C10H26N4/c11-5-3-9-13-7-1-2-8-14-10-4-6-12/h13-14H,1-12H2
Instrument: Agilent 6530 QTOF
Instrument type: LC-ESI-QTOF
Ms type: MS2
Ion mode: POSITIVE
Ionization: ESI
Fragmentation mode: CID
Collision energy: 10 eV
Resolution: 5000
Column name: N/A
Retention time: 0.183 min
Base peak: 203.2235
Precursor m/z: 203.223
Precursor type: [M+H]+
Precursor intensity: 5337166
m/z	relative intensity	assigned
41.0393	1	C3H5+
56.0493	2	C3H6N+
58.0665	100	C3H8N+
62.0597	1	H6N4+
70.0655	6	C4H8N+
72.082	60	C4H10N+
75.0931	1	C3H11N2+
84.0821	257	C5H10N+
98.097	1	C6H12N+
102.0915	4	C3H10N4+
103.0956	1	C3H11N4+
112.1134	999	C7H14N+
127.1233	2	C7H15N2+
129.1402	882	C7H17N2+
203.2258	292	C10H27N4+
