Mass spectrum: D-lactosyl-beta-1,1 N-octanoyl-D-erythro-sphingosine; LC-ESI-QTOF; MS2; CE: 40eV; R=7000; [M+H]+
Name: D-lactosyl-beta-1,1 N-octanoyl-D-erythro-sphingosine
Name: C8 Lactosyl(beta) Ceramide (d18:1/8:0), D-lactosyl-beta-1,1` N-octanoyl-D-erythro-sphingosine, powder
Name: N-[(E,2S,3R)-1-[(2R,5S,6R)-3,4-dihydroxy-6-(hydroxymethyl)-5-[(2S,5R,6R)-3,4,5-trihydroxy-6-(hydroxymethyl)oxan-2-yl]oxyoxan-2-yl]oxy-3-hydroxyoctadec-4-en-2-yl]octanamide
Formula: C38H71NO13
Exact mass: 749.4925
SMILES: CCCCCCCCCCCCC/C=C/[C@H]([C@H](CO[C@H]1C(C([C@@H]([C@H](O1)CO)O[C@H]2C(C([C@H]([C@H](O2)CO)O)O)O)O)O)NC(=O)CCCCCCC)O
InChI: InChI=1S/C38H71NO13/c1-3-5-7-9-10-11-12-13-14-15-16-18-19-21-27(42)26(39-30(43)22-20-17-8-6-4-2)25-49-37-35(48)33(46)36(29(24-41)51-37)52-38-34(47)32(45)31(44)28(23-40)50-38/h19,21,26-29,31-38,40-42,44-48H,3-18,20,22-25H2,1-2H3,(H,39,43)/b21-19+/t26-,27+,28+,29+,31-,32?,33?,34?,35?,36+,37+,38-/m0/s1
Instrument: Agilent 6560 QTOF
Instrument type: LC-ESI-QTOF
Ms type: MS2
Ion mode: POSITIVE
Ionization: ESI
Fragmentation mode: CID
Collision energy: 40 eV
Resolution: 7000
Column name: Direct injection
Retention time: 0.180 min
Base peak: 750.5016
Precursor m/z: 750.4998
Precursor type: [M+H]+
Precursor intensity: 209697
m/z	relative intensity	assigned
70.0654	4	C4H8N+
73.029	7	C3H5O2+
79.0553	3	C6H7+
80.0507	2	C5H6N+
81.0325	2	C5H5O+
81.0696	10	C6H9+
82.0655	9	C5H8N+
85.0279	16	C4H5O2+
93.0701	1	C7H9+
95.0869	17	C7H11+
97.0287	1	C5H5O2+
97.101	7	C7H13+
107.0871	1	C8H11+
109.1028	3	C8H13+
111.1193	3	C8H15+
115.0405	4	C8H5N+
121.1006	4	C9H13+
127.1122	3	C8H15O+
135.1145	4	C10H15+
137.1307	2	C10H17+
144.1368	26	C5H20O4+
145.0511	8	C9H7NO+
149.1313	5	C11H17+
168.1367	7	C7H20O4+
211.204	4	C14H27O+
252.2691	106	C17H34N+
253.2696	9	C6H39NO8+
256.9607	1	C4H3NO12+
264.2695	999	C18H34N+
265.2726	67	H43NO13+
282.28	142	C18H36NO+
283.2819	12	C15H39O4+
321.0248	3	C14H9O9+
378.3738	18	C25H48NO+
379.3765	3	C22H51O4+
383.0848	3	C16H17NO10+
390.3716	15	C23H50O4+
391.3739	5	C15H53NO9+
392.3878	6	C26H50NO+
408.3838	26	C26H50NO2+
409.389	6	C23H53O5+
413.2663	1	C26H37O4+
460.9442	2	C21HO13+
551.2238	4	C38H31O4+
