Mass spectrum: Butyryl trihexyl citrate; LC-ESI-QTOF; MS2; CE: 20eV; R=7000; [M+H]+
Name: Butyryl trihexyl citrate
Name: trihexyl 2-butanoyloxypropane-1,2,3-tricarboxylate
Formula: C28H50O8
Exact mass: 514.3506
SMILES: CCCCCCOC(=O)CC(CC(=O)OCCCCCC)(C(=O)OCCCCCC)OC(=O)CCC
InChI: InChI=1S/C28H50O8/c1-5-9-12-15-19-33-25(30)22-28(36-24(29)18-8-4,27(32)35-21-17-14-11-7-3)23-26(31)34-20-16-13-10-6-2/h5-23H2,1-4H3
Instrument: Agilent 6560 QTOF
Instrument type: LC-ESI-QTOF
Ms type: MS2
Ion mode: POSITIVE
Ionization: ESI
Fragmentation mode: CID
Collision energy: 20 eV
Resolution: 7000
Retention time: 0.108 min
Base peak: 537.3395
Precursor m/z: 515.3578
Precursor type: [M+H]+
Precursor intensity: 101690.06
m/z	relative intensity	assigned
57.0703	69	C4H9+
68.9977	16	C3HO2+
71.0495	441	C4H7O+
83.0856	11	C6H11+
85.1011	174	C6H13+
87.0079	10	C3H3O3+
89.0598	142	C4H9O2+
111.0071	117	C5H3O3+
129.0186	999	C5H5O4+
139.0026	521	C6H3O4+
147.0275	28	C5H7O5+
157.0131	126	C6H5O5+
158.0153	15	C13H2+
213.1124	319	C11H17O4+
214.1162	16	C11H18O4+
231.1238	9	C11H19O5+
245.0658	24	C10H13O7+
315.2161	39	C17H31O5+
