Mass spectrum: N-Palmitoyl-D-sphingosine; LC-ESI-QTOF; MS2; CE: 40eV; R=7000; [M+CH3COO]-
Name: N-Palmitoyl-D-sphingosine
Name: N-Palmitoylsphingosine
Name: N-[(E,2S,3R)-1,3-dihydroxyoctadec-4-en-2-yl]hexadecanamide
Formula: C34H67NO3
Exact mass: 537.5121
SMILES: [H][C@@](CO)(NC(=O)CCCCCCCCCCCCCCC)[C@H](O)\C=C\CCCCCCCCCCCCC
InChI: InChI=1S/C34H67NO3/c1-3-5-7-9-11-13-15-17-19-21-23-25-27-29-33(37)32(31-36)35-34(38)30-28-26-24-22-20-18-16-14-12-10-8-6-4-2/h27,29,32-33,36-37H,3-26,28,30-31H2,1-2H3,(H,35,38)/b29-27+/t32-,33+/m0/s1
Instrument: Agilent 6560 QTOF
Instrument type: LC-ESI-QTOF
Ms type: MS2
Ion mode: NEGATIVE
Ionization: ESI
Fragmentation mode: CID
Collision energy: 40 eV
Resolution: 7000
Column name: N/A
Retention time: 0.147 min
Base peak: 596.5277
Precursor m/z: 596.5259
Precursor type: [M+CH3COO]-
Precursor intensity: 294891
m/z	relative intensity	assigned
84.0229	4	C4H4O2-
95.0486	10	C6H7O-
95.0714	1	C3H11O3-
105.2664	1	C2H35NO2-
128.1466	2	C8H18N-
170.0855	5	C8H12NO3-
207.2113	3	C15H27-
209.1901	2	C14H25O-
217.1324	1	C10H19NO4-
219.2107	1	C16H27-
219.2605	1	C13H33NO-
220.214	1	C8H30NO5-
221.252	3	C13H33O2-
221.2751	1	C13H35NO-
223.5051	1	C9H67O3-
225.2208	10	C15H29O-
225.2514	2	C8H35NO5-
226.225	1	C15H30O-
230.4208	2	C8H56NO4-
235.2077	14	C16H27O-
237.2222	615	C16H29O-
238.2253	47	C16H30O-
238.3268	2	C15H42O-
238.4419	2	C14H56N-
239.2408	4	C16H31O-
249.2158	5	C16H27NO-
250.2532	11	C17H32N-
251.2566	2	C14H35O3-
252.0842	1	C19H10N-
253.2534	48	C17H33O-
254.2484	196	C16H32NO-
255.2337	77	C16H31O2-
256.2341	11	C15H30NO2-
263.238	72	C18H31O-
264.2408	17	C18H32O-
265.2514	6	C18H33O-
266.2498	47	C17H32NO-
267.2535	1	C14H35O4-
268.2663	28	C17H34NO-
278.2469	15	C15H34O4-
278.4905	3	C11H66O5-
278.5316	5	C15H68NO-
279.2527	2	C15H35O4-
280.2643	999	C18H34NO-
281.2662	64	C15H37O4-
281.513	4	C11H69O5-
287.1046	1	C20H15O2-
294.2404	7	C15H34O5-
294.4352	1	C16H56NO2-
294.534	3	C16H70O2-
295.2486	14	C15H35O5-
296.2589	129	C18H34NO2-
297.2616	1	C22H33-
298.2739	3	C18H36NO2-
298.3472	1	C20H44N-
310.271	12	C16H38O5-
321.2665	5	C20H35NO2-
354.3879	2	C24H50O-
356.3052	1	C25H40O-
393.2262	2	C29H29O-
398.4538	3	C23H60NO3-
414.1801	1	C27H26O4-
430.5074	4	C29H66O-
448.5226	1	C29H68O2-
458.3976	1	C27H54O5-
461.478	1	C28H63NO3-
470.4764	5	C26H64NO5-
479.135	1	C36H17NO-
487.287	1	C35H37NO-
488.4829	77	C33H62NO-
489.4917	31	C33H63NO-
490.041	1	C35H8NO3-
490.5014	5	C33H64NO-
503.5321	5	C31H69NO3-
504.4813	42	C33H62NO2-
505.1443	3	C35H21O4-
505.4805	12	C30H65O5-
506.4938	50	C33H64NO2-
507.498	5	C30H67O5-
514.4837	2	C31H64NO4-
526.3165	2	C35H42O4-
536.5017	23	C34H66NO3-
548.3736	3	C35H50NO4-
