Mass spectrum: 2-Aminobenzothiazole; LC-ESI-QTOF; MS2; CE: 40eV; R=7000; [M+H]+
Name: 2-Aminobenzothiazole
Name: 1,3-benzothiazol-2-amine
Formula: C7H6N2S
Exact mass: 150.0252
SMILES: C1=CC=C2C(=C1)N=C(S2)N
InChI: InChI=1S/C7H6N2S/c8-7-9-5-3-1-2-4-6(5)10-7/h1-4H,(H2,8,9)
Instrument: Agilent 6560 QTOF
Instrument type: LC-ESI-QTOF
Ms type: MS2
Ion mode: POSITIVE
Ionization: ESI
Fragmentation mode: CID
Collision energy: 40 eV
Resolution: 7000
Retention time: 0.150 min
Base peak: 151.0331
Precursor m/z: 151.0324
Precursor type: [M+H]+
Precursor intensity: 232031.14
m/z	relative intensity	assigned
51.0237	28	C4H3+
52.0188	4	C3H2N+
53.0389	39	C4H5+
59.9901	15	CH2NS+
63.0233	62	C5H3+
64.0184	20	C4H2N+
64.03	8	C5H4+
65.0386	999	C5H5+
66.0462	13	C5H6+
68.9796	153	C3HS+
70.994	4	C3H3S+
77.0387	80	C6H5+
80.0494	239	C5H6N+
81.9883	6	C4H2S+
82.9956	14	C4H3S+
90.0331	46	C6H4N+
91.0418	61	C6H5N+
92.0491	29	C6H6N+
92.9779	2	C5HS+
93.0568	4	C6H7N+
96.0021	6	C5H4S+
97.0104	24	C5H5S+
106.9961	4	C6H3S+
108.003	39	C6H4S+
109.0104	368	C6H5S+
110.0158	2	C6H6S+
117.0436	2	C7H5N2+
118.0526	50	C7H6N2+
124.0211	30	C6H6NS+
132.9971	4	C7H3NS+
134.0052	5	C7H4NS+
135.0128	3	C7H5NS+
150.0253	3	C7H6N2S+
151.0314	12	C7H7N2S+
