Mass spectrum: 1,2-Dipalmitoyl-rac-glycerol; LC-ESI-QTOF; MS2; CE: 40eV; R=7000; [M+NH4]+
Name: 1,2-Dipalmitoyl-rac-glycerol
Name: 1,2-Dipalmitoyl-sn-glycerol
Name: [(2S)-2-hexadecanoyloxy-3-hydroxypropyl] hexadecanoate
Formula: C35H68O5
Exact mass: 568.5067
SMILES: [H][C@](CO)(COC(=O)CCCCCCCCCCCCCCC)OC(=O)CCCCCCCCCCCCCCC
InChI: InChI=1S/C35H68O5/c1-3-5-7-9-11-13-15-17-19-21-23-25-27-29-34(37)39-32-33(31-36)40-35(38)30-28-26-24-22-20-18-16-14-12-10-8-6-4-2/h33,36H,3-32H2,1-2H3/t33-/m0/s1
Instrument: Agilent 6560 QTOF
Instrument type: LC-ESI-QTOF
Ms type: MS2
Ion mode: POSITIVE
Ionization: ESI
Fragmentation mode: CID
Collision energy: 40 eV
Resolution: 7000
Column name: Direct injection
Retention time: 0.212 min
Base peak: 591.4977
Precursor m/z: 586.5405
Precursor type: [M+NH4]+
Precursor intensity: 29700
m/z	relative intensity	assigned
71.0858	752	C5H11+
81.0701	790	C6H9+
83.0848	309	C6H11+
85.0642	43	C5H9O+
85.1022	303	C6H13+
87.0446	48	C4H7O2+
89.0591	310	C4H9O2+
95.0851	999	C7H11+
97.1007	86	C7H13+
99.0822	81	C6H11O+
109.1013	350	C8H13+
123.1161	141	C9H15+
221.1583	172	C10H23NO4+
221.1902	24	C15H25O+
256.2599	40	C13H36O4+
257.2484	192	C16H33O2+
313.2748	822	C19H37O3+
418.2473	27	C28H34O3+
485.2658	33	C32H37O4+
551.4968	20	C34H65NO4+
