Mass spectrum: 1-(9Z-octadecenoyl)-sn-glycero-3-phosphoethanolamine; LC-ESI-QTOF; MS2; CE: 10eV; R=7000; [M+Na]+
Name: 1-(9Z-octadecenoyl)-sn-glycero-3-phosphoethanolamine
Name: [(2R)-3-[2-aminoethoxy(hydroxy)phosphoryl]oxy-2-hydroxypropyl] (Z)-octadec-9-enoate
Formula: C23H46NO7P
Exact mass: 479.3012
SMILES: CCCCCCCC/C=C\CCCCCCCC(=O)OC[C@H](COP(=O)([O-])OCC[NH3+])O
InChI: InChI=1S/C23H46NO7P/c1-2-3-4-5-6-7-8-9-10-11-12-13-14-15-16-17-23(26)29-20-22(25)21-31-32(27,28)30-19-18-24/h9-10,22,25H,2-8,11-21,24H2,1H3,(H,27,28)/b10-9-/t22-/m1/s1
Instrument: Agilent 6560 QTOF
Instrument type: LC-ESI-QTOF
Ms type: MS2
Ion mode: POSITIVE
Ionization: ESI
Fragmentation mode: CID
Collision energy: 10 eV
Resolution: 7000
Column name: Direct injection
Retention time: 0.212 min
Base peak: 480.31
Precursor m/z: 502.2904
Precursor type: [M+Na]+
Precursor intensity: 24484
m/z	relative intensity	assigned
104.9932	29	C4H2NaO2+
120.9649	54	H3NaO4P+
164.0057	110	C6H5NaO4+
187.0964	67	C9H15O4+
211.2049	66	C14H27O+
262.9743	81	C12H3NNaO3P+
277.1772	21	C15H26NaO3+
338.9637	70	C23O2P+
339.2854	197	C12H45NaO6P+
380.2807	25	C21H42NaO2P+
417.9655	32	C22H4NaO6P+
420.9713	321	C21H5NNaO6P+
441.2346	310	C21H39NaO6P+
443.0981	41	C23H18NNaO7+
459.2497	615	C23H40O7P+
460.2548	28	C21H42NaO7P+
502.2909	999	C23H46NNaO7P+
