Mass spectrum: 5-Chlorobenzotriazole; LC-ESI-QTOF; MS2; CE: 50eV; R=7000; [M+H]+
Name: 5-Chlorobenzotriazole
Name: 5-chloro-2H-benzotriazole
Formula: C6H4ClN3
Exact mass: 153.0094
SMILES: C1=CC2=NNN=C2C=C1Cl
InChI: InChI=1S/C6H4ClN3/c7-4-1-2-5-6(3-4)9-10-8-5/h1-3H,(H,8,9,10)
Instrument: Agilent 6560 QTOF
Instrument type: LC-ESI-QTOF
Ms type: MS2
Ion mode: POSITIVE
Ionization: ESI
Fragmentation mode: CID
Collision energy: 50 eV
Resolution: 7000
Retention time: 0.153 min
Base peak: 154.0166
Precursor m/z: 154.0167
Precursor type: [M+H]+
Precursor intensity: 6912.45
m/z	relative intensity	assigned
52.0175	249	C3H2N+
62.0152	407	C5H2+
63.0231	999	C5H3+
72.9841	917	C3H2Cl+
