Mass spectrum: N-ACETYLALANINE; LC-ESI-QTOF; MS2; CE: 20eV; R=5000; [M+H]+
Name: N-ACETYLALANINE
Name: N-Acetyl-L-alanine
Name: (2S)-2-acetamidopropanoic acid
Formula: C5H9NO3
Exact mass: 131.0582
SMILES: C[C@H](NC(C)=O)C(O)=O
InChI: InChI=1S/C5H9NO3/c1-3(5(8)9)6-4(2)7/h3H,1-2H3,(H,6,7)(H,8,9)/t3-/m0/s1
Instrument: Agilent 6530 QTOF
Instrument type: LC-ESI-QTOF
Ms type: MS2
Ion mode: POSITIVE
Ionization: ESI
Fragmentation mode: CID
Collision energy: 20 eV
Resolution: 5000
Column name: N/A
Retention time: 0.216 min
Base peak: 922.0098
Precursor m/z: 132.0655
Precursor type: [M+H]+
Precursor intensity: 96880
m/z	relative intensity	assigned
43.0179	267	C2H3O+
44.0498	999	C2H6N+
70.0627	7	CH10O3+
90.0529	59	C3H8NO2+
