Mass spectrum: GUANINE; LC-ESI-QTOF; MS2; CE: 40eV; R=5000; [M+H]+
Name: GUANINE
Name: CID 764
Name: 2-amino-3,7-dihydropurin-6-one
Formula: C5H5N5O
Exact mass: 151.04941
SMILES: NC1=NC(=O)C2=C(N1)N=CN2
InChI: InChI=1S/C5H5N5O/c6-5-9-3-2(4(11)10-5)7-1-8-3/h1H,(H4,6,7,8,9,10,11)
Instrument: Agilent 6530 QTOF
Instrument type: LC-ESI-QTOF
Ms type: MS2
Ion mode: POSITIVE
Ionization: ESI
Fragmentation mode: CID
Collision energy: 40 eV
Resolution: 5000
Column name: N/A
Retention time: 0.221 min
Base peak: 121.0508
Precursor m/z: 152.0567
Precursor type: [M+H]+
Precursor intensity: 32223
m/z	relative intensity	assigned
43.0285	489	CH3N2+
53.0137	999	C2HN2+
55.0287	850	C2H3N2+
65.012	361	C3HN2+
69.0079	33	C2HN2O+
80.0256	309	C5H4O+
82.0402	558	C3H4N3+
92.0245	141	C4H2N3+
107.0354	113	C4H3N4+
135.0288	52	C5H3N4O+
