Mass spectrum: METHYL4-AMINOBUTYRATE; LC-ESI-QTOF; MS2; CE: 40eV; R=5000; [M+H]+
Name: METHYL4-AMINOBUTYRATE
Name: methyl 4-aminobutanoate
Formula: C5H11NO2
Exact mass: 117.07898
SMILES: COC(CCCN)=O
InChI: InChI=1S/C5H11NO2/c1-8-5(7)3-2-4-6/h2-4,6H2,1H3
Instrument: Agilent 6530 QTOF
Instrument type: LC-ESI-QTOF
Ms type: MS2
Ion mode: POSITIVE
Ionization: ESI
Fragmentation mode: CID
Collision energy: 40 eV
Resolution: 5000
Column name: N/A
Retention time: 0.565 min
Base peak: 121.0508
Precursor m/z: 118.0863
Precursor type: [M+H]+
Precursor intensity: 52525
m/z	relative intensity	assigned
41.0383	524	C3H5+
44.0122	21	CH2NO+
45.0337	18	C2H5O+
48.0201	2	CH4O2+
58.0647	999	C3H8N+
59.0117	122	C2H3O2+
68.049	33	C4H6N+
69.0324	36	C4H5O+
