Mass spectrum: Liothyronine; LC-ESI-QTOF; MS2; CE: 40eV; R=7000; [M+H]+
Name: Liothyronine
Name: (2S)-2-amino-3-[4-(4-hydroxy-3-iodophenoxy)-3,5-diiodophenyl]propanoic acid
Formula: C15H12I3NO4
Exact mass: 650.7901
SMILES: N[C@@H](CC1=CC(I)=C(OC2=CC=C(O)C(I)=C2)C(I)=C1)C(O)=O
InChI: InChI=1S/C15H12I3NO4/c16-9-6-8(1-2-13(9)20)23-14-10(17)3-7(4-11(14)18)5-12(19)15(21)22/h1-4,6,12,20H,5,19H2,(H,21,22)/t12-/m0/s1
Instrument: Agilent 6560 QTOF
Instrument type: LC-ESI-QTOF
Ms type: MS2
Ion mode: POSITIVE
Ionization: ESI
Fragmentation mode: CID
Collision energy: 40 eV
Resolution: 7000
Column name: Direct injection
Retention time: 0.211 min
Base peak: 437.1944
Precursor m/z: 651.7973
Precursor type: [M+H]+
Precursor intensity: 144268
m/z	relative intensity	assigned
74.0239	17	C2H4NO2+
84.0804	33	C5H10N+
90.0455	12	C7H6+
92.024	17	C6H4O+
104.0493	84	C7H6N+
105.0581	45	C7H7N+
106.0431	51	C7H6O+
108.0204	41	C6H4O2+
117.0567	56	C8H7N+
118.0657	52	C8H8N+
128.0607	34	C10H8+
132.0174	8	C8H4O2+
132.0438	28	C8H6NO+
147.0627	26	C6H11O4+
155.0492	20	C11H7O+
160.0157	101	C9H4O3+
165.0697	9	C13H9+
180.0559	59	C13H8O+
183.0406	40	C12H7O2+
184.0528	521	C12H8O2+
185.0595	34	C12H9O2+
196.0782	20	C13H10NO+
197.0586	376	C13H9O2+
198.0676	626	C13H10O2+
206.0558	10	C11H10O4+
208.0497	71	C14H8O2+
209.0635	7	C14H9O2+
210.0659	13	C14H10O2+
211.0397	64	C13H7O3+
212.0455	56	C13H8O3+
216.9498	105	C7H6I+
219.9372	143	C6H5IO+
220.9408	31	C6H6IO+
223.0631	81	C14H9NO2+
224.0705	321	C14H10NO2+
225.0791	762	C14H11NO2+
226.064	158	C14H10O3+
231.9606	30	C7H7IN+
232.9438	78	C7H6IO+
233.9439	15	C6H5INO+
234.9222	33	C6H4IO2+
235.9325	9	C6H5IO2+
236.0471	9	C15H8O3+
243.9308	8	C7H3INO+
243.9626	24	C8H7IN+
245.9404	29	C7H5INO+
253.0466	47	C15H9O4+
254.0568	337	C15H10O4+
255.0617	30	C15H11O4+
259.9548	194	C5H9IO4+
262.9822	55	C8H10INO+
286.918	51	C9H4IO3+
287.9297	29	C12H3IN+
294.9565	21	C12H8IO+
295.9609	14	C11H7INO+
306.96	94	C13H8IO+
307.9624	7	C12H7INO+
309.9421	19	C11H5INO2+
318.985	23	C14H10IN+
322.9557	40	C13H8IO2+
323.9635	119	C13H9IO2+
324.9723	346	C13H10IO2+
333.9441	28	C14H7IO2+
334.954	132	C14H8IO2+
335.9617	91	C14H9IO2+
338.9531	8	C13H8IO3+
349.969	27	C14H9INO2+
350.9751	170	C14H10INO2+
351.9814	123	C14H11INO2+
352.969	125	C14H10IO3+
353.9723	15	C14H11IO3+
358.8356	24	C6H3I2NO+
359.8511	10	C7H6I2O+
361.939	33	C15H7IO3+
362.951	28	C15H8IO3+
370.8714	28	C8H7I2N+
380.9634	79	C15H10IO4+
433.8669	9	C13H8I2O+
435.8425	33	C12H6I2O2+
437.8579	66	C12H8I2O2+
438.859	9	C11H7I2NO2+
448.8517	19	C13H7I2O2+
450.8655	525	C13H9I2O2+
451.8759	293	C13H10I2O2+
452.8764	21	C12H9I2NO2+
461.873	58	C10H10I2NO4+
462.8673	52	C14H9I2O2+
465.8554	265	C13H8I2O3+
466.859	15	C13H9I2O3+
477.8779	107	C14H10I2NO2+
478.8859	999	C14H11I2NO2+
479.8867	75	C14H12I2NO2+
506.8553	39	C15H9I2O4+
507.8592	38	C14H8I2NO4+
588.7682	9	C14H8I3O2+
592.7532	51	C12H6I3NO3+
605.7909	456	C14H11I3NO2+
606.7912	28	C14H12I3NO2+
