Mass spectrum: Kynurenate; LC-ESI-QTOF; MS2; CE: 40eV; R=5000; [M+H]+
Name: Kynurenate
Name: Kynurenic acid
Name: 4-oxo-1H-quinoline-2-carboxylic acid
Formula: C10H7NO3
Exact mass: 189.0426
SMILES: OC(=O)C1=CC(=O)C2=CC=CC=C2N1
InChI: InChI=1S/C10H7NO3/c12-9-5-8(10(13)14)11-7-4-2-1-3-6(7)9/h1-5H,(H,11,12)(H,13,14)
Instrument: Agilent 6530 QTOF
Instrument type: LC-ESI-QTOF
Ms type: MS2
Ion mode: POSITIVE
Ionization: ESI
Fragmentation mode: CID
Collision energy: 40 eV
Resolution: 5000
Column name: N/A
Retention time: 0.254 min
Base peak: 121.0508
Precursor m/z: 190.0499
Precursor type: [M+H]+
Precursor intensity: 74095
m/z	relative intensity	assigned
63.0222	148	C5H3+
65.0375	82	C5H5+
68.0134	17	C3H2NO+
89.0366	999	C7H5+
100.0157	40	C4H4O3+
116.0454	547	C5H8O3+
118.9976	8	C6HNO2+
142.0683	4	C10H8N+
173.0089	7	C9H3NO3+
