Mass spectrum: Myristic acid; LC-ESI-QTOF; MS2; CE: 20eV; R=7000; [M-H]-
Name: Myristic acid
Name: tetradecanoic acid
Formula: C14H28O2
Exact mass: 228.2089
SMILES: CCCCCCCCCCCCCC(=O)O
InChI: InChI=1S/C14H28O2/c1-2-3-4-5-6-7-8-9-10-11-12-13-14(15)16/h2-13H2,1H3,(H,15,16)
Instrument: Agilent 6560 QTOF
Instrument type: LC-ESI-QTOF
Ms type: MS2
Ion mode: NEGATIVE
Ionization: ESI
Fragmentation mode: CID
Collision energy: 20 eV
Resolution: 7000
Column name: N/A
Retention time: 0.120 min
Base peak: 980.0164
Precursor m/z: 227.2017
Precursor type: [M-H]-
Precursor intensity: 10545
m/z	relative intensity	assigned
114.162	67	C5H22O2-
147.9965	98	C11O-
151.0206	81	C11H3O-
209.1884	999	C14H25O-
227.1989	258	C14H27O2-
