Mass spectrum: N-Palmitoyl-D-sphingosine; LC-ESI-QTOF; MS2; CE: 20eV; R=7000; [M+Cl]-
Name: N-Palmitoyl-D-sphingosine
Name: N-Palmitoylsphingosine
Name: N-[(E,2S,3R)-1,3-dihydroxyoctadec-4-en-2-yl]hexadecanamide
Formula: C34H67NO3
Exact mass: 537.5121
SMILES: [H][C@@](CO)(NC(=O)CCCCCCCCCCCCCCC)[C@H](O)\C=C\CCCCCCCCCCCCC
InChI: InChI=1S/C34H67NO3/c1-3-5-7-9-11-13-15-17-19-21-23-25-27-29-33(37)32(31-36)35-34(38)30-28-26-24-22-20-18-16-14-12-10-8-6-4-2/h27,29,32-33,36-37H,3-26,28,30-31H2,1-2H3,(H,35,38)/b29-27+/t32-,33+/m0/s1
Instrument: Agilent 6560 QTOF
Instrument type: LC-ESI-QTOF
Ms type: MS2
Ion mode: NEGATIVE
Ionization: ESI
Fragmentation mode: CID
Collision energy: 20 eV
Resolution: 7000
Column name: N/A
Retention time: 0.148 min
Base peak: 596.5275
Precursor m/z: 572.4815
Precursor type: [M+Cl]-
Precursor intensity: 6179
m/z	relative intensity	assigned
81.0334	225	C5H5O-
129.4471	456	C6H57-
171.13	235	C9H17NO2-
222.2385	261	C16H30-
226.1427	347	C12H20NO3-
237.1113	947	C10H20ClNO3-
283.2924	137	C18H37NO-
339.2036	323	C25H25N-
342.1239	589	C23H18O3-
406.5215	201	C27H66O-
454.9744	283	C31H2ClNO2-
476.1112	999	C30H19ClNO3-
