Mass spectrum: Epitestosterone; LC-ESI-QTOF; MS2; CE: 10eV; R=7000; [M+Na]+
Name: Epitestosterone
Name: (8R,9S,10R,13S,14S,17R)-17-hydroxy-10,13-dimethyl-1,2,6,7,8,9,11,12,14,15,16,17-dodecahydrocyclopenta[a]phenanthren-3-one
Formula: C19H28O2
Exact mass: 288.2089
SMILES: C[C@]12CC[C@H]3[C@H]([C@@H]1CC[C@H]2O)CCC4=CC(=O)CC[C@]34C
InChI: InChI=1S/C19H28O2/c1-18-9-7-13(20)11-12(18)3-4-14-15-5-6-17(21)19(15,2)10-8-16(14)18/h11,14-17,21H,3-10H2,1-2H3/t14-,15-,16-,17+,18-,19-/m0/s1
Instrument: Agilent 6560 QTOF
Instrument type: LC-ESI-QTOF
Ms type: MS2
Ion mode: POSITIVE
Ionization: ESI
Fragmentation mode: CID
Collision energy: 10 eV
Resolution: 7000
Column name: Direct injection
Retention time: 0.183 min
Base peak: 289.2166
Precursor m/z: 311.1982
Precursor type: [M+Na]+
Precursor intensity: 14124
m/z	relative intensity	assigned
135.0438	24	C8H7O2+
251.1777	12	C17H24Na+
311.1986	999	C19H28NaO2+
