Mass spectrum: Bis(2-chloroethyl) phosphate; LC-ESI-QTOF; MS2; CE: 10eV; R=7000; [M+H]+
Name: Bis(2-chloroethyl) phosphate
Name: bis(2-chloroethyl) hydrogen phosphate
Formula: C4H9Cl2O4P
Exact mass: 221.9616
SMILES: C(CCl)OP(=O)(O)OCCCl
InChI: InChI=1S/C4H9Cl2O4P/c5-1-3-9-11(7,8)10-4-2-6/h1-4H2,(H,7,8)
Instrument: Agilent 6560 QTOF
Instrument type: LC-ESI-QTOF
Ms type: MS2
Ion mode: POSITIVE
Ionization: ESI
Fragmentation mode: CID
Collision energy: 10 eV
Resolution: 7000
Column name: ZORBAX Extend-C18 3.5um, 2.1x50mm, Agilent Technologies
Retention time: 0.929 min
Base peak: 222.9697
Precursor m/z: 222.9688
Precursor type: [M+H]+
Precursor intensity: 10763.71
m/z	relative intensity	assigned
63.0009	999	C2H4Cl+
98.9852	907	CH4ClO3+
124.9992	149	C2H6O4P+
160.977	373	C3H7Cl2O3+
222.97	147	C4H10Cl2O4P+
