Mass spectrum: Cholesteryl palmitate; LC-ESI-QTOF; MS2; CE: 40eV; R=7000; [M+Na]+
Name: Cholesteryl palmitate
Name: [(3S,8S,9S,10R,13R,14S,17R)-10,13-dimethyl-17-[(2R)-6-methylheptan-2-yl]-2,3,4,7,8,9,11,12,14,15,16,17-dodecahydro-1H-cyclopenta[a]phenanthren-3-yl] hexadecanoate
Formula: C43H76O2
Exact mass: 624.5845
SMILES: [H][C@@]1(CC[C@@]2([H])[C@]3([H])CC=C4C[C@H](CC[C@]4(C)[C@@]3([H])CC[C@]12C)OC(=O)CCCCCCCCCCCCCCC)[C@H](C)CCCC(C)C
InChI: InChI=1S/C43H76O2/c1-7-8-9-10-11-12-13-14-15-16-17-18-19-23-41(44)45-36-28-30-42(5)35(32-36)24-25-37-39-27-26-38(34(4)22-20-21-33(2)3)43(39,6)31-29-40(37)42/h24,33-34,36-40H,7-23,25-32H2,1-6H3/t34-,36+,37+,38-,39+,40+,42+,43-/m1/s1
Instrument: Agilent 6560 QTOF
Instrument type: LC-ESI-QTOF
Ms type: MS2
Ion mode: POSITIVE
Ionization: ESI
Fragmentation mode: CID
Collision energy: 40 eV
Resolution: 7000
Column name: Direct injection
Retention time: 0.519 min
Base peak: 256.965
Precursor m/z: 647.5738
Precursor type: [M+Na]+
Precursor intensity: 27293
m/z	relative intensity	assigned
95.0851	82	C7H11+
105.0688	97	C8H9+
119.0833	43	C7H12Na+
133.1013	185	C10H13+
147.1165	999	C11H15+
161.1315	98	C12H17+
178.0966	56	C9H15NaO2+
189.1643	216	C14H21+
235.0537	389	C19H7+
291.1155	648	C21H16Na+
292.1162	84	C21H17Na+
292.3719	36	C19H48O+
347.1767	882	C25H24Na+
368.1518	41	C27H21Na+
384.0191	52	C27H5NaO2+
385.2258	211	C27H29O2+
423.2121	22	C33H27+
442.0311	35	C33H7NaO+
442.3529	45	C31H47Na+
535.3248	17	C39H44Na+
536.331	23	C39H45Na+
591.3891	121	C43H52Na+
592.39	27	C43H53Na+
647.5691	66	C43H76NaO2+
