Mass spectrum: 1-octadecanoyl-sn-glycero-3-phosphocholine; LC-ESI-QTOF; MS2; CE: 20eV; R=7000; [M+Na]+
Name: 1-octadecanoyl-sn-glycero-3-phosphocholine
Name: [(2R)-2-hydroxy-3-octadecanoyloxypropyl] 2-(trimethylazaniumyl)ethyl phosphate
Formula: C26H54NO7P
Exact mass: 523.3638
SMILES: CCCCCCCCCCCCCCCCCC(=O)OC[C@H](COP(=O)([O-])OCC[N+](C)(C)C)O
InChI: InChI=1S/C26H54NO7P/c1-5-6-7-8-9-10-11-12-13-14-15-16-17-18-19-20-26(29)32-23-25(28)24-34-35(30,31)33-22-21-27(2,3)4/h25,28H,5-24H2,1-4H3/t25-/m1/s1
Instrument: Agilent 6560 QTOF
Instrument type: LC-ESI-QTOF
Ms type: MS2
Ion mode: POSITIVE
Ionization: ESI
Fragmentation mode: CID
Collision energy: 20 eV
Resolution: 7000
Column name: Direct injection
Retention time: 0.209 min
Base peak: 524.3729
Precursor m/z: 546.353
Precursor type: [M+Na]+
Precursor intensity: 140138
m/z	relative intensity	assigned
71.0735	6	C4H9N+
83.0843	17	H15NNaP+
86.0957	97	C5H12N+
95.0869	2	C3H14NP+
104.1071	878	C5H14NO+
109.1007	18	C8H13+
117.0898	5	H17NNaO2P+
146.983	113	C9NaO+
209.0779	3	C9H14NaO4+
221.0175	14	C5H11NaO6P+
323.9957	7	C18H6NaO3P+
341.3061	112	C17H44NO3P+
342.3042	8	C21H43OP+
378.9537	5	C23HNaO3P+
420.9848	12	C22H7NaO6P+
444.2568	3	C21H42NaO6P+
487.2805	999	C23H45NaO7P+
488.2832	142	C23H46NaO7P+
546.3518	197	C26H54NNaO7P+
