Mass spectrum: Tributyl phosphate; LC-ESI-QTOF; MS2; CE: 5eV; R=7000; [M+H]+
Name: Tributyl phosphate
Formula: C12H27O4P
Exact mass: 266.1647
SMILES: CCCCOP(=O)(OCCCC)OCCCC
InChI: InChI=1S/C12H27O4P/c1-4-7-10-14-17(13,15-11-8-5-2)16-12-9-6-3/h4-12H2,1-3H3
Instrument: Agilent 6560 QTOF
Instrument type: LC-ESI-QTOF
Ms type: MS2
Ion mode: POSITIVE
Ionization: ESI
Fragmentation mode: CID
Collision energy: 5 eV
Resolution: 7000
Retention time: 0.148 min
Base peak: 289.1542
Precursor m/z: 267.172
Precursor type: [M+H]+
Precursor intensity: 58643.54
m/z	relative intensity	assigned
57.0696	9	C4H9+
80.9735	15	H2O3P+
98.9842	999	H4O4P+
155.0465	120	C4H12O4P+
211.1085	89	C8H20O4P+
267.1705	49	C12H28O4P+
