Mass spectrum: Bis(2-butoxyethyl) 3?-hydroxy-2-butoxyethyl phosphate ; LC-ESI-QTOF; MS2; CE: 60eV; R=7000; [M+H]+
Name: Bis(2-butoxyethyl) 3?-hydroxy-2-butoxyethyl phosphate 
Name: Bis(2-butoxyethyl) 3-hydroxyl-2-butoxyethyl phosphate
Name: bis(2-butoxyethyl) 2-(3-hydroxybutoxy)ethyl phosphate
Formula: C18H39O8P
Exact mass: 414.2383
SMILES: CCCCOCCOP(=O)(OCCOCCCC)OCCOCCC(C)O
InChI: InChI=1S/C18H39O8P/c1-4-6-9-21-12-15-24-27(20,25-16-13-22-10-7-5-2)26-17-14-23-11-8-18(3)19/h18-19H,4-17H2,1-3H3
Instrument: Agilent 6560 QTOF
Instrument type: LC-ESI-QTOF
Ms type: MS2
Ion mode: POSITIVE
Ionization: ESI
Fragmentation mode: CID
Collision energy: 60 eV
Resolution: 7000
Retention time: 0.148 min
Base peak: 415.2486
Precursor m/z: 415.2455
Precursor type: [M+H]+
Precursor intensity: 103966.54
m/z	relative intensity	assigned
53.039	29	C4H5+
55.0547	999	C4H7+
57.0704	585	C4H9+
59.0497	54	C3H7O+
69.0712	30	C5H9+
71.0494	41	C4H7O+
73.0649	43	C4H9O+
80.9738	70	H2O3P+
81.0699	20	C6H9+
98.9843	589	H4O4P+
124.9995	107	C2H6O4P+
