Mass spectrum: 1-tridecanoyl-sn-glycero-3-phosphoethanolamine; LC-ESI-QTOF; MS2; CE: 20eV; R=7000; [M-H2O+H]+
Name: 1-tridecanoyl-sn-glycero-3-phosphoethanolamine
Name: [(2R)-3-[2-aminoethoxy(hydroxy)phosphoryl]oxy-2-hydroxypropyl] tridecanoate
Formula: C18H38NO7P
Exact mass: 411.2386
SMILES: [C@](COP(=O)(O)OCCN)([H])(O)COC(CCCCCCCCCCCC)=O
InChI: InChI=1S/C18H38NO7P/c1-2-3-4-5-6-7-8-9-10-11-12-18(21)24-15-17(20)16-26-27(22,23)25-14-13-19/h17,20H,2-16,19H2,1H3,(H,22,23)/t17-/m1/s1
Instrument: Agilent 6560 QTOF
Instrument type: LC-ESI-QTOF
Ms type: MS2
Ion mode: POSITIVE
Ionization: ESI
Fragmentation mode: CID
Collision energy: 20 eV
Resolution: 7000
Column name: Direct injection
Retention time: 0.208 min
Base peak: 412.2474
Precursor m/z: 394.2353
Precursor type: [M-H2O+H]+
Precursor intensity: 5901
m/z	relative intensity	assigned
139.1354	999	C9H17N+
151.099	367	C9H13NO+
237.2135	207	C8H31NO6+
293.1853	655	C13H27NO6+
294.1882	525	C13H28NO6+
303.1929	123	C12H32O6P+
313.0232	163	C16H10O5P+
