Mass spectrum: 1-octadecenoyl-rac-glycerol; LC-ESI-QTOF; MS2; CE: 10eV; R=7000; [M+CH3COO]-
Name: 1-octadecenoyl-rac-glycerol
Name: Glyceryl monooleate
Name: 2,3-dihydroxypropyl (Z)-octadec-9-enoate
Formula: C21H40O4
Exact mass: 356.2927
SMILES: CCCCCCCC/C=C\CCCCCCCC(=O)OCC(CO)O
InChI: InChI=1S/C21H40O4/c1-2-3-4-5-6-7-8-9-10-11-12-13-14-15-16-17-21(24)25-19-20(23)18-22/h9-10,20,22-23H,2-8,11-19H2,1H3/b10-9-
Instrument: Agilent 6560 QTOF
Instrument type: LC-ESI-QTOF
Ms type: MS2
Ion mode: NEGATIVE
Ionization: ESI
Fragmentation mode: CID
Collision energy: 10 eV
Resolution: 7000
Column name: N/A
Retention time: 0.170 min
Base peak: 980.0164
Precursor m/z: 415.3065
Precursor type: [M+CH3COO]-
Precursor intensity: 21724
m/z	relative intensity	assigned
100.0026	999	H4O6-
100.0391	121	CH8O5-
117.0369	772	C8H5O-
139.1332	82	C6H19O3-
158.175	125	C3H26O6-
164.2745	352	C8H36O2-
166.0389	232	C12H6O-
207.138	229	C13H19O2-
213.1648	199	C16H21-
220.9882	112	C13HO4-
251.0101	108	C18H3O2-
266.0354	136	C19H6O2-
271.1604	92	C14H23O5-
274.0985	839	C19H14O2-
278.0892	228	C18H14O3-
334.2157	263	C20H30O4-
346.1568	167	C23H22O3-
372.2348	87	C23H32O4-
