Mass spectrum: Bis(2-butoxyethyl) hydrogen phosphate; LC-ESI-QTOF; MS2; CE: 20eV; R=7000; [M+H]+
Name: Bis(2-butoxyethyl) hydrogen phosphate
Formula: C12H27O6P
Exact mass: 298.1545
SMILES: CCCCOCCOP(=O)(O)OCCOCCCC
InChI: InChI=1S/C12H27O6P/c1-3-5-7-15-9-11-17-19(13,14)18-12-10-16-8-6-4-2/h3-12H2,1-2H3,(H,13,14)
Instrument: Agilent 6560 QTOF
Instrument type: LC-ESI-QTOF
Ms type: MS2
Ion mode: POSITIVE
Ionization: ESI
Fragmentation mode: CID
Collision energy: 20 eV
Resolution: 7000
Retention time: 0.150 min
Base peak: 321.1442
Precursor m/z: 299.1618
Precursor type: [M+H]+
Precursor intensity: 10588.23
m/z	relative intensity	assigned
55.0543	583	C4H7+
57.0699	999	C4H9+
83.0869	64	C6H11+
98.9838	135	H4O4P+
124.9971	68	C2H6O4P+
143.011	71	C2H8O5P+
