Mass spectrum: 1,2-dihexadecanoyl-sn-glycero-3-phosphoethanolamine; LC-ESI-QTOF; MS2; CE: 40eV; R=7000; [M-H]-
Name: 1,2-dihexadecanoyl-sn-glycero-3-phosphoethanolamine
Name: 1,2-Dipalmitoyl-sn-glycero-3-phosphoethanolamine
Name: [(2R)-3-[2-aminoethoxy(hydroxy)phosphoryl]oxy-2-hexadecanoyloxypropyl] hexadecanoate
Formula: C37H74NO8P
Exact mass: 691.5152
SMILES: CCCCCCCCCCCCCCCC(=O)OC[C@H](COP(=O)(O)OCCN)OC(=O)CCCCCCCCCCCCCCC
InChI: InChI=1S/C37H74NO8P/c1-3-5-7-9-11-13-15-17-19-21-23-25-27-29-36(39)43-33-35(34-45-47(41,42)44-32-31-38)46-37(40)30-28-26-24-22-20-18-16-14-12-10-8-6-4-2/h35H,3-34,38H2,1-2H3,(H,41,42)/t35-/m1/s1
Instrument: Agilent 6560 QTOF
Instrument type: LC-ESI-QTOF
Ms type: MS2
Ion mode: NEGATIVE
Ionization: ESI
Fragmentation mode: CID
Collision energy: 40 eV
Resolution: 7000
Column name: N/A
Retention time: 0.146 min
Base peak: 980.0164
Precursor m/z: 690.5079
Precursor type: [M-H]-
Precursor intensity: 140669
m/z	relative intensity	assigned
78.9588	49	O3P-
80.2036	1	C2H26NO-
122.2049	1	C4H29NP-
138.4893	1	CH64NO3-
140.0103	52	C6H4O4-
155.2653	4	C2H37NO5-
196.037	27	C9H8O5-
196.2556	1	C8H37O2P-
214.0474	2	C9H10O6-
255.2335	999	C12H34NO2P-
256.2363	89	C9H37O5P-
257.5012	3	CH72NO8P-
272.1685	1	C18H25P-
276.0329	4	C17H9O2P-
290.0871	1	C19H15OP-
355.0762	1	C26H11O2-
377.4023	1	C26H51N-
434.2679	6	C21H41NO6P-
441.996	2	C34H3P-
452.2722	1	C32H36O2-
453.191	2	C26H29O7-
469.4474	2	C26H61O6-
472.4772	1	C30H65OP-
501.463	1	C26H63NO7-
510.9934	1	C37H4O2P-
621.0749	2	C37H18O8P-
