Mass spectrum: Folate; LC-ESI-QTOF; MS2; CE: 10eV; R=5000; [M+H]+
Name: Folate
Name: CID 6037
Name: (2S)-2-[[4-[(2-amino-4-oxo-1H-pteridin-6-yl)methylamino]benzoyl]amino]pentanedioic acid
Formula: C19H19N7O6
Exact mass: 441.1397
SMILES: NC1=NC(=O)C2=NC(CNC3=CC=C(C=C3)C(=O)N[C@@H](CCC(O)=O)C(O)=O)=CN=C2N1
InChI: InChI=1S/C19H19N7O6/c20-19-25-15-14(17(30)26-19)23-11(8-22-15)7-21-10-3-1-9(2-4-10)16(29)24-12(18(31)32)5-6-13(27)28/h1-4,8,12,21H,5-7H2,(H,24,29)(H,27,28)(H,31,32)(H3,20,22,25,26,30)/t12-/m0/s1
Instrument: Agilent 6530 QTOF
Instrument type: LC-ESI-QTOF
Ms type: MS2
Ion mode: POSITIVE
Ionization: ESI
Fragmentation mode: CID
Collision energy: 10 eV
Resolution: 5000
Column name: N/A
Retention time: 0.288 min
Base peak: 121.0508
Precursor m/z: 442.147
Precursor type: [M+H]+
Precursor intensity: 70020
m/z	relative intensity	assigned
65.0717	2	CH9N2O+
106.0334	5	H4N5O2+
117.0879	10	C2H9N6+
120.045	54	C7H6NO+
120.1101	4	CH16N2O4+
121.0422	8	C6H5N2O+
153.1274	1	C10H17O+
176.0545	41	C4H8N4O4+
177.1375	3	C11H17N2+
211.0777	3	C3H11N6O5+
228.9997	1	C9HN4O4+
252.136	1	C14H20O4+
259.0848	7	C15H9N5+
290.0339	9	C17H2N6+
295.0998	999	C19H11N4+
296.0965	50	C11H14N5O5+
297.043	4	C19H7NO3+
298.1608	5	C11H20N7O3+
299.0383	1	C11H5N7O4+
