Mass spectrum: Bis(2-butoxyethyl) 3?-hydroxy-2-butoxyethyl phosphate ; LC-ESI-QTOF; MS2; CE: 35eV; R=7000; [M+Na]+
Name: Bis(2-butoxyethyl) 3?-hydroxy-2-butoxyethyl phosphate 
Name: Bis(2-butoxyethyl) 3-hydroxyl-2-butoxyethyl phosphate
Name: bis(2-butoxyethyl) 2-(3-hydroxybutoxy)ethyl phosphate
Formula: C18H39O8P
Exact mass: 414.2383
SMILES: CCCCOCCOP(=O)(OCCOCCCC)OCCOCCC(C)O
InChI: InChI=1S/C18H39O8P/c1-4-6-9-21-12-15-24-27(20,25-16-13-22-10-7-5-2)26-17-14-23-11-8-18(3)19/h18-19H,4-17H2,1-3H3
Instrument: Agilent 6560 QTOF
Instrument type: LC-ESI-QTOF
Ms type: MS2
Ion mode: POSITIVE
Ionization: ESI
Fragmentation mode: CID
Collision energy: 35 eV
Resolution: 7000
Retention time: 0.150 min
Base peak: 415.2487
Precursor m/z: 437.2275
Precursor type: [M+Na]+
Precursor intensity: 23915.81
m/z	relative intensity	assigned
120.9652	110	H3NaO4P+
139.0719	61	C6H12NaO2+
146.9822	487	C2H5NaO4P+
157.0834	999	C6H14NaO3+
158.0875	63	C8H15OP+
164.9923	73	C2H7NaO5P+
219.0394	181	C6H13NaO5P+
221.0533	139	C6H15NaO5P+
222.0553	50	C13H12NaP+
237.0504	381	C6H15NaO6P+
337.1383	208	C12H27NaO7P+
437.2262	38	C18H39NaO8P+
