Mass spectrum: 1-(9Z-octadecenoyl)-sn-glycero-3-phosphoethanolamine; LC-ESI-QTOF; MS2; CE: 40eV; R=7000; [M+NH4]+
Name: 1-(9Z-octadecenoyl)-sn-glycero-3-phosphoethanolamine
Name: [(2R)-3-[2-aminoethoxy(hydroxy)phosphoryl]oxy-2-hydroxypropyl] (Z)-octadec-9-enoate
Formula: C23H46NO7P
Exact mass: 479.3012
SMILES: CCCCCCCC/C=C\CCCCCCCC(=O)OC[C@H](COP(=O)([O-])OCC[NH3+])O
InChI: InChI=1S/C23H46NO7P/c1-2-3-4-5-6-7-8-9-10-11-12-13-14-15-16-17-23(26)29-20-22(25)21-31-32(27,28)30-19-18-24/h9-10,22,25H,2-8,11-21,24H2,1H3,(H,27,28)/b10-9-/t22-/m1/s1
Instrument: Agilent 6560 QTOF
Instrument type: LC-ESI-QTOF
Ms type: MS2
Ion mode: POSITIVE
Ionization: ESI
Fragmentation mode: CID
Collision energy: 40 eV
Resolution: 7000
Column name: Direct injection
Retention time: 0.294 min
Base peak: 256.9651
Precursor m/z: 497.335
Precursor type: [M+NH4]+
Precursor intensity: 3572
m/z	relative intensity	assigned
89.0611	204	H12NO2P+
98.975	353	C2N2OP+
214.9488	85	C5N2O6P+
256.9629	999	C12H2O5P+
314.9994	127	C22H4OP+
