Mass spectrum: Quinidine anhydrous; LC-ESI-QTOF; MS2; CE: 10eV; R=5000; [M+H]+
Name: Quinidine anhydrous
Name: 6`-Methoxycinchonan-9-ol
Name: (5-ethenyl-1-azabicyclo[2.2.2]octan-2-yl)-(6-methoxyquinolin-4-yl)methanol
Formula: C20H24N2O2
Exact mass: 324.18378
SMILES: COC1=CC2=C(C=CN=C2C=C1)C(C3CC4CCN3CC4C=C)O
InChI: InChI=1S/C20H24N2O2/c1-3-13-12-22-9-7-14(13)10-19(22)20(23)16-6-8-21-18-5-4-15(24-2)11-17(16)18/h3-6,8,11,13-14,19-20,23H,1,7,9-10,12H2,2H3
Instrument: Agilent 6530 QTOF
Instrument type: LC-ESI-QTOF
Ms type: MS2
Ion mode: POSITIVE
Ionization: ESI
Fragmentation mode: CID
Collision energy: 10 eV
Resolution: 5000
Column name: N/A
Retention time: 0.256 min
Base peak: 325.1956
Precursor m/z: 325.1911
Precursor type: [M+H]+
Precursor intensity: 15161228
m/z	relative intensity	assigned
44.0493	1	C2H6N+
55.0532	1	C4H7+
67.0531	1	C5H7+
79.053	3	C6H7+
80.0482	1	C5H6N+
81.0682	7	C6H9+
107.082	1	C3H11N2O2+
110.0944	6	C7H12N+
122.0938	1	C8H12N+
134.0942	1	C9H12N+
138.1244	1	C9H16N+
160.0719	12	C10H10NO+
172.0715	6	C11H10NO+
174.0877	2	C11H12NO+
196.0717	1	C13H10NO+
198.0869	8	C13H12NO+
199.0863	1	C12H11N2O+
210.0864	1	C14H12NO+
213.1029	1	C13H13N2O+
224.0996	1	C14H12N2O+
226.1174	1	C15H16NO+
227.1128	1	C14H15N2O+
251.1138	2	C16H15N2O+
252.1267	1	C16H16N2O+
253.1288	11	C16H17N2O+
264.1328	6	C18H18NO+
265.1272	1	C18H17O2+
266.1456	1	C17H18N2O+
278.1481	2	C19H20NO+
279.1442	5	C18H19N2O+
282.1432	1	C18H20NO2+
297.1882	1	C20H25O2+
307.1742	35	C20H23N2O+
325.1854	999	C20H25N2O2+
