Mass spectrum: Mono(2-ethylhexyl) phthalate; LC-ESI-QTOF; MS2; CE: 20eV; R=7000; [M-H]-
Name: Mono(2-ethylhexyl) phthalate
Name: 2-(((2-Ethylhexyl)oxy)carbonyl)benzoic acid
Name: 2-(2-ethylhexoxycarbonyl)benzoic acid
Formula: C16H22O4
Exact mass: 278.1518
SMILES: CCCCC(CC)COC(=O)C1=CC=CC=C1C(=O)O
InChI: InChI=1S/C16H22O4/c1-3-5-8-12(4-2)11-20-16(19)14-10-7-6-9-13(14)15(17)18/h6-7,9-10,12H,3-5,8,11H2,1-2H3,(H,17,18)
Instrument: Agilent 6560 QTOF
Instrument type: LC-ESI-QTOF
Ms type: MS2
Ion mode: NEGATIVE
Ionization: ESI
Fragmentation mode: CID
Collision energy: 20 eV
Resolution: 7000
Retention time: 0.115 min
Base peak: 277.1455
Precursor m/z: 277.1445
Precursor type: [M-H]-
Precursor intensity: 82659.15
m/z	relative intensity	assigned
75.0242	93	C6H3-
77.0403	999	C6H5-
99.0828	6	C6H11O-
105.0339	21	C7H5O-
107.0499	14	C7H7O-
119.0136	28	C7H3O2-
121.0297	168	C7H5O2-
125.0978	10	C8H13O-
127.1131	440	C8H15O-
134.0377	382	C8H6O2-
135.0465	16	C8H7O2-
147.0088	146	C8H3O3-
