Mass spectrum: 1-Dehydrotestosterone; LC-ESI-QTOF; MS2; CE: 10eV; R=7000; [M+H]+
Name: 1-Dehydrotestosterone
Name: Boldenone
Name: (8R,9S,10R,13S,14S,17S)-17-hydroxy-10,13-dimethyl-6,7,8,9,11,12,14,15,16,17-decahydrocyclopenta[a]phenanthren-3-one
Formula: C19H26O2
Exact mass: 286.1933
SMILES: C[C@]12CC[C@H]3[C@H]([C@@H]1CC[C@@H]2O)CCC4=CC(=O)C=C[C@]34C
InChI: InChI=1S/C19H26O2/c1-18-9-7-13(20)11-12(18)3-4-14-15-5-6-17(21)19(15,2)10-8-16(14)18/h7,9,11,14-17,21H,3-6,8,10H2,1-2H3/t14-,15-,16-,17-,18-,19-/m0/s1
Instrument: Agilent 6560 QTOF
Instrument type: LC-ESI-QTOF
Ms type: MS2
Ion mode: POSITIVE
Ionization: ESI
Fragmentation mode: CID
Collision energy: 10 eV
Resolution: 7000
Column name: Direct injection
Retention time: 0.155 min
Base peak: 287.2013
Precursor m/z: 287.2006
Precursor type: [M+H]+
Precursor intensity: 384283
m/z	relative intensity	assigned
71.0506	3	C4H7O+
77.0386	47	C6H5+
79.0532	52	C6H7+
81.0704	59	C6H9+
83.0489	3	C5H7O+
85.0636	26	C5H9O+
91.055	94	C7H7+
93.0699	102	C7H9+
95.0857	66	C7H11+
97.1018	7	C7H13+
105.0697	37	C8H9+
107.085	69	C8H11+
109.1016	62	C8H13+
113.0584	7	C6H9O2+
119.0496	2	C8H7O+
119.0844	7	C9H11+
121.0647	999	C8H9O+
121.0989	61	C9H13+
123.08	10	C8H11O+
123.1178	3	C9H15+
129.07	7	C10H9+
130.0785	6	C10H10+
131.0471	1	C9H7O+
133.0629	16	C9H9O+
133.0992	24	C10H13+
135.0799	60	C9H11O+
135.1173	504	C10H15+
137.1312	4	C10H17+
141.0672	3	C11H9+
143.0854	1	C11H11+
144.0563	2	C10H8O+
145.0651	43	C10H9O+
147.0804	192	C10H11O+
147.1165	71	C11H15+
148.0846	5	C10H12O+
149.1327	125	C11H17+
151.0734	2	C9H11O2+
152.118	3	C10H16O+
158.0707	2	C11H10O+
159.0799	73	C11H11O+
161.0957	15	C11H13O+
161.133	88	C12H17+
161.1926	4	C10H25O+
165.0897	3	C10H13O2+
165.1256	7	C11H17O+
168.1467	8	C11H20O+
171.0824	9	C12H11O+
173.0963	220	C12H13O+
175.1097	4	C12H15O+
177.092	12	C11H13O2+
179.1441	103	C12H19O+
185.0953	8	C13H13O+
187.1116	62	C13H15O+
199.1126	28	C14H15O+
201.124	1	C14H17O+
205.1257	6	C13H17O2+
211.15	4	C16H19+
213.1266	18	C15H17O+
215.1405	13	C15H19O+
227.1387	1	C16H19O+
229.1548	3	C16H21O+
241.1573	5	C17H21O+
243.1717	4	C17H23O+
251.1786	17	C19H23+
269.1911	129	C19H25O+
270.1935	7	C19H26O+
287.2009	190	C19H27O2+
