Mass spectrum: PTERIN; LC-ESI-QTOF; MS2; CE: 10eV; R=5000; [M+H]+
Name: PTERIN
Name: CID 73000
Name: 2-amino-1H-pteridin-4-one
Formula: C6H5N5O
Exact mass: 163.04941
SMILES: NC1=NC2=NC=CN=C2C(=O)N1
InChI: InChI=1S/C6H5N5O/c7-6-10-4-3(5(12)11-6)8-1-2-9-4/h1-2H,(H3,7,9,10,11,12)
Instrument: Agilent 6530 QTOF
Instrument type: LC-ESI-QTOF
Ms type: MS2
Ion mode: POSITIVE
Ionization: ESI
Fragmentation mode: CID
Collision energy: 10 eV
Resolution: 5000
Column name: N/A
Retention time: 0.253 min
Base peak: 121.0508
Precursor m/z: 164.0567
Precursor type: [M+H]+
Precursor intensity: 46067
m/z	relative intensity	assigned
45.0331	124	C2H5O+
68.0245	3	C2H2N3+
94.0378	107	C4H4N3+
107.0243	7	C5H3N2O+
113.0333	24	C2H3N5O+
147.0278	260	C6H3N4O+
164.0537	999	C6H6N5O+
