Mass spectrum: ((propane-2,2-diylbis(4,1-phenylene))bis(oxy))bis(3,6,9,12,15-pentaoxaheptadecane-17,1-diyl) bis(2-methylacrylate); LC-ESI-QTOF; MS2; CE: 20eV; R=7000; [M+NH4]+
Name: ((propane-2,2-diylbis(4,1-phenylene))bis(oxy))bis(3,6,9,12,15-pentaoxaheptadecane-17,1-diyl) bis(2-methylacrylate)
Name: Bismethacrylic acid [dimethylmethylenebis[1,4-phenyleneoxy(3,6,9,12,15-pentaoxaheptadecane-1,17-diyl)]] ester
Name: 2-[2-[2-[2-[2-[2-[4-[2-[4-[2-[2-[2-[2-[2-[2-(2-methylprop-2-enoyloxy)ethoxy]ethoxy]ethoxy]ethoxy]ethoxy]ethoxy]phenyl]propan-2-yl]phenoxy]ethoxy]ethoxy]ethoxy]ethoxy]ethoxy]ethyl 2-methylprop-2-enoate
Formula: C47H72O16
Exact mass: 892.4820
SMILES: CC(C1=CC=C(OCCOCCOCCOCCOCCOCCOC(C(C)=C)=O)C=C1)(C)C2=CC=C(OCCOCCOCCOCCOCCOCCOC(C(C)=C)=O)C=C2
InChI: InChI=1S/C47H72O16/c1-39(2)45(48)62-37-33-58-29-25-54-21-17-50-15-19-52-23-27-56-31-35-60-43-11-7-41(8-12-43)47(5,6)42-9-13-44(14-10-42)61-36-32-57-28-24-53-20-16-51-18-22-55-26-30-59-34-38-63-46(49)40(3)4/h7-14H,1,3,15-38H2,2,4-6H3
Instrument: Agilent 6560 QTOF
Instrument type: LC-ESI-QTOF
Ms type: MS2
Ion mode: POSITIVE
Ionization: ESI
Fragmentation mode: CID
Collision energy: 20 eV
Resolution: 7000
Column name: ZORBAX Extend-C18 3.5um, 2.1x50mm, Agilent Technologies
Retention time: 4.082 min
Base peak: 453.3483
Precursor m/z: 910.5159
Precursor type: [M+NH4]+
Precursor intensity: 191825.36
m/z	relative intensity	assigned
69.034	13	C4H5O+
87.0431	9	C4H7O2+
89.0604	5	C4H9O2+
101.0582	3	C5H9O2+
113.0598	999	C6H9O2+
133.0657	4	C9H9O+
133.0831	5	C6H13O3+
135.0797	8	C9H11O+
147.0811	2	C10H11O+
157.085	22	C8H13O3+
161.0949	16	C11H13O+
187.1106	5	C13H15O+
188.1109	3	C2H20O9+
191.1067	4	C12H15O2+
201.1094	3	C10H17O4+
203.1048	5	C13H15O2+
205.1212	24	C13H17O2+
223.1335	11	C13H19O3+
231.1381	6	C15H19O2+
245.1377	15	C12H21O5+
247.1313	3	H25NO13+
249.1463	11	H27NO13+
251.1663	3	C18H21N+
291.1558	9	C2H29NO14+
293.17	8	C9H27NO9+
335.1837	29	C4H33NO15+
337.1984	5	C4H35NO15+
343.1854	3	C13H29NO9+
361.1932	2	C13H31NO10+
379.2097	39	C6H37NO16+
380.2129	4	C13H34NO11+
423.2363	36	C23H35O7+
424.2409	5	C30H32O2+
467.2647	13	C25H39O8+
511.291	5	C27H43O9+
543.2695	3	C41H35O+
555.3133	7	C39H41NO2+
893.4865	9	C47H73O16+
910.5188	955	C47H76NO16+
