Mass spectrum: 1,2-diheptadecanoyl-sn-glycero-3-phosphocholine; LC-ESI-QTOF; MS2; CE: 10eV; R=7000; [M+Na]+
Name: 1,2-diheptadecanoyl-sn-glycero-3-phosphocholine
Name: [(2R)-2,3-di(heptadecanoyloxy)propyl] 2-(trimethylazaniumyl)ethyl phosphate
Formula: C42H84NO8P
Exact mass: 761.5935
SMILES: CCCCCCCCCCCCCCCCC(=O)OC[C@H](COP(=O)([O-])OCC[N+](C)(C)C)OC(=O)CCCCCCCCCCCCCCCC
InChI: InChI=1S/C42H84NO8P/c1-6-8-10-12-14-16-18-20-22-24-26-28-30-32-34-41(44)48-38-40(39-50-52(46,47)49-37-36-43(3,4)5)51-42(45)35-33-31-29-27-25-23-21-19-17-15-13-11-9-7-2/h40H,6-39H2,1-5H3/t40-/m1/s1
Instrument: Agilent 6560 QTOF
Instrument type: LC-ESI-QTOF
Ms type: MS2
Ion mode: POSITIVE
Ionization: ESI
Fragmentation mode: CID
Collision energy: 10 eV
Resolution: 7000
Column name: Direct injection
Retention time: 0.183 min
Base peak: 762.6033
Precursor m/z: 784.5827
Precursor type: [M+Na]+
Precursor intensity: 163046
m/z	relative intensity	assigned
71.0847	2	C5H11+
83.084	4	H15NNaP+
86.0962	5	C5H12N+
101.1146	1	CH18NaO3+
146.9817	20	C2H5NaO4P+
206.0553	4	C5H14NNaO4P+
226.1811	1	C12H28NaP+
253.2533	9	C13H36NOP+
360.327	1	C24H42NO+
414.9527	1	C20H2NO8P+
455.2464	2	C30H33NO3+
492.3432	3	C23H52NNaO6P+
514.33	1	C27H49NO6P+
552.322	3	C31H48NNaO4P+
579.5364	9	C40H69NO+
601.5192	33	C40H68NNaO+
602.5221	8	C30H76NaO7P+
620.996	3	C42H6O5P+
724.3538	7	C42H54NaO7P+
725.5078	83	C39H75NaO8P+
726.5075	7	C40H73NO8P+
727.2649	1	C42H43NNaO7P+
784.5847	999	C42H84NNaO8P+
