Mass spectrum: Tris(tert-butylphenyl) phosphate; LC-ESI-QTOF; MS2; CE: 45eV; R=7000; [M+H]+
Name: Tris(tert-butylphenyl) phosphate
Name: tris(2-tert-butylphenyl) phosphate
Formula: C30H39O4P
Exact mass: 494.2586
SMILES: CC(C)(C)C1=CC=CC=C1OP(=O)(OC2=CC=CC=C2C(C)(C)C)OC3=CC=CC=C3C(C)(C)C
InChI: InChI=1S/C30H39O4P/c1-28(2,3)22-16-10-13-19-25(22)32-35(31,33-26-20-14-11-17-23(26)29(4,5)6)34-27-21-15-12-18-24(27)30(7,8)9/h10-21H,1-9H3
Instrument: Agilent 6560 QTOF
Instrument type: LC-ESI-QTOF
Ms type: MS2
Ion mode: POSITIVE
Ionization: ESI
Fragmentation mode: CID
Collision energy: 45 eV
Resolution: 7000
Retention time: 0.112 min
Base peak: 495.2657
Precursor m/z: 495.2659
Precursor type: [M+H]+
Precursor intensity: 60457.44
m/z	relative intensity	assigned
57.0704	815	C4H9+
91.0546	9	C7H7+
129.0694	9	C10H9+
152.0597	41	C5H13O3P+
153.0692	76	C12H9+
157.0047	9	C6H6O3P+
171.0796	33	C12H11O+
215.0255	62	C12H8O2P+
228.0916	29	C11H17O3P+
229.0992	40	C11H18O3P+
233.0348	63	C12H10O3P+
251.0462	47	C12H12O4P+
327.0778	999	C18H16O4P+
328.0824	99	C18H17O4P+
383.1428	30	C29H19O+
