Mass spectrum: Tri-p-tolyl phosphate; LC-ESI-QTOF; MS2; CE: 15eV; R=7000; [M+H]+
Name: Tri-p-tolyl phosphate
Name: Tricresyl phosphate
Name: tris(4-methylphenyl) phosphate
Formula: C21H21O4P
Exact mass: 368.1177
SMILES: CC1=CC=C(C=C1)OP(=O)(OC2=CC=C(C=C2)C)OC3=CC=C(C=C3)C
InChI: InChI=1S/C21H21O4P/c1-16-4-10-19(11-5-16)23-26(22,24-20-12-6-17(2)7-13-20)25-21-14-8-18(3)9-15-21/h4-15H,1-3H3
Instrument: Agilent 6560 QTOF
Instrument type: LC-ESI-QTOF
Ms type: MS2
Ion mode: POSITIVE
Ionization: ESI
Fragmentation mode: CID
Collision energy: 15 eV
Resolution: 7000
Retention time: 0.108 min
Base peak: 369.125
Precursor m/z: 369.125
Precursor type: [M+H]+
Precursor intensity: 312569.35
m/z	relative intensity	assigned
65.0388	6	C5H5+
77.0378	2	C6H5+
79.0557	4	C6H7+
90.0461	1	C7H6+
91.0539	27	C7H7+
107.0492	15	C7H7O+
109.0638	2	C7H9O+
121.0651	1	C8H9O+
129.0703	2	C10H9+
141.0713	2	C11H9+
153.0709	2	C12H9+
154.0166	1	C7H7O2P+
154.0721	1	C5H15O3P+
156.0897	1	C5H17O3P+
165.0696	32	C13H9+
166.0773	67	C13H10+
167.0825	3	C6H16O3P+
179.0861	2	C14H11+
180.0908	1	C7H17O3P+
181.1007	14	C14H13+
189.0307	5	C7H10O4P+
193.0981	1	C8H18O3P+
195.0802	1	C14H11O+
196.086	2	C14H12O+
199.1119	5	C14H15O+
215.0621	1	C13H12OP+
215.0854	1	C17H11+
229.0994	1	C11H18O3P+
241.0996	3	C12H18O3P+
243.0566	42	C14H12O2P+
244.0595	3	C14H13O2P+
256.124	21	C20H16+
257.1273	3	C13H22O3P+
261.0672	32	C14H14O3P+
262.0693	4	C14H15O3P+
270.1012	1	C13H19O4P+
271.1461	2	C21H19+
279.0783	23	C14H16O4P+
280.0789	1	C14H17O4P+
333.1049	1	C21H18O2P+
369.1246	999	C21H22O4P+
