Mass spectrum: 2-Propenoic acid, (octahydro-4,7-methano-1H-indene-5 - diyl)bis(methyleneiminocarbonyloxy-2,1-ethanediyl) ester; LC-ESI-QTOF; MS2; CE: 10eV; R=7000; [M+H]+
Name: 2-Propenoic acid, (octahydro-4,7-methano-1H-indene-5 - diyl)bis(methyleneiminocarbonyloxy-2,1-ethanediyl) ester
Formula: C24H34N2O8
Exact mass: 478.2315
SMILES: C=CC(=O)OCCOC(=O)NCC1CCC2C3CC(CNC(=O)OCCOC(=O)C=C)C(C3)C12
InChI: InChI=1S/C24H34N2O8/c1-3-20(27)31-7-9-33-23(29)25-13-15-5-6-18-16-11-17(19(12-16)22(15)18)14-26-24(30)34-10-8-32-21(28)4-2/h3-4,15-19,22H,1-2,5-14H2,(H,25,29)(H,26,30)
Instrument: Agilent 6560 QTOF
Instrument type: LC-ESI-QTOF
Ms type: MS2
Ion mode: POSITIVE
Ionization: ESI
Fragmentation mode: CID
Collision energy: 10 eV
Resolution: 7000
Column name: ZORBAX Extend-C18 3.5um, 2.1x50mm, Agilent Technologies
Retention time: 3.366 min
Base peak: 453.3484
Precursor m/z: 479.2388
Precursor type: [M+H]+
Precursor intensity: 184113.78
m/z	relative intensity	assigned
55.0186	60	C3H3O+
73.0273	1	C3H5O2+
99.0447	999	C5H7O2+
100.0478	35	H8N2O4+
117.0542	31	C5H9O3+
249.1631	1	C19H21+
291.1692	46	C16H23N2O3+
292.1714	1	C20H22NO+
335.1961	2	C18H27N2O4+
363.1899	4	C16H29NO8+
407.2166	150	C21H31N2O6+
408.2192	13	C22H32O7+
