Mass spectrum: ADENOSINE; LC-ESI-QTOF; MS2; CE: 40eV; R=5000; [M+H]+
Name: ADENOSINE
Name: (2R,3R,4S,5R)-2-(6-aminopurin-9-yl)-5-(hydroxymethyl)oxolane-3,4-diol
Formula: C10H13N5O4
Exact mass: 267.0968
SMILES: NC1=NC=NC2=C1N=CN2[C@@H]1O[C@H](CO)[C@@H](O)[C@H]1O
InChI: InChI=1S/C10H13N5O4/c11-8-5-9(13-2-12-8)15(3-14-5)10-7(18)6(17)4(1-16)19-10/h2-4,6-7,10,16-18H,1H2,(H2,11,12,13)/t4-,6-,7-,10-/m1/s1
Instrument: Agilent 6530 QTOF
Instrument type: LC-ESI-QTOF
Ms type: MS2
Ion mode: POSITIVE
Ionization: ESI
Fragmentation mode: CID
Collision energy: 40 eV
Resolution: 5000
Column name: N/A
Retention time: 0.218 min
Base peak: 268.1045
Precursor m/z: 268.104
Precursor type: [M+H]+
Precursor intensity: 1708406
m/z	relative intensity	assigned
40.0184	2	C2H2N+
45.0342	33	C2H5O+
49.029	1	CH5O2+
53.0385	1	C4H5+
57.0343	69	C3H5O+
59.0492	2	C3H7O+
61.0281	9	C2H5O2+
65.0134	16	C3HN2+
67.0293	15	C3H3N2+
69.0331	22	C4H5O+
71.0126	22	C3H3O2+
73.0284	11	C3H5O2+
77.0142	2	C4HN2+
82.0403	7	C3H4N3+
85.0281	12	C4H5O2+
92.0243	27	C4H2N3+
94.0389	37	C4H4N3+
97.0273	1	C3H3N3O+
109.0504	29	C4H5N4+
110.054	1	CH8N3O3+
119.0344	358	C4H7O4+
120.0422	2	C4H8O4+
136.0611	999	C4H10NO4+
137.0662	4	C2H9N4O3+
148.0598	6	C5H10NO4+
