Mass spectrum: 11-Deoxycortisol; LC-ESI-QTOF; MS2; CE: 20eV; R=7000; [M-H]-
Name: 11-Deoxycortisol
Name: Reichsteins Substance S
Name: 17-hydroxy-17-(2-hydroxyacetyl)-10,13-dimethyl-2,6,7,8,9,11,12,14,15,16-decahydro-1H-cyclopenta[a]phenanthren-3-one
Formula: C21H30O4
Exact mass: 346.2144
SMILES: CC12CCC(=O)C=C1CCC3C2CCC4(C3CCC4(C(=O)CO)O)C
InChI: InChI=1S/C21H30O4/c1-19-8-5-14(23)11-13(19)3-4-15-16(19)6-9-20(2)17(15)7-10-21(20,25)18(24)12-22/h11,15-17,22,25H,3-10,12H2,1-2H3
Instrument: Agilent 6560 QTOF
Instrument type: LC-ESI-QTOF
Ms type: MS2
Ion mode: NEGATIVE
Ionization: ESI
Fragmentation mode: CID
Collision energy: 20 eV
Resolution: 7000
Column name: N/A
Retention time: 0.237 min
Base peak: 357.1895
Precursor m/z: 345.2071
Precursor type: [M-H]-
Precursor intensity: 21494
m/z	relative intensity	assigned
196.1291	67	C15H16-
271.1707	65	C18H23O2-
273.1834	202	C18H25O2-
284.1452	14	C18H20O3-
286.1897	66	C19H26O2-
299.1659	777	C19H23O3-
300.172	30	C19H24O3-
313.1796	90	C20H25O3-
315.1951	999	C20H27O3-
316.1992	278	C20H28O3-
317.0815	83	C20H13O4-
327.1983	234	C21H27O3-
