Mass spectrum: 4-((4-(Allyloxy)phenyl)sulfonyl)phenol; LC-ESI-QTOF; MS2; CE: 40eV; R=7000; [M-H]-
Name: 4-((4-(Allyloxy)phenyl)sulfonyl)phenol
Name: 4-(4-prop-2-enoxyphenyl)sulfonylphenol
Formula: C15H14O4S
Exact mass: 290.0613
SMILES: C=CCOC1=CC=C(C=C1)S(=O)(=O)C2=CC=C(C=C2)O
InChI: InChI=1S/C15H14O4S/c1-2-11-19-13-5-9-15(10-6-13)20(17,18)14-7-3-12(16)4-8-14/h2-10,16H,1,11H2
Instrument: Agilent 6560 QTOF
Instrument type: LC-ESI-QTOF
Ms type: MS2
Ion mode: NEGATIVE
Ionization: ESI
Fragmentation mode: CID
Collision energy: 40 eV
Resolution: 7000
Retention time: 0.155 min
Base peak: 289.055
Precursor m/z: 289.054
Precursor type: [M-H]-
Precursor intensity: 110014.13
m/z	relative intensity	assigned
63.9633	22	O2S-
82.9967	13	C4H3S-
91.0188	279	C6H3O-
92.027	955	C6H4O-
95.0124	7	C5H3O2-
101.0398	11	C8H5-
108.0216	999	C6H4O2-
110.9905	35	C5H3OS-
111.9976	9	C5H4OS-
115.0525	8	C9H7-
127.9938	12	C5H4O2S-
128.0625	193	C10H8-
132.0561	8	C9H8O-
138.9847	90	C6H3O2S-
139.9937	183	C6H4O2S-
143.0502	33	C10H7O-
155.0489	13	C11H7O-
155.9882	13	C6H4O3S-
156.0576	211	C11H8O-
158.0385	9	C10H6O2-
171.0453	11	C11H7O2-
182.037	12	C12H6O2-
183.044	59	C12H7O2-
184.0526	257	C12H8O2-
185.0563	8	C12H9O2-
199.0386	48	C12H7O3-
248.0159	21	C12H8O4S-
