Mass spectrum: 1-octadecanoyl-rac-glycerol; LC-ESI-QTOF; MS2; CE: 40eV; R=7000; [M+Na]+
Name: 1-octadecanoyl-rac-glycerol
Name: Glyceryl monostearate
Name: 2,3-dihydroxypropyl octadecanoate
Formula: C21H42O4
Exact mass: 358.3083
SMILES: CCCCCCCCCCCCCCCCCC(=O)OCC(CO)O
InChI: InChI=1S/C21H42O4/c1-2-3-4-5-6-7-8-9-10-11-12-13-14-15-16-17-21(24)25-19-20(23)18-22/h20,22-23H,2-19H2,1H3
Instrument: Agilent 6560 QTOF
Instrument type: LC-ESI-QTOF
Ms type: MS2
Ion mode: POSITIVE
Ionization: ESI
Fragmentation mode: CID
Collision energy: 40 eV
Resolution: 7000
Column name: Direct injection
Retention time: 0.213 min
Base peak: 388.3949
Precursor m/z: 381.2975
Precursor type: [M+Na]+
Precursor intensity: 1439
m/z	relative intensity	assigned
91.0548	596	C7H7+
130.0289	999	C5H6O4+
