Mass spectrum: Deoxycorticosterone acetate; LC-ESI-QTOF; MS2; CE: 10eV; R=7000; [M+H]+
Name: Deoxycorticosterone acetate
Name: Percorten
Name: [2-(10,13-dimethyl-3-oxo-1,2,6,7,8,9,11,12,14,15,16,17-dodecahydrocyclopenta[a]phenanthren-17-yl)-2-oxoethyl] acetate
Formula: C23H32O4
Exact mass: 372.2301
SMILES: CC(=O)OCC(=O)C1CCC2C1(CCC3C2CCC4=CC(=O)CCC34C)C
InChI: InChI=1S/C23H32O4/c1-14(24)27-13-21(26)20-7-6-18-17-5-4-15-12-16(25)8-10-22(15,2)19(17)9-11-23(18,20)3/h12,17-20H,4-11,13H2,1-3H3
Instrument: Agilent 6560 QTOF
Instrument type: LC-ESI-QTOF
Ms type: MS2
Ion mode: POSITIVE
Ionization: ESI
Fragmentation mode: CID
Collision energy: 10 eV
Resolution: 7000
Column name: Direct injection
Retention time: 0.184 min
Base peak: 415.213
Precursor m/z: 373.2373
Precursor type: [M+H]+
Precursor intensity: 255896
m/z	relative intensity	assigned
77.0374	4	C6H5+
79.0558	9	C6H7+
81.0697	10	C6H9+
83.0484	9	C5H7O+
93.0698	6	C7H9+
95.0859	6	C7H11+
97.0651	537	C6H9O+
101.0219	8	C4H5O3+
103.0395	4	C4H7O3+
105.0694	2	C8H9+
107.0472	1	C7H7O+
107.0847	17	C8H11+
109.0647	317	C7H9O+
119.086	4	C9H11+
121.1021	7	C9H13+
123.0799	18	C8H11O+
131.0858	7	C10H11+
133.1001	12	C10H13+
135.1167	17	C10H15+
141.0701	4	C11H9+
143.0851	10	C11H11+
145.0996	9	C11H13+
154.0755	5	C12H10+
157.1008	11	C12H13+
162.1369	10	C12H18+
163.1139	8	C11H15O+
164.1168	3	C11H16O+
165.0917	4	C10H13O2+
169.098	1	C13H13+
171.1163	16	C13H15+
172.126	5	C13H16+
173.1349	13	C13H17+
175.1091	3	C12H15O+
175.1459	3	C13H19+
177.1286	2	C12H17O+
183.1187	5	C14H15+
185.129	7	C14H17+
187.1114	6	C13H15O+
187.1483	12	C14H19+
189.1275	16	C13H17O+
195.1401	2	C12H19O2+
199.1119	3	C14H15O+
199.1484	18	C15H19+
202.1325	6	C14H18O+
203.1438	7	C14H19O+
209.1298	4	C16H17+
210.1298	1	C12H18O3+
211.1469	27	C16H19+
213.1627	11	C16H21+
217.1202	9	C14H17O2+
221.1334	2	C17H17+
225.1615	7	C17H21+
227.1764	3	C17H23+
229.1589	16	C16H21O+
241.1537	3	C17H21O+
249.1639	1	C19H21+
251.1828	4	C19H23+
253.1957	14	C19H25+
255.1712	5	C18H23O+
256.179	4	C18H24O+
262.1684	2	C20H22+
265.1827	5	C16H25O3+
267.1757	3	C19H23O+
267.2091	17	C20H27+
268.2165	4	C20H28+
269.19	9	C19H25O+
269.2141	1	C16H29O3+
271.2072	21	C19H27O+
273.1846	2	C18H25O2+
277.1983	23	C21H25+
283.2044	7	C20H27O+
287.1648	6	C18H23O3+
289.1792	9	C18H25O3+
291.1914	5	C18H27O3+
295.2057	95	C21H27O+
296.2054	14	C17H28O4+
299.2018	2	C20H27O2+
313.2174	94	C21H29O2+
314.2216	7	C21H30O2+
331.2273	124	C21H31O3+
332.2285	21	C21H32O3+
355.2289	14	C23H31O3+
373.2387	999	C23H33O4+
