Mass spectrum: Cholesteryl linoleate; LC-ESI-QTOF; MS2; CE: 40eV; R=7000; [M+NH4]+
Name: Cholesteryl linoleate
Name: [(3S,8S,9S,10R,13R,14S,17R)-10,13-dimethyl-17-[(2R)-6-methylheptan-2-yl]-2,3,4,7,8,9,11,12,14,15,16,17-dodecahydro-1H-cyclopenta[a]phenanthren-3-yl] (9Z,12Z)-octadeca-9,12-dienoate
Formula: C45H76O2
Exact mass: 648.5845
SMILES: CCCCC/C=C\C/C=C\CCCCCCCC(=O)O[C@H]1CC[C@@]2([C@H]3CC[C@]4([C@H]([C@@H]3CC=C2C1)CC[C@@H]4[C@H](C)CCCC(C)C)C)C
InChI: InChI=1S/C45H76O2/c1-7-8-9-10-11-12-13-14-15-16-17-18-19-20-21-25-43(46)47-38-30-32-44(5)37(34-38)26-27-39-41-29-28-40(36(4)24-22-23-35(2)3)45(41,6)33-31-42(39)44/h11-12,14-15,26,35-36,38-42H,7-10,13,16-25,27-34H2,1-6H3/b12-11-,15-14-/t36-,38+,39+,40-,41+,42+,44+,45-/m1/s1
Instrument: Agilent 6560 QTOF
Instrument type: LC-ESI-QTOF
Ms type: MS2
Ion mode: POSITIVE
Ionization: ESI
Fragmentation mode: CID
Collision energy: 40 eV
Resolution: 7000
Column name: Direct injection
Retention time: 0.633 min
Base peak: 256.9655
Precursor m/z: 666.6184
Precursor type: [M+NH4]+
Precursor intensity: 9146
m/z	relative intensity	assigned
81.0704	999	C6H9+
83.0855	588	C6H11+
85.1003	248	C6H13+
93.069	320	C7H9+
95.0839	470	C7H11+
105.0678	611	C8H9+
121.0983	216	C9H13+
131.0865	479	C10H11+
133.1006	277	C10H13+
135.1143	177	C10H15+
147.1146	705	C11H15+
175.1483	305	C13H19+
177.1658	291	C13H21+
229.192	107	C17H25+
261.2574	131	C19H33+
369.3508	340	C27H45+
370.352	416	C26H44N+
576.2672	346	C44H34N+
