Mass spectrum: N-Palmitoyl-D-sphingosine; LC-ESI-QTOF; MS2; CE: 10eV; R=7000; [M+H]+
Name: N-Palmitoyl-D-sphingosine
Name: N-Palmitoylsphingosine
Name: N-[(E,2S,3R)-1,3-dihydroxyoctadec-4-en-2-yl]hexadecanamide
Formula: C34H67NO3
Exact mass: 537.5121
SMILES: [H][C@@](CO)(NC(=O)CCCCCCCCCCCCCCC)[C@H](O)\C=C\CCCCCCCCCCCCC
InChI: InChI=1S/C34H67NO3/c1-3-5-7-9-11-13-15-17-19-21-23-25-27-29-33(37)32(31-36)35-34(38)30-28-26-24-22-20-18-16-14-12-10-8-6-4-2/h27,29,32-33,36-37H,3-26,28,30-31H2,1-2H3,(H,35,38)/b29-27+/t32-,33+/m0/s1
Instrument: Agilent 6560 QTOF
Instrument type: LC-ESI-QTOF
Ms type: MS2
Ion mode: POSITIVE
Ionization: ESI
Fragmentation mode: CID
Collision energy: 10 eV
Resolution: 7000
Column name: Direct injection
Retention time: 0.185 min
Base peak: 560.503
Precursor m/z: 538.5194
Precursor type: [M+H]+
Precursor intensity: 212443
m/z	relative intensity	assigned
71.0844	3	C5H11+
77.0378	6	C6H5+
81.0696	4	C6H9+
82.0639	7	C5H8N+
89.0599	1	C4H9O2+
95.0728	3	C6H9N+
95.0853	4	C7H11+
107.0829	10	C8H11+
109.1033	6	C8H13+
121.1014	4	C9H13+
129.1265	9	C8H17O+
135.1159	3	C10H15+
191.1058	8	C12H15O2+
209.1214	1	C15H15N+
247.2429	2	C18H31+
248.2381	2	C17H30N+
252.2683	80	C17H34N+
256.2628	6	C16H34NO+
264.269	927	C18H34N+
265.2725	63	C15H37O3+
280.2642	12	C18H34NO+
282.2802	81	C18H36NO+
283.2841	16	C18H37NO+
374.988	2	C26HNO3+
490.4962	45	C33H64NO+
491.499	18	C33H65NO+
502.5001	91	C34H64NO+
503.4994	25	C34H65NO+
520.5086	999	C34H66NO2+
521.5124	204	C34H67NO2+
