Mass spectrum: D-lactosyl-beta-1,1 N-octanoyl-D-erythro-sphingosine; LC-ESI-QTOF; MS2; CE: 40eV; R=7000; [M-H]-
Name: D-lactosyl-beta-1,1 N-octanoyl-D-erythro-sphingosine
Name: C8 Lactosyl(beta) Ceramide (d18:1/8:0), D-lactosyl-beta-1,1` N-octanoyl-D-erythro-sphingosine, powder
Name: N-[(E,2S,3R)-1-[(2R,5S,6R)-3,4-dihydroxy-6-(hydroxymethyl)-5-[(2S,5R,6R)-3,4,5-trihydroxy-6-(hydroxymethyl)oxan-2-yl]oxyoxan-2-yl]oxy-3-hydroxyoctadec-4-en-2-yl]octanamide
Formula: C38H71NO13
Exact mass: 749.4925
SMILES: CCCCCCCCCCCCC/C=C/[C@H]([C@H](CO[C@H]1C(C([C@@H]([C@H](O1)CO)O[C@H]2C(C([C@H]([C@H](O2)CO)O)O)O)O)O)NC(=O)CCCCCCC)O
InChI: InChI=1S/C38H71NO13/c1-3-5-7-9-10-11-12-13-14-15-16-18-19-21-27(42)26(39-30(43)22-20-17-8-6-4-2)25-49-37-35(48)33(46)36(29(24-41)51-37)52-38-34(47)32(45)31(44)28(23-40)50-38/h19,21,26-29,31-38,40-42,44-48H,3-18,20,22-25H2,1-2H3,(H,39,43)/b21-19+/t26-,27+,28+,29+,31-,32?,33?,34?,35?,36+,37+,38-/m0/s1
Instrument: Agilent 6560 QTOF
Instrument type: LC-ESI-QTOF
Ms type: MS2
Ion mode: NEGATIVE
Ionization: ESI
Fragmentation mode: CID
Collision energy: 40 eV
Resolution: 7000
Column name: N/A
Retention time: 0.166 min
Base peak: 748.4868
Precursor m/z: 748.4853
Precursor type: [M-H]-
Precursor intensity: 116366
m/z	relative intensity	assigned
71.014	999	C3H3O2-
73.0301	127	C3H5O2-
81.0352	66	C5H5O-
81.2214	8	C3H29O-
83.0138	94	C4H3O2-
85.029	115	C4H5O2-
85.0521	9	C4H7NO-
87.0075	54	C3H3O3-
89.0243	531	C3H5O3-
95.0151	42	C5H3O2-
97.0289	92	C5H5O2-
97.0493	14	C2H9O4-
99.0083	26	C4H3O3-
101.0248	390	C4H5O3-
109.1241	3	C5H17O2-
111.0076	17	C5H3O3-
113.024	361	C5H5O3-
115.0387	13	C5H7O3-
119.0344	60	C4H7O4-
119.2798	5	H39O5-
125.1895	3	C7H25O-
129.0554	32	C6H9O3-
131.0325	92	C5H7O4-
133.1229	21	C7H17O2-
136.0421	11	C7H6NO2-
142.1251	19	C8H16NO-
143.0352	43	C6H7O4-
143.1083	110	C8H15O2-
143.1481	7	C2H23O6-
143.1741	7	C2H25NO5-
155.1802	7	C11H23-
156.4532	5	C4H60O3-
160.5446	7	C5H70NO-
161.0419	83	C13H5-
168.1391	279	C10H18NO-
168.1928	14	C5H28O5-
170.3124	9	H44NO7-
172.4877	7	C8H62N-
179.055	30	C6H11O6-
184.1307	33	C7H20O5-
184.5313	13	C3H70NO4-
203.0544	29	C8H11O6-
221.0647	56	C8H13O7-
222.0701	8	C15H10O2-
223.1726	4	C14H23O2-
237.2208	20	CH35NO11-
248.9722	101	C3H5O13-
263.2348	97	C3H37NO11-
264.2419	16	C10H34NO6-
266.2461	34	C14H34O4-
277.255	10	C19H33O-
280.2648	22	C18H34NO-
281.2473	35	C3H39NO12-
284.9466	10	C9HO11-
289.9601	10	C11NO9-
298.2684	7	C22H34-
310.3149	3	C10H46O9-
325.2708	4	C12H39NO8-
333.3546	7	C24H45-
346.1339	8	C11H24NO11-
351.163	2	C25H21NO-
359.944	12	C14O12-
377.3599	20	C14H51NO9-
382.2722	5	C22H38O5-
392.3477	22	C29H44-
394.373	74	C15H54O10-
395.1103	8	C29H15O2-
395.3666	15	C14H53NO10-
406.3699	62	C26H48NO2-
411.4857	8	C21H65NO5-
422.2274	3	C30H30O2-
424.38	270	C26H50NO3-
425.383	68	C23H53O6-
426.1198	4	C22H20NO8-
471.0211	8	C21H11O13-
472.546	6	C31H70NO-
486.9745	7	C27H3O10-
490.378	6	C19H56NO12-
522.999	3	C30H5NO9-
568.4157	12	C36H56O5-
601.4708	8	C37H63NO5-
604.9465	6	C33HO13-
619.1485	5	C35H25NO10-
659.3175	7	C38H45NO9-
748.4834	8	C38H70NO13-
