Mass spectrum: N-ACETYLPHENYLALANINE; LC-ESI-QTOF; MS2; CE: 20eV; R=5000; [M+H]+
Name: N-ACETYLPHENYLALANINE
Name: N-Acetyl-L-phenylalanine
Name: (2S)-2-acetamido-3-phenylpropanoic acid
Formula: C11H13NO3
Exact mass: 207.0895
SMILES: CC(=O)N[C@@H](CC1=CC=CC=C1)C(O)=O
InChI: InChI=1S/C11H13NO3/c1-8(13)12-10(11(14)15)7-9-5-3-2-4-6-9/h2-6,10H,7H2,1H3,(H,12,13)(H,14,15)/t10-/m0/s1
Instrument: Agilent 6530 QTOF
Instrument type: LC-ESI-QTOF
Ms type: MS2
Ion mode: POSITIVE
Ionization: ESI
Fragmentation mode: CID
Collision energy: 20 eV
Resolution: 5000
Column name: N/A
Retention time: 0.217 min
Base peak: 121.0508
Precursor m/z: 208.0968
Precursor type: [M+H]+
Precursor intensity: 404077
m/z	relative intensity	assigned
43.0179	25	C2H3O+
58.062	2	H10O3+
65.0374	1	C5H5+
79.0526	4	C6H7+
104.0518	4	C7H6N+
120.0779	999	C5H12O3+
121.0869	3	C5H13O3+
122.0255	1	C6H4NO2+
