Mass spectrum: Cortisone; LC-ESI-QTOF; MS2; CE: 20eV; R=7000; [M+H]+
Name: Cortisone
Name: (8S,9S,10R,13S,14S,17R)-17-hydroxy-17-(2-hydroxyacetyl)-10,13-dimethyl-1,2,6,7,8,9,12,14,15,16-decahydrocyclopenta[a]phenanthrene-3,11-dione
Formula: C21H28O5
Exact mass: 360.1937
SMILES: C[C@]12CCC(=O)C=C1CC[C@@H]3[C@@H]2C(=O)C[C@]4([C@H]3CC[C@@]4(C(=O)CO)O)C
InChI: InChI=1S/C21H28O5/c1-19-7-5-13(23)9-12(19)3-4-14-15-6-8-21(26,17(25)11-22)20(15,2)10-16(24)18(14)19/h9,14-15,18,22,26H,3-8,10-11H2,1-2H3/t14-,15-,18+,19-,20-,21-/m0/s1
Instrument: Agilent 6560 QTOF
Instrument type: LC-ESI-QTOF
Ms type: MS2
Ion mode: POSITIVE
Ionization: ESI
Fragmentation mode: CID
Collision energy: 20 eV
Resolution: 7000
Column name: Direct injection
Retention time: 0.211 min
Base peak: 415.2123
Precursor m/z: 361.201
Precursor type: [M+H]+
Precursor intensity: 71025
m/z	relative intensity	assigned
91.0535	73	C7H7+
93.0686	107	C7H9+
95.0834	15	C7H11+
97.0642	228	C6H9O+
105.0697	108	C8H9+
107.0833	28	C8H11+
119.085	126	C9H11+
121.0633	334	C8H9O+
123.0795	64	C8H11O+
131.0844	180	C10H11+
133.1001	6	C10H13+
135.081	52	C9H11O+
135.1167	148	C10H15+
137.0939	39	C9H13O+
139.0762	68	C8H11O2+
143.0846	75	C11H11+
145.0991	259	C11H13+
146.1118	75	C11H14+
147.0788	58	C10H11O+
147.1149	33	C11H15+
148.0851	28	C10H12O+
151.0748	32	C9H11O2+
151.1099	21	C10H15O+
153.0914	9	C9H13O2+
155.0873	73	C12H11+
157.0998	43	C12H13+
159.081	105	C11H11O+
161.0976	142	C11H13O+
163.1109	999	C11H15O+
167.0842	65	C13H11+
169.0994	79	C13H13+
173.0964	29	C12H13O+
175.1148	12	C12H15O+
181.0986	33	C14H13+
183.1152	69	C14H15+
185.0946	14	C13H13O+
189.089	21	C12H13O2+
190.0982	60	C12H14O2+
191.1059	17	C12H15O2+
195.116	106	C15H15+
197.2138	12	C10H29O3+
199.1119	71	C14H15O+
205.1183	12	C13H17O2+
217.0848	49	C13H13O3+
222.1357	20	C17H18+
223.1114	40	C16H15O+
225.1271	8	C16H17O+
227.1476	58	C16H19O+
236.1162	16	C17H16O+
237.1644	17	C18H21+
239.1428	82	C17H19O+
239.1801	24	C18H23+
241.1258	39	C16H17O2+
243.1393	52	C16H19O2+
249.1635	73	C19H21+
257.1534	51	C17H21O2+
258.1606	33	C17H22O2+
260.1538	8	C20H20+
261.1477	21	C16H21O3+
265.1575	163	C19H21O+
269.1526	50	C18H21O2+
279.1743	82	C20H23O+
283.1675	36	C19H23O2+
284.1753	37	C19H24O2+
285.1835	43	C19H25O2+
294.1629	41	C20H22O2+
295.1666	15	C20H23O2+
297.1849	71	C20H25O2+
299.1663	52	C19H23O3+
301.1803	15	C19H25O3+
302.1828	46	C19H26O3+
303.1563	20	C18H23O4+
307.1712	107	C21H23O2+
313.1776	63	C20H25O3+
326.1849	36	C21H26O3+
343.1875	73	C21H27O4+
361.2014	391	C21H29O5+
