Mass spectrum: 1,2-dihexadecanoyl-sn-glycero-3-phosphoethanolamine; LC-ESI-QTOF; MS2; CE: 10eV; R=7000; [M-H]-
Name: 1,2-dihexadecanoyl-sn-glycero-3-phosphoethanolamine
Name: 1,2-Dipalmitoyl-sn-glycero-3-phosphoethanolamine
Name: [(2R)-3-[2-aminoethoxy(hydroxy)phosphoryl]oxy-2-hexadecanoyloxypropyl] hexadecanoate
Formula: C37H74NO8P
Exact mass: 691.5152
SMILES: CCCCCCCCCCCCCCCC(=O)OC[C@H](COP(=O)(O)OCCN)OC(=O)CCCCCCCCCCCCCCC
InChI: InChI=1S/C37H74NO8P/c1-3-5-7-9-11-13-15-17-19-21-23-25-27-29-36(39)43-33-35(34-45-47(41,42)44-32-31-38)46-37(40)30-28-26-24-22-20-18-16-14-12-10-8-6-4-2/h35H,3-34,38H2,1-2H3,(H,41,42)/t35-/m1/s1
Instrument: Agilent 6560 QTOF
Instrument type: LC-ESI-QTOF
Ms type: MS2
Ion mode: NEGATIVE
Ionization: ESI
Fragmentation mode: CID
Collision energy: 10 eV
Resolution: 7000
Column name: N/A
Retention time: 0.144 min
Base peak: 980.0164
Precursor m/z: 690.5079
Precursor type: [M-H]-
Precursor intensity: 138603
m/z	relative intensity	assigned
132.3779	6	C3H51NP-
140.0118	8	C2H7NO4P-
196.0369	4	C9H8O5-
197.0438	4	C2H14O8P-
228.5426	3	C9H73OP-
254.1668	4	C18H22O-
255.2329	457	C16H31O2-
256.2385	18	C9H37O5P-
256.2973	2	C14H40O3-
256.4056	1	C10H57O3P-
256.438	5	C10H58NO4-
259.5113	3	C15H65N-
268.5117	2	C13H66NO2-
269.955	3	C9H3O8P-
276.2232	3	C15H33O2P-
297.4032	1	C11H55NO6-
307.3055	1	C14H43O6-
309.0412	2	C13H12NO6P-
335.1485	2	C18H23O6-
353.2825	1	C18H42O4P-
361.5649	2	C23H71N-
420.0443	2	C32H6NO-
434.2609	1	C32H34O-
434.3009	8	C19H47O8P-
452.2784	13	C21H43NO7P-
498.063	2	C30H12NO7-
525.3539	2	C36H48NP-
562.1573	14	C37H25NO3P-
587.1027	2	C37H17NO7-
609.0181	3	C37H8NO7P-
609.0573	1	C35H16NO8P-
613.4578	1	C34H63NO8-
690.5088	999	C37H73NO8P-
