Mass spectrum: Sphinganine; LC-ESI-QTOF; MS2; CE: 40eV; R=7000; [M+H]+
Name: Sphinganine
Name: (2S,3R)-2-aminooctadecane-1,3-diol
Formula: C18H39NO2
Exact mass: 301.2981
SMILES: CCCCCCCCCCCCCCC[C@@H](O)[C@@H](N)CO
InChI: InChI=1S/C18H39NO2/c1-2-3-4-5-6-7-8-9-10-11-12-13-14-15-18(21)17(19)16-20/h17-18,20-21H,2-16,19H2,1H3/t17-,18+/m0/s1
Instrument: Agilent 6560 QTOF
Instrument type: LC-ESI-QTOF
Ms type: MS2
Ion mode: POSITIVE
Ionization: ESI
Fragmentation mode: CID
Collision energy: 40 eV
Resolution: 7000
Column name: Direct injection
Retention time: 0.153 min
Base peak: 302.3064
Precursor m/z: 302.3054
Precursor type: [M+H]+
Precursor intensity: 17473
m/z	relative intensity	assigned
70.0655	999	C4H8N+
71.048	68	C4H7O+
71.0844	52	C5H11+
77.0383	459	C6H5+
79.0548	753	C6H7+
81.069	614	C6H9+
92.9967	176	C5HO2+
95.0841	381	C7H11+
97.1003	180	C7H13+
241.2389	48	C15H31NO+
254.2818	56	C17H36N+
