Mass spectrum: GUANOSINEMONOPHOSPHATE; LC-ESI-QTOF; MS2; CE: 10eV; R=5000; [M+H]+
Name: GUANOSINEMONOPHOSPHATE
Name: CID 6804
Name: [(2R,3S,4R,5R)-5-(2-amino-6-oxo-3H-purin-9-yl)-3,4-dihydroxyoxolan-2-yl]methyl dihydrogen phosphate
Formula: C10H14N5O8P
Exact mass: 363.0580
SMILES: NC1=NC2=C(N=CN2[C@@H]2O[C@H](COP(O)(O)=O)[C@@H](O)[C@H]2O)C(=O)N1
InChI: InChI=1S/C10H14N5O8P/c11-10-13-7-4(8(18)14-10)12-2-15(7)9-6(17)5(16)3(23-9)1-22-24(19,20)21/h2-3,5-6,9,16-17H,1H2,(H2,19,20,21)(H3,11,13,14,18)/t3-,5-,6-,9-/m1/s1
Instrument: Agilent 6530 QTOF
Instrument type: LC-ESI-QTOF
Ms type: MS2
Ion mode: POSITIVE
Ionization: ESI
Fragmentation mode: CID
Collision energy: 10 eV
Resolution: 5000
Column name: N/A
Retention time: 0.323 min
Base peak: 121.0508
Precursor m/z: 364.0653
Precursor type: [M+H]+
Precursor intensity: 68790
m/z	relative intensity	assigned
62.0488	3	CH6N2O+
97.0307	29	CH8NO2P+
97.099	2	C2H13N2O2+
105.0871	1	H13N2O4+
109.0459	1	CH7N3O3+
110.0292	5	C6H7P+
111.0618	1	CH9N3O3+
135.029	33	H10NO5P+
135.125	3	C4H15N4O+
151.0079	7	CH3N4O5+
152.056	999	H13N2O5P+
153.1163	2	C9H15NO+
153.9847	5	C9HNP+
154.0565	4	CH8N5O4+
166.1055	2	C4H14N4O3+
184.0501	14	C10H6N3O+
204.9471	1	C3N3O6P+
221.0199	1	C5H8N3O5P+
250.0383	2	C10H9N3O3P+
250.9337	3	C9O7P+
282.944	1	C8N2O8P+
287.0941	1	C10H15N4O6+
294.9782	2	C10H4N2O7P+
364.06	36	C10H15N5O8P+
