Mass spectrum: 1-(9Z-octadecenoyl)-sn-glycero-3-phosphoserine; LC-ESI-QTOF; MS2; CE: 10eV; R=7000; [M+H]+
Name: 1-(9Z-octadecenoyl)-sn-glycero-3-phosphoserine
Name: (2S)-2-amino-3-[hydroxy-[(2R)-2-hydroxy-3-[(Z)-octadec-9-enoyl]oxypropoxy]phosphoryl]oxypropanoic acid
Formula: C24H46NO9P
Exact mass: 523.2910
SMILES: [H][C@@](O)(COC(=O)CCCCCCC\C=C/CCCCCCCC)COP(O)(=O)OC[C@]([H])(N)C(O)=O
InChI: InChI=1S/C24H46NO9P/c1-2-3-4-5-6-7-8-9-10-11-12-13-14-15-16-17-23(27)32-18-21(26)19-33-35(30,31)34-20-22(25)24(28)29/h9-10,21-22,26H,2-8,11-20,25H2,1H3,(H,28,29)(H,30,31)/b10-9-/t21-,22+/m1/s1
Instrument: Agilent 6560 QTOF
Instrument type: LC-ESI-QTOF
Ms type: MS2
Ion mode: POSITIVE
Ionization: ESI
Fragmentation mode: CID
Collision energy: 10 eV
Resolution: 7000
Column name: Direct injection
Retention time: 0.241 min
Base peak: 338.3428
Precursor m/z: 524.2983
Precursor type: [M+H]+
Precursor intensity: 27100
m/z	relative intensity	assigned
83.0852	42	C6H11+
88.0398	150	C3H6NO2+
106.0497	232	C3H8NO3+
155.0097	360	C3H8O5P+
173.0217	53	C3H10O6P+
260.0481	25	C13H11NO3P+
265.2562	29	C4H42O9P+
339.2181	61	C15H34NO5P+
339.2892	999	C21H39O3+
340.2912	157	C13H42NO8+
352.2865	198	C21H38NO3+
419.2535	103	C20H37NO8+
489.2863	23	C24H44NO7P+
506.2886	315	C24H45NO8P+
507.2896	71	C24H46NO8P+
524.2993	148	C24H47NO9P+
