Mass spectrum: 9(Z),12(Z)-octadecadienoyl-L-carnitine; LC-ESI-QTOF; MS2; CE: 10eV; R=7000; [M+Na]+
Name: 9(Z),12(Z)-octadecadienoyl-L-carnitine
Name: 3-octadeca-9,12-dienoyloxy-4-(trimethylazaniumyl)butanoate
Formula: C25H45NO4
Exact mass: 423.3349
SMILES: CCCCCC=CCC=CCCCCCCCC(=O)OC(CC(=O)[O-])C[N+](C)(C)C
InChI: InChI=1S/C25H45NO4/c1-5-6-7-8-9-10-11-12-13-14-15-16-17-18-19-20-25(29)30-23(21-24(27)28)22-26(2,3)4/h9-10,12-13,23H,5-8,11,14-22H2,1-4H3
Instrument: Agilent 6560 QTOF
Instrument type: LC-ESI-QTOF
Ms type: MS2
Ion mode: POSITIVE
Ionization: ESI
Fragmentation mode: CID
Collision energy: 10 eV
Resolution: 7000
Column name: Direct injection
Retention time: 0.184 min
Base peak: 424.3439
Precursor m/z: 446.3241
Precursor type: [M+Na]+
Precursor intensity: 82932
m/z	relative intensity	assigned
99.0424	12	C3H8NaO2+
107.0094	50	C4H4NaO2+
125.0213	7	C4H6NaO3+
303.2288	5	C18H32NaO2+
304.2343	8	C18H33NaO2+
343.2539	3	C22H33NO2+
365.1508	6	C24H22NaO2+
387.2508	999	C22H36NaO4+
388.2543	108	C22H37NaO4+
390.2027	2	C23H29NNaO3+
446.3238	56	C25H45NNaO4+
