Mass spectrum: Corticosterone; LC-ESI-QTOF; MS2; CE: 10eV; R=7000; [M+H]+
Name: Corticosterone
Name: (8S,9S,10R,11S,13S,14S,17S)-11-hydroxy-17-(2-hydroxyacetyl)-10,13-dimethyl-1,2,6,7,8,9,11,12,14,15,16,17-dodecahydrocyclopenta[a]phenanthren-3-one
Formula: C21H30O4
Exact mass: 346.2144
SMILES: C[C@]12CCC(=O)C=C1CC[C@@H]3[C@@H]2[C@H](C[C@]4([C@H]3CC[C@@H]4C(=O)CO)C)O
InChI: InChI=1S/C21H30O4/c1-20-8-7-13(23)9-12(20)3-4-14-15-5-6-16(18(25)11-22)21(15,2)10-17(24)19(14)20/h9,14-17,19,22,24H,3-8,10-11H2,1-2H3/t14-,15-,16+,17-,19+,20-,21-/m0/s1
Instrument: Agilent 6560 QTOF
Instrument type: LC-ESI-QTOF
Ms type: MS2
Ion mode: POSITIVE
Ionization: ESI
Fragmentation mode: CID
Collision energy: 10 eV
Resolution: 7000
Column name: Direct injection
Retention time: 0.182 min
Base peak: 347.2228
Precursor m/z: 347.2217
Precursor type: [M+H]+
Precursor intensity: 165850
m/z	relative intensity	assigned
71.0475	11	C4H7O+
77.0368	4	C6H5+
79.053	21	C6H7+
83.0492	40	C5H7O+
85.0647	8	C5H9O+
87.0446	23	C4H7O2+
89.0587	15	C4H9O2+
91.0534	21	C7H7+
93.0709	6	C7H9+
95.0862	60	C7H11+
97.0644	79	C6H9O+
105.0689	54	C8H9+
107.0472	13	C7H7O+
107.0864	19	C8H11+
109.0652	39	C7H9O+
111.0431	23	C6H7O2+
111.0797	9	C7H11O+
119.0858	26	C9H11+
121.065	151	C8H9O+
123.0803	70	C8H11O+
123.1163	16	C9H15+
131.085	39	C10H11+
133.0992	21	C10H13+
135.0806	86	C9H11O+
135.1166	34	C10H15+
137.0955	30	C9H13O+
139.0733	2	C8H11O2+
143.0866	23	C11H11+
145.0998	58	C11H13+
146.1082	3	C11H14+
147.0801	19	C10H11O+
147.1181	35	C11H15+
149.0957	8	C10H13O+
152.0609	6	C12H8+
153.0899	26	C9H13O2+
155.0836	25	C12H11+
156.0961	12	C12H12+
157.1007	35	C12H13+
159.1157	57	C12H15+
161.0952	38	C11H13O+
163.1131	42	C11H15O+
165.0903	4	C10H13O2+
169.1025	33	C13H13+
170.1061	18	C13H14+
171.1161	28	C13H15+
173.0947	15	C12H13O+
173.1317	17	C13H17+
175.1115	9	C12H15O+
175.1466	31	C13H19+
177.1274	13	C12H17O+
179.0812	12	C14H11+
179.1045	29	C11H15O2+
185.0962	9	C13H13O+
185.1327	27	C14H17+
186.0638	5	C12H10O2+
187.1107	22	C13H15O+
187.1475	21	C14H19+
189.0895	17	C12H13O2+
189.1275	41	C13H17O+
189.1657	5	C14H21+
190.078	17	C15H10+
191.1417	12	C13H19O+
195.1195	5	C15H15+
195.1388	16	C12H19O2+
197.1318	25	C15H17+
199.1101	30	C14H15O+
207.1171	5	C16H15+
207.1411	11	C13H19O2+
209.1341	14	C16H17+
211.1099	9	C15H15O+
211.1491	88	C16H19+
212.1149	12	C15H16O+
212.1528	3	C16H20+
213.1284	16	C15H17O+
213.1641	17	C16H21+
215.1422	16	C15H19O+
219.1403	8	C14H19O2+
223.149	20	C17H19+
225.1266	15	C16H17O+
225.1604	14	C17H21+
227.1407	23	C16H19O+
229.1571	20	C16H21O+
233.1559	10	C15H21O2+
235.1484	26	C18H19+
236.1167	12	C17H16O+
237.1259	26	C17H17O+
239.1383	5	C17H19O+
241.1037	7	C19H13+
241.1581	42	C17H21O+
243.1736	24	C17H23O+
244.1728	11	C13H24O4+
245.1523	10	C16H21O2+
247.1478	3	C19H19+
249.1596	7	C19H21+
251.145	10	C18H19O+
251.1792	45	C19H23+
252.1852	4	C19H24+
253.1592	15	C18H21O+
253.1907	5	C19H25+
258.1388	9	C20H18+
259.1695	7	C17H23O2+
265.1622	17	C19H21O+
265.1932	17	C20H25+
266.1995	10	C20H26+
267.1751	36	C19H23O+
268.1792	3	C19H24O+
269.1572	5	C18H21O2+
269.19	58	C19H25O+
270.1934	6	C19H26O+
271.2053	7	C19H27O+
275.1796	30	C21H23+
276.1822	6	C21H24+
277.1754	12	C17H25O3+
281.1893	42	C20H25O+
283.1305	6	C18H19O3+
283.1723	11	C19H23O2+
285.1835	9	C19H25O2+
287.1999	11	C19H27O2+
289.1732	6	C18H25O3+
293.1898	170	C21H25O+
294.1951	32	C21H26O+
299.1998	28	C20H27O2+
311.2003	161	C21H27O2+
312.2044	14	C21H28O2+
315.1931	25	C20H27O3+
329.2111	485	C21H29O3+
347.2215	999	C21H31O4+
