Mass spectrum: Bis(3,5,5-trimethylhexyl)phosphate; LC-ESI-QTOF; MS2; CE: 45eV; R=7000; [M+H]+
Name: Bis(3,5,5-trimethylhexyl)phosphate
Name: bis(3,5,5-trimethylhexyl) hydrogen phosphate
Formula: C18H39O4P
Exact mass: 350.2586
SMILES: CC(CCOP(=O)(O)OCCC(C)CC(C)(C)C)CC(C)(C)C
InChI: InChI=1S/C18H39O4P/c1-15(13-17(3,4)5)9-11-21-23(19,20)22-12-10-16(2)14-18(6,7)8/h15-16H,9-14H2,1-8H3,(H,19,20)
Instrument: Agilent 6560 QTOF
Instrument type: LC-ESI-QTOF
Ms type: MS2
Ion mode: POSITIVE
Ionization: ESI
Fragmentation mode: CID
Collision energy: 45 eV
Resolution: 7000
Column name: ZORBAX Extend-C18 3.5um, 2.1x50mm, Agilent Technologies
Retention time: 2.761 min
Base peak: 351.2657
Precursor m/z: 351.2659
Precursor type: [M+H]+
Precursor intensity: 18205.41
m/z	relative intensity	assigned
57.0705	896	C4H9+
62.9638	71	O2P+
71.0852	139	C5H11+
80.9741	262	H2O3P+
98.9844	999	H4O4P+
