Mass spectrum: O-SUCCINYL-HOMOSERINE; LC-ESI-QTOF; MS2; CE: 10eV; R=5000; [M+Na]+
Name: O-SUCCINYL-HOMOSERINE
Name: Homoserine, O-succinyl-
Name: 2-amino-4-(3-carboxypropanoyloxy)butanoic acid
Formula: C8H13NO6
Exact mass: 219.0743
SMILES: C(COC(=O)CCC(=O)O)C(C(=O)O)N
InChI: InChI=1S/C8H13NO6/c9-5(8(13)14)3-4-15-7(12)2-1-6(10)11/h5H,1-4,9H2,(H,10,11)(H,13,14)
Instrument: Agilent 6530 QTOF
Instrument type: LC-ESI-QTOF
Ms type: MS2
Ion mode: POSITIVE
Ionization: ESI
Fragmentation mode: CID
Collision energy: 10 eV
Resolution: 5000
Column name: N/A
Retention time: 0.218 min
Base peak: 121.0508
Precursor m/z: 242.0635
Precursor type: [M+Na]+
Precursor intensity: 108950
m/z	relative intensity	assigned
42.0335	192	C2H4N+
55.0757	18	CH11O2+
81.0689	226	C6H9+
86.0935	200	C2H14O3+
87.0821	28	C5H11O+
100.1126	999	C6H14N+
111.9945	63	C8O+
113.0022	31	C8HO+
123.0469	25	C7H7O2+
124.0376	448	C3H8O5+
141.0092	190	C5H3NO4+
142.0473	872	C3H10O6+
162.051	163	C6H10O5+
198.044	226	C8H8NO5+
201.0665	15	C8H11NO5+
