Mass spectrum: 1-octadecenoyl-rac-glycerol; LC-ESI-QTOF; MS2; CE: 20eV; R=7000; [M-H2O+H]+
Name: 1-octadecenoyl-rac-glycerol
Name: Glyceryl monooleate
Name: 2,3-dihydroxypropyl (Z)-octadec-9-enoate
Formula: C21H40O4
Exact mass: 356.2927
SMILES: CCCCCCCC/C=C\CCCCCCCC(=O)OCC(CO)O
InChI: InChI=1S/C21H40O4/c1-2-3-4-5-6-7-8-9-10-11-12-13-14-15-16-17-21(24)25-19-20(23)18-22/h9-10,20,22-23H,2-8,11-19H2,1H3/b10-9-
Instrument: Agilent 6560 QTOF
Instrument type: LC-ESI-QTOF
Ms type: MS2
Ion mode: POSITIVE
Ionization: ESI
Fragmentation mode: CID
Collision energy: 20 eV
Resolution: 7000
Column name: Direct injection
Retention time: 0.128 min
Base peak: 256.9648
Precursor m/z: 339.2894
Precursor type: [M-H2O+H]+
Precursor intensity: 8861
m/z	relative intensity	assigned
97.1002	999	C7H13+
210.0653	596	C14H10O2+
283.1674	279	C19H23O2+
