Mass spectrum: N-oleoyl-D-erythro-sphingosine; LC-ESI-QTOF; MS2; CE: 20eV; R=7000; [M+CH3COO]-
Name: N-oleoyl-D-erythro-sphingosine
Name: N-(oleoyl)-ceramide
Name: (Z)-N-[(E,2S,3R)-1,3-dihydroxyoctadec-4-en-2-yl]octadec-9-enamide
Formula: C36H69NO3
Exact mass: 563.5277
SMILES: CCCCCCCCCCCCC/C=C/[C@H]([C@H](CO)NC(=O)CCCCCCC/C=C\CCCCCCCC)O
InChI: InChI=1S/C36H69NO3/c1-3-5-7-9-11-13-15-17-18-20-22-24-26-28-30-32-36(40)37-34(33-38)35(39)31-29-27-25-23-21-19-16-14-12-10-8-6-4-2/h17-18,29,31,34-35,38-39H,3-16,19-28,30,32-33H2,1-2H3,(H,37,40)/b18-17-,31-29+/t34-,35+/m0/s1
Instrument: Agilent 6560 QTOF
Instrument type: LC-ESI-QTOF
Ms type: MS2
Ion mode: NEGATIVE
Ionization: ESI
Fragmentation mode: CID
Collision energy: 20 eV
Resolution: 7000
Column name: N/A
Retention time: 0.139 min
Base peak: 622.5432
Precursor m/z: 622.5416
Precursor type: [M+CH3COO]-
Precursor intensity: 493221
m/z	relative intensity	assigned
198.3001	1	C8H40NO3-
210.0821	1	C10H12NO4-
225.2201	1	C15H29O-
237.2211	39	C16H29O-
239.2335	1	C16H31O-
250.2555	2	C17H32N-
261.2226	1	C18H29O-
263.2378	87	C18H31O-
264.2417	5	C18H32O-
266.2508	1	C17H32NO-
268.2632	7	C14H36O4-
279.2617	1	C18H33NO-
280.2636	42	C18H34NO-
281.2484	41	C18H33O2-
282.2506	2	C18H34O2-
298.2751	7	C18H36NO2-
306.2802	138	C20H36NO-
307.2834	23	C17H39O4-
321.2789	1	C21H37O2-
322.2752	24	C20H36NO2-
323.2786	5	C17H39O5-
324.2805	1	C24H36-
348.5067	1	C18H68O4-
434.4108	1	C29H54O2-
500.1663	1	C36H22NO2-
502.4968	3	C31H66O4-
514.4986	23	C35H64NO-
515.5076	4	C35H65NO-
530.495	35	C35H64NO2-
531.4944	6	C32H67O5-
532.5094	45	C35H66NO2-
533.5117	7	C32H69O5-
535.5211	1	C31H69NO5-
544.5086	4	C33H68O5-
554.2142	1	C37H30O5-
559.145	2	C37H21NO5-
562.5214	999	C36H68NO3-
563.5241	203	C36H69NO3-
564.5572	1	C37H72O3-
565.2794	1	C36H39NO5-
