Mass spectrum: 1,2-Dioleoyl-sn-glycero-3-phosphocholine; LC-ESI-QTOF; MS2; CE: 20eV; R=7000; [M+H]+
Name: 1,2-Dioleoyl-sn-glycero-3-phosphocholine
Name: [(2R)-2,3-bis[[(Z)-octadec-9-enoyl]oxy]propyl] 2-(trimethylazaniumyl)ethyl phosphate
Formula: C44H84NO8P
Exact mass: 785.5935
SMILES: CCCCCCCC/C=C\CCCCCCCC(=O)OC[C@H](COP(=O)([O-])OCC[N+](C)(C)C)OC(=O)CCCCCCC/C=C\CCCCCCCC
InChI: InChI=1S/C44H84NO8P/c1-6-8-10-12-14-16-18-20-22-24-26-28-30-32-34-36-43(46)50-40-42(41-52-54(48,49)51-39-38-45(3,4)5)53-44(47)37-35-33-31-29-27-25-23-21-19-17-15-13-11-9-7-2/h20-23,42H,6-19,24-41H2,1-5H3/b22-20-,23-21-/t42-/m1/s1
Instrument: Agilent 6560 QTOF
Instrument type: LC-ESI-QTOF
Ms type: MS2
Ion mode: POSITIVE
Ionization: ESI
Fragmentation mode: CID
Collision energy: 20 eV
Resolution: 7000
Column name: Direct injection
Retention time: 0.155 min
Base peak: 786.6031
Precursor m/z: 786.6007
Precursor type: [M+H]+
Precursor intensity: 298338
m/z	relative intensity	assigned
71.074	8	C4H9N+
81.0703	3	C2H12NP+
86.0955	21	C5H12N+
87.1017	2	C2H15O3+
104.1053	7	C2H16O4+
125.0002	12	C2H6O4P+
166.0603	1	C2H15O6P+
184.0735	999	C5H15NO4P+
185.0767	27	C2H18O7P+
186.5596	1	H77NO4P+
338.9578	1	C15H2NO7P+
401.1647	1	C26H26O2P+
504.3394	4	C33H47NOP+
522.354	6	C30H50O7+
721.2085	2	C44H34O8P+
786.6008	216	C44H85NO8P+
