Mass spectrum: Di-n-butyl sebacate; LC-ESI-QTOF; MS2; CE: 10eV; R=7000; [M+H]+
Name: Di-n-butyl sebacate
Name: Dibutyl sebacate
Name: dibutyl decanedioate
Formula: C18H34O4
Exact mass: 314.2457
SMILES: CCCCOC(=O)CCCCCCCCC(=O)OCCCC
InChI: InChI=1S/C18H34O4/c1-3-5-15-21-17(19)13-11-9-7-8-10-12-14-18(20)22-16-6-4-2/h3-16H2,1-2H3
Instrument: Agilent 6560 QTOF
Instrument type: LC-ESI-QTOF
Ms type: MS2
Ion mode: POSITIVE
Ionization: ESI
Fragmentation mode: CID
Collision energy: 10 eV
Resolution: 7000
Retention time: 0.109 min
Base peak: 337.2348
Precursor m/z: 315.253
Precursor type: [M+H]+
Precursor intensity: 130777.37
m/z	relative intensity	assigned
55.0535	14	C4H7+
57.0336	23	C3H5O+
57.0705	39	C4H9+
67.0543	23	C5H7+
69.07	121	C5H9+
71.0483	6	C4H7O+
73.065	8	C4H9O+
79.0539	42	C6H7+
81.0696	161	C6H9+
83.0472	13	C5H7O+
83.0844	8	C6H11+
85.0653	23	C5H9O+
91.0545	7	C7H7+
93.0695	62	C7H9+
95.0854	50	C7H11+
97.0648	54	C6H9O+
97.1018	55	C7H13+
101.0591	17	C5H9O2+
107.0857	31	C8H11+
111.1168	46	C8H15+
119.084	11	C9H11+
121.1012	519	C9H13+
123.1173	6	C9H15+
131.0848	47	C10H11+
133.1014	6	C10H13+
139.1118	797	C9H15O+
149.0954	125	C10H13O+
151.1131	7	C10H15O+
157.1215	87	C9H17O2+
167.1066	77	C10H15O2+
169.1208	11	C10H17O2+
185.117	999	C10H17O3+
241.1796	85	C14H25O3+
242.1823	7	C14H26O3+
315.2484	9	C18H35O4+
