Mass spectrum: 2,2`-{Methylenebis[(4,1-phenylene)oxymethylene]}bis(oxirane); LC-ESI-QTOF; MS2; CE: 20eV; R=7000; [M+NH4]+
Name: 2,2`-{Methylenebis[(4,1-phenylene)oxymethylene]}bis(oxirane)
Name: Bis(4-glycidyloxyphenyl)methane
Name: 2-[[4-[[4-(oxiran-2-ylmethoxy)phenyl]methyl]phenoxy]methyl]oxirane
Formula: C19H20O4
Exact mass: 312.1362
SMILES: C1C(O1)COC2=CC=C(C=C2)CC3=CC=C(C=C3)OCC4CO4
InChI: InChI=1S/C19H20O4/c1-5-16(20-10-18-12-22-18)6-2-14(1)9-15-3-7-17(8-4-15)21-11-19-13-23-19/h1-8,18-19H,9-13H2
Instrument: Agilent 6560 QTOF
Instrument type: LC-ESI-QTOF
Ms type: MS2
Ion mode: POSITIVE
Ionization: ESI
Fragmentation mode: CID
Collision energy: 20 eV
Resolution: 7000
Column name: ZORBAX Extend-C18 3.5um, 2.1x50mm, Agilent Technologies
Retention time: 3.399 min
Base peak: 330.1701
Precursor m/z: 330.17
Precursor type: [M+NH4]+
Precursor intensity: 156159.13
m/z	relative intensity	assigned
74.0557	108	H10O4+
100.1078	83	C3H16O3+
119.0463	72	C8H7O+
129.0673	285	C10H9+
144.0539	93	C10H8O+
180.0903	98	C14H12+
182.149	68	C8H22O4+
189.0865	999	C12H13O2+
190.0869	94	C11H12NO2+
194.0679	214	C14H10O+
203.0821	132	C16H11+
211.0666	96	C13H9NO2+
219.0718	68	C15H9NO+
221.0912	217	C16H13O+
237.0831	149	C15H11NO2+
247.0705	92	C17H11O2+
248.0786	97	C17H12O2+
249.0844	79	C16H11NO2+
266.0893	166	C17H14O3+
267.0962	95	C17H15O3+
