Mass spectrum: Di-n-butyl sebacate; LC-ESI-QTOF; MS2; CE: 25eV; R=7000; [M+H]+
Name: Di-n-butyl sebacate
Name: Dibutyl sebacate
Name: dibutyl decanedioate
Formula: C18H34O4
Exact mass: 314.2457
SMILES: CCCCOC(=O)CCCCCCCCC(=O)OCCCC
InChI: InChI=1S/C18H34O4/c1-3-5-15-21-17(19)13-11-9-7-8-10-12-14-18(20)22-16-6-4-2/h3-16H2,1-2H3
Instrument: Agilent 6560 QTOF
Instrument type: LC-ESI-QTOF
Ms type: MS2
Ion mode: POSITIVE
Ionization: ESI
Fragmentation mode: CID
Collision energy: 25 eV
Resolution: 7000
Retention time: 0.110 min
Base peak: 337.235
Precursor m/z: 315.253
Precursor type: [M+H]+
Precursor intensity: 95081.2
m/z	relative intensity	assigned
55.0174	68	C3H3O+
55.0548	581	C4H7+
57.0336	59	C3H5O+
57.0705	175	C4H9+
59.0492	77	C3H7O+
67.0542	168	C5H7+
69.0701	999	C5H9+
71.0503	26	C4H7O+
73.0646	39	C4H9O+
79.054	247	C6H7+
81.0697	593	C6H9+
83.0493	202	C5H7O+
85.0281	16	C4H5O2+
85.0642	22	C5H9O+
87.043	16	C4H7O2+
91.0523	42	C7H7+
93.0696	701	C7H9+
95.0856	333	C7H11+
97.0648	338	C6H9O+
97.1011	184	C7H13+
101.06	31	C5H9O2+
103.0541	23	C8H7+
105.0683	27	C8H9+
107.0513	16	C7H7O+
107.0851	82	C8H11+
111.1168	68	C8H15+
119.0858	15	C9H11+
121.101	949	C9H13+
123.0799	24	C8H11O+
131.0859	97	C10H11+
139.1113	486	C9H15O+
149.0956	38	C10H13O+
185.1167	20	C10H17O3+
