Mass spectrum: O-SUCCINYL-HOMOSERINE; LC-ESI-QTOF; MS2; CE: 40eV; R=5000; [M+H]+
Name: O-SUCCINYL-HOMOSERINE
Name: Homoserine, O-succinyl-
Name: 2-amino-4-(3-carboxypropanoyloxy)butanoic acid
Formula: C8H13NO6
Exact mass: 219.0743
SMILES: C(COC(=O)CCC(=O)O)C(C(=O)O)N
InChI: InChI=1S/C8H13NO6/c9-5(8(13)14)3-4-15-7(12)2-1-6(10)11/h5H,1-4,9H2,(H,10,11)(H,13,14)
Instrument: Agilent 6530 QTOF
Instrument type: LC-ESI-QTOF
Ms type: MS2
Ion mode: POSITIVE
Ionization: ESI
Fragmentation mode: CID
Collision energy: 40 eV
Resolution: 5000
Column name: N/A
Retention time: 0.219 min
Base peak: 121.0508
Precursor m/z: 220.0816
Precursor type: [M+H]+
Precursor intensity: 118424
m/z	relative intensity	assigned
41.0383	18	C3H5+
44.0494	240	C2H6N+
44.9975	100	CHO2+
45.0343	165	C2H5O+
46.0293	14	CH4NO+
55.0177	310	C3H3O+
56.0497	999	C3H6N+
57.0694	20	C4H9+
57.9926	1	CNO2+
67.0527	28	C5H7+
73.028	193	C3H5O2+
83.9992	2	C7+
102.0498	33	CH10O5+
105.0635	9	H11NO5+
119.032	4	C4H7O4+
120.0549	83	C8H8O+
145.0734	20	C6H11NO3+
152.0007	2	C6H2NO4+
