Mass spectrum: Progesterone; LC-ESI-QTOF; MS2; CE: 10eV; R=7000; [M+H]+
Name: Progesterone
Name: (8S,9S,10R,13S,14S,17S)-17-acetyl-10,13-dimethyl-1,2,6,7,8,9,11,12,14,15,16,17-dodecahydrocyclopenta[a]phenanthren-3-one
Formula: C21H30O2
Exact mass: 314.2246
SMILES: CC(=O)[C@H]1CC[C@@H]2[C@@]1(CC[C@H]3[C@H]2CCC4=CC(=O)CC[C@]34C)C
InChI: InChI=1S/C21H30O2/c1-13(22)17-6-7-18-16-5-4-14-12-15(23)8-10-20(14,2)19(16)9-11-21(17,18)3/h12,16-19H,4-11H2,1-3H3/t16-,17+,18-,19-,20-,21+/m0/s1
Instrument: Agilent 6560 QTOF
Instrument type: LC-ESI-QTOF
Ms type: MS2
Ion mode: POSITIVE
Ionization: ESI
Fragmentation mode: CID
Collision energy: 10 eV
Resolution: 7000
Column name: Direct injection
Retention time: 0.155 min
Base peak: 315.2323
Precursor m/z: 315.2319
Precursor type: [M+H]+
Precursor intensity: 533910
m/z	relative intensity	assigned
71.0493	3	C4H7O+
79.0545	36	C6H7+
81.0705	14	C6H9+
83.0484	25	C5H7O+
83.0839	1	C6H11+
85.0646	24	C5H9O+
91.055	9	C7H7+
93.0701	4	C7H9+
95.0487	5	C6H7O+
95.0849	10	C7H11+
97.0648	713	C6H9O+
99.0788	3	C6H11O+
105.0702	3	C8H9+
107.051	4	C7H7O+
107.0858	32	C8H11+
109.0645	519	C7H9O+
111.0784	3	C7H11O+
113.0979	1	C7H13O+
117.0679	6	C9H9+
119.0846	17	C9H11+
121.0655	9	C8H9O+
121.0999	26	C9H13+
123.0801	43	C8H11O+
123.1175	6	C9H15+
127.0732	2	C7H11O2+
129.0685	1	C10H9+
131.0846	10	C10H11+
132.0556	1	C9H8O+
133.101	15	C10H13+
135.1171	18	C10H15+
137.0956	9	C9H13O+
143.0863	5	C11H11+
145.1004	25	C11H13+
147.1168	20	C11H15+
149.0943	11	C10H13O+
149.1321	10	C11H17+
151.108	2	C10H15O+
157.0996	9	C12H13+
158.1052	3	C12H14+
159.1164	30	C12H15+
161.096	3	C11H13O+
161.1327	9	C12H17+
163.1115	16	C11H15O+
163.1453	1	C12H19+
165.1253	1	C11H17O+
167.083	1	C13H11+
167.1098	3	C10H15O2+
169.0979	3	C13H13+
171.1168	19	C13H15+
173.0953	2	C12H13O+
173.1322	25	C13H17+
175.1129	5	C12H15O+
175.1461	1	C13H19+
177.1282	11	C12H17O+
179.1392	5	C12H19O+
183.1153	8	C14H15+
185.133	5	C14H17+
187.1101	2	C13H15O+
187.1481	6	C14H19+
188.1527	1	C14H20+
189.1269	10	C13H17O+
189.1633	3	C14H21+
191.1422	9	C13H19O+
195.1159	2	C15H15+
197.13	3	C15H17+
199.1492	15	C15H19+
201.1288	6	C14H17O+
201.1635	19	C15H21+
203.1417	7	C14H19O+
205.1594	5	C14H21O+
209.1331	4	C16H17+
211.1481	2	C16H19+
213.1615	9	C16H21+
215.1443	13	C15H19O+
215.1807	18	C16H23+
216.1837	2	C16H24+
217.1897	6	C16H25+
223.146	9	C17H19+
224.1532	2	C17H20+
225.1628	2	C17H21+
227.1401	5	C16H19O+
227.1793	13	C17H23+
228.1817	1	C17H24+
229.1599	10	C16H21O+
229.1926	2	C17H25+
231.1729	7	C16H23O+
233.1896	4	C16H25O+
235.1715	1	C15H23O2+
237.1615	2	C18H21+
239.1793	28	C18H23+
240.1921	1	C18H24+
241.1564	14	C17H21O+
245.1919	5	C17H25O+
246.193	2	C17H26O+
250.1685	6	C19H22+
251.1778	3	C19H23+
253.1957	4	C19H25+
255.2106	29	C19H27+
257.1879	5	C18H25O+
269.1868	4	C19H25O+
269.2295	6	C20H29+
271.2038	2	C19H27O+
273.2212	14	C19H29O+
279.2108	34	C21H27+
280.2131	8	C21H28+
297.2203	147	C21H29O+
298.2225	5	C21H30O+
315.2322	999	C21H31O2+
