Mass spectrum: Cyclohexane-1,2-dicarboxylic mono carboxyisooctyl ester; LC-ESI-QTOF; MS2; CE: 30eV; R=7000; [M-H]-
Name: Cyclohexane-1,2-dicarboxylic mono carboxyisooctyl ester
Name: (1S,2R)-2-(7-carboxy-4-methylheptoxy)carbonylcyclohexane-1-carboxylic acid
Formula: C17H28O6
Exact mass: 328.1886
SMILES: CC(CCCOC(=O)[C@@H]1CCCC[C@@H]1C(=O)O)CCCC(=O)O
InChI: InChI=1S/C17H28O6/c1-12(6-4-10-15(18)19)7-5-11-23-17(22)14-9-3-2-8-13(14)16(20)21/h12-14H,2-11H2,1H3,(H,18,19)(H,20,21)/t12?,13-,14+/m0/s1
Instrument: Agilent 6560 QTOF
Instrument type: LC-ESI-QTOF
Ms type: MS2
Ion mode: NEGATIVE
Ionization: ESI
Fragmentation mode: CID
Collision energy: 30 eV
Resolution: 7000
Column name: ZORBAX Extend-C18 3.5um, 2.1x50mm, Agilent Technologies
Retention time: 4.010 min
Base peak: 327.1819
Precursor m/z: 327.1813
Precursor type: [M-H]-
Precursor intensity: 43375.73
m/z	relative intensity	assigned
107.0498	20	C7H7O-
109.0662	983	C7H9O-
123.0817	22	C8H11O-
125.0607	115	C7H9O2-
125.0957	28	C8H13O-
127.0774	84	C7H11O2-
127.1132	233	C8H15O-
153.0559	523	C8H9O3-
154.0608	18	C8H10O3-
171.0664	51	C8H11O4-
171.1006	38	C9H15O3-
173.1189	999	C9H17O3-
