Mass spectrum: 4-((4-(Allyloxy)phenyl)sulfonyl)phenol; LC-ESI-QTOF; MS2; CE: 30eV; R=7000; [M-H]-
Name: 4-((4-(Allyloxy)phenyl)sulfonyl)phenol
Name: 4-(4-prop-2-enoxyphenyl)sulfonylphenol
Formula: C15H14O4S
Exact mass: 290.0613
SMILES: C=CCOC1=CC=C(C=C1)S(=O)(=O)C2=CC=C(C=C2)O
InChI: InChI=1S/C15H14O4S/c1-2-11-19-13-5-9-15(10-6-13)20(17,18)14-7-3-12(16)4-8-14/h2-10,16H,1,11H2
Instrument: Agilent 6560 QTOF
Instrument type: LC-ESI-QTOF
Ms type: MS2
Ion mode: NEGATIVE
Ionization: ESI
Fragmentation mode: CID
Collision energy: 30 eV
Resolution: 7000
Retention time: 0.153 min
Base peak: 289.0548
Precursor m/z: 289.054
Precursor type: [M-H]-
Precursor intensity: 174863.63
m/z	relative intensity	assigned
51.0243	5	C4H3-
63.963	26	O2S-
82.9962	16	C4H3S-
91.0192	160	C6H3O-
92.0268	251	C6H4O-
93.034	10	C6H5O-
108.0219	411	C6H4O2-
110.9894	8	C5H3OS-
111.9976	5	C5H4OS-
128.0633	133	C10H8-
138.9851	36	C6H3O2S-
139.9938	198	C6H4O2S-
143.0499	27	C10H7O-
155.9892	45	C6H4O3S-
156.0581	352	C11H8O-
157.0628	18	C11H9O-
158.0351	8	C10H6O2-
171.0467	4	C11H7O2-
177.0012	8	C9H5O2S-
183.0453	59	C12H7O2-
184.0528	999	C12H8O2-
199.0405	72	C12H7O3-
200.0453	14	C12H8O3-
220.02	18	C11H8O3S-
247.0064	25	C12H7O4S-
248.0141	394	C12H8O4S-
249.0188	17	C15H5O4-
