Mass spectrum: Tris(2-chloroisopropyl)phosphate; LC-ESI-QTOF; MS2; CE: 10eV; R=7000; [M+Na]+
Name: Tris(2-chloroisopropyl)phosphate
Name: Tris(1-chloro-2-propyl) phosphate
Name: tris(1-chloropropan-2-yl) phosphate
Formula: C9H18Cl3O4P
Exact mass: 326.0008
SMILES: CC(CCl)OP(=O)(OC(C)CCl)OC(C)CCl
InChI: InChI=1S/C9H18Cl3O4P/c1-7(4-10)14-17(13,15-8(2)5-11)16-9(3)6-12/h7-9H,4-6H2,1-3H3
Instrument: Agilent 6560 QTOF
Instrument type: LC-ESI-QTOF
Ms type: MS2
Ion mode: POSITIVE
Ionization: ESI
Fragmentation mode: CID
Collision energy: 10 eV
Resolution: 7000
Column name: InfinityLab Poroshell 120 EC-C18 2.7Âµm, 3x100mm, Agilent Technologies
Retention time: 7.464 min
Base peak: 98.9852
Precursor m/z: 348.99
Precursor type: [M+Na]+
Precursor intensity: 36701.16
m/z	relative intensity	assigned
139.0159	78	C4H8ClO3+
196.9729	37	C3H8ClNaO4P+
215.0254	13	C7H13Cl2O3+
272.9823	307	C7H13Cl3NaO3+
273.9852	21	C9H14Cl3OP+
296.9575	10	C5H14Cl3NaO4P+
348.9906	999	C9H18Cl3NaO4P+
