Mass spectrum: L-Arginine standard; LC-ESI-QTOF; MS2; CE: 20eV; R=5000; [M+H]+
Name: L-Arginine standard
Name: Arginine
Name: (2S)-2-amino-5-(diaminomethylideneamino)pentanoic acid
Formula: C6H14N4O2
Exact mass: 174.1117
SMILES: C(C[C@@H](C(=O)O)N)CN=C(N)N
InChI: InChI=1S/C6H14N4O2/c7-4(5(11)12)2-1-3-10-6(8)9/h4H,1-3,7H2,(H,11,12)(H4,8,9,10)/t4-/m0/s1
Instrument: Agilent 6530 QTOF
Instrument type: LC-ESI-QTOF
Ms type: MS2
Ion mode: POSITIVE
Ionization: ESI
Fragmentation mode: CID
Collision energy: 20 eV
Resolution: 5000
Column name: N/A
Retention time: 0.254 min
Base peak: 175.1216
Precursor m/z: 175.119
Precursor type: [M+H]+
Precursor intensity: 2034748
m/z	relative intensity	assigned
54.0924	3	CH12NO+
55.0548	51	C4H7+
63.0802	1	C3H11O+
84.0812	2	C5H10N+
87.0934	8	C4H11N2+
113.0725	23	C5H9N2O+
114.1121	10	CH14N4O2+
116.0732	999	C5H10NO2+
117.089	1	C4H11N3O+
130.1002	581	C5H12N3O+
140.0821	1	C6H10N3O+
141.068	7	C6H9N2O2+
157.1109	8	C6H13N4O+
158.0952	167	C6H12N3O2+
175.1229	169	C6H15N4O2+
