Mass spectrum: Cholic acid; LC-ESI-QTOF; MS2; CE: 40eV; R=7000; [M-H]-
Name: Cholic acid
Name: (4R)-4-[(3R,5S,7R,8R,9S,10S,12S,13R,14S,17R)-3,7,12-trihydroxy-10,13-dimethyl-2,3,4,5,6,7,8,9,11,12,14,15,16,17-tetradecahydro-1H-cyclopenta[a]phenanthren-17-yl]pentanoic acid
Formula: C24H40O5
Exact mass: 408.2876
SMILES: C[C@H](CCC(=O)O)[C@H]1CC[C@@H]2[C@@]1([C@H](C[C@H]3[C@H]2[C@@H](C[C@H]4[C@@]3(CC[C@H](C4)O)C)O)O)C
InChI: InChI=1S/C24H40O5/c1-13(4-7-21(28)29)16-5-6-17-22-18(12-20(27)24(16,17)3)23(2)9-8-15(25)10-14(23)11-19(22)26/h13-20,22,25-27H,4-12H2,1-3H3,(H,28,29)/t13-,14+,15-,16-,17+,18+,19-,20+,22+,23+,24-/m1/s1
Instrument: Agilent 6560 QTOF
Instrument type: LC-ESI-QTOF
Ms type: MS2
Ion mode: NEGATIVE
Ionization: ESI
Fragmentation mode: CID
Collision energy: 40 eV
Resolution: 7000
Column name: N/A
Retention time: 0.141 min
Base peak: 255.2332
Precursor m/z: 407.2803
Precursor type: [M-H]-
Precursor intensity: 85451
m/z	relative intensity	assigned
71.0506	35	C4H7O-
83.0491	53	C5H7O-
92.272	47	C2H36O2-
95.0501	233	C6H7O-
95.0866	13	C7H11-
97.0643	77	C6H9O-
111.0814	22	C7H11O-
123.0786	147	C8H11O-
139.1126	66	C9H15O-
149.0956	49	C10H13O-
153.1281	18	C10H17O-
162.1022	34	C11H14O-
174.1039	27	C12H14O-
178.1695	5	C13H22-
179.1094	23	C11H15O2-
188.0708	12	C8H12O5-
193.1565	62	C13H21O-
205.1596	77	C14H21O-
205.2027	7	C8H29O5-
206.1689	14	C14H22O-
215.1409	84	C15H19O-
221.1935	48	C15H25O-
221.2464	7	C13H33O2-
227.1881	8	C10H27O5-
231.1367	49	C15H19O2-
232.1779	15	C16H24O-
233.1916	203	C16H25O-
240.1824	37	C18H24-
241.1228	25	C16H17O2-
241.1555	53	C17H21O-
242.1681	30	C17H22O-
245.1896	85	C17H25O-
249.1851	51	C16H25O2-
251.1996	127	C16H27O2-
257.1871	16	C18H25O-
269.2075	20	C16H29O3-
271.2112	99	C19H27O-
271.2811	7	C14H39O4-
281.1909	21	C20H25O-
283.2054	48	C20H27O-
283.2472	31	C14H35O5-
287.1965	110	C19H27O2-
289.2165	829	C19H29O2-
293.1854	59	C21H25O-
298.2219	29	C17H30O4-
301.2123	61	C20H29O2-
301.2566	7	C21H33O-
309.221	29	C22H29O-
313.2506	43	C22H33O-
315.2292	63	C21H31O2-
315.2683	76	C22H35O-
317.2428	22	C21H33O2-
323.2365	29	C23H31O-
325.2516	214	C23H33O-
326.2558	22	C23H34O-
327.2675	188	C23H35O-
328.0324	22	C20H8O5-
333.2707	63	C18H37O5-
341.1166	14	C23H17O3-
341.2508	129	C23H33O2-
341.9976	22	C23H2O4-
342.2509	23	C23H34O2-
343.2638	406	C23H35O2-
344.2688	61	C23H36O2-
345.2783	192	C23H37O2-
353.2481	63	C24H33O2-
354.2521	20	C24H34O2-
361.2747	19	C23H37O3-
371.1888	11	C22H27O5-
371.2566	27	C24H35O3-
372.2598	53	C24H36O3-
387.2543	31	C24H35O4-
389.2693	66	C24H37O4-
405.2637	59	C24H37O5-
407.2798	999	C24H39O5-
