Mass spectrum: CYTOSINE; LC-ESI-QTOF; MS2; CE: 40eV; R=5000; [M+H]+
Name: CYTOSINE
Name: 6-amino-1H-pyrimidin-2-one
Formula: C4H5N3O
Exact mass: 111.0433
SMILES: NC1=CC=NC(=O)N1
InChI: InChI=1S/C4H5N3O/c5-3-1-2-6-4(8)7-3/h1-2H,(H3,5,6,7,8)
Instrument: Agilent 6530 QTOF
Instrument type: LC-ESI-QTOF
Ms type: MS2
Ion mode: POSITIVE
Ionization: ESI
Fragmentation mode: CID
Collision energy: 40 eV
Resolution: 5000
Column name: N/A
Retention time: 0.601 min
Base peak: 121.0508
Precursor m/z: 112.0505
Precursor type: [M+H]+
Precursor intensity: 114065
m/z	relative intensity	assigned
42.0342	999	C2H4N+
44.0136	295	CH2NO+
51.0111	160	C3HN+
67.0295	781	C3H3N2+
68.013	677	C3H2NO+
69.0448	58	C3H5N2+
71.0233	44	C2H3N2O+
94.0386	45	C4H4N3+
95.0231	419	C4H3N2O+
