Mass spectrum: N-palmitoyl-D-erythro-sphinganine; LC-ESI-QTOF; MS2; CE: 20eV; R=7000; [M+Cl]-
Name: N-palmitoyl-D-erythro-sphinganine
Name: N-(hexadecanoyl)-sphinganine
Name: N-[(2S,3R)-1,3-dihydroxyoctadecan-2-yl]hexadecanamide
Formula: C34H69NO3
Exact mass: 539.5277
SMILES: CCCCCCCCCCCCCCC[C@H]([C@H](CO)NC(=O)CCCCCCCCCCCCCCC)O
InChI: InChI=1S/C34H69NO3/c1-3-5-7-9-11-13-15-17-19-21-23-25-27-29-33(37)32(31-36)35-34(38)30-28-26-24-22-20-18-16-14-12-10-8-6-4-2/h32-33,36-37H,3-31H2,1-2H3,(H,35,38)/t32-,33+/m0/s1
Instrument: Agilent 6560 QTOF
Instrument type: LC-ESI-QTOF
Ms type: MS2
Ion mode: NEGATIVE
Ionization: ESI
Fragmentation mode: CID
Collision energy: 20 eV
Resolution: 7000
Column name: N/A
Retention time: 0.143 min
Base peak: 598.5425
Precursor m/z: 574.4971
Precursor type: [M+Cl]-
Precursor intensity: 6028
m/z	relative intensity	assigned
89.041	576	C7H5-
134.2712	133	C3H36NO3-
211.2186	161	C12H32Cl-
286.3513	999	C19H44N-
286.3872	122	C14H53ClNO-
289.3098	149	C18H41O2-
291.0531	908	C19H12ClO-
297.1484	544	C19H21O3-
313.2544	118	C19H36ClN-
335.5362	198	C21H69N-
353.1325	197	C28H17-
367.2577	354	C24H33NO2-
434.3916	550	C32H50-
