Mass spectrum: 4-Methylbenzotriazole; LC-ESI-QTOF; MS2; CE: 60eV; R=7000; [M+H]+
Name: 4-Methylbenzotriazole
Name: 4-Methyl-1H-benzotriazole
Name: 4-methyl-2H-benzotriazole
Formula: C7H7N3
Exact mass: 133.0640
SMILES: CC1=CC=CC2=NNN=C12
InChI: InChI=1S/C7H7N3/c1-5-3-2-4-6-7(5)9-10-8-6/h2-4H,1H3,(H,8,9,10)
Instrument: Agilent 6560 QTOF
Instrument type: LC-ESI-QTOF
Ms type: MS2
Ion mode: POSITIVE
Ionization: ESI
Fragmentation mode: CID
Collision energy: 60 eV
Resolution: 7000
Retention time: 0.146 min
Base peak: 134.0713
Precursor m/z: 134.0713
Precursor type: [M+H]+
Precursor intensity: 20474.31
m/z	relative intensity	assigned
50.0148	37	C4H2+
51.0231	999	C4H3+
53.0384	38	C4H5+
62.0153	17	C5H2+
63.0233	96	C5H3+
64.0297	33	C5H4+
66.035	20	C4H4N+
75.022	17	C6H3+
77.0387	291	C6H5+
