Mass spectrum: N-Palmitoyl-D-sphingosine; LC-ESI-QTOF; MS2; CE: 40eV; R=7000; [M+H]+
Name: N-Palmitoyl-D-sphingosine
Name: N-Palmitoylsphingosine
Name: N-[(E,2S,3R)-1,3-dihydroxyoctadec-4-en-2-yl]hexadecanamide
Formula: C34H67NO3
Exact mass: 537.5121
SMILES: [H][C@@](CO)(NC(=O)CCCCCCCCCCCCCCC)[C@H](O)\C=C\CCCCCCCCCCCCC
InChI: InChI=1S/C34H67NO3/c1-3-5-7-9-11-13-15-17-19-21-23-25-27-29-33(37)32(31-36)35-34(38)30-28-26-24-22-20-18-16-14-12-10-8-6-4-2/h27,29,32-33,36-37H,3-26,28,30-31H2,1-2H3,(H,35,38)/b29-27+/t32-,33+/m0/s1
Instrument: Agilent 6560 QTOF
Instrument type: LC-ESI-QTOF
Ms type: MS2
Ion mode: POSITIVE
Ionization: ESI
Fragmentation mode: CID
Collision energy: 40 eV
Resolution: 7000
Column name: Direct injection
Retention time: 0.180 min
Base peak: 560.5034
Precursor m/z: 538.5194
Precursor type: [M+H]+
Precursor intensity: 139437
m/z	relative intensity	assigned
70.0647	21	C4H8N+
79.0539	26	C6H7+
81.07	57	C6H9+
82.0655	256	C5H8N+
83.0491	14	C5H7O+
83.0853	6	C6H11+
84.079	7	C2H12O3+
85.1029	9	C6H13+
86.0614	5	C4H8NO+
88.0762	6	C4H10NO+
93.0695	30	C7H9+
94.0631	7	C3H10O3+
95.0847	37	C7H11+
96.0819	38	C6H10N+
100.0756	5	C5H10NO+
105.0682	2	C8H9+
107.0852	20	C8H11+
109.1019	9	C8H13+
121.1034	19	C9H13+
123.1156	8	C9H15+
124.1136	13	C8H14N+
135.1163	9	C10H15+
149.1317	13	C11H17+
168.1737	10	C11H22N+
177.1603	4	C13H21+
184.2038	3	C9H28O3+
221.2232	4	C16H29+
222.2232	2	C15H28N+
250.2516	2	C17H32N+
252.2682	41	C17H34N+
253.2683	6	C14H37O3+
256.2655	15	C16H34NO+
262.2496	8	C15H34O3+
264.2693	999	C18H34N+
265.2734	81	C15H37O3+
282.2791	73	C18H36NO+
283.2838	3	C18H37NO+
391.1422	1	C31H19+
