Mass spectrum: N-ACETYLPROLINE; LC-ESI-QTOF; MS2; CE: 40eV; R=5000; [M+H]+
Name: N-ACETYLPROLINE
Name: N-Acetyl-L-proline
Name: (2S)-1-acetylpyrrolidine-2-carboxylic acid
Formula: C7H11NO3
Exact mass: 157.0739
SMILES: [H][C@]1(CCCN1C(C)=O)C(O)=O
InChI: InChI=1S/C7H11NO3/c1-5(9)8-4-2-3-6(8)7(10)11/h6H,2-4H2,1H3,(H,10,11)/t6-/m0/s1
Instrument: Agilent 6530 QTOF
Instrument type: LC-ESI-QTOF
Ms type: MS2
Ion mode: POSITIVE
Ionization: ESI
Fragmentation mode: CID
Collision energy: 40 eV
Resolution: 5000
Column name: N/A
Retention time: 0.217 min
Base peak: 158.0814
Precursor m/z: 158.0812
Precursor type: [M+H]+
Precursor intensity: 351722
m/z	relative intensity	assigned
42.0335	6	C2H4N+
43.0188	114	C2H3O+
43.054	77	C3H7+
53.0393	4	C4H5+
58.0663	2	C3H8N+
68.0504	39	C4H6N+
70.066	999	C4H8N+
71.074	2	C4H9N+
