Mass spectrum: Trimyristin; LC-ESI-QTOF; MS2; CE: 10eV; R=7000; [M+Na]+
Name: Trimyristin
Name: 2,3-di(tetradecanoyloxy)propyl tetradecanoate
Formula: C45H86O6
Exact mass: 722.6424
SMILES: CCCCCCCCCCCCCC(=O)OCC(COC(=O)CCCCCCCCCCCCC)OC(=O)CCCCCCCCCCCCC
InChI: InChI=1S/C45H86O6/c1-4-7-10-13-16-19-22-25-28-31-34-37-43(46)49-40-42(51-45(48)39-36-33-30-27-24-21-18-15-12-9-6-3)41-50-44(47)38-35-32-29-26-23-20-17-14-11-8-5-2/h42H,4-41H2,1-3H3
Instrument: Agilent 6560 QTOF
Instrument type: LC-ESI-QTOF
Ms type: MS2
Ion mode: POSITIVE
Ionization: ESI
Fragmentation mode: CID
Collision energy: 10 eV
Resolution: 7000
Column name: Direct injection
Retention time: 0.325 min
Base peak: 647.4608
Precursor m/z: 745.6317
Precursor type: [M+Na]+
Precursor intensity: 65035
m/z	relative intensity	assigned
71.0838	19	C3H12Na+
495.4379	13	C29H60NaO4+
517.4179	14	C31H58NaO4+
518.4182	2	C36H54O2+
707.5747	2	C44H76NaO5+
745.6318	999	C45H86NaO6+
