Mass spectrum: Diisodecyl phthalate ; LC-ESI-QTOF; MS2; CE: 45eV; R=7000; [M+H]+
Name: Diisodecyl phthalate 
Name: Diisodecyl phthalate
Name: bis(8-methylnonyl) benzene-1,2-dicarboxylate
Formula: C28H46O4
Exact mass: 446.3396
SMILES: CC(C)CCCCCCCOC(=O)C1=CC=CC=C1C(=O)OCCCCCCCC(C)C
InChI: InChI=1S/C28H46O4/c1-23(2)17-11-7-5-9-15-21-31-27(29)25-19-13-14-20-26(25)28(30)32-22-16-10-6-8-12-18-24(3)4/h13-14,19-20,23-24H,5-12,15-18,21-22H2,1-4H3
Instrument: Agilent 6560 QTOF
Instrument type: LC-ESI-QTOF
Ms type: MS2
Ion mode: POSITIVE
Ionization: ESI
Fragmentation mode: CID
Collision energy: 45 eV
Resolution: 7000
Retention time: 0.146 min
Base peak: 469.329
Precursor m/z: 447.3469
Precursor type: [M+H]+
Precursor intensity: 17373.26
m/z	relative intensity	assigned
57.0704	999	C4H9+
65.0392	52	C5H5+
71.0859	221	C5H11+
85.1016	91	C6H13+
93.0345	33	C6H5O+
121.0286	92	C7H5O2+
149.0229	798	C8H5O3+
