Mass spectrum: S-CARBOXYMETHYLCYSTEINE; LC-ESI-QTOF; MS2; CE: 20eV; R=5000; [M+H]+
Name: S-CARBOXYMETHYLCYSTEINE
Name: Rhinathiol
Name: 2-amino-3-(carboxymethylsulfanyl)propanoic acid
Formula: C5H9NO4S
Exact mass: 179.0252
SMILES: NC(CSCC(O)=O)C(O)=O
InChI: InChI=1S/C5H9NO4S/c6-3(5(9)10)1-11-2-4(7)8/h3H,1-2,6H2,(H,7,8)(H,9,10)
Instrument: Agilent 6530 QTOF
Instrument type: LC-ESI-QTOF
Ms type: MS2
Ion mode: POSITIVE
Ionization: ESI
Fragmentation mode: CID
Collision energy: 20 eV
Resolution: 5000
Column name: N/A
Retention time: 0.222 min
Base peak: 121.0508
Precursor m/z: 180.0325
Precursor type: [M+H]+
Precursor intensity: 104261
m/z	relative intensity	assigned
42.0347	19	C2H4N+
46.9952	171	CH3S+
58.9945	274	C2H3S+
61.0108	990	C2H5S+
62.9903	74	CH3OS+
71.0141	40	C3H3O2+
71.0729	3	C4H9N+
73.0096	148	C3H5S+
74.005	523	C2H4NS+
76.0223	25	C2H6NS+
82.0628	27	C2H10O3+
86.9883	278	C3H3OS+
88.0224	373	C3H6NS+
89.0052	999	C3H5OS+
91.0438	17	C3H9NS+
91.9878	1	C5O2+
92.9961	23	C5HO2+
99.0257	2	C5H7S+
102.9828	139	C3H3O2S+
103.0635	12	C4H9NO2+
104.9997	74	C3H5O2S+
116.0137	111	CH8O4S+
116.9993	170	C4H5O2S+
135.0525	4	C4H9NO4+
163.0021	28	C5H7O4S+
