Mass spectrum: Tri-p-tolyl phosphate; LC-ESI-QTOF; MS2; CE: 50eV; R=7000; [M+H]+
Name: Tri-p-tolyl phosphate
Name: Tricresyl phosphate
Name: tris(4-methylphenyl) phosphate
Formula: C21H21O4P
Exact mass: 368.1177
SMILES: CC1=CC=C(C=C1)OP(=O)(OC2=CC=C(C=C2)C)OC3=CC=C(C=C3)C
InChI: InChI=1S/C21H21O4P/c1-16-4-10-19(11-5-16)23-26(22,24-20-12-6-17(2)7-13-20)25-21-14-8-18(3)9-15-21/h4-15H,1-3H3
Instrument: Agilent 6560 QTOF
Instrument type: LC-ESI-QTOF
Ms type: MS2
Ion mode: POSITIVE
Ionization: ESI
Fragmentation mode: CID
Collision energy: 50 eV
Resolution: 7000
Retention time: 0.109 min
Base peak: 369.1255
Precursor m/z: 369.125
Precursor type: [M+H]+
Precursor intensity: 188722.07
m/z	relative intensity	assigned
51.0233	23	C4H3+
62.0149	4	C5H2+
63.0232	7	C5H3+
65.0389	694	C5H5+
77.0388	211	C6H5+
79.0543	117	C6H7+
89.0369	5	C7H5+
90.046	23	C7H6+
91.0545	596	C7H7+
92.0577	18	H13O3P+
94.041	12	C6H6O+
107.0489	68	C7H7O+
109.0635	7	H14O4P+
115.0539	25	C9H7+
128.0627	7	C10H8+
139.0542	14	C11H7+
141.0695	22	C11H9+
147.0359	4	C9H8P+
152.0607	26	C5H13O3P+
153.0098	8	C7H6O2P+
153.0705	20	C12H9+
154.0775	4	C12H10+
155.0845	5	C12H11+
163.0536	13	C13H7+
164.0601	21	C6H13O3P+
165.0701	999	C13H9+
166.0754	154	C6H15O3P+
167.0845	13	C6H16O3P+
178.0775	69	C14H10+
179.0848	16	C14H11+
181.0632	41	C6H14O4P+
183.0784	5	C6H16O4P+
195.0801	77	C14H11O+
196.0865	26	C7H17O4P+
197.0938	5	C7H18O4P+
200.0382	9	C12H9OP+
202.0803	4	C16H10+
215.0854	4	C17H11+
226.0754	7	C11H15O3P+
229.099	4	C11H18O3P+
239.0847	35	C19H11+
240.0933	18	C19H12+
241.0995	8	C12H18O3P+
253.1053	6	C20H13+
256.1248	5	C20H16+
