Mass spectrum: Bis(3,5,5-trimethylhexyl)phosphate; LC-ESI-QTOF; MS2; CE: 5eV; R=7000; [M+H]+
Name: Bis(3,5,5-trimethylhexyl)phosphate
Name: bis(3,5,5-trimethylhexyl) hydrogen phosphate
Formula: C18H39O4P
Exact mass: 350.2586
SMILES: CC(CCOP(=O)(O)OCCC(C)CC(C)(C)C)CC(C)(C)C
InChI: InChI=1S/C18H39O4P/c1-15(13-17(3,4)5)9-11-21-23(19,20)22-12-10-16(2)14-18(6,7)8/h15-16H,9-14H2,1-8H3,(H,19,20)
Instrument: Agilent 6560 QTOF
Instrument type: LC-ESI-QTOF
Ms type: MS2
Ion mode: POSITIVE
Ionization: ESI
Fragmentation mode: CID
Collision energy: 5 eV
Resolution: 7000
Column name: ZORBAX Extend-C18 3.5um, 2.1x50mm, Agilent Technologies
Retention time: 2.691 min
Base peak: 351.2659
Precursor m/z: 351.2659
Precursor type: [M+H]+
Precursor intensity: 39464.84
m/z	relative intensity	assigned
57.0701	408	C4H9+
69.0705	53	C5H9+
71.0857	999	C5H11+
98.9841	757	H4O4P+
127.1462	14	C2H24O3P+
225.1245	42	C9H22O4P+
351.2661	75	C18H40O4P+
