Mass spectrum: Tri-o-tolyl phosphate; LC-ESI-QTOF; MS2; CE: 5eV; R=7000; [M+H]+
Name: Tri-o-tolyl phosphate
Name: Tri-O-cresyl phosphate
Name: tris(2-methylphenyl) phosphate
Formula: C21H21O4P
Exact mass: 368.1177
SMILES: CC1=CC=CC=C1OP(=O)(OC2=CC=CC=C2C)OC3=CC=CC=C3C
InChI: InChI=1S/C21H21O4P/c1-16-10-4-7-13-19(16)23-26(22,24-20-14-8-5-11-17(20)2)25-21-15-9-6-12-18(21)3/h4-15H,1-3H3
Instrument: Agilent 6560 QTOF
Instrument type: LC-ESI-QTOF
Ms type: MS2
Ion mode: POSITIVE
Ionization: ESI
Fragmentation mode: CID
Collision energy: 5 eV
Resolution: 7000
Retention time: 0.111 min
Base peak: 369.1253
Precursor m/z: 369.125
Precursor type: [M+H]+
Precursor intensity: 322829.65
m/z	relative intensity	assigned
63.0233	1	C5H3+
65.0381	4	C5H5+
91.0541	11	C7H7+
105.0701	1	C8H9+
107.0499	2	C7H7O+
153.0687	3	C12H9+
165.0693	6	C13H9+
166.0777	12	C13H10+
179.0853	2	C14H11+
181.1023	2	C14H13+
182.1041	1	C7H19O3P+
187.0149	1	C7H8O4P+
189.0303	1	C7H10O4P+
197.0949	1	C7H18O4P+
199.1139	1	C14H15O+
243.0578	2	C14H12O2P+
255.1171	1	C20H15+
256.1216	1	C13H21O3P+
261.0685	2	C14H14O3P+
277.0628	3	C14H14O4P+
279.0787	1	C14H16O4P+
369.1251	999	C21H22O4P+
