Mass spectrum: N-Heptadecanoyl-D-erythro-Sphingosine; LC-ESI-QTOF; MS2; CE: 10eV; R=7000; [M-H2O+H]+
Name: N-Heptadecanoyl-D-erythro-Sphingosine
Name: N-Heptadecanoylsphingosine
Name: N-[(E,2S,3R)-1,3-dihydroxyoctadec-4-en-2-yl]heptadecanamide
Formula: C35H69NO3
Exact mass: 551.5277
SMILES: OC[C@H](NC(CCCCCCCCCCCCCCCC)=O)[C@H](O)/C=C/CCCCCCCCCCCCC
InChI: InChI=1S/C35H69NO3/c1-3-5-7-9-11-13-15-17-19-21-23-25-27-29-31-35(39)36-33(32-37)34(38)30-28-26-24-22-20-18-16-14-12-10-8-6-4-2/h28,30,33-34,37-38H,3-27,29,31-32H2,1-2H3,(H,36,39)/b30-28+/t33-,34+/m0/s1
Instrument: Agilent 6560 QTOF
Instrument type: LC-ESI-QTOF
Ms type: MS2
Ion mode: POSITIVE
Ionization: ESI
Fragmentation mode: CID
Collision energy: 10 eV
Resolution: 7000
Column name: Direct injection
Retention time: 0.161 min
Base peak: 574.5188
Precursor m/z: 534.5245
Precursor type: [M-H2O+H]+
Precursor intensity: 144580
m/z	relative intensity	assigned
82.0644	9	C5H8N+
93.0698	6	C7H9+
95.0847	6	C7H11+
96.0805	12	C6H10N+
97.1035	5	C7H13+
121.1	7	C9H13+
123.1168	4	C9H15+
135.1192	2	C10H15+
137.1332	10	C10H17+
163.145	6	C12H19+
211.2021	4	C14H27O+
235.1448	8	C18H19+
248.2492	9	C18H32+
252.2685	67	C17H34N+
253.2704	2	C17H35N+
264.2689	999	C18H34N+
265.2719	93	C18H35N+
265.315	6	C16H41O2+
270.2782	11	C17H36NO+
282.2804	133	C18H36NO+
504.5138	36	C34H66NO+
505.5193	12	C34H67NO+
516.5138	72	C35H66NO+
517.5176	7	C35H67NO+
534.5251	744	C35H68NO2+
