Mass spectrum: 1,2-Dipalmitoyl-rac-glycerol; LC-ESI-QTOF; MS2; CE: 10eV; R=7000; [M+CH3COO]-
Name: 1,2-Dipalmitoyl-rac-glycerol
Name: 1,2-Dipalmitoyl-sn-glycerol
Name: [(2S)-2-hexadecanoyloxy-3-hydroxypropyl] hexadecanoate
Formula: C35H68O5
Exact mass: 568.5067
SMILES: [H][C@](CO)(COC(=O)CCCCCCCCCCCCCCC)OC(=O)CCCCCCCCCCCCCCC
InChI: InChI=1S/C35H68O5/c1-3-5-7-9-11-13-15-17-19-21-23-25-27-29-34(37)39-32-33(31-36)40-35(38)30-28-26-24-22-20-18-16-14-12-10-8-6-4-2/h33,36H,3-32H2,1-2H3/t33-/m0/s1
Instrument: Agilent 6560 QTOF
Instrument type: LC-ESI-QTOF
Ms type: MS2
Ion mode: NEGATIVE
Ionization: ESI
Fragmentation mode: CID
Collision energy: 10 eV
Resolution: 7000
Column name: N/A
Retention time: 0.191 min
Base peak: 223.0284
Precursor m/z: 627.5205
Precursor type: [M+CH3COO]-
Precursor intensity: 8827
m/z	relative intensity	assigned
190.5334	878	C6H70O3-
223.058	254	C18H7-
224.0271	605	C17H4O-
395.5543	999	C27H71-
424.1781	308	C32H24O-
451.2158	205	C27H31O6-
461.373	171	C33H49O-
494.0288	254	C34H6O5-
502.0913	687	C34H14O5-
551.5158	344	C32H71O6-
564.5135	911	C36H68O4-
