Mass spectrum: DEOXYGUANOSINEMONOPHOSPHATE; LC-ESI-QTOF; MS2; CE: 10eV; R=5000; [M+H]+
Name: DEOXYGUANOSINEMONOPHOSPHATE
Name: CID 65059
Name: [(2R,3S,5R)-5-(2-amino-6-oxo-3H-purin-9-yl)-3-hydroxyoxolan-2-yl]methyl dihydrogen phosphate
Formula: C10H14N5O7P
Exact mass: 347.0631
SMILES: NC1=NC2=C(N=CN2[C@H]2C[C@H](O)[C@@H](COP(O)(O)=O)O2)C(=O)N1
InChI: InChI=1S/C10H14N5O7P/c11-10-13-8-7(9(17)14-10)12-3-15(8)6-1-4(16)5(22-6)2-21-23(18,19)20/h3-6,16H,1-2H2,(H2,18,19,20)(H3,11,13,14,17)/t4-,5+,6+/m0/s1
Instrument: Agilent 6530 QTOF
Instrument type: LC-ESI-QTOF
Ms type: MS2
Ion mode: POSITIVE
Ionization: ESI
Fragmentation mode: CID
Collision energy: 10 eV
Resolution: 5000
Column name: N/A
Retention time: 0.287 min
Base peak: 121.0508
Precursor m/z: 348.0704
Precursor type: [M+H]+
Precursor intensity: 81537
m/z	relative intensity	assigned
66.9939	2	H4O2P+
81.0327	145	C3H3N3+
86.962	1	C2O2P+
93.0071	9	C4HN2O+
102.0911	2	C5H12NO+
109.0462	25	CH7N3O3+
110.0289	11	C6H7P+
121.0396	5	C6H5N2O+
135.0269	44	C2H5N3O4+
152.0542	999	C2H8N4O4+
153.0702	3	C8H12NP+
154.0408	1	C5H7N4P+
194.0266	2	C3H6N4O6+
232.0852	7	C8H15N3O3P+
259.0406	1	C8H9N3O7+
348.0741	8	C10H15N5O7P+
