Mass spectrum: 3-Hydroxyphenyl diphenyl phosphate ; LC-ESI-QTOF; MS2; CE: 30eV; R=7000; [M+H]+
Name: 3-Hydroxyphenyl diphenyl phosphate 
Name: 3-(Diphenoxyphosphinyloxy)phenol
Name: (3-hydroxyphenyl) diphenyl phosphate
Formula: C18H15O5P
Exact mass: 342.0657
SMILES: C1=CC=C(C=C1)OP(=O)(OC2=CC=CC=C2)OC3=CC=CC(=C3)O
InChI: InChI=1S/C18H15O5P/c19-15-8-7-13-18(14-15)23-24(20,21-16-9-3-1-4-10-16)22-17-11-5-2-6-12-17/h1-14,19H
Instrument: Agilent 6560 QTOF
Instrument type: LC-ESI-QTOF
Ms type: MS2
Ion mode: POSITIVE
Ionization: ESI
Fragmentation mode: CID
Collision energy: 30 eV
Resolution: 7000
Retention time: 0.115 min
Base peak: 343.0731
Precursor m/z: 343.073
Precursor type: [M+H]+
Precursor intensity: 87437.68
m/z	relative intensity	assigned
51.0241	32	C4H3+
65.0387	943	C5H5+
77.0385	999	C6H5+
81.0337	34	C5H5O+
92.0257	45	C6H4O+
93.0332	309	C6H5O+
95.0485	85	C6H7O+
109.0278	28	C6H5O2+
111.0445	64	C6H7O2+
115.0542	318	C9H7+
128.0623	23	C10H8+
139.0535	20	C11H7+
141.0695	885	C11H9+
142.0729	36	C4H15O3P+
151.0536	70	C12H7+
152.062	329	C12H8+
153.0692	372	C12H9+
155.9958	34	C6H5O3P+
167.0473	34	C5H12O4P+
168.0562	197	C12H8O+
169.0644	161	C12H9O+
170.0718	24	C12H10O+
175.0181	72	C13H3O+
184.0511	158	C12H8O2+
187.0738	46	C5H16O5P+
202.0772	65	C16H10+
203.0254	144	C11H8O2P+
203.0816	20	C9H16O3P+
215.0256	233	C12H8O2P+
215.0847	63	C17H11+
216.031	30	C12H9O2P+
217.102	56	C17H13+
226.078	50	C18H10+
227.0823	28	C11H16O3P+
231.0203	540	C12H8O3P+
232.0267	24	C12H9O3P+
233.0349	54	C12H10O3P+
244.0842	23	C18H12O+
249.0316	114	C12H10O4P+
251.0464	645	C12H12O4P+
252.0511	40	C12H13O4P+
267.041	174	C12H12O5P+
268.0474	31	C12H13O5P+
343.0722	109	C18H16O5P+
