Mass spectrum: {(Propane-2,2-diyl)bis[(4,1-phenylene)oxy]-2-hydroxypropane-3,1-diyl} bis(2-methylprop-2-enoate); LC-ESI-QTOF; MS2; CE: 20eV; R=7000; [M+NH4]+
Name: {(Propane-2,2-diyl)bis[(4,1-phenylene)oxy]-2-hydroxypropane-3,1-diyl} bis(2-methylprop-2-enoate)
Name: Silux
Name: [2-hydroxy-3-[4-[2-[4-[2-hydroxy-3-(2-methylprop-2-enoyloxy)propoxy]phenyl]propan-2-yl]phenoxy]propyl] 2-methylprop-2-enoate
Formula: C29H36O8
Exact mass: 512.2410
SMILES: CC(=C)C(=O)OCC(O)COC1=CC=C(C=C1)C(C)(C)C1=CC=C(OCC(O)COC(=O)C(C)=C)C=C1
InChI: InChI=1S/C29H36O8/c1-19(2)27(32)36-17-23(30)15-34-25-11-7-21(8-12-25)29(5,6)22-9-13-26(14-10-22)35-16-24(31)18-37-28(33)20(3)4/h7-14,23-24,30-31H,1,3,15-18H2,2,4-6H3
Instrument: Agilent 6560 QTOF
Instrument type: LC-ESI-QTOF
Ms type: MS2
Ion mode: POSITIVE
Ionization: ESI
Fragmentation mode: CID
Collision energy: 20 eV
Resolution: 7000
Column name: ZORBAX Extend-C18 3.5um, 2.1x50mm, Agilent Technologies
Retention time: 3.791 min
Base peak: 530.2827
Precursor m/z: 530.2748
Precursor type: [M+NH4]+
Precursor intensity: 613057.51
m/z	relative intensity	assigned
57.0344	22	C3H5O+
59.0493	4	C3H7O+
69.0341	164	C4H5O+
71.0861	1	C5H11+
77.0379	1	C6H5+
87.0446	43	C4H7O2+
107.0485	9	C7H7O+
119.0508	1	C8H7O+
133.064	1	C9H9O+
135.0802	115	C9H11O+
136.082	2	CH14NO6+
143.0701	999	C7H11O3+
143.0827	616	C11H11+
145.0632	2	C10H9O+
145.1016	1	C11H13+
161.0942	16	C11H13O+
171.0815	1	C12H11O+
173.0958	313	C12H13O+
174.0989	14	C4H16NO6+
191.1056	52	C12H15O2+
199.1326	1	C11H19O3+
209.1165	317	C12H17O3+
210.1205	15	C4H20NO8+
211.0957	68	C11H15O4+
259.1309	30	C16H19O3+
260.1339	2	C8H22NO8+
267.1355	3	C18H19O2+
277.1423	161	C16H21O4+
278.1454	7	C16H22O4+
279.1366	2	C19H19O2+
281.1546	1	C19H21O2+
293.1533	7	C20H21O2+
305.1531	18	C21H21O2+
306.1535	3	C13H24NO7+
323.1621	7	C21H23O3+
339.158	4	C21H23O4+
341.1731	11	C21H25O4+
427.2114	27	C25H31O6+
495.2374	8	C29H35O7+
