Mass spectrum: Cortisol; LC-ESI-QTOF; MS2; CE: 20eV; R=7000; [M+H]+
Name: Cortisol
Name: Hydrocortisone
Name: (8S,9S,10R,11S,13S,14S,17R)-11,17-dihydroxy-17-(2-hydroxyacetyl)-10,13-dimethyl-2,6,7,8,9,11,12,14,15,16-decahydro-1H-cyclopenta[a]phenanthren-3-one
Formula: C21H30O5
Exact mass: 362.2093
SMILES: C[C@]12CCC(=O)C=C1CC[C@@H]3[C@@H]2[C@H](C[C@]4([C@H]3CC[C@@]4(C(=O)CO)O)C)O
InChI: InChI=1S/C21H30O5/c1-19-7-5-13(23)9-12(19)3-4-14-15-6-8-21(26,17(25)11-22)20(15,2)10-16(24)18(14)19/h9,14-16,18,22,24,26H,3-8,10-11H2,1-2H3/t14-,15-,16-,18+,19-,20-,21-/m0/s1
Instrument: Agilent 6560 QTOF
Instrument type: LC-ESI-QTOF
Ms type: MS2
Ion mode: POSITIVE
Ionization: ESI
Fragmentation mode: CID
Collision energy: 20 eV
Resolution: 7000
Column name: Direct injection
Retention time: 0.180 min
Base peak: 363.2177
Precursor m/z: 363.2166
Precursor type: [M+H]+
Precursor intensity: 120074
m/z	relative intensity	assigned
77.0386	82	C6H5+
78.0477	78	C6H6+
79.0552	139	C6H7+
81.0714	62	C6H9+
83.0485	34	C5H7O+
91.0528	50	C7H7+
93.0706	147	C7H9+
95.0495	63	C6H7O+
95.0847	57	C7H11+
97.0646	333	C6H9O+
99.0451	106	C5H7O2+
105.0687	243	C8H9+
107.0495	62	C7H7O+
107.0846	226	C8H11+
109.0637	141	C7H9O+
116.0613	17	C9H8+
117.068	98	C9H9+
119.0866	164	C9H11+
121.065	999	C8H9O+
122.0747	13	C8H10O+
123.0799	155	C8H11O+
129.0695	59	C10H9+
130.077	27	C10H10+
131.0857	65	C10H11+
133.0637	68	C9H9O+
133.1001	160	C10H13+
135.0799	176	C9H11O+
135.1158	23	C10H15+
135.1765	10	C8H23O+
137.0594	48	C8H9O2+
139.0744	57	C8H11O2+
141.0682	80	C11H9+
143.0848	128	C11H11+
145.0645	107	C10H9O+
145.1013	151	C11H13+
147.0806	58	C10H11O+
147.1165	84	C11H15+
153.0897	38	C9H13O2+
155.0834	29	C12H11+
157.1017	251	C12H13+
159.116	200	C12H15+
161.1286	72	C12H17+
163.1112	123	C11H15O+
165.1266	64	C11H17O+
169.1016	60	C13H13+
171.1158	63	C13H15+
172.1274	101	C13H16+
173.0942	135	C12H13O+
173.1355	55	C6H21O5+
175.0724	15	C11H11O2+
175.1081	8	C12H15O+
178.079	25	C14H10+
179.1081	26	C11H15O2+
180.093	6	C14H12+
181.1	40	C14H13+
183.1179	77	C14H15+
185.0954	126	C13H13O+
185.1337	128	C14H17+
187.1122	45	C13H15O+
187.1481	129	C14H19+
188.1547	19	C14H20+
189.1246	29	C13H17O+
195.118	52	C15H15+
196.1252	39	C15H16+
197.0952	86	C14H13O+
197.1317	45	C15H17+
199.113	104	C14H15O+
199.1465	63	C15H19+
201.1282	38	C14H17O+
203.1022	25	C13H15O2+
203.1415	51	C14H19O+
205.1234	8	C13H17O2+
207.1169	54	C16H15+
209.1333	135	C16H17+
211.1469	129	C16H19+
213.1265	26	C15H17O+
215.1404	66	C15H19O+
217.1579	55	C15H21O+
219.0984	13	C13H15O3+
221.1321	93	C17H17+
223.1473	63	C17H19+
225.1267	120	C16H17O+
225.1653	61	C17H21+
231.1376	12	C15H19O2+
233.0784	41	C13H13O4+
234.1374	62	C18H18+
235.1122	69	C17H15O+
235.1455	29	C18H19+
237.128	68	C17H17O+
239.1424	74	C17H19O+
239.1798	62	C18H23+
241.1566	219	C17H21O+
244.1775	17	C17H24O+
247.1093	23	C18H15O+
248.1557	32	C19H20+
249.1637	97	C19H21+
251.145	133	C18H19O+
251.1775	40	C19H23+
253.1239	7	C17H17O2+
253.1585	38	C18H21O+
255.1697	24	C18H23O+
257.152	54	C17H21O2+
263.1446	21	C19H19O+
265.1601	48	C19H21O+
267.1335	19	C18H19O2+
267.1743	262	C19H23O+
268.1862	77	C19H24O+
269.1494	12	C18H21O2+
269.1891	93	C19H25O+
271.2012	26	C19H27O+
279.1753	27	C20H23O+
281.19	51	C20H25O+
283.1609	14	C15H23O5+
285.1868	61	C19H25O2+
287.1585	14	C18H23O3+
287.195	40	C19H27O2+
291.1767	142	C21H23O+
294.1574	22	C20H22O2+
297.1906	36	C20H25O2+
299.2007	44	C20H27O2+
303.1404	33	C21H19O2+
309.1838	260	C21H25O2+
310.1865	41	C21H26O2+
315.1942	31	C20H27O3+
327.1972	161	C21H27O3+
345.2042	15	C21H29O4+
363.2144	292	C21H31O5+
