Mass spectrum: 1-palmitoyl-2-linoleoyl-sn-glycero-3-phosphoethanol; LC-ESI-QTOF; MS2; CE: 10eV; R=7000; [M-H]-
Name: 1-palmitoyl-2-linoleoyl-sn-glycero-3-phosphoethanol
Formula: C39H73O8P
Exact mass: 700.5043
SMILES: O=C(O[C@@H](COP(O)(=O)OCC)COC(=O)CCCCCCCCCCCCCCC)CCCCCCC/C=C\C\C=C\CCCCC
InChI: InChI=1S/C39H73O8P/c1-4-7-9-11-13-15-17-19-20-22-24-26-28-30-32-34-39(41)47-37(36-46-48(42,43)45-6-3)35-44-38(40)33-31-29-27-25-23-21-18-16-14-12-10-8-5-2/h13,15,19-20,37H,4-12,14,16-18,21-36H2,1-3H3,(H,42,43)/b15-13+,20-19-/t37-/m1/s1
Instrument: Agilent 6560 QTOF
Instrument type: LC-ESI-QTOF
Ms type: MS2
Ion mode: NEGATIVE
Ionization: ESI
Fragmentation mode: CID
Collision energy: 10 eV
Resolution: 7000
Column name: N/A
Retention time: 0.076 min
Base peak: 980.0164
Precursor m/z: 699.497
Precursor type: [M-H]-
Precursor intensity: 250556
m/z	relative intensity	assigned
124.9991	8	C2H6O4P-
145.2599	1	CH37O6-
255.2322	70	C16H31O2-
256.5271	1	C6H72O7-
257.0109	1	C13H5O6-
279.2332	216	C18H31O2-
280.2378	11	C11H37O5P-
280.5377	1	C12H72O4-
419.2591	9	C28H35O3-
437.2682	25	C21H42O7P-
438.2019	1	C26H30O6-
438.2737	2	C21H43O7P-
443.2487	6	C30H36OP-
461.254	4	C26H37O7-
461.5222	2	C30H70P-
478.0407	2	C31H11O4P-
640.2957	1	C39H45O6P-
699.4976	999	C39H72O8P-
