Mass spectrum: 4-Methylbenzotriazole; LC-ESI-QTOF; MS2; CE: 25eV; R=7000; [M+H]+
Name: 4-Methylbenzotriazole
Name: 4-Methyl-1H-benzotriazole
Name: 4-methyl-2H-benzotriazole
Formula: C7H7N3
Exact mass: 133.0640
SMILES: CC1=CC=CC2=NNN=C12
InChI: InChI=1S/C7H7N3/c1-5-3-2-4-6-7(5)9-10-8-6/h2-4H,1H3,(H,8,9,10)
Instrument: Agilent 6560 QTOF
Instrument type: LC-ESI-QTOF
Ms type: MS2
Ion mode: POSITIVE
Ionization: ESI
Fragmentation mode: CID
Collision energy: 25 eV
Resolution: 7000
Retention time: 0.148 min
Base peak: 134.0712
Precursor m/z: 134.0713
Precursor type: [M+H]+
Precursor intensity: 48329.78
m/z	relative intensity	assigned
51.0231	100	C4H3+
53.0398	38	C4H5+
64.03	14	C5H4+
65.0385	27	C5H5+
66.0341	13	C4H4N+
66.0456	20	C5H6+
67.0419	30	C4H5N+
77.0387	999	C6H5+
79.0541	230	C6H7+
80.0492	35	C5H6N+
91.0412	15	C6H5N+
104.0485	11	C7H6N+
106.0652	28	C7H8N+
134.0714	72	C7H8N3+
