Mass spectrum: L-Valine; LC-ESI-QTOF; MS2; CE: 10eV; R=5000; [M+H]+
Name: L-Valine
Name: Valine
Name: (2S)-2-amino-3-methylbutanoic acid
Formula: C5H11NO2
Exact mass: 117.0790
SMILES: CC(C)[C@@H](C(=O)O)N
InChI: InChI=1S/C5H11NO2/c1-3(2)4(6)5(7)8/h3-4H,6H2,1-2H3,(H,7,8)/t4-/m0/s1
Instrument: Agilent 6530 QTOF
Instrument type: LC-ESI-QTOF
Ms type: MS2
Ion mode: POSITIVE
Ionization: ESI
Fragmentation mode: CID
Collision energy: 10 eV
Resolution: 5000
Column name: N/A
Retention time: 0.564 min
Base peak: 121.0508
Precursor m/z: 118.0863
Precursor type: [M+H]+
Precursor intensity: 60282
m/z	relative intensity	assigned
55.0542	164	C4H7+
57.0575	33	C3H7N+
58.0656	460	C3H8N+
59.0726	709	C3H9N+
72.0798	486	C4H10N+
118.0842	999	C5H12NO2+
