Mass spectrum: XANTHOSINE; LC-ESI-QTOF; MS2; CE: 40eV; R=5000; [M+H]+
Name: XANTHOSINE
Name: 9-[(2R,3R,4S,5R)-3,4-dihydroxy-5-(hydroxymethyl)oxolan-2-yl]-3H-purine-2,6-dione
Formula: C10H12N4O6
Exact mass: 284.07568
SMILES: OC[C@H]1O[C@H]([C@H](O)[C@@H]1O)N1C=NC2=C1N=C(O)N=C2O
InChI: InChI=1S/C10H12N4O6/c15-1-3-5(16)6(17)9(20-3)14-2-11-4-7(14)12-10(19)13-8(4)18/h2-3,5-6,9,15-17H,1H2,(H2,12,13,18,19)/t3-,5-,6-,9-/m1/s1
Instrument: Agilent 6530 QTOF
Instrument type: LC-ESI-QTOF
Ms type: MS2
Ion mode: POSITIVE
Ionization: ESI
Fragmentation mode: CID
Collision energy: 40 eV
Resolution: 5000
Column name: N/A
Retention time: 0.182 min
Base peak: 202.1801
Precursor m/z: 285.083
Precursor type: [M+H]+
Precursor intensity: 87611
m/z	relative intensity	assigned
40.0173	65	C2H2N+
41.0388	106	C3H5+
53.0232	46	H5O3+
53.9981	13	C2NO+
58.0649	16	C3H8N+
59.994	4	N2O2+
61.0298	11	C2H5O2+
68.0127	21	C3H2NO+
69.0345	250	C4H5O+
71.0126	86	C3H3O2+
81.0088	122	C3HN2O+
81.0661	20	CH9N2O2+
82.0407	72	C5H6O+
83.0256	7	C3H3N2O+
85.0294	20	C4H5O2+
85.0661	4	C5H9O+
85.9989	6	CN3O2+
91.0521	8	C2H7N2O2+
93.0065	52	CH3NO4+
93.0905	4	C4H13O2+
97.0588	10	CH9N2O3+
98.098	22	C6H12N+
105.0637	27	H11NO5+
108.0188	65	C4H2N3O+
110.0355	389	C4H4N3O+
114.0098	22	C8H2O+
121.0181	35	C6H3NO2+
135.0284	59	C4H7O5+
136.0146	999	C5H2N3O2+
137.0418	4	C2H7N3O4+
138.0514	4	C2H8N3O4+
153.0389	169	C4H9O6+
154.067	11	C2H10N4O4+
