Mass spectrum: ADENOSINEMONOPHOSPHATE; LC-ESI-QTOF; MS2; CE: 10eV; R=5000; [M+H]+
Name: ADENOSINEMONOPHOSPHATE
Name: Adenosine monophosphate
Name: [(2R,3S,4R,5R)-5-(6-aminopurin-9-yl)-3,4-dihydroxyoxolan-2-yl]methyl dihydrogen phosphate
Formula: C10H14N5O7P
Exact mass: 347.0631
SMILES: NC1=C2N=CN([C@@H]3O[C@H](COP(O)(O)=O)[C@@H](O)[C@H]3O)C2=NC=N1
InChI: InChI=1S/C10H14N5O7P/c11-8-5-9(13-2-12-8)15(3-14-5)10-7(17)6(16)4(22-10)1-21-23(18,19)20/h2-4,6-7,10,16-17H,1H2,(H2,11,12,13)(H2,18,19,20)/t4-,6-,7-,10-/m1/s1
Instrument: Agilent 6530 QTOF
Instrument type: LC-ESI-QTOF
Ms type: MS2
Ion mode: POSITIVE
Ionization: ESI
Fragmentation mode: CID
Collision energy: 10 eV
Resolution: 5000
Column name: N/A
Retention time: 0.251 min
Base peak: 121.0508
Precursor m/z: 348.0704
Precursor type: [M+H]+
Precursor intensity: 103740
m/z	relative intensity	assigned
41.0386	7	C3H5+
70.0796	2	CH13NP+
74.0611	3	C3H8NO+
86.0476	1	C3H6N2O+
94.0436	6	C2H9NOP+
97.0277	44	C3H3N3O+
106.9745	2	CH2NO3P+
109.0518	3	C6H7NO+
109.0969	12	C3H13N2O2+
119.0324	11	C2H5N3O3+
121.0491	7	C4H9O4+
135.0191	1	C2H6N3O2P+
136.0613	999	C5H6N5+
137.125	2	C3H15N5O+
138.0999	1	C4H14N2O3+
184.0125	1	C4H9O6P+
229.122	5	C8H15N5O3+
348.0697	251	C10H15N5O7P+
