Mass spectrum: Mono-carboxy-isononyl phthalate; LC-ESI-QTOF; MS2; CE: 20eV; R=7000; [M-H]-
Name: Mono-carboxy-isononyl phthalate
Name: Mono-carboxy isononyl phthalate
Name: 2-(9-carboxynonan-2-yloxycarbonyl)benzoic acid
Formula: C18H24O6
Exact mass: 336.1573
SMILES: CC(CCCCCCCC(=O)O)OC(=O)C1=CC=CC=C1C(=O)O
InChI: InChI=1S/C18H24O6/c1-13(9-5-3-2-4-6-12-16(19)20)24-18(23)15-11-8-7-10-14(15)17(21)22/h7-8,10-11,13H,2-6,9,12H2,1H3,(H,19,20)(H,21,22)
Instrument: Agilent 6560 QTOF
Instrument type: LC-ESI-QTOF
Ms type: MS2
Ion mode: NEGATIVE
Ionization: ESI
Fragmentation mode: CID
Collision energy: 20 eV
Resolution: 7000
Column name: ZORBAX Extend-C18 3.5um, 2.1x50mm, Agilent Technologies
Retention time: 2.802 min
Base peak: 335.1504
Precursor m/z: 335.15
Precursor type: [M-H]-
Precursor intensity: 70319.59
m/z	relative intensity	assigned
77.04	120	C6H5-
121.0296	290	C7H5O2-
139.1146	6	C9H15O-
141.1288	29	C9H17O-
147.0118	7	C8H3O3-
165.0201	21	C8H5O4-
185.1196	11	C10H17O3-
187.1342	999	C10H19O3-
188.1391	8	C10H20O3-
263.165	5	C16H23O3-
