Mass spectrum: Mono(2-ethyl-5-oxohexyl) adipate; LC-ESI-QTOF; MS2; CE: 5eV; R=7000; [M-H]-
Name: Mono(2-ethyl-5-oxohexyl) adipate
Name: 6-(2-ethyl-5-oxohexoxy)-6-oxohexanoic acid
Formula: C14H24O5
Exact mass: 272.1624
SMILES: CCC(CCC(=O)C)COC(=O)CCCCC(=O)O
InChI: InChI=1S/C14H24O5/c1-3-12(9-8-11(2)15)10-19-14(18)7-5-4-6-13(16)17/h12H,3-10H2,1-2H3,(H,16,17)
Instrument: Agilent 6560 QTOF
Instrument type: LC-ESI-QTOF
Ms type: MS2
Ion mode: NEGATIVE
Ionization: ESI
Fragmentation mode: CID
Collision energy: 5 eV
Resolution: 7000
Column name: ZORBAX Extend-C18 3.5um, 2.1x50mm, Agilent Technologies
Retention time: 3.476 min
Base peak: 271.1556
Precursor m/z: 271.1551
Precursor type: [M-H]-
Precursor intensity: 67254.35
m/z	relative intensity	assigned
81.0352	85	C5H5O-
83.0507	999	C5H7O-
127.0397	51	C6H7O3-
145.0507	22	C6H9O4-
229.1445	8	C12H21O4-
271.1548	157	C14H23O5-
