Mass spectrum: 2-Aminobenzothiazole; LC-ESI-QTOF; MS2; CE: 25eV; R=7000; [M+H]+
Name: 2-Aminobenzothiazole
Name: 1,3-benzothiazol-2-amine
Formula: C7H6N2S
Exact mass: 150.0252
SMILES: C1=CC=C2C(=C1)N=C(S2)N
InChI: InChI=1S/C7H6N2S/c8-7-9-5-3-1-2-4-6(5)10-7/h1-4H,(H2,8,9)
Instrument: Agilent 6560 QTOF
Instrument type: LC-ESI-QTOF
Ms type: MS2
Ion mode: POSITIVE
Ionization: ESI
Fragmentation mode: CID
Collision energy: 25 eV
Resolution: 7000
Retention time: 0.147 min
Base peak: 151.0327
Precursor m/z: 151.0324
Precursor type: [M+H]+
Precursor intensity: 321670.78
m/z	relative intensity	assigned
53.038	6	C4H5+
59.9904	2	CH2NS+
63.0214	4	C5H3+
64.019	4	C4H2N+
65.0386	326	C5H5+
68.9789	43	C3HS+
77.0387	20	C6H5+
80.0492	201	C5H6N+
90.0335	20	C6H4N+
91.0411	18	C6H5N+
92.0491	185	C6H6N+
93.0574	8	C6H7N+
97.0104	23	C5H5S+
106.9943	9	C6H3S+
108.0015	7	C6H4S+
109.0103	999	C6H5S+
110.0172	8	C6H6S+
118.0522	99	C7H6N2+
119.0594	1	C7H7N2+
124.0213	318	C6H6NS+
134.0056	8	C7H4NS+
150.0249	7	C7H6N2S+
151.0324	366	C7H7N2S+
