Mass spectrum: N-Palmitoyl-D-sphingosine; LC-ESI-QTOF; MS2; CE: 40eV; R=7000; [M+Cl]-
Name: N-Palmitoyl-D-sphingosine
Name: N-Palmitoylsphingosine
Name: N-[(E,2S,3R)-1,3-dihydroxyoctadec-4-en-2-yl]hexadecanamide
Formula: C34H67NO3
Exact mass: 537.5121
SMILES: [H][C@@](CO)(NC(=O)CCCCCCCCCCCCCCC)[C@H](O)\C=C\CCCCCCCCCCCCC
InChI: InChI=1S/C34H67NO3/c1-3-5-7-9-11-13-15-17-19-21-23-25-27-29-33(37)32(31-36)35-34(38)30-28-26-24-22-20-18-16-14-12-10-8-6-4-2/h27,29,32-33,36-37H,3-26,28,30-31H2,1-2H3,(H,35,38)/b29-27+/t32-,33+/m0/s1
Instrument: Agilent 6560 QTOF
Instrument type: LC-ESI-QTOF
Ms type: MS2
Ion mode: NEGATIVE
Ionization: ESI
Fragmentation mode: CID
Collision energy: 40 eV
Resolution: 7000
Column name: N/A
Retention time: 0.147 min
Base peak: 596.5277
Precursor m/z: 572.4815
Precursor type: [M+Cl]-
Precursor intensity: 4642
m/z	relative intensity	assigned
93.0329	999	ClH10O3-
210.479	503	C5H67ClO3-
311.2207	591	C15H34ClNO3-
474.3098	477	C33H43Cl-
494.9969	646	C34H4ClO3-
502.2989	526	C34H43ClO-
