Mass spectrum: Dimethylbenzimidazole; LC-ESI-QTOF; MS2; CE: 10eV; R=7000; [M+H]+
Name: Dimethylbenzimidazole
Name: 5,6-Dimethylbenzimidazole
Name: 5,6-dimethyl-1H-benzimidazole
Formula: C9H10N2
Exact mass: 146.0844
SMILES: CC1=CC2=C(C=C1C)N=CN2
InChI: InChI=1S/C9H10N2/c1-6-3-8-9(4-7(6)2)11-5-10-8/h3-5H,1-2H3,(H,10,11)
Instrument: Agilent 6560 QTOF
Instrument type: LC-ESI-QTOF
Ms type: MS2
Ion mode: POSITIVE
Ionization: ESI
Fragmentation mode: CID
Collision energy: 10 eV
Resolution: 7000
Column name: Direct injection
Retention time: 0.180 min
Base peak: 147.0918
Precursor m/z: 147.0917
Precursor type: [M+H]+
Precursor intensity: 241013
m/z	relative intensity	assigned
77.0387	6	C6H5+
80.0475	3	C5H6N+
91.0541	7	C7H7+
93.0708	2	C7H9+
118.0631	3	C8H8N+
119.0607	2	C7H7N2+
120.0805	13	C8H10N+
131.0604	13	C8H7N2+
132.0674	41	C8H8N2+
145.0755	14	C9H9N2+
147.0916	999	C9H11N2+
