Mass spectrum: Isodecyl diphenyl phosphate; LC-ESI-QTOF; MS2; CE: 60eV; R=7000; [M+H]+
Name: Isodecyl diphenyl phosphate
Name: 8-methylnonyl diphenyl phosphate
Formula: C22H31O4P
Exact mass: 390.1960
SMILES: CC(C)CCCCCCCOP(=O)(OC1=CC=CC=C1)OC2=CC=CC=C2
InChI: InChI=1S/C22H31O4P/c1-20(2)14-8-4-3-5-13-19-24-27(23,25-21-15-9-6-10-16-21)26-22-17-11-7-12-18-22/h6-7,9-12,15-18,20H,3-5,8,13-14,19H2,1-2H3
Instrument: Agilent 6560 QTOF
Instrument type: LC-ESI-QTOF
Ms type: MS2
Ion mode: POSITIVE
Ionization: ESI
Fragmentation mode: CID
Collision energy: 60 eV
Resolution: 7000
Retention time: 0.108 min
Base peak: 251.0465
Precursor m/z: 391.2033
Precursor type: [M+H]+
Precursor intensity: 48564.45
m/z	relative intensity	assigned
50.0157	25	C4H2+
51.0233	93	C4H3+
55.0542	14	C4H7+
57.0703	48	C4H9+
65.0401	7	C5H5+
77.0387	999	C6H5+
95.0486	68	C6H7O+
127.0525	22	C3H12O3P+
138.9934	9	C6H4O2P+
151.0532	49	C12H7+
152.0611	198	C12H8+
153.0684	51	C5H14O3P+
157.0046	15	C6H6O3P+
168.0572	50	C12H8O+
175.0145	52	C6H8O4P+
201.0016	8	C14HO2+
215.0254	31	C12H8O2P+
