Mass spectrum: Adenosine; LC-ESI-QTOF; MS2; CE: 10eV; R=5000; [M+H]+
Name: Adenosine
Name: 2-(6-aminopurin-9-yl)-5-(hydroxymethyl)oxolane-3,4-diol
Formula: C10H13N5O4
Exact mass: 267.09675
SMILES: C1=NC(=C2C(=N1)N(C=N2)C3C(C(C(O3)CO)O)O)N
InChI: InChI=1S/C10H13N5O4/c11-8-5-9(13-2-12-8)15(3-14-5)10-7(18)6(17)4(1-16)19-10/h2-4,6-7,10,16-18H,1H2,(H2,11,12,13)
Instrument: Agilent 6530 QTOF
Instrument type: LC-ESI-QTOF
Ms type: MS2
Ion mode: POSITIVE
Ionization: ESI
Fragmentation mode: CID
Collision energy: 10 eV
Resolution: 5000
Column name: N/A
Retention time: 0.187 min
Base peak: 268.1042
Precursor m/z: 268.104
Precursor type: [M+H]+
Precursor intensity: 1738651
m/z	relative intensity	assigned
45.0339	3	C2H5O+
55.0182	5	C3H3O+
57.0331	9	C3H5O+
69.0329	2	C4H5O+
73.0277	4	C3H5O2+
85.0268	8	C2H3N3O+
92.0212	1	CH4N2O3+
94.0368	1	CH6N2O3+
97.0268	2	C3H3N3O+
115.0374	6	C3H5N3O2+
119.0338	8	C4H7O4+
133.0475	8	C3H7N3O3+
136.0601	999	C4H10NO4+
137.0642	3	C2H9N4O3+
178.0694	1	C4H10N4O4+
268.1012	298	C10H14N5O4+
