Mass spectrum: Tributyl acetylcitrate; LC-ESI-QTOF; MS2; CE: 25eV; R=7000; [M+H]+
Name: Tributyl acetylcitrate
Name: Acetyl tributyl citrate
Name: tributyl 2-acetyloxypropane-1,2,3-tricarboxylate
Formula: C20H34O8
Exact mass: 402.2254
SMILES: CCCCOC(=O)CC(CC(=O)OCCCC)(C(=O)OCCCC)OC(=O)C
InChI: InChI=1S/C20H34O8/c1-5-8-11-25-17(22)14-20(28-16(4)21,19(24)27-13-10-7-3)15-18(23)26-12-9-6-2/h5-15H2,1-4H3
Instrument: Agilent 6560 QTOF
Instrument type: LC-ESI-QTOF
Ms type: MS2
Ion mode: POSITIVE
Ionization: ESI
Fragmentation mode: CID
Collision energy: 25 eV
Resolution: 7000
Retention time: 0.110 min
Base peak: 425.2153
Precursor m/z: 403.2326
Precursor type: [M+H]+
Precursor intensity: 98251.11
m/z	relative intensity	assigned
57.0705	150	C4H9+
61.0289	65	C2H5O2+
68.9976	83	C3HO2+
87.0073	15	C3H3O3+
111.0078	266	C5H3O3+
129.0182	999	C5H5O4+
139.0022	532	C6H3O4+
157.0127	28	C6H5O5+
185.0807	119	C9H13O4+
259.1514	5	C13H23O5+
