Mass spectrum: Benzotriazole; LC-ESI-QTOF; MS2; CE: 20eV; R=7000; [M+H]+
Name: Benzotriazole
Name: 1H-Benzotriazole
Name: 2H-benzotriazole
Formula: C6H5N3
Exact mass: 119.0483
SMILES: C1=CC2=NNN=C2C=C1
InChI: InChI=1S/C6H5N3/c1-2-4-6-5(3-1)7-9-8-6/h1-4H,(H,7,8,9)
Instrument: Agilent 6560 QTOF
Instrument type: LC-ESI-QTOF
Ms type: MS2
Ion mode: POSITIVE
Ionization: ESI
Fragmentation mode: CID
Collision energy: 20 eV
Resolution: 7000
Column name: InfinityLab Poroshell 120 EC-C18 2.7Âµm, 3x100mm, Agilent Technologies
Retention time: 5.204 min
Base peak: 120.0537
Precursor m/z: 120.0556
Precursor type: [M+H]+
Precursor intensity: 12522.08
m/z	relative intensity	assigned
64.0292	41	C5H4+
65.0371	999	C5H5+
92.0477	303	C6H6N+
120.0537	443	C6H6N3+
