Mass spectrum: Pregnanetriol; LC-ESI-QTOF; MS2; CE: 20eV; R=7000; [M-H]-
Name: Pregnanetriol
Name: (3R,5R,8R,9S,10S,13S,14S,17R)-17-[(1S)-1-hydroxyethyl]-10,13-dimethyl-1,2,3,4,5,6,7,8,9,11,12,14,15,16-tetradecahydrocyclopenta[a]phenanthrene-3,17-diol
Formula: C21H36O3
Exact mass: 336.2664
SMILES: C[C@@H]([C@]1(CC[C@@H]2[C@@]1(CC[C@H]3[C@H]2CC[C@H]4[C@@]3(CC[C@H](C4)O)C)C)O)O
InChI: InChI=1S/C21H36O3/c1-13(22)21(24)11-8-18-16-5-4-14-12-15(23)6-9-19(14,2)17(16)7-10-20(18,21)3/h13-18,22-24H,4-12H2,1-3H3/t13-,14+,15+,16+,17-,18-,19-,20-,21-/m0/s1
Instrument: Agilent 6560 QTOF
Instrument type: LC-ESI-QTOF
Ms type: MS2
Ion mode: NEGATIVE
Ionization: ESI
Fragmentation mode: CID
Collision energy: 20 eV
Resolution: 7000
Column name: N/A
Retention time: 0.193 min
Base peak: 255.2329
Precursor m/z: 335.2592
Precursor type: [M-H]-
Precursor intensity: 14195
m/z	relative intensity	assigned
107.2765	58	C6H35-
242.1106	148	C19H14-
253.2123	193	C16H29O2-
287.2029	130	C19H27O2-
289.2205	642	C19H29O2-
291.231	999	C19H31O2-
299.197	180	C20H27O2-
301.2101	278	C20H29O2-
319.2295	373	C20H31O3-
320.2344	192	C20H32O3-
335.2584	528	C21H35O3-
