Mass spectrum: Coenzyme Q10; LC-ESI-QTOF; MS2; CE: 40eV; R=7000; [M+H]+
Name: Coenzyme Q10
Name: 2-[(2E,6E,10E,14E,18E,22E,26E,30E,34E)-3,7,11,15,19,23,27,31,35,39-decamethyltetraconta-2,6,10,14,18,22,26,30,34,38-decaenyl]-5,6-dimethoxy-3-methylcyclohexa-2,5-diene-1,4-dione
Formula: C59H90O4
Exact mass: 862.6839
SMILES: CC1=C(C(=O)C(=C(C1=O)OC)OC)C/C=C(\C)/CC/C=C(\C)/CC/C=C(\C)/CC/C=C(\C)/CC/C=C(\C)/CC/C=C(\C)/CC/C=C(\C)/CC/C=C(\C)/CC/C=C(\C)/CCC=C(C)C
InChI: InChI=1S/C59H90O4/c1-44(2)24-15-25-45(3)26-16-27-46(4)28-17-29-47(5)30-18-31-48(6)32-19-33-49(7)34-20-35-50(8)36-21-37-51(9)38-22-39-52(10)40-23-41-53(11)42-43-55-54(12)56(60)58(62-13)59(63-14)57(55)61/h24,26,28,30,32,34,36,38,40,42H,15-23,25,27,29,31,33,35,37,39,41,43H2,1-14H3/b45-26+,46-28+,47-30+,48-32+,49-34+,50-36+,51-38+,52-40+,53-42+
Instrument: Agilent 6560 QTOF
Instrument type: LC-ESI-QTOF
Ms type: MS2
Ion mode: POSITIVE
Ionization: ESI
Fragmentation mode: CID
Collision energy: 40 eV
Resolution: 7000
Column name: Direct injection
Retention time: 0.327 min
Base peak: 647.4605
Precursor m/z: 863.6912
Precursor type: [M+H]+
Precursor intensity: 99653
m/z	relative intensity	assigned
77.0379	21	C6H5+
81.0707	71	C6H9+
83.0491	36	C5H7O+
83.0836	19	C6H11+
85.1	11	C6H13+
91.04	16	C3H7O3+
93.0696	61	C7H9+
95.048	16	C6H7O+
95.0846	100	C7H11+
107.0862	18	C8H11+
109.1005	183	C8H13+
111.043	7	C6H7O2+
111.1165	7	C8H15+
119.0849	48	C9H11+
121.0996	107	C9H13+
123.1163	88	C9H15+
131.0859	24	C10H11+
133.1027	20	C10H13+
135.1163	75	C10H15+
137.1307	19	C10H17+
147.1155	54	C11H15+
149.1317	96	C11H17+
154.0629	48	C8H10O3+
154.2111	12	C5H30O4+
159.1167	39	C12H15+
161.1314	21	C12H17+
163.148	48	C12H19+
167.0314	36	C8H7O4+
167.0694	6	C9H11O3+
171.0661	12	C8H11O4+
173.1311	58	C13H17+
175.1479	55	C13H19+
177.1639	57	C13H21+
181.0853	17	C10H13O3+
185.0945	12	C13H13O+
185.1194	32	C10H17O3+
187.0772	9	C12H11O2+
187.1466	10	C14H19+
188.1153	29	C13H16O+
189.1611	65	C14H21+
191.071	19	C11H11O3+
191.1091	16	C12H15O2+
191.1759	33	C14H23+
195.0636	9	C10H11O4+
195.1019	8	C11H15O3+
197.0801	999	C10H13O4+
201.088	23	C13H13O2+
201.1641	12	C15H21+
203.1055	8	C13H15O2+
203.1806	22	C15H23+
205.0865	6	C12H13O3+
207.0633	10	C11H11O4+
215.1791	28	C16H23+
216.3734	8	C14H48+
217.0864	15	C13H13O3+
217.193	14	C16H25+
221.0789	8	C12H13O4+
221.1205	25	C13H17O3+
225.163	36	C17H21+
226.1319	8	C16H18O+
229.1937	38	C17H25+
231.1022	12	C14H15O3+
231.2112	8	C17H27+
233.1148	16	C14H17O3+
235.114	22	C17H15O+
237.1107	76	C13H17O4+
239.1785	10	C18H23+
240.1123	16	C16H16O2+
240.1315	16	C13H20O4+
248.2473	35	C18H32+
249.1135	3	C14H17O4+
251.1327	6	C14H19O4+
251.1805	10	C19H23+
253.1206	6	C17H17O2+
257.2243	15	C19H29+
259.1305	11	C16H19O3+
259.2402	8	C19H31+
263.1248	28	C15H19O4+
263.1788	12	C20H23+
264.1308	17	C15H20O4+
267.1402	4	C18H19O2+
271.1669	7	C18H23O2+
271.2379	9	C20H31+
273.2575	22	C20H33+
275.2684	7	C20H35+
277.1421	31	C16H21O4+
283.2371	12	C21H31+
285.1505	31	C18H21O3+
285.2567	20	C21H33+
286.1543	16	C18H22O3+
291.1561	20	C17H23O4+
297.2603	16	C22H33+
299.1616	10	C19H23O3+
299.2731	22	C22H35+
309.2538	16	C23H33+
313.1756	4	C20H25O3+
313.2814	10	C23H37+
323.1995	3	C22H27O2+
327.3024	27	C24H39+
335.1968	7	C23H27O2+
337.2908	6	C25H37+
339.3018	7	C25H39+
341.2088	33	C22H29O3+
341.321	14	C25H41+
353.3181	5	C26H41+
375.2503	6	C23H35O4+
395.3661	4	C29H47+
408.3685	6	C30H48+
409.3755	19	C30H49+
419.2928	16	C29H39O2+
419.6671	6	C25H87O2+
451.3219	14	C30H43O3+
455.2933	10	C32H39O2+
457.3019	9	C32H41O2+
461.4105	26	C34H53+
463.3169	15	C31H43O3+
472.4096	4	C35H52+
521.3517	6	C37H45O2+
527.1617	4	C38H23O3+
531.43	2	C37H55O2+
535.3692	7	C35H51O4+
587.5549	10	C43H71+
679.6179	5	C50H79+
710.5543	13	C49H74O3+
753.6256	10	C52H81O3+
754.5725	9	C54H74O2+
818.7117	3	C58H90O2+
831.6644	12	C58H87O3+
832.6616	7	C58H88O3+
845.6813	8	C59H89O3+
863.6872	12	C59H91O4+
