Mass spectrum: N-Palmitoyl-D-sphingosine; LC-ESI-QTOF; MS2; CE: 10eV; R=7000; [M-H2O+H]+
Name: N-Palmitoyl-D-sphingosine
Name: N-Palmitoylsphingosine
Name: N-[(E,2S,3R)-1,3-dihydroxyoctadec-4-en-2-yl]hexadecanamide
Formula: C34H67NO3
Exact mass: 537.5121
SMILES: [H][C@@](CO)(NC(=O)CCCCCCCCCCCCCCC)[C@H](O)\C=C\CCCCCCCCCCCCC
InChI: InChI=1S/C34H67NO3/c1-3-5-7-9-11-13-15-17-19-21-23-25-27-29-33(37)32(31-36)35-34(38)30-28-26-24-22-20-18-16-14-12-10-8-6-4-2/h27,29,32-33,36-37H,3-26,28,30-31H2,1-2H3,(H,35,38)/b29-27+/t32-,33+/m0/s1
Instrument: Agilent 6560 QTOF
Instrument type: LC-ESI-QTOF
Ms type: MS2
Ion mode: POSITIVE
Ionization: ESI
Fragmentation mode: CID
Collision energy: 10 eV
Resolution: 7000
Column name: Direct injection
Retention time: 0.157 min
Base peak: 520.5108
Precursor m/z: 520.5088
Precursor type: [M-H2O+H]+
Precursor intensity: 123238
m/z	relative intensity	assigned
91.4177	4	C2H53N+
109.1003	13	C8H13+
121.0997	12	C9H13+
133.0858	7	C9H11N+
177.1115	13	C11H15NO+
197.1898	7	C13H25O+
211.2053	12	C14H27O+
252.2686	36	C17H34N+
256.264	17	C16H34NO+
264.2697	999	C18H34N+
265.2731	93	C18H35N+
282.281	140	C18H36NO+
299.2644	1	C21H33N+
490.4973	42	C33H64NO+
491.5056	7	C33H65NO+
502.4993	72	C34H64NO+
503.5012	28	C34H65NO+
520.5101	581	C34H66NO2+
