Mass spectrum: Liothyronine; LC-ESI-QTOF; MS2; CE: 20eV; R=7000; [M-H]-
Name: Liothyronine
Name: (2S)-2-amino-3-[4-(4-hydroxy-3-iodophenoxy)-3,5-diiodophenyl]propanoic acid
Formula: C15H12I3NO4
Exact mass: 650.7901
SMILES: N[C@@H](CC1=CC(I)=C(OC2=CC=C(O)C(I)=C2)C(I)=C1)C(O)=O
InChI: InChI=1S/C15H12I3NO4/c16-9-6-8(1-2-13(9)20)23-14-10(17)3-7(4-11(14)18)5-12(19)15(21)22/h1-4,6,12,20H,5,19H2,(H,21,22)/t12-/m0/s1
Instrument: Agilent 6560 QTOF
Instrument type: LC-ESI-QTOF
Ms type: MS2
Ion mode: NEGATIVE
Ionization: ESI
Fragmentation mode: CID
Collision energy: 20 eV
Resolution: 7000
Column name: N/A
Retention time: 0.166 min
Base peak: 649.7815
Precursor m/z: 649.7828
Precursor type: [M-H]-
Precursor intensity: 941563
m/z	relative intensity	assigned
72.0091	123	C2H2NO2-
126.9045	999	I-
156.9132	1	CH2IO-
222.0525	1	C14H8NO2-
254.8198	1	HI2-
349.9679	5	C14H9INO2-
350.976	7	C14H10INO2-
351.9761	1	C14H11INO2-
359.8157	1	C6H2I2O2-
393.9544	1	C15H9INO4-
398.8377	2	C9H5I2O2-
435.8517	2	C8H8I2NO4-
436.8407	1	C11H5I2NO2-
448.8532	101	C13H7I2O2-
449.8627	6	C13H8I2O2-
461.8606	3	C14H8I2O2-
462.8657	3	C14H9I2O2-
475.8646	1	C14H8I2NO2-
476.8436	3	C14H7I2O3-
477.8822	5	C14H10I2NO2-
478.8833	7	C14H11I2NO2-
504.8446	1	C15H7I2O4-
505.8512	76	C15H8I2O4-
506.8548	8	C15H9I2O4-
521.8682	5	C15H10I2NO4-
522.8755	23	C15H11I2NO4-
576.7648	15	C13H8I3O2-
588.7677	2	C14H8I3O2-
604.7621	1	C14H8I3O3-
632.7554	233	C15H8I3O4-
633.7579	24	C15H9I3O4-
649.7825	138	C15H11I3NO4-
