Mass spectrum: 1,2-Dipalmitoyl-rac-glycerol; LC-ESI-QTOF; MS2; CE: 20eV; R=7000; [M-H2O+H]+
Name: 1,2-Dipalmitoyl-rac-glycerol
Name: 1,2-Dipalmitoyl-sn-glycerol
Name: [(2S)-2-hexadecanoyloxy-3-hydroxypropyl] hexadecanoate
Formula: C35H68O5
Exact mass: 568.5067
SMILES: [H][C@](CO)(COC(=O)CCCCCCCCCCCCCCC)OC(=O)CCCCCCCCCCCCCCC
InChI: InChI=1S/C35H68O5/c1-3-5-7-9-11-13-15-17-19-21-23-25-27-29-34(37)39-32-33(31-36)40-35(38)30-28-26-24-22-20-18-16-14-12-10-8-6-4-2/h33,36H,3-32H2,1-2H3/t33-/m0/s1
Instrument: Agilent 6560 QTOF
Instrument type: LC-ESI-QTOF
Ms type: MS2
Ion mode: POSITIVE
Ionization: ESI
Fragmentation mode: CID
Collision energy: 20 eV
Resolution: 7000
Column name: Direct injection
Retention time: 0.208 min
Base peak: 591.4978
Precursor m/z: 551.5034
Precursor type: [M-H2O+H]+
Precursor intensity: 17406
m/z	relative intensity	assigned
71.0861	376	C5H11+
81.0709	648	C6H9+
83.0854	186	C6H11+
85.1016	310	C6H13+
95.0861	998	C7H11+
109.1016	347	C8H13+
121.1016	142	C9H13+
123.1147	306	C9H15+
125.1314	102	C9H17+
180.1138	188	C11H16O2+
292.2007	234	C18H28O3+
383.141	36	C29H19O+
383.2703	127	C29H35+
469.3256	98	C30H45O4+
551.5048	999	C35H67O4+
