Mass spectrum: Para-hydroxy triphenyl phosphate; LC-ESI-QTOF; MS2; CE: 45eV; R=7000; [M+H]+
Name: Para-hydroxy triphenyl phosphate
Name: 4-Hydroxyphenyl diphenyl phosphate
Name: (4-hydroxyphenyl) diphenyl phosphate
Formula: C18H15O5P
Exact mass: 342.0657
SMILES: C1=CC=C(C=C1)OP(=O)(OC2=CC=CC=C2)OC3=CC=C(C=C3)O
InChI: InChI=1S/C18H15O5P/c19-15-11-13-18(14-12-15)23-24(20,21-16-7-3-1-4-8-16)22-17-9-5-2-6-10-17/h1-14,19H
Instrument: Agilent 6560 QTOF
Instrument type: LC-ESI-QTOF
Ms type: MS2
Ion mode: POSITIVE
Ionization: ESI
Fragmentation mode: CID
Collision energy: 45 eV
Resolution: 7000
Retention time: 0.147 min
Base peak: 343.0731
Precursor m/z: 343.073
Precursor type: [M+H]+
Precursor intensity: 100412.38
m/z	relative intensity	assigned
51.0236	162	C4H3+
53.0392	22	C4H5+
65.0387	319	C5H5+
77.0386	999	C6H5+
81.0334	156	C5H5O+
91.0537	9	C7H7+
93.0328	41	C6H5O+
94.0406	20	C6H6O+
95.0478	47	C6H7O+
109.028	349	C6H5O2+
110.0358	78	C6H6O2+
111.0445	11	C6H7O2+
115.0541	630	C9H7+
127.0543	22	C10H7+
128.0622	26	C10H8+
138.994	14	C6H4O2P+
139.0546	50	C11H7+
140.0615	33	C11H8+
141.0693	218	C11H9+
150.0468	18	C12H6+
151.0544	76	C12H7+
152.0615	379	C12H8+
153.0694	44	C12H9+
155.0478	11	C4H12O4P+
155.9957	48	C6H5O3P+
157.002	11	C6H6O3P+
167.0466	10	C5H12O4P+
168.0568	169	C12H8O+
169.0634	38	C5H14O4P+
175.016	33	C6H8O4P+
184.0504	46	C5H13O5P+
185.0598	14	C12H9O2+
186.0657	11	C5H15O5P+
202.0782	36	C16H10+
203.0255	10	C11H8O2P+
215.0255	54	C12H8O2P+
215.0858	43	C17H11+
226.0772	42	C18H10+
231.0193	28	C12H8O3P+
267.0384	34	C12H12O5P+
