Mass spectrum: Tri-m-tolyl phosphate; LC-ESI-QTOF; MS2; CE: 60eV; R=7000; [M+H]+
Name: Tri-m-tolyl phosphate
Name: Tri-M-cresyl phosphate
Name: tris(3-methylphenyl) phosphate
Formula: C21H21O4P
Exact mass: 368.1177
SMILES: CC1=CC(=CC=C1)OP(=O)(OC2=CC=CC(=C2)C)OC3=CC=CC(=C3)C
InChI: InChI=1S/C21H21O4P/c1-16-7-4-10-19(13-16)23-26(22,24-20-11-5-8-17(2)14-20)25-21-12-6-9-18(3)15-21/h4-15H,1-3H3
Instrument: Agilent 6560 QTOF
Instrument type: LC-ESI-QTOF
Ms type: MS2
Ion mode: POSITIVE
Ionization: ESI
Fragmentation mode: CID
Collision energy: 60 eV
Resolution: 7000
Retention time: 0.110 min
Base peak: 369.1254
Precursor m/z: 369.125
Precursor type: [M+H]+
Precursor intensity: 244575.42
m/z	relative intensity	assigned
51.0232	17	C4H3+
63.0235	25	C5H3+
65.0388	677	C5H5+
67.0547	3	C5H7+
77.0383	39	C6H5+
78.0458	10	C6H6+
79.0544	30	C6H7+
89.0391	14	C7H5+
91.0543	880	C7H7+
94.0399	4	C6H6O+
103.0518	3	CH12O3P+
105.0338	8	C7H5O+
106.041	3	C7H6O+
107.0491	27	C7H7O+
109.064	16	C7H9O+
115.0543	26	C9H7+
127.0523	7	C3H12O3P+
128.061	14	C10H8+
139.0521	8	C4H12O3P+
141.0694	27	C11H9+
152.0613	44	C12H8+
153.0088	10	C7H6O2P+
153.0682	18	C5H14O3P+
154.0753	6	C5H15O3P+
163.0541	8	C13H7+
164.0613	44	C13H8+
165.0699	999	C13H9+
166.0757	184	C6H15O3P+
167.0815	10	C6H16O3P+
169.0064	5	C14H+
176.0639	4	C14H8+
178.0772	101	C14H10+
179.0845	37	C14H11+
180.0901	5	C7H17O3P+
181.0646	45	C13H9O+
181.1014	6	C14H13+
182.0678	8	C6H15O4P+
195.0798	131	C14H11O+
196.0878	66	C14H12O+
197.0507	7	C13H10P+
197.0897	7	C7H18O4P+
200.0378	7	C12H9OP+
202.078	4	C16H10+
210.0215	6	C13H7OP+
213.0461	11	C13H10OP+
215.0609	7	C13H12OP+
215.085	9	C17H11+
226.078	9	C18H10+
226.0939	3	C15H15P+
227.084	3	C11H16O3P+
228.09	3	C11H17O3P+
239.0846	37	C19H11+
240.0926	13	C19H12+
241.1	19	C12H18O3P+
243.057	15	C14H12O2P+
255.1156	13	C13H20O3P+
303.0545	3	C19H12O2P+
