Mass spectrum: 5-METHYLCYTOSINE; LC-ESI-QTOF; MS2; CE: 10eV; R=5000; [M+H]+
Name: 5-METHYLCYTOSINE
Name: 6-amino-5-methyl-1H-pyrimidin-2-one
Formula: C5H7N3O
Exact mass: 125.0589
SMILES: CC1=C(N)NC(=O)N=C1
InChI: InChI=1S/C5H7N3O/c1-3-2-7-5(9)8-4(3)6/h2H,1H3,(H3,6,7,8,9)
Instrument: Agilent 6530 QTOF
Instrument type: LC-ESI-QTOF
Ms type: MS2
Ion mode: POSITIVE
Ionization: ESI
Fragmentation mode: CID
Collision energy: 10 eV
Resolution: 5000
Column name: N/A
Retention time: 0.185 min
Base peak: 126.0664
Precursor m/z: 126.0662
Precursor type: [M+H]+
Precursor intensity: 6593016
m/z	relative intensity	assigned
54.0335	49	C3H4N+
56.0491	75	C3H6N+
66.0326	4	C4H4N+
69.0092	1	C2HN2O+
71.0236	10	C2H3N2O+
81.0433	71	C4H5N2+
82.0275	34	C4H4NO+
83.0592	132	C4H7N2+
108.0537	130	C5H6N3+
109.0377	255	C5H5N2O+
126.0637	999	C5H8N3O+
