Mass spectrum: Coenzyme Q10; LC-ESI-QTOF; MS2; CE: 20eV; R=7000; [M-H]-
Name: Coenzyme Q10
Name: 2-[(2E,6E,10E,14E,18E,22E,26E,30E,34E)-3,7,11,15,19,23,27,31,35,39-decamethyltetraconta-2,6,10,14,18,22,26,30,34,38-decaenyl]-5,6-dimethoxy-3-methylcyclohexa-2,5-diene-1,4-dione
Formula: C59H90O4
Exact mass: 862.6839
SMILES: CC1=C(C(=O)C(=C(C1=O)OC)OC)C/C=C(\C)/CC/C=C(\C)/CC/C=C(\C)/CC/C=C(\C)/CC/C=C(\C)/CC/C=C(\C)/CC/C=C(\C)/CC/C=C(\C)/CC/C=C(\C)/CCC=C(C)C
InChI: InChI=1S/C59H90O4/c1-44(2)24-15-25-45(3)26-16-27-46(4)28-17-29-47(5)30-18-31-48(6)32-19-33-49(7)34-20-35-50(8)36-21-37-51(9)38-22-39-52(10)40-23-41-53(11)42-43-55-54(12)56(60)58(62-13)59(63-14)57(55)61/h24,26,28,30,32,34,36,38,40,42H,15-23,25,27,29,31,33,35,37,39,41,43H2,1-14H3/b45-26+,46-28+,47-30+,48-32+,49-34+,50-36+,51-38+,52-40+,53-42+
Instrument: Agilent 6560 QTOF
Instrument type: LC-ESI-QTOF
Ms type: MS2
Ion mode: NEGATIVE
Ionization: ESI
Fragmentation mode: CID
Collision energy: 20 eV
Resolution: 7000
Column name: N/A
Retention time: 0.310 min
Base peak: 980.0164
Precursor m/z: 861.6766
Precursor type: [M-H]-
Precursor intensity: 1046559
m/z	relative intensity	assigned
71.0138	19	C3H3O2-
71.294	30	H39O2-
71.368	18	C2H47-
72.0218	19	C3H4O2-
72.0597	16	C4H8O-
73.0288	22	C3H5O2-
73.0645	18	C4H9O-
73.0859	19	CH13O3-
73.3854	20	C2H49-
74.32	24	H42O2-
75.0461	17	C3H7O2-
75.3262	16	H43O2-
76.1481	24	C2H20O2-
77.1194	18	CH17O3-
77.4738	20	H61O-
78.0487	22	C6H6-
79.49	18	H63O-
79.6194	27	H79-
81.0909	20	C3H13O2-
81.6361	21	H81-
83.0864	22	C6H11-
83.1286	18	H19O4-
84.0197	18	C4H4O2-
84.0441	15	CH8O4-
84.0577	18	C5H8O-
84.1364	22	H20O4-
84.1875	23	C5H24-
86.4856	24	C2H62-
87.0227	21	C7H3-
87.2134	17	C5H27-
87.5885	22	CH75-
87.9818	21	C2O4-
88.0732	22	CH12O4-
88.1088	22	C2H16O3-
90.0112	28	C6H2O-
90.0676	26	C4H10O2-
91.0179	18	C6H3O-
91.5254	25	C2H67-
92.0127	21	C2H4O4-
94.4764	18	H62O2-
96.0578	15	C6H8O-
96.4719	21	C3H60-
96.5627	19	C2H72-
97.2742	19	CH37O3-
97.6665	20	CH85-
98.1515	23	CH22O4-
98.3188	24	C2H42O2-
98.353	16	C3H46O-
98.3915	17	C4H50-
98.5052	17	H66O2-
99.0676	22	C2H11O4-
99.0827	20	C6H11O-
99.1988	19	C2H27O3-
99.5531	19	CH71O-
100.4648	22	C2H60O-
101.5081	31	C3H65-
101.9946	17	C3H2O4-
102.128	18	C3H18O3-
102.1613	15	C4H22O2-
102.5374	20	H70O2-
103.2859	19	H39O4-
103.4317	21	C4H55-
103.6758	18	H87O-
103.9881	15	C6O2-
104.4585	22	CH60O2-
105.0935	21	C5H13O2-
105.3148	22	C4H41O-
105.4324	21	H57O3-
106.3229	23	C4H42O-
106.4201	16	C3H54O-
107.0508	20	C7H7O-
107.1784	18	C7H23-
107.4647	26	C4H59-
108.246	20	C5H32O-
108.2696	19	C2H36O3-
108.6571	23	C2H84-
109.0293	20	C6H5O2-
109.4786	15	C4H61-
109.5335	19	C2H69O-
109.5905	24	H77O2-
109.6271	21	CH81O-
110.1096	18	C8H14-
110.3574	19	C4H46O-
110.3921	25	C5H50-
110.4876	18	C4H62-
111.2141	19	C7H27-
112.0305	23	C9H4-
112.1258	20	C8H16-
113.0044	20	C8HO-
113.2254	24	C7H29-
113.4739	19	C3H61O-
113.4964	19	H65O3-
114.1278	16	C4H18O3-
114.3283	18	C6H42-
114.3697	26	H50O4-
114.3895	25	C4H50O-
115.0547	19	C9H7-
115.1135	22	C7H15O-
115.1702	22	C5H23O2-
115.1906	24	C2H27O4-
115.6383	21	H83O2-
115.6758	25	CH87O-
115.9875	21	C7O2-
116.1571	22	C8H20-
116.2	19	C2H28O4-
116.2694	27	C4H36O2-
118.6428	24	C3H82-
119.0142	18	C7H3O2-
119.1298	15	C3H19O4-
119.4258	16	C4H55O-
119.4861	22	C2H63O2-
120.2321	20	C2H32O4-
120.5475	20	H72O3-
121.5354	22	C3H69O-
121.5541	19	H73O3-
121.6864	18	H89O2-
122.1876	19	C4H26O3-
122.4497	19	C4H58O-
123.3815	24	C2H51O3-
123.4925	20	C5H63-
124.0142	28	C6H4O3-
124.0339	27	C10H4-
124.6546	19	C2H84O-
124.6897	16	C3H88-
125.175	20	C3H25O4-
125.3075	16	C3H41O3-
126.0679	24	C7H10O2-
126.2917	22	C6H38O-
127.0033	24	C5H3O4-
128.0269	16	C9H4O-
128.1446	21	C5H20O3-
128.3326	20	C3H44O3-
128.3901	31	CH52O4-
128.4232	20	C2H56O3-
128.5926	20	C3H76O-
129.1126	24	C4H17O4-
129.2591	18	C8H33-
130.3247	18	C6H42O-
130.4032	19	CH54O4-
130.5137	20	C4H66O-
130.6057	19	C3H78O-
130.6249	23	H82O3-
131.2047	16	C6H27O2-
131.4856	23	C3H63O2-
132.0453	21	C5H8O4-
132.4577	19	C2H60O3-
132.5293	24	C4H68O-
132.6186	23	C3H80O-
132.6402	16	H84O3-
133.0631	20	C9H9O-
133.1417	18	C4H21O4-
134.3002	21	C8H38-
134.5659	19	CH74O3-
134.6405	19	C3H82O-
134.6555	36	H86O3-
135.0646	18	C5H11O4-
135.3028	24	C8H39-
136.0319	23	C11H4-
136.1647	25	C4H24O4-
136.2389	22	C6H32O2-
136.2979	21	C4H40O3-
136.4098	18	C7H52-
136.4496	18	CH60O4-
136.5813	22	CH76O3-
137.0393	21	C11H5-
137.1195	24	C6H17O3-
137.4121	25	C7H53-
138.3131	17	C4H42O3-
138.3317	16	C8H42-
138.4681	18	CH62O4-
139.005	21	C6H3O4-
139.1133	21	C9H15O-
139.4886	23	C5H63O-
139.5662	20	H75O4-
140.4232	23	C3H56O3-
140.481	31	CH64O4-
141.0945	24	C8H13O2-
141.1531	16	C6H21O3-
141.3525	19	C8H45-
141.374	18	C5H49O2-
141.4656	19	C4H61O2-
141.6571	25	C2H85O2-
141.6904	17	C3H89O-
142.0989	18	C8H14O2-
142.3114	24	C3H42O4-
142.383	18	C5H50O2-
142.4054	18	C2H54O4-
142.4987	18	CH66O4-
143.1073	19	C8H15O2-
143.1319	19	C5H19O4-
143.1832	20	C10H23-
143.2404	19	C8H31O-
143.5023	18	CH67O4-
143.9984	25	C12-
144.2322	23	C4H32O4-
144.4927	18	C4H64O2-
144.5254	23	C5H68O-
145.1217	18	C8H17O2-
145.3512	15	C7H45O-
145.6481	22	CH85O3-
146.057	24	C6H10O4-
146.0956	22	C7H14O3-
146.3532	16	C7H46O-
146.5461	18	C5H70O-
147.0809	21	C10H11O-
147.3035	19	C9H39-
147.3472	18	C3H47O4-
147.9926	22	C11O-
148.1134	22	C7H16O3-
148.2435	21	C7H32O2-
148.45	21	C2H60O4-
148.5469	37	CH72O4-
149.0428	20	C12H5-
149.273	23	C4H37O4-
149.3792	24	C7H49O-
149.4756	20	C6H61O-
149.5491	27	CH73O4-
150.0878	19	C6H14O4-
150.1447	30	C11H18-
150.163	23	C8H22O2-
150.236	18	C10H30-
150.3271	18	C9H42-
151.1352	18	C7H19O3-
151.3402	18	C9H43-
151.4758	16	C2H63O4-
151.5475	19	C4H71O2-
152.0862	25	C9H12O2-
152.3064	21	C8H40O-
152.4015	19	C7H52O-
152.5745	15	CH76O4-
152.6467	20	C3H84O2-
153.0173	18	C7H5O4-
153.0932	18	C9H13O2-
153.1146	23	C6H17O4-
153.2061	16	C5H29O4-
153.2221	22	C9H29O-
153.2573	24	C10H33-
153.3127	25	C8H41O-
153.3352	16	C5H45O3-
153.3517	25	C9H45-
153.3982	20	C3H53O4-
153.4879	16	C2H65O4-
153.6349	16	C6H81-
154.384	22	C6H50O2-
154.587	16	CH78O4-
154.6273	24	C2H82O3-
155.1428	20	C10H19O-
155.1654	15	C7H23O3-
155.6528	20	C6H83-
155.9862	21	C9O3-
156.0178	19	C10H4O2-
156.0927	23	C12H12-
156.1538	19	C10H20O-
156.5247	22	C6H68O-
157.0488	22	C7H9O4-
157.1612	24	C10H21O-
157.1928	25	C11H25-
157.2346	20	C5H33O4-
157.2518	19	C9H33O-
157.5348	16	C6H69O-
158.0032	20	C9H2O3-
158.5297	19	C2H70O4-
158.565	20	C3H74O3-
159.069	25	C7H11O4-
159.1379	18	C9H19O2-
159.2554	22	C5H35O4-
159.3287	22	C7H43O2-
159.3864	19	C5H51O3-
159.4456	21	C3H59O4-
159.6065	20	C4H79O2-
160.086	27	C11H12O-
160.1833	18	C10H24O-
160.3119	21	C10H40-
160.5412	18	C2H72O4-
160.6876	25	C6H88-
161.2253	15	C11H29-
161.3224	19	C10H41-
161.3798	25	C8H49O-
161.6991	21	C6H89-
162.4452	19	C6H58O2-
163.1364	19	C8H19O3-
163.1667	16	C9H23O2-
163.2982	18	C9H39O-
163.4538	20	C6H59O2-
163.5801	24	C6H75O-
164.0094	15	C8H4O4-
164.1243	18	C11H16O-
164.6823	16	C5H88O-
165.056	22	C9H9O3-
165.1826	22	C9H25O2-
165.489	16	C3H65O4-
166.0611	19	C9H10O3-
166.0776	22	C13H10-
166.1018	21	C10H14O2-
166.2647	19	C11H34-
166.4033	17	C4H54O4-
167.0838	19	C13H11-
167.2565	18	C7H35O3-
167.371	15	C10H47-
167.5578	21	C8H71-
168.0753	20	C9H12O3-
168.1737	21	C8H24O3-
168.2695	20	C7H36O3-
168.2995	21	C8H40O2-
168.5653	20	C8H72-
168.5861	23	C5H76O2-
169.1844	16	C8H25O3-
169.4457	20	C8H57O-
170.0172	16	C14H2-
170.1873	25	C8H26O3-
170.3595	27	C9H46O-
170.524	22	C3H70O4-
171.0266	24	C14H3-
171.0443	21	C11H7O2-
171.1005	20	C9H15O3-
171.1169	17	C13H15-
171.2091	19	C12H27-
171.4978	19	C9H63-
171.5547	19	C7H71O-
171.6674	19	C3H87O3-
172.0202	21	C10H4O3-
172.1453	19	C10H20O2-
172.2034	24	C8H28O3-
172.4857	27	C5H64O3-
172.5945	24	C8H76-
173.0008	25	C13HO-
173.0236	16	C10H5O3-
173.1739	28	C7H25O4-
173.2156	17	C8H29O3-
173.3064	22	C7H41O3-
173.4558	23	C4H61O4-
173.4923	19	C5H65O3-
173.6238	23	C5H81O2-
173.6488	19	C2H85O4-
174.0872	18	C8H14O4-
174.1263	16	C9H18O3-
174.4239	17	C10H54-
174.4643	16	C4H62O4-
175.0208	22	C13H3O-
175.2099	24	C11H27O-
175.266	22	C9H35O2-
175.2875	20	C6H39O4-
175.3768	31	C5H51O4-
175.5456	18	C6H71O2-
175.5995	23	C4H79O3-
175.6779	18	C6H87O-
176.1581	20	C13H20-
176.2331	23	C8H32O3-
176.3414	24	C11H44-
176.5149	23	C5H68O3-
176.6137	21	C4H80O3-
176.631	21	C8H80-
177.054	22	C10H9O3-
177.1088	23	C8H17O4-
177.2627	19	C12H33-
177.3368	18	C7H45O3-
177.3977	16	C5H53O4-
177.583	16	C3H77O4-
177.602	19	C7H77O-
178.0627	24	C10H10O3-
178.1213	16	C8H18O4-
178.2182	18	C7H30O4-
178.3068	16	C6H42O4-
178.4193	22	C9H54O-
178.5508	19	C9H70-
178.6677	17	C5H86O2-
179.141	21	C12H19O-
179.1978	24	C10H27O2-
179.3857	20	C8H51O2-
179.5062	31	C4H67O4-
179.9998	24	C15-
180.3254	23	C6H44O4-
180.3374	25	C10H44O-
180.3789	20	C11H48-
180.4568	19	C6H60O3-
180.4868	19	C7H64O2-
180.5303	18	C8H68O-
180.9922	29	C11HO3-
181.0689	20	C13H9O-
181.1251	28	C11H17O2-
181.6274	20	C7H81O-
181.6507	19	C4H85O3-
182.4699	24	C6H62O3-
182.531	20	C4H70O4-
182.6553	22	C4H86O3-
183.0216	28	C15H3-
183.254	17	C7H35O4-
183.293	16	C8H39O3-
183.3828	26	C7H51O3-
183.5467	20	C8H71O-
183.5753	26	C5H75O3-
183.6473	15	C7H83O-
183.9924	22	C14O-
184.0498	18	C12H8O2-
184.5759	20	C5H76O3-
184.6208	18	C6H80O2-
186.0087	22	C14H2O-
186.2031	21	C12H26O-
186.2361	19	C13H30-
186.2543	20	C10H34O2-
186.4046	21	C7H54O3-
186.4779	17	C9H62O-
186.5032	16	C6H66O3-
186.5565	21	C4H74O4-
186.6289	23	C6H82O2-
187.0359	23	C11H7O3-
187.1301	20	C10H19O3-
187.3817	17	C6H51O4-
188.0657	19	C15H8-
189.0524	21	C11H9O3-
189.1322	20	C13H17O-
189.2262	23	C12H29O-
189.2543	24	C13H33-
189.355	22	C12H45-
189.4346	23	C7H57O3-
189.4699	20	C8H61O2-
190.121	18	C9H18O4-
190.2863	19	C10H38O2-
190.5163	23	C9H66O-
191.0823	24	C15H11-
191.1274	25	C9H19O4-
191.1465	20	C13H19O-
191.1758	18	C14H23-
191.5063	18	C5H67O4-
191.537	19	C6H71O3-
191.5565	22	C10H71-
191.9845	18	C12O3-
192.2435	27	C12H32O-
192.3766	25	C12H48-
192.6208	20	C8H80O-
193.0503	22	C10H9O4-
193.2854	22	C13H37-
193.3309	24	C7H45O4-
193.4592	21	C7H61O3-
193.5016	18	C8H65O2-
193.5361	20	C9H69O-
193.685	23	C6H89O2-
194.1149	24	C15H14-
194.2509	24	C8H34O4-
194.2941	23	C13H38-
195.0469	18	C13H7O2-
195.1051	20	C11H15O3-
195.216	18	C14H27-
195.6288	19	C4H83O4-
196.1268	16	C15H16-
196.2022	24	C10H28O3-
196.3922	26	C8H52O3-
196.5431	24	C5H72O4-
196.6492	24	C8H84O-
197.3972	16	C8H53O3-
197.4344	24	C9H57O2-
197.5556	19	C5H73O4-
198.1854	27	C9H26O4-
198.2735	24	C8H38O4-
198.4763	20	C10H62O-
199.0555	20	C16H7-
199.0979	24	C10H15O4-
199.2451	18	C14H31-
199.2862	27	C8H39O4-
199.4162	19	C8H55O3-
199.5216	20	C11H67-
200.0243	16	C15H4O-
200.1062	28	C10H16O4-
200.1533	23	C15H20-
200.178	16	C12H24O2-
200.2384	20	C10H32O3-
200.2714	16	C11H36O2-
200.4185	26	C8H56O3-
200.558	21	C8H72O2-
200.6295	15	C10H80-
201.0605	18	C12H9O3-
201.0956	22	C13H13O2-
201.2042	20	C9H29O4-
201.2637	15	C14H33-
201.3037	22	C8H41O4-
201.3364	23	C9H45O3-
201.3703	18	C10H49O2-
201.5596	22	C8H73O2-
201.6568	19	C7H85O2-
202.104	22	C13H14O2-
202.3103	20	C8H42O4-
202.5357	19	C7H70O3-
203.1656	15	C11H23O3-
203.4625	25	C12H59-
204.0591	18	C15H8O-
204.1779	20	C11H24O3-
204.3713	22	C13H48-
204.4671	23	C12H60-
204.515	19	C6H68O4-
204.9948	15	C13HO3-
205.3363	22	C8H45O4-
205.4466	23	C11H57O-
206.1272	21	C13H18O2-
206.1633	21	C14H22O-
206.2005	24	C15H26-
206.3739	22	C9H50O3-
206.6398	20	C9H82O-
207.0815	19	C15H11O-
207.1195	21	C16H15-
208.4263	18	C10H56O2-
208.5757	22	C7H76O3-
209.192	18	C14H25O-
209.2874	21	C13H37O-
209.3164	19	C14H41-
209.3459	19	C11H45O2-
209.38	18	C12H49O-
209.4191	15	C13H53-
209.5258	16	C9H69O2-
210.043	21	C17H6-
210.1075	19	C15H14O-
210.1447	19	C16H18-
210.2325	17	C15H30-
210.2799	18	C9H38O4-
210.4078	19	C9H54O3-
210.5914	19	C7H78O3-
211.1344	17	C12H19O3-
211.1926	28	C10H27O4-
211.3592	16	C11H47O2-
211.4743	20	C7H63O4-
211.5068	18	C8H67O3-
212.1252	21	C15H16O-
212.3047	24	C13H40O-
212.3282	22	C10H44O3-
212.3867	21	C8H52O4-
212.4242	25	C9H56O3-
212.5761	26	C6H76O4-
212.6109	19	C7H80O3-
213.0715	20	C17H9-
213.336	28	C10H45O3-
213.3506	17	C14H45-
213.4858	31	C7H65O4-
214.0238	22	C12H6O4-
214.5858	22	C6H78O4-
215.2956	22	C12H39O2-
215.3721	20	C14H47-
215.4447	23	C9H59O3-
215.5159	18	C11H67O-
215.9988	24	C18-
216.1123	23	C14H16O2-
216.2053	19	C13H28O2-
216.2323	18	C10H32O4-
216.2618	17	C11H36O3-
216.552	19	C8H72O3-
216.5827	18	C9H76O2-
216.6101	21	C6H80O4-
217.1073	19	C17H13-
217.345	23	C13H45O-
217.3723	16	C10H49O3-
217.6317	22	C10H81O-
218.0954	22	C13H14O3-
218.1493	25	C11H22O4-
218.2487	21	C10H34O4-
218.3715	19	C10H50O3-
218.4678	22	C9H62O3-
218.5099	15	C10H66O2-
218.5639	26	C8H74O3-
218.6699	27	C11H86-
219.0431	23	C15H7O2-
219.1373	32	C14H19O2-
219.2118	22	C16H27-
219.5902	26	C12H75-
219.6085	27	C9H79O2-
219.6791	16	C11H87-
220.0491	18	C15H8O2-
220.3522	17	C9H48O4-
220.5835	22	C8H76O3-
220.6779	22	C7H88O3-
221.187	19	C15H25O-
221.2875	24	C14H37O-
221.3443	24	C12H45O2-
221.3815	24	C13H49O-
221.4737	75	C12H61O-
221.51	23	C13H65-
221.5672	19	C11H73O-
222.3474	21	C12H46O2-
222.627	22	C9H82O2-
223.0088	16	C13H3O4-
223.0431	19	C14H7O3-
223.0982	25	C12H15O4-
223.3602	20	C12H47O2-
223.5798	31	C11H75O-
223.6203	25	C12H79-
224.0461	23	C14H8O3-
224.1549	20	C17H20-
224.2169	21	C15H28O-
224.3347	22	C11H44O3-
224.4559	22	C11H60O2-
224.4779	19	C8H64O4-
224.5953	19	C11H76O-
225.131	19	C16H17O-
225.2779	19	C13H37O2-
225.3322	19	C11H45O3-
225.4988	21	C12H65O-
226.0735	18	C18H10-
226.1162	22	C12H18O4-
226.4172	18	C13H54O-
226.5882	23	C7H78O4-
227.0921	25	C18H11-
227.124	20	C12H19O4-
227.1608	19	C13H23O3-
227.2346	22	C15H31O-
227.4643	18	C14H59-
227.5771	23	C10H75O2-
227.6344	22	C8H83O3-
228.002	22	C19-
228.1124	16	C15H16O2-
229.0702	15	C17H9O-
229.3307	21	C10H45O4-
229.5567	22	C9H73O3-
229.6185	21	C7H81O4-
230.063	24	C13H10O4-
230.1926	24	C13H26O3-
230.2289	22	C14H30O2-
230.4696	23	C10H62O3-
230.5252	16	C8H70O4-
230.6263	19	C7H82O4-
231.0415	23	C16H7O2-
231.4247	20	C12H55O2-
231.4891	24	C14H63-
231.5521	15	C12H71O-
231.6102	19	C10H79O2-
232.0298	19	C19H4-
232.0578	20	C16H8O2-
232.1104	21	C14H16O3-
232.1461	24	C15H20O2-
232.2754	26	C15H36O-
232.6531	17	C11H84O-
233.0265	25	C15H5O3-
233.0873	28	C13H13O4-
233.396	18	C11H53O3-
233.4421	23	C12H57O2-
233.6437	19	C7H85O4-
233.6971	16	C12H89-
233.9991	19	C14H2O4-
234.0288	20	C15H6O3-
234.0497	16	C19H6-
234.4419	19	C12H58O2-
234.5363	21	C11H70O2-
235.0085	24	C14H3O4-
235.1154	24	C17H15O-
235.2281	23	C13H31O3-
235.2889	19	C11H39O4-
235.3384	20	C16H43-
235.681	23	C11H87O-
236.176	21	C15H24O2-
236.3051	19	C15H40O-
236.4054	18	C14H52O-
236.9947	26	C17HO2-
237.111	25	C13H17O4-
237.3758	21	C13H49O2-
237.507	18	C13H65O-
237.5775	16	C8H77O4-
237.6368	23	C13H81-
238.0615	24	C15H10O3-
238.0774	22	C19H10-
238.2845	17	C14H38O2-
238.3469	22	C12H46O3-
238.3827	19	C13H50O2-
238.5703	18	C11H74O2-
239.0303	19	C14H7O4-
239.1295	19	C13H19O4-
239.3183	20	C11H43O4-
239.5359	23	C10H71O3-
239.6001	18	C8H79O4-
240.0523	21	C18H8O-
240.2703	20	C13H36O3-
240.3626	18	C12H48O3-
240.4564	19	C11H60O3-
240.6826	18	C10H88O2-
242.2214	19	C15H30O2-
242.2465	19	C12H34O4-
242.4348	27	C10H58O4-
243.1763	19	C17H23O-
243.2594	15	C12H35O4-
243.4753	22	C11H63O3-
243.5304	16	C9H71O4-
243.5861	24	C14H75-
244.3361	22	C14H44O2-
245.0283	16	C16H5O3-
245.0847	20	C14H13O4-
245.139	18	C19H17-
245.17	25	C13H25O4-
245.6976	26	C13H89-
246.008	22	C19H2O-
246.2327	21	C18H30-
246.2965	23	C16H38O-
246.4801	21	C14H62O-
246.5061	15	C11H66O3-
246.6054	26	C14H78-
247.0824	20	C17H11O2-
247.2794	21	C12H39O4-
247.3796	27	C11H51O4-
247.4107	24	C12H55O3-
247.599	22	C10H79O3-
248.1034	429	C14H16O4-
248.2204	29	C17H28O-
248.254	46	C18H32-
248.48	23	C10H64O4-
248.678	22	C12H88O-
249.0186	21	C15H5O4-
249.1284	29	C18H17O-
249.1609	21	C19H21-
249.185	24	C16H25O2-
249.5232	20	C11H69O3-
250.0739	20	C20H10-
250.1684	23	C19H22-
250.4955	22	C10H66O4-
250.6008	23	C13H78O-
251.0326	19	C15H7O4-
251.0846	22	C20H11-
251.2185	16	C13H31O4-
251.4603	19	C16H59-
251.4818	18	C13H63O2-
252.0397	22	C15H8O4-
252.339	22	C16H44O-
252.3652	19	C13H48O3-
252.4276	27	C15H56O-
252.4687	22	C16H60-
252.5133	16	C10H68O4-
253.2578	27	C17H33O-
253.3457	20	C16H45O-
253.366	18	C13H49O3-
253.3988	25	C14H53O2-
253.5677	22	C15H73-
253.6314	17	C13H81O-
254.2514	18	C13H34O4-
254.282	17	C14H38O3-
254.3339	22	C12H46O4-
254.3829	20	C13H50O3-
254.491	18	C16H62-
254.5859	20	C15H74-
254.642	16	C13H82O-
255.0848	22	C19H11O-
255.1053	21	C16H15O3-
255.1356	25	C17H19O2-
255.2851	24	C14H39O3-
255.3655	21	C16H47O-
255.4436	15	C11H59O4-
255.4804	17	C12H63O3-
256.0677	18	C15H12O4-
256.2759	24	C17H36O-
256.3313	16	C15H44O2-
256.3981	16	C13H52O3-
256.5177	18	C13H68O2-
256.5915	22	C15H76-
256.6369	16	C9H84O4-
257.059	19	C18H9O2-
257.1222	15	C16H17O3-
257.1921	16	C18H25O-
257.2817	23	C17H37O-
257.6261	21	C12H81O2-
258.1258	19	C16H18O3-
258.1802	25	C14H26O4-
258.4175	18	C17H54-
259.0033	19	C16H3O4-
259.1151	20	C19H15O-
259.3035	16	C17H39O-
259.4499	23	C14H59O2-
259.515	24	C12H67O3-
260.1053	19	C15H16O4-
260.1579	25	C20H20-
260.2113	21	C18H28O-
260.3349	24	C14H44O3-
260.4541	17	C14H60O2-
260.5574	21	C13H72O2-
260.6099	18	C11H80O3-
261.1241	18	C19H17O-
261.2484	23	C15H33O3-
261.3423	24	C14H45O3-
261.37	20	C15H49O2-
261.5207	17	C12H69O3-
261.6604	19	C12H85O2-
261.6893	24	C13H89O-
262.0584	19	C17H10O3-
262.0945	19	C18H14O2-
262.2127	21	C14H30O4-
262.2502	49	C15H34O3-
262.342	18	C14H46O3-
262.4008	24	C12H54O4-
262.508	18	C15H66O-
262.6415	20	C15H82-
263.0776	20	C17H11O3-
263.1787	20	C20H23-
263.2946	23	C16H39O2-
263.3582	21	C14H47O3-
263.4464	21	C13H59O3-
263.4662	17	C17H59-
263.5107	25	C11H67O4-
264.0726	16	C17H12O3-
264.1523	16	C19H20O-
264.3821	25	C18H48-
264.4729	22	C17H60-
264.5585	18	C16H72-
264.9973	20	C18HO3-
265.124	19	C18H17O2-
265.1757	16	C16H25O3-
265.2167	16	C17H29O2-
265.2415	19	C14H33O4-
265.3289	21	C13H45O4-
265.4594	18	C13H61O3-
265.5689	31	C16H73-
266.0151	23	C22H2-
266.0439	21	C19H6O2-
266.0651	15	C16H10O4-
266.1577	19	C15H22O4-
266.1975	24	C20H26-
266.5462	22	C15H70O-
267.0421	18	C19H7O2-
267.0694	15	C16H11O4-
267.1211	23	C21H15-
267.1657	17	C15H23O4-
267.1977	20	C16H27O3-
267.251	18	C14H35O4-
267.3215	19	C16H43O2-
267.4421	22	C12H59O4-
267.6646	27	C11H87O3-
267.6841	19	C15H87-
268.2598	18	C14H36O4-
268.3388	16	C16H44O2-
268.4224	22	C15H56O2-
268.4797	16	C13H64O3-
268.5194	23	C14H68O2-
268.5598	19	C15H72O-
269.1766	18	C15H25O4-
269.2213	21	C20H29-
269.5668	22	C15H73O-
269.6616	18	C14H85O-
270.138	15	C21H18-
270.1852	15	C15H26O4-
270.2339	20	C20H30-
271.1734	23	C18H23O2-
271.2238	15	C16H31O3-
271.2944	19	C18H39O-
271.984	21	C20O2-
272.2307	24	C16H32O3-
272.2551	23	C20H32-
272.349	20	C19H44-
272.5581	18	C14H72O2-
273.1106	22	C16H17O4-
273.4011	20	C13H53O4-
273.4457	25	C18H57-
273.6775	23	C10H89O4-
274.0229	21	C17H6O4-
274.1257	21	C16H18O4-
274.3069	25	C14H42O4-
274.4696	23	C15H62O2-
275.0896	22	C22H11-
275.1319	16	C16H19O4-
275.1715	20	C17H23O3-
275.2019	18	C18H27O2-
275.3646	18	C19H47-
275.4125	23	C13H55O4-
275.5378	20	C13H71O3-
276.1409	19	C16H20O4-
276.3093	20	C17H40O2-
276.4717	21	C18H60-
276.6254	25	C15H80O-
277.0264	18	C20H5O2-
277.0932	24	C18H13O3-
277.1476	15	C16H21O4-
277.2338	29	C15H33O4-
277.2843	26	C20H37-
277.4287	22	C13H57O4-
277.4788	16	C18H61-
277.5599	20	C13H73O3-
278.0793	18	C21H10O-
278.1655	27	C20H22O-
278.3501	15	C18H46O-
278.3764	23	C15H50O3-
278.4827	21	C18H62-
278.5422	16	C16H70O-
278.6254	19	C11H82O4-
278.6583	21	C12H86O3-
279.0118	24	C19H3O3-
279.1078	19	C18H15O3-
279.1544	16	C16H23O4-
279.3535	26	C14H47O4-
279.4434	20	C13H59O4-
279.4887	22	C18H63-
280.0536	19	C20H8O2-
280.259	24	C15H36O4-
280.462	16	C17H60O-
280.5436	19	C12H72O4-
281.1024	24	C21H13O-
281.2063	19	C17H29O3-
281.2426	18	C18H33O2-
281.2745	19	C15H37O4-
281.3366	22	C17H45O2-
281.5108	18	C18H65-
281.5506	20	C12H73O4-
281.6786	20	C12H89O3-
282.0755	16	C20H10O2-
282.1903	20	C16H26O4-
282.2396	22	C21H30-
282.5745	18	C16H74O-
282.6347	29	C14H82O2-
282.6626	21	C15H86O-
283.0063	29	C18H3O4-
283.0491	18	C23H7-
283.1122	22	C21H15O-
283.3429	34	C20H43-
283.4897	19	C17H63O-
283.5661	15	C12H75O4-
283.6159	20	C17H79-
284.4286	18	C15H56O3-
284.4606	21	C16H60O2-
285.2093	20	C16H29O4-
285.3585	20	C20H45-
285.3993	18	C14H53O4-
286.0254	23	C18H6O4-
286.0646	16	C19H10O3-
286.2629	26	C21H34-
286.2813	19	C18H38O2-
286.3221	19	C19H42O-
286.3519	28	C16H46O3-
286.4327	18	C15H58O3-
286.5283	20	C14H70O3-
286.5736	21	C15H74O2-
287.1258	20	C17H19O4-
287.1766	16	C22H23-
287.2067	17	C19H27O2-
287.5244	26	C17H67O-
288.2669	20	C17H36O3-
288.3097	19	C18H40O2-
288.4946	19	C16H64O2-
288.5503	18	C14H72O3-
288.6737	20	C14H88O2-
289.0537	24	C18H9O4-
289.1082	21	C23H13-
289.1575	16	C21H21O-
289.316	26	C18H41O2-
289.3784	20	C20H49-
289.4044	19	C17H53O2-
289.4708	21	C19H61-
289.4971	18	C16H65O2-
289.5242	23	C13H69O4-
290.0696	25	C22H10O-
290.0959	19	C19H14O3-
290.5657	16	C14H74O3-
291.0676	18	C18H11O4-
291.1544	15	C17H23O4-
291.2129	22	C22H27-
291.2547	17	C16H35O4-
291.4359	19	C14H59O4-
291.5772	20	C14H75O3-
291.6704	25	C13H87O3-
292.0015	22	C23O-
292.0943	18	C22H12O-
292.2423	22	C19H32O2-
292.4323	18	C17H56O2-
292.479	20	C15H64O3-
292.9819	19	C19HO4-
293.0255	20	C20H5O3-
293.2178	19	C18H29O3-
293.3103	27	C17H41O3-
293.3568	18	C15H49O4-
293.4342	16	C17H57O2-
293.4894	30	C15H65O3-
293.5488	16	C13H73O4-
293.5884	27	C14H77O3-
293.6034	29	C18H77-
293.6558	18	C16H85O-
294.0544	20	C24H6-
294.0875	22	C18H14O4-
294.1276	20	C19H18O3-
294.3504	26	C18H46O2-
294.5003	18	C15H66O3-
295.142	19	C23H19-
295.3744	25	C15H51O4-
295.4496	22	C17H59O2-
295.4667	19	C14H63O4-
295.6381	16	C15H83O2-
295.6771	24	C16H87O-
296.3107	20	C20H40O-
296.3859	18	C15H52O4-
296.5114	19	C15H68O3-
296.604	19	C14H80O3-
297.0275	21	C23H5O-
297.2114	21	C17H29O4-
297.4245	20	C16H57O3-
297.4704	24	C17H61O2-
297.6403	19	C18H81-
297.6705	22	C12H89O4-
298.1916	20	C20H26O2-
298.4563	18	C20H58-
299.1721	23	C19H23O3-
299.2939	19	C19H39O2-
299.3637	23	C21H47-
299.4203	19	C19H55O-
299.5241	23	C18H67O-
300.2378	19	C17H32O4-
300.3604	22	C17H48O3-
300.5494	29	C15H72O3-
301.5003	19	C17H65O2-
301.542	25	C18H69O-
302.0124	21	C25H2-
302.0586	20	C19H10O4-
302.2254	20	C20H30O2-
302.541	19	C18H70O-
302.6176	19	C13H82O4-
303.0127	18	C21H3O3-
303.0481	28	C22H7O2-
303.1152	18	C24H15-
303.1824	24	C22H23O-
303.3062	18	C22H39-
303.3643	23	C20H47O-
303.6144	20	C16H79O2-
303.6781	20	C18H87-
304.2011	16	C19H28O3-
304.3936	17	C17H52O3-
304.4529	20	C15H60O4-
305.076	18	C19H13O4-
305.1485	24	C21H21O2-
305.1798	20	C18H25O4-
305.4299	18	C18H57O2-
305.5052	16	C20H65-
305.6934	18	C18H89-
306.1239	22	C20H18O3-
306.1636	23	C21H22O2-
306.1929	19	C22H26O-
306.2572	25	C20H34O2-
306.503	15	C16H66O3-
306.5685	25	C18H74O-
306.6613	20	C17H86O-
307.091	18	C19H15O4-
307.1162	22	C23H15O-
307.1894	28	C18H27O4-
307.2282	22	C19H31O3-
307.4916	23	C19H63O-
307.523	19	C20H67-
307.5643	19	C14H75O4-
308.2483	18	C23H32-
308.3851	22	C16H52O4-
308.4851	25	C15H64O4-
308.5948	22	C18H76O-
309.1904	28	C21H25O2-
309.4098	19	C20H53O-
309.5182	18	C16H69O3-
309.5936	27	C18H77O-
309.6499	24	C16H85O2-
309.6796	17	C13H89O4-
310.0567	19	C21H10O3-
310.4225	21	C20H54O-
310.5254	19	C16H70O3-
310.6026	18	C18H78O-
311.0485	18	C24H7O-
311.0833	15	C25H11-
311.1723	21	C20H23O3-
311.1964	22	C21H27O2-
311.3189	23	C17H43O4-
311.3513	23	C18H47O3-
311.4455	21	C17H59O3-
311.5616	21	C20H71-
311.6348	19	C15H83O3-
312.2746	16	C19H36O3-
312.3274	20	C17H44O4-
312.4716	21	C21H60-
312.5319	20	C19H68O-
313.191	23	C24H25-
313.3084	20	C20H41O2-
313.4626	20	C17H61O3-
313.4978	21	C18H65O2-
313.5938	27	C17H77O2-
313.6356	20	C18H81O-
313.686	23	C16H89O2-
314.0773	21	C24H10O-
314.19	23	C20H26O3-
314.2265	23	C21H30O2-
314.3211	23	C20H42O2-
314.5047	18	C18H66O2-
315.068	20	C20H11O4-
315.1042	18	C21H15O3-
315.2879	20	C19H39O3-
315.5836	19	C20H75-
315.644	22	C18H83O-
316.2703	22	C22H36O-
316.3737	18	C21H48O-
317.0044	24	C25HO-
317.0756	21	C20H13O4-
317.2146	23	C20H29O3-
317.4053	22	C18H53O3-
317.68	21	C15H89O3-
318.0407	24	C26H6-
318.2425	18	C24H30-
318.4364	19	C19H58O2-
318.6039	19	C20H78-
318.6758	20	C18H86O-
319.1402	22	C21H19O3-
319.1749	19	C22H23O2-
319.1963	15	C19H27O4-
319.3882	20	C21H51O-
320.1753	20	C22H24O2-
320.2081	23	C23H28O-
320.3305	19	C19H44O3-
320.4822	21	C16H64O4-
321.0391	23	C25H5O-
321.0981	21	C23H13O2-
321.1535	16	C21H21O3-
321.3982	18	C17H53O4-
321.4526	29	C22H57-
321.5439	24	C21H69-
321.6058	21	C19H77O-
322.0116	18	C24H2O2-
322.0812	20	C26H10-
322.2186	20	C19H30O4-
322.2832	18	C21H38O2-
322.3553	22	C23H46-
322.6587	22	C17H86O2-
323.0872	26	C26H11-
323.4681	22	C22H59-
323.5278	16	C20H67O-
323.6071	23	C19H79O-
324.1204	15	C23H16O2-
324.2721	16	C20H36O3-
324.304	21	C21H40O2-
324.5415	19	C17H72O3-
324.5874	19	C18H76O2-
324.9984	22	C23HO3-
325.1044	19	C26H13-
325.3902	18	C23H49-
325.428	29	C17H57O4-
325.4591	22	C18H61O3-
325.5632	21	C17H73O3-
325.608	22	C15H81O4-
325.6552	15	C16H85O3-
326.1823	19	C21H26O3-
326.3257	18	C21H42O2-
326.4522	15	C21H58O-
327.1989	16	C21H27O3-
327.2565	15	C19H35O4-
327.31	20	C24H39-
327.4153	24	C20H55O2-
327.5809	22	C21H75-
328.015	21	C23H4O3-
328.037	24	C27H4-
328.208	26	C21H28O3-
328.3552	22	C18H48O4-
328.4974	18	C22H64-
328.6905	23	C20H88-
329.064	24	C24H9O2-
329.2648	17	C19H37O4-
329.6177	23	C18H81O2-
329.6558	18	C19H85O-
330.0143	19	C26H2O-
330.1085	31	C25H14O-
330.2809	19	C19H38O4-
330.4205	23	C23H54-
330.4615	23	C17H62O4-
330.496	15	C18H66O3-
331.0468	24	C23H7O3-
331.1007	22	C21H15O4-
331.2083	22	C24H27O-
331.2615	19	C22H35O2-
331.2915	24	C19H39O4-
331.3428	18	C24H43-
331.423	18	C19H55O3-
331.6242	21	C21H79-
331.9832	22	C25O2-
332.0061	15	C22H4O4-
332.1611	22	C26H20-
332.2975	17	C19H40O4-
332.4832	23	C17H64O4-
332.6126	18	C17H80O3-
332.6908	19	C19H88O-
332.9999	19	C25HO2-
333.3341	15	C20H45O3-
333.369	17	C21H49O2-
333.3915	23	C18H53O4-
333.5378	20	C22H69-
333.5594	16	C19H73O2-
333.6038	23	C20H77O-
333.6572	18	C18H85O2-
333.6936	22	C19H89O-
334.2352	22	C24H30O-
334.2877	18	C22H38O2-
334.3537	25	C24H46-
334.5034	22	C17H66O4-
334.5365	19	C18H70O3-
334.6441	18	C21H82-
335.0383	20	C22H7O4-
335.0686	16	C23H11O3-
335.1576	19	C22H23O3-
335.2221	22	C20H31O4-
335.2673	19	C25H35-
335.3581	19	C20H47O3-
335.4539	24	C19H59O3-
335.5277	21	C21H67O-
335.9979	18	C28-
336.1101	24	C24H16O2-
336.2611	18	C21H36O3-
336.3593	21	C20H48O3-
336.4024	22	C21H52O2-
336.6265	22	C20H80O-
336.9999	19	C24HO3-
337.0654	28	C26H9O-
337.2408	19	C20H33O4-
337.2893	24	C25H37-
337.5584	16	C18H73O3-
337.6888	19	C18H89O2-
338.2857	17	C21H38O3-
338.4129	19	C21H54O2-
338.6378	26	C20H82O-
339.1417	18	C24H19O2-
339.1713	15	C25H23O-
339.2466	20	C20H35O4-
339.3045	16	C25H39-
339.4195	22	C21H55O2-
339.5142	23	C20H67O2-
339.5463	19	C21H71O-
339.5886	20	C22H75-
340.0763	19	C22H12O4-
340.1891	23	C25H24O-
340.2456	22	C23H32O2-
340.3751	23	C23H48O-
340.4228	23	C21H56O2-
340.4972	18	C23H64-
340.5245	19	C20H68O2-
340.6146	18	C19H80O2-
340.9868	26	C23HO4-
341.1683	22	C21H25O4-
341.4226	23	C24H53-
341.5514	19	C17H73O4-
342.0292	28	C24H6O3-
342.2581	22	C23H34O2-
342.288	22	C24H38O-
342.5067	15	C19H66O3-
342.5343	20	C20H70O2-
342.5958	18	C18H78O3-
343.0379	16	C24H7O3-
343.1116	15	C26H15O-
343.2081	15	C25H27O-
343.2652	22	C23H35O2-
343.3343	18	C25H43-
343.3994	18	C23H51O-
343.477	25	C18H63O4-
343.5767	16	C21H75O-
343.5993	18	C18H79O3-
344.1867	16	C24H24O2-
344.3857	20	C19H52O4-
344.467	19	C21H60O2-
344.5356	16	C23H68-
344.6486	29	C19H84O2-
345.0374	20	C27H5O-
345.2239	24	C25H29O-
345.5171	21	C19H69O3-
345.5479	21	C23H69-
346.0581	16	C24H10O3-
346.1323	21	C26H18O-
346.3634	19	C25H46-
346.3902	23	C22H50O2-
346.4171	16	C23H54O-
346.6239	19	C18H82O3-
347.0404	23	C23H7O4-
347.111	24	C25H15O2-
347.3932	25	C22H51O2-
347.479	24	C21H63O2-
347.5417	23	C19H71O3-
347.6745	21	C19H87O2-
348.0238	21	C26H4O2-
348.0632	18	C27H8O-
348.1811	22	C27H24-
348.2271	22	C21H32O4-
348.2786	19	C26H36-
348.4919	19	C21H64O2-
349.1583	19	C26H21O-
349.2192	19	C24H29O2-
349.2536	24	C25H33O-
349.4029	19	C22H53O2-
349.9995	21	C25H2O3-
350.0761	18	C27H10O-
350.1123	16	C28H14-
350.242	17	C21H34O4-
350.3543	19	C24H46O-
350.3976	21	C25H50-
350.4924	19	C24H62-
350.527	19	C18H70O4-
350.6535	23	C18H86O3-
351.0593	19	C23H11O4-
351.2252	16	C24H31O2-
351.4871	22	C24H63-
351.653	17	C21H83O-
352.0252	16	C29H4-
352.1593	22	C22H24O4-
352.1913	18	C26H24O-
352.2962	24	C22H40O3-
352.3368	19	C23H44O2-
352.4831	18	C20H64O3-
352.5851	21	C19H76O3-
352.6449	21	C17H84O4-
352.6921	19	C22H88-
353.0078	20	C28HO-
353.103	26	C27H13O-
353.1737	22	C22H25O4-
353.222	18	C27H29-
353.3126	30	C22H41O3-
353.3926	16	C21H53O3-
353.481	25	C23H61O-
353.5391	23	C21H69O2-
354.1343	24	C28H18-
354.3678	22	C20H50O4-
354.4093	16	C21H54O3-
354.4943	18	C20H66O3-
355.0568	23	C29H7-
355.0976	21	C23H15O4-
355.1311	15	C24H19O3-
355.3598	20	C23H47O2-
355.4098	24	C21H55O3-
355.5159	18	C20H67O3-
356.3267	17	C22H44O3-
356.4354	18	C25H56-
356.4817	20	C19H64O4-
356.5392	24	C24H68-
356.6155	19	C19H80O3-
357.2184	16	C26H29O-
357.2731	24	C24H37O2-
357.3414	21	C22H45O3-
357.4634	21	C22H61O2-
357.5767	18	C18H77O4-
357.6504	16	C20H85O2-
358.0248	18	C24H6O4-
358.1893	20	C25H26O2-
358.35	20	C22H46O3-
358.4218	23	C24H54O-
358.6147	16	C22H78O-
359.1218	21	C23H19O4-
359.3161	21	C21H43O4-
359.3725	22	C26H47-
359.4619	19	C25H59-
359.4956	18	C19H67O4-
359.6365	19	C19H83O3-
360.1322	17	C23H20O4-
360.2766	23	C27H36-
360.532	29	C23H68O-
360.615	23	C22H80O-
361.054	23	C24H9O4-
361.23	19	C22H33O4-
361.2623	20	C26H33O-
361.3969	20	C23H53O2-
361.565	17	C24H73-
361.6693	16	C23H85-
362.0741	18	C28H10O-
362.171	25	C27H22O-
362.197	19	C28H26-
362.2562	19	C26H34O-
362.3134	20	C24H42O2-
362.3385	18	C21H46O4-
362.6449	16	C22H82O-
363.0189	19	C30H3-
363.3313	19	C24H43O2-
363.4798	23	C21H63O3-
363.6459	19	C22H83O-
363.6845	16	C23H87-
364.0279	22	C30H4-
364.314	24	C27H40-
364.3386	18	C24H44O2-
364.4782	25	C21H64O3-
364.5247	24	C22H68O2-
365.0224	16	C26H5O3-
365.1167	22	C25H17O3-
365.1727	19	C23H25O4-
365.2808	28	C26H37O-
365.3259	22	C27H41-
365.4341	19	C23H57O2-
365.5515	24	C19H73O4-
365.6169	19	C21H81O2-
365.6512	18	C18H85O4-
366.0202	20	C29H2O-
366.2898	22	C26H38O-
366.3519	17	C24H46O2-
366.6534	16	C18H86O4-
367.0537	19	C30H7-
367.1998	20	C27H27O-
367.2334	20	C24H31O3-
367.3182	23	C23H43O3-
367.6456	16	C21H83O2-
368.0138	18	C25H4O4-
368.044	15	C26H8O3-
368.1328	20	C25H20O3-
368.2303	20	C24H32O3-
368.2918	19	C22H40O4-
368.3412	23	C27H44-
368.4213	25	C22H56O3-
368.5242	19	C21H68O3-
368.9981	15	C28HO2-
369.0513	28	C26H9O3-
369.2773	19	C25H37O2-
369.4534	21	C26H57-
369.699	19	C22H89O-
370.1858	27	C26H26O2-
370.257	19	C24H34O3-
370.3059	20	C22H42O4-
370.413	15	C25H54O-
370.4781	23	C23H62O2-
371.1027	19	C27H15O2-
371.1749	16	C29H23-
371.4024	23	C21H55O4-
371.4649	25	C26H59-
371.5174	20	C24H67O-
371.6742	20	C21H87O2-
372.0543	25	C29H8O-
372.4562	18	C22H60O3-
372.5364	18	C24H68O-
373.0561	18	C25H9O4-
373.1321	19	C27H17O2-
373.1785	25	C25H25O3-
373.212	19	C26H29O2-
373.3611	22	C23H49O3-
373.398	23	C24H53O2-
373.4571	21	C22H61O3-
373.5733	22	C25H73-
373.6631	23	C24H85-
374.0017	18	C27H2O3-
374.1395	18	C27H18O2-
374.2437	20	C23H34O4-
374.336	22	C22H46O4-
374.4573	27	C25H58O-
374.4749	18	C22H62O3-
374.5976	20	C22H78O2-
374.6641	26	C20H86O3-
375.0022	30	C27H3O3-
375.094	25	C26H15O3-
375.4279	18	C24H55O2-
375.5087	18	C23H67O2-
375.5403	27	C20H71O4-
375.5568	19	C24H71O-
375.6055	20	C22H79O2-
376.0843	17	C29H12O-
376.1861	18	C28H24O-
376.4926	18	C22H64O3-
376.614	19	C22H80O2-
376.6579	24	C23H84O-
377.0038	19	C30HO-
377.0744	18	C25H13O4-
377.1765	18	C24H25O4-
377.3848	18	C26H49O-
377.4308	15	C24H57O2-
377.4681	20	C25H61O-
377.6205	24	C22H81O2-
378.0599	20	C28H10O2-
378.1994	20	C28H26O-
378.2289	19	C29H30-
378.2753	25	C23H38O4-
378.3237	21	C28H42-
379.1172	22	C29H15O-
379.3034	15	C27H39O-
379.4103	18	C23H55O3-
380.4991	17	C25H64O-
380.5888	28	C24H76O-
381.5097	19	C25H65O-
381.5401	19	C26H69-
381.6329	20	C25H81-
381.6864	22	C23H89O-
382.0418	22	C30H6O-
382.1089	22	C28H14O2-
382.177	18	C30H22-
382.2443	23	C25H34O3-
382.2854	26	C26H38O2-
382.4098	15	C22H54O4-
382.4761	23	C24H62O2-
382.5182	19	C25H66O-
382.6247	20	C21H82O3-
382.6645	17	C22H86O2-
383.0743	16	C27H11O3-
383.1284	28	C25H19O4-
383.221	25	C24H31O4-
383.4863	18	C24H63O2-
383.5736	21	C23H75O2-
383.998	17	C32-
384.1066	20	C28H16O2-
384.2983	18	C26H40O2-
384.3492	15	C27H44O-
384.5298	24	C25H68O-
384.6553	17	C25H84-
385.0569	21	C26H9O4-
385.3324	22	C23H45O4-
385.5061	23	C24H65O2-
385.5841	19	C23H77O2-
385.681	18	C22H89O2-
386.071	22	C30H10O-
386.2018	18	C30H26-
386.2342	19	C27H30O2-
386.3028	22	C29H38-
386.4108	19	C25H54O2-
386.6791	29	C25H86-
387.1333	16	C28H19O2-
387.1936	22	C26H27O3-
387.3337	19	C26H43O2-
387.3666	16	C27H47O-
387.4388	19	C22H59O4-
387.573	20	C22H75O3-
387.6056	17	C23H79O2-
387.9812	23	C27O4-
388.0697	18	C26H12O4-
388.1318	22	C31H16-
388.2626	24	C24H36O4-
388.4274	18	C25H56O2-
389.09	23	C30H13O-
389.1309	21	C31H17-
389.2208	16	C30H29-
389.2712	22	C24H37O4-
389.4039	18	C24H53O3-
389.4664	19	C26H61O-
389.5256	19	C24H69O2-
389.6028	21	C26H77-
390.3542	25	C26H46O2-
390.4384	23	C25H58O2-
390.6409	23	C23H82O2-
391.0434	16	C28H7O3-
391.256	19	C27H35O2-
392.0181	24	C27H4O4-
392.2756	19	C27H36O2-
392.3258	24	C25H44O3-
392.3843	19	C23H52O4-
392.5155	23	C23H68O3-
392.5891	20	C25H76O-
393.2488	20	C26H33O3-
393.2953	18	C24H41O4-
393.3472	21	C29H45-
393.6118	20	C22H81O3-
394.0366	21	C31H6O-
394.3659	23	C29H46-
394.4216	16	C27H54O-
394.4536	21	C28H58-
395.0078	26	C30H3O2-
395.0431	17	C31H7O-
395.1467	19	C30H19O-
395.2141	23	C25H31O4-
395.5034	18	C22H67O4-
395.5494	24	C27H71-
396.1249	19	C29H16O2-
396.3767	18	C29H48-
396.4593	20	C24H60O3-
396.5535	23	C23H72O3-
396.5842	19	C24H76O2-
397.1666	19	C30H21O-
397.2588	21	C29H33O-
397.4106	18	C26H53O2-
397.4381	18	C27H57O-
397.6271	18	C25H81O-
397.6851	23	C23H89O2-
398.0551	19	C27H10O4-
398.0915	24	C28H14O3-
398.1538	18	C26H22O4-
398.2037	19	C31H26-
398.3668	22	C25H50O3-
398.4194	22	C26H54O2-
398.4884	18	C28H62-
398.5711	19	C23H74O3-
399.1001	19	C28H15O3-
399.2294	21	C28H31O2-
399.3224	19	C27H43O2-
399.3891	19	C25H51O3-
399.4417	21	C23H59O4-
399.4806	18	C24H63O3-
399.5943	17	C27H75-
400.0168	20	C29H4O3-
400.2064	20	C27H28O3-
400.2591	21	C25H36O4-
400.3868	16	C25H52O3-
400.616	22	C24H80O2-
400.6841	22	C26H88-
401.042	20	C33H5-
401.0823	21	C27H13O4-
401.2061	22	C27H29O3-
401.2816	19	C29H37O-
401.4819	19	C27H61O-
401.5666	23	C26H73O-
401.639	23	C21H85O4-
402.033	18	C29H6O3-
402.0646	16	C30H10O2-
402.1133	17	C31H14O-
402.2612	24	C28H34O2-
402.4985	24	C24H66O3-
402.638	20	C24H82O2-
403.0735	22	C30H11O2-
403.1604	55	C29H23O2-
403.2994	22	C29H39O-
403.4246	23	C29H55-
403.4646	18	C23H63O4-
403.4962	16	C27H63O-
403.5316	15	C28H67-
403.5712	21	C22H75O4-
403.6439	20	C24H83O2-
403.6649	23	C21H87O4-
404.0653	16	C33H8-
404.1224	25	C31H16O-
404.1857	24	C29H24O2-
404.2476	16	C31H32-
404.3662	19	C27H48O2-
404.5493	20	C25H72O2-
404.6444	20	C24H84O2-
405.1998	20	C26H29O4-
405.3569	21	C30H45-
405.4128	18	C28H53O-
405.4845	23	C23H65O4-
405.6121	19	C23H81O3-
405.7013	24	C25H89O-
406.0388	25	C32H6O-
406.2227	16	C30H30O-
406.2851	22	C28H38O2-
406.3199	19	C29H42O-
406.5128	18	C27H66O-
406.5666	19	C25H74O2-
406.607	19	C26H78O-
407.0557	37	C32H7O-
407.217	19	C26H31O4-
407.2943	20	C28H39O2-
407.3343	19	C29H43O-
407.4647	19	C29H59-
407.5221	16	C27H67O-
407.5988	20	C22H79O4-
408.018	21	C31H4O2-
408.0956	20	C33H12-
408.475	18	C29H60-
408.9937	18	C30HO3-
409.1839	165	C28H25O3-
409.2269	33	C29H29O2-
409.3588	18	C26H49O3-
409.6076	21	C22H81O4-
409.9976	19	C30H2O3-
410.1177	28	C33H14-
410.1493	25	C27H22O4-
410.1894	24	C28H26O3-
410.2724	21	C27H38O3-
410.3166	25	C28H42O2-
411.2541	20	C26H35O4-
411.3441	30	C25H47O4-
411.4217	15	C27H55O2-
411.5134	18	C26H67O2-
411.5829	16	C28H75-
411.6604	21	C23H87O3-
411.9995	19	C33O-
412.3624	22	C25H48O4-
412.486	24	C25H64O3-
413.0393	16	C34H5-
413.1384	25	C33H17-
413.2761	20	C26H37O4-
413.4827	18	C28H61O-
414.02	18	C33H2O-
414.1897	18	C27H26O4-
414.2618	20	C29H34O2-
414.2822	24	C26H38O4-
414.3436	22	C28H46O2-
414.6064	26	C28H78-
415.0224	26	C33H3O-
415.1093	18	C32H15O-
415.1636	18	C30H23O2-
415.2218	25	C28H31O3-
415.2875	20	C26H39O4-
415.3308	20	C31H43-
415.4513	25	C27H59O2-
415.5203	28	C29H67-
415.5455	22	C26H71O2-
415.5864	20	C27H75O-
415.6252	23	C28H79-
415.6609	19	C22H87O4-
415.9822	21	C32O2-
416.2004	23	C27H28O4-
416.2517	26	C32H32-
416.6339	23	C28H80-
417.1657	18	C33H21-
417.2542	23	C32H33-
417.48	15	C24H65O4-
417.5862	19	C23H77O4-
418.0953	30	C31H14O2-
418.1734	20	C33H22-
418.2406	18	C31H30O-
418.3186	25	C30H42O-
418.5206	23	C28H66O-
419.0925	18	C34H11-
419.1557	19	C29H23O3-
419.4539	21	C26H59O3-
419.5668	17	C26H75O2-
419.6672	28	C25H87O2-
420.0133	20	C32H4O2-
420.0615	18	C33H8O-
420.1305	23	C28H20O4-
420.1803	19	C29H24O3-
420.2883	24	C32H36-
420.3454	21	C30H44O-
420.5415	21	C25H72O3-
420.6172	19	C27H80O-
421.1995	21	C33H25-
421.2238	29	C30H29O2-
421.2681	16	C28H37O3-
421.3854	18	C31H49-
421.4562	21	C26H61O3-
422.0605	24	C29H10O4-
422.0865	19	C30H14O3-
422.1225	18	C31H18O2-
422.1676	24	C32H22O-
422.4286	25	C25H58O4-
422.637	19	C27H82O-
423.0352	28	C32H7O2-
423.0769	19	C33H11O-
423.2058	15	C33H27-
423.5047	19	C27H67O2-
423.6129	23	C26H79O2-
424.104	19	C30H16O3-
424.1573	16	C31H20O2-
424.2641	25	C27H36O4-
424.3524	25	C26H48O4-
424.4752	19	C29H60O-
424.5439	21	C24H72O4-
424.6204	25	C26H80O2-
424.6494	19	C27H84O-
425.0778	22	C29H13O4-
425.1071	21	C33H13O-
425.1766	24	C28H25O4-
425.2107	27	C29H29O3-
425.3419	18	C29H45O2-
425.42	22	C31H53-
425.4631	22	C25H61O4-
425.6891	21	C24H89O3-
425.9913	19	C30H2O4-
426.0347	19	C31H6O3-
426.2181	21	C29H30O3-
426.2968	24	C31H38O-
426.3474	20	C29H46O2-
426.4069	26	C27H54O3-
426.4448	30	C28H58O2-
426.5015	20	C26H66O3-
426.659	27	C23H86O4-
427.0342	20	C31H7O3-
427.1222	21	C33H15O-
427.2095	16	C32H27O-
427.2905	20	C27H39O4-
427.4635	15	C25H63O4-
427.4986	21	C29H63O-
427.5523	29	C27H71O2-
428.1834	19	C31H24O2-
428.4041	22	C30H52O-
428.4899	18	C29H64O-
429.0267	22	C30H5O4-
429.1898	23	C31H25O2-
429.4949	19	C25H65O4-
429.6389	18	C29H81-
430.1525	18	C30H22O3-
430.2855	22	C30H38O2-
430.4661	18	C28H62O2-
430.4997	23	C25H66O4-
430.5253	22	C26H70O3-
430.6407	18	C29H82-
431.0443	23	C34H7O-
431.1203	18	C29H19O4-
431.2046	18	C31H27O2-
431.2813	17	C33H35-
431.3282	16	C31H43O-
431.4654	16	C31H59-
431.5993	18	C24H79O4-
431.6293	18	C25H83O3-
431.9835	16	C32O3-
432.3752	18	C32H48-
432.4346	22	C30H56O-
433.2005	20	C34H25-
433.2508	18	C32H33O-
433.2863	21	C33H37-
433.3503	24	C31H45O-
434.0061	23	C32H2O3-
434.1077	23	C35H14-
434.2277	22	C31H30O2-
435.0297	18	C36H3-
435.0834	25	C34H11O-
435.1296	19	C32H19O2-
435.2684	21	C32H35O-
436.0557	19	C33H8O2-
436.189	25	C33H24O-
436.2266	18	C34H28-
436.32	23	C33H40-
436.4578	27	C30H60O-
436.6844	15	C29H88-
437.1589	20	C32H21O2-
437.2233	24	C34H29-
437.2763	22	C28H37O4-
437.3634	18	C27H49O4-
437.464	22	C26H61O4-
437.5058	19	C31H65-
437.5663	23	C29H73O-
437.6707	22	C28H85O-
438.0034	22	C31H2O4-
438.0543	20	C36H6-
438.5002	23	C27H66O3-
438.6255	22	C27H82O2-
438.9935	18	C31H3O4-
439.0673	23	C33H11O2-
439.1071	19	C34H15O-
439.1554	20	C35H19-
439.1817	19	C29H27O4-
439.2398	18	C34H31-
439.3912	22	C31H51O-
439.4252	23	C32H55-
439.5244	18	C31H67-
439.5698	19	C25H75O4-
440.0442	17	C32H8O3-
440.1227	21	C34H16O-
440.1885	20	C32H24O2-
440.2122	24	C33H28O-
440.6851	19	C28H88O-
441.0944	19	C33H13O2-
441.1331	15	C34H17O-
441.2791	15	C31H37O2-
441.3417	23	C29H45O3-
441.4809	20	C26H65O4-
441.5651	21	C28H73O2-
441.6515	24	C27H85O2-
441.7003	22	C28H89O-
442.0164	20	C34H2O2-
442.0922	20	C33H14O2-
442.1787	23	C35H22-
442.4544	22	C32H58-
442.5315	18	C27H70O3-
442.6544	16	C27H86O2-
443.0525	23	C35H7O-
443.2213	15	C29H31O4-
443.4394	19	C28H59O3-
443.462	19	C32H59-
443.5051	17	C26H67O4-
443.6697	15	C27H87O2-
444.0031	19	C37-
444.0444	28	C31H8O4-
444.1144	22	C33H16O2-
445.0094	21	C37H-
445.0656	18	C35H9O-
445.1197	17	C33H17O2-
445.3743	20	C29H49O3-
445.4054	21	C30H53O2-
445.4551	21	C28H61O3-
445.4961	21	C29H65O2-
446.0771	18	C35H10O-
446.1294	19	C33H18O2-
446.4061	16	C30H54O2-
446.4338	15	C27H58O4-
446.6311	22	C29H82O-
447.2116	16	C35H27-
447.5322	19	C26H71O4-
447.6107	18	C28H79O2-
447.6564	22	C26H87O3-
448.2971	21	C30H40O3-
448.4701	23	C31H60O-
448.5786	19	C27H76O3-
448.9775	17	C32HO4-
449.0561	19	C34H9O2-
449.1076	24	C35H13O-
449.1412	21	C36H17-
449.1711	19	C30H25O4-
449.2487	18	C32H33O2-
449.395	16	C29H53O3-
449.4731	18	C31H61O-
450.1198	19	C32H18O3-
450.1753	22	C30H26O4-
450.4274	25	C33H54-
450.486	23	C31H62O-
450.5404	18	C29H70O2-
450.6127	21	C31H78-
451.1498	19	C36H19-
451.2578	19	C32H35O2-
451.6564	22	C25H87O4-
451.6859	20	C29H87O-
452.042	18	C33H8O3-
452.27	22	C32H36O2-
452.408	24	C32H52O-
452.4601	27	C30H60O2-
452.5249	19	C28H68O3-
452.6111	20	C27H80O3-
452.6636	23	C25H88O4-
453.072	24	C37H9-
453.166	18	C36H21-
453.4013	20	C28H53O4-
453.4901	19	C27H65O4-
453.5561	20	C29H73O2-
453.6496	17	C28H85O2-
454.0367	15	C36H6O-
454.1654	19	C36H22-
454.2512	17	C31H34O3-
454.34	18	C30H46O3-
454.4109	20	C32H54O-
454.5559	17	C32H70-
455.0401	18	C32H7O4-
455.1743	18	C36H23-
455.2797	18	C35H35-
455.3137	19	C29H43O4-
455.4996	19	C27H67O4-
456.0148	19	C35H4O2-
456.2568	22	C31H36O3-
456.436	21	C32H56O-
457.146	20	C31H21O4-
457.2611	20	C34H33O-
457.325	21	C29H45O4-
457.4046	17	C31H53O2-
457.5277	25	C27H69O4-
457.6136	19	C26H81O4-
457.6966	24	C28H89O2-
458.107	22	C37H14-
458.1648	22	C35H22O-
458.2348	16	C33H30O2-
458.3375	19	C29H46O4-
458.4661	23	C29H62O3-
458.5917	19	C29H78O2-
459.1797	19	C35H23O-
459.2329	25	C33H31O2-
459.4036	23	C34H51-
459.5209	20	C30H67O2-
459.5696	18	C28H75O3-
459.6154	21	C29H79O2-
460.0537	19	C35H8O2-
460.1425	22	C34H20O2-
460.2152	20	C36H28-
460.2506	16	C33H32O2-
460.2917	25	C31H40O3-
460.6056	18	C29H80O2-
460.6432	24	C26H84O4-
461.2037	15	C32H29O3-
461.5095	18	C33H65-
461.6706	18	C30H85O-
462.17	18	C34H22O2-
462.3287	19	C35H42-
462.5312	18	C30H70O2-
462.5631	16	C27H74O4-
462.6388	18	C29H82O2-
463.0021	23	C33H3O4-
463.0345	19	C34H7O3-
463.461	21	C31H59O2-
463.543	21	C30H71O2-
463.6092	16	C28H79O3-
463.6755	28	C30H87O-
464.1807	19	C34H24O2-
464.3081	16	C34H40O-
464.3404	18	C35H44-
464.4324	19	C34H56-
464.4989	26	C32H64O-
464.6332	23	C32H80-
465.0655	21	C38H9-
465.1185	21	C32H17O4-
465.2202	24	C35H29O-
465.2855	22	C33H37O2-
465.4476	22	C34H57-
465.5105	18	C32H65O-
465.6868	18	C30H89O-
466.0079	18	C36H2O2-
466.1479	20	C33H22O3-
466.2632	25	C36H34-
466.3514	23	C31H46O3-
466.5866	22	C27H78O4-
467.0508	22	C37H7O-
467.111	17	C35H15O2-
467.389	17	C32H51O2-
467.5389	23	C29H71O3-
468.0237	22	C36H4O2-
468.1841	16	C37H24-
468.2535	18	C35H32O-
468.2877	19	C36H36-
468.3684	17	C31H48O3-
468.404	19	C32H52O2-
468.5858	23	C30H76O2-
468.6832	21	C29H88O2-
469.0326	20	C36H5O2-
469.0794	28	C34H13O3-
469.2543	18	C35H33O-
469.3429	17	C34H45O-
469.41	19	C32H53O2-
469.4966	20	C31H65O2-
469.5861	24	C30H77O2-
470.3147	17	C33H42O2-
470.3442	19	C30H46O4-
470.4143	22	C32H54O2-
470.4782	18	C34H62-
471.1034	22	C34H15O3-
471.1366	20	C35H19O2-
471.1731	21	C36H23O-
471.3515	20	C30H47O4-
471.5046	19	C31H67O2-
471.5626	19	C29H75O3-
471.617	20	C30H79O2-
472.0207	24	C35H4O3-
472.1909	18	C36H24O-
472.2674	23	C31H36O4-
472.4336	22	C32H56O2-
472.5352	15	C28H72O4-
472.5651	17	C32H72O-
472.6295	24	C27H84O4-
472.9942	16	C34HO4-
473.04	27	C39H5-
473.2966	18	C32H41O3-
473.3666	15	C30H49O4-
473.5058	23	C34H65-
473.6896	17	C32H89-
474.017	19	C38H2O-
474.0681	17	C36H10O2-
474.4358	20	C32H58O2-
474.5109	18	C34H66-
474.5456	19	C31H70O2-
474.5927	22	C29H78O3-
475.4812	22	C33H63O-
475.6702	18	C31H87O-
476.028	17	C38H4O-
476.12	22	C37H16O-
476.2285	18	C33H32O3-
476.2666	16	C34H36O2-
476.3329	21	C32H44O3-
476.4595	15	C32H60O2-
476.5886	22	C32H76O-
476.6673	23	C27H88O4-
477.0104	24	C34H5O4-
477.2395	20	C33H33O3-
477.3109	21	C35H41O-
477.349	20	C36H45-
477.4774	27	C32H61O2-
477.5265	25	C30H69O3-
477.6478	23	C30H85O2-
478.535	22	C30H70O3-
479.0394	16	C34H7O4-
479.0927	20	C39H11-
479.1733	23	C38H23-
479.4383	19	C31H59O3-
479.5453	21	C30H71O3-
479.6325	18	C29H83O3-
479.9812	16	C36O3-
480.0177	22	C37H4O2-
480.1736	15	C34H24O3-
480.3009	32	C34H40O2-
480.568	19	C34H72-
481.2421	21	C32H33O4-
481.2806	18	C33H37O3-
481.3485	29	C35H45O-
481.476	24	C35H61-
481.6334	23	C32H81O-
482.0238	25	C40H2-
482.0571	20	C34H10O4-
482.211	19	C38H26-
482.5302	20	C29H70O4-
482.5968	25	C31H78O2-
484.0422	20	C37H8O2-
484.1232	19	C39H16-
484.1921	23	C37H24O-
484.2542	22	C32H36O4-
484.484	16	C31H64O3-
484.5995	25	C34H76-
485.0662	19	C37H9O2-
485.2275	20	C38H29-
485.366	16	C31H49O4-
485.4014	22	C32H53O3-
485.541	22	C29H73O4-
485.5869	24	C30H77O3-
486.0188	20	C39H2O-
486.0598	19	C37H10O2-
486.3691	17	C31H50O4-
486.5674	24	C33H74O-
487.1277	18	C35H19O3-
487.3167	18	C33H43O3-
487.6426	18	C31H83O2-
487.6844	26	C32H87O-
487.9793	19	C38O2-
488.0527	19	C36H8O3-
488.1867	19	C36H24O2-
488.2339	25	C34H32O3-
488.3953	15	C35H52O-
489.0002	19	C38HO2-
489.0509	19	C36H9O3-
489.1564	18	C35H21O3-
489.1916	20	C36H25O2-
489.3399	22	C33H45O3-
489.4092	19	C35H53O-
489.4655	24	C33H61O2-
489.5593	33	C32H73O2-
490.1735	19	C39H22-
490.2799	20	C35H38O2-
490.3369	17	C33H46O3-
490.3867	25	C34H50O2-
490.4244	20	C35H54O-
490.5347	27	C31H70O3-
491.0043	16	C38H3O2-
491.0509	23	C39H7O-
491.1037	20	C37H15O2-
491.2042	23	C36H27O2-
491.2609	19	C34H35O3-
491.3688	19	C37H47-
491.4665	16	C36H59-
491.5975	16	C29H79O4-
491.9794	18	C37O3-
492.144	23	C34H20O4-
492.1794	18	C35H24O3-
492.2326	20	C33H32O4-
492.5878	23	C32H76O2-
492.6713	20	C31H88O2-
493.0247	19	C38H5O2-
493.0593	23	C39H9O-
493.1298	18	C37H17O2-
493.2972	19	C38H37-
493.5005	18	C33H65O2-
493.5619	25	C31H73O3-
494.19	16	C35H26O3-
494.3426	16	C32H46O4-
494.3761	19	C33H50O3-
494.4444	16	C35H58O-
494.6448	22	C33H82O-
495.106	15	C36H15O3-
495.2502	20	C33H35O4-
495.4886	18	C36H63-
495.6498	19	C33H83O-
495.6845	19	C34H87-
496.0832	24	C39H12O-
496.18	19	C38H24O-
496.318	23	C38H40-
496.4826	28	C32H64O3-
496.5545	19	C34H72O-
496.6746	18	C30H88O3-
497.0361	21	C41H5-
497.0801	20	C35H13O4-
497.2411	19	C36H33O2-
497.3777	22	C36H49O-
497.4266	18	C34H57O2-
497.5099	22	C36H65-
497.6047	17	C35H77-
498.0117	19	C40H2O-
498.1639	19	C37H22O2-
498.4066	23	C33H54O3-
498.4651	19	C31H62O4-
498.521	22	C36H66-
498.56	19	C30H74O4-
498.6413	20	C32H82O2-
499.0996	24	C35H15O4-
499.2595	26	C36H35O2-
499.3488	23	C35H47O2-
499.482	18	C35H63O-
499.6286	16	C32H83O2-
500.0114	19	C36H4O4-
500.0966	20	C35H16O4-
500.218	21	C38H28O-
500.3073	27	C37H40O-
500.3396	19	C38H44-
500.3977	19	C36H52O-
500.513	26	C32H68O3-
500.5564	25	C33H72O2-
500.6259	18	C35H80-
501.02	25	C36H5O4-
501.2808	21	C36H37O2-
501.5919	26	C34H77O-
501.6373	19	C35H81-
502.2166	19	C34H30O4-
502.2467	19	C35H34O3-
502.3067	25	C33H42O4-
502.3568	19	C38H46-
502.4829	21	C34H62O2-
502.6278	33	C31H82O3-
503.0728	21	C37H11O3-
503.3862	23	C35H51O2-
503.9799	19	C38O3-
504.0259	20	C39H4O2-
504.1182	21	C38H16O2-
504.3014	23	C36H40O2-
504.4736	19	C37H60-
504.5592	19	C36H72-
504.5854	17	C33H76O2-
504.6338	18	C31H84O3-
504.6903	19	C32H88O2-
505.0943	23	C37H13O3-
505.1458	20	C35H21O4-
505.1828	20	C36H25O3-
505.4013	18	C35H53O2-
505.4879	18	C34H65O2-
505.6212	21	C30H81O4-
506.0088	17	C42H2-
506.1102	24	C41H14-
506.2414	28	C34H34O4-
506.289	22	C35H38O3-
506.5035	16	C34H66O2-
506.5479	18	C35H70O-
506.6016	19	C33H78O2-
507.0129	23	C38H3O3-
507.2855	21	C35H39O3-
507.3922	16	C38H51-
507.5081	15	C34H67O2-
507.5985	17	C33H79O2-
507.6587	25	C31H87O3-
508.2114	19	C36H28O3-
509.0098	19	C41HO-
509.2667	15	C34H37O4-
509.4552	20	C32H61O4-
509.5234	27	C34H69O2-
509.566	20	C35H73O-
509.6904	15	C35H89-
510.0365	26	C38H6O3-
510.0876	21	C36H14O4-
510.2278	20	C40H30-
510.4042	17	C34H54O3-
510.5282	18	C34H70O2-
510.5545	21	C31H74O4-
511.1799	21	C38H23O2-
511.2088	19	C39H27O-
511.4963	19	C36H63O-
511.5831	15	C35H75O-
512.0861	19	C39H12O2-
512.1618	18	C41H20-
512.2176	18	C39H28O-
512.2522	22	C40H32-
512.3424	19	C39H44-
512.3754	24	C36H48O2-
512.4908	18	C36H64O-
512.6601	18	C30H88O4-
513.4491	18	C38H57-
513.6577	23	C33H85O2-
514.0113	19	C40H2O2-
514.0713	22	C42H10-
514.4857	16	C35H62O2-
514.5392	19	C33H70O3-
514.6458	22	C36H82-
515.0027	19	C40H3O2-
515.2231	16	C35H31O4-
515.2552	19	C36H35O3-
515.3103	19	C34H43O4-
515.4677	16	C38H59-
515.6375	23	C32H83O3-
515.9975	18	C43-
516.0359	18	C37H8O4-
516.2107	18	C38H28O2-
516.261	18	C36H36O3-
516.3051	21	C37H40O2-
516.5095	18	C32H68O4-
516.6623	24	C36H84-
516.9952	23	C39HO3-
517.2308	18	C35H33O4-
517.4671	18	C34H61O3-
517.6159	22	C31H81O4-
518.0378	18	C40H6O2-
518.5832	19	C37H74-
518.664	18	C32H86O3-
519.0549	18	C40H7O2-
519.2725	18	C39H35O-
519.4466	18	C33H59O4-
519.6593	24	C32H87O3-
520.0163	19	C39H4O3-
520.2094	22	C37H28O3-
520.3212	26	C40H40-
520.3992	18	C35H52O3-
520.5038	18	C38H64-
520.5407	29	C32H72O4-
520.5866	18	C33H76O3-
521.0239	18	C39H5O3-
521.0655	25	C40H9O2-
521.2874	23	C39H37O-
521.3209	21	C40H41-
521.4563	15	C33H61O4-
521.6129	33	C34H81O2-
521.7042	18	C36H89-
522.2304	18	C41H30-
522.3267	20	C40H42-
522.5021	19	C34H66O3-
522.6373	17	C34H82O2-
523.0601	21	C43H7-
523.1778	18	C39H23O2-
523.4788	22	C33H63O4-
524.2475	18	C41H32-
524.5057	20	C37H64O-
524.5461	22	C35H72O2-
525.2209	25	C40H29O-
525.2944	17	C35H41O4-
525.3587	31	C40H45-
525.433	25	C35H57O3-
525.5812	18	C32H77O4-
526.1155	24	C37H18O4-
526.2805	22	C38H38O2-
526.352	23	C36H46O3-
526.3904	20	C37H50O2-
526.6493	23	C37H82-
527.0781	17	C39H11O3-
527.1937	18	C39H27O2-
527.4002	29	C34H55O4-
527.4952	27	C33H67O4-
527.5418	22	C34H71O3-
527.9728	19	C40O3-
528.0671	16	C42H8O-
528.3168	18	C35H44O4-
528.3516	16	C36H48O3-
528.4237	20	C34H56O4-
528.4757	17	C39H60-
528.564	15	C38H72-
528.6053	19	C32H80O4-
528.9819	24	C40HO3-
529.0227	21	C41H5O2-
529.0669	18	C42H9O-
529.257	20	C40H33O-
529.3877	24	C40H49-
529.4338	19	C34H57O4-
529.5889	22	C35H77O2-
529.6686	19	C37H85-
529.9902	20	C40H2O3-
530.1606	16	C41H22O-
530.1893	19	C38H26O3-
530.3886	24	C40H50-
530.4728	24	C35H62O3-
530.5619	19	C34H74O3-
531.0238	18	C44H3-
531.0597	19	C38H11O4-
531.2995	22	C41H39-
531.4028	21	C40H51-
531.5242	22	C36H67O2-
531.6753	22	C37H87-
531.9706	19	C39O4-
532.3349	23	C38H44O2-
532.4477	20	C34H60O4-
532.5626	18	C37H72O-
532.6417	24	C32H84O4-
532.6759	24	C33H88O3-
533.0321	24	C44H5-
533.3382	23	C38H45O2-
533.3854	22	C39H49O-
533.4795	21	C38H61O-
533.5389	25	C36H69O2-
533.6212	16	C35H81O2-
533.6543	20	C36H85O-
534.026	20	C40H6O3-
534.1313	18	C39H18O3-
534.1857	18	C37H26O4-
534.2508	19	C39H34O2-
534.4383	24	C37H58O2-
534.5216	22	C39H66-
535.1076	15	C42H15O-
535.2433	16	C42H31-
535.3902	20	C39H51O-
535.4601	21	C37H59O2-
535.6878	20	C36H87O-
536.0079	20	C39H4O4-
536.2756	18	C39H36O2-
536.3509	21	C41H44-
536.4786	18	C34H64O4-
536.5312	17	C39H68-
536.9915	20	C42HO2-
537.0463	21	C40H9O3-
537.3378	18	C37H45O3-
537.5039	19	C38H65O-
537.5672	16	C36H73O2-
537.6122	19	C34H81O3-
537.6605	19	C35H85O2-
538.0762	19	C44H10-
538.3031	16	C36H42O4-
538.3993	23	C35H54O4-
538.4503	26	C40H58-
538.6462	18	C38H82-
539.0086	18	C42H3O2-
539.0634	25	C40H11O3-
539.1471	22	C42H19O-
539.2371	23	C41H31O-
539.2991	22	C39H39O2-
539.4895	19	C37H63O2-
540.0257	20	C42H4O2-
540.0662	24	C43H8O-
540.3263	25	C36H44O4-
540.6258	19	C37H80O-
541.0429	17	C39H9O4-
541.2762	21	C38H37O3-
542.1272	25	C41H18O2-
542.1858	23	C39H26O3-
542.3237	28	C39H42O2-
542.4031	25	C38H54O2-
542.5026	18	C37H66O2-
542.5484	23	C38H70O-
543.1453	19	C41H19O2-
543.3156	19	C39H43O2-
543.5681	16	C35H75O3-
543.6692	28	C34H87O3-
544.1048	18	C40H16O3-
544.2108	20	C39H28O3-
544.3316	21	C39H44O2-
544.425	57	C38H56O2-
544.4833	24	C36H64O3-
545.0344	20	C45H5-
545.1701	19	C38H25O4-
545.2693	16	C37H37O4-
545.5901	18	C35H77O3-
545.6494	19	C33H85O4-
546.0144	20	C44H2O-
546.2389	24	C43H30-
546.3062	19	C38H42O3-
546.4343	20	C38H58O2-
546.5112	18	C40H66-
547.1101	20	C43H15O-
547.1509	31	C44H19-
547.21	17	C42H27O-
547.3033	18	C41H39O-
547.4099	18	C37H55O3-
548.0718	23	C42H12O2-
548.2664	19	C40H36O2-
548.3611	18	C39H48O2-
548.3942	19	C36H52O4-
548.474	20	C35H64O4-
548.5139	25	C36H68O3-
548.5871	30	C38H76O-
549.2964	20	C37H41O4-
549.4184	16	C40H53O-
549.5374	17	C40H69-
549.6329	19	C39H81-
549.9999	27	C43H2O2-
550.0562	16	C41H10O3-
550.0934	25	C42H14O2-
550.1382	25	C43H18O-
550.2223	21	C38H30O4-
550.2759	19	C40H38O2-
550.3181	19	C41H42O-
550.3882	19	C39H50O2-
550.5221	17	C39H66O-
550.604	19	C38H78O-
550.6558	22	C36H86O2-
551.1885	23	C41H27O2-
551.2644	19	C39H35O3-
551.3072	23	C37H43O4-
551.5872	27	C37H75O2-
551.6399	19	C35H83O3-
551.6685	19	C36H87O2-
552.0171	19	C43H4O2-
552.0526	23	C44H8O-
552.0822	24	C41H12O3-
552.2738	19	C39H36O3-
552.4006	20	C39H52O2-
552.5042	22	C35H68O4-
552.5582	18	C40H72-
552.619	20	C38H80O-
552.9874	24	C42HO3-
553.1501	19	C39H21O4-
553.2108	19	C41H29O2-
553.3389	26	C37H45O4-
553.6142	23	C34H81O4-
553.6727	19	C39H85-
554.0181	26	C46H2-
554.0915	25	C41H14O3-
554.1665	21	C43H22O-
554.2367	20	C38H34O4-
554.3201	19	C40H42O2-
554.633	22	C38H82O-
555.1964	17	C40H27O3-
555.2701	20	C42H35O-
555.3827	21	C38H51O3-
555.4986	23	C41H63-
555.5519	20	C39H71O-
556.0909	17	C44H12O-
556.2152	23	C44H28-
556.2713	20	C42H36O-
556.3585	23	C37H48O4-
556.4159	21	C39H56O2-
556.5566	18	C39H72O-
556.9971	23	C45HO-
557.0886	18	C40H13O4-
557.2603	19	C38H37O4-
557.3891	16	C41H49O-
558.0296	18	C42H6O3-
558.0765	16	C43H10O2-
558.2136	22	C40H30O3-
558.3196	20	C39H42O3-
558.3536	25	C40H46O2-
558.5117	16	C41H66-
559.0008	22	C41H3O4-
559.1317	20	C41H19O3-
559.2245	30	C40H31O3-
559.3088	15	C42H39O-
559.5564	18	C38H71O2-
559.6243	21	C40H79-
560.0878	19	C43H12O2-
560.1229	15	C44H16O-
560.2191	21	C43H28O-
560.3656	17	C40H48O2-
560.5194	18	C37H68O3-
560.5788	18	C35H76O4-
561.2905	22	C41H37O2-
561.527	22	C37H69O3-
561.637	18	C40H81-
561.6879	20	C38H89O-
562.0396	23	C45H6O-
562.1328	24	C44H18O-
562.1685	19	C45H22-
562.2053	20	C39H30O4-
562.2491	28	C40H34O3-
562.3594	17	C43H46-
562.5423	25	C41H70-
562.63	19	C36H82O3-
563.2504	23	C40H35O3-
563.3161	27	C38H43O4-
563.3755	16	C43H47-
563.4313	27	C41H55O-
563.5166	16	C40H67O-
563.5679	21	C38H75O2-
563.6448	21	C40H83-
563.984	19	C43O3-
564.1621	17	C44H20O-
564.2083	19	C42H28O2-
564.2627	19	C40H36O3-
564.2971	19	C41H40O2-
564.3337	16	C42H44O-
565.0578	24	C41H9O4-
565.1213	18	C43H17O2-
565.1995	22	C45H25-
565.3842	15	C43H49-
565.5659	20	C41H73-
565.9965	16	C43H2O3-
566.0276	15	C44H6O2-
566.0925	18	C42H14O3-
566.1939	18	C41H26O3-
566.2788	21	C40H38O3-
566.3307	32	C38H46O4-
566.4238	19	C37H58O4-
566.6553	21	C36H86O3-
567.1635	18	C40H23O4-
567.2097	24	C45H27-
567.3906	20	C39H51O3-
567.5572	22	C40H71O-
567.6882	19	C40H87-
567.9719	19	C42O4-
568.0942	26	C45H12O-
568.2603	19	C39H36O4-
568.3208	23	C44H40-
568.5541	26	C40H72O-
568.9799	16	C42HO4-
569.0184	19	C43H5O3-
569.1851	22	C44H25O-
569.3043	23	C40H41O3-
569.4125	24	C43H53-
569.4538	17	C37H61O4-
569.5717	19	C40H73O-
569.617	18	C38H81O2-
569.6692	23	C39H85O-
570.1976	24	C44H26O-
570.3721	21	C38H50O4-
570.5739	22	C40H74O-
570.6047	22	C41H78-
571.0193	19	C46H3O-
571.0852	23	C44H11O2-
571.1595	22	C43H23O2-
571.2109	22	C44H27O-
571.3365	24	C44H43-
571.4737	21	C37H63O4-
571.6472	17	C38H83O2-
572.1229	21	C45H16O-
572.2342	21	C41H32O3-
572.2856	25	C39H40O4-
572.438	18	C43H56-
573.0211	18	C42H5O4-
573.1785	21	C43H25O2-
573.2736	18	C42H37O2-
574.0077	23	C45H2O2-
574.0822	22	C47H10-
574.1513	16	C42H22O3-
574.1825	18	C43H26O2-
574.2613	23	C45H34-
574.4324	20	C39H58O3-
574.5735	22	C39H74O2-
575.1535	23	C45H19O-
575.2323	16	C44H31O-
575.4231	23	C42H55O-
575.4579	22	C43H59-
575.6189	21	C40H79O-
576.1533	18	C45H20O-
576.1795	21	C42H24O3-
576.2824	23	C45H36-
576.4724	19	C43H60-
576.5822	16	C39H76O2-
577.0695	18	C46H9O-
577.1715	15	C42H25O3-
577.2224	21	C43H29O2-
577.2847	18	C45H37-
577.6722	21	C41H85-
578.0061	20	C44H2O3-
578.0913	20	C43H14O3-
578.2029	20	C46H26-
578.2419	21	C40H34O4-
578.5038	25	C40H66O2-
578.5445	18	C41H70O-
578.5892	22	C39H78O2-
578.9966	16	C44H3O3-
579.0461	21	C45H7O2-
579.2034	18	C42H27O3-
579.341	25	C39H47O4-
579.6214	18	C36H83O4-
579.6727	25	C37H87O3-
580.1488	19	C44H20O2-
580.2361	17	C43H32O2-
580.3627	22	C39H48O4-
580.46	27	C42H60O-
580.6189	19	C39H80O2-
581.0399	17	C48H5-
581.1721	18	C41H25O4-
581.4455	18	C41H57O2-
582.0336	19	C44H6O3-
582.1538	19	C44H22O2-
582.203	22	C45H26O-
582.2974	19	C44H38O-
582.3397	28	C42H46O2-
582.4046	20	C40H54O3-
582.4567	19	C38H62O4-
582.5596	22	C37H74O4-
582.6702	23	C40H86O-
583.2641	19	C43H35O2-
583.3529	18	C42H47O2-
583.4359	18	C44H55-
583.6856	21	C40H87O-
584.1236	22	C46H16O-
584.1843	22	C44H24O2-
584.2515	19	C46H32-
584.3623	20	C42H48O2-
584.4455	20	C44H56-
584.531	22	C43H68-
584.6218	18	C42H80-
585.0848	19	C45H13O2-
585.1481	16	C43H21O3-
585.2711	23	C43H37O2-
585.3916	19	C39H53O4-
585.4439	18	C44H57-
586.0727	19	C48H10-
586.3285	23	C44H42O-
587.0587	24	C47H7O-
587.3297	20	C44H43O-
587.5702	19	C40H75O2-
587.6092	20	C41H79O-
588.125	22	C45H16O2-
588.5659	18	C43H72-
588.6185	23	C41H80O-
588.6649	19	C42H84-
589.4668	15	C40H61O3-
589.5699	27	C43H73-
590.1281	22	C45H18O2-
590.1975	15	C47H26-
590.5181	24	C38H70O4-
591.002	25	C45H3O3-
591.076	19	C47H11O-
591.1207	18	C48H15-
591.6197	20	C37H83O4-
592.1096	21	C44H16O3-
592.2755	23	C45H36O-
593.0085	19	C48HO-
593.052	16	C46H9O2-
593.2337	31	C47H29-
593.2783	24	C45H37O-
593.3176	18	C46H41-
593.3564	18	C40H49O4-
593.4723	21	C43H61O-
594.0867	18	C43H14O4-
594.2838	23	C41H38O4-
594.3638	21	C40H50O4-
594.4503	25	C42H58O2-
594.5205	21	C44H66-
594.6564	22	C37H86O4-
595.1361	23	C44H19O3-
595.6728	19	C41H87O-
596.0708	20	C49H8-
596.1593	21	C48H20-
596.2937	17	C41H40O4-
596.3972	19	C44H52O-
596.466	18	C42H60O2-
596.5847	18	C42H76O-
597.032	24	C48H5O-
597.0933	23	C46H13O2-
597.1491	17	C44H21O3-
597.252	31	C47H33-
597.3115	19	C45H41O-
597.3863	18	C40H53O4-
597.4739	28	C42H61O2-
597.51	22	C43H65O-
597.5844	25	C38H77O4-
598.0792	19	C49H10-
598.1308	18	C47H18O-
598.3562	19	C46H46-
598.4045	16	C40H54O4-
598.6445	22	C43H82-
599.04	18	C44H7O4-
599.2116	19	C45H27O2-
599.5708	24	C41H75O2-
599.6175	22	C42H79O-
599.664	19	C40H87O2-
600.2701	22	C43H36O3-
600.3913	18	C43H52O2-
601.5517	20	C40H73O3-
601.5936	25	C41H77O2-
601.6757	18	C40H89O2-
602.0476	21	C47H6O2-
602.2294	18	C45H30O2-
602.3154	22	C44H42O2-
602.3601	27	C45H46O-
602.4145	21	C43H54O2-
602.5322	17	C39H70O4-
602.6641	19	C39H86O3-
603.0741	18	C48H11O-
603.216	19	C48H27-
603.256	15	C42H35O4-
603.4575	21	C44H59O-
604.0398	19	C47H8O2-
604.0982	22	C48H12O-
604.1463	21	C46H20O2-
604.2438	22	C45H32O2-
604.3013	25	C43H40O3-
604.5457	18	C39H72O4-
604.5806	24	C40H76O3-
605.3181	21	C47H41-
605.5245	17	C42H69O2-
606.0917	18	C44H14O4-
606.3149	18	C43H42O3-
606.3794	19	C45H50O-
606.4527	15	C43H58O2-
606.6507	22	C38H86O4-
607.0932	24	C44H15O4-
607.2857	19	C42H39O4-
607.5145	18	C41H67O3-
607.5876	23	C43H75O-
607.9865	19	C48O2-
608.0987	24	C44H16O4-
608.1554	18	C49H20-
608.3131	18	C46H40O-
608.3999	19	C45H52O-
608.5691	24	C39H76O4-
608.6191	24	C44H80-
609.1539	20	C45H21O3-
609.3651	24	C44H49O2-
609.5398	18	C45H69-
609.6179	18	C40H81O3-
609.6858	16	C42H89O-
610.0098	16	C48H2O2-
610.0913	21	C47H14O2-
610.3351	20	C43H46O3-
611.0241	18	C48H3O2-
611.1089	20	C47H15O2-
611.2028	23	C46H27O2-
611.5266	19	C44H67O-
612.0776	21	C46H12O3-
612.1273	19	C44H20O4-
612.2706	22	C44H36O3-
612.3247	19	C42H44O4-
612.493	18	C43H64O2-
612.6208	20	C43H80O-
613.1315	20	C47H17O2-
613.3174	19	C45H41O2-
613.4882	26	C43H65O2-
613.5684	25	C45H73-
613.5994	19	C42H77O2-
613.9908	20	C47H2O3-
614.3952	17	C47H50-
614.5224	16	C40H70O4-
614.5749	26	C45H74-
615.1925	24	C45H27O3-
615.2612	23	C43H35O4-
615.4534	18	C45H59O-
615.6416	16	C43H83O-
616.0985	24	C49H12O-
616.278	53	C47H36O-
616.5098	19	C43H68O2-
617.0906	18	C49H13O-
617.2574	21	C46H33O2-
617.5099	25	C46H65-
617.6105	19	C45H77-
617.9977	18	C46H2O4-
618.2464	26	C46H34O2-
618.3231	20	C48H42-
618.3818	25	C46H50O-
618.4767	24	C45H62O-
619.0586	16	C51H7-
619.2682	21	C46H35O2-
619.5509	19	C43H71O2-
619.6339	19	C42H83O2-
620.0168	22	C46H4O4-
620.1412	19	C46H20O3-
620.2998	18	C43H40O4-
620.4376	18	C47H56-
620.4838	23	C41H64O4-
620.5474	23	C43H72O2-
620.671	19	C39H88O4-
621.0767	19	C51H9-
621.1968	17	C44H29O4-
621.233	23	C45H33O3-
621.4199	18	C46H53O-
621.5945	21	C44H77O-
622.0055	18	C49H2O2-
622.1036	19	C48H14O2-
622.2499	25	C45H34O3-
622.3798	18	C45H50O2-
622.5022	23	C41H66O4-
622.5309	20	C42H70O3-
622.5761	16	C43H74O2-
622.6538	21	C42H86O2-
623.0594	18	C50H7O-
623.1572	21	C46H23O3-
623.2991	20	C46H39O2-
623.3434	22	C44H47O3-
623.6813	18	C42H87O2-
624.2261	26	C44H32O4-
624.352	21	C44H48O3-
625.1132	18	C48H17O2-
625.184	24	C46H25O3-
625.259	24	C48H33O-
625.4628	16	C43H61O3-
625.5236	18	C41H69O4-
626.1167	17	C51H14-
626.5996	20	C43H78O2-
627.1222	24	C51H15-
627.2704	18	C48H35O-
627.3962	15	C48H51-
627.585	21	C46H75-
627.9777	27	C47O4-
628.2519	18	C44H36O4-
628.3644	22	C47H48O-
628.554	19	C45H72O-
629.0476	20	C49H9O2-
629.1883	28	C49H25O-
629.2513	17	C47H33O2-
629.298	22	C45H41O3-
629.337	27	C46H45O2-
629.4032	19	C44H53O3-
630.0595	27	C49H10O2-
630.1004	21	C50H14O-
630.217	20	C46H30O3-
630.2543	20	C47H34O2-
630.3173	20	C45H42O3-
630.513	23	C47H66-
630.6732	17	C44H86O-
631.0044	22	C47H3O4-
631.1323	19	C47H19O3-
631.1832	19	C45H27O4-
631.5907	20	C45H75O-
631.981	25	C50O2-
632.0493	23	C48H8O3-
632.3197	20	C45H44O3-
632.3658	20	C46H48O2-
632.4586	16	C45H60O2-
632.5227	24	C43H68O3-
632.5863	16	C45H76O-
632.6335	23	C43H84O2-
632.6628	20	C43H84O2-
632.9835	18	C50HO2-
633.139	18	C50H17O-
633.4289	20	C44H57O3-
633.4787	20	C42H65O4-
634.3068	20	C44H42O4-
634.4394	20	C44H58O3-
634.4998	24	C42H66O4-
634.5499	23	C47H70-
634.6137	16	C45H78O-
635.029	17	C47H7O4-
635.4256	17	C47H55O-
635.4617	21	C48H59-
635.4999	17	C42H67O4-
635.5801	20	C44H75O2-
636.0619	19	C51H8O-
636.0952	22	C52H12-
636.3885	16	C46H52O2-
636.4688	22	C48H60-
636.5487	22	C43H72O3-
636.6713	28	C43H88O2-
637.1094	19	C52H13-
637.148	18	C46H21O4-
637.2342	15	C45H33O4-
637.2747	21	C46H37O3-
637.3106	18	C47H41O2-
637.3749	21	C45H49O3-
637.4347	21	C47H57O-
637.5588	16	C43H73O3-
637.6414	20	C42H85O3-
638.034	18	C50H6O2-
638.0871	22	C48H14O3-
638.5008	22	C45H66O2-
639.0626	23	C47H11O4-
639.2272	24	C48H31O2-
639.4793	21	C44H63O3-
639.5584	21	C46H71O-
639.6146	20	C44H79O2-
640.4452	23	C43H60O4-
640.4788	20	C44H64O3-
640.5732	20	C43H76O3-
641.0922	23	C51H13O-
641.3811	28	C48H49O-
641.5139	18	C48H65-
641.608	18	C47H77-
641.6432	18	C41H85O4-
642.1398	23	C52H18-
642.2228	19	C47H30O3-
642.3502	19	C47H46O2-
642.6161	21	C47H78-
643.0781	19	C50H11O2-
643.1403	21	C48H19O3-
643.258	18	C48H35O2-
643.3005	18	C49H39O-
643.3457	22	C47H47O2-
643.4662	18	C43H63O4-
643.5902	18	C46H75O-
644.1703	21	C49H24O2-
644.3618	20	C47H48O2-
644.4168	19	C45H56O3-
644.4542	23	C46H60O2-
644.6158	23	C43H80O3-
645.0458	18	C49H9O3-
645.0717	18	C49H9O3-
645.1709	16	C52H21-
645.3819	22	C47H49O2-
645.5473	22	C48H69-
646.0299	20	C48H6O4-
646.099	22	C50H14O2-
646.5341	19	C44H70O3-
646.6619	22	C44H86O2-
647.1905	25	C49H27O2-
647.3799	18	C47H51O2-
647.4691	28	C49H59-
647.5493	24	C48H71-
647.6473	20	C47H83-
647.9751	18	C50O3-
648.1002	22	C53H12-
648.1648	20	C48H24O3-
648.4259	15	C44H56O4-
648.5029	19	C43H68O4-
648.5567	25	C48H72-
648.5807	22	C45H76O2-
648.6461	17	C43H84O3-
648.6948	16	C44H88O2-
649.1458	19	C47H21O4-
649.4041	20	C47H53O2-
649.516	16	C43H69O4-
650.0353	24	C51H6O2-
650.0993	20	C49H14O3-
650.1606	17	C51H22O-
650.393	18	C50H50-
650.564	22	C44H74O3-
650.6194	19	C42H82O4-
651.1171	23	C53H15-
651.2963	18	C47H39O3-
651.3877	26	C46H51O3-
652.0379	18	C54H4-
652.2509	16	C49H32O2-
652.3034	20	C47H40O3-
652.3383	19	C48H44O2-
652.4134	23	C50H52-
652.4752	22	C48H60O-
652.6422	19	C42H84O4-
652.6931	20	C47H88-
653.0842	18	C48H13O4-
653.1688	22	C47H25O4-
653.224	19	C52H29-
653.4069	22	C46H53O3-
653.4478	26	C44H61O4-
653.4813	16	C48H61O-
653.5399	24	C46H69O2-
653.6479	19	C42H85O4-
653.6924	16	C47H89-
654.067	20	C51H10O2-
654.2059	17	C51H26O-
654.2923	16	C50H38O-
654.3993	24	C46H54O3-
654.5797	22	C47H74O-
655.1591	28	C50H23O2-
655.4345	31	C50H55-
655.5323	23	C49H67-
655.5933	20	C44H79O3-
655.9855	16	C52O2-
656.0513	25	C50H8O3-
656.3205	21	C47H44O3-
656.4488	21	C47H60O2-
656.5324	21	C49H68-
656.593	23	C47H76O-
657.0898	16	C51H13O2-
657.2891	26	C49H37O2-
657.379	25	C48H49O2-
657.4485	22	C50H57-
657.5614	17	C46H73O2-
658.0517	20	C53H6O-
658.085	23	C54H10-
658.1486	21	C49H22O3-
658.2338	23	C51H30O-
658.4277	22	C49H54O-
658.5606	16	C46H74O2-
658.6264	18	C44H82O3-
659.0509	22	C53H7O-
659.1439	20	C52H19O-
659.2962	22	C49H39O2-
659.4675	19	C50H59-
660.0153	23	C52H4O2-
660.2309	19	C47H32O4-
660.4329	28	C49H56O-
660.5105	18	C44H68O4-
660.5638	21	C49H72-
660.61	22	C43H80O4-
660.9924	15	C51HO3-
661.0952	25	C54H13-
661.1551	23	C52H21O-
661.3743	17	C47H49O3-
661.6666	19	C48H85-
662.2327	28	C50H30O2-
662.2913	25	C52H38-
663.0224	24	C55H3-
663.1036	27	C50H15O3-
663.3318	22	C49H43O2-
663.4867	23	C50H63-
663.6634	18	C44H87O3-
663.976	20	C50O4-
664.1951	15	C49H28O3-
664.2456	26	C50H32O2-
664.3251	20	C49H44O2-
664.362	20	C46H48O4-
664.459	29	C49H60O-
664.6216	30	C43H84O4-
664.6496	15	C43H84O4-
665.2501	20	C50H33O2-
665.31	18	C48H41O3-
665.3537	19	C46H49O4-
665.4742	17	C49H61O-
665.6805	40	C44H89O3-
666.0102	20	C54H2O-
666.109	19	C53H14O-
666.1689	18	C51H22O2-
666.2253	18	C49H30O3-
666.4336	23	C48H58O2-
666.546	16	C47H70O2-
667.0325	17	C51H7O3-
667.0804	20	C52H11O2-
667.2285	23	C49H31O3-
667.2735	22	C50H35O2-
667.3656	19	C49H47O2-
667.4436	16	C48H59O2-
667.5133	15	C46H67O3-
668.1794	21	C51H24O2-
668.3593	24	C49H48O2-
668.4898	22	C49H64O-
668.6428	16	C46H84O2-
669.1044	19	C49H17O4-
669.2132	20	C48H29O4-
669.4305	19	C47H57O3-
669.543	19	C50H69-
669.5908	21	C48H77O-
670.3508	20	C48H46O3-
670.574	24	C47H74O2-
670.6774	20	C46H86O2-
671.1021	19	C52H15O2-
671.2818	20	C53H35-
671.3695	20	C52H47-
671.5447	23	C46H71O3-
672.0052	18	C56-
672.1129	19	C52H16O2-
672.1625	27	C53H20O-
672.1989	22	C51H28O2-
672.3503	23	C51H44O-
672.6321	22	C45H84O3-
672.6839	17	C46H88O2-
673.1008	26	C55H13-
673.3357	18	C47H45O4-
673.4075	16	C49H53O2-
673.4636	18	C47H61O3-
673.6615	19	C49H85-
674.0397	22	C53H6O2-
674.2166	23	C51H30O2-
674.4797	19	C51H62-
674.6271	23	C44H82O4-
675.1687	20	C53H23O-
675.3068	22	C53H39-
675.5086	25	C48H67O2-
675.6043	19	C47H79O2-
675.6525	22	C48H83O-
675.9817	24	C51O4-
676.213	16	C54H28-
676.2763	18	C52H36O-
676.3519	20	C47H48O4-
677.1142	26	C51H17O3-
677.3449	21	C50H45O2-
677.4373	20	C49H57O2-
677.5422	23	C45H73O4-
677.6448	23	C44H85O4-
677.7045	20	C49H89-
678.0847	24	C50H14O4-
678.1935	17	C53H26O-
678.554	22	C45H74O4-
678.6359	24	C47H82O2-
678.6843	18	C48H86O-
679.3398	20	C53H43-
679.3818	17	C47H51O4-
680.0846	18	C53H12O2-
680.6001	19	C49H76O-
680.6641	24	C44H88O4-
680.998	19	C54HO2-
681.0325	25	C55H5O-
681.1645	25	C55H21-
681.2071	22	C49H29O4-
681.2803	19	C51H37O2-
681.6373	19	C50H81-
682.0098	30	C54H2O2-
682.2103	20	C49H30O4-
682.4101	16	C47H54O4-
682.4561	20	C52H58-
682.5963	22	C45H78O4-
682.67	23	C47H86O2-
683.0492	24	C55H7O-
683.0888	19	C56H11-
683.279	19	C54H35-
683.4074	25	C47H55O4-
683.6073	25	C49H79O-
684.031	22	C54H4O2-
684.313	22	C51H40O2-
684.3826	16	C53H48-
684.4422	18	C51H56O-
684.5592	16	C51H72-
684.5902	23	C48H76O2-
685.0775	19	C52H13O3-
685.2375	23	C49H33O4-
685.3603	22	C49H49O3-
685.4956	18	C49H65O2-
685.5354	29	C50H69O-
685.5741	16	C51H73-
685.6832	18	C47H89O2-
686.1769	18	C54H22O-
686.3275	19	C51H42O2-
686.4386	20	C47H58O4-
686.4741	18	C48H62O3-
686.5115	17	C49H66O2-
686.6171	19	C45H82O4-
687.0651	20	C51H11O4-
687.1699	16	C54H23O-
687.3073	21	C54H39-
687.35	15	C48H47O4-
687.5998	18	C48H79O2-
688.0345	21	C57H4-
688.1362	18	C53H20O2-
688.5108	19	C49H68O2-
688.5653	19	C50H72O-
688.6772	19	C46H88O3-
689.4174	16	C53H53-
689.5387	23	C49H69O2-
690.0787	19	C54H10O2-
690.1376	19	C56H18-
690.4552	18	C47H62O4-
690.5031	18	C48H66O3-
690.6512	21	C45H86O4-
691.1107	22	C55H15O-
691.1821	24	C50H27O4-
691.2245	20	C51H31O3-
691.2765	19	C49H39O4-
691.3624	32	C51H47O2-
691.6915	16	C49H87O-
692.251	23	C55H32-
692.346	22	C54H44-
692.3895	22	C48H52O4-
692.5626	15	C49H72O2-
692.9945	22	C55HO2-
693.1402	21	C52H21O3-
693.1856	25	C53H25O2-
693.2638	25	C55H33-
693.5065	21	C51H65O-
694.1614	23	C52H22O3-
694.3924	21	C48H54O4-
694.4305	19	C49H58O3-
694.474	25	C50H62O2-
694.5983	18	C50H78O-
695.297	20	C52H39O2-
695.5538	21	C52H71-
695.5933	20	C46H79O4-
696.0038	23	C58-
696.0744	22	C53H12O3-
696.1316	19	C51H20O4-
696.2417	18	C54H32O-
696.4849	20	C50H64O2-
697.3839	16	C54H49-
697.5713	20	C52H73-
698.0104	20	C58H2-
698.3548	16	C53H46O-
698.4151	25	C51H54O2-
698.4489	19	C52H58O-
699.0073	20	C54H3O3-
699.0843	18	C56H11O-
699.3201	26	C52H43O2-
699.3855	20	C50H51O3-
699.5664	18	C48H75O3-
699.6101	23	C49H79O2-
700.0847	27	C56H12O-
700.2801	20	C54H36O-
700.5613	20	C51H72O-
700.5976	22	C52H76-
700.6821	23	C51H88-
701.4069	18	C50H53O3-
701.4469	19	C51H57O2-
701.5135	21	C53H65-
701.5586	18	C47H73O4-
701.5913	17	C48H77O3-
702.1598	25	C54H22O2-
702.3465	16	C52H46O2-
702.3998	32	C50H54O3-
702.4501	19	C51H58O2-
703.0178	20	C57H3O-
703.1997	23	C55H27O-
703.3116	15	C51H43O3-
703.6686	24	C46H87O4-
704.0789	18	C55H12O2-
704.1811	23	C54H24O2-
704.2524	20	C56H32-
704.4365	18	C54H56-
704.5407	24	C50H72O2-
704.5897	20	C51H76O-
705.1766	22	C54H25O2-
705.5518	18	C50H73O2-
706.2661	19	C56H34-
706.3611	16	C55H46-
706.4572	20	C54H58-
706.59	22	C47H78O4-
706.6761	21	C49H86O2-
707.1215	24	C52H19O4-
707.1984	22	C54H27O2-
707.246	15	C55H31O-
708.1976	20	C54H28O2-
708.3543	18	C51H48O3-
708.4406	18	C53H56O-
708.5553	24	C49H72O3-
709.268	18	C52H37O3-
710.0636	24	C53H10O4-
710.1135	25	C58H14-
710.1803	23	C53H26O3-
710.2274	16	C54H30O2-
710.267	17	C55H34O-
710.5758	23	C53H74-
710.6691	21	C52H86-
711.0224	19	C59H3-
711.2676	16	C55H35O-
711.3227	24	C53H43O2-
711.3834	15	C51H51O3-
711.9999	20	C58O-
712.1174	19	C54H16O3-
712.2609	22	C51H36O4-
712.3198	16	C56H40-
712.4867	23	C50H64O3-
712.6159	23	C50H80O2-
712.6747	22	C48H88O3-
713.0724	19	C53H13O4-
713.1133	18	C54H17O3-
713.1546	17	C55H21O2-
713.2439	24	C54H33O2-
713.3195	27	C56H41-
713.3696	22	C50H49O4-
714.1692	16	C55H22O2-
714.2503	22	C54H34O2-
714.3313	23	C56H42-
714.5294	24	C51H70O2-
714.5947	20	C49H78O3-
714.668	18	C51H86O-
715.5045	20	C50H67O3-
715.6095	16	C49H79O3-
716.0162	23	C54H4O4-
716.1712	20	C55H24O2-
716.3702	24	C53H48O2-
716.6114	18	C49H80O3-
716.6974	18	C51H88O-
717.0136	21	C54H5O4-
717.1019	26	C56H13O2-
717.2783	22	C54H37O2-
717.3324	23	C52H45O3-
717.4002	25	C50H53O4-
717.4705	23	C52H61O2-
717.5049	25	C53H65O-
717.6889	17	C51H89O-
718.3481	27	C52H46O3-
718.4061	26	C50H54O4-
718.4472	21	C55H58-
718.5894	18	C48H78O4-
719.0021	17	C57H3O2-
719.1294	19	C53H19O4-
719.3683	15	C56H47-
719.5872	24	C51H75O2-
719.6789	18	C50H87O2-
720.195	19	C58H24-
720.2819	16	C57H36-
720.3214	23	C51H44O4-
720.439	20	C54H56O-
720.6854	16	C50H88O2-
721.0695	25	C58H9O-
721.1397	17	C53H21O4-
721.1846	28	C54H25O3-
721.6327	16	C52H81O-
721.6762	19	C50H89O2-
722.0005	23	C56H2O3-
722.0831	25	C58H10O-
722.4419	20	C54H58O-
722.6126	21	C48H82O4-
723.0674	23	C54H11O4-
723.1833	17	C57H23O-
723.2957	23	C53H39O3-
723.3595	20	C55H47O-
723.4695	18	C51H63O3-
723.5219	21	C52H67O2-
723.978	16	C55O4-
724.3141	24	C57H40-
724.4075	23	C56H52-
724.6494	18	C52H84O-
724.9891	20	C55HO4-
725.1868	19	C57H25O-
725.5394	21	C52H69O2-
725.6539	23	C52H85O-
725.9898	26	C55H2O4-
726.0266	22	C56H6O3-
726.0944	26	C54H14O4-
726.491	16	C54H62O-
726.5727	17	C53H74O-
726.6643	18	C52H86O-
727.1027	20	C54H15O4-
727.1909	21	C53H27O4-
727.3013	17	C56H39O-
727.3971	18	C55H51O-
727.4369	19	C56H55-
727.5844	26	C53H75O-
728.0515	16	C56H8O3-
728.0954	18	C54H16O4-
728.2545	19	C58H32-
728.4324	22	C56H56-
728.5792	15	C49H76O4-
729.0506	16	C56H9O3-
729.1241	22	C58H17O-
729.1772	19	C56H25O2-
729.2637	19	C58H33-
729.4089	18	C55H53O-
729.5745	19	C49H77O4-
729.6745	19	C48H89O4-
730.0614	22	C56H10O3-
730.1185	15	C54H18O4-
730.1818	17	C56H26O2-
730.2701	20	C58H34-
730.4635	16	C53H62O2-
730.5876	20	C49H78O4-
730.6528	30	C51H86O2-
731.146	19	C58H19O-
731.2439	20	C57H31O-
731.3059	16	C55H39O2-
731.3937	19	C54H51O2-
731.5182	16	C54H67O-
731.5973	25	C49H79O4-
731.681	20	C51H87O2-
732.0747	19	C56H12O3-
732.3511	24	C53H48O3-
732.4948	19	C53H64O2-
732.5866	21	C52H76O2-
732.6646	21	C54H84-
733.2544	15	C57H33O-
733.306	18	C55H41O2-
733.5006	16	C53H65O2-
733.6031	24	C52H77O2-
734.0236	17	C58H6O2-
734.0835	21	C59H10O-
734.2859	19	C54H38O3-
735.2125	18	C59H27-
735.4333	21	C51H59O4-
735.9743	22	C56O4-
736.0781	20	C55H12O4-
736.1461	20	C57H20O2-
736.5191	21	C53H68O2-
736.6192	22	C52H80O2-
736.6762	24	C50H88O3-
737.3058	17	C54H41O3-
737.3683	19	C52H49O4-
737.5935	21	C51H77O3-
738.1037	15	C59H14O-
738.3489	25	C55H46O2-
738.4015	19	C53H54O3-
738.4547	19	C54H58O2-
738.6237	24	C52H82O2-
738.9891	19	C56H3O4-
739.1063	24	C59H15O-
739.9935	20	C59O2-
740.1061	20	C55H16O4-
740.1723	20	C57H24O2-
740.26	22	C56H36O2-
740.5073	19	C52H68O3-
740.5753	19	C50H76O4-
741.0639	21	C57H9O3-
741.1901	17	C57H25O2-
741.235	24	C55H33O3-
741.2995	19	C53H41O4-
741.3633	22	C55H49O2-
741.6389	18	C55H81-
742.0327	22	C56H6O4-
742.1268	25	C55H18O4-
742.2331	19	C58H30O-
742.3492	24	C54H46O3-
742.4386	22	C53H58O3-
742.6764	19	C52H86O2-
743.1185	23	C55H19O4-
743.3542	21	C54H47O3-
743.5161	19	C55H67O-
743.5514	21	C56H71-
744.0401	43	C56H8O4-
744.0867	31	C57H12O3-
744.478	19	C54H64O2-
744.98	18	C58HO3-
745.5996	22	C53H77O2-
746.12	20	C58H18O2-
746.1654	18	C59H22O-
746.2719	27	C58H34O-
746.5346	23	C51H70O4-
747.1524	18	C55H23O4-
747.3306	19	C56H43O2-
747.6674	24	C51H87O3-
747.9781	16	C57O4-
748.032	24	C58H4O3-
748.0676	17	C56H12O4-
748.3677	25	C57H48O-
748.6562	24	C54H84O-
749.1151	27	C57H17O3-
749.1786	18	C55H25O4-
749.4828	24	C56H61O-
750.0079	33	C57H2O4-
750.0705	19	C59H10O2-
750.146	18	C58H22O2-
750.2218	18	C56H30O3-
750.3109	19	C55H42O3-
750.3545	18	C56H46O2-
750.5935	16	C52H78O3-
751.004	20	C57H3O4-
751.139	20	C57H19O3-
751.3127	24	C55H43O3-
751.6468	25	C53H83O2-
752.1368	22	C57H20O3-
752.3759	16	C56H48O2-
752.6256	22	C56H80-
752.6654	25	C50H88O4-
753.4022	19	C53H53O4-
753.4323	19	C54H57O3-
753.5836	18	C51H77O4-
753.6617	21	C53H85O2-
754.1182	16	C56H18O4-
754.2506	18	C56H34O3-
754.5215	17	C56H66O-
754.5737	21	C54H74O2-
755.1418	20	C56H19O4-
755.2161	16	C55H31O4-
755.2799	23	C57H39O2-
755.4604	16	C58H59-
755.5301	18	C56H67O-
755.5948	25	C51H79O4-
755.6812	20	C53H87O2-
755.9838	21	C59O3-
756.069	21	C58H12O3-
756.1193	17	C59H16O2-
756.4999	20	C55H64O2-
756.5688	19	C57H72-
757.0949	23	C58H13O3-
757.1282	18	C59H17O2-
757.2304	18	C55H33O4-
757.6192	19	C51H81O4-
758.1624	18	C56H22O4-
758.2046	15	C57H26O3-
758.2466	21	C55H34O4-
758.3611	21	C58H46O-
758.4142	21	C56H54O2-
758.4939	28	C55H66O2-
758.6524	18	C52H86O3-
759.1314	23	C59H19O2-
759.2481	15	C55H35O4-
759.4016	24	C59H51-
759.5544	28	C56H71O-
759.6511	22	C55H83O-
760.0782	16	C57H12O4-
760.6766	18	C52H88O3-
761.0942	16	C57H13O4-
761.1322	18	C58H17O3-
761.428	19	C56H57O2-
761.4923	24	C54H65O3-
761.6906	19	C56H89-
761.9901	19	C58H2O4-
762.0717	19	C57H14O4-
762.2897	18	C59H38O-
762.3446	16	C57H46O2-
763.2098	23	C57H31O3-
763.4689	29	C53H63O4-
763.5403	21	C55H71O2-
764.0262	21	C58H4O4-
764.2458	16	C57H32O3-
764.3209	18	C56H44O3-
765.2025	20	C56H29O4-
765.2866	21	C58H37O2-
765.6245	20	C53H81O3-
766.0545	30	C59H10O3-
767.124	21	C57H19O4-
767.2242	18	C56H31O4-
767.2929	25	C58H39O2-
767.5895	16	C52H79O4-
768.1299	18	C57H20O4-
768.2751	18	C57H36O3-
768.3345	22	C59H44O-
768.6817	24	C54H88O2-
769.0547	25	C58H9O4-
769.4924	15	C56H65O2-
770.3046	25	C58H42O2-
770.3821	15	C56H50O3-
771.1629	22	C57H23O4-
771.2592	23	C56H35O4-
771.4515	16	C58H59O-
771.5069	24	C56H67O2-
771.5558	26	C54H75O3-
771.5908	23	C54H75O3-
771.6455	24	C56H83O-
772.0904	23	C58H12O4-
772.1845	15	C57H24O4-
772.2868	19	C57H40O3-
772.3251	22	C58H44O2-
772.4573	16	C54H60O4-
772.6207	20	C55H80O2-
772.9845	19	C59HO4-
773.404	18	C56H53O3-
773.5643	18	C57H73O-
773.6308	18	C55H81O2-
774.2648	15	C59H34O2-
774.4047	18	C56H54O3-
774.4709	22	C54H62O4-
774.5448	19	C56H70O2-
774.6227	15	C55H82O2-
775.3686	19	C58H47O2-
775.4505	20	C57H59O2-
775.546	16	C56H71O2-
776.1175	19	C58H16O4-
776.314	21	C57H44O3-
776.4536	18	C57H60O2-
777.1516	16	C59H21O3-
777.236	17	C58H33O3-
777.3163	16	C56H41O4-
777.4841	19	C54H65O4-
778.0441	20	C59H6O4-
778.3378	19	C57H46O3-
778.3874	18	C58H50O2-
778.4575	18	C57H62O2-
778.6518	15	C55H86O2-
779.1338	21	C58H19O4-
779.4134	22	C55H55O4-
779.5152	15	C58H67O-
780.6577	25	C58H84-
781.3472	24	C56H45O4-
781.5683	23	C59H73-
781.6585	24	C58H85-
782.1755	18	C59H26O3-
782.2616	20	C57H34O4-
782.4129	18	C58H54O2-
783.0562	20	C59H11O4-
783.2098	19	C59H27O3-
783.6596	19	C54H87O3-
784.0759	24	C59H12O4-
784.1676	23	C58H24O4-
784.2442	25	C57H36O4-
784.336	18	C59H44O2-
784.3823	22	C57H52O3-
784.429	27	C58H56O2-
784.5786	21	C55H76O3-
785.177	17	C58H25O4-
785.2578	20	C57H37O4-
785.4704	29	C59H61O-
786.2316	25	C59H30O3-
786.3229	19	C58H42O3-
786.6118	23	C59H78-
786.6457	24	C53H86O4-
787.2386	15	C59H31O3-
787.5276	22	C56H67O3-
787.6463	32	C56H83O2-
788.2972	17	C57H40O4-
788.3494	23	C59H48O2-
788.4287	19	C57H56O3-
789.2059	19	C58H29O4-
789.3752	18	C59H49O2-
789.4204	21	C57H57O3-
789.5678	22	C57H73O2-
790.5061	20	C59H66O-
791.311	22	C57H43O4-
791.4879	22	C58H63O2-
791.5968	18	C54H79O4-
792.2185	21	C58H32O4-
792.283	22	C59H36O3-
792.362	19	C58H48O3-
793.3929	20	C59H53O2-
794.2344	26	C58H34O4-
794.5023	19	C58H66O2-
794.5393	27	C59H70O-
794.5928	22	C57H78O2-
795.4092	15	C59H55O2-
795.4484	18	C56H59O4-
796.1561	24	C59H24O4-
796.4908	22	C57H64O3-
796.6393	23	C54H84O4-
797.2853	20	C58H37O4-
797.5398	23	C58H69O2-
798.1681	18	C59H26O4-
798.3614	23	C57H50O4-
798.4495	18	C59H58O2-
798.5454	19	C58H70O2-
798.6107	20	C56H78O3-
798.6706	23	C58H86O-
799.4222	27	C58H55O3-
799.5377	19	C58H71O2-
800.4232	17	C58H56O3-
800.5279	18	C57H68O3-
800.6618	32	C54H88O4-
801.3822	16	C57H53O4-
801.4771	29	C59H61O2-
801.5236	21	C57H69O3-
801.6219	20	C56H81O3-
802.2123	25	C59H30O4-
802.3993	20	C57H54O4-
802.4793	20	C59H62O2-
802.5397	24	C57H70O3-
802.6338	20	C56H82O3-
803.2105	19	C59H31O4-
803.3002	20	C58H43O4-
803.3328	21	C58H43O4-
803.5047	15	C56H67O4-
803.5851	25	C58H75O2-
804.3637	15	C59H48O3-
804.4171	19	C57H56O4-
804.6245	21	C59H80O-
805.3379	27	C58H45O4-
805.5338	19	C56H69O4-
805.6376	19	C59H81O-
806.4165	27	C57H58O4-
806.4733	23	C58H62O3-
806.5704	22	C57H74O3-
806.6363	20	C59H82O-
807.253	22	C59H35O4-
807.3408	27	C58H47O4-
807.6438	18	C59H83O-
808.5474	20	C56H72O4-
809.2822	16	C59H37O4-
809.5656	25	C56H73O4-
809.7004	22	C56H89O3-
810.3856	20	C58H50O4-
810.5638	19	C56H74O4-
810.6171	18	C58H82O2-
811.3772	16	C58H51O4-
811.4907	18	C57H63O4-
811.5554	18	C59H71O2-
811.6831	20	C59H87O-
812.5523	23	C59H72O2-
812.7005	18	C59H88O-
813.3112	26	C59H41O4-
813.4872	18	C57H65O4-
814.5496	20	C58H70O3-
815.6234	20	C57H83O3-
815.6769	21	C58H87O2-
816.4981	18	C57H68O4-
816.5364	19	C58H72O3-
817.4577	132	C59H61O3-
817.5857	24	C59H77O2-
818.4811	23	C59H62O3-
819.6744	18	C57H87O3-
820.6081	27	C59H80O2-
821.4801	21	C59H65O3-
821.5418	19	C57H73O4-
822.4498	20	C58H62O4-
822.5538	26	C57H74O4-
823.3609	25	C59H51O4-
823.5521	19	C57H75O4-
824.5204	20	C59H68O3-
824.6341	21	C59H84O2-
826.4766	23	C58H66O4-
826.5788	19	C57H78O4-
826.6202	20	C58H82O3-
827.4125	21	C59H55O4-
827.6725	22	C59H87O2-
828.5157	25	C58H68O4-
828.6444	22	C58H84O3-
829.6702	21	C59H89O2-
830.5433	19	C58H70O4-
832.6745	18	C58H88O3-
833.5399	19	C58H73O4-
833.6483	24	C57H85O4-
834.5448	20	C58H74O4-
835.5688	25	C58H75O4-
835.6559	19	C57H87O4-
837.6257	19	C59H81O3-
837.6808	18	C57H89O4-
842.5413	19	C59H70O4-
842.6445	22	C59H86O3-
844.5434	18	C59H72O4-
860.649	17	C59H88O4-
861.6734	999	C59H89O4-
