Mass spectrum: VALINE; LC-ESI-QTOF; MS2; CE: 20eV; R=5000; [M+H]+
Name: VALINE
Name: (2S)-2-amino-3-methylbutanoic acid
Formula: C5H11NO2
Exact mass: 117.07898
SMILES: CC(C)[C@H](N)C(O)=O
InChI: InChI=1S/C5H11NO2/c1-3(2)4(6)5(7)8/h3-4H,6H2,1-2H3,(H,7,8)/t4-/m0/s1
Instrument: Agilent 6530 QTOF
Instrument type: LC-ESI-QTOF
Ms type: MS2
Ion mode: POSITIVE
Ionization: ESI
Fragmentation mode: CID
Collision energy: 20 eV
Resolution: 5000
Column name: N/A
Retention time: 0.594 min
Base peak: 121.0508
Precursor m/z: 118.0863
Precursor type: [M+H]+
Precursor intensity: 62120
m/z	relative intensity	assigned
42.0335	22	C2H4N+
57.0582	82	C3H7N+
58.0659	999	C3H8N+
59.0737	413	C3H9N+
72.0796	149	C4H10N+
118.086	166	C5H12NO2+
