Mass spectrum: N-palmitoyl-D-erythro-sphinganine; LC-ESI-QTOF; MS2; CE: 40eV; R=7000; [M+H]+
Name: N-palmitoyl-D-erythro-sphinganine
Name: N-(hexadecanoyl)-sphinganine
Name: N-[(2S,3R)-1,3-dihydroxyoctadecan-2-yl]hexadecanamide
Formula: C34H69NO3
Exact mass: 539.5277
SMILES: CCCCCCCCCCCCCCC[C@H]([C@H](CO)NC(=O)CCCCCCCCCCCCCCC)O
InChI: InChI=1S/C34H69NO3/c1-3-5-7-9-11-13-15-17-19-21-23-25-27-29-33(37)32(31-36)35-34(38)30-28-26-24-22-20-18-16-14-12-10-8-6-4-2/h32-33,36-37H,3-31H2,1-2H3,(H,35,38)/t32-,33+/m0/s1
Instrument: Agilent 6560 QTOF
Instrument type: LC-ESI-QTOF
Ms type: MS2
Ion mode: POSITIVE
Ionization: ESI
Fragmentation mode: CID
Collision energy: 40 eV
Resolution: 7000
Column name: Direct injection
Retention time: 0.157 min
Base peak: 540.5365
Precursor m/z: 540.535
Precursor type: [M+H]+
Precursor intensity: 203930
m/z	relative intensity	assigned
70.0657	385	C4H8N+
71.0492	33	C4H7O+
71.0851	214	C5H11+
74.0609	27	C3H8NO+
74.2129	4	H28NO2+
79.056	44	C6H7+
81.0703	561	C6H9+
83.0853	266	C6H11+
85.0649	23	C5H9O+
85.101	97	C6H13+
86.059	10	C4H8NO+
88.0766	122	C4H10NO+
95.0857	761	C7H11+
97.1012	234	C7H13+
102.0899	75	C5H12NO+
109.1017	221	C8H13+
111.119	10	C8H15+
114.0918	18	C6H12NO+
116.1066	50	C6H14NO+
123.1168	35	C9H15+
124.1125	10	C8H14N+
125.1305	28	C9H17+
138.1277	20	C9H16N+
154.1567	17	C7H22O3+
158.1529	15	C9H20NO+
180.178	15	C12H22N+
184.2027	11	C9H28O3+
186.1834	11	C11H24NO+
196.2019	5	C10H28O3+
209.0271	3	C16H3N+
239.2345	9	C16H31O+
240.2691	51	C16H34N+
249.258	15	C18H33+
252.2657	25	C14H36O3+
254.2838	186	C17H36N+
256.2636	999	C16H34NO+
257.2669	66	C16H35NO+
262.2508	13	C15H34O3+
266.285	734	C18H36N+
267.2882	73	C15H39O3+
268.2611	8	C17H34NO+
280.2642	49	C18H34NO+
284.2957	685	C18H38NO+
285.2989	55	C18H39NO+
302.2999	8	C22H38+
390.3175	10	C28H40N+
476.5172	34	C30H68O3+
504.5135	75	C34H66NO+
505.5165	41	C34H67NO+
522.525	48	C34H68NO2+
523.5289	10	C34H69NO2+
