Mass spectrum: 2-Hydroxyethylhexylsalicylate; LC-ESI-QTOF; MS2; CE: 10eV; R=7000; [M-H]-
Name: 2-Hydroxyethylhexylsalicylate
Formula: C15H22O4
Exact mass: 266.1518
SMILES: CCCCC(COC(=O)c1ccccc1O)C(C)O
InChI: InChI=1S/C15H22O4/c1-3-4-7-12(11(2)16)10-19-15(18)13-8-5-6-9-14(13)17/h5-6,8-9,11-12,16-17H,3-4,7,10H2,1-2H3
Instrument: Agilent 6560 QTOF
Instrument type: LC-ESI-QTOF
Ms type: MS2
Ion mode: NEGATIVE
Ionization: ESI
Fragmentation mode: CID
Collision energy: 10 eV
Resolution: 7000
Column name: ZORBAX Extend-C18 3.5um, 2.1x50mm, Agilent Technologies
Retention time: 7.128 min
Base peak: 982.9907
Precursor m/z: 265.1445
Precursor type: [M-H]-
Precursor intensity: 62315.22
m/z	relative intensity	assigned
93.035	134	C6H5O-
99.0815	7	C6H11O-
113.0978	5	C7H13O-
121.0301	6	C7H5O2-
137.0248	999	C7H5O3-
265.1448	114	C15H21O4-
