Mass spectrum: Bisphenol A bis(diphenyl phosphate); LC-ESI-QTOF; MS2; CE: 10eV; R=7000; [M+H]+
Name: Bisphenol A bis(diphenyl phosphate)
Name: [4-[2-(4-diphenoxyphosphoryloxyphenyl)propan-2-yl]phenyl] diphenyl phosphate
Formula: C39H34O8P2
Exact mass: 692.1729
SMILES: CC(C)(C1=CC=C(C=C1)OP(=O)(OC2=CC=CC=C2)OC3=CC=CC=C3)C4=CC=C(C=C4)OP(=O)(OC5=CC=CC=C5)OC6=CC=CC=C6
InChI: InChI=1S/C39H34O8P2/c1-39(2,31-23-27-37(28-24-31)46-48(40,42-33-15-7-3-8-16-33)43-34-17-9-4-10-18-34)32-25-29-38(30-26-32)47-49(41,44-35-19-11-5-12-20-35)45-36-21-13-6-14-22-36/h3-30H,1-2H3
Instrument: Agilent 6560 QTOF
Instrument type: LC-ESI-QTOF
Ms type: MS2
Ion mode: POSITIVE
Ionization: ESI
Fragmentation mode: CID
Collision energy: 10 eV
Resolution: 7000
Column name: InfinityLab Poroshell 120 EC-C18 2.7Âµm, 3x100mm, Agilent Technologies
Retention time: 13.311 min
Base peak: 752.2544
Precursor m/z: 693.1802
Precursor type: [M+H]+
Precursor intensity: 47177.05
m/z	relative intensity	assigned
273.0646	10	C8H19O6P2+
327.079	36	C18H16O4P+
367.1086	258	C21H20O4P+
368.1111	34	C21H22O2P2+
693.1802	999	C39H35O8P2+
