Mass spectrum: Diphenylcresyl phosphate; LC-ESI-QTOF; MS2; CE: 50eV; R=7000; [M+H]+
Name: Diphenylcresyl phosphate
Name: Phosphoric acid, 2-methylphenyl diphenyl ester
Name: (2-methylphenyl) diphenyl phosphate
Formula: C19H17O4P
Exact mass: 340.0864
SMILES: CC1=CC=CC=C1OP(=O)(OC2=CC=CC=C2)OC3=CC=CC=C3
InChI: InChI=1S/C19H17O4P/c1-16-10-8-9-15-19(16)23-24(20,21-17-11-4-2-5-12-17)22-18-13-6-3-7-14-18/h2-15H,1H3
Instrument: Agilent 6560 QTOF
Instrument type: LC-ESI-QTOF
Ms type: MS2
Ion mode: POSITIVE
Ionization: ESI
Fragmentation mode: CID
Collision energy: 50 eV
Resolution: 7000
Retention time: 0.148 min
Base peak: 363.0756
Precursor m/z: 341.0937
Precursor type: [M+H]+
Precursor intensity: 49156.4
m/z	relative intensity	assigned
51.0234	254	C4H3+
65.0385	999	C5H5+
67.0544	26	C5H7+
77.0386	519	C6H5+
91.0539	684	C7H7+
95.048	21	C6H7O+
115.0538	129	C9H7+
126.0468	83	C10H6+
139.0543	49	C11H7+
150.0432	22	C5H11O3P+
151.0534	123	C12H7+
152.0619	748	C12H8+
153.0659	96	C5H14O3P+
165.069	400	C13H9+
168.0548	50	C5H13O4P+
181.0649	130	C13H9O+
182.0701	72	C6H15O4P+
202.0764	40	C9H15O3P+
226.0779	49	C18H10+
227.0821	23	C11H16O3P+
