Mass spectrum: Mono-iso-butyl phthalate; LC-ESI-QTOF; MS2; CE: 5eV; R=7000; [M-H]-
Name: Mono-iso-butyl phthalate
Name: Monoisobutyl phthalate
Name: 2-(2-methylpropoxycarbonyl)benzoic acid
Formula: C12H14O4
Exact mass: 222.0892
SMILES: CC(C)COC(=O)C1=CC=CC=C1C(=O)O
InChI: InChI=1S/C12H14O4/c1-8(2)7-16-12(15)10-6-4-3-5-9(10)11(13)14/h3-6,8H,7H2,1-2H3,(H,13,14)
Instrument: Agilent 6560 QTOF
Instrument type: LC-ESI-QTOF
Ms type: MS2
Ion mode: NEGATIVE
Ionization: ESI
Fragmentation mode: CID
Collision energy: 5 eV
Resolution: 7000
Retention time: 0.151 min
Base peak: 221.0828
Precursor m/z: 221.0819
Precursor type: [M-H]-
Precursor intensity: 11736.33
m/z	relative intensity	assigned
71.051	708	C4H7O-
75.025	133	C6H3-
77.0403	999	C6H5-
105.0355	88	C7H5O-
121.0281	126	C7H5O2-
134.0378	78	C8H6O2-
149.0954	72	C10H13O-
177.0933	108	C11H13O2-
221.0824	698	C12H13O4-
