Mass spectrum: 5-Hydroxy-2-ethylhexyl diphenyl phosphate; LC-ESI-QTOF; MS2; CE: 40eV; R=7000; [M+H]+
Name: 5-Hydroxy-2-ethylhexyl diphenyl phosphate
Name: 2-Ethyl-5-hydroxyhexyl diphenyl phosphate
Name: (2-ethyl-5-hydroxyhexyl) diphenyl phosphate
Formula: C20H27O5P
Exact mass: 378.1596
SMILES: CCC(CCC(C)O)COP(=O)(Oc1ccccc1)Oc2ccccc2
InChI: InChI=1S/C20H27O5P/c1-3-18(15-14-17(2)21)16-23-26(22,24-19-10-6-4-7-11-19)25-20-12-8-5-9-13-20/h4-13,17-18,21H,3,14-16H2,1-2H3
Instrument: Agilent 6560 QTOF
Instrument type: LC-ESI-QTOF
Ms type: MS2
Ion mode: POSITIVE
Ionization: ESI
Fragmentation mode: CID
Collision energy: 40 eV
Resolution: 7000
Retention time: 0.149 min
Base peak: 401.1509
Precursor m/z: 379.1669
Precursor type: [M+H]+
Precursor intensity: 59715.59
m/z	relative intensity	assigned
51.0231	65	C4H3+
55.0549	113	C4H7+
69.0699	237	C5H9+
77.0386	999	C6H5+
93.0322	11	C6H5O+
95.0492	170	C6H7O+
127.0529	10	C3H12O3P+
151.0531	46	C12H7+
152.0622	297	C12H8+
153.07	351	C12H9+
154.0726	12	C5H15O3P+
157.005	53	C6H6O3P+
168.0568	39	C12H8O+
175.0153	176	C6H8O4P+
215.026	194	C12H8O2P+
233.0353	29	C12H10O3P+
251.0465	174	C12H12O4P+
252.0484	11	C12H13O4P+
