Mass spectrum: N-ACETYLNEURAMINATE; LC-ESI-QTOF; MS2; CE: 20eV; R=5000; [M+H]+
Name: N-ACETYLNEURAMINATE
Name: 5-N-Acetyl-beta-D-neuraminic acid
Name: (2S,4S,5R,6R)-5-acetamido-2,4-dihydroxy-6-[(1R,2R)-1,2,3-trihydroxypropyl]oxane-2-carboxylic acid
Formula: C11H19NO9
Exact mass: 309.1060
SMILES: CC(=O)N[C@@H]1[C@@H](O)C[C@](O)(O[C@H]1[C@H](O)[C@H](O)CO)C(O)=O
InChI: InChI=1S/C11H19NO9/c1-4(14)12-7-5(15)2-11(20,10(18)19)21-9(7)8(17)6(16)3-13/h5-9,13,15-17,20H,2-3H2,1H3,(H,12,14)(H,18,19)/t5-,6+,7+,8+,9+,11-/m0/s1
Instrument: Agilent 6530 QTOF
Instrument type: LC-ESI-QTOF
Ms type: MS2
Ion mode: POSITIVE
Ionization: ESI
Fragmentation mode: CID
Collision energy: 20 eV
Resolution: 5000
Column name: N/A
Retention time: 0.219 min
Base peak: 121.0508
Precursor m/z: 310.1133
Precursor type: [M+H]+
Precursor intensity: 270849
m/z	relative intensity	assigned
41.0388	5	C3H5+
43.0181	53	C2H3O+
45.0332	107	C2H5O+
46.0657	13	C2H8N+
55.0187	23	C3H3O+
56.0471	60	H8O3+
57.0321	58	C3H5O+
60.045	397	C2H6NO+
61.0292	77	C2H5O2+
67.0527	21	C5H7+
69.0332	39	C4H5O+
71.0142	8	C3H3O2+
73.0272	40	C3H5O2+
77.038	21	C6H5+
77.0968	1	C4H13O+
78.0325	17	C5H4N+
79.0546	48	C6H7+
80.0451	18	C2H8O3+
81.0325	43	C5H5O+
82.0648	62	C5H8N+
84.0462	238	C4H6NO+
91.0376	12	C3H7O3+
96.0437	42	C5H6NO+
97.03	79	C5H5O2+
98.0578	50	C2H10O4+
101.0325	7	H7NO5+
103.0393	155	C4H7O3+
104.0464	3	C4H8O3+
106.0665	69	C7H8N+
107.0469	15	C7H7O+
108.0394	61	C3H8O4+
109.0265	47	C6H5O2+
110.0576	71	C3H10O4+
111.0456	20	C6H7O2+
112.0391	219	C5H6NO2+
113.0244	21	C5H5O3+
114.0553	73	C5H8NO2+
119.096	5	C5H13NO2+
120.0457	107	C7H6NO+
121.028	999	C7H5O2+
122.057	22	C4H10O4+
123.046	154	C7H7O2+
124.0415	95	C6H6NO2+
125.024	38	C6H5O3+
126.056	126	C6H8NO2+
128.0372	76	C5H6NO3+
129.0207	9	C8H3NO+
130.0474	81	C2H10O6+
131.0576	6	C5H9NO3+
132.0513	41	CH10NO6+
133.0371	12	C4H7NO4+
134.0572	43	C5H10O4+
136.0427	114	H10NO7+
137.022	27	C7H5O3+
138.0508	87	C4H10O5+
139.04	12	C7H7O3+
140.0588	47	C11H8+
142.0528	39	C6H8NO3+
144.0671	24	C6H10NO3+
150.058	137	CH12NO7+
151.0406	172	C11H5N+
152.0696	40	C8H10NO2+
153.0364	28	C4H9O6+
154.0488	133	C7H8NO3+
155.0358	57	C10H5NO+
156.0645	49	C7H10NO3+
156.15	7	C10H20O+
158.0259	4	C9H4NO2+
160.0435	39	C2H10NO7+
161.0269	11	C2H9O8+
162.0415	8	C5H8NO5+
163.0388	5	C9H7O3+
164.0709	14	C9H10NO2+
166.0487	78	C8H8NO3+
167.0339	384	C8H7O4+
168.0631	221	C5H12O6+
168.1526	13	C11H20O+
169.0459	38	H11NO9+
170.0676	23	C4H12NO6+
170.1561	4	C10H20NO+
172.0615	96	C7H10NO4+
178.0562	103	C2H12NO8+
179.0349	169	C9H7O4+
180.053	12	C5H10NO6+
181.0587	4	C5H11NO6+
181.1479	1	C11H19NO+
182.0437	26	C8H8NO4+
182.1351	2	C7H20NO4+
183.0324	23	C11H5NO2+
184.0564	64	C5H12O7+
185.0473	5	C11H7NO2+
186.0714	62	C5H14O7+
188.0753	7	C4H14NO7+
196.0599	178	C9H10NO4+
197.0438	336	C9H9O5+
202.0254	4	C11H6O4+
202.0808	18	C9H14O5+
202.1463	2	C10H20NO3+
203.0523	2	C8H11O6+
204.0822	41	C5H16O8+
208.058	21	C7H12O7+
214.0725	166	C9H12NO5+
215.053	45	C9H11O6+
217.0903	6	C6H17O8+
218.0772	2	C9H14O6+
221.0353	2	C10H7NO5+
227.0306	7	C5H9NO9+
232.0805	177	C9H14NO6+
246.089	8	C7H18O9+
248.1303	2	C11H20O6+
250.0954	20	C9H16NO7+
256.0839	28	C11H14NO6+
274.0925	157	C11H16NO7+
292.1056	30	C11H18NO8+
