Mass spectrum: Para-hydroxy triphenyl phosphate; LC-ESI-QTOF; MS2; CE: 25eV; R=7000; [M+H]+
Name: Para-hydroxy triphenyl phosphate
Name: 4-Hydroxyphenyl diphenyl phosphate
Name: (4-hydroxyphenyl) diphenyl phosphate
Formula: C18H15O5P
Exact mass: 342.0657
SMILES: C1=CC=C(C=C1)OP(=O)(OC2=CC=CC=C2)OC3=CC=C(C=C3)O
InChI: InChI=1S/C18H15O5P/c19-15-11-13-18(14-12-15)23-24(20,21-16-7-3-1-4-8-16)22-17-9-5-2-6-10-17/h1-14,19H
Instrument: Agilent 6560 QTOF
Instrument type: LC-ESI-QTOF
Ms type: MS2
Ion mode: POSITIVE
Ionization: ESI
Fragmentation mode: CID
Collision energy: 25 eV
Resolution: 7000
Retention time: 0.148 min
Base peak: 343.0733
Precursor m/z: 343.073
Precursor type: [M+H]+
Precursor intensity: 122576.73
m/z	relative intensity	assigned
51.0237	56	C4H3+
65.039	403	C5H5+
77.0386	949	C6H5+
81.0322	41	C5H5O+
93.0336	175	C6H5O+
94.0404	73	C6H6O+
95.0485	56	C6H7O+
98.9821	29	H4O4P+
109.0287	767	C6H5O2+
110.034	23	C6H6O2+
115.0542	303	C9H7+
117.0356	24	C8H5O+
141.0096	184	C6H6O2P+
141.0697	949	C11H9+
142.0718	50	C4H15O3P+
151.0541	109	C12H7+
152.0618	357	C12H8+
153.0696	500	C12H9+
154.0724	37	C5H15O3P+
154.9884	102	C6H4O3P+
155.9972	193	C6H5O3P+
168.0573	199	C12H8O+
169.0644	402	C12H9O+
170.0712	54	C5H15O4P+
171.0807	54	C12H11O+
175.0147	87	C6H8O4P+
184.0505	37	C5H13O5P+
185.0578	43	C5H14O5P+
187.074	77	C5H16O5P+
191.0102	62	C6H8O5P+
202.0776	103	C16H10+
203.026	20	C11H8O2P+
203.0857	26	C16H11+
215.0249	433	C12H8O2P+
215.0851	25	C17H11+
216.031	40	C12H9O2P+
216.0932	42	C17H12+
217.099	58	C17H13+
226.0781	157	C18H10+
227.0838	104	C11H16O3P+
228.0921	24	C18H12+
231.0205	682	C12H8O3P+
233.0355	157	C12H10O3P+
244.0863	61	C18H12O+
245.0944	45	C18H13O+
249.0306	287	C12H10O4P+
250.036	57	C12H11O4P+
251.0468	295	C12H12O4P+
260.0808	20	C18H12O2+
267.0414	633	C12H12O5P+
268.0452	25	C12H13O5P+
307.0514	75	C18H12O3P+
343.073	999	C18H16O5P+
