Mass spectrum: 5-Hydroxy-2-ethylhexyl diphenyl phosphate; LC-ESI-QTOF; MS2; CE: 20eV; R=7000; [M+H]+
Name: 5-Hydroxy-2-ethylhexyl diphenyl phosphate
Name: 2-Ethyl-5-hydroxyhexyl diphenyl phosphate
Name: (2-ethyl-5-hydroxyhexyl) diphenyl phosphate
Formula: C20H27O5P
Exact mass: 378.1596
SMILES: CCC(CCC(C)O)COP(=O)(Oc1ccccc1)Oc2ccccc2
InChI: InChI=1S/C20H27O5P/c1-3-18(15-14-17(2)21)16-23-26(22,24-19-10-6-4-7-11-19)25-20-12-8-5-9-13-20/h4-13,17-18,21H,3,14-16H2,1-2H3
Instrument: Agilent 6560 QTOF
Instrument type: LC-ESI-QTOF
Ms type: MS2
Ion mode: POSITIVE
Ionization: ESI
Fragmentation mode: CID
Collision energy: 20 eV
Resolution: 7000
Retention time: 0.146 min
Base peak: 401.1512
Precursor m/z: 379.1669
Precursor type: [M+H]+
Precursor intensity: 87724.24
m/z	relative intensity	assigned
55.0542	21	C4H7+
69.0699	150	C5H9+
70.0766	6	C5H10+
77.0382	56	C6H5+
95.0494	10	C6H7O+
111.1168	12	C8H15+
129.1275	9	C8H17O+
152.0613	8	C12H8+
153.0693	44	C12H9+
157.0035	5	C6H6O3P+
175.0167	4	C13H3O+
215.0257	21	C12H8O2P+
233.0363	22	C12H10O3P+
251.0471	999	C12H12O4P+
252.0501	82	C12H13O4P+
