Mass spectrum: 2,2`-{Propane-2,2-diylbis[(4,1-phenylene)oxymethylene]}bis(oxirane); LC-ESI-QTOF; MS2; CE: 40eV; R=7000; [M+NH4]+
Name: 2,2`-{Propane-2,2-diylbis[(4,1-phenylene)oxymethylene]}bis(oxirane)
Name: Bisphenol A diglycidyl ether
Name: 2-[[4-[2-[4-(oxiran-2-ylmethoxy)phenyl]propan-2-yl]phenoxy]methyl]oxirane
Formula: C21H24O4
Exact mass: 340.1675
SMILES: CC(C)(C1=CC=C(C=C1)OCC2CO2)C3=CC=C(C=C3)OCC4CO4
InChI: InChI=1S/C21H24O4/c1-21(2,15-3-7-17(8-4-15)22-11-19-13-24-19)16-5-9-18(10-6-16)23-12-20-14-25-20/h3-10,19-20H,11-14H2,1-2H3
Instrument: Agilent 6560 QTOF
Instrument type: LC-ESI-QTOF
Ms type: MS2
Ion mode: POSITIVE
Ionization: ESI
Fragmentation mode: CID
Collision energy: 40 eV
Resolution: 7000
Column name: ZORBAX Extend-C18 3.5um, 2.1x50mm, Agilent Technologies
Retention time: 3.576 min
Base peak: 358.2011
Precursor m/z: 358.2013
Precursor type: [M+NH4]+
Precursor intensity: 46063.56
m/z	relative intensity	assigned
57.0345	108	C3H5O+
77.0396	92	C6H5+
79.054	90	C6H7+
91.0548	110	C7H7+
93.0681	23	C7H9+
95.0489	129	C6H7O+
105.0707	110	C8H9+
107.0493	923	C7H7O+
115.0544	56	C9H7+
117.0699	53	C9H9+
118.0759	17	C9H10+
119.0495	17	C8H7O+
119.0844	23	C9H11+
121.0676	19	C8H9O+
133.0637	80	C9H9O+
133.1024	21	C10H13+
135.0801	999	C9H11O+
145.0644	31	C10H9O+
147.0786	19	C10H11O+
161.0963	117	C11H13O+
178.0797	32	C14H10+
181.0622	24	C13H9O+
191.1067	132	C12H15O2+
206.1074	18	C16H14+
222.1	86	C16H14O+
