Mass spectrum: Triphenyl phosphate; LC-ESI-QTOF; MS2; CE: 50eV; R=7000; [M+H]+
Name: Triphenyl phosphate
Formula: C18H15O4P
Exact mass: 326.0708
SMILES: C1=CC=C(C=C1)OP(=O)(OC2=CC=CC=C2)OC3=CC=CC=C3
InChI: InChI=1S/C18H15O4P/c19-23(20-16-10-4-1-5-11-16,21-17-12-6-2-7-13-17)22-18-14-8-3-9-15-18/h1-15H
Instrument: Agilent 6560 QTOF
Instrument type: LC-ESI-QTOF
Ms type: MS2
Ion mode: POSITIVE
Ionization: ESI
Fragmentation mode: CID
Collision energy: 50 eV
Resolution: 7000
Retention time: 0.114 min
Base peak: 327.0783
Precursor m/z: 327.0781
Precursor type: [M+H]+
Precursor intensity: 52760.25
m/z	relative intensity	assigned
51.0233	376	C4H3+
65.039	35	C5H5+
75.0224	20	C6H3+
77.0386	999	C6H5+
115.0515	18	C2H12O3P+
126.0454	62	C10H6+
127.0541	30	C10H7+
138.9964	14	C6H4O2P+
139.0518	24	C4H12O3P+
150.045	32	C5H11O3P+
151.0548	141	C12H7+
152.0614	750	C12H8+
153.066	77	C5H14O3P+
168.0558	179	C12H8O+
175.013	13	C6H8O4P+
187.0307	17	C11H8OP+
188.0586	13	C8H13O3P+
202.0795	13	C16H10+
215.0232	34	C12H8O2P+
226.0773	71	C18H10+
