Mass spectrum: Triphenyl phosphate; LC-ESI-QTOF; MS2; CE: 5eV; R=7000; [M+H]+
Name: Triphenyl phosphate
Formula: C18H15O4P
Exact mass: 326.0708
SMILES: C1=CC=C(C=C1)OP(=O)(OC2=CC=CC=C2)OC3=CC=CC=C3
InChI: InChI=1S/C18H15O4P/c19-23(20-16-10-4-1-5-11-16,21-17-12-6-2-7-13-17)22-18-14-8-3-9-15-18/h1-15H
Instrument: Agilent 6560 QTOF
Instrument type: LC-ESI-QTOF
Ms type: MS2
Ion mode: POSITIVE
Ionization: ESI
Fragmentation mode: CID
Collision energy: 5 eV
Resolution: 7000
Retention time: 0.114 min
Base peak: 327.078
Precursor m/z: 327.0781
Precursor type: [M+H]+
Precursor intensity: 73441.89
m/z	relative intensity	assigned
51.0228	4	C4H3+
77.0387	11	C6H5+
152.0612	16	C12H8+
153.0699	13	C12H9+
168.0568	4	C12H8O+
215.0271	11	C12H8O2P+
228.0908	7	C18H12+
233.0378	12	C12H10O3P+
251.0479	6	C12H12O4P+
309.0676	3	C18H14O3P+
327.0781	999	C18H16O4P+
