Mass spectrum: 1,2-Dioleoyl-sn-glycero-3-phosphocholine; LC-ESI-QTOF; MS2; CE: 20eV; R=7000; [M+Na]+
Name: 1,2-Dioleoyl-sn-glycero-3-phosphocholine
Name: [(2R)-2,3-bis[[(Z)-octadec-9-enoyl]oxy]propyl] 2-(trimethylazaniumyl)ethyl phosphate
Formula: C44H84NO8P
Exact mass: 785.5935
SMILES: CCCCCCCC/C=C\CCCCCCCC(=O)OC[C@H](COP(=O)([O-])OCC[N+](C)(C)C)OC(=O)CCCCCCC/C=C\CCCCCCCC
InChI: InChI=1S/C44H84NO8P/c1-6-8-10-12-14-16-18-20-22-24-26-28-30-32-34-36-43(46)50-40-42(41-52-54(48,49)51-39-38-45(3,4)5)53-44(47)37-35-33-31-29-27-25-23-21-19-17-15-13-11-9-7-2/h20-23,42H,6-19,24-41H2,1-5H3/b22-20-,23-21-/t42-/m1/s1
Instrument: Agilent 6560 QTOF
Instrument type: LC-ESI-QTOF
Ms type: MS2
Ion mode: POSITIVE
Ionization: ESI
Fragmentation mode: CID
Collision energy: 20 eV
Resolution: 7000
Column name: Direct injection
Retention time: 0.239 min
Base peak: 786.6035
Precursor m/z: 808.5827
Precursor type: [M+Na]+
Precursor intensity: 70141
m/z	relative intensity	assigned
71.0721	20	C4H9N+
83.0853	3	C6H11+
86.0971	140	C5H12N+
87.0424	18	C2H8NaO2+
111.1157	8	C2H19NNaP+
146.981	130	C2H5NaO4P+
245.2296	9	C9H34NaO5+
467.2489	10	C22H38NNaO8+
504.3461	7	C33H46NO3+
526.3234	15	C35H45NOP+
535.4744	2	C37H61NO+
551.5043	5	C31H70NO4P+
603.5347	38	C39H71O4+
625.5188	238	C41H69O4+
626.0024	14	C39H7NaO8+
626.5248	25	C35H74NNaO4P+
645.236	9	C39H35NO8+
735.3153	7	C44H48O8P+
749.5114	313	C43H74O8P+
750.5166	89	C41H76NaO8P+
808.5837	999	C44H84NNaO8P+
