Mass spectrum: Estrone; LC-ESI-QTOF; MS2; CE: 10eV; R=7000; [M-H]-
Name: Estrone
Name: (8R,9S,13S,14S)-3-hydroxy-13-methyl-7,8,9,11,12,14,15,16-octahydro-6H-cyclopenta[a]phenanthren-17-one
Formula: C18H22O2
Exact mass: 270.1620
SMILES: C[C@]12CC[C@H]3[C@H]([C@@H]1CCC2=O)CCC4=C3C=CC(=C4)O
InChI: InChI=1S/C18H22O2/c1-18-9-8-14-13-5-3-12(19)10-11(13)2-4-15(14)16(18)6-7-17(18)20/h3,5,10,14-16,19H,2,4,6-9H2,1H3/t14-,15-,16+,18+/m1/s1
Instrument: Agilent 6560 QTOF
Instrument type: LC-ESI-QTOF
Ms type: MS2
Ion mode: NEGATIVE
Ionization: ESI
Fragmentation mode: CID
Collision energy: 10 eV
Resolution: 7000
Column name: N/A
Retention time: 0.164 min
Base peak: 980.0164
Precursor m/z: 269.1547
Precursor type: [M-H]-
Precursor intensity: 177440
m/z	relative intensity	assigned
143.0493	2	C10H7O-
145.0652	24	C10H9O-
184.088	5	C13H12O-
253.1282	2	C17H17O2-
267.1365	2	C18H19O2-
269.1551	999	C18H21O2-
