Mass spectrum: Di-n-butyl sebacate; LC-ESI-QTOF; MS2; CE: 35eV; R=7000; [M+H]+
Name: Di-n-butyl sebacate
Name: Dibutyl sebacate
Name: dibutyl decanedioate
Formula: C18H34O4
Exact mass: 314.2457
SMILES: CCCCOC(=O)CCCCCCCCC(=O)OCCCC
InChI: InChI=1S/C18H34O4/c1-3-5-15-21-17(19)13-11-9-7-8-10-12-14-18(20)22-16-6-4-2/h3-16H2,1-2H3
Instrument: Agilent 6560 QTOF
Instrument type: LC-ESI-QTOF
Ms type: MS2
Ion mode: POSITIVE
Ionization: ESI
Fragmentation mode: CID
Collision energy: 35 eV
Resolution: 7000
Retention time: 0.146 min
Base peak: 337.2369
Precursor m/z: 315.253
Precursor type: [M+H]+
Precursor intensity: 41917.65
m/z	relative intensity	assigned
55.0545	668	C4H7+
57.0333	24	C3H5O+
57.0702	79	C4H9+
67.0546	127	C5H7+
69.0329	51	C4H5O+
69.07	999	C5H9+
71.0492	30	C4H7O+
73.0637	41	C4H9O+
77.0384	48	C6H5+
79.0543	424	C6H7+
81.0693	242	C6H9+
83.0486	53	C5H7O+
91.0544	88	C7H7+
93.0694	446	C7H9+
95.0862	291	C7H11+
97.0644	200	C6H9O+
97.1011	119	C7H13+
107.0841	35	C8H11+
119.0828	30	C9H11+
121.1002	100	C9H13+
123.0794	25	C8H11O+
139.1121	148	C9H15O+
