Mass spectrum: N-oleoyl-D-erythro-sphingosine; LC-ESI-QTOF; MS2; CE: 20eV; R=7000; [M+H]+
Name: N-oleoyl-D-erythro-sphingosine
Name: N-(oleoyl)-ceramide
Name: (Z)-N-[(E,2S,3R)-1,3-dihydroxyoctadec-4-en-2-yl]octadec-9-enamide
Formula: C36H69NO3
Exact mass: 563.5277
SMILES: CCCCCCCCCCCCC/C=C/[C@H]([C@H](CO)NC(=O)CCCCCCC/C=C\CCCCCCCC)O
InChI: InChI=1S/C36H69NO3/c1-3-5-7-9-11-13-15-17-18-20-22-24-26-28-30-32-36(40)37-34(33-38)35(39)31-29-27-25-23-21-19-16-14-12-10-8-6-4-2/h17-18,29,31,34-35,38-39H,3-16,19-28,30,32-33H2,1-2H3,(H,37,40)/b18-17-,31-29+/t34-,35+/m0/s1
Instrument: Agilent 6560 QTOF
Instrument type: LC-ESI-QTOF
Ms type: MS2
Ion mode: POSITIVE
Ionization: ESI
Fragmentation mode: CID
Collision energy: 20 eV
Resolution: 7000
Column name: Direct injection
Retention time: 0.185 min
Base peak: 586.5185
Precursor m/z: 564.535
Precursor type: [M+H]+
Precursor intensity: 285727
m/z	relative intensity	assigned
70.0641	3	C4H8N+
71.087	5	C5H11+
81.0701	6	C6H9+
82.0653	11	C5H8N+
83.0849	1	C6H11+
85.1032	1	C6H13+
99.0796	1	C6H11O+
109.1008	7	C8H13+
111.1163	2	C8H15+
121.0998	6	C9H13+
123.1152	2	C9H15+
131.0681	2	C6H11O3+
135.1159	2	C10H15+
149.1311	4	C11H17+
163.1474	3	C12H19+
198.1812	2	C12H24NO+
209.1902	2	C14H25O+
211.2033	1	C14H27O+
211.2496	2	C11H33NO2+
247.2444	3	C18H31+
252.2691	92	C17H34N+
253.2734	2	C14H37O3+
264.2691	999	C18H34N+
265.2721	75	C15H37O3+
266.2824	2	C15H38O3+
282.2791	142	C18H36NO+
283.2832	12	C18H37NO+
300.2723	1	C21H34N+
307.2593	3	C20H35O2+
413.9982	1	C32NO+
453.9946	3	C34NO2+
511.4917	1	C32H65NO3+
516.5158	17	C35H66NO+
517.5135	1	C35H67NO+
528.5141	11	C36H66NO+
529.5159	4	C36H67NO+
546.5251	62	C36H68NO2+
547.5247	8	C36H69NO2+
