Mass spectrum: Tri-m-tolyl phosphate; LC-ESI-QTOF; MS2; CE: 50eV; R=7000; [M+H]+
Name: Tri-m-tolyl phosphate
Name: Tri-M-cresyl phosphate
Name: tris(3-methylphenyl) phosphate
Formula: C21H21O4P
Exact mass: 368.1177
SMILES: CC1=CC(=CC=C1)OP(=O)(OC2=CC=CC(=C2)C)OC3=CC=CC(=C3)C
InChI: InChI=1S/C21H21O4P/c1-16-7-4-10-19(13-16)23-26(22,24-20-11-5-8-17(2)14-20)25-21-12-6-9-18(3)15-21/h4-15H,1-3H3
Instrument: Agilent 6560 QTOF
Instrument type: LC-ESI-QTOF
Ms type: MS2
Ion mode: POSITIVE
Ionization: ESI
Fragmentation mode: CID
Collision energy: 50 eV
Resolution: 7000
Retention time: 0.110 min
Base peak: 369.1254
Precursor m/z: 369.125
Precursor type: [M+H]+
Precursor intensity: 239553.98
m/z	relative intensity	assigned
63.0231	31	C5H3+
65.0388	671	C5H5+
74.0142	3	C6H2+
77.039	46	C6H5+
79.0539	16	C6H7+
89.0394	8	C7H5+
90.0461	5	C7H6+
91.0542	661	C7H7+
92.0576	21	H13O3P+
94.0414	3	C6H6O+
106.0406	4	C7H6O+
107.0487	19	C7H7O+
109.0652	8	C7H9O+
115.0538	27	C9H7+
129.0674	4	C3H14O3P+
133.021	3	C8H6P+
139.0533	7	C11H7+
141.0692	35	C11H9+
151.053	4	C5H12O3P+
152.0614	46	C12H8+
153.0087	6	C7H6O2P+
153.0694	35	C12H9+
154.0753	6	C5H15O3P+
163.0545	6	C13H7+
164.062	33	C13H8+
165.0699	999	C13H9+
166.0757	107	C6H15O3P+
167.0822	5	C6H16O3P+
169.0996	4	C6H18O3P+
176.0605	4	C7H13O3P+
177.0706	8	C14H9+
178.077	71	C14H10+
179.0836	28	C7H16O3P+
180.0923	11	C14H12+
181.0639	51	C13H9O+
182.0684	4	C6H15O4P+
194.0711	3	C7H15O4P+
195.08	138	C14H11O+
196.0879	41	C14H12O+
197.0938	5	C7H18O4P+
200.0382	7	C12H9OP+
213.0475	6	C13H10OP+
215.0836	8	C10H16O3P+
226.0767	11	C18H10+
228.0911	7	C11H17O3P+
239.0863	43	C19H11+
240.0925	22	C19H12+
241.1018	13	C19H13+
243.0582	3	C14H12O2P+
253.1016	10	C20H13+
254.1078	5	C20H14+
255.1166	5	C20H15+
