Mass spectrum: 3,5-Ditert-butyl-4-hydroxybenzaldehyde; LC-ESI-QTOF; MS2; CE: 55eV; R=7000; [M+H]+
Name: 3,5-Ditert-butyl-4-hydroxybenzaldehyde
Name: 3,5-Di-tert-butyl-4-hydroxybenzaldehyde
Formula: C15H22O2
Exact mass: 234.162
SMILES: CC(C)(C)C1=CC(=CC(=C1O)C(C)(C)C)C=O
InChI: InChI=1S/C15H22O2/c1-14(2,3)11-7-10(9-16)8-12(13(11)17)15(4,5)6/h7-9,17H,1-6H3
Instrument: Agilent 6560 QTOF
Instrument type: LC-ESI-QTOF
Ms type: MS2
Ion mode: POSITIVE
Ionization: ESI
Fragmentation mode: CID
Collision energy: 55 eV
Resolution: 7000
Column name: ZORBAX Extend-C18 3.5um, 2.1x50mm, Agilent Technologies
Retention time: 5.518 min
Base peak: 235.1693
Precursor m/z: 235.1693
Precursor type: [M+H]+
Precursor intensity: 2505.14
m/z	relative intensity	assigned
57.0706	999	C4H9+
91.0549	419	C7H7+
95.0478	366	C6H7O+
103.0533	426	C8H7+
