Mass spectrum: gamma-Linolenic acid; LC-ESI-QTOF; MS2; CE: 20eV; R=7000; [M-H]-
Name: gamma-Linolenic acid
Name: (6Z,9Z,12Z)-octadeca-6,9,12-trienoic acid
Formula: C18H30O2
Exact mass: 278.2246
SMILES: CCCCC\C=C/C\C=C/C\C=C/CCCCC(O)=O
InChI: InChI=1S/C18H30O2/c1-2-3-4-5-6-7-8-9-10-11-12-13-14-15-16-17-18(19)20/h6-7,9-10,12-13H,2-5,8,11,14-17H2,1H3,(H,19,20)/b7-6-,10-9-,13-12-
Instrument: Agilent 6560 QTOF
Instrument type: LC-ESI-QTOF
Ms type: MS2
Ion mode: NEGATIVE
Ionization: ESI
Fragmentation mode: CID
Collision energy: 20 eV
Resolution: 7000
Column name: N/A
Retention time: 0.166 min
Base peak: 357.1896
Precursor m/z: 277.2173
Precursor type: [M-H]-
Precursor intensity: 13136
m/z	relative intensity	assigned
98.0155	29	C8H2-
191.1054	54	C12H15O2-
205.1945	156	C15H25-
231.1733	56	C16H23O-
233.1577	165	C15H21O2-
233.2331	92	C17H29-
277.2174	999	C18H29O2-
