Mass spectrum: Bis(2-butoxyethyl) 3?-hydroxy-2-butoxyethyl phosphate ; LC-ESI-QTOF; MS2; CE: 35eV; R=7000; [M+H]+
Name: Bis(2-butoxyethyl) 3?-hydroxy-2-butoxyethyl phosphate 
Name: Bis(2-butoxyethyl) 3-hydroxyl-2-butoxyethyl phosphate
Name: bis(2-butoxyethyl) 2-(3-hydroxybutoxy)ethyl phosphate
Formula: C18H39O8P
Exact mass: 414.2383
SMILES: CCCCOCCOP(=O)(OCCOCCCC)OCCOCCC(C)O
InChI: InChI=1S/C18H39O8P/c1-4-6-9-21-12-15-24-27(20,25-16-13-22-10-7-5-2)26-17-14-23-11-8-18(3)19/h18-19H,4-17H2,1-3H3
Instrument: Agilent 6560 QTOF
Instrument type: LC-ESI-QTOF
Ms type: MS2
Ion mode: POSITIVE
Ionization: ESI
Fragmentation mode: CID
Collision energy: 35 eV
Resolution: 7000
Retention time: 0.150 min
Base peak: 415.2487
Precursor m/z: 415.2455
Precursor type: [M+H]+
Precursor intensity: 169407.1
m/z	relative intensity	assigned
53.0386	16	C4H5+
55.0547	999	C4H7+
57.0706	810	C4H9+
59.0493	47	C3H7O+
69.0703	20	C5H9+
71.0495	89	C4H7O+
73.065	70	C4H9O+
79.0535	3	C6H7+
80.9734	13	H2O3P+
81.07	39	C6H9+
83.0859	38	C6H11+
89.0603	6	C4H9O2+
98.9844	574	H4O4P+
101.0959	7	C6H13O+
122.9828	7	C2H4O4P+
124.9998	197	C2H6O4P+
143.0109	46	C2H8O5P+
155.0105	5	C3H8O5P+
