Mass spectrum: 1-(9Z-octadecenoyl)-sn-glycero-3-phosphoethanolamine; LC-ESI-QTOF; MS2; CE: 40eV; R=7000; [M+Na]+
Name: 1-(9Z-octadecenoyl)-sn-glycero-3-phosphoethanolamine
Name: [(2R)-3-[2-aminoethoxy(hydroxy)phosphoryl]oxy-2-hydroxypropyl] (Z)-octadec-9-enoate
Formula: C23H46NO7P
Exact mass: 479.3012
SMILES: CCCCCCCC/C=C\CCCCCCCC(=O)OC[C@H](COP(=O)([O-])OCC[NH3+])O
InChI: InChI=1S/C23H46NO7P/c1-2-3-4-5-6-7-8-9-10-11-12-13-14-15-16-17-23(26)29-20-22(25)21-31-32(27,28)30-19-18-24/h9-10,22,25H,2-8,11-21,24H2,1H3,(H,27,28)/b10-9-/t22-/m1/s1
Instrument: Agilent 6560 QTOF
Instrument type: LC-ESI-QTOF
Ms type: MS2
Ion mode: POSITIVE
Ionization: ESI
Fragmentation mode: CID
Collision energy: 40 eV
Resolution: 7000
Column name: Direct injection
Retention time: 0.209 min
Base peak: 480.3103
Precursor m/z: 502.2904
Precursor type: [M+Na]+
Precursor intensity: 4564
m/z	relative intensity	assigned
81.0691	541	C6H9+
83.0839	478	H15NNaP+
93.0683	364	CH13NNaP+
95.0841	570	CH15NNaP+
109.1021	543	C4H16NP+
121.1003	199	C9H13+
145.9842	581	C4H2O6+
194.9999	999	C12H4OP+
205.1812	169	C7H28NO3P+
255.2367	247	C3H39NNaO7P+
256.9638	172	C13HNNaO2P+
321.2821	126	C12H42NaO7+
441.2365	473	C21H39NaO6P+
