Mass spectrum: Tri-p-tolyl phosphate; LC-ESI-QTOF; MS2; CE: 40eV; R=7000; [M+H]+
Name: Tri-p-tolyl phosphate
Name: Tricresyl phosphate
Name: tris(4-methylphenyl) phosphate
Formula: C21H21O4P
Exact mass: 368.1177
SMILES: CC1=CC=C(C=C1)OP(=O)(OC2=CC=C(C=C2)C)OC3=CC=C(C=C3)C
InChI: InChI=1S/C21H21O4P/c1-16-4-10-19(11-5-16)23-26(22,24-20-12-6-17(2)7-13-20)25-21-14-8-18(3)9-15-21/h4-15H,1-3H3
Instrument: Agilent 6560 QTOF
Instrument type: LC-ESI-QTOF
Ms type: MS2
Ion mode: POSITIVE
Ionization: ESI
Fragmentation mode: CID
Collision energy: 40 eV
Resolution: 7000
Retention time: 0.109 min
Base peak: 369.1248
Precursor m/z: 369.125
Precursor type: [M+H]+
Precursor intensity: 223567.77
m/z	relative intensity	assigned
57.0686	6	C4H9+
63.0241	10	C5H3+
65.0388	243	C5H5+
77.0388	78	C6H5+
79.0541	158	C6H7+
90.0456	18	C7H6+
91.0543	999	C7H7+
93.0707	5	C7H9+
103.0548	5	C8H7+
105.0697	6	C8H9+
107.0489	230	C7H7O+
108.0564	13	C7H8O+
109.0633	41	H14O4P+
115.0541	12	C9H7+
119.0841	4	C2H16O3P+
128.0634	5	C10H8+
129.0689	8	C10H9+
141.0695	45	C11H9+
142.077	6	C4H15O3P+
152.0602	15	C5H13O3P+
153.01	19	C7H6O2P+
153.0689	19	C12H9+
154.0152	18	C7H7O2P+
154.0748	10	C5H15O3P+
164.0607	10	C6H13O3P+
165.07	902	C13H9+
166.0769	536	C13H10+
167.0808	61	C6H16O3P+
171.0193	10	C7H8O3P+
177.07	4	C14H9+
178.0768	31	C14H10+
179.0851	62	C14H11+
180.0922	27	C14H12+
181.0631	21	C6H14O4P+
181.1008	9	C14H13+
182.0693	7	C6H15O4P+
184.0877	5	C13H12O+
187.019	8	C7H8O4P+
189.0314	14	C7H10O4P+
190.0771	5	C15H10+
195.0795	39	C14H11O+
196.0871	152	C14H12O+
200.0371	7	C12H9OP+
215.0616	16	C13H12OP+
216.0658	6	C13H13OP+
240.0922	32	C19H12+
241.1005	66	C19H13+
242.1048	13	C12H19O3P+
243.057	184	C14H12O2P+
244.059	22	C14H13O2P+
255.1148	26	C13H20O3P+
256.1234	41	C13H21O3P+
257.1261	6	C13H22O3P+
261.0672	15	C14H14O3P+
279.078	47	C14H16O4P+
280.0807	4	C14H17O4P+
