Mass spectrum: Phylloquinone; LC-ESI-QTOF; MS2; CE: 10eV; R=7000; [M-H]-
Name: Phylloquinone
Name: Vitamin K1
Name: 2-methyl-3-[(E,7R,11R)-3,7,11,15-tetramethylhexadec-2-enyl]naphthalene-1,4-dione
Formula: C31H46O2
Exact mass: 450.3498
SMILES: CC(C)CCC[C@@H](C)CCC[C@@H](C)CCC\C(C)=C\CC1=C(C)C(=O)C2=C(C=CC=C2)C1=O
InChI: InChI=1S/C31H46O2/c1-22(2)12-9-13-23(3)14-10-15-24(4)16-11-17-25(5)20-21-27-26(6)30(32)28-18-7-8-19-29(28)31(27)33/h7-8,18-20,22-24H,9-17,21H2,1-6H3/b25-20+/t23-,24-/m1/s1
Instrument: Agilent 6560 QTOF
Instrument type: LC-ESI-QTOF
Ms type: MS2
Ion mode: NEGATIVE
Ionization: ESI
Fragmentation mode: CID
Collision energy: 10 eV
Resolution: 7000
Column name: N/A
Retention time: 0.285 min
Base peak: 255.2331
Precursor m/z: 449.3425
Precursor type: [M-H]-
Precursor intensity: 27562
m/z	relative intensity	assigned
405.2558	316	C31H33-
430.1936	58	C31H26O2-
449.3414	999	C31H45O2-
