Mass spectrum: N-palmitoyl-D-erythro-sphinganine; LC-ESI-QTOF; MS2; CE: 10eV; R=7000; [M+H]+
Name: N-palmitoyl-D-erythro-sphinganine
Name: N-(hexadecanoyl)-sphinganine
Name: N-[(2S,3R)-1,3-dihydroxyoctadecan-2-yl]hexadecanamide
Formula: C34H69NO3
Exact mass: 539.5277
SMILES: CCCCCCCCCCCCCCC[C@H]([C@H](CO)NC(=O)CCCCCCCCCCCCCCC)O
InChI: InChI=1S/C34H69NO3/c1-3-5-7-9-11-13-15-17-19-21-23-25-27-29-33(37)32(31-36)35-34(38)30-28-26-24-22-20-18-16-14-12-10-8-6-4-2/h32-33,36-37H,3-31H2,1-2H3,(H,35,38)/t32-,33+/m0/s1
Instrument: Agilent 6560 QTOF
Instrument type: LC-ESI-QTOF
Ms type: MS2
Ion mode: POSITIVE
Ionization: ESI
Fragmentation mode: CID
Collision energy: 10 eV
Resolution: 7000
Column name: Direct injection
Retention time: 0.155 min
Base peak: 540.5366
Precursor m/z: 540.535
Precursor type: [M+H]+
Precursor intensity: 584643
m/z	relative intensity	assigned
70.0637	6	CH10O3+
71.0486	2	C4H7O+
81.0703	17	C6H9+
84.0796	1	C5H10N+
85.0656	1	C5H9O+
89.0601	5	C4H9O2+
95.0863	6	C7H11+
98.0962	2	C6H12N+
109.101	15	C8H13+
111.1178	7	C8H15+
123.1165	3	C9H15+
125.1314	1	C9H17+
172.1657	4	C10H22NO+
212.2356	1	C11H32O3+
240.27	4	C16H34N+
249.2531	3	C18H33+
252.2673	1	C17H34N+
254.2811	5	C14H38O3+
256.2637	83	C16H34NO+
257.2695	1	C16H35NO+
266.2835	58	C18H36N+
267.2878	6	C15H39O3+
267.3108	2	C15H41NO2+
280.267	1	C18H34NO+
284.2951	171	C18H38NO+
285.2963	9	C18H39NO+
302.3055	69	C18H40NO2+
303.3052	5	C22H39+
327.2005	1	C24H25N+
436.0089	1	C31H2NO3+
438.3452	2	C30H46O2+
466.1875	1	C34H26O2+
504.512	34	C34H66NO+
505.5189	13	C34H67NO+
522.526	999	C34H68NO2+
523.5289	200	C34H69NO2+
528.5417	1	C33H70NO3+
540.5358	741	C34H70NO3+
