Mass spectrum: CYSTINE; LC-ESI-QTOF; MS2; CE: 20eV; R=5000; [M+H]+
Name: CYSTINE
Name: L-cystine
Name: (2R)-2-amino-3-[[(2R)-2-amino-2-carboxyethyl]disulfanyl]propanoic acid
Formula: C6H12N2O4S2
Exact mass: 240.0238
SMILES: N[C@@H](CSSC[C@H](N)C(O)=O)C(O)=O
InChI: InChI=1S/C6H12N2O4S2/c7-3(5(9)10)1-13-14-2-4(8)6(11)12/h3-4H,1-2,7-8H2,(H,9,10)(H,11,12)/t3-,4-/m0/s1
Instrument: Agilent 6530 QTOF
Instrument type: LC-ESI-QTOF
Ms type: MS2
Ion mode: POSITIVE
Ionization: ESI
Fragmentation mode: CID
Collision energy: 20 eV
Resolution: 5000
Column name: N/A
Retention time: 0.216 min
Base peak: 121.0508
Precursor m/z: 241.0311
Precursor type: [M+H]+
Precursor intensity: 110325
m/z	relative intensity	assigned
46.0287	24	CH4NO+
47.9851	6	O3+
56.0469	9	H8O3+
70.0298	12	C3H4NO+
74.0193	999	C3H6S+
75.0467	2	H11O2S+
75.1043	1	C4H13N+
76.0227	35	C2H6NS+
86.9885	49	C3H3OS+
88.0386	17	C3H6NO2+
89.0276	5	H9O3S+
92.0131	9	C5H2NO+
104.9967	29	C6HO2+
108.0898	11	C3H12N2O2+
113.965	7	C3NO2S+
120.0092	648	C6H2NO2+
122.0242	254	C6H4NO2+
124.0703	2	C4H12O4+
124.9809	1	C4HN2OS+
128.0635	3	C2H12N2O2S+
138.0141	7	C4H10OS2+
151.9799	146	C6H2NO2S+
156.0133	3	C3H10NO2S2+
