Mass spectrum: Lithocholyltaurine; LC-ESI-QTOF; MS2; CE: 20eV; R=7000; [M-H2O+H]+
Name: Lithocholyltaurine
Name: Taurolithocholic acid
Name: 2-[[(4R)-4-[(3R,5R,8R,9S,10S,13R,14S,17R)-3-hydroxy-10,13-dimethyl-2,3,4,5,6,7,8,9,11,12,14,15,16,17-tetradecahydro-1H-cyclopenta[a]phenanthren-17-yl]pentanoyl]amino]ethanesulfonic acid
Formula: C26H45NO5S
Exact mass: 483.3018
SMILES: [H][C@@]1(CC[C@@]2([H])[C@]3([H])CC[C@]4([H])C[C@H](O)CC[C@]4(C)[C@@]3([H])CC[C@]12C)[C@H](C)CCC(=O)NCCS(O)(=O)=O
InChI: InChI=1S/C26H45NO5S/c1-17(4-9-24(29)27-14-15-33(30,31)32)21-7-8-22-20-6-5-18-16-19(28)10-12-25(18,2)23(20)11-13-26(21,22)3/h17-23,28H,4-16H2,1-3H3,(H,27,29)(H,30,31,32)/t17-,18-,19-,20+,21-,22+,23+,25+,26-/m1/s1
Instrument: Agilent 6560 QTOF
Instrument type: LC-ESI-QTOF
Ms type: MS2
Ion mode: POSITIVE
Ionization: ESI
Fragmentation mode: CID
Collision energy: 20 eV
Resolution: 7000
Column name: Direct injection
Retention time: 0.183 min
Base peak: 415.2129
Precursor m/z: 466.2986
Precursor type: [M-H2O+H]+
Precursor intensity: 95467
m/z	relative intensity	assigned
79.0543	73	C6H7+
81.0697	211	C6H9+
83.0841	103	C6H11+
93.0682	65	C7H9+
95.0843	186	C7H11+
97.103	39	C4H17S+
102.0885	32	C2H14O4+
107.0847	67	C8H11+
109.1008	139	C8H13+
121.1006	233	C9H13+
122.1016	40	C5H16NS+
123.08	80	C8H11O+
123.1143	69	C9H15+
126.0215	855	C2H8NO3S+
131.0829	43	C10H11+
133.1014	144	C10H13+
135.0799	66	C9H11O+
135.1156	431	C10H15+
136.1184	17	C6H18NS+
137.0966	33	C9H13O+
137.1322	17	C10H17+
145.1013	78	C11H13+
147.1172	82	C11H15+
149.1291	21	C11H17+
159.1161	65	C12H15+
160.1174	13	C8H18NS+
161.1299	89	C12H17+
162.1329	33	C8H20NS+
163.1101	74	C11H15O+
163.148	141	C12H19+
164.1142	25	C7H18NOS+
166.159	40	C11H20N+
173.132	22	C13H17+
175.1452	7	C13H19+
177.1268	228	C12H17O+
177.1635	84	C13H21+
178.1313	69	C12H18O+
178.1635	80	C9H24NS+
179.1402	15	C12H19O+
180.0307	53	C8H6NO4+
184.1645	33	C8H24O4+
185.132	20	C14H17+
187.1478	54	C14H19+
188.1526	24	C14H20+
189.1625	95	C14H21+
191.1407	34	C13H19O+
199.1515	59	C12H23S+
201.1633	69	C15H21+
203.1761	79	C15H23+
205.1592	36	C14H21O+
206.0448	47	C10H8NO4+
208.0615	145	C10H10NO4+
213.1624	94	C16H21+
215.1798	92	C16H23+
219.1726	42	C15H23O+
219.2376	23	C10H35O2S+
222.0771	30	C11H12NO4+
225.1624	35	C17H21+
227.1287	13	C12H19O4+
227.1783	90	C17H23+
228.236	29	C11H34NOS+
229.1986	66	C14H29S+
231.1747	43	C16H23O+
232.1781	21	C16H24O+
233.221	31	C13H31NS+
243.2119	17	C18H27+
245.1892	69	C17H25O+
245.2247	42	C18H29+
259.2038	51	C18H27O+
260.093	63	C14H14NO4+
262.1092	72	C11H20NO4S+
276.1335	14	C16H20O4+
283.2583	82	C14H37NO2S+
287.2777	40	C18H39S+
288.1287	125	C13H22NO4S+
290.0302	39	C17H8NO2S+
290.1409	141	C13H24NO4S+
299.2342	52	C21H31O+
299.2666	45	C18H37NS+
302.1409	90	C14H24NO4S+
304.1537	43	C17H22NO4+
305.163	84	C17H23NO4+
313.2833	54	C19H39NS+
316.1588	92	C15H26NO4S+
317.1609	32	C18H23NO4+
318.1727	12	C15H28NO4S+
319.1799	29	C15H29NO4S+
323.2732	454	C24H35+
324.2748	44	C20H38NS+
330.1733	80	C16H28NO4S+
341.2854	539	C24H37O+
342.2908	32	C24H38O+
344.1846	36	C20H26NO4+
345.1849	20	C24H25O2+
352.1891	38	C22H26NO3+
356.1866	37	C21H26NO4+
366.3353	38	C23H44NO2+
367.1516	40	C26H23S+
370.2038	77	C19H32NO4S+
384.221	73	C20H34NO4S+
385.1783	33	C26H25O3+
386.2961	12	C26H42S+
400.2501	28	C21H38NO4S+
466.2997	999	C26H44NO4S+
