Mass spectrum: Tributyl acetylcitrate; LC-ESI-QTOF; MS2; CE: 25eV; R=7000; [M+Na]+
Name: Tributyl acetylcitrate
Name: Acetyl tributyl citrate
Name: tributyl 2-acetyloxypropane-1,2,3-tricarboxylate
Formula: C20H34O8
Exact mass: 402.2254
SMILES: CCCCOC(=O)CC(CC(=O)OCCCC)(C(=O)OCCCC)OC(=O)C
InChI: InChI=1S/C20H34O8/c1-5-8-11-25-17(22)14-20(28-16(4)21,19(24)27-13-10-7-3)15-18(23)26-12-9-6-2/h5-15H2,1-4H3
Instrument: Agilent 6560 QTOF
Instrument type: LC-ESI-QTOF
Ms type: MS2
Ion mode: POSITIVE
Ionization: ESI
Fragmentation mode: CID
Collision energy: 25 eV
Resolution: 7000
Retention time: 0.147 min
Base peak: 425.2174
Precursor m/z: 425.2146
Precursor type: [M+Na]+
Precursor intensity: 72534.31
m/z	relative intensity	assigned
95.0853	11	C7H11+
111.0076	11	C5H3O3+
129.0195	11	C5H5O4+
139.0023	49	C6H3O4+
181.0835	37	C8H14NaO3+
207.0626	190	C9H12NaO4+
215.0872	19	C17H11+
225.0733	23	C9H14NaO5+
281.1354	469	C13H22NaO5+
282.1397	52	C20H19Na+
309.1311	156	C14H22NaO6+
327.142	86	C14H24NaO7+
328.1438	15	C14H25NaO7+
365.1933	999	C18H30NaO6+
366.1958	104	C18H31NaO6+
369.1512	58	C16H26NaO8+
370.1546	11	C16H27NaO8+
383.2051	36	C18H32NaO7+
425.2143	824	C20H34NaO8+
