Mass spectrum: SPHINGOMYELIN; LC-ESI-QTOF; MS2; CE: 10eV; R=5000; [M+H]+
Name: SPHINGOMYELIN
Name: N-(octadecanoyl)-sphing-4-enine-1-phosphocholine
Name: [(E,2S,3R)-3-hydroxy-2-(octadecanoylamino)octadec-4-enyl] 2-(trimethylazaniumyl)ethyl phosphate
Formula: C41H83N2O6P
Exact mass: 730.5989
SMILES: C[N+](C)(C)CCOP([O-])(=O)OC[C@H](NC(=O)CCCCCCCCCCCCCCCCC)[C@H](O)\C=C\CCCCCCCCCCCCC
InChI: InChI=1S/C41H83N2O6P/c1-6-8-10-12-14-16-18-20-21-23-25-27-29-31-33-35-41(45)42-39(38-49-50(46,47)48-37-36-43(3,4)5)40(44)34-32-30-28-26-24-22-19-17-15-13-11-9-7-2/h32,34,39-40,44H,6-31,33,35-38H2,1-5H3,(H-,42,45,46,47)/b34-32+/t39-,40+/m0/s1
Instrument: Agilent 6560 QTOF
Instrument type: LC-ESI-QTOF
Ms type: MS2
Ion mode: POSITIVE
Ionization: ESI
Fragmentation mode: CID
Collision energy: 10 eV
Resolution: 5000
Column name: N/A
Retention time: 17.709 min
Base peak: 388.3953
Precursor m/z: 731.6062
Precursor type: [M+H]+
Precursor intensity: 90286
m/z	relative intensity	assigned
86.0963	27	C5H12N+
104.1075	20	CH17N2OP+
125.0011	10	C2H6O4P+
184.0729	999	C9H12O4+
185.0762	57	C4H13N2O6+
197.6303	1	C3H83NO4+
265.286	5	C12H42O3P+
507.29	2	C31H42NO3P+
679.3876	1	C39H56N2O6P+
713.6029	11	C41H82N2O5P+
714.6028	4	C41H83N2O5P+
731.6098	54	C41H84N2O6P+
