Mass spectrum: Elaidic acid; LC-ESI-QTOF; MS2; CE: 20eV; R=7000; [M-H]-
Name: Elaidic acid
Name: (E)-octadec-9-enoic acid
Formula: C18H34O2
Exact mass: 282.2559
SMILES: CCCCCCCC\C=C\CCCCCCCC(O)=O
InChI: InChI=1S/C18H34O2/c1-2-3-4-5-6-7-8-9-10-11-12-13-14-15-16-17-18(19)20/h9-10H,2-8,11-17H2,1H3,(H,19,20)/b10-9+
Instrument: Agilent 6560 QTOF
Instrument type: LC-ESI-QTOF
Ms type: MS2
Ion mode: NEGATIVE
Ionization: ESI
Fragmentation mode: CID
Collision energy: 20 eV
Resolution: 7000
Column name: N/A
Retention time: 0.169 min
Base peak: 281.2495
Precursor m/z: 281.2486
Precursor type: [M-H]-
Precursor intensity: 75708
m/z	relative intensity	assigned
123.0812	13	C8H11O-
191.0535	7	C14H7O-
281.2492	999	C18H33O2-
