Mass spectrum: 1-hexadecanoyl-2--(5Z,8Z,11Z,14Z-eicosatetraenoyl)-sn-glycero-3-phosphocholine; LC-ESI-QTOF; MS2; CE: 10eV; R=7000; [M+Na]+
Name: 1-hexadecanoyl-2--(5Z,8Z,11Z,14Z-eicosatetraenoyl)-sn-glycero-3-phosphocholine
Name: PC(16:0/20:4(5Z,8Z,11Z,14Z))
Name: [(2R)-3-hexadecanoyloxy-2-[(5Z,8Z,11Z,14Z)-icosa-5,8,11,14-tetraenoyl]oxypropyl] 2-(trimethylazaniumyl)ethyl phosphate
Formula: C44H80NO8P
Exact mass: 781.5622
SMILES: CCCCCCCCCCCCCCCC(=O)OC[C@H](COP(=O)([O-])OCC[N+](C)(C)C)OC(=O)CCC/C=C\C/C=C\C/C=C\C/C=C\CCCCC
InChI: InChI=1S/C44H80NO8P/c1-6-8-10-12-14-16-18-20-21-22-23-25-27-29-31-33-35-37-44(47)53-42(41-52-54(48,49)51-39-38-45(3,4)5)40-50-43(46)36-34-32-30-28-26-24-19-17-15-13-11-9-7-2/h14,16,20-21,23,25,29,31,42H,6-13,15,17-19,22,24,26-28,30,32-41H2,1-5H3/b16-14-,21-20-,25-23-,31-29-/t42-/m1/s1
Instrument: Agilent 6560 QTOF
Instrument type: LC-ESI-QTOF
Ms type: MS2
Ion mode: POSITIVE
Ionization: ESI
Fragmentation mode: CID
Collision energy: 10 eV
Resolution: 7000
Column name: Direct injection
Retention time: 0.242 min
Base peak: 782.5731
Precursor m/z: 804.5514
Precursor type: [M+Na]+
Precursor intensity: 1805032
m/z	relative intensity	assigned
71.0724	1	C4H9N+
86.0972	8	C5H12N+
146.9816	10	C2H5NaO4P+
237.0797	44	C14H15NaP+
238.0811	4	C10H15NaO5+
311.0995	3	C14H17NO7+
385.1173	1	C19H23NaO5P+
548.3105	1	C32H45NaO6+
599.5029	3	C39H67O4+
600.5111	1	C39H68O4+
621.4867	50	C41H65O4+
622.4892	5	C32H72NaO7P+
745.4798	81	C43H70O8P+
746.4829	11	C41H72NaO8P+
804.5538	999	C44H80NNaO8P+
