Mass spectrum: THYMIDINE; LC-ESI-QTOF; MS2; CE: 20eV; R=5000; [M+H]+
Name: THYMIDINE
Name: 1-[(2R,4S,5R)-4-hydroxy-5-(hydroxymethyl)oxolan-2-yl]-5-methylpyrimidine-2,4-dione
Formula: C10H14N2O5
Exact mass: 242.0903
SMILES: CC1=CN([C@H]2C[C@H](O)[C@@H](CO)O2)C(=O)NC1=O
InChI: InChI=1S/C10H14N2O5/c1-5-3-12(10(16)11-9(5)15)8-2-6(14)7(4-13)17-8/h3,6-8,13-14H,2,4H2,1H3,(H,11,15,16)/t6-,7+,8+/m0/s1
Instrument: Agilent 6530 QTOF
Instrument type: LC-ESI-QTOF
Ms type: MS2
Ion mode: POSITIVE
Ionization: ESI
Fragmentation mode: CID
Collision energy: 20 eV
Resolution: 5000
Column name: N/A
Retention time: 0.253 min
Base peak: 127.05
Precursor m/z: 243.0975
Precursor type: [M+H]+
Precursor intensity: 142441
m/z	relative intensity	assigned
43.0549	31	C3H7+
44.0495	25	C2H6N+
45.0337	110	C2H5O+
53.0392	16	C4H5+
54.0337	7	C3H4N+
54.1034	2	C2H14O+
57.0698	4	C4H9+
62.0588	26	C2H8NO+
65.036	4	H5N2O2+
67.0539	5	C5H7+
67.0747	2	C2H11O2+
69.0343	49	C4H5O+
70.0145	4	C2H2N2O+
73.0293	66	C3H5O2+
81.0583	16	C5H7N+
82.0291	19	C4H4NO+
84.0456	17	C4H6NO+
85.0617	23	H9N2O3+
99.0439	53	C5H7O2+
102.0907	63	C5H12NO+
103.0978	4	C2H15O4+
110.0234	204	C5H4NO2+
112.094	2	C3H14NO3+
117.0554	63	C5H9O3+
118.0697	5	CH12NO5+
123.1178	22	C9H15+
127.0495	999	C5H7N2O2+
128.0923	2	C3H14NO4+
129.0437	1	C8H5N2+
130.1	2	C7H14O2+
141.0466	6	C9H5N2+
145.0501	3	C6H9O4+
