Mass spectrum: TYROSINE; LC-ESI-QTOF; MS2; CE: 20eV; R=5000; [M+H]+
Name: TYROSINE
Name: (2S)-2-amino-3-(4-hydroxyphenyl)propanoic acid
Formula: C9H11NO3
Exact mass: 181.0739
SMILES: N[C@@H](CC1=CC=C(O)C=C1)C(O)=O
InChI: InChI=1S/C9H11NO3/c10-8(9(12)13)5-6-1-3-7(11)4-2-6/h1-4,8,11H,5,10H2,(H,12,13)/t8-/m0/s1
Instrument: Agilent 6530 QTOF
Instrument type: LC-ESI-QTOF
Ms type: MS2
Ion mode: POSITIVE
Ionization: ESI
Fragmentation mode: CID
Collision energy: 20 eV
Resolution: 5000
Column name: N/A
Retention time: 0.215 min
Base peak: 202.1802
Precursor m/z: 182.0812
Precursor type: [M+H]+
Precursor intensity: 215620
m/z	relative intensity	assigned
45.0342	8	C2H5O+
51.0236	1	C4H3+
59.0478	2	C3H7O+
72.0782	1	CH12O3+
77.0392	187	C6H5+
83.0863	8	C6H11+
91.056	999	C7H7+
92.0689	5	C3H10NO2+
93.0697	19	C7H9+
94.0627	27	C3H10O3+
95.0501	304	C6H7O+
107.0491	67	C7H7O+
108.0796	11	C7H10N+
109.0656	15	C7H9O+
114.0348	2	C8H4N+
117.0575	10	C8H7N+
119.0497	360	C8H7O+
121.0626	10	C8H9O+
123.0436	282	C7H7O2+
124.0503	1	C7H8O2+
135.0686	2	C8H9NO+
136.0764	306	C8H10NO+
147.0461	55	C9H7O2+
165.0544	20	C9H9O3+
