Mass spectrum: Tripalmitin; LC-ESI-QTOF; MS2; CE: 20eV; R=7000; [M+NH4]+
Name: Tripalmitin
Name: 2,3-di(hexadecanoyloxy)propyl hexadecanoate
Formula: C51H98O6
Exact mass: 806.7363
SMILES: [H]C(COC(=O)CCCCCCCCCCCCCCC)(COC(=O)CCCCCCCCCCCCCCC)OC(=O)CCCCCCCCCCCCCCC
InChI: InChI=1S/C51H98O6/c1-4-7-10-13-16-19-22-25-28-31-34-37-40-43-49(52)55-46-48(57-51(54)45-42-39-36-33-30-27-24-21-18-15-12-9-6-3)47-56-50(53)44-41-38-35-32-29-26-23-20-17-14-11-8-5-2/h48H,4-47H2,1-3H3
Instrument: Agilent 6560 QTOF
Instrument type: LC-ESI-QTOF
Ms type: MS2
Ion mode: POSITIVE
Ionization: ESI
Fragmentation mode: CID
Collision energy: 20 eV
Resolution: 7000
Column name: Direct injection
Retention time: 0.635 min
Base peak: 256.9652
Precursor m/z: 824.7702
Precursor type: [M+NH4]+
Precursor intensity: 36403
m/z	relative intensity	assigned
71.0848	19	C5H11+
81.0698	7	C6H9+
83.0855	16	C6H11+
95.0855	7	C7H11+
97.1017	47	C7H13+
109.0995	15	C8H13+
111.116	33	C8H15+
123.1126	7	CH17NO5+
239.2335	33	C8H33NO6+
256.2647	6	C16H34NO+
551.504	999	C35H67O4+
552.507	160	C35H68O4+
562.0468	9	C38H10O6+
581.2934	3	C40H39NO3+
