Mass spectrum: Tri-m-tolyl phosphate; LC-ESI-QTOF; MS2; CE: 10eV; R=7000; [M+H]+
Name: Tri-m-tolyl phosphate
Name: Tri-M-cresyl phosphate
Name: tris(3-methylphenyl) phosphate
Formula: C21H21O4P
Exact mass: 368.1177
SMILES: CC1=CC(=CC=C1)OP(=O)(OC2=CC=CC(=C2)C)OC3=CC=CC(=C3)C
InChI: InChI=1S/C21H21O4P/c1-16-7-4-10-19(13-16)23-26(22,24-20-11-5-8-17(2)14-20)25-21-12-6-9-18(3)15-21/h4-15H,1-3H3
Instrument: Agilent 6560 QTOF
Instrument type: LC-ESI-QTOF
Ms type: MS2
Ion mode: POSITIVE
Ionization: ESI
Fragmentation mode: CID
Collision energy: 10 eV
Resolution: 7000
Retention time: 0.109 min
Base peak: 369.1255
Precursor m/z: 369.125
Precursor type: [M+H]+
Precursor intensity: 356700.24
m/z	relative intensity	assigned
51.0241	1	C4H3+
65.0384	2	C5H5+
91.0539	16	C7H7+
107.0489	3	C7H7O+
109.0648	2	H14O4P+
153.0695	2	C12H9+
165.0687	11	C13H9+
166.0775	24	C13H10+
167.0801	1	C6H16O3P+
179.0843	3	C7H16O3P+
181.1007	8	C14H13+
189.0303	3	C7H10O4P+
196.0875	2	C14H12O+
197.0949	1	C14H13O+
199.1109	1	C14H15O+
241.1011	1	C19H13+
243.057	12	C14H12O2P+
244.0597	1	C14H13O2P+
256.1243	8	C20H16+
261.0669	11	C14H14O3P+
271.1482	1	C21H19+
279.0769	7	C14H16O4P+
333.1028	1	C21H18O2P+
351.1115	2	C21H20O3P+
369.1249	999	C21H22O4P+
