Mass spectrum: L-Lysine standard; LC-ESI-QTOF; MS2; CE: 20eV; R=5000; [M+H]+
Name: L-Lysine standard
Name: Lysine
Name: (2S)-2,6-diaminohexanoic acid
Formula: C6H14N2O2
Exact mass: 146.1055
SMILES: C(CCN)C[C@@H](C(=O)O)N
InChI: InChI=1S/C6H14N2O2/c7-4-2-1-3-5(8)6(9)10/h5H,1-4,7-8H2,(H,9,10)/t5-/m0/s1
Instrument: Agilent 6530 QTOF
Instrument type: LC-ESI-QTOF
Ms type: MS2
Ion mode: POSITIVE
Ionization: ESI
Fragmentation mode: CID
Collision energy: 20 eV
Resolution: 5000
Column name: N/A
Retention time: 0.215 min
Base peak: 147.1134
Precursor m/z: 147.1128
Precursor type: [M+H]+
Precursor intensity: 364902
m/z	relative intensity	assigned
41.0389	13	C3H5+
42.033	11	C2H4N+
43.0413	3	C2H5N+
46.0281	5	CH4NO+
55.0543	26	C4H7+
56.0495	221	C3H6N+
57.0695	11	C4H9+
65.0371	7	C5H5+
67.0532	63	C5H7+
69.0561	16	C4H7N+
82.0656	6	C5H8N+
84.0804	999	C5H10N+
94.0664	2	C6H8N+
130.0854	11	C6H12NO2+
