Mass spectrum: Tri-o-tolyl phosphate; LC-ESI-QTOF; MS2; CE: 25eV; R=7000; [M+H]+
Name: Tri-o-tolyl phosphate
Name: Tri-O-cresyl phosphate
Name: tris(2-methylphenyl) phosphate
Formula: C21H21O4P
Exact mass: 368.1177
SMILES: CC1=CC=CC=C1OP(=O)(OC2=CC=CC=C2C)OC3=CC=CC=C3C
InChI: InChI=1S/C21H21O4P/c1-16-10-4-7-13-19(16)23-26(22,24-20-14-8-5-11-17(20)2)25-21-15-9-6-12-18(21)3/h4-15H,1-3H3
Instrument: Agilent 6560 QTOF
Instrument type: LC-ESI-QTOF
Ms type: MS2
Ion mode: POSITIVE
Ionization: ESI
Fragmentation mode: CID
Collision energy: 25 eV
Resolution: 7000
Retention time: 0.110 min
Base peak: 369.1252
Precursor m/z: 369.125
Precursor type: [M+H]+
Precursor intensity: 245503.81
m/z	relative intensity	assigned
65.0384	109	C5H5+
77.0385	10	C6H5+
79.0532	7	C6H7+
91.0543	999	C7H7+
92.0575	37	H13O3P+
98.9839	5	H4O4P+
105.033	8	C7H5O+
105.0703	29	C8H9+
107.0484	83	C7H7O+
109.0639	9	C7H9O+
115.055	10	C9H7+
119.0484	5	C8H7O+
121.0653	23	C8H9O+
128.0627	5	C10H8+
129.0685	7	C10H9+
141.0697	27	C11H9+
152.0594	7	C5H13O3P+
153.0098	33	C7H6O2P+
153.0689	51	C12H9+
165.0698	386	C13H9+
166.0772	614	C13H10+
167.081	45	C6H16O3P+
169.101	15	C13H13+
178.0775	80	C14H10+
179.0849	196	C14H11+
180.0908	24	C7H17O3P+
181.1008	182	C14H13+
182.072	11	C13H10O+
182.1044	14	C7H19O3P+
186.0043	7	C7H7O4P+
187.0132	17	C7H8O4P+
188.021	4	C7H9O4P+
189.0301	115	C7H10O4P+
195.0795	12	C14H11O+
196.0861	8	C7H17O4P+
197.0529	6	C13H10P+
197.0961	81	C14H13O+
198.0988	15	C7H19O4P+
199.1116	13	C14H15O+
215.0588	7	C13H12OP+
215.0818	4	C10H16O3P+
229.103	6	C18H13+
230.1084	6	C18H14+
239.0851	4	C19H11+
241.1003	36	C19H13+
242.1058	8	C12H19O3P+
243.0566	100	C14H12O2P+
244.0634	7	C14H13O2P+
254.1077	4	C13H19O3P+
255.1166	33	C20H15+
256.1237	124	C20H16+
257.1273	15	C13H22O3P+
259.0519	8	C14H12O3P+
261.0669	146	C14H14O3P+
262.0705	11	C14H15O3P+
271.1472	17	C21H19+
277.0604	40	C14H14O4P+
278.0629	8	C17H10O4+
279.0784	217	C14H16O4P+
280.0812	9	C14H17O4P+
333.1039	9	C21H18O2P+
351.1162	7	C21H20O3P+
369.1251	487	C21H22O4P+
