Mass spectrum: 1-Dehydrotestosterone; LC-ESI-QTOF; MS2; CE: 20eV; R=7000; [M+H]+
Name: 1-Dehydrotestosterone
Name: Boldenone
Name: (8R,9S,10R,13S,14S,17S)-17-hydroxy-10,13-dimethyl-6,7,8,9,11,12,14,15,16,17-decahydrocyclopenta[a]phenanthren-3-one
Formula: C19H26O2
Exact mass: 286.1933
SMILES: C[C@]12CC[C@H]3[C@H]([C@@H]1CC[C@@H]2O)CCC4=CC(=O)C=C[C@]34C
InChI: InChI=1S/C19H26O2/c1-18-9-7-13(20)11-12(18)3-4-14-15-5-6-17(21)19(15,2)10-8-16(14)18/h7,9,11,14-17,21H,3-6,8,10H2,1-2H3/t14-,15-,16-,17-,18-,19-/m0/s1
Instrument: Agilent 6560 QTOF
Instrument type: LC-ESI-QTOF
Ms type: MS2
Ion mode: POSITIVE
Ionization: ESI
Fragmentation mode: CID
Collision energy: 20 eV
Resolution: 7000
Column name: Direct injection
Retention time: 0.157 min
Base peak: 287.201
Precursor m/z: 287.2006
Precursor type: [M+H]+
Precursor intensity: 359709
m/z	relative intensity	assigned
77.0388	63	C6H5+
79.0542	62	C6H7+
81.07	47	C6H9+
83.0484	3	C5H7O+
85.0633	6	C5H9O+
91.054	53	C7H7+
93.0698	137	C7H9+
95.0855	64	C7H11+
97.0643	12	C6H9O+
105.0693	70	C8H9+
107.0852	87	C8H11+
109.0651	7	C7H9O+
109.101	33	C8H13+
117.0695	9	C9H9+
119.0855	22	C9H11+
121.0648	999	C8H9O+
127.0558	2	C10H7+
130.0788	3	C10H10+
131.0478	5	C9H7O+
132.0586	5	C9H8O+
133.0623	18	C9H9O+
133.1004	30	C10H13+
135.0791	36	C9H11O+
135.117	185	C10H15+
137.1304	2	C10H17+
141.0709	1	C11H9+
144.0591	1	C10H8O+
144.0902	1	C11H12+
145.0633	16	C10H9O+
145.1011	18	C11H13+
146.0704	1	C10H10O+
147.0813	79	C10H11O+
147.1158	25	C11H15+
149.1321	45	C11H17+
151.1097	7	C10H15O+
155.0857	11	C12H11+
158.0724	11	C11H10O+
159.0812	31	C11H11O+
159.1179	7	C12H15+
161.0975	11	C11H13O+
161.1324	29	C12H17+
167.1437	4	C11H19O+
171.0778	10	C12H11O+
172.0878	1	C12H12O+
173.0956	122	C12H13O+
175.1102	7	C12H15O+
177.0899	7	C11H13O2+
179.1422	23	C12H19O+
184.0913	3	C13H12O+
187.1137	17	C13H15O+
199.1115	9	C14H15O+
201.1274	6	C14H17O+
213.1275	7	C15H17O+
215.1427	6	C15H19O+
269.1919	11	C19H25O+
287.2014	7	C19H27O2+
