Mass spectrum: N-oleoyl-D-erythro-sphingosine; LC-ESI-QTOF; MS2; CE: 20eV; R=7000; [M+HCOOH-H]-
Name: N-oleoyl-D-erythro-sphingosine
Name: N-(oleoyl)-ceramide
Name: (Z)-N-[(E,2S,3R)-1,3-dihydroxyoctadec-4-en-2-yl]octadec-9-enamide
Formula: C36H69NO3
Exact mass: 563.5277
SMILES: CCCCCCCCCCCCC/C=C/[C@H]([C@H](CO)NC(=O)CCCCCCC/C=C\CCCCCCCC)O
InChI: InChI=1S/C36H69NO3/c1-3-5-7-9-11-13-15-17-18-20-22-24-26-28-30-32-36(40)37-34(33-38)35(39)31-29-27-25-23-21-19-16-14-12-10-8-6-4-2/h17-18,29,31,34-35,38-39H,3-16,19-28,30,32-33H2,1-2H3,(H,37,40)/b18-17-,31-29+/t34-,35+/m0/s1
Instrument: Agilent 6560 QTOF
Instrument type: LC-ESI-QTOF
Ms type: MS2
Ion mode: NEGATIVE
Ionization: ESI
Fragmentation mode: CID
Collision energy: 20 eV
Resolution: 7000
Column name: N/A
Retention time: 0.258 min
Base peak: 622.543
Precursor m/z: 608.5259
Precursor type: [M+HCOOH-H]-
Precursor intensity: 11626
m/z	relative intensity	assigned
106.1466	75	C2H20NO3-
183.0096	45	C11H3O3-
191.0822	56	C7H13NO5-
205.0882	98	C12H13O3-
237.4972	68	C12H63NO-
281.2465	67	C18H33O2-
285.2916	59	C14H39NO4-
291.3313	54	C14H45NO4-
298.2763	245	C18H36NO2-
301.1755	59	C19H25O3-
306.2821	207	C20H36NO-
322.2432	96	C19H32NO3-
514.5002	129	C35H64NO-
515.2492	50	C35H33NO3-
530.4896	73	C32H66O5-
532.5023	189	C32H68O5-
562.5233	999	C36H68NO3-
563.5321	369	C36H69NO3-
