Mass spectrum: Erucic acid; LC-ESI-QTOF; MS2; CE: 40eV; R=7000; [M-H]-
Name: Erucic acid
Name: (Z)-docos-13-enoic acid
Formula: C22H42O2
Exact mass: 338.3185
SMILES: CCCCCCCC\C=C/CCCCCCCCCCCC(O)=O
InChI: InChI=1S/C22H42O2/c1-2-3-4-5-6-7-8-9-10-11-12-13-14-15-16-17-18-19-20-21-22(23)24/h9-10H,2-8,11-21H2,1H3,(H,23,24)/b10-9-
Instrument: Agilent 6560 QTOF
Instrument type: LC-ESI-QTOF
Ms type: MS2
Ion mode: NEGATIVE
Ionization: ESI
Fragmentation mode: CID
Collision energy: 40 eV
Resolution: 7000
Column name: N/A
Retention time: 0.147 min
Base peak: 337.3125
Precursor m/z: 337.3112
Precursor type: [M-H]-
Precursor intensity: 6502
m/z	relative intensity	assigned
229.0605	999	C17H9O-
252.1498	125	C18H20O-
