Mass spectrum: Thyroxine; LC-ESI-QTOF; MS2; CE: 10eV; R=7000; [M-H]-
Name: Thyroxine
Name: Levothyroxine
Name: (2S)-2-amino-3-[4-(4-hydroxy-3,5-diiodophenoxy)-3,5-diiodophenyl]propanoic acid
Formula: C15H11I4NO4
Exact mass: 776.6867
SMILES: N[C@@H](CC1=CC(I)=C(OC2=CC(I)=C(O)C(I)=C2)C(I)=C1)C(O)=O
InChI: InChI=1S/C15H11I4NO4/c16-8-4-7(5-9(17)13(8)21)24-14-10(18)1-6(2-11(14)19)3-12(20)15(22)23/h1-2,4-5,12,21H,3,20H2,(H,22,23)/t12-/m0/s1
Instrument: Agilent 6560 QTOF
Instrument type: LC-ESI-QTOF
Ms type: MS2
Ion mode: NEGATIVE
Ionization: ESI
Fragmentation mode: CID
Collision energy: 10 eV
Resolution: 7000
Column name: N/A
Retention time: 0.189 min
Base peak: 255.2328
Precursor m/z: 775.6794
Precursor type: [M-H]-
Precursor intensity: 349693
m/z	relative intensity	assigned
72.0088	12	C2H2NO2-
126.9039	184	I-
130.9386	1	H4I-
133.9628	1	H7I-
253.8097	8	I2-
258.9109	1	C7H2INO2-
333.9437	3	C14H7IO2-
337.7912	1	C3I2O3-
349.9648	1	C14H9INO2-
359.8074	1	C5I2NO2-
386.8109	1	C11HI2-
475.8627	7	C14H8I2NO2-
476.872	10	C14H9I2NO2-
514.7631	1	C4H8I3NO4-
561.7355	2	C11H3I3NO2-
574.7471	32	C13H6I3O2-
575.7569	6	C13H7I3O2-
587.7532	1	C14H7I3O2-
588.7614	14	C14H8I3O2-
589.7488	4	C13H5I3O3-
591.6943	1	C5H10I4N-
603.7747	65	C14H9I3NO2-
604.7834	126	C14H10I3NO2-
630.7647	5	C15H8I3NO3-
631.7431	5	C15H7I3O4-
647.7608	2	C15H9I3NO4-
648.769	26	C15H10I3NO4-
702.666	13	C13H7I4O2-
714.6633	2	C14H7I4O2-
730.6484	5	C13H5I4NO3-
758.6511	91	C15H7I4O4-
759.6493	4	C14H6I4NO4-
775.6775	999	C15H10I4NO4-
