Mass spectrum: METHYLGUANIDINE; LC-ESI-QTOF; MS2; CE: 20eV; R=5000; [M+H]+
Name: METHYLGUANIDINE
Name: 2-methylguanidine
Formula: C2H7N3
Exact mass: 73.06400
SMILES: CNC(N)=N
InChI: InChI=1S/C2H7N3/c1-5-2(3)4/h1H3,(H4,3,4,5)
Instrument: Agilent 6530 QTOF
Instrument type: LC-ESI-QTOF
Ms type: MS2
Ion mode: POSITIVE
Ionization: ESI
Fragmentation mode: CID
Collision energy: 20 eV
Resolution: 5000
Column name: N/A
Retention time: 0.216 min
Base peak: 74.0724
Precursor m/z: 74.0713
Precursor type: [M+H]+
Precursor intensity: 3051409
m/z	relative intensity	assigned
42.0217	1	CH2N2+
55.0297	5	C2H3N2+
57.0457	999	C2H5N2+
74.0718	36	C2H8N3+
