Mass spectrum: Coenzyme Q10; LC-ESI-QTOF; MS2; CE: 40eV; R=7000; [M-H]-
Name: Coenzyme Q10
Name: 2-[(2E,6E,10E,14E,18E,22E,26E,30E,34E)-3,7,11,15,19,23,27,31,35,39-decamethyltetraconta-2,6,10,14,18,22,26,30,34,38-decaenyl]-5,6-dimethoxy-3-methylcyclohexa-2,5-diene-1,4-dione
Formula: C59H90O4
Exact mass: 862.6839
SMILES: CC1=C(C(=O)C(=C(C1=O)OC)OC)C/C=C(\C)/CC/C=C(\C)/CC/C=C(\C)/CC/C=C(\C)/CC/C=C(\C)/CC/C=C(\C)/CC/C=C(\C)/CC/C=C(\C)/CC/C=C(\C)/CCC=C(C)C
InChI: InChI=1S/C59H90O4/c1-44(2)24-15-25-45(3)26-16-27-46(4)28-17-29-47(5)30-18-31-48(6)32-19-33-49(7)34-20-35-50(8)36-21-37-51(9)38-22-39-52(10)40-23-41-53(11)42-43-55-54(12)56(60)58(62-13)59(63-14)57(55)61/h24,26,28,30,32,34,36,38,40,42H,15-23,25,27,29,31,33,35,37,39,41,43H2,1-14H3/b45-26+,46-28+,47-30+,48-32+,49-34+,50-36+,51-38+,52-40+,53-42+
Instrument: Agilent 6560 QTOF
Instrument type: LC-ESI-QTOF
Ms type: MS2
Ion mode: NEGATIVE
Ionization: ESI
Fragmentation mode: CID
Collision energy: 40 eV
Resolution: 7000
Column name: N/A
Retention time: 0.336 min
Base peak: 980.0164
Precursor m/z: 861.6766
Precursor type: [M-H]-
Precursor intensity: 801515
m/z	relative intensity	assigned
70.2654	31	C3H34-
72.3412	28	CH44O-
75.4555	24	H59O-
76.1838	43	C3H24O-
76.407	28	C2H52-
77.1529	34	C2H21O2-
78.3852	28	CH50O-
80.1793	26	C2H24O2-
80.2352	34	H32O3-
80.2502	45	C4H32-
81.2579	28	C4H33-
81.3731	39	H49O2-
81.5046	33	H65O-
82.0629	29	C2H10O3-
83.2374	32	C3H31O-
85.0515	36	CH9O4-
85.3467	26	C2H45O-
85.573	30	CH73-
86.4846	33	C2H62-
87.2888	26	H39O3-
87.5504	26	H71O-
88.3005	32	H40O3-
89.0409	35	C7H5-
89.0612	35	C4H9O2-
89.1559	28	C3H21O2-
89.2506	36	C2H33O2-
89.3216	28	C4H41-
89.6019	27	CH77-
90.0133	36	C6H2O-
91.1899	38	H27O4-
91.265	29	C2H35O2-
91.4903	46	CH63O-
92.1044	34	CH16O4-
92.2365	43	CH32O3-
93.3723	31	CH49O2-
95.9997	39	C8-
96.9924	34	C4HO3-
97.1602	36	C5H21O-
98.2639	34	C4H34O-
98.5808	33	C2H74-
99.1004	26	C3H15O3-
99.3035	31	C5H39-
99.3833	39	H51O3-
99.4567	32	C2H59O-
100.0541	26	C5H8O2-
100.0741	24	C2H12O4-
100.0899	36	C6H12O-
100.314	24	C5H40-
100.3908	24	H52O3-
100.5026	29	C3H64-
101.6616	28	H85O-
102.1814	28	CH26O4-
102.3311	30	C5H42-
102.388	28	C3H50O-
103.0985	28	C2H15O4-
103.527	36	C3H67-
104.5562	32	H72O2-
106.0087	36	C6H2O2-
106.0976	28	C5H14O2-
106.4522	32	C4H58-
106.511	30	C2H66O-
107.5794	38	H75O2-
108.0595	32	C7H8O-
108.3372	30	C4H44O-
108.5861	30	H76O2-
109.1623	28	C6H21O-
109.6667	28	C2H85-
110.0562	26	C3H10O4-
110.3928	38	C5H50-
111.3846	38	CH51O3-
111.9927	34	C8O-
112.0169	34	C5H4O3-
112.1463	27	C5H20O2-
112.3899	36	CH52O3-
112.467	32	C3H60O-
113.3421	30	C3H45O2-
113.5076	30	C4H65-
115.5222	32	C4H67-
116.235	28	C3H32O3-
116.3452	36	C6H44-
116.4574	29	C2H60O2-
117.3726	28	C3H49O2-
117.3925	24	H53O4-
117.5418	36	C4H69-
118.2672	34	C7H34-
118.3842	31	C3H50O2-
119.178	29	C8H23-
119.3708	31	C6H47-
120.3227	43	CH44O4-
120.6768	34	H88O2-
120.9928	40	C6HO3-
121.3502	28	C5H45O-
122.0562	35	C4H10O4-
122.1892	28	C4H26O3-
122.2453	26	C2H34O4-
123.2929	28	C3H39O3-
124.1849	30	C7H24O-
124.2954	30	C3H40O3-
124.3938	39	C2H52O3-
124.5828	43	H76O3-
125.6009	26	C4H77-
126.0702	28	C7H10O2-
126.3303	36	C7H42-
126.3844	35	C5H50O-
127.2255	35	C4H31O3-
127.3248	33	C3H43O3-
127.4333	29	C6H55-
127.4532	34	C3H59O2-
128.2931	30	C2H40O4-
128.3281	24	C3H44O3-
128.5349	43	C5H68-
128.587	38	C3H76O-
129.281	26	C5H37O2-
129.398	30	CH53O4-
130.1375	26	C8H18O-
130.1581	34	C5H22O3-
130.1948	28	C6H26O2-
131.3673	28	C7H47-
132.4188	26	CH56O4-
132.6423	24	H84O3-
132.6776	30	CH88O2-
133.5569	28	CH73O3-
133.596	26	C2H77O2-
134.5451	34	C4H70O-
134.5782	32	C5H74-
135.2133	28	C9H27-
135.2355	36	C6H31O2-
135.2681	32	C7H35O-
136.055	27	C8H8O2-
136.0919	29	C9H12O-
136.4277	40	C4H56O2-
137.0391	37	C11H5-
137.0852	38	C5H13O4-
137.1304	44	C10H17-
137.5848	26	CH77O3-
137.6579	30	C3H85O-
137.9944	43	C6H2O4-
139.1102	32	C9H15O-
139.1682	39	C7H23O2-
139.4705	26	CH63O4-
140.2921	34	C3H40O4-
140.5768	26	H76O4-
141.0344	28	C10H5O-
141.241	30	C5H33O3-
141.3167	29	C7H41O-
142.0621	46	C7H10O3-
142.0777	26	C11H10-
143.6746	29	C2H87O2-
144.1867	25	C10H24-
144.2273	35	C4H32O4-
144.3232	36	C3H44O4-
144.3636	38	C4H48O3-
144.603	31	H80O4-
144.625	34	C4H80O-
145.0652	35	C10H9O-
145.2403	26	C4H33O4-
145.4601	28	C3H61O3-
145.4785	36	C7H61-
145.6278	28	C4H81O-
146.2809	25	C5H38O3-
146.3549	32	C7H46O-
146.6727	40	C5H86-
147.0468	27	C9H7O2-
147.0682	38	C6H11O4-
147.2105	30	C10H27-
147.2684	198	C8H35O-
147.4576	34	C6H59O-
148.0761	32	C6H12O4-
148.2806	34	C8H36O-
148.3556	36	C3H48O4-
148.5784	28	C2H76O3-
149.0432	32	C12H5-
150.185	35	C5H26O4-
150.3878	24	C7H50O-
151.0185	31	C11H3O-
152.1225	30	C10H16O-
152.5302	32	C7H68-
152.6118	38	C2H80O3-
153.13	26	C10H17O-
153.6197	30	C2H81O3-
154.1564	36	C7H22O3-
154.3583	32	C9H46-
154.6042	29	C5H78O-
154.663	32	C3H86O2-
155.4642	26	C8H59-
155.5044	29	C2H67O4-
156.1705	24	C7H24O3-
156.303	26	C7H40O2-
156.3974	26	C6H52O2-
157.1009	28	C12H13-
157.1778	30	C7H25O3-
157.29	24	C10H37-
157.649	28	C2H85O3-
157.6829	34	C3H89O2-
158.4519	30	C7H58O-
158.531	29	C2H70O4-
158.6749	30	C6H86-
159.1954	30	C7H27O3-
159.2359	31	C8H31O2-
159.4603	32	C7H59O-
160.205	36	C7H28O3-
160.3	28	C6H40O3-
160.4462	36	C3H60O4-
160.5578	30	C6H72O-
160.6547	24	C5H84O-
161.0858	30	C7H13O4-
161.2859	28	C9H37O-
161.4947	30	C4H65O3-
161.5494	26	C2H73O4-
162.1805	34	C6H26O4-
162.2536	35	C8H34O2-
162.3262	30	C10H42-
162.371	31	C4H50O4-
162.499	32	C4H66O3-
162.5378	37	C5H70O2-
163.038	28	C9H7O3-
163.2278	26	C7H31O3-
163.3964	34	C8H51O-
164.2472	35	C11H32-
164.2735	33	C8H36O2-
164.624	26	C7H80-
166.0263	34	C8H6O4-
166.2299	26	C10H30O-
166.313	32	C5H42O4-
166.4431	29	C5H58O3-
167.0834	30	C13H11-
167.2395	28	C10H31O-
167.2613	40	C7H35O3-
168.6096	38	C2H80O4-
169.0281	34	C11H5O2-
169.2209	32	C9H29O2-
169.5579	32	C4H73O3-
170.3545	32	C9H46O-
171.1992	32	C8H27O3-
171.9834	24	C9O4-
172.216	41	C12H28-
172.2988	31	C7H40O3-
172.521	31	C6H68O2-
173.0572	72	C11H9O2-
173.3977	35	C6H53O3-
173.6285	40	C5H81O2-
174.2012	32	C11H26O-
174.2597	38	C9H34O2-
174.3479	33	C8H46O2-
176.1448	34	C9H20O3-
176.305	33	C10H40O-
176.3293	32	C7H44O3-
176.3466	30	C11H44-
176.3852	28	C5H52O4-
176.4223	32	C6H56O3-
176.5352	26	C9H68-
177.3198	30	C10H41O-
177.3525	34	C11H45-
177.3738	34	C8H49O2-
177.4311	24	C6H57O3-
177.5953	40	C7H77O-
177.6591	26	C5H85O2-
178.2897	35	C9H38O2-
178.6269	41	C4H82O3-
179.0483	29	C13H7O-
179.199	30	C10H27O2-
179.2726	34	C12H35-
179.5378	34	C5H71O3-
180.1482	34	C12H20O-
180.1706	41	C9H24O3-
180.4206	34	C5H56O4-
180.4511	28	C6H60O3-
181.272	26	C8H37O3-
181.5924	32	C6H77O2-
182.4686	35	C6H62O3-
182.5409	32	C8H70O-
182.6019	34	C6H78O2-
182.6405	30	C7H82O-
183.5855	34	C9H75-
183.9923	28	C14O-
184.1426	28	C11H20O2-
184.2744	30	C11H36O-
184.2969	24	C8H40O3-
184.4068	32	C11H52-
184.4896	41	C6H64O3-
184.5581	30	C8H72O-
184.6331	26	C3H84O4-
185.2876	27	C11H37O-
185.3965	36	C7H53O3-
185.454	26	C5H61O4-
185.6471	37	C3H85O4-
186.1963	28	C12H26O-
186.5174	26	C10H66-
187.1929	28	C8H27O4-
187.4901	34	C9H63O-
188.3085	36	C11H40O-
188.3326	25	C8H44O3-
188.4805	33	C5H64O4-
188.5002	28	C9H64O-
188.6465	36	C6H84O2-
189.1694	41	C14H21-
189.4098	33	C10H53O-
189.4683	28	C8H61O2-
189.5014	28	C9H65O-
189.5615	28	C7H73O2-
189.6308	28	C9H81-
190.1938	24	C11H26O2-
190.3085	27	C7H42O4-
191.0337	348	C10H7O4-
191.0899	65	C15H11-
191.1804	24	C14H23-
191.2378	30	C12H31O-
191.6331	29	C5H83O3-
192.5501	30	C6H72O3-
193.3429	32	C11H45O-
193.3683	38	C8H49O3-
193.5943	30	C7H77O2-
194.0121	33	C16H2-
194.0619	34	C10H10O4-
194.1902	29	C10H26O3-
194.2217	34	C11H30O2-
194.483	29	C11H62-
194.5752	35	C10H74-
194.634	30	C8H82O-
195.2682	27	C12H35O-
196.2087	30	C10H28O3-
196.3088	43	C13H40-
196.4885	36	C7H64O3-
197.0955	29	C14H13O-
197.2449	24	C11H33O2-
197.4006	32	C8H53O3-
197.57	24	C9H73O-
198.0297	36	C12H6O3-
198.294	32	C12H38O-
198.3258	36	C13H42-
198.4816	36	C10H62O-
199.0395	32	C12H7O3-
199.1468	36	C15H19-
199.5448	30	C8H71O2-
199.615	30	C10H79-
199.6767	35	C8H87O-
200.0275	32	C15H4O-
200.1423	45	C11H20O3-
200.1983	40	C9H28O4-
200.4249	30	C8H56O3-
200.4598	35	C9H60O2-
200.5556	30	C8H72O2-
200.645	35	C7H84O2-
200.6713	38	C4H88O4-
201.145	28	C11H21O3-
201.6343	29	C10H81-
204.0203	39	C14H4O2-
204.044	47	C11H8O4-
204.5313	26	C10H68O-
205.0877	34	C12H13O3-
205.1553	28	C14H21O-
205.3851	26	C13H49-
205.459	28	C8H61O3-
205.595	30	C8H77O2-
205.6332	30	C9H81O-
207.1055	35	C12H15O3-
207.1778	30	C14H23O-
207.3092	24	C14H39-
207.4819	34	C8H63O3-
207.5307	26	C6H71O4-
208.0792	25	C11H12O4-
208.1791	36	C14H24O-
208.5431	28	C6H72O4-
208.6496	36	C9H84O-
209.283	32	C13H37O-
209.4764	29	C11H61O-
209.5318	28	C9H69O2-
209.6816	29	C6H89O3-
210.1872	31	C10H26O4-
210.5133	28	C12H66-
211.358	30	C11H47O2-
211.5255	34	C12H67-
211.6348	26	C8H83O2-
211.6793	30	C9H87O-
211.9952	28	C15O2-
212.5225	29	C8H68O3-
212.5903	40	C10H76O-
213.3156	28	C13H41O-
213.5942	34	C10H77O-
214.1215	29	C11H18O4-
214.1726	34	C16H22-
214.3258	36	C13H42O-
215.1038	37	C14H15O2-
215.1423	30	C15H19O-
215.2211	30	C10H31O4-
215.3368	35	C13H43O-
215.3917	52	C11H51O2-
216.0186	24	C15H4O2-
216.423	28	C8H56O4-
217.3355	26	C9H45O4-
217.3885	34	C14H49-
218.0137	26	C18H2-
218.377	24	C10H50O3-
218.4523	32	C12H58O-
218.4876	40	C13H62-
218.5772	26	C12H74-
218.6684	29	C11H86-
219.0987	28	C13H15O3-
219.1226	44	C17H15-
219.211	26	C16H27-
219.3432	31	C9H47O4-
219.4192	33	C11H55O2-
219.4938	34	C13H63-
219.6253	48	C6H83O4-
220.5223	34	C10H68O2-
220.9908	28	C13HO4-
221.0272	34	C14H5O3-
221.3069	32	C11H41O3-
221.4033	26	C10H53O3-
221.6455	28	C6H85O4-
222.1277	36	C13H18O3-
222.5916	31	C8H78O3-
223.5822	36	C11H75O-
224.1561	29	C17H20-
224.2172	32	C15H28O-
224.2408	35	C12H32O3-
224.5774	36	C7H76O4-
225.0371	31	C17H5O-
225.3572	28	C15H45-
225.6302	24	C12H81-
226.0062	58	C16H2O2-
227.3641	31	C15H47-
227.6724	39	C9H87O2-
228.0774	25	C14H12O3-
228.194	31	C17H24-
228.624	42	C11H80O-
229.069	26	C17H9O-
229.2191	36	C14H29O2-
229.4461	34	C13H57O-
229.5707	33	C13H73-
229.6909	32	C9H89O2-
230.0352	27	C16H6O2-
230.1052	26	C18H14-
230.3019	33	C16H38-
230.4493	26	C13H58O-
230.5754	37	C13H74-
230.6314	32	C11H82O-
233.0805	999	C13H13O4-
233.1549	62	C15H21O2-
234.257	43	C14H34O2-
234.3091	30	C12H42O3-
234.3706	33	C10H50O4-
234.4479	32	C12H58O2-
234.5054	28	C10H66O3-
235.0959	28	C13H15O4-
235.1548	29	C18H19-
235.3552	30	C13H47O2-
235.4138	40	C11H55O3-
236.5115	30	C10H68O3-
236.5343	29	C14H68-
236.6245	34	C13H80-
237.0965	29	C16H13O2-
237.1511	30	C14H21O3-
237.3024	38	C11H41O4-
237.4448	24	C15H57-
237.619	37	C9H81O3-
238.0055	36	C17H2O2-
238.0603	39	C15H10O3-
238.1253	30	C13H18O4-
238.2543	32	C13H34O3-
238.5157	26	C13H66O-
239.0146	34	C17H3O2-
239.1081	38	C16H15O2-
239.3699	73	C16H47-
239.429	34	C14H55O-
240.3001	26	C14H40O2-
240.4913	32	C12H64O2-
240.6108	43	C8H80O4-
241.1044	26	C19H13-
241.2556	45	C16H33O-
241.4622	36	C11H61O3-
242.2795	34	C13H38O3-
242.3955	32	C16H50-
242.4875	36	C15H62-
242.5638	41	C10H74O3-
242.6387	26	C12H82O-
243.0683	34	C14H11O4-
243.3258	28	C14H43O2-
243.5205	28	C12H67O2-
243.9775	30	C15O4-
244.1635	39	C13H24O4-
244.276	26	C16H36O-
244.4848	34	C11H64O3-
244.5215	38	C12H68O2-
244.5568	28	C13H72O-
244.9893	25	C15HO4-
245.1289	32	C19H17-
246.1203	28	C15H18O3-
246.2049	29	C17H26O-
246.532	82	C12H70O2-
246.5735	41	C13H74O-
246.6701	34	C12H86O-
247.206	32	C17H27O-
247.3996	25	C15H51O-
247.5879	33	C13H75O-
248.0262	30	C19H4O-
248.1057	435	C14H16O4-
248.1947	42	C13H28O4-
248.4221	44	C12H56O3-
249.0141	36	C15H5O4-
249.052	32	C16H9O3-
249.0865	34	C17H13O2-
249.4253	28	C12H57O3-
250.1528	32	C15H22O3-
251.1596	28	C15H23O3-
252.2273	24	C13H32O4-
252.304	26	C15H40O2-
252.6775	26	C11H88O2-
253.0494	29	C15H9O4-
253.2689	43	C14H37O3-
253.5208	29	C10H69O4-
255.077	32	C19H11O-
255.4516	35	C15H59O-
255.6842	38	C14H87-
256.0189	26	C17H4O3-
256.3171	26	C18H40-
256.5271	33	C13H68O2-
257.0623	38	C18H9O2-
257.4704	32	C15H61O-
257.5713	28	C14H73O-
257.6921	36	C14H89-
258.0078	32	C20H2O-
258.1975	32	C18H26O-
258.2527	38	C16H34O2-
258.393	34	C16H50O-
258.5701	32	C14H74O-
259.0764	36	C18H11O2-
259.1734	37	C17H23O2-
259.5096	28	C12H67O3-
260.3465	32	C18H44-
260.4038	30	C16H52O-
260.5001	40	C15H64O-
261.1523	33	C16H21O3-
262.0029	35	C19H2O2-
262.1356	27	C19H18O-
262.5014	38	C11H66O4-
263.1025	29	C18H15O2-
263.523	30	C15H67O-
264.4155	26	C12H56O4-
265.0332	26	C19H5O2-
265.1196	26	C18H17O2-
265.6683	33	C15H85-
266.3404	38	C13H46O4-
266.6177	36	C10H82O4-
266.655	30	C11H86O3-
267.3082	28	C19H39-
267.4821	32	C13H63O3-
267.5145	30	C14H67O2-
267.6851	26	C15H87-
268.4106	35	C18H52-
268.5542	26	C15H72O-
268.64	28	C10H84O4-
268.6881	25	C15H88-
269.0642	29	C19H9O2-
269.2866	29	C18H37O-
270.1612	30	C18H22O2-
270.3931	30	C17H50O-
270.5192	33	C17H66-
270.5702	39	C15H74O-
271.0804	29	C19H11O2-
271.1462	33	C21H19-
271.4218	36	C14H55O3-
271.6824	28	C14H87O-
272.4264	32	C14H56O3-
272.4934	34	C16H64O-
272.5212	28	C13H68O3-
273.1678	34	C21H21-
273.3933	41	C13H53O4-
273.6557	25	C13H85O2-
274.0985	33	C19H14O2-
274.1264	37	C16H18O4-
274.166	27	C21H22-
274.3198	38	C18H42O-
274.3611	32	C19H46-
274.5328	30	C13H70O3-
274.5533	30	C17H70-
275.1051	35	C19H15O2-
275.2803	28	C20H35-
275.3947	26	C16H51O2-
275.432	28	C17H55O-
276.375	30	C19H48-
276.6038	32	C11H80O4-
277.196	30	C21H25-
277.2221	31	C18H29O2-
277.6894	34	C13H89O2-
278.2842	28	C16H38O3-
278.6363	32	C15H82O-
279.1645	48	C16H23O4-
279.3313	28	C17H43O2-
279.4422	30	C13H59O4-
279.4759	26	C14H63O3-
279.6623	38	C12H87O3-
280.0939	37	C21H12O-
280.1492	30	C19H20O2-
280.234	30	C18H32O2-
280.4964	31	C18H64-
280.5159	26	C15H68O2-
280.5574	40	C16H72O-
281.0628	45	C20H9O2-
281.0857	28	C17H13O4-
281.1597	34	C19H21O2-
281.219	28	C17H29O3-
281.3022	24	C16H41O3-
281.3478	30	C17H45O2-
282.0905	36	C17H14O4-
282.5345	34	C15H70O2-
282.6059	35	C17H78-
283.0766	36	C20H11O2-
283.1917	26	C16H27O4-
283.4465	44	C16H59O2-
283.4949	26	C17H63O-
283.5796	34	C16H75O-
283.6102	35	C13H79O3-
284.2653	34	C18H36O2-
284.4323	36	C19H56-
285.0343	39	C22H5O-
285.126	32	C21H17O-
285.2031	29	C16H29O4-
285.5829	24	C12H77O4-
285.6151	36	C13H81O3-
285.6618	34	C14H85O2-
286.2198	30	C16H30O4-
286.2838	30	C18H38O2-
286.3155	30	C15H42O4-
286.5495	29	C18H70-
287.0207	46	C21H3O2-
287.1681	34	C18H23O3-
287.231	30	C20H31O-
287.4187	26	C18H55O-
287.4571	34	C19H59-
287.5542	31	C18H71-
287.5823	37	C15H75O2-
287.6767	33	C14H87O2-
288.1345	34	C17H20O4-
288.6513	30	C17H84-
288.9917	32	C20HO3-
289.1414	28	C17H21O4-
290.0195	32	C24H2-
290.1679	27	C21H22O-
290.2996	34	C21H38-
290.3782	31	C16H50O3-
290.5212	30	C13H70O4-
290.5417	30	C17H70O-
291.0701	31	C18H11O4-
291.4244	25	C17H55O2-
291.4602	40	C18H59O-
291.5125	36	C16H67O2-
291.5338	30	C13H71O4-
292.2686	34	C16H36O4-
292.4354	26	C17H56O2-
292.4648	32	C18H60O-
293.0077	26	C23HO-
293.2856	30	C20H37O-
293.7032	35	C17H89-
294.0894	33	C18H14O4-
294.1692	27	C20H22O2-
294.3359	26	C21H42-
294.3733	32	C15H50O4-
294.4259	32	C20H54-
295.0931	31	C18H15O4-
295.227	43	C18H31O3-
295.317	32	C17H43O3-
295.5624	27	C13H75O4-
295.682	24	C16H87O-
298.2192	36	C17H30O4-
298.2526	35	C18H34O3-
298.3495	30	C17H46O3-
298.442	30	C16H58O3-
298.5649	28	C16H74O2-
299.094	31	C24H11-
299.3595	28	C17H47O3-
299.4469	25	C16H59O3-
299.5038	28	C14H67O4-
299.5405	133	C15H71O3-
299.5793	49	C16H75O2-
299.6113	36	C17H79O-
299.6504	39	C18H83-
300.0903	28	C24H12-
300.1562	32	C22H20O-
300.3305	35	C16H44O4-
300.411	27	C15H56O4-
300.4687	32	C20H60-
301.0055	30	C25H-
301.1777	38	C19H25O3-
301.4116	74	C18H53O2-
302.2547	26	C21H34O-
302.3406	32	C16H46O4-
302.5459	40	C18H70O-
303.1149	36	C24H15-
303.1533	29	C18H23O4-
303.2659	27	C21H35O-
303.3254	33	C19H43O2-
303.4788	29	C16H63O3-
303.664	35	C14H87O3-
304.082	36	C23H12O-
304.2093	32	C19H28O3-
304.4245	26	C18H56O2-
304.5454	40	C14H72O4-
304.6574	33	C17H84O-
305.0272	32	C21H5O3-
305.1129	36	C20H17O3-
305.195	26	C22H25O-
305.3592	24	C16H49O4-
305.3853	28	C20H49O-
305.6188	26	C16H81O2-
306.1017	40	C23H14O-
306.1961	27	C22H26O-
306.3175	32	C18H42O3-
307.007	30	C20H3O4-
307.1945	38	C18H27O4-
307.2628	29	C20H35O2-
308.1741	30	C21H24O2-
308.2576	35	C23H32-
308.343	29	C22H44-
308.5764	29	C14H76O4-
309.0914	40	C22H13O2-
309.212	33	C18H29O4-
309.3324	33	C18H45O3-
309.3787	32	C19H49O2-
309.4132	34	C20H53O-
309.4871	36	C15H65O4-
309.6052	28	C18H77O-
310.0718	34	C25H10-
310.1298	26	C23H18O-
310.3975	30	C16H54O4-
310.5965	34	C14H78O4-
310.6359	32	C19H82-
311.5447	42	C16H71O3-
311.5734	33	C17H75O2-
312.1433	37	C19H20O4-
312.324	34	C17H44O4-
312.4659	27	C21H60-
312.5498	38	C16H72O3-
313.6175	24	C14H81O4-
314.0561	28	C20H10O4-
315.3074	29	C23H39-
315.3698	35	C21H47O-
315.6303	26	C14H83O4-
316.9936	34	C21HO4-
317.2115	24	C20H29O3-
318.3684	28	C17H50O4-
318.4216	26	C22H54-
318.4579	30	C16H62O4-
319.221	32	C20H31O3-
319.3221	28	C19H43O3-
319.4569	33	C19H59O2-
319.5147	32	C17H67O3-
319.6658	48	C14H87O4-
320.0486	30	C22H8O3-
320.1456	27	C21H20O3-
320.4532	30	C19H60O2-
320.4879	26	C16H64O4-
320.597	32	C19H76O-
321.0323	28	C25H5O-
321.0558	28	C22H9O3-
321.1476	29	C21H21O3-
321.21	30	C19H29O4-
321.5307	28	C17H69O3-
322.0588	31	C22H10O3-
322.1371	40	C24H18O-
322.1622	27	C21H22O3-
323.2438	30	C23H31O-
323.4293	37	C21H55O-
323.6507	47	C20H83-
324.6858	34	C17H88O2-
325.079	26	C22H13O3-
325.1206	33	C23H17O2-
325.366	36	C19H49O3-
325.6364	33	C19H81O-
326.0718	28	C25H10O-
326.4158	34	C20H54O2-
326.5713	32	C17H74O3-
327.0269	32	C27H3-
327.1553	33	C20H23O4-
327.2155	32	C25H27-
327.6642	26	C16H87O3-
327.9987	38	C26O-
328.3613	32	C18H48O4-
328.4614	42	C21H60O-
328.5552	26	C20H72O-
328.6857	32	C20H88-
329.0091	28	C26HO-
329.042	35	C27H5-
329.0784	29	C21H13O4-
329.2688	24	C19H37O4-
329.3629	41	C18H49O4-
329.434	34	C20H57O2-
329.566	34	C20H73O-
330.2508	38	C22H34O2-
330.2741	35	C19H38O4-
330.6078	38	C21H78-
331.1761	26	C23H23O2-
331.1999	28	C24H27O-
331.4182	24	C19H55O3-
331.5905	26	C20H75O-
331.6774	26	C19H87O-
332.3327	27	C20H44O3-
332.3944	33	C18H52O4-
332.5563	47	C19H72O2-
333.1234	30	C25H17O-
333.541	26	C22H69-
333.6326	31	C21H81-
334.5432	36	C22H70-
335.0648	30	C23H11O3-
335.0911	29	C27H11-
335.1859	26	C26H23-
336.0614	34	C26H8O-
336.4317	28	C22H56O-
336.4734	34	C23H60-
336.6048	43	C16H80O4-
337.0004	28	C24HO3-
337.097	51	C27H13-
337.2673	28	C21H37O3-
338.4933	34	C23H62-
338.6164	26	C16H82O4-
339.0653	35	C22H11O4-
339.2245	38	C23H31O2-
339.4251	28	C21H55O2-
339.4978	30	C23H63-
339.5922	29	C22H75-
339.991	30	C27O-
340.1296	34	C27H16-
340.1748	28	C21H24O4-
341.0614	33	C25H9O2-
341.247	26	C23H33O2-
341.373	30	C23H49O-
341.4421	34	C21H57O2-
341.5948	33	C18H77O3-
341.6512	24	C16H85O4-
342.4254	28	C24H54-
342.6058	30	C22H78-
343.1067	30	C26H15O-
343.157	28	C27H19-
343.3001	33	C24H39O-
343.3639	32	C22H47O2-
343.4326	24	C24H55-
343.4838	37	C22H63O-
343.5881	32	C21H75O-
344.1291	30	C26H16O-
344.4303	29	C20H56O3-
344.6734	114	C16H88O4-
345.1241	37	C26H17O-
345.2023	35	C21H29O4-
345.6306	37	C22H81-
346.012	26	C26H2O2-
346.2129	39	C21H30O4-
346.3404	36	C21H46O3-
346.4539	39	C24H58-
347.0119	32	C26H3O2-
347.0506	30	C27H7O-
347.1783	24	C27H23-
347.4076	32	C19H55O4-
347.4422	26	C20H59O3-
347.6539	28	C22H83-
348.0775	41	C24H12O3-
348.3189	33	C20H44O4-
348.3547	35	C21H48O3-
348.4001	32	C22H52O2-
349.1741	33	C23H25O3-
349.2352	30	C21H33O4-
349.3446	24	C24H45O-
349.3733	28	C21H49O3-
349.5155	30	C18H69O4-
350.0722	30	C27H10O-
350.239	37	C21H34O4-
350.3337	30	C20H46O4-
350.3687	30	C21H50O3-
350.5325	38	C18H70O4-
351.1034	28	C24H15O3-
351.2052	34	C27H27-
351.2671	30	C25H35O-
351.6722	30	C18H87O3-
352.0844	26	C27H12O-
352.1269	34	C28H16-
352.3012	28	C22H40O3-
352.3409	33	C23H44O2-
352.4369	24	C22H56O2-
352.6669	38	C18H88O3-
353.0847	26	C23H13O4-
353.2457	43	C24H33O2-
354.1657	39	C25H22O2-
354.196	26	C26H26O-
354.3532	24	C23H46O2-
354.5196	48	C24H66-
355.0525	32	C29H7-
355.2426	30	C27H31-
355.5691	24	C18H75O4-
356.1065	28	C23H16O4-
356.272	28	C24H36O2-
356.4778	24	C19H64O4-
356.5697	24	C18H76O4-
356.6793	28	C21H88O-
357.0697	26	C29H9-
357.4481	39	C25H57-
357.5417	32	C24H69-
358.3186	24	C25H42O-
358.4192	33	C24H54O-
359.1366	24	C27H19O-
359.2094	29	C25H27O2-
359.4265	32	C24H55O-
359.4976	36	C19H67O4-
359.6212	35	C22H79O-
359.6676	34	C20H87O2-
360.647	30	C19H84O3-
360.6777	29	C20H88O2-
361.3431	30	C25H45O-
361.429	32	C20H57O4-
361.5164	30	C19H69O4-
362.0862	29	C25H14O3-
362.3127	30	C24H42O2-
362.3703	34	C22H50O3-
363.018	25	C30H3-
363.4178	40	C23H55O2-
363.6009	26	C21H79O2-
363.6823	32	C23H87-
364.3027	41	C23H40O3-
364.5055	32	C25H64-
364.5363	34	C19H72O4-
364.6138	26	C21H80O2-
364.6704	24	C19H88O3-
365.0033	32	C29HO-
365.1883	24	C27H25O-
365.3011	26	C23H41O3-
365.5945	31	C20H77O3-
366.1187	32	C25H18O3-
367.2317	26	C24H31O3-
367.4071	31	C22H55O3-
367.6702	26	C22H87O-
368.2778	28	C25H36O2-
368.4653	30	C23H60O2-
368.5319	35	C25H68-
369.1155	24	C24H17O4-
369.2131	36	C23H29O4-
369.3507	37	C27H45-
369.4767	28	C23H61O2-
369.5294	38	C21H69O3-
369.6063	40	C23H77O-
370.0221	35	C25H6O4-
370.0615	33	C26H10O3-
370.3968	42	C21H54O4-
371.1594	33	C25H23O3-
371.2635	28	C24H35O3-
371.2868	27	C25H39O2-
371.329	30	C26H43O-
371.4407	28	C22H59O3-
371.4913	28	C23H63O2-
371.5383	26	C21H71O3-
372.3306	28	C22H44O4-
373.2871	27	C28H37-
373.3322	32	C22H45O4-
373.9959	26	C27H2O3-
375.1696	30	C28H23O-
375.2597	35	C23H35O4-
376.0595	46	C28H8O2-
376.1716	34	C24H24O4-
376.6606	24	C23H84O-
377.0222	26	C27H5O3-
377.1825	29	C24H25O4-
377.4026	30	C23H53O3-
378.1877	28	C24H26O4-
378.3641	36	C22H50O4-
378.439	26	C24H58O2-
379.0087	34	C26H3O4-
379.3357	39	C28H43-
379.4322	30	C27H55-
379.4711	29	C21H63O4-
380.1026	28	C25H16O4-
380.1337	25	C26H20O3-
380.1735	36	C27H24O2-
380.5582	34	C23H72O2-
380.6438	26	C22H84O2-
381.0356	36	C30H5O-
381.1573	34	C30H21-
381.2126	31	C24H29O4-
381.2544	24	C29H33-
381.3084	28	C23H41O4-
381.3762	30	C25H49O2-
381.4115	36	C26H53O-
382.0109	28	C29H2O2-
382.0643	30	C27H10O3-
382.1307	35	C29H18O-
382.3569	34	C28H46-
382.4035	28	C22H54O4-
382.5736	26	C23H74O2-
383.1386	34	C29H19O-
383.3137	34	C23H43O4-
383.4273	49	C26H55O-
383.5731	26	C23H75O2-
384.0621	26	C30H8O-
384.1381	32	C25H20O4-
384.1681	31	C26H24O3-
384.4844	32	C24H64O2-
385.0145	45	C32H-
385.5839	28	C23H77O2-
386.507	31	C24H66O2-
387.151	28	C25H23O4-
387.2555	39	C24H35O4-
387.5091	30	C24H67O2-
388.1268	35	C31H16-
388.2927	28	C25H40O3-
388.6138	31	C23H80O2-
389.1098	32	C27H17O3-
389.2625	26	C24H37O4-
389.991	32	C27H2O4-
390.0466	26	C32H6-
390.1544	30	C28H22O2-
390.3097	24	C25H42O3-
390.4757	31	C26H62O-
391.1337	32	C27H19O3-
391.2555	26	C27H35O2-
391.3309	28	C29H43-
391.3934	28	C27H51O-
391.5507	30	C24H71O2-
391.6775	42	C24H87O-
392.0155	40	C27H4O4-
392.11	32	C26H16O4-
392.2563	47	C30H32-
392.3707	32	C26H48O2-
392.419	29	C24H56O3-
392.5372	32	C27H68-
393.244	46	C26H33O3-
393.2889	28	C27H37O2-
393.3587	32	C29H45-
393.4634	37	C25H61O2-
393.6645	35	C23H85O2-
393.6935	30	C24H89O-
394.1608	37	C27H22O3-
394.4797	32	C25H62O2-
394.516	30	C26H66O-
394.6032	32	C25H78O-
395.0139	36	C30H3O2-
395.192	28	C28H27O2-
395.2612	27	C26H35O3-
395.388	45	C26H51O2-
395.4595	34	C28H59-
395.5466	28	C23H71O3-
396.1761	38	C27H24O3-
396.3045	34	C27H40O2-
396.4274	105	C27H56O-
396.6338	31	C22H84O3-
397.0428	33	C27H9O4-
397.1355	30	C26H21O4-
397.466	33	C24H61O3-
397.5016	30	C25H65O2-
398.2712	26	C29H34O-
398.5589	30	C23H74O3-
398.6434	33	C25H82O-
399.0238	42	C33H3-
399.1176	28	C32H15-
400.2377	28	C28H32O2-
400.539	33	C22H72O4-
401.0048	34	C32HO-
401.2077	30	C27H29O3-
401.3411	24	C27H45O2-
401.9953	27	C28H2O4-
402.0314	39	C29H6O3-
402.0675	34	C30H10O2-
402.1806	30	C26H26O4-
402.2843	42	C25H38O4-
402.3271	30	C30H42-
402.6342	24	C24H82O2-
403.6849	32	C25H87O-
406.0963	33	C30H14O2-
407.2606	28	C27H35O3-
407.316	26	C25H43O4-
407.4358	36	C28H55O-
408.1441	26	C27H20O4-
408.1896	32	C32H24-
408.2603	30	C27H36O3-
408.306	32	C28H40O2-
408.3423	36	C29H44O-
408.4296	30	C28H56O-
409.1189	26	C30H17O2-
409.1611	30	C31H21O-
409.2344	32	C26H33O4-
409.5737	28	C28H73-
409.6111	26	C22H81O4-
409.9969	24	C30H2O3-
410.5004	30	C26H66O2-
410.6669	33	C27H86-
411.2345	36	C29H31O2-
411.471	28	C25H63O3-
411.6099	30	C25H79O2-
412.1825	26	C31H24O-
412.3748	26	C29H48O-
413.2182	36	C28H29O3-
413.2769	25	C26H37O4-
413.559	38	C23H73O4-
414.1617	42	C30H22O2-
414.4339	30	C27H58O2-
415.1602	26	C30H23O2-
415.1883	32	C27H27O4-
415.2405	30	C32H31-
415.4057	34	C26H55O3-
415.5919	31	C27H75O-
416.1423	26	C29H20O3-
416.1792	29	C30H24O2-
416.2302	32	C28H32O3-
416.648	37	C25H84O2-
417.0784	28	C34H9-
417.1919	30	C30H25O2-
417.286	124	C29H37O2-
417.3648	36	C28H49O2-
417.4906	34	C24H65O4-
417.5566	37	C26H73O2-
417.6384	36	C28H81-
418.1008	34	C31H14O2-
418.16	30	C29H22O3-
418.6738	31	C25H86O2-
419.1645	28	C29H23O3-
419.4391	41	C26H59O3-
420.1556	34	C32H20O-
420.5198	28	C24H68O4-
420.5527	55	C25H72O3-
421.2146	28	C30H29O2-
421.3257	27	C26H45O4-
421.4598	26	C26H61O3-
422.386	37	C31H50-
423.2881	28	C28H39O3-
423.4774	36	C26H63O3-
423.6399	32	C27H83O-
424.0233	28	C31H4O3-
424.231	24	C30H32O2-
424.358	24	C26H48O4-
424.6327	33	C23H84O4-
425.3609	26	C26H49O4-
425.6709	26	C27H85O-
426.0429	28	C35H6-
426.1291	32	C30H18O3-
426.1655	32	C31H22O2-
426.4714	32	C25H62O4-
426.9967	30	C30H3O4-
427.053	24	C35H7-
427.0928	29	C29H15O4-
427.1381	37	C30H19O3-
427.163	32	C31H23O2-
427.3354	32	C32H43-
427.3805	30	C26H51O4-
427.513	34	C26H67O3-
428.0304	34	C34H4O-
429.2005	28	C28H29O4-
429.4059	36	C30H53O-
429.6933	31	C27H89O-
430.5432	31	C30H70-
431.0874	26	C35H11-
431.1501	32	C33H19O-
431.5045	34	C25H67O4-
432.2212	32	C28H32O4-
432.3363	29	C31H44O-
432.4157	27	C26H56O4-
432.6509	33	C29H84-
433.1083	27	C35H13-
433.1942	26	C34H25-
433.2952	32	C33H37-
433.6002	36	C27H77O2-
434.1908	28	C30H26O3-
434.429	28	C26H58O4-
435.0666	26	C30H11O4-
435.5574	28	C29H71O-
436.0899	26	C34H12O-
436.3694	40	C31H48O-
436.5068	36	C31H64-
436.5381	26	C25H72O4-
436.5976	32	C30H76-
437.1043	29	C34H13O-
437.1625	32	C32H21O2-
437.4306	32	C29H57O2-
437.6094	38	C30H77-
438.4334	44	C29H58O2-
438.5704	29	C29H74O-
439.2547	32	C31H35O2-
439.4681	43	C26H63O4-
439.6368	26	C27H83O2-
439.6729	27	C28H87O-
440.0015	24	C31H4O4-
440.0633	35	C36H8-
440.2024	30	C29H28O4-
440.5939	31	C29H76O-
441.1337	34	C34H17O-
441.2872	26	C31H37O2-
441.4862	36	C26H65O4-
442.0126	30	C34H2O2-
442.22	35	C29H30O4-
442.593	30	C25H78O4-
443.1985	32	C32H27O2-
443.4359	28	C31H55O-
443.6267	42	C26H83O3-
443.6622	46	C27H87O2-
444.3991	31	C30H52O2-
444.5401	28	C27H72O3-
444.6901	33	C27H88O2-
445.01	30	C37H-
445.067	40	C35H9O-
445.4213	30	C27H57O4-
446.2412	28	C29H34O4-
447.0856	30	C35H11O-
447.1304	30	C33H19O2-
447.3158	28	C31H43O2-
447.4689	32	C28H63O3-
448.0717	35	C31H12O4-
448.1701	32	C30H24O4-
448.2812	33	C33H36O-
448.3937	38	C29H52O3-
449.0067	24	C36HO-
449.0652	29	C34H9O2-
449.1473	32	C33H21O2-
449.1815	30	C30H25O4-
450.5103	24	C32H66-
451.1372	26	C32H19O3-
451.2056	32	C34H27O-
451.4249	27	C33H55-
451.684	24	C29H87O-
452.044	32	C33H8O3-
452.1758	36	C33H24O2-
452.245	31	C35H32-
452.3456	30	C34H44-
452.5763	30	C26H76O4-
453.0764	36	C37H9-
453.3858	30	C28H53O4-
453.5598	28	C29H73O2-
453.6244	28	C27H81O3-
453.6852	33	C29H89O-
454.0705	28	C33H10O3-
454.1987	28	C33H26O2-
454.5187	28	C31H66O-
455.2065	126	C33H27O2-
455.2779	28	C35H35-
455.3104	26	C29H43O4-
455.4022	28	C28H55O4-
455.5904	26	C26H79O4-
457.0359	30	C35H5O2-
457.2365	28	C30H33O4-
457.5331	32	C31H69O-
458.1564	28	C31H22O4-
458.2723	25	C31H38O3-
458.6154	36	C26H82O4-
458.6713	29	C31H86-
459.1097	25	C33H15O3-
459.243	30	C33H31O2-
459.3283	32	C32H43O2-
460.3328	30	C32H44O2-
460.4229	29	C31H56O2-
460.5051	34	C33H64-
460.6206	28	C29H80O2-
460.9864	24	C33HO4-
461.491	34	C29H65O3-
461.6861	30	C27H89O3-
462.0826	38	C32H14O4-
462.1602	33	C34H22O2-
462.2932	24	C34H38O-
462.4467	29	C31H58O2-
462.6043	36	C32H78-
463.0911	26	C32H15O4-
463.5213	26	C33H67-
463.5867	26	C31H75O-
464.0616	28	C38H8-
464.1065	28	C32H16O4-
464.1983	34	C31H28O4-
464.2578	30	C36H32-
464.3358	30	C31H44O3-
464.3774	37	C29H52O4-
464.4681	27	C31H60O2-
465.1311	28	C36H17O-
465.177	36	C34H25O2-
465.2121	36	C31H29O4-
465.5107	34	C32H65O-
467.0547	29	C37H7O-
467.3933	36	C32H51O2-
467.5028	36	C28H67O4-
467.5927	28	C27H79O4-
468.024	30	C36H4O2-
468.1508	28	C36H20O-
468.292	32	C33H40O2-
468.3419	30	C34H44O-
468.4375	36	C33H56O-
468.6857	32	C29H88O2-
469.1156	47	C35H17O2-
469.336	37	C30H45O4-
469.3847	28	C35H49-
470.0729	38	C37H10O-
470.1274	26	C35H18O2-
470.3264	34	C33H42O2-
470.6757	29	C32H86-
471.0868	26	C37H11O-
471.1995	28	C33H27O3-
471.2977	28	C32H39O3-
471.396	41	C35H51-
471.5226	24	C31H67O2-
472.108	30	C34H16O3-
472.1715	26	C32H24O4-
472.334	31	C33H44O2-
472.4452	28	C29H60O4-
472.5005	28	C34H64-
473.0679	36	C36H9O2-
473.203	26	C33H29O3-
473.3225	34	C36H41-
473.3707	34	C30H49O4-
473.4167	28	C35H53-
473.4765	32	C33H61O-
473.5364	36	C31H69O2-
474.0878	28	C33H14O4-
474.273	27	C31H38O4-
474.3185	32	C32H42O3-
474.5284	32	C31H70O2-
474.5761	28	C32H74O-
475.0599	28	C39H7-
475.4854	33	C33H63O-
476.1776	32	C35H24O2-
476.4212	28	C31H56O3-
476.5995	33	C32H76O-
477.2607	34	C37H33-
478.2012	34	C35H26O2-
478.5628	28	C31H74O2-
478.6155	34	C32H78O-
479.0148	30	C37H3O2-
479.5056	36	C29H67O4-
480.0422	39	C34H8O4-
480.0737	40	C35H12O3-
480.2621	27	C33H36O3-
481.3841	28	C36H49-
481.4992	40	C32H65O2-
481.9984	33	C36H2O3-
482.1006	30	C35H14O3-
482.2048	32	C38H26-
482.243	32	C32H34O4-
482.3955	32	C36H50-
483.1998	34	C34H27O3-
483.4186	36	C33H55O2-
483.6265	28	C28H83O4-
484.2002	29	C34H28O3-
484.3857	41	C32H52O3-
484.5612	30	C33H72O-
484.997	26	C39HO-
485.1291	30	C39H17-
485.1861	26	C37H25O-
485.2332	29	C38H29-
485.5597	30	C33H73O-
486.1439	36	C39H18-
486.3231	39	C37H42-
487.0197	33	C39H3O-
487.2499	34	C38H31-
487.293	35	C36H39O-
487.3908	33	C35H51O-
488.3135	30	C36H40O-
488.3674	30	C34H48O2-
488.5677	30	C29H76O4-
488.6868	29	C32H88O-
489.0018	31	C38HO2-
489.3715	31	C34H49O2-
489.4089	24	C35H53O-
489.5323	29	C31H69O3-
489.613	30	C30H81O3-
490.0881	30	C37H14O2-
490.1602	36	C35H22O3-
490.4551	24	C36H58-
491.0017	24	C38H3O2-
491.1075	46	C37H15O2-
491.2769	25	C38H35-
491.3344	28	C36H43O-
492.1608	28	C38H20O-
492.275	26	C38H36-
493.1649	26	C38H21O-
493.4091	40	C34H53O2-
493.456	28	C32H61O3-
493.6061	25	C29H81O4-
495.0528	28	C38H7O2-
495.1795	34	C38H23O-
495.2023	28	C35H27O3-
495.2332	28	C36H31O2-
495.3294	30	C35H43O2-
495.5886	26	C35H75-
496.0473	32	C38H8O2-
496.2742	28	C37H36O-
496.3431	36	C35H44O2-
496.3975	30	C33H52O3-
497.3725	34	C36H49O-
497.6184	24	C32H81O2-
497.6914	24	C34H89-
498.1053	30	C39H14O-
498.4512	34	C34H58O2-
498.4887	30	C35H62O-
499.1879	28	C34H27O4-
499.2454	24	C39H31-
499.284	26	C33H39O4-
499.5567	33	C30H75O4-
499.6059	28	C31H79O3-
499.686	30	C33H87O-
500.2953	40	C33H40O4-
500.4641	38	C34H60O2-
500.6661	31	C29H88O4-
501.0541	43	C37H9O3-
501.0851	34	C38H13O2-
501.1407	34	C36H21O3-
501.244	34	C35H33O3-
501.5181	32	C32H69O3-
502.248	33	C35H34O3-
502.363	28	C38H46-
502.4912	34	C31H66O4-
503.4652	36	C37H59-
504.2051	29	C37H28O2-
504.4018	41	C35H52O2-
504.4324	33	C36H56O-
505.0857	39	C37H13O3-
505.3052	24	C36H41O2-
505.367	34	C34H49O3-
505.5096	30	C31H69O4-
505.6376	30	C34H81O-
506.1824	26	C36H26O3-
507.0198	28	C42H3-
507.3961	32	C38H51-
507.5332	26	C31H71O4-
507.6005	29	C33H79O2-
507.6459	34	C34H83O-
507.6804	47	C35H87-
508.0897	29	C40H12O-
508.1649	40	C35H24O4-
508.3171	28	C39H40-
508.3916	32	C34H52O3-
508.4693	30	C36H60O-
508.4972	30	C37H64-
508.5982	43	C36H76-
508.6962	30	C35H88-
508.9857	32	C37HO4-
509.0501	26	C39H9O2-
509.1299	30	C41H17-
509.2132	32	C36H29O3-
509.2953	30	C38H37O-
509.5016	33	C37H65-
510.0948	34	C36H14O4-
510.1659	36	C38H22O2-
510.4043	31	C34H54O3-
510.5064	39	C33H66O3-
510.5631	36	C31H74O4-
511.0888	28	C36H15O4-
511.2319	28	C36H31O3-
511.5197	33	C37H67-
511.625	40	C36H79-
511.6824	24	C34H87O-
512.1731	28	C38H24O2-
512.3898	48	C33H52O4-
513.5	26	C36H65O-
513.6489	36	C33H85O2-
513.6824	32	C30H89O4-
514.139	26	C40H18O-
514.3746	27	C36H50O2-
514.6633	33	C33H86O2-
515.0921	26	C42H11-
515.258	32	C36H35O3-
515.4881	33	C35H63O2-
515.5857	28	C34H75O2-
516.1397	28	C36H20O4-
516.1784	33	C37H24O3-
516.217	28	C38H28O2-
516.2918	34	C37H40O2-
516.3522	32	C35H48O3-
516.4531	44	C34H60O3-
516.5183	28	C32H68O4-
517.0793	28	C38H13O3-
517.2337	28	C35H33O4-
517.3321	31	C34H45O4-
518.1195	26	C39H18O2-
518.251	28	C35H34O4-
518.359	36	C38H46O-
518.4377	28	C33H58O4-
518.5167	28	C35H66O2-
519.1241	29	C42H15-
519.37	28	C38H47O-
520.0107	30	C39H4O3-
520.3864	30	C35H52O3-
520.4761	39	C34H64O3-
520.6775	40	C32H88O3-
521.1134	34	C38H17O3-
521.6137	35	C34H81O2-
521.6967	30	C36H89-
522.1277	38	C38H18O3-
522.4455	40	C36H58O2-
522.5492	30	C32H74O4-
523.0079	28	C38H3O4-
523.3347	24	C40H43-
523.6382	28	C34H83O2-
524.2308	26	C37H32O3-
524.2587	26	C41H32-
524.5412	25	C35H72O2-
524.581	26	C32H76O4-
525.0392	36	C42H5O-
525.1284	26	C41H17O-
525.1764	32	C39H25O2-
525.3376	33	C36H45O3-
526.0126	28	C41H2O2-
526.2174	34	C36H30O4-
526.5607	32	C35H74O2-
527.1074	26	C40H15O2-
527.3109	26	C35H43O4-
527.5942	26	C32H79O4-
528.0404	33	C38H8O4-
528.0677	29	C42H8O-
528.2887	28	C41H36-
528.5181	27	C33H68O4-
529.2182	26	C39H29O2-
529.3273	30	C35H45O4-
529.3959	30	C37H53O2-
530.1158	24	C43H14-
530.4572	30	C38H58O-
530.5935	28	C35H78O2-
531.0303	28	C44H3-
531.2178	31	C42H27-
531.2949	24	C37H39O3-
531.5593	24	C37H71O-
532.031	31	C44H4-
532.0836	28	C42H12O-
532.1755	26	C37H24O4-
532.2705	26	C40H36O-
532.3524	32	C35H48O4-
532.6122	32	C35H80O2-
533.0245	30	C40H5O3-
533.1123	30	C39H17O3-
533.188	33	C41H25O-
533.2589	30	C39H33O2-
533.4328	30	C37H57O2-
533.5028	41	C39H65-
533.6563	37	C36H85O-
534.2224	37	C38H30O3-
534.3511	28	C38H46O2-
534.4681	34	C34H62O4-
534.6499	36	C32H86O4-
535.4742	34	C34H63O4-
536.2912	26	C36H40O4-
536.3672	48	C38H48O2-
536.4101	24	C39H52O-
536.4709	38	C34H64O4-
536.6269	40	C38H80-
537.0236	28	C39H5O4-
537.0782	28	C44H9-
537.4593	33	C37H61O2-
538.3742	34	C38H50O2-
538.4951	36	C34H66O4-
538.5383	32	C35H70O3-
539.0069	24	C42H3O2-
539.1562	24	C39H23O3-
539.2176	32	C37H31O4-
539.3419	30	C40H43O-
539.9958	34	C45-
540.406	32	C35H56O4-
540.4304	32	C35H56O4-
540.6607	35	C38H84-
541.0624	33	C43H9O-
541.4485	34	C39H57O-
541.5334	26	C38H69O-
541.6152	30	C33H81O4-
541.9915	34	C41H2O3-
542.1907	26	C39H26O3-
543.1923	30	C39H27O3-
543.4012	34	C41H51-
543.4358	24	C35H59O4-
543.5453	32	C38H71O-
543.9804	28	C40O4-
544.0687	30	C39H12O4-
544.1931	32	C42H24O-
544.2945	32	C38H40O3-
544.3466	30	C36H48O4-
544.9966	26	C44HO-
545.1185	39	C40H17O3-
545.4837	29	C36H65O3-
545.5281	24	C37H69O2-
545.5827	26	C35H77O3-
545.679	28	C34H89O3-
546.0811	31	C39H14O4-
546.2146	31	C39H30O3-
546.3655	35	C36H50O4-
547.4096	26	C37H55O3-
547.4567	31	C38H59O2-
548.1296	26	C43H16O-
549.0445	26	C44H5O-
549.2561	34	C43H33-
549.3229	34	C41H41O-
550.5474	34	C40H70-
550.629	29	C35H82O3-
551.1306	28	C39H19O4-
551.1688	28	C40H23O3-
552.3046	26	C40H40O2-
552.3353	36	C41H44O-
552.3982	40	C39H52O2-
552.6782	34	C36H88O2-
553.0226	34	C43H5O2-
553.1863	32	C40H25O3-
553.2285	34	C38H33O4-
553.3275	28	C37H45O4-
553.4035	36	C39H53O2-
553.4446	30	C40H57O-
554.0613	36	C40H10O4-
554.1152	38	C45H14-
554.1539	34	C39H22O4-
554.2767	28	C39H38O3-
554.4548	26	C40H58O-
554.6341	30	C38H82O-
554.6717	28	C39H86-
555.4907	35	C41H63-
555.6134	26	C37H79O2-
556.2115	28	C40H28O3-
556.3121	24	C43H40-
556.4039	28	C42H52-
557.0109	34	C45HO-
557.0761	28	C40H13O4-
557.1482	28	C42H21O2-
557.2261	32	C44H29-
557.3281	30	C43H41-
557.4035	32	C38H53O3-
557.4753	42	C40H61O-
557.5586	26	C35H73O4-
557.614	38	C37H81O2-
557.6855	27	C35H89O3-
558.104	28	C44H14O-
558.1353	26	C45H18-
558.3919	37	C41H50O-
559.4146	26	C38H55O3-
559.5262	32	C41H67-
560.0886	35	C43H12O2-
560.1978	28	C39H28O4-
560.4239	32	C38H56O3-
561.0296	30	C45H5O-
561.4877	35	C36H65O4-
561.6189	31	C36H81O3-
562.0236	28	C41H6O4-
562.1726	37	C45H22-
562.2147	30	C39H30O4-
562.4707	26	C39H62O2-
562.6067	29	C39H78O-
562.6438	26	C40H82-
563.0363	34	C41H7O4-
563.1568	33	C41H23O3-
563.4378	40	C38H59O3-
563.46	40	C38H59O3-
563.5852	31	C38H75O2-
564.5916	30	C38H76O2-
565.333	35	C38H45O4-
565.4319	40	C37H57O4-
565.5141	41	C36H69O4-
565.5719	35	C41H73-
565.6374	34	C39H81O-
566.0883	28	C42H14O3-
566.1646	32	C44H22O-
566.2278	38	C42H30O2-
567.1746	25	C44H23O-
567.3981	26	C43H51-
567.5306	24	C36H71O4-
568.1192	37	C46H16-
568.6903	27	C40H88-
569.0362	29	C47H5-
569.3637	28	C38H49O4-
569.4268	24	C40H57O2-
569.7028	30	C40H89-
570.0065	31	C46H2O-
570.0769	34	C44H10O2-
570.5702	26	C40H74O-
571.5283	32	C42H67-
571.6779	30	C39H87O-
572.559	24	C39H72O2-
573.456	30	C40H61O2-
574.201	31	C43H26O2-
574.2317	40	C44H30O-
574.3114	29	C39H42O4-
574.3692	31	C41H50O2-
575.034	30	C42H7O4-
575.1755	24	C46H23-
575.4067	42	C38H55O4-
576.0962	28	C47H12-
576.1382	36	C41H20O4-
576.2403	42	C44H32O-
576.3324	29	C43H44O-
576.4604	28	C39H60O3-
577.0839	34	C43H13O3-
577.6948	27	C38H89O2-
578.3572	28	C43H46O-
578.3914	33	C44H50-
579.0788	32	C46H11O-
579.2438	26	C40H35O4-
579.3901	38	C40H51O3-
579.5659	42	C38H75O3-
580.1891	28	C45H24O-
580.2935	36	C41H40O3-
581.2935	30	C44H37O-
581.3208	32	C45H41-
581.5308	30	C40H69O2-
581.6175	40	C39H81O2-
582.0199	29	C47H2O-
582.2384	34	C46H30-
582.3157	24	C41H42O3-
582.518	29	C43H66-
583.0068	32	C43H3O4-
583.1145	30	C46H15O-
583.1857	28	C41H27O4-
583.5803	27	C41H75O-
583.9951	33	C46O2-
584.3849	39	C39H52O4-
584.4981	26	C42H64O-
584.9994	32	C46HO2-
585.5085	35	C42H65O-
586.1012	36	C45H14O2-
586.188	28	C44H26O2-
587.135	32	C42H19O4-
587.2824	34	C43H39O2-
587.4139	31	C39H55O4-
587.6753	28	C39H87O2-
588.3087	34	C43H40O2-
588.4197	30	C39H56O4-
588.4602	28	C40H60O3-
589.0038	28	C49H-
589.0379	26	C46H5O2-
589.3623	34	C41H49O3-
589.5191	33	C38H69O4-
589.6885	39	C39H89O2-
590.0116	34	C49H2-
590.0768	34	C47H10O-
590.1349	31	C45H18O2-
590.2017	30	C47H26-
590.3987	32	C45H50-
590.4994	32	C41H66O2-
590.6293	39	C37H82O4-
590.6624	32	C38H86O3-
591.0892	39	C47H11O-
591.1226	30	C48H15-
591.381	33	C41H51O3-
591.4725	36	C40H63O3-
591.6411	32	C41H83O-
592.0877	40	C47H12O-
592.209	29	C43H28O3-
592.3832	27	C41H52O3-
592.4159	36	C42H56O2-
592.497	28	C44H64-
592.612	30	C40H80O2-
593.0113	39	C48HO-
593.0716	38	C43H13O4-
593.1339	24	C48H17-
593.2642	37	C41H37O4-
593.3242	34	C46H41-
593.5338	26	C41H69O2-
593.5758	32	C42H73O-
593.6729	111	C38H89O3-
594.1156	30	C44H18O3-
595.6679	36	C37H87O4-
596.1157	30	C47H16O-
596.2127	33	C46H28O-
596.5322	34	C44H68-
596.6226	40	C43H80-
596.6904	30	C41H88O-
597.1464	36	C44H21O3-
597.3815	29	C43H49O2-
597.5046	28	C43H65O-
597.6861	41	C41H89O-
598.1257	37	C43H18O4-
598.2421	30	C43H34O3-
598.3711	37	C43H50O2-
598.4217	32	C44H54O-
599.049	30	C48H7O-
599.0959	30	C46H15O2-
599.6569	30	C43H83-
599.9924	30	C46O3-
600.4758	28	C45H60-
601.2633	30	C46H33O-
601.5208	41	C39H69O4-
601.5621	26	C40H73O3-
601.6843	38	C40H89O2-
601.9918	32	C46H2O3-
602.0759	44	C48H10O-
602.2697	31	C46H34O-
602.5378	40	C43H70O-
603.2008	32	C44H27O3-
603.2827	29	C43H39O3-
603.4277	27	C43H55O2-
603.9658	33	C45O4-
604.1036	36	C45H16O3-
604.4998	32	C45H64-
604.5434	35	C39H72O4-
605.2908	26	C46H37O-
605.3759	34	C45H49O-
605.4153	28	C46H53-
605.5452	28	C39H73O4-
605.6878	34	C39H89O3-
606.0413	28	C50H6-
606.2746	24	C42H38O4-
606.4201	24	C46H54-
606.5393	36	C42H70O2-
607.0085	26	C45H3O4-
607.243	29	C48H31-
607.344	29	C47H43-
607.563	34	C39H75O4-
607.6326	34	C41H83O2-
608.0607	29	C50H8-
608.1514	30	C49H20-
608.495	32	C44H64O-
608.5906	30	C43H76O-
608.6194	27	C44H80-
609.1015	26	C47H13O2-
609.1703	26	C49H21-
609.3667	26	C44H49O2-
609.5392	26	C45H69-
610.0005	38	C48H2O2-
610.1999	34	C46H26O2-
610.2707	28	C48H34-
610.4159	33	C45H54O-
611.2253	29	C43H31O4-
612.272	39	C44H36O3-
613.3737	30	C43H49O3-
613.5313	32	C44H69O-
614.0503	30	C45H10O4-
614.1739	30	C48H22O-
614.4119	31	C44H54O2-
614.4537	26	C45H58O-
614.6246	35	C39H82O4-
615.1279	30	C47H19O2-
615.3196	33	C45H43O2-
616.0067	32	C47H4O3-
616.4159	30	C44H56O2-
616.9764	40	C46HO4-
617.0452	28	C51H5-
617.2192	26	C45H29O3-
617.3263	32	C48H41-
617.5365	26	C43H69O2-
618.178	24	C44H26O4-
618.2927	28	C47H38O-
619.0112	28	C46H3O4-
619.1954	27	C44H27O4-
619.5163	30	C42H67O3-
619.5832	35	C44H75O-
619.9767	31	C49O2-
620.2666	25	C46H36O2-
620.3531	32	C45H48O2-
620.6378	30	C42H84O2-
621.0276	32	C50H5O-
621.6157	32	C41H81O3-
621.6793	36	C39H89O4-
623.072	36	C47H11O3-
623.1262	38	C45H19O4-
623.6567	35	C45H83-
624.23	29	C44H32O4-
624.3534	29	C44H48O3-
624.4196	28	C42H56O4-
625.375	30	C44H49O3-
626.1011	25	C47H14O3-
626.3042	32	C49H38-
627.1523	34	C45H23O4-
627.2905	30	C45H39O3-
627.3502	34	C43H47O4-
627.6206	30	C40H83O4-
628.0644	36	C46H12O4-
628.1496	28	C48H20O2-
628.2248	26	C50H28-
628.4993	26	C47H64-
628.5478	30	C41H72O4-
628.6161	36	C43H80O2-
628.6667	26	C41H88O3-
629.1589	28	C48H21O2-
629.2556	32	C47H33O2-
629.4913	30	C43H65O3-
629.5343	34	C44H69O2-
629.6171	26	C43H81O2-
630.1492	26	C51H18-
630.2443	41	C47H34O2-
630.6421	29	C43H82O2-
631.5351	30	C44H71O2-
632.196	35	C45H28O4-
632.2466	38	C50H32-
632.3853	29	C43H52O4-
632.4635	36	C45H60O2-
633.014	26	C47H5O4-
633.4436	30	C48H57-
634.6084	28	C45H78O-
634.6552	31	C43H86O2-
635.0465	31	C51H7O-
635.2187	34	C45H31O4-
635.4307	31	C47H55O-
635.4705	32	C45H63O2-
635.6438	28	C46H83-
636.247	31	C49H32O-
636.3787	30	C49H48-
636.6885	42	C43H88O2-
637.2648	35	C46H37O3-
638.0041	30	C49H2O3-
638.2462	33	C45H34O4-
638.3627	30	C48H46O-
638.5584	38	C43H74O3-
638.6459	35	C45H82O-
639.2953	30	C46H39O3-
639.3672	36	C48H47O-
640.0964	36	C51H12O-
640.2045	26	C47H28O3-
640.2573	26	C45H36O4-
640.3497	33	C44H48O4-
640.4057	30	C49H52-
640.508	33	C48H64-
641.0977	26	C51H13O-
641.1368	28	C52H17-
641.3364	32	C47H45O2-
641.3716	32	C48H49O-
641.6773	30	C42H89O3-
642.1512	38	C49H22O2-
642.2421	32	C51H30-
642.574	28	C46H74O-
643.1284	35	C48H19O3-
643.5723	34	C42H75O4-
644.0583	41	C53H8-
644.1314	36	C48H20O3-
644.1995	26	C46H28O4-
644.2773	32	C48H36O2-
644.6845	33	C45H88O-
645.0402	34	C52H5O-
645.1774	28	C49H25O2-
645.477	40	C46H61O2-
646.0658	24	C49H10O3-
646.5016	30	C43H66O4-
647.2418	34	C50H31O-
648.3693	32	C50H48-
648.443	32	C48H56O-
648.9828	32	C50HO3-
649.3953	31	C47H53O2-
649.4565	30	C45H61O3-
650.1332	36	C50H18O2-
650.2642	36	C50H34O-
650.5778	26	C48H74-
651.1689	30	C51H23O-
651.2948	26	C47H39O3-
651.396	39	C50H51-
652.1535	37	C50H20O2-
652.3619	24	C45H48O4-
652.5334	24	C43H72O4-
652.6653	30	C43H88O3-
653.1312	32	C53H17-
653.4288	38	C47H57O2-
653.4795	28	C48H61O-
654.2092	37	C51H26O-
654.4914	36	C45H66O3-
655.1857	26	C47H27O4-
655.354	36	C48H47O2-
655.412	28	C46H55O3-
655.4789	38	C44H63O4-
655.5503	32	C46H71O2-
655.5873	38	C47H75O-
656.0908	26	C51H12O2-
656.2387	36	C48H32O3-
656.355	34	C48H48O2-
657.0507	26	C50H9O3-
657.1111	32	C48H17O4-
657.2371	34	C48H33O3-
657.3684	27	C48H49O2-
657.4043	30	C49H53O-
657.488	32	C44H65O4-
657.5992	39	C47H77O-
657.693	36	C46H89O-
658.2848	42	C49H38O2-
658.3894	35	C48H50O2-
659.4635	39	C50H59-
659.6001	36	C43H79O4-
660.1522	24	C52H20O-
660.3106	44	C49H40O2-
660.6479	32	C44H84O3-
661.537	24	C48H69O-
662.083	32	C53H10O-
662.1448	26	C48H22O4-
662.5451	27	C48H70O-
662.5914	31	C46H78O2-
663.1446	30	C51H19O2-
663.261	28	C47H35O4-
663.5999	28	C46H79O2-
663.641	36	C47H83O-
663.9666	30	C50O4-
664.1923	44	C52H24O-
664.3034	33	C48H40O3-
664.426	32	C48H56O2-
664.695	33	C48H88-
665.1599	30	C51H21O2-
665.3077	31	C48H41O3-
665.408	28	C51H53-
665.4781	26	C49H61O-
665.693	37	C48H89-
665.9806	32	C50H2O4-
666.2538	28	C50H34O2-
667.0859	29	C52H11O2-
667.425	26	C51H55-
667.5243	28	C50H67-
668.0374	28	C51H8O3-
668.0969	35	C49H16O4-
668.1308	38	C53H16O-
668.255	30	C53H32-
668.4152	36	C47H56O3-
669.1545	24	C50H21O3-
669.2443	36	C49H33O3-
669.6566	45	C46H85O2-
670.5977	28	C44H78O4-
671.3384	40	C51H43O-
671.5329	30	C46H71O3-
671.604	30	C44H79O4-
672.0193	34	C53H4O2-
672.0705	40	C51H12O3-
672.1478	48	C53H20O-
672.3234	34	C47H44O4-
672.435	26	C50H56O-
672.558	30	C50H72-
673.044	25	C50H9O4-
673.1954	33	C54H25-
673.2513	27	C52H33O-
673.4647	30	C47H61O3-
674.1079	29	C55H14-
674.1625	25	C53H22O-
674.4798	32	C51H62-
674.5358	29	C49H70O-
674.6188	31	C44H82O4-
675.0755	51	C54H11O-
675.1812	37	C53H23O-
675.3984	32	C52H51-
675.4526	34	C50H59O-
676.1276	30	C55H16-
676.2596	30	C48H36O4-
676.5412	33	C45H72O4-
676.6699	35	C45H88O3-
677.0384	33	C56H5-
677.0622	50	C53H9O2-
677.1566	30	C52H21O2-
677.3712	30	C47H49O4-
678.1619	32	C52H22O2-
678.3117	38	C49H42O3-
679.1258	30	C51H19O3-
679.1738	34	C52H23O2-
679.4514	40	C49H59O2-
679.4834	38	C50H63O-
679.5702	40	C45H75O4-
680.0401	40	C52H8O3-
680.2278	35	C50H32O3-
680.4427	32	C52H56-
680.9831	29	C54HO2-
681.0691	26	C56H9-
681.113	24	C50H17O4-
681.17	30	C55H21-
681.3367	32	C49H45O3-
681.5778	35	C45H77O4-
681.6903	41	C48H89O-
682.1582	36	C51H22O3-
682.4881	33	C46H66O4-
682.643	31	C50H82-
683.0058	31	C54H3O2-
683.1117	28	C53H15O2-
683.442	30	C48H59O3-
683.5369	24	C47H71O3-
683.6128	29	C49H79O-
683.6604	26	C47H87O2-
684.0523	30	C55H8O-
684.2843	26	C54H36-
684.3991	31	C50H52O2-
684.5767	28	C48H76O2-
685.3251	40	C48H45O4-
685.3736	24	C49H49O3-
686.2871	35	C50H38O3-
686.5223	28	C46H70O4-
687.4586	26	C51H59O-
687.5094	35	C49H67O2-
687.5566	32	C50H71O-
687.6055	33	C48H79O2-
688.0426	24	C54H8O2-
688.236	28	C52H32O2-
689.2551	24	C52H33O2-
689.2934	28	C53H37O-
689.417	42	C53H53-
689.5927	24	C47H77O3-
690.1075	35	C55H14O-
690.1711	33	C53H22O2-
690.2375	32	C55H30-
690.4665	40	C47H62O4-
690.5549	34	C46H74O4-
690.6168	30	C51H78-
691.1553	34	C56H19-
692.0306	32	C56H4O-
692.4566	26	C50H60O2-
692.5442	28	C49H72O2-
692.5935	27	C50H76O-
693.3521	33	C54H45-
693.4583	29	C50H61O2-
693.541	29	C52H69-
694.2799	35	C52H38O2-
694.4935	37	C47H66O4-
694.5717	36	C49H74O2-
695.3723	34	C54H47-
695.498	36	C47H67O4-
695.5885	33	C46H79O4-
696.3927	38	C51H52O2-
696.6069	37	C46H80O4-
697.1675	36	C55H21O-
697.4247	28	C48H57O4-
697.9859	28	C54H2O3-
698.141	34	C54H18O2-
698.2732	36	C51H38O3-
699.103	35	C53H15O3-
699.2005	30	C52H27O3-
699.4057	28	C54H51-
699.4662	24	C52H59O-
699.5924	38	C52H75-
699.6825	32	C51H87-
700.2933	28	C51H40O3-
700.3734	32	C53H48O-
700.4458	32	C48H60O4-
701.0535	26	C55H9O2-
701.0941	24	C56H13O-
701.2937	43	C54H37O-
701.4538	39	C48H61O4-
702.1513	30	C54H22O2-
702.4151	26	C50H54O3-
702.5162	31	C53H66-
703.3558	35	C52H47O2-
704.2101	26	C55H28O-
704.5052	26	C52H64O-
704.6113	29	C48H80O3-
705.0407	36	C57H5O-
705.428	31	C50H57O3-
705.6411	37	C52H81-
706.0861	32	C55H14O2-
706.1159	44	C55H14O2-
706.2313	26	C55H30O-
706.3471	28	C51H46O3-
706.5727	28	C50H74O2-
707.0296	36	C53H7O4-
707.149	24	C56H19O-
707.1921	35	C54H27O2-
707.2975	43	C53H39O2-
707.3557	41	C51H47O3-
707.4044	28	C49H55O4-
707.4814	30	C51H63O2-
707.6265	31	C48H83O3-
708.4935	26	C51H64O2-
708.5634	30	C53H72-
708.6603	32	C52H84-
709.0429	29	C53H9O4-
709.1654	39	C56H21O-
709.5078	34	C51H65O2-
709.7039	32	C49H89O2-
710.0273	34	C56H6O2-
710.1599	24	C52H22O4-
710.2685	29	C55H34O-
710.3195	26	C53H42O2-
710.5014	26	C51H66O2-
711.2005	32	C53H27O3-
711.405	30	C55H51-
711.4525	28	C53H59O-
711.6451	24	C51H83O-
712.2611	36	C51H36O4-
712.6133	32	C50H80O2-
713.3285	30	C56H41-
714.0083	28	C58H2O-
714.1336	29	C54H18O3-
714.4221	32	C55H54-
714.5078	34	C50H66O3-
715.0787	29	C56H11O2-
715.3318	28	C56H43-
715.437	30	C55H55-
715.5599	30	C48H75O4-
715.6775	30	C51H87O-
716.0215	26	C58H4O-
716.1444	47	C54H20O3-
716.238	26	C53H32O3-
716.5182	24	C50H68O3-
716.6104	29	C49H80O3-
716.7	30	C51H88O-
717.2395	28	C53H33O3-
717.2979	34	C51H41O4-
717.3347	29	C52H45O3-
717.4697	26	C52H61O2-
717.6255	26	C49H81O3-
718.0742	44	C59H10-
718.1007	32	C56H14O2-
718.294	32	C54H38O2-
718.3462	30	C52H46O3-
718.5452	36	C54H70-
719.1078	33	C56H15O2-
719.3543	30	C52H47O3-
719.4492	34	C51H59O3-
719.4905	30	C52H63O2-
719.6338	29	C49H83O3-
720.24	30	C56H32O-
720.5053	33	C49H68O4-
721.2632	28	C56H33O-
721.4669	34	C51H61O3-
721.526	32	C49H69O4-
722.6375	30	C52H82O-
723.1127	31	C59H15-
723.3045	30	C57H39-
723.4266	30	C53H55O2-
723.6434	24	C52H83O-
724.049	35	C57H8O2-
724.4262	36	C53H56O2-
725.32	26	C57H41-
725.5275	32	C52H69O2-
726.0151	33	C59H2O-
726.13	30	C55H18O3-
726.3143	26	C53H42O3-
726.3827	25	C55H50O-
726.6612	31	C52H86O-
727.0242	28	C59H3O-
727.0665	36	C57H11O2-
727.2766	28	C52H39O4-
728.0088	26	C55H4O4-
728.1073	27	C54H16O4-
728.3692	43	C54H48O2-
728.6547	30	C51H84O2-
729.0404	30	C59H5O-
729.3384	28	C53H45O3-
729.542	36	C55H69-
729.6364	32	C54H81-
730.145	34	C58H18O-
730.2563	42	C54H34O3-
730.4174	34	C55H54O-
731.0209	33	C58H3O2-
731.076	32	C56H11O3-
731.3556	32	C53H47O3-
731.6586	28	C51H87O2-
732.5175	30	C50H68O4-
733.255	34	C57H33O-
733.3493	36	C56H45O-
734.0202	26	C58H6O2-
734.4219	32	C54H54O2-
735.2844	28	C54H39O3-
736.2824	32	C57H36O-
736.3707	36	C56H48O-
736.5189	34	C53H68O2-
737.1119	44	C56H17O3-
737.1832	28	C54H25O4-
737.2323	30	C59H29-
737.505	32	C56H65-
737.7034	34	C54H89-
738.0956	28	C55H14O4-
738.2233	40	C55H30O3-
738.6713	36	C53H86O-
739.3192	38	C54H43O3-
739.4043	43	C56H51O-
740.1488	26	C56H20O3-
740.1912	26	C54H28O4-
740.5974	32	C54H76O-
740.6864	29	C53H88O-
740.9993	28	C59HO2-
741.2385	37	C55H33O3-
741.2835	31	C56H37O2-
741.6711	35	C49H89O4-
742.2211	32	C54H30O4-
742.2671	33	C59H34-
742.3942	41	C52H54O4-
742.5096	34	C55H66O-
742.6322	32	C51H82O3-
743.2052	28	C57H27O2-
744.284	26	C59H36-
745.4657	30	C53H61O3-
745.5144	34	C51H69O4-
745.5788	34	C56H73-
746.0486	26	C56H10O4-
746.1388	25	C58H18O2-
746.1943	35	C56H26O3-
746.492	29	C57H62-
747.0393	24	C59H7O2-
747.2064	33	C56H27O3-
747.272	36	C58H35O-
747.3782	26	C54H51O3-
747.5595	40	C55H71O-
747.6395	28	C54H83O-
748.4306	29	C55H56O2-
748.4688	26	C56H60O-
748.5257	28	C54H68O2-
748.6234	26	C53H80O2-
749.0985	28	C56H13O4-
749.1416	30	C58H21O2-
749.6818	28	C51H89O3-
750.0348	26	C58H6O3-
750.1213	35	C57H18O3-
750.2652	36	C57H34O2-
751.2897	42	C58H39O-
751.3136	41	C58H39O-
751.4437	30	C55H59O2-
751.4856	30	C56H63O-
751.5481	34	C54H71O2-
751.6916	24	C54H87O-
752.3889	29	C53H52O4-
752.4665	28	C55H60O2-
752.6929	38	C54H88O-
753.142	36	C57H21O3-
753.2871	27	C57H37O2-
753.3988	30	C53H53O4-
753.4618	26	C55H61O2-
753.4952	55	C52H65O4-
754.0313	27	C57H6O4-
754.1847	24	C58H26O2-
754.2214	30	C55H30O4-
754.6278	44	C52H82O3-
755.2086	31	C58H27O2-
755.3229	28	C54H43O4-
756.1225	39	C59H16O2-
756.1694	38	C57H24O3-
756.2223	32	C55H32O4-
756.4212	38	C53H56O4-
756.6373	27	C52H84O3-
756.6878	32	C53H88O2-
757.4655	28	C54H61O3-
757.6508	29	C52H85O3-
758.1734	29	C57H26O3-
758.2542	35	C59H34O-
758.3689	31	C55H50O3-
758.4615	32	C54H62O3-
759.3303	28	C57H43O2-
759.5715	32	C53H75O3-
760.0023	28	C59H4O3-
760.0765	38	C57H12O4-
760.2948	32	C56H40O3-
761.1884	32	C56H25O4-
761.3119	26	C56H41O3-
761.4595	30	C53H61O4-
761.6087	35	C57H77-
762.4833	33	C57H62O-
762.5782	34	C56H74O-
763.3174	26	C56H43O3-
763.6589	30	C51H87O4-
764.0078	28	C58H4O4-
764.5848	27	C56H76O-
765.1952	26	C59H25O2-
765.3096	32	C59H41O-
765.3994	32	C54H53O4-
766.2484	29	C57H34O3-
766.283	29	C58H38O2-
766.5203	28	C57H66O-
766.6538	30	C54H86O2-
767.2077	28	C59H27O2-
767.2631	30	C57H35O3-
767.4109	24	C54H55O4-
767.6826	30	C54H87O2-
768.3836	28	C57H52O2-
768.4814	33	C56H64O2-
769.4367	32	C58H57O-
769.548	30	C54H73O3-
769.6043	37	C52H81O4-
770.065	30	C58H10O4-
770.6142	32	C52H82O4-
771.0624	30	C58H11O4-
771.4137	32	C57H55O2-
771.5077	34	C56H67O2-
771.6167	28	C55H79O2-
772.0844	28	C58H12O4-
772.2613	28	C56H36O4-
772.6009	30	C58H76-
773.1278	28	C59H17O3-
774.3261	30	C57H42O3-
775.0072	40	C59H3O4-
775.1308	39	C59H19O3-
775.2761	32	C56H39O4-
775.4176	28	C56H55O3-
775.6765	26	C56H87O-
776.0915	30	C58H16O4-
776.3063	24	C56H40O4-
776.6756	32	C52H88O4-
777.4125	28	C59H53O-
777.4516	26	C57H61O2-
777.5582	26	C56H73O2-
778.1148	28	C58H18O4-
778.2012	24	C57H30O4-
778.5073	31	C58H66O-
779.0402	33	C59H7O4-
779.1095	26	C58H19O4-
779.3259	30	C56H43O4-
779.4268	30	C59H55O-
779.6256	31	C54H83O3-
780.3916	33	C58H52O2-
780.5048	24	C54H68O4-
781.0428	32	C59H9O4-
781.2477	32	C57H33O4-
781.4638	25	C56H61O3-
781.553	27	C55H73O3-
781.6027	30	C56H77O2-
782.2306	30	C57H34O4-
782.4648	26	C56H62O3-
783.3789	46	C57H51O3-
784.1843	32	C58H24O4-
784.2446	31	C57H36O4-
784.3041	34	C58H40O3-
784.4316	30	C58H56O2-
784.5877	28	C59H76-
784.6547	32	C57H84O-
785.5403	46	C57H69O2-
787.3067	30	C58H43O3-
787.3966	26	C56H51O4-
788.3439	33	C58H44O3-
790.3909	26	C59H50O2-
792.137	28	C59H20O4-
792.2579	32	C59H36O3-
792.4213	36	C56H56O4-
792.4746	26	C58H64O2-
792.5598	30	C56H72O3-
794.5569	38	C56H74O3-
794.6253	32	C54H82O4-
795.3484	36	C57H47O4-
795.3794	33	C58H51O3-
795.5283	32	C55H71O4-
796.4103	35	C58H52O3-
796.5552	30	C59H72O-
796.5991	35	C57H80O2-
797.594	39	C56H77O3-
798.5216	24	C58H70O2-
799.3688	26	C57H51O4-
799.437	30	C59H59O2-
800.2758	37	C58H40O4-
800.3364	34	C59H44O3-
800.3776	26	C57H52O4-
801.6473	28	C57H85O2-
802.4916	25	C56H66O4-
803.3424	32	C59H47O3-
803.4791	24	C59H63O2-
804.2347	38	C59H32O4-
804.3607	37	C59H48O3-
804.4305	30	C57H56O4-
804.5179	28	C56H68O4-
805.2309	26	C59H33O4-
805.3334	36	C58H45O4-
806.3633	34	C59H50O3-
806.4682	34	C58H62O3-
807.3547	30	C58H47O4-
807.4666	33	C58H63O3-
807.5557	28	C57H75O3-
807.6608	32	C56H87O3-
808.4092	34	C59H52O3-
809.2522	26	C59H37O4-
809.5056	34	C58H65O3-
809.6453	28	C55H85O4-
813.2898	32	C59H41O4-
814.6116	30	C57H82O3-
816.4434	30	C59H60O3-
816.6021	51	C56H80O4-
817.4255	36	C58H57O4-
817.5715	30	C58H73O3-
818.3558	28	C59H46O4-
818.6286	32	C56H82O4-
819.3432	34	C59H47O4-
819.6442	52	C56H83O4-
819.6796	30	C57H87O3-
820.4559	33	C58H60O4-
820.6879	32	C57H88O3-
822.3796	28	C59H50O4-
824.5268	36	C59H68O3-
825.5753	30	C57H77O4-
825.6707	30	C56H89O4-
828.4262	24	C59H56O4-
829.4191	31	C59H57O4-
831.5169	36	C58H71O4-
831.5876	29	C59H75O3-
832.6464	65	C57H84O4-
835.6469	38	C57H87O4-
837.6218	34	C59H81O3-
837.6836	33	C57H89O4-
839.5837	38	C58H79O4-
842.5461	38	C59H70O4-
843.6705	24	C59H87O3-
844.6542	28	C58H84O4-
847.6472	171	C58H87O4-
851.585	28	C59H79O4-
858.6461	26	C59H86O4-
861.6739	202	C59H89O4-
