Mass spectrum: Mono(2-ethyl-5-carboxypentyl) adipate; LC-ESI-QTOF; MS2; CE: 35eV; R=7000; [M-H]-
Name: Mono(2-ethyl-5-carboxypentyl) adipate
Name: 5-(5-carboxypentanoyloxymethyl)heptanoic acid
Formula: C14H24O6
Exact mass: 288.1573
SMILES: CCC(CCCC(=O)O)COC(=O)CCCCC(=O)O
InChI: InChI=1S/C14H24O6/c1-2-11(6-5-8-13(17)18)10-20-14(19)9-4-3-7-12(15)16/h11H,2-10H2,1H3,(H,15,16)(H,17,18)
Instrument: Agilent 6560 QTOF
Instrument type: LC-ESI-QTOF
Ms type: MS2
Ion mode: NEGATIVE
Ionization: ESI
Fragmentation mode: CID
Collision energy: 35 eV
Resolution: 7000
Column name: ZORBAX Extend-C18 3.5um, 2.1x50mm, Agilent Technologies
Retention time: 5.288 min
Base peak: 287.1495
Precursor m/z: 287.15
Precursor type: [M-H]-
Precursor intensity: 44336.99
m/z	relative intensity	assigned
53.0394	51	C4H5-
81.0349	993	C5H5O-
83.0502	999	C5H7O-
101.061	718	C5H9O2-
113.0977	128	C7H13O-
145.0497	29	C6H9O4-
159.1002	46	C8H15O3-
