Mass spectrum: S-ADENOSYLHOMOCYSTEINE; LC-ESI-QTOF; MS2; CE: 40eV; R=5000; [M+H]+
Name: S-ADENOSYLHOMOCYSTEINE
Name: S-adenosyl-L-homocysteine
Name: (2S)-2-amino-4-[[(2S,3S,4R,5R)-5-(6-aminopurin-9-yl)-3,4-dihydroxyoxolan-2-yl]methylsulfanyl]butanoic acid
Formula: C14H20N6O5S
Exact mass: 384.1216
SMILES: N[C@@H](CCSC[C@H]1O[C@H]([C@H](O)[C@@H]1O)N1C=NC2=C(N)N=CN=C12)C(O)=O
InChI: InChI=1S/C14H20N6O5S/c15-6(14(23)24)1-2-26-3-7-9(21)10(22)13(25-7)20-5-19-8-11(16)17-4-18-12(8)20/h4-7,9-10,13,21-22H,1-3,15H2,(H,23,24)(H2,16,17,18)/t6-,7+,9+,10+,13+/m0/s1
Instrument: Agilent 6530 QTOF
Instrument type: LC-ESI-QTOF
Ms type: MS2
Ion mode: POSITIVE
Ionization: ESI
Fragmentation mode: CID
Collision energy: 40 eV
Resolution: 5000
Column name: N/A
Retention time: 0.185 min
Base peak: 121.0508
Precursor m/z: 385.1289
Precursor type: [M+H]+
Precursor intensity: 409701
m/z	relative intensity	assigned
44.0493	7	C2H6N+
56.0478	8	H8O3+
61.0086	18	C5H+
62.0049	4	CH4NS+
65.0157	3	H5N2S+
67.029	2	C3H3N2+
69.0312	4	C2H3N3+
74.0236	1	C2H4NO2+
76.0208	2	C2H6NS+
79.0528	2	C6H7+
81.0676	11	CH9N2O2+
84.0843	4	C2H14NS+
88.0202	999	H8O3S+
89.1159	2	H15N3O2+
90.0354	5	H10O3S+
92.022	10	CH4N2O3+
94.038	12	CH6N2O3+
96.0775	1	C3H12O3+
97.0279	9	C5H5O2+
98.055	7	H8N3O3+
99.0321	1	C4H5NO2+
101.0223	1	C2H3N3O2+
102.0334	1	C7H4N+
102.09	13	C3H10N4+
103.1413	1	H17N5O+
105.0663	1	C3H9N2O2+
109.0446	4	C2H9N2OS+
119.0326	97	C2H5N3O3+
134.0247	173	CH10O5S+
136.0592	732	C2H8N4O3+
139.0266	1	C6H5NO3+
144.9992	1	C2HN4O4+
152.0596	3	C2H10N5OS+
160.0627	1	CH12N4O3S+
161.0353	2	C2H11NO5S+
172.0356	5	C5H6N3O4+
178.0694	1	C4H10N4O4+
180.9681	1	CHN4O5S+
186.0701	2	C7H12N3OS+
202.0903	3	C9H16NO2S+
204.0694	5	C8H14NO3S+
212.052	1	C13H10NS+
289.9688	1	C14N3O3S+
