Mass spectrum: Folate; LC-ESI-QTOF; MS2; CE: 20eV; R=5000; [M+H]+
Name: Folate
Name: CID 6037
Name: (2S)-2-[[4-[(2-amino-4-oxo-1H-pteridin-6-yl)methylamino]benzoyl]amino]pentanedioic acid
Formula: C19H19N7O6
Exact mass: 441.1397
SMILES: NC1=NC(=O)C2=NC(CNC3=CC=C(C=C3)C(=O)N[C@@H](CCC(O)=O)C(O)=O)=CN=C2N1
InChI: InChI=1S/C19H19N7O6/c20-19-25-15-14(17(30)26-19)23-11(8-22-15)7-21-10-3-1-9(2-4-10)16(29)24-12(18(31)32)5-6-13(27)28/h1-4,8,12,21H,5-7H2,(H,24,29)(H,27,28)(H,31,32)(H3,20,22,25,26,30)/t12-/m0/s1
Instrument: Agilent 6530 QTOF
Instrument type: LC-ESI-QTOF
Ms type: MS2
Ion mode: POSITIVE
Ionization: ESI
Fragmentation mode: CID
Collision energy: 20 eV
Resolution: 5000
Column name: N/A
Retention time: 0.285 min
Base peak: 121.0508
Precursor m/z: 442.147
Precursor type: [M+H]+
Precursor intensity: 65410
m/z	relative intensity	assigned
59.0502	13	C3H7O+
63.0192	3	H3N2O2+
81.043	11	CH7NO3+
89.061	26	C4H9O2+
102.0997	30	CH14N2O3+
102.1624	2	C2H20N3O+
104.0455	10	C2H6N3O2+
106.0422	60	C7H6O+
108.0576	44	C7H8O+
108.1109	8	H16N2O4+
111.0421	2	C4H5N3O+
120.0444	279	C7H6NO+
133.0525	14	C8H7NO+
133.0928	3	H13N4O4+
148.0642	24	C8H8N2O+
167.0083	7	C6H3N2O4+
176.0584	210	C9H8N2O2+
188.0255	1	C14H4O+
206.0956	4	C15H12N+
227.1023	2	C10H15N2O4+
238.0296	2	C17H4NO+
241.1279	10	C8H15N7O2+
250.0938	13	C10H12N5O3+
251.0735	10	C5H11N6O6+
267.0949	8	C10H13N5O4+
293.0239	4	C18H3N3O2+
295.0932	999	C14H11N6O2+
297.0953	2	C12H15N3O6+
299.0831	6	C19H11N2O2+
299.1462	1	C11H19N6O4+
301.0097	5	C14HN6O3+
357.0753	10	C18H9N6O3+
365.1105	1	C18H15N5O4+
