Mass spectrum: 1,2-dioctanoyl-sn-glycerol; LC-ESI-QTOF; MS2; CE: 40eV; R=7000; [M-H2O+H]+
Name: 1,2-dioctanoyl-sn-glycerol
Name: 1,2-Dioctanoylglycerol
Name: (3-hydroxy-2-octanoyloxypropyl) octanoate
Formula: C19H36O5
Exact mass: 344.2563
SMILES: CCCCCCCC(=O)OCC(CO)OC(=O)CCCCCCC
InChI: InChI=1S/C19H36O5/c1-3-5-7-9-11-13-18(21)23-16-17(15-20)24-19(22)14-12-10-8-6-4-2/h17,20H,3-16H2,1-2H3
Instrument: Agilent 6560 QTOF
Instrument type: LC-ESI-QTOF
Ms type: MS2
Ion mode: POSITIVE
Ionization: ESI
Fragmentation mode: CID
Collision energy: 40 eV
Resolution: 7000
Column name: Direct injection
Retention time: 0.182 min
Base peak: 367.2469
Precursor m/z: 327.253
Precursor type: [M-H2O+H]+
Precursor intensity: 559
m/z	relative intensity	assigned
183.0121	999	C11H3O3+
