Mass spectrum: 1,2-Dioleoyl-sn-glycero-3-phosphocholine; LC-ESI-QTOF; MS2; CE: 40eV; R=7000; [M+CH3COO]-
Name: 1,2-Dioleoyl-sn-glycero-3-phosphocholine
Name: [(2R)-2,3-bis[[(Z)-octadec-9-enoyl]oxy]propyl] 2-(trimethylazaniumyl)ethyl phosphate
Formula: C44H84NO8P
Exact mass: 785.5935
SMILES: CCCCCCCC/C=C\CCCCCCCC(=O)OC[C@H](COP(=O)([O-])OCC[N+](C)(C)C)OC(=O)CCCCCCC/C=C\CCCCCCCC
InChI: InChI=1S/C44H84NO8P/c1-6-8-10-12-14-16-18-20-22-24-26-28-30-32-34-36-43(46)50-40-42(41-52-54(48,49)51-39-38-45(3,4)5)53-44(47)37-35-33-31-29-27-25-23-21-19-17-15-13-11-9-7-2/h20-23,42H,6-19,24-41H2,1-5H3/b22-20-,23-21-/t42-/m1/s1
Instrument: Agilent 6560 QTOF
Instrument type: LC-ESI-QTOF
Ms type: MS2
Ion mode: NEGATIVE
Ionization: ESI
Fragmentation mode: CID
Collision energy: 40 eV
Resolution: 7000
Column name: N/A
Retention time: 0.169 min
Base peak: 223.0291
Precursor m/z: 844.6073
Precursor type: [M+CH3COO]-
Precursor intensity: 98118
m/z	relative intensity	assigned
70.97	2	C2OP-
78.9594	14	O3P-
120.1579	3	H24O6-
154.6653	2	C3H86O2-
168.0442	27	C4H11NO4P-
188.3607	1	CH50NO7-
190.2409	5	C9H35OP-
224.0686	10	C11H12O5-
225.0876	1	C8H18O5P-
272.0792	9	C11H14NO7-
279.5413	3	C5H75O9-
279.5744	1	C16H73N-
279.6727	3	C15H85N-
281.2492	999	C14H36NO2P-
282.2508	48	C10H36NO7-
282.3768	3	C7H54O9-
282.5458	2	C11H72NO4-
283.5925	2	C12H77NO3-
423.2051	1	C25H29NO5-
435.2507	3	C21H40O7P-
458.5844	8	C25H78O5-
488.3164	12	C32H42NO3-
489.1994	2	C33H30O2P-
489.3137	6	C29H46O4P-
505.5007	3	C30H68NO2P-
506.3249	12	C29H46O7-
550.108	1	C38H16NO4-
567.6428	1	C39H83O-
577.951	2	C35HNO7P-
657.3255	2	C46H43NO3-
660.2885	2	C41H43NO5P-
768.2017	1	C44H35NO10P-
770.5704	10	C43H81NO8P-
771.5744	5	C43H82NO8P-
