Mass spectrum: 1,2-diheptadecanoyl-sn-glycero-3-phosphocholine; LC-ESI-QTOF; MS2; CE: 40eV; R=7000; [M+Na]+
Name: 1,2-diheptadecanoyl-sn-glycero-3-phosphocholine
Name: [(2R)-2,3-di(heptadecanoyloxy)propyl] 2-(trimethylazaniumyl)ethyl phosphate
Formula: C42H84NO8P
Exact mass: 761.5935
SMILES: CCCCCCCCCCCCCCCCC(=O)OC[C@H](COP(=O)([O-])OCC[N+](C)(C)C)OC(=O)CCCCCCCCCCCCCCCC
InChI: InChI=1S/C42H84NO8P/c1-6-8-10-12-14-16-18-20-22-24-26-28-30-32-34-41(44)48-38-40(39-50-52(46,47)49-37-36-43(3,4)5)51-42(45)35-33-31-29-27-25-23-21-19-17-15-13-11-9-7-2/h40H,6-39H2,1-5H3/t40-/m1/s1
Instrument: Agilent 6560 QTOF
Instrument type: LC-ESI-QTOF
Ms type: MS2
Ion mode: POSITIVE
Ionization: ESI
Fragmentation mode: CID
Collision energy: 40 eV
Resolution: 7000
Column name: Direct injection
Retention time: 0.182 min
Base peak: 762.6035
Precursor m/z: 784.5827
Precursor type: [M+Na]+
Precursor intensity: 99864
m/z	relative intensity	assigned
71.0715	42	C2H10NNa+
71.0858	61	CH14NP+
81.0704	117	C2H12NP+
83.0857	27	C2H14NP+
85.1009	51	C6H13+
86.0963	338	C5H12N+
95.0857	91	C7H11+
97.101	44	C7H13+
99.0796	10	C6H11O+
109.1016	48	C4H16NP+
123.1173	22	C5H18NP+
137.1318	21	C10H17+
139.1503	20	CH24NaO5+
146.9815	999	C2H5NaO4P+
207.9246	5	CNNaO8P+
235.2398	18	C10H36O3P+
253.2529	16	C13H36NOP+
298.9532	2	C17O4P+
300.2629	5	C16H37NaO3+
312.9918	6	C22HO3+
420.9663	7	C25H3NaO4P+
434.2691	11	C28H36NO3+
455.2537	53	C22H41NaO6P+
492.342	12	C27H49NaO6+
492.6216	5	C29H83NOP+
495.2561	4	C36H33NO+
508.2764	7	C34H39NOP+
514.3276	4	C25H50NNaO6P+
579.5349	233	C38H70NNaO+
580.5399	38	C35H73NaO4+
601.5178	116	C33H73NNaO4P+
602.5136	23	C38H68NO4+
725.5161	9	C42H72NNaO7+
726.5116	4	C40H73NO8P+
784.5681	2	C42H84NNaO8P+
