Mass spectrum: Mono-hydroxy-isononyl phthalate; LC-ESI-QTOF; MS2; CE: 55eV; R=7000; [M-H]-
Name: Mono-hydroxy-isononyl phthalate
Name: 1,2-Benzenedicarboxylic Acid 1-(7-Hydroxy-4-methyloctyl) Ester
Name: 2-(7-hydroxy-4-methyloctoxy)carbonylbenzoic acid
Formula: C17H24O5
Exact mass: 308.1624
SMILES: CC(O)CCC(C)CCCOC(=O)C1=CC=CC=C1C(O)=O
InChI: InChI=1S/C17H24O5/c1-12(9-10-13(2)18)6-5-11-22-17(21)15-8-4-3-7-14(15)16(19)20/h3-4,7-8,12-13,18H,5-6,9-11H2,1-2H3,(H,19,20)
Instrument: Agilent 6560 QTOF
Instrument type: LC-ESI-QTOF
Ms type: MS2
Ion mode: NEGATIVE
Ionization: ESI
Fragmentation mode: CID
Collision energy: 55 eV
Resolution: 7000
Column name: ZORBAX Extend-C18 3.5um, 2.1x50mm, Agilent Technologies
Retention time: 3.755 min
Base peak: 307.1548
Precursor m/z: 307.1551
Precursor type: [M-H]-
Precursor intensity: 2901.72
m/z	relative intensity	assigned
75.024	171	C6H3-
77.0408	999	C6H5-
