Mass spectrum: N-ACETYLGLUTAMATE; LC-ESI-QTOF; MS2; CE: 10eV; R=5000; [M+H]+
Name: N-ACETYLGLUTAMATE
Name: N-acetylglutamic acid
Name: 2-acetamidopentanedioic acid
Formula: C7H11NO5
Exact mass: 189.0637
SMILES: CC(=O)NC(CCC(O)=O)C(O)=O
InChI: InChI=1S/C7H11NO5/c1-4(9)8-5(7(12)13)2-3-6(10)11/h5H,2-3H2,1H3,(H,8,9)(H,10,11)(H,12,13)
Instrument: Agilent 6530 QTOF
Instrument type: LC-ESI-QTOF
Ms type: MS2
Ion mode: POSITIVE
Ionization: ESI
Fragmentation mode: CID
Collision energy: 10 eV
Resolution: 5000
Column name: N/A
Retention time: 0.216 min
Base peak: 922.0098
Precursor m/z: 190.071
Precursor type: [M+H]+
Precursor intensity: 378697
m/z	relative intensity	assigned
43.017	27	C2H3O+
56.0502	51	C3H6N+
84.0447	882	C4H6NO+
95.0107	3	C5H3O2+
98.056	4	C2H10O4+
102.0553	228	C4H8NO2+
103.9727	1	C2O5+
126.0504	3	C3H10O5+
130.0496	999	C5H8NO3+
131.0553	6	C5H9NO3+
137.0325	1	C3H7NO5+
144.0653	23	C6H10NO3+
148.0592	144	C5H10NO4+
172.0604	45	C7H10NO4+
190.0689	20	C7H12NO5+
