Mass spectrum: Stearic acid; LC-ESI-QTOF; MS2; CE: 20eV; R=7000; [M-H]-
Name: Stearic acid
Name: octadecanoic acid
Formula: C18H36O2
Exact mass: 284.2715
SMILES: CCCCCCCCCCCCCCCCCC(=O)O
InChI: InChI=1S/C18H36O2/c1-2-3-4-5-6-7-8-9-10-11-12-13-14-15-16-17-18(19)20/h2-17H2,1H3,(H,19,20)
Instrument: Agilent 6560 QTOF
Instrument type: LC-ESI-QTOF
Ms type: MS2
Ion mode: NEGATIVE
Ionization: ESI
Fragmentation mode: CID
Collision energy: 20 eV
Resolution: 7000
Column name: N/A
Retention time: 0.402 min
Base peak: 980.0164
Precursor m/z: 283.2643
Precursor type: [M-H]-
Precursor intensity: 6196
m/z	relative intensity	assigned
283.2637	999	C18H35O2-
