Mass spectrum: Dimethylbenzimidazole; LC-ESI-QTOF; MS2; CE: 40eV; R=7000; [M+H]+
Name: Dimethylbenzimidazole
Name: 5,6-Dimethylbenzimidazole
Name: 5,6-dimethyl-1H-benzimidazole
Formula: C9H10N2
Exact mass: 146.0844
SMILES: CC1=CC2=C(C=C1C)N=CN2
InChI: InChI=1S/C9H10N2/c1-6-3-8-9(4-7(6)2)11-5-10-8/h3-5H,1-2H3,(H,10,11)
Instrument: Agilent 6560 QTOF
Instrument type: LC-ESI-QTOF
Ms type: MS2
Ion mode: POSITIVE
Ionization: ESI
Fragmentation mode: CID
Collision energy: 40 eV
Resolution: 7000
Column name: Direct injection
Retention time: 0.181 min
Base peak: 147.092
Precursor m/z: 147.0917
Precursor type: [M+H]+
Precursor intensity: 154589
m/z	relative intensity	assigned
77.0387	383	C6H5+
78.0462	69	C6H6+
79.0544	14	C6H7+
80.0498	24	C5H6N+
89.0387	40	C7H5+
90.0345	4	C6H4N+
91.0546	105	C7H7+
92.0495	14	C6H6N+
93.0555	5	C6H7N+
93.0704	14	C7H9+
102.0352	3	C7H4N+
103.0539	12	C8H7+
104.0493	208	C7H6N+
106.0633	6	C7H8N+
117.0548	6	C8H7N+
118.0638	6	C8H8N+
119.0709	12	C8H9N+
128.049	8	C9H6N+
130.052	2	C8H6N2+
131.0603	999	C8H7N2+
132.0687	64	C8H8N2+
145.0761	38	C9H9N2+
146.0823	3	C9H10N2+
147.0922	15	C9H11N2+
