Mass spectrum: Bisphenol AF; LC-ESI-QTOF; MS2; CE: 50eV; R=7000; [M-H]-
Name: Bisphenol AF
Name: 4-[1,1,1,3,3,3-hexafluoro-2-(4-hydroxyphenyl)propan-2-yl]phenol
Formula: C15H10F6O2
Exact mass: 336.0585
SMILES: C1=CC(=CC=C1C(C2=CC=C(C=C2)O)(C(F)(F)F)C(F)(F)F)O
InChI: InChI=1S/C15H10F6O2/c16-14(17,18)13(15(19,20)21,9-1-5-11(22)6-2-9)10-3-7-12(23)8-4-10/h1-8,22-23H
Instrument: Agilent 6560 QTOF
Instrument type: LC-ESI-QTOF
Ms type: MS2
Ion mode: NEGATIVE
Ionization: ESI
Fragmentation mode: CID
Collision energy: 50 eV
Resolution: 7000
Retention time: 0.186 min
Base peak: 335.053
Precursor m/z: 335.0512
Precursor type: [M-H]-
Precursor intensity: 126266.85
m/z	relative intensity	assigned
65.0022	9	C4HO-
68.9959	999	CF3-
73.0087	40	C6H-
84.9906	6	CF3O-
91.0199	19	C3H4FO2-
111.0249	141	C6H4FO-
113.0367	6	CH6F5-
117.0335	11	C3H5F4-
127.0183	12	CH4F5O-
139.0548	10	C3H8F5-
141.0358	38	C7H6FO2-
148.0311	6	C4H5F5-
149.0396	442	C12H5-
151.0192	8	C11H3O-
152.0219	11	C6H4F4-
153.0339	26	C3H6F5O-
154.0383	5	C6H6F4-
159.0243	16	C13H3-
166.0423	6	C12H6O-
167.0508	82	CH9F6O2-
168.0369	16	C4H6F6-
168.0527	9	C7H8F4-
169.046	43	C12H6F-
171.0251	8	C3H5F6O-
176.0266	22	C5H5F5O-
177.0346	304	C13H5O-
178.0402	49	C8H6F4-
179.0303	18	C13H4F-
188.0434	37	C12H6F2-
195.0458	94	C13H7O2-
196.0355	43	C10H6F2O2-
197.041	61	C13H6FO-
203.0329	9	C9H6F3O2-
205.0298	14	C14H5O2-
206.0346	11	C12H5F3-
207.0259	18	C11H5F2O2-
216.0396	79	C13H6F2O-
224.0274	53	C6H6F6O2-
225.037	14	C14H6FO2-
226.0382	9	C12H6F4-
227.0327	6	C11H6F3O2-
244.0335	48	C9H6F6O-
245.0423	12	C14H7F2O2-
265.0508	9	C14H8F3O2-
