Mass spectrum: Mono-hydroxy-isononyl phthalate; LC-ESI-QTOF; MS2; CE: 15eV; R=7000; [M-H]-
Name: Mono-hydroxy-isononyl phthalate
Name: 1,2-Benzenedicarboxylic Acid 1-(7-Hydroxy-4-methyloctyl) Ester
Name: 2-(7-hydroxy-4-methyloctoxy)carbonylbenzoic acid
Formula: C17H24O5
Exact mass: 308.1624
SMILES: CC(O)CCC(C)CCCOC(=O)C1=CC=CC=C1C(O)=O
InChI: InChI=1S/C17H24O5/c1-12(9-10-13(2)18)6-5-11-22-17(21)15-8-4-3-7-14(15)16(19)20/h3-4,7-8,12-13,18H,5-6,9-11H2,1-2H3,(H,19,20)
Instrument: Agilent 6560 QTOF
Instrument type: LC-ESI-QTOF
Ms type: MS2
Ion mode: NEGATIVE
Ionization: ESI
Fragmentation mode: CID
Collision energy: 15 eV
Resolution: 7000
Column name: ZORBAX Extend-C18 3.5um, 2.1x50mm, Agilent Technologies
Retention time: 3.734 min
Base peak: 307.1555
Precursor m/z: 307.1551
Precursor type: [M-H]-
Precursor intensity: 112974.11
m/z	relative intensity	assigned
69.0348	3	C4H5O-
77.0399	271	C6H5-
105.0365	3	C7H5O-
113.0975	6	C7H13O-
121.0297	999	C7H5O2-
147.0079	34	C8H3O3-
149.0248	4	C8H5O3-
157.1223	41	C9H17O2-
159.1393	43	C9H19O2-
307.1557	32	C17H23O5-
