Mass spectrum: Lithocholyltaurine; LC-ESI-QTOF; MS2; CE: 10eV; R=7000; [M-H2O+H]+
Name: Lithocholyltaurine
Name: Taurolithocholic acid
Name: 2-[[(4R)-4-[(3R,5R,8R,9S,10S,13R,14S,17R)-3-hydroxy-10,13-dimethyl-2,3,4,5,6,7,8,9,11,12,14,15,16,17-tetradecahydro-1H-cyclopenta[a]phenanthren-17-yl]pentanoyl]amino]ethanesulfonic acid
Formula: C26H45NO5S
Exact mass: 483.3018
SMILES: [H][C@@]1(CC[C@@]2([H])[C@]3([H])CC[C@]4([H])C[C@H](O)CC[C@]4(C)[C@@]3([H])CC[C@]12C)[C@H](C)CCC(=O)NCCS(O)(=O)=O
InChI: InChI=1S/C26H45NO5S/c1-17(4-9-24(29)27-14-15-33(30,31)32)21-7-8-22-20-6-5-18-16-19(28)10-12-25(18,2)23(20)11-13-26(21,22)3/h17-23,28H,4-16H2,1-3H3,(H,27,29)(H,30,31,32)/t17-,18-,19-,20+,21-,22+,23+,25+,26-/m1/s1
Instrument: Agilent 6560 QTOF
Instrument type: LC-ESI-QTOF
Ms type: MS2
Ion mode: POSITIVE
Ionization: ESI
Fragmentation mode: CID
Collision energy: 10 eV
Resolution: 7000
Column name: Direct injection
Retention time: 0.184 min
Base peak: 415.2121
Precursor m/z: 466.2986
Precursor type: [M-H2O+H]+
Precursor intensity: 98427
m/z	relative intensity	assigned
79.0529	23	C6H7+
81.0695	9	C6H9+
83.0851	17	C6H11+
107.0844	6	C8H11+
109.1007	26	C8H13+
121.0999	19	C9H13+
123.1145	2	C9H15+
126.022	179	C2H8NO3S+
135.1165	30	C10H15+
137.1261	4	C6H19NS+
144.0933	6	C11H12+
149.1329	49	C11H17+
159.115	4	C12H15+
161.1352	23	C9H21S+
163.1458	14	C12H19+
173.1312	13	C13H17+
177.1624	15	C13H21+
178.1298	4	C8H20NOS+
179.1481	1	C9H23OS+
184.165	18	C8H24O4+
187.149	10	C14H19+
189.1622	47	C14H21+
191.1445	6	C13H19O+
201.1626	4	C15H21+
205.1558	3	C14H21O+
208.0659	12	C7H14NO4S+
209.1362	7	C13H21S+
213.1617	31	C16H21+
217.1928	17	C16H25+
227.1838	2	C14H27S+
229.1979	27	C14H29S+
231.1709	6	C16H23O+
231.2095	23	C17H27+
233.1854	7	C12H27NOS+
236.0912	8	C12H14NO4+
250.1151	22	C10H20NO4S+
259.2047	9	C18H27O+
262.1072	8	C14H16NO4+
274.1078	12	C15H16NO4+
276.0713	13	C14H14NO3S+
276.128	14	C12H22NO4S+
278.1411	2	C12H24NO4S+
288.1246	8	C16H18NO4+
290.1362	12	C16H20NO4+
299.2766	3	C19H39S+
302.1426	32	C14H24NO4S+
304.1564	21	C14H26NO4S+
316.1548	15	C18H22NO4+
317.1594	7	C19H25O2S+
318.1717	12	C15H28NO4S+
323.2737	62	C24H35+
324.277	11	C24H36+
328.1568	4	C16H26NO4S+
330.1744	29	C16H28NO4S+
341.2841	142	C24H37O+
342.2833	17	C20H40NOS+
344.1865	10	C20H26NO4+
358.2029	15	C21H28NO4+
370.2045	15	C19H32NO4S+
384.2207	20	C20H34NO4S+
385.2664	4	C21H39NO3S+
386.2877	4	C25H40NS+
448.2814	15	C26H42NO3S+
466.2986	999	C26H44NO4S+
