Mass spectrum: 2-Aminobenzothiazole; LC-ESI-QTOF; MS2; CE: 30eV; R=7000; [M+H]+
Name: 2-Aminobenzothiazole
Name: 1,3-benzothiazol-2-amine
Formula: C7H6N2S
Exact mass: 150.0252
SMILES: C1=CC=C2C(=C1)N=C(S2)N
InChI: InChI=1S/C7H6N2S/c8-7-9-5-3-1-2-4-6(5)10-7/h1-4H,(H2,8,9)
Instrument: Agilent 6560 QTOF
Instrument type: LC-ESI-QTOF
Ms type: MS2
Ion mode: POSITIVE
Ionization: ESI
Fragmentation mode: CID
Collision energy: 30 eV
Resolution: 7000
Retention time: 0.147 min
Base peak: 151.0327
Precursor m/z: 151.0324
Precursor type: [M+H]+
Precursor intensity: 299644.18
m/z	relative intensity	assigned
51.0236	4	C4H3+
53.0384	18	C4H5+
56.0484	2	C3H6N+
59.9902	2	CH2NS+
63.023	13	C5H3+
64.0181	8	C4H2N+
64.0304	3	C5H4+
65.0386	709	C5H5+
66.0454	7	C5H6+
68.9791	61	C3HS+
69.9856	2	C3H2S+
77.0385	41	C6H5+
80.0494	344	C5H6N+
81.9884	2	C4H2S+
82.9954	6	C4H3S+
90.0331	33	C6H4N+
91.0414	48	C6H5N+
92.0491	117	C6H6N+
93.0569	21	C6H7N+
97.0105	31	C5H5S+
106.0525	2	C6H6N2+
106.9943	9	C6H3S+
108.0026	22	C6H4S+
109.0102	999	C6H5S+
118.0521	139	C7H6N2+
119.0607	3	C7H7N2+
123.0137	7	C6H5NS+
124.0213	242	C6H6NS+
134.0049	9	C7H4NS+
150.0243	4	C7H6N2S+
151.0321	158	C7H7N2S+
