Mass spectrum: Triphenyl phosphate; LC-ESI-QTOF; MS2; CE: 25eV; R=7000; [M+H]+
Name: Triphenyl phosphate
Formula: C18H15O4P
Exact mass: 326.0708
SMILES: C1=CC=C(C=C1)OP(=O)(OC2=CC=CC=C2)OC3=CC=CC=C3
InChI: InChI=1S/C18H15O4P/c19-23(20-16-10-4-1-5-11-16,21-17-12-6-2-7-13-17)22-18-14-8-3-9-15-18/h1-15H
Instrument: Agilent 6560 QTOF
Instrument type: LC-ESI-QTOF
Ms type: MS2
Ion mode: POSITIVE
Ionization: ESI
Fragmentation mode: CID
Collision energy: 25 eV
Resolution: 7000
Retention time: 0.147 min
Base peak: 349.0596
Precursor m/z: 327.0781
Precursor type: [M+H]+
Precursor intensity: 38000.25
m/z	relative intensity	assigned
77.0389	999	C6H5+
151.0553	127	C12H7+
152.061	836	C12H8+
153.069	685	C12H9+
154.0744	63	C5H15O3P+
168.0572	196	C12H8O+
171.0783	91	C5H16O4P+
215.0251	937	C12H8O2P+
216.0284	50	C12H9O2P+
227.0859	88	C18H11+
228.0921	262	C18H12+
229.0991	69	C18H13+
233.0353	388	C12H10O3P+
251.0468	598	C12H12O4P+
327.0771	428	C18H16O4P+
