Mass spectrum: Diphenyl phosphate; LC-ESI-QTOF; MS2; CE: 10eV; R=7000; [M-H]-
Name: Diphenyl phosphate
Name: diphenyl hydrogen phosphate
Formula: C12H11O4P
Exact mass: 250.0395
SMILES: OP(=O)(OC1=CC=CC=C1)OC1=CC=CC=C1
InChI: InChI=1S/C12H11O4P/c13-17(14,15-11-7-3-1-4-8-11)16-12-9-5-2-6-10-12/h1-10H,(H,13,14)
Instrument: Agilent 6560 QTOF
Instrument type: LC-ESI-QTOF
Ms type: MS2
Ion mode: NEGATIVE
Ionization: ESI
Fragmentation mode: CID
Collision energy: 10 eV
Resolution: 7000
Retention time: 0.148 min
Base peak: 249.0352
Precursor m/z: 249.0322
Precursor type: [M-H]-
Precursor intensity: 318520.82
m/z	relative intensity	assigned
62.9641	3	O2P-
65.0405	10	C5H5-
75.0227	1	C6H3-
78.9588	23	O3P-
93.0348	681	C6H5O-
154.9901	43	C6H4O3P-
173.0015	3	C6H6O4P-
249.0326	999	C12H10O4P-
