Mass spectrum: Phylloquinone; LC-ESI-QTOF; MS2; CE: 20eV; R=7000; [M+NH4]+
Name: Phylloquinone
Name: Vitamin K1
Name: 2-methyl-3-[(E,7R,11R)-3,7,11,15-tetramethylhexadec-2-enyl]naphthalene-1,4-dione
Formula: C31H46O2
Exact mass: 450.3498
SMILES: CC(C)CCC[C@@H](C)CCC[C@@H](C)CCC\C(C)=C\CC1=C(C)C(=O)C2=C(C=CC=C2)C1=O
InChI: InChI=1S/C31H46O2/c1-22(2)12-9-13-23(3)14-10-15-24(4)16-11-17-25(5)20-21-27-26(6)30(32)28-18-7-8-19-29(28)31(27)33/h7-8,18-20,22-24H,9-17,21H2,1-6H3/b25-20+/t23-,24-/m1/s1
Instrument: Agilent 6560 QTOF
Instrument type: LC-ESI-QTOF
Ms type: MS2
Ion mode: POSITIVE
Ionization: ESI
Fragmentation mode: CID
Collision energy: 20 eV
Resolution: 7000
Column name: Direct injection
Retention time: 0.239 min
Base peak: 415.212
Precursor m/z: 468.3836
Precursor type: [M+NH4]+
Precursor intensity: 75307
m/z	relative intensity	assigned
83.0842	42	C6H11+
85.0642	151	C5H9O+
102.0921	177	C5H12NO+
109.1007	31	C8H13+
123.1178	91	C9H15+
311.2937	558	C20H39O2+
312.2969	27	C20H40O2+
325.2153	19	C22H29O2+
328.3219	190	C20H42NO2+
329.3225	79	C24H41+
354.3313	30	C26H42+
368.3527	999	C23H46NO2+
369.3544	110	C27H45+
385.3416	10	C27H45O+
412.3759	28	C29H48O+
413.3859	25	C29H49O+
