Mass spectrum: Ethyl 4-(dimethylamino)benzoate; LC-ESI-QTOF; MS2; CE: 40eV; R=7000; [M+H]+
Name: Ethyl 4-(dimethylamino)benzoate
Name: Ethyl 4-dimethylaminobenzoate
Formula: C11H15NO2
Exact mass: 193.1103
SMILES: CCOC(=O)C1=CC=C(C=C1)N(C)C
InChI: InChI=1S/C11H15NO2/c1-4-14-11(13)9-5-7-10(8-6-9)12(2)3/h5-8H,4H2,1-3H3
Instrument: Agilent 6560 QTOF
Instrument type: LC-ESI-QTOF
Ms type: MS2
Ion mode: POSITIVE
Ionization: ESI
Fragmentation mode: CID
Collision energy: 40 eV
Resolution: 7000
Column name: ZORBAX Extend-C18 3.5um, 2.1x50mm, Agilent Technologies
Retention time: 3.434 min
Base peak: 453.349
Precursor m/z: 194.1176
Precursor type: [M+H]+
Precursor intensity: 118888.57
m/z	relative intensity	assigned
51.0225	12	C4H3+
65.0388	169	C5H5+
66.0453	7	C5H6+
77.0388	351	C6H5+
78.0457	50	C6H6+
79.0547	502	C6H7+
91.0538	7	C7H7+
92.0503	7	C6H6N+
95.0486	10	C6H7O+
104.0492	52	C7H6N+
105.0573	25	C7H7N+
106.0651	397	C7H8N+
107.0719	30	C7H9N+
118.0647	18	C8H8N+
120.0805	17	C8H10N+
121.0273	11	C7H5O2+
122.0596	6	C7H8NO+
134.0596	999	C8H8NO+
150.0546	708	C8H8NO2+
151.0623	130	C8H9NO2+
164.0691	7	C9H10NO2+
