Mass spectrum: SEROTONIN; LC-ESI-QTOF; MS2; CE: 20eV; R=5000; [M+H]+
Name: SEROTONIN
Name: 3-(2-aminoethyl)-1H-indol-5-ol
Formula: C10H12N2O
Exact mass: 176.09496
SMILES: NCCC1=CNC2=CC=C(O)C=C12
InChI: InChI=1S/C10H12N2O/c11-4-3-7-6-12-10-2-1-8(13)5-9(7)10/h1-2,5-6,12-13H,3-4,11H2
Instrument: Agilent 6530 QTOF
Instrument type: LC-ESI-QTOF
Ms type: MS2
Ion mode: POSITIVE
Ionization: ESI
Fragmentation mode: CID
Collision energy: 20 eV
Resolution: 5000
Column name: N/A
Retention time: 0.186 min
Base peak: 160.0758
Precursor m/z: 177.1022
Precursor type: [M+H]+
Precursor intensity: 1439047
m/z	relative intensity	assigned
41.0383	1	C3H5+
44.0127	5	CH2NO+
54.0344	1	C3H4N+
65.0375	8	C5H5+
67.0415	36	C4H5N+
77.0383	51	C6H5+
79.0544	34	C6H7+
82.0275	2	C4H4NO+
89.0376	14	C7H5+
90.0446	5	C7H6+
91.0529	29	C7H7+
92.0509	2	C6H6N+
93.047	3	C5H5N2+
102.0325	2	C7H4N+
104.0477	12	C7H6N+
105.0682	124	C8H9+
107.048	8	C7H7O+
113.9962	2	C7NO+
114.0477	2	C9H6+
115.0519	448	C9H7+
116.0487	34	C8H6N+
117.056	243	C8H7N+
121.0507	1	C7H7NO+
128.0486	1	C9H6N+
130.0621	45	C9H8N+
132.0776	255	C9H10N+
141.0559	13	C10H7N+
142.0623	108	C10H8N+
143.0694	83	C10H9N+
144.0466	17	C9H6NO+
145.0522	6	C9H7NO+
148.0725	1	C9H10NO+
156.0406	1	C10H6NO+
158.0599	9	C10H8NO+
159.0644	135	C10H9NO+
160.0727	999	C10H10NO+
