Mass spectrum: Isodecyl diphenyl phosphate; LC-ESI-QTOF; MS2; CE: 10eV; R=7000; [M+Na]+
Name: Isodecyl diphenyl phosphate
Name: 8-methylnonyl diphenyl phosphate
Formula: C22H31O4P
Exact mass: 390.1960
SMILES: CC(C)CCCCCCCOP(=O)(OC1=CC=CC=C1)OC2=CC=CC=C2
InChI: InChI=1S/C22H31O4P/c1-20(2)14-8-4-3-5-13-19-24-27(23,25-21-15-9-6-10-16-21)26-22-17-11-7-12-18-22/h6-7,9-12,15-18,20H,3-5,8,13-14,19H2,1-2H3
Instrument: Agilent 6560 QTOF
Instrument type: LC-ESI-QTOF
Ms type: MS2
Ion mode: POSITIVE
Ionization: ESI
Fragmentation mode: CID
Collision energy: 10 eV
Resolution: 7000
Retention time: 0.145 min
Base peak: 413.1861
Precursor m/z: 413.1852
Precursor type: [M+Na]+
Precursor intensity: 282823.68
m/z	relative intensity	assigned
58.0739	1	C2H11Na+
273.0288	346	C12H11NaO4P+
274.0322	23	C12H12NaO4P+
301.1421	1	C16H22NaO4+
413.1847	999	C22H31NaO4P+
