Mass spectrum: Tripalmitin; LC-ESI-QTOF; MS2; CE: 40eV; R=7000; [M+NH4]+
Name: Tripalmitin
Name: 2,3-di(hexadecanoyloxy)propyl hexadecanoate
Formula: C51H98O6
Exact mass: 806.7363
SMILES: [H]C(COC(=O)CCCCCCCCCCCCCCC)(COC(=O)CCCCCCCCCCCCCCC)OC(=O)CCCCCCCCCCCCCCC
InChI: InChI=1S/C51H98O6/c1-4-7-10-13-16-19-22-25-28-31-34-37-40-43-49(52)55-46-48(57-51(54)45-42-39-36-33-30-27-24-21-18-15-12-9-6-3)47-56-50(53)44-41-38-35-32-29-26-23-20-17-14-11-8-5-2/h48H,4-47H2,1-3H3
Instrument: Agilent 6560 QTOF
Instrument type: LC-ESI-QTOF
Ms type: MS2
Ion mode: POSITIVE
Ionization: ESI
Fragmentation mode: CID
Collision energy: 40 eV
Resolution: 7000
Column name: Direct injection
Retention time: 0.719 min
Base peak: 256.9651
Precursor m/z: 824.7702
Precursor type: [M+NH4]+
Precursor intensity: 24357
m/z	relative intensity	assigned
70.0646	118	C4H8N+
71.0858	129	C5H11+
81.07	522	C6H9+
83.0858	321	C6H11+
83.1084	20	C3H15O2+
85.1009	513	C6H13+
95.0864	766	C7H11+
109.1008	449	C8H13+
109.2225	33	H31NO4+
123.1176	347	C9H15+
137.1309	112	C10H17+
193.1926	55	C14H25+
239.2405	214	C9H35O6+
240.2328	76	C15H30NO+
313.2701	225	C19H37O3+
551.5044	999	C35H67O4+
552.506	325	C35H68O4+
