Mass spectrum: URIDINEDIPHOSPHATENACETYLGLUCOSAMINE; LC-ESI-QTOF; MS2; CE: 20eV; R=5000; [M+H]+
Name: URIDINEDIPHOSPHATENACETYLGLUCOSAMINE
Name: Uridine-diphosphate-N-acetylglucosamine
Name: [(2R,3R,4R,5S,6R)-3-acetamido-4,5-dihydroxy-6-(hydroxymethyl)oxan-2-yl] [[(2R,3S,4R,5R)-5-(2,4-dioxopyrimidin-1-yl)-3,4-dihydroxyoxolan-2-yl]methoxy-hydroxyphosphoryl] hydrogen phosphate
Formula: C17H27N3O17P2
Exact mass: 607.0816
SMILES: CC(=O)N[C@@H]1[C@@H](O)[C@H](O)[C@@H](CO)O[C@@H]1OP(O)(=O)OP(O)(=O)OC[C@H]1O[C@H]([C@H](O)[C@@H]1O)N1C=CC(=O)NC1=O
InChI: InChI=1S/C17H27N3O17P2/c1-6(22)18-10-13(26)11(24)7(4-21)35-16(10)36-39(31,32)37-38(29,30)33-5-8-12(25)14(27)15(34-8)20-3-2-9(23)19-17(20)28/h2-3,7-8,10-16,21,24-27H,4-5H2,1H3,(H,18,22)(H,29,30)(H,31,32)(H,19,23,28)/t7-,8-,10-,11-,12-,13-,14-,15-,16-/m1/s1
Instrument: Agilent 6530 QTOF
Instrument type: LC-ESI-QTOF
Ms type: MS2
Ion mode: POSITIVE
Ionization: ESI
Fragmentation mode: CID
Collision energy: 20 eV
Resolution: 5000
Column name: N/A
Retention time: 0.319 min
Base peak: 121.0508
Precursor m/z: 608.0888
Precursor type: [M+H]+
Precursor intensity: 30175
m/z	relative intensity	assigned
59.0464	49	CH5N3+
96.0449	50	CH9N2OP+
97.0646	22	C6H9O+
98.0149	7	C8H2+
98.0576	107	C2H10O4+
107.2096	15	C3H27N2O+
126.0511	103	CH8N3O4+
136.033	67	C3H10N2P2+
136.0974	4	CH17N2O3P+
138.0546	756	C7H8NO2+
139.9931	17	H2N3O6+
144.0604	196	CH10N3O5+
168.0608	154	C3H10N3O5+
168.1075	24	C2H18NO7+
186.0697	185	H14N2O9+
204.084	999	C5H16O8+
210.0524	7	C10H10O5+
232.2182	30	C17H28+
233.0555	21	C11H9N2O4+
278.9185	8	C2H3NO11P2+
282.1551	16	C7H27N2O7P+
329.1482	38	C3H27N3O14+
342.183	6	C12H28N3O8+
404.9993	20	C15H8N3O9P+
418.8873	7	C11HO14P2+
440.9074	9	C17HNO10P2+
442.0459	7	C13H16NO16+
476.9734	10	C14H11N2O13P2+
495.0473	29	C16H17NO17+
504.8866	4	C17HNO14P2+
518.9161	10	C17H3N3O13P2+
521.0094	8	C14H19O17P2+
535.0571	6	C17H17N3O17+
544.0733	4	C16H24N3O14P2+
567.0719	4	C16H27NO17P2+
574.9321	38	C17H9N2O17P2+
598.0187	19	C17H18N3O17P2+
