Mass spectrum: Medroxyprogesterone; LC-ESI-QTOF; MS2; CE: 20eV; R=7000; [M+H]+
Name: Medroxyprogesterone
Name: 17-Hydroxy-6-methylpregn-4-ene-3,20-dione
Name: (8R,9S,10R,13S,14S,17R)-17-acetyl-17-hydroxy-6,10,13-trimethyl-2,6,7,8,9,11,12,14,15,16-decahydro-1H-cyclopenta[a]phenanthren-3-one
Formula: C22H32O3
Exact mass: 344.2351
SMILES: CC1C[C@@H]2[C@H](CC[C@]3([C@H]2CC[C@@]3(C(=O)C)O)C)[C@@]4(C1=CC(=O)CC4)C
InChI: InChI=1S/C22H32O3/c1-13-11-16-17(20(3)8-5-15(24)12-19(13)20)6-9-21(4)18(16)7-10-22(21,25)14(2)23/h12-13,16-18,25H,5-11H2,1-4H3/t13?,16-,17+,18+,20-,21+,22+/m1/s1
Instrument: Agilent 6560 QTOF
Instrument type: LC-ESI-QTOF
Ms type: MS2
Ion mode: POSITIVE
Ionization: ESI
Fragmentation mode: CID
Collision energy: 20 eV
Resolution: 7000
Column name: Direct injection
Retention time: 0.155 min
Base peak: 345.243
Precursor m/z: 345.2424
Precursor type: [M+H]+
Precursor intensity: 508446
m/z	relative intensity	assigned
77.0375	7	C6H5+
79.0541	18	C6H7+
80.0611	6	C6H8+
81.0706	26	C6H9+
83.0485	46	C5H7O+
91.053	7	C7H7+
93.0692	14	C7H9+
95.0489	5	C6H7O+
95.0859	32	C7H11+
97.0643	424	C6H9O+
99.0799	2	C6H11O+
101.059	5	C5H9O2+
103.0527	2	C8H7+
105.0692	17	C8H9+
107.0858	19	C8H11+
108.0565	4	C7H8O+
109.0638	18	C7H9O+
109.1005	11	C8H13+
111.0787	4	C7H11O+
113.0982	1	C7H13O+
119.0855	30	C9H11+
121.0632	5	C8H9O+
121.1004	28	C9H13+
123.0805	999	C8H11O+
131.0841	10	C10H11+
133.1007	29	C10H13+
135.0796	9	C9H11O+
135.1167	11	C10H15+
137.0957	62	C9H13O+
139.0394	1	C7H7O3+
139.1092	3	C9H15O+
143.085	14	C11H11+
144.0933	2	C11H12+
145.1007	50	C11H13+
146.1054	5	C11H14+
147.0812	6	C10H11O+
147.1148	12	C11H15+
149.0957	19	C10H13O+
149.1303	1	C11H17+
155.0857	1	C12H11+
157.1005	16	C12H13+
158.1057	2	C12H14+
159.0794	1	C11H11O+
159.1166	31	C12H15+
161.0951	4	C11H13O+
161.1332	20	C12H17+
162.1007	2	C11H14O+
163.1113	14	C11H15O+
163.1477	9	C12H19+
165.1289	2	C11H17O+
169.1	3	C13H13+
171.1152	19	C13H15+
173.1312	32	C13H17+
175.1102	8	C12H15O+
175.1467	29	C13H19+
176.154	8	C13H20+
177.1279	16	C12H17O+
179.1412	2	C12H19O+
181.1183	4	C11H17O2+
182.108	1	C14H14+
183.1182	3	C14H15+
184.1242	2	C14H16+
185.1324	19	C14H17+
187.1094	2	C13H15O+
187.148	17	C14H19+
188.1524	1	C14H20+
189.127	14	C13H17O+
189.1635	7	C14H21+
191.0819	2	C15H11+
191.1423	13	C13H19O+
192.1832	1	C14H24+
193.0973	3	C15H13+
195.1144	5	C15H15+
196.1264	1	C15H16+
197.1322	28	C15H17+
199.1474	18	C15H19+
201.1231	2	C14H17O+
201.1635	8	C15H21+
203.141	6	C14H19O+
205.1202	2	C13H17O2+
205.1581	10	C14H21O+
209.1343	4	C16H17+
211.1474	18	C16H19+
213.1275	5	C15H17O+
213.1651	1	C16H21+
214.1344	8	C15H18O+
215.1424	22	C15H19O+
215.1802	2	C16H23+
217.1194	2	C14H17O2+
217.1597	4	C15H21O+
217.1944	1	C16H25+
221.1309	4	C17H17+
223.1446	7	C17H19+
224.1176	4	C16H16O+
224.1543	2	C17H20+
225.1623	12	C17H21+
226.1298	3	C16H18O+
227.1775	13	C17H23+
228.1465	2	C16H20O+
228.1816	1	C17H24+
229.16	9	C16H21O+
230.1652	2	C16H22O+
231.1717	6	C16H23O+
233.1552	3	C15H21O2+
235.1711	1	C15H23O2+
237.162	2	C18H21+
238.1695	2	C18H22+
239.1429	6	C17H19O+
239.176	6	C18H23+
240.1877	2	C18H24+
241.1614	2	C17H21O+
241.193	5	C18H25+
243.173	13	C17H23O+
245.1902	9	C17H25O+
249.165	2	C19H21+
251.1789	5	C19H23+
253.1589	5	C18H21O+
253.1939	7	C19H25+
254.1682	2	C18H22O+
255.1713	4	C18H23O+
257.1521	22	C17H21O2+
257.1904	10	C18H25O+
259.2055	1	C18H27O+
265.1887	3	C20H25+
266.2003	2	C20H26+
267.1754	3	C19H23O+
267.2096	41	C20H27+
268.2121	5	C20H28+
269.1887	12	C19H25O+
270.194	1	C19H26O+
271.1657	1	C18H23O2+
275.1645	15	C17H23O3+
283.2059	3	C20H27O+
284.1798	2	C19H24O2+
284.2126	18	C20H28O+
285.2224	32	C20H29O+
286.2225	1	C20H30O+
287.1954	1	C19H27O2+
291.2122	5	C22H27+
298.1949	2	C20H26O2+
299.1955	5	C20H27O2+
299.2312	2	C21H31O+
303.2288	3	C20H31O2+
309.2221	34	C22H29O+
310.2229	1	C22H30O+
327.2334	38	C22H31O2+
345.2417	102	C22H33O3+
