Mass spectrum: 5-METHYLCYTOSINE; LC-ESI-QTOF; MS2; CE: 40eV; R=5000; [M+H]+
Name: 5-METHYLCYTOSINE
Name: 6-amino-5-methyl-1H-pyrimidin-2-one
Formula: C5H7N3O
Exact mass: 125.0589
SMILES: CC1=C(N)NC(=O)N=C1
InChI: InChI=1S/C5H7N3O/c1-3-2-7-5(9)8-4(3)6/h2H,1H3,(H3,6,7,8,9)
Instrument: Agilent 6530 QTOF
Instrument type: LC-ESI-QTOF
Ms type: MS2
Ion mode: POSITIVE
Ionization: ESI
Fragmentation mode: CID
Collision energy: 40 eV
Resolution: 5000
Column name: N/A
Retention time: 0.183 min
Base peak: 126.0665
Precursor m/z: 126.0662
Precursor type: [M+H]+
Precursor intensity: 691716
m/z	relative intensity	assigned
40.0187	39	C2H2N+
41.0268	17	C2H3N+
43.0295	98	CH3N2+
51.0107	4	C3HN+
52.019	43	C3H2N+
54.0342	999	C3H4N+
56.0496	296	C3H6N+
64.0181	14	C4H2N+
66.0332	32	C4H4N+
68.023	9	C2H2N3+
69.008	37	C2HN2O+
71.0241	36	C2H3N2O+
81.0436	115	C4H5N2+
82.0283	47	C4H4NO+
83.0594	35	C4H7N2+
109.0387	71	C5H5N2O+
126.0683	3	C5H8N3O+
