Mass spectrum: 1-(9Z-octadecenoyl)-2-hexadecanoyl-sn-glycero-3-phosphocholine; LC-ESI-QTOF; MS2; CE: 10eV; R=7000; [M+H]+
Name: 1-(9Z-octadecenoyl)-2-hexadecanoyl-sn-glycero-3-phosphocholine
Name: 1-Oleoyl-2-palmitoyl-sn-glycero-3-phosphocholine
Name: [(2R)-2-hexadecanoyloxy-3-[(Z)-octadec-9-enoyl]oxypropyl] 2-(trimethylazaniumyl)ethyl phosphate
Formula: C42H82NO8P
Exact mass: 759.5778
SMILES: [C@](COP(=O)([O-])OCC[N+](C)(C)C)([H])(OC(CCCCCCCCCCCCCCC)=O)COC(CCCCCCC/C=C\CCCCCCCC)=O
InChI: InChI=1S/C42H82NO8P/c1-6-8-10-12-14-16-18-20-21-23-24-26-28-30-32-34-41(44)48-38-40(39-50-52(46,47)49-37-36-43(3,4)5)51-42(45)35-33-31-29-27-25-22-19-17-15-13-11-9-7-2/h20-21,40H,6-19,22-39H2,1-5H3/b21-20-/t40-/m1/s1
Instrument: Agilent 6560 QTOF
Instrument type: LC-ESI-QTOF
Ms type: MS2
Ion mode: POSITIVE
Ionization: ESI
Fragmentation mode: CID
Collision energy: 10 eV
Resolution: 7000
Column name: Direct injection
Retention time: 0.212 min
Base peak: 760.5871
Precursor m/z: 760.5851
Precursor type: [M+H]+
Precursor intensity: 1792925
m/z	relative intensity	assigned
86.0963	15	C5H12N+
98.9833	1	H4O4P+
104.1068	1	C5H14NO+
124.9993	4	C2H6O4P+
184.0737	541	C5H15NO4P+
185.0764	8	C2H18O7P+
243.9648	1	C7H3NO7P+
478.3269	1	C28H46O6+
522.3544	1	C30H50O7+
760.5878	999	C42H83NO8P+
