Mass spectrum: Bis(2-butoxyethyl) hydrogen phosphate; LC-ESI-QTOF; MS2; CE: 45eV; R=7000; [M+H]+
Name: Bis(2-butoxyethyl) hydrogen phosphate
Formula: C12H27O6P
Exact mass: 298.1545
SMILES: CCCCOCCOP(=O)(O)OCCOCCCC
InChI: InChI=1S/C12H27O6P/c1-3-5-7-15-9-11-17-19(13,14)18-12-10-16-8-6-4-2/h3-12H2,1-2H3,(H,13,14)
Instrument: Agilent 6560 QTOF
Instrument type: LC-ESI-QTOF
Ms type: MS2
Ion mode: POSITIVE
Ionization: ESI
Fragmentation mode: CID
Collision energy: 45 eV
Resolution: 7000
Retention time: 0.149 min
Base peak: 299.1623
Precursor m/z: 299.1618
Precursor type: [M+H]+
Precursor intensity: 2955.21
m/z	relative intensity	assigned
55.0546	229	C4H7+
57.07	999	C4H9+
98.9845	939	H4O4P+
