Mass spectrum: N-oleoyl-D-erythro-sphingosine; LC-ESI-QTOF; MS2; CE: 40eV; R=7000; [M+CH3COO]-
Name: N-oleoyl-D-erythro-sphingosine
Name: N-(oleoyl)-ceramide
Name: (Z)-N-[(E,2S,3R)-1,3-dihydroxyoctadec-4-en-2-yl]octadec-9-enamide
Formula: C36H69NO3
Exact mass: 563.5277
SMILES: CCCCCCCCCCCCC/C=C/[C@H]([C@H](CO)NC(=O)CCCCCCC/C=C\CCCCCCCC)O
InChI: InChI=1S/C36H69NO3/c1-3-5-7-9-11-13-15-17-18-20-22-24-26-28-30-32-36(40)37-34(33-38)35(39)31-29-27-25-23-21-19-16-14-12-10-8-6-4-2/h17-18,29,31,34-35,38-39H,3-16,19-28,30,32-33H2,1-2H3,(H,37,40)/b18-17-,31-29+/t34-,35+/m0/s1
Instrument: Agilent 6560 QTOF
Instrument type: LC-ESI-QTOF
Ms type: MS2
Ion mode: NEGATIVE
Ionization: ESI
Fragmentation mode: CID
Collision energy: 40 eV
Resolution: 7000
Column name: N/A
Retention time: 0.143 min
Base peak: 622.5435
Precursor m/z: 622.5416
Precursor type: [M+CH3COO]-
Precursor intensity: 350890
m/z	relative intensity	assigned
80.0268	10	C5H4O-
80.0862	1	C3H12O2-
83.0484	6	C5H7O-
84.0451	4	C4H6NO-
96.514	1	H66NO-
97.0654	19	C6H9O-
97.1062	1	H17O5-
100.2403	4	C3H32O2-
103.0996	1	C5H13NO-
109.0635	3	C7H9O-
111.0807	10	C7H11O-
113.3422	1	C3H45O2-
125.0995	1	C8H13O-
139.1119	5	C9H15O-
142.0257	2	C6H6O4-
165.2127	1	C9H27NO-
194.2111	1	C7H30O5-
196.3017	1	C12H38N-
205.5105	1	C5H67NO4-
208.2645	1	C12H34NO-
213.4557	1	C9H59NO2-
225.2227	7	C15H29O-
233.4965	1	C13H63N-
235.2065	18	C16H27O-
237.2229	352	C16H29O-
238.2245	16	C16H30O-
239.2377	18	C16H31O-
240.2455	4	C16H32O-
242.0905	1	C15H14O3-
245.2271	9	C18H29-
249.2207	5	C17H29O-
250.2524	9	C14H34O3-
255.2295	4	C16H31O2-
261.221	8	C18H29O-
263.2386	394	C18H31O-
264.2432	13	C18H32O-
265.2596	10	C14H35NO3-
266.2481	39	C17H32NO-
267.25	9	C14H35O4-
268.2657	39	C17H34NO-
269.2678	6	C14H37O4-
272.5017	1	C12H66NO3-
278.2558	2	C19H34O-
279.2688	20	C19H35O-
280.2647	96	C18H34NO-
281.2503	98	C18H33O2-
282.2507	10	C18H34O2-
282.2812	5	C18H36NO-
294.2781	5	C16H38O4-
295.2636	5	C19H35O2-
298.2759	2	C18H36NO2-
299.1165	2	C17H17NO4-
299.1451	1	C22H19O-
304.2662	6	C20H34NO-
304.3264	1	C18H42NO2-
304.3586	1	C19H46NO-
304.5212	2	C17H68O2-
305.1045	1	C19H15NO3-
305.2468	1	C20H33O2-
306.2804	999	C20H36NO-
307.2847	98	C17H39O4-
307.3571	6	C19H47O2-
309.0495	2	C21H9O3-
310.1127	1	C18H16NO4-
311.0557	2	C20H9NO3-
316.2582	2	C18H36O4-
320.2609	2	C20H34NO2-
320.3171	1	C18H42NO3-
321.2631	6	C17H37O5-
322.275	103	C20H36NO2-
324.2886	8	C17H40O5-
336.2885	1	C18H40O5-
337.3151	1	C22H41O2-
339.0649	1	C22H11O4-
340.2912	3	C20H38NO3-
344.0201	1	C26H2NO-
350.4936	3	C20H64NO2-
362.1779	2	C23H24NO3-
363.2822	1	C22H37NO3-
370.2252	4	C27H30O-
419.5027	1	C24H67O4-
420.5612	2	C29H72-
425.9875	1	C29NO4-
428.081	1	C32H12O2-
487.4947	2	C30H65NO3-
488.4837	2	C33H62NO-
502.4238	1	C32H56NO3-
502.5015	4	C34H64NO-
502.5409	2	C28H72NO5-
503.4992	1	C31H67O4-
514.5007	125	C35H64NO-
515.504	35	C32H67O4-
516.513	2	C32H68O4-
520.4375	2	C32H58NO4-
526.4927	3	C33H66O4-
530.4961	49	C35H64NO2-
531.4978	12	C32H67O5-
532.51	87	C35H66NO2-
533.5167	21	C35H67NO2-
541.0859	1	C36H15NO5-
541.3142	1	C35H43NO4-
548.5675	1	C37H72O2-
562.5174	26	C36H68NO3-
563.5242	6	C36H69NO3-
572.4605	1	C36H62NO4-
