Mass spectrum: 1-octadecenoyl-rac-glycerol; LC-ESI-QTOF; MS2; CE: 10eV; R=7000; [M-H2O+H]+
Name: 1-octadecenoyl-rac-glycerol
Name: Glyceryl monooleate
Name: 2,3-dihydroxypropyl (Z)-octadec-9-enoate
Formula: C21H40O4
Exact mass: 356.2927
SMILES: CCCCCCCC/C=C\CCCCCCCC(=O)OCC(CO)O
InChI: InChI=1S/C21H40O4/c1-2-3-4-5-6-7-8-9-10-11-12-13-14-15-16-17-21(24)25-19-20(23)18-22/h9-10,20,22-23H,2-8,11-19H2,1H3/b10-9-
Instrument: Agilent 6560 QTOF
Instrument type: LC-ESI-QTOF
Ms type: MS2
Ion mode: POSITIVE
Ionization: ESI
Fragmentation mode: CID
Collision energy: 10 eV
Resolution: 7000
Column name: Direct injection
Retention time: 0.126 min
Base peak: 256.9654
Precursor m/z: 339.2894
Precursor type: [M-H2O+H]+
Precursor intensity: 12233
m/z	relative intensity	assigned
147.1141	850	C11H15+
219.2732	348	C14H35O+
265.2524	274	C18H33O+
283.1699	999	C19H23O2+
