Mass spectrum: Triamylphosphate; LC-ESI-QTOF; MS2; CE: 15eV; R=7000; [M+H]+
Name: Triamylphosphate
Name: tripentyl phosphate
Formula: C15H33O4P
Exact mass: 308.2116
SMILES: CCCCCOP(=O)(OCCCCC)OCCCCC
InChI: InChI=1S/C15H33O4P/c1-4-7-10-13-17-20(16,18-14-11-8-5-2)19-15-12-9-6-3/h4-15H2,1-3H3
Instrument: Agilent 6560 QTOF
Instrument type: LC-ESI-QTOF
Ms type: MS2
Ion mode: POSITIVE
Ionization: ESI
Fragmentation mode: CID
Collision energy: 15 eV
Resolution: 7000
Retention time: 0.111 min
Base peak: 309.2189
Precursor m/z: 309.2189
Precursor type: [M+H]+
Precursor intensity: 214400.11
m/z	relative intensity	assigned
62.9633	4	O2P+
71.0861	7	C5H11+
80.9736	19	H2O3P+
98.9841	999	H4O4P+
169.0616	3	C5H14O4P+
239.1411	1	C10H24O4P+
250.1667	1	C12H27O3P+
