Mass spectrum: HOMOCYSTEINE THIOLACTONE; LC-ESI-QTOF; MS2; CE: 10eV; R=5000; [M+H]+
Name: HOMOCYSTEINE THIOLACTONE
Name: DL-Homocysteine thiolactone
Name: 3-aminothiolan-2-one
Formula: C4H7NOS
Exact mass: 117.0248
SMILES: NC1CCSC1=O
InChI: InChI=1S/C4H7NOS/c5-3-1-2-7-4(3)6/h3H,1-2,5H2
Instrument: Agilent 6530 QTOF
Instrument type: LC-ESI-QTOF
Ms type: MS2
Ion mode: POSITIVE
Ionization: ESI
Fragmentation mode: CID
Collision energy: 10 eV
Resolution: 5000
Column name: N/A
Retention time: 0.216 min
Base peak: 118.0328
Precursor m/z: 118.0321
Precursor type: [M+H]+
Precursor intensity: 1717101
m/z	relative intensity	assigned
44.0499	103	C2H6N+
44.9799	80	CHS+
46.9955	163	CH3S+
54.0341	9	C3H4N+
56.0498	684	C3H6N+
57.0571	5	C3H7N+
58.0656	16	C3H8N+
71.9897	42	C2H2NS+
73.0105	102	C3H5S+
90.0367	999	C3H8NS+
100.0203	183	C4H6NS+
101.0046	57	C4H5OS+
118.0303	117	C4H8NOS+
