Mass spectrum: 5-Hydroxy-2-ethylhexyl diphenyl phosphate; LC-ESI-QTOF; MS2; CE: 30eV; R=7000; [M+H]+
Name: 5-Hydroxy-2-ethylhexyl diphenyl phosphate
Name: 2-Ethyl-5-hydroxyhexyl diphenyl phosphate
Name: (2-ethyl-5-hydroxyhexyl) diphenyl phosphate
Formula: C20H27O5P
Exact mass: 378.1596
SMILES: CCC(CCC(C)O)COP(=O)(Oc1ccccc1)Oc2ccccc2
InChI: InChI=1S/C20H27O5P/c1-3-18(15-14-17(2)21)16-23-26(22,24-19-10-6-4-7-11-19)25-20-12-8-5-9-13-20/h4-13,17-18,21H,3,14-16H2,1-2H3
Instrument: Agilent 6560 QTOF
Instrument type: LC-ESI-QTOF
Ms type: MS2
Ion mode: POSITIVE
Ionization: ESI
Fragmentation mode: CID
Collision energy: 30 eV
Resolution: 7000
Retention time: 0.146 min
Base peak: 401.1512
Precursor m/z: 379.1669
Precursor type: [M+H]+
Precursor intensity: 80681.49
m/z	relative intensity	assigned
51.024	25	C4H3+
55.0542	118	C4H7+
69.0701	410	C5H9+
77.0387	509	C6H5+
95.049	160	C6H7O+
111.1172	10	C8H15+
129.0099	12	C5H6O2P+
151.0534	17	C12H7+
152.0621	100	C12H8+
153.0697	366	C12H9+
154.073	46	C5H15O3P+
157.0043	44	C6H6O3P+
168.0563	15	C12H8O+
175.0155	96	C6H8O4P+
215.025	133	C12H8O2P+
233.0363	97	C12H10O3P+
234.1294	11	C14H18O3+
251.0471	999	C12H12O4P+
252.051	61	C12H13O4P+
