Mass spectrum: Butyryl trihexyl citrate; LC-ESI-QTOF; MS2; CE: 20eV; R=7000; [M+Na]+
Name: Butyryl trihexyl citrate
Name: trihexyl 2-butanoyloxypropane-1,2,3-tricarboxylate
Formula: C28H50O8
Exact mass: 514.3506
SMILES: CCCCCCOC(=O)CC(CC(=O)OCCCCCC)(C(=O)OCCCCCC)OC(=O)CCC
InChI: InChI=1S/C28H50O8/c1-5-9-12-15-19-33-25(30)22-28(36-24(29)18-8-4,27(32)35-21-17-14-11-7-3)23-26(31)34-20-16-13-10-6-2/h5-23H2,1-4H3
Instrument: Agilent 6560 QTOF
Instrument type: LC-ESI-QTOF
Ms type: MS2
Ion mode: POSITIVE
Ionization: ESI
Fragmentation mode: CID
Collision energy: 20 eV
Resolution: 7000
Retention time: 0.146 min
Base peak: 537.3425
Precursor m/z: 537.3398
Precursor type: [M+Na]+
Precursor intensity: 397662.91
m/z	relative intensity	assigned
235.0932	7	C11H16NaO4+
236.0935	1	C9H16O7+
323.1851	2	C18H27O5+
337.1989	46	C17H30NaO5+
338.2027	4	C26H26+
365.1936	13	C18H30NaO6+
366.1968	2	C27H26O+
383.204	15	C18H32NaO7+
384.209	1	C27H28O2+
449.2881	190	C24H42NaO6+
450.2919	27	C24H43NaO6+
453.2454	11	C22H38NaO8+
454.25	1	C22H39NaO8+
467.2973	6	C24H44NaO7+
468.3042	1	C24H45NaO7+
537.3405	999	C28H50NaO8+
