Mass spectrum: THYROTROPIN; LC-ESI-QTOF; MS2; CE: 20eV; R=5000; [M+H]+
Name: THYROTROPIN
Name: Thyrotropin releasing hormone
Name: N-[1-(2-carbamoylpyrrolidin-1-yl)-3-(1H-imidazol-5-yl)-1-oxopropan-2-yl]-5-oxopyrrolidine-2-carboxamide
Formula: C16H22N6O4
Exact mass: 362.1703
SMILES: C1CC(N(C1)C(=O)C(CC2=CN=CN2)NC(=O)C3CCC(=O)N3)C(=O)N
InChI: InChI=1S/C16H22N6O4/c17-14(24)12-2-1-5-22(12)16(26)11(6-9-7-18-8-19-9)21-15(25)10-3-4-13(23)20-10/h7-8,10-12H,1-6H2,(H2,17,24)(H,18,19)(H,20,23)(H,21,25)
Instrument: Agilent 6530 QTOF
Instrument type: LC-ESI-QTOF
Ms type: MS2
Ion mode: POSITIVE
Ionization: ESI
Fragmentation mode: CID
Collision energy: 20 eV
Resolution: 5000
Column name: N/A
Retention time: 0.182 min
Base peak: 363.178
Precursor m/z: 363.1775
Precursor type: [M+H]+
Precursor intensity: 7232444
m/z	relative intensity	assigned
56.0499	10	C3H6N+
68.0497	2	C4H6N+
69.0449	4	C3H5N2+
70.0655	414	C4H8N+
71.0685	3	CH11O3+
80.0497	1	C5H6N+
81.0448	11	C4H5N2+
82.052	2	C4H6N2+
83.0607	23	C4H7N2+
84.0446	56	C4H6NO+
86.0592	4	C2H6N4+
93.0449	10	C5H5N2+
95.06	10	C5H7N2+
96.0459	1	C5H6NO+
108.0528	2	C2H8N2O3+
109.0468	4	CH7N3O3+
110.071	532	C5H8N3+
112.0407	1	C5H6NO2+
114.0532	9	C3H6N4O+
115.0864	715	C5H11N2O+
120.0549	3	C6H6N3+
121.0415	1	C6H5N2O+
122.07	5	C6H8N3+
138.0658	9	C6H8N3O+
147.0559	2	C8H7N2O+
148.0853	23	C5H12N2O3+
149.074	2	C8H9N2O+
158.0679	1	C4H8N5O2+
160.0876	1	C11H12O+
166.0605	91	C7H8N3O2+
167.068	1	C5H7N6O+
176.081	428	C7H8N6+
177.0857	5	C4H11N5O3+
187.0549	1	C15H7+
188.0795	1	C7H12N2O4+
203.0917	5	C10H11N4O+
204.0762	103	C10H10N3O2+
205.1085	5	C10H13N4O+
217.106	5	C8H15N3O4+
221.1028	999	C10H13N4O2+
222.1095	10	C10H14N4O2+
231.0866	5	C11H11N4O2+
232.0714	2	C11H10N3O3+
233.104	1	C13H15NO3+
234.1323	13	C8H18N4O4+
235.117	7	C11H15N4O2+
249.0981	573	C11H13N4O3+
250.1112	4	C16H14N2O+
252.1475	1	C13H20N2O3+
262.1298	2	C12H16N5O2+
263.1118	29	C12H15N4O3+
328.1417	2	C16H18N5O3+
346.1486	8	C16H20N5O4+
363.1764	100	C16H23N6O4+
