Mass spectrum: Medroxyprogesterone; LC-ESI-QTOF; MS2; CE: 10eV; R=7000; [M+H]+
Name: Medroxyprogesterone
Name: 17-Hydroxy-6-methylpregn-4-ene-3,20-dione
Name: (8R,9S,10R,13S,14S,17R)-17-acetyl-17-hydroxy-6,10,13-trimethyl-2,6,7,8,9,11,12,14,15,16-decahydro-1H-cyclopenta[a]phenanthren-3-one
Formula: C22H32O3
Exact mass: 344.2351
SMILES: CC1C[C@@H]2[C@H](CC[C@]3([C@H]2CC[C@@]3(C(=O)C)O)C)[C@@]4(C1=CC(=O)CC4)C
InChI: InChI=1S/C22H32O3/c1-13-11-16-17(20(3)8-5-15(24)12-19(13)20)6-9-21(4)18(16)7-10-22(21,25)14(2)23/h12-13,16-18,25H,5-11H2,1-4H3/t13?,16-,17+,18+,20-,21+,22+/m1/s1
Instrument: Agilent 6560 QTOF
Instrument type: LC-ESI-QTOF
Ms type: MS2
Ion mode: POSITIVE
Ionization: ESI
Fragmentation mode: CID
Collision energy: 10 eV
Resolution: 7000
Column name: Direct injection
Retention time: 0.157 min
Base peak: 345.2434
Precursor m/z: 345.2424
Precursor type: [M+H]+
Precursor intensity: 554214
m/z	relative intensity	assigned
71.0494	4	C4H7O+
77.0382	5	C6H5+
79.0527	5	C6H7+
81.0321	1	C5H5O+
83.0488	23	C5H7O+
91.053	1	C7H7+
93.0697	5	C7H9+
95.0851	13	C7H11+
97.065	220	C6H9O+
99.0792	1	C6H11O+
105.0679	7	C8H9+
107.0482	2	C7H7O+
107.0852	11	C8H11+
109.103	7	C8H13+
111.0791	2	C7H11O+
119.086	12	C9H11+
121.1017	2	C9H13+
123.0804	498	C8H11O+
125.0978	2	C8H13O+
129.0695	5	C10H9+
131.0848	2	C10H11+
133.1015	13	C10H13+
135.08	5	C9H11O+
135.1158	8	C10H15+
137.0959	29	C9H13O+
143.0848	6	C11H11+
145.1009	7	C11H13+
147.1154	10	C11H15+
149.0944	4	C10H13O+
149.1325	2	C11H17+
157.0994	5	C12H13+
159.1164	7	C12H15+
161.0971	4	C11H13O+
161.1319	7	C12H17+
163.1107	11	C11H15O+
163.149	1	C12H19+
165.1266	3	C11H17O+
169.1006	3	C13H13+
171.1156	6	C13H15+
173.1327	11	C13H17+
175.1121	9	C12H15O+
175.1471	6	C13H19+
177.1279	15	C12H17O+
177.1623	2	C13H21+
183.1184	5	C14H15+
185.1325	6	C14H17+
187.1117	5	C13H15O+
187.146	5	C14H19+
189.1303	7	C13H17O+
189.1633	4	C14H21+
191.1403	3	C13H19O+
194.1636	2	C13H22O+
195.1161	2	C15H15+
197.1352	9	C15H17+
198.1002	1	C14H14O+
199.1134	1	C14H15O+
199.1467	9	C15H19+
201.1252	4	C14H17O+
201.163	3	C15H21+
203.1049	2	C13H15O2+
203.1429	13	C14H19O+
203.1786	3	C15H23+
205.1585	12	C14H21O+
209.1324	3	C16H17+
211.148	9	C16H19+
213.1251	2	C15H17O+
213.1653	4	C16H21+
214.1383	1	C15H18O+
217.1584	9	C15H21O+
221.1337	1	C17H17+
225.1631	3	C17H21+
226.1664	1	C17H22+
227.1421	6	C16H19O+
227.1799	7	C17H23+
229.1588	3	C16H21O+
231.1753	4	C16H23O+
235.1463	3	C18H19+
235.167	2	C15H23O2+
237.1659	2	C18H21+
239.1425	5	C17H19O+
239.1788	3	C18H23+
240.148	1	C17H20O+
240.1828	1	C18H24+
241.1584	2	C17H21O+
241.1941	1	C18H25+
243.1719	3	C17H23O+
245.19	6	C17H25O+
246.1922	3	C17H26O+
247.1666	1	C16H23O2+
248.1366	1	C15H20O3+
249.1598	1	C19H21+
251.1781	4	C19H23+
253.1966	1	C19H25+
254.1932	1	C15H26O3+
255.1724	2	C18H23O+
257.1555	16	C17H21O2+
257.1851	4	C18H25O+
259.2055	3	C18H27O+
262.1911	1	C17H26O2+
265.1972	1	C20H25+
266.2008	4	C20H26+
267.1715	2	C19H23O+
267.2114	37	C20H27+
268.2149	3	C20H28+
269.1902	8	C19H25O+
271.2	4	C19H27O+
273.1836	4	C18H25O2+
275.1649	29	C17H23O3+
281.2209	2	C21H29+
283.2072	1	C20H27O+
284.2155	5	C20H28O+
285.2215	40	C20H29O+
286.2263	2	C20H30O+
287.2008	3	C19H27O2+
291.2089	10	C22H27+
297.2197	2	C21H29O+
299.2385	3	C21H31O+
309.2203	29	C22H29O+
327.2319	76	C22H31O2+
328.2383	3	C22H32O2+
345.2433	999	C22H33O3+
