Mass spectrum: 1-(9Z-octadecenoyl)-2-hexadecanoyl-sn-glycero-3-phosphocholine; LC-ESI-QTOF; MS2; CE: 40eV; R=7000; [M+H]+
Name: 1-(9Z-octadecenoyl)-2-hexadecanoyl-sn-glycero-3-phosphocholine
Name: 1-Oleoyl-2-palmitoyl-sn-glycero-3-phosphocholine
Name: [(2R)-2-hexadecanoyloxy-3-[(Z)-octadec-9-enoyl]oxypropyl] 2-(trimethylazaniumyl)ethyl phosphate
Formula: C42H82NO8P
Exact mass: 759.5778
SMILES: [C@](COP(=O)([O-])OCC[N+](C)(C)C)([H])(OC(CCCCCCCCCCCCCCC)=O)COC(CCCCCCC/C=C\CCCCCCCC)=O
InChI: InChI=1S/C42H82NO8P/c1-6-8-10-12-14-16-18-20-21-23-24-26-28-30-32-34-41(44)48-38-40(39-50-52(46,47)49-37-36-43(3,4)5)51-42(45)35-33-31-29-27-25-22-19-17-15-13-11-9-7-2/h20-21,40H,6-19,22-39H2,1-5H3/b21-20-/t40-/m1/s1
Instrument: Agilent 6560 QTOF
Instrument type: LC-ESI-QTOF
Ms type: MS2
Ion mode: POSITIVE
Ionization: ESI
Fragmentation mode: CID
Collision energy: 40 eV
Resolution: 7000
Column name: Direct injection
Retention time: 0.209 min
Base peak: 760.5874
Precursor m/z: 760.5851
Precursor type: [M+H]+
Precursor intensity: 1818216
m/z	relative intensity	assigned
71.0736	4	C4H9N+
80.9731	1	H2O3P+
86.0967	117	C5H12N+
98.9835	6	H4O4P+
104.1074	8	C5H14NO+
124.9995	43	C2H6O4P+
166.0621	5	C9H10O3+
184.0735	999	C5H15NO4P+
185.0763	17	C2H18O7P+
522.3575	1	C33H48NO4+
