Mass spectrum: L-ORNITHINE; LC-ESI-QTOF; MS2; CE: 40eV; R=5000; [M+H]+
Name: L-ORNITHINE
Name: (2S)-2,5-diaminopentanoic acid
Formula: C5H12N2O2
Exact mass: 132.0899
SMILES: NCCC[C@H](N)C(O)=O
InChI: InChI=1S/C5H12N2O2/c6-3-1-2-4(7)5(8)9/h4H,1-3,6-7H2,(H,8,9)/t4-/m0/s1
Instrument: Agilent 6530 QTOF
Instrument type: LC-ESI-QTOF
Ms type: MS2
Ion mode: POSITIVE
Ionization: ESI
Fragmentation mode: CID
Collision energy: 40 eV
Resolution: 5000
Column name: N/A
Retention time: 0.218 min
Base peak: 133.0969
Precursor m/z: 133.0972
Precursor type: [M+H]+
Precursor intensity: 162492
m/z	relative intensity	assigned
41.0391	56	C3H5+
42.0334	18	C2H4N+
43.0541	185	C3H7+
45.0337	7	C2H5O+
53.0384	45	C4H5+
68.0493	35	C4H6N+
70.0644	999	C4H8N+
