Mass spectrum: 2-(Methylthio)benzothiazole; LC-ESI-QTOF; MS2; CE: 25eV; R=7000; [M+H]+
Name: 2-(Methylthio)benzothiazole
Name: 2-methylsulfanyl-1,3-benzothiazole
Formula: C8H7NS2
Exact mass: 181.002
SMILES: CSC1=NC2=CC=CC=C2S1
InChI: InChI=1S/C8H7NS2/c1-10-8-9-6-4-2-3-5-7(6)11-8/h2-5H,1H3
Instrument: Agilent 6560 QTOF
Instrument type: LC-ESI-QTOF
Ms type: MS2
Ion mode: POSITIVE
Ionization: ESI
Fragmentation mode: CID
Collision energy: 25 eV
Resolution: 7000
Column name: ZORBAX Extend-C18 3.5um, 2.1x50mm, Agilent Technologies
Retention time: 5.564 min
Base peak: 182.0094
Precursor m/z: 182.0093
Precursor type: [M+H]+
Precursor intensity: 41092.58
m/z	relative intensity	assigned
63.9433	18	S2+
65.0388	18	C5H5+
91.0419	88	C6H5N+
96.0016	23	C5H4S+
103.0412	13	C7H5N+
108.0014	15	C6H4S+
109.0104	78	C6H5S+
122.0058	10	C6H4NS+
123.0139	102	C6H5NS+
135.014	99	C7H5NS+
139.9748	28	C6H4S2+
166.9857	999	C7H5NS2+
167.9901	34	C7H6NS2+
182.0094	83	C8H8NS2+
