Mass spectrum: SPHINGOMYELIN; LC-ESI-QTOF; MS2; CE: 40eV; R=5000; [M+H]+
Name: SPHINGOMYELIN
Name: N-(octadecanoyl)-sphing-4-enine-1-phosphocholine
Name: [(E,2S,3R)-3-hydroxy-2-(octadecanoylamino)octadec-4-enyl] 2-(trimethylazaniumyl)ethyl phosphate
Formula: C41H83N2O6P
Exact mass: 730.5989
SMILES: C[N+](C)(C)CCOP([O-])(=O)OC[C@H](NC(=O)CCCCCCCCCCCCCCCCC)[C@H](O)\C=C\CCCCCCCCCCCCC
InChI: InChI=1S/C41H83N2O6P/c1-6-8-10-12-14-16-18-20-21-23-25-27-29-31-33-35-41(45)42-39(38-49-50(46,47)48-37-36-43(3,4)5)40(44)34-32-30-28-26-24-22-19-17-15-13-11-9-7-2/h32,34,39-40,44H,6-31,33,35-38H2,1-5H3,(H-,42,45,46,47)/b34-32+/t39-,40+/m0/s1
Instrument: Agilent 6560 QTOF
Instrument type: LC-ESI-QTOF
Ms type: MS2
Ion mode: POSITIVE
Ionization: ESI
Fragmentation mode: CID
Collision energy: 40 eV
Resolution: 5000
Column name: N/A
Retention time: 17.709 min
Base peak: 388.3953
Precursor m/z: 731.6062
Precursor type: [M+H]+
Precursor intensity: 68107
m/z	relative intensity	assigned
71.0717	5	C4H9N+
80.9731	7	H2O3P+
86.0971	170	CH15N2P+
101.2407	4	C3H34P+
104.1058	26	C5H14NO+
123.1142	3	C2H20O3P+
124.9992	74	C2H6O4P+
128.1059	4	C7H14NO+
137.1317	6	C10H17+
166.0622	17	C9H10O3+
184.0728	999	C9H12O4+
185.0761	17	C4H13N2O6+
222.9699	4	C11N2O2P+
443.1716	7	C27H25NO5+
719.6011	3	C40H84N2O6P+
