Mass spectrum: GUANOSINE; LC-ESI-QTOF; MS2; CE: 40eV; R=5000; [M+H]+
Name: GUANOSINE
Name: CID 6802
Name: 2-amino-9-[(2R,3R,4S,5R)-3,4-dihydroxy-5-(hydroxymethyl)oxolan-2-yl]-3H-purin-6-one
Formula: C10H13N5O5
Exact mass: 283.09167
SMILES: NC1=NC2=C(N=CN2[C@@H]2O[C@H](CO)[C@@H](O)[C@H]2O)C(=O)N1
InChI: InChI=1S/C10H13N5O5/c11-10-13-7-4(8(19)14-10)12-2-15(7)9-6(18)5(17)3(1-16)20-9/h2-3,5-6,9,16-18H,1H2,(H3,11,13,14,19)/t3-,5-,6-,9-/m1/s1
Instrument: Agilent 6530 QTOF
Instrument type: LC-ESI-QTOF
Ms type: MS2
Ion mode: POSITIVE
Ionization: ESI
Fragmentation mode: CID
Collision energy: 40 eV
Resolution: 5000
Column name: N/A
Retention time: 0.217 min
Base peak: 306.0807
Precursor m/z: 284.0989
Precursor type: [M+H]+
Precursor intensity: 135172
m/z	relative intensity	assigned
43.0295	41	CH3N2+
59.0119	10	HN3O+
61.0283	17	C2H5O2+
62.109	1	C4H14+
65.0112	6	H3NO3+
80.0267	17	C5H4O+
85.026	13	C2H3N3O+
86.1163	2	H14N4O+
106.0618	1	C4H10O3+
107.0365	11	C6H5NO+
110.0373	342	C6H6O2+
111.083	2	C7H11O+
135.0329	999	C7H5NO2+
136.0933	9	H14N3O5+
150.989	1	C6HNO4+
152.0593	470	C7H8N2O2+
155.0926	1	C6H11N4O+
194.0534	1	C3H8N5O5+
