Mass spectrum: 1-octadecanoyl-sn-glycero-3-phosphocholine; LC-ESI-QTOF; MS2; CE: 10eV; R=7000; [M+CH3COO]-
Name: 1-octadecanoyl-sn-glycero-3-phosphocholine
Name: [(2R)-2-hydroxy-3-octadecanoyloxypropyl] 2-(trimethylazaniumyl)ethyl phosphate
Formula: C26H54NO7P
Exact mass: 523.3638
SMILES: CCCCCCCCCCCCCCCCCC(=O)OC[C@H](COP(=O)([O-])OCC[N+](C)(C)C)O
InChI: InChI=1S/C26H54NO7P/c1-5-6-7-8-9-10-11-12-13-14-15-16-17-18-19-20-26(29)32-23-25(28)24-34-35(30,31)33-22-21-27(2,3)4/h25,28H,5-24H2,1-4H3/t25-/m1/s1
Instrument: Agilent 6560 QTOF
Instrument type: LC-ESI-QTOF
Ms type: MS2
Ion mode: NEGATIVE
Ionization: ESI
Fragmentation mode: CID
Collision energy: 10 eV
Resolution: 7000
Column name: N/A
Retention time: 0.146 min
Base peak: 980.0164
Precursor m/z: 582.3776
Precursor type: [M+CH3COO]-
Precursor intensity: 229310
m/z	relative intensity	assigned
152.9946	5	C3H6O5P-
197.0037	4	C11H4NOP-
210.1926	3	C6H28NO6-
220.9409	1	C4NO8P-
224.0679	9	C11H12O5-
242.0211	2	C13H6O5-
242.0813	3	C14H12NO3-
282.2616	1	C11H38O7-
283.2648	190	C14H38NO2P-
303.4173	1	C10H57NO7-
437.2628	1	C20H39NO9-
450.1646	3	C26H26O7-
505.0148	1	C28H10O8P-
505.0634	1	C26H18O9P-
505.1863	2	C25H32NO8P-
506.069	1	C25H17NO9P-
508.342	999	C25H51NO7P-
509.3467	97	C25H52NO7P-
511.3357	1	C25H52O8P-
523.3034	4	C25H48O9P-
582.3806	93	C28H57NO9P-
