Mass spectrum: L-Histidine standard; LC-ESI-QTOF; MS2; CE: 40eV; R=5000; [M+H]+
Name: L-Histidine standard
Name: Histidine
Name: (2S)-2-amino-3-(1H-imidazol-5-yl)propanoic acid
Formula: C6H9N3O2
Exact mass: 155.0695
SMILES: C1=C(NC=N1)C[C@@H](C(=O)O)N
InChI: InChI=1S/C6H9N3O2/c7-5(6(10)11)1-4-2-8-3-9-4/h2-3,5H,1,7H2,(H,8,9)(H,10,11)/t5-/m0/s1
Instrument: Agilent 6530 QTOF
Instrument type: LC-ESI-QTOF
Ms type: MS2
Ion mode: POSITIVE
Ionization: ESI
Fragmentation mode: CID
Collision energy: 40 eV
Resolution: 5000
Column name: N/A
Retention time: 0.216 min
Base peak: 156.0766
Precursor m/z: 156.0768
Precursor type: [M+H]+
Precursor intensity: 647704
m/z	relative intensity	assigned
43.0427	40	C2H5N+
56.0508	999	C3H6N+
58.0299	4	C2H4NO+
66.035	265	C4H4N+
67.0413	30	C4H5N+
68.0491	32	C4H6N+
69.0451	43	C3H5N2+
81.0459	656	C4H5N2+
82.0535	475	C4H6N2+
83.0615	476	C4H7N2+
85.0617	1	C3H7N3+
92.0382	3	C5H4N2+
93.0457	299	C5H5N2+
94.0503	2	C5H6N2+
95.0589	14	C5H7N2+
110.0722	39	C5H8N3+
111.0549	5	C5H7N2O+
