Mass spectrum: Prostaglandin A1; LC-ESI-QTOF; MS2; CE: 20eV; R=7000; [M-H]-
Name: Prostaglandin A1
Name: 7-[(1R,2S)-2-[(E,3S)-3-hydroxyoct-1-enyl]-5-oxocyclopent-3-en-1-yl]heptanoic acid
Formula: C20H32O4
Exact mass: 336.2301
SMILES: CCCCC[C@@H](/C=C/[C@H]1C=CC(=O)[C@@H]1CCCCCCC(=O)O)O
InChI: InChI=1S/C20H32O4/c1-2-3-6-9-17(21)14-12-16-13-15-19(22)18(16)10-7-4-5-8-11-20(23)24/h12-18,21H,2-11H2,1H3,(H,23,24)/b14-12+/t16-,17-,18+/m0/s1
Instrument: Agilent 6560 QTOF
Instrument type: LC-ESI-QTOF
Ms type: MS2
Ion mode: NEGATIVE
Ionization: ESI
Fragmentation mode: CID
Collision energy: 20 eV
Resolution: 7000
Column name: N/A
Retention time: 0.164 min
Base peak: 317.2131
Precursor m/z: 335.2228
Precursor type: [M-H]-
Precursor intensity: 278204
m/z	relative intensity	assigned
81.0703	31	C6H9-
83.0506	134	C5H7O-
85.0675	46	C5H9O-
85.1039	4	C6H13-
91.054	11	C7H7-
95.0501	131	C6H7O-
97.0642	5	C6H9O-
98.0937	6	C3H14O3-
106.0413	49	C7H6O-
107.049	32	C7H7O-
109.03	25	C6H5O2-
109.0662	158	C7H9O-
111.0831	61	C7H11O-
113.0974	420	C7H13O-
120.0582	10	C8H8O-
121.0653	103	C8H9O-
123.0815	145	C8H11O-
125.0582	27	C7H9O2-
131.0473	33	C9H7O-
135.0805	34	C9H11O-
137.0966	163	C9H13O-
147.0821	21	C10H11O-
147.1153	11	C11H15-
149.0963	58	C10H13O-
157.0621	20	C11H9O-
157.0872	5	C8H13O3-
159.1024	2	C8H15O3-
160.0886	12	C11H12O-
161.1004	16	C11H13O-
161.131	2	C12H17-
162.104	23	C11H14O-
163.1144	150	C11H15O-
165.1296	8	C11H17O-
165.1635	17	C12H21-
172.0156	10	C10H4O3-
174.1028	36	C12H14O-
174.1401	4	C13H18-
177.1284	245	C12H17O-
178.1025	27	C11H14O2-
179.1049	9	C11H15O2-
179.1448	8	C12H19O-
185.094	5	C13H13O-
185.1211	18	C10H17O3-
186.1291	8	C10H18O3-
187.1136	28	C13H15O-
188.1224	24	C13H16O-
189.1282	98	C13H17O-
190.1353	5	C13H18O-
191.1441	473	C13H19O-
192.1485	45	C13H20O-
192.1774	7	C10H24O3-
193.1578	22	C13H21O-
197.1136	16	C11H17O3-
199.1121	100	C14H15O-
202.1396	18	C14H18O-
203.1096	26	C13H15O2-
205.0893	18	C12H13O3-
205.1578	23	C14H21O-
206.131	8	C13H18O2-
207.1043	10	C12H15O3-
209.1197	318	C12H17O3-
210.1226	27	C12H18O3-
210.2229	2	C11H30O3-
214.0745	11	C17H10-
215.1459	18	C15H19O-
217.1215	40	C14H17O2-
217.1911	22	C16H25-
219.1383	10	C14H19O2-
219.176	106	C15H23O-
221.1186	408	C13H17O3-
222.121	34	C13H18O3-
223.1337	385	C13H19O3-
224.1404	21	C13H20O3-
229.121	5	C15H17O2-
231.1021	25	C14H15O3-
231.1725	20	C16H23O-
231.2143	12	C17H27-
232.1812	11	C16H24O-
233.1199	8	C14H17O3-
235.1346	833	C14H19O3-
236.138	55	C14H20O3-
236.9937	5	C17HO2-
237.1138	8	C13H17O4-
243.1753	36	C17H23O-
245.1904	123	C17H25O-
249.1315	11	C18H17O-
253.2174	24	C16H29O2-
255.2113	16	C19H27-
256.1656	4	C14H24O4-
257.1886	16	C18H25O-
261.1481	4	C16H21O3-
271.2077	24	C19H27O-
273.2227	999	C19H29O-
274.2237	104	C19H30O-
275.2007	113	C18H27O2-
281.1886	19	C20H25O-
287.1637	7	C18H23O3-
289.2126	19	C19H29O2-
297.0515	2	C20H9O3-
299.2038	69	C20H27O2-
315.1951	6	C20H27O3-
317.2125	888	C20H29O3-
318.2153	48	C20H30O3-
335.2232	52	C20H31O4-
