Mass spectrum: 3-Hydroxyphenyl diphenyl phosphate ; LC-ESI-QTOF; MS2; CE: 15eV; R=7000; [M+H]+
Name: 3-Hydroxyphenyl diphenyl phosphate 
Name: 3-(Diphenoxyphosphinyloxy)phenol
Name: (3-hydroxyphenyl) diphenyl phosphate
Formula: C18H15O5P
Exact mass: 342.0657
SMILES: C1=CC=C(C=C1)OP(=O)(OC2=CC=CC=C2)OC3=CC=CC(=C3)O
InChI: InChI=1S/C18H15O5P/c19-15-8-7-13-18(14-15)23-24(20,21-16-9-3-1-4-10-16)22-17-11-5-2-6-12-17/h1-14,19H
Instrument: Agilent 6560 QTOF
Instrument type: LC-ESI-QTOF
Ms type: MS2
Ion mode: POSITIVE
Ionization: ESI
Fragmentation mode: CID
Collision energy: 15 eV
Resolution: 7000
Retention time: 0.114 min
Base peak: 343.0736
Precursor m/z: 343.073
Precursor type: [M+H]+
Precursor intensity: 113910.33
m/z	relative intensity	assigned
65.0385	50	C5H5+
77.039	16	C6H5+
93.0329	30	C6H5O+
95.0502	3	C6H7O+
98.9839	3	H4O4P+
115.052	10	C2H12O3P+
141.0696	44	C11H9+
142.0737	3	C4H15O3P+
152.062	10	C12H8+
153.0702	11	C12H9+
167.0466	3	C5H12O4P+
168.0553	3	C5H13O4P+
169.0652	36	C12H9O+
171.0792	6	C5H16O4P+
175.0156	14	C6H8O4P+
187.0742	9	C12H11O2+
215.025	21	C12H8O2P+
226.0772	6	C18H10+
227.0866	12	C18H11+
231.0203	35	C12H8O3P+
233.0364	12	C12H10O3P+
245.0959	16	C18H13O+
249.031	56	C12H10O4P+
250.0363	5	C12H11O4P+
251.0461	78	C12H12O4P+
267.0429	11	C12H12O5P+
307.0472	3	C18H12O3P+
325.0584	3	C18H14O4P+
343.0736	999	C18H16O5P+
