Mass spectrum: Tripalmitin; LC-ESI-QTOF; MS2; CE: 10eV; R=7000; [M+NH4]+
Name: Tripalmitin
Name: 2,3-di(hexadecanoyloxy)propyl hexadecanoate
Formula: C51H98O6
Exact mass: 806.7363
SMILES: [H]C(COC(=O)CCCCCCCCCCCCCCC)(COC(=O)CCCCCCCCCCCCCCC)OC(=O)CCCCCCCCCCCCCCC
InChI: InChI=1S/C51H98O6/c1-4-7-10-13-16-19-22-25-28-31-34-37-40-43-49(52)55-46-48(57-51(54)45-42-39-36-33-30-27-24-21-18-15-12-9-6-3)47-56-50(53)44-41-38-35-32-29-26-23-20-17-14-11-8-5-2/h48H,4-47H2,1-3H3
Instrument: Agilent 6560 QTOF
Instrument type: LC-ESI-QTOF
Ms type: MS2
Ion mode: POSITIVE
Ionization: ESI
Fragmentation mode: CID
Collision energy: 10 eV
Resolution: 7000
Column name: Direct injection
Retention time: 0.719 min
Base peak: 256.9649
Precursor m/z: 824.7702
Precursor type: [M+NH4]+
Precursor intensity: 29818
m/z	relative intensity	assigned
537.4931	5	C37H63NO+
551.5025	999	C35H67O4+
552.5083	134	C35H68O4+
824.7735	184	C51H102NO6+
