Mass spectrum: 1-hexadecanoyl-2-(9Z-octadecenoyl)-sn-glycero-3-phosphocholine; LC-ESI-QTOF; MS2; CE: 20eV; R=7000; [M+H]+
Name: 1-hexadecanoyl-2-(9Z-octadecenoyl)-sn-glycero-3-phosphocholine
Name: 1-Palmitoyl-2-oleoyl-sn-glycero-3-phosphocholine
Name: [(2R)-3-hexadecanoyloxy-2-[(Z)-octadec-9-enoyl]oxypropyl] 2-(trimethylazaniumyl)ethyl phosphate
Formula: C42H82NO8P
Exact mass: 759.5778
SMILES: [C@](COP(=O)([O-])OCC[N+](C)(C)C)([H])(OC(CCCCCCC/C=C\CCCCCCCC)=O)COC(CCCCCCCCCCCCCCC)=O
InChI: InChI=1S/C42H82NO8P/c1-6-8-10-12-14-16-18-20-21-23-25-27-29-31-33-35-42(45)51-40(39-50-52(46,47)49-37-36-43(3,4)5)38-48-41(44)34-32-30-28-26-24-22-19-17-15-13-11-9-7-2/h20-21,40H,6-19,22-39H2,1-5H3/b21-20-/t40-/m1/s1
Instrument: Agilent 6560 QTOF
Instrument type: LC-ESI-QTOF
Ms type: MS2
Ion mode: POSITIVE
Ionization: ESI
Fragmentation mode: CID
Collision energy: 20 eV
Resolution: 7000
Column name: Direct injection
Retention time: 0.211 min
Base peak: 760.5872
Precursor m/z: 760.5851
Precursor type: [M+H]+
Precursor intensity: 1147150
m/z	relative intensity	assigned
86.0964	19	C5H12N+
98.9847	1	H4O4P+
104.1056	1	C2H16O4+
125.0002	10	C2H6O4P+
166.0603	1	C2H15O6P+
184.0739	999	C5H15NO4P+
185.0766	15	C2H18O7P+
221.0844	1	C15H11NO+
223.0635	3	C14H9NO2+
266.9965	2	C17HNO3+
281.0511	5	C20H10P+
282.0518	2	C16H10O5+
341.0183	2	C16H7NO8+
355.0695	11	C18H13NO7+
356.0684	3	C18H15NO5P+
371.1011	3	C19H17NO7+
417.0334	1	C33H5O+
429.0877	2	C25H18O5P+
430.0918	1	C24H16NO7+
496.34	2	C24H51NO7P+
504.3493	1	C33H46NO3+
522.3585	1	C33H48NO4+
577.5183	1	C37H69O4+
760.5866	215	C42H83NO8P+
