Mass spectrum: TRANS-4-HYDROXY-L-PROLINE; LC-ESI-QTOF; MS2; CE: 10eV; R=5000; [M+H]+
Name: TRANS-4-HYDROXY-L-PROLINE
Name: Hydroxyproline
Name: (2S,4R)-4-hydroxypyrrolidine-2-carboxylic acid
Formula: C5H9NO3
Exact mass: 131.0582
SMILES: O[C@H]1CN[C@@H](C1)C(O)=O
InChI: InChI=1S/C5H9NO3/c7-3-1-4(5(8)9)6-2-3/h3-4,6-7H,1-2H2,(H,8,9)/t3-,4+/m1/s1
Instrument: Agilent 6530 QTOF
Instrument type: LC-ESI-QTOF
Ms type: MS2
Ion mode: POSITIVE
Ionization: ESI
Fragmentation mode: CID
Collision energy: 10 eV
Resolution: 5000
Column name: N/A
Retention time: 0.188 min
Base peak: 132.0653
Precursor m/z: 132.0655
Precursor type: [M+H]+
Precursor intensity: 1085254
m/z	relative intensity	assigned
41.0384	73	C3H5+
44.049	1	C2H6N+
58.0652	53	C3H8N+
68.0489	596	C4H6N+
86.0589	999	C4H8NO+
88.0738	1	C4H10NO+
114.0535	13	C5H8NO2+
132.0626	361	C5H10NO3+
