Mass spectrum: Triisobutyl phosphate; LC-ESI-QTOF; MS2; CE: 20eV; R=7000; [M+Na]+
Name: Triisobutyl phosphate
Name: tris(2-methylpropyl) phosphate
Formula: C12H27O4P
Exact mass: 266.1647
SMILES: CC(C)COP(=O)(OCC(C)C)OCC(C)C
InChI: InChI=1S/C12H27O4P/c1-10(2)7-14-17(13,15-8-11(3)4)16-9-12(5)6/h10-12H,7-9H2,1-6H3
Instrument: Agilent 6560 QTOF
Instrument type: LC-ESI-QTOF
Ms type: MS2
Ion mode: POSITIVE
Ionization: ESI
Fragmentation mode: CID
Collision energy: 20 eV
Resolution: 7000
Retention time: 0.146 min
Base peak: 289.1553
Precursor m/z: 289.1539
Precursor type: [M+Na]+
Precursor intensity: 5866.95
m/z	relative intensity	assigned
57.0708	151	C4H9+
102.9552	239	HNaO3P+
120.9662	683	H3NaO4P+
177.0276	973	C4H11NaO4P+
233.0905	999	C8H19NaO4P+
289.1524	203	C12H27NaO4P+
