Mass spectrum: Mono(2-ethyl-5-hydroxyhexyl) adipate; LC-ESI-QTOF; MS2; CE: 55eV; R=7000; [M-H]-
Name: Mono(2-ethyl-5-hydroxyhexyl) adipate
Name: 6-(2-Ethyl-5-hydroxy-hexoxy)-6-oxo-hexanoic acid
Name: 6-(2-ethyl-5-hydroxyhexoxy)-6-oxohexanoic acid
Formula: C14H26O5
Exact mass: 274.1780
SMILES: CCC(CCC(C)O)COC(=O)CCCCC(=O)O
InChI: InChI=1S/C14H26O5/c1-3-12(9-8-11(2)15)10-19-14(18)7-5-4-6-13(16)17/h11-12,15H,3-10H2,1-2H3,(H,16,17)
Instrument: Agilent 6560 QTOF
Instrument type: LC-ESI-QTOF
Ms type: MS2
Ion mode: NEGATIVE
Ionization: ESI
Fragmentation mode: CID
Collision energy: 55 eV
Resolution: 7000
Column name: ZORBAX Extend-C18 3.5um, 2.1x50mm, Agilent Technologies
Retention time: 3.765 min
Base peak: 980.0164
Precursor m/z: 273.1707
Precursor type: [M-H]-
Precursor intensity: 4501.97
m/z	relative intensity	assigned
53.0405	183	C4H5-
54.011	205	C3H2O-
81.0346	999	C5H5O-
83.0514	834	C5H7O-
