Mass spectrum: 1,2-Dipalmitoyl-rac-glycerol; LC-ESI-QTOF; MS2; CE: 20eV; R=7000; [M+NH4]+
Name: 1,2-Dipalmitoyl-rac-glycerol
Name: 1,2-Dipalmitoyl-sn-glycerol
Name: [(2S)-2-hexadecanoyloxy-3-hydroxypropyl] hexadecanoate
Formula: C35H68O5
Exact mass: 568.5067
SMILES: [H][C@](CO)(COC(=O)CCCCCCCCCCCCCCC)OC(=O)CCCCCCCCCCCCCCC
InChI: InChI=1S/C35H68O5/c1-3-5-7-9-11-13-15-17-19-21-23-25-27-29-34(37)39-32-33(31-36)40-35(38)30-28-26-24-22-20-18-16-14-12-10-8-6-4-2/h33,36H,3-32H2,1-2H3/t33-/m0/s1
Instrument: Agilent 6560 QTOF
Instrument type: LC-ESI-QTOF
Ms type: MS2
Ion mode: POSITIVE
Ionization: ESI
Fragmentation mode: CID
Collision energy: 20 eV
Resolution: 7000
Column name: Direct injection
Retention time: 0.208 min
Base peak: 591.4978
Precursor m/z: 586.5405
Precursor type: [M+NH4]+
Precursor intensity: 86290
m/z	relative intensity	assigned
71.0858	72	C5H11+
79.053	22	C6H7+
81.0704	12	C6H9+
81.2449	2	C3H31N+
83.0857	61	C6H11+
85.1008	23	C6H13+
95.0837	38	C7H11+
97.1004	24	C7H13+
99.1188	21	C7H15+
103.0739	6	C5H11O2+
109.1008	50	C8H13+
113.0584	2	C6H9O2+
123.116	41	C9H15+
221.2236	10	C16H29+
239.2373	103	C16H31O+
250.18	15	C15H24NO2+
257.2474	33	C16H33O2+
263.9799	3	C18O3+
311.5332	3	C15H69NO3+
312.1817	1	C16H26NO5+
313.2744	999	C19H37O3+
314.2775	37	C19H38O3+
347.0607	11	C23H9NO3+
474.3092	6	C32H42O3+
502.1175	3	C35H18O4+
551.5039	288	C35H67O4+
552.5083	51	C35H68O4+
586.5279	6	C35H72NO5+
