Mass spectrum: 1-octadecenoyl-rac-glycerol; LC-ESI-QTOF; MS2; CE: 20eV; R=7000; [M+Na]+
Name: 1-octadecenoyl-rac-glycerol
Name: Glyceryl monooleate
Name: 2,3-dihydroxypropyl (Z)-octadec-9-enoate
Formula: C21H40O4
Exact mass: 356.2927
SMILES: CCCCCCCC/C=C\CCCCCCCC(=O)OCC(CO)O
InChI: InChI=1S/C21H40O4/c1-2-3-4-5-6-7-8-9-10-11-12-13-14-15-16-17-21(24)25-19-20(23)18-22/h9-10,20,22-23H,2-8,11-19H2,1H3/b10-9-
Instrument: Agilent 6560 QTOF
Instrument type: LC-ESI-QTOF
Ms type: MS2
Ion mode: POSITIVE
Ionization: ESI
Fragmentation mode: CID
Collision energy: 20 eV
Resolution: 7000
Column name: Direct injection
Retention time: 0.156 min
Base peak: 256.9647
Precursor m/z: 379.2819
Precursor type: [M+Na]+
Precursor intensity: 7188
m/z	relative intensity	assigned
105.0321	480	C5H6NaO+
151.0959	415	C6H15O4+
204.0809	437	C12H12O3+
232.0752	999	C13H12O4+
233.0783	168	C11H14NaO4+
271.1348	110	C17H19O3+
379.2744	100	C21H40NaO4+
