Mass spectrum: N-oleoyl-D-erythro-sphingosine; LC-ESI-QTOF; MS2; CE: 40eV; R=7000; [M+HCOOH-H]-
Name: N-oleoyl-D-erythro-sphingosine
Name: N-(oleoyl)-ceramide
Name: (Z)-N-[(E,2S,3R)-1,3-dihydroxyoctadec-4-en-2-yl]octadec-9-enamide
Formula: C36H69NO3
Exact mass: 563.5277
SMILES: CCCCCCCCCCCCC/C=C/[C@H]([C@H](CO)NC(=O)CCCCCCC/C=C\CCCCCCCC)O
InChI: InChI=1S/C36H69NO3/c1-3-5-7-9-11-13-15-17-18-20-22-24-26-28-30-32-36(40)37-34(33-38)35(39)31-29-27-25-23-21-19-16-14-12-10-8-6-4-2/h17-18,29,31,34-35,38-39H,3-16,19-28,30,32-33H2,1-2H3,(H,37,40)/b18-17-,31-29+/t34-,35+/m0/s1
Instrument: Agilent 6560 QTOF
Instrument type: LC-ESI-QTOF
Ms type: MS2
Ion mode: NEGATIVE
Ionization: ESI
Fragmentation mode: CID
Collision energy: 40 eV
Resolution: 7000
Column name: N/A
Retention time: 0.240 min
Base peak: 622.5426
Precursor m/z: 608.5259
Precursor type: [M+HCOOH-H]-
Precursor intensity: 7937
m/z	relative intensity	assigned
99.3643	81	C3H47O-
164.2002	91	C6H28O4-
206.3325	101	C7H44NO4-
212.3246	53	C10H44O3-
237.2184	129	C16H29O-
250.2536	437	C17H32N-
254.2528	186	C16H32NO-
263.2419	198	C18H31O-
265.1426	281	C15H21O4-
306.2784	999	C17H38O4-
311.1641	285	C20H23O3-
514.2551	130	C36H34O3-
524.4067	81	C34H54NO3-
