Mass spectrum: Tris(tert-butylphenyl) phosphate; LC-ESI-QTOF; MS2; CE: 40eV; R=7000; [M+H]+
Name: Tris(tert-butylphenyl) phosphate
Name: tris(2-tert-butylphenyl) phosphate
Formula: C30H39O4P
Exact mass: 494.2586
SMILES: CC(C)(C)C1=CC=CC=C1OP(=O)(OC2=CC=CC=C2C(C)(C)C)OC3=CC=CC=C3C(C)(C)C
InChI: InChI=1S/C30H39O4P/c1-28(2,3)22-16-10-13-19-25(22)32-35(31,33-26-20-14-11-17-23(26)29(4,5)6)34-27-21-15-12-18-24(27)30(7,8)9/h10-21H,1-9H3
Instrument: Agilent 6560 QTOF
Instrument type: LC-ESI-QTOF
Ms type: MS2
Ion mode: POSITIVE
Ionization: ESI
Fragmentation mode: CID
Collision energy: 40 eV
Resolution: 7000
Retention time: 0.112 min
Base peak: 495.2657
Precursor m/z: 495.2659
Precursor type: [M+H]+
Precursor intensity: 67657.62
m/z	relative intensity	assigned
57.0703	640	C4H9+
153.0695	48	C12H9+
168.0539	8	C5H13O4P+
171.0808	8	C12H11O+
215.0248	28	C12H8O2P+
228.0921	9	C11H17O3P+
229.0961	7	C11H18O3P+
233.0352	34	C12H10O3P+
247.1104	6	C11H20O4P+
251.0448	18	C12H12O4P+
327.0779	999	C18H16O4P+
328.0802	126	C18H17O4P+
383.1402	105	C22H24O4P+
384.1438	24	C22H25O4P+
439.2019	15	C26H32O4P+
