Mass spectrum: Tri-p-tolyl phosphate; LC-ESI-QTOF; MS2; CE: 20eV; R=7000; [M+H]+
Name: Tri-p-tolyl phosphate
Name: Tricresyl phosphate
Name: tris(4-methylphenyl) phosphate
Formula: C21H21O4P
Exact mass: 368.1177
SMILES: CC1=CC=C(C=C1)OP(=O)(OC2=CC=C(C=C2)C)OC3=CC=C(C=C3)C
InChI: InChI=1S/C21H21O4P/c1-16-4-10-19(11-5-16)23-26(22,24-20-12-6-17(2)7-13-20)25-21-14-8-18(3)9-15-21/h4-15H,1-3H3
Instrument: Agilent 6560 QTOF
Instrument type: LC-ESI-QTOF
Ms type: MS2
Ion mode: POSITIVE
Ionization: ESI
Fragmentation mode: CID
Collision energy: 20 eV
Resolution: 7000
Retention time: 0.111 min
Base peak: 369.125
Precursor m/z: 369.125
Precursor type: [M+H]+
Precursor intensity: 271120.08
m/z	relative intensity	assigned
65.0387	18	C5H5+
77.0384	5	C6H5+
79.0535	6	C6H7+
91.0543	109	C7H7+
92.0588	3	H13O3P+
105.0685	2	CH14O3P+
107.0489	52	C7H7O+
109.0622	2	H14O4P+
141.0716	2	C11H9+
153.009	5	C7H6O2P+
153.0699	16	C12H9+
154.074	2	C5H15O3P+
155.0833	2	C5H16O3P+
165.0697	143	C13H9+
166.0775	200	C13H10+
167.0801	21	C6H16O3P+
169.1002	5	C13H13+
171.021	2	C7H8O3P+
178.0783	3	C14H10+
179.0847	19	C14H11+
180.0924	6	C14H12+
181.101	53	C14H13+
182.1043	5	C7H19O3P+
187.0134	3	C7H8O4P+
189.0303	18	C7H10O4P+
195.0826	2	C14H11O+
196.0881	11	C14H12O+
197.0934	5	C7H18O4P+
199.111	15	C14H15O+
200.1135	1	C7H21O4P+
215.0604	3	C13H12OP+
229.1016	2	C18H13+
230.1019	2	C11H19O3P+
240.0929	2	C19H12+
241.1	17	C12H18O3P+
243.0563	159	C14H12O2P+
244.0609	16	C14H13O2P+
255.1166	9	C20H15+
256.1234	46	C13H21O3P+
257.1278	7	C13H22O3P+
261.0671	89	C14H14O3P+
262.0691	11	C14H15O3P+
263.0783	1	C14H16O3P+
270.1391	4	C21H18+
271.1485	5	C21H19+
279.0777	61	C14H16O4P+
280.0803	6	C14H17O4P+
333.1012	5	C21H18O2P+
351.1124	5	C21H20O3P+
369.1244	999	C21H22O4P+
