Mass spectrum: 5-Chlorobenzotriazole; LC-ESI-QTOF; MS2; CE: 15eV; R=7000; [M+H]+
Name: 5-Chlorobenzotriazole
Name: 5-chloro-2H-benzotriazole
Formula: C6H4ClN3
Exact mass: 153.0094
SMILES: C1=CC2=NNN=C2C=C1Cl
InChI: InChI=1S/C6H4ClN3/c7-4-1-2-5-6(3-4)9-10-8-5/h1-3H,(H,8,9,10)
Instrument: Agilent 6560 QTOF
Instrument type: LC-ESI-QTOF
Ms type: MS2
Ion mode: POSITIVE
Ionization: ESI
Fragmentation mode: CID
Collision energy: 15 eV
Resolution: 7000
Retention time: 0.179 min
Base peak: 154.0166
Precursor m/z: 154.0167
Precursor type: [M+H]+
Precursor intensity: 10377.52
m/z	relative intensity	assigned
63.0236	60	C5H3+
90.0336	331	C6H4N+
98.9992	358	C5H4Cl+
126.0088	75	C6H5ClN+
154.0161	999	C6H5ClN3+
