Mass spectrum: ((propane-2,2-diylbis(4,1-phenylene))bis(oxy))bis(3,6,9,12-tetraoxatetradecane-14,1-diyl) bis(2-methylacrylate); LC-ESI-QTOF; MS2; CE: 10eV; R=7000; [M+NH4]+
Name: ((propane-2,2-diylbis(4,1-phenylene))bis(oxy))bis(3,6,9,12-tetraoxatetradecane-14,1-diyl) bis(2-methylacrylate)
Name: Bismethacrylic acid isopropylidenebis[(4,1-phenylene)(oxyethyleneoxyethyleneoxyethyleneoxyethyleneoxyethylene)] ester
Name: 2-[2-[2-[2-[2-[4-[2-[4-[2-[2-[2-[2-[2-(2-methylprop-2-enoyloxy)ethoxy]ethoxy]ethoxy]ethoxy]ethoxy]phenyl]propan-2-yl]phenoxy]ethoxy]ethoxy]ethoxy]ethoxy]ethyl 2-methylprop-2-enoate
Formula: C43H64O14
Exact mass: 804.4296
SMILES: CC(C1=CC=C(OCCOCCOCCOCCOCCOC(C(C)=C)=O)C=C1)(C)C2=CC=C(OCCOCCOCCOCCOCCOC(C(C)=C)=O)C=C2
InChI: InChI=1S/C43H64O14/c1-35(2)41(44)56-33-29-52-25-21-48-17-15-46-19-23-50-27-31-54-39-11-7-37(8-12-39)43(5,6)38-9-13-40(14-10-38)55-32-28-51-24-20-47-16-18-49-22-26-53-30-34-57-42(45)36(3)4/h7-14H,1,3,15-34H2,2,4-6H3
Instrument: Agilent 6560 QTOF
Instrument type: LC-ESI-QTOF
Ms type: MS2
Ion mode: POSITIVE
Ionization: ESI
Fragmentation mode: CID
Collision energy: 10 eV
Resolution: 7000
Column name: ZORBAX Extend-C18 3.5um, 2.1x50mm, Agilent Technologies
Retention time: 4.116 min
Base peak: 822.4729
Precursor m/z: 822.4634
Precursor type: [M+NH4]+
Precursor intensity: 522203.13
m/z	relative intensity	assigned
69.0342	6	C4H5O+
89.0591	1	C4H9O2+
113.0614	277	C6H9O2+
133.085	1	C6H13O3+
135.079	1	C9H11O+
157.0856	4	C8H13O3+
161.0959	6	C11H13O+
205.1213	3	C13H17O2+
223.1303	1	C13H19O3+
245.139	1	C12H21O5+
249.1472	1	H27NO13+
291.1591	3	C17H23O4+
293.1738	1	C2H31NO14+
311.1856	1	C17H27O5+
335.1855	18	C19H27O5+
336.1863	1	C11H30NO10+
379.2098	21	C21H31O6+
380.2151	4	C28H28O+
423.2368	15	C23H35O7+
424.241	1	C30H32O2+
467.2659	7	C28H37NO5+
511.2883	4	C37H37NO+
805.4352	5	C43H65O14+
806.4424	1	C43H66O14+
822.4644	999	C43H68NO14+
