Mass spectrum: VALINE; LC-ESI-QTOF; MS2; CE: 40eV; R=5000; [M+H]+
Name: VALINE
Name: (2S)-2-amino-3-methylbutanoic acid
Formula: C5H11NO2
Exact mass: 117.07898
SMILES: CC(C)[C@H](N)C(O)=O
InChI: InChI=1S/C5H11NO2/c1-3(2)4(6)5(7)8/h3-4H,6H2,1-2H3,(H,7,8)/t4-/m0/s1
Instrument: Agilent 6530 QTOF
Instrument type: LC-ESI-QTOF
Ms type: MS2
Ion mode: POSITIVE
Ionization: ESI
Fragmentation mode: CID
Collision energy: 40 eV
Resolution: 5000
Column name: N/A
Retention time: 0.564 min
Base peak: 121.0508
Precursor m/z: 118.0863
Precursor type: [M+H]+
Precursor intensity: 41802
m/z	relative intensity	assigned
44.0496	243	C2H6N+
53.0385	240	C4H5+
56.0487	999	C3H6N+
59.0719	329	C3H9N+
