Mass spectrum: N-Palmitoyl-D-sphingosine; LC-ESI-QTOF; MS2; CE: 20eV; R=7000; [M+H]+
Name: N-Palmitoyl-D-sphingosine
Name: N-Palmitoylsphingosine
Name: N-[(E,2S,3R)-1,3-dihydroxyoctadec-4-en-2-yl]hexadecanamide
Formula: C34H67NO3
Exact mass: 537.5121
SMILES: [H][C@@](CO)(NC(=O)CCCCCCCCCCCCCCC)[C@H](O)\C=C\CCCCCCCCCCCCC
InChI: InChI=1S/C34H67NO3/c1-3-5-7-9-11-13-15-17-19-21-23-25-27-29-33(37)32(31-36)35-34(38)30-28-26-24-22-20-18-16-14-12-10-8-6-4-2/h27,29,32-33,36-37H,3-26,28,30-31H2,1-2H3,(H,35,38)/b29-27+/t32-,33+/m0/s1
Instrument: Agilent 6560 QTOF
Instrument type: LC-ESI-QTOF
Ms type: MS2
Ion mode: POSITIVE
Ionization: ESI
Fragmentation mode: CID
Collision energy: 20 eV
Resolution: 7000
Column name: Direct injection
Retention time: 0.182 min
Base peak: 560.5032
Precursor m/z: 538.5194
Precursor type: [M+H]+
Precursor intensity: 195491
m/z	relative intensity	assigned
79.0553	6	C6H7+
81.0712	10	C6H9+
82.0647	15	C5H8N+
95.0874	1	C7H11+
96.0809	6	C6H10N+
111.1176	2	C8H15+
121.0995	7	C9H13+
135.1164	7	C10H15+
190.1699	1	C14H22+
211.2075	4	C14H27O+
247.2432	3	C18H31+
252.2687	76	C17H34N+
253.2698	4	C14H37O3+
256.2626	13	C16H34NO+
257.268	6	C16H35NO+
262.2524	2	C18H32N+
264.269	999	C18H34N+
265.2717	57	C15H37O3+
268.2606	6	C17H34NO+
282.2795	98	C18H36NO+
283.2821	15	C18H37NO+
284.2663	2	C18H36O2+
490.4937	6	C33H64NO+
502.4994	18	C34H64NO+
503.5032	3	C34H65NO+
520.5104	54	C34H66NO2+
521.5134	2	C34H67NO2+
