Mass spectrum: 4-Methylbenzotriazole; LC-ESI-QTOF; MS2; CE: 45eV; R=7000; [M+H]+
Name: 4-Methylbenzotriazole
Name: 4-Methyl-1H-benzotriazole
Name: 4-methyl-2H-benzotriazole
Formula: C7H7N3
Exact mass: 133.0640
SMILES: CC1=CC=CC2=NNN=C12
InChI: InChI=1S/C7H7N3/c1-5-3-2-4-6-7(5)9-10-8-6/h2-4H,1H3,(H,8,9,10)
Instrument: Agilent 6560 QTOF
Instrument type: LC-ESI-QTOF
Ms type: MS2
Ion mode: POSITIVE
Ionization: ESI
Fragmentation mode: CID
Collision energy: 45 eV
Resolution: 7000
Retention time: 0.146 min
Base peak: 134.0712
Precursor m/z: 134.0713
Precursor type: [M+H]+
Precursor intensity: 29154.88
m/z	relative intensity	assigned
50.0144	46	C4H2+
51.0232	999	C4H3+
52.0308	36	C4H4+
53.039	121	C4H5+
54.0337	29	C3H4N+
63.0227	105	C5H3+
64.0305	31	C5H4+
65.0267	38	C4H3N+
65.0385	65	C5H5+
67.0409	44	C4H5N+
77.0386	687	C6H5+
80.0491	21	C5H6N+
81.0443	21	C4H5N2+
