Mass spectrum: Cholesteryl oleate; LC-ESI-QTOF; MS2; CE: 20eV; R=7000; [M+Na]+
Name: Cholesteryl oleate
Name: [(3S,8S,9S,10R,13R,14S,17R)-10,13-dimethyl-17-[(2R)-6-methylheptan-2-yl]-2,3,4,7,8,9,11,12,14,15,16,17-dodecahydro-1H-cyclopenta[a]phenanthren-3-yl] (Z)-octadec-9-enoate
Formula: C45H78O2
Exact mass: 650.6002
SMILES: CCCCCCCC/C=C\CCCCCCCC(=O)O[C@H]1CC[C@@]2([C@H]3CC[C@]4([C@H]([C@@H]3CC=C2C1)CC[C@@H]4[C@H](C)CCCC(C)C)C)C
InChI: InChI=1S/C45H78O2/c1-7-8-9-10-11-12-13-14-15-16-17-18-19-20-21-25-43(46)47-38-30-32-44(5)37(34-38)26-27-39-41-29-28-40(36(4)24-22-23-35(2)3)45(41,6)33-31-42(39)44/h14-15,26,35-36,38-42H,7-13,16-25,27-34H2,1-6H3/b15-14-/t36-,38+,39+,40-,41+,42+,44+,45-/m1/s1
Instrument: Agilent 6560 QTOF
Instrument type: LC-ESI-QTOF
Ms type: MS2
Ion mode: POSITIVE
Ionization: ESI
Fragmentation mode: CID
Collision energy: 20 eV
Resolution: 7000
Column name: Direct injection
Retention time: 0.749 min
Base peak: 256.965
Precursor m/z: 673.5894
Precursor type: [M+Na]+
Precursor intensity: 8556
m/z	relative intensity	assigned
189.1652	122	C14H21+
305.2441	265	C18H34NaO2+
369.3556	175	C27H45+
408.1601	45	C31H20O+
673.5881	999	C45H78NaO2+
