Mass spectrum: 1-tridecanoyl-sn-glycero-3-phosphoethanolamine; LC-ESI-QTOF; MS2; CE: 10eV; R=7000; [M+H]+
Name: 1-tridecanoyl-sn-glycero-3-phosphoethanolamine
Name: [(2R)-3-[2-aminoethoxy(hydroxy)phosphoryl]oxy-2-hydroxypropyl] tridecanoate
Formula: C18H38NO7P
Exact mass: 411.2386
SMILES: [C@](COP(=O)(O)OCCN)([H])(O)COC(CCCCCCCCCCCC)=O
InChI: InChI=1S/C18H38NO7P/c1-2-3-4-5-6-7-8-9-10-11-12-18(21)24-15-17(20)16-26-27(22,23)25-14-13-19/h17,20H,2-16,19H2,1H3,(H,22,23)/t17-/m1/s1
Instrument: Agilent 6560 QTOF
Instrument type: LC-ESI-QTOF
Ms type: MS2
Ion mode: POSITIVE
Ionization: ESI
Fragmentation mode: CID
Collision energy: 10 eV
Resolution: 7000
Column name: Direct injection
Retention time: 0.180 min
Base peak: 412.2477
Precursor m/z: 412.2459
Precursor type: [M+H]+
Precursor intensity: 81626
m/z	relative intensity	assigned
71.0848	5	C5H11+
85.1012	6	C6H13+
95.0848	7	C7H11+
109.1008	25	C8H13+
137.133	9	C6H20NP+
155.0105	41	C3H8O5P+
173.1503	5	C3H26O5P+
197.1886	3	C6H30O4P+
216.0628	17	C9H12O6+
240.233	15	C15H30NO+
262.9812	3	C14HNO5+
271.2275	999	C12H34NO3P+
272.231	100	C9H37O6P+
301.1361	6	C18H22O2P+
330.9624	5	C17H2NO5P+
338.9654	4	C16H4O7P+
344.9824	5	C18H4NO5P+
351.1951	24	C16H32O6P+
394.2355	59	C18H37NO6P+
395.2344	11	C18H38NO6P+
412.2458	105	C18H39NO7P+
