Mass spectrum: N-Heptadecanoyl-D-erythro-Sphingosine; LC-ESI-QTOF; MS2; CE: 40eV; R=7000; [M-H2O+H]+
Name: N-Heptadecanoyl-D-erythro-Sphingosine
Name: N-Heptadecanoylsphingosine
Name: N-[(E,2S,3R)-1,3-dihydroxyoctadec-4-en-2-yl]heptadecanamide
Formula: C35H69NO3
Exact mass: 551.5277
SMILES: OC[C@H](NC(CCCCCCCCCCCCCCCC)=O)[C@H](O)/C=C/CCCCCCCCCCCCC
InChI: InChI=1S/C35H69NO3/c1-3-5-7-9-11-13-15-17-19-21-23-25-27-29-31-35(39)36-33(32-37)34(38)30-28-26-24-22-20-18-16-14-12-10-8-6-4-2/h28,30,33-34,37-38H,3-27,29,31-32H2,1-2H3,(H,36,39)/b30-28+/t33-,34+/m0/s1
Instrument: Agilent 6560 QTOF
Instrument type: LC-ESI-QTOF
Ms type: MS2
Ion mode: POSITIVE
Ionization: ESI
Fragmentation mode: CID
Collision energy: 40 eV
Resolution: 7000
Column name: Direct injection
Retention time: 0.154 min
Base peak: 574.5181
Precursor m/z: 534.5245
Precursor type: [M-H2O+H]+
Precursor intensity: 96081
m/z	relative intensity	assigned
70.0652	9	C4H8N+
71.0862	18	C5H11+
77.0379	27	C6H5+
79.0539	28	C6H7+
81.0695	21	C6H9+
82.0655	230	C5H8N+
83.0857	23	C6H11+
85.1002	9	C6H13+
91.0528	24	C7H7+
93.069	42	C7H9+
95.0853	35	C7H11+
96.081	52	C6H10N+
97.0642	15	C6H9O+
97.1026	19	C7H13+
100.0743	7	C5H10NO+
106.0662	6	C7H8N+
107.0838	21	C8H11+
109.1011	54	C8H13+
110.0989	4	C7H12N+
111.0811	10	C7H11O+
121.103	5	C9H13+
135.1175	28	C10H15+
149.1325	7	C11H17+
184.221	3	C13H28+
205.1907	6	C15H25+
211.2036	4	C14H27O+
238.251	7	C16H32N+
252.2687	65	C17H34N+
253.272	5	C17H35N+
262.248	4	C18H32N+
264.2686	999	C18H34N+
265.2711	49	C18H35N+
266.095	3	C20H12N+
266.2777	9	C18H36N+
270.2781	16	C17H36NO+
271.284	1	C17H37NO+
282.2792	33	C18H36NO+
411.2138	4	C32H27+
449.1778	2	C33H23NO+
453.1714	2	C32H23NO2+
