Mass spectrum: CL 15_0_15_0_15_0_16_1; LC-ESI-QTOF; MS2; CE: 10eV; R=7000; [M-H]-
Name: CL 15_0_15_0_15_0_16_1
Name: 1`-[1,2-dipentadecanoyl-sn-glycero-3-phospho],3`-[1-pentadecanoyl,2-(9Z-hexadecenoyl)-sn-glycero-3-phospho]-rac-glycerol
Name: [(2R)-1-[[3-[[(2R)-2,3-di(pentadecanoyloxy)propoxy]-hydroxyphosphoryl]oxy-2-hydroxypropoxy]-hydroxyphosphoryl]oxy-3-pentadecanoyloxypropan-2-yl] (Z)-hexadec-9-enoate
Formula: C70H134O17P2
Exact mass: 1308.9096
SMILES: P(OC[C@]([H])(OC(CCCCCCCCCCCCCC)=O)COC(CCCCCCCCCCCCCC)=O)(O)(OCC(O)([H])COP(OC[C@]([H])(OC(CCCCCCC/C=C\CCCCCC)=O)COC(CCCCCCCCCCCCCC)=O)(O)=O)=O
InChI: InChI=1S/C70H134O17P2/c1-5-9-13-17-21-25-29-33-37-41-45-49-53-57-70(75)87-66(61-81-68(73)55-51-47-43-39-35-31-27-23-19-15-11-7-3)63-85-89(78,79)83-59-64(71)58-82-88(76,77)84-62-65(86-69(74)56-52-48-44-40-36-32-28-24-20-16-12-8-4)60-80-67(72)54-50-46-42-38-34-30-26-22-18-14-10-6-2/h25,29,64-66,71H,5-24,26-28,30-63H2,1-4H3,(H,76,77)(H,78,79)/b29-25-/t64?,65-,66-/m1/s1
Instrument: Agilent 6560 QTOF
Instrument type: LC-ESI-QTOF
Ms type: MS2
Ion mode: NEGATIVE
Ionization: ESI
Fragmentation mode: CID
Collision energy: 10 eV
Resolution: 7000
Column name: N/A
Retention time: 0.290 min
Base peak: 980.0164
Precursor m/z: 1307.9023
Precursor type: [M-H]-
Precursor intensity: 23885
m/z	relative intensity	assigned
125.9455	39	C4OP2-
129.2653	37	CH37O5-
153.5462	124	H73O5-
182.2688	67	C4H38O6-
236.7699	38	C3H106O2P2-
255.2833	32	C14H40OP-
259.7298	25	C4H100O5P-
261.4405	19	C3H67O6P2-
282.0696	32	C20H10O2-
282.3074	27	C16H43OP-
314.9306	24	CH126O11-
321.6511	80	C3H95O8P2-
341.7541	85	C19H97O-
368.4315	35	CH69O16P-
375.5743	38	H89O14P2-
394.1712	24	C24H27O3P-
457.1803	25	C32H25O3-
507.4029	35	C24H60O8P-
518.1101	23	C42H14-
551.8758	37	C17H125O10P2-
553.7388	24	C20H107O9P2-
603.23	23	C38H36O5P-
736.8172	53	C47H109O2P-
741.0215	27	C35H19O15P2-
760.0626	23	C39H21O15P-
807.2049	19	C40H40O16P-
905.0093	30	C67H5O6-
918.774	25	C53H106O11-
941.8841	74	C69H113-
942.009	88	C70H7O4P-
1003.7757	31	C67H103O6-
1049.7358	41	C56H105O17-
1059.5876	57	C61H89O11P2-
1152.5885	20	C66H90O13P2-
1188.1387	76	C68H38O17P2-
1307.8979	999	C70H133O17P2-
