Mass spectrum: Cortisone; LC-ESI-QTOF; MS2; CE: 20eV; R=7000; [M+Cl]-
Name: Cortisone
Name: (8S,9S,10R,13S,14S,17R)-17-hydroxy-17-(2-hydroxyacetyl)-10,13-dimethyl-1,2,6,7,8,9,12,14,15,16-decahydrocyclopenta[a]phenanthrene-3,11-dione
Formula: C21H28O5
Exact mass: 360.1937
SMILES: C[C@]12CCC(=O)C=C1CC[C@@H]3[C@@H]2C(=O)C[C@]4([C@H]3CC[C@@]4(C(=O)CO)O)C
InChI: InChI=1S/C21H28O5/c1-19-7-5-13(23)9-12(19)3-4-14-15-6-8-21(26,17(25)11-22)20(15,2)10-16(24)18(14)19/h9,14-15,18,22,26H,3-8,10-11H2,1-2H3/t14-,15-,18+,19-,20-,21-/m0/s1
Instrument: Agilent 6560 QTOF
Instrument type: LC-ESI-QTOF
Ms type: MS2
Ion mode: NEGATIVE
Ionization: ESI
Fragmentation mode: CID
Collision energy: 20 eV
Resolution: 7000
Column name: N/A
Retention time: 0.168 min
Base peak: 327.1603
Precursor m/z: 395.1631
Precursor type: [M+Cl]-
Precursor intensity: 308352
m/z	relative intensity	assigned
89.0258	211	C3H5O3-
103.1364	11	C3H19O3-
104.0229	15	CH9ClO3-
108.0958	15	C8H12-
122.1158	16	C2H18O5-
131.1234	15	C5H20ClO-
133.0416	13	C6H10ClO-
137.1755	15	C4H25O4-
137.9857	14	C7H3ClO-
140.0235	17	C4H9ClO3-
147.0793	15	C4H16ClO3-
147.9917	13	C5H5ClO3-
149.0201	12	C2H10ClO5-
153.167	12	C11H21-
159.9769	11	C8O4-
163.144	14	C6H24ClO2-
165.1244	20	C5H22ClO3-
167.9975	13	C8H5ClO2-
169.1366	12	C8H22ClO-
179.9588	12	C8HClO3-
184.0378	13	C8H8O5-
184.2057	14	C9H28O3-
188.0292	13	C14H4O-
192.1307	13	C10H21ClO-
199.0921	13	C11H16ClO-
203.0164	12	C14H3O2-
203.0843	12	C10H16ClO2-
205.1175	14	C7H22ClO4-
206.0244	12	C10H6O5-
207.0078	13	C13H3O3-
211.1726	14	C13H23O2-
213.045	13	C14H10Cl-
213.1884	11	C13H25O2-
227.0069	15	C10H8ClO4-
231.1869	11	C14H28Cl-
237.0152	13	C15H6ClO-
238.0242	15	C14H6O4-
243.1677	15	C11H28ClO3-
246.1271	13	C15H18O3-
246.2032	15	C17H26O-
247.1294	13	C9H24ClO5-
253.0763	13	C17H14Cl-
253.9955	12	C18H3Cl-
255.1322	15	C11H24ClO4-
258.0574	14	C14H10O5-
259.1399	13	C16H19O3-
259.9469	15	C12HClO5-
261.0598	16	C17H9O3-
263.1145	15	C16H20ClO-
267.1002	15	C11H20ClO5-
269.0331	13	C16H10ClO2-
269.1899	97	C19H25O-
270.1623	11	C18H22O2-
273.0315	11	C15H10ClO3-
280.1429	14	C13H25ClO4-
292.9651	12	C16H2ClO4-
293.1687	14	C18H26ClO-
293.9931	15	C19H2O4-
294.054	17	C17H10O5-
297.1722	16	C16H25O5-
298.1128	11	C19H19ClO-
298.1614	17	C19H22O3-
301.1806	161	C19H25O3-
303.0059	28	C15H8ClO5-
304.0527	14	C16H13ClO4-
308.0636	12	C19H13ClO2-
311.138	12	C17H24ClO3-
313.0644	12	C18H14ClO3-
319.9819	12	C18H5ClO4-
322.1816	11	C18H26O5-
328.0584	14	C18H13ClO4-
329.1737	999	C20H25O4-
330.1755	182	C21H27ClO-
332.1052	19	C21H16O4-
340.1134	12	C17H21ClO5-
346.0861	15	C21H14O5-
347.0102	12	C20H8ClO4-
354.9358	12	C20ClO5-
357.9721	12	C20H3ClO5-
362.0319	18	C21H11ClO4-
