Mass spectrum: ASPARAGINE; LC-ESI-QTOF; MS2; CE: 10eV; R=5000; [M+H]+
Name: ASPARAGINE
Name: (2S)-2,4-diamino-4-oxobutanoic acid
Formula: C4H8N2O3
Exact mass: 132.0535
SMILES: N[C@@H](CC(N)=O)C(O)=O
InChI: InChI=1S/C4H8N2O3/c5-2(4(8)9)1-3(6)7/h2H,1,5H2,(H2,6,7)(H,8,9)/t2-/m0/s1
Instrument: Agilent 6530 QTOF
Instrument type: LC-ESI-QTOF
Ms type: MS2
Ion mode: POSITIVE
Ionization: ESI
Fragmentation mode: CID
Collision energy: 10 eV
Resolution: 5000
Column name: N/A
Retention time: 0.218 min
Base peak: 121.0508
Precursor m/z: 133.0608
Precursor type: [M+H]+
Precursor intensity: 114635
m/z	relative intensity	assigned
43.0173	11	C2H3O+
44.0493	105	C2H6N+
46.0294	124	CH4NO+
70.0303	193	C3H4NO+
74.024	999	C2H4NO2+
77.0341	3	CH5N2O2+
87.0554	291	C3H7N2O+
88.0379	47	C3H6NO2+
95.9829	1	C4O3+
99.0075	6	C4H3O3+
116.0361	114	C4H6NO3+
133.0612	136	C4H9N2O3+
