Mass spectrum: N-oleoyl-D-erythro-sphingosine; LC-ESI-QTOF; MS2; CE: 20eV; R=7000; [M-H2O+H]+
Name: N-oleoyl-D-erythro-sphingosine
Name: N-(oleoyl)-ceramide
Name: (Z)-N-[(E,2S,3R)-1,3-dihydroxyoctadec-4-en-2-yl]octadec-9-enamide
Formula: C36H69NO3
Exact mass: 563.5277
SMILES: CCCCCCCCCCCCC/C=C/[C@H]([C@H](CO)NC(=O)CCCCCCC/C=C\CCCCCCCC)O
InChI: InChI=1S/C36H69NO3/c1-3-5-7-9-11-13-15-17-18-20-22-24-26-28-30-32-36(40)37-34(33-38)35(39)31-29-27-25-23-21-19-16-14-12-10-8-6-4-2/h17-18,29,31,34-35,38-39H,3-16,19-28,30,32-33H2,1-2H3,(H,37,40)/b18-17-,31-29+/t34-,35+/m0/s1
Instrument: Agilent 6560 QTOF
Instrument type: LC-ESI-QTOF
Ms type: MS2
Ion mode: POSITIVE
Ionization: ESI
Fragmentation mode: CID
Collision energy: 20 eV
Resolution: 7000
Column name: Direct injection
Retention time: 0.157 min
Base peak: 586.5186
Precursor m/z: 546.5245
Precursor type: [M-H2O+H]+
Precursor intensity: 149585
m/z	relative intensity	assigned
77.0377	9	C6H5+
79.0542	2	C6H7+
81.0698	12	C6H9+
82.0644	12	C5H8N+
83.0848	11	C6H11+
85.0997	3	C6H13+
95.0834	15	C7H11+
96.0805	5	C6H10N+
97.1006	4	C7H13+
107.0842	6	C8H11+
111.1164	5	C8H15+
121.1012	16	C9H13+
135.1147	8	C10H15+
149.1318	3	C11H17+
209.1864	1	C14H25O+
236.2419	4	C16H30N+
247.001	2	C18HNO+
247.2455	7	C18H31+
252.269	62	C17H34N+
253.271	14	C17H35N+
264.2689	999	C18H34N+
265.2726	91	C18H35N+
282.2796	155	C18H36NO+
283.285	27	C18H37NO+
294.2765	6	C19H36NO+
324.2893	2	C20H38NO2+
385.1785	3	C29H23N+
487.1685	1	C36H23O2+
516.5158	7	C35H66NO+
528.5143	9	C36H66NO+
546.5276	39	C36H68NO2+
