Mass spectrum: Coenzyme Q10; LC-ESI-QTOF; MS2; CE: 20eV; R=7000; [M+H]+
Name: Coenzyme Q10
Name: 2-[(2E,6E,10E,14E,18E,22E,26E,30E,34E)-3,7,11,15,19,23,27,31,35,39-decamethyltetraconta-2,6,10,14,18,22,26,30,34,38-decaenyl]-5,6-dimethoxy-3-methylcyclohexa-2,5-diene-1,4-dione
Formula: C59H90O4
Exact mass: 862.6839
SMILES: CC1=C(C(=O)C(=C(C1=O)OC)OC)C/C=C(\C)/CC/C=C(\C)/CC/C=C(\C)/CC/C=C(\C)/CC/C=C(\C)/CC/C=C(\C)/CC/C=C(\C)/CC/C=C(\C)/CC/C=C(\C)/CCC=C(C)C
InChI: InChI=1S/C59H90O4/c1-44(2)24-15-25-45(3)26-16-27-46(4)28-17-29-47(5)30-18-31-48(6)32-19-33-49(7)34-20-35-50(8)36-21-37-51(9)38-22-39-52(10)40-23-41-53(11)42-43-55-54(12)56(60)58(62-13)59(63-14)57(55)61/h24,26,28,30,32,34,36,38,40,42H,15-23,25,27,29,31,33,35,37,39,41,43H2,1-14H3/b45-26+,46-28+,47-30+,48-32+,49-34+,50-36+,51-38+,52-40+,53-42+
Instrument: Agilent 6560 QTOF
Instrument type: LC-ESI-QTOF
Ms type: MS2
Ion mode: POSITIVE
Ionization: ESI
Fragmentation mode: CID
Collision energy: 20 eV
Resolution: 7000
Column name: Direct injection
Retention time: 0.325 min
Base peak: 647.4601
Precursor m/z: 863.6912
Precursor type: [M+H]+
Precursor intensity: 86970
m/z	relative intensity	assigned
81.0704	31	C6H9+
83.0852	7	C6H11+
93.0696	13	C7H9+
95.0852	126	C7H11+
97.1	8	C7H13+
109.0665	20	C7H9O+
109.1021	16	C8H13+
111.1169	13	C8H15+
121.1007	28	C9H13+
123.1162	18	C9H15+
133.099	10	C10H13+
135.1169	73	C10H15+
137.1321	7	C10H17+
149.1322	72	C11H17+
151.149	8	C11H19+
159.1192	26	C12H15+
161.1316	35	C12H17+
163.1477	37	C12H19+
173.1352	22	C13H17+
175.1498	35	C13H19+
175.656	5	C2H87O4+
179.2957	5	C9H39O2+
181.0864	28	C10H13O3+
182.0573	12	C9H10O4+
187.1468	13	C14H19+
189.1654	36	C14H21+
191.0684	4	C11H11O3+
191.1063	7	C12H15O2+
191.1782	11	C14H23+
197.0805	999	C10H13O4+
203.1806	21	C15H23+
205.0859	17	C12H13O3+
211.0945	37	C11H15O4+
213.1597	16	C16H21+
213.5023	3	C11H65O+
217.1975	4	C16H25+
223.0972	17	C12H15O4+
227.1797	11	C17H23+
230.1988	8	C17H26+
231.099	11	C14H15O3+
231.3816	7	C11H51O3+
233.1179	19	C14H17O3+
235.097	12	C13H15O4+
237.1121	27	C13H17O4+
249.1076	2	C14H17O4+
257.1178	13	C16H17O3+
257.2246	42	C19H29+
259.2408	14	C19H31+
261.1131	9	C15H17O4+
271.241	24	C20H31+
285.2565	19	C21H33+
286.264	15	C21H34+
295.2367	10	C22H31+
297.258	13	C22H33+
299.2706	19	C22H35+
301.1389	8	C18H21O4+
311.1586	5	C20H23O3+
311.2719	8	C23H35+
313.2835	10	C23H37+
317.182	16	C19H25O4+
323.2015	4	C22H27O2+
325.2822	19	C24H37+
327.2309	12	C22H31O2+
329.1705	14	C20H25O4+
341.2074	16	C22H29O3+
345.2067	18	C21H29O4+
367.3314	19	C27H43+
371.2214	17	C23H31O4+
373.241	3	C23H33O4+
386.2451	10	C24H34O4+
393.3411	16	C25H45O3+
395.2658	10	C30H35+
396.3726	5	C29H48+
405.4336	16	C25H57O3+
407.359	3	C26H47O3+
410.3839	11	C30H50+
411.2595	13	C26H35O4+
413.2641	24	C26H37O4+
421.2638	10	C28H37O3+
427.282	9	C27H39O4+
433.3771	6	C32H49+
435.2895	6	C29H39O3+
449.4146	4	C33H53+
451.3206	15	C30H43O3+
461.4208	2	C34H53+
463.4281	3	C34H55+
479.3104	10	C31H43O4+
481.3243	13	C31H45O4+
483.3367	9	C31H47O4+
486.3512	13	C34H46O2+
505.325	9	C33H45O4+
511.3735	6	C33H51O4+
515.4565	5	C38H59+
517.3662	4	C35H49O3+
517.485	12	C35H65O2+
533.5025	3	C39H65+
549.3921	3	C36H53O4+
557.5005	8	C41H65+
561.3891	28	C37H53O4+
579.4447	11	C38H59O4+
585.533	8	C43H69+
586.5341	4	C39H70O3+
599.5546	4	C44H71+
611.5578	8	C45H71+
615.3362	5	C45H43O2+
617.4581	4	C41H61O4+
624.4071	10	C42H56O4+
629.4542	17	C42H61O4+
646.4848	4	C46H62O2+
647.503	11	C43H67O4+
653.6001	15	C48H77+
655.104	4	C48H15O4+
657.5043	2	C48H65O+
667.5152	13	C46H67O3+
667.6147	43	C49H79+
668.6316	4	C49H80+
698.5602	7	C48H74O3+
699.516	7	C50H67O2+
735.5685	22	C51H75O3+
765.5739	5	C52H77O4+
781.6116	7	C53H81O4+
813.6533	6	C58H85O2+
817.6737	9	C58H89O2+
831.6754	27	C58H87O3+
835.6435	14	C57H87O4+
835.6883	7	C58H91O3+
845.6856	20	C59H89O3+
863.6906	376	C59H91O4+
