Mass spectrum: 1,2-diheptadecanoyl-sn-glycero-3-phosphocholine; LC-ESI-QTOF; MS2; CE: 20eV; R=7000; [M+Na]+
Name: 1,2-diheptadecanoyl-sn-glycero-3-phosphocholine
Name: [(2R)-2,3-di(heptadecanoyloxy)propyl] 2-(trimethylazaniumyl)ethyl phosphate
Formula: C42H84NO8P
Exact mass: 761.5935
SMILES: CCCCCCCCCCCCCCCCC(=O)OC[C@H](COP(=O)([O-])OCC[N+](C)(C)C)OC(=O)CCCCCCCCCCCCCCCC
InChI: InChI=1S/C42H84NO8P/c1-6-8-10-12-14-16-18-20-22-24-26-28-30-32-34-41(44)48-38-40(39-50-52(46,47)49-37-36-43(3,4)5)51-42(45)35-33-31-29-27-25-23-21-19-17-15-13-11-9-7-2/h40H,6-39H2,1-5H3/t40-/m1/s1
Instrument: Agilent 6560 QTOF
Instrument type: LC-ESI-QTOF
Ms type: MS2
Ion mode: POSITIVE
Ionization: ESI
Fragmentation mode: CID
Collision energy: 20 eV
Resolution: 7000
Column name: Direct injection
Retention time: 0.213 min
Base peak: 762.604
Precursor m/z: 784.5827
Precursor type: [M+Na]+
Precursor intensity: 160068
m/z	relative intensity	assigned
81.07	6	C6H9+
83.0853	3	C6H11+
86.0963	152	C5H12N+
95.0859	38	C3H14NP+
97.1019	4	C3H16NP+
133.0878	3	C9H11N+
146.9822	228	C2H5NaO4P+
253.2594	4	C6H40NO6P+
393.2975	1	C22H42NaO4+
399.1733	5	C30H23O+
429.241	4	C23H37NNaO3P+
455.1749	3	C27H29NaO3P+
455.2501	2	C31H36OP+
492.3482	2	C31H50NaOP+
514.3187	13	C29H48NaO4P+
552.3301	1	C31H47NNaO6+
554.0138	6	C40H6NNaP+
558.9662	2	C36H2NO5P+
579.5338	60	C37H71O4+
580.539	25	C35H73NaO4+
601.5166	233	C37H70NaO4+
602.5252	56	C33H74NNaO4P+
609.4006	5	C35H56NNaO6+
622.2161	2	C40H33NO4P+
640.9778	2	C39H7NaO7P+
725.5112	437	C41H74O8P+
726.5147	79	C39H76NaO8P+
747.2996	1	C42H47NNaO8P+
784.5844	999	C42H84NNaO8P+
