Mass spectrum: Tributyl acetylcitrate; LC-ESI-QTOF; MS2; CE: 20eV; R=7000; [M+Na]+
Name: Tributyl acetylcitrate
Name: Acetyl tributyl citrate
Name: tributyl 2-acetyloxypropane-1,2,3-tricarboxylate
Formula: C20H34O8
Exact mass: 402.2254
SMILES: CCCCOC(=O)CC(CC(=O)OCCCC)(C(=O)OCCCC)OC(=O)C
InChI: InChI=1S/C20H34O8/c1-5-8-11-25-17(22)14-20(28-16(4)21,19(24)27-13-10-7-3)15-18(23)26-12-9-6-2/h5-15H2,1-4H3
Instrument: Agilent 6560 QTOF
Instrument type: LC-ESI-QTOF
Ms type: MS2
Ion mode: POSITIVE
Ionization: ESI
Fragmentation mode: CID
Collision energy: 20 eV
Resolution: 7000
Retention time: 0.147 min
Base peak: 425.2174
Precursor m/z: 425.2146
Precursor type: [M+Na]+
Precursor intensity: 235601.35
m/z	relative intensity	assigned
85.0291	2	C4H5O2+
139.0023	6	C6H3O4+
207.0625	27	C9H12NaO4+
235.0556	2	C19H7+
267.1198	6	C12H20NaO5+
271.0841	2	C12H15O7+
281.1358	149	C13H22NaO5+
282.1383	9	C20H19Na+
295.0784	2	C12H16NaO7+
309.1307	50	C14H22NaO6+
310.1343	4	C14H23NaO6+
327.1406	28	C14H24NaO7+
328.1419	2	C14H25NaO7+
365.1937	547	C18H30NaO6+
366.1964	61	C18H31NaO6+
369.151	17	C16H26NaO8+
370.1543	5	C16H27NaO8+
383.2034	17	C18H32NaO7+
425.2147	999	C20H34NaO8+
