Mass spectrum: N-ACETYLASPARAGINE; LC-ESI-QTOF; MS2; CE: 40eV; R=5000; [M+H]+
Name: N-ACETYLASPARAGINE
Name: (2S)-2-acetamido-4-amino-4-oxobutanoic acid
Formula: C6H10N2O4
Exact mass: 174.0641
SMILES: CC(=O)N[C@@H](CC(N)=O)C(O)=O
InChI: InChI=1S/C6H10N2O4/c1-3(9)8-4(6(11)12)2-5(7)10/h4H,2H2,1H3,(H2,7,10)(H,8,9)(H,11,12)/t4-/m0/s1
Instrument: Agilent 6530 QTOF
Instrument type: LC-ESI-QTOF
Ms type: MS2
Ion mode: POSITIVE
Ionization: ESI
Fragmentation mode: CID
Collision energy: 40 eV
Resolution: 5000
Column name: N/A
Retention time: 0.220 min
Base peak: 161.0921
Precursor m/z: 175.0713
Precursor type: [M+H]+
Precursor intensity: 68432
m/z	relative intensity	assigned
43.0189	999	C2H3O+
46.0287	152	CH4NO+
53.0032	332	C3HO+
69.0703	60	C5H9+
70.0297	310	C3H4NO+
71.0138	122	C3H3O2+
74.0225	158	C2H4NO2+
83.0804	6	CH11N2O2+
98.0219	23	C4H4NO2+
99.0081	129	C4H3O3+
118.0506	6	C4H8NO3+
