Mass spectrum: Mono(2-ethyl-5-oxohexyl) adipate; LC-ESI-QTOF; MS2; CE: 20eV; R=7000; [M-H]-
Name: Mono(2-ethyl-5-oxohexyl) adipate
Name: 6-(2-ethyl-5-oxohexoxy)-6-oxohexanoic acid
Formula: C14H24O5
Exact mass: 272.1624
SMILES: CCC(CCC(=O)C)COC(=O)CCCCC(=O)O
InChI: InChI=1S/C14H24O5/c1-3-12(9-8-11(2)15)10-19-14(18)7-5-4-6-13(16)17/h12H,3-10H2,1-2H3,(H,16,17)
Instrument: Agilent 6560 QTOF
Instrument type: LC-ESI-QTOF
Ms type: MS2
Ion mode: NEGATIVE
Ionization: ESI
Fragmentation mode: CID
Collision energy: 20 eV
Resolution: 7000
Column name: ZORBAX Extend-C18 3.5um, 2.1x50mm, Agilent Technologies
Retention time: 3.476 min
Base peak: 271.1558
Precursor m/z: 271.1551
Precursor type: [M-H]-
Precursor intensity: 53582.56
m/z	relative intensity	assigned
53.0403	10	C4H5-
57.0359	16	C3H5O-
71.0509	32	C4H7O-
81.0349	418	C5H5O-
83.0507	999	C5H7O-
101.0608	24	C5H9O2-
113.0977	11	C7H13O-
127.0393	9	C6H7O3-
143.1084	15	C8H15O2-
145.052	16	C6H9O4-
229.1457	9	C12H21O4-
