Mass spectrum: 1-Dehydrotestosterone; LC-ESI-QTOF; MS2; CE: 40eV; R=7000; [M-H2O+H]+
Name: 1-Dehydrotestosterone
Name: Boldenone
Name: (8R,9S,10R,13S,14S,17S)-17-hydroxy-10,13-dimethyl-6,7,8,9,11,12,14,15,16,17-decahydrocyclopenta[a]phenanthren-3-one
Formula: C19H26O2
Exact mass: 286.1933
SMILES: C[C@]12CC[C@H]3[C@H]([C@@H]1CC[C@@H]2O)CCC4=CC(=O)C=C[C@]34C
InChI: InChI=1S/C19H26O2/c1-18-9-7-13(20)11-12(18)3-4-14-15-5-6-17(21)19(15,2)10-8-16(14)18/h7,9,11,14-17,21H,3-6,8,10H2,1-2H3/t14-,15-,16-,17-,18-,19-/m0/s1
Instrument: Agilent 6560 QTOF
Instrument type: LC-ESI-QTOF
Ms type: MS2
Ion mode: POSITIVE
Ionization: ESI
Fragmentation mode: CID
Collision energy: 40 eV
Resolution: 7000
Column name: Direct injection
Retention time: 0.181 min
Base peak: 287.201
Precursor m/z: 269.19
Precursor type: [M-H2O+H]+
Precursor intensity: 79887
m/z	relative intensity	assigned
77.039	999	C6H5+
78.0476	70	C6H6+
79.0552	210	C6H7+
81.0695	122	C6H9+
91.0542	900	C7H7+
93.0701	309	C7H9+
95.086	21	C7H11+
103.0545	141	C8H7+
105.0684	172	C8H9+
107.0848	82	C8H11+
109.1022	7	C8H13+
115.0523	163	C9H7+
119.0852	25	C9H11+
121.0646	557	C8H9O+
128.0609	65	C10H8+
130.0763	65	C10H10+
131.0469	8	C9H7O+
131.0861	14	C10H11+
133.0981	13	C10H13+
135.078	8	C9H11O+
141.0701	21	C11H9+
144.0553	63	C10H8O+
145.0645	29	C10H9O+
145.0987	63	C11H13+
146.0739	15	C10H10O+
147.0772	26	C10H11O+
155.0861	14	C12H11+
157.064	68	C11H9O+
157.1009	9	C12H13+
158.0724	87	C11H10O+
159.0789	104	C11H11O+
