Mass spectrum: Bis(1,3-dichloro-2-propyl) phosphate; LC-ESI-QTOF; MS2; CE: 25eV; R=7000; [M+H]+
Name: Bis(1,3-dichloro-2-propyl) phosphate
Name: bis(1,3-dichloropropan-2-yl) hydrogen phosphate
Formula: C6H11Cl4O4P
Exact mass: 317.9149
SMILES: C(C(CCl)OP(=O)(O)OC(CCl)CCl)Cl
InChI: InChI=1S/C6H11Cl4O4P/c7-1-5(2-8)13-15(11,12)14-6(3-9)4-10/h5-6H,1-4H2,(H,11,12)
Instrument: Agilent 6560 QTOF
Instrument type: LC-ESI-QTOF
Ms type: MS2
Ion mode: POSITIVE
Ionization: ESI
Fragmentation mode: CID
Collision energy: 25 eV
Resolution: 7000
Column name: ZORBAX Extend-C18 3.5um, 2.1x50mm, Agilent Technologies
Retention time: 4.533 min
Base peak: 320.9193
Precursor m/z: 318.9222
Precursor type: [M+H]+
Precursor intensity: 3111.99
m/z	relative intensity	assigned
74.9995	144	C2H4OP+
80.9735	91	H2O3P+
98.9842	999	H4O4P+
