Mass spectrum: 1-tridecanoyl-sn-glycero-3-phosphoethanolamine; LC-ESI-QTOF; MS2; CE: 20eV; R=7000; [M+Na]+
Name: 1-tridecanoyl-sn-glycero-3-phosphoethanolamine
Name: [(2R)-3-[2-aminoethoxy(hydroxy)phosphoryl]oxy-2-hydroxypropyl] tridecanoate
Formula: C18H38NO7P
Exact mass: 411.2386
SMILES: [C@](COP(=O)(O)OCCN)([H])(O)COC(CCCCCCCCCCCC)=O
InChI: InChI=1S/C18H38NO7P/c1-2-3-4-5-6-7-8-9-10-11-12-18(21)24-15-17(20)16-26-27(22,23)25-14-13-19/h17,20H,2-16,19H2,1H3,(H,22,23)/t17-/m1/s1
Instrument: Agilent 6560 QTOF
Instrument type: LC-ESI-QTOF
Ms type: MS2
Ion mode: POSITIVE
Ionization: ESI
Fragmentation mode: CID
Collision energy: 20 eV
Resolution: 7000
Column name: Direct injection
Retention time: 0.208 min
Base peak: 412.2474
Precursor m/z: 434.2278
Precursor type: [M+Na]+
Precursor intensity: 26763
m/z	relative intensity	assigned
71.0495	30	H10NOP+
120.9651	49	H3NaO4P+
145.999	18	C8H2O3+
164.0099	161	C8H4O4+
195.0006	98	C12H4OP+
195.0681	19	C13H9NO+
215.1945	8	C5H29NO7+
271.2275	610	C12H34NO3P+
272.227	32	C16H33OP+
311.2222	72	C14H34NO4P+
312.2242	16	C9H38NaO7P+
371.0814	19	C17H19NNaO5P+
373.1761	101	C16H31NaO6P+
391.1863	999	C16H33NaO7P+
392.1907	86	C16H34NaO7P+
434.2327	104	C18H38NNaO7P+
