Mass spectrum: Bis(2-butoxyethyl) 3?-hydroxy-2-butoxyethyl phosphate ; LC-ESI-QTOF; MS2; CE: 30eV; R=7000; [M+H]+
Name: Bis(2-butoxyethyl) 3?-hydroxy-2-butoxyethyl phosphate 
Name: Bis(2-butoxyethyl) 3-hydroxyl-2-butoxyethyl phosphate
Name: bis(2-butoxyethyl) 2-(3-hydroxybutoxy)ethyl phosphate
Formula: C18H39O8P
Exact mass: 414.2383
SMILES: CCCCOCCOP(=O)(OCCOCCCC)OCCOCCC(C)O
InChI: InChI=1S/C18H39O8P/c1-4-6-9-21-12-15-24-27(20,25-16-13-22-10-7-5-2)26-17-14-23-11-8-18(3)19/h18-19H,4-17H2,1-3H3
Instrument: Agilent 6560 QTOF
Instrument type: LC-ESI-QTOF
Ms type: MS2
Ion mode: POSITIVE
Ionization: ESI
Fragmentation mode: CID
Collision energy: 30 eV
Resolution: 7000
Retention time: 0.148 min
Base peak: 415.2481
Precursor m/z: 415.2455
Precursor type: [M+H]+
Precursor intensity: 197963.72
m/z	relative intensity	assigned
53.0392	6	C4H5+
55.0546	999	C4H7+
57.0702	897	C4H9+
59.0494	54	C3H7O+
69.0699	28	C5H9+
71.0491	100	C4H7O+
73.0648	83	C4H9O+
80.9735	8	H2O3P+
81.0694	42	C6H9+
83.0855	98	C6H11+
98.9839	519	H4O4P+
101.0955	16	C6H13O+
122.9834	4	C2H4O4P+
124.9995	176	C2H6O4P+
140.9943	3	C2H6O5P+
143.0098	149	C2H8O5P+
144.0155	3	C9H5P+
151.0156	9	C4H8O4P+
155.0092	13	C3H8O5P+
187.0371	10	C4H12O6P+
199.0738	24	C6H16O5P+
243.0983	14	C8H20O6P+
