Mass spectrum: Butyryl trihexyl citrate; LC-ESI-QTOF; MS2; CE: 25eV; R=7000; [M+Na]+
Name: Butyryl trihexyl citrate
Name: trihexyl 2-butanoyloxypropane-1,2,3-tricarboxylate
Formula: C28H50O8
Exact mass: 514.3506
SMILES: CCCCCCOC(=O)CC(CC(=O)OCCCCCC)(C(=O)OCCCCCC)OC(=O)CCC
InChI: InChI=1S/C28H50O8/c1-5-9-12-15-19-33-25(30)22-28(36-24(29)18-8-4,27(32)35-21-17-14-11-7-3)23-26(31)34-20-16-13-10-6-2/h5-23H2,1-4H3
Instrument: Agilent 6560 QTOF
Instrument type: LC-ESI-QTOF
Ms type: MS2
Ion mode: POSITIVE
Ionization: ESI
Fragmentation mode: CID
Collision energy: 25 eV
Resolution: 7000
Retention time: 0.146 min
Base peak: 537.3425
Precursor m/z: 537.3398
Precursor type: [M+Na]+
Precursor intensity: 246846.75
m/z	relative intensity	assigned
68.9953	2	CH2NaO2+
111.0056	2	C3H4NaO3+
129.0183	3	C5H5O4+
139.0007	1	C4H4NaO4+
209.1135	2	C10H18NaO3+
235.0937	34	C11H16NaO4+
253.1056	2	C11H18NaO5+
263.0904	6	C12H16NaO5+
281.0526	2	C18H10NaO2+
281.099	3	C12H18NaO6+
282.0531	3	C16H10O5+
323.1844	2	C18H27O5+
337.1989	137	C17H30NaO5+
338.201	13	C24H27Na+
342.0159	2	C20H6O6+
365.1925	56	C18H30NaO6+
366.1959	3	C25H27NaO+
383.2039	48	C18H32NaO7+
384.2074	3	C27H28O2+
416.0372	2	C26H8O6+
449.2882	489	C24H42NaO6+
450.2909	66	C24H43NaO6+
453.2485	34	C24H37O8+
454.2505	2	C22H39NaO8+
467.2988	26	C24H44NaO7+
468.3016	4	C24H45NaO7+
537.3409	999	C28H50NaO8+
