Mass spectrum: Bis(2-ethylhexyl)phthalate; LC-ESI-QTOF; MS2; CE: 40eV; R=7000; [M+Na]+
Name: Bis(2-ethylhexyl)phthalate
Name: Bis(2-ethylhexyl) phthalate
Name: bis(2-ethylhexyl) benzene-1,2-dicarboxylate
Formula: C24H38O4
Exact mass: 390.2770
SMILES: CCCCC(CC)COC(=O)C1=CC=CC=C1C(=O)OCC(CC)CCCC
InChI: InChI=1S/C24H38O4/c1-5-9-13-19(7-3)17-27-23(25)21-15-11-12-16-22(21)24(26)28-18-20(8-4)14-10-6-2/h11-12,15-16,19-20H,5-10,13-14,17-18H2,1-4H3
Instrument: Agilent 6560 QTOF
Instrument type: LC-ESI-QTOF
Ms type: MS2
Ion mode: POSITIVE
Ionization: ESI
Fragmentation mode: CID
Collision energy: 40 eV
Resolution: 7000
Column name: Direct injection
Retention time: 0.183 min
Base peak: 149.0237
Precursor m/z: 413.2662
Precursor type: [M+Na]+
Precursor intensity: 2534
m/z	relative intensity	assigned
73.0656	96	C4H9O+
119.0847	999	C9H11+
135.0823	104	C9H11O+
145.0999	200	C9H14Na+
156.0938	380	C12H12+
