Mass spectrum: N-ACETYLGLUTAMATE; LC-ESI-QTOF; MS2; CE: 20eV; R=5000; [M+H]+
Name: N-ACETYLGLUTAMATE
Name: N-acetylglutamic acid
Name: 2-acetamidopentanedioic acid
Formula: C7H11NO5
Exact mass: 189.0637
SMILES: CC(=O)NC(CCC(O)=O)C(O)=O
InChI: InChI=1S/C7H11NO5/c1-4(9)8-5(7(12)13)2-3-6(10)11/h5H,2-3H2,1H3,(H,8,9)(H,10,11)(H,12,13)
Instrument: Agilent 6530 QTOF
Instrument type: LC-ESI-QTOF
Ms type: MS2
Ion mode: POSITIVE
Ionization: ESI
Fragmentation mode: CID
Collision energy: 20 eV
Resolution: 5000
Column name: N/A
Retention time: 0.215 min
Base peak: 922.0098
Precursor m/z: 190.071
Precursor type: [M+H]+
Precursor intensity: 315558
m/z	relative intensity	assigned
41.0381	66	C3H5+
43.0176	49	C2H3O+
56.049	90	C3H6N+
66.0326	2	C4H4N+
84.0425	999	CH8O4+
86.0239	2	C3H4NO2+
98.0578	4	C2H10O4+
102.0522	126	CH10O5+
113.0134	2	C4H3NO3+
128.0548	1	C2H10NO5+
146.9936	2	C7HNO3+
