Mass spectrum: Mono-2-(propyl-6-oxoheptyl)-phthalate; LC-ESI-QTOF; MS2; CE: 60eV; R=7000; [M-H]-
Name: Mono-2-(propyl-6-oxoheptyl)-phthalate
Name: 2-(((6-Oxo-2-propylheptyl)oxy)carbonyl)benzoic Acid
Name: 2-(6-oxo-2-propylheptoxy)carbonylbenzoic acid
Formula: C18H24O5
Exact mass: 320.1624
SMILES: CCCC(CCCC(C)=O)COC(=O)c1ccccc1C(=O)O
InChI: InChI=1S/C18H24O5/c1-3-7-14(9-6-8-13(2)19)12-23-18(22)16-11-5-4-10-15(16)17(20)21/h4-5,10-11,14H,3,6-9,12H2,1-2H3,(H,20,21)
Instrument: Agilent 6560 QTOF
Instrument type: LC-ESI-QTOF
Ms type: MS2
Ion mode: NEGATIVE
Ionization: ESI
Fragmentation mode: CID
Collision energy: 60 eV
Resolution: 7000
Column name: ZORBAX Extend-C18 3.5um, 2.1x50mm, Agilent Technologies
Retention time: 3.965 min
Base peak: 319.1544
Precursor m/z: 319.1551
Precursor type: [M-H]-
Precursor intensity: 9021.63
m/z	relative intensity	assigned
57.0352	41	C3H5O-
75.0246	116	C6H3-
77.0402	999	C6H5-
121.029	43	C7H5O2-
