Mass spectrum: 1-(9Z-octadecenoyl)-2-hexadecanoyl-sn-glycero-3-phosphocholine; LC-ESI-QTOF; MS2; CE: 20eV; R=7000; [M+Na]+
Name: 1-(9Z-octadecenoyl)-2-hexadecanoyl-sn-glycero-3-phosphocholine
Name: 1-Oleoyl-2-palmitoyl-sn-glycero-3-phosphocholine
Name: [(2R)-2-hexadecanoyloxy-3-[(Z)-octadec-9-enoyl]oxypropyl] 2-(trimethylazaniumyl)ethyl phosphate
Formula: C42H82NO8P
Exact mass: 759.5778
SMILES: [C@](COP(=O)([O-])OCC[N+](C)(C)C)([H])(OC(CCCCCCCCCCCCCCC)=O)COC(CCCCCCC/C=C\CCCCCCCC)=O
InChI: InChI=1S/C42H82NO8P/c1-6-8-10-12-14-16-18-20-21-23-24-26-28-30-32-34-41(44)48-38-40(39-50-52(46,47)49-37-36-43(3,4)5)51-42(45)35-33-31-29-27-25-22-19-17-15-13-11-9-7-2/h20-21,40H,6-19,22-39H2,1-5H3/b21-20-/t40-/m1/s1
Instrument: Agilent 6560 QTOF
Instrument type: LC-ESI-QTOF
Ms type: MS2
Ion mode: POSITIVE
Ionization: ESI
Fragmentation mode: CID
Collision energy: 20 eV
Resolution: 7000
Column name: Direct injection
Retention time: 0.244 min
Base peak: 760.5869
Precursor m/z: 782.567
Precursor type: [M+Na]+
Precursor intensity: 293644
m/z	relative intensity	assigned
71.0722	7	C4H9N+
79.0519	2	C4H8Na+
85.1027	6	C2H16NP+
86.0963	80	C5H12N+
87.0986	8	H16NaO3+
93.0702	5	C3H12NP+
95.0868	2	C3H14NP+
98.1142	1	H18O5+
101.0957	6	C6H13O+
107.0791	3	H13NO5+
109.1002	6	C8H13+
135.1132	2	CH21NaO3P+
146.9819	240	C2H5NaO4P+
175.1161	6	C3H20NaO6+
177.1603	1	C11H22Na+
184.0675	4	H18NaO7P+
225.0553	5	C10H12NO3P+
265.2516	7	C18H33O+
285.0244	3	C12H8NNaO6+
305.9501	1	C17NaO3P+
375.0954	1	C18H17NO8+
398.2297	2	C21H34O7+
407.3091	2	C16H49NaO7P+
441.2342	10	C30H34OP+
441.2827	2	C18H45NNaO7P+
467.2514	7	C24H37NO8+
467.9348	1	C24NNaO7P+
500.3067	3	C37H40O+
501.2182	2	C36H30NaO+
504.3398	1	C33H47NOP+
537.4971	1	C30H67NO6+
565.0606	1	C36H15NaO4P+
577.5188	95	C37H69O4+
578.5204	10	C28H76NaO7P+
599.5014	253	C33H71NNaO4P+
600.5039	48	C39H69O2P+
601.5131	1	C30H75NaO7P+
605.1139	1	C38H22O6P+
707.3413	1	C41H50NNaO8+
723.4939	361	C39H73NaO8P+
724.4994	86	C39H74NaO8P+
725.5631	1	C40H81NNaO6P+
782.5679	999	C42H82NNaO8P+
