Mass spectrum: Butyryl trihexyl citrate; LC-ESI-QTOF; MS2; CE: 45eV; R=7000; [M+Na]+
Name: Butyryl trihexyl citrate
Name: trihexyl 2-butanoyloxypropane-1,2,3-tricarboxylate
Formula: C28H50O8
Exact mass: 514.3506
SMILES: CCCCCCOC(=O)CC(CC(=O)OCCCCCC)(C(=O)OCCCCCC)OC(=O)CCC
InChI: InChI=1S/C28H50O8/c1-5-9-12-15-19-33-25(30)22-28(36-24(29)18-8-4,27(32)35-21-17-14-11-7-3)23-26(31)34-20-16-13-10-6-2/h5-23H2,1-4H3
Instrument: Agilent 6560 QTOF
Instrument type: LC-ESI-QTOF
Ms type: MS2
Ion mode: POSITIVE
Ionization: ESI
Fragmentation mode: CID
Collision energy: 45 eV
Resolution: 7000
Retention time: 0.147 min
Base peak: 537.3406
Precursor m/z: 537.3398
Precursor type: [M+Na]+
Precursor intensity: 7495.65
m/z	relative intensity	assigned
139.0003	570	C4H4NaO4+
147.065	177	C6H11O4+
207.032	177	C10H7O5+
209.1127	173	C10H18NaO3+
235.0934	999	C11H16NaO4+
281.0508	232	C16H9O5+
337.1977	554	C17H30NaO5+
383.202	189	C27H27O2+
449.2818	171	C24H42NaO6+
