Mass spectrum: Prostaglandin E2; LC-ESI-QTOF; MS2; CE: 40eV; R=7000; [M-H]-
Name: Prostaglandin E2
Name: Dinoprostone
Name: (Z)-7-[(1R,2R,3R)-3-hydroxy-2-[(E,3S)-3-hydroxyoct-1-enyl]-5-oxocyclopentyl]hept-5-enoic acid
Formula: C20H32O5
Exact mass: 352.2250
SMILES: CCCCC[C@H](O)\C=C\[C@H]1[C@H](O)CC(=O)[C@@H]1C\C=C/CCCC(=O)O
InChI: InChI=1S/C20H32O5/c1-2-3-6-9-15(21)12-13-17-16(18(22)14-19(17)23)10-7-4-5-8-11-20(24)25/h4,7,12-13,15-17,19,21,23H,2-3,5-6,8-11,14H2,1H3,(H,24,25)/b7-4-,13-12+/t15-,16+,17+,19+/m0/s1
Instrument: Agilent 6560 QTOF
Instrument type: LC-ESI-QTOF
Ms type: MS2
Ion mode: NEGATIVE
Ionization: ESI
Fragmentation mode: CID
Collision energy: 40 eV
Resolution: 7000
Column name: N/A
Retention time: 0.143 min
Base peak: 980.0164
Precursor m/z: 351.2177
Precursor type: [M-H]-
Precursor intensity: 17414
m/z	relative intensity	assigned
81.0326	279	C5H5O-
95.0496	152	C6H7O-
105.0707	689	C8H9-
107.0504	629	C7H7O-
113.0955	177	C7H13O-
119.048	299	C8H7O-
119.0877	265	C9H11-
120.0598	718	C8H8O-
121.0684	999	C8H9O-
129.0712	306	C10H9-
135.0843	441	C9H11O-
141.068	56	C11H9-
145.0659	895	C10H9O-
145.111	52	C4H17O5-
147.0797	212	C10H11O-
157.0667	347	C11H9O-
173.1352	468	C13H17-
175.1148	237	C12H15O-
186.106	231	C13H14O-
187.1137	132	C13H15O-
189.128	703	C13H17O-
189.163	116	C14H21-
213.1239	379	C15H17O-
214.1262	123	C11H18O4-
