Mass spectrum: Tripalmitin; LC-ESI-QTOF; MS2; CE: 40eV; R=7000; [M+Na]+
Name: Tripalmitin
Name: 2,3-di(hexadecanoyloxy)propyl hexadecanoate
Formula: C51H98O6
Exact mass: 806.7363
SMILES: [H]C(COC(=O)CCCCCCCCCCCCCCC)(COC(=O)CCCCCCCCCCCCCCC)OC(=O)CCCCCCCCCCCCCCC
InChI: InChI=1S/C51H98O6/c1-4-7-10-13-16-19-22-25-28-31-34-37-40-43-49(52)55-46-48(57-51(54)45-42-39-36-33-30-27-24-21-18-15-12-9-6-3)47-56-50(53)44-41-38-35-32-29-26-23-20-17-14-11-8-5-2/h48H,4-47H2,1-3H3
Instrument: Agilent 6560 QTOF
Instrument type: LC-ESI-QTOF
Ms type: MS2
Ion mode: POSITIVE
Ionization: ESI
Fragmentation mode: CID
Collision energy: 40 eV
Resolution: 7000
Column name: Direct injection
Retention time: 0.606 min
Base peak: 256.9658
Precursor m/z: 829.7256
Precursor type: [M+Na]+
Precursor intensity: 16128
m/z	relative intensity	assigned
71.086	56	C5H11+
81.0692	300	C6H9+
82.0745	133	C4H11Na+
83.0865	62	C6H11+
85.1021	337	C6H13+
95.0854	469	C7H11+
96.0894	29	C5H13Na+
111.1176	321	C8H15+
358.9543	114	C20NaO6+
543.0833	32	C34H16NaO6+
551.5022	999	C35H67O4+
552.4987	253	C38H64O2+
573.4863	467	C35H66NaO4+
574.4928	41	C35H67NaO4+
829.7243	711	C51H98NaO6+
