Mass spectrum: 1-(9Z-octadecenoyl)-sn-glycero-3-phosphoethanolamine; LC-ESI-QTOF; MS2; CE: 20eV; R=7000; [M+H]+
Name: 1-(9Z-octadecenoyl)-sn-glycero-3-phosphoethanolamine
Name: [(2R)-3-[2-aminoethoxy(hydroxy)phosphoryl]oxy-2-hydroxypropyl] (Z)-octadec-9-enoate
Formula: C23H46NO7P
Exact mass: 479.3012
SMILES: CCCCCCCC/C=C\CCCCCCCC(=O)OC[C@H](COP(=O)([O-])OCC[NH3+])O
InChI: InChI=1S/C23H46NO7P/c1-2-3-4-5-6-7-8-9-10-11-12-13-14-15-16-17-23(26)29-20-22(25)21-31-32(27,28)30-19-18-24/h9-10,22,25H,2-8,11-21,24H2,1H3,(H,27,28)/b10-9-/t22-/m1/s1
Instrument: Agilent 6560 QTOF
Instrument type: LC-ESI-QTOF
Ms type: MS2
Ion mode: POSITIVE
Ionization: ESI
Fragmentation mode: CID
Collision energy: 20 eV
Resolution: 7000
Column name: Direct injection
Retention time: 0.180 min
Base peak: 480.3103
Precursor m/z: 480.3085
Precursor type: [M+H]+
Precursor intensity: 49360
m/z	relative intensity	assigned
81.0705	24	C2H12NP+
85.102	18	C2H16NP+
93.0705	10	C3H12NP+
95.086	34	C3H14NP+
97.1003	38	C7H13+
98.9853	19	H4O4P+
106.0896	11	C5H15P+
107.0858	10	C4H14NP+
109.1009	18	C8H13+
111.0818	20	C3H14NOP+
111.1165	45	C8H15+
121.1009	60	C9H13+
123.0818	17	C4H14NOP+
135.1163	30	C10H15+
137.129	23	C3H22O3P+
155.0089	28	C3H8O5P+
160.1248	6	C8H19NP+
173.0214	54	C3H10O6P+
198.0486	7	C12H9NP+
240.9838	19	C16H2OP+
245.2291	10	C14H32NP+
247.2416	11	C18H31+
248.2429	13	C10H34NO5+
249.0823	18	C17H14P+
256.9648	25	C15NO2P+
265.2519	35	C18H33O+
308.2947	134	C20H38NO+
339.2901	999	C17H42NO3P+
340.295	129	C14H45O6P+
349.232	4	C14H38O7P+
480.3056	6	C23H47NO7P+
