Mass spectrum: Tributyl phosphate; LC-ESI-QTOF; MS2; CE: 25eV; R=7000; [M+H]+
Name: Tributyl phosphate
Formula: C12H27O4P
Exact mass: 266.1647
SMILES: CCCCOP(=O)(OCCCC)OCCCC
InChI: InChI=1S/C12H27O4P/c1-4-7-10-14-17(13,15-11-8-5-2)16-12-9-6-3/h4-12H2,1-3H3
Instrument: Agilent 6560 QTOF
Instrument type: LC-ESI-QTOF
Ms type: MS2
Ion mode: POSITIVE
Ionization: ESI
Fragmentation mode: CID
Collision energy: 25 eV
Resolution: 7000
Retention time: 0.148 min
Base peak: 289.1543
Precursor m/z: 267.172
Precursor type: [M+H]+
Precursor intensity: 57187.07
m/z	relative intensity	assigned
57.07	12	C4H9+
62.9627	10	O2P+
80.9737	70	H2O3P+
98.9841	999	H4O4P+
