Mass spectrum: CYSTINE; LC-ESI-QTOF; MS2; CE: 40eV; R=5000; [M+H]+
Name: CYSTINE
Name: L-cystine
Name: (2R)-2-amino-3-[[(2R)-2-amino-2-carboxyethyl]disulfanyl]propanoic acid
Formula: C6H12N2O4S2
Exact mass: 240.0238
SMILES: N[C@@H](CSSC[C@H](N)C(O)=O)C(O)=O
InChI: InChI=1S/C6H12N2O4S2/c7-3(5(9)10)1-13-14-2-4(8)6(11)12/h3-4H,1-2,7-8H2,(H,9,10)(H,11,12)/t3-,4-/m0/s1
Instrument: Agilent 6530 QTOF
Instrument type: LC-ESI-QTOF
Ms type: MS2
Ion mode: POSITIVE
Ionization: ESI
Fragmentation mode: CID
Collision energy: 40 eV
Resolution: 5000
Column name: N/A
Retention time: 0.253 min
Base peak: 121.0508
Precursor m/z: 241.0311
Precursor type: [M+H]+
Precursor intensity: 44928
m/z	relative intensity	assigned
46.0296	181	CH4NO+
47.9906	288	H2NS+
54.0311	15	H6O3+
55.0191	122	C3H3O+
57.9886	45	C2H2S+
71.0177	20	H7O2S+
73.0277	128	C3H5O2+
74.0177	999	C3H6S+
76.023	84	C2H6NS+
78.9671	59	CH3S2+
84.0807	20	C5H10N+
86.9905	11	C3H3OS+
88.0435	2	H10NO2S+
90.966	24	C2H3S2+
92.0212	44	CH4N2O3+
100.0489	7	H8N2O4+
102.9838	22	C3H3O2S+
103.0325	5	C3H7N2S+
105.0045	4	H9O2S2+
105.9773	58	C2H4NS2+
112.0837	27	C2H12N2O3+
116.9904	6	H7NO2S2+
120.0156	28	H10NO2S2+
178.9598	12	C3H3N2O3S2+
