Mass spectrum: 4-Methylbenzotriazole; LC-ESI-QTOF; MS2; CE: 20eV; R=7000; [M+H]+
Name: 4-Methylbenzotriazole
Name: 4-Methyl-1H-benzotriazole
Name: 4-methyl-2H-benzotriazole
Formula: C7H7N3
Exact mass: 133.0640
SMILES: CC1=CC=CC2=NNN=C12
InChI: InChI=1S/C7H7N3/c1-5-3-2-4-6-7(5)9-10-8-6/h2-4H,1H3,(H,8,9,10)
Instrument: Agilent 6560 QTOF
Instrument type: LC-ESI-QTOF
Ms type: MS2
Ion mode: POSITIVE
Ionization: ESI
Fragmentation mode: CID
Collision energy: 20 eV
Resolution: 7000
Retention time: 0.148 min
Base peak: 134.0712
Precursor m/z: 134.0713
Precursor type: [M+H]+
Precursor intensity: 53921.29
m/z	relative intensity	assigned
51.0232	66	C4H3+
53.0381	14	C4H5+
66.0342	14	C4H4N+
66.0462	28	C5H6+
67.0418	12	C4H5N+
77.0386	999	C6H5+
78.0454	10	C6H6+
79.0541	466	C6H7+
80.0497	31	C5H6N+
89.0383	14	C7H5+
90.0331	8	C6H4N+
91.0411	36	C6H5N+
106.0653	95	C7H8N+
134.0715	250	C7H8N3+
