Mass spectrum: N-oleoyl-D-erythro-sphingosine; LC-ESI-QTOF; MS2; CE: 10eV; R=7000; [M+H]+
Name: N-oleoyl-D-erythro-sphingosine
Name: N-(oleoyl)-ceramide
Name: (Z)-N-[(E,2S,3R)-1,3-dihydroxyoctadec-4-en-2-yl]octadec-9-enamide
Formula: C36H69NO3
Exact mass: 563.5277
SMILES: CCCCCCCCCCCCC/C=C/[C@H]([C@H](CO)NC(=O)CCCCCCC/C=C\CCCCCCCC)O
InChI: InChI=1S/C36H69NO3/c1-3-5-7-9-11-13-15-17-18-20-22-24-26-28-30-32-36(40)37-34(33-38)35(39)31-29-27-25-23-21-19-16-14-12-10-8-6-4-2/h17-18,29,31,34-35,38-39H,3-16,19-28,30,32-33H2,1-2H3,(H,37,40)/b18-17-,31-29+/t34-,35+/m0/s1
Instrument: Agilent 6560 QTOF
Instrument type: LC-ESI-QTOF
Ms type: MS2
Ion mode: POSITIVE
Ionization: ESI
Fragmentation mode: CID
Collision energy: 10 eV
Resolution: 7000
Column name: Direct injection
Retention time: 0.181 min
Base peak: 586.5189
Precursor m/z: 564.535
Precursor type: [M+H]+
Precursor intensity: 300391
m/z	relative intensity	assigned
79.0547	10	C6H7+
81.0714	5	C6H9+
83.0869	2	C6H11+
85.102	3	C6H13+
93.0683	3	C7H9+
95.0863	3	C7H11+
109.1012	3	C8H13+
135.1177	5	C10H15+
149.1307	1	C11H17+
151.1463	5	C11H19+
156.1394	4	C9H18NO+
163.1489	3	C12H19+
179.181	2	C13H23+
205.1905	2	C15H25+
211.2036	1	C14H27O+
217.0841	1	C13H13O3+
247.2424	7	C18H31+
252.2695	50	C17H34N+
253.274	4	C14H37O3+
264.2697	721	C18H34N+
265.272	32	C15H37O3+
282.2795	147	C18H36NO+
283.282	7	C18H37NO+
308.3824	1	C19H50NO+
324.2887	1	C20H38NO2+
516.5147	38	C35H66NO+
517.5095	3	C35H65O2+
528.5137	117	C36H66NO+
529.5171	16	C36H67NO+
546.5256	999	C36H68NO2+
547.5303	142	C36H69NO2+
564.5313	7	C36H70NO3+
