Mass spectrum: Di-n-butyl sebacate; LC-ESI-QTOF; MS2; CE: 20eV; R=7000; [M+H]+
Name: Di-n-butyl sebacate
Name: Dibutyl sebacate
Name: dibutyl decanedioate
Formula: C18H34O4
Exact mass: 314.2457
SMILES: CCCCOC(=O)CCCCCCCCC(=O)OCCCC
InChI: InChI=1S/C18H34O4/c1-3-5-15-21-17(19)13-11-9-7-8-10-12-14-18(20)22-16-6-4-2/h3-16H2,1-2H3
Instrument: Agilent 6560 QTOF
Instrument type: LC-ESI-QTOF
Ms type: MS2
Ion mode: POSITIVE
Ionization: ESI
Fragmentation mode: CID
Collision energy: 20 eV
Resolution: 7000
Retention time: 0.110 min
Base peak: 337.235
Precursor m/z: 315.253
Precursor type: [M+H]+
Precursor intensity: 96175.62
m/z	relative intensity	assigned
55.0188	25	C3H3O+
55.0544	304	C4H7+
57.0325	16	C3H5O+
57.0706	120	C4H9+
67.0543	162	C5H7+
69.0702	694	C5H9+
71.0489	35	C4H7O+
73.0639	38	C4H9O+
79.0544	152	C6H7+
81.0698	316	C6H9+
83.0488	83	C5H7O+
83.0869	13	C6H11+
85.0643	24	C5H9O+
91.0524	37	C7H7+
93.0695	440	C7H9+
95.0846	180	C7H11+
97.0642	188	C6H9O+
97.1008	229	C7H13+
101.0598	18	C5H9O2+
107.0852	93	C8H11+
111.116	118	C8H15+
115.0759	14	C6H11O2+
121.1009	999	C9H13+
131.0849	90	C10H11+
139.1114	930	C9H15O+
149.0952	114	C10H13O+
157.1221	33	C9H17O2+
167.1035	19	C10H15O2+
185.1171	132	C10H17O3+
