Mass spectrum: Prostaglandin E2; LC-ESI-QTOF; MS2; CE: 20eV; R=7000; [M-H]-
Name: Prostaglandin E2
Name: Dinoprostone
Name: (Z)-7-[(1R,2R,3R)-3-hydroxy-2-[(E,3S)-3-hydroxyoct-1-enyl]-5-oxocyclopentyl]hept-5-enoic acid
Formula: C20H32O5
Exact mass: 352.2250
SMILES: CCCCC[C@H](O)\C=C\[C@H]1[C@H](O)CC(=O)[C@@H]1C\C=C/CCCC(=O)O
InChI: InChI=1S/C20H32O5/c1-2-3-6-9-15(21)12-13-17-16(18(22)14-19(17)23)10-7-4-5-8-11-20(24)25/h4,7,12-13,15-17,19,21,23H,2-3,5-6,8-11,14H2,1H3,(H,24,25)/b7-4-,13-12+/t15-,16+,17+,19+/m0/s1
Instrument: Agilent 6560 QTOF
Instrument type: LC-ESI-QTOF
Ms type: MS2
Ion mode: NEGATIVE
Ionization: ESI
Fragmentation mode: CID
Collision energy: 20 eV
Resolution: 7000
Column name: N/A
Retention time: 0.146 min
Base peak: 980.0164
Precursor m/z: 351.2177
Precursor type: [M-H]-
Precursor intensity: 114137
m/z	relative intensity	assigned
81.0346	54	C5H5O-
81.0716	55	C6H9-
81.222	3	C3H29O-
83.0497	88	C5H7O-
83.0728	22	C2H11O3-
84.154	5	C4H20O-
85.0298	17	C4H5O2-
93.0329	24	C6H5O-
95.0504	87	C6H7O-
95.0882	8	C7H11-
106.0417	52	C7H6O-
107.0498	52	C7H7O-
109.066	156	C7H9O-
109.1056	8	CH17O5-
110.1684	6	C6H22O-
113.0585	28	C6H9O2-
113.0967	119	C7H13O-
119.0489	26	C8H7O-
121.0634	44	C8H9O-
123.0838	17	C8H11O-
125.0609	45	C7H9O2-
125.0846	5	C4H13O4-
127.0749	7	C7H11O2-
131.0496	13	C9H7O-
135.083	147	C9H11O-
137.1005	4	C9H13O-
145.1814	8	C6H25O3-
150.0698	16	C9H10O2-
153.1265	20	C10H17O-
153.2062	4	C5H29O4-
163.1118	75	C11H15O-
165.1245	27	C11H17O-
169.0998	22	C13H13-
171.1138	48	C13H15-
171.1402	9	C10H19O2-
173.097	68	C12H13O-
175.1122	218	C12H15O-
176.1164	46	C12H16O-
185.0941	22	C13H13O-
186.1058	75	C13H14O-
186.1515	4	C7H22O5-
187.1133	80	C13H15O-
189.1284	695	C13H17O-
191.1442	174	C13H19O-
200.1206	12	C14H16O-
204.1134	32	C13H16O2-
206.1634	24	C14H22O-
207.0986	20	C12H15O3-
215.1429	17	C15H19O-
216.1497	34	C15H20O-
217.1203	51	C14H17O2-
217.1597	85	C15H21O-
225.1542	6	C13H21O3-
229.1597	11	C16H21O-
231.1004	19	C14H15O3-
235.135	191	C14H19O3-
235.2386	10	C17H31-
243.1745	14	C17H23O-
253.1587	29	C18H21O-
253.1977	41	C19H25-
255.1782	29	C18H23O-
269.1889	60	C19H25O-
269.9999	14	C17H2O4-
271.2064	999	C19H27O-
272.2093	163	C19H28O-
287.1912	5	C15H27O5-
289.2176	18	C19H29O2-
290.2249	45	C19H30O2-
297.1859	23	C20H25O2-
298.1858	15	C16H26O5-
315.1959	73	C20H27O3-
333.2082	117	C20H29O4-
334.211	22	C20H30O4-
