Mass spectrum: 2-Aminobenzothiazole; LC-ESI-QTOF; MS2; CE: 20eV; R=7000; [M+H]+
Name: 2-Aminobenzothiazole
Name: 1,3-benzothiazol-2-amine
Formula: C7H6N2S
Exact mass: 150.0252
SMILES: C1=CC=C2C(=C1)N=C(S2)N
InChI: InChI=1S/C7H6N2S/c8-7-9-5-3-1-2-4-6(5)10-7/h1-4H,(H2,8,9)
Instrument: Agilent 6560 QTOF
Instrument type: LC-ESI-QTOF
Ms type: MS2
Ion mode: POSITIVE
Ionization: ESI
Fragmentation mode: CID
Collision energy: 20 eV
Resolution: 7000
Retention time: 0.147 min
Base peak: 151.0327
Precursor m/z: 151.0324
Precursor type: [M+H]+
Precursor intensity: 339813.94
m/z	relative intensity	assigned
51.023	1	C4H3+
53.0381	4	C4H5+
63.023	1	C5H3+
65.0385	136	C5H5+
68.9796	10	C3HS+
77.0378	3	C6H5+
80.0493	111	C5H6N+
82.9948	1	C4H3S+
90.0326	9	C6H4N+
91.0412	11	C6H5N+
92.0491	195	C6H6N+
93.0565	9	C6H7N+
97.0102	10	C5H5S+
108.0004	3	C6H4S+
109.0103	698	C6H5S+
117.0452	1	C7H5N2+
118.0523	83	C7H6N2+
119.0594	3	C7H7N2+
124.0215	387	C6H6NS+
134.0065	5	C7H4NS+
150.0246	4	C7H6N2S+
151.0322	999	C7H7N2S+
