Mass spectrum: 5-Chlorobenzotriazole; LC-ESI-QTOF; MS2; CE: 25eV; R=7000; [M+H]+
Name: 5-Chlorobenzotriazole
Name: 5-chloro-2H-benzotriazole
Formula: C6H4ClN3
Exact mass: 153.0094
SMILES: C1=CC2=NNN=C2C=C1Cl
InChI: InChI=1S/C6H4ClN3/c7-4-1-2-5-6(3-4)9-10-8-5/h1-3H,(H,8,9,10)
Instrument: Agilent 6560 QTOF
Instrument type: LC-ESI-QTOF
Ms type: MS2
Ion mode: POSITIVE
Ionization: ESI
Fragmentation mode: CID
Collision energy: 25 eV
Resolution: 7000
Retention time: 0.146 min
Base peak: 154.0168
Precursor m/z: 154.0167
Precursor type: [M+H]+
Precursor intensity: 16975.82
m/z	relative intensity	assigned
62.0154	39	C5H2+
63.0237	341	C5H3+
64.0186	78	C4H2N+
72.9843	536	C3H2Cl+
90.0346	244	C6H4N+
91.0418	230	C6H5N+
99	999	C5H4Cl+
125.0042	41	C6H4ClN+
126.0106	132	C6H5ClN+
154.0165	170	C6H5ClN3+
