Mass spectrum: METHIONINE; LC-ESI-QTOF; MS2; CE: 20eV; R=5000; [M+H]+
Name: METHIONINE
Name: (2S)-2-amino-4-methylsulfanylbutanoic acid
Formula: C5H11NO2S
Exact mass: 149.05105
SMILES: CSCC[C@H](N)C(O)=O
InChI: InChI=1S/C5H11NO2S/c1-9-3-2-4(6)5(7)8/h4H,2-3,6H2,1H3,(H,7,8)/t4-/m0/s1
Instrument: Agilent 6530 QTOF
Instrument type: LC-ESI-QTOF
Ms type: MS2
Ion mode: POSITIVE
Ionization: ESI
Fragmentation mode: CID
Collision energy: 20 eV
Resolution: 5000
Column name: N/A
Retention time: 0.216 min
Base peak: 150.0583
Precursor m/z: 150.0583
Precursor type: [M+H]+
Precursor intensity: 630184
m/z	relative intensity	assigned
41.0383	8	C3H5+
44.0498	18	C2H6N+
44.9787	21	CHS+
45.0328	20	C2H5O+
45.9876	21	CH2S+
46.0288	14	CH4NO+
49.0099	6	CH5S+
53.0381	7	C4H5+
56.0491	917	C3H6N+
58.9942	10	C2H3S+
61.0103	999	C2H5S+
62.0377	1	C2H6O2+
75.9944	2	C5O+
84.044	34	C4H6NO+
85.0278	14	C4H5O2+
87.0256	70	C4H7S+
102.0533	30	C4H8NO2+
104.0508	62	C4H10NS+
150.0598	4	C5H12NO2S+
