Mass spectrum: Tri-m-tolyl phosphate; LC-ESI-QTOF; MS2; CE: 55eV; R=7000; [M+H]+
Name: Tri-m-tolyl phosphate
Name: Tri-M-cresyl phosphate
Name: tris(3-methylphenyl) phosphate
Formula: C21H21O4P
Exact mass: 368.1177
SMILES: CC1=CC(=CC=C1)OP(=O)(OC2=CC=CC(=C2)C)OC3=CC=CC(=C3)C
InChI: InChI=1S/C21H21O4P/c1-16-7-4-10-19(13-16)23-26(22,24-20-11-5-8-17(2)14-20)25-21-12-6-9-18(3)15-21/h4-15H,1-3H3
Instrument: Agilent 6560 QTOF
Instrument type: LC-ESI-QTOF
Ms type: MS2
Ion mode: POSITIVE
Ionization: ESI
Fragmentation mode: CID
Collision energy: 55 eV
Resolution: 7000
Retention time: 0.110 min
Base peak: 369.1254
Precursor m/z: 369.125
Precursor type: [M+H]+
Precursor intensity: 251876.34
m/z	relative intensity	assigned
51.0238	3	C4H3+
53.0399	7	C4H5+
63.0225	25	C5H3+
65.0389	567	C5H5+
77.0383	27	C6H5+
79.0535	21	C6H7+
80.9726	4	H2O3P+
89.0398	5	C7H5+
90.0461	4	C7H6+
91.0546	940	C7H7+
92.0577	40	H13O3P+
98.9826	5	H4O4P+
105.0332	8	C7H5O+
106.0398	7	H11O4P+
107.0493	46	C7H7O+
109.0638	11	C7H9O+
113.0168	4	C5H6OP+
115.0545	27	C9H7+
116.0617	3	C9H8+
128.061	6	C10H8+
129.0686	4	C3H14O3P+
135.0415	4	C8H7O2+
139.0539	6	C11H7+
141.0696	20	C11H9+
142.0748	7	C4H15O3P+
151.0545	11	C12H7+
152.0628	19	C12H8+
153.0091	15	C7H6O2P+
153.0696	26	C12H9+
154.0761	5	C5H15O3P+
163.0547	6	C13H7+
164.0617	24	C13H8+
165.0698	999	C13H9+
166.0767	258	C13H10+
167.0813	21	C6H16O3P+
171.0364	4	C11H8P+
176.0596	9	C7H13O3P+
178.0773	56	C14H10+
179.0838	42	C7H16O3P+
180.0927	15	C14H12+
181.065	35	C13H9O+
181.1041	6	C14H13+
182.0693	9	C6H15O4P+
183.0795	3	C13H11O+
189.0309	5	C7H10O4P+
195.0802	102	C14H11O+
196.0878	99	C14H12O+
197.0924	7	C7H18O4P+
200.0379	18	C12H9OP+
210.0223	6	C13H7OP+
213.0428	4	C13H10OP+
215.063	10	C13H12OP+
215.0819	4	C10H16O3P+
239.0847	20	C19H11+
240.0933	30	C19H12+
241.1016	28	C19H13+
242.1054	3	C12H19O3P+
243.0578	32	C14H12O2P+
244.061	3	C14H13O2P+
253.1013	5	C20H13+
255.1151	31	C13H20O3P+
256.1203	3	C13H21O3P+
279.0758	3	C14H16O4P+
