Mass spectrum: Tri-p-tolyl phosphate; LC-ESI-QTOF; MS2; CE: 10eV; R=7000; [M+H]+
Name: Tri-p-tolyl phosphate
Name: Tricresyl phosphate
Name: tris(4-methylphenyl) phosphate
Formula: C21H21O4P
Exact mass: 368.1177
SMILES: CC1=CC=C(C=C1)OP(=O)(OC2=CC=C(C=C2)C)OC3=CC=C(C=C3)C
InChI: InChI=1S/C21H21O4P/c1-16-4-10-19(11-5-16)23-26(22,24-20-12-6-17(2)7-13-20)25-21-14-8-18(3)9-15-21/h4-15H,1-3H3
Instrument: Agilent 6560 QTOF
Instrument type: LC-ESI-QTOF
Ms type: MS2
Ion mode: POSITIVE
Ionization: ESI
Fragmentation mode: CID
Collision energy: 10 eV
Resolution: 7000
Retention time: 0.108 min
Base peak: 369.125
Precursor m/z: 369.125
Precursor type: [M+H]+
Precursor intensity: 311556.08
m/z	relative intensity	assigned
65.0374	1	C5H5+
79.0539	1	C6H7+
91.0544	14	C7H7+
105.0678	1	CH14O3P+
107.0487	4	C7H7O+
153.0087	1	C7H6O2P+
153.0686	1	C5H14O3P+
165.0693	16	C13H9+
166.0775	20	C13H10+
167.0802	1	C6H16O3P+
179.0853	2	C14H11+
181.1001	6	C14H13+
182.0715	1	C13H10O+
189.0308	1	C7H10O4P+
196.087	4	C14H12O+
199.1095	1	C7H20O4P+
241.1006	1	C19H13+
243.0554	13	C14H12O2P+
256.1242	2	C20H16+
257.1247	1	C13H22O3P+
259.0505	1	C14H12O3P+
261.0667	13	C14H14O3P+
279.0797	3	C21H11O+
280.0822	1	C14H17O4P+
351.1147	2	C21H20O3P+
369.1245	999	C21H22O4P+
