Mass spectrum: Linoleic acid; LC-ESI-QTOF; MS2; CE: 10eV; R=7000; [M+HCOOH-H]-
Name: Linoleic acid
Name: (9Z,12Z)-octadeca-9,12-dienoic acid
Formula: C18H32O2
Exact mass: 280.2402
SMILES: CCCCC\C=C/C\C=C/CCCCCCCC(O)=O
InChI: InChI=1S/C18H32O2/c1-2-3-4-5-6-7-8-9-10-11-12-13-14-15-16-17-18(19)20/h6-7,9-10H,2-5,8,11-17H2,1H3,(H,19,20)/b7-6-,10-9-
Instrument: Agilent 6560 QTOF
Instrument type: LC-ESI-QTOF
Ms type: MS2
Ion mode: NEGATIVE
Ionization: ESI
Fragmentation mode: CID
Collision energy: 10 eV
Resolution: 7000
Column name: N/A
Retention time: 0.592 min
Base peak: 980.0164
Precursor m/z: 325.2384
Precursor type: [M+HCOOH-H]-
Precursor intensity: 10798
m/z	relative intensity	assigned
73.1246	999	C2H17O2-
