Mass spectrum: 1,2-dioctanoyl-sn-glycerol; LC-ESI-QTOF; MS2; CE: 10eV; R=7000; [M-H2O+H]+
Name: 1,2-dioctanoyl-sn-glycerol
Name: 1,2-Dioctanoylglycerol
Name: (3-hydroxy-2-octanoyloxypropyl) octanoate
Formula: C19H36O5
Exact mass: 344.2563
SMILES: CCCCCCCC(=O)OCC(CO)OC(=O)CCCCCCC
InChI: InChI=1S/C19H36O5/c1-3-5-7-9-11-13-18(21)23-16-17(15-20)24-19(22)14-12-10-8-6-4-2/h17,20H,3-16H2,1-2H3
Instrument: Agilent 6560 QTOF
Instrument type: LC-ESI-QTOF
Ms type: MS2
Ion mode: POSITIVE
Ionization: ESI
Fragmentation mode: CID
Collision energy: 10 eV
Resolution: 7000
Column name: Direct injection
Retention time: 0.182 min
Base peak: 367.2463
Precursor m/z: 327.253
Precursor type: [M-H2O+H]+
Precursor intensity: 10691
m/z	relative intensity	assigned
81.0679	104	C6H9+
109.1011	250	C8H13+
127.1104	406	C8H15O+
211.1282	63	C12H19O3+
327.2518	999	C19H35O4+
