Mass spectrum: Retinoic acid; LC-ESI-QTOF; MS2; CE: 40eV; R=7000; [M-H]-
Name: Retinoic acid
Name: Tretinoin
Name: (2E,4E,6E,8E)-3,7-dimethyl-9-(2,6,6-trimethylcyclohexen-1-yl)nona-2,4,6,8-tetraenoic acid
Formula: C20H28O2
Exact mass: 300.2089
SMILES: C\C(\C=C\C1=C(C)CCCC1(C)C)=C/C=C/C(/C)=C/C(O)=O
InChI: InChI=1S/C20H28O2/c1-15(8-6-9-16(2)14-19(21)22)11-12-18-17(3)10-7-13-20(18,4)5/h6,8-9,11-12,14H,7,10,13H2,1-5H3,(H,21,22)/b9-6+,12-11+,15-8+,16-14+
Instrument: Agilent 6560 QTOF
Instrument type: LC-ESI-QTOF
Ms type: MS2
Ion mode: NEGATIVE
Ionization: ESI
Fragmentation mode: CID
Collision energy: 40 eV
Resolution: 7000
Column name: N/A
Retention time: 0.171 min
Base peak: 255.2337
Precursor m/z: 299.2017
Precursor type: [M-H]-
Precursor intensity: 61541
m/z	relative intensity	assigned
79.0556	999	C6H7-
119.0873	768	C9H11-
145.1018	213	C11H13-
161.1296	673	C12H17-
225.1615	52	C17H21-
239.1811	218	C18H23-
281.1966	251	C20H25O-
