Mass spectrum: Benzothiazole; LC-ESI-QTOF; MS2; CE: 40eV; R=7000; [M+H]+
Name: Benzothiazole
Name: 1,3-benzothiazole
Formula: C7H5NS
Exact mass: 135.0143
SMILES: C1=CC=C2C(=C1)N=CS2
InChI: InChI=1S/C7H5NS/c1-2-4-7-6(3-1)8-5-9-7/h1-5H
Instrument: Agilent 6560 QTOF
Instrument type: LC-ESI-QTOF
Ms type: MS2
Ion mode: POSITIVE
Ionization: ESI
Fragmentation mode: CID
Collision energy: 40 eV
Resolution: 7000
Column name: InfinityLab Poroshell 120 EC-C18 2.7Âµm, 3x100mm, Agilent Technologies
Retention time: 6.332 min
Base peak: 118.0862
Precursor m/z: 136.0215
Precursor type: [M+H]+
Precursor intensity: 860.59
m/z	relative intensity	assigned
65.0388	999	C5H5+
