Mass spectrum: Diisodecyl phthalate ; LC-ESI-QTOF; MS2; CE: 5eV; R=7000; [M+H]+
Name: Diisodecyl phthalate 
Name: Diisodecyl phthalate
Name: bis(8-methylnonyl) benzene-1,2-dicarboxylate
Formula: C28H46O4
Exact mass: 446.3396
SMILES: CC(C)CCCCCCCOC(=O)C1=CC=CC=C1C(=O)OCCCCCCCC(C)C
InChI: InChI=1S/C28H46O4/c1-23(2)17-11-7-5-9-15-21-31-27(29)25-19-13-14-20-26(25)28(30)32-22-16-10-6-8-12-18-24(3)4/h13-14,19-20,23-24H,5-12,15-18,21-22H2,1-4H3
Instrument: Agilent 6560 QTOF
Instrument type: LC-ESI-QTOF
Ms type: MS2
Ion mode: POSITIVE
Ionization: ESI
Fragmentation mode: CID
Collision energy: 5 eV
Resolution: 7000
Retention time: 0.114 min
Base peak: 447.3472
Precursor m/z: 447.3469
Precursor type: [M+H]+
Precursor intensity: 81216.89
m/z	relative intensity	assigned
57.0702	749	C4H9+
71.0855	840	C5H11+
85.101	999	C6H13+
99.1165	101	C7H15+
141.1635	94	C10H21+
149.0229	306	C8H5O3+
167.0331	22	C8H7O4+
289.1803	42	C18H25O3+
307.1901	91	C18H27O4+
447.3475	374	C28H47O4+
