Mass spectrum: Diphenyl phosphate; LC-ESI-QTOF; MS2; CE: 20eV; R=7000; [M-H]-
Name: Diphenyl phosphate
Name: diphenyl hydrogen phosphate
Formula: C12H11O4P
Exact mass: 250.0395
SMILES: OP(=O)(OC1=CC=CC=C1)OC1=CC=CC=C1
InChI: InChI=1S/C12H11O4P/c13-17(14,15-11-7-3-1-4-8-11)16-12-9-5-2-6-10-12/h1-10H,(H,13,14)
Instrument: Agilent 6560 QTOF
Instrument type: LC-ESI-QTOF
Ms type: MS2
Ion mode: NEGATIVE
Ionization: ESI
Fragmentation mode: CID
Collision energy: 20 eV
Resolution: 7000
Retention time: 0.149 min
Base peak: 249.0347
Precursor m/z: 249.0322
Precursor type: [M-H]-
Precursor intensity: 328056.91
m/z	relative intensity	assigned
62.9641	2	O2P-
65.0397	17	C5H5-
75.0245	1	C6H3-
78.9588	34	O3P-
93.0344	999	C6H5O-
108.0209	1	C6H4O2-
154.99	38	C6H4O3P-
173.0003	3	C6H6O4P-
249.0323	198	C12H10O4P-
