Mass spectrum: Bis(1,3-dichloro-2-propyl) phosphate; LC-ESI-QTOF; MS2; CE: 10eV; R=7000; [M+H]+
Name: Bis(1,3-dichloro-2-propyl) phosphate
Name: bis(1,3-dichloropropan-2-yl) hydrogen phosphate
Formula: C6H11Cl4O4P
Exact mass: 317.9149
SMILES: C(C(CCl)OP(=O)(O)OC(CCl)CCl)Cl
InChI: InChI=1S/C6H11Cl4O4P/c7-1-5(2-8)13-15(11,12)14-6(3-9)4-10/h5-6H,1-4H2,(H,11,12)
Instrument: Agilent 6560 QTOF
Instrument type: LC-ESI-QTOF
Ms type: MS2
Ion mode: POSITIVE
Ionization: ESI
Fragmentation mode: CID
Collision energy: 10 eV
Resolution: 7000
Column name: ZORBAX Extend-C18 3.5um, 2.1x50mm, Agilent Technologies
Retention time: 4.531 min
Base peak: 320.9196
Precursor m/z: 318.9222
Precursor type: [M+H]+
Precursor intensity: 6605.78
m/z	relative intensity	assigned
74.9994	94	C2H4OP+
98.9846	999	CH4ClO3+
208.9542	65	C4H8Cl3O3+
