Mass spectrum: Coenzyme Q10; LC-ESI-QTOF; MS2; CE: 10eV; R=7000; [M+H]+
Name: Coenzyme Q10
Name: 2-[(2E,6E,10E,14E,18E,22E,26E,30E,34E)-3,7,11,15,19,23,27,31,35,39-decamethyltetraconta-2,6,10,14,18,22,26,30,34,38-decaenyl]-5,6-dimethoxy-3-methylcyclohexa-2,5-diene-1,4-dione
Formula: C59H90O4
Exact mass: 862.6839
SMILES: CC1=C(C(=O)C(=C(C1=O)OC)OC)C/C=C(\C)/CC/C=C(\C)/CC/C=C(\C)/CC/C=C(\C)/CC/C=C(\C)/CC/C=C(\C)/CC/C=C(\C)/CC/C=C(\C)/CC/C=C(\C)/CCC=C(C)C
InChI: InChI=1S/C59H90O4/c1-44(2)24-15-25-45(3)26-16-27-46(4)28-17-29-47(5)30-18-31-48(6)32-19-33-49(7)34-20-35-50(8)36-21-37-51(9)38-22-39-52(10)40-23-41-53(11)42-43-55-54(12)56(60)58(62-13)59(63-14)57(55)61/h24,26,28,30,32,34,36,38,40,42H,15-23,25,27,29,31,33,35,37,39,41,43H2,1-14H3/b45-26+,46-28+,47-30+,48-32+,49-34+,50-36+,51-38+,52-40+,53-42+
Instrument: Agilent 6560 QTOF
Instrument type: LC-ESI-QTOF
Ms type: MS2
Ion mode: POSITIVE
Ionization: ESI
Fragmentation mode: CID
Collision energy: 10 eV
Resolution: 7000
Column name: Direct injection
Retention time: 0.325 min
Base peak: 647.4607
Precursor m/z: 863.6912
Precursor type: [M+H]+
Precursor intensity: 92207
m/z	relative intensity	assigned
81.0714	39	C6H9+
95.0852	45	C7H11+
107.0863	8	C8H11+
109.1023	55	C8H13+
123.1162	40	C9H15+
135.1172	10	C10H15+
137.1329	19	C10H17+
145.1	4	C11H13+
147.1157	6	C11H15+
149.1328	88	C11H17+
163.15	40	C12H19+
165.1643	11	C12H21+
181.0872	8	C10H13O3+
187.1491	11	C14H19+
191.1756	16	C14H23+
197.0815	940	C10H13O4+
198.0846	37	C10H14O4+
203.1783	28	C15H23+
211.096	20	C11H15O4+
215.1765	10	C16H23+
217.1911	14	C16H25+
218.1994	8	C16H26+
231.2082	8	C17H27+
235.0931	8	C13H15O4+
237.112	31	C13H17O4+
247.2415	34	C18H31+
251.1235	4	C14H19O4+
259.2393	7	C19H31+
273.3781	5	C16H49O2+
275.1249	7	C16H19O4+
285.2618	15	C21H33+
293.1712	13	C17H25O4+
298.2606	14	C22H34+
299.268	10	C22H35+
301.18	12	C19H25O3+
301.2847	9	C22H37+
304.1643	9	C18H24O4+
313.2874	22	C23H37+
327.3037	36	C24H39+
333.2096	31	C20H29O4+
337.2815	9	C25H37+
341.2158	17	C22H29O3+
353.3144	13	C26H41+
367.2317	5	C24H31O3+
367.3328	16	C27H43+
369.2043	5	C23H29O4+
371.2273	33	C23H31O4+
381.2421	9	C25H33O3+
395.3719	9	C29H47+
409.2717	19	C27H37O3+
409.3839	50	C30H49+
419.2965	5	C29H39O2+
421.3836	31	C31H49+
423.4058	10	C31H51+
427.275	12	C27H39O4+
428.2777	5	C30H36O2+
429.3521	11	C32H45+
439.2781	15	C28H39O4+
441.2943	3	C28H41O4+
450.426	20	C33H54+
453.3077	15	C33H41O+
461.4109	16	C34H53+
490.3365	24	C33H46O3+
509.3537	11	C33H49O4+
511.372	17	C33H51O4+
517.4786	15	C38H61+
521.3616	14	C34H49O4+
531.4865	3	C39H63+
553.4183	19	C36H57O4+
555.4925	19	C41H63+
571.5223	5	C42H67+
573.3966	8	C38H53O4+
577.4305	4	C38H57O4+
591.4374	11	C39H59O4+
599.5601	9	C44H71+
603.4434	17	C40H59O4+
611.5525	16	C45H71+
614.5706	13	C41H74O3+
615.4746	12	C42H63O3+
627.4805	11	C43H63O3+
633.4887	8	C42H65O4+
639.4702	14	C44H63O3+
643.4655	9	C43H63O4+
647.4953	11	C43H67O4+
665.6007	14	C49H77+
667.6158	50	C49H79+
671.4984	14	C45H67O4+
680.6181	11	C50H80+
686.5081	3	C49H66O2+
713.5453	20	C48H73O4+
781.6102	35	C53H81O4+
793.6044	7	C54H81O4+
796.6344	5	C54H84O4+
807.6342	16	C55H83O4+
813.6552	4	C58H85O2+
822.6381	24	C59H82O2+
831.6529	18	C58H87O3+
832.6801	18	C58H88O3+
845.6771	37	C59H89O3+
846.6882	10	C59H90O3+
863.6908	999	C59H91O4+
