Mass spectrum: Tri-n-hexyl trimellitate; LC-ESI-QTOF; MS2; CE: 10eV; R=7000; [M+H]+
Name: Tri-n-hexyl trimellitate
Name: trihexyl benzene-1,2,4-tricarboxylate
Formula: C27H42O6
Exact mass: 462.2981
SMILES: CCCCCCOC(=O)C1=CC(=C(C=C1)C(=O)OCCCCCC)C(=O)OCCCCCC
InChI: InChI=1S/C27H42O6/c1-4-7-10-13-18-31-25(28)22-16-17-23(26(29)32-19-14-11-8-5-2)24(21-22)27(30)33-20-15-12-9-6-3/h16-17,21H,4-15,18-20H2,1-3H3
Instrument: Agilent 6560 QTOF
Instrument type: LC-ESI-QTOF
Ms type: MS2
Ion mode: POSITIVE
Ionization: ESI
Fragmentation mode: CID
Collision energy: 10 eV
Resolution: 7000
Retention time: 0.111 min
Base peak: 371.1012
Precursor m/z: 463.3054
Precursor type: [M+H]+
Precursor intensity: 37526.45
m/z	relative intensity	assigned
85.1018	9	C6H13+
137.0219	10	C7H5O3+
193.0123	52	C9H5O5+
207.0292	13	C10H7O5+
223.063	17	C11H11O5+
277.1067	999	C15H17O5+
278.1104	70	C22H14+
281.0507	16	C16H9O5+
297.0799	11	C17H13O5+
