Mass spectrum: Tris(2-ethylhexyl)phosphate; LC-ESI-QTOF; MS2; CE: 30eV; R=7000; [M+H]+
Name: Tris(2-ethylhexyl)phosphate
Name: tris(2-ethylhexyl) phosphate
Formula: C24H51O4P
Exact mass: 434.3525
SMILES: CCCCC(CC)COP(=O)(OCC(CC)CCCC)OCC(CC)CCCC
InChI: InChI=1S/C24H51O4P/c1-7-13-16-22(10-4)19-26-29(25,27-20-23(11-5)17-14-8-2)28-21-24(12-6)18-15-9-3/h22-24H,7-21H2,1-6H3
Instrument: Agilent 6560 QTOF
Instrument type: LC-ESI-QTOF
Ms type: MS2
Ion mode: POSITIVE
Ionization: ESI
Fragmentation mode: CID
Collision energy: 30 eV
Resolution: 7000
Retention time: 0.115 min
Base peak: 98.9842
Precursor m/z: 435.3598
Precursor type: [M+H]+
Precursor intensity: 78701.39
m/z	relative intensity	assigned
57.0703	168	C4H9+
62.9631	8	O2P+
71.0857	86	C5H11+
80.9736	68	H2O3P+
98.9842	999	H4O4P+
