Mass spectrum: THEOPHYLLINE; LC-ESI-QTOF; MS2; CE: 20eV; R=5000; [M+H]+
Name: THEOPHYLLINE
Name: 1,3-dimethyl-7H-purine-2,6-dione
Formula: C7H8N4O2
Exact mass: 180.0647
SMILES: CN1C2=C(NC=N2)C(=O)N(C)C1=O
InChI: InChI=1S/C7H8N4O2/c1-10-5-4(8-3-9-5)6(12)11(2)7(10)13/h3H,1-2H3,(H,8,9)
Instrument: Agilent 6530 QTOF
Instrument type: LC-ESI-QTOF
Ms type: MS2
Ion mode: POSITIVE
Ionization: ESI
Fragmentation mode: CID
Collision energy: 20 eV
Resolution: 5000
Column name: N/A
Retention time: 0.252 min
Base peak: 181.0721
Precursor m/z: 181.072
Precursor type: [M+H]+
Precursor intensity: 1647001
m/z	relative intensity	assigned
42.0341	329	C2H4N+
55.0287	7	C2H3N2+
57.0446	3	C2H5N2+
66.0326	4	C4H4N+
67.0281	6	C3H3N2+
69.0441	299	C3H5N2+
81.0445	16	C4H5N2+
82.0541	1	C4H6N2+
83.0227	22	C3H3N2O+
93.0437	12	C5H5N2+
94.0377	22	C4H4N3+
96.0542	318	C4H6N3+
109.0248	24	C4H3N3O+
120.0533	9	C6H6N3+
123.0421	1	C5H5N3O+
124.0489	999	C5H6N3O+
137.0802	37	C6H9N4+
139.0358	1	C5H5N3O2+
149.0439	5	C6H5N4O+
152.0442	1	C6H6N3O2+
163.0591	4	C7H7N4O+
181.0694	324	C7H9N4O2+
