Mass spectrum: Mono(2-propyl-6-carboxyhexyl) phthalate; LC-ESI-QTOF; MS2; CE: 40eV; R=7000; [M-H]-
Name: Mono(2-propyl-6-carboxyhexyl) phthalate
Name: 2-(((6-Carboxy-2-propylhexyl)oxy)carbonyl)benzoic acid
Name: 2-(6-carboxy-2-propylhexoxy)carbonylbenzoic acid
Formula: C18H24O6
Exact mass: 336.1573
SMILES: CCCC(CCCCC(=O)O)COC(=O)c1ccccc1C(=O)O
InChI: InChI=1S/C18H24O6/c1-2-7-13(8-3-6-11-16(19)20)12-24-18(23)15-10-5-4-9-14(15)17(21)22/h4-5,9-10,13H,2-3,6-8,11-12H2,1H3,(H,19,20)(H,21,22)
Instrument: Agilent 6560 QTOF
Instrument type: LC-ESI-QTOF
Ms type: MS2
Ion mode: NEGATIVE
Ionization: ESI
Fragmentation mode: CID
Collision energy: 40 eV
Resolution: 7000
Column name: ZORBAX Extend-C18 3.5um, 2.1x50mm, Agilent Technologies
Retention time: 2.841 min
Base peak: 980.0164
Precursor m/z: 335.15
Precursor type: [M-H]-
Precursor intensity: 4072.48
m/z	relative intensity	assigned
77.04	999	C6H5-
141.1271	209	C9H17O-
