Mass spectrum: N-Heptadecanoyl-D-erythro-Sphingosine; LC-ESI-QTOF; MS2; CE: 20eV; R=7000; [M+HCOOH-H]-
Name: N-Heptadecanoyl-D-erythro-Sphingosine
Name: N-Heptadecanoylsphingosine
Name: N-[(E,2S,3R)-1,3-dihydroxyoctadec-4-en-2-yl]heptadecanamide
Formula: C35H69NO3
Exact mass: 551.5277
SMILES: OC[C@H](NC(CCCCCCCCCCCCCCCC)=O)[C@H](O)/C=C/CCCCCCCCCCCCC
InChI: InChI=1S/C35H69NO3/c1-3-5-7-9-11-13-15-17-19-21-23-25-27-29-31-35(39)36-33(32-37)34(38)30-28-26-24-22-20-18-16-14-12-10-8-6-4-2/h28,30,33-34,37-38H,3-27,29,31-32H2,1-2H3,(H,36,39)/b30-28+/t33-,34+/m0/s1
Instrument: Agilent 6560 QTOF
Instrument type: LC-ESI-QTOF
Ms type: MS2
Ion mode: NEGATIVE
Ionization: ESI
Fragmentation mode: CID
Collision energy: 20 eV
Resolution: 7000
Column name: N/A
Retention time: 0.239 min
Base peak: 610.5427
Precursor m/z: 596.5259
Precursor type: [M+HCOOH-H]-
Precursor intensity: 9825
m/z	relative intensity	assigned
237.2187	117	C16H29O-
238.2216	203	C15H28NO-
263.2363	100	C18H31O-
269.2427	70	C17H33O2-
290.0341	38	C21H6O2-
293.1315	22	C23H17-
294.2788	173	C16H38O4-
294.5108	49	C11H68NO5-
298.2697	205	C15H38O5-
521.5067	43	C30H67NO5-
536.4925	91	C34H64O4-
550.5185	999	C35H68NO3-
551.521	237	C35H69NO3-
573.3404	65	C36H47NO5-
578.5232	41	C36H68NO4-
