Mass spectrum: Diisononyl hexahydrophthalate; LC-ESI-QTOF; MS2; CE: 60eV; R=7000; [M+H]+
Name: Diisononyl hexahydrophthalate
Name: bis(7-methyloctyl) cyclohexane-1,2-dicarboxylate
Formula: C26H48O4
Exact mass: 424.3553
SMILES: CC(C)CCCCCCOC(=O)C1CCCCC1C(=O)OCCCCCCC(C)C
InChI: InChI=1S/C26H48O4/c1-21(2)15-9-5-7-13-19-29-25(27)23-17-11-12-18-24(23)26(28)30-20-14-8-6-10-16-22(3)4/h21-24H,5-20H2,1-4H3
Instrument: Agilent 6560 QTOF
Instrument type: LC-ESI-QTOF
Ms type: MS2
Ion mode: POSITIVE
Ionization: ESI
Fragmentation mode: CID
Collision energy: 60 eV
Resolution: 7000
Retention time: 0.115 min
Base peak: 447.3449
Precursor m/z: 425.3625
Precursor type: [M+H]+
Precursor intensity: 22442.63
m/z	relative intensity	assigned
55.0554	31	C4H7+
57.0703	247	C4H9+
67.054	34	C5H7+
71.0847	61	C5H11+
79.054	107	C6H7+
81.0699	999	C6H9+
85.1011	27	C6H13+
109.0644	15	C7H9O+
