Mass spectrum: Prostaglandin E2; LC-ESI-QTOF; MS2; CE: 10eV; R=7000; [M-H2O+H]+
Name: Prostaglandin E2
Name: Dinoprostone
Name: (Z)-7-[(1R,2R,3R)-3-hydroxy-2-[(E,3S)-3-hydroxyoct-1-enyl]-5-oxocyclopentyl]hept-5-enoic acid
Formula: C20H32O5
Exact mass: 352.2250
SMILES: CCCCC[C@H](O)\C=C\[C@H]1[C@H](O)CC(=O)[C@@H]1C\C=C/CCCC(=O)O
InChI: InChI=1S/C20H32O5/c1-2-3-6-9-15(21)12-13-17-16(18(22)14-19(17)23)10-7-4-5-8-11-20(24)25/h4,7,12-13,15-17,19,21,23H,2-3,5-6,8-11,14H2,1H3,(H,24,25)/b7-4-,13-12+/t15-,16+,17+,19+/m0/s1
Instrument: Agilent 6560 QTOF
Instrument type: LC-ESI-QTOF
Ms type: MS2
Ion mode: POSITIVE
Ionization: ESI
Fragmentation mode: CID
Collision energy: 10 eV
Resolution: 7000
Column name: Direct injection
Retention time: 0.211 min
Base peak: 388.3946
Precursor m/z: 335.2217
Precursor type: [M-H2O+H]+
Precursor intensity: 24060
m/z	relative intensity	assigned
79.054	255	C6H7+
81.0694	480	C6H9+
95.0858	426	C7H11+
105.0686	257	C8H9+
109.1	452	C8H13+
119.0851	422	C9H11+
121.0995	101	C9H13+
123.0812	293	C8H11O+
131.0869	332	C10H11+
135.0798	363	C9H11O+
141.0701	171	C11H9+
146.0708	253	C10H10O+
147.1196	209	C11H15+
157.102	155	C12H13+
169.1013	311	C13H13+
171.1155	570	C13H15+
173.0964	578	C12H13O+
173.1348	290	C13H17+
183.1159	237	C14H15+
189.0876	88	C12H13O2+
191.1067	468	C12H15O2+
195.1216	364	C15H15+
197.1322	160	C15H17+
199.1113	274	C14H15O+
201.1313	197	C14H17O+
203.1779	312	C15H23+
209.1504	63	C13H21O2+
211.1475	92	C16H19+
215.1079	197	C14H15O2+
219.1734	91	C15H23O+
227.1779	350	C17H23+
229.1966	394	C17H25+
233.1585	502	C15H21O2+
239.1781	271	C18H23+
245.1928	479	C17H25O+
247.2053	214	C17H27O+
253.1977	173	C19H25+
255.1773	486	C18H23O+
257.1864	333	C18H25O+
263.1742	418	C20H23+
263.196	496	C17H27O2+
265.2163	592	C17H29O2+
271.2055	61	C19H27O+
273.1875	118	C18H25O2+
274.1877	142	C18H26O2+
291.1909	173	C18H27O3+
299.1998	858	C20H27O2+
317.2083	999	C20H29O3+
335.2219	329	C20H31O4+
