Mass spectrum: ADENOSINE23CYCLICPHOSPHATE; LC-ESI-QTOF; MS2; CE: 40eV; R=5000; [M+H]+
Name: ADENOSINE23CYCLICPHOSPHATE
Name: Adenosine 2`,3`-cyclic phosphate
Name: [4-(6-aminopurin-9-yl)-2-hydroxy-2-oxo-3a,4,6,6a-tetrahydrofuro[3,4-d][1,3,2]dioxaphosphol-6-yl]methanol
Formula: C10H12N5O6P
Exact mass: 329.0525
SMILES: NC1=NC=NC2=C1N=CN2C1OC(CO)C2OP(O)(=O)OC12
InChI: InChI=1S/C10H12N5O6P/c11-8-5-9(13-2-12-8)15(3-14-5)10-7-6(4(1-16)19-10)20-22(17,18)21-7/h2-4,6-7,10,16H,1H2,(H,17,18)(H2,11,12,13)
Instrument: Agilent 6530 QTOF
Instrument type: LC-ESI-QTOF
Ms type: MS2
Ion mode: POSITIVE
Ionization: ESI
Fragmentation mode: CID
Collision energy: 40 eV
Resolution: 5000
Column name: N/A
Retention time: 0.220 min
Base peak: 121.0508
Precursor m/z: 330.0598
Precursor type: [M+H]+
Precursor intensity: 83688
m/z	relative intensity	assigned
44.0488	16	C2H6N+
62.9641	37	O2P+
67.0157	3	C2HN3+
69.0333	204	C4H5O+
80.9725	128	H2O3P+
84.0818	24	CH13N2P+
85.0307	2	H8NO2P+
85.0837	12	H11N3O2+
87.0433	20	C2H5N3O+
94.9863	25	HNO5+
97.0267	50	C3H3N3O+
98.984	289	H4O4P+
99.9998	2	H4O6+
100.095	12	H12N4O2+
110.9958	8	H4N2O3P+
115.0341	1	H7N2O5+
119.033	221	C2H5N3O3+
122.982	24	H2N3O3P+
136.0588	999	C2H8N4O3+
137.0712	6	C3H12N3OP+
138.0244	3	H4N5O4+
147.0656	24	C6H11O4+
148.0487	9	H11N3O4P+
148.99	1	C6H2N2OP+
158.0627	4	CH10N4O5+
164.9778	21	C10NP+
178.0969	1	C9H12N3O+
184.0195	2	C10H5N2P+
186.0698	3	C8H13NO2P+
