Mass spectrum: Nervonic acid; LC-ESI-QTOF; MS2; CE: 40eV; R=7000; [M-H]-
Name: Nervonic acid
Name: (Z)-tetracos-15-enoic acid
Formula: C24H46O2
Exact mass: 366.3498
SMILES: CCCCCCCC\C=C/CCCCCCCCCCCCCC(O)=O
InChI: InChI=1S/C24H46O2/c1-2-3-4-5-6-7-8-9-10-11-12-13-14-15-16-17-18-19-20-21-22-23-24(25)26/h9-10H,2-8,11-23H2,1H3,(H,25,26)/b10-9-
Instrument: Agilent 6560 QTOF
Instrument type: LC-ESI-QTOF
Ms type: MS2
Ion mode: NEGATIVE
Ionization: ESI
Fragmentation mode: CID
Collision energy: 40 eV
Resolution: 7000
Column name: N/A
Retention time: 0.163 min
Base peak: 365.3425
Precursor m/z: 365.3425
Precursor type: [M-H]-
Precursor intensity: 3036529
m/z	relative intensity	assigned
70.3244	113	CH42O-
71.0508	96	C4H7O-
73.0084	112	C6H-
74.1311	79	C2H18O2-
74.1679	108	C3H22O-
75.1746	85	C3H23O-
76.1472	112	C2H20O2-
77.0041	134	C5HO-
78.294	105	C2H38O-
80.0624	113	C6H8-
80.1226	119	C4H16O-
81.1845	93	C2H25O2-
82.0804	138	C6H10-
84.1166	91	C3H16O2-
85.1253	123	C3H17O2-
86.1332	432	C3H18O2-
87.0471	105	C4H7O2-
87.2317	97	C2H31O2-
87.3072	113	C4H39-
92.1209	113	C5H16O-
92.9984	136	C5HO2-
93.0336	92	C6H5O-
95.0141	108	C5H3O2-
96.1172	101	C4H16O2-
96.281	111	C5H36-
97.0641	109	C6H9O-
98.0377	108	C5H6O2-
98.2062	63	C6H26-
98.2615	118	C4H34O-
99.1197	122	C7H15-
99.1405	109	C4H19O2-
99.175	119	C5H23O-
99.2316	105	C3H31O2-
100.1241	97	C7H16-
102.2011	88	C5H26O-
102.2909	92	C4H38O-
102.331	105	C5H42-
103.9894	107	C6O2-
104.1781	105	C4H24O2-
104.2154	94	C5H28O-
106.0797	126	C8H10-
106.1964	101	C4H26O2-
106.2875	96	C3H38O2-
107.0506	97	C7H7O-
107.1803	92	C7H23-
107.2005	88	C4H27O2-
107.3326	103	C4H43O-
108.0225	101	C6H4O2-
108.3014	98	C3H40O2-
109.1579	97	C6H21O-
109.194	109	C7H25-
109.3461	87	C4H45O-
111.1374	127	C5H19O2-
111.3061	97	C6H39-
112.0323	103	C9H4-
112.1453	92	C5H20O2-
113.1328	80	C8H17-
114.0684	103	C6H10O2-
115.3356	106	C6H43-
116.1794	71	C5H24O2-
117.1883	113	C5H25O2-
119.2735	118	C7H35-
121.1252	88	C6H17O2-
122.129	122	C6H18O2-
122.2624	103	C6H34O-
123.0236	88	C10H3-
124.3373	95	C4H44O2-
125.2861	113	C6H37O-
127.0184	130	C9H3O-
128.1192	126	C8H16O-
128.3093	92	C6H40O-
129.0946	113	C7H13O2-
130.1906	100	C6H26O2-
131.1089	116	C7H15O2-
131.2372	105	C7H31O-
131.2775	113	C8H35-
132.1187	99	C7H16O2-
132.1874	105	C9H24-
133.1577	90	C8H21O-
133.2912	63	C8H37-
135.3062	127	C8H39-
135.9968	106	C10O-
136.3138	101	C8H40-
137.1329	95	C10H17-
137.2513	96	C6H33O2-
138.2362	105	C9H30-
138.2926	100	C7H38O-
138.3258	97	C8H42-
139.0783	130	C8H11O2-
142.1369	92	C9H18O-
143.1067	92	C8H15O2-
144.0567	105	C10H8O-
144.1135	70	C8H16O2-
144.1877	105	C10H24-
146.0363	84	C9H6O2-
146.1072	109	C11H14-
146.1647	111	C9H22O-
146.2637	93	C8H34O-
146.3169	88	C6H42O2-
147.2687	109	C8H35O-
149.2864	122	C8H37O-
150.0723	109	C9H10O2-
151.15	110	C11H19-
151.2994	97	C8H39O-
152.123	130	C10H16O-
153.3126	70	C8H41O-
155.1076	252	C9H15O2-
155.1808	101	C11H23-
156.2092	119	C8H28O2-
156.2791	79	C10H36-
159.3257	96	C7H43O2-
160.0554	91	C10H8O2-
160.1292	130	C12H16-
160.183	84	C10H24O-
160.2223	86	C11H28-
161.1581	100	C9H21O2-
162.0146	88	C12H2O-
162.257	80	C8H34O2-
162.3254	106	C10H42-
164.0297	105	C12H4O-
164.2171	109	C10H28O-
165.0384	71	C12H5O-
165.0923	106	C10H13O2-
165.1279	309	C11H17O-
165.1655	126	C12H21-
165.276	92	C8H37O2-
165.3203	109	C9H41O-
166.2915	105	C8H38O2-
169.0112	143	C14H-
169.069	114	C12H9O-
169.1246	401	C10H17O2-
169.1969	114	C12H25-
170.0163	110	C14H2-
171.331	79	C8H43O2-
172.0342	106	C14H4-
172.0882	111	C12H12O-
173.0043	120	C13HO-
173.1343	108	C13H17-
175.244	88	C12H31-
175.261	121	C9H35O2-
175.2991	105	C10H39O-
175.3401	97	C11H43-
177.258	134	C12H33-
178.0766	92	C14H10-
179.2374	117	C11H31O-
180.1921	109	C13H24-
182.3002	104	C12H38-
183.1413	255	C11H19O2-
183.3039	92	C12H39-
184.314	105	C12H40-
185.0041	107	C14HO-
185.3421	111	C9H45O2-
186.1024	92	C13H14O-
187.0145	91	C14H3O-
188.0594	108	C15H8-
188.0849	89	C12H12O2-
188.2727	109	C10H36O2-
188.9957	89	C13HO2-
189.2199	85	C12H29O-
191.0538	109	C14H7O-
191.2054	92	C11H27O2-
191.2972	88	C10H39O2-
193.0279	100	C13H5O2-
193.0996	107	C15H13-
193.1983	112	C14H25-
194.1119	117	C15H14-
194.2073	109	C14H26-
194.3168	117	C10H42O2-
195.1372	109	C12H19O2-
195.1793	101	C13H23O-
195.2286	120	C11H31O2-
196.0309	114	C16H4-
197.0595	113	C13H9O2-
197.34	104	C10H45O2-
198.1428	101	C15H18-
199.2023	106	C13H27O-
201.1329	102	C14H17O-
201.1616	82	C15H21-
201.254	80	C14H33-
201.3529	103	C13H45-
202.2341	120	C13H30O-
203.0551	94	C15H7O-
203.2697	92	C14H35-
204.0906	113	C16H12-
204.1545	113	C14H20O-
204.243	80	C13H32O-
205.0264	113	C14H5O2-
206.1346	102	C13H18O2-
206.2935	88	C14H38-
206.3177	132	C11H42O2-
207.1368	126	C13H19O2-
207.2283	97	C12H31O2-
208.1217	109	C16H16-
209.1952	97	C14H25O-
209.3429	113	C11H45O2-
210.1978	88	C14H26O-
210.2362	135	C15H30-
211.0227	92	C16H3O-
211.053	67	C17H7-
211.1115	131	C15H15O-
211.2416	75	C15H31-
213.1855	107	C13H25O2-
213.255	105	C15H33-
213.3212	123	C13H41O-
214.192	100	C13H26O2-
214.3192	109	C13H42O-
215.1062	90	C14H15O2-
217.0087	84	C18H-
217.0972	88	C17H13-
217.198	118	C16H25-
219.0409	101	C15H7O2-
219.2279	105	C13H31O2-
220.054	115	C15H8O2-
220.1808	118	C15H24O-
220.34	101	C12H44O2-
221.3229	126	C15H41-
222.2009	109	C15H26O-
222.2875	102	C14H38O-
223.1096	71	C16H15O-
223.3015	80	C14H39O-
223.336	103	C15H43-
224.0273	113	C17H4O-
224.246	114	C16H32-
224.3468	131	C15H44-
225.0379	134	C17H5O-
226.0025	93	C16H2O2-
226.0442	78	C17H6O-
226.1911	96	C14H26O2-
226.2357	100	C15H30O-
227.1436	93	C16H19O-
227.2023	103	C14H27O2-
228.3439	82	C14H44O-
229.0694	74	C17H9O-
229.2584	114	C15H33O-
231.2305	117	C14H31O2-
231.2731	105	C15H35O-
231.3273	114	C13H43O2-
233.0567	84	C16H9O2-
234.2574	88	C14H34O2-
234.2884	85	C15H38O-
236.0615	79	C19H8-
237.1601	80	C18H21-
238.105	93	C16H14O2-
239.2352	102	C16H31O-
239.2769	99	C17H35-
239.3332	113	C15H43O-
239.9997	131	C20-
240.2765	101	C17H36-
241.0289	117	C17H5O2-
242.0154	105	C20H2-
242.1348	100	C16H18O2-
242.22	118	C15H30O2-
242.3151	79	C14H42O2-
243.0847	92	C18H11O-
243.1709	71	C17H23O-
243.2709	109	C16H35O-
244.2136	100	C18H28-
246.0147	88	C19H2O-
246.0708	95	C17H10O2-
247.0611	92	C20H7-
247.152	118	C19H19-
247.2011	99	C17H27O-
247.3042	121	C16H39O-
248.0217	79	C19H4O-
248.0632	76	C20H8-
249.0648	84	C20H9-
249.1321	105	C18H17O-
249.2827	92	C15H37O2-
249.3557	90	C17H45-
250.1724	121	C19H22-
251.1982	92	C16H27O2-
252.2413	109	C17H32O-
253.2919	115	C18H37-
254.0345	105	C18H6O2-
254.2959	130	C18H38-
254.3249	85	C15H42O2-
255.025	92	C21H3-
255.0878	97	C19H11O-
255.2131	98	C19H27-
256.0944	122	C19H12O-
256.3191	136	C18H40-
257.1295	121	C20H17-
258.2599	96	C16H34O2-
259.0241	95	C20H3O-
259.1679	96	C17H23O2-
259.338	91	C18H43-
260.1775	93	C17H24O2-
260.277	100	C16H36O2-
260.3483	105	C18H44-
261.2585	100	C19H33-
261.3537	106	C18H45-
262.0976	107	C18H14O2-
263.1994	101	C17H27O2-
264.0264	118	C19H4O2-
264.184	120	C20H24-
265.1968	77	C20H25-
265.3056	117	C16H41O2-
266.2301	88	C17H30O2-
266.2591	100	C18H34O-
266.2973	88	C19H38-
267.0488	92	C19H7O2-
267.2663	98	C18H35O-
267.2999	117	C19H39-
268.1523	89	C18H20O2-
268.3171	113	C19H40-
269.2492	92	C17H33O2-
270.01	113	C21H2O-
270.1608	105	C18H22O2-
270.325	106	C19H42-
271.0546	84	C22H7-
271.1467	84	C21H19-
272.0237	110	C21H4O-
272.1633	123	C21H20-
274.0752	101	C22H10-
275.1059	98	C19H15O2-
275.1414	124	C20H19O-
275.1852	109	C21H23-
275.2891	89	C17H39O2-
276.1944	91	C21H24-
278.1285	117	C19H18O2-
278.2025	109	C21H26-
278.2277	102	C18H30O2-
279.1134	88	C22H15-
280.236	108	C18H32O2-
281.0944	101	C21H13O-
281.1402	118	C22H17-
281.1929	96	C20H25O-
281.2428	92	C18H33O2-
282.1676	109	C19H22O2-
283.1176	134	C21H15O-
283.175	88	C19H23O2-
283.2609	235	C18H35O2-
284.027	91	C22H4O-
285.22	201	C20H29O-
285.2578	105	C21H33-
285.3465	117	C20H45-
286.0444	123	C22H6O-
286.1726	105	C22H22-
286.2602	101	C21H34-
287.0842	115	C23H11-
288.0921	84	C23H12-
289.0265	109	C21H5O2-
289.1194	123	C20H17O2-
289.2605	92	C20H33O-
290.0335	122	C21H6O2-
291.0269	84	C24H3-
293.2287	92	C22H29-
294.1041	91	C22H14O-
295.2657	122	C19H35O2-
295.3418	84	C21H43-
295.9858	135	C22O2-
296.0619	130	C24H8-
296.1711	97	C20H24O2-
296.2498	93	C22H32-
296.303	67	C20H40O-
297.0732	109	C24H9-
297.2211	114	C21H29O-
297.3557	115	C21H45-
298.0352	109	C23H6O-
299.2452	109	C21H31O-
301.0263	87	C22H5O2-
301.1211	105	C21H17O2-
301.2202	122	C20H29O2-
302.2008	100	C23H26-
303.0799	96	C23H11O-
303.2152	96	C23H27-
304.1299	105	C24H16-
305.0001	86	C24HO-
305.1847	109	C22H25O-
306.1924	124	C22H26O-
306.2917	100	C21H38O-
307.1089	97	C23H15O-
307.2398	103	C23H31-
307.2592	65	C20H35O2-
308.1802	117	C21H24O2-
308.2657	97	C20H36O2-
308.347	91	C22H44-
308.9984	68	C23HO2-
312.1543	113	C23H20O-
312.1951	96	C24H24-
312.2963	89	C20H40O2-
312.3441	91	C21H44O-
313.3158	126	C20H41O2-
314.066	84	C24H10O-
314.2112	113	C24H26-
315.1422	88	C22H19O2-
315.2703	101	C22H35O-
317.1579	84	C22H21O2-
317.2325	76	C24H29-
317.3171	82	C23H41-
319.0824	117	C23H11O2-
319.1695	88	C22H23O2-
319.2136	85	C23H27O-
320.1811	96	C22H24O2-
321.1261	113	C24H17O-
321.359	110	C23H45-
322.1894	113	C22H26O2-
322.2286	90	C23H30O-
323.1489	105	C24H19O-
323.3	119	C21H39O2-
325.1559	102	C24H21O-
325.3034	105	C21H41O2-
326.2613	114	C23H34O-
328.3293	124	C21H44O2-
329.3389	96	C21H45O2-
330.1551	113	C23H22O2-
331.2033	130	C24H27O-
333.1842	126	C23H25O2-
334.0986	88	C24H14O2-
334.2369	113	C24H30O-
339.1423	163	C24H19O2-
340.1507	109	C24H20O2-
342.169	92	C24H22O2-
343.1705	88	C24H23O2-
344.2752	105	C23H36O2-
345.3101	89	C24H41O-
347.3276	270	C24H43O-
351.3239	147	C23H43O2-
352.2487	105	C24H32O2-
353.254	93	C24H33O2-
353.3425	84	C23H45O2-
363.3318	121	C24H43O2-
365.3448	999	C24H45O2-
