Mass spectrum: Diphenylcresyl phosphate; LC-ESI-QTOF; MS2; CE: 15eV; R=7000; [M+H]+
Name: Diphenylcresyl phosphate
Name: Phosphoric acid, 2-methylphenyl diphenyl ester
Name: (2-methylphenyl) diphenyl phosphate
Formula: C19H17O4P
Exact mass: 340.0864
SMILES: CC1=CC=CC=C1OP(=O)(OC2=CC=CC=C2)OC3=CC=CC=C3
InChI: InChI=1S/C19H17O4P/c1-16-10-8-9-15-19(16)23-24(20,21-17-11-4-2-5-12-17)22-18-13-6-3-7-14-18/h2-15H,1H3
Instrument: Agilent 6560 QTOF
Instrument type: LC-ESI-QTOF
Ms type: MS2
Ion mode: POSITIVE
Ionization: ESI
Fragmentation mode: CID
Collision energy: 15 eV
Resolution: 7000
Retention time: 0.110 min
Base peak: 341.0943
Precursor m/z: 341.0937
Precursor type: [M+H]+
Precursor intensity: 163451.31
m/z	relative intensity	assigned
65.0379	6	C5H5+
77.0387	19	C6H5+
91.0544	74	C7H7+
107.0481	3	C7H7O+
109.0656	3	C7H9O+
135.0454	2	C8H7O2+
141.0723	2	C11H9+
151.0555	5	C12H7+
152.0616	63	C12H8+
153.0687	21	C12H9+
165.0697	36	C13H9+
166.0778	8	C13H10+
167.0854	48	C13H11+
171.0815	3	C12H11O+
175.0138	16	C6H8O4P+
182.0713	6	C6H15O4P+
183.081	3	C13H11O+
184.0863	3	C6H17O4P+
185.0959	9	C13H13O+
189.0301	2	C7H10O4P+
215.0245	19	C12H8O2P+
215.0851	3	C17H11+
227.0855	3	C18H11+
228.093	24	C18H12+
229.0414	65	C13H10O2P+
229.0966	3	C11H18O3P+
230.0447	9	C13H11O2P+
233.0354	16	C12H10O3P+
234.0409	2	C12H11O3P+
241.0977	2	C12H18O3P+
242.1083	2	C19H14+
243.1159	11	C19H15+
247.0518	42	C13H12O3P+
248.0551	3	C13H13O3P+
251.0462	9	C12H12O4P+
263.037	2	C16H7O4+
265.0612	33	C13H14O4P+
305.0725	4	C19H14O2P+
306.0746	2	C19H15O2P+
312.0851	2	C18H17O3P+
323.082	11	C19H16O3P+
341.0942	999	C19H18O4P+
