Mass spectrum: Prostaglandin E2; LC-ESI-QTOF; MS2; CE: 10eV; R=7000; [M+Na]+
Name: Prostaglandin E2
Name: Dinoprostone
Name: (Z)-7-[(1R,2R,3R)-3-hydroxy-2-[(E,3S)-3-hydroxyoct-1-enyl]-5-oxocyclopentyl]hept-5-enoic acid
Formula: C20H32O5
Exact mass: 352.2250
SMILES: CCCCC[C@H](O)\C=C\[C@H]1[C@H](O)CC(=O)[C@@H]1C\C=C/CCCC(=O)O
InChI: InChI=1S/C20H32O5/c1-2-3-6-9-15(21)12-13-17-16(18(22)14-19(17)23)10-7-4-5-8-11-20(24)25/h4,7,12-13,15-17,19,21,23H,2-3,5-6,8-11,14H2,1H3,(H,24,25)/b7-4-,13-12+/t15-,16+,17+,19+/m0/s1
Instrument: Agilent 6560 QTOF
Instrument type: LC-ESI-QTOF
Ms type: MS2
Ion mode: POSITIVE
Ionization: ESI
Fragmentation mode: CID
Collision energy: 10 eV
Resolution: 7000
Column name: Direct injection
Retention time: 0.211 min
Base peak: 388.3946
Precursor m/z: 375.2142
Precursor type: [M+Na]+
Precursor intensity: 25622
m/z	relative intensity	assigned
137.0912	6	C7H14NaO+
302.1853	10	C17H27NaO3+
357.0657	11	C20H14NaO5+
357.202	23	C20H30NaO4+
375.2132	999	C20H32NaO5+
