Mass spectrum: 1,2-diheptadecanoyl-sn-glycero-3-phosphate; LC-ESI-QTOF; MS2; CE: 10eV; R=7000; [M-H]-
Name: 1,2-diheptadecanoyl-sn-glycero-3-phosphate
Name: [(2R)-2-heptadecanoyloxy-3-phosphonooxypropyl] heptadecanoate
Formula: C37H73O8P
Exact mass: 676.5043
SMILES: [C@](COP(=O)(O)O)([H])(OC(CCCCCCCCCCCCCCCC)=O)COC(CCCCCCCCCCCCCCCC)=O
InChI: InChI=1S/C37H73O8P/c1-3-5-7-9-11-13-15-17-19-21-23-25-27-29-31-36(38)43-33-35(34-44-46(40,41)42)45-37(39)32-30-28-26-24-22-20-18-16-14-12-10-8-6-4-2/h35H,3-34H2,1-2H3,(H2,40,41,42)/t35-/m1/s1
Instrument: Agilent 6560 QTOF
Instrument type: LC-ESI-QTOF
Ms type: MS2
Ion mode: NEGATIVE
Ionization: ESI
Fragmentation mode: CID
Collision energy: 10 eV
Resolution: 7000
Column name: N/A
Retention time: 0.172 min
Base peak: 980.0164
Precursor m/z: 675.497
Precursor type: [M-H]-
Precursor intensity: 18709
m/z	relative intensity	assigned
78.9582	121	O3P-
110.0594	22	C3H10O4-
152.9944	69	C3H6O5P-
165.4551	16	C2H61O5-
177.4753	14	H65O7-
269.2475	221	C17H33O2-
333.0894	44	C17H18O5P-
405.2403	199	C20H38O6P-
423.2553	13	C27H35O4-
516.0796	24	C31H17O6P-
543.5456	14	C34H71O4-
569.1534	18	C36H26O5P-
675.4976	999	C37H72O8P-
