Mass spectrum: 11-Deoxycortisol; LC-ESI-QTOF; MS2; CE: 10eV; R=7000; [M+H]+
Name: 11-Deoxycortisol
Name: Reichsteins Substance S
Name: 17-hydroxy-17-(2-hydroxyacetyl)-10,13-dimethyl-2,6,7,8,9,11,12,14,15,16-decahydro-1H-cyclopenta[a]phenanthren-3-one
Formula: C21H30O4
Exact mass: 346.2144
SMILES: CC12CCC(=O)C=C1CCC3C2CCC4(C3CCC4(C(=O)CO)O)C
InChI: InChI=1S/C21H30O4/c1-19-8-5-14(23)11-13(19)3-4-15-16(19)6-9-20(2)17(15)7-10-21(20,25)18(24)12-22/h11,15-17,22,25H,3-10,12H2,1-2H3
Instrument: Agilent 6560 QTOF
Instrument type: LC-ESI-QTOF
Ms type: MS2
Ion mode: POSITIVE
Ionization: ESI
Fragmentation mode: CID
Collision energy: 10 eV
Resolution: 7000
Column name: Direct injection
Retention time: 0.210 min
Base peak: 437.1945
Precursor m/z: 347.2217
Precursor type: [M+H]+
Precursor intensity: 76007
m/z	relative intensity	assigned
77.0401	19	C6H5+
81.0698	20	C6H9+
83.0479	31	C5H7O+
93.0694	18	C7H9+
95.0857	44	C7H11+
97.0646	259	C6H9O+
99.0808	21	C6H11O+
105.0703	7	C8H9+
107.0832	13	C8H11+
109.0645	125	C7H9O+
111.0795	24	C7H11O+
115.0562	31	C9H7+
121.0653	23	C8H9O+
123.0805	45	C8H11O+
123.1159	11	C9H15+
130.0779	28	C10H10+
131.0833	19	C10H11+
137.1317	13	C10H17+
145.0635	9	C10H9O+
153.0898	28	C9H13O2+
159.1186	7	C12H15+
162.1363	8	C12H18+
163.109	14	C11H15O+
169.1012	13	C13H13+
171.0805	5	C12H11O+
171.1162	13	C13H15+
173.1	6	C12H13O+
173.1284	14	C13H17+
177.1268	19	C12H17O+
183.1172	17	C14H15+
185.0968	11	C13H13O+
185.128	10	C14H17+
187.1081	7	C13H15O+
187.1474	17	C14H19+
191.1405	18	C13H19O+
195.1164	16	C15H15+
197.0934	19	C14H13O+
201.1233	9	C14H17O+
201.1618	14	C15H21+
203.106	10	C13H15O2+
203.1438	8	C14H19O+
209.1322	24	C16H17+
211.153	7	C16H19+
215.1078	14	C14H15O2+
215.1453	19	C15H19O+
217.1191	27	C14H17O2+
219.1387	9	C14H19O2+
219.17	11	C15H23O+
221.1554	30	C14H21O2+
223.1505	16	C17H19+
233.1325	15	C18H17+
239.1398	17	C17H19O+
241.1549	40	C17H21O+
243.1709	14	C17H23O+
247.1699	19	C16H23O2+
249.1649	33	C19H21+
252.1857	27	C19H24+
269.192	51	C19H25O+
271.192	27	C15H27O4+
275.1795	20	C21H23+
293.1881	18	C21H25O+
299.2005	52	C20H27O2+
311.1988	44	C21H27O2+
317.2087	18	C20H29O3+
329.2105	119	C21H29O3+
347.222	999	C21H31O4+
