Mass spectrum: Tetrekis(2-chlorethyl) dichloroisopentyldiphosphate; LC-ESI-QTOF; MS2; CE: 40eV; R=7000; [M+H]+
Name: Tetrekis(2-chlorethyl) dichloroisopentyldiphosphate
Name: Phosphoric acid, 2,2-bis(chloromethyl)-1,3-propanediyl tetrakis(2-chloroethyl) ester
Name: [2-[bis(2-chloroethoxy)phosphoryloxymethyl]-3-chloro-2-(chloromethyl)propyl] bis(2-chloroethyl) phosphate
Formula: C13H24Cl6O8P2
Exact mass: 579.9078
SMILES: C(CCl)OP(=O)(OCCCl)OCC(COP(=O)(OCCCl)OCCCl)(CCl)CCl
InChI: InChI=1S/C13H24Cl6O8P2/c14-1-5-22-28(20,23-6-2-15)26-11-13(9-18,10-19)12-27-29(21,24-7-3-16)25-8-4-17/h1-12H2
Instrument: Agilent 6560 QTOF
Instrument type: LC-ESI-QTOF
Ms type: MS2
Ion mode: POSITIVE
Ionization: ESI
Fragmentation mode: CID
Collision energy: 40 eV
Resolution: 7000
Retention time: 0.111 min
Base peak: 582.9129
Precursor m/z: 580.915
Precursor type: [M+H]+
Precursor intensity: 20821.7
m/z	relative intensity	assigned
63.0002	216	C2H4Cl+
65.0389	336	C5H5+
75.0002	73	C2H4OP+
80.9745	37	CH2ClO2+
98.984	346	H4O4P+
101.0148	117	C4H6OP+
124.9997	91	C2H6O4P+
160.9748	54	CH7O5P2+
163.0149	83	C5H8O4P+
198.9918	30	C4H9O5P2+
234.968	999	C4H10ClO5P2+
260.9826	45	C2H17Cl4O5+
296.962	119	C8H13Cl4O3+
358.954	41	C10H16Cl5O3+
