Mass spectrum: Tris(2-chloroethyl) phosphate; LC-ESI-QTOF; MS2; CE: 15eV; R=7000; [M+H]+
Name: Tris(2-chloroethyl) phosphate
Formula: C6H12Cl3O4P
Exact mass: 283.9539
SMILES: C(CCl)OP(=O)(OCCCl)OCCCl
InChI: InChI=1S/C6H12Cl3O4P/c7-1-4-11-14(10,12-5-2-8)13-6-3-9/h1-6H2
Instrument: Agilent 6560 QTOF
Instrument type: LC-ESI-QTOF
Ms type: MS2
Ion mode: POSITIVE
Ionization: ESI
Fragmentation mode: CID
Collision energy: 15 eV
Resolution: 7000
Column name: ZORBAX Extend-C18 3.5um, 2.1x50mm, Agilent Technologies
Retention time: 1.774 min
Base peak: 284.9613
Precursor m/z: 284.9612
Precursor type: [M+H]+
Precursor intensity: 12290.68
m/z	relative intensity	assigned
63	999	C2H4Cl+
98.9841	804	H4O4P+
125.0005	263	C3H6ClO3+
160.9763	225	C2H7ClO4P+
222.9688	283	C4H10Cl2O4P+
284.9585	76	C6H13Cl3O4P+
