Mass spectrum: 5-Hydroxy-2-ethylhexyl diphenyl phosphate; LC-ESI-QTOF; MS2; CE: 10eV; R=7000; [M+H]+
Name: 5-Hydroxy-2-ethylhexyl diphenyl phosphate
Name: 2-Ethyl-5-hydroxyhexyl diphenyl phosphate
Name: (2-ethyl-5-hydroxyhexyl) diphenyl phosphate
Formula: C20H27O5P
Exact mass: 378.1596
SMILES: CCC(CCC(C)O)COP(=O)(Oc1ccccc1)Oc2ccccc2
InChI: InChI=1S/C20H27O5P/c1-3-18(15-14-17(2)21)16-23-26(22,24-19-10-6-4-7-11-19)25-20-12-8-5-9-13-20/h4-13,17-18,21H,3,14-16H2,1-2H3
Instrument: Agilent 6560 QTOF
Instrument type: LC-ESI-QTOF
Ms type: MS2
Ion mode: POSITIVE
Ionization: ESI
Fragmentation mode: CID
Collision energy: 10 eV
Resolution: 7000
Retention time: 0.113 min
Base peak: 251.0474
Precursor m/z: 379.1669
Precursor type: [M+H]+
Precursor intensity: 81932.48
m/z	relative intensity	assigned
69.0702	106	C5H9+
77.0382	11	C6H5+
111.1163	42	C8H15+
129.1275	11	C8H17O+
153.068	6	C5H14O3P+
154.0737	3	C5H15O3P+
175.0132	6	C6H8O4P+
176.0201	3	C6H9O4P+
215.0239	3	C12H8O2P+
251.0469	999	C12H12O4P+
252.0495	51	C12H13O4P+
