Mass spectrum: DEOXYADENOSINE; LC-ESI-QTOF; MS2; CE: 10eV; R=5000; [M+H]+
Name: DEOXYADENOSINE
Name: 2`-Deoxyadenosine
Name: (2R,3S,5R)-5-(6-aminopurin-9-yl)-2-(hydroxymethyl)oxolan-3-ol
Formula: C10H13N5O3
Exact mass: 251.1018
SMILES: NC1=C2N=CN([C@H]3C[C@H](O)[C@@H](CO)O3)C2=NC=N1
InChI: InChI=1S/C10H13N5O3/c11-9-8-10(13-3-12-9)15(4-14-8)7-1-5(17)6(2-16)18-7/h3-7,16-17H,1-2H2,(H2,11,12,13)/t5-,6+,7+/m0/s1
Instrument: Agilent 6530 QTOF
Instrument type: LC-ESI-QTOF
Ms type: MS2
Ion mode: POSITIVE
Ionization: ESI
Fragmentation mode: CID
Collision energy: 10 eV
Resolution: 5000
Column name: N/A
Retention time: 0.323 min
Base peak: 136.0619
Precursor m/z: 252.1091
Precursor type: [M+H]+
Precursor intensity: 28735
m/z	relative intensity	assigned
59.0473	126	CH5N3+
101.0716	10	C4H9N2O+
117.0533	59	C3H7N3O2+
136.0614	999	C5H6N5+
234.095	53	C10H12N5O2+
252.111	85	C10H14N5O3+
