Mass spectrum: Butyryl trihexyl citrate; LC-ESI-QTOF; MS2; CE: 55eV; R=7000; [M+H]+
Name: Butyryl trihexyl citrate
Name: trihexyl 2-butanoyloxypropane-1,2,3-tricarboxylate
Formula: C28H50O8
Exact mass: 514.3506
SMILES: CCCCCCOC(=O)CC(CC(=O)OCCCCCC)(C(=O)OCCCCCC)OC(=O)CCC
InChI: InChI=1S/C28H50O8/c1-5-9-12-15-19-33-25(30)22-28(36-24(29)18-8-4,27(32)35-21-17-14-11-7-3)23-26(31)34-20-16-13-10-6-2/h5-23H2,1-4H3
Instrument: Agilent 6560 QTOF
Instrument type: LC-ESI-QTOF
Ms type: MS2
Ion mode: POSITIVE
Ionization: ESI
Fragmentation mode: CID
Collision energy: 55 eV
Resolution: 7000
Retention time: 0.110 min
Base peak: 537.3393
Precursor m/z: 515.3578
Precursor type: [M+H]+
Precursor intensity: 27957.73
m/z	relative intensity	assigned
57.0703	218	C4H9+
61.0295	50	C2H5O2+
68.9975	999	C3HO2+
71.0491	262	C4H7O+
85.1015	104	C6H13+
87.0079	90	C3H3O3+
89.061	124	C4H9O2+
111.0081	965	C5H3O3+
112.0134	41	C5H4O3+
129.018	646	C5H5O4+
139.0028	694	C6H3O4+
189.0769	38	C8H13O5+
