Mass spectrum: Diphenylcresyl phosphate; LC-ESI-QTOF; MS2; CE: 25eV; R=7000; [M+H]+
Name: Diphenylcresyl phosphate
Name: Phosphoric acid, 2-methylphenyl diphenyl ester
Name: (2-methylphenyl) diphenyl phosphate
Formula: C19H17O4P
Exact mass: 340.0864
SMILES: CC1=CC=CC=C1OP(=O)(OC2=CC=CC=C2)OC3=CC=CC=C3
InChI: InChI=1S/C19H17O4P/c1-16-10-8-9-15-19(16)23-24(20,21-17-11-4-2-5-12-17)22-18-13-6-3-7-14-18/h2-15H,1H3
Instrument: Agilent 6560 QTOF
Instrument type: LC-ESI-QTOF
Ms type: MS2
Ion mode: POSITIVE
Ionization: ESI
Fragmentation mode: CID
Collision energy: 25 eV
Resolution: 7000
Retention time: 0.110 min
Base peak: 341.0936
Precursor m/z: 341.0937
Precursor type: [M+H]+
Precursor intensity: 149577.3
m/z	relative intensity	assigned
51.0235	43	C4H3+
65.0388	150	C5H5+
77.0386	294	C6H5+
79.055	30	C6H7+
91.0541	999	C7H7+
92.0583	55	H13O3P+
93.0348	14	C6H5O+
95.0488	26	C6H7O+
107.0492	59	C7H7O+
127.0549	10	C10H7+
129.0693	10	C10H9+
141.0669	13	C4H14O3P+
151.0543	43	C12H7+
152.0619	781	C12H8+
153.0689	144	C12H9+
154.0167	13	C7H7O2P+
154.0752	18	C5H15O3P+
165.0698	520	C13H9+
166.0777	113	C13H10+
167.0847	297	C13H11+
168.0556	30	C5H13O4P+
168.0878	24	C6H17O3P+
171.0796	20	C12H11O+
175.0156	67	C6H8O4P+
182.072	119	C13H10O+
183.0801	37	C13H11O+
184.0876	14	C13H12O+
185.0955	57	C13H13O+
201.0474	35	C12H10OP+
215.0248	189	C12H8O2P+
216.0301	18	C12H9O2P+
219.0574	12	C12H12O2P+
227.0859	41	C18H11+
228.0928	273	C18H12+
229.0409	631	C13H10O2P+
230.0443	89	C13H11O2P+
233.0351	47	C12H10O3P+
234.0389	12	C12H11O3P+
241.1001	14	C19H13+
242.1066	15	C19H14+
243.1148	32	C19H15+
247.0517	171	C13H12O3P+
251.0465	130	C12H12O4P+
265.0617	216	C13H14O4P+
266.0647	21	C13H15O4P+
305.0732	32	C19H14O2P+
323.0806	15	C19H16O3P+
341.0932	563	C19H18O4P+
