Mass spectrum: 1,2-dipentadecanoyl-sn-glycero-3-phospho-(1-sn-glycerol); LC-ESI-QTOF; MS2; CE: 10eV; R=7000; [M-H]-
Name: 1,2-dipentadecanoyl-sn-glycero-3-phospho-(1-sn-glycerol)
Name: 1,2-Dipentadecanoyl-sn-glycero-3-phosphoglycerol
Name: [(2R)-3-[2,3-dihydroxypropoxy(hydroxy)phosphoryl]oxy-2-pentadecanoyloxypropyl] pentadecanoate
Formula: C36H71O10P
Exact mass: 694.4785
SMILES: CCCCCCCCCCCCCCC(=O)OC[C@H](COP(=O)(O)OCC(CO)O)OC(=O)CCCCCCCCCCCCCC
InChI: InChI=1S/C36H71O10P/c1-3-5-7-9-11-13-15-17-19-21-23-25-27-35(39)43-31-34(32-45-47(41,42)44-30-33(38)29-37)46-36(40)28-26-24-22-20-18-16-14-12-10-8-6-4-2/h33-34,37-38H,3-32H2,1-2H3,(H,41,42)/t33?,34-/m1/s1
Instrument: Agilent 6560 QTOF
Instrument type: LC-ESI-QTOF
Ms type: MS2
Ion mode: NEGATIVE
Ionization: ESI
Fragmentation mode: CID
Collision energy: 10 eV
Resolution: 7000
Column name: N/A
Retention time: 0.165 min
Base peak: 693.4732
Precursor m/z: 693.4712
Precursor type: [M-H]-
Precursor intensity: 272340
m/z	relative intensity	assigned
78.9576	1	O3P-
148.2144	3	C3H33O3P-
152.9953	7	C3H6O5P-
171.0049	3	C3H8O6P-
218.3665	1	C10H51OP-
227.0477	2	C10H12O4P-
241.219	184	C15H29O2-
242.2255	17	C15H30O2-
242.3313	1	C11H47O2P-
243.1239	2	C12H19O5-
328.1119	1	C22H16O3-
377.2096	21	C18H34O6P-
378.2178	4	C18H35O6P-
395.2151	1	C25H32O2P-
449.0458	1	C30H9O5-
451.2492	10	C28H35O5-
452.2493	2	C28H37O3P-
464.1389	1	C26H25O6P-
469.2559	9	C21H42O9P-
470.1252	1	C35H19P-
470.2506	2	C24H38O9-
539.2766	1	C28H44O8P-
560.4324	2	C31H60O8-
690.4382	1	C36H67O10P-
693.4726	999	C36H70O10P-
