Mass spectrum: Deoxycholic acid; LC-ESI-QTOF; MS2; CE: 40eV; R=7000; [M-H]-
Name: Deoxycholic acid
Name: (4R)-4-[(3R,5R,8R,9S,10S,12S,13R,14S,17R)-3,12-dihydroxy-10,13-dimethyl-2,3,4,5,6,7,8,9,11,12,14,15,16,17-tetradecahydro-1H-cyclopenta[a]phenanthren-17-yl]pentanoic acid
Formula: C24H40O4
Exact mass: 392.2927
SMILES: C[C@H](CCC(=O)O)[C@H]1CC[C@@H]2[C@@]1([C@H](C[C@H]3[C@H]2CC[C@H]4[C@@]3(CC[C@H](C4)O)C)O)C
InChI: InChI=1S/C24H40O4/c1-14(4-9-22(27)28)18-7-8-19-17-6-5-15-12-16(25)10-11-23(15,2)20(17)13-21(26)24(18,19)3/h14-21,25-26H,4-13H2,1-3H3,(H,27,28)/t14-,15-,16-,17+,18-,19+,20+,21+,23+,24-/m1/s1
Instrument: Agilent 6560 QTOF
Instrument type: LC-ESI-QTOF
Ms type: MS2
Ion mode: NEGATIVE
Ionization: ESI
Fragmentation mode: CID
Collision energy: 40 eV
Resolution: 7000
Column name: N/A
Retention time: 0.168 min
Base peak: 357.19
Precursor m/z: 391.2854
Precursor type: [M-H]-
Precursor intensity: 202994
m/z	relative intensity	assigned
71.0506	3	C4H7O-
95.0494	7	C6H7O-
107.0483	15	C7H7O-
109.0672	26	C7H9O-
111.0816	9	C7H11O-
123.0844	12	C8H11O-
125.0976	21	C8H13O-
125.1195	4	C5H17O3-
142.2124	3	C4H30O4-
149.0068	12	C11HO-
149.1311	7	C11H17-
150.0109	10	C11H2O-
165.127	6	C11H17O-
166.0263	10	C8H6O4-
179.144	8	C12H19O-
184.0867	6	C13H12O-
193.1252	9	C12H17O2-
195.0821	32	C14H11O-
196.0909	16	C14H12O-
207.1352	7	C13H19O2-
221.155	20	C14H21O2-
227.145	9	C16H19O-
228.0383	17	C13H8O4-
229.1556	12	C16H21O-
231.1781	2	C16H23O-
243.1775	5	C17H23O-
245.1579	6	C16H21O2-
247.1673	15	C16H23O2-
255.1779	9	C18H23O-
257.1937	13	C18H25O-
257.2303	7	C19H29-
259.1702	3	C17H23O2-
259.2031	17	C18H27O-
260.1721	10	C17H24O2-
260.2082	12	C18H28O-
263.2374	10	C18H31O-
263.2968	1	C16H39O2-
267.2138	16	C20H27-
270.226	21	C16H30O3-
271.2089	13	C19H27O-
279.2147	7	C21H27-
283.2026	22	C20H27O-
284.2062	8	C16H28O4-
285.2269	6	C20H29O-
287.2348	3	C20H31O-
290.2193	6	C19H30O2-
295.2037	31	C21H27O-
297.2256	18	C21H29O-
299.239	6	C21H31O-
301.2554	13	C21H33O-
303.2635	10	C21H35O-
309.218	17	C22H29O-
310.2278	28	C22H30O-
311.2382	96	C22H31O-
312.238	13	C18H32O4-
313.2513	13	C22H33O-
315.267	25	C22H35O-
316.2723	12	C22H36O-
317.2429	9	C21H33O2-
317.2872	75	C22H37O-
318.2896	28	C22H38O-
323.2394	17	C23H31O-
323.3026	1	C21H39O2-
325.2533	97	C23H33O-
326.2504	13	C19H34O4-
327.2702	378	C23H35O-
328.2735	74	C23H36O-
329.0659	10	C24H9O2-
329.2469	29	C22H33O2-
329.2871	102	C23H37O-
330.2811	7	C19H38O4-
339.2344	9	C23H31O2-
341.2489	19	C23H33O2-
343.2648	701	C23H35O2-
344.2681	105	C23H36O2-
345.2804	999	C23H37O2-
346.2812	124	C23H38O2-
347.2973	241	C23H39O2-
349.1808	10	C23H25O3-
353.2425	20	C24H33O2-
355.2637	95	C24H35O2-
373.2705	5	C24H37O3-
376.2624	10	C23H36O4-
389.2701	60	C24H37O4-
390.2823	2	C24H38O4-
391.2862	690	C24H39O4-
