Mass spectrum: Di(2-ethylhexyl) phthalate; LC-ESI-QTOF; MS2; CE: 20eV; R=7000; [M+H]+
Name: Di(2-ethylhexyl) phthalate
Name: Bis(2-ethylhexyl) phthalate
Name: bis(2-ethylhexyl) benzene-1,2-dicarboxylate
Formula: C24H38O4
Exact mass: 390.2770
SMILES: CCCCC(CC)COC(=O)C1=CC=CC=C1C(=O)OCC(CC)CCCC
InChI: InChI=1S/C24H38O4/c1-5-9-13-19(7-3)17-27-23(25)21-15-11-12-16-22(21)24(26)28-18-20(8-4)14-10-6-2/h11-12,15-16,19-20H,5-10,13-14,17-18H2,1-4H3
Instrument: Agilent 6560 QTOF
Instrument type: LC-ESI-QTOF
Ms type: MS2
Ion mode: POSITIVE
Ionization: ESI
Fragmentation mode: CID
Collision energy: 20 eV
Resolution: 7000
Retention time: 0.149 min
Base peak: 413.2675
Precursor m/z: 391.2843
Precursor type: [M+H]+
Precursor intensity: 51050.84
m/z	relative intensity	assigned
57.0705	159	C4H9+
65.0379	9	C5H5+
71.0864	83	C5H11+
121.0282	11	C7H5O2+
149.0233	999	C8H5O3+
