Mass spectrum: Mono(2-ethyl-5-oxohexyl)phthalate; LC-ESI-QTOF; MS2; CE: 10eV; R=7000; [M-H]-
Name: Mono(2-ethyl-5-oxohexyl)phthalate
Name: 2-(2-ethyl-5-oxohexoxy)carbonylbenzoic acid
Formula: C16H20O5
Exact mass: 292.1311
SMILES: CCC(CCC(=O)C)COC(=O)C1=CC=CC=C1C(=O)O
InChI: InChI=1S/C16H20O5/c1-3-12(9-8-11(2)17)10-21-16(20)14-7-5-4-6-13(14)15(18)19/h4-7,12H,3,8-10H2,1-2H3,(H,18,19)
Instrument: Agilent 6560 QTOF
Instrument type: LC-ESI-QTOF
Ms type: MS2
Ion mode: NEGATIVE
Ionization: ESI
Fragmentation mode: CID
Collision energy: 10 eV
Resolution: 7000
Column name: ZORBAX Extend-C18 3.5um, 2.1x50mm, Agilent Technologies
Retention time: 2.670 min
Base peak: 291.1253
Precursor m/z: 291.1238
Precursor type: [M-H]-
Precursor intensity: 183497.2
m/z	relative intensity	assigned
57.0347	9	C3H5O-
59.013	3	C2H3O2-
69.0345	4	C4H5O-
71.051	33	C4H7O-
72.0226	3	C3H4O2-
77.0403	159	C6H5-
97.0652	3	C6H9O-
99.0818	50	C6H11O-
113.0979	85	C7H13O-
115.1131	9	C7H15O-
119.0501	37	C8H7O-
121.0301	999	C7H5O2-
125.0975	10	C8H13O-
127.0761	6	C7H11O2-
141.0907	3	C8H13O2-
143.1085	687	C8H15O2-
165.02	5	C8H5O4-
177.0941	4	C11H13O2-
205.124	12	C13H17O2-
291.124	77	C16H19O5-
