Mass spectrum: Medroxyprogesterone; LC-ESI-QTOF; MS2; CE: 40eV; R=7000; [M+H]+
Name: Medroxyprogesterone
Name: 17-Hydroxy-6-methylpregn-4-ene-3,20-dione
Name: (8R,9S,10R,13S,14S,17R)-17-acetyl-17-hydroxy-6,10,13-trimethyl-2,6,7,8,9,11,12,14,15,16-decahydro-1H-cyclopenta[a]phenanthren-3-one
Formula: C22H32O3
Exact mass: 344.2351
SMILES: CC1C[C@@H]2[C@H](CC[C@]3([C@H]2CC[C@@]3(C(=O)C)O)C)[C@@]4(C1=CC(=O)CC4)C
InChI: InChI=1S/C22H32O3/c1-13-11-16-17(20(3)8-5-15(24)12-19(13)20)6-9-21(4)18(16)7-10-22(21,25)14(2)23/h12-13,16-18,25H,5-11H2,1-4H3/t13?,16-,17+,18+,20-,21+,22+/m1/s1
Instrument: Agilent 6560 QTOF
Instrument type: LC-ESI-QTOF
Ms type: MS2
Ion mode: POSITIVE
Ionization: ESI
Fragmentation mode: CID
Collision energy: 40 eV
Resolution: 7000
Column name: Direct injection
Retention time: 0.156 min
Base peak: 345.2432
Precursor m/z: 345.2424
Precursor type: [M+H]+
Precursor intensity: 325569
m/z	relative intensity	assigned
77.0381	97	C6H5+
79.0541	104	C6H7+
80.062	3	C6H8+
81.0339	20	C5H5O+
81.0698	63	C6H9+
82.0397	11	C5H6O+
83.0486	85	C5H7O+
83.0857	6	C6H11+
91.0541	126	C7H7+
93.0701	111	C7H9+
95.0489	53	C6H7O+
95.0852	165	C7H11+
97.0645	639	C6H9O+
103.0545	9	C8H7+
105.0692	77	C8H9+
107.0478	9	C7H7O+
107.0844	28	C8H11+
108.0569	20	C7H8O+
109.0642	34	C7H9O+
109.1012	13	C8H13+
110.0701	2	C7H10O+
111.0797	6	C7H11O+
117.0691	27	C9H9+
119.085	80	C9H11+
120.0943	4	C9H12+
121.0648	20	C8H9O+
121.1	35	C9H13+
123.0805	999	C8H11O+
125.0577	4	C7H9O2+
128.0602	18	C10H8+
129.0682	11	C10H9+
131.0859	54	C10H11+
133.1005	50	C10H13+
134.1059	2	C10H14+
135.0797	13	C9H11O+
135.1156	25	C10H15+
137.0954	89	C9H13O+
140.0624	4	C11H8+
141.0694	5	C11H9+
142.0768	31	C11H10+
143.0852	48	C11H11+
144.0906	26	C11H12+
145.0651	8	C10H9O+
145.1009	52	C11H13+
147.0797	17	C10H11O+
147.1175	34	C11H15+
149.0957	12	C10H13O+
151.11	14	C10H15O+
153.0702	1	C12H9+
153.0913	3	C9H13O2+
154.0778	1	C12H10+
155.0861	21	C12H11+
156.0921	12	C12H12+
157.1018	49	C12H13+
158.1082	3	C12H14+
159.1152	17	C12H15+
160.09	5	C11H12O+
160.1252	16	C12H16+
161.0955	21	C11H13O+
163.1122	11	C11H15O+
163.1471	3	C12H19+
166.0748	4	C13H10+
167.0858	9	C13H11+
168.0921	12	C13H12+
169.099	11	C13H13+
171.1143	25	C13H15+
173.1324	41	C13H17+
175.1483	8	C13H19+
177.1277	2	C12H17O+
180.0926	5	C14H12+
181.0969	13	C14H13+
182.107	15	C14H14+
183.1161	24	C14H15+
185.1309	26	C14H17+
187.1472	4	C14H19+
188.0809	6	C12H12O2+
189.1609	3	C14H21+
193.1004	9	C15H13+
195.1181	19	C15H15+
196.1234	1	C15H16+
197.1299	16	C15H17+
199.1446	7	C15H19+
200.1217	1	C14H16O+
202.0747	2	C16H10+
205.1211	5	C13H17O2+
208.1251	5	C16H16+
211.147	5	C16H19+
212.1189	1	C15H16O+
213.1266	17	C15H17O+
213.161	15	C16H21+
214.1343	44	C15H18O+
219.1221	2	C17H15+
220.1252	5	C17H16+
221.1343	6	C17H17+
223.1452	6	C17H19+
224.1577	4	C17H20+
225.1628	12	C17H21+
229.1563	5	C16H21O+
235.1504	4	C18H19+
237.1609	3	C18H21+
239.1396	8	C17H19O+
241.1945	3	C18H25+
251.1781	20	C19H23+
255.179	1	C18H23O+
261.1664	6	C20H21+
265.1945	2	C20H25+
266.204	2	C20H26+
269.1878	4	C19H25O+
294.1936	3	C21H26O+
