Mass spectrum: 2,4-Di-(2-ethylhexyl) trimellitate ; LC-ESI-QTOF; MS2; CE: 25eV; R=7000; [M-H]-
Name: 2,4-Di-(2-ethylhexyl) trimellitate 
Name: 2,4-bis(2-ethylhexoxycarbonyl)benzoic acid
Formula: C25H38O6
Exact mass: 434.2668
SMILES: CCCCC(CC)COC(=O)c1ccc(C(=O)O)c(C(=O)OCC(CC)CCCC)c1
InChI: InChI=1S/C25H38O6/c1-5-9-11-18(7-3)16-30-24(28)20-13-14-21(23(26)27)22(15-20)25(29)31-17-19(8-4)12-10-6-2/h13-15,18-19H,5-12,16-17H2,1-4H3,(H,26,27)
Instrument: Agilent 6560 QTOF
Instrument type: LC-ESI-QTOF
Ms type: MS2
Ion mode: NEGATIVE
Ionization: ESI
Fragmentation mode: CID
Collision energy: 25 eV
Resolution: 7000
Retention time: 0.148 min
Base peak: 433.262
Precursor m/z: 433.2596
Precursor type: [M-H]-
Precursor intensity: 113112.37
m/z	relative intensity	assigned
71.0502	6	C4H7O-
76.0325	47	C6H4-
77.0393	23	C6H5-
99.0803	7	C6H11O-
105.0346	29	C7H5O-
119.0512	9	C8H7O-
120.021	173	C7H4O2-
121.0304	71	C7H5O2-
125.097	7	C8H13O-
127.1126	160	C8H15O-
133.0294	49	C8H5O2-
134.0382	16	C8H6O2-
137.0966	7	C9H13O-
147.0076	10	C8H3O3-
149.0231	28	C8H5O3-
150.0309	10	C8H6O3-
155.1083	10	C9H15O2-
173.0606	9	C11H9O2-
175.0785	11	C11H11O2-
176.0123	11	C9H4O4-
177.0194	111	C9H5O4-
187.1515	9	C14H19-
203.1462	9	C14H19O-
215.1446	157	C15H19O-
219.0656	7	C12H11O4-
231.1398	45	C15H19O2-
233.1554	999	C15H21O2-
234.157	29	C15H22O2-
247.1333	20	C15H19O3-
262.1545	15	C16H22O3-
263.1666	13	C16H23O3-
277.1453	188	C16H21O4-
278.1482	9	C16H22O4-
289.1448	16	C17H21O4-
290.1532	397	C17H22O4-
291.1574	39	C17H23O4-
319.2653	32	C21H35O2-
345.2805	47	C23H37O2-
361.272	17	C23H37O3-
387.253	14	C24H35O4-
389.271	275	C24H37O4-
