Mass spectrum: Diphenyl phosphate; LC-ESI-QTOF; MS2; CE: 5eV; R=7000; [M-H]-
Name: Diphenyl phosphate
Name: diphenyl hydrogen phosphate
Formula: C12H11O4P
Exact mass: 250.0395
SMILES: OP(=O)(OC1=CC=CC=C1)OC1=CC=CC=C1
InChI: InChI=1S/C12H11O4P/c13-17(14,15-11-7-3-1-4-8-11)16-12-9-5-2-6-10-12/h1-10H,(H,13,14)
Instrument: Agilent 6560 QTOF
Instrument type: LC-ESI-QTOF
Ms type: MS2
Ion mode: NEGATIVE
Ionization: ESI
Fragmentation mode: CID
Collision energy: 5 eV
Resolution: 7000
Retention time: 0.148 min
Base peak: 249.0352
Precursor m/z: 249.0322
Precursor type: [M-H]-
Precursor intensity: 312496.53
m/z	relative intensity	assigned
65.0402	8	C5H5-
78.9591	20	O3P-
93.035	443	C6H5O-
154.9903	19	C6H4O3P-
155.9973	1	C6H5O3P-
249.0325	999	C12H10O4P-
