Mass spectrum: 1-octadecanoyl-sn-glycero-3-phosphocholine; LC-ESI-QTOF; MS2; CE: 40eV; R=7000; [M-CH3]-
Name: 1-octadecanoyl-sn-glycero-3-phosphocholine
Name: [(2R)-2-hydroxy-3-octadecanoyloxypropyl] 2-(trimethylazaniumyl)ethyl phosphate
Formula: C26H54NO7P
Exact mass: 523.3638
SMILES: CCCCCCCCCCCCCCCCCC(=O)OC[C@H](COP(=O)([O-])OCC[N+](C)(C)C)O
InChI: InChI=1S/C26H54NO7P/c1-5-6-7-8-9-10-11-12-13-14-15-16-17-18-19-20-26(29)32-23-25(28)24-34-35(30,31)33-22-21-27(2,3)4/h25,28H,5-24H2,1-4H3/t25-/m1/s1
Instrument: Agilent 6560 QTOF
Instrument type: LC-ESI-QTOF
Ms type: MS2
Ion mode: NEGATIVE
Ionization: ESI
Fragmentation mode: CID
Collision energy: 40 eV
Resolution: 7000
Column name: N/A
Retention time: 0.190 min
Base peak: 582.3796
Precursor m/z: 508.3409
Precursor type: [M-CH3]-
Precursor intensity: 7127
m/z	relative intensity	assigned
78.9579	473	O3P-
145.9961	158	CH7O6P-
181.1656	94	C5H25O6-
224.0694	107	C7H15NO5P-
225.2868	267	C2H44NO7P-
283.2641	999	C18H35O2-
283.3011	96	C15H42NOP-
284.2675	376	C10H38NO7-
284.297	68	C18H38NO-
318.2806	172	C21H36NO-
422.3156	165	C22H47O5P-
