Mass spectrum: 2(E)-octenoyl-L-carnitine; LC-ESI-QTOF; MS2; CE: 10eV; R=7000; [M+Na]+
Name: 2(E)-octenoyl-L-carnitine
Name: 3-oct-2-enoyloxy-4-(trimethylazaniumyl)butanoate
Formula: C15H27NO4
Exact mass: 285.1940
SMILES: CCCCCC=CC(=O)OC(CC(=O)[O-])C[N+](C)(C)C
InChI: InChI=1S/C15H27NO4/c1-5-6-7-8-9-10-15(19)20-13(11-14(17)18)12-16(2,3)4/h9-10,13H,5-8,11-12H2,1-4H3
Instrument: Agilent 6560 QTOF
Instrument type: LC-ESI-QTOF
Ms type: MS2
Ion mode: POSITIVE
Ionization: ESI
Fragmentation mode: CID
Collision energy: 10 eV
Resolution: 7000
Column name: Direct injection
Retention time: 0.185 min
Base peak: 286.2024
Precursor m/z: 308.1832
Precursor type: [M+Na]+
Precursor intensity: 61458
m/z	relative intensity	assigned
107.0105	122	C4H4NaO2+
114.0916	21	C6H12NO+
165.0857	6	C8H14NaO2+
166.086	17	C9H12NO2+
174.0866	6	C6H15NaO4+
249.1101	999	C12H18NaO4+
250.112	32	C13H16NO4+
266.1709	7	C13H25NNaO3+
308.1826	123	C15H27NNaO4+
