Mass spectrum: Isodecyl diphenyl phosphate; LC-ESI-QTOF; MS2; CE: 25eV; R=7000; [M+H]+
Name: Isodecyl diphenyl phosphate
Name: 8-methylnonyl diphenyl phosphate
Formula: C22H31O4P
Exact mass: 390.1960
SMILES: CC(C)CCCCCCCOP(=O)(OC1=CC=CC=C1)OC2=CC=CC=C2
InChI: InChI=1S/C22H31O4P/c1-20(2)14-8-4-3-5-13-19-24-27(23,25-21-15-9-6-10-16-21)26-22-17-11-7-12-18-22/h6-7,9-12,15-18,20H,3-5,8,13-14,19H2,1-2H3
Instrument: Agilent 6560 QTOF
Instrument type: LC-ESI-QTOF
Ms type: MS2
Ion mode: POSITIVE
Ionization: ESI
Fragmentation mode: CID
Collision energy: 25 eV
Resolution: 7000
Retention time: 0.110 min
Base peak: 251.0467
Precursor m/z: 391.2033
Precursor type: [M+H]+
Precursor intensity: 71220.39
m/z	relative intensity	assigned
57.0703	58	C4H9+
71.0864	20	C5H11+
77.0391	87	C6H5+
85.1012	10	C6H13+
95.0483	42	C6H7O+
122.0295	5	C7H7P+
152.0618	21	C12H8+
153.0693	139	C12H9+
154.0716	16	C5H15O3P+
157.0044	18	C6H6O3P+
168.0563	12	C12H8O+
175.0149	25	C6H8O4P+
215.0257	47	C12H8O2P+
233.0356	40	C12H10O3P+
234.0426	8	C12H11O3P+
251.0468	999	C12H12O4P+
252.0505	54	C12H13O4P+
