Mass spectrum: L-Lysine standard; LC-ESI-QTOF; MS2; CE: 40eV; R=5000; [M+H]+
Name: L-Lysine standard
Name: Lysine
Name: (2S)-2,6-diaminohexanoic acid
Formula: C6H14N2O2
Exact mass: 146.1055
SMILES: C(CCN)C[C@@H](C(=O)O)N
InChI: InChI=1S/C6H14N2O2/c7-4-2-1-3-5(8)6(9)10/h5H,1-4,7-8H2,(H,9,10)/t5-/m0/s1
Instrument: Agilent 6530 QTOF
Instrument type: LC-ESI-QTOF
Ms type: MS2
Ion mode: POSITIVE
Ionization: ESI
Fragmentation mode: CID
Collision energy: 40 eV
Resolution: 5000
Column name: N/A
Retention time: 0.221 min
Base peak: 121.0508
Precursor m/z: 147.1128
Precursor type: [M+H]+
Precursor intensity: 58434
m/z	relative intensity	assigned
41.039	139	C3H5+
42.0343	35	C2H4N+
55.0539	120	C4H7+
56.0494	999	C3H6N+
68.0498	104	C4H6N+
69.0566	109	C4H7N+
80.0476	1	C5H6N+
84.0802	435	C5H10N+
92.0018	1	C4N2O+
103.0526	21	C3H7N2O2+
106.0732	2	C3H10N2O2+
119.0017	4	C6HNO2+
