Mass spectrum: Testosterone; LC-ESI-QTOF; MS2; CE: 10eV; R=7000; [M+H]+
Name: Testosterone
Name: (8R,9S,10R,13S,14S,17S)-17-hydroxy-10,13-dimethyl-1,2,6,7,8,9,11,12,14,15,16,17-dodecahydrocyclopenta[a]phenanthren-3-one
Formula: C19H28O2
Exact mass: 288.2089
SMILES: C[C@]12CC[C@H]3[C@H]([C@@H]1CC[C@@H]2O)CCC4=CC(=O)CC[C@]34C
InChI: InChI=1S/C19H28O2/c1-18-9-7-13(20)11-12(18)3-4-14-15-5-6-17(21)19(15,2)10-8-16(14)18/h11,14-17,21H,3-10H2,1-2H3/t14-,15-,16-,17-,18-,19-/m0/s1
Instrument: Agilent 6560 QTOF
Instrument type: LC-ESI-QTOF
Ms type: MS2
Ion mode: POSITIVE
Ionization: ESI
Fragmentation mode: CID
Collision energy: 10 eV
Resolution: 7000
Column name: Direct injection
Retention time: 0.157 min
Base peak: 289.2166
Precursor m/z: 289.2162
Precursor type: [M+H]+
Precursor intensity: 343275
m/z	relative intensity	assigned
77.0375	6	C6H5+
79.0527	31	C6H7+
81.0703	30	C6H9+
83.0485	58	C5H7O+
91.0544	15	C7H7+
93.0693	22	C7H9+
95.0848	39	C7H11+
97.0646	916	C6H9O+
105.0694	19	C8H9+
107.085	5	C8H11+
109.0643	680	C7H9O+
119.0874	1	C9H11+
121.0652	10	C8H9O+
121.1006	28	C9H13+
123.0793	41	C8H11O+
129.067	5	C10H9+
131.0868	5	C10H11+
133.1007	17	C10H13+
135.1174	28	C10H15+
143.0853	14	C11H11+
145.101	29	C11H13+
147.0803	2	C10H11O+
147.1161	12	C11H15+
149.1306	11	C11H17+
153.1269	6	C10H17O+
157.0979	4	C12H13+
159.1165	23	C12H15+
161.0952	3	C11H13O+
161.1328	18	C12H17+
163.1135	2	C11H15O+
163.1483	2	C12H19+
167.1043	6	C10H15O2+
171.1174	16	C13H15+
175.1467	18	C13H19+
177.1245	1	C12H17O+
181.0989	4	C14H13+
183.1142	5	C14H15+
186.1434	10	C14H18+
187.1128	5	C13H15O+
187.1483	24	C14H19+
189.1265	1	C13H17O+
189.1642	10	C14H21+
191.1439	3	C13H19O+
192.1461	3	C13H20O+
197.1329	36	C15H17+
199.1494	10	C15H19+
201.1628	17	C15H21+
203.1407	3	C14H19O+
211.1486	29	C16H19+
213.1622	44	C16H21+
215.1444	11	C15H19O+
219.1761	12	C15H23O+
223.1486	1	C17H19+
225.1624	14	C17H21+
227.1814	2	C17H23+
243.1718	5	C17H23O+
243.2112	1	C18H27+
253.1943	85	C19H25+
254.2013	12	C19H26+
271.2063	128	C19H27O+
272.2103	15	C19H28O+
289.2162	999	C19H29O2+
