Mass spectrum: Bis(2-butoxyethyl) 3?-hydroxy-2-butoxyethyl phosphate ; LC-ESI-QTOF; MS2; CE: 15eV; R=7000; [M+H]+
Name: Bis(2-butoxyethyl) 3?-hydroxy-2-butoxyethyl phosphate 
Name: Bis(2-butoxyethyl) 3-hydroxyl-2-butoxyethyl phosphate
Name: bis(2-butoxyethyl) 2-(3-hydroxybutoxy)ethyl phosphate
Formula: C18H39O8P
Exact mass: 414.2383
SMILES: CCCCOCCOP(=O)(OCCOCCCC)OCCOCCC(C)O
InChI: InChI=1S/C18H39O8P/c1-4-6-9-21-12-15-24-27(20,25-16-13-22-10-7-5-2)26-17-14-23-11-8-18(3)19/h18-19H,4-17H2,1-3H3
Instrument: Agilent 6560 QTOF
Instrument type: LC-ESI-QTOF
Ms type: MS2
Ion mode: POSITIVE
Ionization: ESI
Fragmentation mode: CID
Collision energy: 15 eV
Resolution: 7000
Retention time: 0.145 min
Base peak: 437.2308
Precursor m/z: 415.2455
Precursor type: [M+H]+
Precursor intensity: 294272.37
m/z	relative intensity	assigned
53.0391	7	C4H5+
55.0548	762	C4H7+
57.0705	753	C4H9+
59.0496	83	C3H7O+
63.0441	7	C2H7O2+
69.0704	52	C5H9+
71.0495	157	C4H7O+
73.0652	76	C4H9O+
79.0545	5	C6H7+
80.9732	15	H2O3P+
81.0703	74	C6H9+
83.0858	372	C6H11+
89.059	7	C4H9O2+
98.9847	450	H4O4P+
99.0805	25	C6H11O+
101.0964	220	C6H13O+
117.0905	16	C6H13O2+
124.9998	203	C2H6O4P+
140.9945	8	C2H6O5P+
143.0106	837	C2H8O5P+
145.1233	10	C8H17O2+
153.0311	10	C4H10O4P+
155.0099	73	C3H8O5P+
169.026	62	C4H10O5P+
187.0365	49	C4H12O6P+
197.058	133	C6H14O5P+
199.0736	999	C6H16O5P+
200.0767	17	C13H13P+
215.0671	26	C6H16O6P+
225.0883	56	C8H18O5P+
241.0837	15	C8H18O6P+
243.0998	965	C8H20O6P+
244.1008	35	C15H17OP+
255.0987	53	C9H20O6P+
297.1466	404	C12H26O6P+
298.1484	11	C12H27O6P+
299.1624	229	C12H28O6P+
300.1643	11	C12H29O6P+
315.1577	124	C12H28O7P+
341.1713	10	C14H30O7P+
343.1876	140	C14H32O7P+
344.1926	6	C14H33O7P+
353.2066	5	C16H34O6P+
355.1911	7	C15H32O7P+
397.2352	78	C18H38O7P+
398.2363	8	C18H39O7P+
415.2456	70	C18H40O8P+
