Mass spectrum: 1-(9Z-octadecenoyl)-sn-glycero-3-phosphoserine; LC-ESI-QTOF; MS2; CE: 40eV; R=7000; [M+H]+
Name: 1-(9Z-octadecenoyl)-sn-glycero-3-phosphoserine
Name: (2S)-2-amino-3-[hydroxy-[(2R)-2-hydroxy-3-[(Z)-octadec-9-enoyl]oxypropoxy]phosphoryl]oxypropanoic acid
Formula: C24H46NO9P
Exact mass: 523.2910
SMILES: [H][C@@](O)(COC(=O)CCCCCCC\C=C/CCCCCCCC)COP(O)(=O)OC[C@]([H])(N)C(O)=O
InChI: InChI=1S/C24H46NO9P/c1-2-3-4-5-6-7-8-9-10-11-12-13-14-15-16-17-23(27)32-18-21(26)19-33-35(30,31)34-20-22(25)24(28)29/h9-10,21-22,26H,2-8,11-20,25H2,1H3,(H,28,29)(H,30,31)/b10-9-/t21-,22+/m1/s1
Instrument: Agilent 6560 QTOF
Instrument type: LC-ESI-QTOF
Ms type: MS2
Ion mode: POSITIVE
Ionization: ESI
Fragmentation mode: CID
Collision energy: 40 eV
Resolution: 7000
Column name: Direct injection
Retention time: 0.240 min
Base peak: 338.3428
Precursor m/z: 524.2983
Precursor type: [M+H]+
Precursor intensity: 14905
m/z	relative intensity	assigned
72.0076	63	C2H2NO2+
79.0533	82	C6H7+
83.0854	246	C6H11+
88.0399	999	C3H6NO2+
95.0862	172	C3H14NP+
96.0894	53	H17O3P+
97.1012	75	C7H13+
97.3458	17	C3H45O+
98.9845	599	H4O4P+
107.0822	70	CH16O3P+
109.099	114	CH18O3P+
111.0797	88	C7H11O+
121.0994	167	C2H18O3P+
124.0735	33	H15NO4P+
135.1123	96	C3H20O3P+
137.1318	104	C10H17+
149.1342	47	C7H20NP+
211.1764	21	C2H30NO7P+
216.9456	40	C5NO7P+
247.241	71	C18H31+
256.9641	71	C12H2O5P+
306.2853	26	C13H40NO6+
339.2874	126	C14H44O6P+
340.3002	23	C24H38N+
