Mass spectrum: 11-Deoxycortisol; LC-ESI-QTOF; MS2; CE: 20eV; R=7000; [M+CH3COO]-
Name: 11-Deoxycortisol
Name: Reichsteins Substance S
Name: 17-hydroxy-17-(2-hydroxyacetyl)-10,13-dimethyl-2,6,7,8,9,11,12,14,15,16-decahydro-1H-cyclopenta[a]phenanthren-3-one
Formula: C21H30O4
Exact mass: 346.2144
SMILES: CC12CCC(=O)C=C1CCC3C2CCC4(C3CCC4(C(=O)CO)O)C
InChI: InChI=1S/C21H30O4/c1-19-8-5-14(23)11-13(19)3-4-15-16(19)6-9-20(2)17(15)7-10-21(20,25)18(24)12-22/h11,15-17,22,25H,3-10,12H2,1-2H3
Instrument: Agilent 6560 QTOF
Instrument type: LC-ESI-QTOF
Ms type: MS2
Ion mode: NEGATIVE
Ionization: ESI
Fragmentation mode: CID
Collision energy: 20 eV
Resolution: 7000
Column name: N/A
Retention time: 0.214 min
Base peak: 357.1898
Precursor m/z: 405.2283
Precursor type: [M+CH3COO]-
Precursor intensity: 252340
m/z	relative intensity	assigned
175.074	5	C11H11O2-
194.0938	1	C11H14O3-
195.084	4	C14H11O-
209.0831	3	C11H13O4-
210.0691	2	C14H10O2-
225.1284	5	C16H17O-
242.0362	2	C17H6O2-
255.2317	1	C16H31O2-
283.1674	2	C19H23O2-
285.1843	13	C19H25O2-
286.1968	1	C19H26O2-
297.1852	1	C20H25O2-
299.1662	58	C19H23O3-
300.1683	11	C19H24O3-
313.1798	6	C20H25O3-
313.2144	2	C21H29O2-
314.1739	1	C16H26O6-
315.1969	999	C20H27O3-
316.2007	128	C20H28O3-
327.1977	42	C21H27O3-
328.2006	8	C21H28O3-
358.1793	4	C21H26O5-
359.1926	1	C21H27O5-
