Mass spectrum: 1,2-Dioleoyl-sn-glycero-3-phosphocholine; LC-ESI-QTOF; MS2; CE: 40eV; R=7000; [M+Na]+
Name: 1,2-Dioleoyl-sn-glycero-3-phosphocholine
Name: [(2R)-2,3-bis[[(Z)-octadec-9-enoyl]oxy]propyl] 2-(trimethylazaniumyl)ethyl phosphate
Formula: C44H84NO8P
Exact mass: 785.5935
SMILES: CCCCCCCC/C=C\CCCCCCCC(=O)OC[C@H](COP(=O)([O-])OCC[N+](C)(C)C)OC(=O)CCCCCCC/C=C\CCCCCCCC
InChI: InChI=1S/C44H84NO8P/c1-6-8-10-12-14-16-18-20-22-24-26-28-30-32-34-36-43(46)50-40-42(41-52-54(48,49)51-39-38-45(3,4)5)53-44(47)37-35-33-31-29-27-25-23-21-19-17-15-13-11-9-7-2/h20-23,42H,6-19,24-41H2,1-5H3/b22-20-,23-21-/t42-/m1/s1
Instrument: Agilent 6560 QTOF
Instrument type: LC-ESI-QTOF
Ms type: MS2
Ion mode: POSITIVE
Ionization: ESI
Fragmentation mode: CID
Collision energy: 40 eV
Resolution: 7000
Column name: Direct injection
Retention time: 0.235 min
Base peak: 786.6033
Precursor m/z: 808.5827
Precursor type: [M+Na]+
Precursor intensity: 51370
m/z	relative intensity	assigned
71.0734	39	C4H9N+
79.0554	22	C2H10NP+
81.0708	32	C2H12NP+
81.5401	10	CH69+
83.0856	124	C6H11+
85.065	32	CH12NOP+
86.0957	421	C5H12N+
93.0694	47	C7H9+
95.0842	76	CH15NNaP+
97.1006	77	C7H13+
101.0966	24	C2H16NOP+
109.1002	64	C8H13+
111.0789	10	CH15NNaOP+
121.102	127	C5H16NP+
135.1141	35	C8H16Na+
137.1317	68	C10H17+
146.9821	999	C2H5NaO4P+
153.126	55	C4H21NNaOP+
166.1654	19	C4H24NO5+
167.0351	10	C4H10NO4P+
183.1713	18	C10H24NaO+
191.1778	23	C8H27NNaP+
205.1953	48	C11H28NP+
247.2425	9	C14H34NP+
265.2516	55	C18H33O+
441.235	25	C22H35NO8+
465.2042	24	C25H33NNaO4P+
467.251	68	C24H37NO8+
506.6602	12	C34H84N+
603.5355	350	C35H74NO4P+
604.5366	38	C30H78NaO7P+
604.6196	39	C34H84O7+
625.5217	337	C44H67NO+
626.5302	43	C44H68NO+
717.295	10	C42H47NaO7P+
719.0955	16	C43H21NaO8P+
749.5045	35	C41H75NaO8P+
