Mass spectrum: N-Heptadecanoyl-D-erythro-Sphingosine; LC-ESI-QTOF; MS2; CE: 20eV; R=7000; [M-H2O+H]+
Name: N-Heptadecanoyl-D-erythro-Sphingosine
Name: N-Heptadecanoylsphingosine
Name: N-[(E,2S,3R)-1,3-dihydroxyoctadec-4-en-2-yl]heptadecanamide
Formula: C35H69NO3
Exact mass: 551.5277
SMILES: OC[C@H](NC(CCCCCCCCCCCCCCCC)=O)[C@H](O)/C=C/CCCCCCCCCCCCC
InChI: InChI=1S/C35H69NO3/c1-3-5-7-9-11-13-15-17-19-21-23-25-27-29-31-35(39)36-33(32-37)34(38)30-28-26-24-22-20-18-16-14-12-10-8-6-4-2/h28,30,33-34,37-38H,3-27,29,31-32H2,1-2H3,(H,36,39)/b30-28+/t33-,34+/m0/s1
Instrument: Agilent 6560 QTOF
Instrument type: LC-ESI-QTOF
Ms type: MS2
Ion mode: POSITIVE
Ionization: ESI
Fragmentation mode: CID
Collision energy: 20 eV
Resolution: 7000
Column name: Direct injection
Retention time: 0.154 min
Base peak: 574.5187
Precursor m/z: 534.5245
Precursor type: [M-H2O+H]+
Precursor intensity: 142065
m/z	relative intensity	assigned
70.066	2	C4H8N+
81.0693	17	C6H9+
82.0651	18	C5H8N+
83.0862	9	C6H11+
93.0711	7	C7H9+
96.0796	3	C6H10N+
97.1001	16	C7H13+
121.1004	21	C9H13+
137.1302	2	C10H17+
149.1318	10	C11H17+
252.2692	123	C17H34N+
264.2689	999	C18H34N+
265.2725	97	C18H35N+
270.2804	7	C17H36NO+
270.3088	2	C18H40N+
282.2796	162	C18H36NO+
283.2815	4	C18H37NO+
294.2759	1	C19H36NO+
357.0639	1	C29H9+
475.2974	1	C35H39O+
504.5188	11	C34H66NO+
505.5169	5	C34H67NO+
516.5173	12	C35H66NO+
517.5089	6	C35H65O2+
534.5221	34	C35H68NO2+
