Mass spectrum: Melatonine; LC-ESI-QTOF; MS2; CE: 10eV; R=5000; [M+H]+
Name: Melatonine
Name: Melatonin
Name: N-[2-(5-methoxy-1H-indol-3-yl)ethyl]acetamide
Formula: C13H16N2O2
Exact mass: 232.1212
SMILES: CC(=O)NCCC1=CNC2=C1C=C(C=C2)OC
InChI: InChI=1S/C13H16N2O2/c1-9(16)14-6-5-10-8-15-13-4-3-11(17-2)7-12(10)13/h3-4,7-8,15H,5-6H2,1-2H3,(H,14,16)
Instrument: Agilent 6530 QTOF
Instrument type: LC-ESI-QTOF
Ms type: MS2
Ion mode: POSITIVE
Ionization: ESI
Fragmentation mode: CID
Collision energy: 10 eV
Resolution: 5000
Column name: N/A
Retention time: 0.182 min
Base peak: 375.1985
Precursor m/z: 233.1285
Precursor type: [M+H]+
Precursor intensity: 5159758
m/z	relative intensity	assigned
43.0171	1	C2H3O+
77.039	2	C6H5+
86.0593	5	C4H8NO+
91.0533	1	C7H7+
105.0553	1	C7H7N+
115.0518	4	C4H7N2O2+
117.0679	4	C9H9+
130.0632	15	C9H8N+
131.0704	24	C9H9N+
142.0635	7	C10H8N+
143.0708	29	C10H9N+
144.0781	9	C10H10N+
146.0929	1	C10H12N+
148.0728	2	C9H10NO+
158.058	2	C10H8NO+
159.0655	88	C10H9NO+
162.0885	3	C10H12NO+
174.0891	999	C11H12NO+
188.1051	1	C12H14NO+
191.1158	3	C11H15N2O+
198.0877	3	C13H12NO+
204.0979	1	C12H14NO2+
216.0991	47	C13H14NO2+
233.1257	49	C13H17N2O2+
