Mass spectrum: Taurocholic acid; LC-ESI-QTOF; MS2; CE: 40eV; R=7000; [M-H]-
Name: Taurocholic acid
Name: 2-[[(4R)-4-[(3R,5S,7R,8R,9S,10S,12S,13R,14S,17R)-3,7,12-trihydroxy-10,13-dimethyl-2,3,4,5,6,7,8,9,11,12,14,15,16,17-tetradecahydro-1H-cyclopenta[a]phenanthren-17-yl]pentanoyl]amino]ethanesulfonic acid
Formula: C26H45NO7S
Exact mass: 515.2917
SMILES: C[C@H](CCC(=O)NCCS(=O)(=O)O)[C@H]1CC[C@@H]2[C@@]1([C@H](C[C@H]3[C@H]2[C@@H](C[C@H]4[C@@]3(CC[C@H](C4)O)C)O)O)C
InChI: InChI=1S/C26H45NO7S/c1-15(4-7-23(31)27-10-11-35(32,33)34)18-5-6-19-24-20(14-22(30)26(18,19)3)25(2)9-8-17(28)12-16(25)13-21(24)29/h15-22,24,28-30H,4-14H2,1-3H3,(H,27,31)(H,32,33,34)/t15-,16+,17-,18-,19+,20+,21-,22+,24+,25+,26-/m1/s1
Instrument: Agilent 6560 QTOF
Instrument type: LC-ESI-QTOF
Ms type: MS2
Ion mode: NEGATIVE
Ionization: ESI
Fragmentation mode: CID
Collision energy: 40 eV
Resolution: 7000
Column name: N/A
Retention time: 0.143 min
Base peak: 980.0164
Precursor m/z: 514.2844
Precursor type: [M-H]-
Precursor intensity: 240197
m/z	relative intensity	assigned
79.9571	18	O3S-
80.9645	20	HO3S-
106.98	22	C2H3O3S-
115.0756	3	C6H11O2-
119.0347	4	C4H7O4-
124.0062	39	C2H6NO3S-
125.2591	3	CH35NO4-
213.2226	1	C14H29O-
288.1877	1	C22H24-
328.9917	1	C19H5O4S-
342.2479	2	C19H36NO2S-
351.2306	1	C13H37NO7S-
357.2729	4	C16H39NO7-
395.9286	1	C21O7S-
404.2792	2	C21H40O7-
409.0717	1	C25H13O6-
412.283	2	C23H40O6-
514.285	999	C26H44NO7S-
