Mass spectrum: N-palmitoyl-D-erythro-sphinganine; LC-ESI-QTOF; MS2; CE: 40eV; R=7000; [M+HCOOH-H]-
Name: N-palmitoyl-D-erythro-sphinganine
Name: N-(hexadecanoyl)-sphinganine
Name: N-[(2S,3R)-1,3-dihydroxyoctadecan-2-yl]hexadecanamide
Formula: C34H69NO3
Exact mass: 539.5277
SMILES: CCCCCCCCCCCCCCC[C@H]([C@H](CO)NC(=O)CCCCCCCCCCCCCCC)O
InChI: InChI=1S/C34H69NO3/c1-3-5-7-9-11-13-15-17-19-21-23-25-27-29-33(37)32(31-36)35-34(38)30-28-26-24-22-20-18-16-14-12-10-8-6-4-2/h32-33,36-37H,3-31H2,1-2H3,(H,35,38)/t32-,33+/m0/s1
Instrument: Agilent 6560 QTOF
Instrument type: LC-ESI-QTOF
Ms type: MS2
Ion mode: NEGATIVE
Ionization: ESI
Fragmentation mode: CID
Collision energy: 40 eV
Resolution: 7000
Column name: N/A
Retention time: 0.241 min
Base peak: 598.5429
Precursor m/z: 584.5259
Precursor type: [M+HCOOH-H]-
Precursor intensity: 14005
m/z	relative intensity	assigned
80.0252	166	C5H4O-
89.045	272	H9O5-
212.0437	90	C13H8O3-
237.224	665	C16H29O-
239.0376	361	C17H5NO-
239.2384	676	C16H31O-
240.3663	250	C15H46N-
254.2421	82	C13H34O4-
255.2346	382	C16H31O2-
266.2524	657	C17H32NO-
278.2418	201	C15H34O4-
280.2622	999	C15H36O4-
280.3178	56	C13H44O5-
282.2478	269	C17H32NO2-
382.2029	116	C23H28NO4-
449.0363	296	C29H7NO5-
490.5022	626	C33H64NO-
491.497	127	C29H65NO4-
492.0423	174	C35H8O4-
493.4879	199	C32H63NO2-
493.5378	37	C34H69O-
506.4853	255	C30H66O5-
