Mass spectrum: Mono(2-ethyl-5-hydroxyhexyl) adipate; LC-ESI-QTOF; MS2; CE: 10eV; R=7000; [M-H]-
Name: Mono(2-ethyl-5-hydroxyhexyl) adipate
Name: 6-(2-Ethyl-5-hydroxy-hexoxy)-6-oxo-hexanoic acid
Name: 6-(2-ethyl-5-hydroxyhexoxy)-6-oxohexanoic acid
Formula: C14H26O5
Exact mass: 274.1780
SMILES: CCC(CCC(C)O)COC(=O)CCCCC(=O)O
InChI: InChI=1S/C14H26O5/c1-3-12(9-8-11(2)15)10-19-14(18)7-5-4-6-13(16)17/h11-12,15H,3-10H2,1-2H3,(H,16,17)
Instrument: Agilent 6560 QTOF
Instrument type: LC-ESI-QTOF
Ms type: MS2
Ion mode: NEGATIVE
Ionization: ESI
Fragmentation mode: CID
Collision energy: 10 eV
Resolution: 7000
Column name: ZORBAX Extend-C18 3.5um, 2.1x50mm, Agilent Technologies
Retention time: 3.765 min
Base peak: 273.1713
Precursor m/z: 273.1707
Precursor type: [M-H]-
Precursor intensity: 67537.05
m/z	relative intensity	assigned
81.0343	101	C5H5O-
83.0504	999	C5H7O-
101.0587	5	C5H9O2-
109.029	4	C6H5O2-
111.0823	4	C7H11O-
127.0401	35	C6H7O3-
145.0507	13	C6H9O4-
145.124	6	C8H17O2-
273.1718	87	C14H25O5-
