Mass spectrum: Bisphenol AF; LC-ESI-QTOF; MS2; CE: 25eV; R=7000; [M-H]-
Name: Bisphenol AF
Name: 4-[1,1,1,3,3,3-hexafluoro-2-(4-hydroxyphenyl)propan-2-yl]phenol
Formula: C15H10F6O2
Exact mass: 336.0585
SMILES: C1=CC(=CC=C1C(C2=CC=C(C=C2)O)(C(F)(F)F)C(F)(F)F)O
InChI: InChI=1S/C15H10F6O2/c16-14(17,18)13(15(19,20)21,9-1-5-11(22)6-2-9)10-3-7-12(23)8-4-10/h1-8,22-23H
Instrument: Agilent 6560 QTOF
Instrument type: LC-ESI-QTOF
Ms type: MS2
Ion mode: NEGATIVE
Ionization: ESI
Fragmentation mode: CID
Collision energy: 25 eV
Resolution: 7000
Retention time: 0.187 min
Base peak: 335.0528
Precursor m/z: 335.0512
Precursor type: [M-H]-
Precursor intensity: 420420.57
m/z	relative intensity	assigned
68.9959	108	CF3-
111.0252	16	C6H4FO-
149.0386	4	C4H6F5-
161.0224	13	C7H4F3O-
169.0455	7	C4H7F6-
177.0346	10	C13H5O-
181.0446	1	C5H7F6-
195.0451	9	C13H7O2-
196.0515	2	C8H8F4O-
197.0409	27	C13H6FO-
198.047	6	C8H7F5-
199.0354	1	C13H5F2-
205.0293	3	C6H6F5O2-
206.0348	1	C12H5F3-
216.0368	1	C8H6F6-
217.046	2	C8H7F6-
224.0283	1	C14H5FO2-
225.0355	21	C6H7F6O2-
226.042	8	C9H7F5O-
227.0314	3	C14H5F2O-
244.0339	26	C14H6F2O2-
245.0413	36	C14H7F2O2-
246.0476	6	C12H7F5-
247.0381	1	C14H6F3O-
255.0267	2	C15H5F2O2-
265.0483	999	C14H8F3O2-
266.052	60	C12H8F6-
275.0315	5	C15H6F3O2-
295.0397	10	C15H7F4O2-
315.0453	5	C15H8F5O2-
