Mass spectrum: Liothyronine; LC-ESI-QTOF; MS2; CE: 40eV; R=7000; [M-H]-
Name: Liothyronine
Name: (2S)-2-amino-3-[4-(4-hydroxy-3-iodophenoxy)-3,5-diiodophenyl]propanoic acid
Formula: C15H12I3NO4
Exact mass: 650.7901
SMILES: N[C@@H](CC1=CC(I)=C(OC2=CC=C(O)C(I)=C2)C(I)=C1)C(O)=O
InChI: InChI=1S/C15H12I3NO4/c16-9-6-8(1-2-13(9)20)23-14-10(17)3-7(4-11(14)18)5-12(19)15(21)22/h1-4,6,12,20H,5,19H2,(H,21,22)/t12-/m0/s1
Instrument: Agilent 6560 QTOF
Instrument type: LC-ESI-QTOF
Ms type: MS2
Ion mode: NEGATIVE
Ionization: ESI
Fragmentation mode: CID
Collision energy: 40 eV
Resolution: 7000
Column name: N/A
Retention time: 0.143 min
Base peak: 649.7827
Precursor m/z: 649.7828
Precursor type: [M-H]-
Precursor intensity: 315384
m/z	relative intensity	assigned
72.0091	51	C2H2NO2-
126.9045	999	I-
222.0506	1	C14H8NO2-
254.8167	3	HI2-
322.9576	2	C13H8IO2-
334.953	2	C14H8IO2-
350.9816	1	C14H10INO2-
448.8541	29	C13H7I2O2-
449.8551	2	C12H6I2NO2-
461.8614	6	C14H8I2O2-
476.8481	2	C14H7I2O3-
505.8503	8	C15H8I2O4-
632.7618	1	C15H8I3O4-
