Mass spectrum: Diphenylcresyl phosphate; LC-ESI-QTOF; MS2; CE: 35eV; R=7000; [M+H]+
Name: Diphenylcresyl phosphate
Name: Phosphoric acid, 2-methylphenyl diphenyl ester
Name: (2-methylphenyl) diphenyl phosphate
Formula: C19H17O4P
Exact mass: 340.0864
SMILES: CC1=CC=CC=C1OP(=O)(OC2=CC=CC=C2)OC3=CC=CC=C3
InChI: InChI=1S/C19H17O4P/c1-16-10-8-9-15-19(16)23-24(20,21-17-11-4-2-5-12-17)22-18-13-6-3-7-14-18/h2-15H,1H3
Instrument: Agilent 6560 QTOF
Instrument type: LC-ESI-QTOF
Ms type: MS2
Ion mode: POSITIVE
Ionization: ESI
Fragmentation mode: CID
Collision energy: 35 eV
Resolution: 7000
Retention time: 0.145 min
Base peak: 363.0757
Precursor m/z: 341.0937
Precursor type: [M+H]+
Precursor intensity: 72741.16
m/z	relative intensity	assigned
51.0233	43	C4H3+
65.0391	257	C5H5+
77.0387	469	C6H5+
79.0538	19	C6H7+
91.0541	999	C7H7+
92.0578	50	H13O3P+
95.05	48	C6H7O+
107.0495	40	C7H7O+
109.0633	21	H14O4P+
128.0624	21	C10H8+
141.0687	42	C11H9+
151.0537	63	C12H7+
152.0618	908	C12H8+
153.0663	127	C5H14O3P+
154.0191	21	C7H7O2P+
165.0694	431	C13H9+
166.0764	159	C6H15O3P+
167.0858	84	C13H11+
168.0563	63	C12H8O+
175.0132	27	C6H8O4P+
181.0621	39	C6H14O4P+
182.0726	215	C13H10O+
183.039	19	C12H8P+
184.0851	19	C6H17O4P+
201.0464	38	C12H10OP+
202.0738	20	C9H15O3P+
215.0263	80	C12H8O2P+
215.0847	26	C17H11+
226.072	29	C11H15O3P+
227.086	37	C18H11+
228.0932	122	C18H12+
229.0409	226	C13H10O2P+
229.094	22	C11H18O3P+
242.1083	27	C19H14+
247.0522	71	C13H12O3P+
251.0465	56	C12H12O4P+
265.0622	72	C13H14O4P+
