Mass spectrum: Margaric acid; LC-ESI-QTOF; MS2; CE: 20eV; R=7000; [M-H]-
Name: Margaric acid
Name: heptadecanoic acid
Formula: C17H34O2
Exact mass: 270.2559
SMILES: CCCCCCCCCCCCCCCCC(O)=O
InChI: InChI=1S/C17H34O2/c1-2-3-4-5-6-7-8-9-10-11-12-13-14-15-16-17(18)19/h2-16H2,1H3,(H,18,19)
Instrument: Agilent 6560 QTOF
Instrument type: LC-ESI-QTOF
Ms type: MS2
Ion mode: NEGATIVE
Ionization: ESI
Fragmentation mode: CID
Collision energy: 20 eV
Resolution: 7000
Column name: N/A
Retention time: 0.143 min
Base peak: 269.2502
Precursor m/z: 269.2486
Precursor type: [M-H]-
Precursor intensity: 41347
m/z	relative intensity	assigned
210.0059	5	C16H2O-
223.2015	10	C15H27O-
251.2353	23	C17H31O-
269.2492	999	C17H33O2-
