Mass spectrum: CYSTINE; LC-ESI-QTOF; MS2; CE: 10eV; R=5000; [M+Na]+
Name: CYSTINE
Name: L-cystine
Name: (2R)-2-amino-3-[[(2R)-2-amino-2-carboxyethyl]disulfanyl]propanoic acid
Formula: C6H12N2O4S2
Exact mass: 240.0238
SMILES: N[C@@H](CSSC[C@H](N)C(O)=O)C(O)=O
InChI: InChI=1S/C6H12N2O4S2/c7-3(5(9)10)1-13-14-2-4(8)6(11)12/h3-4H,1-2,7-8H2,(H,9,10)(H,11,12)/t3-,4-/m0/s1
Instrument: Agilent 6530 QTOF
Instrument type: LC-ESI-QTOF
Ms type: MS2
Ion mode: POSITIVE
Ionization: ESI
Fragmentation mode: CID
Collision energy: 10 eV
Resolution: 5000
Column name: N/A
Retention time: 0.321 min
Base peak: 121.0508
Precursor m/z: 263.0131
Precursor type: [M+Na]+
Precursor intensity: 26750
m/z	relative intensity	assigned
72.0489	3	H10NOS+
73.0653	999	C4H9O+
98.0039	9	CH6O3S+
98.0362	15	C5H6O2+
110.9751	73	CH3O4S+
113.043	54	C6H9S+
126.9709	28	C4HNO2S+
140.0136	28	C3H8O4S+
141.9909	182	C6H6S2+
144.0035	90	CH8N2O2S2+
151.9615	2	C6H2NS2+
160.9379	5	C4HO3S2+
171.9508	2	C5H2NO2S2+
173.9541	105	C4H2N2O2S2+
176.9267	5	C4HO4S2+
217.9867	68	C6H6N2O3S2+
