Mass spectrum: 1,2-dioctanoyl-sn-glycerol; LC-ESI-QTOF; MS2; CE: 10eV; R=7000; [M+Na]+
Name: 1,2-dioctanoyl-sn-glycerol
Name: 1,2-Dioctanoylglycerol
Name: (3-hydroxy-2-octanoyloxypropyl) octanoate
Formula: C19H36O5
Exact mass: 344.2563
SMILES: CCCCCCCC(=O)OCC(CO)OC(=O)CCCCCCC
InChI: InChI=1S/C19H36O5/c1-3-5-7-9-11-13-18(21)23-16-17(15-20)24-19(22)14-12-10-8-6-4-2/h17,20H,3-16H2,1-2H3
Instrument: Agilent 6560 QTOF
Instrument type: LC-ESI-QTOF
Ms type: MS2
Ion mode: POSITIVE
Ionization: ESI
Fragmentation mode: CID
Collision energy: 10 eV
Resolution: 7000
Column name: Direct injection
Retention time: 0.154 min
Base peak: 367.2465
Precursor m/z: 367.2455
Precursor type: [M+Na]+
Precursor intensity: 101964
m/z	relative intensity	assigned
83.0839	11	C4H12Na+
109.1001	5	C8H13+
145.1174	2	C6H18NaO2+
167.1022	8	C8H16NaO2+
201.1495	25	C11H21O3+
223.1336	15	C13H19O3+
238.0058	1	C17H2O2+
240.9999	1	C18H2Na+
367.2461	999	C19H36NaO5+
