Mass spectrum: Prostaglandin A1; LC-ESI-QTOF; MS2; CE: 40eV; R=7000; [M-H2O+H]+
Name: Prostaglandin A1
Name: 7-[(1R,2S)-2-[(E,3S)-3-hydroxyoct-1-enyl]-5-oxocyclopent-3-en-1-yl]heptanoic acid
Formula: C20H32O4
Exact mass: 336.2301
SMILES: CCCCC[C@@H](/C=C/[C@H]1C=CC(=O)[C@@H]1CCCCCCC(=O)O)O
InChI: InChI=1S/C20H32O4/c1-2-3-6-9-17(21)14-12-16-13-15-19(22)18(16)10-7-4-5-8-11-20(23)24/h12-18,21H,2-11H2,1H3,(H,23,24)/b14-12+/t16-,17-,18+/m0/s1
Instrument: Agilent 6560 QTOF
Instrument type: LC-ESI-QTOF
Ms type: MS2
Ion mode: POSITIVE
Ionization: ESI
Fragmentation mode: CID
Collision energy: 40 eV
Resolution: 7000
Column name: Direct injection
Retention time: 0.182 min
Base peak: 301.2168
Precursor m/z: 319.2268
Precursor type: [M-H2O+H]+
Precursor intensity: 62993
m/z	relative intensity	assigned
77.0376	418	C6H5+
79.0542	968	C6H7+
81.0692	257	C6H9+
91.0542	999	C7H7+
93.0696	279	C7H9+
95.048	22	C6H7O+
95.0834	30	C7H11+
96.0802	105	C3H12O3+
97.0645	121	C6H9O+
103.0529	36	C8H7+
104.0607	26	C8H8+
105.07	845	C8H9+
107.0473	44	C7H7O+
108.1127	6	C5H16O2+
109.1024	91	C8H13+
115.0544	268	C9H7+
116.0639	49	C9H8+
117.0692	443	C9H9+
119.0482	28	C8H7O+
119.0856	242	C9H11+
121.0628	184	C8H9O+
121.0991	19	C9H13+
128.0606	155	C10H8+
129.0688	290	C10H9+
131.0471	56	C9H7O+
131.0834	155	C10H11+
132.0586	105	C9H8O+
133.0646	178	C9H9O+
135.0783	24	C9H11O+
142.0753	77	C11H10+
143.083	107	C11H11+
144.0541	33	C10H8O+
145.0616	39	C10H9O+
145.098	130	C11H13+
146.0712	67	C10H10O+
147.0818	93	C10H11O+
148.1222	20	C11H16+
149.1313	51	C11H17+
161.0959	16	C11H13O+
173.0943	37	C12H13O+
211.1445	24	C16H19+
215.141	64	C15H19O+
