Mass spectrum: Coenzyme Q10; LC-ESI-QTOF; MS2; CE: 40eV; R=7000; [M+NH4]+
Name: Coenzyme Q10
Name: 2-[(2E,6E,10E,14E,18E,22E,26E,30E,34E)-3,7,11,15,19,23,27,31,35,39-decamethyltetraconta-2,6,10,14,18,22,26,30,34,38-decaenyl]-5,6-dimethoxy-3-methylcyclohexa-2,5-diene-1,4-dione
Formula: C59H90O4
Exact mass: 862.6839
SMILES: CC1=C(C(=O)C(=C(C1=O)OC)OC)C/C=C(\C)/CC/C=C(\C)/CC/C=C(\C)/CC/C=C(\C)/CC/C=C(\C)/CC/C=C(\C)/CC/C=C(\C)/CC/C=C(\C)/CC/C=C(\C)/CCC=C(C)C
InChI: InChI=1S/C59H90O4/c1-44(2)24-15-25-45(3)26-16-27-46(4)28-17-29-47(5)30-18-31-48(6)32-19-33-49(7)34-20-35-50(8)36-21-37-51(9)38-22-39-52(10)40-23-41-53(11)42-43-55-54(12)56(60)58(62-13)59(63-14)57(55)61/h24,26,28,30,32,34,36,38,40,42H,15-23,25,27,29,31,33,35,37,39,41,43H2,1-14H3/b45-26+,46-28+,47-30+,48-32+,49-34+,50-36+,51-38+,52-40+,53-42+
Instrument: Agilent 6560 QTOF
Instrument type: LC-ESI-QTOF
Ms type: MS2
Ion mode: POSITIVE
Ionization: ESI
Fragmentation mode: CID
Collision energy: 40 eV
Resolution: 7000
Column name: Direct injection
Retention time: 0.327 min
Base peak: 647.4605
Precursor m/z: 880.7177
Precursor type: [M+NH4]+
Precursor intensity: 224056
m/z	relative intensity	assigned
77.0379	7	C6H5+
79.0549	44	C6H7+
81.0699	457	C6H9+
83.0856	79	C6H11+
85.1014	23	C6H13+
91.0544	130	C7H7+
93.0701	83	C7H9+
94.0756	7	C7H10+
95.0856	292	C7H11+
97.0995	8	C7H13+
99.0801	11	C6H11O+
105.0691	72	C8H9+
107.0345	5	C3H7O4+
107.0854	108	C8H11+
109.0635	24	C7H9O+
109.1017	199	C8H13+
113.0936	6	C7H13O+
115.0527	5	C9H7+
117.0686	14	C9H9+
119.0838	35	C9H11+
121.0278	23	C7H5O2+
121.1007	187	C9H13+
123.0793	24	C8H11O+
123.1167	59	C9H15+
125.1323	7	C9H17+
129.0705	23	C10H9+
131.0838	8	C10H11+
132.06	16	C9H8O+
133.1007	72	C10H13+
135.1163	125	C10H15+
136.0527	13	C8H8O2+
137.1317	42	C10H17+
145.1008	15	C11H13+
146.108	9	C11H14+
147.1174	13	C11H15+
149.1321	139	C11H17+
151.0745	30	C9H11O2+
154.0617	49	C8H10O3+
155.0683	8	C8H11O3+
157.1013	8	C12H13+
158.0706	7	C11H10O+
159.1162	27	C12H15+
161.0601	4	C10H9O2+
161.0939	4	C11H13O+
161.1311	66	C12H17+
163.1464	63	C12H19+
163.6189	7	C7H79+
164.043	7	C9H8O3+
167.0684	27	C9H11O3+
169.0663	2	C12H9O+
169.0847	52	C9H13O3+
171.0631	11	C8H11O4+
171.1159	50	C13H15+
173.0601	29	C11H9O2+
173.1334	31	C13H17+
175.1481	15	C13H19+
177.0544	10	C10H9O3+
177.1631	60	C13H21+
179.0682	19	C10H11O3+
179.0847	18	C14H11+
179.1064	22	C11H15O2+
179.1793	3	C13H23+
181.0844	77	C10H13O3+
182.0573	11	C9H10O4+
185.0954	11	C13H13O+
185.1279	8	C14H17+
186.1357	5	C14H18+
187.0731	10	C12H11O2+
187.1444	6	C14H19+
189.09	62	C12H13O2+
189.1243	24	C13H17O+
189.1648	31	C14H21+
190.0601	5	C11H10O3+
191.0676	18	C11H11O3+
191.1071	10	C12H15O2+
191.1781	60	C14H23+
193.0827	7	C11H13O3+
193.1001	13	C15H13+
194.0599	4	C13H8NO+
194.0924	8	C11H14O3+
195.1019	39	C11H15O3+
196.0699	14	C10H12O4+
197.0804	999	C10H13O4+
198.0838	43	C10H14O4+
198.3376	4	C9H44NO2+
200.3971	5	C11H52O+
201.166	23	C15H21+
203.1052	12	C13H15O2+
203.1777	47	C15H23+
205.0857	57	C12H13O3+
206.091	7	C12H14O3+
207.0633	7	C11H11O4+
207.0978	6	C12H15O3+
209.0766	2	C11H13O4+
211.3885	1	C12H51O+
212.1219	7	C15H16O+
213.1656	13	C16H21+
214.0906	14	C13H12NO2+
215.1792	29	C16H23+
217.0852	19	C13H13O3+
218.0896	5	C13H14O3+
219.1002	19	C13H15O3+
221.0816	5	C12H13O4+
221.119	38	C16H15N+
221.5204	10	C9H67NO2+
222.0872	17	C12H14O4+
223.0933	6	C12H15O4+
225.0905	4	C15H13O2+
225.1335	6	C12H19NO3+
226.0967	10	C15H14O2+
226.166	5	C17H22+
227.1057	12	C15H15O2+
229.0834	8	C14H13O3+
229.1943	31	C17H25+
231.1007	40	C14H15O3+
233.1084	5	C13H15NO3+
233.2302	3	C17H29+
237.1124	59	C13H17O4+
238.0967	5	C16H14O2+
239.1078	25	C16H15O2+
241.1178	5	C16H17O2+
241.1915	6	C18H25+
243.2116	19	C18H27+
245.1153	6	C15H17O3+
246.2293	12	C18H30+
247.0949	4	C14H15O4+
247.259	1	C15H35O2+
249.1101	2	C14H17O4+
252.1151	11	C17H16O2+
253.1196	12	C17H17O2+
253.157	21	C18H21O+
257.2231	5	C19H29+
261.1081	18	C15H17O4+
263.127	7	C15H19O4+
263.6974	3	C12H89NO+
265.1558	4	C19H21O+
266.1249	7	C18H18O2+
267.2084	5	C20H27+
269.1514	3	C18H21O2+
271.1273	20	C17H19O3+
271.1645	14	C18H23O2+
273.1436	6	C17H21O3+
275.1269	20	C16H19O4+
277.1532	29	C20H21O+
281.1538	4	C19H21O2+
281.2231	3	C21H29+
283.2403	11	C21H31+
285.1833	3	C19H25O2+
287.1627	3	C18H23O3+
289.1392	16	C17H21O4+
297.2594	4	C22H33+
299.2748	8	C22H35+
301.1783	17	C19H25O3+
303.1477	10	C17H21NO4+
307.1744	5	C17H25NO4+
311.2742	21	C23H35+
313.2876	7	C23H37+
315.1937	7	C20H27O3+
315.3095	10	C19H41NO2+
324.2087	11	C22H28O2+
327.191	10	C21H27O3+
327.2349	5	C22H31O2+
327.2996	8	C24H39+
338.1795	12	C21H24NO3+
339.3095	4	C21H41NO2+
341.1767	9	C24H23NO+
341.2407	6	C22H31NO2+
355.1872	14	C22H27O4+
355.2316	10	C26H29N+
363.2259	13	C25H31O2+
363.2734	6	C22H37NO3+
367.3379	4	C27H43+
371.2202	5	C23H31O4+
373.2503	6	C27H33O+
395.3616	4	C29H47+
399.2559	9	C28H33NO+
427.2848	7	C27H39O4+
449.3037	12	C30H41O3+
509.3768	2	C37H49O+
515.3565	4	C38H45N+
657.4742	12	C43H63NO4+
