Mass spectrum: 2-(Methylthio)benzothiazole; LC-ESI-QTOF; MS2; CE: 15eV; R=7000; [M+H]+
Name: 2-(Methylthio)benzothiazole
Name: 2-methylsulfanyl-1,3-benzothiazole
Formula: C8H7NS2
Exact mass: 181.002
SMILES: CSC1=NC2=CC=CC=C2S1
InChI: InChI=1S/C8H7NS2/c1-10-8-9-6-4-2-3-5-7(6)11-8/h2-5H,1H3
Instrument: Agilent 6560 QTOF
Instrument type: LC-ESI-QTOF
Ms type: MS2
Ion mode: POSITIVE
Ionization: ESI
Fragmentation mode: CID
Collision energy: 15 eV
Resolution: 7000
Column name: ZORBAX Extend-C18 3.5um, 2.1x50mm, Agilent Technologies
Retention time: 5.564 min
Base peak: 182.0094
Precursor m/z: 182.0093
Precursor type: [M+H]+
Precursor intensity: 68833.77
m/z	relative intensity	assigned
91.0412	28	C6H5N+
109.0109	36	C6H5S+
135.0135	49	C7H5NS+
136.0197	16	C7H6NS+
166.9855	999	C7H5NS2+
182.0093	953	C8H8NS2+
