Mass spectrum: Mono-iso-butyl phthalate; LC-ESI-QTOF; MS2; CE: 15eV; R=7000; [M-H]-
Name: Mono-iso-butyl phthalate
Name: Monoisobutyl phthalate
Name: 2-(2-methylpropoxycarbonyl)benzoic acid
Formula: C12H14O4
Exact mass: 222.0892
SMILES: CC(C)COC(=O)C1=CC=CC=C1C(=O)O
InChI: InChI=1S/C12H14O4/c1-8(2)7-16-12(15)10-6-4-3-5-9(10)11(13)14/h3-6,8H,7H2,1-2H3,(H,13,14)
Instrument: Agilent 6560 QTOF
Instrument type: LC-ESI-QTOF
Ms type: MS2
Ion mode: NEGATIVE
Ionization: ESI
Fragmentation mode: CID
Collision energy: 15 eV
Resolution: 7000
Retention time: 0.151 min
Base peak: 221.0828
Precursor m/z: 221.0819
Precursor type: [M-H]-
Precursor intensity: 7046.21
m/z	relative intensity	assigned
75.0232	196	C6H3-
77.0401	999	C6H5-
121.029	83	C7H5O2-
134.0378	191	C8H6O2-
147.0087	210	C8H3O3-
