Mass spectrum: Myristoyl-L-carnitine; LC-ESI-QTOF; MS2; CE: 10eV; R=7000; [M+H]+
Name: Myristoyl-L-carnitine
Name: Myristoylcarnitine
Name: 3-tetradecanoyloxy-4-(trimethylazaniumyl)butanoate
Formula: C21H41NO4
Exact mass: 371.3036
SMILES: O(C(CCCCCCCCCCCCC)=O)C(CC(=O)[O-])C[N+](C)(C)C
InChI: InChI=1S/C21H41NO4/c1-5-6-7-8-9-10-11-12-13-14-15-16-21(25)26-19(17-20(23)24)18-22(2,3)4/h19H,5-18H2,1-4H3
Instrument: Agilent 6560 QTOF
Instrument type: LC-ESI-QTOF
Ms type: MS2
Ion mode: POSITIVE
Ionization: ESI
Fragmentation mode: CID
Collision energy: 10 eV
Resolution: 7000
Column name: Direct injection
Retention time: 0.152 min
Base peak: 372.3125
Precursor m/z: 372.3108
Precursor type: [M+H]+
Precursor intensity: 1063507
m/z	relative intensity	assigned
71.0856	2	C5H11+
81.0714	3	C6H9+
83.0853	1	C6H11+
85.0288	332	C4H5O2+
95.0848	11	C7H11+
97.101	3	C7H13+
109.1015	2	C8H13+
111.1178	5	C8H15+
123.1177	3	C9H15+
137.1311	1	C10H17+
144.1021	11	C7H14NO2+
151.149	1	C11H19+
211.2059	8	C14H27O+
313.2375	55	C18H33O4+
314.2432	4	C18H34O4+
372.3118	999	C21H42NO4+
