Mass spectrum: Triphenyl phosphate; LC-ESI-QTOF; MS2; CE: 45eV; R=7000; [M+H]+
Name: Triphenyl phosphate
Formula: C18H15O4P
Exact mass: 326.0708
SMILES: C1=CC=C(C=C1)OP(=O)(OC2=CC=CC=C2)OC3=CC=CC=C3
InChI: InChI=1S/C18H15O4P/c19-23(20-16-10-4-1-5-11-16,21-17-12-6-2-7-13-17)22-18-14-8-3-9-15-18/h1-15H
Instrument: Agilent 6560 QTOF
Instrument type: LC-ESI-QTOF
Ms type: MS2
Ion mode: POSITIVE
Ionization: ESI
Fragmentation mode: CID
Collision energy: 45 eV
Resolution: 7000
Retention time: 0.116 min
Base peak: 327.0779
Precursor m/z: 327.0781
Precursor type: [M+H]+
Precursor intensity: 56086.65
m/z	relative intensity	assigned
51.0232	146	C4H3+
64.9777	10	H2O2P+
65.039	27	C5H5+
77.0387	999	C6H5+
78.0449	11	C6H6+
95.0494	33	C6H7O+
115.0515	13	C2H12O3P+
122.0154	11	C10H2+
127.0544	28	C10H7+
138.9938	21	C6H4O2P+
141.0714	14	C11H9+
151.0537	76	C12H7+
152.0616	524	C12H8+
153.0685	107	C5H14O3P+
157.0034	19	C6H6O3P+
159.0358	13	C10H8P+
168.0561	260	C12H8O+
175.0154	29	C6H8O4P+
187.0297	14	C11H8OP+
202.0778	36	C16H10+
215.0255	82	C12H8O2P+
216.0286	11	C12H9O2P+
226.078	31	C18H10+
227.0833	20	C11H16O3P+
228.0911	47	C18H12+
251.0457	23	C12H12O4P+
