Mass spectrum: PYRIDOXAL; LC-ESI-QTOF; MS2; CE: 20eV; R=5000; [M+H]+
Name: PYRIDOXAL
Name: 3-hydroxy-5-(hydroxymethyl)-2-methylpyridine-4-carbaldehyde
Formula: C8H9NO3
Exact mass: 167.05824
SMILES: CC1=NC=C(CO)C(C=O)=C1O
InChI: InChI=1S/C8H9NO3/c1-5-8(12)7(4-11)6(3-10)2-9-5/h2,4,10,12H,3H2,1H3
Instrument: Agilent 6530 QTOF
Instrument type: LC-ESI-QTOF
Ms type: MS2
Ion mode: POSITIVE
Ionization: ESI
Fragmentation mode: CID
Collision energy: 20 eV
Resolution: 5000
Column name: N/A
Retention time: 0.255 min
Base peak: 150.0569
Precursor m/z: 168.0655
Precursor type: [M+H]+
Precursor intensity: 6029486
m/z	relative intensity	assigned
41.0393	79	C3H5+
42.0344	15	C2H4N+
51.0234	4	C4H3+
52.0299	1	C4H4+
53.0392	153	C4H5+
56.0507	1	C3H6N+
65.0392	87	C5H5+
67.0549	435	C5H7+
77.0391	76	C6H5+
78.0346	16	C5H4N+
79.0545	49	C6H7+
80.0501	2	C5H6N+
81.0341	10	C5H5O+
92.05	8	C6H6N+
93.0575	39	C6H7N+
94.0656	746	C6H8N+
104.0494	2	C7H6N+
106.0651	157	C7H8N+
108.0448	2	C6H6NO+
122.0598	350	C7H8NO+
134.0585	1	C8H8NO+
148.0392	22	C8H6NO2+
150.055	999	C8H8NO2+
168.0635	2	C8H10NO3+
