Mass spectrum: PTERIN; LC-ESI-QTOF; MS2; CE: 20eV; R=5000; [M+H]+
Name: PTERIN
Name: CID 73000
Name: 2-amino-1H-pteridin-4-one
Formula: C6H5N5O
Exact mass: 163.04941
SMILES: NC1=NC2=NC=CN=C2C(=O)N1
InChI: InChI=1S/C6H5N5O/c7-6-10-4-3(5(12)11-6)8-1-2-9-4/h1-2H,(H3,7,9,10,11,12)
Instrument: Agilent 6530 QTOF
Instrument type: LC-ESI-QTOF
Ms type: MS2
Ion mode: POSITIVE
Ionization: ESI
Fragmentation mode: CID
Collision energy: 20 eV
Resolution: 5000
Column name: N/A
Retention time: 0.250 min
Base peak: 121.0508
Precursor m/z: 164.0567
Precursor type: [M+H]+
Precursor intensity: 50145
m/z	relative intensity	assigned
69.0433	123	C3H5N2+
91.0193	3	C6H3O+
92.0225	732	C4H2N3+
94.0389	107	C4H4N3+
96.0542	295	C4H6N3+
107.0371	1	C6H5NO+
119.0324	999	C5H3N4+
164.0552	202	C6H6N5O+
