Mass spectrum: 1-hexadecanoyl-2-(9Z-octadecenoyl)-sn-glycero-3-phosphocholine; LC-ESI-QTOF; MS2; CE: 40eV; R=7000; [M+H]+
Name: 1-hexadecanoyl-2-(9Z-octadecenoyl)-sn-glycero-3-phosphocholine
Name: 1-Palmitoyl-2-oleoyl-sn-glycero-3-phosphocholine
Name: [(2R)-3-hexadecanoyloxy-2-[(Z)-octadec-9-enoyl]oxypropyl] 2-(trimethylazaniumyl)ethyl phosphate
Formula: C42H82NO8P
Exact mass: 759.5778
SMILES: [C@](COP(=O)([O-])OCC[N+](C)(C)C)([H])(OC(CCCCCCC/C=C\CCCCCCCC)=O)COC(CCCCCCCCCCCCCCC)=O
InChI: InChI=1S/C42H82NO8P/c1-6-8-10-12-14-16-18-20-21-23-25-27-29-31-33-35-42(45)51-40(39-50-52(46,47)49-37-36-43(3,4)5)38-48-41(44)34-32-30-28-26-24-22-19-17-15-13-11-9-7-2/h20-21,40H,6-19,22-39H2,1-5H3/b21-20-/t40-/m1/s1
Instrument: Agilent 6560 QTOF
Instrument type: LC-ESI-QTOF
Ms type: MS2
Ion mode: POSITIVE
Ionization: ESI
Fragmentation mode: CID
Collision energy: 40 eV
Resolution: 7000
Column name: Direct injection
Retention time: 0.242 min
Base peak: 760.5874
Precursor m/z: 760.5851
Precursor type: [M+H]+
Precursor intensity: 1326087
m/z	relative intensity	assigned
71.0726	5	C4H9N+
86.0967	134	C5H12N+
87.1001	1	C2H15O3+
98.9843	4	H4O4P+
104.1064	13	C5H14NO+
124.9996	50	C2H6O4P+
166.063	6	C5H13NO3P+
184.0738	999	C5H15NO4P+
185.077	18	C2H18O7P+
207.0326	6	C13H5NO2+
223.0634	3	C14H9NO2+
266.9999	3	C18H4OP+
281.051	4	C20H10P+
282.0504	1	C9H15O8P+
341.0195	2	C17H10O6P+
355.071	2	C19H16O5P+
478.3354	1	C32H47OP+
