Mass spectrum: Methandrostenolone; LC-ESI-QTOF; MS2; CE: 10eV; R=7000; [M-H2O+H]+
Name: Methandrostenolone
Name: (8R,9S,10R,13S,14S,17S)-17-hydroxy-10,13,17-trimethyl-7,8,9,11,12,14,15,16-octahydro-6H-cyclopenta[a]phenanthren-3-one
Formula: C20H28O2
Exact mass: 300.2089
SMILES: C[C@]12CC[C@H]3[C@H]([C@@H]1CC[C@]2(C)O)CCC4=CC(=O)C=C[C@]34C
InChI: InChI=1S/C20H28O2/c1-18-9-6-14(21)12-13(18)4-5-15-16(18)7-10-19(2)17(15)8-11-20(19,3)22/h6,9,12,15-17,22H,4-5,7-8,10-11H2,1-3H3/t15-,16+,17+,18+,19+,20+/m1/s1
Instrument: Agilent 6560 QTOF
Instrument type: LC-ESI-QTOF
Ms type: MS2
Ion mode: POSITIVE
Ionization: ESI
Fragmentation mode: CID
Collision energy: 10 eV
Resolution: 7000
Column name: Direct injection
Retention time: 0.180 min
Base peak: 301.2172
Precursor m/z: 283.2056
Precursor type: [M-H2O+H]+
Precursor intensity: 223735
m/z	relative intensity	assigned
77.0398	45	C6H5+
79.0533	8	C6H7+
81.0705	95	C6H9+
83.086	13	C6H11+
91.0548	88	C7H7+
93.0711	63	C7H9+
95.0859	136	C7H11+
97.1023	31	C7H13+
103.0529	6	C8H7+
105.0707	52	C8H9+
107.0857	166	C8H11+
108.0915	3	C8H12+
109.0997	23	C8H13+
119.0854	32	C9H11+
121.065	999	C8H9O+
121.1011	104	C9H13+
123.1172	50	C9H15+
129.0724	17	C10H9+
133.0669	7	C9H9O+
133.1012	18	C10H13+
135.0798	132	C9H11O+
135.1161	48	C10H15+
143.0841	12	C11H11+
145.0642	14	C10H9O+
145.1017	9	C11H13+
146.0736	4	C10H10O+
147.08	98	C10H11O+
147.1178	10	C11H15+
149.1325	729	C11H17+
150.1371	44	C11H18+
151.1454	7	C11H19+
153.0672	6	C12H9+
155.0866	3	C12H11+
158.0711	8	C11H10O+
159.0814	45	C11H11O+
161.0952	10	C11H13O+
161.132	63	C12H17+
162.1365	6	C12H18+
163.1483	157	C12H19+
173.0961	208	C12H13O+
175.1105	15	C12H15O+
175.1479	52	C13H19+
187.1116	40	C13H15O+
199.1103	13	C14H15O+
201.1277	12	C14H17O+
213.1281	11	C15H17O+
213.1662	7	C16H21+
215.1398	14	C15H19O+
223.1487	8	C17H19+
227.1421	28	C16H19O+
251.1824	4	C19H23+
265.1962	3	C20H25+
283.2064	321	C20H27O+
