Mass spectrum: trans-2-octenoyl-L-carnitine; LC-ESI-QTOF; MS2; CE: 10eV; R=5000; [M+H]+
Name: trans-2-octenoyl-L-carnitine
Name: (2E)-octenoylcarnitine
Name: 3-[(E)-oct-2-enoyl]oxy-4-(trimethylazaniumyl)butanoate
Formula: C15H27NO4
Exact mass: 285.1940
SMILES: O=C(OC(CC([O-])=O)C[N+](C)(C)C)/C=C/CCCCC
InChI: InChI=1S/C15H27NO4/c1-5-6-7-8-9-10-15(19)20-13(11-14(17)18)12-16(2,3)4/h9-10,13H,5-8,11-12H2,1-4H3/b10-9+
Instrument: Agilent 6530 QTOF
Instrument type: LC-ESI-QTOF
Ms type: MS2
Ion mode: POSITIVE
Ionization: ESI
Fragmentation mode: CID
Collision energy: 10 eV
Resolution: 5000
Column name: N/A
Retention time: 0.217 min
Base peak: 286.2016
Precursor m/z: 286.2013
Precursor type: [M+H]+
Precursor intensity: 2341576
m/z	relative intensity	assigned
41.0385	1	C3H5+
55.0171	18	C3H3O+
57.0322	5	C3H5O+
60.0808	57	C3H10N+
73.0275	21	C3H5O2+
81.0692	1	C6H9+
85.0274	821	C4H5O2+
97.1015	2	C7H13+
125.0937	190	C8H13O+
143.1043	79	C8H15O2+
144.1	30	C7H14NO2+
227.1239	337	C12H19O4+
286.1975	999	C15H28NO4+
