Mass spectrum: 1-tridecanoyl-sn-glycero-3-phosphoethanolamine; LC-ESI-QTOF; MS2; CE: 10eV; R=7000; [M+Na]+
Name: 1-tridecanoyl-sn-glycero-3-phosphoethanolamine
Name: [(2R)-3-[2-aminoethoxy(hydroxy)phosphoryl]oxy-2-hydroxypropyl] tridecanoate
Formula: C18H38NO7P
Exact mass: 411.2386
SMILES: [C@](COP(=O)(O)OCCN)([H])(O)COC(CCCCCCCCCCCC)=O
InChI: InChI=1S/C18H38NO7P/c1-2-3-4-5-6-7-8-9-10-11-12-18(21)24-15-17(20)16-26-27(22,23)25-14-13-19/h17,20H,2-16,19H2,1H3,(H,22,23)/t17-/m1/s1
Instrument: Agilent 6560 QTOF
Instrument type: LC-ESI-QTOF
Ms type: MS2
Ion mode: POSITIVE
Ionization: ESI
Fragmentation mode: CID
Collision energy: 10 eV
Resolution: 7000
Column name: Direct injection
Retention time: 0.209 min
Base peak: 412.2475
Precursor m/z: 434.2278
Precursor type: [M+Na]+
Precursor intensity: 34089
m/z	relative intensity	assigned
79.0521	30	H11NNaP+
109.1024	10	C4H16NP+
120.9697	12	C3HNNaOP+
146.0026	8	C11N+
195.0021	139	C3H9NaO6P+
216.1416	17	C5H23NNaO6+
264.9514	15	C8H3NaO7P+
271.2275	99	C12H34NO3P+
272.2323	75	C9H37O6P+
293.1458	12	C12H23NO7+
373.1771	144	C18H30O6P+
391.186	999	C16H33NaO7P+
392.187	47	C17H31NO7P+
434.2293	627	C18H38NNaO7P+
