Mass spectrum: N-Heptadecanoyl-D-erythro-Sphingosine; LC-ESI-QTOF; MS2; CE: 10eV; R=7000; [M+Cl]-
Name: N-Heptadecanoyl-D-erythro-Sphingosine
Name: N-Heptadecanoylsphingosine
Name: N-[(E,2S,3R)-1,3-dihydroxyoctadec-4-en-2-yl]heptadecanamide
Formula: C35H69NO3
Exact mass: 551.5277
SMILES: OC[C@H](NC(CCCCCCCCCCCCCCCC)=O)[C@H](O)/C=C/CCCCCCCCCCCCC
InChI: InChI=1S/C35H69NO3/c1-3-5-7-9-11-13-15-17-19-21-23-25-27-29-31-35(39)36-33(32-37)34(38)30-28-26-24-22-20-18-16-14-12-10-8-6-4-2/h28,30,33-34,37-38H,3-27,29,31-32H2,1-2H3,(H,36,39)/b30-28+/t33-,34+/m0/s1
Instrument: Agilent 6560 QTOF
Instrument type: LC-ESI-QTOF
Ms type: MS2
Ion mode: NEGATIVE
Ionization: ESI
Fragmentation mode: CID
Collision energy: 10 eV
Resolution: 7000
Column name: N/A
Retention time: 0.148 min
Base peak: 610.5436
Precursor m/z: 586.4971
Precursor type: [M+Cl]-
Precursor intensity: 19890
m/z	relative intensity	assigned
86.9837	9	ClH4O3-
132.0074	33	C7H2NO2-
133.4559	14	C3H62Cl-
213.967	23	C11HClNO2-
227.1991	34	C14H27O2-
586.4998	999	C35H69ClNO3-
