Mass spectrum: SPERMINE; LC-ESI-QTOF; MS2; CE: 20eV; R=5000; [M+H]+
Name: SPERMINE
Name: N,N`-bis(3-aminopropyl)butane-1,4-diamine
Formula: C10H26N4
Exact mass: 202.21575
SMILES: NCCCNCCCCNCCCN
InChI: InChI=1S/C10H26N4/c11-5-3-9-13-7-1-2-8-14-10-4-6-12/h13-14H,1-12H2
Instrument: Agilent 6530 QTOF
Instrument type: LC-ESI-QTOF
Ms type: MS2
Ion mode: POSITIVE
Ionization: ESI
Fragmentation mode: CID
Collision energy: 20 eV
Resolution: 5000
Column name: N/A
Retention time: 0.559 min
Base peak: 203.2229
Precursor m/z: 203.223
Precursor type: [M+H]+
Precursor intensity: 882302
m/z	relative intensity	assigned
41.0388	1	C3H5+
44.0488	2	C2H6N+
55.0551	6	C4H7+
56.0494	5	C3H6N+
58.0657	198	C3H8N+
70.0652	20	C4H8N+
72.0812	60	C4H10N+
84.0813	680	C5H10N+
91.0536	1	C7H7+
98.0953	1	C6H12N+
112.112	999	C7H14N+
114.1836	1	C3H22N4+
127.1204	4	C7H15N2+
129.1375	183	C7H17N2+
159.0883	1	C10H11N2+
203.2188	1	C10H27N4+
