Mass spectrum: 3-Hydroxyphenyl diphenyl phosphate ; LC-ESI-QTOF; MS2; CE: 25eV; R=7000; [M+H]+
Name: 3-Hydroxyphenyl diphenyl phosphate 
Name: 3-(Diphenoxyphosphinyloxy)phenol
Name: (3-hydroxyphenyl) diphenyl phosphate
Formula: C18H15O5P
Exact mass: 342.0657
SMILES: C1=CC=C(C=C1)OP(=O)(OC2=CC=CC=C2)OC3=CC=CC(=C3)O
InChI: InChI=1S/C18H15O5P/c19-15-8-7-13-18(14-15)23-24(20,21-16-9-3-1-4-10-16)22-17-11-5-2-6-12-17/h1-14,19H
Instrument: Agilent 6560 QTOF
Instrument type: LC-ESI-QTOF
Ms type: MS2
Ion mode: POSITIVE
Ionization: ESI
Fragmentation mode: CID
Collision energy: 25 eV
Resolution: 7000
Retention time: 0.115 min
Base peak: 343.0731
Precursor m/z: 343.073
Precursor type: [M+H]+
Precursor intensity: 92073.98
m/z	relative intensity	assigned
51.0228	39	C4H3+
65.0385	894	C5H5+
77.0387	647	C6H5+
93.0337	192	C6H5O+
94.0425	20	C6H6O+
95.0488	45	C6H7O+
111.0416	38	C6H7O2+
115.0543	221	C9H7+
139.0542	30	C11H7+
140.0018	25	C6H5O2P+
141.0691	999	C11H9+
142.0718	32	C4H15O3P+
151.0538	44	C12H7+
152.0616	320	C12H8+
153.0692	274	C12H9+
155.9941	21	C6H5O3P+
168.0564	99	C12H8O+
169.0644	285	C12H9O+
175.0144	101	C6H8O4P+
184.0519	82	C12H8O2+
187.0277	26	C11H8OP+
187.0736	73	C5H16O5P+
202.0774	123	C16H10+
203.0263	70	C11H8O2P+
203.0819	38	C9H16O3P+
215.0248	411	C12H8O2P+
215.0847	28	C17H11+
217.099	31	C17H13+
223.0172	24	C17H3O+
226.0767	112	C18H10+
227.0849	59	C18H11+
228.0919	48	C18H12+
231.0205	687	C12H8O3P+
232.0234	35	C12H9O3P+
233.0371	137	C12H10O3P+
234.0401	25	C12H11O3P+
249.0306	202	C12H10O4P+
250.0384	26	C12H11O4P+
251.0464	965	C12H12O4P+
252.0477	28	C15H8O4+
267.0417	340	C12H12O5P+
268.0423	40	C15H8O5+
307.0536	23	C18H12O3P+
343.0726	604	C18H16O5P+
