Mass spectrum: Trimyristin; LC-ESI-QTOF; MS2; CE: 20eV; R=7000; [M+Na]+
Name: Trimyristin
Name: 2,3-di(tetradecanoyloxy)propyl tetradecanoate
Formula: C45H86O6
Exact mass: 722.6424
SMILES: CCCCCCCCCCCCCC(=O)OCC(COC(=O)CCCCCCCCCCCCC)OC(=O)CCCCCCCCCCCCC
InChI: InChI=1S/C45H86O6/c1-4-7-10-13-16-19-22-25-28-31-34-37-43(46)49-40-42(51-45(48)39-36-33-30-27-24-21-18-15-12-9-6-3)41-50-44(47)38-35-32-29-26-23-20-17-14-11-8-5-2/h42H,4-41H2,1-3H3
Instrument: Agilent 6560 QTOF
Instrument type: LC-ESI-QTOF
Ms type: MS2
Ion mode: POSITIVE
Ionization: ESI
Fragmentation mode: CID
Collision energy: 20 eV
Resolution: 7000
Column name: Direct injection
Retention time: 0.323 min
Base peak: 647.4606
Precursor m/z: 745.6317
Precursor type: [M+Na]+
Precursor intensity: 62426
m/z	relative intensity	assigned
85.0643	3	C5H9O+
85.1014	26	C6H13+
109.1003	6	C8H13+
127.1523	5	H24NaO5+
211.2079	11	C5H32NaO6+
326.962	11	C20NaO4+
478.2142	5	C32H30O4+
495.442	123	C31H59O4+
496.4442	13	C29H61NaO4+
517.423	102	C31H58NaO4+
518.4284	14	C31H59NaO4+
686.1666	5	C45H27NaO6+
745.632	999	C45H86NaO6+
