Mass spectrum: Cyclohexane-1,2-dicarboxylic mono carboxyisooctyl ester; LC-ESI-QTOF; MS2; CE: 25eV; R=7000; [M-H]-
Name: Cyclohexane-1,2-dicarboxylic mono carboxyisooctyl ester
Name: (1S,2R)-2-(7-carboxy-4-methylheptoxy)carbonylcyclohexane-1-carboxylic acid
Formula: C17H28O6
Exact mass: 328.1886
SMILES: CC(CCCOC(=O)[C@@H]1CCCC[C@@H]1C(=O)O)CCCC(=O)O
InChI: InChI=1S/C17H28O6/c1-12(6-4-10-15(18)19)7-5-11-23-17(22)14-9-3-2-8-13(14)16(20)21/h12-14H,2-11H2,1H3,(H,18,19)(H,20,21)/t12?,13-,14+/m0/s1
Instrument: Agilent 6560 QTOF
Instrument type: LC-ESI-QTOF
Ms type: MS2
Ion mode: NEGATIVE
Ionization: ESI
Fragmentation mode: CID
Collision energy: 25 eV
Resolution: 7000
Column name: ZORBAX Extend-C18 3.5um, 2.1x50mm, Agilent Technologies
Retention time: 4.010 min
Base peak: 327.1819
Precursor m/z: 327.1813
Precursor type: [M-H]-
Precursor intensity: 63868.22
m/z	relative intensity	assigned
107.0487	12	C7H7O-
109.0659	394	C7H9O-
125.0608	30	C7H9O2-
127.0771	62	C7H11O2-
127.1126	98	C8H15O-
137.0975	14	C9H13O-
153.0559	418	C8H9O3-
171.0664	38	C8H11O4-
171.1015	20	C9H15O3-
173.1188	999	C9H17O3-
