Mass spectrum: Tri-p-tolyl phosphate; LC-ESI-QTOF; MS2; CE: 55eV; R=7000; [M+H]+
Name: Tri-p-tolyl phosphate
Name: Tricresyl phosphate
Name: tris(4-methylphenyl) phosphate
Formula: C21H21O4P
Exact mass: 368.1177
SMILES: CC1=CC=C(C=C1)OP(=O)(OC2=CC=C(C=C2)C)OC3=CC=C(C=C3)C
InChI: InChI=1S/C21H21O4P/c1-16-4-10-19(11-5-16)23-26(22,24-20-12-6-17(2)7-13-20)25-21-14-8-18(3)9-15-21/h4-15H,1-3H3
Instrument: Agilent 6560 QTOF
Instrument type: LC-ESI-QTOF
Ms type: MS2
Ion mode: POSITIVE
Ionization: ESI
Fragmentation mode: CID
Collision energy: 55 eV
Resolution: 7000
Retention time: 0.109 min
Base peak: 369.1255
Precursor m/z: 369.125
Precursor type: [M+H]+
Precursor intensity: 198989.72
m/z	relative intensity	assigned
51.0224	11	C4H3+
63.0235	19	C5H3+
65.0388	539	C5H5+
77.039	162	C6H5+
79.0542	159	C6H7+
89.0386	5	C7H5+
90.0467	32	C7H6+
91.0545	936	C7H7+
92.0577	36	H13O3P+
107.0489	131	C7H7O+
108.0576	16	C7H8O+
109.0632	10	H14O4P+
115.0536	13	C9H7+
139.0521	7	C4H12O3P+
141.0691	27	C11H9+
142.079	15	C11H10+
143.0841	5	C4H16O3P+
152.0622	37	C12H8+
153.0093	21	C7H6O2P+
153.0705	8	C12H9+
154.0779	6	C12H10+
155.0225	6	C7H8O2P+
164.0624	16	C13H8+
165.0699	999	C13H9+
166.0768	259	C13H10+
167.0828	16	C6H16O3P+
178.0765	37	C7H15O3P+
179.0859	37	C14H11+
180.0906	11	C7H17O3P+
181.0639	28	C13H9O+
181.0975	4	C7H18O3P+
182.0698	7	C6H15O4P+
195.0801	105	C14H11O+
196.0877	103	C14H12O+
200.0386	10	C12H9OP+
215.0623	19	C13H12OP+
226.0767	8	C18H10+
239.0867	17	C19H11+
240.093	14	C19H12+
241.102	17	C19H13+
243.0573	42	C14H12O2P+
244.0576	4	C17H8O2+
254.1123	4	C20H14+
255.1181	18	C20H15+
256.1216	10	C13H21O3P+
279.0746	5	C14H16O4P+
