Mass spectrum: INOSINE; LC-ESI-QTOF; MS2; CE: 20eV; R=5000; [M+H]+
Name: INOSINE
Name: CID 6021
Name: 9-[(2R,3R,4S,5R)-3,4-dihydroxy-5-(hydroxymethyl)oxolan-2-yl]-3H-purin-6-one
Formula: C10H12N4O5
Exact mass: 268.08077
SMILES: OC[C@H]1O[C@H]([C@H](O)[C@@H]1O)N1C=NC2=C1N=CNC2=O
InChI: InChI=1S/C10H12N4O5/c15-1-4-6(16)7(17)10(19-4)14-3-13-5-8(14)11-2-12-9(5)18/h2-4,6-7,10,15-17H,1H2,(H,11,12,18)/t4-,6-,7-,10-/m1/s1
Instrument: Agilent 6530 QTOF
Instrument type: LC-ESI-QTOF
Ms type: MS2
Ion mode: POSITIVE
Ionization: ESI
Fragmentation mode: CID
Collision energy: 20 eV
Resolution: 5000
Column name: N/A
Retention time: 0.214 min
Base peak: 307.0436
Precursor m/z: 269.088
Precursor type: [M+H]+
Precursor intensity: 926331
m/z	relative intensity	assigned
43.0177	2	C2H3O+
53.0133	1	C2HN2+
57.0336	13	C3H5O+
59.0491	2	C3H7O+
61.0262	1	H3N3O+
67.0277	4	H5NO3+
69.0312	2	C2H3N3+
71.0119	2	CHN3O+
73.0268	3	CH3N3O+
82.0388	10	C3H4N3+
85.0259	5	C2H3N3O+
87.0425	1	C2H5N3O+
92.0252	1	C6H4O+
94.039	16	C4H4N3+
97.0258	3	C3H3N3O+
110.0341	33	C4H4N3O+
119.0329	32	C2H5N3O3+
137.0434	999	C2H7N3O4+
138.0446	4	C6H6N2O2+
