Mass spectrum: 1-tridecanoyl-sn-glycero-3-phosphoethanolamine; LC-ESI-QTOF; MS2; CE: 20eV; R=7000; [M+H]+
Name: 1-tridecanoyl-sn-glycero-3-phosphoethanolamine
Name: [(2R)-3-[2-aminoethoxy(hydroxy)phosphoryl]oxy-2-hydroxypropyl] tridecanoate
Formula: C18H38NO7P
Exact mass: 411.2386
SMILES: [C@](COP(=O)(O)OCCN)([H])(O)COC(CCCCCCCCCCCC)=O
InChI: InChI=1S/C18H38NO7P/c1-2-3-4-5-6-7-8-9-10-11-12-18(21)24-15-17(20)16-26-27(22,23)25-14-13-19/h17,20H,2-16,19H2,1H3,(H,22,23)/t17-/m1/s1
Instrument: Agilent 6560 QTOF
Instrument type: LC-ESI-QTOF
Ms type: MS2
Ion mode: POSITIVE
Ionization: ESI
Fragmentation mode: CID
Collision energy: 20 eV
Resolution: 7000
Column name: Direct injection
Retention time: 0.180 min
Base peak: 412.2477
Precursor m/z: 412.2459
Precursor type: [M+H]+
Precursor intensity: 48206
m/z	relative intensity	assigned
71.0499	14	H10NOP+
71.085	31	C5H11+
81.0694	98	C6H9+
85.1008	39	C6H13+
95.0841	41	H16O3P+
97.1008	29	C7H13+
97.263	19	H35NO3+
98.1075	15	H19O3P+
98.9833	18	H4O4P+
103.0742	16	C5H11O2+
104.9908	22	C6H2P+
109.0636	21	C7H9O+
109.1001	26	C8H13+
123.1197	6	C5H18NP+
137.1294	13	C3H22O3P+
155.0098	74	C3H8O5P+
173.018	7	C10H6OP+
179.1787	25	C13H23+
197.1894	23	C13H25O+
198.0502	3	C9H10O5+
215.1999	79	C13H27O2+
216.0636	4	C5H15NO6P+
229.1868	12	C9H27NO5+
240.232	53	C15H30NO+
271.2267	999	C16H31O3+
272.2298	115	C9H37O6P+
320.1617	8	C18H24O5+
351.1969	2	C16H32O6P+
