Mass spectrum: Tris(2-chloroisopropyl)phosphate; LC-ESI-QTOF; MS2; CE: 40eV; R=7000; [M+Na]+
Name: Tris(2-chloroisopropyl)phosphate
Name: Tris(1-chloro-2-propyl) phosphate
Name: tris(1-chloropropan-2-yl) phosphate
Formula: C9H18Cl3O4P
Exact mass: 326.0008
SMILES: CC(CCl)OP(=O)(OC(C)CCl)OC(C)CCl
InChI: InChI=1S/C9H18Cl3O4P/c1-7(4-10)14-17(13,15-8(2)5-11)16-9(3)6-12/h7-9H,4-6H2,1-3H3
Instrument: Agilent 6560 QTOF
Instrument type: LC-ESI-QTOF
Ms type: MS2
Ion mode: POSITIVE
Ionization: ESI
Fragmentation mode: CID
Collision energy: 40 eV
Resolution: 7000
Column name: InfinityLab Poroshell 120 EC-C18 2.7Âµm, 3x100mm, Agilent Technologies
Retention time: 7.464 min
Base peak: 98.9852
Precursor m/z: 348.99
Precursor type: [M+Na]+
Precursor intensity: 3877.77
m/z	relative intensity	assigned
57.0708	268	C4H9+
80.9739	262	CH2ClO2+
98.9844	999	CH4ClO3+
104.9289	210	CCl2Na+
118.9197	271	Cl2H2OP+
136.9313	236	C4ClNaP+
198.8855	611	CH3Cl3O3P+
