Mass spectrum: Mono-methyl phthalate; LC-ESI-QTOF; MS2; CE: 5eV; R=7000; [M-H]-
Name: Mono-methyl phthalate
Name: 2-(Methoxycarbonyl)benzoic acid
Name: 2-methoxycarbonylbenzoic acid
Formula: C9H8O4
Exact mass: 180.0423
SMILES: COC(=O)C1=CC=CC=C1C(=O)O
InChI: InChI=1S/C9H8O4/c1-13-9(12)7-5-3-2-4-6(7)8(10)11/h2-5H,1H3,(H,10,11)
Instrument: Agilent 6560 QTOF
Instrument type: LC-ESI-QTOF
Ms type: MS2
Ion mode: NEGATIVE
Ionization: ESI
Fragmentation mode: CID
Collision energy: 5 eV
Resolution: 7000
Column name: ZORBAX Extend-C18 3.5um, 2.1x50mm, Agilent Technologies
Retention time: 0.332 min
Base peak: 955.9733
Precursor m/z: 179.035
Precursor type: [M-H]-
Precursor intensity: 5034.44
m/z	relative intensity	assigned
77.0402	999	C6H5-
107.0496	539	C7H7O-
179.0369	273	C9H7O4-
