Mass spectrum: Cholic acid; LC-ESI-QTOF; MS2; CE: 10eV; R=7000; [M+NH4]+
Name: Cholic acid
Name: (4R)-4-[(3R,5S,7R,8R,9S,10S,12S,13R,14S,17R)-3,7,12-trihydroxy-10,13-dimethyl-2,3,4,5,6,7,8,9,11,12,14,15,16,17-tetradecahydro-1H-cyclopenta[a]phenanthren-17-yl]pentanoic acid
Formula: C24H40O5
Exact mass: 408.2876
SMILES: C[C@H](CCC(=O)O)[C@H]1CC[C@@H]2[C@@]1([C@H](C[C@H]3[C@H]2[C@@H](C[C@H]4[C@@]3(CC[C@H](C4)O)C)O)O)C
InChI: InChI=1S/C24H40O5/c1-13(4-7-21(28)29)16-5-6-17-22-18(12-20(27)24(16,17)3)23(2)9-8-15(25)10-14(23)11-19(22)26/h13-20,22,25-27H,4-12H2,1-3H3,(H,28,29)/t13-,14+,15-,16-,17+,18+,19-,20+,22+,23+,24-/m1/s1
Instrument: Agilent 6560 QTOF
Instrument type: LC-ESI-QTOF
Ms type: MS2
Ion mode: POSITIVE
Ionization: ESI
Fragmentation mode: CID
Collision energy: 10 eV
Resolution: 7000
Column name: Direct injection
Retention time: 0.240 min
Base peak: 415.2127
Precursor m/z: 426.3214
Precursor type: [M+NH4]+
Precursor intensity: 40307
m/z	relative intensity	assigned
74.0964	18	C4H12N+
147.1147	38	C11H15+
149.1333	21	C11H17+
159.115	37	C12H15+
161.1305	16	C12H17+
213.1628	20	C16H21+
215.1805	4	C16H23+
216.1249	15	C10H18NO4+
227.1446	22	C16H19O+
227.1782	6	C17H23+
254.2075	10	C12H30O5+
273.1853	23	C18H25O2+
293.2247	13	C22H29+
295.2037	5	C21H27O+
301.2113	14	C20H29O2+
310.2586	5	C15H36NO5+
319.2451	8	C17H35O5+
325.2192	13	C22H29O2+
337.2565	12	C24H33O+
338.2529	20	C23H32NO+
355.2634	999	C24H35O2+
356.2663	102	C24H36O2+
373.2739	425	C24H37O3+
374.2747	27	C23H36NO3+
391.2813	11	C24H39O4+
426.3219	9	C24H44NO5+
