Mass spectrum: 1-(9Z-octadecenoyl)-sn-glycero-3-phosphoethanolamine; LC-ESI-QTOF; MS2; CE: 10eV; R=7000; [M-H]-
Name: 1-(9Z-octadecenoyl)-sn-glycero-3-phosphoethanolamine
Name: [(2R)-3-[2-aminoethoxy(hydroxy)phosphoryl]oxy-2-hydroxypropyl] (Z)-octadec-9-enoate
Formula: C23H46NO7P
Exact mass: 479.3012
SMILES: CCCCCCCC/C=C\CCCCCCCC(=O)OC[C@H](COP(=O)([O-])OCC[NH3+])O
InChI: InChI=1S/C23H46NO7P/c1-2-3-4-5-6-7-8-9-10-11-12-13-14-15-16-17-23(26)29-20-22(25)21-31-32(27,28)30-19-18-24/h9-10,22,25H,2-8,11-21,24H2,1H3,(H,27,28)/b10-9-/t22-/m1/s1
Instrument: Agilent 6560 QTOF
Instrument type: LC-ESI-QTOF
Ms type: MS2
Ion mode: NEGATIVE
Ionization: ESI
Fragmentation mode: CID
Collision energy: 10 eV
Resolution: 7000
Column name: N/A
Retention time: 0.164 min
Base peak: 478.295
Precursor m/z: 478.2939
Precursor type: [M-H]-
Precursor intensity: 238572
m/z	relative intensity	assigned
78.9586	7	O3P-
140.0135	8	C9H2NO-
143.0367	1	C9H5NO-
152.9917	3	C2H3NO7-
196.0365	68	C9H8O5-
197.0543	1	C5H11NO7-
214.0487	19	C5H13NO6P-
214.306	1	C9H42O4-
220.9608	1	C9H2O5P-
227.0256	1	C13H8O2P-
281.2485	758	C18H33O2-
282.251	72	C10H36NO7-
282.3399	3	C16H44NO2-
308.2141	3	C22H28O-
478.2948	999	C23H45NO7P-
