Mass spectrum: 2-Aminobenzothiazole; LC-ESI-QTOF; MS2; CE: 60eV; R=7000; [M+H]+
Name: 2-Aminobenzothiazole
Name: 1,3-benzothiazol-2-amine
Formula: C7H6N2S
Exact mass: 150.0252
SMILES: C1=CC=C2C(=C1)N=C(S2)N
InChI: InChI=1S/C7H6N2S/c8-7-9-5-3-1-2-4-6(5)10-7/h1-4H,(H2,8,9)
Instrument: Agilent 6560 QTOF
Instrument type: LC-ESI-QTOF
Ms type: MS2
Ion mode: POSITIVE
Ionization: ESI
Fragmentation mode: CID
Collision energy: 60 eV
Resolution: 7000
Retention time: 0.148 min
Base peak: 151.0329
Precursor m/z: 151.0324
Precursor type: [M+H]+
Precursor intensity: 121538.66
m/z	relative intensity	assigned
50.0154	12	C4H2+
51.0235	188	C4H3+
52.0301	8	C4H4+
53.0392	200	C4H5+
54.0341	10	C3H4N+
57.9869	13	C2H2S+
59.9907	58	CH2NS+
62.0162	19	C5H2+
63.0234	164	C5H3+
64.0187	123	C4H2N+
64.0298	37	C5H4+
65.0388	999	C5H5+
66.0469	20	C5H6+
67.0409	6	C4H5N+
67.971	5	C3S+
68.9794	584	C3HS+
69.9872	6	C3H2S+
75.0229	8	C6H3+
76.017	7	C5H2N+
77.0386	124	C6H5+
79.0415	10	C5H5N+
80.0498	153	C5H6N+
80.9789	15	C4HS+
81.9876	39	C4H2S+
82.995	27	C4H3S+
90.0338	47	C6H4N+
91.0416	45	C6H5N+
92.9794	20	C5HS+
93.0577	5	C6H7N+
93.9751	5	C4NS+
94.9952	9	C5H3S+
96.0036	19	C5H4S+
97.0105	8	C5H5S+
105.9861	8	C6H2S+
106.994	7	C6H3S+
108.0028	47	C6H4S+
109.0104	70	C6H5S+
118.0524	17	C7H6N2+
