Mass spectrum: Tris(2-butoxyethyl) phosphate; LC-ESI-QTOF; MS2; CE: 20eV; R=7000; [M+H]+
Name: Tris(2-butoxyethyl) phosphate
Formula: C18H39O7P
Exact mass: 398.2433
SMILES: CCCCOCCOP(=O)(OCCOCCCC)OCCOCCCC
InChI: InChI=1S/C18H39O7P/c1-4-7-10-20-13-16-23-26(19,24-17-14-21-11-8-5-2)25-18-15-22-12-9-6-3/h4-18H2,1-3H3
Instrument: Agilent 6560 QTOF
Instrument type: LC-ESI-QTOF
Ms type: MS2
Ion mode: POSITIVE
Ionization: ESI
Fragmentation mode: CID
Collision energy: 20 eV
Resolution: 7000
Retention time: 0.115 min
Base peak: 149.0233
Precursor m/z: 399.2506
Precursor type: [M+H]+
Precursor intensity: 13876.63
m/z	relative intensity	assigned
55.0545	737	C4H7+
57.0702	999	C4H9+
83.0849	478	C6H11+
98.9842	122	H4O4P+
101.0956	205	C6H13O+
124.9999	118	C2H6O4P+
143.0087	213	C2H8O5P+
199.0727	209	C6H16O5P+
