Mass spectrum: Tris(tert-butylphenyl) phosphate; LC-ESI-QTOF; MS2; CE: 35eV; R=7000; [M+H]+
Name: Tris(tert-butylphenyl) phosphate
Name: tris(2-tert-butylphenyl) phosphate
Formula: C30H39O4P
Exact mass: 494.2586
SMILES: CC(C)(C)C1=CC=CC=C1OP(=O)(OC2=CC=CC=C2C(C)(C)C)OC3=CC=CC=C3C(C)(C)C
InChI: InChI=1S/C30H39O4P/c1-28(2,3)22-16-10-13-19-25(22)32-35(31,33-26-20-14-11-17-23(26)29(4,5)6)34-27-21-15-12-18-24(27)30(7,8)9/h10-21H,1-9H3
Instrument: Agilent 6560 QTOF
Instrument type: LC-ESI-QTOF
Ms type: MS2
Ion mode: POSITIVE
Ionization: ESI
Fragmentation mode: CID
Collision energy: 35 eV
Resolution: 7000
Retention time: 0.112 min
Base peak: 495.2657
Precursor m/z: 495.2659
Precursor type: [M+H]+
Precursor intensity: 77733.83
m/z	relative intensity	assigned
51.0217	6	C4H3+
57.0704	472	C4H9+
77.0394	11	C6H5+
152.0586	5	C5H13O3P+
153.0725	15	C12H9+
215.0264	19	C12H8O2P+
228.0928	11	C18H12+
233.0348	11	C12H10O3P+
251.0492	17	C19H7O+
327.078	999	C18H16O4P+
328.0811	103	C18H17O4P+
383.1409	251	C22H24O4P+
384.1435	51	C22H25O4P+
439.2027	59	C26H32O4P+
440.204	10	C29H28O4+
495.2668	6	C30H40O4P+
