Mass spectrum: Bisphenol S; LC-ESI-QTOF; MS2; CE: 45eV; R=7000; [M-H]-
Name: Bisphenol S
Name: 4,4`-Sulfonyldiphenol
Name: 4-(4-hydroxyphenyl)sulfonylphenol
Formula: C12H10O4S
Exact mass: 250.0300
SMILES: C1=CC(=CC=C1O)S(=O)(=O)C2=CC=C(C=C2)O
InChI: InChI=1S/C12H10O4S/c13-9-1-5-11(6-2-9)17(15,16)12-7-3-10(14)4-8-12/h1-8,13-14H
Instrument: Agilent 6560 QTOF
Instrument type: LC-ESI-QTOF
Ms type: MS2
Ion mode: NEGATIVE
Ionization: ESI
Fragmentation mode: CID
Collision energy: 45 eV
Resolution: 7000
Retention time: 0.186 min
Base peak: 249.0235
Precursor m/z: 249.0227
Precursor type: [M-H]-
Precursor intensity: 89971.52
m/z	relative intensity	assigned
63.9622	19	O2S-
92.027	999	C6H4O-
93.0325	31	C6H5O-
108.0216	503	C6H4O2-
117.0362	9	C8H5O-
184.0503	5	C12H8O2-
