Mass spectrum: Methyltestosterone; LC-ESI-QTOF; MS2; CE: 10eV; R=7000; [M+H]+
Name: Methyltestosterone
Name: Androst-4-en-3-one, 17-hydroxy-17-methyl-, (17beta)-
Name: 17-hydroxy-10,13,17-trimethyl-2,6,7,8,9,11,12,14,15,16-decahydro-1H-cyclopenta[a]phenanthren-3-one
Formula: C20H30O2
Exact mass: 302.2246
SMILES: CC12CCC(=O)C=C1CCC3C2CCC4(C3CCC4(C)O)C
InChI: InChI=1S/C20H30O2/c1-18-9-6-14(21)12-13(18)4-5-15-16(18)7-10-19(2)17(15)8-11-20(19,3)22/h12,15-17,22H,4-11H2,1-3H3
Instrument: Agilent 6560 QTOF
Instrument type: LC-ESI-QTOF
Ms type: MS2
Ion mode: POSITIVE
Ionization: ESI
Fragmentation mode: CID
Collision energy: 10 eV
Resolution: 7000
Column name: Direct injection
Retention time: 0.156 min
Base peak: 303.233
Precursor m/z: 303.2319
Precursor type: [M+H]+
Precursor intensity: 473084
m/z	relative intensity	assigned
79.0536	14	C6H7+
81.071	14	C6H9+
83.049	21	C5H7O+
83.0853	9	C6H11+
85.0659	10	C5H9O+
91.0548	8	C7H7+
93.0695	20	C7H9+
95.0861	64	C7H11+
97.0652	329	C6H9O+
105.0706	13	C8H9+
107.0857	34	C8H11+
109.0651	246	C7H9O+
109.1017	26	C8H13+
111.0807	12	C7H11O+
117.0699	2	C9H9+
119.0844	13	C9H11+
121.0628	3	C8H9O+
121.1013	28	C9H13+
123.0806	26	C8H11O+
123.1181	9	C9H15+
125.0965	3	C8H13O+
128.0618	1	C10H8+
129.0693	1	C10H9+
131.0868	6	C10H11+
133.0276	2	C8H5O2+
133.1019	36	C10H13+
135.118	9	C10H15+
137.1304	5	C10H17+
139.1129	1	C9H15O+
142.0761	1	C11H10+
143.0864	5	C11H11+
144.0935	1	C11H12+
145.1017	23	C11H13+
146.1081	6	C11H14+
147.1175	10	C11H15+
149.0942	9	C10H13O+
149.1329	14	C11H17+
155.0854	4	C12H11+
157.1033	6	C12H13+
159.1148	4	C12H15+
160.0861	1	C11H12O+
161.1335	13	C12H17+
163.1137	5	C11H15O+
163.1491	13	C12H19+
168.0944	2	C13H12+
169.103	2	C13H13+
171.1169	17	C13H15+
173.1323	17	C13H17+
174.136	3	C13H18+
175.1132	7	C12H15O+
175.1483	19	C13H19+
177.1278	34	C12H17O+
177.1631	41	C13H21+
183.1176	4	C14H15+
185.1327	26	C14H17+
186.1361	1	C14H18+
187.1479	6	C14H19+
189.1288	9	C13H17O+
189.1639	63	C14H21+
190.1703	3	C14H22+
191.1422	12	C13H19O+
197.1305	7	C15H17+
199.1479	8	C15H19+
201.1251	5	C14H17O+
201.1637	24	C15H21+
203.1426	2	C14H19O+
203.1781	34	C15H23+
211.1485	29	C16H19+
212.1571	3	C16H20+
213.1608	2	C16H21+
215.1424	7	C15H19O+
215.1806	15	C16H23+
216.1841	4	C16H24+
217.1596	3	C15H21O+
225.1602	8	C17H21+
227.1808	53	C17H23+
228.1831	3	C17H24+
229.1594	12	C16H21O+
239.1766	1	C18H23+
243.1739	1	C17H23O+
243.2134	1	C18H27+
244.1797	6	C17H24O+
245.1906	47	C17H25O+
252.1879	2	C19H24+
257.1872	2	C18H25O+
257.2248	2	C19H29+
267.2112	100	C20H27+
270.1962	1	C19H26O+
285.2222	206	C20H29O+
286.2261	25	C20H30O+
303.233	999	C20H31O2+
