Mass spectrum: Mono(2-ethyl-5-oxohexyl)phthalate; LC-ESI-QTOF; MS2; CE: 30eV; R=7000; [M-H]-
Name: Mono(2-ethyl-5-oxohexyl)phthalate
Name: 2-(2-ethyl-5-oxohexoxy)carbonylbenzoic acid
Formula: C16H20O5
Exact mass: 292.1311
SMILES: CCC(CCC(=O)C)COC(=O)C1=CC=CC=C1C(=O)O
InChI: InChI=1S/C16H20O5/c1-3-12(9-8-11(2)17)10-21-16(20)14-7-5-4-6-13(14)15(18)19/h4-7,12H,3,8-10H2,1-2H3,(H,18,19)
Instrument: Agilent 6560 QTOF
Instrument type: LC-ESI-QTOF
Ms type: MS2
Ion mode: NEGATIVE
Ionization: ESI
Fragmentation mode: CID
Collision energy: 30 eV
Resolution: 7000
Column name: ZORBAX Extend-C18 3.5um, 2.1x50mm, Agilent Technologies
Retention time: 2.670 min
Base peak: 291.1249
Precursor m/z: 291.1238
Precursor type: [M-H]-
Precursor intensity: 78595.59
m/z	relative intensity	assigned
57.0351	112	C3H5O-
59.0138	13	C2H3O2-
69.0345	31	C4H5O-
71.0505	101	C4H7O-
75.0238	26	C6H3-
77.0401	999	C6H5-
83.0506	7	C5H7O-
85.0652	6	C5H9O-
99.0825	28	C6H11O-
113.0975	68	C7H13O-
119.0497	21	C8H7O-
121.0296	373	C7H5O2-
143.1084	9	C8H15O2-
147.0079	14	C8H3O3-
