Mass spectrum: Tri-o-tolyl phosphate; LC-ESI-QTOF; MS2; CE: 40eV; R=7000; [M+H]+
Name: Tri-o-tolyl phosphate
Name: Tri-O-cresyl phosphate
Name: tris(2-methylphenyl) phosphate
Formula: C21H21O4P
Exact mass: 368.1177
SMILES: CC1=CC=CC=C1OP(=O)(OC2=CC=CC=C2C)OC3=CC=CC=C3C
InChI: InChI=1S/C21H21O4P/c1-16-10-4-7-13-19(16)23-26(22,24-20-14-8-5-11-17(20)2)25-21-15-9-6-12-18(21)3/h4-15H,1-3H3
Instrument: Agilent 6560 QTOF
Instrument type: LC-ESI-QTOF
Ms type: MS2
Ion mode: POSITIVE
Ionization: ESI
Fragmentation mode: CID
Collision energy: 40 eV
Resolution: 7000
Retention time: 0.146 min
Base peak: 391.1072
Precursor m/z: 369.125
Precursor type: [M+H]+
Precursor intensity: 132028.16
m/z	relative intensity	assigned
51.0235	8	C4H3+
65.0385	254	C5H5+
79.0537	13	C6H7+
91.054	999	C7H7+
92.0576	51	H13O3P+
105.0328	7	C7H5O+
105.07	12	C8H9+
107.0482	67	C7H7O+
109.0651	10	C7H9O+
115.0516	5	C9H7+
121.0657	17	C8H9O+
140.0569	5	C4H13O3P+
141.0678	17	C4H14O3P+
152.06	12	C5H13O3P+
153.0092	29	C7H6O2P+
153.0685	10	C5H14O3P+
164.061	6	C13H8+
165.069	453	C13H9+
166.0763	275	C6H15O3P+
167.0811	21	C6H16O3P+
169.1001	6	C13H13+
171.0202	5	C7H8O3P+
178.0764	119	C7H15O3P+
179.0842	94	C7H16O3P+
180.0896	11	C7H17O3P+
181.064	10	C13H9O+
181.0999	16	C7H18O3P+
182.0716	14	C13H10O+
184.9999	4	C7H6O4P+
187.0133	7	C7H8O4P+
195.0812	6	C14H11O+
196.0882	9	C14H12O+
197.0945	18	C7H18O4P+
200.0377	4	C12H9OP+
213.0456	5	C13H10OP+
215.0857	5	C10H16O3P+
216.0929	8	C17H12+
240.092	8	C12H17O3P+
241.1002	23	C19H13+
243.0537	7	C14H12O2P+
244.0576	4	C17H8O2+
253.0987	5	C13H18O3P+
254.1065	10	C13H19O3P+
255.1141	11	C13H20O3P+
256.123	7	C13H21O3P+
261.0629	8	C14H14O3P+
277.0605	6	C14H14O4P+
279.077	20	C14H16O4P+
