Mass spectrum: beta-Estradiol; LC-ESI-QTOF; MS2; CE: 40eV; R=7000; [M-H]-
Name: beta-Estradiol
Name: Estradiol
Name: (8R,9S,13S,14S,17S)-13-methyl-6,7,8,9,11,12,14,15,16,17-decahydrocyclopenta[a]phenanthrene-3,17-diol
Formula: C18H24O2
Exact mass: 272.1776
SMILES: C[C@]12CC[C@H]3[C@H]([C@@H]1CC[C@@H]2O)CCC4=C3C=CC(=C4)O
InChI: InChI=1S/C18H24O2/c1-18-9-8-14-13-5-3-12(19)10-11(13)2-4-15(14)16(18)6-7-17(18)20/h3,5,10,14-17,19-20H,2,4,6-9H2,1H3/t14-,15-,16+,17+,18+/m1/s1
Instrument: Agilent 6560 QTOF
Instrument type: LC-ESI-QTOF
Ms type: MS2
Ion mode: NEGATIVE
Ionization: ESI
Fragmentation mode: CID
Collision energy: 40 eV
Resolution: 7000
Column name: N/A
Retention time: 0.190 min
Base peak: 223.0285
Precursor m/z: 271.1704
Precursor type: [M-H]-
Precursor intensity: 14137
m/z	relative intensity	assigned
133.0669	223	C9H9O-
145.0649	955	C10H9O-
169.0632	161	C12H9O-
183.0808	497	C13H11O-
197.0961	236	C14H13O-
253.163	296	C18H21O-
269.15	159	C18H21O2-
271.1692	999	C18H23O2-
