Mass spectrum: Lignoceric acid; LC-ESI-QTOF; MS2; CE: 10eV; R=7000; [M-H]-
Name: Lignoceric acid
Name: tetracosanoic acid
Formula: C24H48O2
Exact mass: 368.3654
SMILES: CCCCCCCCCCCCCCCCCCCCCCCC(=O)O
InChI: InChI=1S/C24H48O2/c1-2-3-4-5-6-7-8-9-10-11-12-13-14-15-16-17-18-19-20-21-22-23-24(25)26/h2-23H2,1H3,(H,25,26)
Instrument: Agilent 6560 QTOF
Instrument type: LC-ESI-QTOF
Ms type: MS2
Ion mode: NEGATIVE
Ionization: ESI
Fragmentation mode: CID
Collision energy: 10 eV
Resolution: 7000
Column name: N/A
Retention time: 0.141 min
Base peak: 367.3588
Precursor m/z: 367.3582
Precursor type: [M-H]-
Precursor intensity: 338882
m/z	relative intensity	assigned
349.3502	1	C24H45O-
365.3377	1	C24H45O2-
367.3583	999	C24H47O2-
