Mass spectrum: URIDINEDIPHOSPHATENACETYLGALACTOSAMINE; LC-ESI-QTOF; MS2; CE: 40eV; R=5000; [M+H]+
Name: URIDINEDIPHOSPHATENACETYLGALACTOSAMINE
Name: Uridine diphosphate-N-acetylgalactosamine
Name: [3-acetamido-4,5-dihydroxy-6-(hydroxymethyl)oxan-2-yl] [[5-(2,4-dioxopyrimidin-1-yl)-3,4-dihydroxyoxolan-2-yl]methoxy-hydroxyphosphoryl] hydrogen phosphate
Formula: C17H27N3O17P2
Exact mass: 607.0816
SMILES: CC(O)=NC1C(OP(O)(=O)OP(O)(=O)OCC2OC(C(O)C2O)N2C=CC(O)=NC2=O)OC(CO)C(O)C1O
InChI: InChI=1S/C17H27N3O17P2/c1-6(22)18-10-13(26)11(24)7(4-21)35-16(10)36-39(31,32)37-38(29,30)33-5-8-12(25)14(27)15(34-8)20-3-2-9(23)19-17(20)28/h2-3,7-8,10-16,21,24-27H,4-5H2,1H3,(H,18,22)(H,29,30)(H,31,32)(H,19,23,28)
Instrument: Agilent 6530 QTOF
Instrument type: LC-ESI-QTOF
Ms type: MS2
Ion mode: POSITIVE
Ionization: ESI
Fragmentation mode: CID
Collision energy: 40 eV
Resolution: 5000
Column name: N/A
Retention time: 0.318 min
Base peak: 121.0508
Precursor m/z: 608.0888
Precursor type: [M+H]+
Precursor intensity: 27367
m/z	relative intensity	assigned
43.0164	62	HN3+
58.0533	7	C2H6N2+
60.0433	261	C2H6NO+
65.003	16	H4NOP+
69.0414	7	H7NO3+
72.0409	73	H8O4+
72.0917	8	C5H12+
80.0455	72	H6N3O2+
81.0298	55	H5N2O3+
83.0466	133	C3H5N3+
84.0438	156	C4H6NO+
96.0439	151	C5H6NO+
97.0238	60	H5N2O4+
97.0867	13	C3H13O3+
97.1454	5	C4H19NO+
98.057	56	C2H10O4+
103.0554	4	H13N2P2+
104.1772	9	C4H24O2+
108.0327	59	CH7N3OP+
108.081	9	C3H13N2P+
109.0234	92	CH5N2O4+
110.1229	20	CH22NP2+
112.1674	9	C2H24O4+
126.0481	118	C2H12N2P2+
127.0297	33	C4H6N3P+
138.047	123	C3H12N2P2+
139.0045	36	C9HNO+
139.0805	21	C5H17P2+
144.0611	999	CH10N3O5+
168.0558	173	C10H6N3+
168.1355	12	C7H20O4+
175.1795	1	C9H23N2O+
186.0758	194	C8H12NO4+
197.1752	7	C5H28NO4P+
202.081	54	C2H19O8P+
214.9126	20	C2HO8P2+
222.9599	21	H4N2O10P+
230.1315	12	C3H22N2O9+
306.882	15	C3HO13P2+
334.8662	18	HO17P2+
340.0396	38	C16H12N3O2P2+
350.1003	16	C9H24N2O8P2+
353.8658	5	C3O16P2+
363.0986	10	C3H26NO16P+
403.0091	12	C13H13N2O9P2+
451.0349	9	C15H15O16+
454.9847	2	C11H10N3O15P+
464.1263	12	C17H24N2O13+
503.9825	10	C12H14N2O16P2+
520.9861	17	C15H13N3O14P2+
521.0463	6	C15H23O16P2+
531.0278	13	C14H19N3O15P2+
550.9449	11	C16H11NO17P2+
