Mass spectrum: Diphenylcresyl phosphate; LC-ESI-QTOF; MS2; CE: 45eV; R=7000; [M+H]+
Name: Diphenylcresyl phosphate
Name: Phosphoric acid, 2-methylphenyl diphenyl ester
Name: (2-methylphenyl) diphenyl phosphate
Formula: C19H17O4P
Exact mass: 340.0864
SMILES: CC1=CC=CC=C1OP(=O)(OC2=CC=CC=C2)OC3=CC=CC=C3
InChI: InChI=1S/C19H17O4P/c1-16-10-8-9-15-19(16)23-24(20,21-17-11-4-2-5-12-17)22-18-13-6-3-7-14-18/h2-15H,1H3
Instrument: Agilent 6560 QTOF
Instrument type: LC-ESI-QTOF
Ms type: MS2
Ion mode: POSITIVE
Ionization: ESI
Fragmentation mode: CID
Collision energy: 45 eV
Resolution: 7000
Retention time: 0.145 min
Base peak: 363.0757
Precursor m/z: 341.0937
Precursor type: [M+H]+
Precursor intensity: 60835.91
m/z	relative intensity	assigned
51.0236	128	C4H3+
63.0242	24	C5H3+
65.0389	514	C5H5+
77.0386	391	C6H5+
79.0537	34	C6H7+
91.0543	999	C7H7+
95.0494	15	C6H7O+
101.036	20	CH10O3P+
107.051	26	C7H7O+
115.0552	15	C9H7+
133.0195	17	C8H6P+
151.0547	50	C12H7+
152.0616	682	C12H8+
153.0666	75	C5H14O3P+
154.016	18	C7H7O2P+
164.06	16	C6H13O3P+
165.0693	473	C13H9+
166.0766	36	C13H10+
168.0561	62	C12H8O+
181.0644	115	C13H9O+
182.0719	78	C13H10O+
183.0764	20	C6H16O4P+
201.0442	22	C12H10OP+
215.0243	17	C12H8O2P+
226.0772	55	C11H15O3P+
227.0844	19	C18H11+
228.0936	41	C18H12+
229.0397	54	C13H10O2P+
