Mass spectrum: Deoxycholic acid; LC-ESI-QTOF; MS2; CE: 20eV; R=7000; [M-H]-
Name: Deoxycholic acid
Name: (4R)-4-[(3R,5R,8R,9S,10S,12S,13R,14S,17R)-3,12-dihydroxy-10,13-dimethyl-2,3,4,5,6,7,8,9,11,12,14,15,16,17-tetradecahydro-1H-cyclopenta[a]phenanthren-17-yl]pentanoic acid
Formula: C24H40O4
Exact mass: 392.2927
SMILES: C[C@H](CCC(=O)O)[C@H]1CC[C@@H]2[C@@]1([C@H](C[C@H]3[C@H]2CC[C@H]4[C@@]3(CC[C@H](C4)O)C)O)C
InChI: InChI=1S/C24H40O4/c1-14(4-9-22(27)28)18-7-8-19-17-6-5-15-12-16(25)10-11-23(15,2)20(17)13-21(26)24(18,19)3/h14-21,25-26H,4-13H2,1-3H3,(H,27,28)/t14-,15-,16-,17+,18-,19+,20+,21+,23+,24-/m1/s1
Instrument: Agilent 6560 QTOF
Instrument type: LC-ESI-QTOF
Ms type: MS2
Ion mode: NEGATIVE
Ionization: ESI
Fragmentation mode: CID
Collision energy: 20 eV
Resolution: 7000
Column name: N/A
Retention time: 0.143 min
Base peak: 357.1906
Precursor m/z: 391.2854
Precursor type: [M-H]-
Precursor intensity: 282412
m/z	relative intensity	assigned
166.0776	1	C13H10-
167.0171	2	C11H3O2-
177.038	1	C13H5O-
196.0738	2	C10H12O4-
227.0715	1	C14H11O3-
237.1073	1	C13H17O4-
285.1863	1	C19H25O2-
298.0474	1	C23H6O-
312.2362	1	C18H32O4-
327.2712	14	C23H35O-
328.2708	5	C23H36O-
329.2848	19	C23H37O-
330.2846	2	C19H38O4-
343.2628	6	C23H35O2-
345.2804	47	C23H37O2-
346.2835	5	C23H38O2-
347.2963	21	C23H39O2-
355.265	7	C24H35O2-
356.2722	1	C24H36O2-
373.2747	3	C24H37O3-
391.2864	999	C24H39O4-
