Mass spectrum: Bis(2-ethylhexyl)phthalate; LC-ESI-QTOF; MS2; CE: 40eV; R=7000; [M+H]+
Name: Bis(2-ethylhexyl)phthalate
Name: Bis(2-ethylhexyl) phthalate
Name: bis(2-ethylhexyl) benzene-1,2-dicarboxylate
Formula: C24H38O4
Exact mass: 390.2770
SMILES: CCCCC(CC)COC(=O)C1=CC=CC=C1C(=O)OCC(CC)CCCC
InChI: InChI=1S/C24H38O4/c1-5-9-13-19(7-3)17-27-23(25)21-15-11-12-16-22(21)24(26)28-18-20(8-4)14-10-6-2/h11-12,15-16,19-20H,5-10,13-14,17-18H2,1-4H3
Instrument: Agilent 6560 QTOF
Instrument type: LC-ESI-QTOF
Ms type: MS2
Ion mode: POSITIVE
Ionization: ESI
Fragmentation mode: CID
Collision energy: 40 eV
Resolution: 7000
Column name: Direct injection
Retention time: 0.211 min
Base peak: 149.0242
Precursor m/z: 391.2843
Precursor type: [M+H]+
Precursor intensity: 219825
m/z	relative intensity	assigned
71.0867	50	C5H11+
81.0697	1	C6H9+
93.0347	38	C6H5O+
105.0358	1	C7H5O+
121.0294	142	C7H5O2+
123.2513	1	C2H35O4+
149.0239	999	C8H5O3+
150.0274	46	C8H6O3+
