Mass spectrum: Triphenyl phosphate; LC-ESI-QTOF; MS2; CE: 35eV; R=7000; [M+H]+
Name: Triphenyl phosphate
Formula: C18H15O4P
Exact mass: 326.0708
SMILES: C1=CC=C(C=C1)OP(=O)(OC2=CC=CC=C2)OC3=CC=CC=C3
InChI: InChI=1S/C18H15O4P/c19-23(20-16-10-4-1-5-11-16,21-17-12-6-2-7-13-17)22-18-14-8-3-9-15-18/h1-15H
Instrument: Agilent 6560 QTOF
Instrument type: LC-ESI-QTOF
Ms type: MS2
Ion mode: POSITIVE
Ionization: ESI
Fragmentation mode: CID
Collision energy: 35 eV
Resolution: 7000
Retention time: 0.116 min
Base peak: 327.0779
Precursor m/z: 327.0781
Precursor type: [M+H]+
Precursor intensity: 55013.87
m/z	relative intensity	assigned
51.0234	86	C4H3+
65.0391	21	C5H5+
77.0387	999	C6H5+
93.0339	23	C6H5O+
95.0487	91	C6H7O+
127.0541	15	C10H7+
138.9927	17	C6H4O2P+
139.0532	13	C11H7+
141.0663	20	C4H14O3P+
151.0533	84	C12H7+
152.0619	566	C12H8+
153.0694	203	C12H9+
154.0728	44	C5H15O3P+
168.0566	185	C12H8O+
169.0624	21	C5H14O4P+
171.0821	18	C12H11O+
175.0144	23	C6H8O4P+
187.0309	45	C11H8OP+
215.0247	264	C12H8O2P+
227.0855	30	C18H11+
228.0946	99	C18H12+
229.0981	18	C18H13+
233.0359	19	C12H10O3P+
251.0468	147	C12H12O4P+
252.0518	25	C12H13O4P+
