Mass spectrum: Tripalmitin; LC-ESI-QTOF; MS2; CE: 20eV; R=7000; [M+Na]+
Name: Tripalmitin
Name: 2,3-di(hexadecanoyloxy)propyl hexadecanoate
Formula: C51H98O6
Exact mass: 806.7363
SMILES: [H]C(COC(=O)CCCCCCCCCCCCCCC)(COC(=O)CCCCCCCCCCCCCCC)OC(=O)CCCCCCCCCCCCCCC
InChI: InChI=1S/C51H98O6/c1-4-7-10-13-16-19-22-25-28-31-34-37-40-43-49(52)55-46-48(57-51(54)45-42-39-36-33-30-27-24-21-18-15-12-9-6-3)47-56-50(53)44-41-38-35-32-29-26-23-20-17-14-11-8-5-2/h48H,4-47H2,1-3H3
Instrument: Agilent 6560 QTOF
Instrument type: LC-ESI-QTOF
Ms type: MS2
Ion mode: POSITIVE
Ionization: ESI
Fragmentation mode: CID
Collision energy: 20 eV
Resolution: 7000
Column name: Direct injection
Retention time: 0.608 min
Base peak: 256.9654
Precursor m/z: 829.7256
Precursor type: [M+Na]+
Precursor intensity: 32985
m/z	relative intensity	assigned
97.1018	40	C7H13+
107.9668	12	CO6+
267.9989	29	C12H5NaO6+
551.5	11	C33H68NaO4+
552.5036	8	C33H69NaO4+
573.4852	121	C35H66NaO4+
829.7258	999	C51H98NaO6+
