Mass spectrum: Bis(2-ethylhexyl)phthalate; LC-ESI-QTOF; MS2; CE: 20eV; R=7000; [M+Na]+
Name: Bis(2-ethylhexyl)phthalate
Name: Bis(2-ethylhexyl) phthalate
Name: bis(2-ethylhexyl) benzene-1,2-dicarboxylate
Formula: C24H38O4
Exact mass: 390.2770
SMILES: CCCCC(CC)COC(=O)C1=CC=CC=C1C(=O)OCC(CC)CCCC
InChI: InChI=1S/C24H38O4/c1-5-9-13-19(7-3)17-27-23(25)21-15-11-12-16-22(21)24(26)28-18-20(8-4)14-10-6-2/h11-12,15-16,19-20H,5-10,13-14,17-18H2,1-4H3
Instrument: Agilent 6560 QTOF
Instrument type: LC-ESI-QTOF
Ms type: MS2
Ion mode: POSITIVE
Ionization: ESI
Fragmentation mode: CID
Collision energy: 20 eV
Resolution: 7000
Column name: Direct injection
Retention time: 0.182 min
Base peak: 149.0238
Precursor m/z: 413.2662
Precursor type: [M+Na]+
Precursor intensity: 25325
m/z	relative intensity	assigned
91.0537	76	C7H7+
102.0887	29	C2H14O4+
119.0879	28	C9H11+
133.0636	15	C9H9O+
171.006	24	C8H4NaO3+
189.0152	126	C8H6NaO4+
301.1418	636	C16H22NaO4+
302.1429	85	C16H23NaO4+
413.2679	999	C24H38NaO4+
