Mass spectrum: Diisononyl phthalate; LC-ESI-QTOF; MS2; CE: 50eV; R=7000; [M+H]+
Name: Diisononyl phthalate
Name: bis(7-methyloctyl) benzene-1,2-dicarboxylate
Formula: C26H42O4
Exact mass: 418.3083
SMILES: CC(C)CCCCCCOC(=O)C1=CC=CC=C1C(=O)OCCCCCCC(C)C
InChI: InChI=1S/C26H42O4/c1-21(2)15-9-5-7-13-19-29-25(27)23-17-11-12-18-24(23)26(28)30-20-14-8-6-10-16-22(3)4/h11-12,17-18,21-22H,5-10,13-16,19-20H2,1-4H3
Instrument: Agilent 6560 QTOF
Instrument type: LC-ESI-QTOF
Ms type: MS2
Ion mode: POSITIVE
Ionization: ESI
Fragmentation mode: CID
Collision energy: 50 eV
Resolution: 7000
Retention time: 0.149 min
Base peak: 441.2986
Precursor m/z: 419.3156
Precursor type: [M+H]+
Precursor intensity: 8689.12
m/z	relative intensity	assigned
57.0701	999	C4H9+
65.0394	770	C5H5+
85.1014	110	C6H13+
93.0339	341	C6H5O+
121.0274	661	C7H5O2+
149.0227	796	C8H5O3+
