Mass spectrum: Cholic acid; LC-ESI-QTOF; MS2; CE: 40eV; R=7000; [M+NH4]+
Name: Cholic acid
Name: (4R)-4-[(3R,5S,7R,8R,9S,10S,12S,13R,14S,17R)-3,7,12-trihydroxy-10,13-dimethyl-2,3,4,5,6,7,8,9,11,12,14,15,16,17-tetradecahydro-1H-cyclopenta[a]phenanthren-17-yl]pentanoic acid
Formula: C24H40O5
Exact mass: 408.2876
SMILES: C[C@H](CCC(=O)O)[C@H]1CC[C@@H]2[C@@]1([C@H](C[C@H]3[C@H]2[C@@H](C[C@H]4[C@@]3(CC[C@H](C4)O)C)O)O)C
InChI: InChI=1S/C24H40O5/c1-13(4-7-21(28)29)16-5-6-17-22-18(12-20(27)24(16,17)3)23(2)9-8-15(25)10-14(23)11-19(22)26/h13-20,22,25-27H,4-12H2,1-3H3,(H,28,29)/t13-,14+,15-,16-,17+,18+,19-,20+,22+,23+,24-/m1/s1
Instrument: Agilent 6560 QTOF
Instrument type: LC-ESI-QTOF
Ms type: MS2
Ion mode: POSITIVE
Ionization: ESI
Fragmentation mode: CID
Collision energy: 40 eV
Resolution: 7000
Column name: Direct injection
Retention time: 0.237 min
Base peak: 415.2128
Precursor m/z: 426.3214
Precursor type: [M+NH4]+
Precursor intensity: 38692
m/z	relative intensity	assigned
79.0546	298	C6H7+
83.0856	74	C6H11+
91.0546	777	C7H7+
93.0684	701	C7H9+
95.0861	312	C7H11+
99.0458	200	C5H7O2+
101.0582	145	C5H9O2+
105.0688	655	C8H9+
107.0872	352	C8H11+
109.1028	353	C8H13+
116.1068	80	C6H14NO+
117.0713	485	C9H9+
119.0858	648	C9H11+
123.0815	112	C8H11O+
131.0835	215	C10H11+
133.101	519	C10H13+
143.0883	194	C11H11+
145.0994	431	C11H13+
146.1031	66	C3H16NO5+
147.0818	345	C10H11O+
147.1143	384	C11H15+
159.1157	355	C12H15+
162.1336	119	C4H20NO5+
164.9834	267	C7HO5+
167.1085	165	C10H15O2+
169.1023	235	C13H13+
179.0008	155	C11HNO2+
183.1155	603	C14H15+
185.1336	999	C14H17+
187.1103	163	C13H15O+
187.1442	109	C6H21NO5+
191.1072	183	C12H15O2+
197.1296	101	C15H17+
199.1466	121	C15H19+
203.1451	142	C14H19O+
207.1365	139	C13H19O2+
209.1298	126	C16H17+
211.1493	381	C16H19+
213.1636	150	C16H21+
215.1394	196	C15H19O+
225.1645	77	C17H21+
227.1761	88	C17H23+
229.1631	151	C12H23NO3+
235.169	149	C15H23O2+
237.1644	131	C18H21+
239.1833	149	C11H27O5+
240.1773	43	C17H22N+
245.1563	207	C16H21O2+
247.1717	110	C16H23O2+
254.202	192	C19H26+
255.2115	103	C19H27+
273.1814	214	C18H25O2+
287.1961	148	C19H27O2+
301.2132	58	C20H29O2+
319.239	254	C24H31+
337.2499	104	C24H33O+
355.2632	522	C24H35O2+
