Mass spectrum: PURINE; LC-ESI-QTOF; MS2; CE: 20eV; R=5000; [M+H]+
Name: PURINE
Name: 7H-purine
Formula: C5H4N4
Exact mass: 120.04360
SMILES: N1C=NC2=C1C=NC=N2
InChI: InChI=1S/C5H4N4/c1-4-5(8-2-6-1)9-3-7-4/h1-3H,(H,6,7,8,9)
Instrument: Agilent 6530 QTOF
Instrument type: LC-ESI-QTOF
Ms type: MS2
Ion mode: POSITIVE
Ionization: ESI
Fragmentation mode: CID
Collision energy: 20 eV
Resolution: 5000
Column name: N/A
Retention time: 0.562 min
Base peak: 121.0508
Precursor m/z: 121.0509
Precursor type: [M+H]+
Precursor intensity: 1975412
m/z	relative intensity	assigned
40.019	52	C2H2N+
42.0341	3	C2H4N+
43.0297	35	CH3N2+
52.0187	83	C3H2N+
67.0295	616	C3H3N2+
69.0456	4	C3H5N2+
77.0137	21	C4HN2+
79.0432	1	C5H5N+
94.0398	668	C4H4N3+
104.0245	10	C5H2N3+
121.0503	999	C5H5N4+
