Mass spectrum: DEOXYGUANOSINEMONOPHOSPHATE; LC-ESI-QTOF; MS2; CE: 40eV; R=5000; [M+H]+
Name: DEOXYGUANOSINEMONOPHOSPHATE
Name: CID 65059
Name: [(2R,3S,5R)-5-(2-amino-6-oxo-3H-purin-9-yl)-3-hydroxyoxolan-2-yl]methyl dihydrogen phosphate
Formula: C10H14N5O7P
Exact mass: 347.0631
SMILES: NC1=NC2=C(N=CN2[C@H]2C[C@H](O)[C@@H](COP(O)(O)=O)O2)C(=O)N1
InChI: InChI=1S/C10H14N5O7P/c11-10-13-8-7(9(17)14-10)12-3-15(8)6-1-4(16)5(22-6)2-21-23(18,19)20/h3-6,16H,1-2H2,(H2,18,19,20)(H3,11,13,14,17)/t4-,5+,6+/m0/s1
Instrument: Agilent 6530 QTOF
Instrument type: LC-ESI-QTOF
Ms type: MS2
Ion mode: POSITIVE
Ionization: ESI
Fragmentation mode: CID
Collision energy: 40 eV
Resolution: 5000
Column name: N/A
Retention time: 0.284 min
Base peak: 121.0508
Precursor m/z: 348.0704
Precursor type: [M+H]+
Precursor intensity: 49946
m/z	relative intensity	assigned
43.1114	2	CH15O+
55.0313	71	H8OP+
80.0229	90	H4N2O3+
81.0339	427	CH8NOP+
103.099	18	C5H13NO+
107.0317	12	CH5N3O3+
109.046	17	CH7N3O3+
110.0342	231	C4H4N3O+
118.0152	2	C4N5+
121.0478	1	C2H7N3O3+
134.0476	78	C7H6N2O+
135.0299	810	C5H3N4O+
152.0569	999	C5H6N5O+
157.975	5	C3HN3O3P+
161.0044	17	C8H4NOP+
161.0568	6	C3H14O5P+
192.9572	7	C7NO4P+
200.9873	26	C4HN4O6+
205.1108	15	C10H13N4O+
247.0691	3	C9H13NO7+
255.0365	9	C4H10N5O6P+
