Mass spectrum: Cholesterol; LC-ESI-QTOF; MS2; CE: 40eV; R=7000; [M-H2O+H]+
Name: Cholesterol
Name: Cholest-5-en-3-ol
Name: 10,13-dimethyl-17-(6-methylheptan-2-yl)-2,3,4,7,8,9,11,12,14,15,16,17-dodecahydro-1H-cyclopenta[a]phenanthren-3-ol
Formula: C27H46O
Exact mass: 386.3549
SMILES: CC(C)CCCC(C)C1CCC2C1(CCC3C2CC=C4C3(CCC(C4)O)C)C
InChI: InChI=1S/C27H46O/c1-18(2)7-6-8-19(3)23-11-12-24-22-10-9-20-17-21(28)13-15-26(20,4)25(22)14-16-27(23,24)5/h9,18-19,21-25,28H,6-8,10-17H2,1-5H3
Instrument: Agilent 6560 QTOF
Instrument type: LC-ESI-QTOF
Ms type: MS2
Ion mode: POSITIVE
Ionization: ESI
Fragmentation mode: CID
Collision energy: 40 eV
Resolution: 7000
Column name: Direct injection
Retention time: 22.042 min
Base peak: 369.3527
Precursor m/z: 369.3516
Precursor type: [M-H2O+H]+
Precursor intensity: 5271
m/z	relative intensity	assigned
69.0711	999	C5H9+
81.0714	410	C6H9+
91.0539	91	C7H7+
105.0688	238	C8H9+
119.0866	315	C9H11+
147.1181	82	C11H15+
161.1327	131	C12H17+
