Mass spectrum: 5-Chlorobenzotriazole; LC-ESI-QTOF; MS2; CE: 55eV; R=7000; [M+H]+
Name: 5-Chlorobenzotriazole
Name: 5-chloro-2H-benzotriazole
Formula: C6H4ClN3
Exact mass: 153.0094
SMILES: C1=CC2=NNN=C2C=C1Cl
InChI: InChI=1S/C6H4ClN3/c7-4-1-2-5-6(3-4)9-10-8-5/h1-3H,(H,8,9,10)
Instrument: Agilent 6560 QTOF
Instrument type: LC-ESI-QTOF
Ms type: MS2
Ion mode: POSITIVE
Ionization: ESI
Fragmentation mode: CID
Collision energy: 55 eV
Resolution: 7000
Retention time: 0.153 min
Base peak: 154.0166
Precursor m/z: 154.0167
Precursor type: [M+H]+
Precursor intensity: 11458.82
m/z	relative intensity	assigned
52.0173	60	C3H2N+
61.0082	58	C5H+
62.0149	107	C5H2+
63.0232	494	C5H3+
64.0182	86	C4H2N+
64.0307	189	C5H4+
65.0262	44	C4H3N+
72.9841	999	C3H2Cl+
91.0417	55	C6H5N+
99	85	C5H4Cl+
