Mass spectrum: 2-(Methylthio)benzothiazole; LC-ESI-QTOF; MS2; CE: 55eV; R=7000; [M+H]+
Name: 2-(Methylthio)benzothiazole
Name: 2-methylsulfanyl-1,3-benzothiazole
Formula: C8H7NS2
Exact mass: 181.002
SMILES: CSC1=NC2=CC=CC=C2S1
InChI: InChI=1S/C8H7NS2/c1-10-8-9-6-4-2-3-5-7(6)11-8/h2-5H,1H3
Instrument: Agilent 6560 QTOF
Instrument type: LC-ESI-QTOF
Ms type: MS2
Ion mode: POSITIVE
Ionization: ESI
Fragmentation mode: CID
Collision energy: 55 eV
Resolution: 7000
Column name: ZORBAX Extend-C18 3.5um, 2.1x50mm, Agilent Technologies
Retention time: 5.560 min
Base peak: 182.0093
Precursor m/z: 182.0093
Precursor type: [M+H]+
Precursor intensity: 17075.42
m/z	relative intensity	assigned
50.016	68	C4H2+
63.9426	161	S2+
64.0314	213	C5H4+
65.0391	999	C5H5+
68.9796	338	C3HS+
69.9878	103	C3H2S+
77.0385	175	C6H5+
81.9867	137	C4H2S+
91.0419	210	C6H5N+
96.0024	378	C5H4S+
103.0404	68	C7H5N+
108.0018	145	C6H4S+
109.0109	485	C6H5S+
122.0052	109	C6H4NS+
123.0134	247	C6H5NS+
135.0138	236	C7H5NS+
166.9852	79	C7H5NS2+
