Mass spectrum: Mono(2-ethylhexyl) phthalate; LC-ESI-QTOF; MS2; CE: 15eV; R=7000; [M-H]-
Name: Mono(2-ethylhexyl) phthalate
Name: 2-(((2-Ethylhexyl)oxy)carbonyl)benzoic acid
Name: 2-(2-ethylhexoxycarbonyl)benzoic acid
Formula: C16H22O4
Exact mass: 278.1518
SMILES: CCCCC(CC)COC(=O)C1=CC=CC=C1C(=O)O
InChI: InChI=1S/C16H22O4/c1-3-5-8-12(4-2)11-20-16(19)14-10-7-6-9-13(14)15(17)18/h6-7,9-10,12H,3-5,8,11H2,1-2H3,(H,17,18)
Instrument: Agilent 6560 QTOF
Instrument type: LC-ESI-QTOF
Ms type: MS2
Ion mode: NEGATIVE
Ionization: ESI
Fragmentation mode: CID
Collision energy: 15 eV
Resolution: 7000
Retention time: 0.147 min
Base peak: 277.1463
Precursor m/z: 277.1445
Precursor type: [M-H]-
Precursor intensity: 88820.37
m/z	relative intensity	assigned
75.0244	28	C6H3-
77.0402	999	C6H5-
107.0502	68	C7H7O-
119.0143	13	C7H3O2-
121.03	298	C7H5O2-
127.1131	649	C8H15O-
129.1289	25	C8H17O-
134.0378	767	C8H6O2-
135.0459	80	C8H7O2-
147.0086	193	C8H3O3-
155.1094	14	C9H15O2-
203.1437	11	C14H19O-
277.1454	65	C16H21O4-
