Mass spectrum: Nervonic acid; LC-ESI-QTOF; MS2; CE: 10eV; R=7000; [M-H]-
Name: Nervonic acid
Name: (Z)-tetracos-15-enoic acid
Formula: C24H46O2
Exact mass: 366.3498
SMILES: CCCCCCCC\C=C/CCCCCCCCCCCCCC(O)=O
InChI: InChI=1S/C24H46O2/c1-2-3-4-5-6-7-8-9-10-11-12-13-14-15-16-17-18-19-20-21-22-23-24(25)26/h9-10H,2-8,11-23H2,1H3,(H,25,26)/b10-9-
Instrument: Agilent 6560 QTOF
Instrument type: LC-ESI-QTOF
Ms type: MS2
Ion mode: NEGATIVE
Ionization: ESI
Fragmentation mode: CID
Collision energy: 10 eV
Resolution: 7000
Column name: N/A
Retention time: 0.139 min
Base peak: 365.3438
Precursor m/z: 365.3425
Precursor type: [M-H]-
Precursor intensity: 2774158
m/z	relative intensity	assigned
283.2637	14	C18H35O2-
284.2675	2	C18H36O2-
363.3186	1	C24H43O2-
365.3439	999	C24H45O2-
