Mass spectrum: L-Glutamine; LC-ESI-QTOF; MS2; CE: 10eV; R=5000; [M+Na]+
Name: L-Glutamine
Name: Glutamine
Name: (2S)-2,5-diamino-5-oxopentanoic acid
Formula: C5H10N2O3
Exact mass: 146.0691
SMILES: C(CC(=O)N)[C@@H](C(=O)O)N
InChI: InChI=1S/C5H10N2O3/c6-3(5(9)10)1-2-4(7)8/h3H,1-2,6H2,(H2,7,8)(H,9,10)/t3-/m0/s1
Instrument: Agilent 6530 QTOF
Instrument type: LC-ESI-QTOF
Ms type: MS2
Ion mode: POSITIVE
Ionization: ESI
Fragmentation mode: CID
Collision energy: 10 eV
Resolution: 5000
Column name: N/A
Retention time: 0.217 min
Base peak: 121.0508
Precursor m/z: 169.0584
Precursor type: [M+Na]+
Precursor intensity: 50905
m/z	relative intensity	assigned
58.0775	6	C4H10+
89.0685	3	CH10N2NaO+
96.0303	24	C2H5N2NaO+
124.0348	3	C4H7NNaO2+
151.0478	999	C5H8N2NaO2+
152.0328	455	C5H7NNaO3+
169.0603	233	C5H10N2NaO3+
