Mass spectrum: Resorcinol bis(diphenyl phosphate); LC-ESI-QTOF; MS2; CE: 20eV; R=7000; [M+H]+
Name: Resorcinol bis(diphenyl phosphate)
Name: (3-diphenoxyphosphoryloxyphenyl) diphenyl phosphate
Formula: C30H24O8P2
Exact mass: 574.0946
SMILES: C1=CC=C(C=C1)OP(=O)(OC2=CC=CC=C2)OC3=CC(=CC=C3)OP(=O)(OC4=CC=CC=C4)OC5=CC=CC=C5
InChI: InChI=1S/C30H24O8P2/c31-39(33-25-14-5-1-6-15-25,34-26-16-7-2-8-17-26)37-29-22-13-23-30(24-29)38-40(32,35-27-18-9-3-10-19-27)36-28-20-11-4-12-21-28/h1-24H
Instrument: Agilent 6560 QTOF
Instrument type: LC-ESI-QTOF
Ms type: MS2
Ion mode: POSITIVE
Ionization: ESI
Fragmentation mode: CID
Collision energy: 20 eV
Resolution: 7000
Column name: InfinityLab Poroshell 120 EC-C18 2.7Âµm, 3x100mm, Agilent Technologies
Retention time: 10.256 min
Base peak: 634.176
Precursor m/z: 575.1019
Precursor type: [M+H]+
Precursor intensity: 40987.4
m/z	relative intensity	assigned
141.0708	8	C11H9+
184.0508	10	C12H8O2+
215.0263	15	C12H8O2P+
243.0811	7	C18H11O+
387.0215	11	C25H8O3P+
405.0296	17	C18H15O7P2+
419.1051	23	C24H20O5P+
481.0606	20	C24H19O7P2+
499.0727	18	C24H21O8P2+
575.1021	999	C30H25O8P2+
