Mass spectrum: 1,2-Dipalmitoyl-rac-glycerol; LC-ESI-QTOF; MS2; CE: 40eV; R=7000; [M+CH3COO]-
Name: 1,2-Dipalmitoyl-rac-glycerol
Name: 1,2-Dipalmitoyl-sn-glycerol
Name: [(2S)-2-hexadecanoyloxy-3-hydroxypropyl] hexadecanoate
Formula: C35H68O5
Exact mass: 568.5067
SMILES: [H][C@](CO)(COC(=O)CCCCCCCCCCCCCCC)OC(=O)CCCCCCCCCCCCCCC
InChI: InChI=1S/C35H68O5/c1-3-5-7-9-11-13-15-17-19-21-23-25-27-29-34(37)39-32-33(31-36)40-35(38)30-28-26-24-22-20-18-16-14-12-10-8-6-4-2/h33,36H,3-32H2,1-2H3/t33-/m0/s1
Instrument: Agilent 6560 QTOF
Instrument type: LC-ESI-QTOF
Ms type: MS2
Ion mode: NEGATIVE
Ionization: ESI
Fragmentation mode: CID
Collision energy: 40 eV
Resolution: 7000
Column name: N/A
Retention time: 0.186 min
Base peak: 223.0291
Precursor m/z: 627.5205
Precursor type: [M+CH3COO]-
Precursor intensity: 9150
m/z	relative intensity	assigned
113.0591	396	C6H9O2-
125.3054	152	C3H41O3-
234.4537	267	C5H62O7-
248.083	635	C17H12O2-
314.0066	999	C22H2O3-
314.0478	145	C16H10O7-
329.504	125	C22H65-
390.4305	335	C21H58O5-
400.0779	363	C27H12O4-
446.3841	568	C29H50O3-
473.0466	191	C32H9O5-
496.9943	163	C36HO4-
520.5161	198	C35H68O2-
