Mass spectrum: Triphenyl phosphate; LC-ESI-QTOF; MS2; CE: 20eV; R=7000; [M+H]+
Name: Triphenyl phosphate
Formula: C18H15O4P
Exact mass: 326.0708
SMILES: C1=CC=C(C=C1)OP(=O)(OC2=CC=CC=C2)OC3=CC=CC=C3
InChI: InChI=1S/C18H15O4P/c19-23(20-16-10-4-1-5-11-16,21-17-12-6-2-7-13-17)22-18-14-8-3-9-15-18/h1-15H
Instrument: Agilent 6560 QTOF
Instrument type: LC-ESI-QTOF
Ms type: MS2
Ion mode: POSITIVE
Ionization: ESI
Fragmentation mode: CID
Collision energy: 20 eV
Resolution: 7000
Retention time: 0.147 min
Base peak: 349.0596
Precursor m/z: 327.0781
Precursor type: [M+H]+
Precursor intensity: 41573.42
m/z	relative intensity	assigned
77.0386	331	C6H5+
93.0339	24	C6H5O+
95.0488	28	C6H7O+
150.0463	25	C12H6+
151.0531	50	C12H7+
152.0613	358	C12H8+
153.069	508	C12H9+
154.0742	37	C5H15O3P+
168.0564	43	C12H8O+
170.0739	24	C12H10O+
171.0803	89	C12H11O+
202.0775	29	C16H10+
215.024	629	C12H8O2P+
216.0293	82	C12H9O2P+
227.0862	36	C18H11+
228.0924	111	C18H12+
229.1022	91	C18H13+
233.0353	257	C12H10O3P+
251.0464	347	C12H12O4P+
327.0779	999	C18H16O4P+
