Mass spectrum: 1,2-dipentadecanoyl-sn-glycero-3-phospho-(1-sn-glycerol); LC-ESI-QTOF; MS2; CE: 20eV; R=7000; [M-H]-
Name: 1,2-dipentadecanoyl-sn-glycero-3-phospho-(1-sn-glycerol)
Name: 1,2-Dipentadecanoyl-sn-glycero-3-phosphoglycerol
Name: [(2R)-3-[2,3-dihydroxypropoxy(hydroxy)phosphoryl]oxy-2-pentadecanoyloxypropyl] pentadecanoate
Formula: C36H71O10P
Exact mass: 694.4785
SMILES: CCCCCCCCCCCCCCC(=O)OC[C@H](COP(=O)(O)OCC(CO)O)OC(=O)CCCCCCCCCCCCCC
InChI: InChI=1S/C36H71O10P/c1-3-5-7-9-11-13-15-17-19-21-23-25-27-35(39)43-31-34(32-45-47(41,42)44-30-33(38)29-37)46-36(40)28-26-24-22-20-18-16-14-12-10-8-6-4-2/h33-34,37-38H,3-32H2,1-2H3,(H,41,42)/t33?,34-/m1/s1
Instrument: Agilent 6560 QTOF
Instrument type: LC-ESI-QTOF
Ms type: MS2
Ion mode: NEGATIVE
Ionization: ESI
Fragmentation mode: CID
Collision energy: 20 eV
Resolution: 7000
Column name: N/A
Retention time: 0.145 min
Base peak: 980.0164
Precursor m/z: 693.4712
Precursor type: [M-H]-
Precursor intensity: 199034
m/z	relative intensity	assigned
79.2415	2	C4H31-
94.0645	2	C3H10O3-
123.2345	1	C5H31O2-
127.4073	3	C2H56OP-
135.1314	2	C7H20P-
152.9957	119	C3H6O5P-
171.0076	12	C10H3O3-
171.1971	2	C8H27O3-
171.344	1	C5H47O4-
187.2087	1	C12H27O-
205.1081	1	C9H17O5-
216.2239	2	C10H33O2P-
227.0298	20	C6H12O7P-
227.0782	1	C7H15O8-
227.0946	1	C11H15O5-
241.2173	999	C15H29O2-
242.22	61	C8H35O5P-
242.3126	4	C14H43P-
297.2431	5	C18H33O3-
329.1063	14	C18H17O6-
352.0412	2	C15H12O10-
363.4988	2	C18H67O5-
377.208	10	C18H34O6P-
378.3743	3	C22H50O4-
379.3923	2	C19H56O4P-
443.953	4	C25O9-
451.2479	49	C28H35O5-
451.3061	3	C26H43O6-
452.2478	5	C28H37O3P-
469.2574	54	C21H42O9P-
470.2677	11	C28H38O6-
470.3068	1	C22H46O10-
499.4732	3	C31H63O4-
501.9916	5	C35H2O5-
518.42	2	C29H58O7-
532.4614	1	C31H65O4P-
619.4306	7	C33H64O8P-
693.4718	858	C36H70O10P-
