Mass spectrum: Para-hydroxy triphenyl phosphate; LC-ESI-QTOF; MS2; CE: 55eV; R=7000; [M+H]+
Name: Para-hydroxy triphenyl phosphate
Name: 4-Hydroxyphenyl diphenyl phosphate
Name: (4-hydroxyphenyl) diphenyl phosphate
Formula: C18H15O5P
Exact mass: 342.0657
SMILES: C1=CC=C(C=C1)OP(=O)(OC2=CC=CC=C2)OC3=CC=C(C=C3)O
InChI: InChI=1S/C18H15O5P/c19-15-11-13-18(14-12-15)23-24(20,21-16-7-3-1-4-8-16)22-17-9-5-2-6-10-17/h1-14,19H
Instrument: Agilent 6560 QTOF
Instrument type: LC-ESI-QTOF
Ms type: MS2
Ion mode: POSITIVE
Ionization: ESI
Fragmentation mode: CID
Collision energy: 55 eV
Resolution: 7000
Retention time: 0.147 min
Base peak: 343.0726
Precursor m/z: 343.073
Precursor type: [M+H]+
Precursor intensity: 90102.34
m/z	relative intensity	assigned
51.0233	223	C4H3+
53.0387	16	C4H5+
65.0386	277	C5H5+
77.0386	999	C6H5+
81.0335	198	C5H5O+
89.0373	22	H10O3P+
91.0536	10	C7H7+
93.0337	33	C6H5O+
94.0404	30	C6H6O+
95.0486	36	C6H7O+
109.0282	251	C6H5O2+
110.0364	59	C6H6O2+
115.054	649	C9H7+
116.0583	31	C2H13O3P+
127.0533	33	C10H7+
128.0609	29	C10H8+
139.0538	46	C11H7+
140.0617	48	C11H8+
141.0691	113	C11H9+
151.0533	90	C12H7+
152.0617	569	C12H8+
153.0682	47	C5H14O3P+
154.9862	10	C6H4O3P+
155.9969	18	C6H5O3P+
156.0557	10	C4H13O4P+
157.0628	10	C4H14O4P+
168.0568	131	C12H8O+
169.0633	27	C5H14O4P+
175.0167	14	C13H3O+
184.0511	38	C12H8O2+
202.0764	31	C9H15O3P+
203.0249	10	C11H8O2P+
215.0251	24	C12H8O2P+
215.0842	19	C10H16O3P+
226.0772	45	C18H10+
231.0201	17	C12H8O3P+
