Mass spectrum: Corticosterone; LC-ESI-QTOF; MS2; CE: 10eV; R=7000; [M+CH3COO]-
Name: Corticosterone
Name: (8S,9S,10R,11S,13S,14S,17S)-11-hydroxy-17-(2-hydroxyacetyl)-10,13-dimethyl-1,2,6,7,8,9,11,12,14,15,16,17-dodecahydrocyclopenta[a]phenanthren-3-one
Formula: C21H30O4
Exact mass: 346.2144
SMILES: C[C@]12CCC(=O)C=C1CC[C@@H]3[C@@H]2[C@H](C[C@]4([C@H]3CC[C@@H]4C(=O)CO)C)O
InChI: InChI=1S/C21H30O4/c1-20-8-7-13(23)9-12(20)3-4-14-15-5-6-16(18(25)11-22)21(15,2)10-17(24)19(14)20/h9,14-17,19,22,24H,3-8,10-11H2,1-2H3/t14-,15-,16+,17-,19+,20-,21-/m0/s1
Instrument: Agilent 6560 QTOF
Instrument type: LC-ESI-QTOF
Ms type: MS2
Ion mode: NEGATIVE
Ionization: ESI
Fragmentation mode: CID
Collision energy: 10 eV
Resolution: 7000
Column name: N/A
Retention time: 0.164 min
Base peak: 405.2295
Precursor m/z: 405.2283
Precursor type: [M+CH3COO]-
Precursor intensity: 31492
m/z	relative intensity	assigned
184.1213	30	C14H16-
186.0369	19	C11H6O3-
241.1589	49	C17H21O-
268.1766	50	C19H24O-
268.2002	20	C16H28O3-
327.1987	141	C21H27O3-
328.2032	43	C21H28O3-
341.0388	18	C21H9O5-
343.9703	13	C22O5-
345.208	999	C21H29O4-
346.2086	132	C21H30O4-
405.231	394	C23H33O6-
