Mass spectrum: SELENOCYSTAMINE; LC-ESI-QTOF; MS2; CE: 10eV; R=5000; [M+H]+
Name: SELENOCYSTAMINE
Name: 2-(2-aminoethyldiselanyl)ethanamine
Formula: C4H12N2Se2
Exact mass: 247.9331
SMILES: C(C[Se][Se]CCN)N
InChI: InChI=1S/C4H12N2Se2/c5-1-3-7-8-4-2-6/h1-6H2
Instrument: Agilent 6530 QTOF
Instrument type: LC-ESI-QTOF
Ms type: MS2
Ion mode: POSITIVE
Ionization: ESI
Fragmentation mode: CID
Collision energy: 10 eV
Resolution: 5000
Column name: N/A
Retention time: 0.905 min
Base peak: 121.0508
Precursor m/z: 248.9404
Precursor type: [M+H]+
Precursor intensity: 15031
m/z	relative intensity	assigned
44.0498	999	C2H6N+
186.8594	66	C2H3Se2+
197.9297	29	CH12NSe2+
207.9114	213	C2H10NSe2+
229.8931	41	C4H8NSe2+
