Mass spectrum: Methandrostenolone; LC-ESI-QTOF; MS2; CE: 40eV; R=7000; [M+H]+
Name: Methandrostenolone
Name: (8R,9S,10R,13S,14S,17S)-17-hydroxy-10,13,17-trimethyl-7,8,9,11,12,14,15,16-octahydro-6H-cyclopenta[a]phenanthren-3-one
Formula: C20H28O2
Exact mass: 300.2089
SMILES: C[C@]12CC[C@H]3[C@H]([C@@H]1CC[C@]2(C)O)CCC4=CC(=O)C=C[C@]34C
InChI: InChI=1S/C20H28O2/c1-18-9-6-14(21)12-13(18)4-5-15-16(18)7-10-19(2)17(15)8-11-20(19,3)22/h6,9,12,15-17,22H,4-5,7-8,10-11H2,1-3H3/t15-,16+,17+,18+,19+,20+/m1/s1
Instrument: Agilent 6560 QTOF
Instrument type: LC-ESI-QTOF
Ms type: MS2
Ion mode: POSITIVE
Ionization: ESI
Fragmentation mode: CID
Collision energy: 40 eV
Resolution: 7000
Column name: Direct injection
Retention time: 0.153 min
Base peak: 301.2176
Precursor m/z: 301.2162
Precursor type: [M+H]+
Precursor intensity: 266903
m/z	relative intensity	assigned
71.0486	15	C4H7O+
77.0388	462	C6H5+
78.0446	37	C6H6+
79.0547	100	C6H7+
81.034	8	C5H5O+
81.0699	150	C6H9+
83.0482	7	C5H7O+
83.0841	11	C6H11+
85.0654	12	C5H9O+
91.0545	605	C7H7+
93.0698	304	C7H9+
95.0848	62	C7H11+
103.0544	60	C8H7+
105.0696	94	C8H9+
107.0514	20	C7H7O+
107.0849	98	C8H11+
108.0597	8	C7H8O+
109.0652	19	C7H9O+
109.1008	53	C8H13+
115.0537	57	C9H7+
117.0694	64	C9H9+
119.0851	45	C9H11+
121.065	999	C8H9O+
127.0549	16	C10H7+
128.0621	16	C10H8+
129.0688	6	C10H9+
130.0775	4	C10H10+
131.049	5	C9H7O+
131.084	19	C10H11+
132.0578	32	C9H8O+
133.0641	8	C9H9O+
133.1021	11	C10H13+
135.044	3	C8H7O2+
135.0809	48	C9H11O+
141.0689	7	C11H9+
142.0742	4	C11H10+
145.0657	28	C10H9O+
145.0986	11	C11H13+
146.0719	18	C10H10O+
147.0802	39	C10H11O+
149.1312	2	C11H17+
155.0823	6	C12H11+
157.0982	2	C12H13+
158.0726	24	C11H10O+
159.081	13	C11H11O+
161.1321	7	C12H17+
165.0685	5	C13H9+
169.1031	4	C13H13+
171.0801	8	C12H11O+
173.0946	3	C12H13O+
184.084	3	C13H12O+
197.0953	13	C14H13O+
