Mass spectrum: N-ACETYLASPARAGINE; LC-ESI-QTOF; MS2; CE: 20eV; R=5000; [M+H]+
Name: N-ACETYLASPARAGINE
Name: (2S)-2-acetamido-4-amino-4-oxobutanoic acid
Formula: C6H10N2O4
Exact mass: 174.0641
SMILES: CC(=O)N[C@@H](CC(N)=O)C(O)=O
InChI: InChI=1S/C6H10N2O4/c1-3(9)8-4(6(11)12)2-5(7)10/h4H,2H2,1H3,(H2,7,10)(H,8,9)(H,11,12)/t4-/m0/s1
Instrument: Agilent 6530 QTOF
Instrument type: LC-ESI-QTOF
Ms type: MS2
Ion mode: POSITIVE
Ionization: ESI
Fragmentation mode: CID
Collision energy: 20 eV
Resolution: 5000
Column name: N/A
Retention time: 0.217 min
Base peak: 161.0919
Precursor m/z: 175.0713
Precursor type: [M+H]+
Precursor intensity: 177812
m/z	relative intensity	assigned
43.0177	609	C2H3O+
44.0499	168	C2H6N+
46.0291	253	CH4NO+
53.0012	77	C3HO+
57.0692	34	C4H9+
60.0453	342	C2H6NO+
70.0278	635	C3H4NO+
74.0223	999	C2H4NO2+
76.9991	2	HN2O3+
80.0149	2	C4H2NO+
83.0468	18	H7N2O3+
87.0548	521	C3H7N2O+
88.0373	885	C3H6NO2+
89.9802	1	CNO4+
99.0054	634	C4H3O3+
116.034	74	C4H6NO3+
133.063	77	C4H9N2O3+
