Mass spectrum: PURINE; LC-ESI-QTOF; MS2; CE: 40eV; R=5000; [M+H]+
Name: PURINE
Name: 7H-purine
Formula: C5H4N4
Exact mass: 120.04360
SMILES: N1C=NC2=C1C=NC=N2
InChI: InChI=1S/C5H4N4/c1-4-5(8-2-6-1)9-3-7-4/h1-3H,(H,6,7,8,9)
Instrument: Agilent 6530 QTOF
Instrument type: LC-ESI-QTOF
Ms type: MS2
Ion mode: POSITIVE
Ionization: ESI
Fragmentation mode: CID
Collision energy: 40 eV
Resolution: 5000
Column name: N/A
Retention time: 0.422 min
Base peak: 121.0508
Precursor m/z: 121.0509
Precursor type: [M+H]+
Precursor intensity: 1111439
m/z	relative intensity	assigned
40.0184	523	C2H2N+
43.0291	34	CH3N2+
45.044	1	CH5N2+
50.0015	1	C3N+
51.0099	12	C3HN+
52.0178	188	C3H2N+
53.0139	19	C2HN2+
55.0281	1	C2H3N2+
66.0221	15	C3H2N2+
67.0287	999	C3H3N2+
70.0391	2	C2H4N3+
76.0044	5	C4N2+
77.0128	71	C4HN2+
94.0385	205	C4H4N3+
