Mass spectrum: Taurocholic acid; LC-ESI-QTOF; MS2; CE: 10eV; R=7000; [M-H2O+H]+
Name: Taurocholic acid
Name: 2-[[(4R)-4-[(3R,5S,7R,8R,9S,10S,12S,13R,14S,17R)-3,7,12-trihydroxy-10,13-dimethyl-2,3,4,5,6,7,8,9,11,12,14,15,16,17-tetradecahydro-1H-cyclopenta[a]phenanthren-17-yl]pentanoyl]amino]ethanesulfonic acid
Formula: C26H45NO7S
Exact mass: 515.2917
SMILES: C[C@H](CCC(=O)NCCS(=O)(=O)O)[C@H]1CC[C@@H]2[C@@]1([C@H](C[C@H]3[C@H]2[C@@H](C[C@H]4[C@@]3(CC[C@H](C4)O)C)O)O)C
InChI: InChI=1S/C26H45NO7S/c1-15(4-7-23(31)27-10-11-35(32,33)34)18-5-6-19-24-20(14-22(30)26(18,19)3)25(2)9-8-17(28)12-16(25)13-21(24)29/h15-22,24,28-30H,4-14H2,1-3H3,(H,27,31)(H,32,33,34)/t15-,16+,17-,18-,19+,20+,21-,22+,24+,25+,26-/m1/s1
Instrument: Agilent 6560 QTOF
Instrument type: LC-ESI-QTOF
Ms type: MS2
Ion mode: POSITIVE
Ionization: ESI
Fragmentation mode: CID
Collision energy: 10 eV
Resolution: 7000
Column name: Direct injection
Retention time: 0.209 min
Base peak: 398.243
Precursor m/z: 498.2884
Precursor type: [M-H2O+H]+
Precursor intensity: 18990
m/z	relative intensity	assigned
99.0787	108	C6H11O+
126.0229	103	C2H8NO3S+
199.1509	28	C12H23S+
214.1649	54	C8H24NO5+
243.1712	91	C6H29NO6S+
255.1724	17	C7H29NO6S+
263.1111	76	C15H19O2S+
295.2472	67	C15H35O5+
300.1192	26	C18H20O2S+
309.2209	68	C22H29O+
319.2403	115	C13H37NO5S+
330.9708	32	C18H3O5S+
337.2521	370	C24H33O+
338.2632	36	C21H38OS+
339.9683	18	C19H2NO4S+
352.1592	57	C18H26NO4S+
406.1999	7	C25H28NO4+
424.9589	31	C26HO5S+
436.1523	24	C25H26NO4S+
438.3025	23	C25H44NO3S+
439.1817	54	C25H29NO4S+
462.2682	999	C26H40NO4S+
463.2678	129	C26H41NO4S+
480.2781	230	C26H42NO5S+
