Mass spectrum: Bis(2-butoxyethyl) hydrogen phosphate; LC-ESI-QTOF; MS2; CE: 10eV; R=7000; [M+H]+
Name: Bis(2-butoxyethyl) hydrogen phosphate
Formula: C12H27O6P
Exact mass: 298.1545
SMILES: CCCCOCCOP(=O)(O)OCCOCCCC
InChI: InChI=1S/C12H27O6P/c1-3-5-7-15-9-11-17-19(13,14)18-12-10-16-8-6-4-2/h3-12H2,1-2H3,(H,13,14)
Instrument: Agilent 6560 QTOF
Instrument type: LC-ESI-QTOF
Ms type: MS2
Ion mode: POSITIVE
Ionization: ESI
Fragmentation mode: CID
Collision energy: 10 eV
Resolution: 7000
Retention time: 0.145 min
Base peak: 321.1445
Precursor m/z: 299.1618
Precursor type: [M+H]+
Precursor intensity: 15938.8
m/z	relative intensity	assigned
55.0547	494	C4H7+
57.0706	999	C4H9+
59.0496	91	C3H7O+
83.0851	213	C6H11+
98.9837	125	H4O4P+
101.0959	316	C6H13O+
143.0097	222	C2H8O5P+
199.0735	514	C6H16O5P+
299.161	110	C12H28O6P+
