Mass spectrum: 4-((4-(Allyloxy)phenyl)sulfonyl)phenol; LC-ESI-QTOF; MS2; CE: 35eV; R=7000; [M-H]-
Name: 4-((4-(Allyloxy)phenyl)sulfonyl)phenol
Name: 4-(4-prop-2-enoxyphenyl)sulfonylphenol
Formula: C15H14O4S
Exact mass: 290.0613
SMILES: C=CCOC1=CC=C(C=C1)S(=O)(=O)C2=CC=C(C=C2)O
InChI: InChI=1S/C15H14O4S/c1-2-11-19-13-5-9-15(10-6-13)20(17,18)14-7-3-12(16)4-8-14/h2-10,16H,1,11H2
Instrument: Agilent 6560 QTOF
Instrument type: LC-ESI-QTOF
Ms type: MS2
Ion mode: NEGATIVE
Ionization: ESI
Fragmentation mode: CID
Collision energy: 35 eV
Resolution: 7000
Retention time: 0.155 min
Base peak: 289.055
Precursor m/z: 289.054
Precursor type: [M-H]-
Precursor intensity: 136991.07
m/z	relative intensity	assigned
56.9816	9	C2HS-
63.9636	14	O2S-
82.9957	45	C4H3S-
91.0189	393	C6H3O-
92.0268	834	C6H4O-
101.0404	11	C8H5-
108.0219	999	C6H4O2-
110.9906	36	C5H3OS-
111.9985	10	C5H4OS-
115.054	15	C9H7-
128.0628	276	C10H8-
129.068	17	C10H9-
130.0417	8	C9H6O-
138.9859	91	C6H3O2S-
139.9939	253	C6H4O2S-
140.9982	15	C9HO2-
143.0508	37	C10H7O-
155.9875	40	C6H4O3S-
156.0575	418	C11H8O-
172.0526	10	C11H8O2-
173.0035	9	C13HO-
183.045	102	C12H7O2-
184.0527	885	C12H8O2-
199.039	92	C12H7O3-
220.0206	16	C11H8O3S-
248.0138	169	C12H8O4S-
249.0169	18	C15H5O4-
