Mass spectrum: Tri-p-tolyl phosphate; LC-ESI-QTOF; MS2; CE: 30eV; R=7000; [M+H]+
Name: Tri-p-tolyl phosphate
Name: Tricresyl phosphate
Name: tris(4-methylphenyl) phosphate
Formula: C21H21O4P
Exact mass: 368.1177
SMILES: CC1=CC=C(C=C1)OP(=O)(OC2=CC=C(C=C2)C)OC3=CC=C(C=C3)C
InChI: InChI=1S/C21H21O4P/c1-16-4-10-19(11-5-16)23-26(22,24-20-12-6-17(2)7-13-20)25-21-14-8-18(3)9-15-21/h4-15H,1-3H3
Instrument: Agilent 6560 QTOF
Instrument type: LC-ESI-QTOF
Ms type: MS2
Ion mode: POSITIVE
Ionization: ESI
Fragmentation mode: CID
Collision energy: 30 eV
Resolution: 7000
Retention time: 0.111 min
Base peak: 369.125
Precursor m/z: 369.125
Precursor type: [M+H]+
Precursor intensity: 246673.07
m/z	relative intensity	assigned
53.0381	5	C4H5+
65.0389	117	C5H5+
77.0388	88	C6H5+
79.0548	111	C6H7+
90.0468	18	C7H6+
91.0543	855	C7H7+
92.0585	26	H13O3P+
105.0701	10	C8H9+
107.0492	345	C7H7O+
108.0563	26	H13O4P+
109.0643	32	C7H9O+
115.0528	6	C2H12O3P+
121.0648	6	C8H9O+
141.0693	58	C11H9+
143.0839	13	C4H16O3P+
152.0608	21	C5H13O3P+
153.0088	30	C7H6O2P+
153.0695	62	C12H9+
154.0167	16	C7H7O2P+
154.0734	7	C5H15O3P+
155.0819	11	C5H16O3P+
165.0696	783	C13H9+
166.0774	999	C13H10+
167.0809	98	C6H16O3P+
178.0793	25	C14H10+
179.0846	86	C14H11+
180.0922	26	C14H12+
181.064	9	C13H9O+
181.1014	104	C14H13+
182.1082	9	C7H19O3P+
184.0881	6	C13H12O+
189.0312	29	C7H10O4P+
195.0794	18	C14H11O+
196.0872	128	C14H12O+
197.0931	22	C7H18O4P+
199.1114	34	C14H15O+
200.0386	5	C12H9OP+
215.0615	35	C13H12OP+
216.068	5	C13H13OP+
229.1002	10	C18H13+
233.0715	10	C13H14O2P+
234.0728	5	C16H10O2+
239.081	7	C12H16O3P+
240.0933	8	C19H12+
241.1	57	C12H18O3P+
243.0568	560	C14H12O2P+
244.0602	55	C14H13O2P+
255.1158	41	C20H15+
256.1236	105	C20H16+
257.1254	22	C13H22O3P+
261.0664	109	C14H14O3P+
270.1425	5	C21H18+
279.0773	257	C14H16O4P+
280.0797	23	C14H17O4P+
333.1031	6	C21H18O2P+
369.1248	234	C21H22O4P+
