Mass spectrum: 4-Methylbenzotriazole; LC-ESI-QTOF; MS2; CE: 55eV; R=7000; [M+H]+
Name: 4-Methylbenzotriazole
Name: 4-Methyl-1H-benzotriazole
Name: 4-methyl-2H-benzotriazole
Formula: C7H7N3
Exact mass: 133.0640
SMILES: CC1=CC=CC2=NNN=C12
InChI: InChI=1S/C7H7N3/c1-5-3-2-4-6-7(5)9-10-8-6/h2-4H,1H3,(H,8,9,10)
Instrument: Agilent 6560 QTOF
Instrument type: LC-ESI-QTOF
Ms type: MS2
Ion mode: POSITIVE
Ionization: ESI
Fragmentation mode: CID
Collision energy: 55 eV
Resolution: 7000
Retention time: 0.146 min
Base peak: 134.0713
Precursor m/z: 134.0713
Precursor type: [M+H]+
Precursor intensity: 25216.17
m/z	relative intensity	assigned
50.0153	142	C4H2+
51.0232	999	C4H3+
52.0174	50	C3H2N+
53.0386	126	C4H5+
62.0148	21	C5H2+
63.0219	120	C5H3+
64.0305	40	C5H4+
65.0381	21	C5H5+
66.0339	24	C4H4N+
75.023	20	C6H3+
77.0387	380	C6H5+
78.0464	22	C6H6+
86.015	21	C7H2+
