Mass spectrum: Lithocholyltaurine; LC-ESI-QTOF; MS2; CE: 40eV; R=7000; [M-H]-
Name: Lithocholyltaurine
Name: Taurolithocholic acid
Name: 2-[[(4R)-4-[(3R,5R,8R,9S,10S,13R,14S,17R)-3-hydroxy-10,13-dimethyl-2,3,4,5,6,7,8,9,11,12,14,15,16,17-tetradecahydro-1H-cyclopenta[a]phenanthren-17-yl]pentanoyl]amino]ethanesulfonic acid
Formula: C26H45NO5S
Exact mass: 483.3018
SMILES: [H][C@@]1(CC[C@@]2([H])[C@]3([H])CC[C@]4([H])C[C@H](O)CC[C@]4(C)[C@@]3([H])CC[C@]12C)[C@H](C)CCC(=O)NCCS(O)(=O)=O
InChI: InChI=1S/C26H45NO5S/c1-17(4-9-24(29)27-14-15-33(30,31)32)21-7-8-22-20-6-5-18-16-19(28)10-12-25(18,2)23(20)11-13-26(21,22)3/h17-23,28H,4-16H2,1-3H3,(H,27,29)(H,30,31,32)/t17-,18-,19-,20+,21-,22+,23+,25+,26-/m1/s1
Instrument: Agilent 6560 QTOF
Instrument type: LC-ESI-QTOF
Ms type: MS2
Ion mode: NEGATIVE
Ionization: ESI
Fragmentation mode: CID
Collision energy: 40 eV
Resolution: 7000
Column name: N/A
Retention time: 0.168 min
Base peak: 482.2955
Precursor m/z: 482.2946
Precursor type: [M-H]-
Precursor intensity: 577171
m/z	relative intensity	assigned
79.9578	48	O3S-
80.9656	18	HO3S-
94.9819	7	CH3O3S-
106.9812	40	C2H3O3S-
107.9831	1	C5O3-
124.0075	41	C2H6NO3S-
196.1455	1	C12H20O2-
245.1115	1	C11H19NO3S-
329.282	1	C23H37O-
355.2403	1	C16H37NO5S-
357.2764	1	C24H37O2-
371.3175	1	C22H43O4-
374.3065	2	C24H40NO2-
388.3269	3	C25H42NO2-
398.3071	3	C26H40NO2-
400.3207	1	C23H44O5-
416.3189	2	C26H42NO3-
417.3222	2	C26H43NO3-
418.3318	4	C26H44NO3-
482.2959	999	C26H44NO5S-
