Mass spectrum: 1-hexadecanoyl-2-(9Z-octadecenoyl)-sn-glycero-3-phosphocholine; LC-ESI-QTOF; MS2; CE: 40eV; R=7000; [M+Na]+
Name: 1-hexadecanoyl-2-(9Z-octadecenoyl)-sn-glycero-3-phosphocholine
Name: 1-Palmitoyl-2-oleoyl-sn-glycero-3-phosphocholine
Name: [(2R)-3-hexadecanoyloxy-2-[(Z)-octadec-9-enoyl]oxypropyl] 2-(trimethylazaniumyl)ethyl phosphate
Formula: C42H82NO8P
Exact mass: 759.5778
SMILES: [C@](COP(=O)([O-])OCC[N+](C)(C)C)([H])(OC(CCCCCCC/C=C\CCCCCCCC)=O)COC(CCCCCCCCCCCCCCC)=O
InChI: InChI=1S/C42H82NO8P/c1-6-8-10-12-14-16-18-20-21-23-25-27-29-31-33-35-42(45)51-40(39-50-52(46,47)49-37-36-43(3,4)5)38-48-41(44)34-32-30-28-26-24-22-19-17-15-13-11-9-7-2/h20-21,40H,6-19,22-39H2,1-5H3/b21-20-/t40-/m1/s1
Instrument: Agilent 6560 QTOF
Instrument type: LC-ESI-QTOF
Ms type: MS2
Ion mode: POSITIVE
Ionization: ESI
Fragmentation mode: CID
Collision energy: 40 eV
Resolution: 7000
Column name: Direct injection
Retention time: 0.208 min
Base peak: 760.5873
Precursor m/z: 782.567
Precursor type: [M+Na]+
Precursor intensity: 207840
m/z	relative intensity	assigned
71.0839	29	C3H12Na+
72.0894	7	C3H13Na+
81.0697	89	C6H9+
83.0856	37	C6H11+
86.0967	353	C5H12N+
87.097	7	H16NaO3+
91.1239	3	C2H20OP+
95.0472	4	H11NNaOP+
95.0848	80	C7H11+
97.1007	39	C7H13+
107.0858	8	C4H14NP+
109.1011	51	C8H13+
109.1767	2	CH26NaO3+
110.1035	5	H16NO5+
111.0826	2	C3H14NOP+
111.1157	9	C2H19NNaP+
121.1009	18	C9H13+
123.117	19	C9H15+
127.2276	1	H34NO3P+
135.116	11	C10H15+
137.1297	5	C8H18Na+
143.1473	3	H24NaO6+
146.9818	999	C2H5NaO4P+
149.1325	16	C11H17+
163.1464	4	C6H23NNaP+
165.1654	2	C8H24NP+
169.1933	4	C6H29NNaP+
184.0717	16	C3H16NNaO4P+
187.0123	4	C5H9NaO4P+
191.1811	6	C10H26NP+
193.0805	2	C2H19NaO6P+
197.1921	2	C4H30NaO6+
205.1946	8	C15H25+
221.2279	2	H39NaO8P+
224.0622	10	C18H8+
239.2353	16	C10H35NNaOP+
247.242	14	C18H31+
254.1663	4	C18H22O+
265.2537	17	C14H36NOP+
268.9966	2	C12H7NaO4P+
283.0493	1	C14H13NaO3P+
293.2846	6	C16H40NOP+
321.2778	4	C21H37O2+
326.9668	11	C13H5NaO7P+
332.417	1	C10H62NaO6P+
342.0207	3	C22H8NaOP+
343.0032	1	C19H6NO4P+
345.0064	2	C22H3NO4+
355.0684	3	C18H13NO7+
359.0674	1	C23H12NaO3+
415.2191	5	C28H32OP+
419.2592	11	C24H38NO3P+
420.2612	2	C19H42NaO6P+
436.0758	1	C33H10NO+
439.1954	2	C23H30NNaO6+
439.9311	1	C23NNaO6P+
441.2373	21	C21H39NaO6P+
445.2723	3	C24H41NNaO3P+
467.253	25	C23H41NaO6P+
467.3436	1	C31H48OP+
478.3264	3	C26H47NaO6+
495.2593	2	C27H38NNaO6+
505.3371	3	C27H48NNaO6+
577.5189	249	C37H69O4+
578.526	13	C37H70O4+
599.5003	216	C37H68NaO4+
600.5017	29	C37H70NaO2P+
723.4914	15	C39H73NaO8P+
724.4997	4	C39H74NaO8P+
745.3604	2	C41H57NNaO8P+
745.4054	1	C42H61NNaO7P+
782.5665	6	C42H82NNaO8P+
