Mass spectrum: beta-Carotene; LC-ESI-QTOF; MS2; CE: 10eV; R=7000; [M]+
Name: beta-Carotene
Name: 1,3,3-trimethyl-2-[(1E,3E,5E,7E,9E,11E,13E,15E,17E)-3,7,12,16-tetramethyl-18-(2,6,6-trimethylcyclohexen-1-yl)octadeca-1,3,5,7,9,11,13,15,17-nonaenyl]cyclohexene
Formula: C40H56
Exact mass: 536.4382
SMILES: CC1=C(C(CCC1)(C)C)/C=C/C(=C/C=C/C(=C/C=C/C=C(/C=C/C=C(/C=C/C2=C(CCCC2(C)C)C)\C)\C)/C)/C
InChI: InChI=1S/C40H56/c1-31(19-13-21-33(3)25-27-37-35(5)23-15-29-39(37,7)8)17-11-12-18-32(2)20-14-22-34(4)26-28-38-36(6)24-16-30-40(38,9)10/h11-14,17-22,25-28H,15-16,23-24,29-30H2,1-10H3/b12-11+,19-13+,20-14+,27-25+,28-26+,31-17+,32-18+,33-21+,34-22+
Instrument: Agilent 6560 QTOF
Instrument type: LC-ESI-QTOF
Ms type: MS2
Ion mode: POSITIVE
Ionization: ESI
Fragmentation mode: CID
Collision energy: 10 eV
Resolution: 7000
Column name: Direct injection
Retention time: 0.324 min
Base peak: 647.4606
Precursor m/z: 536.4377
Precursor type: [M]+
Precursor intensity: 28285
m/z	relative intensity	assigned
109.0997	134	C8H13+
119.0857	194	C9H11+
120.0954	63	C9H12+
146.1061	56	C11H14+
158.1101	11	C12H14+
161.1307	199	C12H17+
174.1414	52	C13H18+
175.1473	103	C13H19+
183.1178	74	C14H15+
184.1207	28	C14H16+
187.146	56	C14H19+
189.1606	56	C14H21+
193.1028	12	C15H13+
197.1345	20	C15H17+
199.1479	91	C15H19+
203.1785	73	C15H23+
223.1447	40	C17H19+
225.1636	67	C17H21+
227.1801	43	C17H23+
243.2064	62	C18H27+
253.1908	79	C19H25+
254.1981	18	C19H26+
255.2079	84	C19H27+
257.2221	27	C19H29+
261.1673	30	C20H21+
267.2081	47	C20H27+
268.2149	55	C20H28+
279.2131	49	C21H27+
282.2349	45	C21H30+
294.2277	45	C22H30+
305.2246	65	C23H29+
307.2383	31	C23H31+
323.2712	131	C24H35+
351.3008	38	C26H39+
357.2545	57	C27H33+
370.2627	26	C28H34+
388.0303	61	C32H4+
444.3743	836	C33H48+
445.3763	144	C33H49+
446.3921	14	C33H50+
522.4197	28	C39H54+
536.4366	999	C40H56+
