Mass spectrum: 1,2-Dipalmitoyl-rac-glycerol; LC-ESI-QTOF; MS2; CE: 40eV; R=7000; [M-H2O+H]+
Name: 1,2-Dipalmitoyl-rac-glycerol
Name: 1,2-Dipalmitoyl-sn-glycerol
Name: [(2S)-2-hexadecanoyloxy-3-hydroxypropyl] hexadecanoate
Formula: C35H68O5
Exact mass: 568.5067
SMILES: [H][C@](CO)(COC(=O)CCCCCCCCCCCCCCC)OC(=O)CCCCCCCCCCCCCCC
InChI: InChI=1S/C35H68O5/c1-3-5-7-9-11-13-15-17-19-21-23-25-27-29-34(37)39-32-33(31-36)40-35(38)30-28-26-24-22-20-18-16-14-12-10-8-6-4-2/h33,36H,3-32H2,1-2H3/t33-/m0/s1
Instrument: Agilent 6560 QTOF
Instrument type: LC-ESI-QTOF
Ms type: MS2
Ion mode: POSITIVE
Ionization: ESI
Fragmentation mode: CID
Collision energy: 40 eV
Resolution: 7000
Column name: Direct injection
Retention time: 0.184 min
Base peak: 591.4973
Precursor m/z: 551.5034
Precursor type: [M-H2O+H]+
Precursor intensity: 6242
m/z	relative intensity	assigned
71.0854	999	C5H11+
85.1021	327	C6H13+
95.0845	787	C7H11+
97.1014	303	C7H13+
109.1003	240	C8H13+
465.2394	181	C32H33O3+
