Mass spectrum: Taurocholic acid; LC-ESI-QTOF; MS2; CE: 20eV; R=7000; [M-H2O+H]+
Name: Taurocholic acid
Name: 2-[[(4R)-4-[(3R,5S,7R,8R,9S,10S,12S,13R,14S,17R)-3,7,12-trihydroxy-10,13-dimethyl-2,3,4,5,6,7,8,9,11,12,14,15,16,17-tetradecahydro-1H-cyclopenta[a]phenanthren-17-yl]pentanoyl]amino]ethanesulfonic acid
Formula: C26H45NO7S
Exact mass: 515.2917
SMILES: C[C@H](CCC(=O)NCCS(=O)(=O)O)[C@H]1CC[C@@H]2[C@@]1([C@H](C[C@H]3[C@H]2[C@@H](C[C@H]4[C@@]3(CC[C@H](C4)O)C)O)O)C
InChI: InChI=1S/C26H45NO7S/c1-15(4-7-23(31)27-10-11-35(32,33)34)18-5-6-19-24-20(14-22(30)26(18,19)3)25(2)9-8-17(28)12-16(25)13-21(24)29/h15-22,24,28-30H,4-14H2,1-3H3,(H,27,31)(H,32,33,34)/t15-,16+,17-,18-,19+,20+,21-,22+,24+,25+,26-/m1/s1
Instrument: Agilent 6560 QTOF
Instrument type: LC-ESI-QTOF
Ms type: MS2
Ion mode: POSITIVE
Ionization: ESI
Fragmentation mode: CID
Collision energy: 20 eV
Resolution: 7000
Column name: Direct injection
Retention time: 0.212 min
Base peak: 398.2425
Precursor m/z: 498.2884
Precursor type: [M-H2O+H]+
Precursor intensity: 23339
m/z	relative intensity	assigned
71.0488	101	C4H7O+
87.0449	67	C4H7O2+
104.9902	100	C2H3NO2S+
108.0887	66	H14NO5+
121.063	39	C8H9O+
126.021	362	C2H8NO3S+
131.0863	49	C10H11+
143.0861	129	C11H11+
145.0996	97	C11H13+
163.1113	57	C11H15O+
179.084	34	C14H11+
185.1293	32	C3H23NO5S+
187.1434	73	C3H25NO5S+
190.1296	45	C5H20NO6+
199.1456	149	C4H25NO5S+
201.1604	36	C4H27NO5S+
208.0661	222	C7H14NO4S+
209.1315	314	C16H17+
210.1386	61	C5H24NO5S+
211.1466	89	C16H19+
213.1637	109	C16H21+
217.1558	103	C4H27NO6S+
225.1631	175	C17H21+
227.1435	237	C16H19O+
227.1795	161	C17H23+
229.1552	106	C5H27NO6S+
234.0774	79	C12H12NO4+
241.1919	211	C7H31NO5S+
243.176	106	C14H27OS+
256.9643	218	C16HO2S+
257.9697	45	C15NO2S+
293.2257	112	C22H29+
319.2382	278	C13H37NO5S+
337.2515	999	C24H33O+
338.2518	231	C20H36NOS+
339.9721	32	C19H2NO4S+
349.0056	62	C18H7NO5S+
355.2596	36	C24H35O2+
362.1723	65	C20H26O6+
462.2666	454	C26H40NO4S+
463.2717	89	C26H41NO4S+
