Mass spectrum: 5,6-Dimethylbenzotriazole; LC-ESI-QTOF; MS2; CE: 40eV; R=7000; [M+H]+
Name: 5,6-Dimethylbenzotriazole
Name: 5,6-Dimethyl-1H-benzotriazole
Name: 5,6-dimethyl-2H-benzotriazole
Formula: C8H9N3
Exact mass: 147.0796
SMILES: CC1=CC2=NNN=C2C=C1C
InChI: InChI=1S/C8H9N3/c1-5-3-7-8(4-6(5)2)10-11-9-7/h3-4H,1-2H3,(H,9,10,11)
Instrument: Agilent 6560 QTOF
Instrument type: LC-ESI-QTOF
Ms type: MS2
Ion mode: POSITIVE
Ionization: ESI
Fragmentation mode: CID
Collision energy: 40 eV
Resolution: 7000
Retention time: 0.145 min
Base peak: 148.087
Precursor m/z: 148.0869
Precursor type: [M+H]+
Precursor intensity: 54448.64
m/z	relative intensity	assigned
51.0233	655	C4H3+
52.0318	24	C4H4+
53.0388	92	C4H5+
54.0345	37	C3H4N+
65.0383	161	C5H5+
66.0469	57	C5H6+
76.0296	13	C6H4+
77.0388	999	C6H5+
78.0335	67	C5H4N+
78.046	79	C6H6+
79.0537	28	C6H7+
80.0493	74	C5H6N+
91.054	398	C7H7+
93.0592	50	C6H7N+
102.0451	14	C8H6+
104.049	216	C7H6N+
117.0575	30	C8H7N+
118.0646	80	C8H8N+
132.0555	13	C7H6N3+
