Mass spectrum: Tri-m-tolyl phosphate; LC-ESI-QTOF; MS2; CE: 40eV; R=7000; [M+H]+
Name: Tri-m-tolyl phosphate
Name: Tri-M-cresyl phosphate
Name: tris(3-methylphenyl) phosphate
Formula: C21H21O4P
Exact mass: 368.1177
SMILES: CC1=CC(=CC=C1)OP(=O)(OC2=CC=CC(=C2)C)OC3=CC=CC(=C3)C
InChI: InChI=1S/C21H21O4P/c1-16-7-4-10-19(13-16)23-26(22,24-20-11-5-8-17(2)14-20)25-21-12-6-9-18(3)15-21/h4-15H,1-3H3
Instrument: Agilent 6560 QTOF
Instrument type: LC-ESI-QTOF
Ms type: MS2
Ion mode: POSITIVE
Ionization: ESI
Fragmentation mode: CID
Collision energy: 40 eV
Resolution: 7000
Retention time: 0.145 min
Base peak: 391.1087
Precursor m/z: 369.125
Precursor type: [M+H]+
Precursor intensity: 136618.06
m/z	relative intensity	assigned
65.0388	235	C5H5+
77.0387	32	C6H5+
79.0554	20	C6H7+
89.0379	10	C7H5+
91.0544	999	C7H7+
107.0476	36	H12O4P+
109.065	28	C7H9O+
115.0521	14	C2H12O3P+
121.0655	6	C8H9O+
141.0709	39	C11H9+
142.0786	9	C11H10+
152.0626	16	C12H8+
153.0076	14	C7H6O2P+
153.0682	35	C5H14O3P+
154.0775	10	C12H10+
165.0696	899	C13H9+
166.0769	532	C13H10+
167.0812	67	C6H16O3P+
168.0919	8	C6H17O3P+
178.0764	49	C7H15O3P+
179.0848	61	C14H11+
180.0919	22	C7H17O3P+
181.063	17	C6H14O4P+
181.1001	26	C14H13+
184.0868	7	C6H17O4P+
187.0164	9	C7H8O4P+
195.0799	58	C14H11O+
196.0879	165	C14H12O+
197.0505	9	C13H10P+
197.0946	17	C7H18O4P+
211.0274	6	C13H8OP+
215.0596	16	C13H12OP+
216.092	7	C10H17O3P+
239.0867	7	C19H11+
240.0934	13	C19H12+
241.101	45	C19H13+
242.1058	10	C12H19O3P+
243.0567	156	C14H12O2P+
243.1144	9	C12H20O3P+
244.0614	25	C14H13O2P+
253.0996	7	C13H18O3P+
254.109	11	C20H14+
255.1153	22	C13H20O3P+
256.124	25	C20H16+
261.0664	9	C14H14O3P+
279.0784	40	C14H16O4P+
