Mass spectrum: Elaidic acid; LC-ESI-QTOF; MS2; CE: 10eV; R=7000; [M-H]-
Name: Elaidic acid
Name: (E)-octadec-9-enoic acid
Formula: C18H34O2
Exact mass: 282.2559
SMILES: CCCCCCCC\C=C\CCCCCCCC(O)=O
InChI: InChI=1S/C18H34O2/c1-2-3-4-5-6-7-8-9-10-11-12-13-14-15-16-17-18(19)20/h9-10H,2-8,11-17H2,1H3,(H,19,20)/b10-9+
Instrument: Agilent 6560 QTOF
Instrument type: LC-ESI-QTOF
Ms type: MS2
Ion mode: NEGATIVE
Ionization: ESI
Fragmentation mode: CID
Collision energy: 10 eV
Resolution: 7000
Column name: N/A
Retention time: 0.139 min
Base peak: 980.0164
Precursor m/z: 281.2486
Precursor type: [M-H]-
Precursor intensity: 151362
m/z	relative intensity	assigned
263.2355	2	C18H31O-
281.2483	999	C18H33O2-
