Mass spectrum: 1-Hydroxy-2-naphthoate; LC-ESI-QTOF; MS2; CE: 40eV; R=7000; [M-H]-
Name: 1-Hydroxy-2-naphthoate
Name: 1-Hydroxy-2-naphthoic acid
Name: 1-hydroxynaphthalene-2-carboxylic acid
Formula: C11H8O3
Exact mass: 188.0473
SMILES: C1=CC=C2C(=C1)C=CC(=C2O)C(=O)O
InChI: InChI=1S/C11H8O3/c12-10-8-4-2-1-3-7(8)5-6-9(10)11(13)14/h1-6,12H,(H,13,14)
Instrument: Agilent 6560 QTOF
Instrument type: LC-ESI-QTOF
Ms type: MS2
Ion mode: NEGATIVE
Ionization: ESI
Fragmentation mode: CID
Collision energy: 40 eV
Resolution: 7000
Column name: N/A
Retention time: 0.167 min
Base peak: 255.2328
Precursor m/z: 187.0401
Precursor type: [M-H]-
Precursor intensity: 404376
m/z	relative intensity	assigned
72.0212	6	C3H4O2-
78.0473	4	C6H6-
112.0186	5	C5H4O3-
115.0545	774	C9H7-
131.9997	4	C11-
143.0496	999	C10H7O-
145.0302	5	C9H5O2-
186.0327	4	C11H6O3-
