Mass spectrum: N-oleoyl-D-erythro-sphingosine; LC-ESI-QTOF; MS2; CE: 20eV; R=7000; [M-H]-
Name: N-oleoyl-D-erythro-sphingosine
Name: N-(oleoyl)-ceramide
Name: (Z)-N-[(E,2S,3R)-1,3-dihydroxyoctadec-4-en-2-yl]octadec-9-enamide
Formula: C36H69NO3
Exact mass: 563.5277
SMILES: CCCCCCCCCCCCC/C=C/[C@H]([C@H](CO)NC(=O)CCCCCCC/C=C\CCCCCCCC)O
InChI: InChI=1S/C36H69NO3/c1-3-5-7-9-11-13-15-17-18-20-22-24-26-28-30-32-36(40)37-34(33-38)35(39)31-29-27-25-23-21-19-16-14-12-10-8-6-4-2/h17-18,29,31,34-35,38-39H,3-16,19-28,30,32-33H2,1-2H3,(H,37,40)/b18-17-,31-29+/t34-,35+/m0/s1
Instrument: Agilent 6560 QTOF
Instrument type: LC-ESI-QTOF
Ms type: MS2
Ion mode: NEGATIVE
Ionization: ESI
Fragmentation mode: CID
Collision energy: 20 eV
Resolution: 7000
Column name: N/A
Retention time: 0.164 min
Base peak: 622.5436
Precursor m/z: 562.5205
Precursor type: [M-H]-
Precursor intensity: 123039
m/z	relative intensity	assigned
80.0275	31	C5H4O-
84.021	6	C4H4O2-
97.0663	20	C6H9O-
174.3838	4	C9H50O-
218.2123	5	C12H28NO2-
222.3769	17	C12H48NO-
237.2242	257	C16H29O-
238.2229	25	C15H28NO-
250.2497	8	C14H34O3-
251.2384	13	C17H31O-
263.2389	421	C18H31O-
264.2424	65	C18H32O-
264.297	4	C15H38NO2-
266.2101	8	C16H28NO2-
267.0502	11	C19H7O2-
268.2648	57	C17H34NO-
280.2644	111	C18H34NO-
281.253	76	C18H33O2-
282.0332	8	C19H6O3-
294.2297	18	C22H30-
304.1809	6	C22H24O-
306.2821	692	C20H36NO-
307.2847	36	C20H37NO-
307.3548	2	C19H47O2-
322.2755	147	C20H36NO2-
323.2762	10	C24H35-
324.2902	2	C20H38NO2-
346.0539	15	C23H8NO3-
399.0826	2	C31H11O-
399.2058	5	C31H27-
454.0933	3	C33H12NO2-
487.4974	8	C30H65NO3-
502.501	36	C34H64NO-
512.223	2	C35H30NO3-
514.4421	9	C34H58O3-
514.4993	97	C35H64NO-
515.4998	18	C35H65NO-
516.5152	28	C35H66NO-
519.2738	8	C35H37NO3-
526.4961	12	C36H64NO-
528.4851	4	C36H64O2-
530.4966	127	C35H64NO2-
532.5125	175	C35H66NO2-
533.2882	8	C36H39NO3-
533.5059	10	C35H67NO2-
545.5164	20	C36H67NO2-
562.5228	999	C36H68NO3-
