Mass spectrum: PURINE; LC-ESI-QTOF; MS2; CE: 10eV; R=5000; [M+H]+
Name: PURINE
Name: 7H-purine
Formula: C5H4N4
Exact mass: 120.04360
SMILES: N1C=NC2=C1C=NC=N2
InChI: InChI=1S/C5H4N4/c1-4-5(8-2-6-1)9-3-7-4/h1-3H,(H,6,7,8,9)
Instrument: Agilent 6530 QTOF
Instrument type: LC-ESI-QTOF
Ms type: MS2
Ion mode: POSITIVE
Ionization: ESI
Fragmentation mode: CID
Collision energy: 10 eV
Resolution: 5000
Column name: N/A
Retention time: 0.185 min
Base peak: 121.0508
Precursor m/z: 121.0509
Precursor type: [M+H]+
Precursor intensity: 8706684
m/z	relative intensity	assigned
40.0176	15	C2H2N+
43.0287	26	CH3N2+
52.0177	54	C3H2N+
67.0282	456	C3H3N2+
69.0443	6	C3H5N2+
94.0383	999	C4H4N3+
