Mass spectrum: Taurocholic acid; LC-ESI-QTOF; MS2; CE: 40eV; R=7000; [M+Na]+
Name: Taurocholic acid
Name: 2-[[(4R)-4-[(3R,5S,7R,8R,9S,10S,12S,13R,14S,17R)-3,7,12-trihydroxy-10,13-dimethyl-2,3,4,5,6,7,8,9,11,12,14,15,16,17-tetradecahydro-1H-cyclopenta[a]phenanthren-17-yl]pentanoyl]amino]ethanesulfonic acid
Formula: C26H45NO7S
Exact mass: 515.2917
SMILES: C[C@H](CCC(=O)NCCS(=O)(=O)O)[C@H]1CC[C@@H]2[C@@]1([C@H](C[C@H]3[C@H]2[C@@H](C[C@H]4[C@@]3(CC[C@H](C4)O)C)O)O)C
InChI: InChI=1S/C26H45NO7S/c1-15(4-7-23(31)27-10-11-35(32,33)34)18-5-6-19-24-20(14-22(30)26(18,19)3)25(2)9-8-17(28)12-16(25)13-21(24)29/h15-22,24,28-30H,4-14H2,1-3H3,(H,27,31)(H,32,33,34)/t15-,16+,17-,18-,19+,20+,21-,22+,24+,25+,26-/m1/s1
Instrument: Agilent 6560 QTOF
Instrument type: LC-ESI-QTOF
Ms type: MS2
Ion mode: POSITIVE
Ionization: ESI
Fragmentation mode: CID
Collision energy: 40 eV
Resolution: 7000
Column name: Direct injection
Retention time: 0.210 min
Base peak: 398.2432
Precursor m/z: 538.2809
Precursor type: [M+Na]+
Precursor intensity: 18413
m/z	relative intensity	assigned
95.0875	106	C2H16NaS+
96.0901	85	C5H13Na+
105.0716	33	C3H14NaS+
107.0862	25	C3H16NaS+
109.1022	85	C3H18NaS+
119.0837	26	C7H12Na+
141.0703	70	C11H9+
148.0048	999	C2H7NNaO3S+
167.0872	31	C8H16NaS+
211.1451	26	C5H25NO5S+
229.159	55	C16H21O+
232.9698	22	C8H2NaO7+
236.1482	37	C10H22NO5+
237.1617	28	C16H22Na+
295.2016	44	C10H33NO6S+
319.2416	51	C24H31+
337.2535	33	C19H38NaOS+
359.2294	48	C18H33NO6+
376.2587	12	C21H37NaO4+
377.2505	19	C23H37O2S+
378.2447	20	C20H37NNaO2S+
395.2565	165	C24H36NaO3+
396.2611	42	C24H37NaO3+
414.262	40	C17H43NaO7S+
431.1893	35	C25H30NNaO2S+
466.247	32	C26H37NNaO3S+
468.1981	37	C24H31NNaO7+
482.2204	9	C24H36NO7S+
483.2268	35	C22H38NNaO7S+
484.2502	29	C26H39NNaO4S+
485.2572	12	C26H40NNaO4S+
