Mass spectrum: N-oleoyl-D-erythro-sphingosine; LC-ESI-QTOF; MS2; CE: 40eV; R=7000; [M-H]-
Name: N-oleoyl-D-erythro-sphingosine
Name: N-(oleoyl)-ceramide
Name: (Z)-N-[(E,2S,3R)-1,3-dihydroxyoctadec-4-en-2-yl]octadec-9-enamide
Formula: C36H69NO3
Exact mass: 563.5277
SMILES: CCCCCCCCCCCCC/C=C/[C@H]([C@H](CO)NC(=O)CCCCCCC/C=C\CCCCCCCC)O
InChI: InChI=1S/C36H69NO3/c1-3-5-7-9-11-13-15-17-18-20-22-24-26-28-30-32-36(40)37-34(33-38)35(39)31-29-27-25-23-21-19-16-14-12-10-8-6-4-2/h17-18,29,31,34-35,38-39H,3-16,19-28,30,32-33H2,1-2H3,(H,37,40)/b18-17-,31-29+/t34-,35+/m0/s1
Instrument: Agilent 6560 QTOF
Instrument type: LC-ESI-QTOF
Ms type: MS2
Ion mode: NEGATIVE
Ionization: ESI
Fragmentation mode: CID
Collision energy: 40 eV
Resolution: 7000
Column name: N/A
Retention time: 0.167 min
Base peak: 622.5423
Precursor m/z: 562.5205
Precursor type: [M-H]-
Precursor intensity: 65904
m/z	relative intensity	assigned
84.0456	16	C4H6NO-
94.4427	4	C2H56N-
97.0653	44	C6H9O-
111.0792	35	C7H11O-
119.2036	6	C5H27O2-
125.0876	6	C7H11NO-
211.2083	24	C14H27O-
235.2061	25	C16H27O-
237.221	250	C16H29O-
238.0662	14	C18H8N-
238.2243	38	C16H30O-
250.2554	5	C17H32N-
255.2306	23	C16H31O2-
261.2206	43	C18H29O-
263.2365	362	C18H31O-
264.24	51	C18H32O-
266.2476	77	C17H32NO-
268.2628	38	C17H34NO-
270.0279	4	C18H6O3-
279.2707	61	C19H35O-
280.2642	123	C18H34NO-
281.2486	68	C18H33O2-
282.254	30	C18H34O2-
286.0675	13	C22H8N-
302.2915	5	C21H36N-
304.2615	17	C20H34NO-
306.2799	999	C20H36NO-
307.2825	82	C20H37NO-
308.0287	8	C24H4O-
308.0897	9	C22H12O2-
313.1676	19	C19H23NO3-
320.2528	10	C24H32-
322.2747	67	C20H36NO2-
323.1791	5	C25H23-
353.1725	22	C25H23NO-
359.2748	3	C27H35-
487.4773	25	C33H61NO-
488.4849	17	C33H62NO-
502.4942	19	C34H64NO-
511.2487	6	C36H33NO2-
514.505	108	C35H64NO-
515.4376	16	C33H57NO3-
530.4846	8	C35H64NO2-
533.5048	13	C35H65O3-
