Mass spectrum: Prostaglandin E1; LC-ESI-QTOF; MS2; CE: 40eV; R=7000; [M+Na]+
Name: Prostaglandin E1
Name: Alprostadil
Name: 7-[(1R,2R,3R)-3-hydroxy-2-[(E,3S)-3-hydroxyoct-1-enyl]-5-oxocyclopentyl]heptanoic acid
Formula: C20H34O5
Exact mass: 354.2406
SMILES: CCCCC[C@@H](/C=C/[C@H]1[C@@H](CC(=O)[C@@H]1CCCCCCC(=O)O)O)O
InChI: InChI=1S/C20H34O5/c1-2-3-6-9-15(21)12-13-17-16(18(22)14-19(17)23)10-7-4-5-8-11-20(24)25/h12-13,15-17,19,21,23H,2-11,14H2,1H3,(H,24,25)/b13-12+/t15-,16+,17+,19+/m0/s1
Instrument: Agilent 6560 QTOF
Instrument type: LC-ESI-QTOF
Ms type: MS2
Ion mode: POSITIVE
Ionization: ESI
Fragmentation mode: CID
Collision energy: 40 eV
Resolution: 7000
Column name: Direct injection
Retention time: 0.209 min
Base peak: 377.2314
Precursor m/z: 377.2298
Precursor type: [M+Na]+
Precursor intensity: 1801
m/z	relative intensity	assigned
143.0856	973	C11H11+
209.1122	999	C10H18NaO3+
229.1026	355	C18H13+
