Mass spectrum: Alfa-lactose; LC-ESI-QTOF; MS2; CE: 10eV; R=5000; [M+Na]+
Name: Alfa-lactose
Name: alpha-Lactose
Name: (2R,3R,4S,5R,6S)-2-(hydroxymethyl)-6-[(2R,3S,4R,5R,6S)-4,5,6-trihydroxy-2-(hydroxymethyl)oxan-3-yl]oxyoxane-3,4,5-triol
Formula: C12H22O11
Exact mass: 342.1162
SMILES: C([C@@H]1[C@@H]([C@@H]([C@H]([C@@H](O1)O[C@@H]2[C@H](O[C@@H]([C@@H]([C@H]2O)O)O)CO)O)O)O)O
InChI: InChI=1S/C12H22O11/c13-1-3-5(15)6(16)9(19)12(22-3)23-10-4(2-14)21-11(20)8(18)7(10)17/h3-20H,1-2H2/t3-,4-,5+,6+,7-,8-,9-,10-,11+,12+/m1/s1
Instrument: Agilent 6530 QTOF
Instrument type: LC-ESI-QTOF
Ms type: MS2
Ion mode: POSITIVE
Ionization: ESI
Fragmentation mode: CID
Collision energy: 10 eV
Resolution: 5000
Column name: N/A
Retention time: 0.222 min
Base peak: 365.1065
Precursor m/z: 365.1054
Precursor type: [M+Na]+
Precursor intensity: 2186443
m/z	relative intensity	assigned
185.0437	3	C8H9O5+
203.0532	5	C6H12NaO6+
305.0854	7	C10H18NaO9+
347.0959	11	C12H20NaO10+
365.1083	999	C12H22NaO11+
