Mass spectrum: CYTOSINE; LC-ESI-QTOF; MS2; CE: 10eV; R=5000; [M+H]+
Name: CYTOSINE
Name: 6-amino-1H-pyrimidin-2-one
Formula: C4H5N3O
Exact mass: 111.0433
SMILES: NC1=CC=NC(=O)N1
InChI: InChI=1S/C4H5N3O/c5-3-1-2-6-4(8)7-3/h1-2H,(H3,5,6,7,8)
Instrument: Agilent 6530 QTOF
Instrument type: LC-ESI-QTOF
Ms type: MS2
Ion mode: POSITIVE
Ionization: ESI
Fragmentation mode: CID
Collision energy: 10 eV
Resolution: 5000
Column name: N/A
Retention time: 0.219 min
Base peak: 112.0512
Precursor m/z: 112.0505
Precursor type: [M+H]+
Precursor intensity: 8334869
m/z	relative intensity	assigned
40.0183	13	C2H2N+
42.0337	28	C2H4N+
43.0291	3	CH3N2+
44.0133	1	CH2NO+
52.0179	28	C3H2N+
67.0285	42	C3H3N2+
68.0124	45	C3H2NO+
69.0441	113	C3H5N2+
71.0228	8	C2H3N2O+
94.0385	109	C4H4N3+
95.0228	387	C4H3N2O+
112.0489	999	C4H6N3O+
