Mass spectrum: Tri-n-hexyl trimellitate; LC-ESI-QTOF; MS2; CE: 20eV; R=7000; [M+H]+
Name: Tri-n-hexyl trimellitate
Name: trihexyl benzene-1,2,4-tricarboxylate
Formula: C27H42O6
Exact mass: 462.2981
SMILES: CCCCCCOC(=O)C1=CC(=C(C=C1)C(=O)OCCCCCC)C(=O)OCCCCCC
InChI: InChI=1S/C27H42O6/c1-4-7-10-13-18-31-25(28)22-16-17-23(26(29)32-19-14-11-8-5-2)24(21-22)27(30)33-20-15-12-9-6-3/h16-17,21H,4-15,18-20H2,1-3H3
Instrument: Agilent 6560 QTOF
Instrument type: LC-ESI-QTOF
Ms type: MS2
Ion mode: POSITIVE
Ionization: ESI
Fragmentation mode: CID
Collision energy: 20 eV
Resolution: 7000
Retention time: 0.114 min
Base peak: 371.1017
Precursor m/z: 463.3054
Precursor type: [M+H]+
Precursor intensity: 37122.07
m/z	relative intensity	assigned
57.07	18	C4H9+
109.0287	8	C6H5O2+
149.0437	9	C5H9O5+
193.0123	156	C9H5O5+
207.0304	18	C10H7O5+
208.031	12	C17H4+
223.0636	31	C11H11O5+
277.1071	999	C15H17O5+
278.1094	46	C22H14+
281.0509	50	C16H9O5+
463.3045	11	C27H43O6+
