Mass spectrum: Pregnanetriol; LC-ESI-QTOF; MS2; CE: 10eV; R=7000; [M+CH3COO]-
Name: Pregnanetriol
Name: (3R,5R,8R,9S,10S,13S,14S,17R)-17-[(1S)-1-hydroxyethyl]-10,13-dimethyl-1,2,3,4,5,6,7,8,9,11,12,14,15,16-tetradecahydrocyclopenta[a]phenanthrene-3,17-diol
Formula: C21H36O3
Exact mass: 336.2664
SMILES: C[C@@H]([C@]1(CC[C@@H]2[C@@]1(CC[C@H]3[C@H]2CC[C@H]4[C@@]3(CC[C@H](C4)O)C)C)O)O
InChI: InChI=1S/C21H36O3/c1-13(22)21(24)11-8-18-16-5-4-14-12-15(23)6-9-19(14,2)17(16)7-10-20(18,21)3/h13-18,22-24H,4-12H2,1-3H3/t13-,14+,15+,16+,17-,18-,19-,20-,21-/m0/s1
Instrument: Agilent 6560 QTOF
Instrument type: LC-ESI-QTOF
Ms type: MS2
Ion mode: NEGATIVE
Ionization: ESI
Fragmentation mode: CID
Collision energy: 10 eV
Resolution: 7000
Column name: N/A
Retention time: 0.168 min
Base peak: 980.0164
Precursor m/z: 395.2803
Precursor type: [M+CH3COO]-
Precursor intensity: 10599
m/z	relative intensity	assigned
311.1708	478	C20H23O3-
313.157	288	C23H21O-
395.2736	999	C23H39O5-
