Mass spectrum: Tri-o-tolyl phosphate; LC-ESI-QTOF; MS2; CE: 45eV; R=7000; [M+H]+
Name: Tri-o-tolyl phosphate
Name: Tri-O-cresyl phosphate
Name: tris(2-methylphenyl) phosphate
Formula: C21H21O4P
Exact mass: 368.1177
SMILES: CC1=CC=CC=C1OP(=O)(OC2=CC=CC=C2C)OC3=CC=CC=C3C
InChI: InChI=1S/C21H21O4P/c1-16-10-4-7-13-19(16)23-26(22,24-20-14-8-5-11-17(20)2)25-21-15-9-6-12-18(21)3/h4-15H,1-3H3
Instrument: Agilent 6560 QTOF
Instrument type: LC-ESI-QTOF
Ms type: MS2
Ion mode: POSITIVE
Ionization: ESI
Fragmentation mode: CID
Collision energy: 45 eV
Resolution: 7000
Retention time: 0.146 min
Base peak: 391.1072
Precursor m/z: 369.125
Precursor type: [M+H]+
Precursor intensity: 124416.02
m/z	relative intensity	assigned
63.0234	23	C5H3+
64.0307	6	C5H4+
65.0384	343	C5H5+
77.0382	31	C6H5+
79.0539	21	C6H7+
91.0538	999	C7H7+
92.0575	47	H13O3P+
94.0404	4	C6H6O+
105.0328	10	C7H5O+
107.048	53	C7H7O+
115.0539	16	C9H7+
119.0467	9	CH12O4P+
121.0657	6	C8H9O+
139.0505	6	C4H12O3P+
141.0697	36	C11H9+
149.0127	9	C8H6OP+
151.0526	6	C5H12O3P+
152.06	20	C5H13O3P+
153.0092	12	C7H6O2P+
153.0672	10	C5H14O3P+
154.0779	7	C12H10+
155.0256	6	C7H8O2P+
164.0624	9	C13H8+
165.0692	498	C13H9+
166.0764	202	C6H15O3P+
167.0805	29	C6H16O3P+
169.1005	6	C13H13+
176.062	7	C14H8+
177.0708	6	C14H9+
178.0764	112	C7H15O3P+
179.0837	55	C7H16O3P+
180.0891	6	C7H17O3P+
181.0624	19	C6H14O4P+
181.1004	6	C14H13+
182.0707	5	C6H15O4P+
189.0312	7	C7H10O4P+
195.0794	7	C14H11O+
215.0833	6	C10H16O3P+
239.0818	11	C12H16O3P+
240.0895	11	C12H17O3P+
241.1003	26	C19H13+
243.0531	6	C14H12O2P+
253.0991	6	C13H18O3P+
255.1168	7	C20H15+
279.0794	5	C21H11O+
