Mass spectrum: Tributyl acetylcitrate; LC-ESI-QTOF; MS2; CE: 45eV; R=7000; [M+H]+
Name: Tributyl acetylcitrate
Name: Acetyl tributyl citrate
Name: tributyl 2-acetyloxypropane-1,2,3-tricarboxylate
Formula: C20H34O8
Exact mass: 402.2254
SMILES: CCCCOC(=O)CC(CC(=O)OCCCC)(C(=O)OCCCC)OC(=O)C
InChI: InChI=1S/C20H34O8/c1-5-8-11-25-17(22)14-20(28-16(4)21,19(24)27-13-10-7-3)15-18(23)26-12-9-6-2/h5-15H2,1-4H3
Instrument: Agilent 6560 QTOF
Instrument type: LC-ESI-QTOF
Ms type: MS2
Ion mode: POSITIVE
Ionization: ESI
Fragmentation mode: CID
Collision energy: 45 eV
Resolution: 7000
Retention time: 0.109 min
Base peak: 425.2152
Precursor m/z: 403.2326
Precursor type: [M+H]+
Precursor intensity: 48480.38
m/z	relative intensity	assigned
55.0171	15	C3H3O+
57.0701	264	C4H9+
61.0285	71	C2H5O2+
68.9973	999	C3HO2+
87.0073	156	C3H3O3+
111.0075	475	C5H3O3+
129.0178	288	C5H5O4+
139.0021	297	C6H3O4+
