Mass spectrum: HOMOSERINE; LC-ESI-QTOF; MS2; CE: 40eV; R=5000; [M+H]+
Name: HOMOSERINE
Name: L-homoserine
Name: (2S)-2-amino-4-hydroxybutanoic acid
Formula: C4H9NO3
Exact mass: 119.0582
SMILES: N[C@@H](CCO)C(O)=O
InChI: InChI=1S/C4H9NO3/c5-3(1-2-6)4(7)8/h3,6H,1-2,5H2,(H,7,8)/t3-/m0/s1
Instrument: Agilent 6530 QTOF
Instrument type: LC-ESI-QTOF
Ms type: MS2
Ion mode: POSITIVE
Ionization: ESI
Fragmentation mode: CID
Collision energy: 40 eV
Resolution: 5000
Column name: N/A
Retention time: 0.216 min
Base peak: 121.0508
Precursor m/z: 120.0655
Precursor type: [M+H]+
Precursor intensity: 27284
m/z	relative intensity	assigned
44.0485	999	C2H6N+
44.9973	151	CHO2+
51.011	74	C3HN+
52.0146	71	H4O3+
55.0175	40	C3H3O+
56.0494	633	C3H6N+
76.0048	6	CH2NO3+
