Mass spectrum: METHIONINESULFOXIMINE; LC-ESI-QTOF; MS2; CE: 40eV; R=5000; [M+H]+
Name: METHIONINESULFOXIMINE
Name: Methionine sulfoximine
Name: 2-amino-4-(methylsulfonimidoyl)butanoic acid
Formula: C5H12N2O3S
Exact mass: 180.05686
SMILES: CS(=N)(=O)CCC(N)C(O)=O
InChI: InChI=1S/C5H12N2O3S/c1-11(7,10)3-2-4(6)5(8)9/h4,7H,2-3,6H2,1H3,(H,8,9)
Instrument: Agilent 6530 QTOF
Instrument type: LC-ESI-QTOF
Ms type: MS2
Ion mode: POSITIVE
Ionization: ESI
Fragmentation mode: CID
Collision energy: 40 eV
Resolution: 5000
Column name: N/A
Retention time: 0.222 min
Base peak: 121.0508
Precursor m/z: 181.0641
Precursor type: [M+H]+
Precursor intensity: 75826
m/z	relative intensity	assigned
44.0497	107	C2H6N+
46.0297	53	CH4NO+
47.9913	1	H2NS+
56.0498	999	C3H6N+
62.9903	147	CH3OS+
64.0045	14	C3N2+
64.0409	1	CH6NO2+
74.0238	112	C2H4NO2+
77.0967	1	C4H13O+
84.0444	27	C4H6NO+
91.0554	8	C4H11S+
