Mass spectrum: D-lactosyl-beta-1,1 N-octanoyl-D-erythro-sphingosine; LC-ESI-QTOF; MS2; CE: 10eV; R=7000; [M-H]-
Name: D-lactosyl-beta-1,1 N-octanoyl-D-erythro-sphingosine
Name: C8 Lactosyl(beta) Ceramide (d18:1/8:0), D-lactosyl-beta-1,1` N-octanoyl-D-erythro-sphingosine, powder
Name: N-[(E,2S,3R)-1-[(2R,5S,6R)-3,4-dihydroxy-6-(hydroxymethyl)-5-[(2S,5R,6R)-3,4,5-trihydroxy-6-(hydroxymethyl)oxan-2-yl]oxyoxan-2-yl]oxy-3-hydroxyoctadec-4-en-2-yl]octanamide
Formula: C38H71NO13
Exact mass: 749.4925
SMILES: CCCCCCCCCCCCC/C=C/[C@H]([C@H](CO[C@H]1C(C([C@@H]([C@H](O1)CO)O[C@H]2C(C([C@H]([C@H](O2)CO)O)O)O)O)O)NC(=O)CCCCCCC)O
InChI: InChI=1S/C38H71NO13/c1-3-5-7-9-10-11-12-13-14-15-16-18-19-21-27(42)26(39-30(43)22-20-17-8-6-4-2)25-49-37-35(48)33(46)36(29(24-41)51-37)52-38-34(47)32(45)31(44)28(23-40)50-38/h19,21,26-29,31-38,40-42,44-48H,3-18,20,22-25H2,1-2H3,(H,39,43)/b21-19+/t26-,27+,28+,29+,31-,32?,33?,34?,35?,36+,37+,38-/m0/s1
Instrument: Agilent 6560 QTOF
Instrument type: LC-ESI-QTOF
Ms type: MS2
Ion mode: NEGATIVE
Ionization: ESI
Fragmentation mode: CID
Collision energy: 10 eV
Resolution: 7000
Column name: N/A
Retention time: 0.164 min
Base peak: 748.4868
Precursor m/z: 748.4853
Precursor type: [M-H]-
Precursor intensity: 282190
m/z	relative intensity	assigned
71.0144	5	C3H3O2-
89.0246	29	C3H5O3-
97.0298	10	C5H5O2-
101.0253	10	C4H5O3-
113.0231	18	C5H5O3-
131.0357	2	C5H7O4-
143.0333	10	C6H7O4-
143.1044	5	H17NO7-
144.2214	3	C3H30NO4-
157.1213	1	C9H17O2-
161.0415	3	C13H5-
162.0473	2	C13H6-
179.0492	2	C13H7O-
179.1052	1	C11H15O2-
221.0634	6	C15H9O2-
235.0822	2	C9H15O7-
248.9694	7	C10HO8-
249.463	1	C5H63NO7-
275.1058	3	C4H21NO12-
287.9749	1	C9H4O11-
302.2702	1	C17H36NO3-
324.0982	2	C19H16O5-
350.3495	7	C16H48NO6-
402.4647	1	C23H62O4-
421.9647	1	C23H2O9-
424.3779	4	C23H52O6-
424.4998	1	C15H70NO10-
425.3781	1	C15H55NO11-
441.4694	1	C29H61O2-
469.38	1	C17H57O13-
471.936	9	C22O13-
476.1804	2	C35H24O2-
531.4524	3	C30H61NO6-
568.4213	23	C32H58NO7-
586.4344	28	C32H60NO8-
587.4412	1	C32H61NO8-
589.3832	1	C30H55NO10-
591.4551	1	C28H65NO11-
608.506	1	C37H68O6-
672.3614	1	C33H54NO13-
674.1008	4	C37H22O13-
743.4546	2	C38H65NO13-
744.4415	1	C38H66NO13-
748.4861	999	C38H70NO13-
