Mass spectrum: Butyryl trihexyl citrate; LC-ESI-QTOF; MS2; CE: 15eV; R=7000; [M+H]+
Name: Butyryl trihexyl citrate
Name: trihexyl 2-butanoyloxypropane-1,2,3-tricarboxylate
Formula: C28H50O8
Exact mass: 514.3506
SMILES: CCCCCCOC(=O)CC(CC(=O)OCCCCCC)(C(=O)OCCCCCC)OC(=O)CCC
InChI: InChI=1S/C28H50O8/c1-5-9-12-15-19-33-25(30)22-28(36-24(29)18-8-4,27(32)35-21-17-14-11-7-3)23-26(31)34-20-16-13-10-6-2/h5-23H2,1-4H3
Instrument: Agilent 6560 QTOF
Instrument type: LC-ESI-QTOF
Ms type: MS2
Ion mode: POSITIVE
Ionization: ESI
Fragmentation mode: CID
Collision energy: 15 eV
Resolution: 7000
Retention time: 0.109 min
Base peak: 537.3394
Precursor m/z: 515.3578
Precursor type: [M+H]+
Precursor intensity: 111707.11
m/z	relative intensity	assigned
57.0704	79	C4H9+
61.0289	10	C2H5O2+
68.9968	33	C3HO2+
71.0493	636	C4H7O+
83.0843	8	C6H11+
85.1015	225	C6H13+
89.0592	191	C4H9O2+
111.0076	104	C5H3O3+
129.0181	999	C5H5O4+
139.0021	486	C6H3O4+
147.0296	14	C5H7O5+
157.0119	205	C6H5O5+
158.0147	13	C13H2+
175.0215	10	C6H7O6+
213.1113	694	C11H17O4+
214.1152	34	C11H18O4+
231.1222	13	C11H19O5+
241.1061	26	C12H17O5+
245.0648	122	C10H13O7+
315.2161	170	C17H31O5+
316.2186	15	C24H28+
329.1584	28	C16H25O7+
