Mass spectrum: 1-octadecenoyl-rac-glycerol; LC-ESI-QTOF; MS2; CE: 40eV; R=7000; [M+HCOOH-H]-
Name: 1-octadecenoyl-rac-glycerol
Name: Glyceryl monooleate
Name: 2,3-dihydroxypropyl (Z)-octadec-9-enoate
Formula: C21H40O4
Exact mass: 356.2927
SMILES: CCCCCCCC/C=C\CCCCCCCC(=O)OCC(CO)O
InChI: InChI=1S/C21H40O4/c1-2-3-4-5-6-7-8-9-10-11-12-13-14-15-16-17-21(24)25-19-20(23)18-22/h9-10,20,22-23H,2-8,11-19H2,1H3/b10-9-
Instrument: Agilent 6560 QTOF
Instrument type: LC-ESI-QTOF
Ms type: MS2
Ion mode: NEGATIVE
Ionization: ESI
Fragmentation mode: CID
Collision energy: 40 eV
Resolution: 7000
Column name: N/A
Retention time: 0.145 min
Base peak: 980.0164
Precursor m/z: 401.2909
Precursor type: [M+HCOOH-H]-
Precursor intensity: 20421
m/z	relative intensity	assigned
85.016	7	H5O5-
117.0339	69	C8H5O-
154.0479	67	C4H10O6-
160.0328	52	C13H4-
160.0708	7	C7H12O4-
164.0817	41	C10H12O2-
164.118	36	C11H16O-
179.055	27	C6H11O6-
194.0828	999	C7H14O6-
195.0824	122	C14H11O-
227.1401	22	C16H19O-
