Mass spectrum: 1-octadecanoyl-rac-glycerol; LC-ESI-QTOF; MS2; CE: 40eV; R=7000; [M+CH3COO]-
Name: 1-octadecanoyl-rac-glycerol
Name: Glyceryl monostearate
Name: 2,3-dihydroxypropyl octadecanoate
Formula: C21H42O4
Exact mass: 358.3083
SMILES: CCCCCCCCCCCCCCCCCC(=O)OCC(CO)O
InChI: InChI=1S/C21H42O4/c1-2-3-4-5-6-7-8-9-10-11-12-13-14-15-16-17-21(24)25-19-20(23)18-22/h20,22-23H,2-19H2,1H3
Instrument: Agilent 6560 QTOF
Instrument type: LC-ESI-QTOF
Ms type: MS2
Ion mode: NEGATIVE
Ionization: ESI
Fragmentation mode: CID
Collision energy: 40 eV
Resolution: 7000
Column name: N/A
Retention time: 0.168 min
Base peak: 980.0164
Precursor m/z: 417.3222
Precursor type: [M+CH3COO]-
Precursor intensity: 12603
m/z	relative intensity	assigned
106.0645	547	C4H10O3-
195.0806	999	C14H11O-
247.1942	90	C13H27O4-
255.2125	216	C19H27-
289.0573	484	C18H9O4-
290.0607	331	C18H10O4-
