Mass spectrum: 1-(9Z-octadecenoyl)-sn-glycero-3-phosphoserine; LC-ESI-QTOF; MS2; CE: 20eV; R=7000; [M+H]+
Name: 1-(9Z-octadecenoyl)-sn-glycero-3-phosphoserine
Name: (2S)-2-amino-3-[hydroxy-[(2R)-2-hydroxy-3-[(Z)-octadec-9-enoyl]oxypropoxy]phosphoryl]oxypropanoic acid
Formula: C24H46NO9P
Exact mass: 523.2910
SMILES: [H][C@@](O)(COC(=O)CCCCCCC\C=C/CCCCCCCC)COP(O)(=O)OC[C@]([H])(N)C(O)=O
InChI: InChI=1S/C24H46NO9P/c1-2-3-4-5-6-7-8-9-10-11-12-13-14-15-16-17-23(27)32-18-21(26)19-33-35(30,31)34-20-22(25)24(28)29/h9-10,21-22,26H,2-8,11-20,25H2,1H3,(H,28,29)(H,30,31)/b10-9-/t21-,22+/m1/s1
Instrument: Agilent 6560 QTOF
Instrument type: LC-ESI-QTOF
Ms type: MS2
Ion mode: POSITIVE
Ionization: ESI
Fragmentation mode: CID
Collision energy: 20 eV
Resolution: 7000
Column name: Direct injection
Retention time: 0.239 min
Base peak: 338.3431
Precursor m/z: 524.2983
Precursor type: [M+H]+
Precursor intensity: 24230
m/z	relative intensity	assigned
81.0707	44	C2H12NP+
88.0391	196	C3H6NO2+
91.0521	77	H12O3P+
93.0705	22	C3H12NP+
97.0631	51	C6H9O+
98.9838	108	H4O4P+
106.0492	131	C3H8NO3+
109.0991	39	CH18O3P+
121.0996	37	C2H18O3P+
155.0089	171	C3H8O5P+
173.0194	57	C3H10O6P+
181.1586	44	C12H21O+
186.0176	22	C10H4NO3+
242.0458	9	C13H8NO4+
253.2519	14	C17H33O+
262.9749	33	C11H4O6P+
265.25	37	C11H38O4P+
339.289	999	C21H39O3+
340.2923	233	C13H42NO8+
352.2817	75	C18H40O6+
353.2776	16	C17H39NO6+
403.9534	24	C23HO6P+
419.2633	47	C21H39O8+
492.3285	36	C24H46NO9+
