Mass spectrum: Rosmarinic acid; LC-ESI-QTOF; MS2; CE: 40eV; R=7000; [M-H]-
Name: Rosmarinic acid
Name: (2R)-3-(3,4-dihydroxyphenyl)-2-[(E)-3-(3,4-dihydroxyphenyl)prop-2-enoyl]oxypropanoic acid
Formula: C18H16O8
Exact mass: 360.0845
SMILES: OC(=O)[C@@H](CC1=CC(O)=C(O)C=C1)OC(=O)\C=C\C1=CC(O)=C(O)C=C1
InChI: InChI=1S/C18H16O8/c19-12-4-1-10(7-14(12)21)3-6-17(23)26-16(18(24)25)9-11-2-5-13(20)15(22)8-11/h1-8,16,19-22H,9H2,(H,24,25)/b6-3+/t16-/m1/s1
Instrument: Agilent 6560 QTOF
Instrument type: LC-ESI-QTOF
Ms type: MS2
Ion mode: NEGATIVE
Ionization: ESI
Fragmentation mode: CID
Collision energy: 40 eV
Resolution: 7000
Column name: N/A
Retention time: 0.190 min
Base peak: 255.2332
Precursor m/z: 359.0772
Precursor type: [M-H]-
Precursor intensity: 64007
m/z	relative intensity	assigned
72.9927	555	C2HO3-
89.0396	24	C7H5-
91.0599	4	H11O5-
109.0294	150	C6H5O2-
109.0523	22	C3H9O4-
109.07	11	H13O6-
111.0432	19	C6H7O2-
117.0325	10	C8H5O-
121.0284	9	C7H5O2-
123.0444	220	C7H7O2-
132.0186	128	C8H4O2-
133.0282	999	C8H5O2-
133.069	51	C2H13O6-
134.036	116	C8H6O2-
135.0455	612	C8H7O2-
151.0373	7	C8H7O3-
161.0237	516	C9H5O3-
175.0972	11	C8H15O4-
179.0515	44	C13H7O-
180.0239	10	C12H4O2-
180.0587	30	C13H8O-
181.0498	73	C9H9O4-
181.1008	11	C14H13-
196.0743	195	C10H12O4-
