Mass spectrum: 1-hexadecanoyl-2--(5Z,8Z,11Z,14Z-eicosatetraenoyl)-sn-glycero-3-phosphocholine; LC-ESI-QTOF; MS2; CE: 40eV; R=7000; [M+Na]+
Name: 1-hexadecanoyl-2--(5Z,8Z,11Z,14Z-eicosatetraenoyl)-sn-glycero-3-phosphocholine
Name: PC(16:0/20:4(5Z,8Z,11Z,14Z))
Name: [(2R)-3-hexadecanoyloxy-2-[(5Z,8Z,11Z,14Z)-icosa-5,8,11,14-tetraenoyl]oxypropyl] 2-(trimethylazaniumyl)ethyl phosphate
Formula: C44H80NO8P
Exact mass: 781.5622
SMILES: CCCCCCCCCCCCCCCC(=O)OC[C@H](COP(=O)([O-])OCC[N+](C)(C)C)OC(=O)CCC/C=C\C/C=C\C/C=C\C/C=C\CCCCC
InChI: InChI=1S/C44H80NO8P/c1-6-8-10-12-14-16-18-20-21-22-23-25-27-29-31-33-35-37-44(47)53-42(41-52-54(48,49)51-39-38-45(3,4)5)40-50-43(46)36-34-32-30-28-26-24-19-17-15-13-11-9-7-2/h14,16,20-21,23,25,29,31,42H,6-13,15,17-19,22,24,26-28,30,32-41H2,1-5H3/b16-14-,21-20-,25-23-,31-29-/t42-/m1/s1
Instrument: Agilent 6560 QTOF
Instrument type: LC-ESI-QTOF
Ms type: MS2
Ion mode: POSITIVE
Ionization: ESI
Fragmentation mode: CID
Collision energy: 40 eV
Resolution: 7000
Column name: Direct injection
Retention time: 0.242 min
Base peak: 782.5728
Precursor m/z: 804.5514
Precursor type: [M+Na]+
Precursor intensity: 918321
m/z	relative intensity	assigned
71.085	51	C5H11+
79.0547	38	C2H10NP+
81.0699	60	C6H9+
83.0854	35	C6H11+
86.0967	467	C5H12N+
87.1021	6	C3H14NNa+
91.0542	38	C7H7+
93.0697	30	C7H9+
95.085	61	C7H11+
97.0645	1	C6H9O+
97.1003	12	C7H13+
105.0693	25	C8H9+
106.0722	2	H12NO5+
107.0502	2	C3H10NOP+
107.0849	18	C8H11+
109.1018	28	C4H16NP+
111.1176	8	C4H18NP+
117.0702	8	C5H12NP+
118.9974	1	C3H3O5+
119.0857	20	C9H11+
119.3822	1	C3H52P+
120.0903	1	C7H13Na+
121.0655	1	C4H12NOP+
121.1009	10	C9H13+
122.1024	1	CH16NO5+
123.1163	19	C9H15+
124.9989	9	C7H2NaO+
127.1085	4	C6H16NaO+
129.0497	1	C4H10NaO3+
129.067	1	C8H10Na+
131.0367	2	C8H5NO+
131.0844	16	C4H15NNaP+
133.0506	2	CH12NO4P+
133.1014	23	C6H16NP+
135.1168	8	C10H15+
137.096	3	C9H13O+
137.1336	6	C6H20NP+
139.1111	2	C9H15O+
139.1461	3	C4H23NNaP+
143.0857	2	C7H14NP+
145.1007	1	C11H13+
146.9819	999	C2H5NaO4P+
147.9849	7	CH3NNaO6+
148.9844	1	C5H2NaO4+
149.1287	2	C2H23NaO3P+
149.3201	1	C9H41+
151.1479	2	C11H19+
156.0933	1	C12H12+
157.0997	7	C6H17NNaP+
158.1044	1	C3H20NaO3P+
159.1172	10	C8H18NP+
161.095	2	C5H17NNaOP+
161.1332	6	C8H20NP+
163.0145	4	C10H4NaO+
163.0621	6	C9H9NO2+
166.0628	1	C5H13NO3P+
171.1157	9	C7H19NNaP+
175.148	2	C13H19+
176.9924	4	C3H7NaO5P+
179.0039	1	C2H6NNaO7+
181.0246	8	C3H11NaO5P+
184.0731	6	C9H12O4+
187.0042	2	C13HNO+
187.1494	3	C10H22NP+
189.1289	1	C9H20NOP+
191.0395	2	C4H10NNaO6+
191.1808	2	C10H26NP+
197.129	1	C13H18Na+
198.1186	1	C3H20NO8+
199.1472	1	C15H19+
201.1629	1	C15H21+
203.1458	1	C5H24NaO6+
203.1803	26	C11H26NP+
206.0543	3	C9H11NaO4+
207.0331	6	C12H9NaP+
207.069	19	C14H9NO+
215.1772	1	C10H27NNaP+
219.1731	1	C9H27NNaOP+
221.2227	2	C7H35NaO3P+
223.0276	1	C12H9NaOP+
227.1376	1	C7H25NaO4P+
235.0377	1	C9H11NNaO3P+
237.0794	238	C15H11NO2+
238.0822	20	C6H18NNaO5P+
239.2387	14	C12H34NOP+
241.1937	4	C12H29NNaP+
257.2481	1	C12H36NO2P+
259.2074	1	C14H30NOP+
267.0015	4	C10H5NO8+
269.2247	2	C14H33NNaP+
270.228	8	C12H32NO5+
273.1805	1	C9H31NaO5P+
279.2312	1	C18H31O2+
281.051	6	C10H12NNaO7+
287.2423	2	C13H35O6+
311.0997	11	C14H17NO7+
311.1471	1	C10H27NNaO6P+
311.2551	1	C17H36NaO3+
312.0971	6	C12H20NNaO5P+
313.2745	177	C15H40NO3P+
314.2765	8	C10H44NaO6P+
315.4603	1	C7H67NNaO6P+
325.2534	1	C19H36NOP+
331.2803	1	C10H45NaO7P+
341.0239	1	C20H8NO3P+
342.0154	3	C20H6O6+
343.2611	1	C17H39NNaO2P+
355.0681	3	C18H13NO7+
356.0715	1	C25H10NO2+
367.2831	14	C16H43NNaO4P+
415.2243	6	C26H32NaO3+
419.2577	3	C28H35O3+
431.0297	1	C21H13NaO7P+
441.2381	39	C21H39NaO6P+
442.2476	1	C28H35NaO3+
463.1733	1	C21H31NNaO7P+
463.2229	1	C23H37NaO6P+
464.229	2	C23H38NaO6P+
477.2446	1	C36H31N+
478.3326	12	C30H48NaOP+
489.2376	48	C25H39NaO6P+
490.2392	4	C32H36NaOP+
490.3992	2	C29H55NaO4+
500.3089	1	C33H43NOP+
526.3286	10	C32H46O6+
527.3287	3	C33H47NNaOP+
548.3205	1	C38H45OP+
565.4581	1	C36H62NaO3+
599.5037	91	C40H66NNaO+
600.5085	11	C37H69NaO4+
621.4864	758	C35H69NNaO4P+
622.4901	125	C32H72NaO7P+
623.5313	1	C42H72OP+
696.9885	1	C44H4NNaO8+
745.4779	46	C41H71NaO8P+
746.4787	6	C42H69NO8P+
804.5526	10	C44H80NNaO8P+
