Mass spectrum: 1-tridecanoyl-sn-glycero-3-phosphoethanolamine; LC-ESI-QTOF; MS2; CE: 40eV; R=7000; [M+Na]+
Name: 1-tridecanoyl-sn-glycero-3-phosphoethanolamine
Name: [(2R)-3-[2-aminoethoxy(hydroxy)phosphoryl]oxy-2-hydroxypropyl] tridecanoate
Formula: C18H38NO7P
Exact mass: 411.2386
SMILES: [C@](COP(=O)(O)OCCN)([H])(O)COC(CCCCCCCCCCCC)=O
InChI: InChI=1S/C18H38NO7P/c1-2-3-4-5-6-7-8-9-10-11-12-18(21)24-15-17(20)16-26-27(22,23)25-14-13-19/h17,20H,2-16,19H2,1H3,(H,22,23)/t17-/m1/s1
Instrument: Agilent 6560 QTOF
Instrument type: LC-ESI-QTOF
Ms type: MS2
Ion mode: POSITIVE
Ionization: ESI
Fragmentation mode: CID
Collision energy: 40 eV
Resolution: 7000
Column name: Direct injection
Retention time: 0.211 min
Base peak: 412.2476
Precursor m/z: 434.2278
Precursor type: [M+Na]+
Precursor intensity: 6264
m/z	relative intensity	assigned
71.0841	999	C3H12Na+
82.0661	477	C5H8N+
89.06	346	H12NO2P+
95.0867	107	C3H14NP+
109.0969	141	C6H14Na+
120.9645	397	H3NaO4P+
195	319	C12H4OP+
266.0209	605	C15H6O5+
271.2298	374	C12H34NO3P+
391.18	175	C17H30NO7P+
