Mass spectrum: Corticosterone; LC-ESI-QTOF; MS2; CE: 20eV; R=7000; [M+Cl]-
Name: Corticosterone
Name: (8S,9S,10R,11S,13S,14S,17S)-11-hydroxy-17-(2-hydroxyacetyl)-10,13-dimethyl-1,2,6,7,8,9,11,12,14,15,16,17-dodecahydrocyclopenta[a]phenanthren-3-one
Formula: C21H30O4
Exact mass: 346.2144
SMILES: C[C@]12CCC(=O)C=C1CC[C@@H]3[C@@H]2[C@H](C[C@]4([C@H]3CC[C@@H]4C(=O)CO)C)O
InChI: InChI=1S/C21H30O4/c1-20-8-7-13(23)9-12(20)3-4-14-15-5-6-16(18(25)11-22)21(15,2)10-17(24)19(14)20/h9,14-17,19,22,24H,3-8,10-11H2,1-2H3/t14-,15-,16+,17-,19+,20-,21-/m0/s1
Instrument: Agilent 6560 QTOF
Instrument type: LC-ESI-QTOF
Ms type: MS2
Ion mode: NEGATIVE
Ionization: ESI
Fragmentation mode: CID
Collision energy: 20 eV
Resolution: 7000
Column name: N/A
Retention time: 0.214 min
Base peak: 405.2281
Precursor m/z: 381.1838
Precursor type: [M+Cl]-
Precursor intensity: 8298
m/z	relative intensity	assigned
84.1353	221	H20O4-
115.0998	225	C3H15O4-
173.0125	136	C11H6Cl-
216.9985	999	C14HO3-
217.0862	130	C13H13O3-
218.0048	205	C14H2O3-
288.0933	216	C17H17ClO2-
299.0409	176	C19H7O4-
