Mass spectrum: Tris(2-butoxyethyl) phosphate; LC-ESI-QTOF; MS2; CE: 5eV; R=7000; [M+H]+
Name: Tris(2-butoxyethyl) phosphate
Formula: C18H39O7P
Exact mass: 398.2433
SMILES: CCCCOCCOP(=O)(OCCOCCCC)OCCOCCCC
InChI: InChI=1S/C18H39O7P/c1-4-7-10-20-13-16-23-26(19,24-17-14-21-11-8-5-2)25-18-15-22-12-9-6-3/h4-18H2,1-3H3
Instrument: Agilent 6560 QTOF
Instrument type: LC-ESI-QTOF
Ms type: MS2
Ion mode: POSITIVE
Ionization: ESI
Fragmentation mode: CID
Collision energy: 5 eV
Resolution: 7000
Retention time: 0.114 min
Base peak: 399.2511
Precursor m/z: 399.2506
Precursor type: [M+H]+
Precursor intensity: 46140.22
m/z	relative intensity	assigned
55.0549	37	C4H7+
57.0706	27	C4H9+
83.0871	44	C6H11+
98.9844	26	H4O4P+
101.0959	45	C6H13O+
143.0101	23	C2H8O5P+
199.0728	362	C6H16O5P+
200.0764	20	C13H13P+
299.1619	509	C12H28O6P+
300.1631	56	C15H24O6+
399.2501	999	C18H40O7P+
