Mass spectrum: THYROTROPIN; LC-ESI-QTOF; MS2; CE: 40eV; R=5000; [M+H]+
Name: THYROTROPIN
Name: Thyrotropin releasing hormone
Name: N-[1-(2-carbamoylpyrrolidin-1-yl)-3-(1H-imidazol-5-yl)-1-oxopropan-2-yl]-5-oxopyrrolidine-2-carboxamide
Formula: C16H22N6O4
Exact mass: 362.1703
SMILES: C1CC(N(C1)C(=O)C(CC2=CN=CN2)NC(=O)C3CCC(=O)N3)C(=O)N
InChI: InChI=1S/C16H22N6O4/c17-14(24)12-2-1-5-22(12)16(26)11(6-9-7-18-8-19-9)21-15(25)10-3-4-13(23)20-10/h7-8,10-12H,1-6H2,(H2,17,24)(H,18,19)(H,20,23)(H,21,25)
Instrument: Agilent 6530 QTOF
Instrument type: LC-ESI-QTOF
Ms type: MS2
Ion mode: POSITIVE
Ionization: ESI
Fragmentation mode: CID
Collision energy: 40 eV
Resolution: 5000
Column name: N/A
Retention time: 0.184 min
Base peak: 363.1779
Precursor m/z: 363.1775
Precursor type: [M+H]+
Precursor intensity: 5791381
m/z	relative intensity	assigned
43.0546	3	C3H7+
54.0347	2	C3H4N+
66.0355	3	C4H4N+
68.0504	5	C4H6N+
69.0461	21	C3H5N2+
70.0667	467	C4H8N+
80.0505	5	C5H6N+
81.0462	52	C4H5N2+
82.0541	8	C4H6N2+
83.0618	93	C4H7N2+
84.0457	237	C4H6NO+
86.0618	11	C4H8NO+
93.0459	75	C5H5N2+
95.0128	1	C5H3O2+
95.0615	32	C5H7N2+
104.0505	2	C7H6N+
107.0615	2	C6H7N2+
108.0495	5	H6N5O2+
109.0463	17	CH7N3O3+
110.0725	999	C7H10O+
112.0474	1	CH8N2O4+
114.0564	4	C5H8NO2+
115.0877	79	C5H11N2O+
119.0611	2	C7H7N2+
120.0565	12	C8H8O+
121.0637	4	C6H7N3+
122.0713	6	C6H8N3+
123.0556	2	C6H7N2O+
131.0607	5	C8H7N2+
132.0506	1	C2H6N5O2+
133.0725	2	C3H9N4O2+
134.0708	3	C7H8N3+
135.0603	1	CH7N6O2+
136.05	1	C6H6N3O+
138.0666	3	C6H8N3O+
139.0495	1	C4H5N5O+
147.0565	7	C8H7N2O+
148.0883	103	C10H12O+
158.0718	3	C9H8N3+
159.0557	5	C9H7N2O+
160.0775	2	C10H10NO+
161.0791	1	C5H11N3O3+
166.0628	12	C9H10O3+
176.0838	395	C11H12O2+
177.0866	2	C6H13N2O4+
186.069	2	C12H10O2+
187.0529	2	C15H7+
188.0824	2	C10H10N3O+
189.1103	1	C7H15N3O3+
193.1096	1	C11H15NO2+
203.096	2	C12H13NO2+
204.0788	20	C12H12O3+
217.1079	5	C11H13N4O+
221.1056	89	C12H15NO3+
234.1374	2	C13H18N2O2+
235.1223	1	C16H15N2+
249.0987	2	C11H13N4O3+
