Mass spectrum: 2-(Methylthio)benzothiazole; LC-ESI-QTOF; MS2; CE: 45eV; R=7000; [M+H]+
Name: 2-(Methylthio)benzothiazole
Name: 2-methylsulfanyl-1,3-benzothiazole
Formula: C8H7NS2
Exact mass: 181.002
SMILES: CSC1=NC2=CC=CC=C2S1
InChI: InChI=1S/C8H7NS2/c1-10-8-9-6-4-2-3-5-7(6)11-8/h2-5H,1H3
Instrument: Agilent 6560 QTOF
Instrument type: LC-ESI-QTOF
Ms type: MS2
Ion mode: POSITIVE
Ionization: ESI
Fragmentation mode: CID
Collision energy: 45 eV
Resolution: 7000
Column name: ZORBAX Extend-C18 3.5um, 2.1x50mm, Agilent Technologies
Retention time: 5.564 min
Base peak: 182.0093
Precursor m/z: 182.0093
Precursor type: [M+H]+
Precursor intensity: 21425.79
m/z	relative intensity	assigned
63.0234	118	C5H3+
63.9435	178	S2+
64.0312	187	C5H4+
65.0386	999	C5H5+
68.9799	257	C3HS+
69.988	183	C3H2S+
76.0308	152	C6H4+
77.0395	196	C6H5+
80.9805	80	C4HS+
81.9869	127	C4H2S+
84.0041	121	C4H4S+
91.0413	794	C6H5N+
94.9951	117	C5H3S+
96.0021	535	C5H4S+
106.9961	82	C6H3S+
108.0035	364	C6H4S+
109.0102	951	C6H5S+
110.0089	72	C2H8NS2+
123.0129	477	C6H5NS+
135.0139	463	C7H5NS+
140.9705	84	C5H3NS2+
166.9847	215	C7H5NS2+
