Mass spectrum: N-ACETYLGLUCOSAMINE; LC-ESI-QTOF; MS2; CE: 20eV; R=5000; [M+H]+
Name: N-ACETYLGLUCOSAMINE
Name: N-Acetyl-D-Glucosamine
Name: N-[(3R,4R,5S,6R)-2,4,5-trihydroxy-6-(hydroxymethyl)oxan-3-yl]acetamide
Formula: C8H15NO6
Exact mass: 221.0899
SMILES: CC(=O)N[C@H]1C(O)O[C@H](CO)[C@@H](O)[C@@H]1O
InChI: InChI=1S/C8H15NO6/c1-3(11)9-5-7(13)6(12)4(2-10)15-8(5)14/h4-8,10,12-14H,2H2,1H3,(H,9,11)/t4-,5-,6-,7-,8?/m1/s1
Instrument: Agilent 6530 QTOF
Instrument type: LC-ESI-QTOF
Ms type: MS2
Ion mode: POSITIVE
Ionization: ESI
Fragmentation mode: CID
Collision energy: 20 eV
Resolution: 5000
Column name: N/A
Retention time: 0.221 min
Base peak: 244.0791
Precursor m/z: 222.0972
Precursor type: [M+H]+
Precursor intensity: 445385
m/z	relative intensity	assigned
41.0388	39	C3H5+
42.0342	35	C2H4N+
43.0176	75	C2H3O+
55.0541	53	C4H7+
56.049	61	C3H6N+
58.0285	9	C2H4NO+
60.044	52	C2H6NO+
62.119	1	H16NO2+
65.0374	6	C5H5+
68.0496	44	C4H6N+
69.0338	136	C4H5O+
70.0625	45	CH10O3+
72.042	21	H8O4+
78.0326	14	C5H4N+
80.0469	43	C2H8O3+
81.0328	120	C5H5O+
82.0617	58	C2H10O3+
83.0343	38	CH7O4+
84.0431	435	C4H6NO+
85.0637	9	C5H9O+
86.0566	20	CH10O4+
96.0433	356	C5H6NO+
97.0264	146	C5H5O2+
98.0579	197	C2H10O4+
99.042	58	C5H7O2+
100.0392	25	C4H6NO2+
104.0641	5	C8H8+
108.0441	35	C6H6NO+
109.0262	77	C6H5O2+
109.0934	3	H15NO5+
110.0611	19	C6H8NO+
114.0528	29	C2H10O5+
116.0688	8	C2H12O5+
118.0847	1	C2H14O5+
124.0407	5	C6H6NO2+
126.0516	297	C3H10O5+
127.0371	31	C6H7O3+
135.0419	6	C8H7O2+
138.0522	999	C4H10O5+
139.0651	6	C7H9NO2+
140.0012	1	C5H2NO4+
140.084	2	C8H12O2+
144.063	283	C3H12O6+
168.0641	27	C5H12O6+
186.0716	5	C8H12NO4+
190.1029	1	C8H16NO4+
207.9874	1	C8H2NO6+
