Mass spectrum: 5,6-Dimethylbenzotriazole; LC-ESI-QTOF; MS2; CE: 20eV; R=7000; [M+H]+
Name: 5,6-Dimethylbenzotriazole
Name: 5,6-Dimethyl-1H-benzotriazole
Name: 5,6-dimethyl-2H-benzotriazole
Formula: C8H9N3
Exact mass: 147.0796
SMILES: CC1=CC2=NNN=C2C=C1C
InChI: InChI=1S/C8H9N3/c1-5-3-7-8(4-6(5)2)10-11-9-7/h3-4H,1-2H3,(H,9,10,11)
Instrument: Agilent 6560 QTOF
Instrument type: LC-ESI-QTOF
Ms type: MS2
Ion mode: POSITIVE
Ionization: ESI
Fragmentation mode: CID
Collision energy: 20 eV
Resolution: 7000
Retention time: 0.114 min
Base peak: 148.0869
Precursor m/z: 148.0869
Precursor type: [M+H]+
Precursor intensity: 143544.01
m/z	relative intensity	assigned
51.023	56	C4H3+
52.0173	6	C3H2N+
53.0385	21	C4H5+
54.0341	37	C3H4N+
56.0507	12	C3H6N+
65.0385	71	C5H5+
67.0547	7	C5H7+
70.0651	6	C4H8N+
77.0388	999	C6H5+
78.0474	25	C6H6+
79.0405	6	C5H5N+
79.0541	49	C6H7+
80.0495	61	C5H6N+
81.0572	13	C5H7N+
91.0545	412	C7H7+
92.0499	49	C6H6N+
93.057	61	C6H7N+
93.0697	360	C7H9+
94.0652	32	C6H8N+
101.0394	5	C8H5+
102.045	11	C8H6+
103.0544	135	C8H7+
104.0497	63	C7H6N+
105.0574	54	C7H7N+
117.057	7	C8H7N+
118.0655	38	C8H8N+
119.0727	38	C8H9N+
120.0807	96	C8H10N+
132.0542	5	C7H6N3+
148.0868	574	C8H10N3+
