Mass spectrum: Deoxycholic acid; LC-ESI-QTOF; MS2; CE: 10eV; R=7000; [M-H]-
Name: Deoxycholic acid
Name: (4R)-4-[(3R,5R,8R,9S,10S,12S,13R,14S,17R)-3,12-dihydroxy-10,13-dimethyl-2,3,4,5,6,7,8,9,11,12,14,15,16,17-tetradecahydro-1H-cyclopenta[a]phenanthren-17-yl]pentanoic acid
Formula: C24H40O4
Exact mass: 392.2927
SMILES: C[C@H](CCC(=O)O)[C@H]1CC[C@@H]2[C@@]1([C@H](C[C@H]3[C@H]2CC[C@H]4[C@@]3(CC[C@H](C4)O)C)O)C
InChI: InChI=1S/C24H40O4/c1-14(4-9-22(27)28)18-7-8-19-17-6-5-15-12-16(25)10-11-23(15,2)20(17)13-21(26)24(18,19)3/h14-21,25-26H,4-13H2,1-3H3,(H,27,28)/t14-,15-,16-,17+,18-,19+,20+,21+,23+,24-/m1/s1
Instrument: Agilent 6560 QTOF
Instrument type: LC-ESI-QTOF
Ms type: MS2
Ion mode: NEGATIVE
Ionization: ESI
Fragmentation mode: CID
Collision energy: 10 eV
Resolution: 7000
Column name: N/A
Retention time: 0.164 min
Base peak: 357.1896
Precursor m/z: 391.2854
Precursor type: [M-H]-
Precursor intensity: 546327
m/z	relative intensity	assigned
327.2647	2	C23H35O-
328.2635	1	C19H36O4-
329.2818	2	C23H37O-
343.2619	4	C23H35O2-
345.2796	11	C23H37O2-
346.2894	1	C23H38O2-
347.2973	6	C23H39O2-
355.2679	5	C24H35O2-
356.271	1	C24H36O2-
391.2861	999	C24H39O4-
