Mass spectrum: Prostaglandin A1; LC-ESI-QTOF; MS2; CE: 20eV; R=7000; [M-H2O+H]+
Name: Prostaglandin A1
Name: 7-[(1R,2S)-2-[(E,3S)-3-hydroxyoct-1-enyl]-5-oxocyclopent-3-en-1-yl]heptanoic acid
Formula: C20H32O4
Exact mass: 336.2301
SMILES: CCCCC[C@@H](/C=C/[C@H]1C=CC(=O)[C@@H]1CCCCCCC(=O)O)O
InChI: InChI=1S/C20H32O4/c1-2-3-6-9-17(21)14-12-16-13-15-19(22)18(16)10-7-4-5-8-11-20(23)24/h12-18,21H,2-11H2,1H3,(H,23,24)/b14-12+/t16-,17-,18+/m0/s1
Instrument: Agilent 6560 QTOF
Instrument type: LC-ESI-QTOF
Ms type: MS2
Ion mode: POSITIVE
Ionization: ESI
Fragmentation mode: CID
Collision energy: 20 eV
Resolution: 7000
Column name: Direct injection
Retention time: 0.184 min
Base peak: 301.2171
Precursor m/z: 319.2268
Precursor type: [M-H2O+H]+
Precursor intensity: 97335
m/z	relative intensity	assigned
71.0499	113	C4H7O+
71.0851	31	C5H11+
77.037	31	C6H5+
79.0555	126	C6H7+
81.0701	382	C6H9+
83.0499	294	C5H7O+
83.0863	221	C6H11+
91.0537	918	C7H7+
93.0704	444	C7H9+
94.041	63	C6H6O+
95.085	766	C7H11+
97.1008	123	C7H13+
103.0543	223	C8H7+
105.0701	852	C8H9+
107.0492	549	C7H7O+
107.0836	349	C8H11+
109.0641	166	C7H9O+
109.1007	61	C8H13+
115.0538	82	C9H7+
117.0702	432	C9H9+
119.0487	158	C8H7O+
119.0856	506	C9H11+
121.0658	328	C8H9O+
123.0776	67	C8H11O+
129.07	305	C10H9+
129.0918	41	C7H13O2+
131.0843	729	C10H11+
133.065	999	C9H9O+
133.101	376	C10H13+
134.1278	14	C7H18O2+
135.0794	163	C9H11O+
141.0702	139	C11H9+
143.0852	503	C11H11+
144.0918	96	C11H12+
145.0657	53	C10H9O+
145.1008	251	C11H13+
147.0788	193	C10H11O+
147.1174	271	C11H15+
149.063	48	C9H9O2+
149.097	100	C10H13O+
149.1299	100	C11H17+
155.0864	394	C12H11+
157.0623	48	C11H9O+
157.0992	161	C12H13+
158.11	171	C12H14+
159.081	165	C11H11O+
159.1169	177	C12H15+
161.0952	93	C11H13O+
161.1316	989	C12H17+
163.1128	131	C11H15O+
163.1444	56	C12H19+
167.1052	72	C10H15O2+
169.1007	168	C13H13+
171.1158	144	C13H15+
173.0951	266	C12H13O+
173.1309	181	C13H17+
175.1124	28	C12H15O+
175.1449	15	C13H19+
177.128	111	C12H17O+
181.1048	27	C14H13+
183.117	125	C14H15+
185.1332	240	C14H17+
187.11	176	C13H15O+
187.148	131	C14H19+
188.1525	69	C14H20+
189.1265	267	C13H17O+
189.1617	72	C14H21+
191.1419	302	C13H19O+
195.1175	138	C15H15+
199.1106	64	C14H15O+
200.1153	53	C14H16O+
203.1112	37	C13H15O2+
203.143	355	C14H19O+
209.1343	189	C16H17+
210.1399	51	C16H18+
211.148	47	C16H19+
213.1628	239	C16H21+
217.126	138	C14H17O2+
217.1544	64	C15H21O+
217.1919	45	C16H25+
227.1768	125	C17H23+
231.1743	35	C16H23O+
231.2086	67	C17H27+
241.1913	40	C18H25+
245.2224	272	C18H29+
247.2038	46	C17H27O+
249.1469	53	C15H21O3+
255.2119	86	C19H27+
257.1916	56	C18H25O+
259.2065	67	C18H27O+
265.1945	34	C20H25+
273.2199	407	C19H29O+
274.2243	104	C19H30O+
283.2015	195	C20H27O+
284.2115	158	C20H28O+
301.2152	356	C20H29O2+
