Mass spectrum: 5-Hydroxy-2-ethylhexyl diphenyl phosphate; LC-ESI-QTOF; MS2; CE: 35eV; R=7000; [M+H]+
Name: 5-Hydroxy-2-ethylhexyl diphenyl phosphate
Name: 2-Ethyl-5-hydroxyhexyl diphenyl phosphate
Name: (2-ethyl-5-hydroxyhexyl) diphenyl phosphate
Formula: C20H27O5P
Exact mass: 378.1596
SMILES: CCC(CCC(C)O)COP(=O)(Oc1ccccc1)Oc2ccccc2
InChI: InChI=1S/C20H27O5P/c1-3-18(15-14-17(2)21)16-23-26(22,24-19-10-6-4-7-11-19)25-20-12-8-5-9-13-20/h4-13,17-18,21H,3,14-16H2,1-2H3
Instrument: Agilent 6560 QTOF
Instrument type: LC-ESI-QTOF
Ms type: MS2
Ion mode: POSITIVE
Ionization: ESI
Fragmentation mode: CID
Collision energy: 35 eV
Resolution: 7000
Retention time: 0.149 min
Base peak: 401.1509
Precursor m/z: 379.1669
Precursor type: [M+H]+
Precursor intensity: 64009.89
m/z	relative intensity	assigned
51.0233	78	C4H3+
55.0546	113	C4H7+
67.0545	14	C5H7+
69.0699	448	C5H9+
77.0386	999	C6H5+
95.0495	200	C6H7O+
98.9839	25	H4O4P+
111.1155	23	CH20O3P+
151.0527	71	C5H12O3P+
152.062	358	C12H8+
153.0696	533	C12H9+
154.0727	35	C5H15O3P+
157.005	114	C6H6O3P+
175.0155	122	C6H8O4P+
215.0256	255	C12H8O2P+
216.0312	16	C12H9O2P+
233.0379	127	C19H5+
251.0472	688	C12H12O4P+
252.0501	55	C12H13O4P+
