Mass spectrum: 1-Dehydrotestosterone; LC-ESI-QTOF; MS2; CE: 20eV; R=7000; [M-H2O+H]+
Name: 1-Dehydrotestosterone
Name: Boldenone
Name: (8R,9S,10R,13S,14S,17S)-17-hydroxy-10,13-dimethyl-6,7,8,9,11,12,14,15,16,17-decahydrocyclopenta[a]phenanthren-3-one
Formula: C19H26O2
Exact mass: 286.1933
SMILES: C[C@]12CC[C@H]3[C@H]([C@@H]1CC[C@@H]2O)CCC4=CC(=O)C=C[C@]34C
InChI: InChI=1S/C19H26O2/c1-18-9-7-13(20)11-12(18)3-4-14-15-5-6-17(21)19(15,2)10-8-16(14)18/h7,9,11,14-17,21H,3-6,8,10H2,1-2H3/t14-,15-,16-,17-,18-,19-/m0/s1
Instrument: Agilent 6560 QTOF
Instrument type: LC-ESI-QTOF
Ms type: MS2
Ion mode: POSITIVE
Ionization: ESI
Fragmentation mode: CID
Collision energy: 20 eV
Resolution: 7000
Column name: Direct injection
Retention time: 0.184 min
Base peak: 287.201
Precursor m/z: 269.19
Precursor type: [M-H2O+H]+
Precursor intensity: 93832
m/z	relative intensity	assigned
77.0384	145	C6H5+
79.0539	135	C6H7+
81.0698	83	C6H9+
91.055	183	C7H7+
93.0698	178	C7H9+
95.0852	40	C7H11+
103.0519	5	C8H7+
105.069	67	C8H9+
107.0478	16	C7H7O+
107.0853	94	C8H11+
109.1007	50	C8H13+
117.0698	31	C9H9+
119.0844	58	C9H11+
121.0646	999	C8H9O+
123.117	12	C9H15+
127.052	24	C10H7+
128.0601	8	C10H8+
130.078	12	C10H10+
133.0634	30	C9H9O+
133.1014	25	C10H13+
135.0784	54	C9H11O+
135.1165	76	C10H15+
145.0656	9	C10H9O+
145.1018	40	C11H13+
146.0731	6	C10H10O+
147.08	44	C10H11O+
147.1136	51	C11H15+
149.1312	31	C11H17+
155.0859	35	C12H11+
158.074	10	C11H10O+
159.0804	46	C11H11O+
161.0964	23	C11H13O+
161.1323	20	C12H17+
173.0963	126	C12H13O+
174.1002	18	C12H14O+
187.1114	56	C13H15O+
211.1472	2	C16H19+
213.1249	17	C15H17O+
227.1461	24	C16H19O+
269.1869	10	C19H25O+
