Mass spectrum: ((propane-2,2-diylbis(4,1-phenylene))bis(oxy))bis(propane-3,1-diyl) bis(2-methylacrylate); LC-ESI-QTOF; MS2; CE: 40eV; R=7000; [M+NH4]+
Name: ((propane-2,2-diylbis(4,1-phenylene))bis(oxy))bis(propane-3,1-diyl) bis(2-methylacrylate)
Name: (1-Methylethylidene)bis(4,1-phenyleneoxy-3,1-propanediyl) bismethacrylate
Name: 3-[4-[2-[4-[3-(2-methylprop-2-enoyloxy)propoxy]phenyl]propan-2-yl]phenoxy]propyl 2-methylprop-2-enoate
Formula: C29H36O6
Exact mass: 480.2512
SMILES: CC(C1=CC=C(OCCCOC(C(C)=C)=O)C=C1)(C)C2=CC=C(OCCCOC(C(C)=C)=O)C=C2
InChI: InChI=1S/C29H36O6/c1-21(2)27(30)34-19-7-17-32-25-13-9-23(10-14-25)29(5,6)24-11-15-26(16-12-24)33-18-8-20-35-28(31)22(3)4/h9-16H,1,3,7-8,17-20H2,2,4-6H3
Instrument: Agilent 6560 QTOF
Instrument type: LC-ESI-QTOF
Ms type: MS2
Ion mode: POSITIVE
Ionization: ESI
Fragmentation mode: CID
Collision energy: 40 eV
Resolution: 7000
Column name: ZORBAX Extend-C18 3.5um, 2.1x50mm, Agilent Technologies
Retention time: 5.101 min
Base peak: 498.2938
Precursor m/z: 498.285
Precursor type: [M+NH4]+
Precursor intensity: 555391.93
m/z	relative intensity	assigned
55.055	1	C4H7+
57.0343	1	C3H5O+
59.0499	2	C3H7O+
69.0348	506	C4H5O+
71.0498	1	C4H7O+
81.0699	1	C6H9+
91.0538	1	C7H7+
99.0428	4	C5H7O2+
105.0701	1	C8H9+
107.0491	3	C7H7O+
109.0633	1	C7H9O+
119.0843	1	C9H11+
127.0754	999	C7H11O2+
133.0652	2	C9H9O+
135.0791	3	C9H11O+
147.0798	19	C10H11O+
148.0833	2	C2H14NO6+
175.1112	80	C12H15O+
176.1144	4	C4H18NO6+
187.1118	2	C13H15O+
233.1198	2	C17H15N+
