Mass spectrum: 1-tridecanoyl-sn-glycero-3-phosphoethanolamine; LC-ESI-QTOF; MS2; CE: 40eV; R=7000; [M+H]+
Name: 1-tridecanoyl-sn-glycero-3-phosphoethanolamine
Name: [(2R)-3-[2-aminoethoxy(hydroxy)phosphoryl]oxy-2-hydroxypropyl] tridecanoate
Formula: C18H38NO7P
Exact mass: 411.2386
SMILES: [C@](COP(=O)(O)OCCN)([H])(O)COC(CCCCCCCCCCCC)=O
InChI: InChI=1S/C18H38NO7P/c1-2-3-4-5-6-7-8-9-10-11-12-18(21)24-15-17(20)16-26-27(22,23)25-14-13-19/h17,20H,2-16,19H2,1H3,(H,22,23)/t17-/m1/s1
Instrument: Agilent 6560 QTOF
Instrument type: LC-ESI-QTOF
Ms type: MS2
Ion mode: POSITIVE
Ionization: ESI
Fragmentation mode: CID
Collision energy: 40 eV
Resolution: 7000
Column name: Direct injection
Retention time: 0.183 min
Base peak: 412.2473
Precursor m/z: 412.2459
Precursor type: [M+H]+
Precursor intensity: 14895
m/z	relative intensity	assigned
71.0862	999	CH14NP+
73.064	257	C4H9O+
81.0688	244	C6H9+
83.0603	91	C2H12OP+
85.1013	231	C6H13+
95.0851	923	C7H11+
97.0981	106	H18O3P+
98.983	659	H4O4P+
103.0738	309	C5H11O2+
104.9831	154	C2HO5+
109.0989	70	CH18O3P+
121.1015	393	C5H16NP+
123.1129	116	C2H20O3P+
155.0132	96	C6H6NO2P+
197.1951	49	C6H29O6+
240.2326	760	C15H30NO+
