Mass spectrum: METHYLGUANIDINE; LC-ESI-QTOF; MS2; CE: 40eV; R=5000; [M+H]+
Name: METHYLGUANIDINE
Name: 2-methylguanidine
Formula: C2H7N3
Exact mass: 73.06400
SMILES: CNC(N)=N
InChI: InChI=1S/C2H7N3/c1-5-2(3)4/h1H3,(H4,3,4,5)
Instrument: Agilent 6530 QTOF
Instrument type: LC-ESI-QTOF
Ms type: MS2
Ion mode: POSITIVE
Ionization: ESI
Fragmentation mode: CID
Collision energy: 40 eV
Resolution: 5000
Column name: N/A
Retention time: 0.219 min
Base peak: 74.0723
Precursor m/z: 74.0713
Precursor type: [M+H]+
Precursor intensity: 747091
m/z	relative intensity	assigned
41.0139	1	CHN2+
42.0219	52	CH2N2+
43.0295	999	CH3N2+
55.0284	14	C2H3N2+
57.0443	243	C2H5N2+
