Mass spectrum: Monocyclohexyl phthalate; LC-ESI-QTOF; MS2; CE: 5eV; R=7000; [M-H]-
Name: Monocyclohexyl phthalate
Name: 2-cyclohexyloxycarbonylbenzoic acid
Formula: C14H16O4
Exact mass: 248.1049
SMILES: C1CCC(CC1)OC(=O)C2=CC=CC=C2C(=O)O
InChI: InChI=1S/C14H16O4/c15-13(16)11-8-4-5-9-12(11)14(17)18-10-6-2-1-3-7-10/h4-5,8-10H,1-3,6-7H2,(H,15,16)
Instrument: Agilent 6560 QTOF
Instrument type: LC-ESI-QTOF
Ms type: MS2
Ion mode: NEGATIVE
Ionization: ESI
Fragmentation mode: CID
Collision energy: 5 eV
Resolution: 7000
Retention time: 0.148 min
Base peak: 247.0989
Precursor m/z: 247.0976
Precursor type: [M-H]-
Precursor intensity: 52564.27
m/z	relative intensity	assigned
69.0357	35	C4H5O-
75.0245	38	C6H3-
77.0401	618	C6H5-
95.0498	74	C6H7O-
97.0665	531	C6H9O-
119.0153	29	C7H3O2-
121.0301	114	C7H5O2-
147.009	49	C8H3O3-
175.1143	50	C12H15O-
203.1064	19	C13H15O2-
247.0984	999	C14H15O4-
