Mass spectrum: 1-octadecanoyl-rac-glycerol; LC-ESI-QTOF; MS2; CE: 10eV; R=7000; [M+CH3COO]-
Name: 1-octadecanoyl-rac-glycerol
Name: Glyceryl monostearate
Name: 2,3-dihydroxypropyl octadecanoate
Formula: C21H42O4
Exact mass: 358.3083
SMILES: CCCCCCCCCCCCCCCCCC(=O)OCC(CO)O
InChI: InChI=1S/C21H42O4/c1-2-3-4-5-6-7-8-9-10-11-12-13-14-15-16-17-21(24)25-19-20(23)18-22/h20,22-23H,2-19H2,1H3
Instrument: Agilent 6560 QTOF
Instrument type: LC-ESI-QTOF
Ms type: MS2
Ion mode: NEGATIVE
Ionization: ESI
Fragmentation mode: CID
Collision energy: 10 eV
Resolution: 7000
Column name: N/A
Retention time: 0.170 min
Base peak: 980.0164
Precursor m/z: 417.3222
Precursor type: [M+CH3COO]-
Precursor intensity: 25686
m/z	relative intensity	assigned
89.0476	487	H9O5-
111.9825	490	C4O4-
115.0744	999	C6H11O2-
118.3104	215	CH42O4-
128.3282	363	C3H44O3-
141.0741	289	C4H13O5-
194.2019	200	C14H26-
216.0096	196	C11H4O5-
221.2692	196	C10H37O4-
269.0149	481	C14H5O6-
289.0865	165	C19H13O3-
299.1361	330	C18H19O4-
319.0947	265	C20H15O4-
355.1865	978	C22H27O4-
357.1742	273	C21H25O5-
370.1789	380	C22H26O5-
