Mass spectrum: 9(Z),12(Z)-octadecadienoyl-L-carnitine; LC-ESI-QTOF; MS2; CE: 20eV; R=7000; [M+Na]+
Name: 9(Z),12(Z)-octadecadienoyl-L-carnitine
Name: 3-octadeca-9,12-dienoyloxy-4-(trimethylazaniumyl)butanoate
Formula: C25H45NO4
Exact mass: 423.3349
SMILES: CCCCCC=CCC=CCCCCCCCC(=O)OC(CC(=O)[O-])C[N+](C)(C)C
InChI: InChI=1S/C25H45NO4/c1-5-6-7-8-9-10-11-12-13-14-15-16-17-18-19-20-25(29)30-23(21-24(27)28)22-26(2,3)4/h9-10,12-13,23H,5-8,11,14-22H2,1-4H3
Instrument: Agilent 6560 QTOF
Instrument type: LC-ESI-QTOF
Ms type: MS2
Ion mode: POSITIVE
Ionization: ESI
Fragmentation mode: CID
Collision energy: 20 eV
Resolution: 7000
Column name: Direct injection
Retention time: 0.185 min
Base peak: 424.3441
Precursor m/z: 446.3241
Precursor type: [M+Na]+
Precursor intensity: 12139
m/z	relative intensity	assigned
107.0111	213	C4H4NaO2+
166.0828	34	C7H13NNaO2+
206.9895	37	C10H2NNaO3+
282.973	27	C19NaO2+
304.988	20	C21NNaO+
343.0172	23	C25H4NaO+
387.2503	999	C22H36NaO4+
388.256	31	C22H37NaO4+
