Mass spectrum: 9(Z),12(Z)-octadecadienoyl-L-carnitine; LC-ESI-QTOF; MS2; CE: 10eV; R=7000; [M+H]+
Name: 9(Z),12(Z)-octadecadienoyl-L-carnitine
Name: 3-octadeca-9,12-dienoyloxy-4-(trimethylazaniumyl)butanoate
Formula: C25H45NO4
Exact mass: 423.3349
SMILES: CCCCCC=CCC=CCCCCCCCC(=O)OC(CC(=O)[O-])C[N+](C)(C)C
InChI: InChI=1S/C25H45NO4/c1-5-6-7-8-9-10-11-12-13-14-15-16-17-18-19-20-25(29)30-23(21-24(27)28)22-26(2,3)4/h9-10,12-13,23H,5-8,11,14-22H2,1-4H3
Instrument: Agilent 6560 QTOF
Instrument type: LC-ESI-QTOF
Ms type: MS2
Ion mode: POSITIVE
Ionization: ESI
Fragmentation mode: CID
Collision energy: 10 eV
Resolution: 7000
Column name: Direct injection
Retention time: 0.156 min
Base peak: 424.3436
Precursor m/z: 424.3421
Precursor type: [M+H]+
Precursor intensity: 772950
m/z	relative intensity	assigned
79.0548	2	C6H7+
81.0706	5	C6H9+
83.0852	11	C6H11+
85.0284	176	C4H5O2+
95.0856	2	C7H11+
97.1015	5	C7H13+
105.0693	1	C8H9+
107.0847	2	C8H11+
109.1027	5	C8H13+
111.1182	5	C8H15+
115.109	1	C7H15O+
123.1166	1	C9H15+
125.0942	2	C8H13O+
135.1163	1	C10H15+
137.0969	2	C9H13O+
137.1328	1	C10H17+
144.1024	9	C7H14NO2+
147.1158	1	C11H15+
149.1328	2	C11H17+
153.1263	1	C10H17O+
161.1315	2	C12H17+
165.1634	3	C12H21+
169.1215	1	C10H17O2+
175.1474	2	C13H19+
179.1424	1	C12H19O+
189.1624	3	C14H21+
193.1552	3	C13H21O+
207.1727	1	C14H23O+
213.1126	1	C11H17O4+
239.1496	1	C13H21NO3+
241.142	1	C13H21O4+
245.226	4	C18H29+
253.1428	1	C14H21O4+
263.2367	4	C18H31O+
267.1569	1	C15H23O4+
269.176	1	C15H25O4+
283.1879	1	C16H27O4+
365.2692	4	C22H37O4+
424.3436	999	C25H46NO4+
