Mass spectrum: 6-Hydroxy Monopropylheptylphthalate; LC-ESI-QTOF; MS2; CE: 25eV; R=7000; [M-H]-
Name: 6-Hydroxy Monopropylheptylphthalate
Name: Monopropylheptylphthalate 6-Hydroxy
Name: 2-(6-hydroxy-2-propylheptoxy)carbonylbenzoic acid
Formula: C18H26O5
Exact mass: 322.1780
SMILES: CCCC(CCCC(C)O)COC(=O)C1=CC=CC=C1C(=O)O
InChI: InChI=1S/C18H26O5/c1-3-7-14(9-6-8-13(2)19)12-23-18(22)16-11-5-4-10-15(16)17(20)21/h4-5,10-11,13-14,19H,3,6-9,12H2,1-2H3,(H,20,21)
Instrument: Agilent 6560 QTOF
Instrument type: LC-ESI-QTOF
Ms type: MS2
Ion mode: NEGATIVE
Ionization: ESI
Fragmentation mode: CID
Collision energy: 25 eV
Resolution: 7000
Column name: ZORBAX Extend-C18 3.5um, 2.1x50mm, Agilent Technologies
Retention time: 4.248 min
Base peak: 321.1716
Precursor m/z: 321.1707
Precursor type: [M-H]-
Precursor intensity: 58768.91
m/z	relative intensity	assigned
57.0348	16	C3H5O-
75.0237	23	C6H3-
77.0402	999	C6H5-
85.067	9	C5H9O-
103.0209	15	C7H3O-
119.0126	10	C7H3O2-
121.0297	946	C7H5O2-
127.1133	21	C8H15O-
141.1286	38	C9H17O-
147.0079	36	C8H3O3-
171.1411	56	C10H19O2-
173.1541	11	C10H21O2-
