Mass spectrum: 2,2`-{Methylenebis[(4,1-phenylene)oxymethylene]}bis(oxirane); LC-ESI-QTOF; MS2; CE: 40eV; R=7000; [M+NH4]+
Name: 2,2`-{Methylenebis[(4,1-phenylene)oxymethylene]}bis(oxirane)
Name: Bis(4-glycidyloxyphenyl)methane
Name: 2-[[4-[[4-(oxiran-2-ylmethoxy)phenyl]methyl]phenoxy]methyl]oxirane
Formula: C19H20O4
Exact mass: 312.1362
SMILES: C1C(O1)COC2=CC=C(C=C2)CC3=CC=C(C=C3)OCC4CO4
InChI: InChI=1S/C19H20O4/c1-5-16(20-10-18-12-22-18)6-2-14(1)9-15-3-7-17(8-4-15)21-11-19-13-23-19/h1-8,18-19H,9-13H2
Instrument: Agilent 6560 QTOF
Instrument type: LC-ESI-QTOF
Ms type: MS2
Ion mode: POSITIVE
Ionization: ESI
Fragmentation mode: CID
Collision energy: 40 eV
Resolution: 7000
Column name: ZORBAX Extend-C18 3.5um, 2.1x50mm, Agilent Technologies
Retention time: 3.399 min
Base peak: 330.1701
Precursor m/z: 330.17
Precursor type: [M+NH4]+
Precursor intensity: 104187.49
m/z	relative intensity	assigned
127.0522	576	C10H7+
128.0594	999	C10H8+
135.0409	350	C8H7O2+
171.1001	252	C9H15O3+
182.0685	312	C13H10O+
223.0666	365	C14H9NO2+
