Mass spectrum: Mono(2-propyl-6-carboxyhexyl) phthalate; LC-ESI-QTOF; MS2; CE: 20eV; R=7000; [M-H]-
Name: Mono(2-propyl-6-carboxyhexyl) phthalate
Name: 2-(((6-Carboxy-2-propylhexyl)oxy)carbonyl)benzoic acid
Name: 2-(6-carboxy-2-propylhexoxy)carbonylbenzoic acid
Formula: C18H24O6
Exact mass: 336.1573
SMILES: CCCC(CCCCC(=O)O)COC(=O)c1ccccc1C(=O)O
InChI: InChI=1S/C18H24O6/c1-2-7-13(8-3-6-11-16(19)20)12-24-18(23)15-10-5-4-9-14(15)17(21)22/h4-5,9-10,13H,2-3,6-8,11-12H2,1H3,(H,19,20)(H,21,22)
Instrument: Agilent 6560 QTOF
Instrument type: LC-ESI-QTOF
Ms type: MS2
Ion mode: NEGATIVE
Ionization: ESI
Fragmentation mode: CID
Collision energy: 20 eV
Resolution: 7000
Column name: ZORBAX Extend-C18 3.5um, 2.1x50mm, Agilent Technologies
Retention time: 2.845 min
Base peak: 335.1505
Precursor m/z: 335.15
Precursor type: [M-H]-
Precursor intensity: 85018.32
m/z	relative intensity	assigned
77.04	109	C6H5-
121.0297	251	C7H5O2-
139.113	7	C9H15O-
141.1288	190	C9H17O-
147.0099	10	C8H3O3-
151.1132	12	C10H15O-
165.0203	17	C8H5O4-
169.1238	12	C10H17O2-
185.1196	14	C10H17O3-
187.1344	999	C10H19O3-
