Mass spectrum: 5-Hydroxy-2-ethylhexyl diphenyl phosphate; LC-ESI-QTOF; MS2; CE: 55eV; R=7000; [M+H]+
Name: 5-Hydroxy-2-ethylhexyl diphenyl phosphate
Name: 2-Ethyl-5-hydroxyhexyl diphenyl phosphate
Name: (2-ethyl-5-hydroxyhexyl) diphenyl phosphate
Formula: C20H27O5P
Exact mass: 378.1596
SMILES: CCC(CCC(C)O)COP(=O)(Oc1ccccc1)Oc2ccccc2
InChI: InChI=1S/C20H27O5P/c1-3-18(15-14-17(2)21)16-23-26(22,24-19-10-6-4-7-11-19)25-20-12-8-5-9-13-20/h4-13,17-18,21H,3,14-16H2,1-2H3
Instrument: Agilent 6560 QTOF
Instrument type: LC-ESI-QTOF
Ms type: MS2
Ion mode: POSITIVE
Ionization: ESI
Fragmentation mode: CID
Collision energy: 55 eV
Resolution: 7000
Retention time: 0.146 min
Base peak: 401.1507
Precursor m/z: 379.1669
Precursor type: [M+H]+
Precursor intensity: 55158.04
m/z	relative intensity	assigned
51.0233	81	C4H3+
55.0545	81	C4H7+
69.0703	133	C5H9+
77.039	999	C6H5+
95.05	83	C6H7O+
129.0096	11	C5H6O2P+
151.0542	56	C12H7+
152.0621	251	C12H8+
153.0691	81	C12H9+
157.0048	19	C6H6O3P+
168.0574	43	C12H8O+
175.0155	71	C6H8O4P+
215.0261	46	C12H8O2P+
