Mass spectrum: GUANOSINE; LC-ESI-QTOF; MS2; CE: 10eV; R=5000; [M+H]+
Name: GUANOSINE
Name: CID 6802
Name: 2-amino-9-[(2R,3R,4S,5R)-3,4-dihydroxy-5-(hydroxymethyl)oxolan-2-yl]-3H-purin-6-one
Formula: C10H13N5O5
Exact mass: 283.09167
SMILES: NC1=NC2=C(N=CN2[C@@H]2O[C@H](CO)[C@@H](O)[C@H]2O)C(=O)N1
InChI: InChI=1S/C10H13N5O5/c11-10-13-7-4(8(19)14-10)12-2-15(7)9-6(18)5(17)3(1-16)20-9/h2-3,5-6,9,16-18H,1H2,(H3,11,13,14,19)/t3-,5-,6-,9-/m1/s1
Instrument: Agilent 6530 QTOF
Instrument type: LC-ESI-QTOF
Ms type: MS2
Ion mode: POSITIVE
Ionization: ESI
Fragmentation mode: CID
Collision energy: 10 eV
Resolution: 5000
Column name: N/A
Retention time: 0.215 min
Base peak: 306.0806
Precursor m/z: 284.0989
Precursor type: [M+H]+
Precursor intensity: 139182
m/z	relative intensity	assigned
43.0176	4	C2H3O+
55.0281	6	C2H3N2+
68.0138	1	C3H2NO+
97.0624	2	C4H7N3+
110.0317	4	CH6N2O4+
115.0336	6	H7N2O5+
122.1021	4	C2H12N5O+
133.0524	4	C8H7NO+
135.0291	35	C4H7O5+
151.0094	1	CH3N4O5+
152.0562	999	C5H6N5O+
153.0602	3	C2H9N4O4+
154.0918	1	C2H12N5O3+
190.0471	2	C5H8N3O5+
213.075	5	C8H11N3O4+
226.1059	1	C9H14N4O3+
