Mass spectrum: 1,2-dihexadecanoyl-sn-glycero-3-phosphoethanolamine; LC-ESI-QTOF; MS2; CE: 40eV; R=7000; [M+Na]+
Name: 1,2-dihexadecanoyl-sn-glycero-3-phosphoethanolamine
Name: 1,2-Dipalmitoyl-sn-glycero-3-phosphoethanolamine
Name: [(2R)-3-[2-aminoethoxy(hydroxy)phosphoryl]oxy-2-hexadecanoyloxypropyl] hexadecanoate
Formula: C37H74NO8P
Exact mass: 691.5152
SMILES: CCCCCCCCCCCCCCCC(=O)OC[C@H](COP(=O)(O)OCCN)OC(=O)CCCCCCCCCCCCCCC
InChI: InChI=1S/C37H74NO8P/c1-3-5-7-9-11-13-15-17-19-21-23-25-27-29-36(39)43-33-35(34-45-47(41,42)44-32-31-38)46-37(40)30-28-26-24-22-20-18-16-14-12-10-8-6-4-2/h35H,3-34,38H2,1-2H3,(H,41,42)/t35-/m1/s1
Instrument: Agilent 6560 QTOF
Instrument type: LC-ESI-QTOF
Ms type: MS2
Ion mode: POSITIVE
Ionization: ESI
Fragmentation mode: CID
Collision energy: 40 eV
Resolution: 7000
Column name: Direct injection
Retention time: 0.210 min
Base peak: 692.5246
Precursor m/z: 714.5044
Precursor type: [M+Na]+
Precursor intensity: 21701
m/z	relative intensity	assigned
71.0859	106	CH14NP+
81.0697	295	C6H9+
83.0851	176	C6H11+
95.0876	96	C3H14NP+
109.1017	168	C4H16NP+
120.9662	999	H3NaO4P+
123.1156	63	C3H19NNaP+
124.121	36	H22NaO3P+
125.1332	15	C5H20NP+
151.1464	47	C5H23NNaP+
152.002	94	C7H5O2P+
164.0075	511	C6H5NaO4+
191.1009	55	C3H21NaO5P+
221.2274	101	H39NaO8P+
239.2363	44	C16H31O+
278.2212	43	C16H31NaO2+
415.2209	101	C20H33NO8+
433.238	11	C24H36NO4P+
505.1429	36	C35H21O4+
551.5061	183	C31H70NO4P+
573.4746	56	C36H63NO4+
573.5078	42	C28H73NNaO6P+
