Mass spectrum: Corticosterone; LC-ESI-QTOF; MS2; CE: 20eV; R=7000; [M-H]-
Name: Corticosterone
Name: (8S,9S,10R,11S,13S,14S,17S)-11-hydroxy-17-(2-hydroxyacetyl)-10,13-dimethyl-1,2,6,7,8,9,11,12,14,15,16,17-dodecahydrocyclopenta[a]phenanthren-3-one
Formula: C21H30O4
Exact mass: 346.2144
SMILES: C[C@]12CCC(=O)C=C1CC[C@@H]3[C@@H]2[C@H](C[C@]4([C@H]3CC[C@@H]4C(=O)CO)C)O
InChI: InChI=1S/C21H30O4/c1-20-8-7-13(23)9-12(20)3-4-14-15-5-6-16(18(25)11-22)21(15,2)10-17(24)19(14)20/h9,14-17,19,22,24H,3-8,10-11H2,1-2H3/t14-,15-,16+,17-,19+,20-,21-/m0/s1
Instrument: Agilent 6560 QTOF
Instrument type: LC-ESI-QTOF
Ms type: MS2
Ion mode: NEGATIVE
Ionization: ESI
Fragmentation mode: CID
Collision energy: 20 eV
Resolution: 7000
Column name: N/A
Retention time: 0.191 min
Base peak: 405.2289
Precursor m/z: 345.2071
Precursor type: [M-H]-
Precursor intensity: 12311
m/z	relative intensity	assigned
73.0279	999	C3H5O2-
73.0502	133	H9O4-
81.1276	117	C4H17O-
84.0211	199	C4H4O2-
123.081	588	C8H11O-
135.0842	214	C9H11O-
189.0916	293	C12H13O2-
197.096	307	C14H13O-
199.1149	380	C14H15O-
231.1409	101	C15H19O2-
241.1582	779	C17H21O-
283.1659	143	C19H23O2-
296.139	87	C19H20O3-
309.1846	183	C21H25O2-
327.1919	772	C21H27O3-
345.2011	206	C21H29O4-
