Mass spectrum: Mono-isononyl-cyclohexane-1,2-dicarboxylate; LC-ESI-QTOF; MS2; CE: 40eV; R=7000; [M-H]-
Name: Mono-isononyl-cyclohexane-1,2-dicarboxylate
Name: (1S,2R)-2-(4-methyloctoxycarbonyl)cyclohexane-1-carboxylic acid
Formula: C17H30O4
Exact mass: 298.2144
SMILES: CCCCC(C)CCCOC(=O)[C@@H]1CCCC[C@@H]1C(=O)O
InChI: InChI=1S/C17H30O4/c1-3-4-8-13(2)9-7-12-21-17(20)15-11-6-5-10-14(15)16(18)19/h13-15H,3-12H2,1-2H3,(H,18,19)/t13?,14-,15+/m0/s1
Instrument: Agilent 6560 QTOF
Instrument type: LC-ESI-QTOF
Ms type: MS2
Ion mode: NEGATIVE
Ionization: ESI
Fragmentation mode: CID
Collision energy: 40 eV
Resolution: 7000
Column name: ZORBAX Extend-C18 3.5um, 2.1x50mm, Agilent Technologies
Retention time: 6.513 min
Base peak: 297.2066
Precursor m/z: 297.2071
Precursor type: [M-H]-
Precursor intensity: 8685.95
m/z	relative intensity	assigned
55.0179	77	C3H3O-
77.0388	63	C6H5-
107.0494	44	C7H7O-
109.0655	999	C7H9O-
125.0601	100	C7H9O2-
139.1133	54	C9H15O-
141.1278	52	C9H17O-
