Mass spectrum: 5-Chlorobenzotriazole; LC-ESI-QTOF; MS2; CE: 60eV; R=7000; [M+H]+
Name: 5-Chlorobenzotriazole
Name: 5-chloro-2H-benzotriazole
Formula: C6H4ClN3
Exact mass: 153.0094
SMILES: C1=CC2=NNN=C2C=C1Cl
InChI: InChI=1S/C6H4ClN3/c7-4-1-2-5-6(3-4)9-10-8-5/h1-3H,(H,8,9,10)
Instrument: Agilent 6560 QTOF
Instrument type: LC-ESI-QTOF
Ms type: MS2
Ion mode: POSITIVE
Ionization: ESI
Fragmentation mode: CID
Collision energy: 60 eV
Resolution: 7000
Retention time: 0.153 min
Base peak: 154.0166
Precursor m/z: 154.0167
Precursor type: [M+H]+
Precursor intensity: 6220.39
m/z	relative intensity	assigned
62.0147	248	C5H2+
63.0233	619	C5H3+
64.0181	173	C4H2N+
72.9836	999	C3H2Cl+
98.9997	99	C5H4Cl+
