Mass spectrum: N-Heptadecanoyl-D-erythro-Sphingosine; LC-ESI-QTOF; MS2; CE: 20eV; R=7000; [M+H]+
Name: N-Heptadecanoyl-D-erythro-Sphingosine
Name: N-Heptadecanoylsphingosine
Name: N-[(E,2S,3R)-1,3-dihydroxyoctadec-4-en-2-yl]heptadecanamide
Formula: C35H69NO3
Exact mass: 551.5277
SMILES: OC[C@H](NC(CCCCCCCCCCCCCCCC)=O)[C@H](O)/C=C/CCCCCCCCCCCCC
InChI: InChI=1S/C35H69NO3/c1-3-5-7-9-11-13-15-17-19-21-23-25-27-29-31-35(39)36-33(32-37)34(38)30-28-26-24-22-20-18-16-14-12-10-8-6-4-2/h28,30,33-34,37-38H,3-27,29,31-32H2,1-2H3,(H,36,39)/b30-28+/t33-,34+/m0/s1
Instrument: Agilent 6560 QTOF
Instrument type: LC-ESI-QTOF
Ms type: MS2
Ion mode: POSITIVE
Ionization: ESI
Fragmentation mode: CID
Collision energy: 20 eV
Resolution: 7000
Column name: Direct injection
Retention time: 0.182 min
Base peak: 574.5189
Precursor m/z: 552.535
Precursor type: [M+H]+
Precursor intensity: 245989
m/z	relative intensity	assigned
71.0858	4	C5H11+
77.0393	3	C6H5+
79.0545	6	C6H7+
81.0705	9	C6H9+
82.0657	6	C5H8N+
83.0485	1	C5H7O+
83.0856	4	C6H11+
85.1027	3	C6H13+
93.0685	3	C7H9+
95.0833	4	C7H11+
97.1026	2	C7H13+
109.1016	15	C8H13+
121.1001	6	C9H13+
135.1164	2	C10H15+
137.1206	2	C9H15N+
149.1312	7	C11H17+
211.2049	7	C14H27O+
214.2163	3	C13H28NO+
235.2406	1	C17H31+
239.1543	2	C13H21NO3+
247.2421	4	C18H31+
252.2693	77	C17H34N+
253.2521	9	C17H33O+
253.2728	7	C14H37O3+
253.4233	1	C14H55NO+
262.3337	2	C13H44NO3+
264.2691	999	C18H34N+
265.2723	72	C15H37O3+
269.41	1	C18H53+
270.2791	21	C17H36NO+
271.2869	2	C17H37NO+
273.1837	1	C18H25O2+
282.2806	132	C18H36NO+
283.284	12	C18H37NO+
294.2792	2	C19H36NO+
295.2879	1	C19H37NO+
305.0343	1	C25H5+
504.5125	7	C34H66NO+
505.5124	6	C34H67NO+
516.5139	24	C35H66NO+
517.5179	1	C35H67NO+
534.5247	48	C35H68NO2+
535.5294	17	C35H69NO2+
