Mass spectrum: Mono-2-(propyl-6-oxoheptyl)-phthalate; LC-ESI-QTOF; MS2; CE: 10eV; R=7000; [M-H]-
Name: Mono-2-(propyl-6-oxoheptyl)-phthalate
Name: 2-(((6-Oxo-2-propylheptyl)oxy)carbonyl)benzoic Acid
Name: 2-(6-oxo-2-propylheptoxy)carbonylbenzoic acid
Formula: C18H24O5
Exact mass: 320.1624
SMILES: CCCC(CCCC(C)=O)COC(=O)c1ccccc1C(=O)O
InChI: InChI=1S/C18H24O5/c1-3-7-14(9-6-8-13(2)19)12-23-18(22)16-11-5-4-10-15(16)17(20)21/h4-5,10-11,14H,3,6-9,12H2,1-2H3,(H,20,21)
Instrument: Agilent 6560 QTOF
Instrument type: LC-ESI-QTOF
Ms type: MS2
Ion mode: NEGATIVE
Ionization: ESI
Fragmentation mode: CID
Collision energy: 10 eV
Resolution: 7000
Column name: ZORBAX Extend-C18 3.5um, 2.1x50mm, Agilent Technologies
Retention time: 3.945 min
Base peak: 319.1561
Precursor m/z: 319.1551
Precursor type: [M-H]-
Precursor intensity: 188062.05
m/z	relative intensity	assigned
57.0351	31	C3H5O-
59.0141	2	C2H3O2-
69.0355	2	C4H5O-
71.0505	2	C4H7O-
77.04	122	C6H5-
85.0655	20	C5H9O-
119.05	46	C8H7O-
121.0299	999	C7H5O2-
125.097	7	C8H13O-
127.1137	20	C8H15O-
139.1136	5	C9H15O-
141.1294	32	C9H17O-
147.0086	16	C8H3O3-
151.1128	15	C10H15O-
153.1277	8	C10H17O-
167.1079	4	C10H15O2-
169.124	9	C10H17O2-
171.1394	471	C10H19O2-
233.1546	11	C15H21O2-
257.1565	3	C17H21O2-
275.1651	20	C17H23O3-
319.1556	178	C18H23O5-
