Mass spectrum: Butyryl trihexyl citrate; LC-ESI-QTOF; MS2; CE: 5eV; R=7000; [M+H]+
Name: Butyryl trihexyl citrate
Name: trihexyl 2-butanoyloxypropane-1,2,3-tricarboxylate
Formula: C28H50O8
Exact mass: 514.3506
SMILES: CCCCCCOC(=O)CC(CC(=O)OCCCCCC)(C(=O)OCCCCCC)OC(=O)CCC
InChI: InChI=1S/C28H50O8/c1-5-9-12-15-19-33-25(30)22-28(36-24(29)18-8-4,27(32)35-21-17-14-11-7-3)23-26(31)34-20-16-13-10-6-2/h5-23H2,1-4H3
Instrument: Agilent 6560 QTOF
Instrument type: LC-ESI-QTOF
Ms type: MS2
Ion mode: POSITIVE
Ionization: ESI
Fragmentation mode: CID
Collision energy: 5 eV
Resolution: 7000
Retention time: 0.109 min
Base peak: 537.3394
Precursor m/z: 515.3578
Precursor type: [M+H]+
Precursor intensity: 148549.48
m/z	relative intensity	assigned
57.0703	39	C4H9+
68.9979	10	C3HO2+
71.0494	580	C4H7O+
85.101	198	C6H13+
89.0593	123	C4H9O2+
111.0071	42	C5H3O3+
129.0179	458	C5H5O4+
139.0021	266	C6H3O4+
157.0127	423	C6H5O5+
158.0184	10	C13H2+
213.1115	444	C11H17O4+
214.1158	56	C11H18O4+
231.1184	10	C18H15+
241.1068	242	C12H17O5+
242.1086	11	C19H14+
245.0649	411	C10H13O7+
246.0686	25	C17H10O2+
297.2073	18	C17H29O4+
315.2156	475	C17H31O5+
316.2199	63	C24H28+
325.2014	53	C18H29O5+
329.1591	572	C16H25O7+
330.1626	33	C23H22O2+
413.253	999	C22H37O7+
414.2561	117	C22H38O7+
445.3148	234	C24H45O7+
446.3173	43	C24H46O7+
515.3573	265	C28H51O8+
