Mass spectrum: 1-(9Z-octadecenoyl)-sn-glycero-3-phosphoethanolamine; LC-ESI-QTOF; MS2; CE: 10eV; R=7000; [M+H]+
Name: 1-(9Z-octadecenoyl)-sn-glycero-3-phosphoethanolamine
Name: [(2R)-3-[2-aminoethoxy(hydroxy)phosphoryl]oxy-2-hydroxypropyl] (Z)-octadec-9-enoate
Formula: C23H46NO7P
Exact mass: 479.3012
SMILES: CCCCCCCC/C=C\CCCCCCCC(=O)OC[C@H](COP(=O)([O-])OCC[NH3+])O
InChI: InChI=1S/C23H46NO7P/c1-2-3-4-5-6-7-8-9-10-11-12-13-14-15-16-17-23(26)29-20-22(25)21-31-32(27,28)30-19-18-24/h9-10,22,25H,2-8,11-21,24H2,1H3,(H,27,28)/b10-9-/t22-/m1/s1
Instrument: Agilent 6560 QTOF
Instrument type: LC-ESI-QTOF
Ms type: MS2
Ion mode: POSITIVE
Ionization: ESI
Fragmentation mode: CID
Collision energy: 10 eV
Resolution: 7000
Column name: Direct injection
Retention time: 0.183 min
Base peak: 480.3097
Precursor m/z: 480.3085
Precursor type: [M+H]+
Precursor intensity: 64403
m/z	relative intensity	assigned
71.087	3	CH14NP+
81.0703	25	C2H12NP+
135.1128	6	C3H20O3P+
155.0084	27	C3H8O5P+
156.0118	5	C10H5P+
198.0492	18	C12H9NP+
209.1976	6	C10H27NO3+
216.0619	43	C9H12O6+
265.253	59	C14H36NOP+
266.2542	13	C10H36NO6+
308.2977	44	C20H38NO+
309.298	7	C10H46O7P+
316.9516	13	C16NO5P+
339.289	999	C21H39O3+
340.2936	143	C14H45O6P+
398.2367	6	C18H39O7P+
418.1705	6	C22H29NO5P+
419.2548	60	C21H40O6P+
420.2631	13	C21H41O6P+
462.3003	164	C23H45NO6P+
463.3049	10	C23H46NO6P+
480.3087	262	C23H47NO7P+
