Mass spectrum: Bisphenol AF; LC-ESI-QTOF; MS2; CE: 20eV; R=7000; [M-H]-
Name: Bisphenol AF
Name: 4-[1,1,1,3,3,3-hexafluoro-2-(4-hydroxyphenyl)propan-2-yl]phenol
Formula: C15H10F6O2
Exact mass: 336.0585
SMILES: C1=CC(=CC=C1C(C2=CC=C(C=C2)O)(C(F)(F)F)C(F)(F)F)O
InChI: InChI=1S/C15H10F6O2/c16-14(17,18)13(15(19,20)21,9-1-5-11(22)6-2-9)10-3-7-12(23)8-4-10/h1-8,22-23H
Instrument: Agilent 6560 QTOF
Instrument type: LC-ESI-QTOF
Ms type: MS2
Ion mode: NEGATIVE
Ionization: ESI
Fragmentation mode: CID
Collision energy: 20 eV
Resolution: 7000
Retention time: 0.187 min
Base peak: 335.0528
Precursor m/z: 335.0512
Precursor type: [M-H]-
Precursor intensity: 439916
m/z	relative intensity	assigned
68.9959	65	CF3-
111.0248	5	C6H4FO-
149.0385	2	C4H6F5-
161.022	8	C7H4F3O-
177.0348	5	C13H5O-
195.0449	4	C5H8F5O2-
197.0406	10	C5H7F6O-
198.0455	1	C8H7F5-
206.032	1	C12H5F3-
224.0276	1	C6H6F6O2-
225.0356	10	C6H7F6O2-
226.0437	4	C14H7FO2-
227.0356	1	C11H6F3O2-
244.0335	8	C14H6F2O2-
245.0416	16	C14H7F2O2-
246.0484	4	C9H8F6O-
247.0376	2	C14H6F3O-
255.0257	1	C15H5F2O2-
265.0484	999	C14H8F3O2-
266.0519	69	C12H8F6-
275.0314	2	C15H6F3O2-
295.0389	6	C15H7F4O2-
296.0416	1	C15H8F4O2-
315.0455	9	C15H8F5O2-
335.051	9	C15H9F6O2-
