Mass spectrum: CL 14_1_14_1_14_1_15_1; LC-ESI-QTOF; MS2; CE: 40eV; R=7000; [M-H]-
Name: CL 14_1_14_1_14_1_15_1
Name: 1`-[1,2-di-(9Z-tetradecenoyl)-sn-glycero-3-phospho],3`-[1-(9Z-tetradecenoyl),2-(10Z-pentadecenoyl)-sn-glycero-3-phospho]-rac-glycerol
Name: [(2R)-1-[[3-[[(2R)-2,3-bis[[(Z)-tetradec-9-enoyl]oxy]propoxy]-hydroxyphosphoryl]oxy-2-hydroxypropoxy]-hydroxyphosphoryl]oxy-3-[(Z)-tetradec-9-enoyl]oxypropan-2-yl] (Z)-pentadec-10-enoate
Formula: C66H120O17P2
Exact mass: 1246.8001
SMILES: P(OC[C@]([H])(OC(CCCCCCC/C=C\CCCC)=O)COC(CCCCCCC/C=C\CCCC)=O)(O)(OCC(O)([H])COP(OC[C@]([H])(OC(CCCCCCCC/C=C\CCCC)=O)COC(CCCCCCC/C=C\CCCC)=O)(O)=O)=O
InChI: InChI=1S/C66H120O17P2/c1-5-9-13-17-21-25-29-33-37-41-45-49-53-66(71)83-62(57-77-64(69)51-47-43-39-35-31-27-23-19-15-11-7-3)59-81-85(74,75)79-55-60(67)54-78-84(72,73)80-58-61(82-65(70)52-48-44-40-36-32-28-24-20-16-12-8-4)56-76-63(68)50-46-42-38-34-30-26-22-18-14-10-6-2/h17-24,60-62,67H,5-16,25-59H2,1-4H3,(H,72,73)(H,74,75)/b21-17-,22-18-,23-19-,24-20-/t60?,61-,62-/m1/s1
Instrument: Agilent 6560 QTOF
Instrument type: LC-ESI-QTOF
Ms type: MS2
Ion mode: NEGATIVE
Ionization: ESI
Fragmentation mode: CID
Collision energy: 40 eV
Resolution: 7000
Column name: N/A
Retention time: 0.260 min
Base peak: 980.0164
Precursor m/z: 1245.7928
Precursor type: [M-H]-
Precursor intensity: 40302
m/z	relative intensity	assigned
78.9571	82	O3P-
152.9958	234	C3H6O5P-
165.0021	21	C8H7P2-
201.9854	12	C10H3O3P-
218.7651	24	C3H103O3P-
224.0077	28	C6H9O7P-
224.8049	42	C3H110OP2-
225.1883	269	H34O10P-
225.4588	50	H65O10-
225.5509	15	C3H79O3P2-
225.7357	23	C4H97O5-
237.6252	231	C2H85O8-
237.6688	31	C7H90O2P-
237.6917	17	C11H89O-
239.2028	185	C15H27O2-
239.5549	21	C7H76O3P-
239.6561	16	C6H87O5-
251.6771	27	C4H91O7-
298.035	84	C12H10O9-
306.3263	12	C15H47O3P-
325.1852	60	C18H31OP2-
329.9025	30	C2H4O15P2-
341.5214	47	C9H73O10-
342.6497	38	C9H91O7P-
361.1812	480	C24H25O3-
361.2707	24	C9H47O9P2-
361.4511	38	C3H70O14P-
361.6587	27	C9H95O6P2-
362.0808	43	H28O17P2-
362.5558	52	C20H75OP-
379.193	108	C3H41O15P2-
380.1942	47	C10H38O10P2-
410.5707	12	C17H78O8-
437.6137	28	C20H87O3P2-
525.6525	44	C16H93O15-
587.3751	132	C17H65O16P2-
588.0184	16	C28H12O15-
588.3057	27	C22H54O13P2-
588.5098	18	C31H73O7P-
588.6071	42	C16H94O15P2-
588.6812	21	C18H102O13P2-
601.3863	299	C32H58O8P-
601.51	30	C32H75O5P2-
603.8568	31	C34H117OP2-
623.7355	26	C33H99O8-
638.2606	60	C49H34O-
643.399	88	C34H60O9P-
656.6992	44	C29H102O9P2-
659.4665	27	C36H68O8P-
687.3856	125	C28H65O14P2-
721.7206	26	C44H98O4P-
723.3595	172	C37H55O14-
723.4097	34	C46H61O3P2-
732.5764	20	C52H77P-
741.5144	104	C45H75O4P2-
767.4394	40	C55H60OP-
861.6847	17	C38H102O17P-
871.2899	44	C61H45O2P2-
949.6599	12	C47H98O16P-
1005.5752	32	C61H81O12-
1019.605	55	C66H83O9-
1029.55	66	C59H82O13P-
1068.3128	24	C62H53O15P-
1127.696	71	C60H105O15P2-
1170.7136	12	C62H108O16P2-
1245.7928	999	C66H119O17P2-
