Mass spectrum: Prostaglandin E1; LC-ESI-QTOF; MS2; CE: 10eV; R=7000; [M-H]-
Name: Prostaglandin E1
Name: Alprostadil
Name: 7-[(1R,2R,3R)-3-hydroxy-2-[(E,3S)-3-hydroxyoct-1-enyl]-5-oxocyclopentyl]heptanoic acid
Formula: C20H34O5
Exact mass: 354.2406
SMILES: CCCCC[C@@H](/C=C/[C@H]1[C@@H](CC(=O)[C@@H]1CCCCCCC(=O)O)O)O
InChI: InChI=1S/C20H34O5/c1-2-3-6-9-15(21)12-13-17-16(18(22)14-19(17)23)10-7-4-5-8-11-20(24)25/h12-13,15-17,19,21,23H,2-11,14H2,1H3,(H,24,25)/b13-12+/t15-,16+,17+,19+/m0/s1
Instrument: Agilent 6560 QTOF
Instrument type: LC-ESI-QTOF
Ms type: MS2
Ion mode: NEGATIVE
Ionization: ESI
Fragmentation mode: CID
Collision energy: 10 eV
Resolution: 7000
Column name: N/A
Retention time: 0.163 min
Base peak: 353.2338
Precursor m/z: 353.2333
Precursor type: [M-H]-
Precursor intensity: 765956
m/z	relative intensity	assigned
80.028	2	C5H4O-
97.0653	4	C6H9O-
107.0867	1	C8H11-
109.0649	9	C7H9O-
113.0976	17	C7H13O-
115.0762	1	C6H11O2-
121.0669	2	C8H9O-
123.0445	3	C7H7O2-
123.0802	4	C8H11O-
137.0972	13	C9H13O-
161.0954	1	C11H13O-
162.1068	4	C11H14O-
163.1105	5	C11H15O-
177.1282	13	C12H17O-
185.1182	6	C10H17O3-
189.1279	3	C13H17O-
190.1391	1	C13H18O-
191.1431	33	C13H19O-
193.1253	2	C12H17O2-
193.1569	2	C13H21O-
195.1409	1	C12H19O2-
197.116	1	C11H17O3-
199.1091	1	C14H15O-
206.1292	1	C13H18O2-
207.1004	4	C12H15O3-
209.1178	31	C12H17O3-
217.1217	4	C14H17O2-
219.1734	14	C15H23O-
220.1785	1	C15H24O-
221.1175	36	C13H17O3-
222.1234	4	C13H18O3-
223.1335	22	C13H19O3-
231.1009	2	C14H15O3-
231.2098	1	C17H27-
235.134	305	C14H19O3-
236.1374	36	C14H20O3-
245.1913	3	C17H25O-
255.2132	8	C19H27-
271.2059	2	C19H27O-
273.2219	178	C19H29O-
274.2266	17	C19H30O-
275.2012	2	C18H27O2-
289.2194	1	C19H29O2-
299.1969	4	C20H27O2-
315.2128	2	C17H31O5-
317.2128	999	C20H29O3-
318.2154	117	C20H30O3-
335.2245	141	C20H31O4-
336.2257	6	C20H32O4-
353.2328	9	C20H33O5-
