Mass spectrum: N-Palmitoyl-D-sphingosine; LC-ESI-QTOF; MS2; CE: 20eV; R=7000; [M-H2O+H]+
Name: N-Palmitoyl-D-sphingosine
Name: N-Palmitoylsphingosine
Name: N-[(E,2S,3R)-1,3-dihydroxyoctadec-4-en-2-yl]hexadecanamide
Formula: C34H67NO3
Exact mass: 537.5121
SMILES: [H][C@@](CO)(NC(=O)CCCCCCCCCCCCCCC)[C@H](O)\C=C\CCCCCCCCCCCCC
InChI: InChI=1S/C34H67NO3/c1-3-5-7-9-11-13-15-17-19-21-23-25-27-29-33(37)32(31-36)35-34(38)30-28-26-24-22-20-18-16-14-12-10-8-6-4-2/h27,29,32-33,36-37H,3-26,28,30-31H2,1-2H3,(H,35,38)/b29-27+/t32-,33+/m0/s1
Instrument: Agilent 6560 QTOF
Instrument type: LC-ESI-QTOF
Ms type: MS2
Ion mode: POSITIVE
Ionization: ESI
Fragmentation mode: CID
Collision energy: 20 eV
Resolution: 7000
Column name: Direct injection
Retention time: 0.154 min
Base peak: 560.5028
Precursor m/z: 520.5088
Precursor type: [M-H2O+H]+
Precursor intensity: 112136
m/z	relative intensity	assigned
71.0857	40	C5H11+
82.065	7	C5H8N+
83.0852	5	C6H11+
89.0577	16	C4H9O2+
93.0712	8	C7H9+
94.0659	4	C6H8N+
97.1013	6	C7H13+
109.0992	4	C8H13+
111.1155	6	C8H15+
121.1016	2	C9H13+
135.114	10	C10H15+
137.1295	3	C10H17+
149.1344	2	C11H17+
198.2238	12	C13H28N+
211.2058	3	C14H27O+
252.2687	93	C17H34N+
253.2753	11	C17H35N+
256.263	11	C16H34NO+
257.2659	3	C16H35NO+
264.2686	999	C18H34N+
265.2717	103	C18H35N+
281.0529	2	C19H7NO2+
282.2778	135	C18H36NO+
283.2856	8	C18H37NO+
294.193	3	C21H26O+
381.1701	1	C26H23NO2+
490.4977	11	C33H64NO+
502.4989	12	C34H64NO+
503.5045	4	C34H65NO+
520.5078	20	C34H66NO2+
