Mass spectrum: Bis(2-chloroethyl) phosphate; LC-ESI-QTOF; MS2; CE: 25eV; R=7000; [M+H]+
Name: Bis(2-chloroethyl) phosphate
Name: bis(2-chloroethyl) hydrogen phosphate
Formula: C4H9Cl2O4P
Exact mass: 221.9616
SMILES: C(CCl)OP(=O)(O)OCCCl
InChI: InChI=1S/C4H9Cl2O4P/c5-1-3-9-11(7,8)10-4-2-6/h1-4H2,(H,7,8)
Instrument: Agilent 6560 QTOF
Instrument type: LC-ESI-QTOF
Ms type: MS2
Ion mode: POSITIVE
Ionization: ESI
Fragmentation mode: CID
Collision energy: 25 eV
Resolution: 7000
Column name: ZORBAX Extend-C18 3.5um, 2.1x50mm, Agilent Technologies
Retention time: 0.932 min
Base peak: 222.9685
Precursor m/z: 222.9688
Precursor type: [M+H]+
Precursor intensity: 5240.8
m/z	relative intensity	assigned
62.9993	993	CH4OP+
80.9729	191	H2O3P+
98.9839	999	H4O4P+
