Mass spectrum: Eicosapentaenoic acid; LC-ESI-QTOF; MS2; CE: 20eV; R=7000; [M-H]-
Name: Eicosapentaenoic acid
Name: (5Z,8Z,11Z,14Z,17Z)-icosa-5,8,11,14,17-pentaenoic acid
Formula: C20H30O2
Exact mass: 302.2246
SMILES: CC\C=C/C\C=C/C\C=C/C\C=C/C\C=C/CCCC(O)=O
InChI: InChI=1S/C20H30O2/c1-2-3-4-5-6-7-8-9-10-11-12-13-14-15-16-17-18-19-20(21)22/h3-4,6-7,9-10,12-13,15-16H,2,5,8,11,14,17-19H2,1H3,(H,21,22)/b4-3-,7-6-,10-9-,13-12-,16-15-
Instrument: Agilent 6560 QTOF
Instrument type: LC-ESI-QTOF
Ms type: MS2
Ion mode: NEGATIVE
Ionization: ESI
Fragmentation mode: CID
Collision energy: 20 eV
Resolution: 7000
Column name: N/A
Retention time: 0.192 min
Base peak: 357.1892
Precursor m/z: 301.2173
Precursor type: [M-H]-
Precursor intensity: 17936
m/z	relative intensity	assigned
95.0489	445	C6H7O-
149.1332	820	C11H17-
161.1301	336	C12H17-
194.0708	147	C14H10O-
201.1649	316	C15H21-
217.1212	169	C14H17O2-
227.1066	209	C15H15O2-
257.2288	782	C19H29-
268.142	173	C18H20O2-
301.2142	999	C20H29O2-
