Mass spectrum: Eicosapentaenoic acid; LC-ESI-QTOF; MS2; CE: 10eV; R=7000; [M-H]-
Name: Eicosapentaenoic acid
Name: (5Z,8Z,11Z,14Z,17Z)-icosa-5,8,11,14,17-pentaenoic acid
Formula: C20H30O2
Exact mass: 302.2246
SMILES: CC\C=C/C\C=C/C\C=C/C\C=C/C\C=C/CCCC(O)=O
InChI: InChI=1S/C20H30O2/c1-2-3-4-5-6-7-8-9-10-11-12-13-14-15-16-17-18-19-20(21)22/h3-4,6-7,9-10,12-13,15-16H,2,5,8,11,14,17-19H2,1H3,(H,21,22)/b4-3-,7-6-,10-9-,13-12-,16-15-
Instrument: Agilent 6560 QTOF
Instrument type: LC-ESI-QTOF
Ms type: MS2
Ion mode: NEGATIVE
Ionization: ESI
Fragmentation mode: CID
Collision energy: 10 eV
Resolution: 7000
Column name: N/A
Retention time: 0.187 min
Base peak: 357.1891
Precursor m/z: 301.2173
Precursor type: [M-H]-
Precursor intensity: 40316
m/z	relative intensity	assigned
71.0145	41	C3H3O2-
83.0504	24	C5H7O-
135.1176	19	C10H15-
187.145	41	C14H19-
203.1774	141	C15H23-
215.1782	10	C16H23-
223.1701	18	C14H23O2-
257.2262	288	C19H29-
273.1818	54	C18H25O2-
283.2011	18	C20H27O-
301.2166	999	C20H29O2-
