Mass spectrum: 2-(Methylthio)benzothiazole; LC-ESI-QTOF; MS2; CE: 35eV; R=7000; [M+H]+
Name: 2-(Methylthio)benzothiazole
Name: 2-methylsulfanyl-1,3-benzothiazole
Formula: C8H7NS2
Exact mass: 181.002
SMILES: CSC1=NC2=CC=CC=C2S1
InChI: InChI=1S/C8H7NS2/c1-10-8-9-6-4-2-3-5-7(6)11-8/h2-5H,1H3
Instrument: Agilent 6560 QTOF
Instrument type: LC-ESI-QTOF
Ms type: MS2
Ion mode: POSITIVE
Ionization: ESI
Fragmentation mode: CID
Collision energy: 35 eV
Resolution: 7000
Column name: ZORBAX Extend-C18 3.5um, 2.1x50mm, Agilent Technologies
Retention time: 5.564 min
Base peak: 182.0093
Precursor m/z: 182.0093
Precursor type: [M+H]+
Precursor intensity: 25105.88
m/z	relative intensity	assigned
63.9438	69	S2+
64.0301	62	C5H4+
65.0389	109	C5H5+
68.9801	47	C3HS+
70.9962	45	C3H3S+
77.0394	41	C6H5+
91.0414	349	C6H5N+
96.0037	173	C5H4S+
103.0404	46	C7H5N+
108.0027	150	C6H4S+
109.0103	568	C6H5S+
122.0057	68	C6H4NS+
123.013	416	C6H5NS+
135.0138	150	C7H5NS+
139.9753	67	C6H4S2+
166.9859	999	C7H5NS2+
182.0079	52	C8H8NS2+
