Mass spectrum: Bisphenol AF; LC-ESI-QTOF; MS2; CE: 5eV; R=7000; [M-H]-
Name: Bisphenol AF
Name: 4-[1,1,1,3,3,3-hexafluoro-2-(4-hydroxyphenyl)propan-2-yl]phenol
Formula: C15H10F6O2
Exact mass: 336.0585
SMILES: C1=CC(=CC=C1C(C2=CC=C(C=C2)O)(C(F)(F)F)C(F)(F)F)O
InChI: InChI=1S/C15H10F6O2/c16-14(17,18)13(15(19,20)21,9-1-5-11(22)6-2-9)10-3-7-12(23)8-4-10/h1-8,22-23H
Instrument: Agilent 6560 QTOF
Instrument type: LC-ESI-QTOF
Ms type: MS2
Ion mode: NEGATIVE
Ionization: ESI
Fragmentation mode: CID
Collision energy: 5 eV
Resolution: 7000
Retention time: 0.188 min
Base peak: 335.0527
Precursor m/z: 335.0512
Precursor type: [M-H]-
Precursor intensity: 472846.75
m/z	relative intensity	assigned
68.996	11	CF3-
111.0237	1	CH4F5-
161.0221	5	C7H4F3O-
169.0444	1	C4H7F6-
195.0451	1	C13H7O2-
197.0404	3	C5H7F6O-
217.0453	1	C8H7F6-
225.0356	2	C6H7F6O2-
244.0302	1	C12H5F5-
245.0432	2	C14H7F2O2-
265.048	503	C14H8F3O2-
266.0516	33	C12H8F6-
276.0366	1	C13H6F6-
315.0453	9	C15H8F5O2-
335.0512	999	C15H9F6O2-
