Mass spectrum: trans-2-octenoyl-L-carnitine; LC-ESI-QTOF; MS2; CE: 40eV; R=5000; [M+H]+
Name: trans-2-octenoyl-L-carnitine
Name: (2E)-octenoylcarnitine
Name: 3-[(E)-oct-2-enoyl]oxy-4-(trimethylazaniumyl)butanoate
Formula: C15H27NO4
Exact mass: 285.1940
SMILES: O=C(OC(CC([O-])=O)C[N+](C)(C)C)/C=C/CCCCC
InChI: InChI=1S/C15H27NO4/c1-5-6-7-8-9-10-15(19)20-13(11-14(17)18)12-16(2,3)4/h9-10,13H,5-8,11-12H2,1-4H3/b10-9+
Instrument: Agilent 6530 QTOF
Instrument type: LC-ESI-QTOF
Ms type: MS2
Ion mode: POSITIVE
Ionization: ESI
Fragmentation mode: CID
Collision energy: 40 eV
Resolution: 5000
Column name: N/A
Retention time: 0.216 min
Base peak: 121.0508
Precursor m/z: 286.2013
Precursor type: [M+H]+
Precursor intensity: 313837
m/z	relative intensity	assigned
41.0385	1	C3H5+
55.0187	187	C3H3O+
57.0346	95	C3H5O+
58.0663	18	C3H8N+
59.0715	13	H11O3+
60.0817	34	C3H10N+
69.0702	7	C5H9+
73.0299	63	C3H5O2+
79.0552	5	C6H7+
81.0689	2	C6H9+
85.0289	999	C4H5O2+
86.1555	2	C3H20NO+
87.2001	1	C4H25N+
129.0814	12	C6H11NO2+
144.0985	5	C7H14NO2+
