Mass spectrum: Bisphenol S; LC-ESI-QTOF; MS2; CE: 20eV; R=7000; [M-H]-
Name: Bisphenol S
Name: 4,4`-Sulfonyldiphenol
Name: 4-(4-hydroxyphenyl)sulfonylphenol
Formula: C12H10O4S
Exact mass: 250.0300
SMILES: C1=CC(=CC=C1O)S(=O)(=O)C2=CC=C(C=C2)O
InChI: InChI=1S/C12H10O4S/c13-9-1-5-11(6-2-9)17(15,16)12-7-3-10(14)4-8-12/h1-8,13-14H
Instrument: Agilent 6560 QTOF
Instrument type: LC-ESI-QTOF
Ms type: MS2
Ion mode: NEGATIVE
Ionization: ESI
Fragmentation mode: CID
Collision energy: 20 eV
Resolution: 7000
Retention time: 0.189 min
Base peak: 249.0234
Precursor m/z: 249.0227
Precursor type: [M-H]-
Precursor intensity: 228716.82
m/z	relative intensity	assigned
63.9633	5	O2S-
92.0269	375	C6H4O-
93.0339	16	C6H5O-
108.0215	999	C6H4O2-
117.0343	3	C8H5O-
139.994	6	C6H4O2S-
143.0489	2	C10H7O-
155.9886	131	C6H4O3S-
156.9934	2	C9HO3-
157.0656	6	C11H9O-
184.0531	47	C12H8O2-
185.0613	27	C12H9O2-
249.0227	301	C12H9O4S-
