Mass spectrum: Bis(2-butoxyethyl) 3?-hydroxy-2-butoxyethyl phosphate ; LC-ESI-QTOF; MS2; CE: 30eV; R=7000; [M+Na]+
Name: Bis(2-butoxyethyl) 3?-hydroxy-2-butoxyethyl phosphate 
Name: Bis(2-butoxyethyl) 3-hydroxyl-2-butoxyethyl phosphate
Name: bis(2-butoxyethyl) 2-(3-hydroxybutoxy)ethyl phosphate
Formula: C18H39O8P
Exact mass: 414.2383
SMILES: CCCCOCCOP(=O)(OCCOCCCC)OCCOCCC(C)O
InChI: InChI=1S/C18H39O8P/c1-4-6-9-21-12-15-24-27(20,25-16-13-22-10-7-5-2)26-17-14-23-11-8-18(3)19/h18-19H,4-17H2,1-3H3
Instrument: Agilent 6560 QTOF
Instrument type: LC-ESI-QTOF
Ms type: MS2
Ion mode: POSITIVE
Ionization: ESI
Fragmentation mode: CID
Collision energy: 30 eV
Resolution: 7000
Retention time: 0.148 min
Base peak: 415.2481
Precursor m/z: 437.2275
Precursor type: [M+Na]+
Precursor intensity: 76160.26
m/z	relative intensity	assigned
57.0708	18	C4H9+
59.0484	17	C3H7O+
73.0646	44	C4H9O+
120.9659	97	H3NaO4P+
132.088	12	CH18NaO3P+
139.0734	109	CH16O5P+
141.0881	35	C6H14NaO2+
146.9813	681	C2H5NaO4P+
157.0833	999	C6H14NaO3+
158.0862	30	C8H15OP+
164.9924	127	C2H7NaO5P+
203.0442	31	C6H13NaO4P+
219.0393	242	C6H13NaO5P+
221.0542	297	C6H15NaO5P+
237.0489	710	C6H15NaO6P+
238.054	38	C15H11OP+
263.0676	22	C15H12NaO3+
321.144	62	C12H27NaO6P+
337.1382	537	C12H27NaO7P+
338.1407	19	C17H22O7+
437.2264	261	C18H39NaO8P+
