Mass spectrum: TYROSINE; LC-ESI-QTOF; MS2; CE: 10eV; R=5000; [M+H]+
Name: TYROSINE
Name: (2S)-2-amino-3-(4-hydroxyphenyl)propanoic acid
Formula: C9H11NO3
Exact mass: 181.0739
SMILES: N[C@@H](CC1=CC=C(O)C=C1)C(O)=O
InChI: InChI=1S/C9H11NO3/c10-8(9(12)13)5-6-1-3-7(11)4-2-6/h1-4,8,11H,5,10H2,(H,12,13)/t8-/m0/s1
Instrument: Agilent 6530 QTOF
Instrument type: LC-ESI-QTOF
Ms type: MS2
Ion mode: POSITIVE
Ionization: ESI
Fragmentation mode: CID
Collision energy: 10 eV
Resolution: 5000
Column name: N/A
Retention time: 0.222 min
Base peak: 202.1799
Precursor m/z: 182.0812
Precursor type: [M+H]+
Precursor intensity: 245855
m/z	relative intensity	assigned
65.037	24	C5H5+
75.0805	2	C4H11O+
77.0404	43	C6H5+
91.0544	370	C7H7+
95.0494	235	C6H7O+
102.089	10	C5H12NO+
103.0519	5	C8H7+
107.0484	76	C7H7O+
109.064	28	C7H9O+
117.0574	5	C8H7N+
119.0488	400	C8H7O+
121.0628	19	C8H9O+
123.0442	511	C7H7O2+
136.075	999	C8H10NO+
147.0414	173	C9H7O2+
165.0552	260	C9H9O3+
182.0819	104	C9H12NO3+
