Mass spectrum: URIDINEDIPHOSPHATENACETYLGALACTOSAMINE; LC-ESI-QTOF; MS2; CE: 10eV; R=5000; [M+H]+
Name: URIDINEDIPHOSPHATENACETYLGALACTOSAMINE
Name: Uridine diphosphate-N-acetylgalactosamine
Name: [3-acetamido-4,5-dihydroxy-6-(hydroxymethyl)oxan-2-yl] [[5-(2,4-dioxopyrimidin-1-yl)-3,4-dihydroxyoxolan-2-yl]methoxy-hydroxyphosphoryl] hydrogen phosphate
Formula: C17H27N3O17P2
Exact mass: 607.0816
SMILES: CC(O)=NC1C(OP(O)(=O)OP(O)(=O)OCC2OC(C(O)C2O)N2C=CC(O)=NC2=O)OC(CO)C(O)C1O
InChI: InChI=1S/C17H27N3O17P2/c1-6(22)18-10-13(26)11(24)7(4-21)35-16(10)36-39(31,32)37-38(29,30)33-5-8-12(25)14(27)15(34-8)20-3-2-9(23)19-17(20)28/h2-3,7-8,10-16,21,24-27H,4-5H2,1H3,(H,18,22)(H,29,30)(H,31,32)(H,19,23,28)
Instrument: Agilent 6530 QTOF
Instrument type: LC-ESI-QTOF
Ms type: MS2
Ion mode: POSITIVE
Ionization: ESI
Fragmentation mode: CID
Collision energy: 10 eV
Resolution: 5000
Column name: N/A
Retention time: 0.320 min
Base peak: 121.0508
Precursor m/z: 608.0888
Precursor type: [M+H]+
Precursor intensity: 39693
m/z	relative intensity	assigned
60.209	5	H28O2+
69.0336	16	C4H5O+
69.0789	1	CH11NO2+
90.9832	14	CH2NO2P+
91.0458	1	H13OP2+
96.0425	10	C2H8O4+
97.0282	62	C5H5O2+
116.1977	4	C2H28O4+
126.0576	41	H16O3P2+
138.0554	246	C3H11N2O2P+
144.0576	30	C2H14N2OP2+
159.9588	4	C3H2N2O2P2+
167.9633	5	C5H2N2OP2+
168.0633	62	CH15NO6P+
174.1096	2	C5H18O6+
186.0768	59	H18N3O4P2+
187.9554	14	N2O10+
188.9939	11	C4H4N3O4P+
194.0206	7	C9H6O5+
194.0755	1	H19O9P+
204.0883	999	C2H22O6P2+
205.2085	4	C11H27NO2+
205.9345	6	HNO10P+
205.9853	1	CH8N2O6P2+
207.0826	6	C3H15N2O8+
223.2129	5	C14H27N2+
245.2193	2	C17H27N+
276.1262	3	C5H24O12+
282.107	2	C7H23O9P+
292.9658	13	C3H6N2O12P+
362.1031	5	C4H27O16P+
362.1525	1	C15H28N2O4P2+
367.9126	1	C8O17+
371.0806	16	C10H17N3O12+
383.0068	5	C13H11N3O7P2+
392.1649	4	C12H28N2O12+
405.0016	7	C9H11NO17+
420.9631	1	C11H5N2O16+
443.9125	4	C10H6O16P2+
445.0747	1	C10H25NO14P2+
462.902	4	C15HN2O12P2+
493.1447	1	C14H27N3O16+
506.0974	1	C16H28O14P2+
539.9735	1	C16H14O17P2+
608.0935	41	C17H28N3O17P2+
