Mass spectrum: TRYPTAMINE; LC-ESI-QTOF; MS2; CE: 10eV; R=5000; [M+H]+
Name: TRYPTAMINE
Name: 2-(1H-indol-3-yl)ethanamine
Formula: C10H12N2
Exact mass: 160.1000
SMILES: NCCC1=CNC2=CC=CC=C12
InChI: InChI=1S/C10H12N2/c11-6-5-8-7-12-10-4-2-1-3-9(8)10/h1-4,7,12H,5-6,11H2
Instrument: Agilent 6530 QTOF
Instrument type: LC-ESI-QTOF
Ms type: MS2
Ion mode: POSITIVE
Ionization: ESI
Fragmentation mode: CID
Collision energy: 10 eV
Resolution: 5000
Column name: N/A
Retention time: 0.217 min
Base peak: 144.0825
Precursor m/z: 161.1073
Precursor type: [M+H]+
Precursor intensity: 3257833
m/z	relative intensity	assigned
65.0398	1	C5H5+
67.0421	1	C4H5N+
77.0395	5	C6H5+
89.0391	2	C7H5+
90.0483	1	C7H6+
91.0561	13	C7H7+
103.0553	4	C8H7+
115.0549	30	C9H7+
117.0701	87	C9H9+
118.0656	5	C8H8N+
127.0554	44	C10H7+
129.0586	2	C9H7N+
132.0803	4	C9H10N+
142.067	3	C10H8N+
143.0745	64	C10H9N+
144.0822	999	C10H10N+
145.0865	5	C10H11N+
161.1085	3	C10H13N2+
