Mass spectrum: Para-hydroxy triphenyl phosphate; LC-ESI-QTOF; MS2; CE: 30eV; R=7000; [M+H]+
Name: Para-hydroxy triphenyl phosphate
Name: 4-Hydroxyphenyl diphenyl phosphate
Name: (4-hydroxyphenyl) diphenyl phosphate
Formula: C18H15O5P
Exact mass: 342.0657
SMILES: C1=CC=C(C=C1)OP(=O)(OC2=CC=CC=C2)OC3=CC=C(C=C3)O
InChI: InChI=1S/C18H15O5P/c19-15-11-13-18(14-12-15)23-24(20,21-16-7-3-1-4-8-16)22-17-9-5-2-6-10-17/h1-14,19H
Instrument: Agilent 6560 QTOF
Instrument type: LC-ESI-QTOF
Ms type: MS2
Ion mode: POSITIVE
Ionization: ESI
Fragmentation mode: CID
Collision energy: 30 eV
Resolution: 7000
Retention time: 0.148 min
Base peak: 343.0733
Precursor m/z: 343.073
Precursor type: [M+H]+
Precursor intensity: 114953.19
m/z	relative intensity	assigned
51.0239	34	C4H3+
65.0391	343	C5H5+
77.0389	999	C6H5+
81.0332	104	C5H5O+
93.0335	149	C6H5O+
94.0395	21	C6H6O+
95.0494	40	C6H7O+
109.0283	649	C6H5O2+
110.0358	20	C6H6O2+
111.0444	43	C6H7O2+
115.0548	268	C9H7+
128.0614	18	C10H8+
138.9939	21	C6H4O2P+
141.0096	149	C6H6O2P+
141.0696	897	C11H9+
142.077	26	C4H15O3P+
151.0541	76	C12H7+
152.0618	428	C12H8+
153.0696	356	C12H9+
154.0745	17	C5H15O3P+
154.9883	58	C6H4O3P+
155.9976	163	C6H5O3P+
159.0373	15	C10H8P+
168.0572	151	C12H8O+
169.0641	147	C12H9O+
170.0719	50	C12H10O+
175.0156	66	C6H8O4P+
184.0517	103	C12H8O2+
185.0589	23	C12H9O2+
187.0741	17	C5H16O5P+
191.0124	18	C13H3O2+
202.0771	94	C16H10+
203.0278	33	C11H8O2P+
215.0258	361	C12H8O2P+
215.0872	39	C17H11+
226.0783	124	C18H10+
227.0848	15	C18H11+
228.0934	29	C18H12+
231.0202	296	C12H8O3P+
232.0267	36	C12H9O3P+
233.0359	38	C12H10O3P+
245.0933	16	C18H13O+
249.0304	103	C12H10O4P+
250.0384	20	C12H11O4P+
251.0457	172	C12H12O4P+
260.082	24	C18H12O2+
267.0416	462	C12H12O5P+
307.0526	20	C18H12O3P+
343.0725	209	C18H16O5P+
