Mass spectrum: N-Palmitoyl-D-sphingosine; LC-ESI-QTOF; MS2; CE: 40eV; R=7000; [M-H]-
Name: N-Palmitoyl-D-sphingosine
Name: N-Palmitoylsphingosine
Name: N-[(E,2S,3R)-1,3-dihydroxyoctadec-4-en-2-yl]hexadecanamide
Formula: C34H67NO3
Exact mass: 537.5121
SMILES: [H][C@@](CO)(NC(=O)CCCCCCCCCCCCCCC)[C@H](O)\C=C\CCCCCCCCCCCCC
InChI: InChI=1S/C34H67NO3/c1-3-5-7-9-11-13-15-17-19-21-23-25-27-29-33(37)32(31-36)35-34(38)30-28-26-24-22-20-18-16-14-12-10-8-6-4-2/h27,29,32-33,36-37H,3-26,28,30-31H2,1-2H3,(H,35,38)/b29-27+/t32-,33+/m0/s1
Instrument: Agilent 6560 QTOF
Instrument type: LC-ESI-QTOF
Ms type: MS2
Ion mode: NEGATIVE
Ionization: ESI
Fragmentation mode: CID
Collision energy: 40 eV
Resolution: 7000
Column name: N/A
Retention time: 0.147 min
Base peak: 596.5277
Precursor m/z: 536.5048
Precursor type: [M-H]-
Precursor intensity: 41160
m/z	relative intensity	assigned
94.0287	44	C5H4NO-
107.0492	23	C7H7O-
152.9948	53	C10HO2-
206.0581	14	C14H8NO-
209.1921	14	C14H25O-
235.2045	44	C16H27O-
237.2226	824	C16H29O-
238.2222	72	C15H28NO-
239.2362	27	C16H31O-
242.3839	6	C15H48N-
253.2551	70	C17H33O-
254.2497	162	C16H32NO-
255.2312	84	C16H31O2-
266.2474	126	C17H32NO-
266.2994	11	C19H38-
268.2629	38	C17H34NO-
280.2648	999	C18H34NO-
294.2363	51	C22H30-
295.253	18	C18H33NO2-
296.3857	7	C18H50NO-
297.1469	15	C19H21O3-
336.3792	10	C24H48-
450.4737	10	C30H60NO-
459.4543	17	C32H59O-
488.4807	110	C33H62NO-
489.4905	19	C33H63NO-
504.4775	65	C33H62NO2-
