Mass spectrum: Lauric acid; LC-ESI-QTOF; MS2; CE: 20eV; R=7000; [M-H]-
Name: Lauric acid
Name: dodecanoic acid
Formula: C12H24O2
Exact mass: 200.1776
SMILES: CCCCCCCCCCCC(=O)O
InChI: InChI=1S/C12H24O2/c1-2-3-4-5-6-7-8-9-10-11-12(13)14/h2-11H2,1H3,(H,13,14)
Instrument: Agilent 6560 QTOF
Instrument type: LC-ESI-QTOF
Ms type: MS2
Ion mode: NEGATIVE
Ionization: ESI
Fragmentation mode: CID
Collision energy: 20 eV
Resolution: 7000
Column name: N/A
Retention time: 0.143 min
Base peak: 199.1715
Precursor m/z: 199.1704
Precursor type: [M-H]-
Precursor intensity: 7891
m/z	relative intensity	assigned
181.16	612	C12H21O-
199.1697	999	C12H23O2-
