Mass spectrum: 2-(Methylthio)benzothiazole; LC-ESI-QTOF; MS2; CE: 50eV; R=7000; [M+H]+
Name: 2-(Methylthio)benzothiazole
Name: 2-methylsulfanyl-1,3-benzothiazole
Formula: C8H7NS2
Exact mass: 181.002
SMILES: CSC1=NC2=CC=CC=C2S1
InChI: InChI=1S/C8H7NS2/c1-10-8-9-6-4-2-3-5-7(6)11-8/h2-5H,1H3
Instrument: Agilent 6560 QTOF
Instrument type: LC-ESI-QTOF
Ms type: MS2
Ion mode: POSITIVE
Ionization: ESI
Fragmentation mode: CID
Collision energy: 50 eV
Resolution: 7000
Column name: ZORBAX Extend-C18 3.5um, 2.1x50mm, Agilent Technologies
Retention time: 5.560 min
Base peak: 182.0093
Precursor m/z: 182.0093
Precursor type: [M+H]+
Precursor intensity: 14678.02
m/z	relative intensity	assigned
63.0232	268	C5H3+
65.0392	999	C5H5+
68.98	768	C3HS+
69.9875	180	C3H2S+
76.0312	192	C6H4+
77.0383	160	C6H5+
78.0334	73	C5H4N+
81.9868	78	C4H2S+
84.003	82	C4H4S+
92.9795	87	C5HS+
94.9954	104	C5H3S+
96.0036	187	C5H4S+
101.9464	67	C2NS2+
108.0021	205	C6H4S+
109.0108	169	C6H5S+
122.0039	79	C6H4NS+
123.0137	87	C6H5NS+
140.9687	72	C5H3NS2+
