Mass spectrum: Aldosterone; LC-ESI-QTOF; MS2; CE: 10eV; R=7000; [M-H]-
Name: Aldosterone
Name: (8S,9S,10R,11S,13R,14S,17S)-11-hydroxy-17-(2-hydroxyacetyl)-10-methyl-3-oxo-1,2,6,7,8,9,11,12,14,15,16,17-dodecahydrocyclopenta[a]phenanthrene-13-carbaldehyde
Formula: C21H28O5
Exact mass: 360.1937
SMILES: C[C@]12CCC(=O)C=C1CC[C@@H]3[C@@H]2[C@H](C[C@]4([C@H]3CC[C@@H]4C(=O)CO)C=O)O
InChI: InChI=1S/C21H28O5/c1-20-7-6-13(24)8-12(20)2-3-14-15-4-5-16(18(26)10-22)21(15,11-23)9-17(25)19(14)20/h8,11,14-17,19,22,25H,2-7,9-10H2,1H3/t14-,15-,16+,17-,19+,20-,21+/m0/s1
Instrument: Agilent 6560 QTOF
Instrument type: LC-ESI-QTOF
Ms type: MS2
Ion mode: NEGATIVE
Ionization: ESI
Fragmentation mode: CID
Collision energy: 10 eV
Resolution: 7000
Column name: N/A
Retention time: 0.170 min
Base peak: 223.0289
Precursor m/z: 359.1864
Precursor type: [M-H]-
Precursor intensity: 263670
m/z	relative intensity	assigned
123.0822	60	C8H11O-
137.0955	8	C9H13O-
138.0878	3	C5H14O4-
161.0964	16	C11H13O-
161.1298	1	C12H17-
174.0655	5	C11H10O2-
175.0724	4	C11H11O2-
187.1135	6	C13H15O-
187.1517	1	C14H19-
187.9925	6	C13O2-
189.0924	424	C12H13O2-
203.1429	2	C14H19O-
214.1338	6	C15H18O-
221.1572	12	C14H21O2-
236.1062	9	C13H16O4-
241.1594	4	C17H21O-
252.1529	6	C18H20O-
253.1578	14	C18H21O-
255.177	74	C18H23O-
256.1433	8	C17H20O2-
256.1785	6	C18H24O-
257.1543	5	C17H21O2-
259.1721	12	C17H23O2-
264.1494	13	C19H20O-
267.1381	4	C18H19O2-
267.1771	10	C19H23O-
268.1506	3	C18H20O2-
269.1555	59	C18H21O2-
270.1621	3	C18H22O2-
271.1718	118	C18H23O2-
272.1737	7	C18H24O2-
273.1851	4	C18H25O2-
279.1742	14	C20H23O-
281.1529	7	C19H21O2-
282.1643	4	C19H22O2-
283.1706	10	C19H23O2-
285.1864	50	C19H25O2-
286.1896	9	C19H26O2-
287.1658	74	C18H23O3-
287.1977	24	C19H27O2-
288.1702	7	C18H24O3-
295.1699	4	C20H23O2-
297.1846	89	C20H25O2-
298.1609	4	C19H22O3-
298.1887	17	C20H26O2-
299.1637	2	C19H23O3-
300.0364	5	C19H8O4-
301.1816	46	C19H25O3-
303.1977	6	C19H27O3-
311.0745	2	C21H11O3-
313.182	80	C20H25O3-
315.1974	116	C20H27O3-
329.0846	2	C21H13O4-
329.1766	8	C20H25O4-
330.1773	2	C20H26O4-
331.192	999	C20H27O4-
341.1768	11	C21H25O4-
359.1866	535	C21H27O5-
