Mass spectrum: TAURINE; LC-ESI-QTOF; MS2; CE: 20eV; R=5000; [M+H]+
Name: TAURINE
Name: 2-aminoethanesulfonic acid
Formula: C2H7NO3S
Exact mass: 125.0147
SMILES: NCCS(O)(=O)=O
InChI: InChI=1S/C2H7NO3S/c3-1-2-7(4,5)6/h1-3H2,(H,4,5,6)
Instrument: Agilent 6530 QTOF
Instrument type: LC-ESI-QTOF
Ms type: MS2
Ion mode: POSITIVE
Ionization: ESI
Fragmentation mode: CID
Collision energy: 20 eV
Resolution: 5000
Column name: N/A
Retention time: 0.222 min
Base peak: 121.0508
Precursor m/z: 126.0219
Precursor type: [M+H]+
Precursor intensity: 49061
m/z	relative intensity	assigned
44.0498	999	C2H6N+
46.0655	6	C2H8N+
64.9695	108	HO2S+
80.0459	11	C2H8O3+
108.0095	18	C2H6NO2S+
108.9932	16	C2H5O3S+
