Mass spectrum: CL 15_0_15_0_15_0_16_1; LC-ESI-QTOF; MS2; CE: 20eV; R=7000; [M-H]-
Name: CL 15_0_15_0_15_0_16_1
Name: 1`-[1,2-dipentadecanoyl-sn-glycero-3-phospho],3`-[1-pentadecanoyl,2-(9Z-hexadecenoyl)-sn-glycero-3-phospho]-rac-glycerol
Name: [(2R)-1-[[3-[[(2R)-2,3-di(pentadecanoyloxy)propoxy]-hydroxyphosphoryl]oxy-2-hydroxypropoxy]-hydroxyphosphoryl]oxy-3-pentadecanoyloxypropan-2-yl] (Z)-hexadec-9-enoate
Formula: C70H134O17P2
Exact mass: 1308.9096
SMILES: P(OC[C@]([H])(OC(CCCCCCCCCCCCCC)=O)COC(CCCCCCCCCCCCCC)=O)(O)(OCC(O)([H])COP(OC[C@]([H])(OC(CCCCCCC/C=C\CCCCCC)=O)COC(CCCCCCCCCCCCCC)=O)(O)=O)=O
InChI: InChI=1S/C70H134O17P2/c1-5-9-13-17-21-25-29-33-37-41-45-49-53-57-70(75)87-66(61-81-68(73)55-51-47-43-39-35-31-27-23-19-15-11-7-3)63-85-89(78,79)83-59-64(71)58-82-88(76,77)84-62-65(86-69(74)56-52-48-44-40-36-32-28-24-20-16-12-8-4)60-80-67(72)54-50-46-42-38-34-30-26-22-18-14-10-6-2/h25,29,64-66,71H,5-24,26-28,30-63H2,1-4H3,(H,76,77)(H,78,79)/b29-25-/t64?,65-,66-/m1/s1
Instrument: Agilent 6560 QTOF
Instrument type: LC-ESI-QTOF
Ms type: MS2
Ion mode: NEGATIVE
Ionization: ESI
Fragmentation mode: CID
Collision energy: 20 eV
Resolution: 7000
Column name: N/A
Retention time: 0.308 min
Base peak: 980.0164
Precursor m/z: 1307.9023
Precursor type: [M-H]-
Precursor intensity: 24520
m/z	relative intensity	assigned
90.9868	55	C2H5P2-
160.7655	24	CH100O3-
179.7717	80	CH105P2-
203.6959	41	CH97O2P2-
207.5705	19	H80O6P-
241.2184	59	C15H29O2-
275.6095	74	CH89O7P2-
278.7663	38	C15H98-
335.8821	30	C13H115O4-
361.3457	217	C18H50O4P-
413.4942	273	C25H65O3-
413.5402	34	C5H82O15P-
422.263	26	C10H48O12P2-
467.2061	39	C31H33P2-
559.9886	56	C37H5O5P-
575.9773	176	C44HOP-
618.6374	75	C35H86O7-
619.4268	54	C29H63O13-
630.8214	39	C20H120O13P2-
633.2614	29	C36H42O8P-
736.9401	39	C43H124O6-
877.6069	54	C61H82O2P-
920.5	35	C56H73O9P-
1072.4639	44	C62H74O12P2-
1108.3722	26	C66H62O12P2-
1167.005	121	C68H17O17P2-
1241.679	184	C67H103O17P2-
1307.8985	999	C70H133O17P2-
