Mass spectrum: 4-((4-(Allyloxy)phenyl)sulfonyl)phenol; LC-ESI-QTOF; MS2; CE: 20eV; R=7000; [M-H]-
Name: 4-((4-(Allyloxy)phenyl)sulfonyl)phenol
Name: 4-(4-prop-2-enoxyphenyl)sulfonylphenol
Formula: C15H14O4S
Exact mass: 290.0613
SMILES: C=CCOC1=CC=C(C=C1)S(=O)(=O)C2=CC=C(C=C2)O
InChI: InChI=1S/C15H14O4S/c1-2-11-19-13-5-9-15(10-6-13)20(17,18)14-7-3-12(16)4-8-14/h2-10,16H,1,11H2
Instrument: Agilent 6560 QTOF
Instrument type: LC-ESI-QTOF
Ms type: MS2
Ion mode: NEGATIVE
Ionization: ESI
Fragmentation mode: CID
Collision energy: 20 eV
Resolution: 7000
Retention time: 0.153 min
Base peak: 289.0548
Precursor m/z: 289.054
Precursor type: [M-H]-
Precursor intensity: 299288.09
m/z	relative intensity	assigned
82.9966	2	C4H3S-
91.0186	18	C6H3O-
92.0271	17	C6H4O-
108.0217	58	C6H4O2-
117.973	1	C3H2O3S-
128.0633	17	C10H8-
130.0419	1	C9H6O-
138.9853	2	C6H3O2S-
139.9932	34	C6H4O2S-
143.0502	8	C10H7O-
145.0268	1	C9H5O2-
148.0528	1	C9H8O2-
155.9892	8	C6H4O3S-
156.0582	81	C11H8O-
183.0445	10	C12H7O2-
184.053	413	C12H8O2-
185.057	10	C12H9O2-
199.0397	7	C12H7O3-
220.0199	5	C11H8O3S-
221.0244	1	C14H5O3-
247.0067	4	C12H7O4S-
248.0148	999	C12H8O4S-
249.018	28	C15H5O4-
