Mass spectrum: 4-((4-(Allyloxy)phenyl)sulfonyl)phenol; LC-ESI-QTOF; MS2; CE: 25eV; R=7000; [M-H]-
Name: 4-((4-(Allyloxy)phenyl)sulfonyl)phenol
Name: 4-(4-prop-2-enoxyphenyl)sulfonylphenol
Formula: C15H14O4S
Exact mass: 290.0613
SMILES: C=CCOC1=CC=C(C=C1)S(=O)(=O)C2=CC=C(C=C2)O
InChI: InChI=1S/C15H14O4S/c1-2-11-19-13-5-9-15(10-6-13)20(17,18)14-7-3-12(16)4-8-14/h2-10,16H,1,11H2
Instrument: Agilent 6560 QTOF
Instrument type: LC-ESI-QTOF
Ms type: MS2
Ion mode: NEGATIVE
Ionization: ESI
Fragmentation mode: CID
Collision energy: 25 eV
Resolution: 7000
Retention time: 0.153 min
Base peak: 289.0548
Precursor m/z: 289.054
Precursor type: [M-H]-
Precursor intensity: 211150.92
m/z	relative intensity	assigned
63.9631	20	O2S-
82.9962	13	C4H3S-
91.0189	79	C6H3O-
92.027	67	C6H4O-
108.0217	193	C6H4O2-
110.9917	7	C5H3OS-
128.0627	62	C10H8-
129.0325	3	C9H5O-
138.9852	9	C6H3O2S-
139.9937	113	C6H4O2S-
143.0493	12	C10H7O-
155.0484	4	C11H7O-
155.9891	33	C6H4O3S-
156.0578	229	C11H8O-
158.0362	6	C10H6O2-
171.0419	4	C11H7O2-
183.0444	43	C12H7O2-
184.0532	999	C12H8O2-
185.0565	42	C12H9O2-
199.0392	24	C12H7O3-
200.049	8	C12H8O3-
220.0198	23	C11H8O3S-
247.0057	14	C12H7O4S-
248.0151	842	C12H8O4S-
249.018	30	C15H5O4-
