Mass spectrum: N-palmitoyl-D-erythro-sphinganine; LC-ESI-QTOF; MS2; CE: 20eV; R=7000; [M+CH3COO]-
Name: N-palmitoyl-D-erythro-sphinganine
Name: N-(hexadecanoyl)-sphinganine
Name: N-[(2S,3R)-1,3-dihydroxyoctadecan-2-yl]hexadecanamide
Formula: C34H69NO3
Exact mass: 539.5277
SMILES: CCCCCCCCCCCCCCC[C@H]([C@H](CO)NC(=O)CCCCCCCCCCCCCCC)O
InChI: InChI=1S/C34H69NO3/c1-3-5-7-9-11-13-15-17-19-21-23-25-27-29-33(37)32(31-36)35-34(38)30-28-26-24-22-20-18-16-14-12-10-8-6-4-2/h32-33,36-37H,3-31H2,1-2H3,(H,35,38)/t32-,33+/m0/s1
Instrument: Agilent 6560 QTOF
Instrument type: LC-ESI-QTOF
Ms type: MS2
Ion mode: NEGATIVE
Ionization: ESI
Fragmentation mode: CID
Collision energy: 20 eV
Resolution: 7000
Column name: N/A
Retention time: 0.143 min
Base peak: 598.5425
Precursor m/z: 598.5416
Precursor type: [M+CH3COO]-
Precursor intensity: 1064007
m/z	relative intensity	assigned
92.4964	1	CH64O-
237.2233	25	C16H29O-
238.2289	1	C16H30O-
239.2389	20	C16H31O-
240.2418	1	C16H32O-
253.254	2	C17H33O-
254.2501	10	C16H32NO-
255.2341	23	C16H31O2-
268.2649	4	C17H34NO-
280.2648	127	C18H34NO-
281.2689	7	C15H37O4-
296.2592	23	C18H34NO2-
297.2623	1	C15H37O5-
300.2903	10	C18H38NO2-
301.2972	1	C15H41O5-
490.5013	31	C33H64NO-
491.5046	3	C30H67O4-
506.4958	33	C33H64NO2-
507.4978	7	C30H67O5-
520.5136	5	C34H66NO2-
521.5139	1	C31H69O5-
535.0611	2	C36H9NO5-
535.2482	1	C35H35O5-
535.3411	1	C34H47O5-
538.5223	999	C34H68NO3-
539.525	169	C34H69NO3-
