Mass spectrum: Cholesteryl Myristate; LC-ESI-QTOF; MS2; CE: 40eV; R=7000; [M+Na]+
Name: Cholesteryl Myristate
Name: [(3S,8S,9S,10R,13R,14S,17R)-10,13-dimethyl-17-[(2R)-6-methylheptan-2-yl]-2,3,4,7,8,9,11,12,14,15,16,17-dodecahydro-1H-cyclopenta[a]phenanthren-3-yl] tetradecanoate
Formula: C41H72O2
Exact mass: 596.5532
SMILES: CCCCCCCCCCCCCC(=O)O[C@H]1CC[C@@]2([C@H]3CC[C@]4([C@H]([C@@H]3CC=C2C1)CC[C@@H]4[C@H](C)CCCC(C)C)C)C
InChI: InChI=1S/C41H72O2/c1-7-8-9-10-11-12-13-14-15-16-17-21-39(42)43-34-26-28-40(5)33(30-34)22-23-35-37-25-24-36(32(4)20-18-19-31(2)3)41(37,6)29-27-38(35)40/h22,31-32,34-38H,7-21,23-30H2,1-6H3/t32-,34+,35+,36-,37+,38+,40+,41-/m1/s1
Instrument: Agilent 6560 QTOF
Instrument type: LC-ESI-QTOF
Ms type: MS2
Ion mode: POSITIVE
Ionization: ESI
Fragmentation mode: CID
Collision energy: 40 eV
Resolution: 7000
Column name: Direct injection
Retention time: 0.803 min
Base peak: 256.9654
Precursor m/z: 619.5425
Precursor type: [M+Na]+
Precursor intensity: 1830
m/z	relative intensity	assigned
93.0701	999	C7H9+
121.1005	191	C9H13+
147.1183	633	C11H15+
