Mass spectrum: 4-((4-(Allyloxy)phenyl)sulfonyl)phenol; LC-ESI-QTOF; MS2; CE: 15eV; R=7000; [M-H]-
Name: 4-((4-(Allyloxy)phenyl)sulfonyl)phenol
Name: 4-(4-prop-2-enoxyphenyl)sulfonylphenol
Formula: C15H14O4S
Exact mass: 290.0613
SMILES: C=CCOC1=CC=C(C=C1)S(=O)(=O)C2=CC=C(C=C2)O
InChI: InChI=1S/C15H14O4S/c1-2-11-19-13-5-9-15(10-6-13)20(17,18)14-7-3-12(16)4-8-14/h2-10,16H,1,11H2
Instrument: Agilent 6560 QTOF
Instrument type: LC-ESI-QTOF
Ms type: MS2
Ion mode: NEGATIVE
Ionization: ESI
Fragmentation mode: CID
Collision energy: 15 eV
Resolution: 7000
Retention time: 0.132 min
Base peak: 289.0549
Precursor m/z: 289.054
Precursor type: [M-H]-
Precursor intensity: 303010.2
m/z	relative intensity	assigned
91.0198	3	C6H3O-
92.0272	6	C6H4O-
108.0221	16	C6H4O2-
128.0639	4	C10H8-
139.9936	10	C6H4O2S-
148.0507	1	C9H8O2-
155.9898	4	C6H4O3S-
156.0581	18	C11H8O-
174.0137	1	C10H6OS-
183.0457	6	C12H7O2-
184.0533	164	C12H8O2-
185.0574	4	C12H9O2-
199.0393	2	C12H7O3-
220.0195	2	C11H8O3S-
247.0057	1	C12H7O4S-
248.015	999	C12H8O4S-
249.0172	26	C15H5O4-
289.0543	5	C15H13O4S-
