Mass spectrum: S-ADENOSYLHOMOCYSTEINE; LC-ESI-QTOF; MS2; CE: 10eV; R=5000; [M+H]+
Name: S-ADENOSYLHOMOCYSTEINE
Name: S-adenosyl-L-homocysteine
Name: (2S)-2-amino-4-[[(2S,3S,4R,5R)-5-(6-aminopurin-9-yl)-3,4-dihydroxyoxolan-2-yl]methylsulfanyl]butanoic acid
Formula: C14H20N6O5S
Exact mass: 384.1216
SMILES: N[C@@H](CCSC[C@H]1O[C@H]([C@H](O)[C@@H]1O)N1C=NC2=C(N)N=CN=C12)C(O)=O
InChI: InChI=1S/C14H20N6O5S/c15-6(14(23)24)1-2-26-3-7-9(21)10(22)13(25-7)20-5-19-8-11(16)17-4-18-12(8)20/h4-7,9-10,13,21-22H,1-3,15H2,(H,23,24)(H2,16,17,18)/t6-,7+,9+,10+,13+/m0/s1
Instrument: Agilent 6530 QTOF
Instrument type: LC-ESI-QTOF
Ms type: MS2
Ion mode: POSITIVE
Ionization: ESI
Fragmentation mode: CID
Collision energy: 10 eV
Resolution: 5000
Column name: N/A
Retention time: 0.214 min
Base peak: 121.0508
Precursor m/z: 385.1289
Precursor type: [M+H]+
Precursor intensity: 769555
m/z	relative intensity	assigned
57.0318	2	CH3N3+
58.0623	2	H10O3+
59.0521	1	H11OS+
61.0105	5	C2H5S+
62.0599	1	C2H8NO+
65.0128	1	C3HN2+
67.0306	4	C3H3N2+
85.0669	2	H11N3S+
88.0206	184	C3H6NS+
90.0343	3	H10O3S+
92.0289	1	C3H8OS+
94.0401	2	C4H4N3+
97.0277	14	C3H3N3O+
99.0424	26	C3H5N3O+
102.0356	4	CH10O3S+
102.086	3	H12N3O3+
109.0492	1	C3H9O4+
117.0904	2	C6H13O2+
118.0277	2	C5H2N4+
119.0327	4	C2H5N3O3+
123.1091	2	CH17NO5+
134.0253	885	C2H6N4OS+
136.0601	999	C4H10NO4+
137.061	11	CH9N6S+
148.044	5	C5H10NO2S+
168.0463	2	C6H8N4S+
175.1274	2	C2H17N5O4+
186.0458	2	C7H10N2O2S+
190.0525	1	C13H6N2+
199.1301	2	C7H15N6O+
202.0984	2	C5H18N2O4S+
214.0604	4	C3H12N5O4S+
220.061	1	C11H10NO4+
232.0584	9	C2H12N6O5S+
233.1715	1	C8H21N6O2+
250.0724	152	C13H8N5O+
253.0582	1	C12H7N5O2+
265.1602	3	C8H21N6O4+
385.1263	257	C14H21N6O5S+
