Mass spectrum: Corticosterone; LC-ESI-QTOF; MS2; CE: 20eV; R=7000; [M+H]+
Name: Corticosterone
Name: (8S,9S,10R,11S,13S,14S,17S)-11-hydroxy-17-(2-hydroxyacetyl)-10,13-dimethyl-1,2,6,7,8,9,11,12,14,15,16,17-dodecahydrocyclopenta[a]phenanthren-3-one
Formula: C21H30O4
Exact mass: 346.2144
SMILES: C[C@]12CCC(=O)C=C1CC[C@@H]3[C@@H]2[C@H](C[C@]4([C@H]3CC[C@@H]4C(=O)CO)C)O
InChI: InChI=1S/C21H30O4/c1-20-8-7-13(23)9-12(20)3-4-14-15-5-6-16(18(25)11-22)21(15,2)10-17(24)19(14)20/h9,14-17,19,22,24H,3-8,10-11H2,1-2H3/t14-,15-,16+,17-,19+,20-,21-/m0/s1
Instrument: Agilent 6560 QTOF
Instrument type: LC-ESI-QTOF
Ms type: MS2
Ion mode: POSITIVE
Ionization: ESI
Fragmentation mode: CID
Collision energy: 20 eV
Resolution: 7000
Column name: Direct injection
Retention time: 0.184 min
Base peak: 347.2222
Precursor m/z: 347.2217
Precursor type: [M+H]+
Precursor intensity: 160219
m/z	relative intensity	assigned
71.0481	69	C4H7O+
77.0374	38	C6H5+
79.0535	177	C6H7+
81.0697	173	C6H9+
83.05	61	C5H7O+
83.0844	46	C6H11+
87.0441	64	C4H7O2+
93.0695	223	C7H9+
95.0853	222	C7H11+
97.0642	409	C6H9O+
101.0606	134	C5H9O2+
103.0521	15	C8H7+
105.0696	167	C8H9+
107.0857	132	C8H11+
109.0635	135	C7H9O+
113.0584	8	C6H9O2+
115.0556	57	C9H7+
117.0688	108	C9H9+
119.0853	316	C9H11+
121.0642	999	C8H9O+
123.0792	341	C8H11O+
128.0611	42	C10H8+
129.0679	81	C10H9+
129.0896	56	C7H13O2+
131.0865	129	C10H11+
133.0999	196	C10H13+
135.0797	249	C9H11O+
135.1142	81	C10H15+
137.0958	16	C9H13O+
139.1111	19	C9H15O+
141.0699	62	C11H9+
143.0843	226	C11H11+
144.0902	75	C11H12+
145.0671	19	C10H9O+
145.0997	210	C11H13+
146.1067	29	C11H14+
147.08	314	C10H11O+
147.1164	192	C11H15+
149.0925	53	C10H13O+
152.0598	19	C12H8+
153.0664	24	C12H9+
153.0909	22	C9H13O2+
155.085	129	C12H11+
157.1016	124	C12H13+
158.1074	17	C12H14+
159.0797	33	C11H11O+
159.1147	175	C12H15+
161.095	118	C11H13O+
161.1301	168	C12H17+
163.1101	60	C11H15O+
165.0686	15	C13H9+
169.1006	98	C13H13+
171.116	195	C13H15+
173.0946	74	C12H13O+
175.1103	143	C12H15O+
175.1485	21	C13H19+
176.119	54	C12H16O+
177.1237	51	C12H17O+
181.0991	25	C14H13+
182.0743	15	C13H10O+
182.105	29	C14H14+
183.1156	61	C14H15+
185.1281	16	C14H17+
187.1104	50	C13H15O+
187.1461	109	C14H19+
189.1265	282	C13H17O+
193.119	9	C12H17O2+
195.1126	55	C15H15+
197.1325	26	C15H17+
199.1124	27	C14H15O+
201.1243	28	C14H17O+
201.1623	15	C15H21+
202.1325	20	C14H18O+
203.1059	38	C13H15O2+
207.112	50	C16H15+
207.139	38	C13H19O2+
209.1317	109	C16H17+
211.1115	102	C15H15O+
211.1437	56	C16H19+
215.1426	108	C15H19O+
216.1462	16	C15H20O+
220.1243	20	C17H16+
221.1337	17	C17H17+
223.1123	10	C16H15O+
223.1443	63	C17H19+
225.1642	75	C17H21+
226.171	9	C17H22+
227.1408	23	C16H19O+
227.18	53	C17H23+
229.1559	103	C16H21O+
232.1218	19	C18H16+
233.1329	57	C18H17+
235.1466	111	C18H19+
237.1589	30	C18H21+
238.1612	23	C14H22O3+
239.1387	22	C17H19O+
241.1577	48	C17H21O+
241.1942	50	C18H25+
243.174	58	C17H23O+
245.1489	24	C16H21O2+
247.1465	81	C19H19+
249.1612	25	C19H21+
250.1699	39	C19H22+
251.1756	79	C19H23+
252.1514	12	C18H20O+
252.1875	29	C19H24+
253.1564	43	C18H21O+
253.1904	15	C19H25+
255.1747	75	C18H23O+
263.1772	16	C20H23+
265.1569	37	C19H21O+
265.1937	120	C20H25+
266.1056	10	C21H14+
267.1755	32	C19H23O+
269.1562	81	C18H21O2+
269.1931	59	C19H25O+
271.1668	26	C18H23O2+
271.2031	38	C19H27O+
272.1731	9	C18H24O2+
275.1774	106	C21H23+
276.1847	12	C21H24+
281.1952	33	C20H25O+
283.203	76	C20H27O+
285.1919	9	C19H25O2+
287.2006	29	C19H27O2+
293.1909	54	C21H25O+
294.1896	6	C17H26O4+
299.167	20	C19H23O3+
299.1982	11	C20H27O2+
311.2002	310	C21H27O2+
329.2107	220	C21H29O3+
347.2223	153	C21H31O4+
