Mass spectrum: Para-hydroxy triphenyl phosphate; LC-ESI-QTOF; MS2; CE: 60eV; R=7000; [M+H]+
Name: Para-hydroxy triphenyl phosphate
Name: 4-Hydroxyphenyl diphenyl phosphate
Name: (4-hydroxyphenyl) diphenyl phosphate
Formula: C18H15O5P
Exact mass: 342.0657
SMILES: C1=CC=C(C=C1)OP(=O)(OC2=CC=CC=C2)OC3=CC=C(C=C3)O
InChI: InChI=1S/C18H15O5P/c19-15-11-13-18(14-12-15)23-24(20,21-16-7-3-1-4-8-16)22-17-9-5-2-6-10-17/h1-14,19H
Instrument: Agilent 6560 QTOF
Instrument type: LC-ESI-QTOF
Ms type: MS2
Ion mode: POSITIVE
Ionization: ESI
Fragmentation mode: CID
Collision energy: 60 eV
Resolution: 7000
Retention time: 0.147 min
Base peak: 343.0726
Precursor m/z: 343.073
Precursor type: [M+H]+
Precursor intensity: 91113.47
m/z	relative intensity	assigned
51.0234	339	C4H3+
53.0396	41	C4H5+
63.0241	11	C5H3+
65.0386	409	C5H5+
77.0387	999	C6H5+
81.0338	301	C5H5O+
86.0142	12	C7H2+
89.0364	26	H10O3P+
91.0545	33	C7H7+
93.0344	36	C6H5O+
95.0488	12	C6H7O+
102.0464	15	C8H6+
109.0279	183	C6H5O2+
110.0362	82	C6H6O2+
115.054	715	C9H7+
116.0583	24	C2H13O3P+
127.0542	37	C10H7+
128.0615	47	C10H8+
138.9946	15	C6H4O2P+
139.0537	81	C11H7+
140.0623	43	C11H8+
141.069	151	C11H9+
142.0766	12	C11H10+
144.0586	13	C10H8O+
150.045	22	C5H11O3P+
151.0527	98	C5H12O3P+
152.0616	451	C12H8+
155.9965	21	C6H5O3P+
156.0568	22	C11H8O+
168.0564	181	C12H8O+
175.0152	15	C6H8O4P+
184.0518	44	C12H8O2+
186.0219	13	C11H7OP+
187.0286	22	C11H8OP+
202.0767	22	C16H10+
203.0257	12	C11H8O2P+
215.0245	34	C12H8O2P+
226.075	26	C11H15O3P+
231.021	12	C12H8O3P+
