Mass spectrum: Prostaglandin A1; LC-ESI-QTOF; MS2; CE: 10eV; R=7000; [M+Cl]-
Name: Prostaglandin A1
Name: 7-[(1R,2S)-2-[(E,3S)-3-hydroxyoct-1-enyl]-5-oxocyclopent-3-en-1-yl]heptanoic acid
Formula: C20H32O4
Exact mass: 336.2301
SMILES: CCCCC[C@@H](/C=C/[C@H]1C=CC(=O)[C@@H]1CCCCCCC(=O)O)O
InChI: InChI=1S/C20H32O4/c1-2-3-6-9-17(21)14-12-16-13-15-19(22)18(16)10-7-4-5-8-11-20(23)24/h12-18,21H,2-11H2,1H3,(H,23,24)/b14-12+/t16-,17-,18+/m0/s1
Instrument: Agilent 6560 QTOF
Instrument type: LC-ESI-QTOF
Ms type: MS2
Ion mode: NEGATIVE
Ionization: ESI
Fragmentation mode: CID
Collision energy: 10 eV
Resolution: 7000
Column name: N/A
Retention time: 0.237 min
Base peak: 317.2126
Precursor m/z: 371.1995
Precursor type: [M+Cl]-
Precursor intensity: 16163
m/z	relative intensity	assigned
89.041	126	C7H5-
147.0829	19	C10H11O-
223.0277	999	C15H8Cl-
223.1292	58	C14H20Cl-
311.159	79	C20H23O3-
335.2242	20	C20H31O4-
