Mass spectrum: Mono-carboxy-isononyl phthalate; LC-ESI-QTOF; MS2; CE: 35eV; R=7000; [M-H]-
Name: Mono-carboxy-isononyl phthalate
Name: Mono-carboxy isononyl phthalate
Name: 2-(9-carboxynonan-2-yloxycarbonyl)benzoic acid
Formula: C18H24O6
Exact mass: 336.1573
SMILES: CC(CCCCCCCC(=O)O)OC(=O)C1=CC=CC=C1C(=O)O
InChI: InChI=1S/C18H24O6/c1-13(9-5-3-2-4-6-12-16(19)20)24-18(23)15-11-8-7-10-14(15)17(21)22/h7-8,10-11,13H,2-6,9,12H2,1H3,(H,19,20)(H,21,22)
Instrument: Agilent 6560 QTOF
Instrument type: LC-ESI-QTOF
Ms type: MS2
Ion mode: NEGATIVE
Ionization: ESI
Fragmentation mode: CID
Collision energy: 35 eV
Resolution: 7000
Column name: ZORBAX Extend-C18 3.5um, 2.1x50mm, Agilent Technologies
Retention time: 2.799 min
Base peak: 980.0164
Precursor m/z: 335.15
Precursor type: [M-H]-
Precursor intensity: 9227.91
m/z	relative intensity	assigned
77.04	999	C6H5-
97.0667	50	C6H9O-
121.0292	310	C7H5O2-
139.1125	54	C9H15O-
187.1326	255	C10H19O3-
