Mass spectrum: Medroxyprogesterone; LC-ESI-QTOF; MS2; CE: 40eV; R=7000; [M+CH3COO]-
Name: Medroxyprogesterone
Name: 17-Hydroxy-6-methylpregn-4-ene-3,20-dione
Name: (8R,9S,10R,13S,14S,17R)-17-acetyl-17-hydroxy-6,10,13-trimethyl-2,6,7,8,9,11,12,14,15,16-decahydro-1H-cyclopenta[a]phenanthren-3-one
Formula: C22H32O3
Exact mass: 344.2351
SMILES: CC1C[C@@H]2[C@H](CC[C@]3([C@H]2CC[C@@]3(C(=O)C)O)C)[C@@]4(C1=CC(=O)CC4)C
InChI: InChI=1S/C22H32O3/c1-13-11-16-17(20(3)8-5-15(24)12-19(13)20)6-9-21(4)18(16)7-10-22(21,25)14(2)23/h12-13,16-18,25H,5-11H2,1-4H3/t13?,16-,17+,18+,20-,21+,22+/m1/s1
Instrument: Agilent 6560 QTOF
Instrument type: LC-ESI-QTOF
Ms type: MS2
Ion mode: NEGATIVE
Ionization: ESI
Fragmentation mode: CID
Collision energy: 40 eV
Resolution: 7000
Column name: N/A
Retention time: 0.169 min
Base peak: 980.0164
Precursor m/z: 403.249
Precursor type: [M+CH3COO]-
Precursor intensity: 8211
m/z	relative intensity	assigned
131.0695	475	C6H11O3-
299.1976	999	C20H27O2-
328.1651	340	C20H24O4-
