Mass spectrum: Tri-m-tolyl phosphate; LC-ESI-QTOF; MS2; CE: 45eV; R=7000; [M+H]+
Name: Tri-m-tolyl phosphate
Name: Tri-M-cresyl phosphate
Name: tris(3-methylphenyl) phosphate
Formula: C21H21O4P
Exact mass: 368.1177
SMILES: CC1=CC(=CC=C1)OP(=O)(OC2=CC=CC(=C2)C)OC3=CC=CC(=C3)C
InChI: InChI=1S/C21H21O4P/c1-16-7-4-10-19(13-16)23-26(22,24-20-11-5-8-17(2)14-20)25-21-12-6-9-18(3)15-21/h4-15H,1-3H3
Instrument: Agilent 6560 QTOF
Instrument type: LC-ESI-QTOF
Ms type: MS2
Ion mode: POSITIVE
Ionization: ESI
Fragmentation mode: CID
Collision energy: 45 eV
Resolution: 7000
Retention time: 0.145 min
Base peak: 391.1087
Precursor m/z: 369.125
Precursor type: [M+H]+
Precursor intensity: 132325.28
m/z	relative intensity	assigned
51.0226	7	C4H3+
53.0385	5	C4H5+
65.0387	368	C5H5+
77.0382	26	C6H5+
79.0533	22	C6H7+
81.0681	6	C6H9+
91.0543	999	C7H7+
105.0692	7	C8H9+
107.0486	35	C7H7O+
109.064	23	C7H9O+
120.0425	6	C4H8O4+
121.0661	6	C8H9O+
139.0541	7	C11H7+
141.0681	17	C4H14O3P+
142.075	12	C4H15O3P+
152.0601	33	C5H13O3P+
153.0083	12	C7H6O2P+
153.0693	25	C12H9+
164.0615	11	C13H8+
165.0697	820	C13H9+
166.0767	264	C13H10+
167.0815	24	C6H16O3P+
169.0043	6	C7H6O3P+
177.0686	5	C7H14O3P+
178.077	64	C14H10+
179.0842	36	C7H16O3P+
180.0916	17	C7H17O3P+
181.0654	28	C13H9O+
181.1014	10	C14H13+
182.0723	14	C13H10O+
184.0869	7	C6H17O4P+
189.0285	8	C7H10O4P+
195.0806	68	C14H11O+
196.088	113	C14H12O+
197.0933	27	C7H18O4P+
200.0354	11	C12H9OP+
215.061	14	C13H12OP+
225.0448	7	C14H10OP+
226.0806	5	C18H10+
239.0876	17	C19H11+
240.0916	21	C12H17O3P+
241.1025	32	C19H13+
242.1028	10	C12H19O3P+
243.0563	61	C14H12O2P+
253.0998	9	C13H18O3P+
255.1124	9	C13H20O3P+
256.123	9	C13H21O3P+
279.0785	5	C14H16O4P+
