Mass spectrum: Tri-n-hexyl trimellitate; LC-ESI-QTOF; MS2; CE: 25eV; R=7000; [M+H]+
Name: Tri-n-hexyl trimellitate
Name: trihexyl benzene-1,2,4-tricarboxylate
Formula: C27H42O6
Exact mass: 462.2981
SMILES: CCCCCCOC(=O)C1=CC(=C(C=C1)C(=O)OCCCCCC)C(=O)OCCCCCC
InChI: InChI=1S/C27H42O6/c1-4-7-10-13-18-31-25(28)22-16-17-23(26(29)32-19-14-11-8-5-2)24(21-22)27(30)33-20-15-12-9-6-3/h16-17,21H,4-15,18-20H2,1-3H3
Instrument: Agilent 6560 QTOF
Instrument type: LC-ESI-QTOF
Ms type: MS2
Ion mode: POSITIVE
Ionization: ESI
Fragmentation mode: CID
Collision energy: 25 eV
Resolution: 7000
Retention time: 0.114 min
Base peak: 371.1017
Precursor m/z: 463.3054
Precursor type: [M+H]+
Precursor intensity: 34808.11
m/z	relative intensity	assigned
57.0697	13	C4H9+
85.1002	14	C6H13+
165.0152	12	C8H5O4+
193.013	475	C9H5O5+
207.0301	38	C10H7O5+
266.9983	12	C14H3O6+
277.1067	999	C15H17O5+
278.1099	70	C22H14+
281.0503	28	C16H9O5+
