Mass spectrum: GUANOSINEMONOPHOSPHATE; LC-ESI-QTOF; MS2; CE: 20eV; R=5000; [M+H]+
Name: GUANOSINEMONOPHOSPHATE
Name: CID 6804
Name: [(2R,3S,4R,5R)-5-(2-amino-6-oxo-3H-purin-9-yl)-3,4-dihydroxyoxolan-2-yl]methyl dihydrogen phosphate
Formula: C10H14N5O8P
Exact mass: 363.0580
SMILES: NC1=NC2=C(N=CN2[C@@H]2O[C@H](COP(O)(O)=O)[C@@H](O)[C@H]2O)C(=O)N1
InChI: InChI=1S/C10H14N5O8P/c11-10-13-7-4(8(18)14-10)12-2-15(7)9-6(17)5(16)3(23-9)1-22-24(19,20)21/h2-3,5-6,9,16-17H,1H2,(H2,19,20,21)(H3,11,13,14,18)/t3-,5-,6-,9-/m1/s1
Instrument: Agilent 6530 QTOF
Instrument type: LC-ESI-QTOF
Ms type: MS2
Ion mode: POSITIVE
Ionization: ESI
Fragmentation mode: CID
Collision energy: 20 eV
Resolution: 5000
Column name: N/A
Retention time: 0.356 min
Base peak: 121.0508
Precursor m/z: 364.0653
Precursor type: [M+H]+
Precursor intensity: 60160
m/z	relative intensity	assigned
75.9785	3	CO4+
80.0216	17	H4N2O3+
80.0827	1	C3H12O2+
92.9974	3	CH4NO2P+
97.027	90	C3H3N3O+
109.0409	14	C3H10O2P+
110.0292	7	C6H7P+
112.0957	4	CH12N4O2+
114.0744	3	H10N4O3+
121.0973	2	C4H13N2O2+
135.027	92	C2H5N3O4+
147.0425	4	C7H5N3O+
152.0538	999	C2H8N4O4+
154.001	1	C5H2N2O4+
155.9851	2	C5H3NO3P+
164.1212	1	C9H14N3+
177.0206	3	C8H6N2OP+
205.982	1	H5N3O8P+
322.982	3	C10H4N4O7P+
337.9508	3	C9HN5O8P+
