Mass spectrum: 5-Hydroxy-2-ethylhexyl diphenyl phosphate; LC-ESI-QTOF; MS2; CE: 15eV; R=7000; [M+H]+
Name: 5-Hydroxy-2-ethylhexyl diphenyl phosphate
Name: 2-Ethyl-5-hydroxyhexyl diphenyl phosphate
Name: (2-ethyl-5-hydroxyhexyl) diphenyl phosphate
Formula: C20H27O5P
Exact mass: 378.1596
SMILES: CCC(CCC(C)O)COP(=O)(Oc1ccccc1)Oc2ccccc2
InChI: InChI=1S/C20H27O5P/c1-3-18(15-14-17(2)21)16-23-26(22,24-19-10-6-4-7-11-19)25-20-12-8-5-9-13-20/h4-13,17-18,21H,3,14-16H2,1-2H3
Instrument: Agilent 6560 QTOF
Instrument type: LC-ESI-QTOF
Ms type: MS2
Ion mode: POSITIVE
Ionization: ESI
Fragmentation mode: CID
Collision energy: 15 eV
Resolution: 7000
Retention time: 0.113 min
Base peak: 251.0474
Precursor m/z: 379.1669
Precursor type: [M+H]+
Precursor intensity: 81732.54
m/z	relative intensity	assigned
55.0539	15	C4H7+
69.0699	168	C5H9+
77.0381	10	C6H5+
95.0494	12	C6H7O+
111.1166	28	C8H15+
152.0627	9	C12H8+
153.07	17	C12H9+
154.0662	3	C8H10O3+
175.0159	4	C6H8O4P+
215.0257	8	C12H8O2P+
233.035	12	C12H10O3P+
251.047	999	C12H12O4P+
252.0502	63	C12H13O4P+
