Mass spectrum: Aldosterone; LC-ESI-QTOF; MS2; CE: 20eV; R=7000; [M-H]-
Name: Aldosterone
Name: (8S,9S,10R,11S,13R,14S,17S)-11-hydroxy-17-(2-hydroxyacetyl)-10-methyl-3-oxo-1,2,6,7,8,9,11,12,14,15,16,17-dodecahydrocyclopenta[a]phenanthrene-13-carbaldehyde
Formula: C21H28O5
Exact mass: 360.1937
SMILES: C[C@]12CCC(=O)C=C1CC[C@@H]3[C@@H]2[C@H](C[C@]4([C@H]3CC[C@@H]4C(=O)CO)C=O)O
InChI: InChI=1S/C21H28O5/c1-20-7-6-13(24)8-12(20)2-3-14-15-4-5-16(18(26)10-22)21(15,11-23)9-17(25)19(14)20/h8,11,14-17,19,22,25H,2-7,9-10H2,1H3/t14-,15-,16+,17-,19+,20-,21+/m0/s1
Instrument: Agilent 6560 QTOF
Instrument type: LC-ESI-QTOF
Ms type: MS2
Ion mode: NEGATIVE
Ionization: ESI
Fragmentation mode: CID
Collision energy: 20 eV
Resolution: 7000
Column name: N/A
Retention time: 0.167 min
Base peak: 223.0293
Precursor m/z: 359.1864
Precursor type: [M-H]-
Precursor intensity: 166425
m/z	relative intensity	assigned
73.0279	68	C3H5O2-
105.0695	59	C8H9-
109.0667	42	C7H9O-
123.0813	730	C8H11O-
135.0803	40	C9H11O-
137.0946	57	C9H13O-
144.0913	24	C11H12-
149.0955	131	C10H13O-
151.0777	29	C9H11O2-
159.079	19	C11H11O-
161.0971	328	C11H13O-
163.0744	46	C10H11O2-
163.1142	10	C11H15O-
173.063	18	C11H9O2-
173.0966	31	C12H13O-
174.0689	127	C11H10O2-
176.0827	40	C11H12O2-
186.1501	17	C7H22O5-
189.0924	999	C12H13O2-
190.0963	60	C12H14O2-
201.1303	28	C14H17O-
203.1422	28	C14H19O-
207.1008	20	C12H15O3-
225.1276	47	C16H17O-
227.1416	58	C16H19O-
241.1251	20	C16H17O2-
243.1377	23	C16H19O2-
247.1756	22	C16H23O2-
251.1434	44	C18H19O-
252.1509	20	C18H20O-
253.1616	116	C18H21O-
254.1627	32	C18H22O-
255.1769	201	C18H23O-
256.1477	212	C17H20O2-
257.1551	415	C17H21O2-
257.1857	104	C18H25O-
258.1563	11	C17H22O2-
258.1932	38	C18H26O-
264.1504	170	C19H20O-
268.1446	54	C18H20O2-
269.1541	266	C18H21O2-
270.158	36	C18H22O2-
271.17	905	C18H23O2-
272.1729	90	C18H24O2-
273.1856	112	C18H25O2-
275.2017	29	C18H27O2-
277.1553	13	C20H21O-
279.1396	14	C19H19O2-
279.176	120	C20H23O-
280.1449	90	C19H20O2-
280.1794	46	C20H24O-
283.1695	247	C19H23O2-
284.1738	64	C19H24O2-
285.1865	441	C19H25O2-
286.1908	34	C19H26O2-
287.1646	301	C18H23O3-
287.1992	87	C19H27O2-
295.1665	57	C20H23O2-
296.1393	53	C19H20O3-
296.1728	42	C20H24O2-
297.152	21	C19H21O3-
297.1839	164	C20H25O2-
298.158	50	C19H22O3-
298.1931	9	C20H26O2-
299.1623	35	C19H23O3-
301.1822	155	C19H25O3-
303.1936	9	C19H27O3-
311.1585	75	C20H23O3-
311.2049	8	C21H27O2-
313.1799	350	C20H25O3-
314.1837	56	C20H26O3-
315.1975	309	C20H27O3-
316.1685	67	C19H24O4-
323.1658	58	C21H23O3-
324.1661	19	C21H24O3-
329.1743	11	C20H25O4-
331.1921	952	C20H27O4-
341.1732	51	C21H25O4-
359.1861	141	C21H27O5-
