Mass spectrum: Tri-p-tolyl phosphate; LC-ESI-QTOF; MS2; CE: 35eV; R=7000; [M+H]+
Name: Tri-p-tolyl phosphate
Name: Tricresyl phosphate
Name: tris(4-methylphenyl) phosphate
Formula: C21H21O4P
Exact mass: 368.1177
SMILES: CC1=CC=C(C=C1)OP(=O)(OC2=CC=C(C=C2)C)OC3=CC=C(C=C3)C
InChI: InChI=1S/C21H21O4P/c1-16-4-10-19(11-5-16)23-26(22,24-20-12-6-17(2)7-13-20)25-21-14-8-18(3)9-15-21/h4-15H,1-3H3
Instrument: Agilent 6560 QTOF
Instrument type: LC-ESI-QTOF
Ms type: MS2
Ion mode: POSITIVE
Ionization: ESI
Fragmentation mode: CID
Collision energy: 35 eV
Resolution: 7000
Retention time: 0.109 min
Base peak: 369.1248
Precursor m/z: 369.125
Precursor type: [M+H]+
Precursor intensity: 232846.98
m/z	relative intensity	assigned
51.0226	8	C4H3+
57.0699	9	C4H9+
65.0386	205	C5H5+
77.0388	64	C6H5+
79.0541	141	C6H7+
90.0466	15	C7H6+
91.0544	999	C7H7+
92.0577	50	H13O3P+
105.0689	6	C8H9+
107.0487	270	C7H7O+
108.0544	14	H13O4P+
109.0648	34	C7H9O+
115.0516	6	C2H12O3P+
129.0687	6	C10H9+
139.0519	5	C4H12O3P+
141.0698	34	C11H9+
142.0733	5	C4H15O3P+
152.0612	14	C12H8+
153.0097	20	C7H6O2P+
153.0689	65	C12H9+
154.0151	10	C7H7O2P+
154.0775	6	C12H10+
157.0997	5	C5H18O3P+
165.0696	775	C13H9+
166.0771	848	C13H10+
167.0799	56	C6H16O3P+
171.0197	7	C7H8O3P+
178.0764	41	C7H15O3P+
179.0843	84	C7H16O3P+
180.0932	29	C14H12+
181.062	10	C6H14O4P+
181.1001	73	C14H13+
184.0874	13	C13H12O+
187.0122	7	C7H8O4P+
189.0296	14	C7H10O4P+
195.0793	49	C14H11O+
196.0876	139	C14H12O+
197.0922	27	C7H18O4P+
198.1016	6	C7H19O4P+
199.1116	14	C14H15O+
215.0614	29	C13H12OP+
215.0815	17	C10H16O3P+
216.0936	4	C17H12+
226.077	5	C18H10+
229.0994	6	C11H18O3P+
239.0862	10	C19H11+
240.0909	15	C12H17O3P+
241.1018	54	C19H13+
243.0562	343	C14H12O2P+
244.0608	23	C14H13O2P+
255.1162	60	C20H15+
256.1243	57	C20H16+
257.1281	14	C13H22O3P+
261.0658	31	C14H14O3P+
279.078	152	C14H16O4P+
280.0776	18	C17H12O4+
369.1219	43	C21H22O4P+
