Mass spectrum: Tris(tert-butylphenyl) phosphate; LC-ESI-QTOF; MS2; CE: 60eV; R=7000; [M+H]+
Name: Tris(tert-butylphenyl) phosphate
Name: tris(2-tert-butylphenyl) phosphate
Formula: C30H39O4P
Exact mass: 494.2586
SMILES: CC(C)(C)C1=CC=CC=C1OP(=O)(OC2=CC=CC=C2C(C)(C)C)OC3=CC=CC=C3C(C)(C)C
InChI: InChI=1S/C30H39O4P/c1-28(2,3)22-16-10-13-19-25(22)32-35(31,33-26-20-14-11-17-23(26)29(4,5)6)34-27-21-15-12-18-24(27)30(7,8)9/h10-21H,1-9H3
Instrument: Agilent 6560 QTOF
Instrument type: LC-ESI-QTOF
Ms type: MS2
Ion mode: POSITIVE
Ionization: ESI
Fragmentation mode: CID
Collision energy: 60 eV
Resolution: 7000
Retention time: 0.113 min
Base peak: 495.2656
Precursor m/z: 495.2659
Precursor type: [M+H]+
Precursor intensity: 48247.11
m/z	relative intensity	assigned
57.0703	999	C4H9+
77.0388	151	C6H5+
91.0545	27	C7H7+
105.0696	17	C8H9+
115.0541	12	C9H7+
152.0616	60	C12H8+
153.0692	184	C12H9+
154.0724	17	C5H15O3P+
168.0563	18	C12H8O+
171.0797	38	C12H11O+
172.0823	12	C5H17O4P+
215.0256	187	C12H8O2P+
216.0286	19	C12H9O2P+
228.0921	31	C11H17O3P+
229.1002	61	C18H13+
233.035	50	C12H10O3P+
251.0461	138	C12H12O4P+
327.0773	401	C18H16O4P+
328.0807	52	C18H17O4P+
