Mass spectrum: Epitestosterone; LC-ESI-QTOF; MS2; CE: 40eV; R=7000; [M+H]+
Name: Epitestosterone
Name: (8R,9S,10R,13S,14S,17R)-17-hydroxy-10,13-dimethyl-1,2,6,7,8,9,11,12,14,15,16,17-dodecahydrocyclopenta[a]phenanthren-3-one
Formula: C19H28O2
Exact mass: 288.2089
SMILES: C[C@]12CC[C@H]3[C@H]([C@@H]1CC[C@H]2O)CCC4=CC(=O)CC[C@]34C
InChI: InChI=1S/C19H28O2/c1-18-9-7-13(20)11-12(18)3-4-14-15-5-6-17(21)19(15,2)10-8-16(14)18/h11,14-17,21H,3-10H2,1-2H3/t14-,15-,16-,17+,18-,19-/m0/s1
Instrument: Agilent 6560 QTOF
Instrument type: LC-ESI-QTOF
Ms type: MS2
Ion mode: POSITIVE
Ionization: ESI
Fragmentation mode: CID
Collision energy: 40 eV
Resolution: 7000
Column name: Direct injection
Retention time: 0.156 min
Base peak: 289.2169
Precursor m/z: 289.2162
Precursor type: [M+H]+
Precursor intensity: 411205
m/z	relative intensity	assigned
77.0385	160	C6H5+
79.0543	489	C6H7+
81.0702	397	C6H9+
83.0492	71	C5H7O+
85.0651	3	C5H9O+
90.0479	8	C7H6+
91.0547	272	C7H7+
93.0705	182	C7H9+
95.0501	28	C6H7O+
95.0856	134	C7H11+
97.065	999	C6H9O+
103.0547	13	C8H7+
104.0629	7	C8H8+
105.0702	141	C8H9+
107.0859	53	C8H11+
108.0564	12	C7H8O+
109.0647	809	C7H9O+
111.0798	4	C7H11O+
115.0554	5	C9H7+
117.0687	64	C9H9+
119.0856	99	C9H11+
120.0577	5	C8H8O+
121.0652	17	C8H9O+
121.1016	2	C9H13+
123.0801	105	C8H11O+
125.096	3	C8H13O+
127.0524	4	C10H7+
128.0623	11	C10H8+
129.0706	48	C10H9+
130.0777	28	C10H10+
131.0847	46	C10H11+
133.0646	5	C9H9O+
133.1013	16	C10H13+
135.1181	2	C10H15+
141.0681	8	C11H9+
142.0776	15	C11H10+
143.0855	29	C11H11+
144.0934	8	C11H12+
145.101	46	C11H13+
147.1183	13	C11H15+
152.0612	4	C12H8+
155.0848	42	C12H11+
156.0914	3	C12H12+
157.0989	35	C12H13+
159.1183	28	C12H15+
161.1325	8	C12H17+
163.1094	2	C11H15O+
167.0866	2	C13H11+
169.1001	33	C13H13+
171.1149	1	C13H15+
173.0954	5	C12H13O+
173.132	1	C13H17+
174.1018	5	C12H14O+
177.13	10	C12H17O+
181.0996	5	C14H13+
182.1087	22	C14H14+
183.1147	13	C14H15+
185.1339	1	C14H17+
196.1283	2	C15H16+
197.1334	8	C15H17+
199.1088	8	C14H15O+
201.1631	2	C15H21+
211.1459	6	C16H19+
213.1657	9	C16H21+
223.1462	7	C17H19+
238.1671	6	C18H22+
253.198	1	C19H25+
