Mass spectrum: Di-n-butyl sebacate; LC-ESI-QTOF; MS2; CE: 45eV; R=7000; [M+H]+
Name: Di-n-butyl sebacate
Name: Dibutyl sebacate
Name: dibutyl decanedioate
Formula: C18H34O4
Exact mass: 314.2457
SMILES: CCCCOC(=O)CCCCCCCCC(=O)OCCCC
InChI: InChI=1S/C18H34O4/c1-3-5-15-21-17(19)13-11-9-7-8-10-12-14-18(20)22-16-6-4-2/h3-16H2,1-2H3
Instrument: Agilent 6560 QTOF
Instrument type: LC-ESI-QTOF
Ms type: MS2
Ion mode: POSITIVE
Ionization: ESI
Fragmentation mode: CID
Collision energy: 45 eV
Resolution: 7000
Retention time: 0.146 min
Base peak: 337.2369
Precursor m/z: 315.253
Precursor type: [M+H]+
Precursor intensity: 32548.16
m/z	relative intensity	assigned
53.0392	55	C4H5+
55.0182	145	C3H3O+
55.0543	999	C4H7+
57.0339	73	C3H5O+
57.0706	196	C4H9+
59.0485	74	C3H7O+
67.0553	320	C5H7+
69.0326	48	C4H5O+
69.0699	843	C5H9+
73.064	108	C4H9O+
77.0384	80	C6H5+
79.0541	286	C6H7+
80.0605	34	C6H8+
81.0699	388	C6H9+
83.0485	163	C5H7O+
83.085	66	C6H11+
91.0548	81	C7H7+
93.0698	454	C7H9+
95.0852	195	C7H11+
97.0648	157	C6H9O+
97.1006	36	C7H13+
105.0703	46	C8H9+
121.1007	36	C9H13+
