Mass spectrum: 2-Aminobenzothiazole; LC-ESI-QTOF; MS2; CE: 45eV; R=7000; [M+H]+
Name: 2-Aminobenzothiazole
Name: 1,3-benzothiazol-2-amine
Formula: C7H6N2S
Exact mass: 150.0252
SMILES: C1=CC=C2C(=C1)N=C(S2)N
InChI: InChI=1S/C7H6N2S/c8-7-9-5-3-1-2-4-6(5)10-7/h1-4H,(H2,8,9)
Instrument: Agilent 6560 QTOF
Instrument type: LC-ESI-QTOF
Ms type: MS2
Ion mode: POSITIVE
Ionization: ESI
Fragmentation mode: CID
Collision energy: 45 eV
Resolution: 7000
Retention time: 0.150 min
Base peak: 151.0331
Precursor m/z: 151.0324
Precursor type: [M+H]+
Precursor intensity: 178939.66
m/z	relative intensity	assigned
50.0156	5	C4H2+
51.0231	55	C4H3+
53.039	106	C4H5+
57.9864	3	C2H2S+
58.9961	4	C2H3S+
59.9903	15	CH2NS+
62.0163	5	C5H2+
63.023	114	C5H3+
64.0188	61	C4H2N+
64.0307	41	C5H4+
65.0389	999	C5H5+
66.0468	10	C5H6+
68.9793	268	C3HS+
69.9858	7	C3H2S+
74.0151	8	C6H2+
75.0231	3	C6H3+
77.0386	123	C6H5+
80.0496	261	C5H6N+
81.9874	10	C4H2S+
82.9951	9	C4H3S+
90.034	54	C6H4N+
91.0416	75	C6H5N+
92.0497	21	C6H6N+
93.9758	3	C4NS+
94.9937	3	C5H3S+
96.0023	14	C5H4S+
97.0104	27	C5H5S+
106.052	3	C6H6N2+
106.9942	13	C6H3S+
108.0031	78	C6H4S+
109.0106	216	C6H5S+
118.0525	26	C7H6N2+
122.0051	4	C6H4NS+
124.0214	20	C6H6NS+
132.9993	5	C7H3NS+
