Mass spectrum: Monobutyl phthalate; LC-ESI-QTOF; MS2; CE: 20eV; R=7000; [M-H]-
Name: Monobutyl phthalate
Name: 2-butoxycarbonylbenzoic acid
Formula: C12H14O4
Exact mass: 222.0892
SMILES: CCCCOC(=O)C1=CC=CC=C1C(=O)O
InChI: InChI=1S/C12H14O4/c1-2-3-8-16-12(15)10-7-5-4-6-9(10)11(13)14/h4-7H,2-3,8H2,1H3,(H,13,14)
Instrument: Agilent 6560 QTOF
Instrument type: LC-ESI-QTOF
Ms type: MS2
Ion mode: NEGATIVE
Ionization: ESI
Fragmentation mode: CID
Collision energy: 20 eV
Resolution: 7000
Retention time: 0.154 min
Base peak: 221.0821
Precursor m/z: 221.0819
Precursor type: [M-H]-
Precursor intensity: 11802.69
m/z	relative intensity	assigned
69.0343	202	C4H5O-
71.0505	214	C4H7O-
75.0239	100	C6H3-
77.0395	999	C6H5-
