Mass spectrum: N-palmitoyl-D-erythro-sphinganine; LC-ESI-QTOF; MS2; CE: 10eV; R=7000; [M+HCOOH-H]-
Name: N-palmitoyl-D-erythro-sphinganine
Name: N-(hexadecanoyl)-sphinganine
Name: N-[(2S,3R)-1,3-dihydroxyoctadecan-2-yl]hexadecanamide
Formula: C34H69NO3
Exact mass: 539.5277
SMILES: CCCCCCCCCCCCCCC[C@H]([C@H](CO)NC(=O)CCCCCCCCCCCCCCC)O
InChI: InChI=1S/C34H69NO3/c1-3-5-7-9-11-13-15-17-19-21-23-25-27-29-33(37)32(31-36)35-34(38)30-28-26-24-22-20-18-16-14-12-10-8-6-4-2/h32-33,36-37H,3-31H2,1-2H3,(H,35,38)/t32-,33+/m0/s1
Instrument: Agilent 6560 QTOF
Instrument type: LC-ESI-QTOF
Ms type: MS2
Ion mode: NEGATIVE
Ionization: ESI
Fragmentation mode: CID
Collision energy: 10 eV
Resolution: 7000
Column name: N/A
Retention time: 0.239 min
Base peak: 598.5426
Precursor m/z: 584.5259
Precursor type: [M+HCOOH-H]-
Precursor intensity: 24847
m/z	relative intensity	assigned
112.2423	18	C4H32O2-
163.3664	118	C3H49NO4-
170.3183	26	C8H42O2-
212.2055	32	C13H26NO-
256.238	43	C16H32O2-
330.5146	16	C22H66-
337.0516	71	C22H9O4-
352.5394	39	C21H70NO-
359.9971	53	C22H2NO5-
401.979	20	C27NO4-
506.5229	11	C31H70O4-
524.5059	307	C33H66NO3-
525.2767	16	C34H39NO4-
525.5117	89	C33H67NO3-
535.3289	23	C33H45NO5-
538.5202	999	C34H68NO3-
539.5342	54	C34H69NO3-
564.5035	15	C35H66NO4-
584.5247	327	C35H70NO5-
