Mass spectrum: Bisphenol A bis(diphenyl phosphate); LC-ESI-QTOF; MS2; CE: 40eV; R=7000; [M+H]+
Name: Bisphenol A bis(diphenyl phosphate)
Name: [4-[2-(4-diphenoxyphosphoryloxyphenyl)propan-2-yl]phenyl] diphenyl phosphate
Formula: C39H34O8P2
Exact mass: 692.1729
SMILES: CC(C)(C1=CC=C(C=C1)OP(=O)(OC2=CC=CC=C2)OC3=CC=CC=C3)C4=CC=C(C=C4)OP(=O)(OC5=CC=CC=C5)OC6=CC=CC=C6
InChI: InChI=1S/C39H34O8P2/c1-39(2,31-23-27-37(28-24-31)46-48(40,42-33-15-7-3-8-16-33)43-34-17-9-4-10-18-34)32-25-29-38(30-26-32)47-49(41,44-35-19-11-5-12-20-35)45-36-21-13-6-14-22-36/h3-30H,1-2H3
Instrument: Agilent 6560 QTOF
Instrument type: LC-ESI-QTOF
Ms type: MS2
Ion mode: POSITIVE
Ionization: ESI
Fragmentation mode: CID
Collision energy: 40 eV
Resolution: 7000
Column name: InfinityLab Poroshell 120 EC-C18 2.7Âµm, 3x100mm, Agilent Technologies
Retention time: 13.311 min
Base peak: 752.2544
Precursor m/z: 693.1802
Precursor type: [M+H]+
Precursor intensity: 46922.02
m/z	relative intensity	assigned
91.0547	21	C7H7+
115.0528	40	C2H12O3P+
117.0697	14	C9H9+
153.069	21	C12H9+
155.0859	15	C12H11+
165.0702	9	C13H9+
176.0598	11	C7H13O3P+
178.0761	72	C7H15O3P+
179.0243	32	C2H13O5P2+
181.0647	11	C13H9O+
183.0788	19	C6H16O4P+
193.1022	10	C15H13+
208.0889	10	C15H12O+
211.1116	56	C15H15O+
215.0234	21	C5H13O5P2+
233.0376	15	C19H5+
240.093	8	C19H12+
251.0458	21	C12H12O4P+
255.0553	22	C8H17O5P2+
273.0663	24	C8H19O6P2+
327.0763	59	C11H21O7P2+
339.0775	33	C19H16O4P+
351.0786	12	C20H16O4P+
367.1092	999	C21H20O4P+
368.1124	153	C14H26O7P2+
600.0937	11	C35H21O8P+
