Mass spectrum: Bisphenol B; LC-ESI-QTOF; MS2; CE: 15eV; R=7000; [M-H]-
Name: Bisphenol B
Name: 4-[2-(4-hydroxyphenyl)butan-2-yl]phenol
Formula: C16H18O2
Exact mass: 242.1307
SMILES: CCC(C)(C1=CC=C(C=C1)O)C2=CC=C(C=C2)O
InChI: InChI=1S/C16H18O2/c1-3-16(2,12-4-8-14(17)9-5-12)13-6-10-15(18)11-7-13/h4-11,17-18H,3H2,1-2H3
Instrument: Agilent 6560 QTOF
Instrument type: LC-ESI-QTOF
Ms type: MS2
Ion mode: NEGATIVE
Ionization: ESI
Fragmentation mode: CID
Collision energy: 15 eV
Resolution: 7000
Column name: ZORBAX Extend-C18 3.5um, 2.1x50mm, Agilent Technologies
Retention time: 3.441 min
Base peak: 982.9905
Precursor m/z: 241.1234
Precursor type: [M-H]-
Precursor intensity: 20176.72
m/z	relative intensity	assigned
147.081	67	C10H11O-
211.078	419	C14H11O2-
212.0837	999	C14H12O2-
213.0902	79	C14H13O2-
226.1009	74	C15H14O2-
241.1235	621	C16H17O2-
