Mass spectrum: Lithocholyltaurine; LC-ESI-QTOF; MS2; CE: 20eV; R=7000; [M-H]-
Name: Lithocholyltaurine
Name: Taurolithocholic acid
Name: 2-[[(4R)-4-[(3R,5R,8R,9S,10S,13R,14S,17R)-3-hydroxy-10,13-dimethyl-2,3,4,5,6,7,8,9,11,12,14,15,16,17-tetradecahydro-1H-cyclopenta[a]phenanthren-17-yl]pentanoyl]amino]ethanesulfonic acid
Formula: C26H45NO5S
Exact mass: 483.3018
SMILES: [H][C@@]1(CC[C@@]2([H])[C@]3([H])CC[C@]4([H])C[C@H](O)CC[C@]4(C)[C@@]3([H])CC[C@]12C)[C@H](C)CCC(=O)NCCS(O)(=O)=O
InChI: InChI=1S/C26H45NO5S/c1-17(4-9-24(29)27-14-15-33(30,31)32)21-7-8-22-20-6-5-18-16-19(28)10-12-25(18,2)23(20)11-13-26(21,22)3/h17-23,28H,4-16H2,1-3H3,(H,27,29)(H,30,31,32)/t17-,18-,19-,20+,21-,22+,23+,25+,26-/m1/s1
Instrument: Agilent 6560 QTOF
Instrument type: LC-ESI-QTOF
Ms type: MS2
Ion mode: NEGATIVE
Ionization: ESI
Fragmentation mode: CID
Collision energy: 20 eV
Resolution: 7000
Column name: N/A
Retention time: 0.142 min
Base peak: 482.2954
Precursor m/z: 482.2946
Precursor type: [M-H]-
Precursor intensity: 293834
m/z	relative intensity	assigned
79.9573	12	O3S-
80.9636	2	HO3S-
124.0069	1	C2H6NO3S-
234.9854	3	C14H3O2S-
284.9772	2	C21HS-
323.1501	1	C20H21NO3-
335.2531	1	C17H37NO3S-
375.294	3	C21H43O3S-
386.3028	1	C22H42O5-
402.0434	1	C22H12NO5S-
482.2955	999	C26H44NO5S-
