Mass spectrum: SEROTONIN; LC-ESI-QTOF; MS2; CE: 10eV; R=5000; [M+H]+
Name: SEROTONIN
Name: 3-(2-aminoethyl)-1H-indol-5-ol
Formula: C10H12N2O
Exact mass: 176.09496
SMILES: NCCC1=CNC2=CC=C(O)C=C12
InChI: InChI=1S/C10H12N2O/c11-4-3-7-6-12-10-2-1-8(13)5-9(7)10/h1-2,5-6,12-13H,3-4,11H2
Instrument: Agilent 6530 QTOF
Instrument type: LC-ESI-QTOF
Ms type: MS2
Ion mode: POSITIVE
Ionization: ESI
Fragmentation mode: CID
Collision energy: 10 eV
Resolution: 5000
Column name: N/A
Retention time: 0.218 min
Base peak: 160.0759
Precursor m/z: 177.1022
Precursor type: [M+H]+
Precursor intensity: 2085393
m/z	relative intensity	assigned
65.0381	1	C5H5+
67.0415	6	C4H5N+
77.0378	4	C6H5+
79.0528	3	C6H7+
89.0387	2	C7H5+
103.0517	3	C8H7+
104.0476	1	C7H6N+
105.0679	16	C8H9+
115.0527	81	C9H7+
117.0564	49	C8H7N+
120.0471	1	C7H6NO+
130.0627	10	C9H8N+
131.0621	8	C8H7N2+
132.0786	88	C9H10N+
133.0615	22	C9H9O+
141.0564	1	C10H7N+
142.0631	30	C10H8N+
143.0701	19	C10H9N+
144.0474	2	C9H6NO+
145.0487	2	C9H7NO+
148.0725	4	C9H10NO+
159.0656	22	C10H9NO+
160.074	999	C10H10NO+
177.1034	4	C10H13N2O+
