Mass spectrum: Coenzyme Q10; LC-ESI-QTOF; MS2; CE: 10eV; R=7000; [M-H]-
Name: Coenzyme Q10
Name: 2-[(2E,6E,10E,14E,18E,22E,26E,30E,34E)-3,7,11,15,19,23,27,31,35,39-decamethyltetraconta-2,6,10,14,18,22,26,30,34,38-decaenyl]-5,6-dimethoxy-3-methylcyclohexa-2,5-diene-1,4-dione
Formula: C59H90O4
Exact mass: 862.6839
SMILES: CC1=C(C(=O)C(=C(C1=O)OC)OC)C/C=C(\C)/CC/C=C(\C)/CC/C=C(\C)/CC/C=C(\C)/CC/C=C(\C)/CC/C=C(\C)/CC/C=C(\C)/CC/C=C(\C)/CC/C=C(\C)/CCC=C(C)C
InChI: InChI=1S/C59H90O4/c1-44(2)24-15-25-45(3)26-16-27-46(4)28-17-29-47(5)30-18-31-48(6)32-19-33-49(7)34-20-35-50(8)36-21-37-51(9)38-22-39-52(10)40-23-41-53(11)42-43-55-54(12)56(60)58(62-13)59(63-14)57(55)61/h24,26,28,30,32,34,36,38,40,42H,15-23,25,27,29,31,33,35,37,39,41,43H2,1-14H3/b45-26+,46-28+,47-30+,48-32+,49-34+,50-36+,51-38+,52-40+,53-42+
Instrument: Agilent 6560 QTOF
Instrument type: LC-ESI-QTOF
Ms type: MS2
Ion mode: NEGATIVE
Ionization: ESI
Fragmentation mode: CID
Collision energy: 10 eV
Resolution: 7000
Column name: N/A
Retention time: 0.403 min
Base peak: 980.0164
Precursor m/z: 861.6766
Precursor type: [M-H]-
Precursor intensity: 849701
m/z	relative intensity	assigned
70.0986	101	C2H14O2-
71.0853	50	C5H11-
71.3673	77	C2H47-
72.0214	46	C3H4O2-
72.2828	57	C3H36-
74.074	55	C4H10O-
75.1404	54	C2H19O2-
76.0534	54	C3H8O2-
77.2857	57	C2H37O-
78.0314	59	C2H6O3-
78.128	57	CH18O3-
78.3859	57	CH50O-
79.0205	50	C5H3O-
79.1721	57	C2H23O2-
79.2062	77	C3H27O-
81.1129	54	H17O4-
81.5388	46	CH69-
82.0259	68	CH6O4-
82.5493	64	CH70-
83.1439	75	C4H19O-
84.2819	61	C4H36-
85.2184	50	C2H29O2-
86.0959	50	C2H14O3-
86.1331	68	C3H18O2-
86.1673	50	C4H22O-
86.4853	84	C2H62-
87.4218	80	H55O2-
87.4921	64	C2H63-
88.1251	96	C6H16-
88.221	58	C5H28-
89.2101	50	CH29O3-
89.5654	50	H73O-
90.124	62	C2H18O3-
91.2642	69	C2H35O2-
91.3003	63	C3H39O-
91.3948	54	C2H51O-
92.0466	46	C3H8O3-
92.3083	66	C3H40O-
92.404	72	C2H52O-
93.0937	69	C4H13O2-
93.2587	65	C5H33-
93.3521	60	C4H45-
93.4679	54	H61O2-
94.0273	70	C2H6O4-
94.098	54	C4H14O2-
94.1362	56	C5H18O-
94.2646	65	C5H34-
94.42	54	C2H54O-
96.1902	50	C6H24-
96.3374	57	C3H44O-
96.3616	60	H48O3-
97.1422	50	CH21O4-
98.1517	61	CH22O4-
98.3186	82	C2H42O2-
99.0671	57	C2H11O4-
99.1015	68	C3H15O3-
100.072	61	C2H12O4-
100.1687	75	CH24O4-
100.2042	54	C2H28O3-
100.2777	54	C4H36O-
100.3148	64	C5H40-
100.4669	61	C2H60O-
101.5657	54	CH73O-
102.1642	61	C4H22O2-
103.3215	55	CH43O3-
103.3363	57	C5H43-
103.3971	65	C3H51O-
103.4182	59	H55O3-
104.0245	46	C7H4O-
104.2381	46	C2H32O3-
104.2525	59	C6H32-
104.3452	68	C5H44-
104.4587	60	CH60O2-
105.1295	56	C6H17O-
105.2795	68	C3H37O2-
106.2509	69	C2H34O3-
106.4176	72	C3H54O-
107.352	58	CH47O3-
108.0445	66	C3H8O4-
108.2094	50	C4H28O2-
108.2807	75	C6H36-
108.4329	65	C3H56O-
108.6562	54	C2H84-
109.1978	56	C7H25-
109.5929	55	H77O2-
110.2616	57	C5H34O-
111.1052	54	C4H15O3-
111.1376	62	C5H19O2-
111.2896	46	C2H39O3-
111.3472	75	H47O4-
111.3871	46	CH51O3-
112.0155	73	C5H4O3-
112.033	61	C9H4-
112.1255	57	C8H16-
113.3782	46	C4H49O-
113.9986	54	C4H2O4-
114.1969	54	C6H26O-
114.3162	66	C2H42O3-
114.386	56	C4H50O-
114.6105	62	C3H78-
115.0022	61	C4H3O4-
115.1928	77	C2H27O4-
115.288	66	CH39O4-
115.3574	54	C3H47O2-
115.3965	46	C4H51O-
115.4499	68	C2H59O2-
115.487	75	C3H63O-
116.2521	66	C7H32-
116.2915	50	CH40O4-
116.3464	74	C6H44-
117.5995	54	C2H77O-
118.1209	74	C3H18O4-
118.1381	60	C7H18O-
118.2861	50	C4H38O2-
118.4008	57	H54O4-
119.071	54	C5H11O3-
119.225	59	C2H31O4-
119.3164	55	CH43O4-
119.4278	64	C4H55O-
119.5203	71	C3H67O-
119.9876	50	C6O3-
120.6819	73	H88O2-
121.2202	73	C5H29O2-
121.2357	50	C2H33O4-
121.4038	77	C3H53O2-
121.5727	60	C4H73-
123.3629	72	C5H47O-
123.6096	58	CH79O2-
123.6464	88	C2H83O-
124.112	50	C5H16O3-
124.169	65	C3H24O4-
124.265	55	C2H36O4-
124.358	61	CH48O4-
125.2297	64	C8H29-
125.3983	64	C2H53O3-
125.5087	54	C5H65-
126.2917	86	C6H38O-
127.0978	58	C4H15O4-
128.0854	54	C7H12O2-
128.1409	59	C5H20O3-
128.2339	73	C4H32O3-
128.3456	55	C7H44-
128.4933	46	C4H64O-
128.53	66	C5H68-
129.3138	61	C6H41O-
129.3557	68	C7H45-
130.0617	69	C6H10O3-
130.212	58	C3H30O4-
130.3238	71	C6H42O-
130.4981	57	H66O4-
131.1077	46	C7H15O2-
131.1805	65	C9H23-
131.294	65	C5H39O2-
131.4498	69	C2H59O3-
131.5068	76	H67O4-
131.5568	72	C5H71-
131.5799	46	C2H75O2-
131.6324	76	H83O3-
131.9839	54	C7O3-
132.1896	58	C9H24-
132.676	60	CH88O2-
133.3133	55	C5H41O2-
133.4749	54	C6H61-
133.5373	47	C4H69O-
133.5533	46	CH73O3-
133.6525	58	H85O3-
135.3507	63	C2H47O4-
135.4019	64	C7H51-
136.0166	50	C7H4O3-
136.0726	57	C5H12O4-
136.0924	52	C9H12O-
137.269	61	C3H37O4-
137.3044	73	C4H41O3-
137.6244	58	C2H81O2-
138.2939	96	C7H38O-
138.5966	82	CH78O3-
139.0525	63	C11H7-
139.0957	60	C5H15O4-
139.1941	58	C4H27O4-
139.4538	57	C4H59O2-
139.6056	52	CH79O3-
140.1064	62	C5H16O4-
140.3637	69	C5H48O2-
141.0948	65	C8H13O2-
141.5282	65	C2H69O3-
142.2491	69	C5H34O3-
142.4382	62	C3H58O3-
143.0375	73	C6H7O4-
143.1462	57	C9H19O-
144.1724	70	C6H24O3-
144.5515	64	C2H72O3-
145.2918	57	C9H37-
145.6512	59	CH85O3-
146.0935	55	C7H14O3-
146.5273	61	CH70O4-
147.9962	67	C11O-
148.5451	55	CH72O4-
149.1914	61	C9H25O-
149.3206	65	C9H41-
149.3433	83	C6H45O2-
149.5696	57	C5H73O-
149.6418	57	H85O4-
149.9934	68	C7H2O4-
150.0504	50	C12H6-
150.3526	58	C6H46O2-
151.1934	65	C5H27O4-
151.4164	81	C4H55O3-
151.4506	65	C5H59O2-
152.1196	50	C10H16O-
152.5518	79	C4H72O2-
154.0048	54	C10H2O2-
154.0419	46	C11H6O-
154.3212	47	C8H42O-
154.5729	46	C4H74O2-
154.6027	69	C5H78O-
155.6731	54	C3H87O2-
156.1728	58	C7H24O3-
156.4195	71	C3H56O4-
157.1228	77	C9H17O2-
157.219	81	C8H29O2-
157.6662	61	C6H85-
158.2849	50	C6H38O3-
158.3516	50	C8H46O-
159.0452	65	C10H7O2-
159.1757	54	C10H23O-
159.2565	61	C5H35O4-
159.2875	65	C6H39O3-
159.364	55	C8H47O-
159.5884	62	C7H75-
159.6092	58	C4H79O2-
160.0556	78	C10H8O2-
160.2429	54	C8H32O2-
160.2631	60	C5H36O4-
161	54	C12HO-
161.38	54	C8H49O-
161.4183	73	C9H53-
161.5511	68	C2H73O4-
161.5851	58	C3H77O3-
161.6474	57	CH85O4-
162.3141	68	C6H42O3-
163.152	65	C12H19-
163.2033	50	C10H27O-
163.32	64	C6H43O3-
163.5069	58	C4H67O3-
164.2011	64	C6H28O4-
164.2966	56	C5H40O4-
164.6724	57	CH88O4-
165.0152	57	C8H5O4-
165.1632	67	C12H21-
165.2242	46	C10H29O-
165.4894	61	C3H65O4-
165.594	52	C6H77O-
166.0234	68	C8H6O4-
166.1742	61	C12H22-
166.3272	66	C9H42O-
166.5118	60	C7H66O-
167.1785	66	C12H23-
168.3422	61	C9H44O-
168.4326	66	C8H56O-
168.4661	57	C9H60-
168.552	54	C4H72O3-
169.6167	51	C2H81O4-
170.1069	71	C13H14-
170.3208	54	C8H42O2-
170.487	57	C9H62-
170.6728	69	C7H86-
171.2512	67	C6H35O4-
171.3955	77	C10H51-
171.5862	71	C8H75-
172.1509	57	C10H20O2-
172.1705	71	C7H24O4-
172.2779	54	C10H36O-
172.3532	67	C5H48O4-
173.1526	60	C10H21O2-
173.2463	61	C9H33O2-
173.4533	76	C4H61O4-
173.5095	57	C9H65-
173.6443	57	C2H85O4-
174.0713	57	C11H10O2-
174.2524	65	C9H34O2-
174.4787	57	C8H62O-
174.633	50	C5H82O2-
175.0163	75	C13H3O-
175.1377	69	C9H19O3-
175.2267	58	C8H31O3-
176.1604	57	C13H20-
176.3126	62	C10H40O-
176.5937	73	C7H76O-
177.2415	69	C8H33O3-
177.2555	64	C12H33-
177.3023	55	C6H41O4-
177.5866	70	C3H77O4-
178.2836	61	C9H38O2-
178.4798	46	C7H62O2-
178.6022	54	C7H78O-
178.6249	64	C4H82O3-
179.1849	64	C13H23-
179.2959	46	C9H39O2-
180.091	50	C14H12-
180.5479	82	C5H72O3-
181.1274	64	C11H17O2-
181.6108	68	C3H81O4-
182.0962	62	C10H14O3-
182.1278	64	C11H18O2-
182.4141	57	C8H54O2-
183.0467	57	C12H7O2-
183.1927	54	C9H27O3-
183.3064	50	C12H39-
183.439	67	C5H59O4-
184.4061	57	C11H52-
184.4541	55	C5H60O4-
185.0044	58	C14HO-
185.1937	57	C12H25O-
185.4602	54	C5H61O4-
185.4918	69	C6H65O3-
185.5994	57	C9H77-
185.697	66	C8H89-
186.1233	50	C10H18O3-
186.1839	50	C8H26O4-
186.6688	73	C7H86O-
187.036	70	C11H7O3-
187.5251	57	C10H67-
188.1597	50	C14H20-
188.2965	54	C7H40O4-
188.4236	66	C7H56O3-
189.152	181	C10H21O3-
189.2233	66	C12H29O-
189.4062	58	C10H53O-
189.4317	73	C7H57O3-
189.4708	65	C8H61O2-
189.6362	59	C9H81-
189.657	47	C6H85O2-
189.6748	51	C3H89O4-
190.5481	54	C10H70-
190.5943	63	C4H78O4-
191.3179	64	C7H43O4-
192.0551	54	C14H8O-
192.2323	50	C8H32O4-
192.4325	61	C10H56O-
192.4567	69	C7H60O3-
193.0503	54	C10H9O4-
193.2395	50	C8H33O4-
193.5321	63	C9H69O-
193.629	65	C8H81O-
194.2663	50	C12H34O-
194.3148	46	C10H42O2-
195.0285	57	C16H3-
195.1623	50	C9H23O4-
195.236	56	C11H31O2-
195.2569	67	C8H35O4-
195.2923	50	C9H39O3-
195.3851	71	C8H51O3-
195.6687	65	C5H87O3-
196.3109	50	C13H40-
196.395	55	C8H52O3-
196.6544	55	C8H84O-
197.2855	54	C12H37O-
197.3963	54	C8H53O3-
197.569	90	C9H73O-
197.661	50	C8H85O-
197.6998	73	C9H89-
198.089	67	C10H14O4-
198.2558	57	C11H34O2-
199.1357	68	C11H19O3-
199.3407	58	C13H43-
200.1048	61	C10H16O4-
200.2038	65	C9H28O4-
200.2329	65	C10H32O3-
200.2758	67	C11H36O2-
200.3083	47	C12H40O-
201.094	73	C13H13O2-
201.3416	58	C9H45O3-
202.0306	60	C11H6O4-
202.2523	46	C10H34O3-
202.3092	50	C8H42O4-
203.3135	54	C8H43O4-
203.5206	61	C10H67O-
203.5538	54	C11H71-
204.0788	69	C12H12O3-
204.2496	57	C13H32O-
204.4186	66	C7H56O4-
204.4534	55	C8H60O3-
204.5279	66	C10H68O-
204.5477	63	C7H72O3-
204.6434	61	C6H84O3-
205.1788	54	C11H25O3-
205.3353	65	C8H45O4-
206.1565	57	C10H22O4-
206.4474	57	C11H58O-
206.6589	79	C6H86O3-
207.2734	73	C13H35O-
207.4431	50	C7H59O4-
208.021	73	C13H4O3-
208.1728	61	C10H24O4-
208.215	57	C15H28-
208.6522	81	C9H84O-
209.1566	67	C13H21O2-
209.1943	54	C14H25O-
209.2248	46	C15H29-
209.2668	50	C9H37O4-
209.5464	77	C6H73O4-
209.5867	65	C7H77O3-
209.6081	61	C11H77-
210.072	59	C14H10O2-
210.5069	62	C8H66O3-
212.1469	50	C12H20O3-
212.4762	89	C7H64O4-
212.5722	50	C6H76O4-
212.6876	102	C9H88O-
213.1533	46	C12H21O3-
213.399	74	C8H53O4-
213.5986	54	C10H77O-
213.639	61	C11H81-
214.0626	68	C13H10O3-
214.2298	59	C14H30O-
214.5009	54	C7H66O4-
215.2733	61	C15H35-
216.0166	54	C15H4O2-
216.1783	73	C12H24O3-
216.6566	54	C11H84-
217.2545	50	C14H33O-
217.4217	64	C8H57O4-
217.6684	79	C11H85-
218.0616	74	C12H10O4-
218.1084	57	C17H14-
218.1847	57	C12H26O3-
218.2042	57	C16H26-
218.2647	66	C14H34O-
218.3765	86	C10H50O3-
218.4342	74	C8H58O4-
218.6784	65	C11H86-
219.1402	66	C14H19O2-
219.3025	69	C15H39-
219.5919	56	C12H75-
219.9987	46	C17O-
220.0342	50	C18H4-
220.3133	46	C15H40-
220.3731	61	C13H48O-
220.4508	57	C8H60O4-
220.501	57	C13H64-
221.2439	61	C13H33O2-
221.2894	58	C14H37O-
221.3255	50	C15H41-
221.4619	57	C8H61O4-
222.0478	73	C18H6-
222.4812	50	C12H62O-
223.2857	54	C10H39O4-
223.38	52	C9H51O4-
223.4172	54	C10H55O3-
224.0297	54	C17H4O-
224.2967	56	C10H40O4-
224.572	65	C7H76O4-
224.5922	54	C11H76O-
224.6136	54	C8H80O3-
225.3506	50	C15H45-
225.399	69	C9H53O4-
226.3972	55	C9H54O4-
226.5661	61	C10H74O2-
226.5861	59	C7H78O4-
227.0481	52	C17H7O-
227.2704	73	C16H35-
227.3656	62	C15H47-
227.52	76	C12H67O-
228.0049	50	C19-
228.1377	52	C12H20O4-
228.3416	57	C14H44O-
228.4604	46	C10H60O3-
229.069	65	C17H9O-
229.1991	64	C17H25-
229.2329	61	C11H33O4-
229.3634	47	C11H49O3-
230.1581	69	C12H22O4-
231.1552	66	C12H23O4-
231.3592	59	C14H47O-
231.6323	54	C7H83O4-
232.0198	54	C15H4O3-
232.1787	54	C16H24O-
232.2039	50	C13H28O3-
232.4827	60	C10H64O3-
232.502	46	C14H64-
232.5588	69	C12H72O-
232.617	79	C10H80O2-
232.6738	66	C8H88O3-
233.4758	61	C13H61O-
233.6221	54	C10H81O2-
233.6797	50	C8H89O3-
235.291	73	C11H39O4-
235.4873	61	C13H63O-
235.5097	77	C10H67O3-
236.4775	54	C9H64O4-
236.5771	54	C8H76O4-
236.6819	50	C11H88O-
237.0215	50	C14H5O4-
237.2477	46	C13H33O3-
237.2807	57	C14H37O2-
237.4889	66	C9H65O4-
237.5398	57	C14H69-
237.6185	50	C9H81O3-
237.6577	66	C10H85O2-
238.2343	64	C16H30O-
238.4372	52	C11H58O3-
238.6214	50	C9H82O3-
239.1441	62	C17H19O-
239.2591	50	C13H35O3-
239.4479	56	C11H59O3-
239.5814	78	C11H75O2-
240.0455	71	C14H8O4-
240.4594	64	C11H60O3-
240.5893	66	C11H76O2-
240.6092	50	C8H80O4-
241.1213	59	C16H17O2-
241.1607	54	C17H21O-
241.2872	54	C17H37-
241.3118	50	C14H41O2-
241.503	57	C12H65O2-
241.6657	66	C13H85-
242.09	65	C15H14O3-
242.1668	50	C17H22O-
242.4086	64	C13H54O2-
242.4483	50	C14H58O-
243.1767	46	C17H23O-
244.0928	54	C18H12O-
244.6899	50	C13H88-
245.3379	65	C14H45O2-
245.4357	62	C13H57O2-
245.491	50	C11H65O3-
245.6443	81	C8H85O4-
246.0517	73	C20H6-
246.1665	73	C16H22O2-
246.3313	52	C17H42-
246.448	61	C13H58O2-
246.5744	50	C13H74O-
247.1539	76	C19H19-
247.4102	54	C12H55O3-
247.4347	50	C16H55-
248.5007	84	C14H64O-
249.0393	54	C19H5O-
249.4314	87	C12H57O3-
249.6743	54	C8H89O4-
250.1373	46	C18H18O-
250.2452	68	C14H34O3-
250.4122	46	C15H54O-
250.4537	65	C16H58-
250.5716	50	C12H74O2-
251.1123	58	C17H15O2-
251.2171	50	C13H31O4-
251.556	60	C15H71-
251.6718	54	C11H87O2-
252.62	55	C13H80O-
253.0464	52	C15H9O4-
253.1835	68	C15H25O3-
253.406	50	C14H53O2-
253.4315	67	C11H57O4-
253.4762	59	C16H61-
254.0069	54	C17H2O3-
254.2231	54	C16H30O2-
255.2861	65	C14H39O3-
255.3586	46	C16H47O-
255.4776	54	C12H63O3-
255.5766	73	C11H75O3-
256.2354	55	C16H32O2-
256.295	68	C14H40O3-
256.4274	50	C14H56O2-
256.4552	50	C11H60O4-
256.4862	58	C12H64O3-
257.0387	63	C21H5-
257.2271	62	C19H29-
257.5878	66	C11H77O3-
258.1382	59	C20H18-
258.4453	62	C14H58O2-
258.5593	50	C10H74O4-
259.0409	68	C17H7O3-
259.3242	58	C14H43O3-
259.3939	50	C16H51O-
260.0206	73	C20H4O-
260.1417	50	C16H20O3-
260.3605	62	C15H48O2-
260.436	52	C17H56-
260.4641	81	C14H60O2-
261.0363	54	C20H5O-
261.1286	54	C19H17O-
261.3483	59	C18H45-
261.494	54	C11H65O4-
261.5268	61	C12H69O3-
262.0426	98	C20H6O-
262.3271	54	C17H42O-
262.449	60	C17H58-
263.3591	72	C14H47O3-
263.5076	65	C11H67O4-
263.602	61	C10H79O4-
263.6556	46	C15H83-
264.0257	73	C19H4O2-
264.1824	65	C20H24-
264.5587	78	C16H72-
264.5909	50	C13H76O2-
265.3441	92	C17H45O-
265.5536	62	C12H73O3-
265.6306	73	C14H81O-
266.1328	50	C18H18O2-
266.2772	54	C15H38O3-
266.3175	57	C16H42O2-
266.3783	59	C14H50O3-
266.4335	54	C12H58O4-
266.6364	75	C14H82O-
266.6605	50	C11H86O3-
267.4768	76	C13H63O3-
267.5467	46	C15H71O-
268.2773	65	C18H36O-
268.4454	57	C12H60O4-
269.0654	76	C19H9O2-
269.3975	60	C14H53O3-
270.2312	58	C20H30-
270.2877	61	C18H38O-
271.226	46	C16H31O3-
271.386	50	C13H51O4-
271.4741	57	C12H63O4-
271.5193	50	C17H67-
271.6701	46	C14H87O-
271.9931	58	C20O2-
272.155	54	C21H20-
272.2775	51	C17H36O2-
272.4335	50	C18H56-
272.4781	50	C12H64O4-
272.6802	55	C14H88O-
273.4332	73	C14H57O3-
274.2365	54	C19H30O-
274.4968	58	C12H66O4-
275.2003	54	C18H27O2-
275.226	65	C15H31O4-
275.4582	63	C18H59-
275.5713	77	C14H75O2-
275.6145	73	C15H79O-
276.0878	72	C22H12-
276.2467	57	C19H32O-
276.5106	54	C12H68O4-
276.5443	189	C13H72O3-
277.0644	57	C21H9O-
277.1855	57	C17H25O3-
277.2374	68	C15H33O4-
277.4319	55	C13H57O4-
278.003	46	C19H2O3-
278.2012	65	C21H26-
278.2409	75	C15H34O4-
278.2882	69	C16H38O3-
278.5633	57	C13H74O3-
279.0518	57	C20H7O2-
279.143	63	C19H19O2-
279.364	65	C18H47O-
279.386	55	C15H51O3-
279.4156	67	C16H55O2-
279.6428	60	C15H83O-
279.9992	56	C22O-
280.093	73	C21H12O-
280.2166	50	C21H28-
280.2966	77	C16H40O3-
280.3378	84	C17H44O2-
280.4109	50	C19H52-
280.6387	54	C11H84O4-
280.6829	57	C16H88-
280.9934	73	C18HO4-
281.0287	63	C19H5O3-
281.4615	87	C13H61O4-
281.5351	61	C15H69O2-
282.0088	54	C22H2O-
282.1047	80	C21H14O-
282.1954	54	C20H26O-
282.2246	61	C17H30O3-
282.357	54	C17H46O2-
282.6597	46	C11H86O4-
282.9981	60	C18H3O4-
283.0745	54	C20H11O2-
283.1038	50	C17H15O4-
283.3582	50	C17H47O2-
284.1444	57	C18H20O3-
284.3355	57	C16H44O3-
284.6157	68	C13H80O3-
285.1632	50	C22H21-
285.45	46	C19H57-
285.6342	63	C17H81-
285.6753	50	C11H89O4-
286.2292	50	C20H30O-
286.2913	62	C18H38O2-
286.3505	71	C16H46O3-
286.5328	65	C14H70O3-
286.6101	52	C16H78O-
286.6705	46	C14H86O2-
287.0118	50	C21H3O2-
287.1063	58	C20H15O2-
287.3305	60	C19H43O-
287.6642	57	C14H87O2-
287.9782	50	C20O3-
288.0993	54	C23H12-
288.1537	54	C21H20O-
288.1853	59	C22H24-
288.2421	69	C20H32O-
288.346	69	C19H44O-
288.5183	61	C13H68O4-
288.5658	67	C18H72-
289.0819	57	C19H13O3-
289.1636	62	C21H21O-
289.5976	62	C15H77O2-
289.6646	66	C17H85-
290.0044	58	C20H2O3-
290.0993	55	C19H14O3-
290.3545	58	C19H46O-
290.6614	50	C13H86O3-
291.1028	55	C19H15O3-
291.1327	57	C20H19O2-
291.1991	59	C18H27O3-
291.4539	58	C18H59O-
291.4875	54	C19H63-
291.5811	50	C18H75-
291.639	54	C16H83O-
292.0457	59	C21H8O2-
292.0827	63	C22H12O-
292.1174	61	C19H16O3-
292.2442	68	C19H32O2-
292.3001	54	C17H40O3-
292.3663	54	C19H48O-
292.3976	57	C16H52O3-
293.1007	76	C22H13O-
293.4675	58	C18H61O-
293.6053	55	C18H77-
294.1286	76	C19H18O3-
294.2241	65	C18H30O3-
294.253	60	C19H34O2-
294.5383	55	C16H70O2-
294.5751	72	C17H74O-
295.0905	57	C18H15O4-
295.1423	50	C23H19-
295.3763	78	C15H51O4-
295.5527	68	C16H71O2-
295.6046	61	C14H79O3-
296.0109	50	C19H4O4-
296.137	57	C19H20O3-
296.3518	58	C21H44-
296.4167	51	C16H56O3-
296.5509	54	C16H72O2-
296.5804	65	C13H76O4-
296.6286	54	C18H80-
296.6638	50	C12H88O4-
297.0171	46	C19H5O4-
297.1191	73	C18H17O4-
297.4967	81	C18H65O-
297.6959	46	C16H89O-
298.0975	57	C21H14O2-
298.1352	65	C22H18O-
298.5135	59	C18H66O-
298.6284	66	C14H82O3-
299.0541	65	C23H7O-
299.4298	61	C19H55O-
299.4856	46	C17H63O2-
299.5375	78	C15H71O3-
300.4361	52	C19H56O-
301.0094	60	C25H-
301.1484	57	C18H21O4-
302.1872	46	C19H26O3-
302.2461	54	C17H34O4-
302.6537	86	C14H86O3-
303.3881	61	C17H51O3-
303.6059	46	C16H79O2-
304.0527	65	C22H8O2-
304.2179	46	C23H28-
304.2656	65	C17H36O4-
304.33	50	C19H44O2-
304.3518	81	C16H48O4-
304.3967	72	C17H52O3-
304.6192	68	C16H80O2-
305.0988	50	C23H13O-
305.2146	65	C19H29O3-
305.3834	68	C20H49O-
305.4316	59	C18H57O2-
306.0344	62	C21H6O3-
306.3551	63	C19H46O2-
306.4518	50	C18H58O2-
306.5108	69	C20H66-
307.0336	46	C21H7O3-
307.3188	68	C18H43O3-
307.5092	50	C16H67O3-
308.1171	69	C23H16O-
308.3686	59	C19H48O2-
308.4175	60	C17H56O3-
308.4786	57	C15H64O4-
308.6171	73	C15H80O3-
308.679	61	C17H88O-
309.0193	80	C20H5O4-
309.1307	50	C23H17O-
309.2869	70	C20H37O2-
309.4742	61	C18H61O2-
309.5772	64	C14H77O4-
309.6262	46	C15H81O3-
310.086	61	C25H10-
310.3463	65	C18H46O3-
310.3968	59	C16H54O4-
310.4415	50	C17H58O3-
310.5514	54	C20H70-
310.5883	54	C14H78O4-
311.0413	58	C20H7O4-
311.1742	68	C24H23-
311.3944	52	C19H51O2-
311.4613	61	C21H59-
311.4846	51	C18H63O2-
311.5182	63	C19H67O-
311.6549	54	C19H83-
312.2318	54	C18H32O4-
312.4047	62	C19H52O2-
312.5116	46	C15H68O4-
312.5682	55	C20H72-
313.1653	57	C23H21O-
313.2706	54	C19H37O3-
313.3416	57	C21H45O-
313.4048	46	C19H53O2-
314.0618	57	C20H10O4-
314.1705	70	C23H22O-
314.2095	52	C24H26-
314.3172	68	C20H42O2-
314.5379	46	C19H70O-
314.599	68	C17H78O2-
315.0053	79	C22H3O3-
315.0495	50	C23H7O2-
315.1111	66	C25H15-
315.5516	61	C19H71O-
315.5889	57	C20H75-
315.6777	79	C19H87-
316.2114	65	C20H28O3-
316.5923	71	C20H76-
317.2913	54	C22H37O-
317.3779	83	C21H49O-
317.6462	66	C14H85O4-
318.1663	50	C22H22O2-
318.2054	69	C23H26O-
318.2799	65	C18H38O4-
318.3531	55	C20H46O2-
318.5517	61	C15H74O4-
319.0022	47	C21H3O4-
319.0725	56	C23H11O2-
319.2569	84	C21H35O2-
319.3524	55	C20H47O2-
319.5628	46	C15H75O4-
319.9939	57	C24O2-
320.0645	54	C26H8-
320.4054	77	C21H52O-
320.5782	61	C15H76O4-
321.0974	77	C23H13O2-
321.1722	47	C25H21-
321.6271	50	C20H81-
322.2835	46	C21H38O2-
322.3739	79	C20H50O2-
322.5769	61	C18H74O2-
322.6377	65	C20H82-
322.6702	82	C17H86O2-
323.1052	81	C23H15O2-
323.3844	59	C20H51O2-
323.4285	74	C21H55O-
323.4809	84	C19H63O2-
324.2314	46	C19H32O4-
324.4602	54	C18H60O3-
325.146	62	C20H21O4-
325.2522	73	C23H33O-
325.6627	54	C20H85-
326.2634	62	C23H34O-
326.6595	46	C16H86O3-
327.0128	52	C23H3O3-
327.0397	64	C24H7O2-
327.3429	73	C18H47O4-
327.6813	57	C20H87-
328.378	50	C22H48O-
328.5542	54	C20H72O-
329.2448	61	C22H33O2-
329.279	54	C23H37O-
329.5572	58	C16H73O4-
329.6459	61	C15H85O4-
330.0908	66	C21H14O4-
330.5519	57	C16H74O4-
330.6311	54	C18H82O2-
331.1029	46	C21H15O4-
331.1846	58	C20H27O4-
331.3085	50	C23H39O-
331.4295	61	C23H55-
331.6405	50	C18H83O2-
332.2334	77	C21H32O3-
332.3119	46	C23H40O-
332.4737	57	C17H64O4-
332.5559	54	C19H72O2-
332.598	83	C20H76O-
332.6777	46	C19H88O-
333.0765	69	C27H9-
333.6689	50	C15H89O4-
334.0125	70	C25H2O2-
334.4326	54	C19H58O3-
335.5483	68	C18H71O3-
335.5779	65	C19H75O2-
336.1546	69	C25H20O-
336.3088	73	C22H40O2-
336.393	54	C21H52O2-
336.4353	72	C22H56O-
336.5134	68	C17H68O4-
337.0356	54	C25H5O2-
337.0836	61	C23H13O3-
337.1426	55	C21H21O4-
337.181	73	C22H25O3-
337.3114	63	C22H41O2-
337.4264	54	C18H57O4-
337.6794	69	C18H89O2-
338.3366	65	C19H46O4-
338.4177	55	C21H54O2-
338.539	75	C21H70O-
339.0085	73	C24H3O3-
339.0775	73	C26H11O-
339.1229	58	C27H15-
339.3235	57	C22H43O2-
339.4611	54	C22H59O-
339.547	54	C21H71O-
339.5879	50	C22H75-
340.0675	59	C22H12O4-
340.1242	58	C27H16-
340.3935	58	C20H52O3-
340.5957	55	C22H76-
341.1002	69	C26H13O-
341.2492	65	C23H33O2-
341.3273	58	C25H41-
341.4156	59	C24H53-
341.4567	61	C18H61O4-
341.5876	46	C18H77O3-
341.6221	68	C19H81O2-
341.9926	60	C23H2O4-
342.1574	68	C24H22O2-
342.4009	59	C20H54O3-
342.5114	77	C23H66-
342.6707	60	C20H86O-
343.1911	66	C21H27O4-
343.222	59	C22H31O3-
343.3008	62	C24H39O-
343.4551	61	C21H59O2-
344.0253	69	C27H4O-
344.0978	62	C22H16O4-
344.3922	57	C19H52O4-
344.615	68	C18H80O3-
345.1774	54	C24H25O2-
345.329	73	C21H45O3-
346.0334	73	C23H6O4-
346.1293	55	C26H18O-
346.3158	72	C20H42O4-
346.3389	61	C21H46O3-
346.4949	57	C18H66O4-
346.6141	65	C21H78O-
347.0585	84	C27H7O-
347.3881	50	C22H51O2-
347.5226	46	C22H67O-
347.6148	54	C21H79O-
348.0898	50	C28H12-
348.5206	55	C22H68O-
348.6358	65	C18H84O3-
349.0153	66	C29H-
349.1198	51	C25H17O2-
349.1683	65	C26H21O-
349.2622	57	C25H33O-
349.337	65	C20H45O4-
349.5377	50	C22H69O-
349.6627	61	C22H85-
350.208	56	C27H26-
350.383	50	C21H50O3-
350.4856	73	C24H62-
350.5664	54	C19H74O3-
350.6328	65	C21H82O-
351.2049	62	C27H27-
351.5901	50	C23H75-
352.0761	69	C23H12O4-
352.1739	58	C22H24O4-
353.1921	55	C26H25O-
353.3958	67	C21H53O3-
353.6191	72	C20H81O2-
354.2705	50	C21H38O4-
354.3489	66	C23H46O2-
354.5442	66	C21H70O2-
355.1282	59	C24H19O3-
355.2562	57	C24H35O2-
355.3432	57	C26H43-
355.3952	77	C24H51O-
355.9831	46	C27O2-
356.1072	66	C23H16O4-
356.4325	69	C25H56-
356.5353	61	C24H68-
357.028	50	C28H5O-
357.0481	54	C25H9O3-
357.1817	61	C25H25O2-
357.2955	55	C21H41O4-
357.3219	50	C25H41O-
357.3561	59	C26H45-
357.6372	54	C23H81-
359.2252	65	C22H31O4-
359.4478	57	C21H59O3-
359.4798	54	C22H63O2-
359.5136	52	C23H67O-
359.5599	54	C24H71-
359.6318	58	C19H83O3-
360.0153	59	C27H4O2-
360.0642	68	C28H8O-
360.2658	57	C23H36O3-
360.2944	61	C24H40O2-
360.39	46	C23H52O2-
360.4941	69	C22H64O2-
361.2662	71	C23H37O3-
361.4806	54	C25H61-
361.5319	58	C23H69O-
361.5972	74	C21H77O2-
361.6576	54	C19H85O3-
362.0336	59	C27H6O2-
362.2977	71	C27H38-
362.474	65	C21H62O3-
362.5596	67	C20H74O3-
362.6417	58	C22H82O-
363.1805	71	C27H23O-
363.3192	60	C24H43O2-
363.4824	52	C21H63O3-
363.5953	50	C24H75-
364.0129	46	C26H4O3-
364.142	60	C26H20O2-
364.2244	61	C28H28-
364.3504	69	C21H48O4-
364.4068	61	C26H52-
364.458	57	C24H60O-
364.6075	57	C21H80O2-
365.5462	50	C19H73O4-
366.1548	57	C26H22O2-
366.9946	54	C25H3O4-
367.3612	69	C24H47O2-
367.45	54	C23H59O2-
367.6178	56	C24H79-
367.6439	50	C21H83O2-
368.0631	65	C30H8-
368.2156	47	C27H28O-
368.269	111	C25H36O2-
368.3036	61	C26H40O-
368.3869	54	C21H52O4-
368.4612	57	C23H60O2-
368.6199	65	C24H80-
369.1354	69	C28H17O-
369.2132	68	C23H29O4-
370.2274	54	C27H30O-
370.389	59	C24H50O2-
370.4876	61	C20H66O4-
371.2981	50	C25H39O2-
371.5514	65	C25H71-
371.639	67	C20H83O3-
372.2497	68	C27H32O-
372.3576	68	C23H48O3-
372.4708	54	C26H60-
372.6288	54	C23H80O-
372.6697	65	C21H88O2-
373.0338	63	C28H5O2-
373.1368	54	C24H21O4-
373.1646	66	C28H21O-
373.239	54	C23H33O4-
373.3464	66	C26H45O-
373.55	47	C21H73O3-
374.0015	58	C27H2O3-
374.454	69	C25H58O-
375.4328	65	C21H59O4-
376.0542	52	C28H8O2-
377.081	54	C25H13O4-
377.4493	46	C21H61O4-
378.0452	50	C31H6-
378.4972	74	C22H66O3-
379.0897	58	C25H15O4-
379.2344	55	C25H31O3-
379.4488	55	C24H59O2-
379.6083	65	C21H79O3-
380.1821	46	C27H24O2-
380.2329	65	C25H32O3-
380.2696	65	C26H36O2-
380.5836	54	C24H76O-
381.2127	77	C24H29O4-
381.2536	69	C29H33-
381.6743	69	C19H89O4-
382.1032	68	C28H14O2-
382.1702	50	C30H22-
382.2357	57	C28H30O-
382.3437	54	C24H46O3-
383.1139	66	C28H15O2-
383.2239	77	C24H31O4-
383.3669	77	C28H47-
383.4663	61	C27H59-
383.5405	50	C22H71O3-
383.5915	65	C20H79O4-
383.656	54	C25H83-
383.9882	68	C28O3-
384.0751	58	C27H12O3-
384.1484	60	C29H20O-
384.218	54	C27H28O2-
384.3939	68	C25H52O2-
384.623	60	C24H80O-
385.3489	58	C27H45O-
385.5391	70	C25H69O-
386.0368	73	C29H6O2-
386.1303	61	C28H18O2-
386.3708	68	C24H50O3-
386.4263	50	C22H58O4-
386.5156	88	C24H66O2-
387.0545	61	C29H7O2-
387.2965	58	C25H39O3-
387.4967	46	C27H63-
387.539	50	C21H71O4-
387.6082	59	C23H79O2-
387.6399	385	C24H83O-
388.1562	65	C28H20O2-
388.2148	59	C30H28-
389.0517	50	C29H9O2-
389.3456	65	C26H45O2-
389.5636	73	C25H73O-
389.6162	57	C23H81O2-
390.1711	50	C28H22O2-
390.2032	70	C29H26O-
390.2518	46	C27H34O2-
390.4393	66	C25H58O2-
390.5691	54	C25H74O-
391.0303	62	C28H7O3-
391.126	68	C27H19O3-
391.3507	57	C26H47O2-
391.4731	61	C22H63O4-
392.0465	57	C28H8O3-
392.1794	69	C28H24O2-
392.395	57	C27H52O-
392.5654	81	C21H76O4-
392.5947	46	C25H76O-
393.0603	58	C28H9O3-
393.1885	55	C28H25O2-
393.2313	57	C29H29O-
393.4277	54	C24H57O3-
393.5255	57	C23H69O3-
393.6577	46	C23H85O2-
394.0352	50	C31H6O-
394.3771	58	C26H50O2-
395.1336	65	C26H19O4-
395.2769	46	C30H35-
395.3467	69	C25H47O3-
395.5405	84	C23H71O3-
396.0698	61	C28H12O3-
396.316	65	C24H44O4-
396.473	57	C28H60-
396.5918	69	C24H76O2-
396.6515	72	C26H84-
396.9953	46	C29HO3-
397.0652	57	C31H9O-
397.2307	65	C25H33O4-
397.2704	52	C26H37O3-
397.3039	66	C27H41O2-
397.3516	57	C28H45O-
397.6148	54	C21H81O4-
397.6482	50	C22H85O3-
398.4503	69	C27H58O-
398.6082	68	C24H78O2-
399.1002	77	C28H15O3-
399.1674	54	C26H23O4-
399.2021	50	C27H27O3-
399.2873	61	C26H39O3-
399.3215	82	C27H43O2-
399.4545	66	C27H59O-
400.0337	64	C33H4-
400.1404	54	C29H20O2-
400.3365	65	C27H44O2-
400.3854	60	C25H52O3-
400.4993	70	C28H64-
400.9804	71	C28HO4-
401.2636	57	C25H37O4-
401.3949	69	C25H53O3-
401.5211	69	C25H69O2-
401.6498	91	C21H85O4-
402.0121	58	C32H2O-
402.1939	57	C30H26O-
402.2249	47	C27H30O3-
402.2701	78	C25H38O4-
402.4236	50	C29H54-
403.1789	50	C29H23O2-
403.2407	59	C31H31-
403.3495	54	C27H47O2-
403.4379	59	C29H55-
403.5614	61	C22H75O4-
403.6389	54	C24H83O2-
404.0123	63	C28H4O4-
404.1165	92	C31H16O-
404.3226	63	C26H44O3-
404.4709	50	C23H64O4-
404.4965	63	C27H64O-
405.0013	60	C31HO2-
405.0919	62	C30H13O2-
405.2056	78	C26H29O4-
405.4013	54	C24H53O4-
405.4521	61	C29H57-
405.4924	72	C23H65O4-
405.5623	69	C25H73O2-
405.6835	50	C21H89O4-
406.0454	61	C32H6O-
406.1225	46	C27H18O4-
406.2627	69	C31H34-
406.3869	58	C27H50O2-
406.5702	50	C25H74O2-
407.0858	60	C33H11-
407.3091	54	C25H43O4-
407.3493	57	C26H47O3-
407.4244	65	C28H55O-
407.5317	54	C24H71O3-
407.6501	69	C27H83-
408.0817	54	C29H12O3-
408.1768	50	C28H24O3-
408.298	68	C28H40O2-
408.3329	60	C29H44O-
408.4734	50	C29H60-
409.1459	54	C27H21O4-
409.343	50	C29H45O-
409.6859	72	C24H89O2-
410.1597	73	C27H22O4-
410.286	60	C27H38O3-
410.3199	58	C28H42O2-
410.4128	50	C27H54O2-
410.5268	69	C23H70O4-
410.5974	65	C25H78O2-
411.1109	61	C33H15-
411.6794	60	C27H87-
412.0837	63	C32H12O-
412.2095	54	C28H28O3-
412.2752	46	C30H36O-
412.4657	73	C28H60O-
412.6465	66	C26H84O-
413.0184	46	C30H5O3-
413.1582	69	C30H21O2-
413.2032	57	C28H29O3-
413.2329	57	C32H29-
413.3557	69	C25H49O4-
413.5142	55	C29H65-
413.6046	50	C28H77-
414.2709	54	C26H38O4-
414.474	70	C28H62O-
415.0289	63	C33H3O-
415.4196	50	C26H55O3-
415.9811	68	C32O2-
416.163	57	C33H20-
416.5252	61	C29H68-
416.6293	60	C28H80-
417.1321	68	C32H17O-
417.2156	58	C31H29O-
417.2494	54	C28H33O3-
417.4206	59	C29H53O-
417.4957	61	C24H65O4-
417.5246	64	C25H69O3-
418.4271	69	C29H54O-
418.4669	61	C27H62O2-
418.5743	65	C26H74O2-
418.6663	55	C25H86O2-
419.0391	74	C29H7O4-
419.1219	50	C28H19O4-
419.2318	54	C31H31O-
419.4672	70	C30H59-
421.3987	57	C28H53O2-
421.4285	68	C25H57O4-
421.9986	61	C31H2O3-
422.1551	58	C28H22O4-
422.3756	57	C27H50O3-
422.4821	61	C30H62-
422.5335	61	C24H70O4-
422.5704	69	C25H74O3-
422.6486	61	C24H86O3-
423.1301	50	C31H19O2-
423.3799	61	C27H51O3-
423.9844	54	C30O4-
424.0215	75	C31H4O3-
424.1364	77	C31H20O2-
424.2587	69	C27H36O4-
424.293	55	C28H40O3-
424.5783	57	C25H76O3-
425.0064	65	C34HO-
425.1492	60	C31H21O2-
425.4261	80	C28H57O2-
425.4545	54	C25H61O4-
426.0299	70	C31H6O3-
427.2364	50	C33H31-
427.3809	57	C26H51O4-
427.5831	50	C28H75O-
428.0684	46	C35H8-
428.2338	50	C29H32O3-
428.3309	50	C28H44O3-
428.3789	52	C26H52O4-
428.433	69	C31H56-
428.5295	58	C30H68-
429.089	50	C32H13O2-
429.43	50	C27H57O3-
430.0189	77	C30H6O4-
430.1032	57	C32H14O2-
430.1329	61	C33H18O-
430.1863	52	C31H26O2-
430.4068	58	C26H54O4-
430.5937	54	C24H78O4-
430.6642	54	C26H86O2-
431.1207	78	C29H19O4-
431.158	68	C30H23O3-
431.288	54	C30H39O2-
431.3266	46	C31H43O-
431.3752	57	C32H47-
432.0762	69	C31H12O3-
432.4508	71	C27H60O3-
432.5181	54	C25H68O4-
432.5858	71	C27H76O2-
434.0747	73	C34H10O-
434.1708	74	C33H22O-
435.1102	54	C31H15O3-
435.4022	50	C32H51-
435.5319	54	C25H71O4-
435.6456	61	C28H83O-
436.145	67	C32H20O2-
436.1726	54	C29H24O4-
436.3035	66	C29H40O3-
436.3807	57	C31H48O-
436.5922	59	C30H76-
436.6528	61	C28H84O-
436.9801	83	C31HO4-
437.0718	58	C30H13O4-
437.1112	58	C31H17O3-
437.1524	54	C32H21O2-
437.5055	46	C31H65-
438.0311	54	C32H6O3-
438.2817	58	C28H38O4-
438.3957	55	C31H50O-
438.4871	55	C30H62O-
438.5107	68	C31H66-
439.0894	62	C30H15O4-
439.1441	54	C35H19-
439.3082	50	C32H39O-
439.3945	68	C31H51O-
439.4196	66	C28H55O3-
439.5731	57	C25H75O4-
440.1007	62	C30H16O4-
440.1377	57	C31H20O3-
440.1898	63	C29H28O4-
440.2953	57	C28H40O4-
440.3286	56	C29H44O3-
440.5825	57	C29H76O-
440.6947	59	C28H88O-
441.2293	54	C33H29O-
441.4909	46	C26H65O4-
441.6981	57	C28H89O-
442.0951	73	C33H14O2-
442.3364	54	C29H46O3-
442.4304	50	C28H58O3-
442.549	61	C31H70-
442.6568	72	C27H86O2-
443.2282	76	C29H31O4-
443.3423	60	C32H43O-
443.5211	76	C30H67O-
443.6186	54	C29H79O-
444.0324	76	C31H8O4-
444.0993	69	C36H12-
444.2184	58	C32H28O2-
444.3167	64	C28H44O4-
444.3434	46	C32H44O-
444.4074	50	C30H52O2-
444.4634	57	C32H60-
444.5875	58	C28H76O2-
446.178	58	C34H22O-
446.3144	55	C31H42O2-
447.0592	70	C31H11O4-
447.0946	57	C32H15O3-
447.129	61	C33H19O2-
447.33	50	C31H43O2-
448.187	61	C34H24O-
448.306	69	C34H40-
448.4129	58	C33H52-
448.5462	61	C26H72O4-
448.9983	79	C36HO-
449.1915	54	C34H25O-
449.2725	50	C29H37O4-
449.4224	58	C33H53-
450.2036	54	C34H26O-
450.3652	54	C28H50O4-
450.4871	57	C31H62O-
450.5365	54	C29H70O2-
451.0791	54	C34H11O2-
451.1393	710	C32H19O3-
451.2153	94	C34H27O-
451.2408	101	C35H31-
451.365	58	C31H47O2-
451.5595	54	C26H75O4-
452.309	61	C33H40O-
452.622	77	C31H80-
453.2907	69	C29H41O4-
453.5064	61	C31H65O-
454.1189	59	C31H18O4-
454.4883	54	C27H66O4-
454.6631	57	C28H86O2-
455.369	65	C34H47-
455.6301	54	C27H83O3-
456.225	61	C30H32O4-
456.2744	79	C31H36O3-
456.4048	73	C31H52O2-
456.5197	65	C27H68O4-
456.6324	46	C27H84O3-
457.1967	50	C36H25-
457.3159	46	C32H41O2-
457.4477	55	C32H57O-
458.3417	55	C29H46O4-
458.3838	69	C30H50O3-
458.4859	61	C33H62-
458.5543	62	C28H74O3-
459.2074	50	C36H27-
459.3252	56	C32H43O2-
459.6748	50	C31H87-
460.1573	69	C34H20O2-
460.191	59	C35H24O-
460.2264	50	C36H28-
460.5527	77	C31H72O-
461.0712	50	C35H9O2-
461.2582	54	C33H33O2-
461.4838	50	C29H65O3-
462.068	65	C35H10O2-
462.2204	60	C32H30O3-
462.4137	46	C30H54O3-
462.6238	55	C29H82O2-
462.9932	50	C33H3O4-
463.4249	50	C34H55-
463.4679	62	C28H63O4-
463.5236	54	C33H67-
463.9974	50	C36O2-
464.0367	50	C37H4O-
464.0946	182	C35H12O2-
464.1922	61	C31H28O4-
464.5478	50	C30H72O2-
464.6616	67	C26H88O4-
466.0649	73	C34H10O3-
466.2378	59	C35H30O-
466.4279	54	C33H54O-
466.6659	76	C29H86O2-
467.1286	58	C32H19O4-
467.3916	54	C32H51O2-
467.5127	64	C32H67O-
467.6214	50	C31H79O-
468.2238	46	C31H32O4-
468.3733	65	C35H48-
468.4551	61	C30H60O3-
468.6777	67	C29H88O2-
469.0053	77	C39H-
469.1065	58	C38H13-
469.175	57	C33H25O3-
470.1131	50	C38H14-
470.174	69	C36H22O-
470.358	57	C34H46O-
471.2722	65	C35H35O-
471.5569	68	C32H71O-
471.68	54	C32H87-
472.0299	66	C39H4-
472.1644	75	C32H24O4-
472.3774	57	C34H48O-
472.4124	68	C35H52-
472.5895	54	C33H76-
472.621	61	C30H80O2-
473.0446	73	C39H5-
473.0938	60	C37H13O-
473.1444	56	C35H21O2-
473.2162	63	C33H29O3-
473.3507	62	C33H45O2-
473.4883	63	C30H65O3-
473.5482	46	C28H73O4-
473.6655	50	C31H85O-
474.3045	54	C32H42O3-
474.6616	60	C31H86O-
475.0019	54	C34H3O4-
475.152	65	C38H19-
475.1883	69	C32H27O4-
475.3596	58	C33H47O2-
475.5523	71	C31H71O2-
476.0232	78	C38H4O-
476.6412	72	C30H84O2-
477.1902	65	C35H25O2-
477.3921	50	C30H53O4-
477.5895	59	C28H77O4-
478.0208	46	C34H6O4-
478.0526	63	C38H6O-
478.1087	60	C36H14O2-
478.2042	67	C35H26O2-
478.2565	68	C33H34O3-
478.3	47	C31H42O4-
478.3249	71	C35H42O-
478.3806	61	C33H50O2-
478.5167	50	C33H66O-
478.5508	54	C34H70-
478.6041	73	C32H78O-
479.0428	58	C38H7O-
479.2877	54	C34H39O2-
479.3554	73	C32H47O3-
479.4637	72	C35H59-
479.5093	81	C29H67O4-
479.6653	50	C30H87O2-
480.0966	62	C39H12-
480.2244	65	C32H32O4-
480.3735	59	C36H48-
480.5892	57	C31H76O2-
480.9987	66	C36HO3-
481.0821	50	C35H13O3-
481.1637	55	C37H21O-
481.5091	57	C32H65O2-
482.0545	56	C34H10O4-
482.21	60	C38H26-
482.4218	68	C33H54O2-
482.5704	50	C30H74O3-
483.0347	72	C37H7O2-
483.2773	50	C36H35O-
483.3621	50	C35H47O-
483.3936	57	C36H51-
483.4752	61	C31H63O3-
484.2847	76	C36H36O-
484.4927	60	C31H64O3-
484.5357	66	C29H72O4-
484.5934	54	C34H76-
484.6957	57	C33H88-
485.035	54	C40H5-
485.129	71	C39H17-
485.4495	50	C30H61O4-
485.6646	54	C32H85O-
486.0587	61	C37H10O2-
486.1762	55	C33H26O4-
486.3218	60	C37H42-
487.0971	68	C34H15O4-
488.0147	54	C35H4O4-
488.1704	88	C36H24O2-
488.2504	55	C38H32-
489.3959	58	C31H53O4-
489.6062	57	C33H77O-
490.009	62	C38H2O2-
490.0556	54	C36H10O3-
490.661	61	C31H86O2-
491.0706	73	C36H11O3-
491.1897	60	C36H27O2-
491.5074	54	C30H67O4-
492.038	57	C35H8O4-
492.143	46	C34H20O4-
492.3154	55	C32H44O4-
492.38	64	C37H48-
492.4414	73	C35H56O-
492.5425	55	C31H72O3-
493.1508	61	C34H21O4-
493.3153	64	C35H41O2-
493.4342	66	C35H57O-
494.1293	57	C37H18O2-
494.1577	74	C34H22O4-
495.0014	54	C37H3O3-
495.1964	54	C35H27O3-
495.529	54	C30H71O4-
495.663	46	C30H87O3-
496.0641	61	C35H12O4-
496.1744	73	C34H24O4-
496.3147	58	C38H40-
496.35	54	C32H48O4-
496.5969	57	C35H76-
497.0296	50	C37H5O3-
497.2593	50	C33H37O4-
497.3789	62	C36H49O-
497.4315	57	C34H57O2-
497.5799	50	C31H77O3-
497.6763	85	C30H89O3-
498.3691	46	C32H50O4-
498.5997	69	C31H78O3-
499.0155	69	C40H3O-
499.081	76	C38H11O2-
499.1269	61	C36H19O3-
499.2364	57	C39H31-
499.4166	55	C33H55O3-
499.6218	55	C35H79-
500.0377	50	C37H8O3-
500.0832	65	C38H12O2-
500.347	65	C38H44-
500.5322	54	C36H68-
500.6885	69	C33H88O-
501.0401	57	C40H5O-
501.2261	57	C38H29O-
501.2741	50	C36H37O2-
502.2305	55	C38H30O-
502.3415	50	C34H46O3-
502.4662	66	C34H62O2-
502.5595	54	C33H74O2-
503.1441	50	C39H19O-
503.3032	62	C36H39O2-
503.3433	66	C34H47O3-
503.5327	62	C32H71O3-
503.5686	54	C33H75O2-
504.1439	71	C35H20O4-
504.3539	69	C34H48O3-
504.4431	69	C36H56O-
504.5864	54	C33H76O2-
504.6654	50	C35H84-
505.2133	68	C37H29O2-
505.2805	46	C35H37O3-
506.2131	78	C37H30O2-
506.3216	57	C36H42O2-
506.3519	69	C37H46O-
506.4933	65	C37H62-
506.5391	61	C35H70O-
507.1544	57	C35H23O4-
507.2483	59	C34H35O4-
507.4447	55	C32H59O4-
507.6101	69	C33H79O2-
507.9833	50	C37O4-
508.3261	46	C36H44O2-
508.37	73	C37H48O-
509.0943	46	C40H13O-
509.2353	54	C40H29-
509.3449	64	C36H45O2-
509.5534	58	C31H73O4-
510.2181	47	C36H30O3-
510.4281	58	C38H54-
510.5889	55	C32H78O3-
511.519	68	C37H67-
511.6001	58	C32H79O3-
512.0686	56	C42H8-
512.469	57	C35H60O2-
512.5078	65	C33H68O3-
512.6083	55	C32H80O3-
513.1013	50	C39H13O2-
513.1512	50	C37H21O3-
513.3223	63	C38H41O-
513.4289	50	C34H57O3-
513.5589	76	C34H73O2-
513.5945	57	C35H77O-
513.6645	54	C33H85O2-
514.0269	61	C37H6O4-
514.1357	46	C40H18O-
514.1717	50	C41H22-
514.3692	50	C36H50O2-
514.5341	65	C33H70O3-
515.0239	50	C40H3O2-
515.2637	57	C36H35O3-
515.336	58	C38H43O-
515.3726	57	C39H47-
515.4101	55	C33H55O4-
515.5165	54	C36H67O-
515.6393	65	C32H83O3-
516.1134	77	C39H16O2-
516.2195	65	C38H28O2-
516.2786	54	C40H36-
516.3765	71	C39H48-
517.2029	64	C41H25-
517.4246	46	C33H57O4-
517.9995	66	C39H2O3-
518.0369	71	C40H6O2-
518.092	57	C38H14O3-
518.3133	60	C37H42O2-
518.4195	54	C36H54O2-
519.0307	71	C43H3-
519.2647	57	C39H35O-
519.3656	54	C38H47O-
519.4552	75	C37H59O-
519.4967	64	C38H63-
520.2009	52	C37H28O3-
520.6133	55	C34H80O2-
521.3746	62	C38H49O-
521.4954	65	C34H65O3-
521.5614	50	C36H73O-
522.1562	46	C39H22O2-
522.2256	72	C37H30O3-
522.302	57	C39H38O-
522.5058	57	C34H66O3-
522.5601	46	C32H74O4-
522.6729	54	C35H86O-
523.0568	54	C43H7-
523.2755	72	C35H39O4-
523.3229	66	C36H43O3-
523.5705	58	C32H75O4-
524.0716	66	C40H12O2-
524.2518	57	C41H32-
524.3866	76	C34H52O4-
524.4878	62	C33H64O4-
524.5741	82	C32H76O4-
525.0195	68	C38H5O4-
525.1363	50	C41H17O-
525.3441	54	C36H45O3-
525.5512	54	C35H73O2-
525.5955	61	C36H77O-
525.995	61	C41H2O2-
526.2062	58	C36H30O4-
526.3083	60	C35H42O4-
526.4077	73	C34H54O4-
526.4376	58	C35H58O3-
526.5146	73	C37H66O-
526.556	68	C38H70-
527.2208	61	C36H31O4-
527.3628	60	C40H47-
527.5041	58	C33H67O4-
527.5761	61	C35H75O2-
527.6314	60	C33H83O3-
528.0063	85	C44-
528.2402	70	C40H32O-
528.4009	61	C37H52O2-
529.021	54	C41H5O2-
529.4402	65	C38H57O-
530.0752	55	C42H10O-
530.5679	77	C34H74O3-
530.6221	62	C32H82O4-
531.0342	55	C41H7O2-
531.1412	59	C40H19O2-
531.2287	61	C39H31O2-
531.2528	57	C36H35O4-
531.3758	46	C36H51O3-
531.685	81	C37H87-
532.0549	52	C41H8O2-
532.0854	55	C42H12O-
532.2003	50	C38H28O3-
532.4358	59	C37H56O2-
532.5921	54	C38H76-
532.6305	50	C32H84O4-
532.6933	68	C37H88-
533.2569	58	C39H33O2-
533.3595	54	C35H49O4-
533.4091	57	C40H53-
533.5604	61	C37H73O-
533.5936	55	C34H77O3-
534.1734	54	C37H26O4-
534.2351	54	C42H30-
534.3505	68	C38H46O2-
534.4184	50	C40H54-
534.6619	52	C36H86O-
535.0767	59	C41H11O2-
535.1104	68	C42H15O-
535.3951	58	C39H51O-
535.6785	50	C36H87O-
535.9892	68	C42O2-
536.5829	57	C37H76O-
536.6341	47	C38H80-
537.0305	54	C43H5O-
537.2403	46	C38H33O3-
537.3026	65	C36H41O4-
537.6862	64	C36H89O-
538.0844	69	C44H10-
538.2758	62	C39H38O2-
538.4357	58	C36H58O3-
538.4972	61	C34H66O4-
538.5831	50	C33H78O4-
538.6183	66	C34H82O3-
539.0017	58	C42H3O2-
539.1853	50	C43H23-
539.3262	65	C40H43O-
539.5676	62	C36H75O2-
540.3803	50	C41H48-
540.5834	60	C36H76O2-
540.6745	58	C35H88O2-
541.1503	61	C38H21O4-
541.1833	50	C39H25O3-
541.2406	67	C37H33O4-
541.3477	59	C40H45O-
541.5566	58	C35H73O3-
541.5907	54	C36H77O2-
541.636	68	C37H81O-
542.0576	68	C39H10O4-
542.2426	57	C37H34O4-
542.3866	65	C41H50-
542.6198	61	C33H82O4-
543.1411	50	C41H19O2-
543.3501	72	C36H47O4-
543.4989	65	C40H63-
543.5317	65	C34H71O4-
543.633	50	C33H83O4-
544.069	60	C39H12O4-
544.2305	64	C40H32O2-
544.2855	58	C41H36O-
544.3512	58	C36H48O4-
544.4091	54	C41H52-
544.4468	58	C35H60O4-
545.0185	62	C41H5O3-
545.0582	46	C42H9O2-
545.1844	57	C42H25O-
545.4047	84	C37H53O3-
545.5008	55	C36H65O3-
545.5919	57	C35H77O3-
545.6802	59	C34H89O3-
546.0984	58	C43H14O-
546.3575	68	C39H46O2-
546.429	57	C41H54-
546.4774	54	C39H62O-
546.5319	54	C37H70O2-
546.5851	46	C35H78O3-
547.4039	73	C40H51O-
547.5152	50	C36H67O3-
548.3511	83	C42H44-
548.4386	54	C41H56-
549.2101	62	C38H29O4-
549.3142	57	C41H41O-
549.5261	60	C36H69O3-
550.3785	63	C39H50O2-
550.4435	63	C37H58O3-
551.1823	54	C44H23-
551.3559	56	C38H47O3-
552.1136	77	C42H16O2-
552.9975	55	C42HO3-
553.3133	57	C40H41O2-
553.4781	55	C41H61-
553.6187	55	C34H81O4-
553.6555	57	C35H85O3-
554.2008	59	C44H26-
554.2384	64	C38H34O4-
554.2753	62	C39H38O3-
554.5135	65	C38H66O2-
554.5877	57	C37H78O2-
555.1179	61	C45H15-
555.3295	50	C40H43O2-
555.5947	66	C40H75-
556.0154	73	C42H4O3-
556.1819	70	C43H24O-
556.2486	58	C41H32O2-
556.3227	54	C40H44O2-
556.3823	57	C38H52O3-
556.5551	65	C39H72O-
557.121	57	C41H17O3-
557.2888	46	C42H37O-
557.395	60	C38H53O3-
557.4973	58	C37H65O3-
557.5394	68	C38H69O2-
557.61	61	C40H77-
558.0178	58	C45H2O-
558.3732	57	C37H50O4-
558.6353	74	C37H82O2-
558.9926	66	C41H3O4-
559.3573	63	C40H47O2-
559.541	59	C38H71O2-
559.6661	79	C34H87O4-
560.0078	46	C41H4O4-
560.1355	55	C41H20O3-
560.3346	54	C39H44O3-
560.3991	46	C41H52O-
561.0563	70	C42H9O3-
561.1375	63	C44H17O-
561.1679	61	C45H21-
561.3692	52	C40H49O2-
561.6295	57	C40H81-
561.7003	61	C38H89O-
562.0299	68	C41H6O4-
562.6585	65	C37H86O2-
563.0029	65	C44H3O2-
563.3	77	C41H39O2-
564.1708	60	C41H24O3-
564.3863	64	C40H52O2-
564.4384	73	C41H56O-
564.4983	57	C39H64O2-
565.0068	58	C47H-
565.1552	51	C44H21O-
565.4303	46	C37H57O4-
565.4739	46	C42H61-
565.6361	66	C39H81O-
565.9924	57	C43H2O3-
566.1876	61	C41H26O3-
566.5499	58	C40H70O-
566.5857	55	C41H74-
567.3844	50	C39H51O3-
567.4175	50	C40H55O2-
567.467	46	C41H59O-
567.5305	54	C36H71O4-
567.6472	65	C39H83O-
568.0359	54	C47H4-
568.1211	57	C46H16-
568.1855	80	C44H24O-
568.2293	46	C42H32O2-
568.3857	70	C39H52O3-
568.4778	46	C38H64O3-
568.6475	65	C39H84O-
568.6896	91	C40H88-
569.0303	65	C43H5O3-
569.3631	61	C38H49O4-
569.4281	61	C40H57O2-
569.4953	52	C38H65O3-
569.6612	70	C39H85O-
570.1085	72	C45H14O-
570.2687	58	C39H38O4-
571.0094	72	C42H3O4-
571.4023	50	C42H51O-
572.0886	71	C44H12O2-
572.412	50	C42H52O-
572.5038	46	C41H64O-
573.3184	52	C43H41O-
573.4242	73	C39H57O3-
574.1576	57	C42H22O3-
574.2518	59	C41H34O3-
574.2954	54	C42H38O2-
574.4123	61	C42H54O-
574.493	46	C37H66O4-
574.634	66	C37H82O3-
575.0585	54	C46H7O-
575.5735	57	C39H75O2-
575.6573	65	C41H83-
576.0742	63	C43H12O3-
576.1539	50	C45H20O-
576.2143	65	C43H28O2-
576.4688	50	C43H60-
577.1079	73	C47H13-
577.6672	60	C41H85-
578.0159	50	C48H2-
578.0991	59	C43H14O3-
578.179	54	C42H26O3-
579.0307	61	C48H3-
579.15	57	C41H23O4-
579.6203	59	C36H83O4-
580.1304	51	C47H16-
580.1776	60	C45H24O-
580.5181	73	C40H68O2-
580.6513	46	C40H84O-
581.246	65	C43H33O2-
582.0589	54	C45H10O2-
582.4723	50	C38H62O4-
583.0226	54	C47H3O-
583.2036	86	C45H27O-
583.2787	72	C40H39O4-
583.3685	61	C42H47O2-
583.5672	74	C37H75O4-
584.1245	54	C46H16O-
584.4601	57	C41H60O2-
584.6153	54	C38H80O3-
584.6772	62	C40H88O-
585.2081	59	C41H29O4-
585.2735	58	C43H37O2-
585.5834	46	C37H77O4-
586.0438	104	C47H6O-
586.094	72	C45H14O2-
586.2603	55	C46H34-
586.4021	54	C39H54O4-
586.5053	46	C42H66O-
587.0172	59	C46H3O2-
587.408	81	C39H55O4-
587.5291	54	C42H67O-
587.683	54	C39H87O2-
588.2949	58	C43H40O2-
588.3758	61	C45H48-
588.4854	61	C41H64O2-
588.5626	77	C43H72-
588.6566	58	C42H84-
590.1399	73	C45H18O2-
590.199	57	C47H26-
590.4197	61	C42H54O2-
590.6239	58	C37H82O4-
591.1162	61	C48H15-
591.1892	54	C43H27O3-
591.6141	50	C40H79O2-
592.1156	73	C44H16O3-
592.2095	61	C43H28O3-
592.3111	60	C46H40-
592.3854	54	C41H52O3-
592.4685	69	C43H60O-
592.6501	61	C41H84O-
593.2014	62	C46H25O-
593.3387	57	C43H45O2-
593.5217	57	C41H69O2-
594.2646	61	C44H34O2-
594.334	54	C46H42-
594.4009	60	C41H54O3-
595.1922	61	C42H27O4-
595.2442	46	C47H31-
595.6313	65	C40H83O2-
596.4164	54	C41H56O3-
596.5431	73	C41H72O2-
596.6298	81	C43H80-
596.9968	57	C47HO2-
597.3209	52	C45H41O-
597.4852	54	C39H65O4-
597.6127	50	C39H81O3-
597.6819	58	C37H89O4-
598.0606	116	C45H10O3-
598.1444	76	C47H18O-
598.2282	54	C46H30O-
598.3338	56	C45H42O-
598.4659	70	C42H62O2-
598.5439	63	C44H70-
599.0342	71	C44H7O4-
599.1773	57	C48H23-
599.4543	72	C41H59O3-
599.657	68	C43H83-
600.1281	68	C43H20O4-
600.3543	61	C42H48O3-
600.5087	66	C39H68O4-
600.5873	47	C41H76O2-
601.1809	62	C44H25O3-
601.4137	79	C43H53O2-
602.2436	69	C42H34O4-
602.5614	58	C40H74O3-
603.3623	57	C45H47O-
603.6418	67	C42H83O-
604.0194	76	C46H4O3-
604.3784	61	C45H48O-
604.6952	59	C43H88-
605.4671	61	C44H61O-
605.6159	59	C41H81O2-
606.0122	50	C49H2O-
606.0717	54	C47H10O2-
606.1329	67	C45H18O3-
606.2292	65	C48H30-
606.4571	50	C40H62O4-
606.6066	76	C44H78-
606.6288	54	C41H82O2-
607.2428	46	C48H31-
607.5222	54	C45H67-
607.628	50	C41H83O2-
608.1113	57	C44H16O4-
608.1477	64	C45H20O3-
608.4585	62	C43H60O2-
608.5005	77	C44H64O-
608.6737	54	C38H88O4-
609.0381	65	C49H5O-
609.4759	50	C43H61O2-
609.5356	50	C45H69-
609.6492	69	C41H85O2-
610.4673	57	C43H62O2-
610.6275	69	C40H82O3-
611.1769	62	C49H23-
611.2241	74	C43H31O4-
612.1628	65	C45H24O3-
612.3446	61	C46H44O-
612.4069	72	C44H52O2-
612.4803	59	C43H64O2-
613.0625	52	C49H9O-
613.1749	50	C45H25O3-
613.2376	62	C43H33O4-
613.2968	61	C48H37-
613.5801	59	C42H77O2-
614.0138	54	C51H2-
614.2385	61	C43H34O4-
614.5036	54	C43H66O2-
615.0327	65	C48H7O2-
615.1318	63	C47H19O2-
615.4618	59	C45H59O-
616.1427	62	C47H20O2-
616.4524	58	C41H60O4-
616.4819	61	C42H64O3-
616.6632	57	C43H84O-
617.0428	52	C51H5-
617.3279	46	C48H41-
618.4242	57	C47H54-
618.5092	50	C42H66O3-
618.5782	81	C44H74O-
618.6441	74	C39H86O4-
619.0082	65	C46H3O4-
619.2485	50	C49H31-
619.2934	54	C47H39O-
619.563	68	C40H75O4-
620.3613	50	C45H48O2-
621.0324	60	C50H5O-
621.1008	46	C48H13O2-
621.1698	54	C50H21-
621.2498	54	C45H33O3-
621.3218	61	C47H41O-
621.4224	65	C43H57O3-
621.4868	64	C41H65O4-
622.2942	69	C46H38O2-
622.3487	46	C44H46O3-
623.0449	58	C50H7O-
623.5524	68	C46H71-
623.6686	64	C42H87O2-
623.9912	77	C48O3-
624.1519	50	C49H20O-
624.4531	61	C43H60O3-
624.6469	73	C41H84O3-
624.6822	65	C42H88O2-
625.0557	69	C46H9O4-
625.2299	54	C44H33O4-
625.3564	66	C47H45O-
625.4254	50	C42H57O4-
626.0042	46	C48H2O3-
626.3237	82	C46H42O2-
627.0545	50	C49H7O2-
627.2539	68	C44H35O4-
627.2982	52	C49H39-
627.5045	71	C44H67O2-
628.0122	46	C48H4O3-
628.063	58	C49H8O2-
628.4191	50	C45H56O2-
628.5638	61	C45H72O-
629.2373	58	C47H33O2-
629.3734	57	C47H49O-
629.4243	54	C45H57O2-
629.6144	59	C43H81O2-
630.2741	76	C44H38O4-
630.5555	72	C41H74O4-
630.6586	69	C40H86O4-
631.064	61	C49H11O2-
631.5803	65	C45H75O-
632.1121	58	C46H16O4-
632.243	69	C46H32O3-
632.4718	62	C42H64O4-
632.5249	60	C43H68O3-
632.5961	57	C45H76O-
633.2269	50	C49H29O-
633.3154	62	C48H41O-
633.3922	58	C43H53O4-
634.0798	50	C52H10-
634.481	46	C45H62O2-
634.545	50	C47H70-
634.6466	69	C46H82-
635.1393	88	C50H19O-
635.5745	54	C44H75O2-
636.1172	55	C49H16O2-
637.0447	55	C47H9O4-
637.1004	57	C52H13-
637.2025	69	C51H25-
637.245	54	C45H33O4-
637.4562	73	C44H61O3-
637.9892	69	C49H2O3-
638.0582	77	C47H10O4-
638.1349	75	C49H18O2-
638.2524	73	C45H34O4-
638.2904	54	C50H38-
638.4324	50	C43H58O4-
638.5618	50	C43H74O3-
638.9961	69	C49H3O3-
639.1263	50	C49H19O2-
639.3607	56	C48H47O-
639.5657	50	C43H75O3-
639.6453	57	C45H83O-
640.0941	73	C51H12O-
640.2951	54	C46H40O3-
640.3285	46	C47H44O2-
640.3808	60	C48H48O-
640.4364	64	C46H56O2-
640.5295	66	C45H68O2-
641.198	69	C50H25O-
641.249	60	C48H33O2-
641.3051	46	C46H41O3-
641.4981	62	C44H65O3-
641.557	64	C42H73O4-
641.6657	69	C45H85O-
642.3084	63	C46H42O3-
642.4548	65	C43H62O4-
642.5061	58	C44H66O3-
642.6412	46	C44H82O2-
643.1635	65	C49H23O2-
643.2345	56	C47H31O3-
643.2835	77	C45H39O4-
643.4191	50	C45H55O3-
644.0252	50	C52H4O-
644.0721	56	C50H12O2-
644.2745	46	C48H36O2-
644.4668	69	C46H60O2-
644.9983	73	C51HO2-
645.0755	65	C53H9-
645.2286	55	C50H29O-
645.514	64	C47H65O-
646.0665	46	C49H10O3-
646.1984	66	C49H26O2-
646.2791	54	C48H38O2-
646.4196	54	C48H54O-
646.5325	65	C44H70O3-
646.6639	68	C44H86O2-
647.0201	56	C51H3O2-
647.1331	65	C47H19O4-
647.2895	57	C48H39O2-
647.4227	50	C48H55O-
647.5825	64	C45H75O2-
648.3156	57	C45H44O4-
648.4559	59	C45H60O3-
648.5928	73	C45H76O2-
649.0023	54	C54H-
649.0865	73	C49H13O3-
649.3368	54	C45H45O4-
650.2687	59	C50H34O-
650.4217	61	C47H54O2-
650.661	85	C43H86O3-
651.1534	68	C47H23O4-
651.1963	69	C48H27O3-
651.5677	54	C44H75O3-
652.6121	57	C45H80O2-
653.0734	65	C48H13O4-
653.2735	50	C46H37O4-
654.1457	50	C53H18-
654.3013	50	C50H38O-
654.3372	54	C48H46O2-
655.2207	73	C48H31O3-
655.3861	58	C45H51O4-
655.5353	50	C46H71O2-
655.6346	60	C45H83O2-
655.9959	77	C52O2-
656.0679	57	C54H8-
656.1957	57	C47H28O4-
656.2668	57	C49H36O2-
656.4042	50	C49H52O-
657.4106	65	C49H53O-
657.6282	46	C48H81-
658.2477	70	C48H34O3-
658.4429	62	C46H58O3-
659.2508	57	C48H35O3-
659.6027	57	C43H79O4-
659.6315	54	C44H83O3-
660.3081	57	C49H40O2-
660.4684	61	C50H60-
660.5631	56	C49H72-
660.676	46	C45H88O2-
661.1059	56	C54H13-
661.2194	57	C50H29O2-
661.3476	57	C50H45O-
661.5779	61	C49H73-
662.0638	54	C49H10O4-
662.1063	61	C54H14-
662.3791	57	C47H50O3-
663.1405	69	C51H19O2-
663.2905	50	C48H39O3-
663.4656	65	C49H59O-
663.5859	74	C49H75-
663.6462	73	C47H83O-
664.295	58	C48H40O3-
664.3619	65	C46H48O4-
664.4353	56	C48H56O2-
664.6611	65	C47H84O-
665.1122	61	C50H17O3-
665.2524	50	C50H33O2-
665.301	66	C48H41O3-
665.4254	60	C48H57O2-
666.1424	50	C54H18-
666.3855	62	C50H50O-
666.4286	60	C51H54-
666.6607	46	C43H86O4-
667.0144	54	C54H3O-
667.1809	54	C51H23O2-
667.271	46	C50H35O2-
667.4135	50	C47H55O3-
667.4654	65	C45H63O4-
667.5845	90	C48H75O-
668.1241	65	C53H16O-
668.226	61	C49H32O3-
668.3297	66	C48H44O3-
669.0029	73	C53HO2-
669.0772	73	C55H9-
669.1498	83	C50H21O3-
669.501	65	C49H65O-
669.5436	62	C50H69-
669.6138	50	C45H81O3-
670.269	68	C53H34-
670.5805	65	C44H78O4-
670.6594	78	C46H86O2-
671.5582	54	C50H71-
672.2605	50	C49H36O3-
672.313	46	C50H40O2-
672.6616	59	C49H84-
673.1177	80	C52H17O2-
673.3741	68	C48H49O3-
673.4224	50	C46H57O4-
673.496	89	C48H65O2-
673.6128	57	C44H81O4-
674.0131	69	C56H2-
675.0913	58	C54H11O-
675.3367	69	C50H43O2-
675.4307	57	C49H55O2-
675.6502	54	C48H83O-
676.0254	54	C56H4-
676.2749	61	C52H36O-
676.3326	54	C50H44O2-
676.6816	71	C49H88-
677.3614	50	C47H49O4-
677.9835	58	C51H2O4-
678.1147	46	C54H14O-
678.1742	61	C49H26O4-
678.4054	65	C48H54O3-
678.5108	76	C51H66-
678.6812	65	C48H86O-
679.0656	75	C53H11O2-
679.2056	54	C53H27O-
679.5598	50	C45H75O4-
680.1677	73	C52H24O2-
680.2336	57	C50H32O3-
680.2643	65	C51H36O2-
680.3737	65	C50H48O2-
680.424	67	C48H56O3-
680.511	69	C47H68O3-
680.5738	55	C45H76O4-
681.2306	73	C53H29O-
681.3343	61	C49H45O3-
681.5713	65	C48H73O2-
681.6737	79	C44H89O4-
682.1924	72	C52H26O2-
682.447	58	C52H58-
682.5814	46	C45H78O4-
683.5453	54	C47H71O3-
684.5751	58	C48H76O2-
684.9869	67	C53HO3-
685.0785	54	C52H13O3-
685.1525	65	C54H21O-
685.4198	68	C47H57O4-
687.1536	54	C50H23O4-
687.3653	73	C52H47O-
689.0091	78	C56HO-
689.0577	57	C54H9O2-
689.1764	58	C50H25O4-
689.5567	50	C46H73O4-
690.2963	46	C53H38O-
690.4886	63	C51H62O-
690.5313	54	C49H70O2-
690.9884	69	C52H3O4-
691.3213	72	C50H43O3-
692.391	50	C48H52O4-
693.0279	73	C56H5O-
693.3031	55	C49H41O4-
694.3102	57	C49H42O4-
694.4273	54	C52H54O-
694.5006	58	C47H66O4-
695.0496	69	C56H7O-
695.4259	54	C52H55O-
695.5715	63	C49H75O2-
695.6105	50	C50H79O-
695.9839	73	C54O3-
696.3535	56	C50H48O3-
696.4098	59	C48H56O4-
697.0023	61	C58H-
697.6145	61	C46H81O4-
698.4745	46	C49H62O3-
699.1151	46	C57H15-
699.2293	68	C53H31O2-
699.6632	60	C47H87O3-
700.0063	65	C54H4O3-
700.092	46	C56H12O-
700.1874	57	C55H24O-
700.3108	54	C55H40-
700.5849	50	C48H76O3-
701.072	59	C52H13O4-
701.419	50	C54H53-
701.4687	54	C52H61O-
701.6361	73	C46H85O4-
702.0492	76	C58H6-
702.1958	77	C55H26O-
702.4616	61	C48H62O4-
702.5424	79	C50H70O2-
703.0541	97	C58H7-
703.2728	64	C53H35O2-
704.4984	73	C52H64O-
704.5533	59	C50H72O2-
705.0044	63	C56HO2-
705.2533	59	C56H33-
705.3749	54	C52H49O2-
706.5313	81	C49H70O3-
706.582	57	C47H78O4-
706.9987	50	C56H3O2-
707.1113	54	C55H15O2-
708.0252	63	C56H4O2-
708.1503	73	C56H20O-
708.1954	55	C57H24-
708.309	55	C53H40O2-
708.45	54	C50H60O3-
708.541	70	C49H72O3-
708.6755	64	C49H88O2-
709.0485	69	C53H9O4-
709.3508	58	C54H45O-
709.4469	58	C53H57O-
709.6389	65	C51H81O-
709.6857	84	C49H89O2-
710.111	69	C58H14-
710.2278	85	C54H30O2-
710.3399	57	C50H46O4-
710.6711	68	C52H86-
711.1018	54	C54H15O3-
711.1948	61	C53H27O3-
711.2573	57	C51H35O4-
711.646	58	C51H83O-
712.1158	50	C54H16O3-
712.1576	62	C52H24O4-
712.2273	46	C57H28-
712.3127	62	C56H40-
712.4445	58	C49H60O4-
712.5866	55	C49H76O3-
713.2852	54	C55H37O-
713.3801	55	C54H49O-
714.03	50	C55H6O3-
714.0759	57	C56H10O2-
714.2294	75	C57H30-
714.4825	50	C53H62O-
715.188	62	C52H27O4-
715.2351	57	C53H31O3-
715.4325	57	C55H55-
715.4677	46	C49H63O4-
715.5446	50	C51H71O2-
716.2593	50	C54H36O2-
716.4399	64	C55H56-
717.2269	59	C56H29O-
717.3674	69	C53H49O2-
717.6617	65	C50H85O2-
718.295	79	C54H38O2-
718.678	52	C50H86O2-
719.0372	61	C54H7O4-
719.1623	69	C54H23O3-
719.2313	57	C56H31O-
719.2802	86	C57H35-
719.5517	75	C54H71-
719.9823	61	C56O3-
720.2118	73	C55H28O2-
720.2591	60	C53H36O3-
720.4219	50	C50H56O4-
720.6014	66	C48H80O4-
721.1245	54	C56H17O2-
721.1694	62	C57H21O-
721.2146	78	C55H29O2-
721.2756	66	C53H37O3-
721.3857	71	C56H49-
721.5139	46	C49H69O4-
722.2379	81	C52H34O4-
722.4427	59	C54H58O-
722.5089	73	C52H66O2-
722.6134	60	C48H82O4-
722.6676	64	C53H86-
723.1276	69	C56H19O2-
723.2352	62	C55H31O2-
723.3704	59	C55H47O-
723.635	75	C48H83O4-
723.6812	50	C53H87-
724.0546	59	C57H8O2-
724.136	61	C56H20O2-
724.1838	61	C57H24O-
725.0369	82	C56H5O3-
725.4948	57	C51H65O3-
726.0861	46	C54H14O4-
726.2808	61	C52H38O4-
727.2944	54	C56H39O-
727.9836	68	C58O2-
728.1286	60	C58H16O-
728.3828	58	C51H52O4-
728.6137	69	C50H80O3-
729.2431	62	C54H33O3-
729.281	65	C55H37O2-
729.6872	73	C52H89O-
730.2664	55	C58H34-
730.3784	92	C54H50O2-
730.4993	61	C50H66O4-
731.1864	73	C59H23-
731.5574	66	C55H71-
731.6211	58	C53H79O-
731.6684	70	C51H87O2-
732.4889	54	C53H64O2-
732.5232	54	C54H68O-
732.5739	50	C52H76O2-
733.0096	57	C57HO3-
733.0676	83	C59H9O-
733.2055	60	C56H29O2-
733.4064	72	C54H53O2-
733.5365	58	C54H69O-
734.0681	46	C59H10O-
734.2339	65	C56H30O2-
734.2926	74	C58H38-
734.3561	50	C56H46O-
734.5742	88	C55H74-
734.6205	57	C49H82O4-
735.0171	76	C57H3O3-
735.5417	54	C50H71O4-
736.1177	64	C56H16O3-
736.2044	71	C55H28O3-
736.665	57	C50H88O3-
737.0167	61	C57H5O3-
737.2046	57	C55H29O3-
738.0696	54	C58H10O2-
738.4005	54	C53H54O3-
738.5398	57	C53H70O2-
738.5928	54	C51H78O3-
739.0423	60	C57H7O3-
739.0785	54	C58H11O2-
739.2108	54	C58H27O-
739.5393	61	C53H71O2-
739.5854	463	C54H75O-
739.693	69	C53H87O-
739.9968	55	C59O2-
740.2708	61	C56H36O2-
740.3322	59	C54H44O3-
740.4372	55	C57H56-
740.5191	61	C52H68O3-
741.0001	51	C59HO2-
741.0432	46	C57H9O3-
741.5636	46	C53H73O2-
742.5835	73	C50H78O4-
742.6803	69	C52H86O2-
743.2588	54	C55H35O3-
743.4655	61	C57H59-
743.5632	60	C56H71-
744.2381	73	C54H32O4-
744.4031	88	C55H52O2-
745.2684	54	C55H37O3-
745.3557	67	C57H45O-
745.5497	68	C52H73O3-
745.625	57	C54H81O-
745.6597	54	C55H85-
746.5587	63	C52H74O3-
747.507	58	C54H67O2-
747.9859	68	C57O4-
748.2613	57	C54H36O4-
748.612	50	C53H80O2-
749.0062	71	C57HO4-
749.079	68	C56H13O4-
749.375	54	C57H49O-
749.5727	50	C55H73O-
750.0165	57	C58H6O3-
750.2635	65	C57H34O2-
750.5247	46	C57H66-
750.6096	52	C56H78-
751.1243	54	C57H19O3-
752.2227	50	C59H28O-
752.6739	84	C50H88O4-
753.1981	55	C55H29O4-
753.3145	50	C58H41O-
753.4796	66	C52H65O4-
753.562	65	C54H73O2-
754.2902	74	C57H38O2-
754.3397	54	C55H46O3-
755.074	50	C58H11O3-
755.4483	54	C54H59O3-
755.5176	73	C56H67O-
756.2888	50	C57H40O2-
756.3679	61	C55H48O3-
757.108	58	C59H17O2-
757.1919	73	C57H25O3-
757.3082	73	C57H41O2-
757.5222	61	C52H69O4-
757.6071	57	C51H81O4-
758.0063	61	C59H2O3-
758.3652	68	C58H46O-
759.3402	54	C54H47O4-
760.4179	57	C56H56O2-
760.4584	73	C57H60O-
761.0015	57	C58HO4-
761.2495	54	C58H33O2-
761.5572	58	C52H73O4-
761.6454	57	C51H85O4-
762.3388	59	C57H46O2-
762.464	72	C53H62O4-
762.5705	64	C56H74O-
763.2448	63	C57H31O3-
763.3902	65	C58H51O-
764.5338	75	C58H68-
765.11	54	C57H17O4-
765.2183	161	C56H29O4-
765.374	54	C57H49O2-
765.6436	46	C54H85O2-
766.5602	57	C55H74O2-
767.0342	76	C58H7O4-
768.1189	65	C57H20O4-
768.5089	72	C53H68O4-
768.548	73	C54H72O3-
769.3129	54	C58H41O2-
769.4894	80	C56H65O2-
769.5623	54	C54H73O3-
770.4568	99	C58H58O-
770.581	54	C58H74-
771.1849	73	C58H27O3-
771.2703	57	C56H35O4-
771.5742	60	C54H75O3-
771.6691	66	C53H87O3-
773.0637	52	C58H13O4-
773.3335	58	C58H45O2-
773.3985	57	C56H53O3-
773.449	46	C54H61O4-
773.6405	54	C52H85O4-
773.6919	50	C57H89-
774.3912	69	C59H50O-
774.4676	57	C54H62O4-
774.636	54	C55H82O2-
775.3134	65	C57H43O3-
775.3784	57	C55H51O4-
775.4717	55	C54H63O4-
775.5517	46	C56H71O2-
776.2848	73	C56H40O4-
776.378	55	C55H52O4-
776.6843	50	C56H88O-
777.4297	74	C56H57O3-
777.5332	65	C59H69-
778.1959	58	C57H30O4-
778.4347	54	C56H58O3-
779.1488	73	C59H23O3-
779.2421	73	C58H35O3-
779.3089	61	C56H43O4-
780.0551	60	C59H8O4-
780.2283	55	C57H32O4-
780.4167	50	C55H56O4-
780.5752	54	C56H76O2-
781.1631	73	C59H25O3-
781.3462	57	C56H45O4-
781.4887	59	C57H65O2-
781.6191	61	C53H81O4-
782.5309	62	C54H70O4-
782.5789	54	C59H74-
782.6332	46	C57H82O-
783.2064	57	C59H27O3-
783.3801	69	C57H51O3-
783.6349	46	C53H83O4-
784.3044	65	C58H40O3-
784.5524	54	C58H72O-
785.3473	72	C59H45O2-
787.5647	54	C54H75O4-
787.6874	61	C57H87O-
788.2311	47	C59H32O3-
788.2797	52	C57H40O4-
788.5293	54	C56H68O3-
789.2584	50	C59H33O3-
789.5343	50	C56H69O3-
790.1961	73	C58H30O4-
790.3749	54	C59H50O2-
790.605	69	C58H78O-
791.2317	54	C58H31O4-
791.3707	69	C58H47O3-
791.5336	64	C56H71O3-
793.1619	52	C59H21O4-
793.5873	65	C57H77O2-
794.3989	57	C59H54O2-
794.4661	74	C57H62O3-
794.5723	46	C56H74O3-
795.2588	59	C58H35O4-
795.6152	54	C57H79O2-
796.1492	54	C59H24O4-
796.2678	54	C58H36O4-
796.3149	57	C59H40O3-
797.1837	58	C59H25O4-
797.6157	68	C57H81O2-
797.685	57	C55H89O3-
798.2008	69	C59H26O4-
798.2727	64	C58H38O4-
798.5233	67	C58H70O2-
798.6227	59	C57H82O2-
799.327	54	C59H43O3-
799.4528	55	C59H59O2-
799.5764	60	C59H75O-
800.2156	60	C59H28O4-
800.3362	57	C59H44O3-
800.4057	68	C58H56O3-
800.5521	69	C58H72O2-
801.1912	57	C59H29O4-
801.2861	68	C58H41O4-
801.6387	60	C57H85O2-
804.4414	73	C58H60O3-
804.6608	71	C57H88O2-
805.3562	57	C59H49O3-
805.4211	58	C57H57O4-
805.5131	57	C56H69O4-
806.2574	47	C59H34O4-
806.3345	68	C58H46O4-
806.6324	69	C59H82O-
807.6232	60	C55H83O4-
808.3391	62	C58H48O4-
809.4564	68	C57H61O4-
809.4856	58	C58H65O3-
810.2786	52	C59H38O4-
810.5382	50	C59H70O2-
811.4086	54	C59H55O3-
811.524	54	C58H67O3-
812.3995	64	C58H52O4-
812.5198	57	C58H68O3-
812.6974	57	C59H88O-
813.3955	68	C58H53O4-
814.3282	62	C59H42O4-
814.4376	76	C59H58O3-
814.4952	62	C57H66O4-
814.6172	77	C57H82O3-
815.4455	58	C59H59O3-
816.3049	61	C59H44O4-
816.6028	58	C56H80O4-
817.4717	54	C59H61O3-
819.5583	63	C58H75O3-
819.6372	50	C56H83O4-
820.5727	50	C58H76O3-
820.63	50	C56H84O4-
821.3713	57	C59H49O4-
821.6179	61	C59H81O2-
822.3531	79	C59H50O4-
822.5894	54	C58H78O3-
824.5067	60	C59H68O3-
825.4807	59	C58H65O4-
825.5238	57	C59H69O3-
825.6444	67	C59H85O2-
826.5227	57	C59H70O3-
826.583	79	C57H78O4-
827.6809	59	C59H87O2-
828.6226	68	C57H80O4-
829.5719	50	C59H73O3-
829.6428	58	C58H85O3-
830.6744	55	C58H86O3-
832.6342	117	C57H84O4-
833.6637	69	C58H89O3-
835.6806	71	C57H87O4-
836.5665	47	C58H76O4-
836.6283	77	C59H80O3-
836.6859	54	C57H88O4-
837.6095	61	C59H81O3-
839.6162	54	C58H79O4-
842.5481	50	C59H70O4-
843.5259	61	C59H71O4-
845.5454	74	C59H73O4-
847.5724	62	C59H75O4-
851.593	79	C59H79O4-
861.6793	999	C59H89O4-
