Mass spectrum: Cyclohexane-1,2-dicarboxylic mono hydroxyisononyl ester; LC-ESI-QTOF; MS2; CE: 40eV; R=7000; [M-H]-
Name: Cyclohexane-1,2-dicarboxylic mono hydroxyisononyl ester
Name: (1S,2R)-2-(7-hydroxy-4-methyloctoxy)carbonylcyclohexane-1-carboxylic acid
Formula: C17H30O5
Exact mass: 314.2093
SMILES: CC(O)CCC(C)CCCOC(=O)[C@@H]1CCCC[C@@H]1C(=O)O
InChI: InChI=1S/C17H30O5/c1-12(9-10-13(2)18)6-5-11-22-17(21)15-8-4-3-7-14(15)16(19)20/h12-15,18H,3-11H2,1-2H3,(H,19,20)/t12?,13?,14-,15+/m0/s1
Instrument: Agilent 6560 QTOF
Instrument type: LC-ESI-QTOF
Ms type: MS2
Ion mode: NEGATIVE
Ionization: ESI
Fragmentation mode: CID
Collision energy: 40 eV
Resolution: 7000
Column name: ZORBAX Extend-C18 3.5um, 2.1x50mm, Agilent Technologies
Retention time: 5.149 min
Base peak: 313.2014
Precursor m/z: 313.202
Precursor type: [M-H]-
Precursor intensity: 7457.08
m/z	relative intensity	assigned
55.0183	60	C3H3O-
106.0432	63	C7H6O-
107.0498	113	C7H7O-
109.0653	999	C7H9O-
125.0593	61	C7H9O2-
153.0546	93	C8H9O3-
