Mass spectrum: 5,6-Dimethylbenzotriazole; LC-ESI-QTOF; MS2; CE: 30eV; R=7000; [M+H]+
Name: 5,6-Dimethylbenzotriazole
Name: 5,6-Dimethyl-1H-benzotriazole
Name: 5,6-dimethyl-2H-benzotriazole
Formula: C8H9N3
Exact mass: 147.0796
SMILES: CC1=CC2=NNN=C2C=C1C
InChI: InChI=1S/C8H9N3/c1-5-3-7-8(4-6(5)2)10-11-9-7/h3-4H,1-2H3,(H,9,10,11)
Instrument: Agilent 6560 QTOF
Instrument type: LC-ESI-QTOF
Ms type: MS2
Ion mode: POSITIVE
Ionization: ESI
Fragmentation mode: CID
Collision energy: 30 eV
Resolution: 7000
Retention time: 0.114 min
Base peak: 148.0869
Precursor m/z: 148.0869
Precursor type: [M+H]+
Precursor intensity: 128488.58
m/z	relative intensity	assigned
50.0147	6	C4H2+
51.0232	224	C4H3+
52.0301	7	C4H4+
53.0251	4	C3H3N+
53.0389	72	C4H5+
54.034	18	C3H4N+
65.0387	138	C5H5+
66.0462	29	C5H6+
67.055	10	C5H7+
77.0389	999	C6H5+
78.0463	66	C6H6+
79.0541	24	C6H7+
80.0496	53	C5H6N+
81.0583	13	C5H7N+
91.0544	472	C7H7+
93.0576	63	C6H7N+
93.0678	60	C7H9+
94.0645	15	C6H8N+
102.0452	8	C8H6+
103.0539	48	C8H7+
104.0494	174	C7H6N+
105.0445	8	C6H5N2+
105.0574	26	C7H7N+
117.0575	13	C8H7N+
118.0652	42	C8H8N+
119.0728	17	C8H9N+
120.0822	12	C8H10N+
148.087	26	C8H10N3+
