Mass spectrum: S-ADENOSYLHOMOCYSTEINE; LC-ESI-QTOF; MS2; CE: 10eV; R=5000; [M+Na]+
Name: S-ADENOSYLHOMOCYSTEINE
Name: S-adenosyl-L-homocysteine
Name: (2S)-2-amino-4-[[(2S,3S,4R,5R)-5-(6-aminopurin-9-yl)-3,4-dihydroxyoxolan-2-yl]methylsulfanyl]butanoic acid
Formula: C14H20N6O5S
Exact mass: 384.1216
SMILES: N[C@@H](CCSC[C@H]1O[C@H]([C@H](O)[C@@H]1O)N1C=NC2=C(N)N=CN=C12)C(O)=O
InChI: InChI=1S/C14H20N6O5S/c15-6(14(23)24)1-2-26-3-7-9(21)10(22)13(25-7)20-5-19-8-11(16)17-4-18-12(8)20/h4-7,9-10,13,21-22H,1-3,15H2,(H,23,24)(H2,16,17,18)/t6-,7+,9+,10+,13+/m0/s1
Instrument: Agilent 6530 QTOF
Instrument type: LC-ESI-QTOF
Ms type: MS2
Ion mode: POSITIVE
Ionization: ESI
Fragmentation mode: CID
Collision energy: 10 eV
Resolution: 5000
Column name: N/A
Retention time: 0.249 min
Base peak: 385.1286
Precursor m/z: 407.1108
Precursor type: [M+Na]+
Precursor intensity: 71381
m/z	relative intensity	assigned
71.0224	14	HN5+
81.0181	95	CH5O4+
89.1392	14	H17N4O+
90.0099	53	C6H2O+
90.0473	7	C7H6+
106.1407	16	H18N4O2+
110.9882	13	C3HN3S+
124.0339	29	C7H8S+
128.9956	56	H5N2O4S+
136.0599	114	C4H10NO4+
138.0262	13	H4N5O4+
138.0655	2	C4H6N6+
156.0038	145	C4H2N3O4+
158.0394	963	C7H10O2S+
158.1331	53	C4H20N3OS+
169.1116	17	C4H17N4OS+
185.1133	88	C5H17N2O5+
207.1171	34	C8H19N2O2S+
207.1757	5	C12H21N3+
215.9546	10	C10O4S+
224.1265	3	C10H16N4O2+
225.1747	9	C11H21N4O+
239.0828	7	C8H17NO5S+
254.0374	55	C11H6N6S+
254.1207	4	C13H20NO2S+
263.0172	2	C8H3N6O5+
272.0282	53	C10H4N6O4+
305.0828	33	C14H15N3O3S+
313.0253	4	C13H7N5O3S+
330.0764	9	C10H14N6O5S+
330.9977	29	C12H5N5O5S+
346.078	12	C14H14N6O3S+
352.0519	15	C12H12N6O5S+
362.0825	999	C14H14N6O4S+
363.0942	72	C14H15N6O4S+
364.9726	7	C14HN6O5S+
