Mass spectrum: L-Glutamic acid ; LC-ESI-QTOF; MS2; CE: 20eV; R=5000; [M+H]+
Name: L-Glutamic acid 
Name: Glutamic acid
Name: (2S)-2-aminopentanedioic acid
Formula: C5H9NO4
Exact mass: 147.0532
SMILES: C(CC(=O)O)[C@@H](C(=O)O)N
InChI: InChI=1S/C5H9NO4/c6-3(5(9)10)1-2-4(7)8/h3H,1-2,6H2,(H,7,8)(H,9,10)/t3-/m0/s1
Instrument: Agilent 6530 QTOF
Instrument type: LC-ESI-QTOF
Ms type: MS2
Ion mode: POSITIVE
Ionization: ESI
Fragmentation mode: CID
Collision energy: 20 eV
Resolution: 5000
Column name: N/A
Retention time: 0.215 min
Base peak: 121.0508
Precursor m/z: 148.0604
Precursor type: [M+H]+
Precursor intensity: 31296
m/z	relative intensity	assigned
57.0323	29	C3H5O+
84.0439	999	C4H6NO+
85.0297	146	C4H5O2+
85.9851	8	C2NO3+
102.0569	165	C4H8NO2+
