Mass spectrum: Methandrostenolone; LC-ESI-QTOF; MS2; CE: 40eV; R=7000; [M-H2O+H]+
Name: Methandrostenolone
Name: (8R,9S,10R,13S,14S,17S)-17-hydroxy-10,13,17-trimethyl-7,8,9,11,12,14,15,16-octahydro-6H-cyclopenta[a]phenanthren-3-one
Formula: C20H28O2
Exact mass: 300.2089
SMILES: C[C@]12CC[C@H]3[C@H]([C@@H]1CC[C@]2(C)O)CCC4=CC(=O)C=C[C@]34C
InChI: InChI=1S/C20H28O2/c1-18-9-6-14(21)12-13(18)4-5-15-16(18)7-10-19(2)17(15)8-11-20(19,3)22/h6,9,12,15-17,22H,4-5,7-8,10-11H2,1-3H3/t15-,16+,17+,18+,19+,20+/m1/s1
Instrument: Agilent 6560 QTOF
Instrument type: LC-ESI-QTOF
Ms type: MS2
Ion mode: POSITIVE
Ionization: ESI
Fragmentation mode: CID
Collision energy: 40 eV
Resolution: 7000
Column name: Direct injection
Retention time: 0.181 min
Base peak: 301.217
Precursor m/z: 283.2056
Precursor type: [M-H2O+H]+
Precursor intensity: 160798
m/z	relative intensity	assigned
77.0389	940	C6H5+
78.0473	24	C6H6+
79.0546	119	C6H7+
80.0621	3	C6H8+
81.0338	20	C5H5O+
81.0698	104	C6H9+
91.0544	949	C7H7+
93.07	488	C7H9+
95.085	35	C7H11+
102.0486	22	C8H6+
103.0538	114	C8H7+
104.0601	6	C8H8+
105.0694	226	C8H9+
107.0495	25	C7H7O+
107.0851	150	C8H11+
115.0533	87	C9H7+
116.0631	45	C9H8+
117.0693	68	C9H9+
119.085	73	C9H11+
121.0649	999	C8H9O+
128.0615	47	C10H8+
129.0695	47	C10H9+
130.0785	51	C10H10+
131.0488	4	C9H7O+
131.0857	21	C10H11+
132.0568	42	C9H8O+
133.1006	22	C10H13+
135.0803	31	C9H11O+
142.0767	24	C11H10+
143.085	10	C11H11+
145.0988	23	C11H13+
147.0786	31	C10H11O+
149.1321	13	C11H17+
155.0852	6	C12H11+
157.0661	17	C11H9O+
158.0733	29	C11H10O+
159.0787	36	C11H11O+
160.086	4	C11H12O+
163.15	11	C12H19+
166.0768	18	C13H10+
171.0797	27	C12H11O+
173.0953	24	C12H13O+
197.0964	5	C14H13O+
