Mass spectrum: 5-Chlorobenzotriazole; LC-ESI-QTOF; MS2; CE: 35eV; R=7000; [M+H]+
Name: 5-Chlorobenzotriazole
Name: 5-chloro-2H-benzotriazole
Formula: C6H4ClN3
Exact mass: 153.0094
SMILES: C1=CC2=NNN=C2C=C1Cl
InChI: InChI=1S/C6H4ClN3/c7-4-1-2-5-6(3-4)9-10-8-5/h1-3H,(H,8,9,10)
Instrument: Agilent 6560 QTOF
Instrument type: LC-ESI-QTOF
Ms type: MS2
Ion mode: POSITIVE
Ionization: ESI
Fragmentation mode: CID
Collision energy: 35 eV
Resolution: 7000
Retention time: 0.145 min
Base peak: 154.0171
Precursor m/z: 154.0167
Precursor type: [M+H]+
Precursor intensity: 13396.95
m/z	relative intensity	assigned
63.0236	495	C5H3+
64.0182	106	C4H2N+
64.0312	189	C5H4+
72.9843	999	C3H2Cl+
90.0347	103	C6H4N+
91.0415	100	C6H5N+
98.9996	612	C5H4Cl+
