Mass spectrum: 1,2-Dioleoyl-sn-glycero-3-phosphocholine; LC-ESI-QTOF; MS2; CE: 10eV; R=7000; [M+Na]+
Name: 1,2-Dioleoyl-sn-glycero-3-phosphocholine
Name: [(2R)-2,3-bis[[(Z)-octadec-9-enoyl]oxy]propyl] 2-(trimethylazaniumyl)ethyl phosphate
Formula: C44H84NO8P
Exact mass: 785.5935
SMILES: CCCCCCCC/C=C\CCCCCCCC(=O)OC[C@H](COP(=O)([O-])OCC[N+](C)(C)C)OC(=O)CCCCCCC/C=C\CCCCCCCC
InChI: InChI=1S/C44H84NO8P/c1-6-8-10-12-14-16-18-20-22-24-26-28-30-32-34-36-43(46)50-40-42(41-52-54(48,49)51-39-38-45(3,4)5)53-44(47)37-35-33-31-29-27-25-23-21-19-17-15-13-11-9-7-2/h20-23,42H,6-19,24-41H2,1-5H3/b22-20-,23-21-/t42-/m1/s1
Instrument: Agilent 6560 QTOF
Instrument type: LC-ESI-QTOF
Ms type: MS2
Ion mode: POSITIVE
Ionization: ESI
Fragmentation mode: CID
Collision energy: 10 eV
Resolution: 7000
Column name: Direct injection
Retention time: 0.185 min
Base peak: 786.6035
Precursor m/z: 808.5827
Precursor type: [M+Na]+
Precursor intensity: 114140
m/z	relative intensity	assigned
80.0327	2	CH6NO3+
83.0851	4	C6H11+
86.0973	14	C5H12N+
123.1161	3	C9H15+
146.9823	24	C2H5NaO4P+
147.0913	3	C5H17NaOP+
334.3026	8	C10H48NaO7P+
467.2519	3	C24H37NO8+
537.4806	6	C34H66O2P+
549.4845	2	C33H66NaO4+
578.9478	3	C39O5P+
603.5353	18	C35H74NO4P+
604.5373	9	C30H78NaO7P+
625.5149	44	C32H75NaO7P+
626.5238	7	C39H71NaO4+
660.9573	3	C44HNNaO4P+
727.2161	2	C44H34NNaO8+
749.5103	95	C41H75NaO8P+
750.5135	18	C41H76NaO8P+
750.583	4	C42H81NNaO8+
808.5834	999	C44H84NNaO8P+
