Mass spectrum: Coenzyme Q10; LC-ESI-QTOF; MS2; CE: 40eV; R=7000; [M+Na]+
Name: Coenzyme Q10
Name: 2-[(2E,6E,10E,14E,18E,22E,26E,30E,34E)-3,7,11,15,19,23,27,31,35,39-decamethyltetraconta-2,6,10,14,18,22,26,30,34,38-decaenyl]-5,6-dimethoxy-3-methylcyclohexa-2,5-diene-1,4-dione
Formula: C59H90O4
Exact mass: 862.6839
SMILES: CC1=C(C(=O)C(=C(C1=O)OC)OC)C/C=C(\C)/CC/C=C(\C)/CC/C=C(\C)/CC/C=C(\C)/CC/C=C(\C)/CC/C=C(\C)/CC/C=C(\C)/CC/C=C(\C)/CC/C=C(\C)/CCC=C(C)C
InChI: InChI=1S/C59H90O4/c1-44(2)24-15-25-45(3)26-16-27-46(4)28-17-29-47(5)30-18-31-48(6)32-19-33-49(7)34-20-35-50(8)36-21-37-51(9)38-22-39-52(10)40-23-41-53(11)42-43-55-54(12)56(60)58(62-13)59(63-14)57(55)61/h24,26,28,30,32,34,36,38,40,42H,15-23,25,27,29,31,33,35,37,39,41,43H2,1-14H3/b45-26+,46-28+,47-30+,48-32+,49-34+,50-36+,51-38+,52-40+,53-42+
Instrument: Agilent 6560 QTOF
Instrument type: LC-ESI-QTOF
Ms type: MS2
Ion mode: POSITIVE
Ionization: ESI
Fragmentation mode: CID
Collision energy: 40 eV
Resolution: 7000
Column name: Direct injection
Retention time: 0.298 min
Base peak: 647.4602
Precursor m/z: 885.6731
Precursor type: [M+Na]+
Precursor intensity: 66128
m/z	relative intensity	assigned
151.1355	6	C7H19O3+
240.0754	8	C13H13NaO3+
257.078	16	C13H14NaO4+
271.0906	3	C14H16NaO4+
325.1338	7	C18H22NaO4+
340.1602	11	C19H25NaO4+
341.1668	4	C19H26NaO4+
408.2229	15	C24H33NaO4+
581.3992	5	C40H53O3+
680.479	7	C46H64O4+
744.1995	4	C55H29NaO2+
885.673	999	C59H90NaO4+
