Mass spectrum: L-Proline standard; LC-ESI-QTOF; MS2; CE: 40eV; R=5000; [M+H]+
Name: L-Proline standard
Name: Proline
Name: (2S)-pyrrolidine-2-carboxylic acid
Formula: C5H9NO2
Exact mass: 115.0633
SMILES: C1C[C@H](NC1)C(=O)O
InChI: InChI=1S/C5H9NO2/c7-5(8)4-2-1-3-6-4/h4,6H,1-3H2,(H,7,8)/t4-/m0/s1
Instrument: Agilent 6530 QTOF
Instrument type: LC-ESI-QTOF
Ms type: MS2
Ion mode: POSITIVE
Ionization: ESI
Fragmentation mode: CID
Collision energy: 40 eV
Resolution: 5000
Column name: N/A
Retention time: 0.222 min
Base peak: 116.0705
Precursor m/z: 116.0706
Precursor type: [M+H]+
Precursor intensity: 522263
m/z	relative intensity	assigned
41.0393	70	C3H5+
42.0347	31	C2H4N+
43.0548	172	C3H7+
44.0494	12	C2H6N+
47.0121	1	CH3O2+
51.0231	4	C4H3+
53.0386	25	C4H5+
68.0502	89	C4H6N+
70.0661	999	C4H8N+
