Mass spectrum: Estrone; LC-ESI-QTOF; MS2; CE: 20eV; R=7000; [M-H]-
Name: Estrone
Name: (8R,9S,13S,14S)-3-hydroxy-13-methyl-7,8,9,11,12,14,15,16-octahydro-6H-cyclopenta[a]phenanthren-17-one
Formula: C18H22O2
Exact mass: 270.1620
SMILES: C[C@]12CC[C@H]3[C@H]([C@@H]1CCC2=O)CCC4=C3C=CC(=C4)O
InChI: InChI=1S/C18H22O2/c1-18-9-8-14-13-5-3-12(19)10-11(13)2-4-15(14)16(18)6-7-17(18)20/h3,5,10,14-16,19H,2,4,6-9H2,1H3/t14-,15-,16+,18+/m1/s1
Instrument: Agilent 6560 QTOF
Instrument type: LC-ESI-QTOF
Ms type: MS2
Ion mode: NEGATIVE
Ionization: ESI
Fragmentation mode: CID
Collision energy: 20 eV
Resolution: 7000
Column name: N/A
Retention time: 0.168 min
Base peak: 980.0164
Precursor m/z: 269.1547
Precursor type: [M-H]-
Precursor intensity: 150361
m/z	relative intensity	assigned
95.0491	12	C6H7O-
106.0424	5	C7H6O-
107.0504	3	C7H7O-
119.0487	2	C8H7O-
143.0484	6	C10H7O-
144.0559	7	C10H8O-
145.0656	122	C10H9O-
147.0801	2	C10H11O-
157.0658	4	C11H9O-
159.0786	14	C11H11O-
159.1182	1	C12H15-
171.0821	7	C12H11O-
171.1376	2	C10H19O2-
183.0819	19	C13H11O-
184.0856	5	C13H12O-
185.094	1	C13H13O-
212.08	1	C14H12O2-
213.1288	4	C15H17O-
252.1181	3	C17H16O2-
253.124	7	C17H17O2-
253.1565	1	C18H21O-
267.1398	4	C18H19O2-
269.1547	999	C18H21O2-
