Mass spectrum: GLUTARYLCARNITINE; LC-ESI-QTOF; MS2; CE: 40eV; R=5000; [M+H]+
Name: GLUTARYLCARNITINE
Name: (3S)-3-[(4-carboxybutanoyl)oxy]-4-(trimethylazaniumyl)butanoate
Name: (3S)-3-(4-carboxybutanoyloxy)-4-(trimethylazaniumyl)butanoate
Formula: C12H21NO6
Exact mass: 275.1369
SMILES: C[N+](C)(C)C[C@H](CC([O-])=O)OC(=O)CCCC(O)=O
InChI: InChI=1S/C12H21NO6/c1-13(2,3)8-9(7-11(16)17)19-12(18)6-4-5-10(14)15/h9H,4-8H2,1-3H3,(H-,14,15,16,17)/t9-/m0/s1
Instrument: Agilent 6530 QTOF
Instrument type: LC-ESI-QTOF
Ms type: MS2
Ion mode: POSITIVE
Ionization: ESI
Fragmentation mode: CID
Collision energy: 40 eV
Resolution: 5000
Column name: N/A
Retention time: 0.042 min
Base peak: 121.0508
Precursor m/z: 276.1442
Precursor type: [M+H]+
Precursor intensity: 33446
m/z	relative intensity	assigned
41.0395	85	C3H5+
43.0176	101	C2H3O+
45.033	107	C2H5O+
58.0644	26	C3H8N+
60.081	156	C3H10N+
71.1081	1	C2H15O2+
84.0794	72	C2H12O3+
85.0271	999	C4H5O2+
129.0775	59	C6H11NO2+
144.0925	21	C11H12+
156.0222	2	C10H4O2+
156.0473	1	C10H6NO+
158.0925	29	C8H14O3+
171.9979	3	C6H4O6+
178.066	2	C10H10O3+
188.1007	19	C9H16O4+
206.1189	13	C12H16NO2+
