Mass spectrum: Taurocholic acid; LC-ESI-QTOF; MS2; CE: 40eV; R=7000; [M-H2O+H]+
Name: Taurocholic acid
Name: 2-[[(4R)-4-[(3R,5S,7R,8R,9S,10S,12S,13R,14S,17R)-3,7,12-trihydroxy-10,13-dimethyl-2,3,4,5,6,7,8,9,11,12,14,15,16,17-tetradecahydro-1H-cyclopenta[a]phenanthren-17-yl]pentanoyl]amino]ethanesulfonic acid
Formula: C26H45NO7S
Exact mass: 515.2917
SMILES: C[C@H](CCC(=O)NCCS(=O)(=O)O)[C@H]1CC[C@@H]2[C@@]1([C@H](C[C@H]3[C@H]2[C@@H](C[C@H]4[C@@]3(CC[C@H](C4)O)C)O)O)C
InChI: InChI=1S/C26H45NO7S/c1-15(4-7-23(31)27-10-11-35(32,33)34)18-5-6-19-24-20(14-22(30)26(18,19)3)25(2)9-8-17(28)12-16(25)13-21(24)29/h15-22,24,28-30H,4-14H2,1-3H3,(H,27,31)(H,32,33,34)/t15-,16+,17-,18-,19+,20+,21-,22+,24+,25+,26-/m1/s1
Instrument: Agilent 6560 QTOF
Instrument type: LC-ESI-QTOF
Ms type: MS2
Ion mode: POSITIVE
Ionization: ESI
Fragmentation mode: CID
Collision energy: 40 eV
Resolution: 7000
Column name: Direct injection
Retention time: 0.210 min
Base peak: 398.2432
Precursor m/z: 498.2884
Precursor type: [M-H2O+H]+
Precursor intensity: 20314
m/z	relative intensity	assigned
91.0528	134	C7H7+
95.0888	75	C4H15S+
105.0698	326	C8H9+
109.0999	194	C8H13+
119.0873	72	C6H15S+
126.0222	999	C2H8NO3S+
131.0857	25	C10H11+
132.0913	144	C10H12+
133.1003	79	C10H13+
136.1209	59	C2H18NO5+
142.0774	112	C11H10+
143.085	63	C11H11+
145.1008	137	C11H13+
146.1014	50	C3H16NO5+
157.1025	104	C12H13+
159.1191	93	C9H19S+
161.1337	181	C12H17+
170.105	113	C2H20NO5S+
171.1189	49	C10H19S+
171.1788	21	C8H27OS+
173.1297	157	C2H23NO5S+
177.1247	101	CH23NO6S+
180.0921	155	C14H12+
183.1187	56	C11H19S+
185.0989	38	C10H17OS+
185.1331	162	C14H17+
189.1648	63	C14H21+
199.1126	99	C14H15O+
199.1496	172	C15H19+
203.1795	91	C15H23+
208.0642	307	C7H14NO4S+
209.1315	191	C16H17+
212.1163	121	C4H22NO6S+
213.1632	56	C16H21+
215.1439	45	C15H19O+
223.1511	49	C14H23S+
225.1608	76	C6H27NO5S+
227.1767	42	C6H29NO5S+
249.104	87	C10H19NO4S+
251.1841	68	C12H27O5+
253.1577	27	C18H21O+
281.1875	69	C9H31NO6S+
281.2272	90	C21H29+
337.2519	61	C24H33O+
339.1951	124	C22H27O3+
456.2406	67	C23H38NO6S+
