Mass spectrum: 4-((4-(Allyloxy)phenyl)sulfonyl)phenol; LC-ESI-QTOF; MS2; CE: 60eV; R=7000; [M-H]-
Name: 4-((4-(Allyloxy)phenyl)sulfonyl)phenol
Name: 4-(4-prop-2-enoxyphenyl)sulfonylphenol
Formula: C15H14O4S
Exact mass: 290.0613
SMILES: C=CCOC1=CC=C(C=C1)S(=O)(=O)C2=CC=C(C=C2)O
InChI: InChI=1S/C15H14O4S/c1-2-11-19-13-5-9-15(10-6-13)20(17,18)14-7-3-12(16)4-8-14/h2-10,16H,1,11H2
Instrument: Agilent 6560 QTOF
Instrument type: LC-ESI-QTOF
Ms type: MS2
Ion mode: NEGATIVE
Ionization: ESI
Fragmentation mode: CID
Collision energy: 60 eV
Resolution: 7000
Retention time: 0.148 min
Base peak: 289.0549
Precursor m/z: 289.054
Precursor type: [M-H]-
Precursor intensity: 71277.77
m/z	relative intensity	assigned
51.0244	15	C4H3-
63.9634	8	O2S-
64.0312	8	C5H4-
65.0035	8	C4HO-
82.9947	6	C4H3S-
91.0188	69	C6H3O-
92.0269	999	C6H4O-
108.0215	517	C6H4O2-
110.99	8	C5H3OS-
128.0625	23	C10H8-
138.986	22	C6H3O2S-
139.9934	38	C6H4O2S-
143.0498	21	C10H7O-
156.0592	8	C11H8O-
171.0445	10	C11H7O2-
182.035	14	C12H6O2-
184.0522	9	C12H8O2-
