Mass spectrum: GUANOSINEDIPHOSPHATEMANNOSE; LC-ESI-QTOF; MS2; CE: 20eV; R=5000; [M+H]+
Name: GUANOSINEDIPHOSPHATEMANNOSE
Name: CID 18396
Name: [[(2R,3S,4R,5R)-5-(2-amino-6-oxo-3H-purin-9-yl)-3,4-dihydroxyoxolan-2-yl]methoxy-hydroxyphosphoryl] [(2R,3S,4S,5S,6R)-3,4,5-trihydroxy-6-(hydroxymethyl)oxan-2-yl] hydrogen phosphate
Formula: C16H25N5O16P2
Exact mass: 605.0772
SMILES: NC1=NC2=C(N=CN2[C@@H]2O[C@H](COP(O)(=O)OP(O)(=O)O[C@H]3O[C@H](CO)[C@@H](O)[C@H](O)[C@@H]3O)[C@@H](O)[C@H]2O)C(=O)N1
InChI: InChI=1S/C16H25N5O16P2/c17-16-19-12-6(13(28)20-16)18-3-21(12)14-10(26)8(24)5(34-14)2-33-38(29,30)37-39(31,32)36-15-11(27)9(25)7(23)4(1-22)35-15/h3-5,7-11,14-15,22-27H,1-2H2,(H,29,30)(H,31,32)(H3,17,19,20,28)/t4-,5-,7-,8-,9+,10-,11+,14-,15-/m1/s1
Instrument: Agilent 6530 QTOF
Instrument type: LC-ESI-QTOF
Ms type: MS2
Ion mode: POSITIVE
Ionization: ESI
Fragmentation mode: CID
Collision energy: 20 eV
Resolution: 5000
Column name: N/A
Retention time: 0.324 min
Base peak: 121.0508
Precursor m/z: 606.0844
Precursor type: [M+H]+
Precursor intensity: 25520
m/z	relative intensity	assigned
71.0324	2	H7O4+
95.1279	11	CH19O4+
95.1565	4	C2H24OP+
99.9487	4	C2NP2+
105.9693	2	CHNO3P+
115.0412	38	C8H5N+
115.1097	28	H20O4P+
135.0271	58	C2H5N3O4+
152.0577	999	C7H8N2O2+
153.1636	2	C11H21+
153.9313	1	N2O4P2+
154.0885	4	C2H20O3P2+
156.1114	58	H19N3O4P+
160.1743	9	H24N4O5+
176.1329	6	C5H24NOP2+
188.0252	17	C4H8N5P2+
190.0969	4	CH22NO5P2+
214.9142	66	C2HO8P2+
215.0113	4	C13HN3O+
232.0109	21	CH14O9P2+
238.0688	20	H20N2O8P2+
252.1572	3	C11H24O6+
290.2068	9	C16H26N4O+
318.9062	1	C3N2O14P+
321.0862	9	C3H19N3O14+
332.9614	3	C16H3N2O3P2+
334.0901	3	C5H24N2O10P2+
392.0561	3	C7H21O16P+
394.1547	10	C10H26N4O12+
405.1627	23	C15H25N4O9+
444.0312	285	C14H13N4O11P+
444.167	14	C13H26N5O12+
444.923	30	C13H5NO13P2+
445.0279	29	C15H14N2O12P+
464.975	5	C16H9N3O10P2+
466.9147	2	C9H3N5O14P2+
472.8879	2	C7HN5O16P2+
561.9462	11	C15H8N4O16P2+
