Mass spectrum: Margaric acid; LC-ESI-QTOF; MS2; CE: 10eV; R=7000; [M-H]-
Name: Margaric acid
Name: heptadecanoic acid
Formula: C17H34O2
Exact mass: 270.2559
SMILES: CCCCCCCCCCCCCCCCC(O)=O
InChI: InChI=1S/C17H34O2/c1-2-3-4-5-6-7-8-9-10-11-12-13-14-15-16-17(18)19/h2-16H2,1H3,(H,18,19)
Instrument: Agilent 6560 QTOF
Instrument type: LC-ESI-QTOF
Ms type: MS2
Ion mode: NEGATIVE
Ionization: ESI
Fragmentation mode: CID
Collision energy: 10 eV
Resolution: 7000
Column name: N/A
Retention time: 0.147 min
Base peak: 269.2495
Precursor m/z: 269.2486
Precursor type: [M-H]-
Precursor intensity: 284600
m/z	relative intensity	assigned
107.1446	1	C6H19O-
108.1543	1	C6H20O-
110.2244	1	C4H30O2-
269.2489	999	C17H33O2-
