Mass spectrum: Sphinganine; LC-ESI-QTOF; MS2; CE: 10eV; R=7000; [M+H]+
Name: Sphinganine
Name: (2S,3R)-2-aminooctadecane-1,3-diol
Formula: C18H39NO2
Exact mass: 301.2981
SMILES: CCCCCCCCCCCCCCC[C@@H](O)[C@@H](N)CO
InChI: InChI=1S/C18H39NO2/c1-2-3-4-5-6-7-8-9-10-11-12-13-14-15-18(21)17(19)16-20/h17-18,20-21H,2-16,19H2,1H3/t17-,18+/m0/s1
Instrument: Agilent 6560 QTOF
Instrument type: LC-ESI-QTOF
Ms type: MS2
Ion mode: POSITIVE
Ionization: ESI
Fragmentation mode: CID
Collision energy: 10 eV
Resolution: 7000
Column name: Direct injection
Retention time: 0.153 min
Base peak: 302.3064
Precursor m/z: 302.3054
Precursor type: [M+H]+
Precursor intensity: 201200
m/z	relative intensity	assigned
70.0651	16	C4H8N+
71.0482	15	C4H7O+
71.0856	36	C5H11+
81.07	71	C6H9+
83.0859	45	C6H11+
95.0848	106	C7H11+
97.1009	36	C7H13+
109.1019	67	C8H13+
111.1169	21	C8H15+
123.1159	18	C9H15+
124.1149	3	C8H14N+
179.182	6	C13H23+
184.2056	6	C12H26N+
240.2698	31	C16H34N+
249.2545	2	C18H33+
254.2842	172	C17H36N+
255.287	39	C17H37N+
266.2837	122	C18H36N+
267.2886	12	C18H37N+
284.2953	999	C18H38NO+
285.2977	40	C18H39NO+
302.3056	540	C18H40NO2+
