Mass spectrum: 2-(Methylthio)benzothiazole; LC-ESI-QTOF; MS2; CE: 20eV; R=7000; [M+H]+
Name: 2-(Methylthio)benzothiazole
Name: 2-methylsulfanyl-1,3-benzothiazole
Formula: C8H7NS2
Exact mass: 181.002
SMILES: CSC1=NC2=CC=CC=C2S1
InChI: InChI=1S/C8H7NS2/c1-10-8-9-6-4-2-3-5-7(6)11-8/h2-5H,1H3
Instrument: Agilent 6560 QTOF
Instrument type: LC-ESI-QTOF
Ms type: MS2
Ion mode: POSITIVE
Ionization: ESI
Fragmentation mode: CID
Collision energy: 20 eV
Resolution: 7000
Column name: ZORBAX Extend-C18 3.5um, 2.1x50mm, Agilent Technologies
Retention time: 5.564 min
Base peak: 182.0094
Precursor m/z: 182.0093
Precursor type: [M+H]+
Precursor intensity: 41131.75
m/z	relative intensity	assigned
52.0299	8	C4H4+
63.9437	10	S2+
79.053	8	C6H7+
91.0411	20	C6H5N+
103.0406	11	C7H5N+
109.011	31	C6H5S+
123.0128	43	C6H5NS+
135.0131	63	C7H5NS+
136.0232	8	C7H6NS+
139.9749	17	C6H4S2+
166.9857	999	C7H5NS2+
182.0093	253	C8H8NS2+
