Mass spectrum: Rosmarinic acid; LC-ESI-QTOF; MS2; CE: 10eV; R=7000; [M-H]-
Name: Rosmarinic acid
Name: (2R)-3-(3,4-dihydroxyphenyl)-2-[(E)-3-(3,4-dihydroxyphenyl)prop-2-enoyl]oxypropanoic acid
Formula: C18H16O8
Exact mass: 360.0845
SMILES: OC(=O)[C@@H](CC1=CC(O)=C(O)C=C1)OC(=O)\C=C\C1=CC(O)=C(O)C=C1
InChI: InChI=1S/C18H16O8/c19-12-4-1-10(7-14(12)21)3-6-17(23)26-16(18(24)25)9-11-2-5-13(20)15(22)8-11/h1-8,16,19-22H,9H2,(H,24,25)/b6-3+/t16-/m1/s1
Instrument: Agilent 6560 QTOF
Instrument type: LC-ESI-QTOF
Ms type: MS2
Ion mode: NEGATIVE
Ionization: ESI
Fragmentation mode: CID
Collision energy: 10 eV
Resolution: 7000
Column name: N/A
Retention time: 0.189 min
Base peak: 255.2331
Precursor m/z: 359.0772
Precursor type: [M-H]-
Precursor intensity: 75972
m/z	relative intensity	assigned
72.9926	115	C2HO3-
77.0394	17	C6H5-
105.0338	24	C7H5O-
133.0272	29	C8H5O2-
135.0437	36	C8H7O2-
135.0809	2	C9H11O-
161.0239	999	C9H5O3-
179.0358	144	C9H7O4-
197.045	322	C9H9O5-
215.023	6	C8H7O7-
247.1002	7	C14H15O4-
265.0137	10	C15H5O5-
299.0203	17	C15H7O7-
359.0789	45	C18H15O8-
