Mass spectrum: 2-(4-(2-(4-(2-(2-(methacryloyloxy)ethoxy)ethoxy)phenyl)propan-2-yl)phenoxy)ethyl methacrylate; LC-ESI-QTOF; MS2; CE: 40eV; R=7000; [M+NH4]+
Name: 2-(4-(2-(4-(2-(2-(methacryloyloxy)ethoxy)ethoxy)phenyl)propan-2-yl)phenoxy)ethyl methacrylate
Name: 2-Propenoic acid, 2-methyl-, 2-[4-[1-methyl-1-[4-[2-[2-[(2-methyl-1-oxo-2-propenyl)oxy]ethoxy]ethoxy]phenyl]ethyl]phenoxy]ethyl ester
Name: 2-[2-[4-[2-[4-[2-(2-methylprop-2-enoyloxy)ethoxy]phenyl]propan-2-yl]phenoxy]ethoxy]ethyl 2-methylprop-2-enoate
Formula: C29H36O7
Exact mass: 496.2461
SMILES: CC(C1=CC=C(OCCOCCOC(C(C)=C)=O)C=C1)(C)C2=CC=C(OCCOC(C(C)=C)=O)C=C2
InChI: InChI=1S/C29H36O7/c1-21(2)27(30)35-18-16-32-15-17-33-25-11-7-23(8-12-25)29(5,6)24-9-13-26(14-10-24)34-19-20-36-28(31)22(3)4/h7-14H,1,3,15-20H2,2,4-6H3
Instrument: Agilent 6560 QTOF
Instrument type: LC-ESI-QTOF
Ms type: MS2
Ion mode: POSITIVE
Ionization: ESI
Fragmentation mode: CID
Collision energy: 40 eV
Resolution: 7000
Column name: ZORBAX Extend-C18 3.5um, 2.1x50mm, Agilent Technologies
Retention time: 4.398 min
Base peak: 514.2899
Precursor m/z: 514.2799
Precursor type: [M+NH4]+
Precursor intensity: 749388.44
m/z	relative intensity	assigned
69.0344	159	C4H5O+
95.0486	1	C6H7O+
105.0699	1	C8H9+
107.0498	4	C7H7O+
113.0603	999	C6H9O2+
115.0534	1	C9H7+
133.0656	4	C9H9O+
133.1005	2	C10H13+
135.08	21	C9H11O+
161.0965	6	C11H13O+
