Mass spectrum: Nandrolone; LC-ESI-QTOF; MS2; CE: 40eV; R=7000; [M+H]+
Name: Nandrolone
Name: (8R,9S,10R,13S,14S,17S)-17-hydroxy-13-methyl-2,6,7,8,9,10,11,12,14,15,16,17-dodecahydro-1H-cyclopenta[a]phenanthren-3-one
Formula: C18H26O2
Exact mass: 274.1933
SMILES: C[C@]12CC[C@H]3[C@H]([C@@H]1CC[C@@H]2O)CCC4=CC(=O)CC[C@H]34
InChI: InChI=1S/C18H26O2/c1-18-9-8-14-13-5-3-12(19)10-11(13)2-4-15(14)16(18)6-7-17(18)20/h10,13-17,20H,2-9H2,1H3/t13-,14+,15+,16-,17-,18-/m0/s1
Instrument: Agilent 6560 QTOF
Instrument type: LC-ESI-QTOF
Ms type: MS2
Ion mode: POSITIVE
Ionization: ESI
Fragmentation mode: CID
Collision energy: 40 eV
Resolution: 7000
Column name: Direct injection
Retention time: 0.156 min
Base peak: 275.2016
Precursor m/z: 275.2006
Precursor type: [M+H]+
Precursor intensity: 200214
m/z	relative intensity	assigned
71.0508	11	C4H7O+
74.0735	5	C4H10O+
77.0388	550	C6H5+
79.0545	637	C6H7+
81.0703	777	C6H9+
83.0487	404	C5H7O+
91.0541	727	C7H7+
93.0702	372	C7H9+
94.0772	18	C7H10+
95.0848	174	C7H11+
97.0645	36	C6H9O+
103.055	59	C8H7+
105.0699	267	C8H9+
107.0487	211	C7H7O+
107.0854	78	C8H11+
109.0646	999	C7H9O+
115.0546	53	C9H7+
117.0706	137	C9H9+
119.0855	181	C9H11+
121.0626	7	C8H9O+
121.1003	29	C9H13+
123.08	56	C8H11O+
128.0621	51	C10H8+
129.0695	189	C10H9+
130.0766	71	C10H10+
131.0853	134	C10H11+
132.0935	31	C10H12+
133.0984	13	C10H13+
134.0732	39	C9H10O+
135.0805	15	C9H11O+
141.0701	54	C11H9+
142.0753	35	C11H10+
143.0864	179	C11H11+
144.0961	7	C11H12+
145.1012	84	C11H13+
146.07	29	C10H10O+
147.1159	21	C11H15+
149.095	22	C10H13O+
149.1305	22	C11H17+
154.0778	7	C12H10+
155.086	50	C12H11+
156.0944	5	C12H12+
157.1008	29	C12H13+
159.1183	31	C12H15+
161.0944	23	C11H13O+
161.1344	37	C12H17+
168.0932	30	C13H12+
169.1008	31	C13H13+
170.1077	48	C13H14+
172.087	12	C12H12O+
173.0972	9	C12H13O+
175.1135	14	C12H15O+
175.1484	16	C13H19+
177.1272	8	C12H17O+
181.0994	7	C14H13+
183.1164	17	C14H15+
185.1295	26	C14H17+
187.1506	9	C14H19+
198.1415	14	C15H18+
199.1472	6	C15H19+
201.126	25	C14H17O+
214.1303	10	C15H18O+
