Mass spectrum: URIDINEDIPHOSPHATENACETYLGALACTOSAMINE; LC-ESI-QTOF; MS2; CE: 20eV; R=5000; [M+H]+
Name: URIDINEDIPHOSPHATENACETYLGALACTOSAMINE
Name: Uridine diphosphate-N-acetylgalactosamine
Name: [3-acetamido-4,5-dihydroxy-6-(hydroxymethyl)oxan-2-yl] [[5-(2,4-dioxopyrimidin-1-yl)-3,4-dihydroxyoxolan-2-yl]methoxy-hydroxyphosphoryl] hydrogen phosphate
Formula: C17H27N3O17P2
Exact mass: 607.0816
SMILES: CC(O)=NC1C(OP(O)(=O)OP(O)(=O)OCC2OC(C(O)C2O)N2C=CC(O)=NC2=O)OC(CO)C(O)C1O
InChI: InChI=1S/C17H27N3O17P2/c1-6(22)18-10-13(26)11(24)7(4-21)35-16(10)36-39(31,32)37-38(29,30)33-5-8-12(25)14(27)15(34-8)20-3-2-9(23)19-17(20)28/h2-3,7-8,10-16,21,24-27H,4-5H2,1H3,(H,18,22)(H,29,30)(H,31,32)(H,19,23,28)
Instrument: Agilent 6530 QTOF
Instrument type: LC-ESI-QTOF
Ms type: MS2
Ion mode: POSITIVE
Ionization: ESI
Fragmentation mode: CID
Collision energy: 20 eV
Resolution: 5000
Column name: N/A
Retention time: 0.323 min
Base peak: 121.0508
Precursor m/z: 608.0888
Precursor type: [M+H]+
Precursor intensity: 29221
m/z	relative intensity	assigned
55.0742	14	CH11O2+
71.9775	24	C2HOP+
86.0427	5	CH12P2+
97.0407	11	C2H10O2P+
98.0622	120	CH11N2OP+
98.0962	27	C6H12N+
109.0245	15	CH5N2O4+
126.0451	56	C3H11O3P+
127.0291	37	C8H3N2+
127.069	6	C3H15NP2+
138.0525	713	H13NO5P+
139.0523	178	H15NO3P2+
142.9888	4	C5H4O3P+
144.0615	293	CH10N3O5+
168.0524	31	C7H8N2O3+
168.092	7	C2H20NO3P2+
168.1546	9	C2H22N3O5+
172.0816	34	C4H14NO6+
186.0739	999	CH17NO7P+
188.1063	8	C12H14NO+
190.9829	17	CH6NO8P+
204.0833	997	C9H18OP2+
231.183	11	C12H25NO3+
287.2015	4	C17H25N3O+
299.0046	6	C3H13N2O10P2+
304.0117	6	C12H7N3O5P+
306.1689	28	C17H24NO4+
337.8716	62	C3O15P2+
343.1788	54	C16H28N2O4P+
355.0644	3	C13H13N3O9+
362.2004	19	C15H28N3O7+
400.0721	23	C12H18NO14+
400.1535	9	C10H28N2O14+
408.0522	5	C12H14N3O13+
433.1196	27	C10H28NO15P+
434.032	5	C13H12N3O14+
459.8918	15	C13HO17P+
489.8602	4	C13O17P2+
500.0475	4	C16H22O14P2+
504.1312	6	C15H26N3O16+
506.9098	16	C17H2NO16P+
531.8787	111	C14H2N2O17P2+
544.9716	14	C13H13N3O17P2+
