Mass spectrum: 12-Hydroxy lauric acid; LC-ESI-QTOF; MS2; CE: 20eV; R=7000; [M-H]-
Name: 12-Hydroxy lauric acid
Name: 12-hydroxydodecanoic acid
Formula: C12H24O3
Exact mass: 216.1725
SMILES: OCCCCCCCCCCCC(O)=O
InChI: InChI=1S/C12H24O3/c13-11-9-7-5-3-1-2-4-6-8-10-12(14)15/h13H,1-11H2,(H,14,15)
Instrument: Agilent 6560 QTOF
Instrument type: LC-ESI-QTOF
Ms type: MS2
Ion mode: NEGATIVE
Ionization: ESI
Fragmentation mode: CID
Collision energy: 20 eV
Resolution: 7000
Column name: N/A
Retention time: 0.146 min
Base peak: 357.1907
Precursor m/z: 215.1653
Precursor type: [M-H]-
Precursor intensity: 25499
m/z	relative intensity	assigned
83.0511	16	C5H7O-
167.1429	85	C11H19O-
169.1609	667	C11H21O-
197.1593	9	C12H21O2-
215.1651	999	C12H23O3-
