Mass spectrum: 9(Z),12(Z)-octadecadienoyl-L-carnitine; LC-ESI-QTOF; MS2; CE: 20eV; R=7000; [M+H]+
Name: 9(Z),12(Z)-octadecadienoyl-L-carnitine
Name: 3-octadeca-9,12-dienoyloxy-4-(trimethylazaniumyl)butanoate
Formula: C25H45NO4
Exact mass: 423.3349
SMILES: CCCCCC=CCC=CCCCCCCCC(=O)OC(CC(=O)[O-])C[N+](C)(C)C
InChI: InChI=1S/C25H45NO4/c1-5-6-7-8-9-10-11-12-13-14-15-16-17-18-19-20-25(29)30-23(21-24(27)28)22-26(2,3)4/h9-10,12-13,23H,5-8,11,14-22H2,1-4H3
Instrument: Agilent 6560 QTOF
Instrument type: LC-ESI-QTOF
Ms type: MS2
Ion mode: POSITIVE
Ionization: ESI
Fragmentation mode: CID
Collision energy: 20 eV
Resolution: 7000
Column name: Direct injection
Retention time: 0.157 min
Base peak: 424.3438
Precursor m/z: 424.3421
Precursor type: [M+H]+
Precursor intensity: 510464
m/z	relative intensity	assigned
71.0857	4	C5H11+
79.0543	5	C6H7+
81.0703	42	C6H9+
83.0856	65	C6H11+
85.0286	999	C4H5O2+
93.0699	12	C7H9+
95.0852	38	C7H11+
97.0652	5	C6H9O+
97.1013	39	C7H13+
99.0795	5	C6H11O+
103.0394	6	C4H7O3+
105.0699	3	C8H9+
107.0856	5	C8H11+
109.0654	3	C7H9O+
109.1003	21	C8H13+
111.0794	2	C7H11O+
111.1158	3	C8H15+
115.0729	1	C6H11O2+
119.0857	5	C9H11+
121.1008	12	C9H13+
123.08	3	C8H11O+
123.1146	8	C9H15+
125.0959	6	C8H13O+
129.0778	1	C6H11NO2+
133.1004	13	C10H13+
135.1157	18	C10H15+
137.0931	2	C9H13O+
137.1323	7	C10H17+
139.1117	2	C9H15O+
139.148	1	C10H19+
144.1024	51	C7H14NO2+
145.1029	5	C11H13+
147.1173	10	C11H15+
148.1156	1	C10H14N+
149.1313	7	C11H17+
151.1127	6	C10H15O+
151.1469	5	C11H19+
153.1275	5	C10H17O+
157.0145	1	C9H3NO2+
157.0495	10	C7H9O4+
161.1324	10	C12H17+
162.1114	1	C7H16NO3+
163.1127	1	C11H15O+
163.1473	4	C12H19+
165.1639	2	C12H21+
167.1423	1	C11H19O+
169.12	1	C10H17O2+
171.1357	2	C10H19O2+
175.1496	8	C13H19+
177.163	1	C13H21+
179.1435	2	C12H19O+
181.1568	1	C12H21O+
183.1356	1	C11H19O2+
189.162	6	C14H21+
195.135	1	C12H19O2+
201.1626	1	C15H21+
203.1787	1	C15H23+
205.1924	1	C15H25+
207.1725	1	C14H23O+
211.1032	1	C14H13NO+
239.1277	1	C13H19O4+
241.1448	5	C16H19NO+
245.2261	14	C18H29+
253.1442	5	C14H21O4+
255.1697	2	C18H23O+
263.2371	10	C18H31O+
264.245	1	C18H32O+
267.1644	2	C18H21NO+
269.1735	8	C15H25O4+
281.1752	4	C16H25O4+
283.1915	1	C16H27O4+
295.1893	1	C17H27O4+
309.2051	7	C18H29O4+
311.2218	2	C18H31O4+
335.2551	1	C21H35O3+
424.3431	457	C25H46NO4+
