Mass spectrum: Para-hydroxy triphenyl phosphate; LC-ESI-QTOF; MS2; CE: 35eV; R=7000; [M+H]+
Name: Para-hydroxy triphenyl phosphate
Name: 4-Hydroxyphenyl diphenyl phosphate
Name: (4-hydroxyphenyl) diphenyl phosphate
Formula: C18H15O5P
Exact mass: 342.0657
SMILES: C1=CC=C(C=C1)OP(=O)(OC2=CC=CC=C2)OC3=CC=C(C=C3)O
InChI: InChI=1S/C18H15O5P/c19-15-11-13-18(14-12-15)23-24(20,21-16-7-3-1-4-8-16)22-17-9-5-2-6-10-17/h1-14,19H
Instrument: Agilent 6560 QTOF
Instrument type: LC-ESI-QTOF
Ms type: MS2
Ion mode: POSITIVE
Ionization: ESI
Fragmentation mode: CID
Collision energy: 35 eV
Resolution: 7000
Retention time: 0.147 min
Base peak: 343.0731
Precursor m/z: 343.073
Precursor type: [M+H]+
Precursor intensity: 97577.38
m/z	relative intensity	assigned
51.0235	85	C4H3+
53.0385	25	C4H5+
65.0387	381	C5H5+
77.0389	999	C6H5+
81.0335	164	C5H5O+
93.033	75	C6H5O+
94.0408	25	C6H6O+
95.0499	49	C6H7O+
109.0283	550	C6H5O2+
110.0354	53	C6H6O2+
111.0424	42	C6H7O2+
115.054	391	C9H7+
116.0582	29	C2H13O3P+
129.0693	19	C10H9+
141.01	100	C6H6O2P+
141.0694	604	C11H9+
142.0748	39	C4H15O3P+
150.0465	19	C12H6+
151.0537	86	C12H7+
152.062	556	C12H8+
153.0698	198	C12H9+
154.0739	13	C5H15O3P+
154.9898	27	C6H4O3P+
155.9962	91	C6H5O3P+
168.0569	212	C12H8O+
169.0641	107	C12H9O+
170.07	34	C5H15O4P+
175.0147	105	C6H8O4P+
184.0513	70	C12H8O2+
186.0659	24	C5H15O5P+
187.0293	19	C11H8OP+
202.0762	44	C9H15O3P+
203.0252	37	C11H8O2P+
215.0247	290	C12H8O2P+
215.0848	60	C17H11+
226.0777	78	C18H10+
227.0812	19	C11H16O3P+
231.0205	152	C12H8O3P+
232.0243	13	C12H9O3P+
233.0391	17	C12H10O3P+
245.094	21	C18H13O+
249.031	60	C12H10O4P+
251.0472	57	C12H12O4P+
267.0416	176	C12H12O5P+
