Mass spectrum: N-palmitoyl-D-erythro-sphinganine; LC-ESI-QTOF; MS2; CE: 20eV; R=7000; [M+HCOOH-H]-
Name: N-palmitoyl-D-erythro-sphinganine
Name: N-(hexadecanoyl)-sphinganine
Name: N-[(2S,3R)-1,3-dihydroxyoctadecan-2-yl]hexadecanamide
Formula: C34H69NO3
Exact mass: 539.5277
SMILES: CCCCCCCCCCCCCCC[C@H]([C@H](CO)NC(=O)CCCCCCCCCCCCCCC)O
InChI: InChI=1S/C34H69NO3/c1-3-5-7-9-11-13-15-17-19-21-23-25-27-29-33(37)32(31-36)35-34(38)30-28-26-24-22-20-18-16-14-12-10-8-6-4-2/h32-33,36-37H,3-31H2,1-2H3,(H,35,38)/t32-,33+/m0/s1
Instrument: Agilent 6560 QTOF
Instrument type: LC-ESI-QTOF
Ms type: MS2
Ion mode: NEGATIVE
Ionization: ESI
Fragmentation mode: CID
Collision energy: 20 eV
Resolution: 7000
Column name: N/A
Retention time: 0.237 min
Base peak: 598.5426
Precursor m/z: 584.5259
Precursor type: [M+HCOOH-H]-
Precursor intensity: 20930
m/z	relative intensity	assigned
145.0681	32	C10H9O-
169.0939	26	C5H15NO5-
181.3341	14	C9H43NO-
214.3686	10	C10H48NO2-
217.3189	20	C8H43NO4-
217.4906	19	C9H63NO2-
223.1993	39	C14H25NO-
250.4107	75	C14H52NO-
253.2571	36	C17H33O-
255.2313	52	C16H31O2-
280.2658	133	C18H34NO-
300.2909	195	C18H38NO2-
306.2941	142	C21H38O-
338.19	120	C22H26O3-
354.1921	28	C25H24NO-
490.5078	27	C34H66O-
506.494	158	C33H64NO2-
524.5015	222	C33H66NO3-
538.4777	75	C33H64NO4-
538.5216	999	C34H68NO3-
539.5264	152	C34H69NO3-
