Mass spectrum: TYRAMINE; LC-ESI-QTOF; MS2; CE: 40eV; R=5000; [M+H]+
Name: TYRAMINE
Name: 4-(2-aminoethyl)phenol
Formula: C8H11NO
Exact mass: 137.0841
SMILES: NCCC1=CC=C(O)C=C1
InChI: InChI=1S/C8H11NO/c9-6-5-7-1-3-8(10)4-2-7/h1-4,10H,5-6,9H2
Instrument: Agilent 6530 QTOF
Instrument type: LC-ESI-QTOF
Ms type: MS2
Ion mode: POSITIVE
Ionization: ESI
Fragmentation mode: CID
Collision energy: 40 eV
Resolution: 5000
Column name: N/A
Retention time: 0.253 min
Base peak: 121.0657
Precursor m/z: 138.0913
Precursor type: [M+H]+
Precursor intensity: 1149405
m/z	relative intensity	assigned
40.0314	6	C3H4+
41.0388	39	C3H5+
43.0186	12	C2H3O+
50.0145	25	C4H2+
51.0232	816	C4H3+
52.0295	12	C4H4+
53.0378	15	C4H5+
55.0175	16	C3H3O+
63.0227	16	C5H3+
65.0383	220	C5H5+
66.0457	29	C5H6+
74.0144	9	C6H2+
76.0296	9	C6H4+
77.038	999	C6H5+
78.0451	31	C6H6+
91.0535	161	C7H7+
94.0413	47	C6H6O+
102.0448	16	C8H6+
103.0522	36	C8H7+
121.0624	1	C8H9O+
