Mass spectrum: N-palmitoyl-D-erythro-sphinganine; LC-ESI-QTOF; MS2; CE: 20eV; R=7000; [M-H]-
Name: N-palmitoyl-D-erythro-sphinganine
Name: N-(hexadecanoyl)-sphinganine
Name: N-[(2S,3R)-1,3-dihydroxyoctadecan-2-yl]hexadecanamide
Formula: C34H69NO3
Exact mass: 539.5277
SMILES: CCCCCCCCCCCCCCC[C@H]([C@H](CO)NC(=O)CCCCCCCCCCCCCCC)O
InChI: InChI=1S/C34H69NO3/c1-3-5-7-9-11-13-15-17-19-21-23-25-27-29-33(37)32(31-36)35-34(38)30-28-26-24-22-20-18-16-14-12-10-8-6-4-2/h32-33,36-37H,3-31H2,1-2H3,(H,35,38)/t32-,33+/m0/s1
Instrument: Agilent 6560 QTOF
Instrument type: LC-ESI-QTOF
Ms type: MS2
Ion mode: NEGATIVE
Ionization: ESI
Fragmentation mode: CID
Collision energy: 20 eV
Resolution: 7000
Column name: N/A
Retention time: 0.166 min
Base peak: 598.5428
Precursor m/z: 538.5205
Precursor type: [M-H]-
Precursor intensity: 160982
m/z	relative intensity	assigned
133.0841	3	C6H13O3-
136.0216	1	C10H2N-
142.2907	3	C6H38O2-
145.2405	6	C7H31NO-
167.1671	2	C11H21N-
175.3047	3	C10H39O-
192.5116	11	C8H66NO-
196.519	6	C8H68O2-
222.032	1	C14H6O3-
232.3618	3	C13H46NO-
237.2225	152	C16H29O-
238.3354	3	C11H44NO3-
239.2385	63	C16H31O-
239.984	4	C16O3-
253.252	2	C17H33O-
254.2491	28	C16H32NO-
255.2323	136	C16H31O2-
256.2365	11	C16H32O2-
265.2525	1	C18H33O-
268.211	5	C19H26N-
268.2646	4	C17H34NO-
280.2641	663	C18H34NO-
281.2672	41	C18H35NO-
282.1257	4	C18H18O3-
282.2792	14	C18H36NO-
282.3196	2	C19H40N-
294.4944	3	C14H64NO3-
296.2595	126	C18H34NO2-
300.2945	28	C18H38NO2-
301.2447	3	C20H31NO-
320.058	11	C26H8-
324.4553	2	C18H60O3-
328.2719	2	C23H36O-
402.0625	1	C30H10O2-
438.3481	4	C30H46O2-
481.3813	2	C32H51NO2-
490.4998	170	C33H64NO-
491.5008	36	C33H65NO-
503.4469	9	C33H59O3-
503.4997	12	C34H65NO-
506.4962	151	C33H64NO2-
507.499	20	C33H65NO2-
520.5152	13	C34H66NO2-
538.5212	999	C34H68NO3-
