Mass spectrum: Epitestosterone; LC-ESI-QTOF; MS2; CE: 20eV; R=7000; [M+H]+
Name: Epitestosterone
Name: (8R,9S,10R,13S,14S,17R)-17-hydroxy-10,13-dimethyl-1,2,6,7,8,9,11,12,14,15,16,17-dodecahydrocyclopenta[a]phenanthren-3-one
Formula: C19H28O2
Exact mass: 288.2089
SMILES: C[C@]12CC[C@H]3[C@H]([C@@H]1CC[C@H]2O)CCC4=CC(=O)CC[C@]34C
InChI: InChI=1S/C19H28O2/c1-18-9-7-13(20)11-12(18)3-4-14-15-5-6-17(21)19(15,2)10-8-16(14)18/h11,14-17,21H,3-10H2,1-2H3/t14-,15-,16-,17+,18-,19-/m0/s1
Instrument: Agilent 6560 QTOF
Instrument type: LC-ESI-QTOF
Ms type: MS2
Ion mode: POSITIVE
Ionization: ESI
Fragmentation mode: CID
Collision energy: 20 eV
Resolution: 7000
Column name: Direct injection
Retention time: 0.155 min
Base peak: 289.2167
Precursor m/z: 289.2162
Precursor type: [M+H]+
Precursor intensity: 576672
m/z	relative intensity	assigned
77.0384	19	C6H5+
79.055	38	C6H7+
80.0613	3	C6H8+
81.0701	82	C6H9+
83.0489	57	C5H7O+
83.0867	5	C6H11+
85.0663	1	C5H9O+
91.0544	22	C7H7+
93.0707	52	C7H9+
95.0486	4	C6H7O+
95.0851	85	C7H11+
97.0648	999	C6H9O+
99.0801	1	C6H11O+
105.0693	77	C8H9+
107.0855	50	C8H11+
109.0648	982	C7H9O+
111.0778	5	C7H11O+
113.0966	2	C7H13O+
117.0682	9	C9H9+
119.0855	73	C9H11+
121.0643	27	C8H9O+
121.101	37	C9H13+
123.0801	123	C8H11O+
124.0852	5	C8H12O+
128.0622	2	C10H8+
129.0695	6	C10H9+
131.0853	26	C10H11+
133.0641	3	C9H9O+
133.1005	37	C10H13+
135.1175	15	C10H15+
141.0681	4	C11H9+
142.0805	2	C11H10+
143.0858	9	C11H11+
144.0899	4	C11H12+
145.1011	78	C11H13+
147.0822	9	C10H11O+
147.1175	58	C11H15+
149.0965	8	C10H13O+
149.1314	13	C11H17+
151.1132	6	C10H15O+
155.0854	10	C12H11+
157.1026	17	C12H13+
159.0773	3	C11H11O+
159.1172	52	C12H15+
160.1219	4	C12H16+
161.0932	11	C11H13O+
161.1319	45	C12H17+
163.1104	21	C11H15O+
163.1494	19	C12H19+
165.1278	4	C11H17O+
169.0987	9	C13H13+
171.1158	48	C13H15+
172.125	4	C13H16+
173.0954	2	C12H13O+
173.132	17	C13H17+
175.1129	13	C12H15O+
175.1486	95	C13H19+
177.1257	10	C12H17O+
183.1156	6	C14H15+
185.1325	16	C14H17+
186.1368	6	C14H18+
187.1467	11	C14H19+
188.1524	2	C14H20+
189.1276	2	C13H17O+
189.1628	32	C14H21+
191.1431	2	C13H19O+
193.1615	1	C13H21O+
197.1329	40	C15H17+
198.1414	6	C15H18+
199.1486	25	C15H19+
201.1318	10	C14H17O+
201.1645	18	C15H21+
211.1476	23	C16H19+
212.1525	11	C16H20+
213.1649	15	C16H21+
215.1419	4	C15H19O+
217.1586	7	C15H21O+
218.1663	1	C15H22O+
225.163	11	C17H21+
227.1797	7	C17H23+
229.1565	1	C16H21O+
229.195	4	C17H25+
233.1513	1	C15H21O2+
233.1889	1	C16H25O+
238.173	1	C18H22+
245.1878	2	C17H25O+
251.1765	3	C19H23+
253.1949	82	C19H25+
254.1984	3	C19H26+
271.2056	52	C19H27O+
272.2092	1	C19H28O+
289.2172	92	C19H29O2+
