Mass spectrum: ((propane-2,2-diylbis(4,1-phenylene))bis(oxy))bis(3,6,9,12-tetraoxatetradecane-14,1-diyl) bis(2-methylacrylate); LC-ESI-QTOF; MS2; CE: 40eV; R=7000; [M+NH4]+
Name: ((propane-2,2-diylbis(4,1-phenylene))bis(oxy))bis(3,6,9,12-tetraoxatetradecane-14,1-diyl) bis(2-methylacrylate)
Name: Bismethacrylic acid isopropylidenebis[(4,1-phenylene)(oxyethyleneoxyethyleneoxyethyleneoxyethyleneoxyethylene)] ester
Name: 2-[2-[2-[2-[2-[4-[2-[4-[2-[2-[2-[2-[2-(2-methylprop-2-enoyloxy)ethoxy]ethoxy]ethoxy]ethoxy]ethoxy]phenyl]propan-2-yl]phenoxy]ethoxy]ethoxy]ethoxy]ethoxy]ethyl 2-methylprop-2-enoate
Formula: C43H64O14
Exact mass: 804.4296
SMILES: CC(C1=CC=C(OCCOCCOCCOCCOCCOC(C(C)=C)=O)C=C1)(C)C2=CC=C(OCCOCCOCCOCCOCCOC(C(C)=C)=O)C=C2
InChI: InChI=1S/C43H64O14/c1-35(2)41(44)56-33-29-52-25-21-48-17-15-46-19-23-50-27-31-54-39-11-7-37(8-12-39)43(5,6)38-9-13-40(14-10-38)55-32-28-51-24-20-47-16-18-49-22-26-53-30-34-57-42(45)36(3)4/h7-14H,1,3,15-34H2,2,4-6H3
Instrument: Agilent 6560 QTOF
Instrument type: LC-ESI-QTOF
Ms type: MS2
Ion mode: POSITIVE
Ionization: ESI
Fragmentation mode: CID
Collision energy: 40 eV
Resolution: 7000
Column name: ZORBAX Extend-C18 3.5um, 2.1x50mm, Agilent Technologies
Retention time: 4.116 min
Base peak: 822.4729
Precursor m/z: 822.4634
Precursor type: [M+NH4]+
Precursor intensity: 311867.35
m/z	relative intensity	assigned
55.0549	1	C4H7+
69.034	63	C4H5O+
73.0289	3	C3H5O2+
85.065	1	C5H9O+
87.0451	1	C4H7O2+
89.0602	9	C4H9O2+
91.0554	3	C7H7+
105.0707	1	C8H9+
107.0491	1	C7H7O+
113.0604	999	C6H9O2+
121.0644	2	C8H9O+
133.0661	4	C9H9O+
133.0851	3	C6H13O3+
133.1003	7	C10H13+
135.0801	14	C9H11O+
143.0834	1	C11H11+
146.0728	2	C10H10O+
147.0794	2	C10H11O+
157.0858	3	C8H13O3+
159.0813	2	C11H11O+
161.0956	64	C11H13O+
162.0977	1	C3H16NO6+
163.1101	1	C11H15O+
187.111	7	C13H15O+
201.1251	1	C14H17O+
205.1211	31	C13H17O2+
206.1265	1	C5H20NO7+
207.1379	1	C13H19O2+
223.1312	4	C13H19O3+
231.1368	2	H25NO12+
247.135	1	C15H19O3+
249.1484	2	C15H21O3+
273.1463	2	C2H27NO13+
281.1531	1	C4H27NO12+
291.1581	5	C2H29NO14+
335.1837	8	C19H27O5+
379.2097	1	C21H31O6+
423.237	1	C23H35O7+
