Mass spectrum: 7,7,9-trimethyl-4,13-dioxo-3,14-dioxa-5,12-diazahexadecane-1,16-diyl bis(2-methylacrylate); LC-ESI-QTOF; MS2; CE: 20eV; R=7000; [M+H]+
Name: 7,7,9-trimethyl-4,13-dioxo-3,14-dioxa-5,12-diazahexadecane-1,16-diyl bis(2-methylacrylate)
Name: Di-2-methacryloxyethyl 2,2,4-trimethylhexamethylenedicarbamate
Name: 2-[[3,5,5-trimethyl-6-[2-(2-methylprop-2-enoyloxy)ethoxycarbonylamino]hexyl]carbamoyloxy]ethyl 2-methylprop-2-enoate
Formula: C23H38N2O8
Exact mass: 470.2628
SMILES: CC(C(OCCOC(NCC(C)(C)CC(C)CCNC(OCCOC(C(C)=C)=O)=O)=O)=O)=C
InChI: InChI=1S/C23H38N2O8/c1-16(2)19(26)30-10-12-32-21(28)24-9-8-18(5)14-23(6,7)15-25-22(29)33-13-11-31-20(27)17(3)4/h18H,1,3,8-15H2,2,4-7H3,(H,24,28)(H,25,29)
Instrument: Agilent 6560 QTOF
Instrument type: LC-ESI-QTOF
Ms type: MS2
Ion mode: POSITIVE
Ionization: ESI
Fragmentation mode: CID
Collision energy: 20 eV
Resolution: 7000
Column name: ZORBAX Extend-C18 3.5um, 2.1x50mm, Agilent Technologies
Retention time: 3.479 min
Base peak: 113.0629
Precursor m/z: 471.2701
Precursor type: [M+H]+
Precursor intensity: 497733.47
m/z	relative intensity	assigned
69.0337	62	C4H5O+
88.0395	4	C3H6NO2+
111.0459	1	C6H7O2+
113.0601	999	C6H9O2+
113.0721	619	C5H9N2O+
131.0697	16	C6H11O3+
132.0721	1	CH12N2O5+
255.1697	39	C13H23N2O3+
385.232	27	C19H33N2O6+
386.2331	1	C23H32NO4+
