Mass spectrum: Butyryl trihexyl citrate; LC-ESI-QTOF; MS2; CE: 30eV; R=7000; [M+Na]+
Name: Butyryl trihexyl citrate
Name: trihexyl 2-butanoyloxypropane-1,2,3-tricarboxylate
Formula: C28H50O8
Exact mass: 514.3506
SMILES: CCCCCCOC(=O)CC(CC(=O)OCCCCCC)(C(=O)OCCCCCC)OC(=O)CCC
InChI: InChI=1S/C28H50O8/c1-5-9-12-15-19-33-25(30)22-28(36-24(29)18-8-4,27(32)35-21-17-14-11-7-3)23-26(31)34-20-16-13-10-6-2/h5-23H2,1-4H3
Instrument: Agilent 6560 QTOF
Instrument type: LC-ESI-QTOF
Ms type: MS2
Ion mode: POSITIVE
Ionization: ESI
Fragmentation mode: CID
Collision energy: 30 eV
Resolution: 7000
Retention time: 0.146 min
Base peak: 537.3425
Precursor m/z: 537.3398
Precursor type: [M+Na]+
Precursor intensity: 119965.77
m/z	relative intensity	assigned
129.0168	9	C3H6NaO4+
139.0015	12	C6H3O4+
147.0649	23	C6H11O4+
209.1157	7	C10H18NaO3+
235.0937	146	C11H16NaO4+
236.1017	10	C11H17NaO4+
253.1052	16	C11H18NaO5+
263.0846	19	C21H11+
281.0511	9	C18H10NaO2+
281.099	24	C12H18NaO6+
282.0543	8	C16H10O5+
299.11	15	C12H20NaO7+
321.2051	8	C19H29O4+
323.1854	15	C18H27O5+
337.1985	418	C17H30NaO5+
338.2025	50	C26H26+
365.1939	175	C18H30NaO6+
366.1975	26	C27H26O+
383.2042	207	C18H32NaO7+
384.21	24	C27H28O2+
449.288	999	C24H42NaO6+
450.2901	108	C24H43NaO6+
453.248	43	C24H37O8+
454.2476	14	C22H39NaO8+
467.2994	74	C26H43O7+
468.2975	10	C24H45NaO7+
537.3406	933	C28H50NaO8+
