Mass spectrum: Docosahexaenoic acid; LC-ESI-QTOF; MS2; CE: 10eV; R=7000; [M-H]-
Name: Docosahexaenoic acid
Name: (4Z,7Z,10Z,13Z,16Z,19Z)-docosa-4,7,10,13,16,19-hexaenoic acid
Formula: C22H32O2
Exact mass: 328.2402
SMILES: CC\C=C/C\C=C/C\C=C/C\C=C/C\C=C/C\C=C/CCC(O)=O
InChI: InChI=1S/C22H32O2/c1-2-3-4-5-6-7-8-9-10-11-12-13-14-15-16-17-18-19-20-21-22(23)24/h3-4,6-7,9-10,12-13,15-16,18-19H,2,5,8,11,14,17,20-21H2,1H3,(H,23,24)/b4-3-,7-6-,10-9-,13-12-,16-15-,19-18-
Instrument: Agilent 6560 QTOF
Instrument type: LC-ESI-QTOF
Ms type: MS2
Ion mode: NEGATIVE
Ionization: ESI
Fragmentation mode: CID
Collision energy: 10 eV
Resolution: 7000
Column name: N/A
Retention time: 0.191 min
Base peak: 357.1885
Precursor m/z: 327.233
Precursor type: [M-H]-
Precursor intensity: 43303
m/z	relative intensity	assigned
149.1318	106	C11H17-
175.1465	109	C13H19-
229.1912	88	C17H25-
283.2408	899	C21H31-
327.2296	999	C22H31O2-
