Mass spectrum: N-palmitoyl-D-erythro-sphinganine; LC-ESI-QTOF; MS2; CE: 10eV; R=7000; [M+CH3COO]-
Name: N-palmitoyl-D-erythro-sphinganine
Name: N-(hexadecanoyl)-sphinganine
Name: N-[(2S,3R)-1,3-dihydroxyoctadecan-2-yl]hexadecanamide
Formula: C34H69NO3
Exact mass: 539.5277
SMILES: CCCCCCCCCCCCCCC[C@H]([C@H](CO)NC(=O)CCCCCCCCCCCCCCC)O
InChI: InChI=1S/C34H69NO3/c1-3-5-7-9-11-13-15-17-19-21-23-25-27-29-33(37)32(31-36)35-34(38)30-28-26-24-22-20-18-16-14-12-10-8-6-4-2/h32-33,36-37H,3-31H2,1-2H3,(H,35,38)/t32-,33+/m0/s1
Instrument: Agilent 6560 QTOF
Instrument type: LC-ESI-QTOF
Ms type: MS2
Ion mode: NEGATIVE
Ionization: ESI
Fragmentation mode: CID
Collision energy: 10 eV
Resolution: 7000
Column name: N/A
Retention time: 0.141 min
Base peak: 598.5429
Precursor m/z: 598.5416
Precursor type: [M+CH3COO]-
Precursor intensity: 1252050
m/z	relative intensity	assigned
237.2236	6	C16H29O-
239.2388	2	C16H31O-
253.2512	1	C17H33O-
254.2496	1	C16H32NO-
255.2326	5	C16H31O2-
268.2634	2	C17H34NO-
280.2653	16	C18H34NO-
296.2593	3	C18H34NO2-
300.2862	1	C15H40O5-
368.0888	1	C23H14NO4-
381.0984	1	C24H15NO4-
490.4973	3	C30H66O4-
506.4963	2	C33H64NO2-
520.5083	1	C31H68O5-
521.5173	1	C34H67NO2-
538.5218	999	C34H68NO3-
539.5253	161	C34H69NO3-
598.5424	10	C36H72NO5-
