Mass spectrum: 2-Aminobenzothiazole; LC-ESI-QTOF; MS2; CE: 10eV; R=7000; [M+H]+
Name: 2-Aminobenzothiazole
Name: 1,3-benzothiazol-2-amine
Formula: C7H6N2S
Exact mass: 150.0252
SMILES: C1=CC=C2C(=C1)N=C(S2)N
InChI: InChI=1S/C7H6N2S/c8-7-9-5-3-1-2-4-6(5)10-7/h1-4H,(H2,8,9)
Instrument: Agilent 6560 QTOF
Instrument type: LC-ESI-QTOF
Ms type: MS2
Ion mode: POSITIVE
Ionization: ESI
Fragmentation mode: CID
Collision energy: 10 eV
Resolution: 7000
Retention time: 0.147 min
Base peak: 151.0326
Precursor m/z: 151.0324
Precursor type: [M+H]+
Precursor intensity: 369884.79
m/z	relative intensity	assigned
65.0382	7	C5H5+
80.0487	4	C5H6N+
91.0409	1	C6H5N+
92.0494	19	C6H6N+
97.0105	2	C5H5S+
109.0104	47	C6H5S+
118.0524	5	C7H6N2+
124.0213	46	C6H6NS+
151.032	999	C7H7N2S+
