Mass spectrum: Tri-m-tolyl phosphate; LC-ESI-QTOF; MS2; CE: 30eV; R=7000; [M+H]+
Name: Tri-m-tolyl phosphate
Name: Tri-M-cresyl phosphate
Name: tris(3-methylphenyl) phosphate
Formula: C21H21O4P
Exact mass: 368.1177
SMILES: CC1=CC(=CC=C1)OP(=O)(OC2=CC=CC(=C2)C)OC3=CC=CC(=C3)C
InChI: InChI=1S/C21H21O4P/c1-16-7-4-10-19(13-16)23-26(22,24-20-11-5-8-17(2)14-20)25-21-12-6-9-18(3)15-21/h4-15H,1-3H3
Instrument: Agilent 6560 QTOF
Instrument type: LC-ESI-QTOF
Ms type: MS2
Ion mode: POSITIVE
Ionization: ESI
Fragmentation mode: CID
Collision energy: 30 eV
Resolution: 7000
Retention time: 0.145 min
Base peak: 391.1083
Precursor m/z: 369.125
Precursor type: [M+H]+
Precursor intensity: 141900.77
m/z	relative intensity	assigned
65.0386	131	C5H5+
79.0535	38	C6H7+
91.0543	999	C7H7+
92.0599	40	H13O3P+
107.0494	61	C7H7O+
108.0556	9	H13O4P+
109.0657	11	C7H9O+
115.0545	10	C9H7+
141.0693	41	C11H9+
152.0619	16	C12H8+
153.0104	34	C7H6O2P+
153.0705	45	C12H9+
154.0757	7	C5H15O3P+
165.07	666	C13H9+
166.0772	838	C13H10+
167.0801	51	C6H16O3P+
169.0049	15	C7H6O3P+
177.0696	8	C14H9+
178.0765	49	C7H15O3P+
179.0842	97	C7H16O3P+
180.0901	32	C7H17O3P+
181.1017	92	C14H13+
182.071	9	C6H15O4P+
182.1083	18	C7H19O3P+
189.0306	50	C7H10O4P+
195.0792	18	C7H16O4P+
196.088	126	C14H12O+
197.0938	13	C7H18O4P+
199.1113	22	C14H15O+
200.1147	11	C7H21O4P+
215.0627	26	C13H12OP+
225.0458	11	C14H10OP+
239.0824	8	C12H16O3P+
240.0923	24	C19H12+
241.1015	69	C19H13+
243.0574	465	C14H12O2P+
244.0593	33	C14H13O2P+
246.0457	10	C20H6+
255.1182	39	C20H15+
256.1234	118	C13H21O3P+
257.1252	8	C13H22O3P+
261.0672	39	C14H14O3P+
271.1443	7	C21H19+
279.0789	188	C14H16O4P+
280.082	13	C14H17O4P+
369.1244	151	C21H22O4P+
