Mass spectrum: TYRAMINE; LC-ESI-QTOF; MS2; CE: 20eV; R=5000; [M+H]+
Name: TYRAMINE
Name: 4-(2-aminoethyl)phenol
Formula: C8H11NO
Exact mass: 137.0841
SMILES: NCCC1=CC=C(O)C=C1
InChI: InChI=1S/C8H11NO/c9-6-5-7-1-3-8(10)4-2-7/h1-4,10H,5-6,9H2
Instrument: Agilent 6530 QTOF
Instrument type: LC-ESI-QTOF
Ms type: MS2
Ion mode: POSITIVE
Ionization: ESI
Fragmentation mode: CID
Collision energy: 20 eV
Resolution: 5000
Column name: N/A
Retention time: 0.285 min
Base peak: 121.0652
Precursor m/z: 138.0913
Precursor type: [M+H]+
Precursor intensity: 1757530
m/z	relative intensity	assigned
41.0383	6	C3H5+
51.0228	88	C4H3+
53.0378	9	C4H5+
55.0185	17	C3H3O+
65.0379	47	C5H5+
66.0469	3	C5H6+
77.0377	999	C6H5+
78.0453	14	C6H6+
91.0526	366	C7H7+
93.068	231	C7H9+
94.0404	23	C6H6O+
95.0474	3	C6H7O+
102.0442	18	C8H6+
103.0526	395	C8H7+
119.0474	3	C8H7O+
121.0625	393	C8H9O+
