Mass spectrum: Myristoyl-L-carnitine; LC-ESI-QTOF; MS2; CE: 20eV; R=7000; [M+Na]+
Name: Myristoyl-L-carnitine
Name: Myristoylcarnitine
Name: 3-tetradecanoyloxy-4-(trimethylazaniumyl)butanoate
Formula: C21H41NO4
Exact mass: 371.3036
SMILES: O(C(CCCCCCCCCCCCC)=O)C(CC(=O)[O-])C[N+](C)(C)C
InChI: InChI=1S/C21H41NO4/c1-5-6-7-8-9-10-11-12-13-14-15-16-21(25)26-19(17-20(23)24)18-22(2,3)4/h19H,5-18H2,1-4H3
Instrument: Agilent 6560 QTOF
Instrument type: LC-ESI-QTOF
Ms type: MS2
Ion mode: POSITIVE
Ionization: ESI
Fragmentation mode: CID
Collision energy: 20 eV
Resolution: 7000
Column name: Direct injection
Retention time: 0.185 min
Base peak: 372.3125
Precursor m/z: 394.2928
Precursor type: [M+Na]+
Precursor intensity: 12577
m/z	relative intensity	assigned
100.1128	463	C6H14N+
107.011	280	C4H4NaO2+
125.0204	88	C4H6NaO3+
139.1091	51	C7H16NaO+
166.0842	312	C7H13NNaO2+
232.1215	118	C16H17Na+
293.1818	63	C20H23NO+
335.2204	999	C18H32NaO4+
336.2215	180	C19H30NO4+
377.2634	180	C21H38NaO4+
