Mass spectrum: Prostaglandin E1; LC-ESI-QTOF; MS2; CE: 40eV; R=7000; [M-H]-
Name: Prostaglandin E1
Name: Alprostadil
Name: 7-[(1R,2R,3R)-3-hydroxy-2-[(E,3S)-3-hydroxyoct-1-enyl]-5-oxocyclopentyl]heptanoic acid
Formula: C20H34O5
Exact mass: 354.2406
SMILES: CCCCC[C@@H](/C=C/[C@H]1[C@@H](CC(=O)[C@@H]1CCCCCCC(=O)O)O)O
InChI: InChI=1S/C20H34O5/c1-2-3-6-9-15(21)12-13-17-16(18(22)14-19(17)23)10-7-4-5-8-11-20(24)25/h12-13,15-17,19,21,23H,2-11,14H2,1H3,(H,24,25)/b13-12+/t15-,16+,17+,19+/m0/s1
Instrument: Agilent 6560 QTOF
Instrument type: LC-ESI-QTOF
Ms type: MS2
Ion mode: NEGATIVE
Ionization: ESI
Fragmentation mode: CID
Collision energy: 40 eV
Resolution: 7000
Column name: N/A
Retention time: 0.141 min
Base peak: 980.0164
Precursor m/z: 353.2333
Precursor type: [M-H]-
Precursor intensity: 31153
m/z	relative intensity	assigned
80.0261	354	C5H4O-
81.0343	464	C5H5O-
83.0499	194	C5H7O-
85.0666	172	C5H9O-
91.02	468	C6H3O-
91.0569	119	C7H7-
93.0351	531	C6H5O-
93.0722	42	C7H9-
95.0495	266	C6H7O-
106.0415	904	C7H6O-
107.0494	341	C7H7O-
109.0639	863	C7H9O-
113.0623	179	C6H9O2-
113.0971	587	C7H13O-
119.0492	474	C8H7O-
123.0813	354	C8H11O-
131.0506	748	C9H7O-
134.0722	288	C9H10O-
135.081	358	C9H11O-
146.0713	165	C10H10O-
147.1155	370	C11H15-
162.1044	160	C11H14O-
163.1109	999	C11H15O-
165.1244	160	C11H17O-
179.142	209	C12H19O-
183.0103	82	C11H3O3-
189.1262	193	C13H17O-
199.1143	114	C14H15O-
203.1406	112	C14H19O-
205.1564	88	C14H21O-
221.1896	254	C15H25O-
223.1331	274	C13H19O3-
223.1606	55	C10H23O5-
229.1961	319	C17H25-
243.1783	140	C17H23O-
