Mass spectrum: Butyryl trihexyl citrate; LC-ESI-QTOF; MS2; CE: 60eV; R=7000; [M+Na]+
Name: Butyryl trihexyl citrate
Name: trihexyl 2-butanoyloxypropane-1,2,3-tricarboxylate
Formula: C28H50O8
Exact mass: 514.3506
SMILES: CCCCCCOC(=O)CC(CC(=O)OCCCCCC)(C(=O)OCCCCCC)OC(=O)CCC
InChI: InChI=1S/C28H50O8/c1-5-9-12-15-19-33-25(30)22-28(36-24(29)18-8-4,27(32)35-21-17-14-11-7-3)23-26(31)34-20-16-13-10-6-2/h5-23H2,1-4H3
Instrument: Agilent 6560 QTOF
Instrument type: LC-ESI-QTOF
Ms type: MS2
Ion mode: POSITIVE
Ionization: ESI
Fragmentation mode: CID
Collision energy: 60 eV
Resolution: 7000
Retention time: 0.147 min
Base peak: 537.3414
Precursor m/z: 537.3398
Precursor type: [M+Na]+
Precursor intensity: 5122
m/z	relative intensity	assigned
111.0073	655	C5H3O3+
139.0022	572	C6H3O4+
147.0638	999	C4H12NaO4+
207.032	703	C10H7O5+
281.0502	551	C16H9O5+
