Mass spectrum: 2,2`-{Propane-2,2-diylbis[(4,1-phenylene)oxymethylene]}bis(oxirane); LC-ESI-QTOF; MS2; CE: 20eV; R=7000; [M+NH4]+
Name: 2,2`-{Propane-2,2-diylbis[(4,1-phenylene)oxymethylene]}bis(oxirane)
Name: Bisphenol A diglycidyl ether
Name: 2-[[4-[2-[4-(oxiran-2-ylmethoxy)phenyl]propan-2-yl]phenoxy]methyl]oxirane
Formula: C21H24O4
Exact mass: 340.1675
SMILES: CC(C)(C1=CC=C(C=C1)OCC2CO2)C3=CC=C(C=C3)OCC4CO4
InChI: InChI=1S/C21H24O4/c1-21(2,15-3-7-17(8-4-15)22-11-19-13-24-19)16-5-9-18(10-6-16)23-12-20-14-25-20/h3-10,19-20H,11-14H2,1-2H3
Instrument: Agilent 6560 QTOF
Instrument type: LC-ESI-QTOF
Ms type: MS2
Ion mode: POSITIVE
Ionization: ESI
Fragmentation mode: CID
Collision energy: 20 eV
Resolution: 7000
Column name: ZORBAX Extend-C18 3.5um, 2.1x50mm, Agilent Technologies
Retention time: 3.576 min
Base peak: 358.2011
Precursor m/z: 358.2013
Precursor type: [M+NH4]+
Precursor intensity: 89293.38
m/z	relative intensity	assigned
57.0346	31	C3H5O+
59.05	7	C3H7O+
91.0555	9	C7H7+
95.0493	5	C6H7O+
105.0698	16	C8H9+
107.0493	59	C7H7O+
107.0852	6	C8H11+
109.0655	7	C7H9O+
111.0427	5	C6H7O2+
117.0706	7	C9H9+
119.0869	9	C9H11+
131.085	6	C10H11+
132.0953	5	C10H12+
133.0993	15	C10H13+
135.0802	409	C9H11O+
145.0642	12	C10H9O+
147.0442	14	C9H7O2+
147.0786	9	C10H11O+
159.0819	9	C11H11O+
161.0954	272	C11H13O+
173.0931	22	C12H13O+
191.106	999	C12H15O2+
220.1226	9	C17H16+
222.1001	8	C16H14O+
249.1266	5	C18H17O+
252.1146	5	C17H16O2+
281.1539	8	C19H21O2+
