Mass spectrum: 3-Hydroxyphenyl diphenyl phosphate ; LC-ESI-QTOF; MS2; CE: 20eV; R=7000; [M+H]+
Name: 3-Hydroxyphenyl diphenyl phosphate 
Name: 3-(Diphenoxyphosphinyloxy)phenol
Name: (3-hydroxyphenyl) diphenyl phosphate
Formula: C18H15O5P
Exact mass: 342.0657
SMILES: C1=CC=C(C=C1)OP(=O)(OC2=CC=CC=C2)OC3=CC=CC(=C3)O
InChI: InChI=1S/C18H15O5P/c19-15-8-7-13-18(14-15)23-24(20,21-16-9-3-1-4-10-16)22-17-11-5-2-6-12-17/h1-14,19H
Instrument: Agilent 6560 QTOF
Instrument type: LC-ESI-QTOF
Ms type: MS2
Ion mode: POSITIVE
Ionization: ESI
Fragmentation mode: CID
Collision energy: 20 eV
Resolution: 7000
Retention time: 0.115 min
Base peak: 343.0731
Precursor m/z: 343.073
Precursor type: [M+H]+
Precursor intensity: 102629.87
m/z	relative intensity	assigned
65.0385	184	C5H5+
77.0387	116	C6H5+
93.0334	128	C6H5O+
111.0444	14	C6H7O2+
115.0514	14	C2H12O3P+
121.0279	11	C7H5O2+
127.0516	8	C3H12O3P+
141.0695	258	C11H9+
151.0526	22	C5H12O3P+
152.0623	65	C12H8+
153.0698	103	C12H9+
154.076	17	C5H15O3P+
157.0634	7	C4H14O4P+
168.0546	11	C5H13O4P+
169.0644	123	C12H9O+
171.0786	10	C5H16O4P+
175.0164	54	C6H8O4P+
184.051	14	C12H8O2+
185.0579	9	C5H14O5P+
187.074	31	C5H16O5P+
202.0764	47	C9H15O3P+
203.0249	14	C11H8O2P+
215.0251	91	C12H8O2P+
215.0863	18	C17H11+
216.0925	10	C17H12+
217.0992	10	C17H13+
226.0761	26	C11H15O3P+
227.0854	35	C18H11+
231.0202	219	C12H8O3P+
232.0248	13	C12H9O3P+
233.0362	79	C12H10O3P+
245.0964	15	C18H13O+
249.0315	150	C12H10O4P+
250.0375	13	C12H11O4P+
251.0467	265	C12H12O4P+
252.0488	16	C12H13O4P+
267.0417	87	C12H12O5P+
307.0533	18	C18H12O3P+
343.0733	999	C18H16O5P+
