Mass spectrum: N-oleoyl-D-erythro-sphingosine; LC-ESI-QTOF; MS2; CE: 40eV; R=7000; [M-H2O+H]+
Name: N-oleoyl-D-erythro-sphingosine
Name: N-(oleoyl)-ceramide
Name: (Z)-N-[(E,2S,3R)-1,3-dihydroxyoctadec-4-en-2-yl]octadec-9-enamide
Formula: C36H69NO3
Exact mass: 563.5277
SMILES: CCCCCCCCCCCCC/C=C/[C@H]([C@H](CO)NC(=O)CCCCCCC/C=C\CCCCCCCC)O
InChI: InChI=1S/C36H69NO3/c1-3-5-7-9-11-13-15-17-18-20-22-24-26-28-30-32-36(40)37-34(33-38)35(39)31-29-27-25-23-21-19-16-14-12-10-8-6-4-2/h17-18,29,31,34-35,38-39H,3-16,19-28,30,32-33H2,1-2H3,(H,37,40)/b18-17-,31-29+/t34-,35+/m0/s1
Instrument: Agilent 6560 QTOF
Instrument type: LC-ESI-QTOF
Ms type: MS2
Ion mode: POSITIVE
Ionization: ESI
Fragmentation mode: CID
Collision energy: 40 eV
Resolution: 7000
Column name: Direct injection
Retention time: 0.153 min
Base peak: 586.5187
Precursor m/z: 546.5245
Precursor type: [M-H2O+H]+
Precursor intensity: 98751
m/z	relative intensity	assigned
70.0641	14	C4H8N+
71.0852	17	C5H11+
79.0539	42	C6H7+
81.07	78	C6H9+
82.0649	157	C5H8N+
83.0863	11	C6H11+
84.0802	5	C5H10N+
86.0954	14	C5H12N+
91.054	7	C7H7+
93.0693	30	C7H9+
94.064	10	C6H8N+
95.0847	54	C7H11+
96.08	99	C6H10N+
107.0846	10	C8H11+
109.1001	22	C8H13+
119.0854	8	C9H11+
121.0985	15	C9H13+
123.0805	4	C8H11O+
123.116	9	C9H15+
135.1163	8	C10H15+
149.1318	14	C11H17+
163.1445	10	C12H19+
177.1665	14	C13H21+
184.2071	7	C12H26N+
211.2278	1	C14H29N+
247.1678	10	C16H23O2+
247.2413	3	C18H31+
252.2693	63	C17H34N+
262.253	10	C18H32N+
263.2547	20	C18H33N+
264.2688	999	C18H34N+
265.2725	102	C18H35N+
282.2802	71	C18H36NO+
283.2849	12	C18H37NO+
294.2174	6	C21H28N+
319.0505	5	C26H7+
