Mass spectrum: Mono-2-(propyl-6-oxoheptyl)-phthalate; LC-ESI-QTOF; MS2; CE: 15eV; R=7000; [M-H]-
Name: Mono-2-(propyl-6-oxoheptyl)-phthalate
Name: 2-(((6-Oxo-2-propylheptyl)oxy)carbonyl)benzoic Acid
Name: 2-(6-oxo-2-propylheptoxy)carbonylbenzoic acid
Formula: C18H24O5
Exact mass: 320.1624
SMILES: CCCC(CCCC(C)=O)COC(=O)c1ccccc1C(=O)O
InChI: InChI=1S/C18H24O5/c1-3-7-14(9-6-8-13(2)19)12-23-18(22)16-11-5-4-10-15(16)17(20)21/h4-5,10-11,14H,3,6-9,12H2,1-2H3,(H,20,21)
Instrument: Agilent 6560 QTOF
Instrument type: LC-ESI-QTOF
Ms type: MS2
Ion mode: NEGATIVE
Ionization: ESI
Fragmentation mode: CID
Collision energy: 15 eV
Resolution: 7000
Column name: ZORBAX Extend-C18 3.5um, 2.1x50mm, Agilent Technologies
Retention time: 3.945 min
Base peak: 319.1561
Precursor m/z: 319.1551
Precursor type: [M-H]-
Precursor intensity: 168103.37
m/z	relative intensity	assigned
57.0345	54	C3H5O-
71.0494	6	C4H7O-
75.0229	2	C6H3-
77.0397	266	C6H5-
85.0662	15	C5H9O-
99.0818	9	C6H11O-
119.0505	32	C8H7O-
121.0298	999	C7H5O2-
125.0978	9	C8H13O-
127.1129	45	C8H15O-
134.0395	9	C8H6O2-
137.0995	2	C9H13O-
141.129	36	C9H17O-
147.0093	16	C8H3O3-
151.1121	13	C10H15O-
153.1283	9	C10H17O-
155.109	3	C9H15O2-
167.1097	5	C10H15O2-
169.1231	7	C10H17O2-
171.1394	220	C10H19O2-
233.1543	6	C15H21O2-
319.155	15	C18H23O5-
