Mass spectrum: Docosahexaenoic acid; LC-ESI-QTOF; MS2; CE: 40eV; R=7000; [M-H]-
Name: Docosahexaenoic acid
Name: (4Z,7Z,10Z,13Z,16Z,19Z)-docosa-4,7,10,13,16,19-hexaenoic acid
Formula: C22H32O2
Exact mass: 328.2402
SMILES: CC\C=C/C\C=C/C\C=C/C\C=C/C\C=C/C\C=C/CCC(O)=O
InChI: InChI=1S/C22H32O2/c1-2-3-4-5-6-7-8-9-10-11-12-13-14-15-16-17-18-19-20-21-22(23)24/h3-4,6-7,9-10,12-13,15-16,18-19H,2,5,8,11,14,17,20-21H2,1H3,(H,23,24)/b4-3-,7-6-,10-9-,13-12-,16-15-,19-18-
Instrument: Agilent 6560 QTOF
Instrument type: LC-ESI-QTOF
Ms type: MS2
Ion mode: NEGATIVE
Ionization: ESI
Fragmentation mode: CID
Collision energy: 40 eV
Resolution: 7000
Column name: N/A
Retention time: 0.191 min
Base peak: 357.1893
Precursor m/z: 327.233
Precursor type: [M-H]-
Precursor intensity: 538934
m/z	relative intensity	assigned
71.2016	189	CH27O2-
72.0569	189	C4H8O-
73.0666	176	C4H9O-
75.2136	167	C4H27-
76.0515	259	C3H8O2-
83.0144	219	C4H3O2-
88.0336	239	C7H4-
92.1567	189	C6H20-
94.0042	167	C5H2O2-
94.1952	235	C3H26O2-
99.1751	162	C5H23O-
100.0311	178	C8H4-
104.028	193	C7H4O-
108.1181	204	C5H16O2-
115.0525	213	C9H7-
117.2204	193	C6H29O-
120.1854	393	C8H24-
122.0719	162	C8H10O-
122.1079	203	C9H14-
123.9931	203	C9O-
134.2022	189	C9H26-
135.0269	265	C11H3-
135.0826	189	C9H11O-
135.9962	229	C10O-
138.1626	220	C7H22O2-
140.1551	257	C10H20-
140.1776	259	C7H24O2-
143.1077	230	C8H15O2-
147.2337	203	C7H31O2-
156.1507	217	C10H20O-
158.1334	214	C9H18O2-
159.1382	176	C9H19O2-
165.0718	176	C13H9-
175.244	162	C12H31-
177.0706	176	C14H9-
177.1658	164	C13H21-
185.0038	999	C14HO-
185.2273	273	C13H29-
186.2024	162	C12H26O-
187.1534	217	C14H19-
201.0335	193	C15H5O-
202.174	208	C15H22-
202.1951	201	C12H26O2-
214.0068	284	C15H2O2-
215.1486	193	C15H19O-
217.1036	176	C17H13-
219.0803	167	C16H11O-
221.094	189	C16H13O-
227.0884	214	C18H11-
227.1832	259	C17H23-
230.2051	164	C17H26-
232.0355	162	C19H4-
234.2398	190	C17H30-
241.1941	189	C18H25-
244.1878	203	C17H24O-
246.202	201	C17H26O-
247.2042	176	C17H27O-
248.155	244	C19H20-
249.2253	162	C17H29O-
251.0862	217	C20H11-
262.1788	162	C20H22-
263.0916	205	C21H11-
265.1981	162	C20H25-
266.0137	162	C22H2-
267.211	176	C20H27-
268.0322	189	C22H4-
268.2207	214	C20H28-
273.0773	193	C22H9-
275.1775	178	C21H23-
276.1119	224	C19H16O2-
287.2079	233	C19H27O2-
291.176	189	C21H23O-
292.219	208	C22H28-
298.0086	201	C22H2O2-
303.1698	284	C22H23O-
304.0539	311	C22H8O2-
306.0729	217	C22H10O2-
314.1347	201	C22H18O2-
324.2061	189	C22H28O2-
327.2394	217	C22H31O2-
