Mass spectrum: 1METHYLADENOSINE; LC-ESI-QTOF; MS2; CE: 40eV; R=5000; [M+H]+
Name: 1METHYLADENOSINE
Name: 1-Methyladenosine
Name: (2R,3S,4R,5R)-2-(hydroxymethyl)-5-(6-imino-1-methylpurin-9-yl)oxolane-3,4-diol
Formula: C11H15N5O4
Exact mass: 281.1124
SMILES: CN1C=NC2=C(N=CN2[C@@H]2O[C@H](CO)[C@@H](O)[C@H]2O)C1=N
InChI: InChI=1S/C11H15N5O4/c1-15-3-14-10-6(9(15)12)13-4-16(10)11-8(19)7(18)5(2-17)20-11/h3-5,7-8,11-12,17-19H,2H2,1H3/t5-,7-,8-,11-/m1/s1
Instrument: Agilent 6530 QTOF
Instrument type: LC-ESI-QTOF
Ms type: MS2
Ion mode: POSITIVE
Ionization: ESI
Fragmentation mode: CID
Collision energy: 40 eV
Resolution: 5000
Column name: N/A
Retention time: 0.564 min
Base peak: 121.0508
Precursor m/z: 282.1197
Precursor type: [M+H]+
Precursor intensity: 749188
m/z	relative intensity	assigned
40.0178	1	C2H2N+
41.0389	5	C3H5+
42.0344	5	C2H4N+
53.0134	1	C2HN2+
61.0281	8	C2H5O2+
65.0133	2	C3HN2+
67.0304	7	C3H3N2+
71.0128	12	C3H3O2+
73.0289	8	C3H5O2+
79.028	2	C4H3N2+
81.043	7	CH7NO3+
82.0397	29	C3H4N3+
85.0275	10	C2H3N3O+
86.0965	2	C5H12N+
92.0239	12	C4H2N3+
94.0403	75	C4H4N3+
96.054	9	CH8N2O3+
104.0241	1	C5H2N3+
105.0383	1	CH5N4O2+
106.0385	11	C2H6N2O3+
108.0464	21	C6H6NO+
109.049	97	C3H9O4+
115.0318	1	C7H3N2+
119.0323	34	C2H5N3O3+
120.0591	2	C8H8O+
121.0482	7	C2H7N3O3+
123.0648	64	C4H11O4+
133.0499	97	C5H9O4+
134.0486	7	C7H6N2O+
135.0538	21	C5H5N5+
148.06	13	C5H10NO4+
150.0763	999	C5H12NO4+
151.9953	1	C4N4O3+
