Mass spectrum: 2(E)-octenoyl-L-carnitine; LC-ESI-QTOF; MS2; CE: 40eV; R=7000; [M+Na]+
Name: 2(E)-octenoyl-L-carnitine
Name: 3-oct-2-enoyloxy-4-(trimethylazaniumyl)butanoate
Formula: C15H27NO4
Exact mass: 285.1940
SMILES: CCCCCC=CC(=O)OC(CC(=O)[O-])C[N+](C)(C)C
InChI: InChI=1S/C15H27NO4/c1-5-6-7-8-9-10-15(19)20-13(11-14(17)18)12-16(2,3)4/h9-10,13H,5-8,11-12H2,1-4H3
Instrument: Agilent 6560 QTOF
Instrument type: LC-ESI-QTOF
Ms type: MS2
Ion mode: POSITIVE
Ionization: ESI
Fragmentation mode: CID
Collision energy: 40 eV
Resolution: 7000
Column name: Direct injection
Retention time: 0.183 min
Base peak: 286.202
Precursor m/z: 308.1832
Precursor type: [M+Na]+
Precursor intensity: 616
m/z	relative intensity	assigned
100.1113	999	C6H14N+
