Mass spectrum: RIBOFLAVIN; LC-ESI-QTOF; MS2; CE: 10eV; R=5000; [M+H]+
Name: RIBOFLAVIN
Name: 7,8-dimethyl-10-[(2S,3S,4R)-2,3,4,5-tetrahydroxypentyl]benzo[g]pteridine-2,4-dione
Formula: C17H20N4O6
Exact mass: 376.13828
SMILES: CC1=C(C)C=C2N(C[C@H](O)[C@H](O)[C@H](O)CO)C3=NC(=O)NC(=O)C3=NC2=C1
InChI: InChI=1S/C17H20N4O6/c1-7-3-9-10(4-8(7)2)21(5-11(23)14(25)12(24)6-22)15-13(18-9)16(26)20-17(27)19-15/h3-4,11-12,14,22-25H,5-6H2,1-2H3,(H,20,26,27)/t11-,12+,14-/m0/s1
Instrument: Agilent 6530 QTOF
Instrument type: LC-ESI-QTOF
Ms type: MS2
Ion mode: POSITIVE
Ionization: ESI
Fragmentation mode: CID
Collision energy: 10 eV
Resolution: 5000
Column name: N/A
Retention time: 0.217 min
Base peak: 121.0508
Precursor m/z: 377.1456
Precursor type: [M+H]+
Precursor intensity: 256141
m/z	relative intensity	assigned
69.034	24	C4H5O+
71.0121	7	C3H3O2+
75.0447	18	C3H7O2+
99.0448	16	C5H7O2+
117.0512	3	H9N2O5+
118.1239	2	C6H16NO+
126.0521	2	C3H10O5+
157.0592	6	C3H11NO6+
157.1488	1	H21N4O5+
164.1453	1	C11H18N+
170.0736	7	C12H10O+
170.1258	1	C5H18N2O4+
172.0858	32	C10H10N3+
173.1117	1	C4H17N2O5+
198.063	18	C8H10N2O4+
199.0878	3	C12H11N2O+
200.0869	13	C4H14N3O6+
205.1372	1	C5H21N2O6+
211.0829	11	C8H11N4O3+
218.0406	1	C6H8N3O6+
219.1231	2	C10H19O5+
228.0941	2	C9H14N3O4+
229.1012	28	C13H13N2O2+
237.9884	1	C11N3O4+
239.0997	2	C6H15N4O6+
241.1518	2	C7H21N4O5+
243.0924	482	C17H11N2+
244.0949	9	C12H12N4O2+
246.0184	1	C15H4NO3+
252.1161	4	C17H16O2+
255.0775	1	C14H11N2O3+
257.1162	2	C14H15N3O2+
272.1213	2	C11H18N3O5+
273.1185	3	C10H17N4O5+
274.1107	3	C15H16NO4+
282.0921	5	C17H14O4+
283.0939	5	C15H13N3O3+
286.1066	2	C14H14N4O3+
291.1135	2	C15H17NO5+
299.0973	7	C11H15N4O6+
300.0964	6	C15H14N3O4+
315.9684	1	C16N2O6+
316.1392	5	C12H20N4O6+
317.1266	10	C17H19NO5+
334.1432	7	C16H20N3O5+
337.059	1	C16H9N4O5+
360.1251	137	C17H18N3O6+
361.1274	2	C17H19N3O6+
377.1522	999	C17H21N4O6+
