Mass spectrum: Mono-isononyl-cyclohexane-1,2-dicarboxylate; LC-ESI-QTOF; MS2; CE: 25eV; R=7000; [M-H]-
Name: Mono-isononyl-cyclohexane-1,2-dicarboxylate
Name: (1S,2R)-2-(4-methyloctoxycarbonyl)cyclohexane-1-carboxylic acid
Formula: C17H30O4
Exact mass: 298.2144
SMILES: CCCCC(C)CCCOC(=O)[C@@H]1CCCC[C@@H]1C(=O)O
InChI: InChI=1S/C17H30O4/c1-3-4-8-13(2)9-7-12-21-17(20)15-11-6-5-10-14(15)16(18)19/h13-15H,3-12H2,1-2H3,(H,18,19)/t13?,14-,15+/m0/s1
Instrument: Agilent 6560 QTOF
Instrument type: LC-ESI-QTOF
Ms type: MS2
Ion mode: NEGATIVE
Ionization: ESI
Fragmentation mode: CID
Collision energy: 25 eV
Resolution: 7000
Column name: ZORBAX Extend-C18 3.5um, 2.1x50mm, Agilent Technologies
Retention time: 6.518 min
Base peak: 297.2083
Precursor m/z: 297.2071
Precursor type: [M-H]-
Precursor intensity: 44466.25
m/z	relative intensity	assigned
109.0663	999	C7H9O-
125.0613	94	C7H9O2-
141.1298	37	C9H17O-
153.0565	504	C8H9O3-
