Mass spectrum: Methandrostenolone; LC-ESI-QTOF; MS2; CE: 20eV; R=7000; [M-H2O+H]+
Name: Methandrostenolone
Name: (8R,9S,10R,13S,14S,17S)-17-hydroxy-10,13,17-trimethyl-7,8,9,11,12,14,15,16-octahydro-6H-cyclopenta[a]phenanthren-3-one
Formula: C20H28O2
Exact mass: 300.2089
SMILES: C[C@]12CC[C@H]3[C@H]([C@@H]1CC[C@]2(C)O)CCC4=CC(=O)C=C[C@]34C
InChI: InChI=1S/C20H28O2/c1-18-9-6-14(21)12-13(18)4-5-15-16(18)7-10-19(2)17(15)8-11-20(19,3)22/h6,9,12,15-17,22H,4-5,7-8,10-11H2,1-3H3/t15-,16+,17+,18+,19+,20+/m1/s1
Instrument: Agilent 6560 QTOF
Instrument type: LC-ESI-QTOF
Ms type: MS2
Ion mode: POSITIVE
Ionization: ESI
Fragmentation mode: CID
Collision energy: 20 eV
Resolution: 7000
Column name: Direct injection
Retention time: 0.182 min
Base peak: 301.2169
Precursor m/z: 283.2056
Precursor type: [M-H2O+H]+
Precursor intensity: 214209
m/z	relative intensity	assigned
77.0383	85	C6H5+
79.0549	58	C6H7+
81.0705	91	C6H9+
91.0538	130	C7H7+
93.0703	124	C7H9+
95.0854	85	C7H11+
97.1012	4	C7H13+
101.0371	4	C8H5+
103.0533	6	C8H7+
105.07	64	C8H9+
107.0853	170	C8H11+
109.1014	10	C8H13+
115.0524	15	C9H7+
119.0855	61	C9H11+
121.0648	999	C8H9O+
121.1013	92	C9H13+
123.1163	18	C9H15+
130.0757	11	C10H10+
131.0511	9	C9H7O+
131.0851	5	C10H11+
133.0633	2	C9H9O+
133.1006	11	C10H13+
135.0805	68	C9H11O+
135.117	15	C10H15+
141.0684	2	C11H9+
143.0864	13	C11H11+
145.064	14	C10H9O+
145.1016	8	C11H13+
146.0743	4	C10H10O+
147.0801	64	C10H11O+
147.1163	15	C11H15+
149.1323	198	C11H17+
150.1391	12	C11H18+
155.0831	10	C12H11+
157.1017	19	C12H13+
158.073	11	C11H10O+
159.0803	23	C11H11O+
161.0961	33	C11H13O+
161.131	21	C12H17+
162.1386	4	C12H18+
163.1111	9	C11H15O+
163.148	32	C12H19+
167.0839	4	C13H11+
171.0793	3	C12H11O+
173.0963	74	C12H13O+
175.1114	10	C12H15O+
175.151	7	C13H19+
185.0964	9	C13H13O+
187.1139	12	C13H15O+
188.1208	10	C13H16O+
189.1283	10	C13H17O+
198.1068	6	C14H14O+
199.1084	5	C14H15O+
212.1156	2	C15H16O+
227.1404	1	C16H19O+
255.1704	2	C18H23O+
283.2029	12	C20H27O+
