Mass spectrum: Triphenyl phosphate; LC-ESI-QTOF; MS2; CE: 55eV; R=7000; [M+H]+
Name: Triphenyl phosphate
Formula: C18H15O4P
Exact mass: 326.0708
SMILES: C1=CC=C(C=C1)OP(=O)(OC2=CC=CC=C2)OC3=CC=CC=C3
InChI: InChI=1S/C18H15O4P/c19-23(20-16-10-4-1-5-11-16,21-17-12-6-2-7-13-17)22-18-14-8-3-9-15-18/h1-15H
Instrument: Agilent 6560 QTOF
Instrument type: LC-ESI-QTOF
Ms type: MS2
Ion mode: POSITIVE
Ionization: ESI
Fragmentation mode: CID
Collision energy: 55 eV
Resolution: 7000
Retention time: 0.114 min
Base peak: 327.0783
Precursor m/z: 327.0781
Precursor type: [M+H]+
Precursor intensity: 47676.6
m/z	relative intensity	assigned
51.0232	307	C4H3+
77.0387	999	C6H5+
94.0413	17	C6H6O+
95.0485	37	C6H7O+
127.0549	49	C10H7+
138.9958	22	C6H4O2P+
141.0696	24	C11H9+
150.0474	14	C12H6+
151.0545	121	C12H7+
152.0617	638	C12H8+
153.0678	61	C5H14O3P+
168.0569	216	C12H8O+
169.0628	14	C5H14O4P+
187.0309	53	C11H8OP+
215.0255	58	C12H8O2P+
226.076	55	C11H15O3P+
227.0858	29	C18H11+
228.0938	23	C18H12+
