Mass spectrum: Triphenyl phosphate; LC-ESI-QTOF; MS2; CE: 10eV; R=7000; [M+H]+
Name: Triphenyl phosphate
Formula: C18H15O4P
Exact mass: 326.0708
SMILES: C1=CC=C(C=C1)OP(=O)(OC2=CC=CC=C2)OC3=CC=CC=C3
InChI: InChI=1S/C18H15O4P/c19-23(20-16-10-4-1-5-11-16,21-17-12-6-2-7-13-17)22-18-14-8-3-9-15-18/h1-15H
Instrument: Agilent 6560 QTOF
Instrument type: LC-ESI-QTOF
Ms type: MS2
Ion mode: POSITIVE
Ionization: ESI
Fragmentation mode: CID
Collision energy: 10 eV
Resolution: 7000
Retention time: 0.114 min
Base peak: 327.078
Precursor m/z: 327.0781
Precursor type: [M+H]+
Precursor intensity: 64438.35
m/z	relative intensity	assigned
77.039	18	C6H5+
152.0626	24	C12H8+
153.0701	22	C12H9+
171.0815	6	C12H11O+
202.0776	5	C16H10+
215.0268	18	C12H8O2P+
227.0832	9	C11H16O3P+
228.0948	10	C18H12+
229.1012	15	C18H13+
233.036	29	C12H10O3P+
251.0426	16	C12H12O4P+
252.0456	4	C15H8O4+
327.0779	999	C18H16O4P+
