Mass spectrum: Butyryl trihexyl citrate; LC-ESI-QTOF; MS2; CE: 10eV; R=7000; [M+H]+
Name: Butyryl trihexyl citrate
Name: trihexyl 2-butanoyloxypropane-1,2,3-tricarboxylate
Formula: C28H50O8
Exact mass: 514.3506
SMILES: CCCCCCOC(=O)CC(CC(=O)OCCCCCC)(C(=O)OCCCCCC)OC(=O)CCC
InChI: InChI=1S/C28H50O8/c1-5-9-12-15-19-33-25(30)22-28(36-24(29)18-8-4,27(32)35-21-17-14-11-7-3)23-26(31)34-20-16-13-10-6-2/h5-23H2,1-4H3
Instrument: Agilent 6560 QTOF
Instrument type: LC-ESI-QTOF
Ms type: MS2
Ion mode: POSITIVE
Ionization: ESI
Fragmentation mode: CID
Collision energy: 10 eV
Resolution: 7000
Retention time: 0.109 min
Base peak: 537.3394
Precursor m/z: 515.3578
Precursor type: [M+H]+
Precursor intensity: 134510.37
m/z	relative intensity	assigned
57.0706	52	C4H9+
71.0493	915	C4H7O+
85.1012	374	C6H13+
89.06	320	C4H9O2+
111.0076	144	C5H3O3+
129.0179	999	C5H5O4+
139.0023	528	C6H3O4+
147.0299	19	C5H7O5+
157.0125	896	C6H5O5+
158.0146	41	C13H2+
197.1211	13	C4H21O8+
213.1113	700	C11H17O4+
214.1149	74	C11H18O4+
241.1072	179	C12H17O5+
245.0654	434	C10H13O7+
315.2163	643	C17H31O5+
316.2191	56	C24H28+
325.2007	24	C18H29O5+
329.1583	264	C16H25O7+
330.1655	13	C16H26O7+
413.2519	175	C22H37O7+
414.256	24	C22H38O7+
445.3171	102	C24H45O7+
