Mass spectrum: Trimyristin; LC-ESI-QTOF; MS2; CE: 10eV; R=7000; [M+NH4]+
Name: Trimyristin
Name: 2,3-di(tetradecanoyloxy)propyl tetradecanoate
Formula: C45H86O6
Exact mass: 722.6424
SMILES: CCCCCCCCCCCCCC(=O)OCC(COC(=O)CCCCCCCCCCCCC)OC(=O)CCCCCCCCCCCCC
InChI: InChI=1S/C45H86O6/c1-4-7-10-13-16-19-22-25-28-31-34-37-43(46)49-40-42(51-45(48)39-36-33-30-27-24-21-18-15-12-9-6-3)41-50-44(47)38-35-32-29-26-23-20-17-14-11-8-5-2/h42H,4-41H2,1-3H3
Instrument: Agilent 6560 QTOF
Instrument type: LC-ESI-QTOF
Ms type: MS2
Ion mode: POSITIVE
Ionization: ESI
Fragmentation mode: CID
Collision energy: 10 eV
Resolution: 7000
Column name: Direct injection
Retention time: 0.325 min
Base peak: 647.4608
Precursor m/z: 740.6763
Precursor type: [M+NH4]+
Precursor intensity: 83835
m/z	relative intensity	assigned
71.0854	2	C5H11+
81.0712	4	C6H9+
85.0662	7	C5H9O+
95.0856	11	C7H11+
111.1158	5	C8H15+
137.1332	10	C10H17+
166.1581	3	C11H20N+
211.2041	10	C14H27O+
228.2296	7	C11H32O4+
422.3934	5	C31H50+
495.4416	999	C31H59O4+
496.4451	157	C31H60O4+
740.6783	189	C45H90NO6+
