Mass spectrum: N-ACETYLGALACTOSAMINE; LC-ESI-QTOF; MS2; CE: 10eV; R=5000; [M+H]+
Name: N-ACETYLGALACTOSAMINE
Name: N-Acetyl-beta-D-galactosamine
Name: N-[(2R,3R,4R,5R,6R)-2,4,5-trihydroxy-6-(hydroxymethyl)oxan-3-yl]acetamide
Formula: C8H15NO6
Exact mass: 221.0899
SMILES: CC(=O)N[C@H]1[C@H](O)O[C@H](CO)[C@H](O)[C@@H]1O
InChI: InChI=1S/C8H15NO6/c1-3(11)9-5-7(13)6(12)4(2-10)15-8(5)14/h4-8,10,12-14H,2H2,1H3,(H,9,11)/t4-,5-,6+,7-,8-/m1/s1
Instrument: Agilent 6530 QTOF
Instrument type: LC-ESI-QTOF
Ms type: MS2
Ion mode: POSITIVE
Ionization: ESI
Fragmentation mode: CID
Collision energy: 10 eV
Resolution: 5000
Column name: N/A
Retention time: 0.215 min
Base peak: 244.079
Precursor m/z: 222.0972
Precursor type: [M+H]+
Precursor intensity: 639347
m/z	relative intensity	assigned
41.0383	14	C3H5+
43.0183	62	C2H3O+
45.0331	8	C2H5O+
55.0531	16	C4H7+
56.0476	5	H8O3+
60.0454	234	C2H6NO+
67.0534	5	C5H7+
68.0497	34	C4H6N+
70.0651	44	C4H8N+
71.0495	8	C4H7O+
72.0439	26	C3H6NO+
74.0613	3	C3H8NO+
80.0493	51	C5H6N+
81.0341	76	C5H5O+
82.0626	16	C2H10O3+
84.0457	535	C4H6NO+
86.0579	7	CH10O4+
96.0455	374	C5H6NO+
98.0603	285	C5H8NO+
99.0426	49	C5H7O2+
100.0351	3	CH8O5+
103.0391	3	C4H7O3+
108.0459	69	C6H6NO+
109.0292	41	C6H5O2+
110.0594	18	C6H8NO+
116.0667	10	C2H12O5+
122.0601	8	C7H8NO+
124.0374	5	C3H8O5+
126.0559	999	C6H8NO2+
127.0397	111	C6H7O3+
128.0949	1	C3H14NO4+
138.0557	848	C7H8NO2+
139.9948	2	C5H2NO4+
140.0696	11	C7H10NO2+
144.066	937	C6H10NO3+
145.9852	3	C4H2O6+
146.1168	2	C7H16NO2+
147.0533	1	C5H9NO4+
148.1071	1	C7H16O3+
150.0497	1	C5H10O5+
156.0608	6	C4H12O6+
162.0738	23	C6H12NO4+
168.0664	201	C8H10NO3+
186.0762	566	C8H12NO4+
204.0877	370	C8H14NO5+
