Mass spectrum: Butyryl trihexyl citrate; LC-ESI-QTOF; MS2; CE: 40eV; R=7000; [M+Na]+
Name: Butyryl trihexyl citrate
Name: trihexyl 2-butanoyloxypropane-1,2,3-tricarboxylate
Formula: C28H50O8
Exact mass: 514.3506
SMILES: CCCCCCOC(=O)CC(CC(=O)OCCCCCC)(C(=O)OCCCCCC)OC(=O)CCC
InChI: InChI=1S/C28H50O8/c1-5-9-12-15-19-33-25(30)22-28(36-24(29)18-8-4,27(32)35-21-17-14-11-7-3)23-26(31)34-20-16-13-10-6-2/h5-23H2,1-4H3
Instrument: Agilent 6560 QTOF
Instrument type: LC-ESI-QTOF
Ms type: MS2
Ion mode: POSITIVE
Ionization: ESI
Fragmentation mode: CID
Collision energy: 40 eV
Resolution: 7000
Retention time: 0.147 min
Base peak: 537.3406
Precursor m/z: 537.3398
Precursor type: [M+Na]+
Precursor intensity: 13679.8
m/z	relative intensity	assigned
139.002	150	C6H3O4+
209.1154	73	C10H18NaO3+
235.0937	999	C11H16NaO4+
281.0538	124	C18H10NaO2+
281.2878	88	C10H42NaO6+
337.1971	684	C17H30NaO5+
365.1918	291	C18H30NaO6+
383.2045	284	C18H32NaO7+
449.2874	550	C24H42NaO6+
467.2942	122	C24H44NaO7+
537.3405	192	C28H50NaO8+
