Mass spectrum: Di(2-ethylhexyl) adipate; LC-ESI-QTOF; MS2; CE: 10eV; R=7000; [M+H]+
Name: Di(2-ethylhexyl) adipate
Name: Bis(2-ethylhexyl) adipate
Name: bis(2-ethylhexyl) hexanedioate
Formula: C22H42O4
Exact mass: 370.3083
SMILES: CCCCC(CC)COC(=O)CCCCC(=O)OCC(CC)CCCC
InChI: InChI=1S/C22H42O4/c1-5-9-13-19(7-3)17-25-21(23)15-11-12-16-22(24)26-18-20(8-4)14-10-6-2/h19-20H,5-18H2,1-4H3
Instrument: Agilent 6560 QTOF
Instrument type: LC-ESI-QTOF
Ms type: MS2
Ion mode: POSITIVE
Ionization: ESI
Fragmentation mode: CID
Collision energy: 10 eV
Resolution: 7000
Retention time: 0.305 min
Base peak: 393.299
Precursor m/z: 371.3156
Precursor type: [M+H]+
Precursor intensity: 73651.91
m/z	relative intensity	assigned
55.0545	126	C4H7+
57.0701	170	C4H9+
71.0853	164	C5H11+
83.0492	93	C5H7O+
101.0596	426	C5H9O2+
111.0443	999	C6H7O2+
113.1175	8	C4H17O3+
129.0545	744	C6H9O3+
147.065	75	C6H11O4+
259.1903	9	C14H27O4+
