Mass spectrum: 1-octadecanoyl-sn-glycero-3-phosphocholine; LC-ESI-QTOF; MS2; CE: 40eV; R=7000; [M+H]+
Name: 1-octadecanoyl-sn-glycero-3-phosphocholine
Name: [(2R)-2-hydroxy-3-octadecanoyloxypropyl] 2-(trimethylazaniumyl)ethyl phosphate
Formula: C26H54NO7P
Exact mass: 523.3638
SMILES: CCCCCCCCCCCCCCCCCC(=O)OC[C@H](COP(=O)([O-])OCC[N+](C)(C)C)O
InChI: InChI=1S/C26H54NO7P/c1-5-6-7-8-9-10-11-12-13-14-15-16-17-18-19-20-26(29)32-23-25(28)24-34-35(30,31)33-22-21-27(2,3)4/h25,28H,5-24H2,1-4H3/t25-/m1/s1
Instrument: Agilent 6560 QTOF
Instrument type: LC-ESI-QTOF
Ms type: MS2
Ion mode: POSITIVE
Ionization: ESI
Fragmentation mode: CID
Collision energy: 40 eV
Resolution: 7000
Column name: Direct injection
Retention time: 0.157 min
Base peak: 524.3725
Precursor m/z: 524.3711
Precursor type: [M+H]+
Precursor intensity: 245542
m/z	relative intensity	assigned
71.0736	61	C4H9N+
81.069	12	C6H9+
83.0851	3	C6H11+
86.0966	716	C5H12N+
87.0996	16	C2H15O3+
89.0601	3	H12NO2P+
95.0859	9	C3H14NP+
97.0998	3	H18O3P+
98.9841	44	H4O4P+
103.0766	2	CH14NO2P+
104.1071	860	C5H14NO+
107.9697	4	CO6+
111.1156	5	C8H15+
123.0778	3	CH16O4P+
123.1128	5	C2H20O3P+
124.9997	420	C2H6O4P+
135.02	5	C4H8O3P+
155.0072	12	C2H5NO7+
163.0111	3	C4H5NO6+
166.0628	46	C5H13NO3P+
181.027	12	C5H10O5P+
184.0734	999	C5H15NO4P+
185.0773	14	C2H18O7P+
185.3125	1	C4H43NO5+
258.1123	6	C15H16NO3+
341.3032	11	C14H46O6P+
390.1832	3	C21H29NO4P+
453.1795	2	C25H27NO7+
506.3588	4	C26H53NO6P+
