Mass spectrum: 1,2-dioctanoyl-sn-glycerol; LC-ESI-QTOF; MS2; CE: 20eV; R=7000; [M+Na]+
Name: 1,2-dioctanoyl-sn-glycerol
Name: 1,2-Dioctanoylglycerol
Name: (3-hydroxy-2-octanoyloxypropyl) octanoate
Formula: C19H36O5
Exact mass: 344.2563
SMILES: CCCCCCCC(=O)OCC(CO)OC(=O)CCCCCCC
InChI: InChI=1S/C19H36O5/c1-3-5-7-9-11-13-18(21)23-16-17(15-20)24-19(22)14-12-10-8-6-4-2/h17,20H,3-16H2,1-2H3
Instrument: Agilent 6560 QTOF
Instrument type: LC-ESI-QTOF
Ms type: MS2
Ion mode: POSITIVE
Ionization: ESI
Fragmentation mode: CID
Collision energy: 20 eV
Resolution: 7000
Column name: Direct injection
Retention time: 0.157 min
Base peak: 367.247
Precursor m/z: 367.2455
Precursor type: [M+Na]+
Precursor intensity: 6683
m/z	relative intensity	assigned
103.0743	80	C5H11O2+
109.0999	125	C6H14Na+
127.1119	144	C8H15O+
201.1484	564	C11H21O3+
223.1322	50	C13H19O3+
367.2455	999	C19H36NaO5+
