Mass spectrum: 1-(9Z-octadecenoyl)-sn-glycero-3-phosphoserine; LC-ESI-QTOF; MS2; CE: 40eV; R=7000; [M-H]-
Name: 1-(9Z-octadecenoyl)-sn-glycero-3-phosphoserine
Name: (2S)-2-amino-3-[hydroxy-[(2R)-2-hydroxy-3-[(Z)-octadec-9-enoyl]oxypropoxy]phosphoryl]oxypropanoic acid
Formula: C24H46NO9P
Exact mass: 523.2910
SMILES: [H][C@@](O)(COC(=O)CCCCCCC\C=C/CCCCCCCC)COP(O)(=O)OC[C@]([H])(N)C(O)=O
InChI: InChI=1S/C24H46NO9P/c1-2-3-4-5-6-7-8-9-10-11-12-13-14-15-16-17-23(27)32-18-21(26)19-33-35(30,31)34-20-22(25)24(28)29/h9-10,21-22,26H,2-8,11-20,25H2,1H3,(H,28,29)(H,30,31)/b10-9-/t21-,22+/m1/s1
Instrument: Agilent 6560 QTOF
Instrument type: LC-ESI-QTOF
Ms type: MS2
Ion mode: NEGATIVE
Ionization: ESI
Fragmentation mode: CID
Collision energy: 40 eV
Resolution: 7000
Column name: N/A
Retention time: 0.170 min
Base peak: 980.0164
Precursor m/z: 522.2837
Precursor type: [M-H]-
Precursor intensity: 53748
m/z	relative intensity	assigned
77.1094	5	CH18OP-
78.9595	666	O3P-
96.9688	70	H2O4P-
97.0136	3	CH5O5-
150.978	29	C3H4O5P-
152.9958	999	C3H6O5P-
153.9979	26	C10H3P-
173.9944	7	C2H7O7P-
281.2524	74	C11H37O7-
281.3112	5	C9H45O8-
282.2481	5	C18H35P-
293.2903	29	C13H41O6-
293.3064	13	C13H44NO3P-
462.126	4	C22H25NO8P-
