Mass spectrum: 2-(Methylthio)benzothiazole; LC-ESI-QTOF; MS2; CE: 60eV; R=7000; [M+H]+
Name: 2-(Methylthio)benzothiazole
Name: 2-methylsulfanyl-1,3-benzothiazole
Formula: C8H7NS2
Exact mass: 181.002
SMILES: CSC1=NC2=CC=CC=C2S1
InChI: InChI=1S/C8H7NS2/c1-10-8-9-6-4-2-3-5-7(6)11-8/h2-5H,1H3
Instrument: Agilent 6560 QTOF
Instrument type: LC-ESI-QTOF
Ms type: MS2
Ion mode: POSITIVE
Ionization: ESI
Fragmentation mode: CID
Collision energy: 60 eV
Resolution: 7000
Column name: ZORBAX Extend-C18 3.5um, 2.1x50mm, Agilent Technologies
Retention time: 5.560 min
Base peak: 182.0093
Precursor m/z: 182.0093
Precursor type: [M+H]+
Precursor intensity: 17469.77
m/z	relative intensity	assigned
51.023	63	C4H3+
57.9874	66	C2H2S+
63.023	131	C5H3+
63.9446	86	S2+
64.0307	119	C5H4+
65.0391	999	C5H5+
68.9795	265	C3HS+
69.9875	159	C3H2S+
76.0311	127	C6H4+
77.0387	206	C6H5+
79.0426	90	C5H5N+
81.9871	132	C4H2S+
91.0423	137	C6H5N+
92.9794	82	C5HS+
94.995	162	C5H3S+
96.0034	243	C5H4S+
101.9478	73	C2NS2+
108.0027	208	C6H4S+
109.0109	353	C6H5S+
122.0062	81	C6H4NS+
123.0129	70	C6H5NS+
135.0131	113	C7H5NS+
