Mass spectrum: PUTRESCINE; LC-ESI-QTOF; MS2; CE: 10eV; R=5000; [M+H]+
Name: PUTRESCINE
Name: 1,4-Diaminobutane
Name: butane-1,4-diamine
Formula: C4H12N2
Exact mass: 88.10005
SMILES: NCCCCN
InChI: InChI=1S/C4H12N2/c5-3-1-2-4-6/h1-6H2
Instrument: Agilent 6530 QTOF
Instrument type: LC-ESI-QTOF
Ms type: MS2
Ion mode: POSITIVE
Ionization: ESI
Fragmentation mode: CID
Collision energy: 10 eV
Resolution: 5000
Column name: N/A
Retention time: 0.215 min
Base peak: 202.1805
Precursor m/z: 89.1073
Precursor type: [M+H]+
Precursor intensity: 478794
m/z	relative intensity	assigned
55.0552	11	C4H7+
72.081	999	C4H10N+
89.1066	15	C4H13N2+
