Mass spectrum: ASPARAGINE; LC-ESI-QTOF; MS2; CE: 20eV; R=5000; [M+H]+
Name: ASPARAGINE
Name: (2S)-2,4-diamino-4-oxobutanoic acid
Formula: C4H8N2O3
Exact mass: 132.0535
SMILES: N[C@@H](CC(N)=O)C(O)=O
InChI: InChI=1S/C4H8N2O3/c5-2(4(8)9)1-3(6)7/h2H,1,5H2,(H2,6,7)(H,8,9)/t2-/m0/s1
Instrument: Agilent 6530 QTOF
Instrument type: LC-ESI-QTOF
Ms type: MS2
Ion mode: POSITIVE
Ionization: ESI
Fragmentation mode: CID
Collision energy: 20 eV
Resolution: 5000
Column name: N/A
Retention time: 0.218 min
Base peak: 121.0508
Precursor m/z: 133.0608
Precursor type: [M+H]+
Precursor intensity: 62238
m/z	relative intensity	assigned
41.0392	8	C3H5+
43.018	209	C2H3O+
44.0135	26	CH2NO+
44.049	176	C2H6N+
46.0282	129	CH4NO+
70.0283	123	C3H4NO+
74.0232	999	C2H4NO2+
91.05	2	C2H7N2O2+
