Mass spectrum: DEOXYCARNITINE; LC-ESI-QTOF; MS2; CE: 40eV; R=5000; [M]+
Name: DEOXYCARNITINE
Name: 4-(Trimethylammonio)butanoate
Name: 4-(trimethylazaniumyl)butanoate
Formula: C7H15NO2
Exact mass: 145.1103
SMILES: C[N+](C)(CCCC([O-])=O)C
InChI: InChI=1S/C7H15NO2/c1-8(2,3)6-4-5-7(9)10/h4-6H2,1-3H3
Instrument: Agilent 6530 QTOF
Instrument type: LC-ESI-QTOF
Ms type: MS2
Ion mode: POSITIVE
Ionization: ESI
Fragmentation mode: CID
Collision energy: 40 eV
Resolution: 5000
Column name: N/A
Retention time: 0.393 min
Base peak: 146.1179
Precursor m/z: 145.1097
Precursor type: [M]+
Precursor intensity: 38941
m/z	relative intensity	assigned
42.034	250	C2H4N+
44.05	510	C2H6N+
44.9971	165	CHO2+
58.0652	999	C3H8N+
60.0818	124	C3H10N+
