Mass spectrum: 1-palmitoyl-2-oleoyl-sn-glycero-3-phosphoethanol; LC-ESI-QTOF; MS2; CE: 20eV; R=7000; [M-H]-
Name: 1-palmitoyl-2-oleoyl-sn-glycero-3-phosphoethanol
Formula: C39H75O8P
Exact mass: 702.5200
SMILES: O=C(O[C@@H](COP(O)(=O)OCC)COC(=O)CCCCCCCCCCCCCCC)CCCCCCC/C=C\CCCCCCCC
InChI: InChI=1S/C39H75O8P/c1-4-7-9-11-13-15-17-19-20-22-24-26-28-30-32-34-39(41)47-37(36-46-48(42,43)45-6-3)35-44-38(40)33-31-29-27-25-23-21-18-16-14-12-10-8-5-2/h19-20,37H,4-18,21-36H2,1-3H3,(H,42,43)/b20-19-/t37-/m1/s1
Instrument: Agilent 6560 QTOF
Instrument type: LC-ESI-QTOF
Ms type: MS2
Ion mode: NEGATIVE
Ionization: ESI
Fragmentation mode: CID
Collision energy: 20 eV
Resolution: 7000
Column name: N/A
Retention time: 0.174 min
Base peak: 701.514
Precursor m/z: 701.5127
Precursor type: [M-H]-
Precursor intensity: 1115240
m/z	relative intensity	assigned
78.9578	4	O3P-
118.0754	1	C2H15O3P-
125.0004	15	C2H6O4P-
152.9898	2	C10H2P-
180.0152	1	C12H5P-
181.0267	22	C5H10O5P-
199.0345	1	C12H8OP-
255.2337	354	C16H31O2-
256.2369	8	C9H37O5P-
257.2431	1	C16H34P-
279.2297	1	C11H36O5P-
279.4591	1	C17H59O-
280.2361	2	C11H37O5P-
281.2498	999	C18H33O2-
282.252	34	C11H39O5P-
282.3171	2	C9H46O8-
389.2509	1	C27H33O2-
391.2203	1	C26H32OP-
419.2578	12	C21H40O6P-
420.263	1	C21H41O6P-
437.2683	76	C21H42O7P-
438.2711	3	C28H39O2P-
445.2706	7	C23H42O6P-
463.2849	7	C30H39O4-
464.2826	1	C30H41O2P-
530.2771	1	C37H39OP-
636.4456	1	C37H65O6P-
673.5145	1	C38H74O7P-
701.513	428	C39H74O8P-
