Mass spectrum: BPS glucuronide; LC-ESI-QTOF; MS2; CE: 20eV; R=7000; [M-H]-
Name: BPS glucuronide
Formula: C18H18O10S
Exact mass: 426.0621
SMILES: C1=CC(=CC=C1O)S(=O)(=O)C2=CC=C(C=C2)O[C@H]3C(C([C@H](C(O3)C(=O)O)O)O)O
InChI: InChI=1S/C18H18O10S/c19-9-1-5-11(6-2-9)29(25,26)12-7-3-10(4-8-12)27-18-15(22)13(20)14(21)16(28-18)17(23)24/h1-8,13-16,18-22H,(H,23,24)/t13?,14-,15?,16?,18-/m1/s1
Instrument: Agilent 6560 QTOF
Instrument type: LC-ESI-QTOF
Ms type: MS2
Ion mode: NEGATIVE
Ionization: ESI
Fragmentation mode: CID
Collision energy: 20 eV
Resolution: 7000
Column name: ZORBAX Extend-C18 3.5um, 2.1x50mm, Agilent Technologies
Retention time: 1.190 min
Base peak: 980.0164
Precursor m/z: 425.0548
Precursor type: [M-H]-
Precursor intensity: 7642.77
m/z	relative intensity	assigned
71.0139	119	C3H3O2-
85.0306	215	C4H5O2-
99.0093	391	C4H3O3-
113.0242	727	C5H5O3-
249.0229	999	C12H9O4S-
425.0551	368	C18H17O10S-
