Mass spectrum: SELENOCYSTAMINE; LC-ESI-QTOF; MS2; CE: 40eV; R=5000; [M+H]+
Name: SELENOCYSTAMINE
Name: 2-(2-aminoethyldiselanyl)ethanamine
Formula: C4H12N2Se2
Exact mass: 247.9331
SMILES: C(C[Se][Se]CCN)N
InChI: InChI=1S/C4H12N2Se2/c5-1-3-7-8-4-2-6/h1-6H2
Instrument: Agilent 6530 QTOF
Instrument type: LC-ESI-QTOF
Ms type: MS2
Ion mode: POSITIVE
Ionization: ESI
Fragmentation mode: CID
Collision energy: 40 eV
Resolution: 5000
Column name: N/A
Retention time: 0.703 min
Base peak: 121.0508
Precursor m/z: 248.9404
Precursor type: [M+H]+
Precursor intensity: 13068
m/z	relative intensity	assigned
42.0331	580	C2H4N+
43.0409	199	C2H5N+
44.0491	999	C2H6N+
46.0515	20	CH6N2+
182.9049	55	H9NSe2+
