Mass spectrum: THYROTROPIN; LC-ESI-QTOF; MS2; CE: 10eV; R=5000; [M+H]+
Name: THYROTROPIN
Name: Thyrotropin releasing hormone
Name: N-[1-(2-carbamoylpyrrolidin-1-yl)-3-(1H-imidazol-5-yl)-1-oxopropan-2-yl]-5-oxopyrrolidine-2-carboxamide
Formula: C16H22N6O4
Exact mass: 362.1703
SMILES: C1CC(N(C1)C(=O)C(CC2=CN=CN2)NC(=O)C3CCC(=O)N3)C(=O)N
InChI: InChI=1S/C16H22N6O4/c17-14(24)12-2-1-5-22(12)16(26)11(6-9-7-18-8-19-9)21-15(25)10-3-4-13(23)20-10/h7-8,10-12H,1-6H2,(H2,17,24)(H,18,19)(H,20,23)(H,21,25)
Instrument: Agilent 6530 QTOF
Instrument type: LC-ESI-QTOF
Ms type: MS2
Ion mode: POSITIVE
Ionization: ESI
Fragmentation mode: CID
Collision energy: 10 eV
Resolution: 5000
Column name: N/A
Retention time: 0.181 min
Base peak: 363.1781
Precursor m/z: 363.1775
Precursor type: [M+H]+
Precursor intensity: 8038493
m/z	relative intensity	assigned
56.0492	3	C3H6N+
69.0423	1	H7NO3+
70.0644	129	C4H8N+
81.0429	3	CH7NO3+
82.052	1	C4H6N2+
83.0584	7	CH9NO3+
84.0436	11	C2H4N4+
86.059	1	C2H6N4+
93.0429	3	C2H7NO3+
95.0586	2	C2H9NO3+
110.0694	130	C2H10N2O3+
114.0532	2	C3H6N4O+
115.0847	609	C3H9N5+
116.1438	1	C7H18N+
122.069	1	C3H10N2O3+
138.0611	2	CH8N5O3+
148.084	4	C5H12N2O3+
166.0578	42	C2H8N5O4+
176.0789	89	C6H12N2O4+
177.0832	1	C4H11N5O3+
203.0893	1	C5H11N6O3+
204.0725	35	C5H10N5O4+
205.1009	2	C16H13+
217.1064	1	C8H15N3O4+
221.1	524	C5H13N6O4+
222.1011	7	C11H14N2O3+
231.0818	3	C6H11N6O4+
232.0676	1	C9H8N6O2+
234.1304	6	C8H18N4O4+
235.1136	2	C6H15N6O4+
249.0944	835	C11H13N4O3+
250.097	14	C15H12N3O+
252.1273	1	C16H16N2O+
262.1209	1	C16H14N4+
263.11	25	C12H15N4O3+
328.1322	1	C15H16N6O3+
345.1602	2	C16H21N6O3+
346.1434	23	C15H18N6O4+
347.1466	1	C15H19N6O4+
363.1719	999	C16H23N6O4+
