Mass spectrum: METHYLTHIOADENOSINE; LC-ESI-QTOF; MS2; CE: 20eV; R=5000; [M+H]+
Name: METHYLTHIOADENOSINE
Name: 5`-Deoxy-5`-methylthioadenosine
Name: (2R,3R,4S,5S)-2-(6-aminopurin-9-yl)-5-(methylsulfanylmethyl)oxolane-3,4-diol
Formula: C11H15N5O3S
Exact mass: 297.08956
SMILES: CSC[C@H]1O[C@H]([C@H](O)[C@@H]1O)N1C=NC2=C1N=CN=C2N
InChI: InChI=1S/C11H15N5O3S/c1-20-2-5-7(17)8(18)11(19-5)16-4-15-6-9(12)13-3-14-10(6)16/h3-5,7-8,11,17-18H,2H2,1H3,(H2,12,13,14)/t5-,7-,8-,11-/m1/s1
Instrument: Agilent 6530 QTOF
Instrument type: LC-ESI-QTOF
Ms type: MS2
Ion mode: POSITIVE
Ionization: ESI
Fragmentation mode: CID
Collision energy: 20 eV
Resolution: 5000
Column name: N/A
Retention time: 0.180 min
Base peak: 298.0958
Precursor m/z: 298.0968
Precursor type: [M+H]+
Precursor intensity: 2801793
m/z	relative intensity	assigned
41.0386	1	C3H5+
46.996	1	CH3S+
49.0109	2	CH5S+
55.0171	2	CHN3+
57.0336	2	C3H5O+
61.0102	114	C2H5S+
65.0144	1	C3HN2+
69.0329	6	C4H5O+
71.0103	1	CHN3O+
75.0252	48	C3H7S+
87.0326	1	C3H5NO2+
92.0229	3	CH4N2O3+
94.0385	4	CH6N2O3+
97.0267	37	C3H3N3O+
103.0179	11	C7H3O+
107.0128	2	C6H3O2+
115.0346	2	C4H7N2S+
119.0325	17	C2H5N3O3+
136.0593	999	C2H8N4O3+
145.0287	21	C9H5O2+
163.0389	9	C9H7O3+
238.0713	1	C9H12N5OS+
298.0932	9	C11H16N5O3S+
