Mass spectrum: Creatine standard; LC-ESI-QTOF; MS2; CE: 40eV; R=5000; [M+H]+
Name: Creatine standard
Name: Creatine
Name: 2-[carbamimidoyl(methyl)amino]acetic acid
Formula: C4H9N3O2
Exact mass: 131.0695
SMILES: CN(CC(=O)O)C(=N)N
InChI: InChI=1S/C4H9N3O2/c1-7(4(5)6)2-3(8)9/h2H2,1H3,(H3,5,6)(H,8,9)
Instrument: Agilent 6530 QTOF
Instrument type: LC-ESI-QTOF
Ms type: MS2
Ion mode: POSITIVE
Ionization: ESI
Fragmentation mode: CID
Collision energy: 40 eV
Resolution: 5000
Column name: N/A
Retention time: 0.181 min
Base peak: 114.0665
Precursor m/z: 132.0768
Precursor type: [M+H]+
Precursor intensity: 520480
m/z	relative intensity	assigned
41.0264	5	C2H3N+
42.0345	27	C2H4N+
43.0299	454	CH3N2+
44.0499	999	C2H6N+
45.0571	2	C2H7N+
55.0286	5	C2H3N2+
56.0357	3	C2H4N2+
57.046	15	C2H5N2+
58.0523	13	C2H6N2+
69.0447	9	C3H5N2+
72.0562	16	C2H6N3+
87.0772	3	C3H9N3+
