Mass spectrum: S-CARBOXYMETHYLCYSTEINE; LC-ESI-QTOF; MS2; CE: 10eV; R=5000; [M+H]+
Name: S-CARBOXYMETHYLCYSTEINE
Name: Rhinathiol
Name: 2-amino-3-(carboxymethylsulfanyl)propanoic acid
Formula: C5H9NO4S
Exact mass: 179.0252
SMILES: NC(CSCC(O)=O)C(O)=O
InChI: InChI=1S/C5H9NO4S/c6-3(5(9)10)1-11-2-4(7)8/h3H,1-2,6H2,(H,7,8)(H,9,10)
Instrument: Agilent 6530 QTOF
Instrument type: LC-ESI-QTOF
Ms type: MS2
Ion mode: POSITIVE
Ionization: ESI
Fragmentation mode: CID
Collision energy: 10 eV
Resolution: 5000
Column name: N/A
Retention time: 0.214 min
Base peak: 121.0508
Precursor m/z: 180.0325
Precursor type: [M+H]+
Precursor intensity: 206896
m/z	relative intensity	assigned
45.0331	12	C2H5O+
47.9988	1	C4+
58.9951	108	C2H3S+
61.0101	323	C2H5S+
73.0152	92	C2H3NO2+
74.0063	135	C2H4NS+
86.9883	139	C3H3OS+
88.0224	215	C3H6NS+
89.0047	999	C3H5OS+
91.9985	3	CH2NO4+
100.0513	2	C5H8O2+
101.0589	1	C5H9O2+
102.9826	82	C3H3O2S+
104.9994	54	C3H5O2S+
116.0143	60	CH8O4S+
116.9996	168	C4H5O2S+
118.0427	4	C5H10OS+
129.0076	2	CH7NO4S+
134.0253	168	C4H8NO2S+
162.0195	42	C5H8NO3S+
163.004	336	C5H7O4S+
164.0357	1	C5H10NO3S+
180.0307	179	C5H10NO4S+
