Mass spectrum: ((((((propane-2,2-diylbis(4,1-phenylene))bis(oxy))bis(ethane-2,1-diyl))bis(oxy))bis(ethane-2,1-diyl))bis(oxy))bis(ethane-2,1-diyl) bis(2-methylacrylate); LC-ESI-QTOF; MS2; CE: 10eV; R=7000; [M+NH4]+
Name: ((((((propane-2,2-diylbis(4,1-phenylene))bis(oxy))bis(ethane-2,1-diyl))bis(oxy))bis(ethane-2,1-diyl))bis(oxy))bis(ethane-2,1-diyl) bis(2-methylacrylate)
Name: 2-Propenoic acid, 2-methyl-, (1-methylethylidene)bis(4,1-phenyleneoxy-2,1-ethanediyloxy-2,1-ethanediyloxy-2,1-ethanediyl) ester
Name: 2-[2-[2-[4-[2-[4-[2-[2-[2-(2-methylprop-2-enoyloxy)ethoxy]ethoxy]ethoxy]phenyl]propan-2-yl]phenoxy]ethoxy]ethoxy]ethyl 2-methylprop-2-enoate
Formula: C35H48O10
Exact mass: 628.3247
SMILES: CC(C1=CC=C(OCCOCCOCCOC(C(C)=C)=O)C=C1)(C)C2=CC=C(OCCOCCOCCOC(C(C)=C)=O)C=C2
InChI: InChI=1S/C35H48O10/c1-27(2)33(36)44-25-21-40-17-15-38-19-23-42-31-11-7-29(8-12-31)35(5,6)30-9-13-32(14-10-30)43-24-20-39-16-18-41-22-26-45-34(37)28(3)4/h7-14H,1,3,15-26H2,2,4-6H3
Instrument: Agilent 6560 QTOF
Instrument type: LC-ESI-QTOF
Ms type: MS2
Ion mode: POSITIVE
Ionization: ESI
Fragmentation mode: CID
Collision energy: 10 eV
Resolution: 7000
Column name: ZORBAX Extend-C18 3.5um, 2.1x50mm, Agilent Technologies
Retention time: 4.212 min
Base peak: 646.3676
Precursor m/z: 646.3586
Precursor type: [M+NH4]+
Precursor intensity: 489647.39
m/z	relative intensity	assigned
69.0335	16	C4H5O+
89.0602	3	C4H9O2+
113.0602	999	C6H9O2+
121.0644	1	C8H9O+
135.0797	4	C9H11O+
157.0854	1	C8H13O3+
159.1156	1	C12H15+
161.0951	11	C11H13O+
162.0974	1	C3H16NO6+
201.1255	1	C14H17O+
205.1221	8	C13H17O2+
249.1491	1	C15H21O3+
291.1579	374	C17H23O4+
292.1609	25	C9H26NO9+
293.1763	1	C20H23NO+
319.1363	1	C24H17N+
335.1865	408	C19H27O5+
336.1878	40	C26H24+
379.211	142	C21H31O6+
380.2139	11	C28H28O+
455.2384	1	C34H31O+
629.3298	11	C35H49O10+
630.3377	1	C35H50O10+
646.3611	708	C35H52NO10+
