Mass spectrum: Bisphenol AP; LC-ESI-QTOF; MS2; CE: 20eV; R=7000; [M-H]-
Name: Bisphenol AP
Name: 4,4`-(1-Phenylethylidene)bisphenol
Name: 4-[1-(4-hydroxyphenyl)-1-phenylethyl]phenol
Formula: C20H18O2
Exact mass: 290.1307
SMILES: CC(C1=CC=CC=C1)(C2=CC=C(C=C2)O)C3=CC=C(C=C3)O
InChI: InChI=1S/C20H18O2/c1-20(15-5-3-2-4-6-15,16-7-11-18(21)12-8-16)17-9-13-19(22)14-10-17/h2-14,21-22H,1H3
Instrument: Agilent 6560 QTOF
Instrument type: LC-ESI-QTOF
Ms type: MS2
Ion mode: NEGATIVE
Ionization: ESI
Fragmentation mode: CID
Collision energy: 20 eV
Resolution: 7000
Retention time: 0.155 min
Base peak: 289.1239
Precursor m/z: 289.1234
Precursor type: [M-H]-
Precursor intensity: 14503.4
m/z	relative intensity	assigned
93.0355	44	C6H5O-
195.0824	225	C14H11O-
211.0761	175	C14H11O2-
273.0907	117	C19H13O2-
274.1003	999	C19H14O2-
275.1038	63	C19H15O2-
289.1231	164	C20H17O2-
