Mass spectrum: MEVALOLACTONE; LC-ESI-QTOF; MS2; CE: 40eV; R=5000; [M+H]+
Name: MEVALOLACTONE
Name: Mevalonolactone
Name: (4S)-4-hydroxy-4-methyloxan-2-one
Formula: C6H10O3
Exact mass: 130.06299
SMILES: C[C@]1(O)CCOC(=O)C1
InChI: InChI=1S/C6H10O3/c1-6(8)2-3-9-5(7)4-6/h8H,2-4H2,1H3/t6-/m0/s1
Instrument: Agilent 6530 QTOF
Instrument type: LC-ESI-QTOF
Ms type: MS2
Ion mode: POSITIVE
Ionization: ESI
Fragmentation mode: CID
Collision energy: 40 eV
Resolution: 5000
Column name: N/A
Retention time: 0.249 min
Base peak: 202.18
Precursor m/z: 131.0703
Precursor type: [M+H]+
Precursor intensity: 14984
m/z	relative intensity	assigned
43.0188	999	C2H3O+
65.0394	89	C5H5+
