Mass spectrum: N-Heptadecanoyl-D-erythro-Sphingosine; LC-ESI-QTOF; MS2; CE: 20eV; R=7000; [M+CH3COO]-
Name: N-Heptadecanoyl-D-erythro-Sphingosine
Name: N-Heptadecanoylsphingosine
Name: N-[(E,2S,3R)-1,3-dihydroxyoctadec-4-en-2-yl]heptadecanamide
Formula: C35H69NO3
Exact mass: 551.5277
SMILES: OC[C@H](NC(CCCCCCCCCCCCCCCC)=O)[C@H](O)/C=C/CCCCCCCCCCCCC
InChI: InChI=1S/C35H69NO3/c1-3-5-7-9-11-13-15-17-19-21-23-25-27-29-31-35(39)36-33(32-37)34(38)30-28-26-24-22-20-18-16-14-12-10-8-6-4-2/h28,30,33-34,37-38H,3-27,29,31-32H2,1-2H3,(H,36,39)/b30-28+/t33-,34+/m0/s1
Instrument: Agilent 6560 QTOF
Instrument type: LC-ESI-QTOF
Ms type: MS2
Ion mode: NEGATIVE
Ionization: ESI
Fragmentation mode: CID
Collision energy: 20 eV
Resolution: 7000
Column name: N/A
Retention time: 0.142 min
Base peak: 610.5436
Precursor m/z: 610.5416
Precursor type: [M+CH3COO]-
Precursor intensity: 456089
m/z	relative intensity	assigned
86.075	1	C5H10O-
95.0505	3	C6H7O-
111.4006	2	C5H51-
235.2064	3	C16H27O-
237.2227	49	C16H29O-
238.223	3	C15H28NO-
239.2401	4	C16H31O-
247.5002	1	C10H65NO3-
249.2175	1	C17H29O-
250.2522	6	C14H34O3-
251.1303	2	C17H17NO-
251.2385	45	C17H31O-
255.2336	10	C16H31O2-
260.1324	1	C15H18NO3-
263.2387	59	C18H31O-
268.2659	47	C17H34NO-
269.2491	41	C17H33O2-
278.2529	1	C18H32NO-
281.2487	5	C18H33O2-
285.4771	2	C12H63NO4-
294.2813	193	C19H36NO-
295.2844	20	C16H39O4-
295.5262	1	C19H67-
298.2751	7	C18H36NO2-
308.2572	1	C16H36O5-
309.2666	3	C19H35NO2-
310.2755	26	C19H36NO2-
311.282	1	C19H37NO2-
312.1661	1	C19H22NO3-
312.2883	1	C16H40O5-
381.5309	1	C18H71NO5-
491.4794	4	C33H63O2-
502.4051	1	C35H52NO-
502.5012	18	C34H64NO-
503.502	6	C31H67O4-
508.0008	1	C37H2NO3-
515.5106	1	C35H65NO-
518.4961	18	C34H64NO2-
519.4966	3	C31H67O5-
520.5113	48	C34H66NO2-
521.5195	10	C34H67NO2-
532.5087	5	C35H66NO2-
540.3581	1	C37H48O3-
547.2943	1	C37H39O4-
547.348	1	C35H47O5-
547.5314	1	C33H71O5-
550.5219	999	C35H68NO3-
551.5251	210	C35H69NO3-
