Mass spectrum: Mono(2-ethylhexyl) terephthalate; LC-ESI-QTOF; MS2; CE: 30eV; R=7000; [M-H]-
Name: Mono(2-ethylhexyl) terephthalate
Name: 4-(2-ethylhexoxycarbonyl)benzoic acid
Formula: C16H22O4
Exact mass: 278.1518
SMILES: CCCCC(CC)COC(=O)C1=CC=C(C=C1)C(=O)O
InChI: InChI=1S/C16H22O4/c1-3-5-6-12(4-2)11-20-16(19)14-9-7-13(8-10-14)15(17)18/h7-10,12H,3-6,11H2,1-2H3,(H,17,18)
Instrument: Agilent 6560 QTOF
Instrument type: LC-ESI-QTOF
Ms type: MS2
Ion mode: NEGATIVE
Ionization: ESI
Fragmentation mode: CID
Collision energy: 30 eV
Resolution: 7000
Retention time: 0.152 min
Base peak: 277.1471
Precursor m/z: 277.1445
Precursor type: [M-H]-
Precursor intensity: 161670.45
m/z	relative intensity	assigned
76.0328	999	C6H4-
120.0222	419	C7H4O2-
121.0312	5	C7H5O2-
233.1556	62	C15H21O2-
