Mass spectrum: Isodecyl diphenyl phosphate; LC-ESI-QTOF; MS2; CE: 40eV; R=7000; [M+H]+
Name: Isodecyl diphenyl phosphate
Name: 8-methylnonyl diphenyl phosphate
Formula: C22H31O4P
Exact mass: 390.1960
SMILES: CC(C)CCCCCCCOP(=O)(OC1=CC=CC=C1)OC2=CC=CC=C2
InChI: InChI=1S/C22H31O4P/c1-20(2)14-8-4-3-5-13-19-24-27(23,25-21-15-9-6-10-16-21)26-22-17-11-7-12-18-22/h6-7,9-12,15-18,20H,3-5,8,13-14,19H2,1-2H3
Instrument: Agilent 6560 QTOF
Instrument type: LC-ESI-QTOF
Ms type: MS2
Ion mode: POSITIVE
Ionization: ESI
Fragmentation mode: CID
Collision energy: 40 eV
Resolution: 7000
Retention time: 0.109 min
Base peak: 251.0463
Precursor m/z: 391.2033
Precursor type: [M+H]+
Precursor intensity: 61080.85
m/z	relative intensity	assigned
51.0232	100	C4H3+
57.0701	104	C4H9+
71.0864	26	C5H11+
77.0388	999	C6H5+
81.018	15	CH5O4+
95.0488	183	C6H7O+
129.0072	21	C5H6O2P+
151.0533	57	C12H7+
152.0615	274	C12H8+
153.0691	340	C12H9+
154.0726	19	C5H15O3P+
157.0056	33	C6H6O3P+
168.055	23	C5H13O4P+
171.0814	14	C12H11O+
175.0155	98	C6H8O4P+
215.0252	169	C12H8O2P+
216.0289	20	C12H9O2P+
233.0362	51	C12H10O3P+
251.0461	189	C12H12O4P+
252.0489	43	C12H13O4P+
