Mass spectrum: 1-octadecanoyl-sn-glycero-3-phosphocholine; LC-ESI-QTOF; MS2; CE: 10eV; R=7000; [M+H]+
Name: 1-octadecanoyl-sn-glycero-3-phosphocholine
Name: [(2R)-2-hydroxy-3-octadecanoyloxypropyl] 2-(trimethylazaniumyl)ethyl phosphate
Formula: C26H54NO7P
Exact mass: 523.3638
SMILES: CCCCCCCCCCCCCCCCCC(=O)OC[C@H](COP(=O)([O-])OCC[N+](C)(C)C)O
InChI: InChI=1S/C26H54NO7P/c1-5-6-7-8-9-10-11-12-13-14-15-16-17-18-19-20-26(29)32-23-25(28)24-34-35(30,31)33-22-21-27(2,3)4/h25,28H,5-24H2,1-4H3/t25-/m1/s1
Instrument: Agilent 6560 QTOF
Instrument type: LC-ESI-QTOF
Ms type: MS2
Ion mode: POSITIVE
Ionization: ESI
Fragmentation mode: CID
Collision energy: 10 eV
Resolution: 7000
Column name: Direct injection
Retention time: 0.153 min
Base peak: 524.373
Precursor m/z: 524.3711
Precursor type: [M+H]+
Precursor intensity: 315249
m/z	relative intensity	assigned
71.0732	6	C4H9N+
80.9729	3	H2O3P+
86.0957	28	C5H12N+
104.1073	300	C5H14NO+
124.9995	4	C2H6O4P+
157.0849	2	C8H13O3+
166.0601	2	C2H15O6P+
184.0735	309	C5H15NO4P+
185.076	8	C2H18O7P+
185.4135	1	C11H53+
258.1089	8	C12H18O6+
258.9594	3	C15O3P+
341.3036	7	C14H46O6P+
380.1601	3	C23H24O5+
405.3	3	C25H41O4+
478.2315	1	C25H37NO6P+
506.3609	65	C26H53NO6P+
507.3637	8	C26H54NO6P+
524.3725	999	C26H55NO7P+
