Mass spectrum: N-palmitoyl-D-erythro-sphinganine; LC-ESI-QTOF; MS2; CE: 40eV; R=7000; [M+CH3COO]-
Name: N-palmitoyl-D-erythro-sphinganine
Name: N-(hexadecanoyl)-sphinganine
Name: N-[(2S,3R)-1,3-dihydroxyoctadecan-2-yl]hexadecanamide
Formula: C34H69NO3
Exact mass: 539.5277
SMILES: CCCCCCCCCCCCCCC[C@H]([C@H](CO)NC(=O)CCCCCCCCCCCCCCC)O
InChI: InChI=1S/C34H69NO3/c1-3-5-7-9-11-13-15-17-19-21-23-25-27-29-33(37)32(31-36)35-34(38)30-28-26-24-22-20-18-16-14-12-10-8-6-4-2/h32-33,36-37H,3-31H2,1-2H3,(H,35,38)/t32-,33+/m0/s1
Instrument: Agilent 6560 QTOF
Instrument type: LC-ESI-QTOF
Ms type: MS2
Ion mode: NEGATIVE
Ionization: ESI
Fragmentation mode: CID
Collision energy: 40 eV
Resolution: 7000
Column name: N/A
Retention time: 0.143 min
Base peak: 598.5427
Precursor m/z: 598.5416
Precursor type: [M+CH3COO]-
Precursor intensity: 627208
m/z	relative intensity	assigned
76.1148	1	C4H14N-
95.0485	2	C6H7O-
103.3077	1	H41NO3-
132.0234	1	C8H4O2-
136.5009	1	C6H64-
160.0055	1	C8H2NO3-
187.5073	1	C6H67O3-
217.2022	1	C9H29O5-
225.2208	3	C15H29O-
235.3927	1	C14H51O-
236.1116	1	C16H14NO-
237.2226	328	C16H29O-
238.2247	34	C16H30O-
239.2384	187	C16H31O-
240.2402	23	C16H32O-
245.4434	1	C9H59NO4-
250.2539	3	C17H32N-
252.2691	14	C17H34N-
253.2542	62	C17H33O-
254.2495	92	C16H32NO-
255.2343	95	C16H31O2-
256.2352	8	C16H32O2-
262.2524	5	C15H34O3-
264.2639	1	C15H36O3-
265.2551	9	C18H33O-
265.3315	1	C13H45O4-
268.2643	45	C17H34NO-
269.2665	6	C14H37O4-
278.2474	7	C15H34O4-
278.3379	1	C14H46O4-
278.4317	1	C13H58O4-
278.5304	1	C15H68NO-
278.9998	1	C18HNO3-
279.1136	1	C14H17NO5-
279.2592	1	C18H33NO-
280.2653	999	C18H34NO-
281.2686	85	C15H37O4-
282.2803	2	C18H36NO-
284.4258	1	C18H54N-
295.2498	2	C15H35O5-
296.2591	117	C18H34NO2-
298.2753	11	C18H36NO2-
300.2901	10	C18H38NO2-
301.2947	2	C15H41O5-
322.2263	1	C23H30O-
372.2493	1	C27H32O-
380.0587	1	C23H10NO5-
449.4701	1	C31H61O-
461.477	1	C32H61O-
463.482	4	C31H61NO-
470.4652	1	C30H62O3-
474.3469	1	C33H46O2-
488.0987	1	C33H14NO4-
488.4813	2	C30H64O4-
490.5007	232	C33H64NO-
491.5049	40	C30H67O4-
492.1506	2	C34H22NO3-
502.503	2	C34H64NO-
506.4949	158	C33H64NO2-
507.4978	17	C30H67O5-
510.5499	1	C30H72NO4-
517.0224	1	C36H5O5-
538.5206	32	C34H68NO3-
539.5219	12	C34H69NO3-
