Mass spectrum: N-Heptadecanoyl-D-erythro-Sphingosine; LC-ESI-QTOF; MS2; CE: 10eV; R=7000; [M-H]-
Name: N-Heptadecanoyl-D-erythro-Sphingosine
Name: N-Heptadecanoylsphingosine
Name: N-[(E,2S,3R)-1,3-dihydroxyoctadec-4-en-2-yl]heptadecanamide
Formula: C35H69NO3
Exact mass: 551.5277
SMILES: OC[C@H](NC(CCCCCCCCCCCCCCCC)=O)[C@H](O)/C=C/CCCCCCCCCCCCC
InChI: InChI=1S/C35H69NO3/c1-3-5-7-9-11-13-15-17-19-21-23-25-27-29-31-35(39)36-33(32-37)34(38)30-28-26-24-22-20-18-16-14-12-10-8-6-4-2/h28,30,33-34,37-38H,3-27,29,31-32H2,1-2H3,(H,36,39)/b30-28+/t33-,34+/m0/s1
Instrument: Agilent 6560 QTOF
Instrument type: LC-ESI-QTOF
Ms type: MS2
Ion mode: NEGATIVE
Ionization: ESI
Fragmentation mode: CID
Collision energy: 10 eV
Resolution: 7000
Column name: N/A
Retention time: 0.148 min
Base peak: 610.5436
Precursor m/z: 550.5205
Precursor type: [M-H]-
Precursor intensity: 88645
m/z	relative intensity	assigned
136.3966	4	C6H50N-
172.503	4	C9H64-
209.2038	3	C10H27NO3-
236.0881	3	C16H12O2-
237.2193	16	C16H29O-
251.2368	11	C17H31O-
251.4283	2	C15H55O-
263.2353	9	C18H31O-
264.2445	5	C18H32O-
268.265	45	C17H34NO-
294.2791	75	C19H36NO-
295.283	11	C19H37NO-
298.2736	5	C18H36NO2-
310.2756	16	C19H36NO2-
327.3542	3	C21H45NO-
364.1117	2	C25H16O3-
364.4085	1	C26H52-
409.2766	4	C30H35N-
476.3472	5	C32H46NO2-
502.4979	10	C34H64NO-
518.4909	14	C34H64NO2-
520.5143	18	C34H66NO2-
533.518	2	C35H67NO2-
550.5219	999	C35H68NO3-
