Mass spectrum: Cholesteryl palmitate; LC-ESI-QTOF; MS2; CE: 20eV; R=7000; [M+Na]+
Name: Cholesteryl palmitate
Name: [(3S,8S,9S,10R,13R,14S,17R)-10,13-dimethyl-17-[(2R)-6-methylheptan-2-yl]-2,3,4,7,8,9,11,12,14,15,16,17-dodecahydro-1H-cyclopenta[a]phenanthren-3-yl] hexadecanoate
Formula: C43H76O2
Exact mass: 624.5845
SMILES: [H][C@@]1(CC[C@@]2([H])[C@]3([H])CC=C4C[C@H](CC[C@]4(C)[C@@]3([H])CC[C@]12C)OC(=O)CCCCCCCCCCCCCCC)[C@H](C)CCCC(C)C
InChI: InChI=1S/C43H76O2/c1-7-8-9-10-11-12-13-14-15-16-17-18-19-23-41(44)45-36-28-30-42(5)35(32-36)24-25-37-39-27-26-38(34(4)22-20-21-33(2)3)43(39,6)31-29-40(37)42/h24,33-34,36-40H,7-23,25-32H2,1-6H3/t34-,36+,37+,38-,39+,40+,42+,43-/m1/s1
Instrument: Agilent 6560 QTOF
Instrument type: LC-ESI-QTOF
Ms type: MS2
Ion mode: POSITIVE
Ionization: ESI
Fragmentation mode: CID
Collision energy: 20 eV
Resolution: 7000
Column name: Direct injection
Retention time: 0.886 min
Base peak: 256.9652
Precursor m/z: 647.5738
Precursor type: [M+Na]+
Precursor intensity: 8339
m/z	relative intensity	assigned
235.0485	830	C17H8Na+
279.2286	999	C16H32NaO2+
291.1148	675	C21H16Na+
347.1694	225	C25H24Na+
441.2859	497	C31H37O2+
647.5771	979	C43H76NaO2+
