Mass spectrum: Methandrostenolone; LC-ESI-QTOF; MS2; CE: 10eV; R=7000; [M+Na]+
Name: Methandrostenolone
Name: (8R,9S,10R,13S,14S,17S)-17-hydroxy-10,13,17-trimethyl-7,8,9,11,12,14,15,16-octahydro-6H-cyclopenta[a]phenanthren-3-one
Formula: C20H28O2
Exact mass: 300.2089
SMILES: C[C@]12CC[C@H]3[C@H]([C@@H]1CC[C@]2(C)O)CCC4=CC(=O)C=C[C@]34C
InChI: InChI=1S/C20H28O2/c1-18-9-6-14(21)12-13(18)4-5-15-16(18)7-10-19(2)17(15)8-11-20(19,3)22/h6,9,12,15-17,22H,4-5,7-8,10-11H2,1-3H3/t15-,16+,17+,18+,19+,20+/m1/s1
Instrument: Agilent 6560 QTOF
Instrument type: LC-ESI-QTOF
Ms type: MS2
Ion mode: POSITIVE
Ionization: ESI
Fragmentation mode: CID
Collision energy: 10 eV
Resolution: 7000
Column name: Direct injection
Retention time: 0.180 min
Base peak: 301.2172
Precursor m/z: 323.1982
Precursor type: [M+Na]+
Precursor intensity: 81098
m/z	relative intensity	assigned
219.0744	1	C14H12NaO+
323.199	999	C20H28NaO2+
