Mass spectrum: METHYLTHIOADENOSINE; LC-ESI-QTOF; MS2; CE: 10eV; R=5000; [M+H]+
Name: METHYLTHIOADENOSINE
Name: 5`-Deoxy-5`-methylthioadenosine
Name: (2R,3R,4S,5S)-2-(6-aminopurin-9-yl)-5-(methylsulfanylmethyl)oxolane-3,4-diol
Formula: C11H15N5O3S
Exact mass: 297.08956
SMILES: CSC[C@H]1O[C@H]([C@H](O)[C@@H]1O)N1C=NC2=C1N=CN=C2N
InChI: InChI=1S/C11H15N5O3S/c1-20-2-5-7(17)8(18)11(19-5)16-4-15-6-9(12)13-3-14-10(6)16/h3-5,7-8,11,17-18H,2H2,1H3,(H2,12,13,14)/t5-,7-,8-,11-/m1/s1
Instrument: Agilent 6530 QTOF
Instrument type: LC-ESI-QTOF
Ms type: MS2
Ion mode: POSITIVE
Ionization: ESI
Fragmentation mode: CID
Collision energy: 10 eV
Resolution: 5000
Column name: N/A
Retention time: 0.222 min
Base peak: 298.0973
Precursor m/z: 298.0968
Precursor type: [M+H]+
Precursor intensity: 6207245
m/z	relative intensity	assigned
46.9957	1	CH3S+
49.0101	1	CH5S+
55.0174	1	C3H3O+
57.0325	1	CH3N3+
61.0107	62	C2H5S+
65.0135	1	C3HN2+
69.0328	4	C4H5O+
71.0127	1	C3H3O2+
75.0262	21	C3H7S+
92.0222	1	CH4N2O3+
97.0271	33	C3H3N3O+
103.0204	11	C2H5N3S+
107.0131	1	C6H3O2+
115.0348	1	C4H7N2S+
119.0328	6	C2H5N3O3+
136.0599	999	C2H8N4O3+
145.0302	57	C4H7N3OS+
163.0397	37	C9H7O3+
238.0716	1	C9H12N5OS+
298.094	378	C11H16N5O3S+
