Mass spectrum: Prostaglandin E2; LC-ESI-QTOF; MS2; CE: 10eV; R=7000; [M-H]-
Name: Prostaglandin E2
Name: Dinoprostone
Name: (Z)-7-[(1R,2R,3R)-3-hydroxy-2-[(E,3S)-3-hydroxyoct-1-enyl]-5-oxocyclopentyl]hept-5-enoic acid
Formula: C20H32O5
Exact mass: 352.2250
SMILES: CCCCC[C@H](O)\C=C\[C@H]1[C@H](O)CC(=O)[C@@H]1C\C=C/CCCC(=O)O
InChI: InChI=1S/C20H32O5/c1-2-3-6-9-15(21)12-13-17-16(18(22)14-19(17)23)10-7-4-5-8-11-20(24)25/h4,7,12-13,15-17,19,21,23H,2-3,5-6,8-11,14H2,1H3,(H,24,25)/b7-4-,13-12+/t15-,16+,17+,19+/m0/s1
Instrument: Agilent 6560 QTOF
Instrument type: LC-ESI-QTOF
Ms type: MS2
Ion mode: NEGATIVE
Ionization: ESI
Fragmentation mode: CID
Collision energy: 10 eV
Resolution: 7000
Column name: N/A
Retention time: 0.167 min
Base peak: 351.2187
Precursor m/z: 351.2177
Precursor type: [M-H]-
Precursor intensity: 396540
m/z	relative intensity	assigned
81.0716	2	C6H9-
87.0438	2	C4H7O2-
91.2079	1	C4H27O-
95.0493	8	C6H7O-
101.042	1	C8H5-
107.0492	18	C7H7O-
109.0666	17	C7H9O-
113.0979	23	C7H13O-
113.1329	1	C8H17-
113.1746	1	C2H25O4-
121.0631	5	C8H9O-
125.0608	6	C7H9O2-
135.0807	24	C9H11O-
145.0625	3	C10H9O-
149.1345	11	C11H17-
151.1104	7	C10H15O-
158.0746	6	C11H10O-
159.0817	12	C11H11O-
161.0956	4	C11H13O-
163.113	31	C11H15O-
163.1498	7	C12H19-
170.0708	1	C12H10O-
171.1194	4	C13H15-
172.0867	4	C12H12O-
173.0972	20	C12H13O-
174.1047	8	C12H14O-
175.1126	68	C12H15O-
187.111	1	C13H15O-
188.1214	7	C13H16O-
189.1281	324	C13H17O-
190.1972	3	C11H26O2-
191.1422	11	C13H19O-
195.103	6	C11H15O3-
201.1308	3	C14H17O-
203.1066	8	C13H15O2-
204.1191	4	C13H16O2-
206.1324	25	C13H18O2-
206.186	2	C11H26O3-
207.1029	28	C12H15O3-
207.1407	3	C13H19O2-
208.108	1	C12H16O3-
209.1154	7	C12H17O3-
209.1541	2	C13H21O2-
213.129	2	C15H17O-
215.1395	4	C15H19O-
217.1219	10	C14H17O2-
217.1587	35	C15H21O-
218.1626	2	C15H22O-
219.0994	8	C13H15O3-
219.1363	5	C14H19O2-
221.1179	18	C13H17O3-
221.1589	5	C14H21O2-
229.1593	16	C16H21O-
231.0999	8	C14H15O3-
231.1422	2	C15H19O2-
233.1181	63	C14H17O3-
235.1349	39	C14H19O3-
235.1682	16	C15H23O2-
239.1636	3	C14H23O3-
243.1265	1	C12H19O5-
243.1719	7	C17H23O-
243.1962	2	C14H27O3-
256.181	5	C18H24O-
260.1804	2	C17H24O2-
264.1569	3	C19H20O-
269.1578	1	C18H21O2-
269.1889	1	C19H25O-
271.2069	999	C19H27O-
272.2094	89	C19H28O-
287.9883	2	C20O3-
289.2157	16	C19H29O2-
297.1889	2	C20H25O2-
303.0277	1	C18H7O5-
315.1969	460	C20H27O3-
316.2018	31	C20H28O3-
333.2075	352	C20H29O4-
334.2097	52	C20H30O4-
351.2099	2	C20H31O5-
