Mass spectrum: ((propane-2,2-diylbis(4,1-phenylene))bis(oxy))bis(propane-3,1-diyl) bis(2-methylacrylate); LC-ESI-QTOF; MS2; CE: 20eV; R=7000; [M+NH4]+
Name: ((propane-2,2-diylbis(4,1-phenylene))bis(oxy))bis(propane-3,1-diyl) bis(2-methylacrylate)
Name: (1-Methylethylidene)bis(4,1-phenyleneoxy-3,1-propanediyl) bismethacrylate
Name: 3-[4-[2-[4-[3-(2-methylprop-2-enoyloxy)propoxy]phenyl]propan-2-yl]phenoxy]propyl 2-methylprop-2-enoate
Formula: C29H36O6
Exact mass: 480.2512
SMILES: CC(C1=CC=C(OCCCOC(C(C)=C)=O)C=C1)(C)C2=CC=C(OCCCOC(C(C)=C)=O)C=C2
InChI: InChI=1S/C29H36O6/c1-21(2)27(30)34-19-7-17-32-25-13-9-23(10-14-25)29(5,6)24-11-15-26(16-12-24)33-18-8-20-35-28(31)22(3)4/h9-16H,1,3,7-8,17-20H2,2,4-6H3
Instrument: Agilent 6560 QTOF
Instrument type: LC-ESI-QTOF
Ms type: MS2
Ion mode: POSITIVE
Ionization: ESI
Fragmentation mode: CID
Collision energy: 20 eV
Resolution: 7000
Column name: ZORBAX Extend-C18 3.5um, 2.1x50mm, Agilent Technologies
Retention time: 5.101 min
Base peak: 498.2938
Precursor m/z: 498.285
Precursor type: [M+NH4]+
Precursor intensity: 899579.73
m/z	relative intensity	assigned
69.0341	84	C4H5O+
99.0433	1	C5H7O2+
127.0755	999	C7H11O2+
147.0809	2	C10H11O+
175.1111	57	C12H15O+
176.1142	3	C4H18NO6+
193.121	1	C12H17O2+
233.1174	2	C14H17O3+
261.148	44	C16H21O3+
262.15	3	C16H22O3+
