Mass spectrum: N-ACETYLALANINE; LC-ESI-QTOF; MS2; CE: 10eV; R=5000; [M+H]+
Name: N-ACETYLALANINE
Name: N-Acetyl-L-alanine
Name: (2S)-2-acetamidopropanoic acid
Formula: C5H9NO3
Exact mass: 131.0582
SMILES: C[C@H](NC(C)=O)C(O)=O
InChI: InChI=1S/C5H9NO3/c1-3(5(8)9)6-4(2)7/h3H,1-2H3,(H,6,7)(H,8,9)/t3-/m0/s1
Instrument: Agilent 6530 QTOF
Instrument type: LC-ESI-QTOF
Ms type: MS2
Ion mode: POSITIVE
Ionization: ESI
Fragmentation mode: CID
Collision energy: 10 eV
Resolution: 5000
Column name: N/A
Retention time: 0.215 min
Base peak: 922.0098
Precursor m/z: 132.0655
Precursor type: [M+H]+
Precursor intensity: 188575
m/z	relative intensity	assigned
43.0179	269	C2H3O+
44.0496	999	C2H6N+
55.0184	10	C3H3O+
62.0609	9	C2H8NO+
69.0687	5	C5H9+
86.0594	57	C4H8NO+
90.0543	457	C3H8NO2+
114.0551	13	C5H8NO2+
