Mass spectrum: 1,2-diheptadecanoyl-sn-glycero-3-phosphocholine; LC-ESI-QTOF; MS2; CE: 40eV; R=7000; [M+H]+
Name: 1,2-diheptadecanoyl-sn-glycero-3-phosphocholine
Name: [(2R)-2,3-di(heptadecanoyloxy)propyl] 2-(trimethylazaniumyl)ethyl phosphate
Formula: C42H84NO8P
Exact mass: 761.5935
SMILES: CCCCCCCCCCCCCCCCC(=O)OC[C@H](COP(=O)([O-])OCC[N+](C)(C)C)OC(=O)CCCCCCCCCCCCCCCC
InChI: InChI=1S/C42H84NO8P/c1-6-8-10-12-14-16-18-20-22-24-26-28-30-32-34-41(44)48-38-40(39-50-52(46,47)49-37-36-43(3,4)5)51-42(45)35-33-31-29-27-25-23-21-19-17-15-13-11-9-7-2/h40H,6-39H2,1-5H3/t40-/m1/s1
Instrument: Agilent 6560 QTOF
Instrument type: LC-ESI-QTOF
Ms type: MS2
Ion mode: POSITIVE
Ionization: ESI
Fragmentation mode: CID
Collision energy: 40 eV
Resolution: 7000
Column name: Direct injection
Retention time: 0.154 min
Base peak: 762.603
Precursor m/z: 762.6007
Precursor type: [M+H]+
Precursor intensity: 371195
m/z	relative intensity	assigned
71.0722	4	C4H9N+
71.0868	2	CH14NP+
73.051	2	C3H7NO+
86.0966	120	C5H12N+
89.0609	1	H12NO2P+
95.0843	3	H16O3P+
98.9839	4	H4O4P+
104.1067	7	C5H14NO+
105.1132	1	C2H17O4+
124.9997	70	C2H6O4P+
139.1495	1	C6H22NP+
166.064	6	C12H8N+
184.074	999	C5H15NO4P+
185.0756	18	C2H18O7P+
258.1071	1	C12H18O6+
292.2001	1	C11H33O6P+
328.2947	2	C13H45O6P+
492.3406	1	C32H47NOP+
493.3459	2	C36H45O+
