Mass spectrum: N-ACETYLPHENYLALANINE; LC-ESI-QTOF; MS2; CE: 40eV; R=5000; [M+H]+
Name: N-ACETYLPHENYLALANINE
Name: N-Acetyl-L-phenylalanine
Name: (2S)-2-acetamido-3-phenylpropanoic acid
Formula: C11H13NO3
Exact mass: 207.0895
SMILES: CC(=O)N[C@@H](CC1=CC=CC=C1)C(O)=O
InChI: InChI=1S/C11H13NO3/c1-8(13)12-10(11(14)15)7-9-5-3-2-4-6-9/h2-6,10H,7H2,1H3,(H,12,13)(H,14,15)/t10-/m0/s1
Instrument: Agilent 6530 QTOF
Instrument type: LC-ESI-QTOF
Ms type: MS2
Ion mode: POSITIVE
Ionization: ESI
Fragmentation mode: CID
Collision energy: 40 eV
Resolution: 5000
Column name: N/A
Retention time: 0.220 min
Base peak: 167.0385
Precursor m/z: 208.0968
Precursor type: [M+H]+
Precursor intensity: 271084
m/z	relative intensity	assigned
42.0342	46	C2H4N+
43.0187	88	C2H3O+
51.0228	71	C4H3+
65.0371	39	C5H5+
68.0504	20	C4H6N+
77.0372	558	C6H5+
79.053	105	C6H7+
80.048	19	C2H8O3+
91.0532	232	C7H7+
93.0691	75	C7H9+
98.0951	7	C3H14O3+
102.0446	33	C8H6+
103.0521	999	C8H7+
117.0439	3	C4H7NO3+
118.0627	37	C5H10O3+
119.0721	13	C8H9N+
120.0785	543	C5H12O3+
