Mass spectrum: Aldosterone; LC-ESI-QTOF; MS2; CE: 40eV; R=7000; [M-H]-
Name: Aldosterone
Name: (8S,9S,10R,11S,13R,14S,17S)-11-hydroxy-17-(2-hydroxyacetyl)-10-methyl-3-oxo-1,2,6,7,8,9,11,12,14,15,16,17-dodecahydrocyclopenta[a]phenanthrene-13-carbaldehyde
Formula: C21H28O5
Exact mass: 360.1937
SMILES: C[C@]12CCC(=O)C=C1CC[C@@H]3[C@@H]2[C@H](C[C@]4([C@H]3CC[C@@H]4C(=O)CO)C=O)O
InChI: InChI=1S/C21H28O5/c1-20-7-6-13(24)8-12(20)2-3-14-15-4-5-16(18(26)10-22)21(15,11-23)9-17(25)19(14)20/h8,11,14-17,19,22,25H,2-7,9-10H2,1H3/t14-,15-,16+,17-,19+,20-,21+/m0/s1
Instrument: Agilent 6560 QTOF
Instrument type: LC-ESI-QTOF
Ms type: MS2
Ion mode: NEGATIVE
Ionization: ESI
Fragmentation mode: CID
Collision energy: 40 eV
Resolution: 7000
Column name: N/A
Retention time: 0.167 min
Base peak: 223.0283
Precursor m/z: 359.1864
Precursor type: [M-H]-
Precursor intensity: 53713
m/z	relative intensity	assigned
93.0718	268	C7H9-
93.1128	20	CH17O4-
95.0516	127	C6H7O-
97.0638	33	C6H9O-
99.0439	77	C5H7O2-
107.05	102	C7H7O-
123.0801	971	C8H11O-
125.0597	146	C7H9O2-
135.0812	773	C9H11O-
137.0977	219	C9H13O-
145.0668	171	C10H9O-
161.0958	172	C11H13O-
161.1417	26	C5H21O5-
163.1098	171	C11H15O-
173.06	692	C11H9O2-
173.0962	211	C12H13O-
174.0679	999	C11H10O2-
175.0772	245	C11H11O2-
187.1114	307	C13H15O-
188.1165	114	C13H16O-
189.088	257	C12H13O2-
189.1295	119	C13H17O-
201.126	119	C14H17O-
210.0998	84	C15H14O-
211.1076	52	C15H15O-
217.1639	16	C15H21O-
219.0828	142	C16H11O-
220.1371	23	C10H20O5-
221.1537	48	C14H21O2-
227.1434	376	C16H19O-
229.1586	178	C16H21O-
239.1413	72	C17H19O-
245.1567	142	C16H21O2-
253.1546	262	C18H21O-
255.1367	66	C17H19O2-
255.1769	187	C18H23O-
256.1426	244	C17H20O2-
257.1499	85	C17H21O2-
258.1585	20	C17H22O2-
259.1691	116	C17H23O2-
263.1448	45	C19H19O-
264.142	158	C15H20O4-
267.1399	38	C18H19O2-
268.1446	18	C18H20O2-
269.1533	88	C18H21O2-
271.1655	66	C18H23O2-
283.1655	65	C19H23O2-
285.1842	91	C19H25O2-
286.1619	131	C18H22O3-
287.1665	105	C18H23O3-
301.1794	62	C19H25O3-
312.1667	69	C20H24O3-
317.1681	63	C19H25O4-
322.1188	78	C20H18O4-
