Mass spectrum: 1,2-dihexadecanoyl-sn-glycero-3-phosphoethanolamine; LC-ESI-QTOF; MS2; CE: 20eV; R=7000; [M+H]+
Name: 1,2-dihexadecanoyl-sn-glycero-3-phosphoethanolamine
Name: 1,2-Dipalmitoyl-sn-glycero-3-phosphoethanolamine
Name: [(2R)-3-[2-aminoethoxy(hydroxy)phosphoryl]oxy-2-hexadecanoyloxypropyl] hexadecanoate
Formula: C37H74NO8P
Exact mass: 691.5152
SMILES: CCCCCCCCCCCCCCCC(=O)OC[C@H](COP(=O)(O)OCCN)OC(=O)CCCCCCCCCCCCCCC
InChI: InChI=1S/C37H74NO8P/c1-3-5-7-9-11-13-15-17-19-21-23-25-27-29-36(39)43-33-35(34-45-47(41,42)44-32-31-38)46-37(40)30-28-26-24-22-20-18-16-14-12-10-8-6-4-2/h35H,3-34,38H2,1-2H3,(H,41,42)/t35-/m1/s1
Instrument: Agilent 6560 QTOF
Instrument type: LC-ESI-QTOF
Ms type: MS2
Ion mode: POSITIVE
Ionization: ESI
Fragmentation mode: CID
Collision energy: 20 eV
Resolution: 7000
Column name: Direct injection
Retention time: 0.182 min
Base peak: 692.5243
Precursor m/z: 692.5225
Precursor type: [M+H]+
Precursor intensity: 169650
m/z	relative intensity	assigned
71.0853	29	C5H11+
81.07	16	C6H9+
83.0872	5	C2H14NP+
85.1029	8	C2H16NP+
95.085	40	C7H11+
97.1004	7	C7H13+
109.1012	10	C8H13+
123.1148	8	C2H20O3P+
137.1342	3	C6H20NP+
239.237	36	C16H31O+
240.2447	2	C16H32O+
281.054	4	C12H11NO7+
282.2809	10	C18H36NO+
282.5337	1	C8H75O5P+
283.2781	3	C15H40O2P+
297.279	2	C15H40NO2P+
300.284	4	C8H45O8P+
313.2738	11	C19H37O3+
313.5603	1	C19H71N+
314.2753	7	C11H40NO8+
344.9818	1	C22HO5+
393.2441	1	C29H31N+
436.2801	3	C25H40O6+
454.2928	3	C21H45NO7P+
462.9533	2	C24H2NO8P+
551.5045	999	C31H70NO4P+
552.5071	160	C28H73O7P+
604.3401	2	C33H51NO7P+
692.5247	3	C37H75NO8P+
