Mass spectrum: Tributyl phosphate; LC-ESI-QTOF; MS2; CE: 5eV; R=7000; [M+Na]+
Name: Tributyl phosphate
Formula: C12H27O4P
Exact mass: 266.1647
SMILES: CCCCOP(=O)(OCCCC)OCCCC
InChI: InChI=1S/C12H27O4P/c1-4-7-10-14-17(13,15-11-8-5-2)16-12-9-6-3/h4-12H2,1-3H3
Instrument: Agilent 6560 QTOF
Instrument type: LC-ESI-QTOF
Ms type: MS2
Ion mode: POSITIVE
Ionization: ESI
Fragmentation mode: CID
Collision energy: 5 eV
Resolution: 7000
Retention time: 0.148 min
Base peak: 289.1542
Precursor m/z: 289.1539
Precursor type: [M+Na]+
Precursor intensity: 150579.11
m/z	relative intensity	assigned
233.0914	24	C8H19NaO4P+
289.1537	999	C12H27NaO4P+
