Mass spectrum: Myristoyl-L-carnitine; LC-ESI-QTOF; MS2; CE: 10eV; R=7000; [M+Na]+
Name: Myristoyl-L-carnitine
Name: Myristoylcarnitine
Name: 3-tetradecanoyloxy-4-(trimethylazaniumyl)butanoate
Formula: C21H41NO4
Exact mass: 371.3036
SMILES: O(C(CCCCCCCCCCCCC)=O)C(CC(=O)[O-])C[N+](C)(C)C
InChI: InChI=1S/C21H41NO4/c1-5-6-7-8-9-10-11-12-13-14-15-16-21(25)26-19(17-20(23)24)18-22(2,3)4/h19H,5-18H2,1-4H3
Instrument: Agilent 6560 QTOF
Instrument type: LC-ESI-QTOF
Ms type: MS2
Ion mode: POSITIVE
Ionization: ESI
Fragmentation mode: CID
Collision energy: 10 eV
Resolution: 7000
Column name: Direct injection
Retention time: 0.181 min
Base peak: 372.3127
Precursor m/z: 394.2928
Precursor type: [M+Na]+
Precursor intensity: 127561
m/z	relative intensity	assigned
104.9921	3	C4H2NaO2+
107.0108	31	C4H4NaO2+
126.0522	1	C4H9NNaO2+
165.0665	3	C11H10Na+
166.0835	9	C7H13NNaO2+
269.2272	2	C20H29+
335.2198	999	C18H32NaO4+
336.2231	53	C18H33NaO4+
337.271	1	C19H38NaO3+
377.2657	25	C21H38NaO4+
378.2642	10	C20H37NNaO4+
394.2932	199	C21H41NNaO4+
