Mass spectrum: Trimethylamine N-oxide; LC-ESI-QTOF; MS2; CE: 10eV; R=5000; [M+H]+
Name: Trimethylamine N-oxide
Name: Trimethylamine oxide
Name: N,N-dimethylmethanamine oxide
Formula: C3H9NO
Exact mass: 75.06841
SMILES: C[N+](C)(C)[O-]
InChI: InChI=1S/C3H9NO/c1-4(2,3)5/h1-3H3
Instrument: Agilent 6530 QTOF
Instrument type: LC-ESI-QTOF
Ms type: MS2
Ion mode: POSITIVE
Ionization: ESI
Fragmentation mode: CID
Collision energy: 10 eV
Resolution: 5000
Column name: N/A
Retention time: 0.219 min
Base peak: 151.1464
Precursor m/z: 76.0757
Precursor type: [M+H]+
Precursor intensity: 7060150
m/z	relative intensity	assigned
42.0345	19	C2H4N+
43.0422	15	C2H5N+
44.0496	1	C2H6N+
56.0503	4	C3H6N+
58.0656	999	C3H8N+
59.0735	475	C3H9N+
61.0523	1	C2H7NO+
76.0761	296	C3H10NO+
