Mass spectrum: 1,2-diheptadecanoyl-sn-glycero-3-phosphocholine; LC-ESI-QTOF; MS2; CE: 20eV; R=7000; [M+CH3COO]-
Name: 1,2-diheptadecanoyl-sn-glycero-3-phosphocholine
Name: [(2R)-2,3-di(heptadecanoyloxy)propyl] 2-(trimethylazaniumyl)ethyl phosphate
Formula: C42H84NO8P
Exact mass: 761.5935
SMILES: CCCCCCCCCCCCCCCCC(=O)OC[C@H](COP(=O)([O-])OCC[N+](C)(C)C)OC(=O)CCCCCCCCCCCCCCCC
InChI: InChI=1S/C42H84NO8P/c1-6-8-10-12-14-16-18-20-22-24-26-28-30-32-34-41(44)48-38-40(39-50-52(46,47)49-37-36-43(3,4)5)51-42(45)35-33-31-29-27-25-23-21-19-17-15-13-11-9-7-2/h40H,6-39H2,1-5H3/t40-/m1/s1
Instrument: Agilent 6560 QTOF
Instrument type: LC-ESI-QTOF
Ms type: MS2
Ion mode: NEGATIVE
Ionization: ESI
Fragmentation mode: CID
Collision energy: 20 eV
Resolution: 7000
Column name: N/A
Retention time: 0.147 min
Base peak: 980.0164
Precursor m/z: 820.6073
Precursor type: [M+CH3COO]-
Precursor intensity: 114600
m/z	relative intensity	assigned
83.0999	4	C3H16P-
127.0632	1	C6H9NO2-
144.0039	3	C5H4O5-
203.2057	4	C5H31O7-
217.6023	2	C5H79NO4-
224.068	5	C11H12O5-
224.5536	2	C10H72O2-
247.5387	2	C4H73NO7-
249.2676	3	C14H35NO2-
267.5166	2	C10H70NO2P-
267.6601	2	C11H87O3-
267.9767	5	C10H5O7P-
269.2491	502	C13H36NO2P-
270.2536	53	C10H39O5P-
270.3019	3	C14H40NO3-
270.4974	2	C6H71O6P-
358.5639	3	C13H76NO7-
396.9855	3	C29H2OP-
476.3061	14	C28H45O4P-
477.668	2	C26H87NO4-
494.3259	61	C24H49NO7P-
495.3285	2	C31H46NO2P-
547.1539	2	C30H28O8P-
576.5747	16	C28H80O10-
597.4061	12	C37H58O4P-
670.3319	2	C40H49NO6P-
731.1785	3	C44H29NO10-
741.4092	5	C42H62O9P-
741.4799	7	C43H67NO9-
741.5302	4	C41H76NO8P-
741.5731	3	C42H79NO9-
742.1359	2	C44H25NO9P-
742.3208	2	C42H49NO9P-
742.5319	4	C44H72NO8-
746.5716	999	C41H81NO8P-
747.5747	125	C41H82NO8P-
749.04	6	C44H16NO10P-
749.6449	4	C42H87NO9-
761.535	4	C41H78O10P-
762.1528	1	C44H29NO10P-
762.5664	1	C41H81NO9P-
820.6044	33	C44H87NO10P-
