Mass spectrum: 1-Dehydrotestosterone; LC-ESI-QTOF; MS2; CE: 10eV; R=7000; [M+Na]+
Name: 1-Dehydrotestosterone
Name: Boldenone
Name: (8R,9S,10R,13S,14S,17S)-17-hydroxy-10,13-dimethyl-6,7,8,9,11,12,14,15,16,17-decahydrocyclopenta[a]phenanthren-3-one
Formula: C19H26O2
Exact mass: 286.1933
SMILES: C[C@]12CC[C@H]3[C@H]([C@@H]1CC[C@@H]2O)CCC4=CC(=O)C=C[C@]34C
InChI: InChI=1S/C19H26O2/c1-18-9-7-13(20)11-12(18)3-4-14-15-5-6-17(21)19(15,2)10-8-16(14)18/h7,9,11,14-17,21H,3-6,8,10H2,1-2H3/t14-,15-,16-,17-,18-,19-/m0/s1
Instrument: Agilent 6560 QTOF
Instrument type: LC-ESI-QTOF
Ms type: MS2
Ion mode: POSITIVE
Ionization: ESI
Fragmentation mode: CID
Collision energy: 10 eV
Resolution: 7000
Column name: Direct injection
Retention time: 0.155 min
Base peak: 287.2013
Precursor m/z: 309.1825
Precursor type: [M+Na]+
Precursor intensity: 27447
m/z	relative intensity	assigned
250.1776	20	C19H22+
309.1833	999	C19H26NaO2+
