Mass spectrum: Bis(2-butoxyethyl) 3?-hydroxy-2-butoxyethyl phosphate ; LC-ESI-QTOF; MS2; CE: 40eV; R=7000; [M+Na]+
Name: Bis(2-butoxyethyl) 3?-hydroxy-2-butoxyethyl phosphate 
Name: Bis(2-butoxyethyl) 3-hydroxyl-2-butoxyethyl phosphate
Name: bis(2-butoxyethyl) 2-(3-hydroxybutoxy)ethyl phosphate
Formula: C18H39O8P
Exact mass: 414.2383
SMILES: CCCCOCCOP(=O)(OCCOCCCC)OCCOCCC(C)O
InChI: InChI=1S/C18H39O8P/c1-4-6-9-21-12-15-24-27(20,25-16-13-22-10-7-5-2)26-17-14-23-11-8-18(3)19/h18-19H,4-17H2,1-3H3
Instrument: Agilent 6560 QTOF
Instrument type: LC-ESI-QTOF
Ms type: MS2
Ion mode: POSITIVE
Ionization: ESI
Fragmentation mode: CID
Collision energy: 40 eV
Resolution: 7000
Retention time: 0.150 min
Base peak: 415.2487
Precursor m/z: 437.2275
Precursor type: [M+Na]+
Precursor intensity: 10465.5
m/z	relative intensity	assigned
55.0547	101	C4H7+
120.9673	147	H3NaO4P+
139.0726	69	C6H12NaO2+
141.0906	54	C8H13O2+
146.9815	139	C2H5NaO4P+
157.0831	999	C6H14NaO3+
164.9907	72	C2H7NaO5P+
209.0576	44	C7H14O5P+
221.0561	41	C13H10NaO2+
237.0484	90	C6H15NaO6P+
337.1385	52	C12H27NaO7P+
