Mass spectrum: 2-Aminobenzothiazole; LC-ESI-QTOF; MS2; CE: 50eV; R=7000; [M+H]+
Name: 2-Aminobenzothiazole
Name: 1,3-benzothiazol-2-amine
Formula: C7H6N2S
Exact mass: 150.0252
SMILES: C1=CC=C2C(=C1)N=C(S2)N
InChI: InChI=1S/C7H6N2S/c8-7-9-5-3-1-2-4-6(5)10-7/h1-4H,(H2,8,9)
Instrument: Agilent 6560 QTOF
Instrument type: LC-ESI-QTOF
Ms type: MS2
Ion mode: POSITIVE
Ionization: ESI
Fragmentation mode: CID
Collision energy: 50 eV
Resolution: 7000
Retention time: 0.148 min
Base peak: 151.0329
Precursor m/z: 151.0324
Precursor type: [M+H]+
Precursor intensity: 102316.58
m/z	relative intensity	assigned
50.0162	24	C4H2+
51.0235	357	C4H3+
53.0388	244	C4H5+
54.0341	18	C3H4N+
56.9798	12	C2HS+
57.9868	11	C2H2S+
58.9948	10	C2H3S+
59.9904	109	CH2NS+
62.0154	44	C5H2+
63.0233	338	C5H3+
64.0189	381	C4H2N+
65.0387	926	C5H5+
67.9717	36	C3S+
68.9794	999	C3HS+
69.9875	56	C3H2S+
70.9953	9	C3H3S+
74.0154	18	C6H2+
75.0236	13	C6H3+
77.0385	155	C6H5+
78.0342	9	C5H4N+
80.0495	195	C5H6N+
80.9798	19	C4HS+
81.9874	85	C4H2S+
82.995	18	C4H3S+
90.0343	34	C6H4N+
91.0418	28	C6H5N+
92.979	56	C5HS+
94.994	34	C5H3S+
96.0033	32	C5H4S+
106.9949	15	C6H3S+
108.0026	66	C6H4S+
109.0104	36	C6H5S+
122.0055	17	C6H4NS+
