Mass spectrum: L-Isoleucine standard; LC-ESI-QTOF; MS2; CE: 10eV; R=5000; [M+H]+
Name: L-Isoleucine standard
Name: l-Isoleucine
Name: (2S,3S)-2-amino-3-methylpentanoic acid
Formula: C6H13NO2
Exact mass: 131.09463
SMILES: CC[C@H](C)[C@@H](C(=O)O)N
InChI: InChI=1S/C6H13NO2/c1-3-4(2)5(7)6(8)9/h4-5H,3,7H2,1-2H3,(H,8,9)/t4-,5-/m0/s1
Instrument: Agilent 6530 QTOF
Instrument type: LC-ESI-QTOF
Ms type: MS2
Ion mode: POSITIVE
Ionization: ESI
Fragmentation mode: CID
Collision energy: 10 eV
Resolution: 5000
Column name: N/A
Retention time: 0.214 min
Base peak: 132.1018
Precursor m/z: 132.1019
Precursor type: [M+H]+
Precursor intensity: 785847
m/z	relative intensity	assigned
41.0391	72	C3H5+
44.0503	136	C2H6N+
57.0575	12	C3H7N+
58.0658	8	C3H8N+
67.0532	1	C5H7+
69.0702	217	C5H9+
73.0665	4	C4H9O+
86.0965	999	C5H12N+
88.0748	1	C4H10NO+
132.1009	40	C6H14NO2+
