Mass spectrum: Acetyltriethyl citrate; LC-ESI-QTOF; MS2; CE: 15eV; R=7000; [M+Na]+
Name: Acetyltriethyl citrate
Name: Acetyl triethyl citrate
Name: triethyl 2-acetyloxypropane-1,2,3-tricarboxylate
Formula: C14H22O8
Exact mass: 318.1315
SMILES: CCOC(=O)CC(CC(=O)OCC)(C(=O)OCC)OC(=O)C
InChI: InChI=1S/C14H22O8/c1-5-19-11(16)8-14(22-10(4)15,13(18)21-7-3)9-12(17)20-6-2/h5-9H2,1-4H3
Instrument: Agilent 6560 QTOF
Instrument type: LC-ESI-QTOF
Ms type: MS2
Ion mode: POSITIVE
Ionization: ESI
Fragmentation mode: CID
Collision energy: 15 eV
Resolution: 7000
Retention time: 0.147 min
Base peak: 341.1239
Precursor m/z: 341.1207
Precursor type: [M+Na]+
Precursor intensity: 180916.33
m/z	relative intensity	assigned
113.02	2	C3H6NaO3+
139.0018	2	C6H3O4+
141.0546	2	C7H9O3+
167.0346	3	C8H7O4+
179.0297	6	C7H8NaO4+
209.0812	2	C11H13O4+
211.0551	4	C8H12NaO5+
213.0761	2	C10H13O5+
225.0728	43	C9H14NaO5+
226.0775	2	C9H15NaO5+
253.0669	7	C10H14NaO6+
271.0788	10	C10H16NaO7+
281.0999	517	C12H18NaO6+
282.1023	40	C12H19NaO6+
299.1089	20	C12H20NaO7+
313.0894	15	C12H18NaO8+
341.1209	999	C14H22NaO8+
