Mass spectrum: N-Heptadecanoyl-D-erythro-Sphingosine; LC-ESI-QTOF; MS2; CE: 20eV; R=7000; [M-H]-
Name: N-Heptadecanoyl-D-erythro-Sphingosine
Name: N-Heptadecanoylsphingosine
Name: N-[(E,2S,3R)-1,3-dihydroxyoctadec-4-en-2-yl]heptadecanamide
Formula: C35H69NO3
Exact mass: 551.5277
SMILES: OC[C@H](NC(CCCCCCCCCCCCCCCC)=O)[C@H](O)/C=C/CCCCCCCCCCCCC
InChI: InChI=1S/C35H69NO3/c1-3-5-7-9-11-13-15-17-19-21-23-25-27-29-31-35(39)36-33(32-37)34(38)30-28-26-24-22-20-18-16-14-12-10-8-6-4-2/h28,30,33-34,37-38H,3-27,29,31-32H2,1-2H3,(H,36,39)/b30-28+/t33-,34+/m0/s1
Instrument: Agilent 6560 QTOF
Instrument type: LC-ESI-QTOF
Ms type: MS2
Ion mode: NEGATIVE
Ionization: ESI
Fragmentation mode: CID
Collision energy: 20 eV
Resolution: 7000
Column name: N/A
Retention time: 0.166 min
Base peak: 610.5428
Precursor m/z: 550.5205
Precursor type: [M-H]-
Precursor intensity: 107246
m/z	relative intensity	assigned
87.1775	5	C4H23O-
162.3973	7	C4H52NO3-
164.0827	10	C10H12O2-
179.4215	9	C9H55O-
202.279	5	C10H36NO2-
235.2027	28	C16H27O-
237.2227	346	C16H29O-
239.063	8	C14H9NO3-
239.2364	19	C16H31O-
239.3205	5	C14H41NO-
250.256	35	C17H32N-
251.2381	172	C17H31O-
251.3163	9	C15H41NO-
252.2403	30	C17H32O-
252.2874	3	C14H38NO2-
255.2334	7	C16H31O2-
263.2374	159	C18H31O-
264.2388	27	C17H30NO-
266.1045	5	C21H14-
268.2639	225	C17H34NO-
269.2499	156	C17H33O2-
281.27	19	C18H35NO-
292.4667	7	C18H60O-
292.5171	5	C16H68O2-
294.2808	739	C19H36NO-
295.2824	41	C19H37NO-
295.4708	8	C17H61NO-
298.2696	30	C22H34-
310.2766	151	C19H36NO2-
311.2836	17	C19H37NO2-
367.5204	7	C25H67-
433.2605	18	C28H35NO3-
460.2037	13	C32H28O3-
491.4755	9	C32H61NO2-
502.501	73	C34H64NO-
503.4973	17	C34H65NO-
504.3645	8	C34H48O3-
511.3583	8	C35H45NO2-
514.2439	8	C35H32NO3-
518.4935	198	C34H64NO2-
519.4942	10	C34H65NO2-
520.5129	205	C34H66NO2-
521.5172	53	C34H67NO2-
550.5214	999	C35H68NO3-
