Mass spectrum: Triethylphosphate; LC-ESI-QTOF; MS2; CE: 5eV; R=7000; [M+H]+
Name: Triethylphosphate
Name: triethyl phosphate
Formula: C6H15O4P
Exact mass: 182.0708
SMILES: CCOP(=O)(OCC)OCC
InChI: InChI=1S/C6H15O4P/c1-4-8-11(7,9-5-2)10-6-3/h4-6H2,1-3H3
Instrument: Agilent 6560 QTOF
Instrument type: LC-ESI-QTOF
Ms type: MS2
Ion mode: POSITIVE
Ionization: ESI
Fragmentation mode: CID
Collision energy: 5 eV
Resolution: 7000
Retention time: 0.109 min
Base peak: 98.9842
Precursor m/z: 183.0781
Precursor type: [M+H]+
Precursor intensity: 50257.53
m/z	relative intensity	assigned
80.9736	25	H2O3P+
98.9841	999	H4O4P+
127.0155	392	C2H8O4P+
155.0468	193	C4H12O4P+
183.0787	43	C6H16O4P+
