Mass spectrum: Para-hydroxy triphenyl phosphate; LC-ESI-QTOF; MS2; CE: 5eV; R=7000; [M+H]+
Name: Para-hydroxy triphenyl phosphate
Name: 4-Hydroxyphenyl diphenyl phosphate
Name: (4-hydroxyphenyl) diphenyl phosphate
Formula: C18H15O5P
Exact mass: 342.0657
SMILES: C1=CC=C(C=C1)OP(=O)(OC2=CC=CC=C2)OC3=CC=C(C=C3)O
InChI: InChI=1S/C18H15O5P/c19-15-11-13-18(14-12-15)23-24(20,21-16-7-3-1-4-8-16)22-17-9-5-2-6-10-17/h1-14,19H
Instrument: Agilent 6560 QTOF
Instrument type: LC-ESI-QTOF
Ms type: MS2
Ion mode: POSITIVE
Ionization: ESI
Fragmentation mode: CID
Collision energy: 5 eV
Resolution: 7000
Retention time: 0.146 min
Base peak: 343.0735
Precursor m/z: 343.073
Precursor type: [M+H]+
Precursor intensity: 125173.2
m/z	relative intensity	assigned
77.0375	2	C6H5+
109.0281	7	C6H5O2+
141.0686	3	C4H14O3P+
153.0696	2	C12H9+
169.0657	2	C12H9O+
215.0254	3	C12H8O2P+
231.0203	4	C12H8O3P+
249.0319	6	C12H10O4P+
251.0452	3	C12H12O4P+
267.0377	1	C12H12O5P+
343.0738	999	C18H16O5P+
