Mass spectrum: N-oleoyl-D-erythro-sphingosine; LC-ESI-QTOF; MS2; CE: 10eV; R=7000; [M-H2O+H]+
Name: N-oleoyl-D-erythro-sphingosine
Name: N-(oleoyl)-ceramide
Name: (Z)-N-[(E,2S,3R)-1,3-dihydroxyoctadec-4-en-2-yl]octadec-9-enamide
Formula: C36H69NO3
Exact mass: 563.5277
SMILES: CCCCCCCCCCCCC/C=C/[C@H]([C@H](CO)NC(=O)CCCCCCC/C=C\CCCCCCCC)O
InChI: InChI=1S/C36H69NO3/c1-3-5-7-9-11-13-15-17-18-20-22-24-26-28-30-32-36(40)37-34(33-38)35(39)31-29-27-25-23-21-19-16-14-12-10-8-6-4-2/h17-18,29,31,34-35,38-39H,3-16,19-28,30,32-33H2,1-2H3,(H,37,40)/b18-17-,31-29+/t34-,35+/m0/s1
Instrument: Agilent 6560 QTOF
Instrument type: LC-ESI-QTOF
Ms type: MS2
Ion mode: POSITIVE
Ionization: ESI
Fragmentation mode: CID
Collision energy: 10 eV
Resolution: 7000
Column name: Direct injection
Retention time: 0.153 min
Base peak: 586.5186
Precursor m/z: 546.5245
Precursor type: [M-H2O+H]+
Precursor intensity: 153054
m/z	relative intensity	assigned
71.0859	3	C5H11+
79.0558	15	C6H7+
81.0683	14	C6H9+
96.0787	7	C6H10N+
121.1008	25	C9H13+
193.1937	11	C14H25+
227.1765	4	C17H23+
247.2397	7	C18H31+
252.2684	73	C17H34N+
264.2688	999	C18H34N+
265.2729	54	C18H35N+
282.2793	97	C18H36NO+
283.2815	2	C18H37NO+
427	2	C33HNO+
464.1077	1	C35H14NO+
516.5153	24	C35H66NO+
517.5151	13	C35H67NO+
528.5113	91	C36H66NO+
529.5187	12	C36H67NO+
546.525	788	C36H68NO2+
