Mass spectrum: Trimyristin; LC-ESI-QTOF; MS2; CE: 20eV; R=7000; [M+NH4]+
Name: Trimyristin
Name: 2,3-di(tetradecanoyloxy)propyl tetradecanoate
Formula: C45H86O6
Exact mass: 722.6424
SMILES: CCCCCCCCCCCCCC(=O)OCC(COC(=O)CCCCCCCCCCCCC)OC(=O)CCCCCCCCCCCCC
InChI: InChI=1S/C45H86O6/c1-4-7-10-13-16-19-22-25-28-31-34-37-43(46)49-40-42(51-45(48)39-36-33-30-27-24-21-18-15-12-9-6-3)41-50-44(47)38-35-32-29-26-23-20-17-14-11-8-5-2/h42H,4-41H2,1-3H3
Instrument: Agilent 6560 QTOF
Instrument type: LC-ESI-QTOF
Ms type: MS2
Ion mode: POSITIVE
Ionization: ESI
Fragmentation mode: CID
Collision energy: 20 eV
Resolution: 7000
Column name: Direct injection
Retention time: 0.323 min
Base peak: 647.4606
Precursor m/z: 740.6763
Precursor type: [M+NH4]+
Precursor intensity: 66089
m/z	relative intensity	assigned
71.0854	11	C5H11+
83.0856	10	C6H11+
85.101	40	C6H13+
95.0854	28	C7H11+
97.1006	19	C7H13+
109.1022	6	C8H13+
123.1183	11	C9H15+
124.12	6	CH18NO5+
177.109	16	C8H17O4+
193.4083	5	C5H55NO4+
211.2048	36	C14H27O+
285.2419	15	C17H33O3+
495.4417	999	C31H59O4+
496.4471	124	C31H60O4+
497.5647	3	C34H73O+
607.3948	7	C45H51O+
705.5055	2	C45H69O6+
705.5782	8	C43H79NO6+
