Mass spectrum: N-oleoyl-D-erythro-sphingosine; LC-ESI-QTOF; MS2; CE: 10eV; R=7000; [M-H]-
Name: N-oleoyl-D-erythro-sphingosine
Name: N-(oleoyl)-ceramide
Name: (Z)-N-[(E,2S,3R)-1,3-dihydroxyoctadec-4-en-2-yl]octadec-9-enamide
Formula: C36H69NO3
Exact mass: 563.5277
SMILES: CCCCCCCCCCCCC/C=C/[C@H]([C@H](CO)NC(=O)CCCCCCC/C=C\CCCCCCCC)O
InChI: InChI=1S/C36H69NO3/c1-3-5-7-9-11-13-15-17-18-20-22-24-26-28-30-32-36(40)37-34(33-38)35(39)31-29-27-25-23-21-19-16-14-12-10-8-6-4-2/h17-18,29,31,34-35,38-39H,3-16,19-28,30,32-33H2,1-2H3,(H,37,40)/b18-17-,31-29+/t34-,35+/m0/s1
Instrument: Agilent 6560 QTOF
Instrument type: LC-ESI-QTOF
Ms type: MS2
Ion mode: NEGATIVE
Ionization: ESI
Fragmentation mode: CID
Collision energy: 10 eV
Resolution: 7000
Column name: N/A
Retention time: 0.165 min
Base peak: 622.5431
Precursor m/z: 562.5205
Precursor type: [M-H]-
Precursor intensity: 147865
m/z	relative intensity	assigned
97.064	3	C6H9O-
196.0126	1	C12H4O3-
202.0261	1	C14H4NO-
237.2211	16	C16H29O-
237.2612	1	C17H33-
263.2386	41	C18H31O-
264.0879	2	C20H10N-
264.2427	3	C18H32O-
279.2637	2	C19H35O-
280.2647	25	C18H34NO-
280.4236	1	C16H56O2-
281.0661	3	C20H9O2-
281.2487	11	C18H33O2-
288.2678	2	C17H36O3-
290.221	1	C19H30O2-
299.2735	3	C22H35-
299.3324	2	C20H43O-
306.2809	52	C20H36NO-
307.0367	4	C21H7O3-
311.173	3	C23H21N-
322.276	30	C20H36NO2-
348.3441	1	C20H46NO3-
361.2062	2	C24H27NO2-
376.0295	1	C31H4-
481.4703	3	C34H59N-
502.4993	6	C34H64NO-
514.5006	8	C35H64NO-
530.4945	17	C35H64NO2-
532.5086	19	C35H66NO2-
533.504	3	C35H65O3-
562.5213	999	C36H68NO3-
