Mass spectrum: N-ACETYLASPARAGINE; LC-ESI-QTOF; MS2; CE: 10eV; R=5000; [M+H]+
Name: N-ACETYLASPARAGINE
Name: (2S)-2-acetamido-4-amino-4-oxobutanoic acid
Formula: C6H10N2O4
Exact mass: 174.0641
SMILES: CC(=O)N[C@@H](CC(N)=O)C(O)=O
InChI: InChI=1S/C6H10N2O4/c1-3(9)8-4(6(11)12)2-5(7)10/h4H,2H2,1H3,(H2,7,10)(H,8,9)(H,11,12)/t4-/m0/s1
Instrument: Agilent 6530 QTOF
Instrument type: LC-ESI-QTOF
Ms type: MS2
Ion mode: POSITIVE
Ionization: ESI
Fragmentation mode: CID
Collision energy: 10 eV
Resolution: 5000
Column name: N/A
Retention time: 0.215 min
Base peak: 922.0098
Precursor m/z: 175.0713
Precursor type: [M+H]+
Precursor intensity: 276528
m/z	relative intensity	assigned
43.0183	327	C2H3O+
44.0497	87	C2H6N+
46.0292	108	CH4NO+
53.0018	17	C3HO+
60.0437	291	C2H6NO+
67.0501	4	H7N2O2+
70.0287	342	C3H4NO+
71.0567	10	H9NO3+
74.0228	279	C2H4NO2+
75.0237	10	C6H3+
75.0684	1	C3H9NO+
81.0671	10	CH9N2O2+
84.0457	16	C4H6NO+
87.0541	349	C3H7N2O+
88.0385	999	C3H6NO2+
98.0226	100	C4H4NO2+
99.0073	208	C4H3O3+
100.058	2	CH10NO4+
105.0674	4	C3H9N2O2+
107.0833	17	C3H11N2O2+
115.0473	29	C4H7N2O2+
116.0336	118	C4H6NO3+
117.0411	2	C4H7NO3+
129.0571	17	C6H9O3+
130.049	229	C5H8NO3+
133.059	352	C4H9N2O3+
158.0424	584	C6H8NO4+
