Mass spectrum: 4-Methylbenzotriazole; LC-ESI-QTOF; MS2; CE: 10eV; R=7000; [M+H]+
Name: 4-Methylbenzotriazole
Name: 4-Methyl-1H-benzotriazole
Name: 4-methyl-2H-benzotriazole
Formula: C7H7N3
Exact mass: 133.0640
SMILES: CC1=CC=CC2=NNN=C12
InChI: InChI=1S/C7H7N3/c1-5-3-2-4-6-7(5)9-10-8-6/h2-4H,1H3,(H,8,9,10)
Instrument: Agilent 6560 QTOF
Instrument type: LC-ESI-QTOF
Ms type: MS2
Ion mode: POSITIVE
Ionization: ESI
Fragmentation mode: CID
Collision energy: 10 eV
Resolution: 7000
Retention time: 0.147 min
Base peak: 134.0713
Precursor m/z: 134.0713
Precursor type: [M+H]+
Precursor intensity: 51994.37
m/z	relative intensity	assigned
66.0323	5	C4H4N+
77.0389	103	C6H5+
78.0339	14	C5H4N+
79.0542	196	C6H7+
104.0491	6	C7H6N+
106.065	89	C7H8N+
134.0711	999	C7H8N3+
