Mass spectrum: 1,2-dihexadecanoyl-sn-glycero-3-phosphoethanolamine; LC-ESI-QTOF; MS2; CE: 20eV; R=7000; [M-H]-
Name: 1,2-dihexadecanoyl-sn-glycero-3-phosphoethanolamine
Name: 1,2-Dipalmitoyl-sn-glycero-3-phosphoethanolamine
Name: [(2R)-3-[2-aminoethoxy(hydroxy)phosphoryl]oxy-2-hexadecanoyloxypropyl] hexadecanoate
Formula: C37H74NO8P
Exact mass: 691.5152
SMILES: CCCCCCCCCCCCCCCC(=O)OC[C@H](COP(=O)(O)OCCN)OC(=O)CCCCCCCCCCCCCCC
InChI: InChI=1S/C37H74NO8P/c1-3-5-7-9-11-13-15-17-19-21-23-25-27-29-36(39)43-33-35(34-45-47(41,42)44-32-31-38)46-37(40)30-28-26-24-22-20-18-16-14-12-10-8-6-4-2/h35H,3-34,38H2,1-2H3,(H,41,42)/t35-/m1/s1
Instrument: Agilent 6560 QTOF
Instrument type: LC-ESI-QTOF
Ms type: MS2
Ion mode: NEGATIVE
Ionization: ESI
Fragmentation mode: CID
Collision energy: 20 eV
Resolution: 7000
Column name: N/A
Retention time: 0.142 min
Base peak: 980.0164
Precursor m/z: 690.5079
Precursor type: [M-H]-
Precursor intensity: 151051
m/z	relative intensity	assigned
110.1683	14	C2H25NOP-
110.1875	2	C3H26O3-
130.0334	2	CH8NO6-
132.4599	10	C5H58N-
140.0101	14	C6H4O4-
158.5043	8	C5H66O2-
159.9946	1	C12O-
193.3369	10	C10H43NO-
196.0377	26	C9H8O5-
196.2546	2	C8H37O2P-
209.1829	1	C6H27NO6-
243.3267	2	C14H43O2-
254.0785	1	C12H14O6-
254.1015	3	C5H21NO8P-
254.1224	2	C17H19P-
255.2325	999	C16H31O2-
256.2354	98	C8H34NO7-
298.1207	5	C18H18O4-
323.517	9	C13H72O4P-
325.0872	1	C18H16NO3P-
332.0052	1	C22H5O2P-
341.1611	1	C13H28NO7P-
384.0532	3	C22H10NO6-
389.0676	1	C18H16NO7P-
391.2242	4	C19H36O6P-
404.9595	2	C23H2O6P-
434.2668	14	C25H38O6-
434.5313	3	C28H68NO-
434.5697	2	C29H72N-
435.1662	1	C25H25NO6-
449.4468	1	C26H59NO4-
452.2794	51	C21H43NO7P-
453.2704	5	C32H38P-
453.3728	2	C31H49O2-
491.4524	1	C25H63O8-
576.0862	1	C32H19NO8P-
690.5067	322	C37H73NO8P-
