Mass spectrum: 5,6-Dimethylbenzotriazole; LC-ESI-QTOF; MS2; CE: 15eV; R=7000; [M+H]+
Name: 5,6-Dimethylbenzotriazole
Name: 5,6-Dimethyl-1H-benzotriazole
Name: 5,6-dimethyl-2H-benzotriazole
Formula: C8H9N3
Exact mass: 147.0796
SMILES: CC1=CC2=NNN=C2C=C1C
InChI: InChI=1S/C8H9N3/c1-5-3-7-8(4-6(5)2)10-11-9-7/h3-4H,1-2H3,(H,9,10,11)
Instrument: Agilent 6560 QTOF
Instrument type: LC-ESI-QTOF
Ms type: MS2
Ion mode: POSITIVE
Ionization: ESI
Fragmentation mode: CID
Collision energy: 15 eV
Resolution: 7000
Retention time: 0.151 min
Base peak: 148.0868
Precursor m/z: 148.0869
Precursor type: [M+H]+
Precursor intensity: 75800.93
m/z	relative intensity	assigned
51.0218	12	C4H3+
53.0395	15	C4H5+
54.0349	29	C3H4N+
65.0384	7	C5H5+
77.0386	416	C6H5+
78.0463	22	C6H6+
79.0407	7	C5H5N+
79.0537	21	C6H7+
80.0482	18	C5H6N+
91.054	243	C7H7+
92.0487	20	C6H6N+
93.0697	329	C7H9+
94.0647	51	C6H8N+
103.0544	114	C8H7+
104.0506	13	C7H6N+
105.0563	15	C7H7N+
117.0563	14	C8H7N+
118.0653	24	C8H8N+
119.0727	22	C8H9N+
120.0803	120	C8H10N+
148.0866	999	C8H10N3+
