Mass spectrum: N-ACETYLNEURAMINATE; LC-ESI-QTOF; MS2; CE: 40eV; R=5000; [M+H]+
Name: N-ACETYLNEURAMINATE
Name: 5-N-Acetyl-beta-D-neuraminic acid
Name: (2S,4S,5R,6R)-5-acetamido-2,4-dihydroxy-6-[(1R,2R)-1,2,3-trihydroxypropyl]oxane-2-carboxylic acid
Formula: C11H19NO9
Exact mass: 309.1060
SMILES: CC(=O)N[C@@H]1[C@@H](O)C[C@](O)(O[C@H]1[C@H](O)[C@H](O)CO)C(O)=O
InChI: InChI=1S/C11H19NO9/c1-4(14)12-7-5(15)2-11(20,10(18)19)21-9(7)8(17)6(16)3-13/h5-9,13,15-17,20H,2-3H2,1H3,(H,12,14)(H,18,19)/t5-,6+,7+,8+,9+,11-/m0/s1
Instrument: Agilent 6530 QTOF
Instrument type: LC-ESI-QTOF
Ms type: MS2
Ion mode: POSITIVE
Ionization: ESI
Fragmentation mode: CID
Collision energy: 40 eV
Resolution: 5000
Column name: N/A
Retention time: 0.218 min
Base peak: 121.0508
Precursor m/z: 310.1133
Precursor type: [M+H]+
Precursor intensity: 95348
m/z	relative intensity	assigned
43.0182	366	C2H3O+
51.0223	79	C4H3+
54.0347	48	C3H4N+
55.0165	242	C3H3O+
61.027	277	C2H5O2+
65.038	141	C5H5+
68.0495	504	C4H6N+
69.0328	63	C4H5O+
70.0296	11	C3H4NO+
71.0126	100	C3H3O2+
79.0549	180	C6H7+
80.0493	198	C5H6N+
82.0253	84	CH6O4+
82.0625	75	C2H10O3+
83.0383	156	C4H5NO+
84.0434	243	C4H6NO+
92.0509	106	C6H6N+
94.0275	43	C5H4NO+
94.0664	68	C6H8N+
95.0487	302	C6H7O+
96.0426	289	C2H8O4+
97.0295	397	C5H5O2+
98.0569	269	C2H10O4+
100.0372	16	CH8O5+
102.0334	18	C7H4N+
103.0366	112	C4H7O3+
104.0481	131	C4H8O3+
104.1084	9	C5H14NO+
106.0601	205	C4H10O3+
106.1234	14	C5H16NO+
107.0497	38	C7H7O+
108.0404	145	C3H8O4+
109.0943	7	H15NO5+
110.0563	78	C3H10O4+
112.1204	10	H18NO5+
114.0501	47	C2H10O5+
118.9858	10	C2HNO5+
120.0422	121	C4H8O4+
121.0265	999	C7H5O2+
122.0544	78	C4H10O4+
123.0432	111	C7H7O2+
124.04	131	C6H6NO2+
128.0345	28	C5H6NO3+
132.0387	105	C5H8O4+
133.0186	62	C7H3NO2+
133.1012	5	C10H13+
134.0577	30	C5H10O4+
136.0434	128	H10NO7+
137.0454	63	C4H9O5+
138.059	109	H12NO7+
140.0362	179	C6H6NO3+
146.0574	28	C6H10O4+
146.0938	7	C7H14O3+
148.0272	58	C4H6NO5+
150.0546	309	C8H8NO2+
152.0284	42	C11H4O+
152.0684	12	C5H12O5+
153.0005	28	C3H5O7+
153.0507	4	H11NO8+
154.0494	56	C7H8NO3+
155.9796	8	CH2NO8+
156.0059	5	C6H4O5+
160.0346	53	C6H8O5+
169.0392	5	C7H7NO4+
185.1251	12	C6H19NO5+
197.0345	34	C8H7NO5+
214.0601	79	C5H12NO8+
215.9871	5	C7H4O8+
228.9602	4	C7HO9+
