Mass spectrum: Mono(2-ethyl-5-hydroxyhexyl)phthalate; LC-ESI-QTOF; MS2; CE: 10eV; R=7000; [M-H]-
Name: Mono(2-ethyl-5-hydroxyhexyl)phthalate
Name: Mono(2-ethyl-5-hydroxyhexyl) phthalate
Name: 2-(2-ethyl-5-hydroxyhexoxy)carbonylbenzoic acid
Formula: C16H22O5
Exact mass: 294.1467
SMILES: CCC(CCC(C)O)COC(=O)C1=CC=CC=C1C(=O)O
InChI: InChI=1S/C16H22O5/c1-3-12(9-8-11(2)17)10-21-16(20)14-7-5-4-6-13(14)15(18)19/h4-7,11-12,17H,3,8-10H2,1-2H3,(H,18,19)
Instrument: Agilent 6560 QTOF
Instrument type: LC-ESI-QTOF
Ms type: MS2
Ion mode: NEGATIVE
Ionization: ESI
Fragmentation mode: CID
Collision energy: 10 eV
Resolution: 7000
Column name: ZORBAX Extend-C18 3.5um, 2.1x50mm, Agilent Technologies
Retention time: 3.406 min
Base peak: 293.14
Precursor m/z: 293.1394
Precursor type: [M-H]-
Precursor intensity: 131693.2
m/z	relative intensity	assigned
77.0397	207	C6H5-
83.0496	3	C5H7O-
83.0863	8	C6H11-
97.1014	7	C7H13-
99.0813	8	C6H11O-
113.0979	10	C7H13O-
119.0141	5	C7H3O2-
121.0294	999	C7H5O2-
127.112	9	C8H15O-
143.1075	115	C8H15O2-
145.123	440	C8H17O2-
147.0075	21	C8H3O3-
293.1396	175	C16H21O5-
