Mass spectrum: Corticosterone; LC-ESI-QTOF; MS2; CE: 20eV; R=7000; [M+CH3COO]-
Name: Corticosterone
Name: (8S,9S,10R,11S,13S,14S,17S)-11-hydroxy-17-(2-hydroxyacetyl)-10,13-dimethyl-1,2,6,7,8,9,11,12,14,15,16,17-dodecahydrocyclopenta[a]phenanthren-3-one
Formula: C21H30O4
Exact mass: 346.2144
SMILES: C[C@]12CCC(=O)C=C1CC[C@@H]3[C@@H]2[C@H](C[C@]4([C@H]3CC[C@@H]4C(=O)CO)C)O
InChI: InChI=1S/C21H30O4/c1-20-8-7-13(23)9-12(20)3-4-14-15-5-6-16(18(25)11-22)21(15,2)10-17(24)19(14)20/h9,14-17,19,22,24H,3-8,10-11H2,1-2H3/t14-,15-,16+,17-,19+,20-,21-/m0/s1
Instrument: Agilent 6560 QTOF
Instrument type: LC-ESI-QTOF
Ms type: MS2
Ion mode: NEGATIVE
Ionization: ESI
Fragmentation mode: CID
Collision energy: 20 eV
Resolution: 7000
Column name: N/A
Retention time: 0.144 min
Base peak: 980.0164
Precursor m/z: 405.2283
Precursor type: [M+CH3COO]-
Precursor intensity: 13709
m/z	relative intensity	assigned
132.0225	327	C8H4O2-
162.1017	687	C11H14O-
162.1294	135	C8H18O3-
169.1781	146	C8H25O3-
191.1051	556	C12H15O2-
238.0656	131	C15H10O3-
241.1603	680	C17H21O-
242.1632	292	C17H22O-
243.9853	306	C15O4-
287.0992	627	C16H15O5-
302.0383	138	C22H6O2-
315.193	102	C20H27O3-
318.0353	168	C22H6O3-
327.1936	999	C21H27O3-
328.1975	300	C21H28O3-
345.2031	507	C21H29O4-
