Mass spectrum: gamma-Linolenic acid; LC-ESI-QTOF; MS2; CE: 10eV; R=7000; [M-H]-
Name: gamma-Linolenic acid
Name: (6Z,9Z,12Z)-octadeca-6,9,12-trienoic acid
Formula: C18H30O2
Exact mass: 278.2246
SMILES: CCCCC\C=C/C\C=C/C\C=C/CCCCC(O)=O
InChI: InChI=1S/C18H30O2/c1-2-3-4-5-6-7-8-9-10-11-12-13-14-15-16-17-18(19)20/h6-7,9-10,12-13H,2-5,8,11,14-17H2,1H3,(H,19,20)/b7-6-,10-9-,13-12-
Instrument: Agilent 6560 QTOF
Instrument type: LC-ESI-QTOF
Ms type: MS2
Ion mode: NEGATIVE
Ionization: ESI
Fragmentation mode: CID
Collision energy: 10 eV
Resolution: 7000
Column name: N/A
Retention time: 0.167 min
Base peak: 357.1894
Precursor m/z: 277.2173
Precursor type: [M-H]-
Precursor intensity: 105920
m/z	relative intensity	assigned
83.0489	8	C5H7O-
91.0534	8	C7H7-
97.0671	11	C6H9O-
101.0586	5	C5H9O2-
140.0855	5	C8H12O2-
145.0671	5	C10H9O-
148.0863	6	C10H12O-
165.1296	6	C11H17O-
205.1965	3	C15H25-
233.2259	20	C17H29-
239.1839	1	C18H23-
257.1881	2	C18H25O-
259.2047	8	C18H27O-
275.1991	13	C18H27O2-
277.2172	999	C18H29O2-
