Mass spectrum: 1-(9Z-octadecenoyl)-sn-glycero-3-phosphoserine; LC-ESI-QTOF; MS2; CE: 20eV; R=7000; [M-H]-
Name: 1-(9Z-octadecenoyl)-sn-glycero-3-phosphoserine
Name: (2S)-2-amino-3-[hydroxy-[(2R)-2-hydroxy-3-[(Z)-octadec-9-enoyl]oxypropoxy]phosphoryl]oxypropanoic acid
Formula: C24H46NO9P
Exact mass: 523.2910
SMILES: [H][C@@](O)(COC(=O)CCCCCCC\C=C/CCCCCCCC)COP(O)(=O)OC[C@]([H])(N)C(O)=O
InChI: InChI=1S/C24H46NO9P/c1-2-3-4-5-6-7-8-9-10-11-12-13-14-15-16-17-23(27)32-18-21(26)19-33-35(30,31)34-20-22(25)24(28)29/h9-10,21-22,26H,2-8,11-20,25H2,1H3,(H,28,29)(H,30,31)/b10-9-/t21-,22+/m1/s1
Instrument: Agilent 6560 QTOF
Instrument type: LC-ESI-QTOF
Ms type: MS2
Ion mode: NEGATIVE
Ionization: ESI
Fragmentation mode: CID
Collision energy: 20 eV
Resolution: 7000
Column name: N/A
Retention time: 0.164 min
Base peak: 980.0164
Precursor m/z: 522.2837
Precursor type: [M-H]-
Precursor intensity: 65762
m/z	relative intensity	assigned
78.959	164	O3P-
96.9704	21	H2O4P-
113.0956	5	H18O4P-
122.2834	2	C3H38O3-
144.316	11	C3H45O2P-
152.9957	999	C3H6O5P-
153.9971	18	C10H3P-
171.0069	35	C3H8O6P-
182.1005	3	C3H18O8-
216.9957	16	C10H4NO3P-
226.3262	7	C10H45NOP-
321.3155	34	C22H41O-
417.2436	20	C24H36NO3P-
435.2521	426	C21H40O7P-
436.2551	90	C20H38NO9-
464.3049	8	C23H44O9-
