Mass spectrum: 2,4-Di-(2-ethylhexyl) trimellitate ; LC-ESI-QTOF; MS2; CE: 15eV; R=7000; [M-H]-
Name: 2,4-Di-(2-ethylhexyl) trimellitate 
Name: 2,4-bis(2-ethylhexoxycarbonyl)benzoic acid
Formula: C25H38O6
Exact mass: 434.2668
SMILES: CCCCC(CC)COC(=O)c1ccc(C(=O)O)c(C(=O)OCC(CC)CCCC)c1
InChI: InChI=1S/C25H38O6/c1-5-9-11-18(7-3)16-30-24(28)20-13-14-21(23(26)27)22(15-20)25(29)31-17-19(8-4)12-10-6-2/h13-15,18-19H,5-12,16-17H2,1-4H3,(H,26,27)
Instrument: Agilent 6560 QTOF
Instrument type: LC-ESI-QTOF
Ms type: MS2
Ion mode: NEGATIVE
Ionization: ESI
Fragmentation mode: CID
Collision energy: 15 eV
Resolution: 7000
Retention time: 0.150 min
Base peak: 433.2613
Precursor m/z: 433.2596
Precursor type: [M-H]-
Precursor intensity: 108378.1
m/z	relative intensity	assigned
76.0319	28	C6H4-
79.055	8	C6H7-
120.0199	18	C7H4O2-
121.0286	31	C7H5O2-
127.1122	113	C8H15O-
134.0363	8	C8H6O2-
149.024	8	C8H5O3-
177.0183	18	C9H5O4-
203.1447	18	C14H19O-
215.1429	32	C15H19O-
231.1364	23	C15H19O2-
233.1545	582	C15H21O2-
234.1592	24	C15H22O2-
259.1333	13	C16H19O3-
262.1579	53	C16H22O3-
263.1642	29	C16H23O3-
277.1448	266	C16H21O4-
278.1493	8	C16H22O4-
290.1523	589	C17H22O4-
291.1605	69	C17H23O4-
303.1228	11	C17H19O5-
345.2825	34	C23H37O2-
361.2735	42	C23H37O3-
387.2529	8	C24H35O4-
389.2699	999	C24H37O4-
433.2616	93	C25H37O6-
