Mass spectrum: 5-Chlorobenzotriazole; LC-ESI-QTOF; MS2; CE: 10eV; R=7000; [M+H]+
Name: 5-Chlorobenzotriazole
Name: 5-chloro-2H-benzotriazole
Formula: C6H4ClN3
Exact mass: 153.0094
SMILES: C1=CC2=NNN=C2C=C1Cl
InChI: InChI=1S/C6H4ClN3/c7-4-1-2-5-6(3-4)9-10-8-5/h1-3H,(H,8,9,10)
Instrument: Agilent 6560 QTOF
Instrument type: LC-ESI-QTOF
Ms type: MS2
Ion mode: POSITIVE
Ionization: ESI
Fragmentation mode: CID
Collision energy: 10 eV
Resolution: 7000
Retention time: 0.179 min
Base peak: 154.0166
Precursor m/z: 154.0167
Precursor type: [M+H]+
Precursor intensity: 13544.58
m/z	relative intensity	assigned
63.0232	71	C5H3+
72.9848	25	C3H2Cl+
90.0341	101	C6H4N+
91.0412	35	C6H5N+
98.9992	108	C5H4Cl+
126.0101	44	C6H5ClN+
154.0157	999	C6H5ClN3+
