Mass spectrum: Cortisol; LC-ESI-QTOF; MS2; CE: 10eV; R=7000; [M+CH3COO]-
Name: Cortisol
Name: Hydrocortisone
Name: (8S,9S,10R,11S,13S,14S,17R)-11,17-dihydroxy-17-(2-hydroxyacetyl)-10,13-dimethyl-2,6,7,8,9,11,12,14,15,16-decahydro-1H-cyclopenta[a]phenanthren-3-one
Formula: C21H30O5
Exact mass: 362.2093
SMILES: C[C@]12CCC(=O)C=C1CC[C@@H]3[C@@H]2[C@H](C[C@]4([C@H]3CC[C@@]4(C(=O)CO)O)C)O
InChI: InChI=1S/C21H30O5/c1-19-7-5-13(23)9-12(19)3-4-14-15-6-8-21(26,17(25)11-22)20(15,2)10-16(24)18(14)19/h9,14-16,18,22,24,26H,3-8,10-11H2,1-2H3/t14-,15-,16-,18+,19-,20-,21-/m0/s1
Instrument: Agilent 6560 QTOF
Instrument type: LC-ESI-QTOF
Ms type: MS2
Ion mode: NEGATIVE
Ionization: ESI
Fragmentation mode: CID
Collision energy: 10 eV
Resolution: 7000
Column name: N/A
Retention time: 0.166 min
Base peak: 331.1923
Precursor m/z: 421.2232
Precursor type: [M+CH3COO]-
Precursor intensity: 325542
m/z	relative intensity	assigned
125.0602	8	C7H9O2-
189.0921	11	C12H13O2-
257.9976	3	C16H2O4-
282.1262	13	C18H18O3-
297.1501	22	C19H21O3-
298.1511	2	C19H22O3-
301.1804	5	C19H25O3-
313.1757	2	C20H25O3-
315.1594	13	C19H23O4-
329.1016	2	C18H17O6-
329.194	1	C17H29O6-
331.192	999	C20H27O4-
332.1945	117	C20H28O4-
339.1736	1	C18H27O6-
341.0707	1	C18H13O7-
341.0965	1	C19H17O6-
343.1938	10	C21H27O4-
344.1876	1	C17H28O7-
361.1997	6	C21H29O5-
377.2253	1	C22H33O5-
421.2277	8	C23H33O7-
