Mass spectrum: Acetyltriethyl citrate; LC-ESI-QTOF; MS2; CE: 5eV; R=7000; [M+Na]+
Name: Acetyltriethyl citrate
Name: Acetyl triethyl citrate
Name: triethyl 2-acetyloxypropane-1,2,3-tricarboxylate
Formula: C14H22O8
Exact mass: 318.1315
SMILES: CCOC(=O)CC(CC(=O)OCC)(C(=O)OCC)OC(=O)C
InChI: InChI=1S/C14H22O8/c1-5-19-11(16)8-14(22-10(4)15,13(18)21-7-3)9-12(17)20-6-2/h5-9H2,1-4H3
Instrument: Agilent 6560 QTOF
Instrument type: LC-ESI-QTOF
Ms type: MS2
Ion mode: POSITIVE
Ionization: ESI
Fragmentation mode: CID
Collision energy: 5 eV
Resolution: 7000
Retention time: 0.147 min
Base peak: 341.1239
Precursor m/z: 341.1207
Precursor type: [M+Na]+
Precursor intensity: 965882.79
m/z	relative intensity	assigned
225.0739	2	C9H14NaO5+
281.0999	57	C12H18NaO6+
282.104	4	C12H19NaO6+
299.1097	1	C12H20NaO7+
313.088	1	C12H18NaO8+
341.1211	999	C14H22NaO8+
