Mass spectrum: ASPARAGINE; LC-ESI-QTOF; MS2; CE: 40eV; R=5000; [M+H]+
Name: ASPARAGINE
Name: (2S)-2,4-diamino-4-oxobutanoic acid
Formula: C4H8N2O3
Exact mass: 132.0535
SMILES: N[C@@H](CC(N)=O)C(O)=O
InChI: InChI=1S/C4H8N2O3/c5-2(4(8)9)1-3(6)7/h2H,1,5H2,(H2,6,7)(H,8,9)/t2-/m0/s1
Instrument: Agilent 6530 QTOF
Instrument type: LC-ESI-QTOF
Ms type: MS2
Ion mode: POSITIVE
Ionization: ESI
Fragmentation mode: CID
Collision energy: 40 eV
Resolution: 5000
Column name: N/A
Retention time: 0.215 min
Base peak: 121.0508
Precursor m/z: 133.0608
Precursor type: [M+H]+
Precursor intensity: 14906
m/z	relative intensity	assigned
43.0183	999	C2H3O+
46.0277	259	CH4NO+
46.0659	30	C2H8N+
60.0458	202	C2H6NO+
70.0273	898	C3H4NO+
