Mass spectrum: 5,6-Dimethylbenzotriazole; LC-ESI-QTOF; MS2; CE: 25eV; R=7000; [M+H]+
Name: 5,6-Dimethylbenzotriazole
Name: 5,6-Dimethyl-1H-benzotriazole
Name: 5,6-dimethyl-2H-benzotriazole
Formula: C8H9N3
Exact mass: 147.0796
SMILES: CC1=CC2=NNN=C2C=C1C
InChI: InChI=1S/C8H9N3/c1-5-3-7-8(4-6(5)2)10-11-9-7/h3-4H,1-2H3,(H,9,10,11)
Instrument: Agilent 6560 QTOF
Instrument type: LC-ESI-QTOF
Ms type: MS2
Ion mode: POSITIVE
Ionization: ESI
Fragmentation mode: CID
Collision energy: 25 eV
Resolution: 7000
Retention time: 0.114 min
Base peak: 148.0869
Precursor m/z: 148.0869
Precursor type: [M+H]+
Precursor intensity: 129513.52
m/z	relative intensity	assigned
50.0149	4	C4H2+
51.0234	56	C4H3+
53.0388	25	C4H5+
54.0333	5	C3H4N+
56.0487	7	C3H6N+
65.0385	108	C5H5+
66.0469	9	C5H6+
67.0545	18	C5H7+
68.0492	5	C4H6N+
77.0389	999	C6H5+
78.0461	39	C6H6+
79.0408	10	C5H5N+
79.0537	41	C6H7+
80.0492	92	C5H6N+
81.0567	7	C5H7N+
91.0545	320	C7H7+
92.0492	17	C6H6N+
93.0572	76	C6H7N+
93.0696	166	C7H9+
94.0645	19	C6H8N+
102.0463	17	C8H6+
103.0549	65	C8H7+
104.0493	105	C7H6N+
105.0574	43	C7H7N+
117.0564	13	C8H7N+
118.0652	76	C8H8N+
119.0733	24	C8H9N+
120.0806	27	C8H10N+
148.0868	145	C8H10N3+
