Mass spectrum: Isodecyl diphenyl phosphate; LC-ESI-QTOF; MS2; CE: 35eV; R=7000; [M+H]+
Name: Isodecyl diphenyl phosphate
Name: 8-methylnonyl diphenyl phosphate
Formula: C22H31O4P
Exact mass: 390.1960
SMILES: CC(C)CCCCCCCOP(=O)(OC1=CC=CC=C1)OC2=CC=CC=C2
InChI: InChI=1S/C22H31O4P/c1-20(2)14-8-4-3-5-13-19-24-27(23,25-21-15-9-6-10-16-21)26-22-17-11-7-12-18-22/h6-7,9-12,15-18,20H,3-5,8,13-14,19H2,1-2H3
Instrument: Agilent 6560 QTOF
Instrument type: LC-ESI-QTOF
Ms type: MS2
Ion mode: POSITIVE
Ionization: ESI
Fragmentation mode: CID
Collision energy: 35 eV
Resolution: 7000
Retention time: 0.109 min
Base peak: 251.0463
Precursor m/z: 391.2033
Precursor type: [M+H]+
Precursor intensity: 73710.31
m/z	relative intensity	assigned
51.0236	58	C4H3+
57.0703	169	C4H9+
67.0537	12	C5H7+
71.0855	24	C5H11+
77.0384	999	C6H5+
95.0489	217	C6H7O+
100.0295	16	CH9O3P+
149.0242	14	C8H5O3+
151.0537	47	C12H7+
152.0611	288	C12H8+
153.0691	611	C12H9+
154.0722	53	C5H15O3P+
157.004	40	C6H6O3P+
168.0552	37	C5H13O4P+
175.0151	143	C6H8O4P+
215.0255	314	C12H8O2P+
233.0353	129	C12H10O3P+
234.0406	25	C12H11O3P+
251.0461	886	C12H12O4P+
252.0489	56	C12H13O4P+
