Mass spectrum: Bis(2-butoxyethyl) 3?-hydroxy-2-butoxyethyl phosphate ; LC-ESI-QTOF; MS2; CE: 10eV; R=7000; [M+H]+
Name: Bis(2-butoxyethyl) 3?-hydroxy-2-butoxyethyl phosphate 
Name: Bis(2-butoxyethyl) 3-hydroxyl-2-butoxyethyl phosphate
Name: bis(2-butoxyethyl) 2-(3-hydroxybutoxy)ethyl phosphate
Formula: C18H39O8P
Exact mass: 414.2383
SMILES: CCCCOCCOP(=O)(OCCOCCCC)OCCOCCC(C)O
InChI: InChI=1S/C18H39O8P/c1-4-6-9-21-12-15-24-27(20,25-16-13-22-10-7-5-2)26-17-14-23-11-8-18(3)19/h18-19H,4-17H2,1-3H3
Instrument: Agilent 6560 QTOF
Instrument type: LC-ESI-QTOF
Ms type: MS2
Ion mode: POSITIVE
Ionization: ESI
Fragmentation mode: CID
Collision energy: 10 eV
Resolution: 7000
Retention time: 0.145 min
Base peak: 437.2308
Precursor m/z: 415.2455
Precursor type: [M+H]+
Precursor intensity: 430680.96
m/z	relative intensity	assigned
55.0547	386	C4H7+
57.0704	272	C4H9+
59.0496	73	C3H7O+
63.0441	13	C2H7O2+
69.0703	21	C5H9+
71.0494	61	C4H7O+
73.0652	24	C4H9O+
81.0701	56	C6H9+
83.0858	150	C6H11+
87.0436	4	C4H7O2+
89.0584	11	C4H9O2+
98.9844	135	H4O4P+
99.0815	9	C6H11O+
101.0961	110	C6H13O+
117.0911	7	C6H13O2+
119.1056	5	C6H15O2+
125	141	C2H6O4P+
143.0107	446	C2H8O5P+
144.0146	14	C9H5P+
145.1222	5	C8H17O2+
151.0145	5	C4H8O4P+
153.0296	11	C4H10O4P+
155.0101	29	C3H8O5P+
163.132	5	C8H19O3+
169.0267	50	C4H10O5P+
173.1545	4	C10H21O2+
181.0255	5	C5H10O5P+
187.0362	27	C4H12O6P+
197.0577	141	C6H14O5P+
199.0735	878	C6H16O5P+
200.077	22	C13H13P+
215.0679	44	C6H16O6P+
225.089	70	C8H18O5P+
241.0834	17	C8H18O6P+
243.0997	999	C8H20O6P+
244.1036	40	C15H17OP+
253.1226	9	C17H17O2+
255.0994	44	C9H20O6P+
259.0931	7	C8H20O7P+
297.1466	806	C12H26O6P+
298.1494	38	C12H27O6P+
299.1621	597	C12H28O6P+
300.1662	25	C12H29O6P+
315.1573	366	C12H28O7P+
316.1601	19	C12H29O7P+
325.1808	10	C14H30O6P+
343.1888	385	C14H32O7P+
344.1916	18	C14H33O7P+
355.1865	11	C15H32O7P+
359.1796	7	C14H32O8P+
397.2356	368	C18H38O7P+
398.2372	29	C18H39O7P+
415.2459	927	C18H40O8P+
