Mass spectrum: ADENOSINEMONOPHOSPHATE; LC-ESI-QTOF; MS2; CE: 20eV; R=5000; [M+H]+
Name: ADENOSINEMONOPHOSPHATE
Name: Adenosine monophosphate
Name: [(2R,3S,4R,5R)-5-(6-aminopurin-9-yl)-3,4-dihydroxyoxolan-2-yl]methyl dihydrogen phosphate
Formula: C10H14N5O7P
Exact mass: 347.0631
SMILES: NC1=C2N=CN([C@@H]3O[C@H](COP(O)(O)=O)[C@@H](O)[C@H]3O)C2=NC=N1
InChI: InChI=1S/C10H14N5O7P/c11-8-5-9(13-2-12-8)15(3-14-5)10-7(17)6(16)4(22-10)1-21-23(18,19)20/h2-4,6-7,10,16-17H,1H2,(H2,11,12,13)(H2,18,19,20)/t4-,6-,7-,10-/m1/s1
Instrument: Agilent 6530 QTOF
Instrument type: LC-ESI-QTOF
Ms type: MS2
Ion mode: POSITIVE
Ionization: ESI
Fragmentation mode: CID
Collision energy: 20 eV
Resolution: 5000
Column name: N/A
Retention time: 0.283 min
Base peak: 183.074
Precursor m/z: 348.0704
Precursor type: [M+H]+
Precursor intensity: 98375
m/z	relative intensity	assigned
69.0325	15	C2H3N3+
79.0541	13	C6H7+
86.0942	8	C2H14O3+
90.0682	1	H13NO2P+
94.0409	6	C6H6O+
96.0188	2	C3H2N3O+
97.0289	113	CH8NO2P+
109.0603	5	C2H9N2O3+
116.9974	9	C3H4NO2P+
119.0313	5	C2H5N3O3+
130.9822	2	C3HNO5+
136.0589	999	C2H8N4O3+
137.061	13	C4H12NO2P+
137.1195	3	C9H15N+
138.042	2	C6H6N2O2+
139.0691	1	H13NO7+
139.9896	1	C5H3NO2P+
142.1004	2	C8H14O2+
150.9553	1	CN2O5P+
157.087	1	C8H13O3+
160.9955	3	C4H3NO6+
163.0671	21	C10H12P+
166.9698	1	C10OP+
177.0784	10	C10H11NO2+
181.0479	3	C7H7N3O3+
190.0824	4	C2H15N4O4P+
207.0888	2	C5H14N5O2P+
208.0935	3	C6H14N3O5+
221.0273	2	C5H7N3O7+
247.9822	4	C10H2NO7+
250.0958	1	C10H12N5O3+
