Mass spectrum: {(Propane-2,2-diyl)bis[(4,1-phenylene)oxy]-2-hydroxypropane-3,1-diyl} bis(2-methylprop-2-enoate); LC-ESI-QTOF; MS2; CE: 40eV; R=7000; [M+NH4]+
Name: {(Propane-2,2-diyl)bis[(4,1-phenylene)oxy]-2-hydroxypropane-3,1-diyl} bis(2-methylprop-2-enoate)
Name: Silux
Name: [2-hydroxy-3-[4-[2-[4-[2-hydroxy-3-(2-methylprop-2-enoyloxy)propoxy]phenyl]propan-2-yl]phenoxy]propyl] 2-methylprop-2-enoate
Formula: C29H36O8
Exact mass: 512.2410
SMILES: CC(=C)C(=O)OCC(O)COC1=CC=C(C=C1)C(C)(C)C1=CC=C(OCC(O)COC(=O)C(C)=C)C=C1
InChI: InChI=1S/C29H36O8/c1-19(2)27(32)36-17-23(30)15-34-25-11-7-21(8-12-25)29(5,6)22-9-13-26(14-10-22)35-16-24(31)18-37-28(33)20(3)4/h7-14,23-24,30-31H,1,3,15-18H2,2,4-6H3
Instrument: Agilent 6560 QTOF
Instrument type: LC-ESI-QTOF
Ms type: MS2
Ion mode: POSITIVE
Ionization: ESI
Fragmentation mode: CID
Collision energy: 40 eV
Resolution: 7000
Column name: ZORBAX Extend-C18 3.5um, 2.1x50mm, Agilent Technologies
Retention time: 3.791 min
Base peak: 530.2827
Precursor m/z: 530.2748
Precursor type: [M+NH4]+
Precursor intensity: 346333.63
m/z	relative intensity	assigned
57.0341	209	C3H5O+
59.05	66	C3H7O+
69.0342	887	C4H5O+
77.0393	2	C6H5+
79.0551	7	C6H7+
87.0445	235	C4H7O2+
91.0545	13	C7H7+
95.0495	26	C6H7O+
105.0312	3	C7H5O+
105.0696	4	C8H9+
107.0492	134	C7H7O+
115.0553	9	C9H7+
117.0704	24	C9H9+
119.0502	6	C8H7O+
129.0695	7	C10H9+
130.0778	8	C10H10+
131.0493	4	C9H7O+
131.0852	6	C10H11+
133.0644	11	C9H9O+
135.0804	920	C9H11O+
136.0835	30	CH14NO6+
143.0718	999	C10H9N+
145.0649	32	C10H9O+
145.1011	11	C11H13+
147.0805	12	C10H11O+
149.0944	3	C10H13O+
155.0849	3	C12H11+
157.0638	2	C11H9O+
158.073	4	C11H10O+
161.0955	54	C11H13O+
171.0773	3	C12H11O+
173.0955	511	C12H13O+
174.0985	19	C4H16NO6+
183.0778	2	C13H11O+
185.0591	3	C12H9O2+
187.1094	3	C13H15O+
191.1058	73	C12H15O2+
192.1089	3	C4H18NO7+
209.1157	89	C12H17O3+
211.0934	6	C11H15O4+
221.0931	3	C16H13O+
234.1033	9	C17H14O+
236.1146	3	C9H18NO6+
249.1264	5	C18H17O+
259.1318	8	C16H19O3+
267.1363	4	C18H19O2+
279.1339	3	C11H21NO7+
293.1549	5	C20H21O2+
294.1636	2	C20H22O2+
305.149	6	C13H23NO7+
326.1515	4	C20H22O4+
339.1597	6	C21H23O4+
