Mass spectrum: Prostaglandin A1; LC-ESI-QTOF; MS2; CE: 10eV; R=7000; [M-H]-
Name: Prostaglandin A1
Name: 7-[(1R,2S)-2-[(E,3S)-3-hydroxyoct-1-enyl]-5-oxocyclopent-3-en-1-yl]heptanoic acid
Formula: C20H32O4
Exact mass: 336.2301
SMILES: CCCCC[C@@H](/C=C/[C@H]1C=CC(=O)[C@@H]1CCCCCCC(=O)O)O
InChI: InChI=1S/C20H32O4/c1-2-3-6-9-17(21)14-12-16-13-15-19(22)18(16)10-7-4-5-8-11-20(23)24/h12-18,21H,2-11H2,1H3,(H,23,24)/b14-12+/t16-,17-,18+/m0/s1
Instrument: Agilent 6560 QTOF
Instrument type: LC-ESI-QTOF
Ms type: MS2
Ion mode: NEGATIVE
Ionization: ESI
Fragmentation mode: CID
Collision energy: 10 eV
Resolution: 7000
Column name: N/A
Retention time: 0.164 min
Base peak: 317.2121
Precursor m/z: 335.2228
Precursor type: [M-H]-
Precursor intensity: 492623
m/z	relative intensity	assigned
97.0647	5	C6H9O-
106.0409	1	C7H6O-
107.0507	2	C7H7O-
107.0859	3	C8H11-
109.0643	20	C7H9O-
113.0958	37	C7H13O-
121.0684	2	C8H9O-
123.0806	12	C8H11O-
125.0578	5	C7H9O2-
135.0786	1	C9H11O-
137.096	14	C9H13O-
149.0962	1	C10H13O-
162.1049	2	C11H14O-
163.1103	2	C11H15O-
165.1642	5	C12H21-
169.158	1	C11H21O-
171.1166	1	C13H15-
174.1039	2	C12H14O-
174.1373	1	C13H18-
177.1281	10	C12H17O-
181.1231	2	C11H17O2-
184.0912	1	C13H12O-
185.118	9	C10H17O3-
188.1202	1	C13H16O-
191.144	40	C13H19O-
193.162	3	C13H21O-
195.1359	2	C12H19O2-
197.1151	4	C11H17O3-
199.1125	4	C14H15O-
202.1354	2	C14H18O-
203.146	1	C14H19O-
209.1183	48	C12H17O3-
215.142	1	C15H19O-
217.1198	3	C14H17O2-
218.1273	2	C14H18O2-
219.176	17	C15H23O-
220.1812	4	C15H24O-
221.1175	66	C13H17O3-
223.1332	28	C13H19O3-
235.1337	396	C14H19O3-
236.1766	3	C15H24O2-
237.1504	2	C14H21O3-
245.1871	5	C17H25O-
273.2221	195	C19H29O-
274.2242	23	C19H30O-
275.2017	4	C18H27O2-
299.201	4	C20H27O2-
317.2122	999	C20H29O3-
318.215	101	C20H30O3-
319.2233	1	C20H31O3-
335.2218	228	C20H31O4-
