Mass spectrum: beta-Estradiol; LC-ESI-QTOF; MS2; CE: 20eV; R=7000; [M-H]-
Name: beta-Estradiol
Name: Estradiol
Name: (8R,9S,13S,14S,17S)-13-methyl-6,7,8,9,11,12,14,15,16,17-decahydrocyclopenta[a]phenanthrene-3,17-diol
Formula: C18H24O2
Exact mass: 272.1776
SMILES: C[C@]12CC[C@H]3[C@H]([C@@H]1CC[C@@H]2O)CCC4=C3C=CC(=C4)O
InChI: InChI=1S/C18H24O2/c1-18-9-8-14-13-5-3-12(19)10-11(13)2-4-15(14)16(18)6-7-17(18)20/h3,5,10,14-17,19-20H,2,4,6-9H2,1H3/t14-,15-,16+,17+,18+/m1/s1
Instrument: Agilent 6560 QTOF
Instrument type: LC-ESI-QTOF
Ms type: MS2
Ion mode: NEGATIVE
Ionization: ESI
Fragmentation mode: CID
Collision energy: 20 eV
Resolution: 7000
Column name: N/A
Retention time: 0.190 min
Base peak: 223.0276
Precursor m/z: 271.1704
Precursor type: [M-H]-
Precursor intensity: 22044
m/z	relative intensity	assigned
123.0821	53	C8H11O-
142.0394	40	C10H6O-
183.08	44	C13H11O-
239.1401	17	C17H19O-
271.1689	999	C18H23O2-
