Mass spectrum: Cortisol; LC-ESI-QTOF; MS2; CE: 20eV; R=7000; [M+CH3COO]-
Name: Cortisol
Name: Hydrocortisone
Name: (8S,9S,10R,11S,13S,14S,17R)-11,17-dihydroxy-17-(2-hydroxyacetyl)-10,13-dimethyl-2,6,7,8,9,11,12,14,15,16-decahydro-1H-cyclopenta[a]phenanthren-3-one
Formula: C21H30O5
Exact mass: 362.2093
SMILES: C[C@]12CCC(=O)C=C1CC[C@@H]3[C@@H]2[C@H](C[C@]4([C@H]3CC[C@@]4(C(=O)CO)O)C)O
InChI: InChI=1S/C21H30O5/c1-19-7-5-13(23)9-12(19)3-4-14-15-6-8-21(26,17(25)11-22)20(15,2)10-16(24)18(14)19/h9,14-16,18,22,24,26H,3-8,10-11H2,1-2H3/t14-,15-,16-,18+,19-,20-,21-/m0/s1
Instrument: Agilent 6560 QTOF
Instrument type: LC-ESI-QTOF
Ms type: MS2
Ion mode: NEGATIVE
Ionization: ESI
Fragmentation mode: CID
Collision energy: 20 eV
Resolution: 7000
Column name: N/A
Retention time: 0.148 min
Base peak: 980.0164
Precursor m/z: 421.2232
Precursor type: [M+CH3COO]-
Precursor intensity: 210568
m/z	relative intensity	assigned
107.0492	4	C7H7O-
111.0441	4	C6H7O2-
123.0815	8	C8H11O-
125.0604	33	C7H9O2-
135.0463	1	C8H7O2-
189.0916	58	C12H13O2-
198.168	2	C5H26O7-
252.1154	4	C17H16O2-
267.9657	1	C13O7-
279.1428	7	C12H23O7-
279.1729	1	C20H23O-
282.1239	64	C18H18O3-
283.1287	7	C18H19O3-
283.2175	1	C13H31O6-
287.1667	6	C18H23O3-
297.1489	211	C19H21O3-
298.1536	24	C19H22O3-
298.2093	2	C17H30O4-
300.1701	1	C19H24O3-
301.1797	20	C19H25O3-
313.1797	10	C20H25O3-
315.1606	91	C19H23O4-
316.1618	22	C19H24O4-
329.0871	2	C21H13O4-
329.1606	2	C16H25O7-
329.232	2	C18H33O5-
330.0318	1	C23H6O3-
331.1912	999	C20H27O4-
332.195	142	C20H28O4-
333.2277	1	C17H33O6-
339.2013	3	C22H27O3-
340.9686	1	C19HO7-
343.1934	24	C21H27O4-
344.1892	4	C17H28O7-
