Mass spectrum: CYTOSINE; LC-ESI-QTOF; MS2; CE: 20eV; R=5000; [M+H]+
Name: CYTOSINE
Name: 6-amino-1H-pyrimidin-2-one
Formula: C4H5N3O
Exact mass: 111.0433
SMILES: NC1=CC=NC(=O)N1
InChI: InChI=1S/C4H5N3O/c5-3-1-2-6-4(8)7-3/h1-2H,(H3,5,6,7,8)
Instrument: Agilent 6530 QTOF
Instrument type: LC-ESI-QTOF
Ms type: MS2
Ion mode: POSITIVE
Ionization: ESI
Fragmentation mode: CID
Collision energy: 20 eV
Resolution: 5000
Column name: N/A
Retention time: 0.636 min
Base peak: 121.0508
Precursor m/z: 112.0505
Precursor type: [M+H]+
Precursor intensity: 252081
m/z	relative intensity	assigned
40.0182	187	C2H2N+
42.0341	215	C2H4N+
44.0136	7	CH2NO+
52.0179	260	C3H2N+
55.0159	5	CHN3+
67.0285	231	C3H3N2+
68.0123	246	C3H2NO+
69.0437	215	C3H5N2+
71.0243	49	C2H3N2O+
85.0384	17	C3H5N2O+
94.0387	270	C4H4N3+
95.0231	999	C4H3N2O+
112.0484	560	C4H6N3O+
