Mass spectrum: Tributyl acetylcitrate; LC-ESI-QTOF; MS2; CE: 5eV; R=7000; [M+H]+
Name: Tributyl acetylcitrate
Name: Acetyl tributyl citrate
Name: tributyl 2-acetyloxypropane-1,2,3-tricarboxylate
Formula: C20H34O8
Exact mass: 402.2254
SMILES: CCCCOC(=O)CC(CC(=O)OCCCC)(C(=O)OCCCC)OC(=O)C
InChI: InChI=1S/C20H34O8/c1-5-8-11-25-17(22)14-20(28-16(4)21,19(24)27-13-10-7-3)15-18(23)26-12-9-6-2/h5-15H2,1-4H3
Instrument: Agilent 6560 QTOF
Instrument type: LC-ESI-QTOF
Ms type: MS2
Ion mode: POSITIVE
Ionization: ESI
Fragmentation mode: CID
Collision energy: 5 eV
Resolution: 7000
Retention time: 0.110 min
Base peak: 425.2143
Precursor m/z: 403.2326
Precursor type: [M+H]+
Precursor intensity: 128518.16
m/z	relative intensity	assigned
57.0698	51	C4H9+
61.0285	55	C2H5O2+
68.998	19	C3HO2+
111.0075	72	C5H3O3+
129.0182	999	C5H5O4+
130.023	33	C5H6O4+
139.0021	643	C6H3O4+
157.013	735	C6H5O5+
158.0147	40	C13H2+
185.0804	929	C9H13O4+
186.0845	85	C9H14O4+
213.0747	335	C10H13O5+
217.0335	400	C8H9O7+
218.0346	13	C15H6O2+
259.1534	635	C13H23O5+
260.1587	56	C20H20+
269.1374	113	C14H21O5+
270.1414	12	C14H22O5+
273.0961	384	C12H17O7+
274.0993	35	C19H14O2+
287.1444	18	C14H23O6+
329.1593	534	C16H25O7+
330.1625	24	C16H26O7+
361.2215	313	C18H33O7+
362.2235	59	C18H34O7+
403.2319	126	C20H35O8+
