Mass spectrum: 1,2-diheptadecanoyl-sn-glycero-3-phosphocholine; LC-ESI-QTOF; MS2; CE: 20eV; R=7000; [M+H]+
Name: 1,2-diheptadecanoyl-sn-glycero-3-phosphocholine
Name: [(2R)-2,3-di(heptadecanoyloxy)propyl] 2-(trimethylazaniumyl)ethyl phosphate
Formula: C42H84NO8P
Exact mass: 761.5935
SMILES: CCCCCCCCCCCCCCCCC(=O)OC[C@H](COP(=O)([O-])OCC[N+](C)(C)C)OC(=O)CCCCCCCCCCCCCCCC
InChI: InChI=1S/C42H84NO8P/c1-6-8-10-12-14-16-18-20-22-24-26-28-30-32-34-41(44)48-38-40(39-50-52(46,47)49-37-36-43(3,4)5)51-42(45)35-33-31-29-27-25-23-21-19-17-15-13-11-9-7-2/h40H,6-39H2,1-5H3/t40-/m1/s1
Instrument: Agilent 6560 QTOF
Instrument type: LC-ESI-QTOF
Ms type: MS2
Ion mode: POSITIVE
Ionization: ESI
Fragmentation mode: CID
Collision energy: 20 eV
Resolution: 7000
Column name: Direct injection
Retention time: 0.157 min
Base peak: 762.6033
Precursor m/z: 762.6007
Precursor type: [M+H]+
Precursor intensity: 386956
m/z	relative intensity	assigned
71.071	2	CH11O3+
73.0646	1	C4H9O+
80.9739	1	H2O3P+
86.0963	36	C5H12N+
98.9847	5	H4O4P+
104.1071	4	C5H14NO+
124.9987	12	C2H6O4P+
184.0735	999	C5H15NO4P+
185.0754	24	C9H14O2P+
283.225	1	C10H36O6P+
492.3396	3	C32H47NOP+
510.3536	2	C29H50O7+
579.5353	1	C33H74NO4P+
762.6013	206	C42H85NO8P+
