Mass spectrum: Lithocholic acid; LC-ESI-QTOF; MS2; CE: 20eV; R=7000; [M-H]-
Name: Lithocholic acid
Name: 3a-Hydroxycholanoic acid
Name: (4R)-4-[(3R,8R,9S,10S,13R,14S,17R)-3-hydroxy-10,13-dimethyl-2,3,4,5,6,7,8,9,11,12,14,15,16,17-tetradecahydro-1H-cyclopenta[a]phenanthren-17-yl]pentanoic acid
Formula: C24H40O3
Exact mass: 376.2977
SMILES: [H][C@@]12CC[C@H]([C@H](C)CCC(O)=O)[C@@]1(C)CC[C@@]1([H])[C@@]2([H])CCC2C[C@H](O)CC[C@]12C
InChI: InChI=1S/C24H40O3/c1-15(4-9-22(26)27)19-7-8-20-18-6-5-16-14-17(25)10-12-23(16,2)21(18)11-13-24(19,20)3/h15-21,25H,4-14H2,1-3H3,(H,26,27)/t15-,16?,17-,18+,19-,20+,21+,23+,24-/m1/s1
Instrument: Agilent 6560 QTOF
Instrument type: LC-ESI-QTOF
Ms type: MS2
Ion mode: NEGATIVE
Ionization: ESI
Fragmentation mode: CID
Collision energy: 20 eV
Resolution: 7000
Column name: N/A
Retention time: 0.143 min
Base peak: 357.1913
Precursor m/z: 375.2905
Precursor type: [M-H]-
Precursor intensity: 352732
m/z	relative intensity	assigned
115.0752	2	C6H11O2-
211.0737	1	C14H11O2-
212.0795	5	C14H12O2-
221.152	3	C14H21O2-
256.2404	1	C16H32O2-
275.1654	1	C17H23O3-
306.197	1	C22H26O-
375.2918	999	C24H39O3-
