Mass spectrum: Cortisol; LC-ESI-QTOF; MS2; CE: 40eV; R=7000; [M+H]+
Name: Cortisol
Name: Hydrocortisone
Name: (8S,9S,10R,11S,13S,14S,17R)-11,17-dihydroxy-17-(2-hydroxyacetyl)-10,13-dimethyl-2,6,7,8,9,11,12,14,15,16-decahydro-1H-cyclopenta[a]phenanthren-3-one
Formula: C21H30O5
Exact mass: 362.2093
SMILES: C[C@]12CCC(=O)C=C1CC[C@@H]3[C@@H]2[C@H](C[C@]4([C@H]3CC[C@@]4(C(=O)CO)O)C)O
InChI: InChI=1S/C21H30O5/c1-19-7-5-13(23)9-12(19)3-4-14-15-6-8-21(26,17(25)11-22)20(15,2)10-16(24)18(14)19/h9,14-16,18,22,24,26H,3-8,10-11H2,1-2H3/t14-,15-,16-,18+,19-,20-,21-/m0/s1
Instrument: Agilent 6560 QTOF
Instrument type: LC-ESI-QTOF
Ms type: MS2
Ion mode: POSITIVE
Ionization: ESI
Fragmentation mode: CID
Collision energy: 40 eV
Resolution: 7000
Column name: Direct injection
Retention time: 0.181 min
Base peak: 363.2175
Precursor m/z: 363.2166
Precursor type: [M+H]+
Precursor intensity: 112236
m/z	relative intensity	assigned
77.0386	170	C6H5+
79.0536	244	C6H7+
81.0692	133	C6H9+
83.0494	345	C5H7O+
91.0536	452	C7H7+
93.0691	164	C7H9+
94.0619	35	C3H10O3+
95.0833	91	C7H11+
97.0642	308	C6H9O+
105.0695	653	C8H9+
106.0759	33	C8H10+
107.0468	45	C7H7O+
107.0841	142	C8H11+
109.0662	187	C7H9O+
111.081	43	C7H11O+
115.0527	54	C9H7+
117.0683	164	C9H9+
118.0779	26	C9H10+
119.0853	471	C9H11+
121.0648	999	C8H9O+
123.0789	95	C8H11O+
127.0536	20	C10H7+
128.0597	135	C10H8+
129.0693	65	C10H9+
130.0778	70	C10H10+
131.0466	32	C9H7O+
131.0837	198	C10H11+
133.102	47	C10H13+
135.0428	14	C8H7O2+
135.0811	80	C9H11O+
137.0947	14	C9H13O+
141.0683	160	C11H9+
143.0862	141	C11H11+
145.0998	188	C11H13+
146.0727	41	C10H10O+
146.1074	134	C11H14+
147.0798	85	C10H11O+
147.117	84	C11H15+
149.0947	17	C10H13O+
151.074	12	C9H11O2+
153.0713	131	C12H9+
155.0843	88	C12H11+
157.1006	136	C12H13+
158.1057	34	C12H14+
159.0803	71	C11H11O+
159.1165	63	C12H15+
161.1311	80	C12H17+
163.1107	87	C11H15O+
164.063	52	C13H8+
165.0935	29	C10H13O2+
166.079	62	C13H10+
167.0854	102	C13H11+
169.0992	54	C13H13+
170.1086	35	C13H14+
171.1152	56	C13H15+
173.0938	78	C12H13O+
174.1051	46	C12H14O+
175.1103	31	C12H15O+
180.0918	52	C14H12+
181.1005	144	C14H13+
182.1086	46	C14H14+
183.1146	65	C14H15+
184.1225	20	C14H16+
187.1106	25	C13H15O+
189.0655	20	C15H9+
189.1266	27	C13H17O+
191.0824	86	C15H11+
192.0943	48	C15H12+
195.1187	22	C15H15+
197.1301	26	C15H17+
198.1038	29	C14H14O+
199.1523	50	C8H23O5+
205.1024	112	C16H13+
207.0766	22	C15H11O+
211.1076	12	C15H15O+
211.1448	51	C16H19+
212.1164	33	C15H16O+
213.1276	25	C15H17O+
213.1596	20	C16H21+
222.0884	34	C12H14O4+
223.1068	23	C16H15O+
225.126	40	C16H17O+
227.1426	103	C16H19O+
231.1373	23	C15H19O2+
232.1244	34	C18H16+
233.1323	7	C18H17+
234.1026	61	C17H14O+
234.1432	21	C18H18+
235.109	58	C17H15O+
235.1467	21	C18H19+
238.1338	20	C17H18O+
238.153	6	C14H22O3+
239.1015	32	C16H15O2+
239.1425	22	C17H19O+
241.1558	47	C17H21O+
242.1046	29	C19H14+
247.1484	11	C19H19+
251.1404	57	C18H19O+
253.1557	88	C18H21O+
261.1641	15	C20H21+
