Mass spectrum: Di-n-butyl sebacate; LC-ESI-QTOF; MS2; CE: 30eV; R=7000; [M+H]+
Name: Di-n-butyl sebacate
Name: Dibutyl sebacate
Name: dibutyl decanedioate
Formula: C18H34O4
Exact mass: 314.2457
SMILES: CCCCOC(=O)CCCCCCCCC(=O)OCCCC
InChI: InChI=1S/C18H34O4/c1-3-5-15-21-17(19)13-11-9-7-8-10-12-14-18(20)22-16-6-4-2/h3-16H2,1-2H3
Instrument: Agilent 6560 QTOF
Instrument type: LC-ESI-QTOF
Ms type: MS2
Ion mode: POSITIVE
Ionization: ESI
Fragmentation mode: CID
Collision energy: 30 eV
Resolution: 7000
Retention time: 0.110 min
Base peak: 337.235
Precursor m/z: 315.253
Precursor type: [M+H]+
Precursor intensity: 79847.55
m/z	relative intensity	assigned
55.0187	41	C3H3O+
55.0545	636	C4H7+
57.0335	67	C3H5O+
57.0703	128	C4H9+
59.0505	20	C3H7O+
67.0547	229	C5H7+
69.07	999	C5H9+
71.0498	38	C4H7O+
77.0372	21	C6H5+
79.0542	260	C6H7+
81.0698	396	C6H9+
83.049	161	C5H7O+
83.0864	28	C6H11+
85.0653	21	C5H9O+
91.0536	48	C7H7+
93.0699	577	C7H9+
95.0854	263	C7H11+
97.0645	216	C6H9O+
97.1013	249	C7H13+
99.081	28	C6H11O+
101.0596	16	C5H9O2+
105.0685	17	C8H9+
107.049	23	C7H7O+
107.0854	72	C8H11+
111.1167	51	C8H15+
119.0854	22	C9H11+
121.1014	415	C9H13+
131.0846	47	C10H11+
139.1116	136	C9H15O+
149.0962	21	C10H13O+
