Mass spectrum: Triphenyl phosphate; LC-ESI-QTOF; MS2; CE: 30eV; R=7000; [M+H]+
Name: Triphenyl phosphate
Formula: C18H15O4P
Exact mass: 326.0708
SMILES: C1=CC=C(C=C1)OP(=O)(OC2=CC=CC=C2)OC3=CC=CC=C3
InChI: InChI=1S/C18H15O4P/c19-23(20-16-10-4-1-5-11-16,21-17-12-6-2-7-13-17)22-18-14-8-3-9-15-18/h1-15H
Instrument: Agilent 6560 QTOF
Instrument type: LC-ESI-QTOF
Ms type: MS2
Ion mode: POSITIVE
Ionization: ESI
Fragmentation mode: CID
Collision energy: 30 eV
Resolution: 7000
Retention time: 0.147 min
Base peak: 349.0596
Precursor m/z: 327.0781
Precursor type: [M+H]+
Precursor intensity: 37641.93
m/z	relative intensity	assigned
51.0234	39	C4H3+
57.0704	25	C4H9+
65.038	32	C5H5+
77.0387	999	C6H5+
91.053	38	H12O3P+
95.0483	38	C6H7O+
138.9934	82	C6H4O2P+
151.0543	81	C12H7+
152.0615	614	C12H8+
153.0687	547	C5H14O3P+
168.0566	205	C12H8O+
169.0603	49	C5H14O4P+
175.0138	59	C6H8O4P+
202.0797	26	C16H10+
215.0249	438	C12H8O2P+
216.0289	28	C12H9O2P+
228.0923	118	C18H12+
229.0969	46	C18H13+
233.0366	103	C12H10O3P+
244.0891	34	C18H12O+
251.0473	257	C12H12O4P+
252.0498	28	C12H13O4P+
327.0764	42	C18H16O4P+
