Mass spectrum: 11-Deoxycortisol; LC-ESI-QTOF; MS2; CE: 40eV; R=7000; [M+H]+
Name: 11-Deoxycortisol
Name: Reichsteins Substance S
Name: 17-hydroxy-17-(2-hydroxyacetyl)-10,13-dimethyl-2,6,7,8,9,11,12,14,15,16-decahydro-1H-cyclopenta[a]phenanthren-3-one
Formula: C21H30O4
Exact mass: 346.2144
SMILES: CC12CCC(=O)C=C1CCC3C2CCC4(C3CCC4(C(=O)CO)O)C
InChI: InChI=1S/C21H30O4/c1-19-8-5-14(23)11-13(19)3-4-15-16(19)6-9-20(2)17(15)7-10-21(20,25)18(24)12-22/h11,15-17,22,25H,3-10,12H2,1-2H3
Instrument: Agilent 6560 QTOF
Instrument type: LC-ESI-QTOF
Ms type: MS2
Ion mode: POSITIVE
Ionization: ESI
Fragmentation mode: CID
Collision energy: 40 eV
Resolution: 7000
Column name: Direct injection
Retention time: 0.182 min
Base peak: 415.2125
Precursor m/z: 347.2217
Precursor type: [M+H]+
Precursor intensity: 68760
m/z	relative intensity	assigned
77.0386	75	C6H5+
79.054	266	C6H7+
81.0708	302	C6H9+
82.0414	37	C5H6O+
83.0494	137	C5H7O+
91.0565	82	C7H7+
94.0391	12	C6H6O+
95.0484	45	C6H7O+
95.0855	176	C7H11+
97.0647	999	C6H9O+
105.0711	125	C8H9+
107.0498	35	C7H7O+
107.0832	14	C8H11+
109.0647	906	C7H9O+
115.054	18	C9H7+
117.0679	32	C9H9+
119.0841	72	C9H11+
121.0669	91	C8H9O+
121.0998	45	C9H13+
123.0804	172	C8H11O+
128.0616	40	C10H8+
129.0676	37	C10H9+
131.0865	93	C10H11+
133.0636	50	C9H9O+
133.1005	68	C10H13+
142.0795	48	C11H10+
143.0859	44	C11H11+
144.0937	74	C11H12+
145.1016	84	C11H13+
147.0821	74	C10H11O+
147.1151	77	C11H15+
155.0854	105	C12H11+
157.0999	83	C12H13+
159.1164	101	C12H15+
161.0947	21	C11H13O+
163.1488	22	C12H19+
165.0687	13	C13H9+
167.0847	32	C13H11+
169.1017	46	C13H13+
171.1129	51	C13H15+
175.1497	27	C13H19+
177.1246	28	C12H17O+
179.0842	32	C14H11+
184.1228	30	C14H16+
185.1001	23	C13H13O+
185.1334	44	C14H17+
187.1462	25	C14H19+
195.117	49	C15H15+
198.1292	12	C11H18O3+
199.1465	18	C15H19+
209.1323	17	C16H17+
210.1353	20	C16H18+
213.1651	47	C16H21+
225.1276	51	C16H17O+
237.1641	68	C18H21+
255.1767	13	C18H23O+
