Mass spectrum: GUANINE; LC-ESI-QTOF; MS2; CE: 10eV; R=5000; [M+H]+
Name: GUANINE
Name: CID 764
Name: 2-amino-3,7-dihydropurin-6-one
Formula: C5H5N5O
Exact mass: 151.04941
SMILES: NC1=NC(=O)C2=C(N1)N=CN2
InChI: InChI=1S/C5H5N5O/c6-5-9-3-2(4(11)10-5)7-1-8-3/h1H,(H4,6,7,8,9,10,11)
Instrument: Agilent 6530 QTOF
Instrument type: LC-ESI-QTOF
Ms type: MS2
Ion mode: POSITIVE
Ionization: ESI
Fragmentation mode: CID
Collision energy: 10 eV
Resolution: 5000
Column name: N/A
Retention time: 0.257 min
Base peak: 121.0508
Precursor m/z: 152.0567
Precursor type: [M+H]+
Precursor intensity: 78586
m/z	relative intensity	assigned
53.0129	2	C2HN2+
55.0301	90	C2H3N2+
80.0236	38	C3H2N3+
81.0465	1	C4H5N2+
93.0077	37	C4HN2O+
110.035	361	C4H4N3O+
119.0335	7	C5H3N4+
135.029	727	C5H3N4O+
136.0373	4	C5H4N4O+
152.0553	999	C5H6N5O+
