Mass spectrum: Petroselinic acid; LC-ESI-QTOF; MS2; CE: 20eV; R=7000; [M-H]-
Name: Petroselinic acid
Name: (Z)-octadec-6-enoic acid
Formula: C18H34O2
Exact mass: 282.2559
SMILES: CCCCCCCCCCC/C=C\CCCCC(O)=O
InChI: InChI=1S/C18H34O2/c1-2-3-4-5-6-7-8-9-10-11-12-13-14-15-16-17-18(19)20/h12-13H,2-11,14-17H2,1H3,(H,19,20)/b13-12-
Instrument: Agilent 6560 QTOF
Instrument type: LC-ESI-QTOF
Ms type: MS2
Ion mode: NEGATIVE
Ionization: ESI
Fragmentation mode: CID
Collision energy: 20 eV
Resolution: 7000
Column name: N/A
Retention time: 0.142 min
Base peak: 281.2505
Precursor m/z: 281.2486
Precursor type: [M-H]-
Precursor intensity: 35848
m/z	relative intensity	assigned
71.0139	29	C3H3O2-
81.0352	18	C5H5O-
83.0503	130	C5H7O-
93.0327	27	C6H5O-
223.081	4	C15H11O2-
235.2107	19	C16H27O-
261.2204	11	C18H29O-
263.2396	42	C18H31O-
281.2497	999	C18H33O2-
