Mass spectrum: 1,2-dipentadecanoyl-sn-glycero-3-phospho-(1-sn-glycerol); LC-ESI-QTOF; MS2; CE: 40eV; R=7000; [M-H]-
Name: 1,2-dipentadecanoyl-sn-glycero-3-phospho-(1-sn-glycerol)
Name: 1,2-Dipentadecanoyl-sn-glycero-3-phosphoglycerol
Name: [(2R)-3-[2,3-dihydroxypropoxy(hydroxy)phosphoryl]oxy-2-pentadecanoyloxypropyl] pentadecanoate
Formula: C36H71O10P
Exact mass: 694.4785
SMILES: CCCCCCCCCCCCCCC(=O)OC[C@H](COP(=O)(O)OCC(CO)O)OC(=O)CCCCCCCCCCCCCC
InChI: InChI=1S/C36H71O10P/c1-3-5-7-9-11-13-15-17-19-21-23-25-27-35(39)43-31-34(32-45-47(41,42)44-30-33(38)29-37)46-36(40)28-26-24-22-20-18-16-14-12-10-8-6-4-2/h33-34,37-38H,3-32H2,1-2H3,(H,41,42)/t33?,34-/m1/s1
Instrument: Agilent 6560 QTOF
Instrument type: LC-ESI-QTOF
Ms type: MS2
Ion mode: NEGATIVE
Ionization: ESI
Fragmentation mode: CID
Collision energy: 40 eV
Resolution: 7000
Column name: N/A
Retention time: 0.144 min
Base peak: 980.0164
Precursor m/z: 693.4712
Precursor type: [M-H]-
Precursor intensity: 152820
m/z	relative intensity	assigned
78.9589	36	O3P-
95.2144	1	H32O2P-
96.9697	7	H2O4P-
110.2029	11	C7H26-
150.9781	2	C3H4O5P-
152.9957	72	C3H6O5P-
159.5026	3	CH67O5-
171.0068	31	C3H8O6P-
171.4238	2	H59O7-
227.0352	9	C13H7O4-
227.9735	1	C11O6-
241.2179	999	C15H29O2-
242.2207	73	C8H35O5P-
247.0192	3	C19H3O-
360.1556	3	C13H29O9P-
378.9686	1	C18H4O8P-
395.2233	7	C25H31O4-
414.3368	1	C24H46O5-
451.2437	20	C35H31-
456.3993	4	C17H61O10P-
469.2613	14	C28H37O6-
495.3802	5	C26H56O6P-
498.1246	1	C29H23O6P-
595.1974	1	C35H31O9-
693.4557	1	C36H70O10P-
