Mass spectrum: 2(E)-octenoyl-L-carnitine; LC-ESI-QTOF; MS2; CE: 40eV; R=7000; [M+H]+
Name: 2(E)-octenoyl-L-carnitine
Name: 3-oct-2-enoyloxy-4-(trimethylazaniumyl)butanoate
Formula: C15H27NO4
Exact mass: 285.1940
SMILES: CCCCCC=CC(=O)OC(CC(=O)[O-])C[N+](C)(C)C
InChI: InChI=1S/C15H27NO4/c1-5-6-7-8-9-10-15(19)20-13(11-14(17)18)12-16(2,3)4/h9-10,13H,5-8,11-12H2,1-4H3
Instrument: Agilent 6560 QTOF
Instrument type: LC-ESI-QTOF
Ms type: MS2
Ion mode: POSITIVE
Ionization: ESI
Fragmentation mode: CID
Collision energy: 40 eV
Resolution: 7000
Column name: Direct injection
Retention time: 0.155 min
Base peak: 286.2021
Precursor m/z: 286.2013
Precursor type: [M+H]+
Precursor intensity: 344493
m/z	relative intensity	assigned
73.0281	79	C3H5O2+
79.0549	7	C6H7+
81.0701	8	C6H9+
83.0859	2	C6H11+
85.0285	999	C4H5O2+
93.0678	1	C7H9+
98.0959	1	C6H12N+
144.0992	4	C7H14NO2+
