Mass spectrum: L-Proline standard; LC-ESI-QTOF; MS2; CE: 20eV; R=5000; [M+H]+
Name: L-Proline standard
Name: Proline
Name: (2S)-pyrrolidine-2-carboxylic acid
Formula: C5H9NO2
Exact mass: 115.0633
SMILES: C1C[C@H](NC1)C(=O)O
InChI: InChI=1S/C5H9NO2/c7-5(8)4-2-1-3-6-4/h4,6H,1-3H2,(H,7,8)/t4-/m0/s1
Instrument: Agilent 6530 QTOF
Instrument type: LC-ESI-QTOF
Ms type: MS2
Ion mode: POSITIVE
Ionization: ESI
Fragmentation mode: CID
Collision energy: 20 eV
Resolution: 5000
Column name: N/A
Retention time: 0.187 min
Base peak: 116.0709
Precursor m/z: 116.0706
Precursor type: [M+H]+
Precursor intensity: 2151714
m/z	relative intensity	assigned
41.0392	5	C3H5+
43.055	36	C3H7+
53.0384	1	C4H5+
68.0487	17	C4H6N+
70.0649	999	C4H8N+
116.0685	10	C5H10NO2+
