Mass spectrum: D-Glucose 6-phophate sodium salt; LC-ESI-QTOF; MS2; CE: 10eV; R=5000; [M+Na]+
Name: D-Glucose 6-phophate sodium salt
Name: Glucose 6-phosphate
Name: [(2R,3S,4S,5R)-3,4,5,6-tetrahydroxyoxan-2-yl]methyl dihydrogen phosphate
Formula: C6H13O9P
Exact mass: 260.0297
SMILES: C([C@@H]1[C@H]([C@@H]([C@H](C(O1)O)O)O)O)OP(=O)(O)O
InChI: InChI=1S/C6H13O9P/c7-3-2(1-14-16(11,12)13)15-6(10)5(9)4(3)8/h2-10H,1H2,(H2,11,12,13)/t2-,3-,4+,5-,6?/m1/s1
Instrument: Agilent 6530 QTOF
Instrument type: LC-ESI-QTOF
Ms type: MS2
Ion mode: POSITIVE
Ionization: ESI
Fragmentation mode: CID
Collision energy: 10 eV
Resolution: 5000
Column name: N/A
Retention time: 0.425 min
Base peak: 121.0508
Precursor m/z: 283.0189
Precursor type: [M+Na]+
Precursor intensity: 30848
m/z	relative intensity	assigned
64.978	1	H2O2P+
73.0047	2	C4H2Na+
84.0929	5	C6H12+
110.9585	3	C2HNaO2P+
120.9638	128	H3NaO4P+
167.019	21	C4H7O7+
169.0512	6	C6H10NaO4+
172.0457	9	C4H13O5P+
203.0575	17	C6H12NaO6+
204.9665	36	C5HO9+
208.9808	5	C3H7NaO7P+
215.0398	14	C5H11O9+
246.9928	289	C6H9NaO7P+
249.9843	9	C5H8NaO8P+
265.003	65	C6H11NaO8P+
283.0148	999	C6H13NaO9P+
