Mass spectrum: Margaric acid; LC-ESI-QTOF; MS2; CE: 20eV; R=7000; [M-CH3]-
Name: Margaric acid
Name: heptadecanoic acid
Formula: C17H34O2
Exact mass: 270.2559
SMILES: CCCCCCCCCCCCCCCCC(O)=O
InChI: InChI=1S/C17H34O2/c1-2-3-4-5-6-7-8-9-10-11-12-13-14-15-16-17(18)19/h2-16H2,1H3,(H,18,19)
Instrument: Agilent 6560 QTOF
Instrument type: LC-ESI-QTOF
Ms type: MS2
Ion mode: NEGATIVE
Ionization: ESI
Fragmentation mode: CID
Collision energy: 20 eV
Resolution: 7000
Column name: N/A
Retention time: 0.381 min
Base peak: 980.0164
Precursor m/z: 255.233
Precursor type: [M-CH3]-
Precursor intensity: 6251
m/z	relative intensity	assigned
255.2319	999	C16H31O2-
