Mass spectrum: Butyryl trihexyl citrate; LC-ESI-QTOF; MS2; CE: 50eV; R=7000; [M+Na]+
Name: Butyryl trihexyl citrate
Name: trihexyl 2-butanoyloxypropane-1,2,3-tricarboxylate
Formula: C28H50O8
Exact mass: 514.3506
SMILES: CCCCCCOC(=O)CC(CC(=O)OCCCCCC)(C(=O)OCCCCCC)OC(=O)CCC
InChI: InChI=1S/C28H50O8/c1-5-9-12-15-19-33-25(30)22-28(36-24(29)18-8-4,27(32)35-21-17-14-11-7-3)23-26(31)34-20-16-13-10-6-2/h5-23H2,1-4H3
Instrument: Agilent 6560 QTOF
Instrument type: LC-ESI-QTOF
Ms type: MS2
Ion mode: POSITIVE
Ionization: ESI
Fragmentation mode: CID
Collision energy: 50 eV
Resolution: 7000
Retention time: 0.147 min
Base peak: 537.3414
Precursor m/z: 537.3398
Precursor type: [M+Na]+
Precursor intensity: 5518.7
m/z	relative intensity	assigned
111.0069	691	C5H3O3+
148.0705	397	C4H13NaO4+
190.999	577	C9H3O5+
207.0304	999	C10H7O5+
248.9849	391	C14HO5+
