Mass spectrum: Bis(2-butoxyethyl) hydrogen phosphate; LC-ESI-QTOF; MS2; CE: 5eV; R=7000; [M+H]+
Name: Bis(2-butoxyethyl) hydrogen phosphate
Formula: C12H27O6P
Exact mass: 298.1545
SMILES: CCCCOCCOP(=O)(O)OCCOCCCC
InChI: InChI=1S/C12H27O6P/c1-3-5-7-15-9-11-17-19(13,14)18-12-10-16-8-6-4-2/h3-12H2,1-2H3,(H,13,14)
Instrument: Agilent 6560 QTOF
Instrument type: LC-ESI-QTOF
Ms type: MS2
Ion mode: POSITIVE
Ionization: ESI
Fragmentation mode: CID
Collision energy: 5 eV
Resolution: 7000
Retention time: 0.145 min
Base peak: 321.1445
Precursor m/z: 299.1618
Precursor type: [M+H]+
Precursor intensity: 22191.44
m/z	relative intensity	assigned
55.0547	153	C4H7+
57.0704	201	C4H9+
59.0494	30	C3H7O+
83.0854	135	C6H11+
98.9842	31	H4O4P+
101.096	118	C6H13O+
143.0091	62	C2H8O5P+
199.0723	652	C6H16O5P+
243.0981	48	C8H20O6P+
299.1626	999	C12H28O6P+
