Mass spectrum: 5,6-Dimethylbenzotriazole; LC-ESI-QTOF; MS2; CE: 50eV; R=7000; [M+H]+
Name: 5,6-Dimethylbenzotriazole
Name: 5,6-Dimethyl-1H-benzotriazole
Name: 5,6-dimethyl-2H-benzotriazole
Formula: C8H9N3
Exact mass: 147.0796
SMILES: CC1=CC2=NNN=C2C=C1C
InChI: InChI=1S/C8H9N3/c1-5-3-7-8(4-6(5)2)10-11-9-7/h3-4H,1-2H3,(H,9,10,11)
Instrument: Agilent 6560 QTOF
Instrument type: LC-ESI-QTOF
Ms type: MS2
Ion mode: POSITIVE
Ionization: ESI
Fragmentation mode: CID
Collision energy: 50 eV
Resolution: 7000
Retention time: 0.115 min
Base peak: 148.0872
Precursor m/z: 148.0869
Precursor type: [M+H]+
Precursor intensity: 42592.07
m/z	relative intensity	assigned
50.0159	94	C4H2+
51.0235	999	C4H3+
52.0186	56	C3H2N+
52.0311	56	C4H4+
53.0392	62	C4H5+
54.0334	17	C3H4N+
61.0069	13	C5H+
62.0153	14	C5H2+
63.0236	47	C5H3+
65.0385	204	C5H5+
66.0341	12	C4H4N+
66.0461	18	C5H6+
75.0225	18	C6H3+
77.0388	221	C6H5+
78.0346	130	C5H4N+
80.0499	19	C5H6N+
89.0387	11	C7H5+
91.0541	99	C7H7+
104.0496	38	C7H6N+
105.0449	14	C6H5N2+
