Mass spectrum: Triethylphosphate; LC-ESI-QTOF; MS2; CE: 35eV; R=7000; [M+H]+
Name: Triethylphosphate
Name: triethyl phosphate
Formula: C6H15O4P
Exact mass: 182.0708
SMILES: CCOP(=O)(OCC)OCC
InChI: InChI=1S/C6H15O4P/c1-4-8-11(7,9-5-2)10-6-3/h4-6H2,1-3H3
Instrument: Agilent 6560 QTOF
Instrument type: LC-ESI-QTOF
Ms type: MS2
Ion mode: POSITIVE
Ionization: ESI
Fragmentation mode: CID
Collision energy: 35 eV
Resolution: 7000
Retention time: 0.145 min
Base peak: 205.0603
Precursor m/z: 183.0781
Precursor type: [M+H]+
Precursor intensity: 20473.74
m/z	relative intensity	assigned
62.9636	122	O2P+
80.9737	999	H2O3P+
98.9841	618	H4O4P+
