Mass spectrum: Tricosylic acid; LC-ESI-QTOF; MS2; CE: 20eV; R=7000; [M-CH3]-
Name: Tricosylic acid
Name: tricosanoic acid
Formula: C23H46O2
Exact mass: 354.3498
SMILES: CCCCCCCCCCCCCCCCCCCCCCC(O)=O
InChI: InChI=1S/C23H46O2/c1-2-3-4-5-6-7-8-9-10-11-12-13-14-15-16-17-18-19-20-21-22-23(24)25/h2-22H2,1H3,(H,24,25)
Instrument: Agilent 6560 QTOF
Instrument type: LC-ESI-QTOF
Ms type: MS2
Ion mode: NEGATIVE
Ionization: ESI
Fragmentation mode: CID
Collision energy: 20 eV
Resolution: 7000
Column name: N/A
Retention time: 0.335 min
Base peak: 980.0164
Precursor m/z: 339.3269
Precursor type: [M-CH3]-
Precursor intensity: 360686
m/z	relative intensity	assigned
71.0869	790	C5H11-
75.3047	592	C3H39-
76.314	735	C3H40-
82.0413	741	C5H6O-
86.2607	735	C3H34O-
88.0321	740	C7H4-
96.1512	834	C5H20O-
96.2455	592	C4H32O-
98.2605	705	C4H34O-
104.1183	791	C6H16O-
114.2339	642	C7H30-
120.001	691	C10-
124.2741	592	C6H36O-
129.2254	650	C7H29O-
142.3223	839	C7H42O-
143.1067	642	C8H15O2-
144.2439	740	C8H32O-
148.1497	644	C8H20O2-
150.0695	642	C9H10O2-
157.1582	592	C10H21O-
157.3149	692	C7H41O2-
160.2403	642	C8H32O2-
163.059	802	C13H7-
163.1116	611	C11H15O-
164.2179	740	C10H28O-
175.2618	666	C9H35O2-
177.3199	999	C10H41O-
178.0451	790	C13H6O-
178.2258	691	C11H30O-
180.1885	692	C13H24-
193.1051	761	C15H13-
194.0342	691	C13H6O2-
196.0341	611	C16H4-
202.0755	735	C16H10-
212.0285	740	C16H4O-
214.2888	691	C12H38O2-
223.2103	778	C15H27O-
225.0952	790	C15H13O2-
226.0031	735	C16H2O2-
235.2479	735	C17H31-
237.0971	592	C16H13O2-
239.2352	790	C16H31O-
240.0065	592	C20-
244.1485	592	C16H20O2-
244.2388	992	C15H32O2-
246.0093	592	C19H2O-
246.147	802	C19H18-
247.0501	611	C20H7-
251.1463	735	C18H19O-
260.9964	666	C19HO2-
262.102	691	C18H14O2-
264.0517	872	C20H8O-
264.2764	692	C19H36-
267.2742	692	C18H35O-
274.26	642	C20H34-
275.2764	780	C20H35-
280.243	790	C18H32O2-
283.2617	761	C18H35O2-
294.3347	592	C21H42-
298.2306	642	C21H30O-
300.2837	735	C22H36-
306.2979	790	C21H38O-
313.2126	644	C21H29O2-
317.1569	790	C22H21O2-
319.1672	691	C22H23O2-
