Mass spectrum: URIDINEDIPHOSPHATENACETYLGLUCOSAMINE; LC-ESI-QTOF; MS2; CE: 40eV; R=5000; [M+H]+
Name: URIDINEDIPHOSPHATENACETYLGLUCOSAMINE
Name: Uridine-diphosphate-N-acetylglucosamine
Name: [(2R,3R,4R,5S,6R)-3-acetamido-4,5-dihydroxy-6-(hydroxymethyl)oxan-2-yl] [[(2R,3S,4R,5R)-5-(2,4-dioxopyrimidin-1-yl)-3,4-dihydroxyoxolan-2-yl]methoxy-hydroxyphosphoryl] hydrogen phosphate
Formula: C17H27N3O17P2
Exact mass: 607.0816
SMILES: CC(=O)N[C@@H]1[C@@H](O)[C@H](O)[C@@H](CO)O[C@@H]1OP(O)(=O)OP(O)(=O)OC[C@H]1O[C@H]([C@H](O)[C@@H]1O)N1C=CC(=O)NC1=O
InChI: InChI=1S/C17H27N3O17P2/c1-6(22)18-10-13(26)11(24)7(4-21)35-16(10)36-39(31,32)37-38(29,30)33-5-8-12(25)14(27)15(34-8)20-3-2-9(23)19-17(20)28/h2-3,7-8,10-16,21,24-27H,4-5H2,1H3,(H,18,22)(H,29,30)(H,31,32)(H,19,23,28)/t7-,8-,10-,11-,12-,13-,14-,15-,16-/m1/s1
Instrument: Agilent 6530 QTOF
Instrument type: LC-ESI-QTOF
Ms type: MS2
Ion mode: POSITIVE
Ionization: ESI
Fragmentation mode: CID
Collision energy: 40 eV
Resolution: 5000
Column name: N/A
Retention time: 0.353 min
Base peak: 121.0508
Precursor m/z: 608.0888
Precursor type: [M+H]+
Precursor intensity: 26530
m/z	relative intensity	assigned
67.0507	51	H7N2O2+
69.0313	82	C2H3N3+
70.062	274	CH10O3+
70.134	37	CH16N3+
84.0076	17	C3H2NO2+
84.0425	9	CH8O4+
94.9913	5	C4H2NP+
96.0416	231	C2H8O4+
97.031	42	C2H11P2+
98.0591	59	C5H8NO+
101.0293	9	CH11OP2+
126.0602	95	C3H14NP2+
127.1945	9	C2H28N2OP+
133.0934	74	C2H15NO5+
138.05	999	C2H8N3O4+
140.2059	14	C3H28N2O3+
144.0591	420	C2H14N2OP2+
149.2048	53	C4H28N3P+
161.9924	16	CH7O7P+
168.075	55	H15N3O5P+
175.1479	66	C13H19+
180.2102	5	C10H28O2+
182.0324	13	C7H6N2O4+
186.0657	267	CH18NO5P2+
188.0552	4	C7H10NO5+
190.1529	17	CH25N3O5P+
204.078	114	C12H12O3+
216.209	9	C13H28O2+
217.9941	26	C2H7N2O8P+
239.1347	16	C2H26NO9P+
247.1659	7	C7H26N3O4P+
264.067	12	C4H14N3O10+
302.8797	23	HO15P2+
330.0753	8	C5H18N2O14+
336.1879	11	C14H28N2O7+
362.0449	29	C15H14N3O4P2+
362.1337	6	C12H27O10P+
384.0236	22	C15H13O10P+
415.9493	7	C13H4O16+
417.1177	9	C17H24NO9P+
427.8856	6	C12NO13P2+
430.0777	10	C12H22N3O10P2+
493.9876	51	C17H9N3O13P+
496.9545	22	C17H9NO13P2+
503.9691	18	C11H12N3O16P2+
504.0517	3	C11H24NO17P2+
547.0741	8	C16H25N2O15P2+
604.0606	8	C17H24N3O17P2+
