Mass spectrum: Dimethylbenzimidazole; LC-ESI-QTOF; MS2; CE: 10eV; R=7000; [M-H]-
Name: Dimethylbenzimidazole
Name: 5,6-Dimethylbenzimidazole
Name: 5,6-dimethyl-1H-benzimidazole
Formula: C9H10N2
Exact mass: 146.0844
SMILES: CC1=CC2=C(C=C1C)N=CN2
InChI: InChI=1S/C9H10N2/c1-6-3-8-9(4-7(6)2)11-5-10-8/h3-5H,1-2H3,(H,10,11)
Instrument: Agilent 6560 QTOF
Instrument type: LC-ESI-QTOF
Ms type: MS2
Ion mode: NEGATIVE
Ionization: ESI
Fragmentation mode: CID
Collision energy: 10 eV
Resolution: 7000
Column name: N/A
Retention time: 0.192 min
Base peak: 255.233
Precursor m/z: 145.0771
Precursor type: [M-H]-
Precursor intensity: 50977
m/z	relative intensity	assigned
144.0688	87	C9H8N2-
145.0766	999	C9H9N2-
