Mass spectrum: 3-Hydroxyphenyl diphenyl phosphate ; LC-ESI-QTOF; MS2; CE: 5eV; R=7000; [M+H]+
Name: 3-Hydroxyphenyl diphenyl phosphate 
Name: 3-(Diphenoxyphosphinyloxy)phenol
Name: (3-hydroxyphenyl) diphenyl phosphate
Formula: C18H15O5P
Exact mass: 342.0657
SMILES: C1=CC=C(C=C1)OP(=O)(OC2=CC=CC=C2)OC3=CC=CC(=C3)O
InChI: InChI=1S/C18H15O5P/c19-15-8-7-13-18(14-15)23-24(20,21-16-9-3-1-4-10-16)22-17-11-5-2-6-12-17/h1-14,19H
Instrument: Agilent 6560 QTOF
Instrument type: LC-ESI-QTOF
Ms type: MS2
Ion mode: POSITIVE
Ionization: ESI
Fragmentation mode: CID
Collision energy: 5 eV
Resolution: 7000
Retention time: 0.114 min
Base peak: 343.0736
Precursor m/z: 343.073
Precursor type: [M+H]+
Precursor intensity: 135374.06
m/z	relative intensity	assigned
65.0389	8	C5H5+
93.0344	3	C6H5O+
141.0695	8	C11H9+
153.0682	2	C5H14O3P+
169.0633	2	C5H14O4P+
184.051	2	C12H8O2+
215.0252	2	C12H8O2P+
215.0851	1	C17H11+
217.1017	2	C17H13+
227.0828	2	C11H16O3P+
231.0201	5	C12H8O3P+
233.0343	2	C12H10O3P+
249.0319	4	C12H10O4P+
251.0477	5	C12H12O4P+
343.0736	999	C18H16O5P+
