Mass spectrum: 1-hexadecanoyl-sn-glycerol; LC-ESI-QTOF; MS2; CE: 10eV; R=7000; [M+Na]+
Name: 1-hexadecanoyl-sn-glycerol
Name: Glyceryl palmitate
Name: 2,3-dihydroxypropyl hexadecanoate
Formula: C19H38O4
Exact mass: 330.2770
SMILES: CCCCCCCCCCCCCCCC(=O)OCC(CO)O
InChI: InChI=1S/C19H38O4/c1-2-3-4-5-6-7-8-9-10-11-12-13-14-15-19(22)23-17-18(21)16-20/h18,20-21H,2-17H2,1H3
Instrument: Agilent 6560 QTOF
Instrument type: LC-ESI-QTOF
Ms type: MS2
Ion mode: POSITIVE
Ionization: ESI
Fragmentation mode: CID
Collision energy: 10 eV
Resolution: 7000
Column name: Direct injection
Retention time: 0.210 min
Base peak: 388.3952
Precursor m/z: 353.2662
Precursor type: [M+Na]+
Precursor intensity: 6855
m/z	relative intensity	assigned
137.0923	99	C7H14NaO+
158.9846	102	C10NaO+
264.9888	352	C16H2NaO3+
292.9808	422	C17H2NaO4+
353.266	999	C19H38NaO4+
