Mass spectrum: Erucic acid; LC-ESI-QTOF; MS2; CE: 20eV; R=7000; [M-H]-
Name: Erucic acid
Name: (Z)-docos-13-enoic acid
Formula: C22H42O2
Exact mass: 338.3185
SMILES: CCCCCCCC\C=C/CCCCCCCCCCCC(O)=O
InChI: InChI=1S/C22H42O2/c1-2-3-4-5-6-7-8-9-10-11-12-13-14-15-16-17-18-19-20-21-22(23)24/h9-10H,2-8,11-21H2,1H3,(H,23,24)/b10-9-
Instrument: Agilent 6560 QTOF
Instrument type: LC-ESI-QTOF
Ms type: MS2
Ion mode: NEGATIVE
Ionization: ESI
Fragmentation mode: CID
Collision energy: 20 eV
Resolution: 7000
Column name: N/A
Retention time: 0.144 min
Base peak: 337.3129
Precursor m/z: 337.3112
Precursor type: [M-H]-
Precursor intensity: 167036
m/z	relative intensity	assigned
134.129	1	C7H18O2-
183.137	1	C11H19O2-
255.233	44	C16H31O2-
319.3047	2	C22H39O-
337.3123	999	C22H41O2-
