Mass spectrum: Dimethylbenzimidazole; LC-ESI-QTOF; MS2; CE: 40eV; R=7000; [M-H]-
Name: Dimethylbenzimidazole
Name: 5,6-Dimethylbenzimidazole
Name: 5,6-dimethyl-1H-benzimidazole
Formula: C9H10N2
Exact mass: 146.0844
SMILES: CC1=CC2=C(C=C1C)N=CN2
InChI: InChI=1S/C9H10N2/c1-6-3-8-9(4-7(6)2)11-5-10-8/h3-5H,1-2H3,(H,10,11)
Instrument: Agilent 6560 QTOF
Instrument type: LC-ESI-QTOF
Ms type: MS2
Ion mode: NEGATIVE
Ionization: ESI
Fragmentation mode: CID
Collision energy: 40 eV
Resolution: 7000
Column name: N/A
Retention time: 0.193 min
Base peak: 255.233
Precursor m/z: 145.0771
Precursor type: [M-H]-
Precursor intensity: 7770
m/z	relative intensity	assigned
115.0306	305	C7H3N2-
131.0584	999	C8H7N2-
143.0584	435	C9H7N2-
144.071	671	C9H8N2-
