Mass spectrum: N-(octadecanoyl)-sphing-4-enine-1-phosphocholine; LC-ESI-QTOF; MS2; CE: 10eV; R=7000; [M+CH3COO]-
Name: N-(octadecanoyl)-sphing-4-enine-1-phosphocholine
Name: [(E,2S,3R)-3-hydroxy-2-(octadecanoylamino)octadec-4-enyl] 2-(trimethylazaniumyl)ethyl phosphate
Formula: C41H83N2O6P
Exact mass: 730.5989
SMILES: C[N+](C)(C)CCOP([O-])(=O)OC[C@H](NC(=O)CCCCCCCCCCCCCCCCC)[C@H](O)\C=C\CCCCCCCCCCCCC
InChI: InChI=1S/C41H83N2O6P/c1-6-8-10-12-14-16-18-20-21-23-25-27-29-31-33-35-41(45)42-39(38-49-50(46,47)48-37-36-43(3,4)5)40(44)34-32-30-28-26-24-22-19-17-15-13-11-9-7-2/h32,34,39-40,44H,6-31,33,35-38H2,1-5H3,(H-,42,45,46,47)/b34-32+/t39-,40+/m0/s1
Instrument: Agilent 6560 QTOF
Instrument type: LC-ESI-QTOF
Ms type: MS2
Ion mode: NEGATIVE
Ionization: ESI
Fragmentation mode: CID
Collision energy: 10 eV
Resolution: 7000
Column name: N/A
Retention time: 0.310 min
Base peak: 980.0164
Precursor m/z: 789.6127
Precursor type: [M+CH3COO]-
Precursor intensity: 8658
m/z	relative intensity	assigned
149.111	133	C7H18OP-
162.1522	150	C4H23N2O2P-
245.1527	156	C9H26O5P-
263.9977	145	C15H5O3P-
372.1009	71	C19H19NO5P-
402.973	325	C31P-
453.2429	150	C31H33O3-
488.1	123	C29H16N2O6-
539.9452	159	C33HO7P-
559.5547	111	C30H76N2O4P-
562.5741	158	C31H78O7-
605.464	65	C36H63NO6-
637.3186	401	C43H43NO4-
696.5437	70	C43H72N2O5-
715.573	999	C40H80N2O6P-
716.5803	327	C40H81N2O6P-
789.6177	220	C43H86N2O8P-
