Mass spectrum: Rosmarinic acid; LC-ESI-QTOF; MS2; CE: 20eV; R=7000; [M-H]-
Name: Rosmarinic acid
Name: (2R)-3-(3,4-dihydroxyphenyl)-2-[(E)-3-(3,4-dihydroxyphenyl)prop-2-enoyl]oxypropanoic acid
Formula: C18H16O8
Exact mass: 360.0845
SMILES: OC(=O)[C@@H](CC1=CC(O)=C(O)C=C1)OC(=O)\C=C\C1=CC(O)=C(O)C=C1
InChI: InChI=1S/C18H16O8/c19-12-4-1-10(7-14(12)21)3-6-17(23)26-16(18(24)25)9-11-2-5-13(20)15(22)8-11/h1-8,16,19-22H,9H2,(H,24,25)/b6-3+/t16-/m1/s1
Instrument: Agilent 6560 QTOF
Instrument type: LC-ESI-QTOF
Ms type: MS2
Ion mode: NEGATIVE
Ionization: ESI
Fragmentation mode: CID
Collision energy: 20 eV
Resolution: 7000
Column name: N/A
Retention time: 0.193 min
Base peak: 255.2334
Precursor m/z: 359.0772
Precursor type: [M-H]-
Precursor intensity: 64578
m/z	relative intensity	assigned
72.9933	150	C2HO3-
123.0457	41	C7H7O2-
133.0277	58	C8H5O2-
133.0661	3	C9H9O-
134.0385	11	C8H6O2-
135.0453	118	C8H7O2-
151.0378	13	C8H7O3-
161.0246	999	C9H5O3-
162.0329	10	C9H6O3-
179.0338	219	C9H7O4-
179.0833	11	C14H11-
180.0385	20	C9H8O4-
196.0732	23	C10H12O4-
197.0449	187	C9H9O5-
198.0487	22	C16H6-
204.9887	5	C13HO3-
268.9786	2	C13HO7-
