Mass spectrum: Arachidic acid; LC-ESI-QTOF; MS2; CE: 10eV; R=7000; [M-H]-
Name: Arachidic acid
Name: icosanoic acid
Formula: C20H40O2
Exact mass: 312.3028
SMILES: CCCCCCCCCCCCCCCCCCCC(O)=O
InChI: InChI=1S/C20H40O2/c1-2-3-4-5-6-7-8-9-10-11-12-13-14-15-16-17-18-19-20(21)22/h2-19H2,1H3,(H,21,22)
Instrument: Agilent 6560 QTOF
Instrument type: LC-ESI-QTOF
Ms type: MS2
Ion mode: NEGATIVE
Ionization: ESI
Fragmentation mode: CID
Collision energy: 10 eV
Resolution: 7000
Column name: N/A
Retention time: 0.144 min
Base peak: 357.1898
Precursor m/z: 311.2956
Precursor type: [M-H]-
Precursor intensity: 641612
m/z	relative intensity	assigned
293.2783	1	C20H37O-
311.2963	999	C20H39O2-
