Mass spectrum: N-ACETYLNEURAMINATE; LC-ESI-QTOF; MS2; CE: 10eV; R=5000; [M+H]+
Name: N-ACETYLNEURAMINATE
Name: 5-N-Acetyl-beta-D-neuraminic acid
Name: (2S,4S,5R,6R)-5-acetamido-2,4-dihydroxy-6-[(1R,2R)-1,2,3-trihydroxypropyl]oxane-2-carboxylic acid
Formula: C11H19NO9
Exact mass: 309.1060
SMILES: CC(=O)N[C@@H]1[C@@H](O)C[C@](O)(O[C@H]1[C@H](O)[C@H](O)CO)C(O)=O
InChI: InChI=1S/C11H19NO9/c1-4(14)12-7-5(15)2-11(20,10(18)19)21-9(7)8(17)6(16)3-13/h5-9,13,15-17,20H,2-3H2,1H3,(H,12,14)(H,18,19)/t5-,6+,7+,8+,9+,11-/m0/s1
Instrument: Agilent 6530 QTOF
Instrument type: LC-ESI-QTOF
Ms type: MS2
Ion mode: POSITIVE
Ionization: ESI
Fragmentation mode: CID
Collision energy: 10 eV
Resolution: 5000
Column name: N/A
Retention time: 0.218 min
Base peak: 121.0508
Precursor m/z: 310.1133
Precursor type: [M+H]+
Precursor intensity: 206613
m/z	relative intensity	assigned
56.0468	5	H8O3+
57.0335	37	C3H5O+
60.0449	125	C2H6NO+
67.0551	11	C5H7+
68.0457	19	CH8O3+
73.0289	42	C3H5O2+
81.0319	5	C5H5O+
84.0455	47	C4H6NO+
85.0267	18	C4H5O2+
93.0315	5	C6H5O+
94.1177	2	CH18O4+
95.0468	9	C6H7O+
96.042	23	C2H8O4+
96.1359	2	CH20O4+
98.0559	6	C2H10O4+
99.0701	1	C5H9NO+
103.0389	31	C4H7O3+
107.0555	19	H11O6+
108.0454	9	C6H6NO+
112.0394	70	C5H6NO2+
113.0233	9	C5H5O3+
114.056	37	C5H8NO2+
118.0884	5	C5H12NO2+
121.0281	257	C7H5O2+
122.0818	3	C4H12NO3+
123.0425	22	C7H7O2+
124.0373	10	C3H8O5+
125.1072	5	C4H15NO3+
127.0365	4	C6H7O3+
128.0644	15	C10H8+
128.1211	2	C8H16O+
130.0491	15	C5H8NO3+
133.0889	5	C9H11N+
135.0475	23	CH11O7+
136.0419	31	C7H6NO2+
137.0221	6	C7H5O3+
137.1013	2	C2H17O6+
138.0581	22	H12NO7+
138.1344	1	C2H20NO5+
139.0973	2	C5H15O4+
140.0667	32	C4H12O5+
142.0414	5	C10H6O+
146.0394	11	C2H10O7+
148.0826	3	C2H14NO6+
149.0211	12	C8H5O3+
150.0547	71	C8H8NO2+
151.0415	52	C11H5N+
152.0651	21	C5H12O5+
153.053	16	C8H9O3+
154.0488	91	C7H8NO3+
156.0619	28	C4H12O6+
164.0652	6	C6H12O5+
166.0502	24	C8H8NO3+
167.0349	264	C8H7O4+
168.073	18	CH14NO8+
169.038	2	C7H7NO4+
170.0806	44	C8H12NO3+
172.061	65	C7H10NO4+
178.0483	33	C6H10O6+
179.0342	114	C9H7O4+
182.0478	16	CH12NO9+
184.0576	58	C5H12O7+
185.0472	20	C11H7NO2+
186.0782	40	C8H12NO4+
188.0852	7	C5H16O7+
188.1325	2	C9H18NO3+
194.0839	10	C10H12NO3+
196.0622	42	C9H10NO4+
197.0463	178	C9H9O5+
202.0386	1	C7H8NO6+
208.0483	6	C6H10NO7+
210.0787	25	C10H12NO4+
214.0697	66	C9H12NO5+
215.0518	140	C9H11O6+
220.0626	20	C11H10NO4+
222.0751	1	C11H12NO4+
225.03	1	C9H7NO6+
226.0738	18	C10H12NO5+
232.0835	122	C9H14NO6+
234.9832	1	C10H3O7+
238.0652	22	C8H14O8+
241.0662	2	C11H13O6+
250.0957	71	C9H16NO7+
256.0813	92	C11H14NO6+
259.0688	2	C10H13NO7+
274.096	999	C11H16NO7+
277.1104	3	C11H19NO7+
278.9775	4	C11H3O9+
289.0473	2	C10H11NO9+
292.1057	193	C11H18NO8+
310.1164	62	C11H20NO9+
