Mass spectrum: Tris(2-ethylhexyl)trimellitate; LC-ESI-QTOF; MS2; CE: 50eV; R=7000; [M+H]+
Name: Tris(2-ethylhexyl)trimellitate
Name: Tris(2-ethylhexyl) trimellitate
Name: tris(2-ethylhexyl) benzene-1,2,4-tricarboxylate
Formula: C33H54O6
Exact mass: 546.3920
SMILES: CCCCC(CC)COC(=O)C1=CC(=C(C=C1)C(=O)OCC(CC)CCCC)C(=O)OCC(CC)CCCC
InChI: InChI=1S/C33H54O6/c1-7-13-16-25(10-4)22-37-31(34)28-19-20-29(32(35)38-23-26(11-5)17-14-8-2)30(21-28)33(36)39-24-27(12-6)18-15-9-3/h19-21,25-27H,7-18,22-24H2,1-6H3
Instrument: Agilent 6560 QTOF
Instrument type: LC-ESI-QTOF
Ms type: MS2
Ion mode: POSITIVE
Ionization: ESI
Fragmentation mode: CID
Collision energy: 50 eV
Resolution: 7000
Retention time: 0.182 min
Base peak: 569.3816
Precursor m/z: 547.3993
Precursor type: [M+H]+
Precursor intensity: 18536.67
m/z	relative intensity	assigned
53.0397	23	C4H5+
57.0702	137	C4H9+
71.0869	45	C5H11+
81.0338	92	C5H5O+
107.0125	26	C6H3O2+
109.0298	89	C6H5O2+
137.0221	42	C7H5O3+
165.0178	377	C8H5O4+
193.0126	999	C9H5O5+
194.0167	49	C16H2+
