Mass spectrum: Tri-o-tolyl phosphate; LC-ESI-QTOF; MS2; CE: 20eV; R=7000; [M+H]+
Name: Tri-o-tolyl phosphate
Name: Tri-O-cresyl phosphate
Name: tris(2-methylphenyl) phosphate
Formula: C21H21O4P
Exact mass: 368.1177
SMILES: CC1=CC=CC=C1OP(=O)(OC2=CC=CC=C2C)OC3=CC=CC=C3C
InChI: InChI=1S/C21H21O4P/c1-16-10-4-7-13-19(16)23-26(22,24-20-14-8-5-11-17(20)2)25-21-15-9-6-12-18(21)3/h4-15H,1-3H3
Instrument: Agilent 6560 QTOF
Instrument type: LC-ESI-QTOF
Ms type: MS2
Ion mode: POSITIVE
Ionization: ESI
Fragmentation mode: CID
Collision energy: 20 eV
Resolution: 7000
Retention time: 0.110 min
Base peak: 369.1252
Precursor m/z: 369.125
Precursor type: [M+H]+
Precursor intensity: 256757.72
m/z	relative intensity	assigned
55.0176	3	C3H3O+
65.0382	13	C5H5+
79.0547	3	C6H7+
91.0544	363	C7H7+
92.0585	18	H13O3P+
98.9847	3	H4O4P+
105.0694	7	C8H9+
107.0485	32	C7H7O+
109.0642	6	C7H9O+
115.0528	4	C9H7+
121.0644	12	C8H9O+
129.0712	4	C10H9+
141.0687	3	C11H9+
143.0842	5	C4H16O3P+
152.0604	4	C5H13O3P+
153.0107	18	C7H6O2P+
153.0691	19	C12H9+
154.0734	4	C5H15O3P+
155.0252	2	C7H8O2P+
165.0694	145	C13H9+
166.0772	247	C13H10+
167.0248	13	C8H8O2P+
167.0804	16	C6H16O3P+
171.0213	4	C7H8O3P+
177.0739	3	C14H9+
178.0781	20	C14H10+
179.0855	90	C14H11+
180.091	9	C7H17O3P+
181.1004	117	C14H13+
182.0722	7	C13H10O+
182.1034	14	C7H19O3P+
184.9997	7	C7H6O4P+
187.0148	10	C7H8O4P+
188.0213	2	C7H9O4P+
189.0308	67	C7H10O4P+
193.0989	2	C8H18O3P+
197.0951	61	C14H13O+
198.0969	3	C7H19O4P+
199.1098	9	C7H20O4P+
225.0455	3	C14H10OP+
229.1023	2	C18H13+
241.1011	26	C19H13+
242.1085	4	C19H14+
243.0569	48	C14H12O2P+
244.0611	4	C14H13O2P+
254.1067	2	C13H19O3P+
255.1157	6	C20H15+
256.1246	53	C20H16+
257.128	8	C13H22O3P+
259.051	6	C14H12O3P+
261.0673	83	C14H14O3P+
262.0654	8	C17H10O3+
271.1469	29	C21H19+
277.0616	36	C14H14O4P+
278.0662	6	C14H15O4P+
279.0783	83	C14H16O4P+
280.0822	7	C14H17O4P+
333.1041	7	C21H18O2P+
351.1129	10	C21H20O3P+
369.125	999	C21H22O4P+
