Mass spectrum: Tributyl acetylcitrate; LC-ESI-QTOF; MS2; CE: 5eV; R=7000; [M+Na]+
Name: Tributyl acetylcitrate
Name: Acetyl tributyl citrate
Name: tributyl 2-acetyloxypropane-1,2,3-tricarboxylate
Formula: C20H34O8
Exact mass: 402.2254
SMILES: CCCCOC(=O)CC(CC(=O)OCCCC)(C(=O)OCCCC)OC(=O)C
InChI: InChI=1S/C20H34O8/c1-5-8-11-25-17(22)14-20(28-16(4)21,19(24)27-13-10-7-3)15-18(23)26-12-9-6-2/h5-15H2,1-4H3
Instrument: Agilent 6560 QTOF
Instrument type: LC-ESI-QTOF
Ms type: MS2
Ion mode: POSITIVE
Ionization: ESI
Fragmentation mode: CID
Collision energy: 5 eV
Resolution: 7000
Retention time: 0.148 min
Base peak: 425.219
Precursor m/z: 425.2146
Precursor type: [M+Na]+
Precursor intensity: 987977.36
m/z	relative intensity	assigned
281.1368	4	C13H22NaO5+
309.1299	1	C14H22NaO6+
365.1945	26	C18H30NaO6+
366.1958	2	C18H31NaO6+
369.1506	1	C16H26NaO8+
425.216	999	C20H34NaO8+
