Mass spectrum: N-oleoyl-D-erythro-sphingosine; LC-ESI-QTOF; MS2; CE: 40eV; R=7000; [M+H]+
Name: N-oleoyl-D-erythro-sphingosine
Name: N-(oleoyl)-ceramide
Name: (Z)-N-[(E,2S,3R)-1,3-dihydroxyoctadec-4-en-2-yl]octadec-9-enamide
Formula: C36H69NO3
Exact mass: 563.5277
SMILES: CCCCCCCCCCCCC/C=C/[C@H]([C@H](CO)NC(=O)CCCCCCC/C=C\CCCCCCCC)O
InChI: InChI=1S/C36H69NO3/c1-3-5-7-9-11-13-15-17-18-20-22-24-26-28-30-32-36(40)37-34(33-38)35(39)31-29-27-25-23-21-19-16-14-12-10-8-6-4-2/h17-18,29,31,34-35,38-39H,3-16,19-28,30,32-33H2,1-2H3,(H,37,40)/b18-17-,31-29+/t34-,35+/m0/s1
Instrument: Agilent 6560 QTOF
Instrument type: LC-ESI-QTOF
Ms type: MS2
Ion mode: POSITIVE
Ionization: ESI
Fragmentation mode: CID
Collision energy: 40 eV
Resolution: 7000
Column name: Direct injection
Retention time: 0.182 min
Base peak: 586.5194
Precursor m/z: 564.535
Precursor type: [M+H]+
Precursor intensity: 227592
m/z	relative intensity	assigned
70.0656	20	C4H8N+
77.0385	7	C6H5+
79.0542	38	C6H7+
80.05	7	C5H6N+
81.0699	31	C6H9+
82.0655	130	C5H8N+
83.0687	4	C2H11O3+
83.0854	22	C6H11+
85.0997	1	C6H13+
86.0602	5	C4H8NO+
91.0535	4	C7H7+
93.0695	31	C7H9+
94.064	3	C6H8N+
95.07	4	C3H11O3+
95.0854	45	C7H11+
96.0812	35	C6H10N+
97.101	3	C7H13+
107.0858	19	C8H11+
108.0802	3	C7H10N+
109.1006	19	C8H13+
110.0969	8	C7H12N+
111.0815	4	C7H11O+
111.1171	5	C8H15+
121.1018	22	C9H13+
123.1172	8	C9H15+
124.1126	1	C8H14N+
133.1014	4	C10H13+
135.1172	13	C10H15+
139.1094	2	C9H15O+
142.1198	1	C8H16NO+
154.1589	4	C10H20N+
163.1487	1	C12H19+
193.1967	1	C14H25+
196.2051	1	C13H26N+
209.1874	2	C14H25O+
226.255	2	C15H32N+
238.2536	1	C16H32N+
247.2391	1	C18H31+
252.2694	75	C17H34N+
264.2693	999	C18H34N+
265.2723	84	C15H37O3+
266.401	1	C14H52NO2+
282.2788	65	C18H36NO+
283.2823	16	C18H37NO+
