Mass spectrum: 1-hexadecanoyl-2-(9Z-octadecenoyl)-sn-glycero-3-phosphocholine; LC-ESI-QTOF; MS2; CE: 10eV; R=7000; [M+Na]+
Name: 1-hexadecanoyl-2-(9Z-octadecenoyl)-sn-glycero-3-phosphocholine
Name: 1-Palmitoyl-2-oleoyl-sn-glycero-3-phosphocholine
Name: [(2R)-3-hexadecanoyloxy-2-[(Z)-octadec-9-enoyl]oxypropyl] 2-(trimethylazaniumyl)ethyl phosphate
Formula: C42H82NO8P
Exact mass: 759.5778
SMILES: [C@](COP(=O)([O-])OCC[N+](C)(C)C)([H])(OC(CCCCCCC/C=C\CCCCCCCC)=O)COC(CCCCCCCCCCCCCCC)=O
InChI: InChI=1S/C42H82NO8P/c1-6-8-10-12-14-16-18-20-21-23-25-27-29-31-33-35-42(45)51-40(39-50-52(46,47)49-37-36-43(3,4)5)38-48-41(44)34-32-30-28-26-24-22-19-17-15-13-11-9-7-2/h20-21,40H,6-19,22-39H2,1-5H3/b21-20-/t40-/m1/s1
Instrument: Agilent 6560 QTOF
Instrument type: LC-ESI-QTOF
Ms type: MS2
Ion mode: POSITIVE
Ionization: ESI
Fragmentation mode: CID
Collision energy: 10 eV
Resolution: 7000
Column name: Direct injection
Retention time: 0.245 min
Base peak: 760.5871
Precursor m/z: 782.567
Precursor type: [M+Na]+
Precursor intensity: 499432
m/z	relative intensity	assigned
86.0964	11	C5H12N+
95.0852	2	C7H11+
111.0809	1	C3H14NOP+
111.1178	1	C4H18NP+
146.9817	24	C2H5NaO4P+
184.0734	7	C5H15NO4P+
208.0811	1	C7H14NO6+
441.2373	1	C21H39NaO6P+
526.3319	1	C35H44NO3+
577.5194	11	C33H72NO4P+
578.5174	1	C35H72NaO2P+
599.501	33	C37H68NaO4+
612.1046	2	C37H19NNaO7+
723.4955	68	C41H72O8P+
724.4981	13	C39H74NaO8P+
765.5307	1	C41H77NNaO8P+
782.5686	999	C42H82NNaO8P+
