Mass spectrum: 1,2-Dioleoyl-sn-glycero-3-phosphocholine; LC-ESI-QTOF; MS2; CE: 20eV; R=7000; [M+CH3COO]-
Name: 1,2-Dioleoyl-sn-glycero-3-phosphocholine
Name: [(2R)-2,3-bis[[(Z)-octadec-9-enoyl]oxy]propyl] 2-(trimethylazaniumyl)ethyl phosphate
Formula: C44H84NO8P
Exact mass: 785.5935
SMILES: CCCCCCCC/C=C\CCCCCCCC(=O)OC[C@H](COP(=O)([O-])OCC[N+](C)(C)C)OC(=O)CCCCCCC/C=C\CCCCCCCC
InChI: InChI=1S/C44H84NO8P/c1-6-8-10-12-14-16-18-20-22-24-26-28-30-32-34-36-43(46)50-40-42(41-52-54(48,49)51-39-38-45(3,4)5)53-44(47)37-35-33-31-29-27-25-23-21-19-17-15-13-11-9-7-2/h20-23,42H,6-19,24-41H2,1-5H3/b22-20-,23-21-/t42-/m1/s1
Instrument: Agilent 6560 QTOF
Instrument type: LC-ESI-QTOF
Ms type: MS2
Ion mode: NEGATIVE
Ionization: ESI
Fragmentation mode: CID
Collision energy: 20 eV
Resolution: 7000
Column name: N/A
Retention time: 0.167 min
Base peak: 223.0284
Precursor m/z: 844.6073
Precursor type: [M+CH3COO]-
Precursor intensity: 104040
m/z	relative intensity	assigned
109.142	4	C2H21O4-
125.0429	3	C3H9O5-
154.2551	3	C9H32N-
187.949	3	C5HO6P-
206.0558	18	C4H15O7P-
255.4683	7	C12H64OP-
264.3314	14	C2H51NO9P-
279.5142	6	C15H67O2-
281.2484	635	C18H33O2-
282.2496	10	C10H36NO7-
282.6214	2	C3H86O10-
312.6183	15	C11H85O4P-
339.3793	1	C12H53NO8-
484.4201	28	C33H57P-
488.3065	5	C29H45O4P-
501.5058	11	C31H68NOP-
506.3287	63	C32H44NO4-
506.6075	3	C22H85NO7P-
507.3263	25	C36H43O2-
526.1363	2	C41H18O-
527.6808	20	C34H87O2-
549.3537	4	C38H48NP-
562.1523	2	C33H24NO8-
699.4926	7	C38H69NO10-
700.486	5	C45H67NO3P-
712.5636	2	C45H76O6-
726.5249	1	C44H73NO5P-
750.11	5	C46H23O9P-
765.4091	2	C44H62O9P-
765.5155	9	C46H71NO8-
765.5525	5	C40H80NO10P-
765.5981	5	C42H86O9P-
766.1015	3	C46H23O10P-
766.4095	8	C43H61NO9P-
766.5055	4	C42H73NO9P-
767.3302	6	C45H52O9P-
768.6318	1	C45H86NO8-
769.21	4	C44H36NO10P-
770.5709	999	C43H81NO8P-
771.5754	208	C43H82NO8P-
773.0705	3	C46H16NO10P-
773.5695	4	C43H82O9P-
774.3679	4	C44H57NO9P-
780.3323	2	C45H51NO9P-
785.5359	25	C46H76NO7P-
844.6079	45	C46H87NO10P-
