Mass spectrum: Bis(2-butoxyethyl) 3?-hydroxy-2-butoxyethyl phosphate ; LC-ESI-QTOF; MS2; CE: 5eV; R=7000; [M+H]+
Name: Bis(2-butoxyethyl) 3?-hydroxy-2-butoxyethyl phosphate 
Name: Bis(2-butoxyethyl) 3-hydroxyl-2-butoxyethyl phosphate
Name: bis(2-butoxyethyl) 2-(3-hydroxybutoxy)ethyl phosphate
Formula: C18H39O8P
Exact mass: 414.2383
SMILES: CCCCOCCOP(=O)(OCCOCCCC)OCCOCCC(C)O
InChI: InChI=1S/C18H39O8P/c1-4-6-9-21-12-15-24-27(20,25-16-13-22-10-7-5-2)26-17-14-23-11-8-18(3)19/h18-19H,4-17H2,1-3H3
Instrument: Agilent 6560 QTOF
Instrument type: LC-ESI-QTOF
Ms type: MS2
Ion mode: POSITIVE
Ionization: ESI
Fragmentation mode: CID
Collision energy: 5 eV
Resolution: 7000
Retention time: 0.145 min
Base peak: 437.2308
Precursor m/z: 415.2455
Precursor type: [M+H]+
Precursor intensity: 557954.81
m/z	relative intensity	assigned
55.0547	24	C4H7+
57.0331	1	C3H5O+
57.0707	28	C4H9+
59.0499	4	C3H7O+
69.0694	2	C5H9+
71.0482	4	C4H7O+
73.0653	1	C4H9O+
81.0705	1	C6H9+
83.0856	13	C6H11+
89.0603	1	C4H9O2+
98.9839	15	H4O4P+
101.0961	13	C6H13O+
125.0002	10	C2H6O4P+
143.0103	41	C2H8O5P+
151.0145	1	C4H8O4P+
155.0102	1	C3H8O5P+
169.0259	4	C4H10O5P+
171.1382	1	C10H19O2+
187.0353	1	C4H12O6P+
197.0572	11	C6H14O5P+
199.0733	119	C6H16O5P+
200.0771	3	C13H13P+
215.0683	4	C6H16O6P+
225.0885	13	C8H18O5P+
241.0827	1	C8H18O6P+
243.0995	127	C8H20O6P+
244.104	4	C15H17OP+
255.0985	5	C9H20O6P+
297.1465	136	C12H26O6P+
298.1497	7	C12H27O6P+
299.1623	136	C12H28O6P+
300.1661	7	C12H29O6P+
315.1574	114	C12H28O7P+
316.1612	4	C12H29O7P+
325.1788	1	C14H30O6P+
343.1889	77	C14H32O7P+
344.1921	5	C14H33O7P+
359.1825	2	C14H32O8P+
397.2353	117	C18H38O7P+
398.2387	10	C18H39O7P+
415.2459	999	C18H40O8P+
