Mass spectrum: N-Palmitoyl-D-sphingosine; LC-ESI-QTOF; MS2; CE: 10eV; R=7000; [M-H]-
Name: N-Palmitoyl-D-sphingosine
Name: N-Palmitoylsphingosine
Name: N-[(E,2S,3R)-1,3-dihydroxyoctadec-4-en-2-yl]hexadecanamide
Formula: C34H67NO3
Exact mass: 537.5121
SMILES: [H][C@@](CO)(NC(=O)CCCCCCCCCCCCCCC)[C@H](O)\C=C\CCCCCCCCCCCCC
InChI: InChI=1S/C34H67NO3/c1-3-5-7-9-11-13-15-17-19-21-23-25-27-29-33(37)32(31-36)35-34(38)30-28-26-24-22-20-18-16-14-12-10-8-6-4-2/h27,29,32-33,36-37H,3-26,28,30-31H2,1-2H3,(H,35,38)/b29-27+/t32-,33+/m0/s1
Instrument: Agilent 6560 QTOF
Instrument type: LC-ESI-QTOF
Ms type: MS2
Ion mode: NEGATIVE
Ionization: ESI
Fragmentation mode: CID
Collision energy: 10 eV
Resolution: 7000
Column name: N/A
Retention time: 0.143 min
Base peak: 596.5276
Precursor m/z: 536.5048
Precursor type: [M-H]-
Precursor intensity: 61369
m/z	relative intensity	assigned
103.1022	3	C5H13NO-
133.1469	4	C7H19NO-
155.0841	21	C12H11-
237.2205	29	C16H29O-
254.2472	11	C16H32NO-
255.2299	5	C16H31O2-
263.2367	12	C18H31O-
264.2385	4	C17H30NO-
268.2599	11	C17H34NO-
279.122	1	C22H15-
280.2637	99	C18H34NO-
281.511	2	C18H65-
296.2564	16	C18H34NO2-
298.2754	8	C18H36NO2-
364.2604	3	C25H34NO-
406.1929	6	C29H26O2-
488.4879	15	C33H62NO-
501.4815	9	C34H63NO-
504.4801	17	C33H62NO2-
506.4943	40	C33H64NO2-
507.5048	13	C33H65NO2-
536.5058	999	C34H66NO3-
