Mass spectrum: 2,4-Di-(2-ethylhexyl) trimellitate ; LC-ESI-QTOF; MS2; CE: 10eV; R=7000; [M-H]-
Name: 2,4-Di-(2-ethylhexyl) trimellitate 
Name: 2,4-bis(2-ethylhexoxycarbonyl)benzoic acid
Formula: C25H38O6
Exact mass: 434.2668
SMILES: CCCCC(CC)COC(=O)c1ccc(C(=O)O)c(C(=O)OCC(CC)CCCC)c1
InChI: InChI=1S/C25H38O6/c1-5-9-11-18(7-3)16-30-24(28)20-13-14-21(23(26)27)22(15-20)25(29)31-17-19(8-4)12-10-6-2/h13-15,18-19H,5-12,16-17H2,1-4H3,(H,26,27)
Instrument: Agilent 6560 QTOF
Instrument type: LC-ESI-QTOF
Ms type: MS2
Ion mode: NEGATIVE
Ionization: ESI
Fragmentation mode: CID
Collision energy: 10 eV
Resolution: 7000
Retention time: 0.150 min
Base peak: 433.2613
Precursor m/z: 433.2596
Precursor type: [M-H]-
Precursor intensity: 147771.12
m/z	relative intensity	assigned
120.0197	6	C7H4O2-
121.0285	12	C7H5O2-
127.1126	131	C8H15O-
133.0295	5	C8H5O2-
149.0235	9	C8H5O3-
176.0109	5	C9H4O4-
203.1446	6	C14H19O-
215.1457	33	C15H19O-
231.1376	14	C15H19O2-
233.1545	344	C15H21O2-
234.1576	10	C15H22O2-
262.1581	60	C16H22O3-
263.1637	15	C16H23O3-
277.1445	239	C16H21O4-
290.1523	475	C17H22O4-
291.1586	44	C17H23O4-
303.1227	6	C17H19O5-
345.2818	25	C23H37O2-
361.2729	32	C23H37O3-
387.2543	6	C24H35O4-
389.2708	999	C24H37O4-
433.2602	672	C25H37O6-
