Mass spectrum: Guanine; LC-ESI-QTOF; MS2; CE: 10eV; R=5000; [M+Na]+
Name: Guanine
Name: CID 764
Name: 2-amino-3,7-dihydropurin-6-one
Formula: C5H5N5O
Exact mass: 151.0494
SMILES: C1=NC2=C(N1)C(=O)NC(=N2)N
InChI: InChI=1S/C5H5N5O/c6-5-9-3-2(4(11)10-5)7-1-8-3/h1H,(H4,6,7,8,9,10,11)
Instrument: Agilent 6530 QTOF
Instrument type: LC-ESI-QTOF
Ms type: MS2
Ion mode: POSITIVE
Ionization: ESI
Fragmentation mode: CID
Collision energy: 10 eV
Resolution: 5000
Column name: N/A
Retention time: 0.222 min
Base peak: 121.0508
Precursor m/z: 174.0386
Precursor type: [M+Na]+
Precursor intensity: 32380
m/z	relative intensity	assigned
174.0345	999	C5H5N5NaO+
