Mass spectrum: Tributyl acetylcitrate; LC-ESI-QTOF; MS2; CE: 15eV; R=7000; [M+H]+
Name: Tributyl acetylcitrate
Name: Acetyl tributyl citrate
Name: tributyl 2-acetyloxypropane-1,2,3-tricarboxylate
Formula: C20H34O8
Exact mass: 402.2254
SMILES: CCCCOC(=O)CC(CC(=O)OCCCC)(C(=O)OCCCC)OC(=O)C
InChI: InChI=1S/C20H34O8/c1-5-8-11-25-17(22)14-20(28-16(4)21,19(24)27-13-10-7-3)15-18(23)26-12-9-6-2/h5-15H2,1-4H3
Instrument: Agilent 6560 QTOF
Instrument type: LC-ESI-QTOF
Ms type: MS2
Ion mode: POSITIVE
Ionization: ESI
Fragmentation mode: CID
Collision energy: 15 eV
Resolution: 7000
Retention time: 0.110 min
Base peak: 425.2143
Precursor m/z: 403.2326
Precursor type: [M+H]+
Precursor intensity: 102319.98
m/z	relative intensity	assigned
55.0178	9	C3H3O+
57.0705	42	C4H9+
61.0287	54	C2H5O2+
68.9979	41	C3HO2+
87.0077	7	C3H3O3+
111.0072	142	C5H3O3+
113.0219	6	C5H5O3+
129.018	999	C5H5O4+
139.0021	530	C6H3O4+
157.0127	200	C6H5O5+
158.0168	13	C13H2+
185.0806	508	C9H13O4+
217.0349	32	C8H9O7+
259.1525	76	C13H23O5+
