Mass spectrum: 5,6-Dimethylbenzotriazole; LC-ESI-QTOF; MS2; CE: 60eV; R=7000; [M+H]+
Name: 5,6-Dimethylbenzotriazole
Name: 5,6-Dimethyl-1H-benzotriazole
Name: 5,6-dimethyl-2H-benzotriazole
Formula: C8H9N3
Exact mass: 147.0796
SMILES: CC1=CC2=NNN=C2C=C1C
InChI: InChI=1S/C8H9N3/c1-5-3-7-8(4-6(5)2)10-11-9-7/h3-4H,1-2H3,(H,9,10,11)
Instrument: Agilent 6560 QTOF
Instrument type: LC-ESI-QTOF
Ms type: MS2
Ion mode: POSITIVE
Ionization: ESI
Fragmentation mode: CID
Collision energy: 60 eV
Resolution: 7000
Retention time: 0.115 min
Base peak: 148.0872
Precursor m/z: 148.0869
Precursor type: [M+H]+
Precursor intensity: 56749.64
m/z	relative intensity	assigned
50.0162	46	C4H2+
51.0236	999	C4H3+
52.0317	59	C4H4+
53.0391	102	C4H5+
54.0336	29	C3H4N+
62.0151	16	C5H2+
63.0233	51	C5H3+
65.039	253	C5H5+
66.046	28	C5H6+
67.0535	10	C5H7+
74.0152	12	C6H2+
76.0175	9	C5H2N+
77.0389	392	C6H5+
78.0345	103	C5H4N+
78.0463	49	C6H6+
80.0496	56	C5H6N+
89.0392	44	C7H5+
91.0546	89	C7H7+
92.0511	12	C6H6N+
102.0463	16	C8H6+
104.0498	127	C7H6N+
