Mass spectrum: Chenodeoxycholic acid; LC-ESI-QTOF; MS2; CE: 10eV; R=7000; [M-H]-
Name: Chenodeoxycholic acid
Name: (4R)-4-[(3R,5S,7R,8R,9S,10S,13R,14S,17R)-3,7-dihydroxy-10,13-dimethyl-2,3,4,5,6,7,8,9,11,12,14,15,16,17-tetradecahydro-1H-cyclopenta[a]phenanthren-17-yl]pentanoic acid
Formula: C24H40O4
Exact mass: 392.2927
SMILES: [H][C@@]1(CC[C@@]2([H])[C@]3([H])[C@H](O)C[C@]4([H])C[C@H](O)CC[C@]4(C)[C@@]3([H])CC[C@]12C)[C@H](C)CCC(O)=O
InChI: InChI=1S/C24H40O4/c1-14(4-7-21(27)28)17-5-6-18-22-19(9-11-24(17,18)3)23(2)10-8-16(25)12-15(23)13-20(22)26/h14-20,22,25-26H,4-13H2,1-3H3,(H,27,28)/t14-,15+,16-,17-,18+,19+,20-,22+,23+,24-/m1/s1
Instrument: Agilent 6560 QTOF
Instrument type: LC-ESI-QTOF
Ms type: MS2
Ion mode: NEGATIVE
Ionization: ESI
Fragmentation mode: CID
Collision energy: 10 eV
Resolution: 7000
Column name: N/A
Retention time: 0.142 min
Base peak: 357.1901
Precursor m/z: 391.2854
Precursor type: [M-H]-
Precursor intensity: 169325
m/z	relative intensity	assigned
212.0443	1	C13H8O3-
223.1738	1	C14H23O2-
297.2205	4	C21H29O-
299.1956	1	C20H27O2-
391.2864	999	C24H39O4-
