Mass spectrum: N-Heptadecanoyl-D-erythro-Sphingosine; LC-ESI-QTOF; MS2; CE: 40eV; R=7000; [M-H]-
Name: N-Heptadecanoyl-D-erythro-Sphingosine
Name: N-Heptadecanoylsphingosine
Name: N-[(E,2S,3R)-1,3-dihydroxyoctadec-4-en-2-yl]heptadecanamide
Formula: C35H69NO3
Exact mass: 551.5277
SMILES: OC[C@H](NC(CCCCCCCCCCCCCCCC)=O)[C@H](O)/C=C/CCCCCCCCCCCCC
InChI: InChI=1S/C35H69NO3/c1-3-5-7-9-11-13-15-17-19-21-23-25-27-29-31-35(39)36-33(32-37)34(38)30-28-26-24-22-20-18-16-14-12-10-8-6-4-2/h28,30,33-34,37-38H,3-27,29,31-32H2,1-2H3,(H,36,39)/b30-28+/t33-,34+/m0/s1
Instrument: Agilent 6560 QTOF
Instrument type: LC-ESI-QTOF
Ms type: MS2
Ion mode: NEGATIVE
Ionization: ESI
Fragmentation mode: CID
Collision energy: 40 eV
Resolution: 7000
Column name: N/A
Retention time: 0.147 min
Base peak: 610.5434
Precursor m/z: 550.5205
Precursor type: [M-H]-
Precursor intensity: 51399
m/z	relative intensity	assigned
80.0271	28	C5H4O-
81.0345	47	C5H5O-
186.223	19	C12H28N-
209.048	16	C13H7NO2-
211.3414	11	C10H45NO2-
212.5296	14	C12H68-
223.0254	8	C13H5NO3-
235.2054	125	C16H27O-
237.2232	217	C16H29O-
237.5299	12	C13H67N-
238.2234	62	C15H28NO-
239.2355	21	C16H31O-
239.261	4	C16H33N-
251.2388	496	C17H31O-
251.4159	28	C14H53NO-
252.2378	40	C16H30NO-
262.2477	13	C15H34O3-
263.2408	121	C18H31O-
263.4162	12	C15H53NO-
266.255	15	C17H32NO-
267.2692	145	C18H35O-
268.2641	194	C17H34NO-
269.2462	55	C17H33O2-
282.2795	45	C18H36NO-
294.2798	999	C19H36NO-
295.2846	127	C19H37NO-
295.3525	7	C18H47O2-
295.379	9	C18H49NO-
295.4731	8	C17H61NO-
310.2736	122	C19H36NO2-
333.3142	29	C23H41O-
414.4498	10	C27H58O2-
441.1378	23	C30H19NO3-
448.4592	9	C31H60O-
460.2606	19	C33H34NO-
468.5147	11	C31H66NO-
502.4967	124	C34H64NO-
503.5121	28	C34H65NO-
518.4852	23	C34H64NO2-
