Mass spectrum: L-Glutamic acid ; LC-ESI-QTOF; MS2; CE: 10eV; R=5000; [M+H]+
Name: L-Glutamic acid 
Name: Glutamic acid
Name: (2S)-2-aminopentanedioic acid
Formula: C5H9NO4
Exact mass: 147.0532
SMILES: C(CC(=O)O)[C@@H](C(=O)O)N
InChI: InChI=1S/C5H9NO4/c6-3(5(9)10)1-2-4(7)8/h3H,1-2,6H2,(H,7,8)(H,9,10)/t3-/m0/s1
Instrument: Agilent 6530 QTOF
Instrument type: LC-ESI-QTOF
Ms type: MS2
Ion mode: POSITIVE
Ionization: ESI
Fragmentation mode: CID
Collision energy: 10 eV
Resolution: 5000
Column name: N/A
Retention time: 0.221 min
Base peak: 121.0508
Precursor m/z: 148.0604
Precursor type: [M+H]+
Precursor intensity: 47555
m/z	relative intensity	assigned
56.0509	93	C3H6N+
84.0448	999	C4H6NO+
102.0553	125	C4H8NO2+
130.0502	179	C5H8NO3+
