Mass spectrum: Di-n-butyl sebacate; LC-ESI-QTOF; MS2; CE: 5eV; R=7000; [M+H]+
Name: Di-n-butyl sebacate
Name: Dibutyl sebacate
Name: dibutyl decanedioate
Formula: C18H34O4
Exact mass: 314.2457
SMILES: CCCCOC(=O)CCCCCCCCC(=O)OCCCC
InChI: InChI=1S/C18H34O4/c1-3-5-15-21-17(19)13-11-9-7-8-10-12-14-18(20)22-16-6-4-2/h3-16H2,1-2H3
Instrument: Agilent 6560 QTOF
Instrument type: LC-ESI-QTOF
Ms type: MS2
Ion mode: POSITIVE
Ionization: ESI
Fragmentation mode: CID
Collision energy: 5 eV
Resolution: 7000
Retention time: 0.109 min
Base peak: 337.2348
Precursor m/z: 315.253
Precursor type: [M+H]+
Precursor intensity: 120716.75
m/z	relative intensity	assigned
67.0543	5	C5H7+
69.0697	15	C5H9+
79.0547	7	C6H7+
81.0699	41	C6H9+
85.028	5	C4H5O2+
93.0696	30	C7H9+
97.0653	12	C6H9O+
97.1014	9	C7H13+
107.0853	11	C8H11+
111.1182	10	C8H15+
119.0844	6	C9H11+
121.1009	148	C9H13+
131.0851	14	C10H11+
139.1114	299	C9H15O+
149.0963	48	C10H13O+
157.1226	55	C9H17O2+
167.107	49	C10H15O2+
185.1172	999	C10H17O3+
213.1857	13	C13H25O2+
241.1798	367	C14H25O3+
242.1833	28	C14H26O3+
315.2516	102	C18H35O4+
