Mass spectrum: Thyroxine; LC-ESI-QTOF; MS2; CE: 20eV; R=7000; [M-H]-
Name: Thyroxine
Name: Levothyroxine
Name: (2S)-2-amino-3-[4-(4-hydroxy-3,5-diiodophenoxy)-3,5-diiodophenyl]propanoic acid
Formula: C15H11I4NO4
Exact mass: 776.6867
SMILES: N[C@@H](CC1=CC(I)=C(OC2=CC(I)=C(O)C(I)=C2)C(I)=C1)C(O)=O
InChI: InChI=1S/C15H11I4NO4/c16-8-4-7(5-9(17)13(8)21)24-14-10(18)1-6(2-11(14)19)3-12(20)15(22)23/h1-2,4-5,12,21H,3,20H2,(H,22,23)/t12-/m0/s1
Instrument: Agilent 6560 QTOF
Instrument type: LC-ESI-QTOF
Ms type: MS2
Ion mode: NEGATIVE
Ionization: ESI
Fragmentation mode: CID
Collision energy: 20 eV
Resolution: 7000
Column name: N/A
Retention time: 0.170 min
Base peak: 255.2331
Precursor m/z: 775.6794
Precursor type: [M-H]-
Precursor intensity: 205476
m/z	relative intensity	assigned
126.9045	999	I-
156.0227	4	C10H4O2-
253.8129	5	I2-
347.9488	5	C14H7INO2-
358.8084	7	C6HI2O2-
359.8129	19	C6H2I2O2-
421.8306	1	C11H4I2O2-
447.837	5	C12H4I2NO2-
461.8569	21	C14H8I2O2-
466.7301	16	C7H2I3-
475.8737	10	C15H10I2O2-
476.8724	47	C14H9I2NO2-
485.7165	2	C2H3I3NO4-
531.7584	1	C11H5I3N-
560.7327	5	C12H4I3O2-
574.7502	149	C13H6I3O2-
575.7559	29	C13H7I3O2-
576.7086	4	C15I3O-
576.7755	2	C9H10I3NO4-
579.7764	3	C12H9I3NO2-
588.7659	83	C14H8I3O2-
602.7656	8	C14H8I3NO2-
603.7766	72	C14H9I3NO2-
604.7828	205	C14H10I3NO2-
631.7444	45	C15H7I3O4-
632.7547	3	C15H8I3O4-
647.7617	5	C15H9I3NO4-
648.7735	48	C15H10I3NO4-
701.6483	5	C12H4I4NO2-
702.6607	36	C13H7I4O2-
703.6494	6	C12H6I4NO2-
714.6528	16	C13H5I4NO2-
730.6594	21	C14H7I4O3-
731.6415	5	C13H6I4NO3-
758.6509	274	C15H7I4O4-
759.6633	16	C15H8I4O4-
761.6747	2	C15H10I4O4-
775.6773	456	C15H10I4NO4-
