Mass spectrum: N-Heptadecanoyl-D-erythro-Sphingosine; LC-ESI-QTOF; MS2; CE: 40eV; R=7000; [M+CH3COO]-
Name: N-Heptadecanoyl-D-erythro-Sphingosine
Name: N-Heptadecanoylsphingosine
Name: N-[(E,2S,3R)-1,3-dihydroxyoctadec-4-en-2-yl]heptadecanamide
Formula: C35H69NO3
Exact mass: 551.5277
SMILES: OC[C@H](NC(CCCCCCCCCCCCCCCC)=O)[C@H](O)/C=C/CCCCCCCCCCCCC
InChI: InChI=1S/C35H69NO3/c1-3-5-7-9-11-13-15-17-19-21-23-25-27-29-31-35(39)36-33(32-37)34(38)30-28-26-24-22-20-18-16-14-12-10-8-6-4-2/h28,30,33-34,37-38H,3-27,29,31-32H2,1-2H3,(H,36,39)/b30-28+/t33-,34+/m0/s1
Instrument: Agilent 6560 QTOF
Instrument type: LC-ESI-QTOF
Ms type: MS2
Ion mode: NEGATIVE
Ionization: ESI
Fragmentation mode: CID
Collision energy: 40 eV
Resolution: 7000
Column name: N/A
Retention time: 0.147 min
Base peak: 610.5434
Precursor m/z: 610.5416
Precursor type: [M+CH3COO]-
Precursor intensity: 337380
m/z	relative intensity	assigned
91.0292	1	C2H5NO3-
95.0496	6	C6H7O-
136.397	1	C6H50N-
154.2049	1	C4H28NO4-
167.2701	2	C3H37NO5-
187.4752	1	C8H61NO-
194.3902	1	C12H50-
201.046	1	C11H7NO3-
225.2217	9	C15H29O-
235.2056	12	C16H27O-
237.2225	320	C16H29O-
238.2249	37	C16H30O-
239.2342	8	C16H31O-
240.2359	2	C15H30NO-
249.2189	6	C17H29O-
250.0797	1	C20H10-
250.1843	1	C15H24NO2-
251.2393	299	C17H31O-
252.242	28	C17H32O-
252.4914	2	C13H64O2-
253.2504	1	C17H33O-
253.5072	2	C9H67NO4-
255.2226	3	C15H29NO2-
255.5091	2	C13H67O2-
256.0907	1	C19H12O-
261.2174	4	C18H29O-
263.2374	108	C18H31O-
264.2443	5	C18H32O-
266.2116	5	C16H28NO2-
266.2492	31	C17H32NO-
266.5672	1	C15H72N-
267.2693	26	C18H35O-
268.2665	190	C17H34NO-
269.2518	81	C17H33O2-
270.2532	15	C17H34O2-
280.2554	1	C14H34NO4-
282.2775	3	C15H38O4-
283.2785	5	C14H37NO4-
284.442	1	C12H60O5-
292.2641	4	C19H34NO-
292.4469	2	C14H60O4-
292.4698	1	C14H62NO3-
292.5169	2	C16H68O2-
292.5537	1	C17H72O-
293.0405	3	C24H5-
294.2811	999	C19H36NO-
295.2831	84	C16H39O4-
296.443	2	C13H60O5-
305.3264	10	C15H45O5-
305.3619	1	C16H49O4-
308.2573	15	C16H36O5-
309.2696	4	C19H35NO2-
310.2747	117	C19H36NO2-
311.2785	11	C16H39O5-
312.2897	6	C19H38NO2-
320.2962	1	C21H38NO-
322.2753	3	C20H36NO2-
325.2875	1	C24H37-
328.2135	1	C17H30NO5-
336.1614	1	C21H22NO3-
345.1325	1	C26H17O-
347.0466	3	C27H7O-
347.2693	1	C18H37NO5-
369.2819	1	C25H37O2-
379.5236	1	C26H67-
398.1491	1	C26H22O4-
408.2752	2	C23H38NO5-
409.4686	1	C21H63NO5-
410.1295	1	C30H18O2-
429.1176	1	C32H15NO-
457.2602	1	C30H35NO3-
463.3051	1	C30H41NO3-
463.4884	4	C32H63O-
465.4333	3	C33H55N-
475.4885	3	C33H63O-
490.5017	3	C33H64NO-
491.4849	5	C33H63O2-
499.2189	2	C34H29NO3-
499.3038	1	C37H39O-
502.4998	84	C34H64NO-
503.5023	8	C31H67O4-
504.0811	1	C37H12O3-
518.4938	44	C34H64NO2-
519.4975	12	C31H67O5-
520.5099	71	C34H66NO2-
521.5224	13	C34H67NO2-
523.1896	3	C36H27O4-
523.5324	3	C34H69NO2-
532.5103	1	C35H66NO2-
549.2487	1	C35H35NO5-
550.5181	7	C35H68NO3-
551.4667	1	C34H63O5-
