Mass spectrum: N-ACETYLGLUCOSAMINE; LC-ESI-QTOF; MS2; CE: 40eV; R=5000; [M+H]+
Name: N-ACETYLGLUCOSAMINE
Name: N-Acetyl-D-Glucosamine
Name: N-[(3R,4R,5S,6R)-2,4,5-trihydroxy-6-(hydroxymethyl)oxan-3-yl]acetamide
Formula: C8H15NO6
Exact mass: 221.0899
SMILES: CC(=O)N[C@H]1C(O)O[C@H](CO)[C@@H](O)[C@@H]1O
InChI: InChI=1S/C8H15NO6/c1-3(11)9-5-7(13)6(12)4(2-10)15-8(5)14/h4-8,10,12-14H,2H2,1H3,(H,9,11)/t4-,5-,6-,7-,8?/m1/s1
Instrument: Agilent 6530 QTOF
Instrument type: LC-ESI-QTOF
Ms type: MS2
Ion mode: POSITIVE
Ionization: ESI
Fragmentation mode: CID
Collision energy: 40 eV
Resolution: 5000
Column name: N/A
Retention time: 0.220 min
Base peak: 204.0864
Precursor m/z: 222.0972
Precursor type: [M+H]+
Precursor intensity: 263582
m/z	relative intensity	assigned
41.0392	290	C3H5+
43.0181	501	C2H3O+
44.0138	30	CH2NO+
44.0498	95	C2H6N+
45.0342	54	C2H5O+
51.0226	27	C4H3+
53.0385	501	C4H5+
55.0427	214	C3H5N+
56.0503	302	C3H6N+
57.034	32	C3H5O+
58.028	11	C2H4NO+
59.0362	14	C2H5NO+
60.044	72	C2H6NO+
61.0289	43	C2H5O2+
68.05	181	C4H6N+
69.0344	243	C4H5O+
70.0279	32	C3H4NO+
70.0664	173	C4H8N+
71.0496	49	C4H7O+
72.046	67	C3H6NO+
73.0285	23	C3H5O2+
78.0311	14	C2H6O3+
80.051	96	C5H6N+
81.0331	107	C5H5O+
83.0344	90	CH7O4+
84.0446	421	C4H6NO+
85.0291	23	C4H5O2+
92.048	26	C3H8O3+
96.0441	999	C5H6NO+
97.0294	235	C5H5O2+
98.0601	74	C5H8NO+
100.0407	29	C4H6NO2+
101.0274	2	C7H3N+
102.0559	13	C4H8NO2+
106.0275	9	C6H4NO+
108.0432	33	C6H6NO+
109.0279	78	C6H5O2+
110.058	14	C3H10O4+
110.9799	2	HNO6+
113.0463	46	C5H7NO2+
114.0539	29	C5H8NO2+
121.0495	4	C4H9O4+
126.0531	11	C3H10O5+
138.0527	118	C4H10O5+
144.0638	11	C3H12O6+
