Mass spectrum: Bis(2-butoxyethyl) 3?-hydroxy-2-butoxyethyl phosphate ; LC-ESI-QTOF; MS2; CE: 20eV; R=7000; [M+Na]+
Name: Bis(2-butoxyethyl) 3?-hydroxy-2-butoxyethyl phosphate 
Name: Bis(2-butoxyethyl) 3-hydroxyl-2-butoxyethyl phosphate
Name: bis(2-butoxyethyl) 2-(3-hydroxybutoxy)ethyl phosphate
Formula: C18H39O8P
Exact mass: 414.2383
SMILES: CCCCOCCOP(=O)(OCCOCCCC)OCCOCCC(C)O
InChI: InChI=1S/C18H39O8P/c1-4-6-9-21-12-15-24-27(20,25-16-13-22-10-7-5-2)26-17-14-23-11-8-18(3)19/h18-19H,4-17H2,1-3H3
Instrument: Agilent 6560 QTOF
Instrument type: LC-ESI-QTOF
Ms type: MS2
Ion mode: POSITIVE
Ionization: ESI
Fragmentation mode: CID
Collision energy: 20 eV
Resolution: 7000
Retention time: 0.148 min
Base peak: 415.2481
Precursor m/z: 437.2275
Precursor type: [M+Na]+
Precursor intensity: 243446.19
m/z	relative intensity	assigned
120.9645	13	H3NaO4P+
139.073	17	CH16O5P+
141.088	6	C6H14NaO2+
146.981	127	C2H5NaO4P+
157.0832	127	C6H14NaO3+
158.0861	4	C8H15OP+
164.9921	20	C2H7NaO5P+
203.044	15	C6H13NaO4P+
219.0391	93	C6H13NaO5P+
221.0546	101	C6H15NaO5P+
222.0595	5	C15H11P+
237.0492	169	C6H15NaO6P+
241.1779	4	C7H30O6P+
247.0721	3	C15H12NaO2+
263.0641	6	C8H17NaO6P+
319.1257	3	C12H25NaO6P+
321.1433	41	C12H27NaO6P+
322.1475	3	C12H28NaO6P+
337.1388	488	C12H27NaO7P+
338.1421	25	C12H28NaO7P+
393.2039	4	C18H34O7P+
437.2274	999	C18H39NaO8P+
