Mass spectrum: S-CARBOXYMETHYLCYSTEINE; LC-ESI-QTOF; MS2; CE: 40eV; R=5000; [M+H]+
Name: S-CARBOXYMETHYLCYSTEINE
Name: Rhinathiol
Name: 2-amino-3-(carboxymethylsulfanyl)propanoic acid
Formula: C5H9NO4S
Exact mass: 179.0252
SMILES: NC(CSCC(O)=O)C(O)=O
InChI: InChI=1S/C5H9NO4S/c6-3(5(9)10)1-11-2-4(7)8/h3H,1-2,6H2,(H,7,8)(H,9,10)
Instrument: Agilent 6530 QTOF
Instrument type: LC-ESI-QTOF
Ms type: MS2
Ion mode: POSITIVE
Ionization: ESI
Fragmentation mode: CID
Collision energy: 40 eV
Resolution: 5000
Column name: N/A
Retention time: 0.221 min
Base peak: 121.0508
Precursor m/z: 180.0325
Precursor type: [M+H]+
Precursor intensity: 33681
m/z	relative intensity	assigned
42.0342	207	C2H4N+
43.0177	66	C2H3O+
45.0329	46	C2H5O+
55.018	34	C3H3O+
57.9878	13	C2H2S+
58.9943	999	C2H3S+
61.0093	219	C2H5S+
62.0184	1	C2H6S+
74.0033	126	C5N+
82.0444	9	C2H10OS+
88.02	64	H8O3S+
90.984	39	C2H3O2S+
109.0473	58	C3H9O4+
124.9755	35	CH3NO4S+
