Mass spectrum: Cortisol; LC-ESI-QTOF; MS2; CE: 10eV; R=7000; [M+Cl]-
Name: Cortisol
Name: Hydrocortisone
Name: (8S,9S,10R,11S,13S,14S,17R)-11,17-dihydroxy-17-(2-hydroxyacetyl)-10,13-dimethyl-2,6,7,8,9,11,12,14,15,16-decahydro-1H-cyclopenta[a]phenanthren-3-one
Formula: C21H30O5
Exact mass: 362.2093
SMILES: C[C@]12CCC(=O)C=C1CC[C@@H]3[C@@H]2[C@H](C[C@]4([C@H]3CC[C@@]4(C(=O)CO)O)C)O
InChI: InChI=1S/C21H30O5/c1-19-7-5-13(23)9-12(19)3-4-14-15-6-8-21(26,17(25)11-22)20(15,2)10-16(24)18(14)19/h9,14-16,18,22,24,26H,3-8,10-11H2,1-2H3/t14-,15-,16-,18+,19-,20-,21-/m0/s1
Instrument: Agilent 6560 QTOF
Instrument type: LC-ESI-QTOF
Ms type: MS2
Ion mode: NEGATIVE
Ionization: ESI
Fragmentation mode: CID
Collision energy: 10 eV
Resolution: 7000
Column name: N/A
Retention time: 0.189 min
Base peak: 421.2245
Precursor m/z: 397.1787
Precursor type: [M+Cl]-
Precursor intensity: 8189
m/z	relative intensity	assigned
80.1196	86	C4H16O-
220.1456	89	C8H25ClO4-
250.1023	76	C17H14O2-
282.1213	378	C12H23ClO5-
315.1544	214	C20H24ClO-
335.9617	64	C21HClO3-
363.0061	419	C20H8ClO5-
397.1842	999	C21H30ClO5-
