Mass spectrum: 1-octadecanoyl-sn-glycero-3-phosphocholine; LC-ESI-QTOF; MS2; CE: 10eV; R=7000; [M-CH3]-
Name: 1-octadecanoyl-sn-glycero-3-phosphocholine
Name: [(2R)-2-hydroxy-3-octadecanoyloxypropyl] 2-(trimethylazaniumyl)ethyl phosphate
Formula: C26H54NO7P
Exact mass: 523.3638
SMILES: CCCCCCCCCCCCCCCCCC(=O)OC[C@H](COP(=O)([O-])OCC[N+](C)(C)C)O
InChI: InChI=1S/C26H54NO7P/c1-5-6-7-8-9-10-11-12-13-14-15-16-17-18-19-20-26(29)32-23-25(28)24-34-35(30,31)33-22-21-27(2,3)4/h25,28H,5-24H2,1-4H3/t25-/m1/s1
Instrument: Agilent 6560 QTOF
Instrument type: LC-ESI-QTOF
Ms type: MS2
Ion mode: NEGATIVE
Ionization: ESI
Fragmentation mode: CID
Collision energy: 10 eV
Resolution: 7000
Column name: N/A
Retention time: 0.169 min
Base peak: 582.3796
Precursor m/z: 508.3409
Precursor type: [M-CH3]-
Precursor intensity: 9424
m/z	relative intensity	assigned
164.1835	166	C2H28O7-
196.0994	212	C10H14NO3-
242.0785	417	C11H14O6-
244.2311	40	C15H33P-
282.9918	245	C17HNO4-
283.2637	888	C18H35O2-
284.9736	225	C17H2O3P-
398.0296	96	C22H8NO7-
508.3457	999	C25H51NO7P-
