Mass spectrum: (3R,7R,11S,15S,18S,22S,26R,30R)-3,7,11,15,18,22,26,30-Octamethyldotriacontane-1,32-diol; FAB-B; MS
Name: (3R,7R,11S,15S,18S,22S,26R,30R)-3,7,11,15,18,22,26,30-Octamethyldotriacontane-1,32-diol
Class: Prenol Lipids
Formula: C40H82O2
Exact mass: 594.63148
SMILES: C(CC(C)CCO)CC(C)CCCC(C)CCCC(C)CCC(C)CCCC(C)CCCC(C)CCCC(C)CCO
InChI: InChI=1S/C40H82O2/c1-33(15-9-17-35(3)21-13-25-39(7)29-31-41)19-11-23-37(5)27-28-38(6)24-12-20-34(2)16-10-18-36(4)22-14-26-40(8)30-32-42/h33-42H,9-32H2,1-8H3
Instrument: JEOL JMS DX-303
Instrument type: FAB-B
Ms type: MS
Ion mode: POSITIVE
Ionization: FAB
Ion type: [M+H]+
m/z	relative intensity
301.0	30
302.0	101
303.0	115
305.5	95
308.0	160
309.0	83
310.0	89
312.0	127
313.0	108
314.8	100
317.8	96
320.0	79
321.0	71
322.0	98
323.5	95
325.8	95
328.0	91
330.0	86
332.0	81
333.0	65
334.0	81
336.0	98
338.0	88
338.8	56
340.0	116
342.0	97
343.0	71
344.0	85
346.0	80
347.4	76
348.9	79
350.0	69
352.0	69
354.2	75
355.1	82
356.0	79
357.1	80
359.2	96
360.0	75
361.2	77
362.0	56
363.1	81
363.7	64
365.4	73
365.8	57
369.1	107
370.0	95
371.4	65
372.3	52
374.2	93
375.8	73
377.5	51
378.3	56
380.0	67
382.0	61
383.4	61
385.2	74
385.8	61
387.8	89
390.0	61
391.1	83
393.1	77
394.0	57
395.0	65
396.3	71
397.0	118
399.2	95
400.0	76
401.2	63
402.0	59
404.0	63
405.6	57
407.3	55
410.0	72
411.0	67
411.9	72
413.4	62
414.0	57
415.2	66
415.8	56
417.0	51
417.6	45
419.0	63
420.2	77
421.0	53
422.0	59
424.0	66
425.2	53
426.3	74
428.0	59
429.9	64
431.2	67
432.0	61
433.3	64
434.7	60
435.6	47
437.2	53
438.0	49
438.9	60
439.5	51
440.9	67
442.0	56
444.1	54
445.3	43
446.5	35
447.7	63
448.8	45
450.0	52
451.0	62
451.9	73
452.6	60
453.7	72
454.5	53
455.9	57
457.0	52
457.9	59
458.8	39
459.6	61
460.4	47
462.2	59
462.8	33
464.0	52
465.0	89
465.5	52
466.6	54
467.8	40
469.0	59
470.0	53
470.9	56
472.9	51
475.1	59
477.1	49
478.8	48
480.2	64
481.1	57
482.0	65
484.1	55
486.2	53
487.0	24
487.9	53
489.8	49
491.0	32
493.2	55
496.0	52
497.7	49
499.1	56
501.0	52
501.9	58
503.9	49
504.8	34
507.1	66
508.0	55
508.8	58
510.0	50
511.1	39
513.9	66
514.6	38
515.6	54
517.2	60
518.9	56
520.9	58
523.2	72
526.6	60
527.2	50
530.0	58
531.1	52
532.7	48
535.0	50
536.0	62
537.2	77
539.0	34
539.9	45
540.9	52
543.7	54
544.6	44
545.8	46
546.7	59
549.1	72
550.0	46
551.1	69
552.3	62
554.2	58
555.7	41
557.0	110
558.8	68
560.2	76
561.6	46
562.7	63
563.5	46
564.9	65
566.9	55
570.7	60
573.2	112
574.3	84
575.2	119
576.0	92
576.9	106
579.1	64
581.0	65
584.2	51
587.9	91
591.2	93
592.0	81
593.0	223
594.0	132
595.0	999
596.0	528
597.0	147
598.0	68
599.2	63
600.8	74
603.1	90
604.0	56
605.8	86
608.3	82
609.0	35
610.0	57
611.0	49
612.8	53
614.8	56
616.0	49
617.2	46
618.6	47
620.8	43
622.6	49
624.5	48
626.9	66
628.0	51
629.2	38
630.6	55
632.0	53
633.7	59
634.5	43
636.2	41
637.8	54
638.8	41
640.8	47
641.8	43
644.0	34
645.7	44
647.4	51
649.8	51
651.4	34
652.3	53
654.3	43
656.0	30
657.7	73
658.6	37
660.2	50
661.5	41
663.0	35
665.2	44
668.0	45
669.7	60
672.3	58
673.8	34
675.7	38
677.4	45
679.7	47
681.4	70
683.0	30
684.3	39
685.5	40
687.7	34
689.2	40
691.5	57
693.4	45
694.5	41
695.7	88
697.7	58
698.5	46
699.5	52
700.0	33
701.5	58
704.0	40
706.5	47
707.5	44
710.0	60
712.0	69
714.0	89
715.8	51
717.7	29
719.4	35
723.1	39
724.5	28
725.7	53
728.0	37
729.8	59
731.0	51
732.0	31
734.8	31
736.0	22
737.2	27
738.8	34
740.2	42
742.0	45
744.0	29
746.2	33
748.2	23
750.0	23
752.9	39
754.0	28
755.6	28
757.9	37
759.9	29
761.0	19
762.6	27
764.1	31
765.7	49
766.6	32
767.5	21
768.5	29
769.8	38
771.4	16
773.6	34
775.7	32
778.6	23
780.5	24
782.2	26
783.7	28
786.5	22
788.8	33
790.0	17
792.2	24
794.7	31
796.5	20
798.5	22
800.8	20
804.0	44
807.9	26
809.6	41
812.0	27
814.1	36
815.0	18
816.7	27
818.7	35
820.7	18
822.8	26
825.1	25
827.1	39
829.7	25
832.0	34
833.4	29
835.0	31
838.2	23
839.6	15
841.0	19
843.5	21
845.2	31
846.9	29
848.1	20
849.5	20
851.2	22
852.3	18
853.9	43
857.4	27
859.5	20
861.9	21
864.1	25
865.8	30
867.3	26
868.7	25
870.0	34
871.0	21
872.0	13
874.3	18
875.9	27
877.9	34
880.3	20
882.2	19
885.0	27
887.0	23
888.9	27
890.9	27
892.1	32
894.0	25
896.6	26
898.1	24
899.0	15
900.0	25
901.0	17
902.9	21
904.2	21
906.0	24
907.9	25
910.8	24
913.0	14
914.6	28
916.1	18
918.1	18
919.5	19
923.7	19
925.4	15
927.6	18
929.7	24
931.0	10
933.4	24
934.8	28
936.0	13
937.6	27
939.0	21
941.6	23
943.3	25
945.5	20
948.0	12
949.5	27
950.5	23
952.9	21
954.0	11
954.8	25
956.0	15
957.6	23
958.8	16
959.8	27
961.6	32
962.5	23
963.2	16
964.7	28
967.0	18
968.4	24
969.3	19
971.8	18
973.0	15
974.6	17
977.0	41
978.8	19
980.8	18
984.2	14
985.8	23
987.8	19
988.9	33
991.0	17
992.6	21
993.8	32
995.2	18
996.0	13
999.8	15
1002.1	24
1004.0	8
1004.9	24
1008.3	16
1010.0	26
1011.8	17
1013.2	17
1015.0	15
1016.0	19
1017.6	27
1020.9	26
1023.6	17
1026.1	18
1028.8	21
1032.1	15
1033.6	18
1034.5	21
1037.9	15
1039.9	25
1041.0	24
1043.1	23
1046.6	26
1047.5	21
1049.8	18
1051.7	21
1053.7	18
1056.1	15
1058.0	25
1059.7	21
1062.1	15
1064.0	21
1065.6	17
1068.0	42
1069.5	26
1073.3	25
1076.0	42
1077.5	10
1079.1	21
1081.9	29
1085.3	16
1088.0	36
1091.4	18
1092.5	10
1094.9	25
1098.9	20
1102.0	14
1105.0	15
1106.3	28
1107.9	20
1110.4	17
1112.2	15
1114.0	13
1115.2	21
1117.0	13
1118.1	29
1119.8	27
1121.6	15
1124.2	33
1125.9	13
1127.3	23
1129.0	15
1130.2	15
1132.2	17
1133.4	13
1135.1	17
1138.1	24
1141.2	18
1142.1	21
1144.1	22
1145.4	14
1147.3	20
1149.2	18
1151.4	16
1154.3	28
1156.1	17
1158.4	22
1161.1	23
1164.4	23
1165.5	13
1166.3	22
1167.9	34
1169.3	28
1171.1	21
1172.9	24
1176.1	32
1178.3	18
1182.8	23
1185.7	23
1188.0	52
1189.8	22
1191.6	22
1193.2	23
1195.0	7
1197.4	24
1199.5	21
1203.6	17
1206.0	30
1207.9	17
1210.0	9
1212.8	24
1214.7	21
1215.5	25
1217.9	14
1219.9	39
1220.9	15
1222.1	6
1224.0	28
1226.0	11
1228.0	11
1228.3	16
1230.4	18
1232.0	14
1234.0	17
1237.4	17
1238.2	17
1239.7	17
1243.1	20
1244.7	10
1246.5	18
1248.1	41
1249.5	13
1250.9	26
1252.0	14
1255.2	19
1256.9	18
1259.8	19
1262.1	20
1263.5	7
1265.1	12
1267.9	26
1270.0	13
1271.9	21
1274.0	27
1276.0	23
1277.9	17
1279.0	13
1281.8	18
1283.9	17
1285.0	17
1287.0	21
1288.0	66
1289.0	14
1291.2	18
1294.0	8
1295.7	17
1297.1	14
1298.0	7
1299.7	20
1301.7	17
1303.1	19
1304.9	30
1306.6	26
1308.6	15
1310.9	13
1312.0	10
1314.4	22
1316.0	13
1317.8	25
1319.6	48
1322.5	16
1325.5	32
1327.9	17
1329.0	7
1330.7	16
1332.2	19
1334.7	24
1336.2	12
1337.3	13
1340.5	8
1342.6	20
1344.2	8
1346.9	16
1349.5	14
1352.0	11
1353.7	16
1355.2	13
1356.4	18
1359.7	18
1361.0	8
1362.6	13
1363.8	18
1367.6	39
1369.6	9
1373.3	12
1374.8	9
1375.9	28
1377.8	20
1378.5	11
1379.6	14
1382.0	13
1383.9	19
1386.5	12
1387.7	39
1389.0	9
1390.5	14
1391.9	8
1394.9	29
1397.7	21
1400.8	25
1403.7	10
1406.0	20
1408.0	12
1410.8	17
1414.0	23
1415.7	23
1420.0	61
1421.0	13
1422.7	21
1425.9	12
1427.0	8
1428.7	18
1431.0	11
1432.7	19
1434.7	8
1436.1	13
1438.1	14
1440.6	10
1442.0	19
1443.7	18
1444.9	7
1446.6	21
1450.0	17
1451.7	13
1455.8	21
1457.8	13
1458.8	9
1460.2	15
1461.8	19
1464.8	20
1468.2	28
1469.8	13
1472.2	21
1474.0	16
1476.6	15
1479.1	18
1481.5	19
1482.6	21
1485.2	21
1487.1	27
1488.8	24
1491.2	15
1492.2	7
1493.7	13
