Mass spectrum: 2,3-di-O-Phytanyl-sn-glycerol-1-phosphoserine; FD-B; MS
Name: 2,3-di-O-Phytanyl-sn-glycerol-1-phosphoserine
Name: archaetidylserine
Class: Glycerophospholipids; Glycerophosphoserines; Dialkylglycerophosphoserines
Formula: C46H94NO8P
Exact mass: 819.67171
SMILES: C[C@H](CCC[C@H](C)CCCC(C)C)CCC[C@@H](C)CCOC[C@H](COP(=O)(O)OC[C@H](C(=O)O)N)OCC[C@H](C)CCC[C@H](C)CCC[C@H](C)CCCC(C)C
InChI: InChI=1S/C46H94NO8P/c1-36(2)17-11-19-38(5)21-13-23-40(7)25-15-27-42(9)29-31-52-33-44(34-54-56(50,51)55-35-45(47)46(48)49)53-32-30-43(10)28-16-26-41(8)24-14-22-39(6)20-12-18-37(3)4/h36-45H,11-35,47H2,1-10H3,(H,48,49)(H,50,51)/t38-,39-,40-,41-,42-,43-,44-,45-/m1/s1
Instrument: JMS DX-300/JMS-3500 data system, Japan Electron Optics Laboratory, Japan
Instrument type: FD-B
Ms type: MS
Ion mode: POSITIVE
Ion type: [M]+*
m/z	relative intensity
19.0	523
29.0	108
42.0	88
43.0	999
56.0	176
57.0	258
61.0	80
63.0	68
68.0	50
69.0	68
70.0	235
71.0	186
78.0	87
84.0	157
88.0	124
91.0	116
98.0	126
99.0	112
111.0	119
112.0	117
119.0	306
127.0	52
132.0	63
137.0	54
140.0	132
153.0	50
161.0	67
175.0	76
239.0	114
326.0	52
366.0	140
435.0	51
634.0	158
635.0	114
650.0	61
651.0	122
652.0	99
653.0	529
654.0	293
655.0	173
730.0	125
731.0	190
732.0	496
733.0	814
734.0	347
735.0	131
736.0	61
804.0	78
805.0	104
806.0	59
843.0	53
931.0	70
