Mass spectrum: 2,3-di-O-Phytanyl-1-O-(Glcp-beta-1'-6'-Glcp-beta-1'-)-sn-glycerol; FAB-B; MS
Name: 2,3-di-O-Phytanyl-1-O-(Glcp-beta-1'-6'-Glcp-beta-1'-)-sn-glycerol
Name: gentiobisylarchaeol
Class: Glycerolipids; Glycosyldiradylglycerols; Glycosyldialkylglycerols
Formula: C55H108O13
Exact mass: 976.77899
SMILES: C[C@@H](CCC[C@@H](C)CCCC(C)C)CCC[C@H](C)CCOCC(CO[C@H]1[C@@H]([C@H]([C@@H]([C@H](O1)CO[C@H]2[C@@H]([C@H]([C@@H]([C@H](O2)CO)O)O)O)O)O)O)OCC[C@H](C)CCC[C@H](C)CCC[C@H](C)CCCC(C)C
InChI: InChI=1S/C55H108O13/c1-37(2)17-11-19-39(5)21-13-23-41(7)25-15-27-43(9)29-31-63-34-45(64-32-30-44(10)28-16-26-42(8)24-14-22-40(6)20-12-18-38(3)4)35-65-54-53(62)51(60)49(58)47(68-54)36-66-55-52(61)50(59)48(57)46(33-56)67-55/h37-62H,11-36H2,1-10H3/t39-,40+,41-,42+,43-,44+,45?,46+,47+,48+,49+,50-,51-,52+,53+,54+,55+/m0/s1
Instrument: JMS DX-300/JMS-3500 data system, Japan Electron Optics Laboratory, Japan
Instrument type: FAB-B
Ms type: MS
Ion mode: NEGATIVE
Ionization: FAB
Ion type: [M-H]-
m/z	relative intensity
100.0	157
101.0	46
102.0	75
107.0	51
109.0	51
110.0	83
112.0	54
114.0	36
116.0	96
118.0	61
120.0	10
122.0	34
124.0	37
126.0	34
128.0	20
130.0	15
132.0	30
135.0	77
137.0	19
139.0	16
141.0	31
143.0	22
145.0	19
148.0	111
156.0	18
158.0	45
160.0	61
162.0	78
164.0	4
179.0	14
180.0	56
182.0	203
183.0	999
184.0	100
193.0	12
210.0	7
254.0	3
272.0	23
273.0	100
274.0	5
365.0	3
975.0	63
976.0	30
