Mass spectrum: Cytidine-diphospho-(2,3-di-O-geranylgeranyl-sn-glycerol); FAB-B; MS
Name: Cytidine-diphospho-(2,3-di-O-geranylgeranyl-sn-glycerol)
Name: cytidine-diphospho-(2,3-di-O-3',7',11',15'-tetramethylhexadec-2',6',10',14'-tetraenyl)-sn-glycerol
Name: CDP-archaeol
Class: Glycerophospholipids; CDP-Glycerols
Formula: C52H85N3O13P2
Exact mass: 1021.55576
SMILES: CC(=CCC/C(=C/CC/C(=C/CC/C(=C/COCC(COP(=O)(O)OP(=O)(O)OC[C@@H]1C(C([C@@H](O1)N2C=CC(=NC2=O)N)O)O)OC/C=C(\C)/CC/C=C(\C)/CC/C=C(\C)/CCC=C(C)C)/C)/C)/C)C
InChI: InChI=1S/C52H85N3O13P2/c1-38(2)17-11-19-40(5)21-13-23-42(7)25-15-27-44(9)30-33-63-35-46(64-34-31-45(10)28-16-26-43(8)24-14-22-41(6)20-12-18-39(3)4)36-65-69(59,60)68-70(61,62)66-37-47-49(56)50(57)51(67-47)55-32-29-48(53)54-52(55)58/h17-18,21-22,25-26,29-32,46-47,49-51,56-57H,11-16,19-20,23-24,27-28,33-37H2,1-10H3,(H,59,60)(H,61,62)(H2,53,54,58)/b40-21+,41-22+,42-25+,43-26+,44-30+,45-31+/t46?,47-,49?,50?,51-/m1/s1
Instrument: JEOL JMS DX-303
Instrument type: FAB-B
Ms type: MS
Ion mode: POSITIVE
Ionization: FAB
Ion type: [M+Na]+
m/z	relative intensity
702.0	380
703.0	569
703.5	228
705.0	497
706.0	185
707.0	473
708.0	408
709.0	478
711.0	455
712.0	444
713.0	486
714.0	394
716.0	642
717.0	596
718.0	394
719.0	468
720.0	377
721.0	534
722.0	391
723.0	552
724.0	397
725.0	532
726.0	319
727.0	424
728.0	496
729.0	220
730.0	518
731.0	251
732.0	438
733.0	484
734.0	362
736.0	406
737.0	295
738.0	525
739.0	613
741.0	571
743.0	500
745.0	457
746.0	330
747.0	452
748.0	204
750.0	494
751.0	447
752.0	399
753.0	212
754.0	432
755.0	447
757.0	522
758.0	397
759.0	814
760.0	534
761.0	671
762.0	347
763.0	528
764.0	236
765.0	405
766.0	177
767.0	424
768.0	311
769.0	449
770.0	120
771.0	491
772.0	369
773.0	608
774.0	789
775.0	667
776.0	454
778.0	845
779.0	241
780.0	488
781.0	174
782.0	608
783.0	424
784.0	163
785.0	403
786.0	338
787.0	412
788.0	385
789.0	492
790.0	454
791.0	656
792.0	504
794.0	646
795.0	163
796.0	672
797.0	580
798.0	462
799.0	227
800.0	722
801.0	442
802.0	396
803.0	293
804.0	503
805.0	412
806.0	391
808.0	481
809.0	556
810.0	492
811.0	499
812.0	431
813.0	621
814.0	501
815.0	556
816.0	480
817.0	262
818.0	502
819.0	409
820.0	391
821.0	238
822.0	512
823.0	315
824.0	435
825.0	218
826.0	421
827.0	573
828.0	457
829.0	166
830.0	404
831.0	686
832.0	423
833.0	212
834.0	436
835.0	435
836.0	421
837.0	414
838.0	423
839.0	477
841.0	224
842.0	425
843.0	418
844.0	424
845.0	504
846.0	430
847.0	487
848.0	408
849.0	262
850.0	439
851.0	381
852.0	343
853.0	208
854.0	482
855.0	410
856.0	325
857.0	437
858.0	383
859.0	417
860.0	398
861.0	699
862.0	415
863.0	477
864.0	441
866.0	437
867.0	397
868.0	330
869.0	193
870.0	356
871.0	347
872.0	231
873.0	284
874.0	384
875.0	432
876.0	365
877.0	467
878.0	369
879.0	393
880.0	364
881.0	415
882.0	388
883.0	435
884.0	195
885.0	309
886.0	410
887.0	201
888.0	324
889.0	339
890.0	319
891.0	324
892.0	448
893.0	297
894.0	436
896.0	389
897.0	178
898.0	414
899.0	357
900.0	356
902.0	421
903.0	421
904.0	340
905.0	338
906.0	348
907.0	357
908.0	354
909.0	386
910.0	313
911.0	370
912.0	323
913.0	354
914.0	359
915.0	363
916.0	311
917.0	327
918.0	169
919.0	324
920.0	351
921.0	379
923.0	426
924.0	323
925.0	175
926.0	350
928.0	376
929.0	367
930.0	289
932.0	343
933.0	366
934.0	266
935.0	359
936.0	371
938.0	285
940.0	344
941.0	303
942.0	264
943.0	273
944.0	300
945.0	344
946.0	361
947.0	325
948.0	341
949.0	307
950.0	324
951.0	356
952.0	303
953.0	341
954.0	281
955.0	317
956.0	264
957.0	346
958.0	303
959.0	280
960.0	301
961.0	260
962.0	295
963.0	353
964.0	277
965.0	351
966.0	282
967.0	289
968.0	329
969.0	396
970.0	336
972.0	396
973.0	331
975.0	307
977.0	293
978.0	341
979.0	279
980.0	301
981.0	271
982.0	218
983.0	317
984.0	242
985.0	261
987.0	340
988.0	282
989.0	218
990.0	314
991.0	254
992.0	144
993.0	258
994.0	224
995.0	309
996.0	243
998.0	260
999.0	256
1000.0	160
1001.0	290
1002.0	260
1003.0	216
1004.0	254
1005.0	266
1006.0	294
1007.0	241
1008.0	297
1009.0	278
1010.0	232
1011.0	308
1012.0	269
1013.0	241
1015.0	357
1016.0	187
1017.0	226
1018.0	257
1019.0	299
1020.0	279
1021.0	260
1023.0	306
1024.0	268
1025.0	182
1026.0	266
1027.0	219
1028.0	241
1029.0	308
1030.0	226
1032.0	251
1033.0	164
1034.0	290
1035.0	282
1036.0	231
1037.0	236
1038.0	237
1039.0	180
1040.0	277
1041.0	249
1042.0	259
1043.0	258
1045.0	484
1046.0	419
1047.0	304
1048.0	226
1049.0	231
1050.0	231
1051.0	287
1052.0	240
1053.0	226
1054.0	227
1055.0	225
1056.0	228
1057.0	240
1058.0	265
1059.0	243
1061.0	386
1062.0	623
1064.0	463
1066.0	806
1068.0	545
1069.0	402
1070.0	298
1071.0	241
1072.0	254
1073.0	261
1074.0	247
1075.0	315
1076.0	327
1077.0	364
1078.0	398
1079.0	263
1080.0	363
1081.0	577
1082.0	466
1085.0	999
1087.0	750
1088.0	465
1088.5	432
1089.0	266
1090.0	333
1091.0	386
1092.0	338
1093.0	244
1094.0	455
1095.0	449
1096.0	365
1097.0	396
1099.0	650
1100.0	543
1101.0	494
1103.0	765
1104.0	511
1105.0	448
1107.0	558
1108.0	485
1109.0	442
1110.0	302
1111.0	298
1113.0	390
1114.0	341
1115.0	407
1117.0	824
1118.0	679
1119.0	425
1120.0	417
1121.0	469
1122.0	356
1123.0	371
1124.0	342
1125.0	405
1126.0	302
1127.0	319
1128.0	284
1129.0	329
1131.0	370
1132.0	355
1133.0	427
1135.0	425
1136.0	414
1137.0	211
1139.0	485
1140.0	375
1141.0	355
1142.0	317
1144.0	277
1145.0	284
1146.0	254
1147.0	331
1148.0	396
1149.0	302
1150.0	317
1152.0	304
1154.0	296
1155.0	326
1156.0	297
1157.0	352
1158.0	300
1159.0	359
1160.0	260
1161.0	282
1162.0	229
1163.0	286
1164.0	230
1165.0	331
1166.0	270
1167.0	330
1168.0	279
1169.0	409
1170.0	271
1171.0	300
1172.0	264
1173.0	297
1174.0	301
1175.0	320
1176.0	268
1177.0	278
1178.0	266
1179.0	299
1180.0	228
1181.0	324
1182.0	220
1183.0	258
1184.0	259
1185.0	232
