Mass spectrum: 2,3-di-O-Phytanyl-sn-glycerol phosphate; FAB-B; MS
Name: 2,3-di-O-Phytanyl-sn-glycerol phosphate
Class: Glycerophospholipids; Glycerophosphates; Dialkylglycerophosphates
Formula: C43H89O6P
Exact mass: 732.63968
SMILES: O(C(COP(O)(O)=O)COCCC(CCCC(CCCC(C)CCCC(C)C)C)C)CCC(C)CCCC(CCCC(C)CCCC(C)C)C
InChI: InChI=1S/C43H89O6P/c1-35(2)17-11-19-37(5)21-13-23-39(7)25-15-27-41(9)29-31-47-33-43(34-49-50(44,45)46)48-32-30-42(10)28-16-26-40(8)24-14-22-38(6)20-12-18-36(3)4/h35-43H,11-34H2,1-10H3,(H2,44,45,46)
Instrument: JMS DX-300/JMS-3500 data system, Japan Electron Optics Laboratory, Japan
Instrument type: FAB-B
Ms type: MS
Ion mode: NEGATIVE
Ionization: FAB
Ion type: [M-H]-
m/z	relative intensity
58.0	379
59.0	733
63.0	362
71.0	386
79.0	999
91.0	856
96.0	120
97.0	408
110.0	143
137.0	155
151.0	30
171.0	7
181.0	26
183.0	167
184.0	15
185.0	3
193.0	4
195.0	3
197.0	3
211.0	4
227.0	4
231.0	8
275.0	7
293.0	6
433.0	6
449.0	3
729.0	6
731.0	30
732.0	9
