Mass spectrum: H-shaped caldarchaeol  alcohol; FAB-B; MS
Name: H-shaped caldarchaeol  alcohol
Class: Prenol Lipids
Formula: C80H162O4
Exact mass: 1187.24731
SMILES: C(C)(CCCC(CCCC(CCO)C)C)CCCC(CC(CCC(CCCC(C)CCCC(CCO)C)C)C(C)CCC(CCCC(CCCC(CCCC(CCO)C)C)C)C)CCC(CCCC(CCCC(CCCC(C)CCO)C)C)C
InChI: InChI=1S/C80H162O4/c1-64(27-16-29-66(3)36-22-43-74(11)55-59-81)33-19-40-71(8)49-52-78(15)80(54-51-73(10)42-21-35-69(6)39-25-46-77(14)58-62-84)63-79(48-26-47-70(7)32-18-31-68(5)38-24-45-76(13)57-61-83)53-50-72(9)41-20-34-65(2)28-17-30-67(4)37-23-44-75(12)56-60-82/h64-84H,16-63H2,1-15H3
Instrument: JEOL JMS DX-303
Instrument type: FAB-B
Ms type: MS
Ion mode: POSITIVE
Ionization: FAB
Ion type: [M]+
m/z	relative intensity
300.8	164
301.4	129
302.5	111
303.0	56
304.5	210
305.5	70
306.0	107
307.5	70
308.6	109
309.0	61
310.6	145
311.7	66
312.6	122
313.4	83
314.8	150
315.4	201
317.0	197
318.0	87
319.0	213
319.6	71
321.0	110
322.7	96
323.3	81
324.7	81
325.7	61
326.4	136
328.8	113
330.0	72
330.5	172
331.6	63
332.8	173
335.3	161
336.0	83
336.7	127
337.6	50
338.7	82
339.5	68
341.0	107
341.5	45
343.0	135
344.0	181
345.0	165
346.6	123
347.6	78
349.0	185
350.0	117
351.3	55
353.5	92
354.0	62
355.0	83
356.3	57
356.6	81
357.2	66
358.6	106
359.7	72
360.6	145
361.7	57
362.7	97
364.7	87
365.8	62
366.8	141
367.8	47
369.0	303
370.0	74
371.0	129
371.7	57
372.6	126
373.7	49
374.8	164
375.4	66
377.0	126
378.0	57
378.8	105
379.5	50
380.5	90
382.0	51
383.0	67
383.6	55
384.6	87
385.3	42
386.6	112
389.0	146
390.0	68
390.8	138
392.8	77
395.1	73
397.0	89
398.8	116
399.7	67
401.1	85
403.1	125
404.8	110
407.3	81
409.0	38
410.8	63
413.3	111
415.0	87
417.0	82
418.2	43
419.2	111
421.0	58
421.6	61
423.0	71
424.0	63
425.5	94
427.2	51
428.9	89
431.0	139
431.5	66
433.0	117
434.9	60
437.4	81
439.1	105
441.1	48
442.8	95
445.1	117
446.9	118
448.9	60
450.8	47
452.0	34
453.5	60
454.9	30
456.9	75
458.6	68
460.6	97
463.1	52
463.7	42
465.9	77
468.0	34
469.0	47
471.0	68
472.8	96
475.0	82
476.7	50
480.1	50
481.3	38
483.0	87
484.7	112
487.0	71
488.6	65
491.7	48
492.9	46
494.9	57
496.8	59
499.2	84
500.9	76
502.8	74
504.9	31
506.8	65
508.6	46
511.4	45
513.0	89
514.8	86
517.1	91
519.8	48
521.8	77
523.1	69
525.0	57
526.9	50
529.2	67
531.0	70
533.8	55
534.7	49
535.8	20
537.0	70
538.9	56
541.4	61
543.2	72
543.7	45
546.8	80
548.5	61
550.6	77
552.9	68
554.9	54
555.3	29
557.1	114
559.0	125
560.2	60
560.8	46
563.0	59
564.8	44
566.0	35
567.0	44
567.7	47
569.0	67
569.8	44
571.0	75
573.3	95
574.1	82
575.0	80
577.0	57
578.1	38
579.3	38
581.0	54
583.0	77
585.2	90
587.0	97
588.9	70
590.1	56
591.0	35
592.0	40
592.7	54
594.0	67
596.1	49
599.8	63
602.5	73
603.7	43
604.9	50
606.6	60
609.1	76
609.5	34
610.9	51
611.5	42
612.8	69
614.0	49
615.0	100
615.7	47
617.1	60
617.7	47
619.1	74
621.2	69
621.8	40
622.9	42
624.6	57
627.2	55
629.0	58
630.0	47
631.0	44
632.0	38
633.2	63
635.0	55
636.9	43
637.8	51
639.3	84
639.5	35
641.0	53
643.0	77
644.0	35
645.2	64
646.1	54
647.0	29
648.9	46
651.0	45
651.5	40
653.3	95
655.0	53
657.2	59
658.0	40
659.8	62
661.2	29
663.2	34
665.2	34
665.8	23
667.0	57
669.3	78
671.0	45
672.8	50
675.0	44
677.0	55
679.1	63
680.0	27
681.3	77
682.2	47
683.3	22
685.0	45
686.4	73
689.1	46
690.7	29
693.3	30
695.1	50
696.5	38
698.3	51
699.9	48
700.5	40
703.0	54
704.0	19
706.0	48
707.0	31
708.8	52
710.0	37
711.2	67
712.0	40
713.4	54
714.3	50
716.3	50
716.8	28
718.0	41
718.8	34
720.0	50
723.1	32
723.8	25
725.1	45
726.9	67
728.3	61
730.0	29
730.9	42
732.6	42
734.1	42
735.2	30
736.8	52
738.6	48
741.1	57
743.1	54
743.4	13
744.7	43
746.9	48
747.8	34
749.0	65
750.7	36
754.0	42
755.0	40
756.7	42
758.3	42
759.0	33
760.6	30
762.7	30
764.1	31
765.2	38
766.1	53
767.6	36
768.9	56
771.2	36
773.3	55
775.0	35
776.4	33
777.5	31
779.0	41
781.2	60
783.0	37
784.0	32
785.3	63
786.0	21
787.2	59
789.2	48
790.0	23
791.0	34
791.8	27
793.1	34
795.5	42
797.3	53
799.0	43
801.3	27
803.5	34
805.0	41
807.0	69
808.0	29
811.0	48
813.4	44
814.5	34
815.4	29
817.0	66
818.5	20
820.0	44
821.5	35
823.0	73
825.1	44
826.0	32
826.5	30
828.2	68
830.0	25
831.4	29
832.5	21
833.6	27
834.6	38
837.4	60
839.0	31
840.8	33
841.9	23
843.2	47
845.1	30
846.2	29
847.8	41
850.8	53
852.9	38
856.2	46
857.5	25
858.8	29
861.1	42
863.0	48
864.0	43
865.3	39
868.1	43
868.9	40
870.9	46
872.4	43
874.9	56
876.8	64
881.0	41
882.8	54
887.2	62
888.8	32
890.7	50
893.2	57
894.0	40
896.0	92
898.0	47
898.5	34
900.0	40
901.9	50
906.0	63
907.5	36
908.8	52
911.9	51
914.0	29
914.7	56
916.8	45
918.7	58
920.8	77
923.1	66
925.2	41
926.7	38
927.8	24
929.2	65
930.9	54
932.6	41
935.0	46
936.9	45
938.6	58
940.0	35
940.9	53
942.7	47
944.6	44
948.9	42
950.8	50
953.1	63
955.9	59
958.0	43
959.1	66
961.1	40
962.7	50
965.1	41
966.5	34
967.9	57
971.1	49
972.5	27
974.5	50
977.9	74
979.5	42
980.7	37
984.0	85
985.6	38
987.2	28
988.6	34
989.5	29
991.0	34
992.6	54
994.8	41
996.6	50
997.8	34
999.1	19
1000.8	58
1002.6	57
1003.4	42
1004.8	62
1006.8	80
1008.5	45
1010.3	39
1012.7	41
1014.7	42
1016.5	37
1019.8	59
1021.6	42
1023.0	24
1025.0	43
1026.5	37
1027.5	23
1029.3	43
1031.8	42
1033.2	26
1035.5	36
1037.0	50
1039.0	39
1040.9	43
1042.9	45
1043.5	29
1044.9	56
1046.8	54
1049.1	49
1050.5	34
1052.9	52
1055.8	45
1058.0	49
1059.2	35
1062.3	59
1064.7	47
1065.8	34
1067.9	54
1070.7	53
1073.2	72
1075.0	61
1077.6	40
1078.8	54
1080.8	56
1082.7	42
1083.6	30
1085.1	45
1086.5	38
1087.9	38
1089.6	52
1091.0	24
1092.9	42
1095.7	24
1097.1	61
1098.9	49
1100.9	40
1103.2	53
1105.0	54
1106.0	46
1109.0	41
1111.0	42
1113.0	63
1115.0	35
1117.1	39
1119.7	42
1122.0	40
1123.1	50
1124.9	60
1126.0	14
1127.1	48
1129.0	48
1130.7	56
1133.2	70
1136.0	32
1139.1	70
1140.8	47
1142.5	40
1145.1	49
1146.8	63
1148.8	50
1152.1	49
1153.8	62
1155.8	48
1157.0	45
1159.8	42
1163.0	37
1165.0	110
1166.7	71
1168.8	51
1170.8	79
1173.5	68
1174.8	56
1176.8	51
1178.7	48
1181.0	59
1182.9	98
1185.0	260
1186.0	257
1187.0	999
1188.0	827
1189.0	396
1190.8	91
1193.0	46
1196.6	71
1198.6	128
1201.2	215
1203.0	77
1205.7	49
1207.7	41
1209.4	45
1212.8	40
1213.8	29
1215.5	71
1218.7	55
1220.0	40
1222.3	46
1225.0	41
1226.6	46
1228.3	56
1232.7	42
1234.5	39
1236.8	34
1238.7	41
1239.6	37
1242.1	58
1244.7	69
1246.0	80
1247.8	41
1249.1	27
1250.0	17
1251.5	39
1253.3	30
1254.8	28
1257.0	50
1258.5	57
1260.7	46
1263.0	25
1265.2	37
1267.5	26
1269.0	24
1270.7	45
1271.5	22
1273.8	51
1274.3	38
1276.6	39
1278.9	51
1280.7	22
1282.5	24
1285.8	45
1287.3	22
1288.7	52
1291.8	47
1293.8	39
1295.8	16
1298.8	33
1300.0	22
1301.7	29
1303.1	32
1305.7	28
1306.8	14
1307.7	45
1310.9	30
1312.7	46
1313.3	23
1317.2	39
1318.4	20
1319.8	25
1322.7	43
1324.8	33
1326.8	17
1328.9	34
1330.5	20
1332.5	15
1334.8	23
1336.9	27
1338.0	14
1340.1	26
1341.8	26
1343.5	29
1344.6	29
1346.1	24
1347.2	16
1348.7	10
1350.8	42
1354.8	29
1356.8	20
1359.3	27
1361.7	22
1364.2	20
1365.4	16
1367.7	28
1370.1	30
1372.0	25
1374.0	55
1376.3	14
1377.8	31
1380.7	15
1383.0	38
1383.8	24
1385.8	31
1388.4	29
1389.4	11
1391.0	11
1392.5	25
1394.9	20
1396.0	8
1398.6	21
1400.8	22
1402.0	12
1403.5	34
1405.8	22
1408.0	19
1410.5	13
1411.7	39
1412.6	22
1415.5	19
1419.5	40
1420.5	21
1422.3	6
1423.7	30
1424.9	30
1426.5	13
1428.5	23
1430.8	17
1433.0	19
1434.5	34
1435.8	16
1436.9	10
1438.8	21
1440.6	13
1443.7	27
1445.0	19
1449.0	62
1450.6	19
1452.5	30
1454.8	33
1456.8	17
1457.7	30
1460.8	18
1463.8	15
1466.0	20
1469.5	27
1472.9	26
1476.5	26
1479.1	10
1481.8	21
1484.0	21
1486.8	23
1488.6	22
1489.8	11
1491.8	8
1493.8	20
1496.2	12
