Mass spectrum: 2,3-di-O-Phytanyl-sn-glycerol-1-phosphoserine; FAB-B; MS
Name: 2,3-di-O-Phytanyl-sn-glycerol-1-phosphoserine
Name: archaetidylserine
Class: Glycerophospholipids; Glycerophosphoserines; Dialkylglycerophosphoserines
Formula: C46H94NO8P
Exact mass: 819.67171
SMILES: C[C@H](CCC[C@H](C)CCCC(C)C)CCC[C@@H](C)CCOC[C@H](COP(=O)(O)OC[C@H](C(=O)O)N)OCC[C@H](C)CCC[C@H](C)CCC[C@H](C)CCCC(C)C
InChI: InChI=1S/C46H94NO8P/c1-36(2)17-11-19-38(5)21-13-23-40(7)25-15-27-42(9)29-31-52-33-44(34-54-56(50,51)55-35-45(47)46(48)49)53-32-30-43(10)28-16-26-41(8)24-14-22-39(6)20-12-18-37(3)4/h36-45H,11-35,47H2,1-10H3,(H,48,49)(H,50,51)/t38-,39-,40-,41-,42-,43-,44-,45-/m1/s1
Instrument: JMS DX-300/JMS-3500 data system, Japan Electron Optics Laboratory, Japan
Instrument type: FAB-B
Ms type: MS
Ion mode: NEGATIVE
Ionization: FAB
Ion type: [M-H]-
m/z	relative intensity
105.0	85
110.0	999
111.0	380
123.0	160
137.0	998
151.0	135
167.0	84
183.0	150
184.0	154
193.0	19
197.0	15
199.0	20
207.0	30
209.0	39
221.0	15
223.0	28
224.0	112
225.0	20
226.0	66
433.0	40
449.0	15
729.0	27
731.0	85
732.0	42
818.0	145
