Mass spectrum: 2,3-di-O-Sesterterpanyl-sn-glycerol-1-phospho-1'-(2'-O-alpha-D-glucosyl)-myo-inositol; FAB-B; MS
Name: 2,3-di-O-Sesterterpanyl-sn-glycerol-1-phospho-1'-(2'-O-alpha-D-glucosyl)-myo-inositol
Name: C25,C25-archaetidyl(glucosyl)inositol
Class: Glycerophospholipids; Glycosylglycerophospholipids; Dialkylglycosylglycerophospholipids
Formula: C65H129O17P
Exact mass: 1212.89674
SMILES: CC(C)CCCC(C)CCCC(C)CCCC(C)CCCC(C)CCOCC(COP(=O)(O)OO[C@H]1[C@@H]([C@H]([C@@H]([C@H]([C@H]1O[C@@H]2[C@@H]([C@H]([C@@H]([C@H](O2)CO)O)O)O)O)O)O)O)OCCC(C)CCCC(C)CCCC(C)CCCC(C)CCCC(C)C
InChI: InChI=1S/C65H129O17P/c1-44(2)21-13-23-46(5)25-15-27-48(7)29-17-31-50(9)33-19-35-52(11)37-39-76-42-54(77-40-38-53(12)36-20-34-51(10)32-18-30-49(8)28-16-26-47(6)24-14-22-45(3)4)43-78-83(74,75)82-81-64-61(72)59(70)58(69)60(71)63(64)80-65-62(73)57(68)56(67)55(41-66)79-65/h44-73H,13-43H2,1-12H3,(H,74,75)/t46?,47?,48?,49?,50?,51?,52?,53?,54?,55-,56-,57+,58+,59+,60-,61-,62-,63-,64+,65-/m1/s1
Instrument: JEOL JMS DX-303
Instrument type: FAB-B
Ms type: MS
Ion mode: POSITIVE
Ionization: FAB
Ion type: [M-H+Na]+
m/z	relative intensity
500.0	48
500.2	154
501.5	62
503.0	244
504.6	121
506.5	104
507.7	86
509.6	72
510.5	147
511.5	60
513.6	185
514.8	95
515.3	23
516.5	76
518.6	121
520.5	170
521.6	89
522.8	134
524.7	135
526.8	228
528.7	194
529.7	59
531.6	69
532.8	71
534.7	96
536.6	92
538.5	122
539.7	61
540.6	143
542.7	195
544.6	147
546.6	90
548.5	114
550.4	91
551.5	89
552.7	83
554.6	107
556.5	82
558.5	106
560.6	153
562.9	115
563.8	26
564.8	131
566.5	71
568.7	67
570.6	67
572.9	83
574.8	121
576.7	88
577.7	127
578.8	49
580.6	87
581.7	43
583.0	174
584.8	87
586.7	79
587.7	100
590.4	108
592.7	98
594.6	81
596.7	130
598.5	60
599.8	15
600.4	96
601.7	68
602.9	99
605.6	78
606.7	89
607.9	110
610.5	94
611.7	78
612.6	64
614.6	139
616.5	121
618.4	98
619.5	74
620.5	69
623.6	19
624.5	71
625.5	65
626.4	125
628.5	136
630.3	166
632.8	112
634.7	77
638.5	160
640.2	114
641.6	47
643.3	107
645.4	113
647.3	72
648.5	91
650.6	59
652.3	57
653.5	71
654.7	80
657.4	101
658.6	147
662.6	77
664.4	66
666.7	154
668.7	152
670.6	79
671.8	102
674.5	80
675.7	126
677.0	138
679.6	101
680.7	122
682.7	142
685.0	225
685.8	149
687.0	93
689.7	105
690.9	85
692.0	101
694.7	53
695.7	124
696.9	147
698.8	109
700.8	88
702.7	123
704.8	127
706.9	79
707.9	107
709.2	40
710.8	89
712.7	125
713.8	51
716.9	56
718.8	87
720.8	115
722.7	57
724.8	38
725.8	107
726.9	79
727.9	101
729.4	66
731.0	96
731.9	51
734.6	94
737.7	192
738.8	106
740.8	80
742.7	69
744.6	73
747.7	73
748.8	99
751.0	47
751.9	90
752.5	65
754.6	82
756.9	77
759.8	103
760.8	109
762.9	67
764.6	110
766.9	164
769.0	253
770.0	91
771.9	64
774.6	72
775.8	99
777.1	62
779.0	124
781.2	48
782.9	100
784.8	104
786.0	73
787.9	91
789.0	67
790.8	83
792.9	77
794.0	44
795.0	44
796.0	94
797.1	137
799.0	88
801.0	88
802.9	111
804.0	93
805.0	102
807.1	90
809.0	65
811.0	82
812.9	89
813.8	76
816.9	101
818.8	71
820.8	73
822.7	95
823.8	111
824.8	93
825.8	69
826.9	89
828.1	19
829.0	73
830.6	95
832.7	90
834.4	67
835.8	26
836.9	118
838.1	87
839.6	120
840.8	110
842.1	98
844.8	102
845.8	75
846.9	119
848.8	113
850.0	79
851.0	126
852.1	75
853.8	67
854.8	125
856.0	81
857.1	87
858.8	55
861.7	88
862.9	114
864.0	86
865.8	87
866.7	126
869.0	111
871.0	87
872.9	144
874.0	84
876.7	90
878.1	47
879.8	137
881.9	30
883.7	52
884.8	111
886.0	84
887.7	55
888.7	126
889.8	117
891.7	97
892.9	169
895.0	223
896.0	202
896.9	154
897.9	77
899.8	47
900.8	93
902.7	170
904.8	63
906.6	113
908.7	205
909.7	120
911.0	235
913.4	103
914.5	87
916.5	156
918.4	58
919.6	105
921.7	82
922.9	126
923.8	93
924.8	197
926.7	144
927.7	117
929.7	108
930.8	86
932.8	116
934.7	101
936.6	50
938.0	78
939.7	99
940.9	93
942.1	38
943.8	89
945.0	150
945.9	93
947.9	79
949.8	98
951.0	87
952.9	36
954.6	82
955.8	99
958.5	49
959.7	93
960.8	137
962.9	102
964.7	83
966.0	77
968.5	58
969.9	45
971.0	190
972.8	71
973.7	61
974.7	83
976.6	86
978.8	126
979.7	59
980.9	139
982.6	80
984.7	113
985.7	81
986.7	85
988.6	104
989.8	66
991.7	66
993.8	161
994.8	60
995.9	16
996.9	74
997.9	87
999.8	53
1001.0	121
1001.9	75
1002.9	54
1005.0	116
1006.8	131
1007.9	95
1011.8	75
1013.1	200
1021.0	56
1023.0	77
1024.1	85
1025.1	49
1026.8	59
1028.0	103
1029.9	33
1031.1	101
1032.8	54
1033.8	85
1035.0	286
1036.0	326
1036.7	137
1037.8	62
1039.8	55
1040.7	71
1042.7	81
1044.8	55
1046.7	91
1048.6	104
1050.0	45
1051.0	94
1053.6	125
1054.8	126
1056.9	248
1057.9	153
1059.8	84
1060.7	54
1061.7	142
1062.8	98
1064.8	73
1066.7	101
1067.8	90
1069.7	134
1070.9	99
1073.0	295
1074.7	145
1076.6	125
1077.6	131
1078.7	113
1079.7	126
1080.7	71
1081.8	24
1082.8	118
1084.7	215
1086.6	88
1088.5	131
1089.7	92
1092.5	89
1093.5	84
1094.6	96
1096.6	104
1098.5	130
1099.6	122
1102.3	153
1104.6	114
1106.3	79
1107.3	80
1108.4	82
1110.3	60
1111.7	195
1113.4	107
1114.6	93
1115.5	87
1116.5	112
1118.4	79
1119.5	93
1122.2	68
1123.6	82
1124.5	79
1126.6	123
1128.4	60
1130.5	82
1131.6	109
1133.3	78
1134.7	75
1136.6	93
1138.5	87
1140.4	116
1142.1	75
1143.5	54
1144.6	115
1146.6	93
1147.5	70
1148.5	139
1149.6	136
1152.3	69
1154.6	74
1155.6	62
1156.5	94
1158.7	44
1160.4	73
1162.3	57
1163.7	38
1164.6	81
1165.6	82
1166.5	95
1168.5	79
1169.4	88
1170.6	69
1172.3	122
1173.7	95
1175.6	101
1177.5	106
1179.8	33
1182.5	91
1183.5	115
1185.6	117
1187.3	98
1188.5	115
1189.8	159
1192.5	93
1193.5	60
1195.0	69
1196.0	164
1197.0	98
1199.0	91
1200.0	197
1201.7	144
1203.7	116
1205.6	172
1207.3	125
1210.0	102
1212.0	112
1212.5	57
1215.0	246
1216.0	67
1217.0	338
1218.0	270
1219.0	999
1220.0	563
1221.0	212
1223.0	142
1224.0	156
1224.9	66
1225.8	86
1227.7	94
1228.7	97
1230.8	134
1231.8	106
1232.8	153
1233.7	71
1235.1	310
1236.0	217
1238.7	167
1239.9	181
1240.8	316
1242.0	237
1243.7	137
1244.9	130
1246.8	79
1247.8	63
1248.7	132
1249.9	142
1252.0	153
1253.9	107
1255.9	120
1257.0	184
1258.8	117
1260.7	93
1261.8	95
1262.8	83
1263.8	62
1265.9	104
1266.9	43
1268.6	67
1269.9	117
1272.6	87
1274.0	161
1275.7	50
1277.6	95
1278.8	150
1280.0	107
1282.7	71
1283.8	67
1285.9	47
1287.1	121
1289.0	34
1290.2	142
1291.9	107
1294.6	90
1295.8	76
1297.9	50
1299.0	76
1300.0	42
1302.1	110
1303.0	154
1304.0	82
1305.9	95
1307.9	60
1309.0	77
1310.0	52
1310.9	70
1312.3	45
1314.8	86
1317.2	50
1318.2	43
1319.2	146
1322.4	34
1323.0	44
1323.9	63
1326.1	126
1327.8	108
1329.7	79
1331.2	49
1332.8	140
1334.1	89
1335.8	51
1337.9	99
1339.3	22
1341.0	67
1342.1	65
1344.1	136
1345.0	104
1346.0	93
1347.9	89
1349.8	111
1353.1	49
1354.0	59
1356.0	77
1357.9	64
1359.8	8
1360.9	30
1362.1	102
1365.0	49
1366.1	50
1367.1	75
1368.2	26
1369.2	71
1372.3	135
1374.0	70
1376.1	74
1378.2	21
1379.2	149
1382.4	83
1384.9	78
1388.0	83
1389.2	34
1392.2	100
1394.3	58
1396.3	28
1398.0	66
1399.3	107
1401.1	66
1402.4	38
1404.9	74
1406.0	82
1408.2	139
1409.3	25
1411.0	54
1412.2	44
1414.1	72
1416.0	56
1417.2	22
1418.1	100
1420.1	102
1421.0	60
1422.2	56
1424.0	160
1425.2	35
1426.2	40
1427.2	82
1428.1	63
1430.0	44
1431.0	72
1433.1	36
1436.0	102
1437.1	70
1439.8	82
1444.8	71
1446.0	96
1447.1	21
1449.0	76
1450.0	20
1451.0	56
1452.9	121
1455.0	44
1456.0	58
1457.1	60
1459.0	54
1460.0	86
1462.3	48
1464.0	87
1466.0	52
1467.9	82
1468.8	67
1470.0	50
1471.2	50
1472.7	60
1474.0	22
1475.0	38
1476.2	49
1477.9	105
1479.2	39
1481.0	66
1482.1	83
1483.1	51
1484.0	66
1486.0	51
1487.1	41
1488.1	57
1489.0	75
1491.2	34
1492.1	108
1493.1	81
1494.2	38
1496.2	40
1497.1	60
