Mass spectrum: H-shaped caldarchaeol alcohol tetraacetate; EI-B; MS
Name: H-shaped caldarchaeol alcohol tetraacetate
Class: Prenol Lipids
Formula: C88H170O8
Exact mass: 1355.28957
SMILES: C(C(CC(CCCC(C)CCCC(CCCC(CCOC(C)=O)C)C)CCC(CCCC(C)CCCC(C)CCCC(C)CCOC(C)=O)C)CCC(CCCC(CCCC(C)CCOC(C)=O)C)C)(C)CCC(CCCC(CCCC(C)CCCC(C)CCOC(C)=O)C)C
InChI: InChI=1S/C88H170O8/c1-68(31-20-33-70(3)40-26-47-78(11)59-63-93-83(16)89)37-23-44-75(8)53-56-82(15)88(58-55-77(10)46-25-39-73(6)43-29-50-81(14)62-66-96-86(19)92)67-87(52-30-51-74(7)36-22-35-72(5)42-28-49-80(13)61-65-95-85(18)91)57-54-76(9)45-24-38-69(2)32-21-34-71(4)41-27-48-79(12)60-64-94-84(17)90/h68-82,87-88H,20-67H2,1-19H3
Instrument: JEOL AX-505HA
Instrument type: EI-B
Ms type: MS
Ion mode: POSITIVE
Ion type: [M]+
m/z	relative intensity
263.0000	189
264.0000	113
265.0000	156
266.0000	70
267.0000	114
269.0000	106
277.0000	144
278.0000	897
279.0000	348
280.0000	359
281.0000	157
283.0000	81
291.0000	111
292.0000	171
293.0000	120
294.0000	101
295.0000	86
297.0000	78
298.0000	76
305.0000	93
307.0000	70
319.0000	122
320.0000	111
321.0000	90
325.0000	75
333.0000	96
334.0000	165
335.0000	90
336.0000	152
337.0000	78
339.0000	269
340.0000	91
347.0000	91
348.0000	94
353.0000	72
361.0000	88
367.0000	70
368.0000	115
375.0000	77
389.0000	88
403.0000	76
417.0000	70
543.0000	117
544.0000	83
556.0000	93
557.0000	137
558.0000	269
559.0000	133
571.0000	69
601.0000	100
615.0000	95
616.0000	475
617.0000	231
618.0000	136
629.0000	77
630.0000	82
663.0000	337
664.0000	190
675.0000	75
676.0000	601
677.0000	937
678.0000	546
679.0000	152
691.0000	292
692.0000	159
693.0000	69
881.0000	70
896.0000	143
897.0000	97
954.0000	102
955.0000	108
956.0000	112
957.0000	132
958.0000	74
997.0000	77
998.0000	88
1001.0000	181
1002.0000	140
1015.0000	227
1016.0000	168
1029.0000	130
1030.0000	98
1057.0000	197
1058.0000	183
1059.0000	85
1071.0000	324
1072.0000	253
1073.0000	106
1099.0000	136
1100.0000	119
1113.0000	73
1141.0000	104
1142.0000	89
1169.0000	92
1170.0000	86
1174.0000	117
1175.0000	96
1211.0000	86
1212.0000	74
1232.0000	82
1233.0000	106
1234.0000	635
1235.0000	572
1236.0000	278
1237.0000	102
1239.0000	85
1240.0000	74
1248.0000	105
1249.0000	103
1250.0000	76
1251.0000	75
1252.0000	70
1267.0000	80
1292.0000	145
1294.0000	999
1295.0000	984
1296.0000	798
1297.0000	272
1298.0000	77
1308.0000	277
1309.0000	264
1310.0000	155
1311.0000	132
1312.0000	90
1354.0000	438
1355.0000	440
1356.0000	236
1357.0000	89
1368.0000	112
1369.0000	108
