Mass spectrum: Glcp-beta-1'-6'Glcp-beta-1'-1caldarchaetidylserine; FAB-B; MS
Name: Glcp-beta-1'-6'Glcp-beta-1'-1caldarchaetidylserine
Name: gentiobiosylcaldarchaetidylserine
Class: Glycerophospholipids; Di-glycerol tetraether phospholipids (caldarchaeols)
Formula: C101H198NO21P
Exact mass: 1792.41940
SMILES: CC1CCCC(CCCC(CCOCC(OCCC(CCCC(CCCC(CCCC(CCC(CCCC(CCCC(CCCC(CCOCC(OCCC(CCCC(CCCC(CCCC(CCC(CCC1)C)C)C)C)C)COP(=O)(O)OC[C@@H](C(=O)O)N)C)C)C)C)C)C)C)C)CO[C@H]2[C@@H]([C@H]([C@@H]([C@H](O2)CO[C@H]3[C@@H]([C@H]([C@@H]([C@H](O3)CO)O)O)O)O)O)O)C)C
InChI: InChI=1S/C101H198NO21P/c1-72-29-17-33-76(5)41-25-49-84(13)57-61-114-66-88(68-118-100-98(109)96(107)94(105)92(123-100)71-119-101-97(108)95(106)93(104)91(65-103)122-101)116-63-59-86(15)51-27-43-78(7)35-19-31-74(3)39-23-47-82(11)55-53-81(10)46-22-38-73(2)30-18-34-77(6)42-26-50-85(14)58-62-115-67-89(69-120-124(112,113)121-70-90(102)99(110)111)117-64-60-87(16)52-28-44-79(8)36-20-32-75(4)40-24-48-83(12)56-54-80(9)45-21-37-72/h72-98,100-101,103-109H,17-71,102H2,1-16H3,(H,110,111)(H,112,113)/t72?,73?,74?,75?,76?,77?,78?,79?,80?,81?,82?,83?,84?,85?,86?,87?,88?,89?,90-,91+,92+,93+,94+,95-,96-,97+,98+,100+,101+/m0/s1
Instrument: JEOL JMS DX-300
Instrument type: FAB-B
Ms type: MS
Ion mode: NEGATIVE
Ionization: FAB
Ion type: [M-H]-
m/z	relative intensity
529.0	287
539.0	239
545.0	242
641.0	220
662.0	216
677.0	220
809.0	271
1702.0	318
1703.0	331
1704.0	281
1787.0	309
1788.0	303
1789.0	587
1790.0	999
1791.0	398
1792.0	316
