Mass spectrum: 2,3-di-O-Phytanyl-sn-glycerol-1-phosphoryl-myo-inositol; FAB-B; MS
Name: 2,3-di-O-Phytanyl-sn-glycerol-1-phosphoryl-myo-inositol
Name: archaetidylinositol
Class: Glycerophospholipids; Glycerophosphoinositols; Dialkylglycerophosphoinositols
Formula: C49H99O11P
Exact mass: 894.69250
SMILES: CC(C)CCCC(C)CCCC(C)CCCC(C)CCOCC(CO[P](O)(=O)O[C@@H]1[C@@H]([C@@H]([C@H]([C@@H]([C@H]1O)O)O)O)O)OCCC(C)CCCC(C)CCCC(C)CCCC(C)C
InChI: InChI=1S/C49H99O11P/c1-35(2)17-11-19-37(5)21-13-23-39(7)25-15-27-41(9)29-31-57-33-43(34-59-61(55,56)60-49-47(53)45(51)44(50)46(52)48(49)54)58-32-30-42(10)28-16-26-40(8)24-14-22-38(6)20-12-18-36(3)4/h35-54H,11-34H2,1-10H3,(H,55,56)/t37?,38?,39?,40?,41?,42?,43?,44-,45-,46+,47-,48-,49-/m1/s1
Instrument: JMS DX-300/JMS-3500 data system, Japan Electron Optics Laboratory, Japan
Instrument type: FAB-B
Ms type: MS
Ion mode: NEGATIVE
Ionization: FAB
Ion type: [M-H]-
m/z	relative intensity
100.0	220
101.0	115
103.0	260
104.0	15
105.0	84
107.0	113
108.0	777
109.0	366
110.0	135
111.0	92
112.0	15
113.0	45
115.0	45
117.0	45
118.0	131
119.0	233
120.0	178
122.0	164
125.0	344
126.0	153
129.0	32
132.0	39
135.0	217
136.0	844
137.0	441
139.0	74
141.0	32
143.0	7
146.0	31
149.0	167
150.0	993
151.0	114
152.0	109
155.0	10
158.0	32
160.0	38
162.0	232
163.0	171
164.0	53
169.0	17
181.0	118
182.0	284
183.0	999
184.0	84
240.0	126
241.0	10
253.0	5
257.0	155
274.0	14
298.0	158
299.0	88
431.0	15
593.0	10
731.0	109
732.0	11
892.0	93
893.0	323
894.0	59
