Mass spectrum: 2,3-di-O-Phytanyl-sn-glycerol-1-phosphoserine; FD-B; MS
Name: 2,3-di-O-Phytanyl-sn-glycerol-1-phosphoserine
Name: archaetidylserine
Class: Glycerophospholipids; Glycerophosphoserines; Dialkylglycerophosphoserines
Formula: C46H94NO8P
Exact mass: 819.67171
SMILES: C[C@H](CCC[C@H](C)CCCC(C)C)CCC[C@@H](C)CCOC[C@H](COP(=O)(O)OC[C@H](C(=O)O)N)OCC[C@H](C)CCC[C@H](C)CCC[C@H](C)CCCC(C)C
InChI: InChI=1S/C46H94NO8P/c1-36(2)17-11-19-38(5)21-13-23-40(7)25-15-27-42(9)29-31-52-33-44(34-54-56(50,51)55-35-45(47)46(48)49)53-32-30-43(10)28-16-26-41(8)24-14-22-39(6)20-12-18-37(3)4/h36-45H,11-35,47H2,1-10H3,(H,48,49)(H,50,51)/t38-,39-,40-,41-,42-,43-,44-,45-/m1/s1
Instrument: JMS DX-300/JMS-3500 data system, Japan Electron Optics Laboratory, Japan
Instrument type: FD-B
Ms type: MS
Ion mode: POSITIVE
Ion type: [M]+*
m/z	relative intensity
19.0	239
29.0	80
31.0	58
41.0	33
43.0	589
44.0	62
56.0	121
57.0	103
61.0	43
63.0	56
70.0	104
71.0	67
78.0	44
87.0	32
88.0	39
91.0	50
93.0	73
106.0	38
109.0	31
112.0	47
113.0	32
120.0	37
124.0	33
131.0	30
137.0	39
140.0	47
155.0	60
173.0	55
208.0	34
227.0	30
248.0	46
345.0	36
366.0	200
435.0	79
537.0	35
652.0	39
653.0	107
654.0	295
655.0	104
656.0	32
657.0	38
678.0	38
690.0	34
730.0	30
731.0	108
732.0	96
733.0	999
734.0	438
735.0	190
736.0	43
800.0	86
804.0	30
805.0	105
806.0	58
820.0	39
846.0	36
