Mass spectrum: 2,3-di-O-Phytanyl-sn-glycerol-1-phosphoserine; EI-B; MS
Name: 2,3-di-O-Phytanyl-sn-glycerol-1-phosphoserine
Name: archaetidylserine
Class: Glycerophospholipids; Glycerophosphoserines; Dialkylglycerophosphoserines
Formula: C46H94NO8P
Exact mass: 819.67171
SMILES: C[C@H](CCC[C@H](C)CCCC(C)C)CCC[C@@H](C)CCOC[C@H](COP(=O)(O)OC[C@H](C(=O)O)N)OCC[C@H](C)CCC[C@H](C)CCC[C@H](C)CCCC(C)C
InChI: InChI=1S/C46H94NO8P/c1-36(2)17-11-19-38(5)21-13-23-40(7)25-15-27-42(9)29-31-52-33-44(34-54-56(50,51)55-35-45(47)46(48)49)53-32-30-43(10)28-16-26-41(8)24-14-22-39(6)20-12-18-37(3)4/h36-45H,11-35,47H2,1-10H3,(H,48,49)(H,50,51)/t38-,39-,40-,41-,42-,43-,44-,45-/m1/s1
Instrument: JMS DX-300/JMS-3500 data system, Japan Electron Optics Laboratory, Japan
Instrument type: EI-B
Ms type: MS
Ion mode: POSITIVE
Ion type: [M]+*
m/z	relative intensity
28.0	49
32.0	42
41.0	91
42.0	52
43.0	201
44.0	136
55.0	222
56.0	270
57.0	674
58.0	58
68.0	68
69.0	479
70.0	462
71.0	657
72.0	42
74.0	441
81.0	104
82.0	73
83.0	413
84.0	211
85.0	468
95.0	75
96.0	137
97.0	374
98.0	117
99.0	208
110.0	47
111.0	355
112.0	146
113.0	200
123.0	118
124.0	108
125.0	413
126.0	372
127.0	183
139.0	59
140.0	233
141.0	108
154.0	42
155.0	68
182.0	52
183.0	57
196.0	105
197.0	45
210.0	41
252.0	41
278.0	47
280.0	97
323.0	62
354.0	130
355.0	41
634.0	999
635.0	479
636.0	121
