Mass spectrum: Cytidine-diphospho-(2,3-di-O-geranylgeranyl-sn-glycerol); FAB-B; MS
Name: Cytidine-diphospho-(2,3-di-O-geranylgeranyl-sn-glycerol)
Name: cytidine-diphospho-(2,3-di-O-3',7',11',15'-tetramethylhexadec-2',6',10',14'-tetraenyl)-sn-glycerol
Name: CDP-archaeol
Class: Glycerophospholipids; CDP-Glycerols
Formula: C52H85N3O13P2
Exact mass: 1021.55576
SMILES: CC(=CCC/C(=C/CC/C(=C/CC/C(=C/COCC(COP(=O)(O)OP(=O)(O)OC[C@@H]1C(C([C@@H](O1)N2C=CC(=NC2=O)N)O)O)OC/C=C(\C)/CC/C=C(\C)/CC/C=C(\C)/CCC=C(C)C)/C)/C)/C)C
InChI: InChI=1S/C52H85N3O13P2/c1-38(2)17-11-19-40(5)21-13-23-42(7)25-15-27-44(9)30-33-63-35-46(64-34-31-45(10)28-16-26-43(8)24-14-22-41(6)20-12-18-39(3)4)36-65-69(59,60)68-70(61,62)66-37-47-49(56)50(57)51(67-47)55-32-29-48(53)54-52(55)58/h17-18,21-22,25-26,29-32,46-47,49-51,56-57H,11-16,19-20,23-24,27-28,33-37H2,1-10H3,(H,59,60)(H,61,62)(H2,53,54,58)/b40-21+,41-22+,42-25+,43-26+,44-30+,45-31+/t46?,47-,49?,50?,51-/m1/s1
Instrument: JEOL JMS DX-303
Instrument type: FAB-B
Ms type: MS
Ion mode: POSITIVE
Ionization: FAB
Ion type: [M+2Na-H]+
m/z	relative intensity
700.0	119
701.0	145
702.0	212
703.0	141
704.0	191
705.0	236
706.0	162
707.0	107
708.0	328
709.0	243
710.0	150
711.0	487
712.0	282
713.0	154
714.0	195
715.0	186
716.0	235
717.0	351
718.0	284
719.0	140
720.0	178
721.0	330
722.0	239
723.0	290
724.0	170
725.0	107
726.0	160
727.0	159
728.0	138
729.0	155
729.8	159
730.9	252
731.8	144
732.7	165
733.9	231
734.9	234
735.8	139
736.6	172
737.9	200
739.0	687
739.7	149
740.9	264
741.8	287
742.6	165
744.6	122
745.6	173
746.9	157
747.7	259
748.7	111
749.8	145
750.8	84
751.9	221
752.7	367
753.8	165
754.9	195
756.0	939
756.8	547
757.8	386
758.9	143
759.7	180
760.7	853
761.8	251
762.7	165
763.9	391
764.8	397
765.8	261
766.9	128
767.8	213
768.8	138
769.8	203
770.8	137
771.8	216
772.8	147
773.8	371
774.7	342
775.6	390
776.8	137
778.0	999
778.6	582
779.8	394
780.6	558
781.5	639
782.8	222
783.8	267
784.8	284
785.9	445
786.9	217
787.7	543
788.8	213
789.8	186
790.8	143
791.7	438
792.9	291
793.9	324
794.8	213
795.5	709
796.8	303
797.7	279
798.7	156
799.8	332
800.6	842
801.6	165
802.9	324
803.6	537
804.7	171
805.9	287
806.9	248
807.7	178
809.0	116
809.9	196
810.9	186
811.8	137
812.9	262
813.8	279
814.7	215
815.8	216
816.7	177
817.8	277
818.6	253
819.8	196
820.6	111
821.8	253
823.0	977
823.8	136
824.8	229
825.8	180
826.8	186
827.7	195
828.7	162
829.8	104
830.8	123
831.8	159
832.7	133
833.8	219
834.8	287
835.8	190
836.7	117
837.6	116
838.7	180
839.7	165
840.7	585
841.9	318
842.8	107
843.7	183
844.8	163
845.8	105
846.8	217
847.8	168
848.8	142
849.8	225
850.7	154
851.8	145
852.8	126
853.7	198
854.9	229
855.7	112
856.8	108
857.6	164
858.8	111
859.8	148
860.6	253
861.8	140
863.0	826
863.8	84
865.0	156
865.9	143
866.8	230
868.0	131
868.8	190
869.8	126
870.9	247
871.9	172
872.9	232
873.7	175
874.8	165
875.9	110
876.8	138
877.9	203
878.9	198
879.8	221
880.7	298
881.9	262
882.8	148
883.7	210
885.0	137
885.8	185
887.1	51
887.9	193
888.9	185
889.9	149
891.0	129
892.0	136
892.9	82
893.9	136
894.8	281
895.8	113
896.7	208
898.0	142
898.8	151
899.7	118
900.9	137
901.8	92
902.8	473
903.9	165
904.9	175
905.8	223
907.0	167
908.0	136
908.9	369
909.9	124
911.0	93
912.0	114
912.9	81
914.1	59
915.0	202
915.9	131
916.9	267
918.0	134
918.9	188
919.9	66
920.9	169
921.9	125
922.8	133
923.9	306
925.0	703
925.8	167
926.9	156
927.7	183
928.7	173
929.9	246
930.8	227
931.8	148
932.8	129
933.8	201
934.8	187
935.8	84
936.9	178
937.8	227
938.8	163
939.7	354
940.9	212
941.9	163
942.8	390
944.0	125
944.9	85
946.1	51
946.9	80
947.9	200
948.8	171
949.9	114
950.8	189
951.8	108
952.9	105
953.9	63
954.8	215
956.9	141
957.9	138
958.8	119
959.8	199
960.9	141
961.8	302
963.0	650
963.8	100
964.8	181
965.9	87
967.0	98
967.9	96
969.0	116
970.0	114
971.0	104
971.9	125
973.0	98
974.0	107
974.9	72
976.0	222
976.9	123
978.0	96
978.9	100
980.0	141
980.9	261
981.8	123
983.0	255
984.0	144
984.9	231
986.1	130
987.0	174
987.8	88
989.1	151
990.0	233
991.0	150
992.1	153
992.9	187
994.0	69
994.9	190
996.0	62
996.9	199
997.9	151
999.0	233
1000.0	132
1000.9	273
1001.8	195
1003.0	334
1003.9	111
1005.0	117
1006.0	56
1006.9	98
1007.8	70
1009.0	169
1010.0	144
1010.9	112
1012.1	110
1013.0	123
1014.0	179
1015.0	303
1016.0	98
1017.1	150
1017.8	78
1019.0	72
1019.9	165
1021.0	220
1022.0	119
1023.0	198
1024.0	105
1025.0	621
1026.0	50
1027.1	310
1028.1	126
1028.9	104
1030.0	121
1031.0	140
1032.0	93
1033.0	72
1035.1	69
1036.0	105
1037.0	150
1037.9	166
1039.1	133
1039.9	129
1040.9	161
1042.0	33
1043.1	269
1043.9	71
1045.0	127
1045.9	75
1047.0	162
1048.0	159
1049.0	91
1049.9	181
1051.2	225
1052.0	186
1052.9	207
1053.8	185
1055.1	66
1056.0	225
1056.8	129
1058.0	108
1059.0	69
1059.8	70
1060.7	99
1061.9	108
1062.8	121
1063.9	102
1065.0	574
1066.0	170
1067.0	174
1068.0	152
1068.9	77
1069.9	132
1071.0	220
1072.0	74
1072.9	135
1074.0	150
1075.0	153
1075.9	173
1076.9	109
1078.0	110
1078.9	203
1079.8	89
1081.0	242
1082.0	132
1082.9	239
1084.0	220
1085.0	176
1086.0	224
1086.9	297
1087.9	88
1089.0	228
1090.0	392
1091.0	295
1091.9	153
1092.9	115
1094.1	66
1095.0	80
1096.0	188
1097.1	99
1097.9	109
1099.1	154
1100.0	274
1101.1	181
1102.1	150
1102.9	118
1104.1	87
1105.2	375
1105.9	152
1107.1	319
1108.0	151
1108.8	168
1109.9	195
1110.9	183
1111.9	201
1113.0	234
1113.9	141
1114.9	52
1115.9	154
1117.0	58
1117.9	137
1118.8	180
1119.9	135
1120.9	182
1121.8	167
1122.8	189
1124.0	97
1125.0	141
1126.0	63
1127.2	342
1128.1	203
1128.9	182
1130.2	128
1131.1	63
1132.0	79
1133.0	99
1134.1	97
1135.0	150
1135.9	106
1137.1	217
1138.0	192
1138.8	81
1140.0	106
1141.0	62
1142.0	210
1143.1	285
1144.0	79
1145.0	377
1146.1	85
1147.2	158
1148.0	102
1149.2	106
1150.2	309
1151.1	164
1152.2	140
1153.2	140
1154.1	39
1155.2	66
1156.4	198
1157.3	118
1158.0	98
