Mass spectrum: 2,3-di-O-Phytanyl-sn-glycerol-1-phosphoserine; EI-B; MS
Name: 2,3-di-O-Phytanyl-sn-glycerol-1-phosphoserine
Name: archaetidylserine
Class: Glycerophospholipids; Glycerophosphoserines; Dialkylglycerophosphoserines
Formula: C46H94NO8P
Exact mass: 819.67171
SMILES: C[C@H](CCC[C@H](C)CCCC(C)C)CCC[C@@H](C)CCOC[C@H](COP(=O)(O)OC[C@H](C(=O)O)N)OCC[C@H](C)CCC[C@H](C)CCC[C@H](C)CCCC(C)C
InChI: InChI=1S/C46H94NO8P/c1-36(2)17-11-19-38(5)21-13-23-40(7)25-15-27-42(9)29-31-52-33-44(34-54-56(50,51)55-35-45(47)46(48)49)53-32-30-43(10)28-16-26-41(8)24-14-22-39(6)20-12-18-37(3)4/h36-45H,11-35,47H2,1-10H3,(H,48,49)(H,50,51)/t38-,39-,40-,41-,42-,43-,44-,45-/m1/s1
Instrument: JMS DX-300/JMS-3500 data system, Japan Electron Optics Laboratory, Japan
Instrument type: EI-B
Ms type: MS
Ion mode: POSITIVE
Ion type: [M]+*
m/z	relative intensity
36.0	69
43.0	221
55.0	248
56.0	343
57.0	973
69.0	610
70.0	629
71.0	999
74.0	218
81.0	261
82.0	165
83.0	614
84.0	269
85.0	745
95.0	145
96.0	255
97.0	638
98.0	168
99.0	535
111.0	610
112.0	239
113.0	438
123.0	423
124.0	331
125.0	716
126.0	514
127.0	427
139.0	175
140.0	331
141.0	335
153.0	153
155.0	232
169.0	185
182.0	135
183.0	228
196.0	188
197.0	232
211.0	107
278.0	464
279.0	313
280.0	323
281.0	204
296.0	225
297.0	86
309.0	50
325.0	397
326.0	101
340.0	190
341.0	86
343.0	346
344.0	85
354.0	73
373.0	188
374.0	60
383.0	91
634.0	640
635.0	302
636.0	70
