Mass spectrum: 2,3-di-O-Sesterterpanyl-sn-glycerol acetate; FAB-B; MS
Name: 2,3-di-O-Sesterterpanyl-sn-glycerol acetate
Class: Glycerolipids; Diradylglycerols; Dialkylglycerols
Formula: C55H110O4
Exact mass: 834.84041
SMILES: C(CC(CCOCC(COC(C)=O)OCCC(CCCC(CCCC(C)CCCC(CCCC(C)C)C)C)C)C)CC(C)CCCC(C)CCCC(C)CCCC(C)C
InChI: InChI=1S/C55H110O4/c1-44(2)22-14-24-46(5)26-16-28-48(7)30-18-32-50(9)34-20-36-52(11)38-40-57-42-55(43-59-54(13)56)58-41-39-53(12)37-21-35-51(10)33-19-31-49(8)29-17-27-47(6)25-15-23-45(3)4/h44-53,55H,14-43H2,1-13H3
Instrument: JEOL JMS DX-303
Instrument type: FAB-B
Ms type: MS
Ion mode: POSITIVE
Ionization: FAB
Ion type: [M]+*
m/z	relative intensity
300.0	36
301.0	50
302.0	31
303.0	32
304.0	27
305.0	37
306.0	24
307.0	36
308.0	27
309.0	48
311.0	57
312.0	260
313.0	104
314.0	44
315.0	45
317.0	37
318.0	27
319.0	63
320.0	27
321.0	28
322.0	25
323.0	32
324.0	28
325.0	56
326.0	37
327.0	44
329.0	44
330.0	75
331.0	32
332.0	32
333.0	125
335.0	38
336.0	23
337.0	30
338.0	30
339.0	74
341.0	48
342.0	33
343.0	33
344.0	61
345.0	32
347.0	34
348.0	31
349.0	36
350.0	28
351.0	32
353.0	40
354.0	28
355.0	42
356.0	29
357.0	41
359.0	29
360.0	36
361.0	25
362.0	30
363.0	23
365.0	30
366.0	44
369.0	96
370.0	66
371.0	66
372.0	314
373.0	96
374.0	32
375.0	46
376.0	29
377.0	22
378.0	32
379.0	22
380.0	40
381.0	23
383.0	39
384.0	31
385.0	32
386.0	30
387.0	23
389.0	44
390.0	29
391.0	106
392.0	48
393.0	32
394.0	24
395.0	30
396.0	25
397.0	28
399.0	26
400.0	80
401.0	41
402.0	30
404.0	22
405.0	39
406.0	23
407.0	27
408.0	20
409.0	31
410.0	23
411.0	20
413.0	40
414.0	25
415.0	20
416.0	24
417.0	20
419.0	34
420.0	23
421.0	26
422.0	25
423.0	39
424.0	28
426.0	42
427.0	29
428.0	43
429.0	28
431.0	23
432.0	19
433.0	25
434.0	19
435.0	22
437.0	27
438.0	22
439.0	27
440.0	18
441.0	30
442.0	24
443.0	30
444.0	24
445.0	25
446.0	22
447.0	22
448.0	25
449.0	33
450.0	22
451.0	38
452.0	31
453.0	68
454.0	39
455.0	27
457.0	26
458.0	23
459.0	25
460.0	17
461.0	26
463.0	21
464.0	44
465.0	31
466.0	141
467.0	999
468.0	337
469.0	76
470.0	16
473.5	17
474.7	18
477.2	22
479.3	27
481.5	29
483.4	23
485.3	68
486.6	34
488.2	17
490.0	16
491.1	18
493.4	20
495.2	24
497.4	27
499.3	19
501.3	27
502.0	25
503.0	20
505.0	18
506.0	16
507.5	26
509.3	31
512.3	28
513.5	17
515.4	17
517.5	18
519.4	17
521.4	25
523.7	26
525.2	18
527.3	14
529.5	18
531.3	15
533.4	19
535.6	23
537.6	29
539.2	26
541.6	17
543.4	13
545.2	16
547.0	19
550.0	21
551.0	33
553.0	20
555.1	14
557.3	19
558.6	16
561.3	14
563.1	15
564.9	20
568.0	16
570.2	14
573.0	14
575.0	17
577.0	14
578.3	15
580.0	12
582.8	11
584.8	10
587.3	10
588.7	13
591.1	10
592.9	12
594.7	14
597.0	11
598.0	13
600.0	13
602.0	9
603.0	12
604.8	13
608.8	19
610.0	11
611.0	10
612.0	12
614.7	9
616.4	12
617.5	10
619.9	11
621.5	11
624.5	12
626.2	12
628.8	14
630.6	10
631.8	9
634.0	9
635.0	10
636.8	11
638.7	7
642.4	11
646.0	14
649.8	10
652.5	14
656.1	10
658.9	10
660.4	12
662.7	10
665.5	10
667.8	11
670.6	9
672.4	9
676.6	10
678.5	12
681.0	13
682.0	10
683.0	10
687.0	10
688.7	10
690.3	9
692.1	9
695.0	10
696.5	12
698.0	10
701.0	9
705.1	14
708.7	5
711.1	8
712.7	10
716.0	11
717.0	10
718.0	10
719.0	10
720.4	12
722.0	8
723.0	5
724.0	10
725.0	10
726.0	10
728.6	12
732.5	10
734.3	9
736.8	12
738.6	9
740.0	10
741.0	10
742.0	10
743.0	11
746.2	9
748.7	13
749.5	9
753.0	8
754.5	8
759.5	9
764.5	12
766.4	10
768.4	9
770.0	10
771.0	10
772.0	10
773.0	10
774.0	14
776.6	12
778.0	10
780.4	10
782.7	10
784.7	8
786.4	8
789.2	9
790.0	11
791.0	12
793.0	31
794.0	16
795.7	12
797.0	10
798.5	9
801.0	7
802.8	10
806.0	9
807.0	8
809.6	8
812.6	10
814.8	8
816.4	9
819.0	19
820.0	13
821.6	10
825.0	10
826.0	8
827.0	7
828.0	11
831.0	21
832.0	15
833.0	65
834.0	57
835.0	492
836.0	303
837.0	98
838.0	31
839.0	8
840.0	9
842.7	7
844.0	8
845.0	10
847.3	15
848.7	15
850.0	12
851.0	10
852.0	9
853.0	9
855.0	9
856.0	14
857.0	10
858.0	8
860.6	12
862.0	9
863.0	12
865.1	15
866.8	13
867.8	7
869.8	7
871.6	8
873.8	10
876.6	10
878.0	9
880.0	7
881.0	8
882.0	10
883.0	8
884.0	8
887.0	10
888.2	9
890.0	9
892.7	13
894.0	10
896.0	10
899.8	10
902.8	10
905.1	10
906.9	11
908.7	12
910.2	10
912.0	9
913.0	8
915.0	7
917.3	8
919.9	12
923.0	9
924.0	12
925.0	19
926.0	12
927.3	11
931.0	8
933.0	8
935.0	6
936.8	8
938.7	9
942.3	8
944.0	8
945.0	11
946.0	8
947.0	10
948.0	7
950.0	9
951.5	8
953.0	8
955.0	7
957.9	6
962.1	11
963.9	8
968.1	7
970.0	6
973.0	7
974.8	8
978.5	9
982.0	8
984.0	10
985.0	8
987.0	7
989.0	7
991.0	5
993.0	7
995.8	8
997.0	6
998.0	6
1000.0	5
1002.1	8
1004.1	4
1006.1	5
1008.4	7
1010.6	8
1014.0	7
1017.0	7
1019.5	7
1022.3	7
1024.0	7
1026.0	6
1027.0	6
1028.0	6
1029.0	6
1030.0	6
1032.0	8
1033.0	5
1035.0	4
1037.0	5
1039.0	10
1041.0	7
1043.0	8
1046.0	5
1047.7	7
1051.5	8
1053.0	4
1056.0	5
1058.0	7
1060.0	3
1062.0	5
1064.5	7
1069.0	5
1071.0	6
1074.0	8
1077.0	6
1079.0	7
1081.4	6
1083.0	5
1085.0	6
1087.6	7
1089.5	6
1091.4	6
1093.0	4
1094.9	7
1097.0	5
1099.0	4
1101.0	8
1103.9	6
1106.0	10
1107.0	6
1109.0	6
1110.0	7
1111.0	9
1112.0	5
1116.0	6
1119.0	6
1122.0	5
1124.0	5
1126.0	5
1128.0	6
1130.0	3
1132.0	6
1134.0	5
1137.0	7
1139.0	6
1142.0	8
1144.0	4
1146.0	6
1148.0	5
1151.0	4
1153.0	5
1155.0	5
1157.0	5
1159.0	6
1161.0	5
1163.0	6
1165.0	5
1167.0	5
1169.0	5
1171.0	4
1172.0	7
1174.0	4
1176.8	6
1179.0	6
1183.0	6
1185.0	6
1187.0	6
1189.0	6
1191.0	4
1193.0	5
1194.0	6
1196.0	6
1199.0	5
1200.0	6
1202.0	6
1204.0	6
1206.0	6
1208.0	6
1210.0	6
1212.0	6
1214.0	6
1216.0	4
1218.0	4
1220.0	6
1222.0	6
1225.0	5
1227.0	5
1229.0	5
1232.0	8
1234.5	7
1236.0	5
1238.0	5
1240.0	5
1243.0	5
1245.0	6
1249.0	5
1252.0	5
1253.5	4
1255.0	5
1257.0	4
1259.0	5
1263.0	5
1264.0	9
1265.0	5
1267.0	4
1269.0	5
1271.0	6
1273.0	6
1276.0	4
1278.0	4
1280.0	6
1282.0	4
1284.0	4
1286.0	4
1288.0	4
1290.0	3
1292.0	4
1295.0	5
1298.0	5
1300.0	6
1302.0	4
1304.0	4
1306.0	4
1308.0	6
1310.0	4
1313.0	5
1316.0	4
1318.0	4
1320.0	4
1322.0	3
1324.0	4
1326.0	5
1328.0	7
1330.0	5
1333.0	4
1335.0	6
1336.0	4
1338.0	5
1340.0	4
1342.0	6
1344.0	4
1346.0	6
1347.0	4
1349.0	4
1351.0	4
1353.0	3
1355.0	4
1357.0	4
1358.0	3
1360.0	4
1362.0	4
1364.0	4
1366.0	4
1368.0	4
1370.0	4
1372.0	4
1374.0	4
1377.0	4
1379.0	4
1381.0	4
1383.0	4
1385.0	4
1388.0	4
1389.0	6
1391.0	4
1393.0	3
1395.0	3
1397.0	4
1400.0	5
1402.0	5
1404.0	5
1407.0	5
1410.0	5
1413.0	3
1415.0	4
1416.0	4
1419.0	4
1422.0	4
1425.0	6
1427.0	4
1428.0	3
1430.0	4
1432.0	4
1434.0	5
1436.0	4
1438.0	4
1440.0	4
1443.0	4
1445.0	4
1447.0	4
1449.0	4
1451.0	3
1452.0	4
1454.0	4
1456.0	4
1458.0	4
1460.0	5
1463.0	4
1465.0	4
1466.0	4
1468.0	4
1470.0	4
1472.0	4
1474.0	4
1476.0	3
1479.0	4
1482.0	4
1484.0	6
1486.0	4
1488.0	4
1491.0	4
1493.0	3
1495.0	4
1497.0	3
