Mass spectrum: 2,3-di-O-Phytanyl-sn-glycerol-1-phosphoserine; FD-B; MS
Name: 2,3-di-O-Phytanyl-sn-glycerol-1-phosphoserine
Name: archaetidylserine
Class: Glycerophospholipids; Glycerophosphoserines; Dialkylglycerophosphoserines
Formula: C46H94NO8P
Exact mass: 819.67171
SMILES: C[C@H](CCC[C@H](C)CCCC(C)C)CCC[C@@H](C)CCOC[C@H](COP(=O)(O)OC[C@H](C(=O)O)N)OCC[C@H](C)CCC[C@H](C)CCC[C@H](C)CCCC(C)C
InChI: InChI=1S/C46H94NO8P/c1-36(2)17-11-19-38(5)21-13-23-40(7)25-15-27-42(9)29-31-52-33-44(34-54-56(50,51)55-35-45(47)46(48)49)53-32-30-43(10)28-16-26-41(8)24-14-22-39(6)20-12-18-37(3)4/h36-45H,11-35,47H2,1-10H3,(H,48,49)(H,50,51)/t38-,39-,40-,41-,42-,43-,44-,45-/m1/s1
Instrument: JMS DX-300/JMS-3500 data system, Japan Electron Optics Laboratory, Japan
Instrument type: FD-B
Ms type: MS
Ion mode: POSITIVE
Ion type: [M]+*
m/z	relative intensity
31.0	40
40.0	21
41.0	30
42.0	60
43.0	270
45.0	38
56.0	40
71.0	68
78.0	30
79.0	32
85.0	39
105.0	28
106.0	37
119.0	32
137.0	33
139.0	21
152.0	34
155.0	62
176.0	34
178.0	38
243.0	24
279.0	21
359.0	39
366.0	74
367.0	36
372.0	23
381.0	23
434.0	27
435.0	35
453.0	24
462.0	25
553.0	20
583.0	21
591.0	25
653.0	54
679.0	20
688.0	24
731.0	152
732.0	270
733.0	999
734.0	587
735.0	127
736.0	47
760.0	41
808.0	20
820.0	35
845.0	22
