Mass spectrum: caldarchaetidylserine; FAB-B; MS
Name: caldarchaetidylserine
Class: Glycerophospholipids; Di-glycerol tetraether phospholipids (caldarchaeols)
Formula: C89H178NO11P
Exact mass: 1468.31375
SMILES: CC1CCCC(CCCC(CCOCC(OCCC(CCCC(CCCC(CCCC(CCC(CCCC(CCCC(CCCC(CCOCC(OCCC(CCCC(CCCC(CCCC(CCC(CCC1)C)C)C)C)C)COP(=O)(O)OC[C@@H](C(=O)O)N)C)C)C)C)C)C)C)C)CO)C)C
InChI: InChI=1S/C89H178NO11P/c1-70-29-17-33-74(5)41-25-49-82(13)57-61-96-66-86(65-91)98-63-59-84(15)51-27-43-76(7)35-19-31-72(3)39-23-47-80(11)55-53-79(10)46-22-38-71(2)30-18-34-75(6)42-26-50-83(14)58-62-97-67-87(68-100-102(94,95)101-69-88(90)89(92)93)99-64-60-85(16)52-28-44-77(8)36-20-32-73(4)40-24-48-81(12)56-54-78(9)45-21-37-70/h70-88,91H,17-69,90H2,1-16H3,(H,92,93)(H,94,95)/t70?,71?,72?,73?,74?,75?,76?,77?,78?,79?,80?,81?,82?,83?,84?,85?,86?,87?,88-/m0/s1
Instrument: JEOL JMS DX-300
Instrument type: FAB-B
Ms type: MS
Ion mode: NEGATIVE
Ionization: FAB
Ion type: [M-H]-
m/z	relative intensity
355.0	191
731.0	178
1378.0	358
1379.0	420
1380.0	202
1463.0	337
1464.0	204
1465.0	815
1466.0	999
1467.0	530
1468.0	298
1469.0	174
