Mass spectrum: Glcp-beta-1'-6'Glcp-beta-1'-1caldarchaetidylinositol; FAB-B; MS
Name: Glcp-beta-1'-6'Glcp-beta-1'-1caldarchaetidylinositol
Name: gentiobiosylcaldarchaetidylinositol
Class: Glycerophospholipids; Di-glycerol tetraether phospholipids (caldarchaeols)
Formula: C92H183O14P
Exact mass: 1543.33455
SMILES: CC2CCCC(C)CCCC(C)CCOCC(CO)OCCC(C)CCCC(C)CCCC(C)CCCC(C)CCC(C)CCCC(C)CCCC(C)CCCC(C)CCOCC(CO[P](O)(=O)O[C@H]1[C@H]([C@H]([C@@H]([C@H]([C@@H]1O)O)O)O)O)OCCC(C)CCCC(C)CCCC(C)CCCC(C)CCC(C)CCC2
InChI: InChI=1S/C92H183O14P/c1-69-29-17-33-73(5)41-25-49-81(13)57-61-101-66-85(65-93)103-63-59-83(15)51-27-43-75(7)35-19-31-71(3)39-23-47-79(11)55-53-78(10)46-22-38-70(2)30-18-34-74(6)42-26-50-82(14)58-62-102-67-86(68-105-107(99,100)106-92-90(97)88(95)87(94)89(96)91(92)98)104-64-60-84(16)52-28-44-76(8)36-20-32-72(4)40-24-48-80(12)56-54-77(9)45-21-37-69/h69-98H,17-68H2,1-16H3,(H,99,100)/t69?,70?,71?,72?,73?,74?,75?,76?,77?,78?,79?,80?,81?,82?,83?,84?,85?,86?,87-,88-,89+,90-,91-,92-/m0/s1
Instrument: JMS DX-300/JMS-3500 data system, Japan Electron Optics Laboratory, Japan
Instrument type: FAB-B
Ms type: MS
Ion mode: NEGATIVE
Ionization: FAB
Ion type: [M-H]-
m/z	relative intensity
151.0	83
179.0	168
181.0	234
183.0	999
241.0	190
259.0	211
265.0	127
299.0	359
301.0	120
335.0	72
349.0	76
1386.0	69
1539.0	89
1586.0	79
1651.0	94
1700.0	91
1702.0	113
1703.0	113
1704.0	92
1706.0	97
1792.0	70
1833.0	75
1847.0	72
1848.0	83
1851.0	100
1861.0	92
1862.0	146
1863.0	176
1864.0	204
1865.0	341
1866.0	242
1867.0	198
1868.0	145
1877.0	103
1878.0	130
1879.0	107
