Mass spectrum: Glcp-beta-1'-6'Glcp-beta-1'-1caldarchaeol; FAB-B; MS
Name: Glcp-beta-1'-6'Glcp-beta-1'-1caldarchaeol
Name: gentiobiosylcaldarchaeol
Name: beta-D-glucopyranosyl-(1,6)-beta-D-glucopyranosyldiglycerol tetraether
Name: beta-D-glucopyranosyl-(1,6)-beta-D-glucopyranosyl caldarchaeol
Class: Glycerolipids; Diradylglycerols; Di-glycerol tetraether glycans
Formula: C98H192O16
Exact mass: 1625.42104
SMILES: CC1CCCC(CCCC(CCOCC(OCCC(CCCC(CCCC(CCCC(CCC(CCCC(CCCC(CCCC(CCOCC(OCCC(CCCC(CCCC(CCCC(CCC(CCC1)C)C)C)C)C)CO[C@H]2[C@@H]([C@H]([C@@H]([C@H](O2)CO[C@H]3[C@@H]([C@H]([C@@H]([C@H](O3)CO)O)O)O)O)O)O)C)C)C)C)C)C)C)C)CO)C)C
InChI: InChI=1S/C98H192O16/c1-71-29-17-33-75(5)41-25-49-83(13)57-61-107-67-87(65-99)109-63-59-85(15)51-27-43-77(7)35-19-31-73(3)39-23-47-81(11)55-53-80(10)46-22-38-72(2)30-18-34-76(6)42-26-50-84(14)58-62-108-68-88(69-111-97-96(106)94(104)92(102)90(114-97)70-112-98-95(105)93(103)91(101)89(66-100)113-98)110-64-60-86(16)52-28-44-78(8)36-20-32-74(4)40-24-48-82(12)56-54-79(9)45-21-37-71/h71-106H,17-70H2,1-16H3/t71?,72?,73?,74?,75?,76?,77?,78?,79?,80?,81?,82?,83?,84?,85?,86?,87?,88?,89-,90-,91-,92-,93+,94+,95-,96-,97-,98-/m1/s1
Instrument: JMS DX-300/JMS-3500 data system, Japan Electron Optics Laboratory, Japan
Instrument type: FAB-B
Ms type: MS
Ion mode: NEGATIVE
Ionization: FAB
Ion type: [M-H]-
m/z	relative intensity
254.0	65
255.0	197
257.0	40
260.0	15
263.0	15
265.0	53
267.0	29
273.0	236
275.0	999
276.0	128
280.0	14
285.0	14
288.0	31
292.0	53
295.0	50
298.0	9
302.0	16
304.0	41
307.0	35
309.0	78
311.0	52
315.0	13
320.0	30
322.0	26
326.0	13
328.0	42
332.0	50
334.0	20
337.0	12
343.0	12
348.0	48
354.0	11
359.0	18
364.0	68
365.0	217
367.0	12
371.0	10
376.0	13
379.0	31
382.0	8
386.0	30
388.0	32
393.0	7
399.0	13
402.0	48
404.0	17
410.0	15
414.0	10
423.0	23
426.0	17
429.0	10
435.0	20
441.0	21
446.0	12
452.0	8
455.0	16
457.0	87
463.0	18
467.0	11
471.0	9
474.0	6
480.0	7
482.0	21
486.0	12
496.0	22
502.0	15
507.0	11
513.0	10
519.0	13
524.0	5
529.0	6
534.0	16
538.0	6
547.0	11
553.0	47
554.0	7
559.0	7
564.0	7
570.0	7
575.0	7
581.0	13
587.0	6
592.0	15
598.0	7
604.0	11
611.0	5
617.0	15
623.0	8
628.0	6
634.0	7
639.0	6
645.0	30
651.0	6
656.0	11
662.0	6
668.0	14
673.0	6
679.0	6
684.0	16
691.0	6
700.0	8
713.0	7
719.0	5
725.0	7
730.0	8
735.0	7
739.0	12
742.0	6
747.0	6
752.0	15
758.0	6
764.0	10
782.0	6
800.0	10
806.0	7
812.0	7
815.0	11
846.0	16
875.0	8
881.0	8
901.0	8
948.0	10
976.0	6
981.0	10
987.0	7
1039.0	7
1073.0	8
1120.0	8
1356.0	11
1365.0	11
1374.0	12
1380.0	7
1383.0	18
1391.0	18
1396.0	10
1400.0	4
1408.0	4
1410.0	8
1412.0	7
1416.0	3
1419.0	12
1429.0	17
1434.0	7
1438.0	3
1441.0	12
1446.0	4
1452.0	2
1462.0	8
1466.0	22
1470.0	3
1473.0	3
1475.0	16
1478.0	7
1480.0	5
1482.0	17
1484.0	4
1485.0	11
1487.0	4
1493.0	4
1499.0	6
1505.0	7
1508.0	5
1518.0	6
1520.0	4
1525.0	1
1528.0	21
1531.0	9
1534.0	13
1540.0	16
1546.0	6
1555.0	7
1571.0	7
1574.0	4
1579.0	2
1587.0	10
1589.0	5
1592.5	17
1596.0	7
1604.0	5
1610.0	12
1622.0	27
1623.0	100
1624.0	83
1625.0	9
1635.0	10
1637.0	8
1639.0	6
1662.0	3
1668.0	30
1670.0	9
1671.0	9
1672.0	15
1674.0	3
1676.0	10
1679.0	9
1683.0	4
1689.0	15
1693.0	20
1696.0	13
1698.0	6
1703.0	5
1711.0	21
1722.0	13
1725.0	5
1729.0	6
1737.0	9
