Mass spectrum: 2,3-di-O-Geranylgeranyl-sn-glycerol-1-phosphate; FAB-B; MS
Name: 2,3-di-O-Geranylgeranyl-sn-glycerol-1-phosphate
Name: 2,3-di-O-(3',7',11',15'-tetramethylhexadec-2',6',10',14'-tetraenyl)-sn-glycerol-1-phosphate
Name: unsaturated archaetidic acid
Class: Glycerophospholipids; Glycerophosphates
Formula: C43H73O6P
Exact mass: 716.51448
SMILES: CC(=CCC/C(=C/CC/C(=C/CC/C(=C/COC[C@H](COP(=O)(O)O)OC/C=C(\C)/CC/C=C(\C)/CC/C=C(\C)/CCC=C(C)C)/C)/C)/C)C
InChI: InChI=1S/C43H73O6P/c1-35(2)17-11-19-37(5)21-13-23-39(7)25-15-27-41(9)29-31-47-33-43(34-49-50(44,45)46)48-32-30-42(10)28-16-26-40(8)24-14-22-38(6)20-12-18-36(3)4/h17-18,21-22,25-26,29-30,43H,11-16,19-20,23-24,27-28,31-34H2,1-10H3,(H2,44,45,46)/b37-21+,38-22+,39-25+,40-26+,41-29+,42-30+/t43-/m1/s1
Instrument: JEOL JMS DX-303
Instrument type: FAB-B
Ms type: MS
Ion mode: POSITIVE
Ionization: FAB
Ion type: [M+Na]+
m/z	relative intensity
501.0	152
502.0	62
503.3	92
504.1	52
505.2	53
506.1	42
507.3	69
508.1	61
509.2	43
510.0	54
511.0	58
512.2	50
513.0	43
514.1	40
514.8	75
516.0	55
517.0	131
518.1	67
519.0	45
520.8	60
521.9	52
522.9	67
524.9	38
525.8	31
527.0	27
528.1	44
528.8	61
529.8	53
531.0	186
532.1	67
533.0	91
533.8	59
534.8	83
536.0	53
537.0	42
537.9	39
538.9	40
539.9	22
541.0	51
541.8	23
542.9	65
543.9	39
545.0	134
545.9	52
546.9	57
547.8	32
548.7	69
549.9	58
550.8	45
551.7	59
552.7	65
553.9	61
554.8	42
555.8	33
556.8	41
557.7	27
559.0	64
560.1	44
560.8	67
561.8	86
563.0	61
564.0	34
564.9	52
566.0	32
566.9	33
568.1	46
569.0	53
570.1	32
570.9	44
572.1	32
573.1	57
574.0	35
575.0	104
575.9	64
576.7	50
578.0	40
579.1	39
579.9	73
580.9	36
581.9	34
583.0	50
583.9	51
585.0	57
585.8	31
587.2	61
588.2	65
589.0	92
590.1	40
590.9	51
592.1	37
593.2	39
594.0	27
595.0	34
596.1	76
597.1	34
598.1	32
599.1	37
599.8	31
601.0	135
602.1	51
603.0	91
603.9	42
605.0	99
606.2	66
607.0	52
608.0	19
608.9	46
610.1	22
610.9	32
611.8	22
613.0	114
613.9	50
615.1	110
615.9	48
617.0	60
617.8	60
619.1	104
619.8	64
620.9	38
621.9	60
623.0	62
623.9	62
624.9	46
626.0	41
626.9	61
628.2	42
629.1	46
630.0	27
630.9	50
631.9	27
634.1	95
635.0	59
635.9	34
637.0	79
638.0	33
639.0	36
640.0	29
641.0	43
642.0	38
643.1	56
644.1	29
645.0	52
645.9	15
647.0	27
648.0	35
649.1	42
650.0	53
650.8	24
652.2	47
653.0	53
654.0	37
655.0	77
656.1	29
657.0	73
658.1	51
659.1	37
659.9	24
661.0	36
662.1	41
663.0	68
664.0	41
665.2	30
666.1	30
667.0	33
668.0	37
670.0	69
671.0	59
672.0	32
672.9	37
673.9	30
674.9	41
675.8	36
676.8	58
677.7	63
678.8	31
679.8	42
680.6	37
681.8	36
684.0	82
684.8	29
686.0	66
686.9	39
688.0	44
689.0	43
690.1	71
691.0	34
692.0	50
692.9	38
694.1	64
695.1	53
696.0	51
698.1	66
698.8	29
699.8	38
700.9	35
701.8	27
703.1	35
704.0	24
705.1	61
706.0	26
707.2	40
708.1	47
709.2	65
710.2	48
711.1	55
712.1	28
713.3	38
714.1	54
715.1	35
716.2	35
717.2	31
718.2	43
719.1	34
720.0	42
721.4	39
722.2	75
723.1	52
724.1	56
725.1	54
726.1	71
727.1	37
727.9	23
729.0	37
730.0	24
732.0	30
732.9	28
734.1	37
734.9	20
736.0	66
737.0	48
738.0	255
739.3	244
740.0	999
741.5	627
742.1	262
742.9	54
744.1	96
745.0	47
745.8	58
747.0	43
748.1	47
749.1	71
750.0	49
751.0	17
752.0	56
753.0	82
754.2	114
755.2	133
756.2	295
757.0	175
758.8	847
759.6	479
760.2	161
761.0	58
762.3	396
763.4	226
764.3	53
765.2	36
766.2	25
767.4	51
768.4	53
769.3	55
770.2	92
771.3	149
772.0	584
773.5	298
774.3	258
775.3	115
776.3	282
777.3	189
778.3	186
779.5	392
780.0	166
781.0	125
781.9	56
783.1	54
783.8	45
785.1	77
786.0	35
786.9	64
787.9	92
789.0	276
790.0	43
790.9	135
791.9	74
792.9	62
794.1	224
795.0	136
796.1	20
796.9	80
798.0	199
799.0	34
800.1	38
800.9	25
801.9	34
803.1	99
804.1	110
804.9	66
806.0	66
807.0	117
808.1	90
809.1	88
810.0	91
811.0	60
812.0	118
812.9	75
814.0	35
815.0	64
816.0	60
817.0	41
818.1	35
819.1	20
820.0	66
821.1	80
822.0	90
823.1	50
824.1	50
825.1	51
825.9	69
827.1	46
828.0	114
828.8	27
830.1	45
831.0	45
832.1	23
834.1	35
835.1	41
836.1	47
837.1	53
838.0	24
839.0	67
840.1	40
841.0	34
842.9	48
843.8	48
845.0	54
845.8	35
846.7	35
847.8	30
848.7	24
849.9	28
850.7	37
851.7	27
852.7	64
853.9	47
854.8	43
855.9	18
856.8	32
857.8	42
859.0	41
859.9	54
861.0	48
861.9	68
863.1	32
864.0	39
865.0	19
866.0	36
866.7	29
867.9	28
869.0	44
870.0	63
871.0	38
871.9	26
872.7	45
874.0	83
875.0	47
875.9	79
876.9	48
878.1	40
879.1	40
879.9	43
880.7	36
881.7	40
883.0	43
884.0	23
884.9	37
885.9	44
887.0	34
888.0	35
888.9	52
889.9	87
891.0	102
892.1	86
892.9	29
894.0	64
895.0	103
896.1	29
897.2	103
898.0	36
898.9	47
899.9	23
901.1	21
901.9	27
903.0	20
903.9	31
905.1	39
905.9	34
906.9	60
907.7	61
908.8	72
909.9	35
910.8	40
912.0	36
912.8	62
914.1	48
915.1	41
916.1	53
917.0	37
917.9	44
919.1	34
920.1	47
922.0	48
923.2	38
924.1	42
925.1	24
926.1	33
926.9	55
927.9	28
929.0	15
930.0	26
930.9	52
931.8	23
932.8	29
933.9	49
935.0	26
935.9	24
936.9	17
938.0	32
939.1	24
940.1	40
941.0	44
942.0	25
943.1	40
944.1	21
945.0	53
945.8	40
947.1	21
947.9	52
948.9	33
949.8	29
951.9	46
953.1	18
954.0	20
954.9	14
956.2	23
957.2	22
958.1	37
959.0	27
960.0	18
961.2	37
962.1	35
963.0	40
964.0	44
965.0	40
966.0	17
967.9	37
968.9	24
970.1	27
970.9	24
971.9	30
972.9	30
974.1	27
975.0	24
975.9	9
976.9	31
977.8	36
978.9	16
979.8	33
980.9	29
981.8	41
983.1	27
984.0	31
985.0	15
985.9	16
986.9	19
987.8	17
989.1	24
990.1	21
991.0	42
992.0	13
993.0	24
994.0	33
995.2	28
996.1	31
997.1	29
998.0	49
