Mass spectrum: Cytidine-diphospho-(2,3-di-O-geranylgeranyl-sn-glycerol); FAB-B; MS
Name: Cytidine-diphospho-(2,3-di-O-geranylgeranyl-sn-glycerol)
Name: cytidine-diphospho-(2,3-di-O-3',7',11',15'-tetramethylhexadec-2',6',10',14'-tetraenyl)-sn-glycerol
Name: CDP-archaeol
Class: Glycerophospholipids; CDP-Glycerols
Formula: C52H85N3O13P2
Exact mass: 1021.55576
SMILES: CC(=CCC/C(=C/CC/C(=C/CC/C(=C/COCC(COP(=O)(O)OP(=O)(O)OC[C@@H]1C(C([C@@H](O1)N2C=CC(=NC2=O)N)O)O)OC/C=C(\C)/CC/C=C(\C)/CC/C=C(\C)/CCC=C(C)C)/C)/C)/C)C
InChI: InChI=1S/C52H85N3O13P2/c1-38(2)17-11-19-40(5)21-13-23-42(7)25-15-27-44(9)30-33-63-35-46(64-34-31-45(10)28-16-26-43(8)24-14-22-41(6)20-12-18-39(3)4)36-65-69(59,60)68-70(61,62)66-37-47-49(56)50(57)51(67-47)55-32-29-48(53)54-52(55)58/h17-18,21-22,25-26,29-32,46-47,49-51,56-57H,11-16,19-20,23-24,27-28,33-37H2,1-10H3,(H,59,60)(H,61,62)(H2,53,54,58)/b40-21+,41-22+,42-25+,43-26+,44-30+,45-31+/t46?,47-,49?,50?,51-/m1/s1
Instrument: JEOL JMS DX-303
Instrument type: FAB-B
Ms type: MS
Ion mode: POSITIVE
Ionization: FAB
Ion type: [M+Na]+
m/z	relative intensity
694.0	128
695.6	173
696.6	103
697.7	133
699.0	999
699.8	143
700.7	142
701.7	115
702.9	95
703.8	112
704.9	82
705.8	157
706.9	100
707.8	210
708.9	124
709.8	147
710.8	159
711.9	148
712.8	122
713.8	121
715.7	162
716.7	390
717.8	152
718.8	111
719.7	130
720.7	103
721.6	185
722.9	101
723.7	116
724.8	80
725.7	127
726.8	101
727.8	105
728.9	83
729.7	129
730.7	180
731.9	94
732.8	110
733.7	112
734.8	89
735.8	103
736.8	89
737.8	128
739.0	995
739.7	167
740.7	177
741.7	197
742.8	133
743.8	133
744.9	66
745.9	151
746.8	102
747.8	126
748.9	84
749.7	163
750.8	89
751.9	123
752.8	157
753.6	197
754.7	198
756.0	821
756.7	471
757.8	199
758.8	152
759.9	166
760.6	774
761.8	207
762.7	206
763.6	693
764.7	370
765.7	198
766.9	108
767.9	124
768.9	101
769.9	166
770.7	171
771.8	217
772.8	168
773.8	421
774.7	239
775.7	182
776.7	147
777.6	672
778.6	733
779.7	283
780.7	167
781.6	559
782.7	313
783.7	215
784.7	132
785.6	448
786.7	209
787.6	461
788.6	215
789.7	138
790.8	101
791.7	206
792.7	176
793.8	222
794.8	162
795.7	687
796.6	325
797.9	205
798.9	145
799.7	300
801.0	779
801.7	456
802.8	229
803.8	374
804.7	200
805.7	275
806.7	113
807.7	223
808.8	111
809.7	475
810.7	282
811.7	233
812.7	154
813.7	294
814.7	191
815.7	177
816.8	117
817.7	259
818.7	277
819.7	277
820.9	159
821.8	233
822.8	257
823.8	298
824.7	185
825.7	192
826.8	133
827.7	425
828.8	195
829.7	175
830.8	124
831.7	204
832.7	183
833.8	274
834.9	149
835.9	167
836.9	137
837.9	226
838.9	167
839.7	236
841.0	847
841.9	297
842.8	220
843.9	245
844.9	105
845.7	188
846.9	147
847.8	211
848.8	129
849.7	177
850.8	136
851.7	173
852.8	116
853.8	152
854.8	171
855.8	227
856.7	173
857.8	227
858.8	203
859.7	206
860.7	159
861.8	160
862.6	642
863.7	161
864.7	154
865.7	186
866.8	129
867.8	156
868.8	91
869.7	194
870.6	125
871.7	128
872.7	130
873.7	164
874.7	124
875.8	146
876.7	108
877.7	133
878.8	139
879.7	148
880.7	335
881.8	121
882.6	134
883.8	117
884.7	108
885.6	110
886.8	102
887.8	212
888.6	124
889.7	119
890.8	98
891.6	123
892.6	105
893.7	128
894.7	112
895.8	102
896.8	134
897.8	108
898.9	117
899.9	108
900.9	110
901.8	141
903.0	572
903.8	124
904.8	125
905.7	129
906.8	98
907.8	79
908.8	94
909.8	94
910.8	87
911.7	110
912.9	97
913.7	121
914.8	103
915.8	87
916.8	129
917.8	93
918.8	110
919.8	124
920.8	183
921.8	132
922.7	116
923.7	121
924.9	221
925.7	127
926.9	100
927.9	93
928.9	98
929.9	87
930.8	80
931.7	106
933.0	70
933.8	108
934.7	160
935.7	106
937.0	91
937.8	87
938.8	81
940.9	103
942.0	551
942.8	245
944.8	121
945.8	81
946.9	88
947.9	74
948.8	67
949.8	68
950.8	71
951.7	70
952.7	110
953.7	79
954.7	127
955.8	98
956.7	114
957.8	80
958.7	109
959.8	77
960.8	102
961.8	87
963.0	580
963.8	98
964.7	95
965.8	84
966.8	71
968.8	69
969.9	82
970.8	92
971.9	54
972.8	98
973.9	66
974.9	66
975.8	73
976.8	91
977.7	96
978.7	79
979.9	68
980.7	180
981.7	72
982.8	120
983.8	97
984.8	77
985.8	69
986.8	73
987.8	115
988.8	82
989.9	97
990.9	62
991.9	97
992.9	74
993.9	86
994.8	105
995.8	68
996.8	91
997.9	59
998.9	99
999.8	77
1000.9	78
1001.9	84
1003.0	418
1003.9	68
1004.9	101
1005.9	84
1006.9	84
1007.9	52
1008.9	71
1009.9	90
1010.9	73
1011.8	76
1012.8	76
1013.9	65
1014.9	54
1016.9	82
1017.9	59
1018.9	89
1019.9	74
1020.9	157
1021.8	62
1022.9	90
1023.7	72
1024.8	280
1025.9	69
1026.8	77
1027.8	59
1028.9	64
1029.9	49
1030.9	58
1031.9	52
1032.9	68
1033.9	55
1034.9	103
1035.9	72
1036.9	84
1037.9	78
1038.9	63
1039.9	80
1040.9	73
1042.0	66
1043.0	322
1043.9	51
1044.9	92
1045.8	80
1047.0	55
1047.8	68
1048.9	52
1049.8	65
1050.8	68
1051.8	90
1052.8	105
1053.8	71
1054.9	49
1055.9	59
1056.8	108
1057.9	58
1058.8	63
1059.9	44
1060.9	77
1062.0	64
1062.9	63
1064.0	70
1065.0	455
1066.0	80
1066.9	180
1067.8	202
1068.9	165
1069.9	82
1070.9	59
1071.9	60
1072.9	51
1073.9	47
1074.9	93
1075.8	74
1076.9	79
1077.9	61
1078.9	58
1079.9	53
1080.9	63
1081.9	67
1082.9	145
1083.9	55
1084.8	109
1085.9	71
1086.8	143
1087.9	79
1088.9	101
1089.8	150
1090.9	105
1091.9	83
1092.9	60
1093.9	42
1094.9	58
1095.9	49
1096.9	101
1097.9	53
1098.9	89
1100.0	66
1100.9	80
1102.0	58
1102.9	62
1103.9	73
1105.0	352
1105.9	73
1106.9	123
1107.8	87
1109.0	60
