Mass spectrum: 2,3-di-O-Geranylgeranyl-sn-glycerol-1-phosphate; FAB-B; MS
Name: 2,3-di-O-Geranylgeranyl-sn-glycerol-1-phosphate
Name: 2,3-di-O-(3',7',11',15'-tetramethylhexadec-2',6',10',14'-tetraenyl)-sn-glycerol-1-phosphate
Name: unsaturated archaetidic acid
Class: Glycerophospholipids; Glycerophosphates
Formula: C43H73O6P
Exact mass: 716.51448
SMILES: CC(=CCC/C(=C/CC/C(=C/CC/C(=C/COC[C@H](COP(=O)(O)O)OC/C=C(\C)/CC/C=C(\C)/CC/C=C(\C)/CCC=C(C)C)/C)/C)/C)C
InChI: InChI=1S/C43H73O6P/c1-35(2)17-11-19-37(5)21-13-23-39(7)25-15-27-41(9)29-31-47-33-43(34-49-50(44,45)46)48-32-30-42(10)28-16-26-40(8)24-14-22-38(6)20-12-18-36(3)4/h17-18,21-22,25-26,29-30,43H,11-16,19-20,23-24,27-28,31-34H2,1-10H3,(H2,44,45,46)/b37-21+,38-22+,39-25+,40-26+,41-29+,42-30+/t43-/m1/s1
Instrument: JEOL JMS DX-303
Instrument type: FAB-B
Ms type: MS
Ion mode: POSITIVE
Ionization: FAB
Ion type: [M+Na]+
m/z	relative intensity
636.0	65
637.1	113
638.2	43
639.1	120
640.0	49
641.0	131
642.0	129
644.0	60
645.0	111
645.9	106
647.9	80
649.0	52
649.9	33
650.9	91
651.9	63
653.0	74
654.0	37
654.9	103
656.0	47
656.9	117
657.9	80
659.0	226
659.9	139
660.9	49
662.0	77
663.0	36
664.0	90
665.0	70
666.0	87
667.1	11
668.0	113
669.0	72
669.9	108
671.0	74
672.0	45
672.9	83
674.0	97
674.9	112
675.9	73
677.0	118
678.0	89
679.1	28
680.0	92
681.0	40
682.0	40
683.0	43
684.0	79
685.1	64
686.0	120
687.0	45
688.0	46
689.0	50
689.9	51
691.0	180
692.9	151
693.9	69
695.0	63
695.9	82
697.0	57
698.0	62
698.9	38
699.9	27
701.0	87
701.9	104
703.1	48
703.9	96
705.1	89
706.1	26
706.9	101
708.0	97
709.0	95
710.0	107
710.9	47
712.0	31
712.9	70
714.0	113
714.9	61
716.0	90
716.9	72
719.0	104
719.9	26
721.0	105
722.0	56
723.0	96
724.0	52
724.9	57
726.0	33
726.9	94
727.9	95
728.9	84
729.8	91
730.9	37
732.0	43
732.8	85
733.9	36
734.9	100
736.0	57
736.9	246
738.0	140
739.0	999
739.9	744
741.1	122
742.0	87
742.9	84
745.0	116
745.9	107
747.1	41
748.0	101
749.0	63
749.9	47
750.9	119
751.8	93
753.0	179
753.9	140
754.8	237
756.0	162
757.0	588
757.8	326
758.9	388
759.9	241
761.0	999
762.0	881
762.9	131
764.0	66
765.0	112
765.9	89
767.0	34
767.9	97
768.8	131
769.9	46
770.9	391
771.8	257
773.0	184
773.9	80
774.9	269
775.9	175
776.9	338
777.9	125
779.0	657
779.9	300
780.9	86
782.0	52
782.9	147
783.9	43
784.9	123
786.0	41
786.8	120
787.9	26
788.9	141
789.9	111
790.9	206
793.0	564
793.8	319
794.9	127
796.9	119
797.9	110
798.8	200
800.0	120
800.9	124
801.8	82
803.0	75
803.9	103
804.9	50
806.0	129
806.9	95
808.0	73
809.0	114
810.0	55
811.0	142
811.9	94
812.9	78
813.9	91
814.9	57
815.8	81
817.0	99
818.0	43
818.9	48
819.9	38
820.9	137
821.9	46
822.9	74
823.9	80
826.0	103
826.9	77
827.9	75
829.0	36
829.9	44
830.9	90
832.0	84
833.0	67
833.9	60
835.0	62
835.9	74
836.9	48
838.0	60
839.0	79
839.9	71
840.9	79
842.0	66
842.9	32
844.0	80
845.0	51
845.9	40
847.0	89
847.9	38
849.0	32
850.0	28
850.9	78
851.9	79
853.0	48
853.9	92
855.0	38
856.0	86
857.0	115
858.1	63
859.0	48
859.9	71
861.1	65
862.0	35
863.0	194
863.9	110
865.0	38
866.0	64
867.1	29
868.0	64
868.9	41
870.0	46
871.0	41
872.0	65
873.0	35
873.9	102
875.0	108
876.9	80
877.9	65
879.0	69
879.9	33
880.9	75
881.9	70
882.9	47
884.0	66
885.0	50
885.9	72
886.9	28
888.0	60
889.0	89
890.0	57
891.0	43
891.9	62
893.0	62
894.0	27
894.9	65
896.0	33
896.9	88
897.9	77
899.0	64
899.9	82
900.9	42
902.0	24
903.0	65
904.0	82
904.9	32
905.9	79
907.0	54
907.9	77
909.0	43
909.9	54
911.1	58
911.9	79
913.0	85
914.0	89
