Mass spectrum: H-shaped caldarchaeol alcohol tetraacetate; CI-B; MS
Name: H-shaped caldarchaeol alcohol tetraacetate
Class: Prenol Lipids
Formula: C88H170O8
Exact mass: 1355.28957
SMILES: C(C(CC(CCCC(C)CCCC(CCCC(CCOC(C)=O)C)C)CCC(CCCC(C)CCCC(C)CCCC(C)CCOC(C)=O)C)CCC(CCCC(CCCC(C)CCOC(C)=O)C)C)(C)CCC(CCCC(CCCC(C)CCCC(C)CCOC(C)=O)C)C
InChI: InChI=1S/C88H170O8/c1-68(31-20-33-70(3)40-26-47-78(11)59-63-93-83(16)89)37-23-44-75(8)53-56-82(15)88(58-55-77(10)46-25-39-73(6)43-29-50-81(14)62-66-96-86(19)92)67-87(52-30-51-74(7)36-22-35-72(5)42-28-49-80(13)61-65-95-85(18)91)57-54-76(9)45-24-38-69(2)32-21-34-71(4)41-27-48-79(12)60-64-94-84(17)90/h68-82,87-88H,20-67H2,1-19H3
Instrument: JEOL AX-505HA
Instrument type: CI-B
Ms type: MS
Ion mode: POSITIVE
Ion type: [M+H]+
m/z	relative intensity
27.0000	188
28.0000	20
29.0000	241
30.0000	37
38.0000	22
39.0000	999
40.0000	193
41.0000	999
42.0000	984
43.0000	999
44.0000	424
45.0000	74
51.0000	45
52.0000	29
53.0000	208
54.0000	33
55.0000	625
56.0000	999
57.0000	999
58.0000	999
59.0000	280
60.0000	38
61.0000	135
65.0000	10
66.0000	14
67.0000	103
68.0000	36
69.0000	276
70.0000	107
71.0000	332
72.0000	57
73.0000	125
74.0000	18
75.0000	61
76.0000	8
77.0000	6
78.0000	10
79.0000	55
80.0000	26
81.0000	166
82.0000	52
83.0000	259
84.0000	79
85.0000	274
86.0000	28
87.0000	50
88.0000	7
89.0000	20
91.0000	44
92.0000	19
93.0000	56
94.0000	38
95.0000	155
96.0000	54
97.0000	298
98.0000	57
99.0000	130
100.0000	31
101.0000	60
102.0000	12
103.0000	26
104.0000	48
105.0000	71
106.0000	19
107.0000	58
108.0000	31
109.0000	130
110.0000	42
111.0000	269
112.0000	53
113.0000	142
114.0000	27
115.0000	122
116.0000	19
117.0000	106
118.0000	26
119.0000	52
120.0000	19
121.0000	51
122.0000	26
123.0000	122
124.0000	42
125.0000	226
126.0000	41
127.0000	108
128.0000	16
129.0000	43
130.0000	16
131.0000	35
132.0000	21
133.0000	56
134.0000	21
135.0000	132
136.0000	28
137.0000	95
138.0000	31
139.0000	150
140.0000	33
141.0000	91
142.0000	13
143.0000	40
144.0000	13
145.0000	34
146.0000	18
147.0000	38
148.0000	21
149.0000	46
150.0000	20
151.0000	77
152.0000	24
153.0000	96
154.0000	24
155.0000	72
156.0000	14
157.0000	38
158.0000	15
159.0000	42
160.0000	18
161.0000	37
162.0000	17
163.0000	41
164.0000	18
165.0000	66
166.0000	20
167.0000	69
168.0000	17
169.0000	62
170.0000	13
171.0000	26
172.0000	13
173.0000	41
174.0000	17
175.0000	58
176.0000	16
177.0000	40
178.0000	14
179.0000	46
180.0000	16
181.0000	46
182.0000	14
183.0000	50
184.0000	12
185.0000	24
186.0000	12
187.0000	24
188.0000	40
189.0000	29
190.0000	13
191.0000	35
192.0000	12
193.0000	43
194.0000	15
195.0000	43
196.0000	15
197.0000	51
198.0000	10
199.0000	106
200.0000	22
201.0000	35
202.0000	19
203.0000	23
204.0000	11
205.0000	25
206.0000	10
207.0000	33
208.0000	13
209.0000	36
210.0000	14
211.0000	44
212.0000	11
213.0000	27
214.0000	12
215.0000	21
216.0000	10
217.0000	23
218.0000	9
219.0000	22
220.0000	9
221.0000	26
222.0000	11
223.0000	35
224.0000	11
225.0000	35
226.0000	10
227.0000	31
228.0000	12
229.0000	29
230.0000	10
231.0000	22
232.0000	8
233.0000	28
234.0000	9
235.0000	26
236.0000	12
237.0000	30
238.0000	12
239.0000	40
240.0000	9
241.0000	19
242.0000	9
243.0000	24
244.0000	8
245.0000	15
246.0000	6
247.0000	16
248.0000	7
249.0000	18
250.0000	8
251.0000	22
252.0000	9
253.0000	26
254.0000	8
255.0000	48
256.0000	14
257.0000	48
258.0000	11
259.0000	13
260.0000	6
261.0000	15
262.0000	13
263.0000	19
264.0000	10
265.0000	22
266.0000	9
267.0000	25
268.0000	7
269.0000	38
270.0000	11
271.0000	33
272.0000	9
273.0000	13
274.0000	6
275.0000	15
276.0000	6
277.0000	16
278.0000	9
279.0000	16
280.0000	9
281.0000	22
282.0000	8
283.0000	36
284.0000	11
285.0000	23
286.0000	7
287.0000	10
289.0000	13
290.0000	6
291.0000	17
292.0000	8
293.0000	16
294.0000	8
295.0000	20
296.0000	6
297.0000	35
298.0000	11
299.0000	18
300.0000	6
301.0000	10
303.0000	11
305.0000	11
306.0000	6
307.0000	11
308.0000	6
309.0000	15
310.0000	6
311.0000	23
312.0000	8
313.0000	22
314.0000	7
315.0000	9
317.0000	10
319.0000	11
320.0000	6
321.0000	11
322.0000	5
323.0000	14
324.0000	5
325.0000	17
326.0000	6
327.0000	11
329.0000	8
331.0000	10
333.0000	10
334.0000	6
335.0000	10
337.0000	12
339.0000	23
340.0000	8
341.0000	18
342.0000	6
343.0000	8
345.0000	8
347.0000	9
348.0000	5
349.0000	11
350.0000	5
351.0000	13
353.0000	17
354.0000	7
355.0000	12
357.0000	7
359.0000	7
361.0000	8
363.0000	8
365.0000	10
367.0000	16
368.0000	9
369.0000	31
370.0000	10
371.0000	9
373.0000	7
375.0000	7
377.0000	8
379.0000	9
381.0000	10
383.0000	11
385.0000	8
387.0000	7
389.0000	7
391.0000	7
393.0000	8
395.0000	10
396.0000	6
397.0000	11
399.0000	6
401.0000	6
403.0000	6
405.0000	6
407.0000	8
409.0000	10
411.0000	8
413.0000	6
415.0000	6
417.0000	6
419.0000	6
421.0000	7
423.0000	8
425.0000	8
427.0000	5
429.0000	5
431.0000	6
433.0000	5
435.0000	6
437.0000	7
439.0000	6
443.0000	5
445.0000	5
447.0000	5
449.0000	7
451.0000	7
453.0000	5
463.0000	6
465.0000	6
467.0000	5
477.0000	6
479.0000	6
493.0000	5
495.0000	5
507.0000	5
509.0000	6
521.0000	7
523.0000	9
535.0000	7
537.0000	8
547.0000	6
549.0000	10
551.0000	12
561.0000	6
563.0000	8
565.0000	7
575.0000	6
577.0000	10
579.0000	7
591.0000	6
603.0000	6
605.0000	6
635.0000	6
649.0000	5
661.0000	6
663.0000	20
664.0000	10
665.0000	16
666.0000	8
675.0000	7
677.0000	27
678.0000	13
679.0000	15
680.0000	7
689.0000	7
691.0000	21
692.0000	11
693.0000	14
694.0000	7
705.0000	6
943.0000	5
957.0000	5
999.0000	8
1000.0000	6
1001.0000	11
1002.0000	8
1003.0000	10
1004.0000	6
1013.0000	6
1015.0000	13
1016.0000	9
1017.0000	10
1018.0000	6
1027.0000	5
1029.0000	11
1030.0000	7
1031.0000	7
1057.0000	14
1058.0000	10
1059.0000	18
1060.0000	13
1061.0000	6
1069.0000	6
1071.0000	18
1072.0000	14
1073.0000	11
1074.0000	6
1085.0000	7
1086.0000	6
1087.0000	10
1088.0000	7
1099.0000	11
1100.0000	9
1101.0000	11
1102.0000	7
1113.0000	6
1127.0000	6
1129.0000	8
1130.0000	6
1141.0000	7
1142.0000	5
1143.0000	6
1157.0000	6
1169.0000	5
1171.0000	5
1295.0000	10
1296.0000	9
1297.0000	6
1353.0000	6
1354.0000	6
1355.0000	23
1356.0000	20
1357.0000	10
1369.0000	6
1370.0000	5
