Mass spectrum: TELMISARTAN; ESI-QTOF; MS2; CE 30eV; [M+H]+
Name: TELMISARTAN
Class: Non-Natural Product
Formula: C33H30N4O2
Exact mass: 514.23688
SMILES: n(c12)c(c(c4)cc(n(Cc(c5)ccc(c(c(C(O)=O)6)cccc6)c5)3)c(c(C)4)nc3CCC)n(C)c1cccc2
InChI: InChI=1S/C33H30N4O2/c1-4-9-30-35-31-21(2)18-24(32-34-27-12-7-8-13-28(27)36(32)3)19-29(31)37(30)20-22-14-16-23(17-15-22)25-10-5-6-11-26(25)33(38)39/h5-8,10-19H,4,9,20H2,1-3H3,(H,38,39)
Instrument: Xevo G2 XS QTOF, waters
Instrument type: ESI-QTOF
Ms type: MS2
Ion mode: POSITIVE
Collision energy: 30eV
Ionization: ESI
Column name: ACQUITY UPLC BEH C18 1.7 um x 50 mm
Retention time: 3.05 min
Precursor m/z: 515.24414
Precursor type: [M+H]+
m/z	relative intensity	assigned
152.067300	1	
163.025900	1	
190.111600	1	
193.065400	10	
193.941200	1	
194.065000	1	
211.075400	22	
212.080100	2	
235.859500	1	
243.983400	1	
253.038700	1	
263.908500	1	
275.129400	2	
276.137900	45	
277.139200	6	
278.142100	1	
280.854200	1	
283.985100	1	
288.127500	1	
288.886700	1	
289.145500	7	
290.148800	1	
299.850500	1	
303.159700	5	
304.164600	3	
305.176600	36	
306.179400	8	
306.946700	1	
307.180400	1	
317.177200	6	
318.181700	1	
318.834200	1	
325.724600	1	
328.947500	1	
346.834300	1	
353.088300	1	
368.995700	1	
370.154700	1	
372.174000	1	
388.809400	1	
390.780200	1	
396.891200	1	
407.119400	1	
417.771900	1	
420.472700	1	
430.213600	1	
452.023700	1	
467.188400	2	
468.194700	1	
471.252300	1	
475.154100	1	
483.223400	1	
486.212600	1	
497.164400	1	
497.235200	757	
497.365500	1	
498.065300	1	
498.153300	1	
498.186900	1	
498.238400	224	
498.379300	1	
499.206000	1	
499.241900	32	
515.172500	1	
515.246100	999	
515.294500	1	
515.363600	1	
516.184900	1	
516.248800	333	
516.313600	1	
516.429500	1	
517.203700	1	
517.251000	44	
