Mass spectrum: ROSUVASTATIN; ESI-QTOF; MS2; CE 18 eV; [M-H]-
Name: Rosuvastatin
Name: (E,3R,5S)-7-[4-(4-fluorophenyl)-2-[methyl(methylsulfonyl)amino]-6-propan-2-ylpyrimidin-5-yl]-3,5-dihydroxyhept-6-enoic acid
Class: Non-Natural Product
Formula: C22H28FN3O6S
Exact mass: 481.16828
SMILES: CC(C)C1=NC(=NC(=C1/C=C/[C@H](C[C@H](CC(=O)O)O)O)C2=CC=C(C=C2)F)N(C)S(=O)(=O)C
InChI: InChI=1S/C22H28FN3O6S/c1-13(2)20-18(10-9-16(27)11-17(28)12-19(29)30)21(14-5-7-15(23)8-6-14)25-22(24-20)26(3)33(4,31)32/h5-10,13,16-17,27-28H,11-12H2,1-4H3,(H,29,30)/b10-9+/t16-,17-/m1/s1
Instrument: Xevo G2 XS QTOF, waters
Instrument type: ESI-QTOF
Ms type: MS2
Ion mode: NEGATIVE
Collision energy: 18eV
Ionization: ESI
Precursor m/z: 480.16100
Precursor type: [M-H]-
m/z	relative intensity	assigned
244.1249	35	C14H15FN3-
270.1404	4	
272.1560	8	
282.1051	5	
283.1240	4	
296.1185	46	C14H20N2O3S-
297.1287	7	
298.1353	231	C17H17FN3O-
311.1189	4	
312.1509	78	C18H19FN3O-
314.1665	65	C18H21FN3O-
318.1602	5	
320.1758	46	C20H22N3O-
322.1022	57	C15H17FN3O2S-
322.1338	23	C16H19FN2O4-
322.1701	4	
323.1552	22	C20H20FN2O-
324.1509	8	
329.1169	4	
338.1665	159	C20H21FN3O-
340.1823	545	C20H23FN3O-
341.1856	4	
348.1178	6	
350.1334	13	
354.1978	4	
360.0936	5	
374.1331	6	
376.1126	104	C18H19FN3O3S-
380.0992	4	
380.1425	4	
392.1440	96	C19H23FN3O3S-
398.1533	74	C21H24N3O3S-
400.1487	7	
402.1282	16	C20H21FN3O3S-
402.1823	19	C21H25FN3O4-
418.1599	999	C21H25FN3O3S-
419.1621	5	
420.1385	14	C20H23FN3O4S-
462.1497	8	
480.0738	4	
480.1600	145	C22H27FN3O6S-
480.2199	6	
480.2394	6	
480.2740	9	
480.3124	10	
480.3536	11	
