Mass spectrum: OLMESARTAN MEDOXOMIL; ESI-QTOF; MS2; CE 25eV; [M-H]-
Name: OLMESARTAN MEDOXOMIL
Class: Non-Natural Product
Formula: C29H30N6O6
Exact mass: 558.22268
SMILES: CCCC1=NC(=C(N1CC2=CC=C(C=C2)C3=CC=CC=C3C4=NNN=N4)C(=O)OCC5=C(OC(=O)O5)C)C(C)(C)O
InChI: InChI=1S/C29H30N6O6/c1-5-8-23-30-25(29(3,4)38)24(27(36)39-16-22-17(2)40-28(37)41-22)35(23)15-18-11-13-19(14-12-18)20-9-6-7-10-21(20)26-31-33-34-32-26/h6-7,9-14,38H,5,8,15-16H2,1-4H3,(H,31,32,33,34)
Instrument: Xevo G2 XS QTOF waters
Instrument type: ESI-QTOF
Ms type: MS2
Ion mode: NEGATIVE
Collision energy: 25eV
Ionization: ESI
Precursor m/z: 557.21538
Precursor type: [M-H]-
m/z	relative intensity	assigned
109.076400	7	
110.024500	1	
125.000100	3	
149.107700	112	
151.087400	7	
153.031600	13	
165.018900	2	
165.070100	4	
165.102400	2	
167.118300	530	
179.085700	3	
183.055500	8	
192.081500	2	
193.097400	8	
194.060000	1	
204.093500	5	
205.101400	5	
207.081500	3	
209.044600	2	
211.107400	3	
217.089700	2	
219.117200	13	
236.102800	4	
245.097800	2	
247.112000	4	
261.104100	1	
263.106000	2	
269.211500	1	
271.227100	1	
273.101800	8	
274.110100	4	
275.117400	2	
285.139000	3	
285.204900	1	
287.154200	7	
293.125200	1	
300.149600	2	
311.155600	1	
313.169300	7	
314.128100	1	
315.160100	16	
327.185300	4	
329.164800	20	
340.183000	1	
343.178700	104	
344.188200	10	
345.196200	6	
353.201000	5	
355.187500	9	
357.062300	1	
358.191600	17	
359.176700	1	
367.217300	2	
368.975800	3	
369.197200	1	
369.231800	2	
371.211700	269	
372.209000	2	
373.062700	1	
373.202100	150	
383.196300	49	
385.227400	1	
387.156600	2	
388.178200	29	
393.071000	2	
395.211800	3	
399.181000	2	
399.215800	2	
400.202100	5	
401.086500	4	
401.208500	999	
402.182100	16	
411.214900	3	
413.074900	2	
413.227100	20	
415.201600	157	
417.055500	1	
417.192000	12	
419.255400	1	
423.165300	1	
423.217800	9	
426.206500	4	
427.187500	44	
437.058400	2	
441.228500	329	
445.198300	305	
457.062300	1	
465.252000	1	
465.283000	2	
465.318800	2	
465.355600	2	
469.234600	1	
483.296000	1	
483.330600	3	
483.366800	4	
483.402000	2	
485.218600	28	
497.077900	1	
511.175700	1	
511.231900	1	
511.293900	1	
513.224500	15	
513.262400	3	
517.084800	1	
529.207700	9	
529.243800	2	
537.088700	2	
539.222300	2	
539.251400	2	
539.280600	2	
539.317600	2	
539.348800	1	
554.261200	21	
557.061700	3	
557.100500	13	
557.214800	332	
557.278800	33	
557.333100	28	
557.364900	20	
557.401900	19	
557.436500	10	
