Mass spectrum: LORATADINE; ESI-QTOF; MS2; CE 25 eV; [M+H]+
Name: LORATADINE
Class: Non-Natural Product
Formula: C22H23ClN2O2
Exact mass: 382.14481
SMILES: CCOC(=O)N(C4)CCC(C4)=C(c21)c(c3)c(cc(Cl)c3)CCc(cccn2)1
InChI: InChI=1S/C22H23ClN2O2/c1-2-27-22(26)25-12-9-15(10-13-25)20-19-8-7-18(23)14-17(19)6-5-16-4-3-11-24-21(16)20/h3-4,7-8,11,14H,2,5-6,9-10,12-13H2,1H3
Instrument: Xevo G2 XS QTOF waters
Instrument type: ESI-QTOF
Ms type: MS2
Ion mode: POSITIVE
Collision energy: 25eV
Ionization: ESI
Precursor m/z: 383.15208
Precursor type: [M+H]+
m/z	relative intensity	assigned
214.042500	4	
216.898100	3	
227.050000	1	
228.058200	13	
229.065400	11	
230.070000	2	
231.104800	3	
232.112300	3	
233.119800	3	
243.104800	5	
244.112100	5	
244.929400	3	
245.120000	5	
246.128000	8	
247.087100	1	
247.134900	4	
248.094800	7	
252.058100	5	
253.065800	12	
254.070800	3	
257.120300	5	
258.128300	37	
259.136300	184	
260.139600	30	
262.939800	2	
265.065700	1	
266.073700	36	
267.081800	295	
268.085500	48	
269.081300	4	
270.056100	11	
271.059300	2	
272.960500	5	
278.073500	3	
279.081600	35	
280.088800	46	
281.097000	120	
282.104000	86	
283.063700	11	
283.107400	11	
284.066800	2	
290.971000	3	
291.231900	1	
292.089200	20	
293.093500	5	
294.105200	148	
295.108200	26	
295.194600	1	
296.102600	2	
300.991700	4	
301.133900	2	
302.141800	22	
303.144900	4	
309.115700	3	
311.131300	8	
312.134500	2	
319.002200	4	
320.084200	3	
322.087100	23	
323.090400	4	
323.225800	1	
335.094800	3	
337.111300	999	
337.163200	9	
338.114100	172	
339.107900	12	
339.162500	32	
340.165700	7	
341.065900	1	
347.033300	4	
348.183400	3	
355.120900	8	
356.124100	2	
375.064300	2	
383.152700	137	
384.155600	30	
385.149900	2	
