Mass spectrum: CYCLOHEXIMIDE; ESI-QTOF; MS2; 25eV; [M+H]+
Name: Cycloheximide
Class: Non-Natural Product
Formula: C15H23NO4
Exact mass: 281.162708
SMILES: C[C@H]1C[C@@H](C(=O)[C@@H](C1)[C@@H](CC2CC(=O)NC(=O)C2)O)C
InChI: InChI=1S/C15H23NO4/c1-8-3-9(2)15(20)11(4-8)12(17)5-10-6-13(18)16-14(19)7-10/h8-12,17H,3-7H2,1-2H3,(H,16,18,19)/t8-,9-,11-,12+/m0/s1
Instrument: Xevo G2 XS QTOF, waters
Instrument type: ESI-QTOF
Ms type: MS2
Ion mode: POSITIVE
Collision energy: 25eV
Ionization: ESI
Precursor m/z: 282.16998
Precursor type: [M+H]+
m/z	relative intensity	assigned
107.086300	20	
114.962100	54	
121.101900	24	
123.081100	37	
125.096800	26	
138.055600	18	
140.071300	19	
143.086200	38	
145.101800	16	
157.101800	111	
159.117400	119	
160.120600	16	
163.112200	15	
165.091600	28	
169.101700	43	
170.098900	17	
173.132900	85	
177.127700	55	
183.117200	63	
185.096600	103	
187.112200	147	
188.113600	22	
189.091500	52	
201.127800	162	
202.130700	25	
203.143200	25	
204.139300	30	
205.122900	186	
206.126000	27	
211.112100	33	
218.154300	74	
219.138400	308	
220.139600	52	
228.138700	63	
229.122800	513	
230.126100	79	
236.164800	26	
237.148900	42	
246.149300	999	
247.134700	884	
248.136800	150	
264.160000	562	
265.146500	263	
266.147400	51	
282.170300	104	
283.173300	22	
