Mass spectrum: TRIMETHOPRIM; ESI-QTOF; MS2; CE 18eV; [M+H]+
Name: TRIMETHOPRIM
Class: Non-Natural Product
Formula: C14H18N4O3
Exact mass: 290.13789
SMILES: COc(c1)c(OC)c(OC)cc(Cc(c2)c(N)nc(N)n2)1
InChI: InChI=1S/C14H18N4O3/c1-19-10-5-8(6-11(20-2)12(10)21-3)4-9-7-17-14(16)18-13(9)15/h5-7H,4H2,1-3H3,(H4,15,16,17,18)
Instrument: Xevo G2 XS QTOF, waters
Instrument type: ESI-QTOF
Ms type: MS2
Ion mode: POSITIVE
Collision energy: 18eV
Ionization: ESI
Precursor m/z: 291.14515
Precursor type: [M+H]+
m/z	relative intensity	assigned
81.045400	12	
109.051700	4	
110.059400	90	
111.066700	23	
120.057500	4	
123.044900	6	
123.067200	321	
124.072200	27	
135.067100	3	
137.060200	6	
148.052500	4	
149.071700	4	
151.039700	13	
161.082800	7	
162.090100	3	
165.055100	3	
174.066500	19	
181.086300	35	
182.089700	4	
186.055400	3	
187.098100	43	
188.100300	6	
191.092800	10	
198.066300	4	
199.098200	5	
200.105700	14	
201.078600	22	
201.113700	96	
202.083400	4	
202.120800	59	
203.124100	6	
213.087800	4	
213.113600	7	
215.093000	21	
216.077400	4	
216.099900	13	
217.108300	16	
218.107800	3	
219.077100	8	
228.077200	4	
228.100600	5	
229.108700	200	
230.116500	999	
231.088000	7	
231.119300	129	
232.095700	39	
232.121900	7	
233.103300	99	
234.106300	12	
243.088000	6	
244.071800	13	
245.103600	119	
246.110300	68	
247.118800	96	
248.121900	13	
257.103500	315	
258.108900	91	
259.083000	27	
259.117000	23	
260.086800	4	
260.125200	8	
261.098500	908	
262.101400	121	
263.103500	8	
274.216500	14	
275.114100	562	
276.117900	105	
277.121200	9	
291.145200	282	
292.148100	47	
292.227200	8	
293.150800	4	
