Mass spectrum: VALSARTAN; ESI-QTOF; MS2; CE 20eV; [M-H]-
Name: VALSARTAN
Class: Non-Natural Product
Formula: C24H29N5O3
Exact mass: 435.22704
SMILES: CCCCC(=O)N(CC1=CC=C(C=C1)C2=CC=CC=C2C3=NNN=N3)[C@@H](C(C)C)C(=O)O
InChI: InChI=1S/C24H29N5O3/c1-4-5-10-21(30)29(22(16(2)3)24(31)32)15-17-11-13-18(14-12-17)19-8-6-7-9-20(19)23-25-27-28-26-23/h6-9,11-14,16,22H,4-5,10,15H2,1-3H3,(H,31,32)(H,25,26,27,28)/t22-/m0/s1
Instrument: Xevo G2 XS QTOF, waters
Instrument type: ESI-QTOF
Ms type: MS2
Ion mode: NEGATIVE
Collision energy: 20eV
Ionization: ESI
Precursor m/z: 434.21974
Precursor type: [M-H]-
m/z	relative intensity	assigned
101.0604	3	
116.0712	62	C5H10NO2-
125.0005	3	
125.0969	3	
141.1281	37	C9H17O-
153.0315	3	
156.1390	62	C9H18NO-
165.0190	3	
165.0703	5	
178.0784	31	C14H10-
178.8419	2	
179.0862	810	C14H11-
180.0899	9	
180.8393	5	
192.0813	141	C14H10N-
193.0653	6	
193.0849	5	
194.0947	3	
195.0449	2	
195.0812	4	
195.1018	5	
200.1287	17	C10H18NO3-
205.1013	4	
206.0853	4	
207.0929	18	C14H11N2-
209.0454	3	
209.0812	3	
211.0970	3	
221.1321	7	
223.0757	6	
234.0901	10	
234.1278	6	
235.0983	122	C14H11N4-
236.1023	6	
244.1695	3	
248.1436	23	C18H18N-
250.1093	8	
250.1583	3	
265.1557	4	
266.1600	2	
276.1493	71	C18H18N3-
277.1480	3	
278.1555	14	C19H20NO-
290.1523	3	
290.7508	2	
294.1493	43	C19H20NO2-
296.2266	4	
297.2425	4	
298.2450	3	
304.1560	284	C18H18N5-
305.1586	4	
307.1445	119	C17H17N5O-
313.2373	3	
314.1962	3	
314.2389	11	
316.2063	12	
322.1556	14	C19H20N3O2-
328.2200	3	
332.1517	3	
332.2013	39	C23H26NO-
334.1667	10	
334.2170	9	
342.2006	3	
342.2263	4	
342.2530	3	
347.2122	6	
350.1615	999	C19H20N5O2-
351.1645	14	
360.2085	4	
360.2374	6	
360.2629	8	
362.2231	40	C23H28N3O-
372.2176	4	
388.2166	4	
390.1989	3	
390.2292	49	C23H28N5O-
391.2020	241	C22H25N5O2-
392.2063	4	
406.2129	8	
407.2164	3	
407.2499	3	
416.1770	3	
416.2087	30	C24H26N5O2-
416.2472	3	
416.9797	3	
433.3444	12	
434.0840	3	
434.1178	4	
434.1471	8	
434.2192	607	C24H28N5O3-
434.2986	27	
434.3476	77	
435.2158	11	
435.2883	3	
