Mass spectrum: RIVAROXABAN; ESI-QTOF; MS2; CE 23eV; [M+H]+
Name: RIVAROXABAN
Class: Non-Natural Product
Formula: C19H18ClN3O5S
Exact mass: 435.06557
SMILES: C1COCC(=O)N1C2=CC=C(C=C2)N3C[C@@H](OC3=O)CNC(=O)C4=CC=C(S4)Cl
InChI: InChI=1S/C19H18ClN3O5S/c20-16-6-5-15(29-16)18(25)21-9-14-10-23(19(26)28-14)13-3-1-12(2-4-13)22-7-8-27-11-17(22)24/h1-6,14H,7-11H2,(H,21,25)/t14-/m0/s1
Instrument: Xevo G2 XS QTOF, waters
Instrument type: ESI-QTOF
Ms type: MS2
Ion mode: POSITIVE
Collision energy: 23eV
Ionization: ESI
Precursor m/z: 436.07284
Precursor type: [M+H]+
m/z	relative intensity	assigned
110.0361	1	
116.9574	8	
118.9718	1	
130.0660	19	C9H8N+
130.9726	2	
131.0726	2	
132.0827	3	
134.0847	2	
138.9557	1	
144.0808	1	
144.9203	1	
144.9523	999	C5H2ClOS+
144.9842	1	
145.0766	1	
145.9560	1	
146.0850	2	
147.0935	1	
148.0757	1	
149.0234	2	
156.9661	1	
157.0794	1	
157.9840	2	
158.0854	1	
159.0927	4	C10H11N2+
161.9789	4	C5H5ClNOS+
162.0325	1	
162.5342	1	
163.0861	1	
171.0919	10	C11H11N2+
172.1005	7	C11H12N2+
173.0718	1	
173.1084	1	
174.0926	1	
177.0785	1	
178.0751	1	
184.0447	2	
184.5457	2	
185.1083	2	
187.0889	1	
187.9948	1	
188.0907	1	
191.0818	2	
192.9937	2	
193.0506	4	C7H12ClNO3+
193.0979	19	C10H13N2O2+
199.9945	16	C8H7ClNOS+
202.1065	1	
203.0820	2	
203.1180	2	
205.0984	56	C11H13N2O2+
206.0588	3	
206.5600	2	
213.1025	1	
215.1067	1	
216.1139	1	
217.0988	2	
218.0057	2	
218.1067	3	C12H14N2O2+
219.0779	3	C11H11N2O3+
219.1141	5	C12H15N2O2+
229.0992	3	
231.0750	1	
231.0897	3	
231.1142	229	C13H15N2O2+
232.1198	1	
233.0701	1	
237.0877	45	C11H13N2O4+
245.0948	1	
246.0919	1	
246.1243	2	
257.0930	1	
259.0925	1	
273.0898	1	
274.1199	23	C14H16N3O3+
275.1047	9	C14H15N2O4+
280.0679	1	
281.1013	1	
290.1122	1	
293.1144	5	C14H17N2O5+
295.1960	2	
296.2022	1	
300.1042	1	
303.1483	1	
312.1686	1	
317.1279	2	
317.1427	1	
318.1097	41	C15H16N3O5+
319.1440	13	
321.1599	4	
323.2250	1	
324.2293	1	
341.0689	1	
347.1743	1	
375.0643	1	
377.1868	1	
385.0957	2	
386.0941	1	
387.0958	1	
390.2320	1	
392.0844	6	C18H19ClN3O3S+
394.0464	1	
395.1146	1	
397.0267	1	
418.0644	1	
429.1156	1	
430.1233	1	
435.2231	1	
435.7805	1	
436.0347	1	
436.0752	37	C19H19ClN3O5S+
436.1104	1	
436.2164	3	
436.2669	2	
437.1968	2	
437.2410	1	
