Mass spectrum: CANDESARTAN CILEXETIL; ESI-QTOF; MS2; CE 20eV; [M-H]-
Name: CANDESARTAN CILEXETIL
Class: Non-Natural Product
Formula: C33H34N6O6
Exact mass: 610.25398
SMILES: CCOC1=NC2=CC=CC(=C2N1CC3=CC=C(C=C3)C4=CC=CC=C4C5=NNN=N5)C(=O)OC(C)OC(=O)OC6CCCCC6
InChI: InChI=1S/C33H34N6O6/c1-3-42-32-34-28-15-9-14-27(31(40)43-21(2)44-33(41)45-24-10-5-4-6-11-24)29(28)39(32)20-22-16-18-23(19-17-22)25-12-7-8-13-26(25)30-35-37-38-36-30/h7-9,12-19,21,24H,3-6,10-11,20H2,1-2H3,(H,35,36,37,38)
Instrument: Xevo G2 XS QTOF, waters
Instrument type: ESI-QTOF
Ms type: MS2
Ion mode: NEGATIVE
Collision energy: 20eV
Ionization: ESI
Precursor m/z: 609.24668
Precursor type: [M-H]-
m/z	relative intensity	assigned
132.032200	8	
133.040300	15	
143.070800	18	
147.019400	3	
160.063600	2	
161.071400	29	
165.018600	4	
165.070500	2	
176.022100	7	
177.029800	7	
188.058200	4	
203.008700	2	
203.045300	2	
205.060900	50	
207.029100	2	
209.044700	2	
223.023800	2	
257.092100	3	
258.099900	14	
259.107800	54	
287.139000	4	
292.099500	10	
293.107400	29	
306.102400	8	
309.102300	234	
310.110000	42	
311.117800	12	
323.104800	2	
324.112900	14	
326.105100	3	
336.089200	5	
337.100600	2	
337.133300	25	
338.104600	4	
338.141200	36	
339.124200	3	
339.148800	5	
351.112600	2	
352.144400	21	
354.099700	53	
357.060400	4	
358.063800	2	
365.134000	5	
367.129900	3	
367.154800	18	
368.102800	2	
375.185300	7	
380.078700	64	
380.114300	31	
382.131000	70	
383.140400	2	
393.136000	5	
393.169900	2	
393.194500	2	
395.161100	9	
396.134000	24	
401.086500	12	
403.191700	41	
411.121400	9	
411.144400	37	
411.175300	5	
421.140800	3	
421.202100	6	
421.223900	2	
431.197700	63	
435.170100	11	
436.178600	799	
437.124600	11	
437.160300	7	
437.183600	7	
439.151800	808	
445.104300	2	
448.200400	4	
449.207700	8	
449.232700	26	
450.180900	10	
455.171000	4	
465.130200	22	
465.166400	74	
465.216100	16	
477.239700	26	
480.168000	107	
481.151600	3	
493.223400	131	
521.105500	3	
521.230300	999	
524.194200	74	
537.213100	17	
537.244100	4	
554.260800	2	
565.219600	226	
581.238800	11	
609.059600	2	
609.123300	16	
609.246100	463	
609.382300	3	
609.432700	2	
609.470600	3	
609.506900	4	
