Mass spectrum: KETOROLAC; ESI-QTOF; MS2; CE 20 eV; [M+H]+
Name: KETOROLAC
Class: Non-Natural Product
Formula: C15H13NO3
Exact mass: 255.08954
SMILES: OC(=O)[C@H](C3)c(c2)n(C3)c(c2)C(=O)c(c1)cccc1
InChI: InChI=1S/C15H13NO3/c17-14(10-4-2-1-3-5-10)13-7-6-12-11(15(18)19)8-9-16(12)13/h1-7,11H,8-9H2,(H,18,19)/t11-/m1/s1
Instrument: Xevo G2 XS QTOF, waters
Instrument type: ESI-QTOF
Ms type: MS2
Ion mode: POSITIVE
Collision energy: 20eV
Ionization: ESI
Column name: ACQUITY UPLC BEH C18 1.7 um x 50 mm
Retention time: 2.66 min
Precursor m/z: 256.09682
Precursor type: [M+H]+
m/z	relative intensity	assigned
71.443700	1	
77.014700	1	
77.025700	1	
77.039300	60	
78.042400	5	
84.085200	1	
102.100000	1	
104.051100	2	
104.070700	1	
104.836500	1	
105.014300	1	
105.034600	999	
105.057400	3	
105.076700	1	
105.148000	1	
105.602500	1	
106.038000	65	
106.049500	1	
106.066300	21	
107.042300	2	
114.004500	1	
118.453300	1	
132.046500	5	
133.051100	1	
134.060700	1	
135.259200	1	
139.043400	1	
146.055600	1	
148.975500	1	
153.904700	1	
156.112100	1	
157.090100	1	
165.064300	1	
165.980100	1	
167.990700	1	
176.388100	1	
178.024100	1	
178.050700	96	
179.031500	1	
179.053500	10	
182.674900	1	
184.187300	1	
187.040800	1	
191.422500	1	
192.083100	1	
192.116400	1	
194.010700	1	
194.123600	1	
197.004200	1	
201.167600	1	
210.092100	22	
210.163100	1	
211.098400	7	
212.047100	1	
214.137100	1	
216.032800	1	
217.981000	1	
218.871100	1	
226.078900	1	
227.098600	1	
228.150800	1	
229.018200	1	
229.074000	1	
237.167500	1	
246.484700	1	
256.098000	44	
258.052300	1	
