Mass spectrum: FLAVOXATE; ESI-QTOF; MS2; CE 23 eV; [M+H]+
Name: FLAVOXATE
Class: Non-Natural Product
Formula: C24H25NO4
Exact mass: 391.17836
SMILES: C(C4)CCN(C4)CCOC(=O)c(c3)c(O1)c(cc3)C(=O)C(C)=C(c(c2)cccc2)1
InChI: InChI=1S/C24H25NO4/c1-17-21(26)19-11-8-12-20(23(19)29-22(17)18-9-4-2-5-10-18)24(27)28-16-15-25-13-6-3-7-14-25/h2,4-5,8-12H,3,6-7,13-16H2,1H3
Instrument: Xevo G2 XS QTOF waters
Instrument type: ESI-QTOF
Ms type: MS2
Ion mode: POSITIVE
Collision energy: 23 eV
Ionization: ESI
Precursor m/z: 392.18563
Precursor type: [M+H]+
m/z	relative intensity	assigned
105.0704	14	C8H9+
112.1128	999	C7H14N+
119.0860	5	C9H11+
131.0021	16	
139.0336	11	
147.0082	64	C8H3O3+
191.0311	5	
198.1268	5	
199.1345	11	C11H19O3+
203.0231	6	
236.1349	6	
250.1505	16	
258.1478	12	
263.0709	590	C17H11O3+
272.1635	27	C17H22NO2+
272.6651	5	
295.1947	12	C20H25NO+
307.0971	591	C19H15O4+
310.1708	6	C24H22+
323.2260	55	
324.2293	6	
341.2370	6	
341.3050	12	
392.1862	407	C24H26NO4+
392.2480	5	
392.2755	4	
