Mass spectrum: 8-CHLOROTHEOPHYLLINE; ESI-QTOF; MS2; CE 30 eV; [M]-
Name: 8-CHLOROTHEOPHYLLINE
Class: Non-Natural Product
Formula: C7H7ClN4O2
Exact mass: 214.026
SMILES: CN1C2=C(C(=O)N(C1=O)C)NC(=N2)Cl
InChI: InChI=1S/C7H7ClN4O2/c1-11-4-3(9-6(8)10-4)5(13)12(2)7(11)14/h1-2H3,(H,9,10)
Instrument: Xevo G2 XS QTOF waters
Instrument type: ESI-QTOF
Ms type: MS2
Ion mode: NEGATIVE
Collision energy: 30eV
Ionization: ESI
Precursor m/z: 213.01846
Precursor type: [M]-
m/z	relative intensity	assigned
100.990600	3	
106.004000	28	
107.011800	50	
108.019200	5	
112.978000	26	
113.984900	1	
117.020300	2	
118.004300	2	
119.011900	12	
120.019300	2	
125.985900	12	
126.993600	4	
128.001600	405	
128.985100	1	
129.003900	8	
133.015000	5	
133.999200	12	
134.022900	46	
135.007000	83	
136.010000	2	
140.973100	67	
141.980400	7	
142.039700	1	
142.988700	58	
143.991300	1	
144.046200	1	
152.996600	1	
153.980900	24	
154.988600	47	
155.996600	769	
156.967700	2	
156.999100	16	
159.991300	1	
161.010000	134	
162.017700	87	
163.024800	12	
168.968000	123	
168.991800	281	
169.971100	3	
169.999100	59	
171.001800	1	
174.007100	3	
178.012700	2	
196.986500	3	
197.994500	999	
198.996700	28	
213.017900	77	
214.020200	3	
