Mass spectrum: L-Methionine sulfone; EI-B; MS; n TMS; RT: 750.13 s
Name: L-Methionine sulfone
Class: Natural Product
Formula: C5H11NO4S
Exact mass: 181.04088
SMILES: NC(CCS(C)(=O)=O)C(O)=O
InChI: InChI=1S/C5H11NO4S/c1-11(9,10)3-2-4(6)5(7)8/h4H,2-3,6H2,1H3,(H,7,8)/t4-/m0/s1
Instrument: GCMS-2010 Plus, Shimadzu
Instrument type: EI-B
Ms type: MS
Ion mode: POSITIVE
Column name: InertCap 5MS/NP 0.25 mmI.D. x 30 m, df=0.25 um
Retention time: 750.13
Derivative type: n TMS
m/z	relative intensity
86.050000	7
87.050000	3
88.000000	1
89.000000	1
90.000000	1
91.000000	1
92.000000	1
92.600000	1
93.600000	2
94.600000	1
96.100000	2
97.000000	1
98.050000	7
99.150000	3
100.100000	34
101.100000	6
102.050000	4
103.050000	6
104.100000	1
105.050000	2
106.100000	1
107.100000	1
108.100000	1
109.100000	1
110.100000	1
111.100000	1
112.100000	9
113.100000	2
114.150000	17
115.100000	9
116.150000	3
117.100000	7
118.100000	1
119.050000	2
120.050000	1
121.000000	1
122.000000	1
123.000000	1
124.000000	1
125.100000	1
126.150000	7
127.150000	5
128.150000	999
129.150000	124
130.100000	54
131.100000	12
132.100000	8
133.100000	17
134.100000	3
135.100000	2
136.100000	2
137.050000	18
138.050000	2
139.100000	2
140.100000	2
141.100000	3
142.150000	2
143.100000	1
144.100000	2
145.150000	1
146.150000	2
147.150000	78
148.150000	12
149.150000	8
150.150000	1
151.100000	1
152.150000	1
153.200000	1
154.200000	1
155.100000	1
156.150000	4
157.150000	2
158.150000	5
159.150000	2
160.150000	1
161.100000	1
162.100000	1
163.150000	1
164.200000	1
165.200000	1
166.200000	1
167.200000	1
168.200000	1
169.200000	1
170.200000	1
171.200000	1
172.150000	1
173.150000	3
174.100000	2
175.100000	1
176.100000	1
177.100000	1
178.100000	1
179.100000	1
180.100000	1
181.100000	1
182.100000	1
183.100000	1
184.100000	1
185.100000	1
186.100000	1
187.100000	1
188.100000	1
189.100000	1
190.100000	1
191.100000	1
192.100000	4
193.100000	1
194.100000	1
195.000000	1
196.000000	2
197.000000	1
198.000000	1
199.000000	1
200.000000	1
201.150000	1
202.150000	142
203.150000	29
204.150000	13
205.100000	2
206.050000	1
207.150000	3
208.100000	314
209.100000	45
210.100000	31
211.050000	5
212.050000	1
213.000000	1
214.000000	1
215.000000	1
216.150000	1
217.100000	1
218.150000	18
219.100000	4
220.150000	3
221.100000	1
222.100000	1
223.100000	1
224.100000	1
225.100000	1
226.100000	1
227.100000	1
228.100000	1
229.100000	1
230.100000	2
231.100000	1
232.100000	1
233.100000	1
234.100000	1
235.100000	1
236.100000	1
237.100000	1
238.100000	1
239.100000	1
240.100000	1
241.100000	1
242.100000	1
243.100000	1
244.100000	1
245.100000	1
246.250000	1
247.200000	1
248.200000	1
249.200000	1
250.200000	1
251.200000	1
252.200000	1
253.200000	1
254.200000	1
255.200000	1
256.200000	1
257.200000	1
258.200000	1
259.200000	1
260.200000	1
262.200000	1
264.200000	1
265.200000	1
266.200000	1
267.200000	1
269.200000	1
270.200000	1
271.200000	1
272.200000	1
273.200000	1
274.200000	1
275.200000	1
277.200000	1
278.200000	1
279.200000	1
280.200000	1
281.100000	1
282.150000	8
283.100000	2
284.150000	1
285.200000	1
286.200000	1
287.200000	1
288.200000	1
289.200000	1
290.200000	1
291.200000	1
292.200000	1
293.200000	1
294.200000	1
295.200000	1
296.200000	1
297.200000	1
298.200000	1
299.200000	1
301.200000	1
302.200000	1
303.200000	1
304.200000	1
305.200000	1
306.200000	1
307.200000	1
308.200000	1
309.200000	1
310.200000	3
311.200000	1
312.200000	1
313.200000	1
314.200000	1
315.200000	1
316.200000	1
318.200000	1
319.200000	1
320.200000	1
321.200000	1
322.200000	1
323.200000	1
324.200000	1
325.200000	3
326.200000	1
327.200000	1
328.200000	1
329.200000	1
330.200000	1
331.200000	1
333.200000	1
334.200000	1
335.200000	1
336.200000	1
337.200000	1
339.200000	1
340.200000	1
341.200000	1
343.200000	1
344.200000	1
345.200000	1
346.200000	1
348.200000	1
349.200000	1
350.200000	1
351.200000	1
352.200000	1
353.200000	1
354.200000	1
355.200000	1
356.200000	1
357.200000	1
358.200000	1
359.200000	1
361.200000	1
362.200000	1
363.200000	1
364.200000	1
365.200000	1
366.200000	1
367.200000	1
368.200000	1
369.200000	1
370.200000	1
372.200000	1
373.200000	1
375.200000	1
378.200000	1
379.200000	1
382.200000	1
383.200000	1
384.200000	1
385.200000	1
386.200000	1
387.200000	1
388.200000	1
389.200000	1
390.200000	1
391.200000	1
392.200000	1
393.200000	1
395.200000	1
396.200000	1
397.200000	1
398.200000	1
399.200000	1
400.200000	1
401.200000	1
402.200000	1
403.200000	1
404.200000	1
405.200000	1
406.200000	1
409.200000	1
410.200000	1
413.200000	1
414.200000	1
416.200000	1
417.200000	1
419.200000	1
420.200000	1
421.200000	1
422.200000	1
423.200000	1
424.200000	1
425.200000	1
426.200000	1
427.200000	1
428.200000	1
429.200000	1
430.200000	1
431.200000	1
432.200000	1
433.200000	1
434.200000	1
435.200000	1
437.200000	1
438.200000	1
439.200000	1
440.200000	1
442.200000	1
443.200000	1
444.200000	1
445.200000	1
446.200000	1
447.200000	1
448.200000	1
449.200000	1
450.200000	1
451.200000	1
452.200000	1
453.200000	1
454.200000	1
455.200000	1
457.200000	1
459.200000	1
461.200000	1
462.200000	1
463.200000	1
464.200000	1
465.200000	1
466.200000	1
468.200000	1
469.200000	1
470.200000	1
471.200000	1
472.200000	1
473.200000	1
474.200000	1
475.200000	1
477.200000	1
478.200000	1
480.200000	1
481.200000	1
483.200000	1
484.200000	1
485.200000	1
486.200000	1
487.200000	1
488.200000	1
492.200000	1
493.200000	1
494.200000	1
495.200000	1
498.200000	1
499.200000	1
