Mass spectrum: DL-Pyroglutamic acid; EI-B; MS; n TMS; RT: 598.73 s
Name: DL-Pyroglutamic acid
Class: Natural Product
Formula: C5H7NO3
Exact mass: 129.04259
SMILES: O=C(C1)NC(C1)C(O)=O
InChI: InChI=1S/C5H7NO3/c7-4-2-1-3(6-4)5(8)9/h3H,1-2H2,(H,6,7)(H,8,9)
Instrument: GCMS-2010 Plus, Shimadzu
Instrument type: EI-B
Ms type: MS
Ion mode: POSITIVE
Column name: InertCap 5MS/NP 0.25 mmI.D. x 30 m, df=0.25 um
Retention time: 598.73
Derivative type: n TMS
m/z	relative intensity
86.000000	9
87.000000	3
88.050000	1
89.050000	1
90.000000	1
91.000000	1
91.600000	1
92.650000	1
93.600000	7
94.550000	1
96.050000	1
97.050000	1
98.050000	3
99.050000	4
100.050000	8
101.050000	2
102.050000	2
103.000000	3
104.000000	1
105.050000	1
105.600000	1
106.650000	1
107.600000	4
108.550000	1
110.100000	1
111.050000	1
112.100000	7
113.100000	3
114.100000	2
115.050000	3
116.050000	1
117.050000	6
118.000000	1
119.050000	2
120.000000	1
120.600000	1
121.600000	18
122.550000	2
124.150000	1
125.100000	1
126.050000	1
127.100000	2
128.100000	2
129.050000	3
130.150000	1
131.050000	12
132.100000	3
133.050000	21
134.050000	3
135.050000	2
136.100000	1
137.100000	1
138.100000	1
139.050000	1
140.100000	17
141.100000	4
142.100000	3
143.100000	1
144.100000	1
145.100000	1
146.150000	1
147.100000	165
148.150000	25
149.100000	14
150.100000	2
151.100000	1
152.100000	1
153.100000	1
154.100000	6
155.150000	7
156.100000	999
157.100000	127
158.100000	43
159.100000	3
160.100000	1
161.050000	1
162.000000	1
163.000000	1
164.000000	1
165.000000	1
166.000000	1
167.000000	1
168.000000	1
169.000000	1
170.050000	1
171.100000	1
172.100000	1
173.050000	1
174.050000	2
175.150000	1
176.100000	1
177.100000	1
178.100000	1
179.100000	1
180.100000	1
181.100000	1
182.100000	1
183.050000	1
183.950000	1
185.000000	1
186.050000	1
187.100000	1
188.100000	1
189.000000	1
190.050000	1
191.000000	1
192.000000	1
193.000000	1
194.000000	1
195.000000	1
196.000000	1
197.000000	1
198.000000	1
199.000000	1
200.000000	1
201.000000	1
202.000000	1
203.000000	1
204.000000	1
205.000000	1
206.000000	1
207.000000	1
208.000000	1
209.000000	1
210.000000	1
211.000000	1
212.000000	1
213.150000	1
214.050000	11
215.050000	2
216.050000	1
217.100000	1
218.100000	1
219.100000	1
220.100000	1
221.100000	1
223.100000	1
224.100000	1
226.100000	1
227.100000	1
228.100000	4
229.150000	2
230.050000	89
231.100000	17
232.050000	8
233.100000	1
234.100000	1
235.100000	1
236.100000	1
237.100000	1
238.100000	1
239.100000	1
240.100000	1
241.100000	1
242.100000	1
243.100000	1
244.100000	1
245.100000	1
246.100000	1
247.100000	1
248.100000	1
250.100000	1
251.100000	1
252.100000	1
253.100000	1
254.100000	1
255.100000	1
256.100000	1
257.150000	1
258.100000	101
259.050000	21
260.050000	9
261.050000	1
262.100000	1
263.100000	1
264.100000	1
265.100000	1
266.100000	1
267.100000	1
268.100000	1
269.100000	1
270.100000	1
271.100000	1
272.200000	1
273.200000	3
274.100000	1
275.100000	1
276.100000	1
277.100000	1
279.100000	1
280.100000	1
281.100000	1
282.100000	1
283.100000	1
284.100000	1
285.100000	1
286.100000	1
287.100000	1
288.100000	1
290.100000	1
292.100000	1
293.100000	1
294.100000	1
295.100000	1
296.100000	1
297.100000	1
298.100000	1
299.100000	1
301.100000	1
302.100000	1
303.100000	1
304.100000	1
306.100000	1
307.100000	1
308.100000	1
309.100000	1
310.100000	1
311.100000	1
312.100000	1
313.100000	1
314.100000	1
315.100000	1
316.100000	1
317.100000	1
318.100000	1
319.100000	1
320.100000	1
321.100000	1
322.100000	1
323.100000	1
324.100000	1
327.100000	1
328.100000	1
329.100000	1
330.100000	1
331.100000	1
332.100000	1
333.100000	1
334.100000	1
335.100000	1
336.100000	1
337.100000	1
340.100000	1
341.100000	1
342.100000	1
344.100000	1
345.100000	1
346.100000	1
347.150000	1
348.200000	1
349.200000	1
350.200000	1
351.200000	1
354.200000	1
355.200000	1
358.200000	1
359.200000	1
360.200000	1
362.200000	1
363.200000	1
364.200000	1
367.200000	1
368.200000	1
369.200000	1
370.200000	1
371.200000	1
372.200000	1
373.200000	1
374.200000	1
375.200000	1
376.200000	1
377.200000	1
378.200000	1
379.200000	1
381.200000	1
382.200000	1
384.200000	1
385.200000	1
387.200000	1
388.200000	1
389.200000	1
390.200000	1
391.200000	1
392.200000	1
393.200000	1
394.200000	1
395.200000	1
397.200000	1
398.200000	1
400.200000	1
401.200000	1
403.200000	1
404.200000	1
405.200000	1
406.200000	1
407.200000	1
408.200000	1
409.200000	1
410.200000	1
411.200000	1
412.200000	1
413.200000	1
415.200000	1
417.200000	1
418.200000	1
419.200000	1
420.200000	1
421.200000	1
422.200000	1
423.200000	1
424.200000	1
426.200000	1
427.200000	1
428.200000	1
429.200000	1
431.200000	1
432.200000	1
433.200000	1
434.200000	1
435.200000	1
436.200000	1
437.200000	1
438.200000	1
439.200000	1
440.200000	1
441.200000	1
442.200000	1
443.200000	1
444.200000	1
446.200000	1
447.200000	1
448.200000	1
450.200000	1
452.200000	1
453.200000	1
454.200000	1
457.200000	1
460.200000	1
461.200000	1
462.200000	1
464.200000	1
465.200000	1
466.200000	1
467.200000	1
468.200000	1
470.200000	1
471.200000	1
473.200000	1
474.200000	1
476.200000	1
477.200000	1
478.200000	1
479.200000	1
482.200000	1
483.200000	1
484.200000	1
485.200000	1
486.200000	1
487.200000	1
488.200000	1
490.200000	1
491.200000	1
492.200000	1
493.200000	1
494.200000	1
495.200000	1
496.200000	1
497.200000	1
498.200000	1
499.200000	1
