Mass spectrum: GABA; EI-B; MS; 3 TMS; RT: 602.93 s
Name: GABA
Name: 4-Aminobutyric acid
Class: Natural Product
Formula: C4H9NO2
Exact mass: 103.06333
SMILES: NCCCC(O)=O
InChI: InChI=1S/C4H9NO2/c5-3-1-2-4(6)7/h1-3,5H2,(H,6,7)
Instrument: GCMS-2010 Plus, Shimadzu
Instrument type: EI-B
Ms type: MS
Ion mode: POSITIVE
Column name: InertCap 5MS/NP 0.25 mmI.D. x 30 m, df=0.25 um
Retention time: 602.93
Derivative type: 3 TMS
m/z	relative intensity
86.050000	171
87.050000	19
88.050000	7
89.050000	4
90.000000	1
91.150000	1
92.100000	1
93.100000	1
94.100000	1
95.100000	1
96.100000	1
97.100000	1
98.050000	5
99.100000	9
100.100000	96
101.050000	13
102.100000	11
103.100000	4
104.150000	1
105.050000	1
106.100000	1
107.100000	1
108.100000	1
109.100000	1
110.100000	1
111.050000	1
112.100000	5
113.100000	4
114.100000	14
115.100000	8
116.100000	9
117.100000	16
118.100000	3
119.100000	4
120.100000	1
121.100000	1
122.100000	1
123.100000	1
124.050000	1
125.000000	1
126.100000	1
127.150000	1
128.100000	8
129.100000	6
130.100000	28
131.100000	25
132.100000	8
133.100000	32
134.100000	5
135.100000	3
135.700000	1
136.750000	1
137.700000	1
138.700000	1
140.150000	10
141.150000	2
142.100000	42
143.100000	49
144.250000	18
145.250000	7
146.150000	15
147.150000	331
148.150000	52
149.150000	27
150.150000	3
151.150000	1
152.100000	1
153.100000	1
154.050000	1
155.100000	1
156.150000	12
157.150000	5
158.100000	9
159.100000	2
160.100000	3
161.150000	2
162.150000	1
163.100000	1
164.100000	1
165.100000	1
166.100000	1
167.100000	1
168.100000	1
169.100000	1
170.100000	2
171.150000	1
172.150000	32
173.150000	9
174.150000	999
175.100000	168
176.100000	74
177.100000	9
178.100000	2
179.100000	1
180.100000	1
181.100000	1
182.100000	1
183.100000	1
184.100000	1
185.100000	1
186.150000	2
187.100000	3
188.100000	2
189.100000	1
190.000000	1
191.000000	1
192.000000	1
193.000000	1
194.000000	1
195.000000	1
196.000000	1
197.000000	1
198.000000	1
199.000000	1
200.100000	2
201.100000	1
202.100000	1
203.100000	1
204.100000	3
205.100000	2
206.050000	1
207.000000	1
208.000000	1
209.000000	1
210.000000	1
211.000000	1
212.000000	1
213.100000	1
214.100000	14
215.150000	3
216.100000	54
217.100000	10
218.050000	5
219.100000	8
220.050000	2
221.100000	2
222.100000	1
223.100000	1
224.100000	1
225.100000	1
226.100000	1
227.100000	1
228.150000	1
229.100000	1
230.100000	8
231.050000	2
232.100000	2
233.100000	1
234.100000	1
235.100000	1
236.100000	1
237.100000	1
238.100000	1
239.100000	1
240.100000	1
241.100000	1
242.100000	1
243.100000	1
244.100000	1
245.150000	1
246.150000	48
247.100000	10
248.100000	5
249.100000	1
250.100000	1
251.100000	1
252.100000	1
253.100000	1
254.100000	1
255.100000	1
256.100000	1
257.100000	1
258.100000	1
259.100000	1
260.100000	1
261.100000	1
262.100000	1
264.100000	1
265.100000	1
266.100000	1
267.100000	1
268.100000	1
269.100000	1
270.100000	1
271.100000	1
272.100000	1
273.100000	1
274.100000	1
275.100000	1
276.100000	1
277.100000	1
278.100000	1
279.100000	1
280.100000	1
281.100000	1
282.100000	1
284.100000	1
285.100000	1
286.100000	1
287.200000	1
288.200000	3
289.200000	1
290.200000	1
291.200000	1
292.200000	1
293.200000	1
295.200000	1
296.200000	1
297.200000	1
298.200000	1
299.200000	1
300.200000	1
302.200000	1
303.250000	2
304.200000	245
305.150000	71
306.150000	34
307.150000	7
308.100000	2
309.100000	1
310.100000	1
311.100000	1
312.100000	1
315.100000	1
316.100000	1
317.100000	1
318.100000	1
319.200000	1
320.200000	1
321.200000	1
322.200000	1
324.200000	1
325.200000	1
326.200000	1
327.200000	1
328.200000	1
330.200000	1
331.200000	1
332.200000	1
333.200000	1
334.200000	1
335.200000	1
336.200000	1
338.200000	1
339.200000	1
340.200000	1
341.200000	1
343.200000	1
344.200000	1
345.200000	1
346.200000	1
347.200000	1
348.200000	1
350.200000	1
351.200000	1
352.200000	1
353.200000	1
354.200000	1
355.200000	1
359.200000	1
360.200000	1
363.200000	1
364.200000	1
365.200000	1
366.200000	1
367.200000	1
369.200000	1
370.200000	1
371.200000	1
373.200000	1
374.200000	1
375.200000	1
376.200000	1
377.200000	1
378.200000	1
379.200000	1
382.200000	1
383.200000	1
384.200000	1
385.200000	1
386.200000	1
387.200000	1
388.200000	1
389.200000	1
390.200000	1
391.200000	1
392.200000	1
393.200000	1
394.200000	1
395.200000	1
396.200000	1
397.200000	1
398.200000	1
400.200000	1
402.200000	1
403.200000	1
405.200000	1
406.200000	1
407.200000	1
408.200000	1
409.200000	1
410.200000	1
412.200000	1
413.200000	1
414.200000	1
416.200000	1
417.200000	1
418.200000	1
419.200000	1
420.200000	1
421.200000	1
422.200000	1
424.200000	1
425.200000	1
428.200000	1
430.200000	1
431.200000	1
432.200000	1
434.200000	1
435.200000	1
436.200000	1
437.200000	1
438.200000	1
439.200000	1
440.200000	1
442.200000	1
443.200000	1
444.200000	1
445.200000	1
446.200000	1
447.200000	1
448.200000	1
450.200000	1
452.200000	1
453.200000	1
454.200000	1
455.200000	1
457.200000	1
458.200000	1
459.200000	1
460.200000	1
461.200000	1
462.200000	1
463.200000	1
464.200000	1
465.200000	1
466.200000	1
467.200000	1
468.200000	1
472.200000	1
473.200000	1
474.200000	1
475.200000	1
476.200000	1
477.200000	1
478.200000	1
479.200000	1
482.200000	1
483.200000	1
484.200000	1
485.200000	1
486.200000	1
487.200000	1
488.200000	1
489.200000	1
490.200000	1
491.200000	1
492.200000	1
493.200000	1
495.200000	1
496.200000	1
497.200000	1
498.200000	1
499.200000	1
