Mass spectrum: 3-Hydroxypyruvic acid; EI-B; MS; n TMS; RT: 489.32 s
Name: 3-Hydroxypyruvic acid
Name: 3-Hydroxypyruvate
Class: Natural Product
Formula: C3H4O4
Exact mass: 104.01096
SMILES: OCC(=O)C(O)=O
InChI: InChI=1S/C3H4O4/c4-1-2(5)3(6)7/h4H,1H2,(H,6,7)
Instrument: GCMS-2010 Plus, Shimadzu
Instrument type: EI-B
Ms type: MS
Ion mode: POSITIVE
Column name: InertCap 5MS/NP 0.25 mmI.D. x 30 m, df=0.25 um
Retention time: 489.32
Derivative type: n TMS
m/z	relative intensity
86.050000	40
87.050000	23
88.100000	22
89.050000	505
90.050000	39
91.000000	17
92.000000	2
93.000000	2
94.000000	5
95.000000	2
96.000000	1
97.000000	2
98.100000	16
99.150000	9
100.050000	114
101.050000	18
102.100000	30
103.100000	205
104.100000	21
105.100000	23
106.100000	3
107.100000	3
108.100000	2
109.100000	1
110.100000	1
111.100000	1
112.100000	1
113.150000	9
114.100000	686
115.100000	84
116.050000	30
117.050000	28
118.100000	4
119.050000	38
120.100000	3
121.100000	2
122.100000	1
123.550000	27
124.600000	2
125.600000	1
126.600000	1
128.100000	61
129.100000	11
130.100000	18
131.050000	72
132.100000	13
133.100000	94
134.100000	14
135.100000	8
136.100000	1
137.100000	1
138.100000	1
140.100000	1
141.100000	1
142.100000	8
143.100000	4
144.100000	5
145.100000	2
146.100000	5
147.150000	999
148.150000	159
149.150000	81
150.100000	9
151.100000	1
152.100000	1
153.100000	1
154.100000	4
155.100000	1
156.100000	8
157.100000	11
158.100000	33
159.150000	10
160.100000	16
161.100000	3
162.100000	2
163.100000	81
164.100000	12
165.100000	6
166.100000	1
167.100000	1
168.100000	1
169.100000	1
170.100000	1
171.100000	2
172.150000	74
173.100000	18
174.100000	11
175.100000	1
176.100000	2
177.050000	36
178.100000	8
179.100000	4
181.100000	1
182.100000	1
183.100000	1
184.100000	1
185.100000	1
186.100000	111
187.100000	36
188.100000	44
189.100000	10
190.100000	6
191.100000	42
192.100000	7
193.100000	3
194.100000	2
195.100000	1
196.100000	1
197.100000	1
198.100000	1
199.100000	1
200.100000	2
201.100000	58
202.100000	16
203.100000	7
204.050000	20
205.100000	2
206.100000	2
207.100000	5
208.100000	2
209.100000	1
210.100000	1
211.100000	1
212.100000	1
213.100000	1
214.100000	1
215.100000	2
216.100000	7
217.100000	1
218.000000	1
219.000000	19
220.000000	4
221.000000	1
223.000000	1
224.000000	1
228.000000	1
229.000000	1
230.000000	3
231.000000	6
232.000000	3
233.000000	1
234.100000	15
235.100000	4
236.100000	1
237.100000	1
238.100000	1
239.100000	1
240.100000	1
241.100000	1
242.100000	1
243.100000	1
244.100000	1
245.100000	1
246.150000	100
247.150000	20
248.200000	8
249.200000	3
250.200000	1
251.200000	1
252.200000	1
253.200000	5
254.200000	3
255.200000	1
257.200000	1
258.200000	1
259.200000	1
260.200000	1
261.100000	1
262.100000	740
263.100000	155
264.100000	66
265.150000	9
266.200000	2
267.200000	1
268.200000	1
269.200000	1
270.200000	1
271.200000	1
272.200000	1
273.200000	1
274.200000	1
275.200000	1
276.200000	1
277.200000	2
278.200000	1
279.200000	1
280.200000	1
281.200000	1
282.200000	1
283.200000	1
284.200000	1
285.200000	1
286.200000	1
287.200000	1
288.200000	1
289.200000	1
290.200000	1
292.200000	1
293.200000	1
294.200000	1
295.200000	1
296.200000	1
297.200000	1
298.200000	1
299.200000	1
301.200000	1
302.200000	1
303.200000	1
305.200000	1
306.200000	1
308.200000	1
309.200000	1
310.200000	1
311.200000	1
312.200000	1
313.200000	1
314.200000	1
315.200000	1
316.200000	1
317.200000	1
318.200000	1
319.200000	1
320.200000	1
321.200000	1
323.200000	1
324.200000	1
325.200000	1
326.200000	1
327.200000	2
328.200000	1
329.200000	1
330.200000	1
331.200000	2
332.200000	1
333.200000	1
334.200000	1
336.200000	1
337.200000	1
338.200000	1
339.200000	1
340.200000	1
341.200000	1
342.200000	1
343.200000	1
345.200000	1
346.200000	1
347.200000	1
348.200000	1
349.200000	1
350.200000	1
351.200000	1
352.200000	1
353.200000	1
354.200000	1
356.200000	1
357.200000	1
358.200000	1
359.200000	1
360.200000	1
361.200000	1
363.200000	1
364.200000	1
365.200000	1
366.200000	1
367.200000	1
368.200000	1
369.200000	1
370.200000	1
371.200000	1
372.200000	1
374.200000	1
375.200000	1
376.200000	1
380.200000	1
381.200000	1
382.200000	1
383.200000	1
384.200000	1
385.200000	1
386.200000	1
387.200000	1
388.200000	1
389.200000	1
390.200000	1
391.200000	1
392.200000	1
395.200000	1
396.200000	1
397.200000	1
398.200000	1
399.200000	1
400.200000	1
401.200000	1
403.200000	1
404.200000	1
406.200000	1
407.200000	1
408.200000	1
409.200000	1
410.200000	1
411.200000	1
412.200000	1
413.200000	1
414.200000	1
415.200000	1
416.200000	1
417.200000	1
418.200000	1
419.200000	1
421.200000	1
422.200000	1
423.200000	1
424.200000	1
425.200000	1
426.200000	1
427.200000	1
428.200000	1
429.200000	1
430.200000	1
431.200000	1
432.200000	1
433.200000	1
434.200000	1
435.200000	1
436.200000	1
437.200000	1
438.200000	1
439.200000	1
440.200000	1
441.200000	1
442.200000	1
443.200000	1
444.200000	1
445.200000	1
446.200000	1
450.200000	1
451.200000	1
455.200000	1
456.200000	1
459.200000	1
460.200000	1
461.200000	1
462.200000	1
463.200000	1
464.200000	1
465.200000	1
466.200000	1
467.200000	1
468.200000	1
470.200000	1
471.200000	1
472.200000	1
473.200000	1
475.200000	1
476.200000	1
477.200000	1
478.200000	1
481.200000	1
487.200000	1
488.200000	1
489.200000	1
490.200000	1
491.200000	1
492.200000	1
495.200000	1
496.200000	1
497.200000	1
499.200000	1
