Mass spectrum: 3-Phenylpropionic acid; EI-B; MS; 1 TMS; RT: 538.10 s
Name: 3-Phenylpropionic acid
Name: Hydrocinnamate
Class: Natural Product
Formula: C9H10O2
Exact mass: 150.06808
SMILES: OC(=O)CCc(c1)cccc1
InChI: InChI=1S/C9H10O2/c10-9(11)7-6-8-4-2-1-3-5-8/h1-5H,6-7H2,(H,10,11)
Instrument: GCMS-2010 Plus, Shimadzu
Instrument type: EI-B
Ms type: MS
Ion mode: POSITIVE
Column name: InertCap 5MS/NP 0.25 mmI.D. x 30 m, df=0.25 um
Retention time: 538.10
Derivative type: 1 TMS
m/z	relative intensity
86.050000	1
87.050000	2
88.050000	4
89.050000	14
90.150000	4
91.050000	205
92.100000	16
93.050000	1
94.100000	1
95.100000	1
96.100000	1
97.100000	1
98.100000	1
99.100000	1
100.050000	1
101.050000	6
102.050000	6
103.150000	48
104.100000	999
105.100000	115
106.100000	6
107.100000	1
108.100000	1
109.100000	1
110.100000	1
111.100000	1
112.100000	1
113.100000	1
114.100000	1
115.100000	11
116.100000	8
117.050000	2
118.100000	1
119.100000	1
120.000000	1
121.000000	1
122.000000	1
123.000000	1
124.000000	1
125.000000	1
126.000000	1
127.000000	1
128.150000	1
129.100000	11
130.150000	2
131.100000	28
132.100000	47
133.100000	7
134.150000	1
135.100000	12
136.050000	1
137.100000	2
138.100000	1
139.100000	1
140.100000	1
141.100000	1
142.100000	1
143.100000	1
144.100000	1
145.100000	4
146.100000	1
147.100000	6
148.100000	1
149.150000	2
150.100000	1
151.100000	1
152.100000	1
153.100000	1
154.100000	1
155.100000	1
156.100000	1
157.100000	1
158.100000	1
159.100000	1
160.100000	1
161.100000	4
162.150000	4
163.100000	9
164.150000	2
165.100000	2
166.100000	1
167.100000	1
168.100000	1
169.100000	1
170.100000	1
171.100000	1
172.100000	1
173.100000	1
174.100000	1
175.100000	1
176.100000	1
177.100000	1
178.100000	1
179.100000	1
180.100000	1
181.100000	1
182.100000	1
183.100000	1
184.100000	1
185.100000	1
186.100000	1
187.100000	1
188.150000	1
189.050000	27
190.050000	5
191.050000	3
192.100000	1
193.100000	1
194.100000	1
195.100000	1
196.100000	1
197.100000	1
198.100000	1
199.100000	1
201.100000	1
202.100000	1
203.100000	1
204.100000	1
205.050000	15
206.150000	10
207.100000	312
208.100000	55
209.050000	16
210.050000	2
211.100000	1
212.100000	1
213.100000	1
214.100000	1
215.100000	1
216.100000	1
217.100000	1
218.100000	1
219.100000	1
220.100000	1
221.150000	2
222.100000	206
223.100000	38
224.100000	11
225.100000	1
226.100000	1
227.100000	1
228.100000	1
229.100000	1
230.100000	1
231.100000	1
232.100000	1
234.100000	1
235.100000	1
237.100000	1
239.100000	1
240.100000	1
241.100000	1
243.100000	1
244.100000	1
246.100000	1
247.100000	1
248.100000	1
249.100000	1
250.100000	1
251.100000	1
252.100000	1
253.100000	1
254.100000	1
255.100000	1
256.100000	1
257.100000	1
258.100000	1
259.100000	1
260.100000	1
262.100000	1
263.100000	1
264.100000	1
265.100000	1
266.100000	1
267.100000	1
268.100000	1
269.100000	1
270.100000	1
271.100000	1
272.100000	1
273.100000	1
274.100000	1
275.100000	1
276.100000	1
277.100000	1
278.100000	1
279.100000	1
280.100000	1
281.100000	1
282.100000	1
283.100000	1
284.100000	1
285.100000	1
286.100000	1
288.100000	1
289.100000	1
290.100000	1
291.100000	1
292.100000	1
293.100000	1
294.100000	1
295.100000	1
296.100000	1
297.100000	1
298.100000	1
299.100000	1
300.100000	1
302.100000	1
303.100000	1
304.100000	1
306.100000	1
307.100000	1
308.100000	1
309.100000	1
310.100000	1
311.100000	1
312.100000	1
313.100000	1
314.100000	1
315.100000	1
316.100000	1
317.100000	1
318.100000	1
319.100000	1
320.100000	1
321.100000	1
322.100000	1
323.100000	1
324.100000	1
325.100000	1
326.100000	1
327.100000	1
328.100000	1
329.100000	1
330.100000	1
331.100000	1
332.100000	1
333.100000	1
334.100000	1
335.100000	1
336.100000	1
337.100000	1
338.100000	1
339.100000	1
341.100000	1
342.100000	1
343.100000	1
344.100000	1
345.100000	1
346.100000	1
347.100000	1
348.100000	1
350.100000	1
353.100000	1
354.100000	1
355.100000	1
356.100000	1
357.100000	1
358.100000	1
359.100000	1
361.100000	1
362.100000	1
363.100000	1
364.100000	1
365.100000	1
366.100000	1
367.100000	1
368.100000	1
371.100000	1
372.100000	1
373.100000	1
374.100000	1
376.100000	1
377.100000	1
378.100000	1
379.100000	1
380.100000	1
381.100000	1
382.100000	1
383.100000	1
384.100000	1
385.100000	1
387.100000	1
388.100000	1
389.100000	1
390.100000	1
391.100000	1
392.100000	1
393.100000	1
396.100000	1
397.100000	1
398.100000	1
399.100000	1
400.100000	1
401.100000	1
402.100000	1
403.100000	1
404.100000	1
405.100000	1
406.100000	1
407.100000	1
408.100000	1
410.100000	1
412.100000	1
414.100000	1
415.100000	1
416.100000	1
417.100000	1
418.100000	1
419.100000	1
421.100000	1
422.100000	1
424.100000	1
425.100000	1
426.100000	1
427.100000	1
429.100000	1
432.100000	1
433.100000	1
436.100000	1
437.100000	1
438.100000	1
439.100000	1
440.100000	1
441.100000	1
442.100000	1
443.100000	1
445.100000	1
446.100000	1
447.100000	1
448.100000	1
449.100000	1
450.100000	1
451.100000	1
453.100000	1
454.100000	1
456.100000	1
457.100000	1
458.100000	1
459.100000	1
460.100000	1
462.100000	1
463.100000	1
464.100000	1
465.100000	1
466.100000	1
467.100000	1
468.100000	1
470.100000	1
471.100000	1
472.100000	1
473.100000	1
474.100000	1
475.100000	1
476.100000	1
477.100000	1
479.100000	1
480.100000	1
482.100000	1
483.100000	1
484.100000	1
485.100000	1
486.100000	1
487.100000	1
488.100000	1
489.100000	1
490.100000	1
491.100000	1
492.100000	1
493.100000	1
494.100000	1
496.100000	1
497.100000	1
