Mass spectrum: DL-Homocysteine; EI-B; MS; 3 TMS; RT: 671.64 s
Name: DL-Homocysteine
Class: Natural Product
Formula: C4H9NO2S
Exact mass: 135.03540
SMILES: SCCC(N)C(O)=O
InChI: InChI=1S/C4H9NO2S/c5-3(1-2-8)4(6)7/h3,8H,1-2,5H2,(H,6,7)
Instrument: GCMS-2010 Plus, Shimadzu
Instrument type: EI-B
Ms type: MS
Ion mode: POSITIVE
Column name: InertCap 5MS/NP 0.25 mmI.D. x 30 m, df=0.25 um
Retention time: 671.64
Derivative type: 3 TMS
m/z	relative intensity
86.050000	12
87.050000	5
88.050000	2
89.000000	2
90.000000	4
91.000000	13
92.000000	1
93.000000	2
94.000000	1
95.000000	1
96.050000	2
97.050000	3
98.050000	11
99.150000	5
100.100000	135
101.100000	28
102.050000	15
103.050000	13
104.050000	2
105.000000	6
106.000000	1
107.000000	1
108.000000	1
109.000000	1
110.000000	1
111.100000	1
112.100000	16
113.100000	6
114.100000	50
115.100000	17
116.100000	6
117.100000	15
118.150000	7
119.050000	193
120.050000	22
121.050000	16
122.100000	1
123.100000	1
124.100000	1
125.100000	1
126.100000	14
127.150000	8
128.100000	892
129.100000	126
130.100000	53
131.100000	19
132.050000	17
133.100000	36
134.100000	6
135.050000	5
136.000000	1
137.000000	1
138.000000	1
139.000000	1
140.050000	2
141.100000	1
142.100000	1
143.100000	1
144.100000	6
145.100000	2
146.150000	10
147.100000	166
148.100000	29
149.100000	19
150.100000	2
151.100000	1
152.100000	1
153.100000	1
154.100000	1
155.100000	1
156.050000	4
157.050000	2
158.050000	4
159.100000	4
160.050000	8
161.100000	4
162.100000	11
163.050000	10
164.100000	3
165.050000	3
166.100000	1
167.100000	1
168.100000	1
169.100000	1
170.100000	1
171.100000	1
172.050000	16
173.100000	8
174.050000	8
175.000000	2
176.000000	2
177.000000	1
178.000000	1
179.100000	3
180.100000	1
181.100000	1
182.100000	1
183.100000	1
184.100000	1
185.000000	1
186.000000	4
187.100000	1
188.100000	8
189.050000	4
190.100000	3
191.050000	3
192.100000	2
193.100000	1
194.100000	1
195.100000	1
196.100000	1
197.100000	1
198.100000	1
199.000000	1
200.050000	5
201.150000	2
202.050000	72
203.100000	18
204.050000	7
205.000000	2
206.000000	1
207.000000	5
208.000000	1
209.000000	1
210.000000	1
211.000000	1
212.000000	1
213.000000	1
214.000000	1
215.000000	1
216.100000	4
217.150000	2
218.050000	74
219.050000	156
220.050000	33
221.050000	14
222.000000	2
223.000000	1
224.000000	1
225.000000	1
226.000000	1
227.000000	1
228.000000	1
229.150000	1
230.100000	32
231.100000	7
232.100000	29
233.150000	13
234.100000	999
235.100000	193
236.100000	122
237.050000	19
238.050000	5
239.100000	1
240.100000	1
241.100000	1
242.100000	1
243.100000	1
244.100000	1
245.100000	22
246.100000	25
247.050000	6
248.050000	3
249.000000	1
250.000000	1
251.000000	1
252.000000	1
253.000000	1
254.000000	1
255.000000	1
256.000000	1
257.000000	1
258.000000	1
259.000000	1
260.100000	1
261.100000	48
262.050000	12
263.100000	7
264.100000	3
265.100000	1
266.100000	1
267.100000	1
268.100000	1
269.100000	1
270.100000	1
271.100000	1
272.100000	1
273.100000	1
274.100000	1
275.100000	1
276.100000	1
277.100000	1
278.100000	1
279.050000	2
280.100000	1
281.100000	1
282.100000	1
283.100000	1
284.100000	1
285.100000	1
286.100000	1
287.100000	1
288.100000	1
289.100000	1
290.100000	1
291.100000	1
292.100000	1
293.100000	1
294.100000	1
295.100000	1
296.100000	1
298.100000	1
299.100000	1
300.100000	1
301.100000	1
302.100000	1
303.100000	1
304.100000	1
305.100000	1
306.100000	1
307.100000	1
308.100000	51
309.100000	15
310.100000	10
311.100000	3
312.100000	1
313.100000	1
314.100000	1
315.100000	1
316.100000	1
318.100000	1
319.100000	1
320.100000	1
321.100000	1
322.100000	1
323.100000	1
324.100000	1
325.100000	1
327.100000	1
328.100000	1
329.100000	1
330.100000	1
331.100000	1
332.100000	1
333.100000	1
334.100000	1
335.100000	1
336.100000	7
337.000000	2
338.050000	2
339.100000	1
340.100000	1
341.100000	1
342.100000	1
343.100000	1
345.100000	1
350.100000	1
351.100000	101
352.100000	35
353.100000	19
354.050000	5
355.100000	1
356.100000	1
357.100000	1
358.100000	1
359.100000	1
360.100000	1
361.100000	1
362.100000	1
363.100000	1
364.100000	1
367.100000	1
368.100000	1
369.100000	1
370.100000	1
371.100000	1
373.100000	1
374.100000	1
375.100000	1
376.100000	1
377.100000	1
379.100000	1
380.100000	1
382.100000	1
383.100000	1
384.100000	1
385.100000	1
386.100000	1
387.100000	1
388.100000	1
389.100000	1
390.100000	1
392.100000	1
394.100000	1
395.100000	1
397.100000	1
399.100000	1
400.100000	1
401.100000	1
402.100000	1
403.100000	1
404.100000	1
405.100000	1
406.100000	1
407.100000	1
408.100000	1
410.100000	1
412.100000	1
413.100000	1
414.100000	1
415.100000	1
417.100000	1
420.100000	1
422.100000	1
423.100000	1
424.100000	1
425.100000	1
426.100000	1
427.100000	1
428.100000	1
429.100000	1
430.100000	1
431.100000	1
432.100000	1
433.100000	1
434.100000	1
437.100000	1
438.100000	1
439.100000	1
440.100000	1
441.100000	1
442.100000	1
443.100000	1
445.100000	1
447.100000	1
448.100000	1
449.100000	1
450.100000	1
451.100000	1
452.100000	1
453.100000	1
454.100000	1
455.100000	1
456.100000	1
457.100000	1
458.100000	1
459.100000	1
460.100000	1
461.100000	1
462.100000	1
464.100000	1
466.100000	1
467.100000	1
468.100000	1
472.100000	1
475.100000	1
476.100000	1
477.100000	1
478.100000	1
479.100000	1
480.100000	1
481.100000	1
482.100000	1
483.100000	1
485.100000	1
486.100000	1
487.100000	1
488.100000	1
489.100000	1
490.100000	1
492.100000	1
493.100000	1
496.100000	1
497.100000	1
