Mass spectrum: 4-HydroxyMandelic acid; EI-B; MS; 3 TMS; RT: 726.11 s
Name: 4-HydroxyMandelic acid
Name: 4-HydroxyMandelate
Class: Natural Product
Formula: C8H8O4
Exact mass: 168.04226
SMILES: Oc(c1)ccc(c1)[C@H](O)C(O)=O
InChI: InChI=1S/C8H8O4/c9-6-3-1-5(2-4-6)7(10)8(11)12/h1-4,7,9-10H,(H,11,12)/t7-/m0/s1
Instrument: GCMS-2010 Plus, Shimadzu
Instrument type: EI-B
Ms type: MS
Ion mode: POSITIVE
Column name: InertCap 5MS/NP 0.25 mmI.D. x 30 m, df=0.25 um
Retention time: 726.11
Derivative type: 3 TMS
m/z	relative intensity
86.100000	1
87.050000	1
88.100000	1
89.050000	3
90.050000	1
91.050000	7
92.100000	1
93.100000	1
94.100000	1
95.050000	3
96.100000	1
97.100000	1
98.100000	1
99.100000	1
100.100000	1
101.100000	1
102.050000	1
103.050000	3
104.100000	3
105.100000	5
106.100000	1
107.100000	1
108.100000	1
109.050000	1
110.100000	1
111.100000	1
112.100000	1
113.100000	1
114.100000	1
115.100000	2
116.100000	1
117.100000	4
118.100000	1
119.050000	3
120.150000	1
121.100000	2
122.100000	1
123.050000	1
124.100000	1
125.100000	1
126.100000	1
127.100000	1
128.100000	1
129.100000	1
130.100000	1
131.100000	10
132.150000	2
133.100000	24
134.100000	3
135.100000	9
136.100000	1
137.100000	1
138.100000	1
139.100000	1
140.100000	1
141.100000	1
142.100000	1
143.100000	1
144.100000	1
145.100000	1
146.150000	1
147.150000	100
148.150000	16
149.150000	11
150.150000	2
151.100000	7
152.100000	1
153.100000	1
154.100000	1
155.100000	1
156.100000	1
157.100000	1
158.100000	1
159.100000	1
160.100000	1
161.100000	6
162.150000	2
163.100000	13
164.100000	2
165.100000	2
166.100000	1
167.100000	1
168.100000	1
170.100000	1
171.100000	1
172.100000	1
173.100000	1
174.100000	1
175.100000	1
176.100000	1
177.100000	10
178.100000	7
179.100000	13
180.050000	2
181.100000	2
182.100000	1
183.100000	1
184.100000	1
185.100000	1
186.100000	1
187.100000	1
188.100000	1
189.100000	1
190.100000	1
191.100000	5
192.150000	5
193.100000	60
194.100000	10
195.050000	4
196.100000	1
197.100000	1
198.100000	1
199.100000	1
201.100000	1
202.100000	1
203.100000	1
204.100000	1
205.100000	1
206.100000	3
207.050000	3
208.150000	1
209.100000	3
210.100000	1
211.100000	1
212.100000	1
213.100000	1
214.100000	1
215.100000	1
216.100000	1
217.100000	1
218.100000	1
219.100000	1
220.100000	1
221.100000	2
222.100000	1
223.150000	4
224.050000	1
225.100000	1
226.100000	1
227.100000	1
228.100000	1
229.100000	1
230.100000	1
231.100000	1
232.100000	1
233.100000	1
234.100000	1
235.100000	2
236.100000	2
237.100000	11
238.100000	3
239.100000	1
240.100000	1
241.100000	1
242.100000	1
243.100000	1
244.100000	1
245.100000	1
246.100000	1
247.100000	1
248.100000	1
249.200000	1
250.150000	1
251.150000	17
252.150000	7
253.100000	4
254.150000	1
255.200000	1
256.200000	1
257.200000	1
258.200000	1
259.200000	1
260.200000	1
261.200000	1
262.200000	1
263.200000	1
264.200000	1
265.200000	11
266.250000	11
267.200000	999
268.200000	235
269.200000	91
270.150000	15
271.150000	3
272.100000	1
273.100000	1
274.100000	1
275.100000	1
276.100000	1
277.100000	1
278.100000	1
279.100000	1
280.150000	1
281.100000	1
282.100000	1
283.100000	1
284.100000	1
285.100000	1
286.100000	1
287.100000	1
288.100000	1
289.100000	1
290.100000	1
291.100000	1
292.100000	1
293.100000	1
294.100000	1
295.200000	2
296.150000	1
297.200000	1
298.200000	1
299.200000	1
300.200000	1
301.200000	1
302.200000	1
303.200000	1
304.200000	1
305.200000	1
307.200000	1
308.200000	1
309.200000	1
310.200000	1
311.200000	1
312.200000	1
313.200000	1
314.200000	1
315.200000	1
316.200000	1
317.200000	1
318.200000	1
320.200000	1
322.200000	1
323.200000	1
324.200000	1
325.200000	1
326.200000	1
327.200000	1
328.200000	1
329.200000	1
330.200000	1
331.200000	1
336.200000	1
337.200000	1
338.200000	1
339.200000	1
340.250000	1
341.200000	80
342.200000	27
343.200000	12
344.150000	2
345.150000	1
346.100000	1
347.100000	1
349.100000	1
350.100000	1
351.100000	1
352.100000	1
353.100000	1
354.100000	1
355.100000	1
356.100000	1
357.100000	1
358.100000	1
359.100000	1
360.100000	1
361.100000	1
363.100000	1
364.100000	1
366.100000	1
367.100000	1
368.200000	1
369.200000	17
370.200000	6
371.200000	2
372.150000	1
373.200000	1
374.200000	1
375.200000	1
376.200000	1
377.200000	1
378.200000	1
379.200000	1
380.200000	1
381.200000	1
382.200000	1
383.200000	1
384.200000	1
385.200000	1
386.200000	1
387.200000	1
388.200000	1
389.200000	1
390.200000	1
391.200000	1
392.200000	1
393.200000	1
395.200000	1
396.200000	1
397.200000	1
398.200000	1
400.200000	1
401.200000	1
403.200000	1
404.200000	1
406.200000	1
407.200000	1
408.200000	1
409.200000	1
410.200000	1
411.200000	1
412.200000	1
413.200000	1
415.200000	1
416.200000	1
417.200000	1
418.200000	1
419.200000	1
420.200000	1
421.200000	1
422.200000	1
424.200000	1
425.200000	1
426.200000	1
428.200000	1
429.200000	1
430.200000	1
431.200000	1
432.200000	1
433.200000	1
434.200000	1
435.200000	1
436.200000	1
437.200000	1
438.200000	1
439.200000	1
440.200000	1
442.200000	1
443.200000	1
444.200000	1
446.200000	1
449.200000	1
450.200000	1
452.200000	1
454.200000	1
456.200000	1
457.200000	1
459.200000	1
460.200000	1
461.200000	1
462.200000	1
464.200000	1
465.200000	1
466.200000	1
468.200000	1
469.200000	1
470.200000	1
471.200000	1
472.200000	1
473.200000	1
474.200000	1
475.200000	1
476.200000	1
477.200000	1
478.200000	1
479.200000	1
480.200000	1
481.200000	1
483.200000	1
484.200000	1
485.200000	1
487.200000	1
488.200000	1
489.200000	1
491.200000	1
492.200000	1
493.200000	1
494.200000	1
495.200000	1
496.200000	1
497.200000	1
498.200000	1
499.200000	1
