Mass spectrum: L-(+)-Lysine; EI-B; MS; 4 TMS; RT: 791.61 s
Name: L-(+)-Lysine
Class: Natural Product
Formula: C6H14N2O2
Exact mass: 146.10553
SMILES: NCCCC[C@H](N)C(O)=O
InChI: InChI=1S/C6H14N2O2/c7-4-2-1-3-5(8)6(9)10/h5H,1-4,7-8H2,(H,9,10)/t5-/m0/s1
Instrument: GCMS-2010 Plus, Shimadzu
Instrument type: EI-B
Ms type: MS
Ion mode: POSITIVE
Column name: InertCap 5MS/NP 0.25 mmI.D. x 30 m, df=0.25 um
Retention time: 791.61
Derivative type: 4 TMS
m/z	relative intensity
86.050000	140
87.050000	17
88.100000	69
89.100000	6
90.100000	5
91.100000	1
92.100000	1
93.100000	1
94.100000	6
95.100000	1
96.050000	1
97.100000	3
98.100000	10
99.150000	9
100.100000	139
101.100000	18
102.100000	47
103.050000	14
104.050000	3
105.100000	1
106.100000	1
107.100000	1
108.100000	1
109.100000	1
110.100000	3
111.050000	2
112.100000	40
113.100000	10
114.100000	41
115.100000	39
116.150000	17
117.100000	25
118.050000	5
119.100000	5
120.100000	1
121.100000	1
122.100000	1
123.150000	1
124.100000	4
125.150000	2
126.150000	19
127.150000	5
128.150000	265
129.150000	38
130.100000	57
131.100000	35
132.100000	23
133.100000	34
134.050000	6
135.100000	3
136.100000	1
137.100000	1
138.100000	4
139.250000	3
140.150000	49
141.150000	9
142.150000	27
143.150000	8
144.150000	7
145.150000	3
146.150000	40
147.150000	134
148.150000	25
149.150000	13
150.200000	3
151.200000	18
152.150000	4
153.250000	1
154.200000	56
155.250000	32
156.200000	999
157.200000	139
158.200000	51
159.200000	8
160.150000	17
161.150000	5
162.150000	4
163.150000	2
164.150000	4
165.250000	1
166.150000	14
167.150000	7
168.100000	8
169.150000	3
170.150000	7
171.150000	2
172.150000	28
173.250000	13
174.150000	952
175.150000	150
176.150000	75
177.150000	9
178.150000	2
179.200000	1
180.200000	1
181.150000	1
182.150000	3
183.150000	2
184.150000	6
185.100000	2
186.100000	20
187.150000	7
188.100000	9
189.150000	7
190.150000	4
191.100000	22
192.100000	4
193.100000	2
194.100000	1
195.100000	1
196.100000	1
197.100000	1
198.150000	3
199.150000	2
200.150000	100
201.150000	21
202.150000	35
203.100000	8
204.050000	5
205.150000	2
206.100000	1
207.100000	1
208.100000	1
209.100000	1
210.100000	1
211.100000	1
212.150000	7
213.150000	9
214.150000	37
215.150000	18
216.150000	17
217.150000	11
218.100000	45
219.100000	17
220.100000	9
221.100000	4
222.100000	1
223.100000	1
224.100000	1
225.100000	1
226.200000	2
227.250000	3
228.200000	107
229.150000	29
230.150000	287
231.150000	60
232.150000	31
233.150000	5
234.150000	1
235.100000	1
236.100000	1
237.100000	1
238.100000	1
239.200000	5
240.200000	9
241.150000	3
242.200000	3
243.250000	5
244.150000	7
245.150000	2
246.150000	3
247.100000	1
248.200000	2
249.200000	1
250.200000	1
251.200000	1
252.200000	1
253.200000	1
254.150000	1
255.200000	8
256.200000	6
257.200000	3
258.150000	9
259.200000	2
260.200000	6
261.150000	1
262.200000	1
263.200000	1
264.200000	1
266.200000	1
267.200000	1
268.200000	1
269.200000	1
270.200000	1
271.200000	2
272.200000	16
273.250000	22
274.200000	10
275.150000	3
276.200000	1
277.200000	1
278.200000	1
279.200000	1
280.200000	1
281.200000	1
282.200000	1
283.200000	1
284.200000	1
285.200000	1
286.200000	1
287.200000	1
288.200000	1
289.200000	1
290.200000	1
291.200000	1
292.200000	1
293.200000	1
294.200000	1
295.200000	1
296.200000	1
297.200000	1
298.200000	1
299.200000	1
300.200000	1
301.250000	3
302.250000	4
303.250000	3
304.200000	4
305.200000	1
306.200000	1
307.200000	1
308.200000	1
309.200000	1
311.200000	1
312.200000	1
313.300000	1
314.300000	1
315.300000	1
316.350000	5
317.300000	427
318.250000	129
319.250000	59
320.250000	13
321.150000	3
322.200000	1
323.200000	1
326.200000	1
327.250000	2
328.350000	1
329.250000	46
330.250000	17
331.250000	9
332.250000	2
333.200000	1
334.200000	1
335.200000	1
336.200000	1
337.200000	1
338.200000	1
340.200000	1
341.200000	1
342.200000	1
343.200000	1
344.200000	1
345.200000	1
346.200000	1
347.200000	1
348.200000	1
349.200000	1
350.200000	1
351.200000	1
352.200000	1
353.200000	1
354.200000	1
355.200000	1
356.200000	1
357.200000	1
358.200000	1
359.200000	1
360.200000	1
361.200000	1
362.300000	2
363.300000	1
364.300000	1
365.300000	1
366.300000	1
367.300000	1
368.300000	1
369.300000	1
370.300000	1
371.300000	1
372.300000	1
373.300000	1
374.300000	1
375.300000	1
376.300000	1
377.300000	1
379.300000	1
380.300000	1
381.300000	1
382.300000	1
383.300000	1
384.300000	1
385.300000	1
386.300000	1
388.300000	1
389.300000	1
390.300000	1
391.300000	7
392.300000	3
393.300000	2
394.300000	1
395.300000	1
396.300000	1
397.300000	1
398.300000	1
400.300000	1
401.300000	1
402.300000	1
403.300000	1
404.300000	1
405.300000	1
406.300000	1
407.300000	1
408.300000	1
409.300000	1
411.300000	1
412.300000	1
414.300000	1
415.300000	1
416.300000	1
417.300000	1
418.300000	1
419.300000	15
420.250000	7
421.250000	3
422.250000	1
423.200000	1
424.200000	1
425.200000	1
426.200000	1
427.200000	1
428.200000	1
429.200000	1
431.200000	1
432.200000	1
433.350000	1
434.350000	70
435.300000	30
436.300000	16
437.300000	4
438.350000	1
439.400000	1
440.400000	1
441.400000	1
442.400000	1
443.400000	1
445.400000	1
446.400000	1
447.400000	1
449.400000	1
450.400000	1
452.400000	1
453.400000	1
455.400000	1
456.400000	1
457.400000	1
458.400000	1
460.400000	1
461.400000	1
462.400000	1
463.400000	1
464.400000	1
465.400000	1
466.400000	1
467.400000	1
468.400000	1
469.400000	1
470.400000	1
471.400000	1
473.400000	1
476.400000	1
477.400000	1
478.400000	1
479.400000	1
480.400000	1
481.400000	1
482.400000	1
484.400000	1
485.400000	1
486.400000	1
487.400000	1
488.400000	1
490.400000	1
491.400000	1
492.400000	1
494.400000	1
495.400000	1
497.400000	1
499.400000	1
