Mass spectrum: 2-Oxobutyric acid; EI-B; MS; n TMS; RT: 457.05 s
Name: 2-Oxobutyric acid
Name: 2-Oxobutyrate
Class: Natural Product
Formula: C4H6O3
Exact mass: 102.03169
SMILES: CCC(=O)C(O)=O
InChI: InChI=1S/C4H6O3/c1-2-3(5)4(6)7/h2H2,1H3,(H,6,7)
Instrument: GCMS-2010 Plus, Shimadzu
Instrument type: EI-B
Ms type: MS
Ion mode: POSITIVE
Column name: InertCap 5MS/NP 0.25 mmI.D. x 30 m, df=0.25 um
Retention time: 457.05
Derivative type: n TMS
m/z	relative intensity
86.100000	38
87.050000	42
88.000000	7
89.050000	272
90.000000	26
91.000000	23
92.000000	5
93.000000	2
94.000000	4
95.000000	1
96.000000	18
97.000000	8
98.000000	15
99.000000	13
100.050000	100
101.050000	652
102.100000	82
103.100000	51
104.100000	7
105.100000	31
106.100000	1
107.100000	5
108.100000	2
109.100000	1
110.100000	3
111.100000	2
112.000000	37
113.000000	4
114.100000	36
115.100000	14
116.100000	89
117.100000	999
118.100000	112
119.100000	47
120.100000	5
121.100000	2
122.100000	2
123.100000	4
125.100000	2
126.100000	7
127.100000	8
128.100000	270
129.100000	27
130.100000	20
131.100000	75
132.100000	10
133.100000	89
134.100000	13
135.100000	4
136.100000	2
137.100000	2
140.100000	2
141.100000	5
142.100000	15
143.100000	4
144.100000	15
145.100000	34
146.100000	9
147.150000	950
148.150000	143
149.100000	80
150.100000	6
151.100000	4
152.100000	2
153.100000	2
154.100000	3
155.100000	2
156.100000	8
157.100000	22
158.150000	39
159.100000	6
160.100000	1
161.100000	4
162.100000	4
163.100000	50
164.100000	6
165.100000	7
166.100000	3
168.100000	3
169.100000	1
170.100000	6
171.100000	3
172.050000	71
173.100000	15
174.100000	201
175.100000	37
176.100000	16
177.100000	5
178.100000	1
179.100000	3
181.100000	3
182.100000	3
183.100000	1
184.100000	1
185.100000	1
186.000000	41
187.000000	9
188.000000	11
189.000000	1
190.100000	6
191.050000	357
192.050000	53
193.000000	27
194.000000	7
195.000000	4
196.000000	1
198.000000	4
199.000000	1
200.000000	12
201.000000	10
202.000000	4
203.000000	3
204.050000	74
205.100000	15
206.000000	7
207.000000	67
208.000000	17
209.000000	4
210.000000	1
212.000000	3
213.000000	4
214.000000	1
215.000000	20
216.100000	62
217.100000	20
218.100000	11
219.100000	17
220.100000	4
221.100000	4
222.100000	2
223.100000	2
224.100000	2
225.100000	1
226.100000	1
227.100000	2
228.100000	4
229.100000	2
230.100000	5
231.100000	3
232.100000	4
233.100000	1
234.100000	3
235.100000	3
236.100000	2
237.100000	2
239.100000	2
240.100000	1
241.100000	1
242.100000	1
243.100000	1
244.100000	24
245.100000	14
246.100000	2
247.100000	1
248.100000	93
249.100000	24
250.100000	13
251.100000	4
252.100000	1
253.100000	16
254.100000	4
255.100000	4
256.100000	1
257.100000	1
258.100000	4
259.100000	2
260.100000	144
261.100000	39
262.100000	12
263.100000	5
264.100000	6
265.100000	8
266.100000	1
267.100000	4
268.100000	3
269.100000	1
270.100000	4
271.100000	1
272.100000	1
273.100000	2
274.100000	1
275.100000	4
276.100000	299
277.000000	56
278.050000	29
279.000000	2
280.000000	1
281.000000	7
282.000000	6
283.000000	5
284.000000	2
285.000000	2
286.000000	1
287.000000	1
288.000000	2
289.000000	3
290.000000	2
291.000000	2
292.000000	2
293.000000	1
295.000000	2
296.000000	2
297.000000	1
298.000000	2
299.000000	1
300.000000	2
301.000000	2
302.000000	3
303.000000	3
304.000000	1
305.000000	2
306.000000	1
307.000000	2
308.000000	1
310.000000	2
311.000000	1
313.000000	2
314.000000	3
315.000000	2
316.000000	2
317.000000	2
320.000000	4
321.000000	1
322.000000	1
323.000000	1
324.000000	3
325.000000	1
326.000000	3
327.000000	3
328.000000	1
330.000000	3
331.000000	8
332.000000	3
333.000000	1
334.000000	1
335.000000	1
336.000000	1
337.000000	1
339.000000	3
340.000000	1
341.000000	1
342.000000	2
343.000000	1
344.000000	2
345.000000	1
346.000000	1
347.000000	3
348.000000	3
349.000000	1
350.000000	3
351.000000	1
352.000000	1
353.000000	1
354.000000	3
355.000000	1
356.000000	1
357.000000	1
358.000000	1
359.000000	2
360.000000	1
361.000000	1
362.000000	1
363.000000	2
364.000000	2
365.000000	2
366.000000	2
368.000000	1
370.000000	1
372.000000	2
374.000000	1
375.000000	1
377.000000	1
378.000000	1
379.000000	3
380.000000	3
383.000000	1
384.000000	2
385.000000	1
386.000000	1
387.000000	3
388.000000	1
389.000000	2
390.000000	2
392.000000	1
393.000000	1
394.000000	2
395.000000	1
396.000000	2
397.000000	1
398.000000	4
399.000000	2
400.000000	2
401.000000	1
402.000000	1
403.000000	2
404.000000	1
405.000000	3
406.000000	1
407.000000	2
408.000000	3
409.000000	3
410.000000	4
411.000000	1
412.000000	3
413.000000	1
414.000000	3
416.000000	1
417.000000	1
418.000000	3
419.000000	2
420.000000	3
421.000000	3
422.000000	1
423.000000	1
424.000000	3
426.000000	1
428.000000	3
429.000000	3
430.000000	3
432.000000	1
433.000000	3
434.000000	2
435.000000	4
436.000000	2
437.000000	1
438.000000	1
439.000000	3
440.000000	2
441.000000	1
442.000000	1
443.000000	1
444.000000	3
445.000000	1
446.000000	1
447.000000	3
448.000000	1
449.000000	1
450.000000	3
451.000000	2
452.000000	2
453.000000	1
454.000000	1
455.000000	3
456.000000	1
460.000000	2
461.000000	1
462.000000	1
463.000000	1
464.000000	2
466.000000	2
467.000000	3
468.000000	1
469.000000	1
470.000000	1
471.000000	3
472.000000	1
473.000000	1
475.000000	1
478.000000	3
479.000000	1
480.000000	3
481.000000	3
482.000000	4
485.000000	4
486.000000	2
487.000000	2
488.000000	3
489.000000	2
490.000000	1
491.000000	1
492.000000	1
494.000000	3
495.000000	2
496.000000	1
498.000000	1
