Mass spectrum: L-Cysteine; EI-B; MS; 4 TMS; RT: 941.58 s
Name: L-Cysteine
Class: Natural Product
Formula: C3H7NO2S
Exact mass: 121.01975
SMILES: N[C@@H](CS)C(O)=O
InChI: InChI=1S/C3H7NO2S/c4-2(1-7)3(5)6/h2,7H,1,4H2,(H,5,6)/t2-/m0/s1
Instrument: GCMS-2010 Plus, Shimadzu
Instrument type: EI-B
Ms type: MS
Ion mode: POSITIVE
Column name: InertCap 5MS/NP 0.25 mmI.D. x 30 m, df=0.25 um
Retention time: 941.58
Derivative type: 4 TMS
m/z	relative intensity
86.100000	16
87.050000	9
88.000000	3
89.000000	3
90.000000	4
91.000000	7
92.000000	1
93.000000	1
94.000000	1
95.000000	1
96.000000	4
97.000000	1
98.000000	6
99.150000	6
100.100000	288
101.050000	42
102.100000	22
103.050000	15
104.000000	2
105.050000	7
106.100000	2
107.100000	1
108.100000	1
109.100000	1
110.100000	1
111.100000	1
112.100000	1
113.100000	3
114.100000	39
115.150000	82
116.100000	40
117.100000	16
118.100000	6
119.100000	5
120.050000	15
121.100000	2
122.100000	1
123.100000	1
124.100000	1
125.100000	1
126.100000	1
127.100000	1
128.100000	5
129.100000	23
130.100000	22
131.100000	44
132.050000	54
133.100000	37
134.100000	9
135.100000	4
136.100000	1
137.100000	1
138.100000	1
139.100000	1
140.100000	1
141.100000	1
142.100000	3
143.100000	1
144.100000	14
145.150000	9
146.100000	598
147.150000	301
148.100000	158
149.100000	35
150.150000	10
151.100000	2
152.100000	1
153.100000	1
155.100000	1
156.100000	1
157.100000	1
158.100000	4
159.100000	8
160.150000	10
161.100000	5
162.100000	3
163.150000	14
164.100000	2
165.100000	2
166.100000	1
167.100000	1
168.100000	1
169.100000	1
170.100000	1
171.100000	1
172.100000	15
173.100000	3
174.100000	14
175.100000	3
176.100000	6
177.000000	1
178.050000	25
179.050000	7
180.050000	7
181.000000	1
182.000000	1
183.000000	1
184.000000	2
185.000000	1
186.000000	1
187.000000	1
188.100000	38
189.100000	6
190.100000	6
191.100000	4
192.100000	1
193.100000	1
194.100000	3
195.100000	1
196.100000	1
197.100000	1
198.100000	3
199.100000	2
200.100000	3
201.100000	1
202.100000	8
203.050000	12
204.050000	10
205.100000	3
206.000000	2
207.050000	14
208.000000	4
209.000000	2
210.000000	1
211.000000	1
212.000000	1
213.000000	1
214.000000	1
215.100000	1
216.100000	61
217.150000	24
218.100000	999
219.100000	191
220.100000	129
221.100000	25
222.100000	10
223.100000	3
224.100000	2
225.100000	1
226.100000	1
227.100000	1
228.100000	1
229.100000	1
230.100000	2
231.250000	9
232.150000	155
233.150000	35
234.150000	16
235.100000	3
236.100000	1
237.100000	1
238.100000	1
239.100000	1
240.100000	1
241.100000	1
242.100000	1
243.100000	1
245.100000	1
246.100000	3
247.100000	2
248.100000	14
249.050000	23
250.100000	14
251.100000	6
252.100000	3
253.100000	2
254.100000	2
255.100000	1
256.100000	1
258.100000	1
259.100000	1
260.100000	23
261.100000	6
262.150000	9
263.150000	6
264.150000	123
265.150000	72
266.150000	319
267.100000	70
268.100000	39
269.100000	8
270.100000	2
271.100000	1
272.100000	1
273.100000	1
274.100000	1
275.100000	1
276.100000	1
277.100000	1
278.100000	1
279.100000	1
280.100000	1
281.100000	3
282.100000	3
283.100000	1
284.100000	1
285.100000	1
286.100000	1
287.100000	1
288.100000	42
289.150000	27
290.100000	11
291.150000	12
292.200000	8
293.200000	3
294.200000	5
295.100000	2
296.100000	41
297.100000	104
298.100000	26
299.100000	17
300.100000	5
301.100000	1
302.100000	1
303.100000	1
304.100000	1
305.100000	1
306.100000	1
307.100000	1
308.100000	1
309.100000	1
310.100000	1
311.100000	1
312.100000	1
313.100000	1
314.100000	1
315.100000	1
316.100000	1
317.100000	1
318.100000	1
319.100000	1
320.100000	1
321.100000	4
322.150000	17
323.100000	5
324.100000	4
325.100000	1
326.100000	1
327.100000	1
328.100000	1
329.100000	1
330.100000	1
331.100000	1
332.100000	1
333.100000	1
334.100000	1
335.100000	1
336.100000	1
337.100000	1
338.150000	28
339.150000	13
340.100000	5
341.100000	3
342.100000	1
343.100000	1
344.100000	1
346.100000	1
347.100000	1
348.100000	1
349.100000	1
350.100000	1
351.100000	1
352.100000	1
353.100000	1
354.100000	1
355.100000	1
356.100000	1
357.100000	1
358.100000	1
359.100000	1
360.100000	1
361.100000	1
362.100000	1
363.100000	1
364.100000	1
365.100000	1
367.100000	1
368.100000	1
369.100000	1
370.100000	1
372.100000	1
373.100000	1
374.100000	1
375.100000	1
376.100000	1
377.100000	1
378.100000	1
379.100000	1
380.100000	1
381.100000	1
383.100000	1
384.100000	1
386.100000	1
388.100000	1
389.100000	1
392.100000	1
393.100000	1
394.100000	1
395.100000	1
396.100000	1
398.100000	1
399.100000	1
401.100000	1
402.100000	1
403.100000	1
404.100000	1
405.100000	1
406.100000	1
407.100000	1
408.100000	1
409.100000	1
410.250000	7
411.150000	221
412.200000	75
413.150000	55
414.200000	14
415.200000	5
416.200000	2
417.200000	1
418.200000	1
419.200000	1
422.200000	1
423.200000	2
424.200000	1
425.200000	1
426.200000	1
427.200000	1
428.200000	1
429.200000	1
430.200000	1
432.200000	1
435.200000	1
437.200000	1
438.200000	1
439.200000	1
440.200000	1
441.200000	1
442.200000	1
443.200000	1
444.200000	1
447.200000	1
449.200000	1
450.200000	1
451.200000	1
452.200000	1
453.200000	1
454.200000	1
457.200000	1
458.200000	1
459.200000	1
460.200000	1
461.200000	1
463.200000	1
464.200000	1
465.200000	1
466.200000	1
467.200000	1
468.200000	1
469.200000	1
471.200000	1
472.200000	1
474.200000	1
475.200000	1
477.200000	1
478.200000	1
479.200000	1
480.200000	1
481.200000	1
482.200000	1
483.200000	1
484.200000	1
485.200000	1
486.200000	1
487.200000	1
488.200000	1
489.200000	1
493.200000	1
494.200000	1
496.200000	1
497.200000	1
498.200000	1
