Mass spectrum: Suberic acid; EI-B; MS; 2 TMS; RT: 682.90 s
Name: Suberic acid
Name: Cork acid
Class: Natural Product
Formula: C8H14O4
Exact mass: 174.08921
SMILES: OC(=O)CCCCCCC(O)=O
InChI: InChI=1S/C8H14O4/c9-7(10)5-3-1-2-4-6-8(11)12/h1-6H2,(H,9,10)(H,11,12)
Instrument: GCMS-2010 Plus, Shimadzu
Instrument type: EI-B
Ms type: MS
Ion mode: POSITIVE
Column name: InertCap 5MS/NP 0.25 mmI.D. x 30 m, df=0.25 um
Retention time: 682.90
Derivative type: 2 TMS
m/z	relative intensity
86.050000	64
87.050000	26
88.000000	24
89.050000	57
90.000000	9
91.050000	60
92.050000	11
93.050000	439
94.050000	41
95.100000	511
96.050000	56
97.050000	534
98.050000	39
99.050000	78
100.050000	11
101.000000	44
102.000000	10
103.050000	64
104.000000	5
105.000000	14
106.000000	3
107.000000	5
108.100000	2
109.100000	259
110.100000	149
111.100000	204
112.100000	20
113.050000	26
114.100000	4
115.050000	26
116.000000	102
117.050000	620
118.050000	66
119.050000	49
120.150000	9
121.050000	198
122.100000	17
123.100000	4
124.100000	1
125.100000	7
126.100000	2
127.100000	19
128.000000	7
129.050000	605
130.050000	81
131.050000	85
132.050000	70
133.050000	132
134.050000	21
135.000000	20
136.000000	4
137.100000	41
138.050000	464
139.100000	615
140.100000	59
141.100000	30
142.050000	19
143.050000	80
144.100000	44
145.050000	84
146.150000	10
147.050000	579
148.050000	94
149.050000	747
150.050000	102
151.050000	67
152.000000	5
153.000000	4
154.000000	3
155.100000	55
156.050000	19
157.050000	45
158.100000	15
159.100000	23
160.100000	5
161.100000	4
162.100000	7
163.100000	10
164.100000	2
165.100000	3
166.100000	2
167.100000	8
168.150000	10
169.100000	999
170.050000	157
171.050000	158
172.050000	32
173.050000	21
174.050000	25
175.000000	6
176.000000	2
177.000000	4
178.000000	2
179.000000	3
180.000000	1
181.000000	1
182.000000	6
183.000000	13
184.000000	32
185.000000	169
186.050000	66
187.050000	873
188.000000	143
189.000000	58
190.000000	8
191.000000	77
191.950000	12
192.900000	6
193.900000	2
194.900000	5
195.900000	2
196.900000	2
197.900000	1
198.900000	8
200.050000	70
201.050000	18
202.000000	6
203.000000	31
204.000000	269
205.000000	58
206.000000	26
207.000000	7
208.000000	2
209.000000	1
210.050000	11
211.000000	134
212.000000	21
213.000000	232
214.000000	38
214.950000	13
216.000000	3
217.000000	285
218.000000	67
219.000000	30
220.000000	3
221.000000	1
222.000000	1
223.000000	1
224.000000	1
225.000000	2
226.000000	1
227.000000	4
228.000000	42
229.050000	30
230.000000	8
231.000000	26
232.000000	8
233.000000	2
234.000000	1
235.000000	1
237.000000	1
239.000000	1
240.000000	1
241.000000	3
242.000000	1
243.000000	29
244.000000	6
245.000000	7
246.000000	5
247.000000	1
248.000000	1
249.000000	1
250.000000	1
251.000000	1
252.000000	1
253.000000	2
254.000000	1
255.000000	2
257.000000	3
258.000000	3
259.000000	70
260.000000	16
261.000000	10
262.000000	3
263.000000	1
264.000000	1
265.000000	1
266.000000	1
267.000000	1
268.000000	1
269.000000	1
270.000000	1
271.000000	1
272.000000	1
273.000000	1
274.000000	2
275.000000	4
276.000000	18
277.000000	4
278.000000	2
279.000000	2
280.000000	1
281.000000	1
282.000000	1
283.000000	1
285.000000	8
286.000000	2
287.000000	2
288.000000	1
290.000000	1
292.000000	1
293.000000	1
294.000000	1
295.000000	1
296.000000	1
297.000000	1
298.000000	1
299.000000	1
300.000000	2
301.000000	2
302.000000	1
303.050000	365
304.000000	98
305.000000	41
306.000000	6
307.000000	3
309.000000	2
310.000000	1
311.000000	1
312.000000	1
313.000000	1
315.000000	2
316.000000	1
318.000000	2
319.000000	3
320.000000	1
321.000000	1
322.000000	1
324.000000	1
325.000000	2
326.000000	1
328.000000	1
329.000000	1
330.000000	1
331.000000	2
332.000000	1
333.000000	1
334.000000	1
335.000000	1
336.000000	1
337.000000	1
338.000000	1
339.000000	1
340.000000	1
341.000000	1
342.000000	1
344.000000	1
346.000000	1
347.000000	1
348.000000	1
349.000000	1
350.000000	1
351.000000	1
353.000000	1
354.000000	1
355.000000	1
356.000000	2
358.000000	1
359.000000	1
360.000000	1
361.000000	1
365.000000	2
366.000000	1
367.000000	1
368.000000	1
369.000000	1
370.000000	1
371.000000	1
372.000000	1
374.000000	1
375.000000	1
376.000000	2
377.000000	1
379.000000	1
380.000000	1
381.000000	1
383.000000	1
384.000000	1
385.000000	2
386.000000	1
388.000000	1
389.000000	1
390.000000	1
391.000000	4
393.000000	1
394.000000	1
395.000000	1
397.000000	1
398.000000	1
400.000000	1
401.000000	1
402.000000	1
403.000000	1
404.000000	1
405.000000	1
406.000000	1
407.000000	1
409.000000	1
412.000000	1
413.000000	1
414.000000	1
416.000000	2
418.000000	1
420.000000	1
421.000000	1
422.000000	1
423.000000	1
424.000000	2
426.000000	1
427.000000	1
428.000000	1
429.000000	1
430.000000	1
433.000000	1
434.000000	1
435.000000	1
436.000000	1
437.000000	1
438.000000	1
439.000000	1
440.000000	1
441.000000	1
443.000000	1
444.000000	1
445.000000	1
446.000000	1
447.000000	1
448.000000	1
449.000000	1
450.000000	1
451.000000	1
452.000000	1
453.000000	1
454.000000	1
455.000000	1
456.000000	1
457.000000	1
458.000000	1
459.000000	1
460.000000	1
461.000000	1
462.000000	1
463.000000	1
464.000000	1
465.000000	1
467.000000	1
468.000000	1
469.000000	1
470.000000	1
471.000000	1
472.000000	1
473.000000	1
474.000000	1
475.000000	1
476.000000	1
477.000000	1
478.000000	1
479.000000	1
480.000000	1
481.000000	1
483.000000	1
484.000000	1
485.000000	1
486.000000	1
487.000000	1
488.000000	1
489.000000	1
490.000000	1
492.000000	1
493.000000	1
495.000000	1
497.000000	1
498.000000	1
499.000000	2
