Mass spectrum: Alanylalanine; EI-B; MS; n TMS; RT: 762.80 s
Name: Alanylalanine
Class: Natural Product
Formula: C6H12N2O3
Exact mass: 160.08479
SMILES: CC(N)C(=O)NC(C)C(O)=O
InChI: InChI=1S/C6H12N2O3/c1-3(7)5(9)8-4(2)6(10)11/h3-4H,7H2,1-2H3,(H,8,9)(H,10,11)/t3-,4-/m0/s1
Instrument: GCMS-2010 Plus, Shimadzu
Instrument type: EI-B
Ms type: MS
Ion mode: POSITIVE
Column name: InertCap 5MS/NP 0.25 mmI.D. x 30 m, df=0.25 um
Retention time: 762.80
Derivative type: n TMS
m/z	relative intensity
86.000000	10
87.000000	4
88.000000	3
89.000000	3
90.000000	1
91.000000	3
92.000000	4
93.000000	1
94.000000	1
95.000000	2
96.000000	4
97.000000	9
98.000000	5
99.100000	5
100.100000	330
101.050000	37
102.100000	21
103.100000	4
104.100000	3
105.100000	2
106.100000	2
107.100000	1
108.100000	2
109.100000	2
110.100000	2
111.100000	5
112.100000	8
113.100000	6
114.050000	94
115.100000	13
116.150000	82
117.100000	22
118.100000	6
119.100000	7
120.100000	2
121.100000	2
122.100000	1
123.100000	1
124.100000	3
125.100000	2
126.100000	3
127.100000	4
128.100000	7
129.100000	7
130.100000	22
131.050000	29
132.100000	9
133.100000	19
134.100000	2
135.100000	5
136.100000	3
139.100000	1
140.100000	1
141.100000	2
142.100000	4
143.100000	5
144.100000	10
145.100000	4
146.100000	6
147.100000	82
148.100000	17
149.100000	9
150.100000	1
151.100000	2
152.100000	2
154.100000	2
155.100000	5
156.100000	9
157.100000	9
158.100000	9
159.100000	4
160.100000	4
161.100000	2
162.100000	1
163.100000	1
164.100000	1
165.100000	2
166.100000	1
167.100000	1
168.100000	2
169.100000	9
170.100000	4
171.100000	4
172.100000	25
173.100000	7
174.100000	15
175.100000	4
176.100000	4
177.100000	1
178.100000	2
179.100000	1
180.100000	1
181.100000	3
182.100000	1
183.100000	3
184.100000	2
185.100000	3
186.100000	12
187.100000	2
188.150000	999
189.150000	184
190.150000	153
191.100000	30
192.100000	7
193.100000	4
194.100000	1
195.100000	1
196.100000	1
197.100000	2
198.100000	3
200.100000	24
201.100000	11
202.100000	8
203.100000	3
204.100000	3
205.100000	2
207.100000	7
209.100000	3
210.100000	3
212.100000	1
214.100000	1
215.100000	10
216.100000	9
217.100000	3
218.100000	10
219.100000	12
220.100000	1
221.100000	1
222.100000	1
223.100000	2
224.100000	2
225.100000	2
226.100000	2
227.100000	2
228.100000	3
229.100000	4
230.100000	2
231.100000	3
232.100000	2
234.100000	3
235.100000	2
237.100000	1
239.100000	1
240.100000	1
241.100000	4
243.100000	19
244.100000	6
245.100000	7
246.150000	29
247.100000	11
248.100000	4
249.100000	1
250.100000	3
251.100000	1
252.100000	1
253.100000	3
254.100000	3
255.100000	5
256.100000	2
257.100000	2
258.100000	2
259.100000	5
260.100000	3
261.100000	2
262.100000	2
264.100000	6
265.100000	1
266.100000	2
267.100000	4
268.100000	2
269.100000	4
270.100000	1
271.200000	25
272.200000	10
273.200000	1
274.200000	3
275.200000	4
277.200000	1
279.200000	1
280.200000	2
281.200000	4
282.200000	3
283.200000	3
284.200000	1
285.200000	2
286.200000	1
287.200000	6
288.200000	1
289.200000	3
290.200000	4
291.200000	1
294.200000	1
295.200000	3
297.200000	1
298.200000	1
299.200000	1
300.200000	1
301.200000	3
302.200000	1
303.200000	1
304.200000	1
305.200000	2
307.200000	1
308.200000	1
309.200000	3
312.200000	1
313.200000	2
314.200000	1
315.200000	2
316.200000	1
317.200000	2
318.200000	1
319.200000	1
321.200000	1
323.200000	1
324.200000	1
325.200000	2
326.200000	3
327.200000	2
328.200000	1
330.200000	2
331.200000	2
333.200000	1
334.200000	2
335.200000	1
337.200000	2
339.200000	1
340.200000	3
341.200000	2
342.200000	1
343.200000	3
344.200000	1
345.200000	3
346.200000	2
347.200000	1
348.200000	1
349.200000	1
350.200000	2
351.200000	1
352.200000	1
353.200000	4
355.200000	1
356.200000	1
357.200000	1
359.200000	2
361.200000	69
362.200000	24
363.200000	8
364.200000	3
365.200000	2
366.200000	2
367.200000	2
368.200000	1
369.200000	1
370.200000	2
371.200000	1
372.200000	1
373.200000	1
374.200000	2
375.200000	1
377.200000	1
378.200000	1
380.200000	1
381.200000	2
382.200000	1
383.200000	1
384.200000	1
385.200000	2
386.200000	2
388.200000	1
389.200000	1
390.200000	2
391.200000	1
392.200000	1
393.200000	2
394.200000	1
397.200000	1
398.200000	1
401.200000	2
402.200000	1
404.200000	2
405.200000	1
406.200000	2
407.200000	3
408.200000	1
409.200000	1
410.200000	1
412.200000	2
413.200000	1
414.200000	2
415.200000	1
416.200000	1
417.200000	1
418.200000	1
419.200000	3
422.200000	2
423.200000	1
424.200000	2
426.200000	2
427.200000	1
428.200000	1
429.200000	1
430.200000	3
431.200000	1
432.200000	1
433.200000	1
434.200000	2
435.200000	1
436.200000	2
439.200000	1
442.200000	1
443.200000	2
446.200000	1
447.200000	2
449.200000	1
451.200000	1
452.200000	1
453.200000	1
454.200000	1
455.200000	1
457.200000	1
458.200000	1
459.200000	3
460.200000	1
462.200000	2
463.200000	2
464.200000	1
465.200000	2
466.200000	1
467.200000	1
468.200000	1
469.200000	1
470.200000	1
472.200000	2
473.200000	2
474.200000	1
475.200000	1
477.200000	2
478.200000	2
479.200000	2
480.200000	3
481.200000	1
482.200000	3
483.200000	1
484.200000	1
485.200000	1
488.200000	1
489.200000	2
490.200000	1
491.200000	1
492.200000	3
493.200000	2
494.200000	1
496.200000	1
497.200000	1
498.200000	1
