Mass spectrum: Cystamine; EI-B; MS; n TMS; RT: 910.38 s
Name: Cystamine
Class: Natural Product
Formula: C4H12N2S2
Exact mass: 152.04419
SMILES: NCCSSCCN
InChI: InChI=1S/C4H12N2S2/c5-1-3-7-8-4-2-6/h1-6H2
Instrument: GCMS-2010 Plus, Shimadzu
Instrument type: EI-B
Ms type: MS
Ion mode: POSITIVE
Column name: InertCap 5MS/NP 0.25 mmI.D. x 30 m, df=0.25 um
Retention time: 2238.44
Derivative type: n TMS
m/z	relative intensity
86.100000	121
87.100000	12
88.050000	5
88.950000	1
90.100000	1
91.050000	4
92.100000	1
93.100000	1
94.100000	1
95.100000	1
96.100000	1
97.100000	1
98.050000	2
99.150000	2
100.100000	121
101.100000	15
102.100000	9
103.100000	1
104.100000	1
105.100000	7
106.100000	1
107.100000	1
108.100000	1
109.100000	1
110.100000	1
111.100000	1
112.100000	1
113.100000	3
114.100000	12
115.100000	4
116.100000	16
117.100000	6
118.100000	4
119.100000	1
120.100000	1
121.100000	1
122.100000	1
123.100000	1
124.100000	1
125.100000	1
126.100000	1
127.100000	1
128.100000	1
129.150000	2
130.100000	34
131.100000	9
132.100000	17
133.100000	3
134.150000	1
135.100000	1
136.100000	1
137.100000	1
138.100000	1
139.100000	1
140.100000	1
141.100000	1
142.100000	1
143.100000	1
144.150000	2
145.150000	1
146.150000	10
147.150000	3
148.100000	4
149.150000	2
150.200000	1
151.200000	1
152.200000	1
153.200000	1
154.200000	1
155.200000	1
156.200000	1
157.200000	1
158.200000	4
159.200000	1
160.200000	1
161.200000	1
162.200000	1
163.200000	1
164.200000	1
165.200000	1
166.200000	1
167.200000	1
168.200000	1
169.200000	1
170.200000	1
171.200000	1
172.150000	18
173.250000	8
174.200000	999
175.200000	171
176.150000	77
177.200000	10
178.150000	2
179.100000	1
181.100000	1
182.100000	1
183.100000	1
184.100000	1
185.100000	1
186.100000	1
187.250000	1
188.150000	69
189.150000	13
190.100000	19
191.150000	4
192.100000	3
193.100000	1
194.100000	1
195.100000	1
196.100000	1
197.100000	1
198.100000	1
199.100000	1
200.100000	1
201.100000	1
202.100000	1
203.100000	1
204.100000	3
205.150000	1
206.100000	1
207.050000	1
208.100000	1
209.100000	1
210.100000	1
211.100000	1
212.100000	1
214.100000	1
215.100000	1
217.100000	1
218.100000	1
219.150000	1
220.150000	108
221.150000	21
222.150000	13
223.150000	3
224.100000	1
225.100000	1
226.100000	1
227.100000	1
228.100000	1
229.100000	1
230.100000	1
231.100000	1
232.100000	1
233.100000	1
234.100000	1
235.100000	1
236.100000	1
237.100000	1
239.100000	1
240.100000	1
241.100000	1
242.100000	1
244.100000	1
246.100000	1
248.100000	1
249.100000	1
250.100000	1
251.100000	1
252.100000	1
253.100000	1
254.100000	1
257.100000	1
258.100000	1
259.100000	1
260.100000	1
261.100000	1
262.100000	1
263.100000	1
264.100000	1
265.100000	1
266.100000	1
267.100000	1
268.100000	1
270.100000	1
271.100000	1
272.100000	1
273.100000	1
274.100000	1
275.100000	1
277.100000	1
278.100000	1
280.100000	1
281.100000	1
283.100000	1
285.100000	1
286.100000	1
287.100000	1
289.100000	1
290.100000	1
292.100000	1
293.100000	1
295.100000	1
297.100000	1
298.100000	1
300.100000	1
301.100000	1
302.100000	1
303.100000	1
305.100000	1
306.100000	1
308.100000	1
309.100000	1
310.100000	1
311.100000	1
313.100000	1
314.100000	1
315.100000	1
316.100000	1
317.100000	1
319.100000	1
320.100000	1
321.100000	1
322.100000	1
323.100000	1
324.100000	1
325.100000	1
326.100000	1
327.100000	1
328.100000	1
329.100000	1
330.100000	1
331.100000	1
332.100000	1
334.100000	1
335.100000	1
336.100000	1
337.100000	1
339.100000	1
340.100000	1
341.100000	1
342.100000	1
343.100000	1
344.100000	1
345.100000	1
346.100000	1
347.100000	1
348.100000	1
349.100000	1
350.100000	1
352.100000	1
353.100000	1
355.100000	1
356.100000	1
357.100000	1
358.100000	1
359.100000	1
360.100000	1
362.100000	1
363.100000	1
364.100000	1
365.100000	1
366.100000	1
367.100000	1
368.100000	1
369.100000	1
370.100000	1
371.100000	1
372.100000	1
374.100000	1
375.100000	1
377.100000	1
379.100000	1
380.100000	1
383.100000	1
384.100000	1
385.100000	1
386.100000	1
387.100000	1
388.100000	1
389.100000	1
390.100000	1
391.100000	1
392.100000	1
393.100000	1
394.100000	1
395.100000	1
396.100000	1
397.100000	1
400.100000	1
401.100000	1
402.100000	1
404.100000	1
405.100000	1
406.100000	1
407.100000	1
409.100000	1
410.100000	1
411.100000	1
412.100000	1
413.100000	1
414.100000	1
415.100000	1
417.100000	1
418.100000	1
419.100000	1
420.100000	1
421.100000	1
422.100000	1
424.100000	1
425.100000	1
426.100000	1
428.100000	1
429.100000	1
430.100000	1
431.100000	1
432.100000	1
433.100000	1
434.100000	1
435.100000	1
436.100000	1
437.100000	1
438.100000	1
439.100000	1
440.100000	1
441.100000	1
442.100000	1
443.100000	1
444.100000	1
445.100000	1
446.100000	1
447.100000	1
449.100000	1
451.100000	1
453.100000	1
454.100000	1
455.100000	1
456.100000	1
457.100000	1
460.100000	1
461.100000	1
462.100000	1
463.100000	1
464.100000	1
465.100000	1
466.100000	1
467.100000	1
468.100000	1
469.100000	1
470.100000	1
471.100000	1
473.100000	1
474.100000	1
475.100000	1
476.100000	1
477.100000	1
478.100000	1
480.100000	1
482.100000	1
483.100000	1
484.100000	1
485.100000	1
486.100000	1
487.100000	1
488.100000	1
489.100000	1
490.100000	1
491.100000	1
493.100000	1
494.100000	1
495.100000	1
496.100000	1
497.100000	1
498.100000	1
