Mass spectrum: 5-Dehydroquinic acid; EI-B; MS; n TMS; RT: 779.12 s
Name: 5-Dehydroquinic acid
Class: Natural Product
Formula: C7H10O6
Exact mass: 190.04774
SMILES: OC(=O)[C@@](O)(C1)CC(=O)[C@@H](O)[C@H](O)1
InChI: InChI=1S/C7H10O6/c8-3-1-7(13,6(11)12)2-4(9)5(3)10/h3,5,8,10,13H,1-2H2,(H,11,12)/t3-,5+,7-/m1/s1
Instrument: GCMS-2010 Plus, Shimadzu
Instrument type: EI-B
Ms type: MS
Ion mode: POSITIVE
Column name: InertCap 5MS/NP 0.25 mmI.D. x 30 m, df=0.25 um
Retention time: 779.12
Derivative type: n TMS
m/z	relative intensity
86.100000	5
87.100000	9
88.000000	3
89.050000	205
90.050000	19
91.050000	21
92.000000	2
93.000000	4
94.050000	17
95.000000	6
96.050000	38
97.050000	12
98.050000	20
99.100000	26
100.100000	63
101.100000	44
102.100000	20
103.050000	60
104.100000	8
105.100000	23
106.050000	34
107.100000	11
108.050000	13
109.100000	4
110.100000	6
111.100000	11
112.100000	7
113.100000	31
114.150000	15
115.100000	37
116.100000	19
117.050000	36
118.100000	12
119.100000	20
120.100000	5
121.100000	3
122.100000	7
123.100000	5
124.100000	66
125.100000	15
126.100000	16
127.100000	23
128.100000	94
129.100000	80
130.100000	23
131.100000	94
132.150000	18
133.100000	321
134.100000	244
135.100000	43
136.150000	16
137.200000	7
138.200000	10
139.100000	8
140.150000	114
141.150000	82
142.150000	34
143.150000	165
144.200000	36
145.100000	17
146.250000	12
147.150000	999
148.150000	156
149.150000	112
150.150000	20
151.100000	12
152.100000	23
153.150000	14
154.150000	18
155.100000	13
156.100000	18
157.100000	15
158.150000	16
159.150000	14
160.200000	8
161.200000	8
162.200000	4
163.200000	89
164.150000	55
165.150000	26
166.150000	21
167.100000	6
168.150000	81
169.150000	169
170.100000	35
171.100000	19
172.150000	52
173.150000	17
174.100000	16
175.100000	6
176.100000	4
177.100000	11
178.100000	23
179.150000	16
180.150000	82
181.150000	24
182.050000	15
183.000000	6
184.000000	5
185.000000	10
186.000000	5
187.000000	4
188.000000	4
189.100000	40
190.150000	23
191.150000	209
192.100000	48
193.100000	21
194.100000	20
195.150000	14
196.100000	388
197.100000	83
198.100000	29
199.100000	8
200.100000	33
201.050000	16
202.100000	7
203.100000	9
204.150000	16
204.950000	10
206.000000	9
207.150000	20
208.050000	336
209.050000	60
210.150000	152
211.100000	30
212.100000	14
213.100000	6
214.150000	28
215.100000	18
216.150000	10
217.150000	170
218.150000	35
219.100000	22
220.100000	3
221.150000	25
222.100000	19
223.150000	13
224.150000	852
225.100000	145
226.100000	63
227.150000	13
228.150000	20
229.200000	20
230.200000	15
231.150000	16
232.200000	5
233.200000	7
234.200000	1
235.200000	2
236.200000	4
237.150000	18
238.100000	42
239.150000	14
240.200000	58
241.150000	19
242.150000	57
243.150000	30
244.200000	20
245.150000	21
246.100000	6
247.100000	3
248.100000	1
249.100000	10
250.100000	3
251.100000	3
252.150000	19
253.150000	23
254.150000	58
255.150000	23
256.150000	19
257.200000	13
258.150000	25
259.150000	71
260.200000	20
261.200000	9
262.200000	2
263.200000	1
264.200000	2
265.200000	5
266.200000	10
267.200000	5
268.200000	103
269.200000	85
270.200000	67
271.200000	24
272.200000	7
273.200000	5
274.200000	22
275.200000	7
276.200000	3
277.200000	1
278.200000	1
279.200000	1
280.200000	18
281.150000	17
282.200000	25
283.200000	10
284.200000	73
285.200000	33
286.150000	50
287.200000	18
288.200000	7
289.200000	4
290.200000	2
291.200000	2
292.200000	2
293.200000	1
294.200000	1
295.200000	1
296.200000	190
297.150000	62
298.200000	29
299.250000	10
300.200000	307
301.200000	83
302.200000	37
303.200000	9
304.200000	2
305.200000	6
306.200000	2
307.200000	2
308.200000	1
309.200000	1
310.200000	2
311.200000	5
312.200000	28
313.250000	12
314.200000	206
315.250000	55
316.200000	24
317.200000	7
318.200000	4
319.200000	3
320.200000	1
321.200000	1
322.200000	1
323.200000	1
324.200000	1
325.200000	1
326.200000	11
327.200000	8
328.250000	16
329.200000	8
330.200000	12
331.250000	78
332.250000	30
333.250000	148
334.200000	50
335.200000	25
336.200000	5
337.200000	1
338.200000	1
339.200000	1
340.200000	2
341.200000	4
342.200000	75
343.250000	31
344.200000	25
345.150000	11
346.100000	3
347.100000	5
348.100000	2
349.100000	1
351.100000	1
352.100000	1
354.100000	5
355.100000	3
356.100000	3
357.100000	2
358.250000	23
359.250000	13
360.200000	8
361.200000	5
362.200000	1
363.200000	1
365.200000	1
366.200000	1
368.200000	5
369.200000	2
370.200000	61
371.200000	25
372.150000	19
373.200000	5
374.250000	71
375.250000	26
376.250000	15
377.200000	3
378.200000	1
379.200000	1
380.200000	1
381.200000	1
382.200000	1
383.200000	1
384.200000	1
385.200000	1
386.200000	181
387.200000	71
388.250000	43
389.350000	15
390.250000	224
391.250000	78
392.250000	35
393.200000	7
394.200000	2
395.200000	2
396.200000	1
397.200000	1
398.200000	1
399.200000	1
401.200000	1
402.200000	123
403.200000	49
404.200000	24
405.200000	6
406.200000	4
407.200000	2
411.200000	1
412.200000	1
413.200000	1
414.200000	1
416.300000	6
417.250000	161
418.250000	55
419.250000	31
420.300000	9
421.300000	3
422.300000	1
423.300000	1
424.300000	1
426.300000	1
427.300000	1
429.300000	1
430.300000	1
431.300000	1
432.250000	53
433.200000	21
434.250000	15
435.300000	8
436.300000	2
437.300000	1
440.300000	1
441.300000	1
442.300000	1
443.300000	1
444.300000	1
445.300000	1
446.300000	1
448.300000	1
449.300000	1
450.300000	1
451.300000	1
453.300000	1
454.300000	1
455.300000	1
456.300000	1
457.300000	1
458.300000	1
459.200000	1
460.250000	19
461.200000	9
462.200000	5
463.200000	3
464.300000	28
465.250000	13
466.300000	6
467.300000	2
468.300000	1
469.300000	1
470.300000	1
471.300000	1
472.300000	1
473.300000	1
475.300000	2
476.300000	98
477.250000	50
478.250000	19
479.300000	7
480.300000	2
481.300000	2
483.300000	1
484.300000	1
485.300000	1
486.300000	1
487.300000	1
488.300000	1
489.300000	1
490.300000	1
491.300000	2
492.300000	95
493.300000	39
494.250000	24
495.300000	7
496.300000	2
497.300000	1
