Mass spectrum: 2-Hydroxypyridine; EI-B; MS; n TMS; RT: 284.99 s
Name: 2-Hydroxypyridine
Class: Natural Product
Formula: C5H5NO
Exact mass: 95.03711
SMILES: Oc(c1)nccc1
InChI: InChI=1S/C5H5NO/c7-5-3-1-2-4-6-5/h1-4H,(H,6,7)
Instrument: GCMS-2010 Plus, Shimadzu
Instrument type: EI-B
Ms type: MS
Ion mode: POSITIVE
Column name: InertCap 5MS/NP 0.25 mmI.D. x 30 m, df=0.25 um
Retention time: 284.99
Derivative type: n TMS
m/z	relative intensity
86.050000	4
87.000000	1
88.000000	1
89.000000	1
90.000000	1
91.050000	2
92.050000	18
93.050000	12
94.000000	4
95.050000	16
96.050000	12
97.050000	43
98.050000	13
99.050000	11
100.050000	5
101.000000	1
102.000000	1
103.000000	1
104.000000	1
105.000000	1
106.000000	6
107.000000	1
108.050000	4
109.000000	3
110.050000	3
111.000000	1
112.000000	1
113.000000	1
114.000000	1
115.000000	1
118.000000	1
119.000000	1
120.000000	1
121.000000	1
122.000000	84
123.000000	9
124.000000	7
125.000000	2
126.000000	1
127.000000	1
129.000000	1
130.000000	1
131.000000	1
132.000000	2
133.000000	1
134.100000	3
134.950000	2
136.050000	32
137.000000	16
138.050000	8
139.000000	2
140.000000	1
141.000000	1
142.000000	1
143.000000	1
146.000000	1
147.000000	1
148.000000	2
149.000000	1
150.000000	1
151.150000	6
152.100000	999
153.100000	134
154.050000	45
155.100000	4
156.100000	1
157.100000	1
158.100000	1
159.100000	1
160.100000	1
161.100000	1
162.100000	1
163.100000	1
164.100000	1
165.100000	1
166.050000	146
167.050000	112
168.050000	20
169.100000	5
170.100000	1
172.100000	1
173.100000	1
174.100000	1
175.100000	1
176.100000	1
177.100000	1
178.100000	1
179.100000	1
181.100000	1
182.100000	1
184.100000	1
185.100000	1
186.100000	1
187.100000	1
188.100000	1
189.100000	1
190.100000	1
191.100000	1
192.100000	1
193.100000	1
194.100000	1
195.100000	1
196.100000	1
197.100000	1
198.100000	1
199.100000	1
200.100000	1
201.100000	1
202.100000	1
203.100000	1
205.100000	1
206.100000	1
207.100000	1
208.100000	1
209.100000	1
210.100000	1
212.100000	1
213.100000	1
214.100000	1
215.100000	1
216.100000	1
218.100000	1
219.100000	1
220.100000	1
221.100000	1
222.100000	1
224.100000	1
225.100000	1
226.100000	1
227.100000	1
228.100000	1
229.100000	1
230.100000	1
232.100000	1
234.100000	1
235.100000	1
236.100000	1
237.100000	1
238.100000	1
239.100000	1
241.100000	1
243.100000	1
245.100000	1
246.100000	1
247.100000	1
248.100000	1
249.100000	1
251.100000	1
252.100000	1
253.100000	1
254.100000	1
255.100000	1
257.100000	1
258.100000	1
259.100000	1
261.100000	1
263.100000	1
264.100000	1
265.100000	1
266.100000	1
267.100000	1
268.100000	1
269.100000	1
270.100000	1
271.100000	1
272.100000	1
273.100000	1
274.100000	1
275.100000	1
276.100000	1
277.100000	1
278.100000	1
279.100000	1
280.100000	1
281.100000	1
282.100000	1
284.100000	1
285.100000	1
286.100000	1
287.100000	1
288.100000	1
289.100000	1
290.100000	1
291.100000	1
292.100000	1
293.100000	1
296.100000	1
297.100000	1
298.100000	1
301.100000	1
302.100000	1
303.100000	1
304.100000	1
306.100000	1
308.100000	1
309.100000	1
313.100000	1
314.100000	1
315.100000	1
316.100000	1
317.100000	1
318.100000	1
319.100000	1
322.100000	1
325.100000	1
326.100000	1
327.100000	1
328.100000	1
329.100000	1
331.100000	1
332.100000	1
333.100000	1
335.100000	1
337.100000	1
338.100000	1
339.100000	1
341.100000	1
342.100000	1
343.100000	1
344.100000	1
345.100000	1
346.100000	1
347.100000	1
348.100000	1
350.100000	1
351.100000	1
352.100000	1
353.100000	1
354.100000	1
355.100000	1
356.100000	1
357.100000	1
358.100000	1
359.100000	1
361.100000	1
362.100000	1
363.100000	1
365.100000	1
366.100000	1
367.100000	1
368.100000	1
370.100000	1
371.100000	1
372.100000	1
373.100000	1
375.100000	1
377.100000	1
378.100000	1
380.100000	1
384.100000	1
385.100000	1
386.100000	1
387.100000	1
388.100000	1
389.100000	1
390.100000	1
391.100000	1
392.100000	1
394.100000	1
395.100000	1
396.100000	1
397.100000	1
398.100000	1
399.100000	1
400.100000	1
401.100000	1
402.100000	1
403.100000	1
405.100000	1
407.100000	1
408.100000	1
409.100000	1
410.100000	1
411.100000	1
412.100000	1
413.100000	1
416.100000	1
417.100000	1
418.100000	1
420.100000	1
421.100000	1
422.100000	1
423.100000	1
424.100000	1
425.100000	1
426.100000	1
427.100000	1
428.100000	1
430.100000	1
432.100000	1
433.100000	1
435.100000	1
437.100000	1
438.100000	1
439.100000	1
441.100000	1
442.100000	1
443.100000	1
444.100000	1
445.100000	1
446.100000	1
447.100000	1
449.100000	1
452.100000	1
453.100000	1
454.100000	1
455.100000	1
456.100000	1
457.100000	1
458.100000	1
460.100000	1
461.100000	1
463.100000	1
464.100000	1
465.100000	1
466.100000	1
467.100000	1
468.100000	1
470.100000	1
471.100000	1
472.100000	1
475.100000	1
476.100000	1
477.100000	1
478.100000	1
481.100000	1
482.100000	1
484.100000	1
486.100000	1
487.100000	1
488.100000	1
489.100000	1
492.100000	1
494.100000	1
495.100000	1
496.100000	1
497.100000	1
499.100000	1
