Mass spectrum: DL-Glyceraldehyde; EI-B; MS; n TMS; RT: 407.84 s
Name: DL-Glyceraldehyde
Class: Natural Product
Formula: C3H6O3
Exact mass: 90.03169
SMILES: OCC(O)C=O
InChI: InChI=1S/C3H6O3/c4-1-3(6)2-5/h1,3,5-6H,2H2
Instrument: GCMS-2010 Plus, Shimadzu
Instrument type: EI-B
Ms type: MS
Ion mode: POSITIVE
Column name: InertCap 5MS/NP 0.25 mmI.D. x 30 m, df=0.25 um
Retention time: 407.84
Derivative type: n TMS
m/z	relative intensity
86.050000	16
87.000000	26
88.050000	17
89.000000	382
90.000000	26
91.000000	19
92.000000	1
93.000000	2
94.000000	1
95.000000	1
96.000000	1
97.000000	2
98.000000	8
99.150000	12
100.050000	532
101.000000	138
102.000000	199
103.000000	999
104.050000	98
105.050000	192
106.000000	15
107.000000	8
108.000000	2
109.000000	1
110.000000	2
111.000000	1
112.000000	4
113.000000	6
114.000000	41
115.000000	29
116.000000	22
117.000000	372
118.000000	41
119.000000	41
120.000000	3
121.000000	2
122.000000	1
123.000000	1
124.000000	1
125.000000	1
126.000000	25
127.000000	6
128.000000	11
128.950000	22
130.000000	7
131.000000	221
132.050000	31
133.000000	484
134.000000	58
135.000000	29
136.000000	4
137.000000	1
138.000000	1
139.000000	1
140.000000	1
141.000000	1
142.050000	27
143.000000	6
144.000000	4
145.000000	3
146.000000	3
147.050000	750
148.050000	110
149.050000	58
150.000000	7
151.000000	2
152.000000	1
153.000000	2
154.000000	1
155.000000	1
157.000000	2
158.000000	15
159.000000	5
160.050000	285
161.050000	37
162.050000	12
163.050000	106
164.050000	16
165.000000	10
166.000000	1
167.000000	1
168.000000	1
169.000000	1
170.000000	1
171.000000	1
172.050000	19
172.950000	23
174.000000	6
175.000000	11
176.000000	2
177.000000	6
178.000000	1
179.000000	1
180.000000	1
181.000000	1
182.000000	2
183.000000	1
184.000000	1
185.000000	1
185.950000	22
187.000000	5
188.000000	4
189.000000	124
189.950000	21
191.000000	148
191.950000	28
192.950000	12
193.900000	2
194.900000	1
195.900000	1
196.900000	1
197.900000	1
198.900000	1
199.900000	131
201.000000	58
201.950000	19
203.000000	5
204.000000	9
204.950000	20
205.900000	3
206.900000	4
207.900000	1
208.900000	1
209.900000	1
211.900000	1
212.900000	1
213.900000	2
215.950000	17
217.000000	4
218.000000	6
219.000000	4
220.000000	1
221.000000	1
222.000000	1
223.000000	1
224.000000	1
225.000000	1
226.000000	1
227.000000	1
228.000000	2
229.000000	2
230.000000	1
231.000000	1
231.950000	97
233.000000	22
234.000000	8
235.000000	1
236.000000	1
237.000000	1
238.000000	1
239.000000	1
240.000000	1
241.000000	1
242.000000	1
243.000000	1
245.000000	1
247.000000	1
248.000000	5
249.000000	1
250.000000	1
252.000000	1
253.000000	3
254.000000	1
255.000000	1
256.000000	1
257.000000	1
259.000000	1
260.000000	1
261.000000	1
262.000000	1
263.000000	83
263.950000	18
264.900000	7
265.900000	1
266.900000	1
267.900000	1
268.900000	1
269.900000	1
270.900000	1
271.900000	2
272.900000	1
273.900000	1
275.900000	1
276.900000	1
277.900000	1
278.900000	1
280.900000	1
281.900000	1
282.900000	1
283.900000	1
284.900000	1
285.900000	1
286.900000	1
288.900000	1
289.900000	1
291.900000	1
292.900000	1
293.900000	1
294.900000	1
295.900000	1
296.900000	1
297.900000	1
298.900000	1
299.900000	1
300.900000	1
301.900000	1
303.900000	1
304.900000	1
305.900000	1
306.900000	1
307.900000	1
309.900000	1
310.900000	1
311.900000	1
312.900000	1
313.900000	1
314.900000	1
315.900000	1
316.900000	1
317.900000	1
318.900000	1
319.900000	1
320.900000	1
321.900000	1
322.900000	1
323.900000	1
324.900000	1
325.900000	1
326.900000	2
327.900000	1
328.900000	1
329.900000	1
330.900000	1
331.900000	1
333.900000	1
335.900000	1
337.900000	1
340.900000	1
341.900000	1
342.900000	1
344.900000	1
345.900000	1
348.900000	1
349.900000	1
352.900000	1
353.900000	1
354.900000	1
355.900000	1
358.900000	1
359.900000	1
360.900000	1
361.900000	1
362.900000	1
363.900000	1
364.900000	1
365.900000	1
366.900000	1
367.900000	1
368.900000	1
369.900000	1
370.900000	1
373.900000	1
375.900000	1
376.900000	1
377.900000	1
378.900000	1
379.900000	1
380.900000	1
381.900000	1
382.900000	1
383.900000	1
384.900000	1
385.900000	1
389.900000	1
390.900000	1
391.900000	1
392.900000	1
393.900000	1
395.900000	1
396.900000	1
398.900000	1
399.900000	1
400.900000	1
402.900000	1
403.900000	1
404.900000	1
405.900000	2
408.900000	1
409.900000	1
410.900000	1
411.900000	1
412.900000	1
414.900000	1
415.900000	1
416.900000	1
417.900000	1
418.900000	1
419.900000	1
421.900000	1
422.900000	1
423.900000	1
424.900000	1
425.900000	1
429.900000	1
431.900000	1
432.900000	1
433.900000	1
434.900000	1
436.900000	1
437.900000	1
438.900000	1
439.900000	1
440.900000	1
442.900000	1
443.900000	1
444.900000	1
445.900000	1
446.900000	1
448.900000	1
450.900000	1
451.900000	1
453.900000	1
455.900000	1
457.900000	1
459.900000	1
460.900000	1
461.900000	1
462.900000	1
463.900000	1
464.900000	1
465.900000	1
466.900000	1
467.900000	1
468.900000	1
469.900000	1
470.900000	1
471.900000	1
472.900000	1
474.900000	1
475.900000	1
476.900000	1
477.900000	1
478.900000	1
481.900000	1
482.900000	1
483.900000	1
484.900000	1
485.900000	1
486.900000	1
488.900000	1
489.900000	1
490.900000	1
492.900000	1
493.900000	1
494.900000	1
496.900000	1
497.900000	1
