Mass spectrum: Lanthionine; EI-B; MS; 4 TMS; RT: 865.81 s
Name: Lanthionine
Class: Natural Product
Formula: C6H12N2O4S
Exact mass: 208.05178
SMILES: OC(=O)C(N)CSCC(N)C(O)=O
InChI: InChI=1S/C6H12N2O4S/c7-3(5(9)10)1-13-2-4(8)6(11)12/h3-4H,1-2,7-8H2,(H,9,10)(H,11,12)/t3-,4-/m0/s1
Instrument: GCMS-2010 Plus, Shimadzu
Instrument type: EI-B
Ms type: MS
Ion mode: POSITIVE
Column name: InertCap 5MS/NP 0.25 mmI.D. x 30 m, df=0.25 um
Retention time: 865.81
Derivative type: 4 TMS
m/z	relative intensity
86.050000	10
87.000000	8
88.000000	4
89.050000	2
90.100000	5
91.000000	2
92.000000	1
93.000000	1
94.000000	1
95.000000	1
96.000000	1
97.100000	1
98.050000	3
99.150000	3
100.050000	187
101.050000	26
102.100000	15
103.050000	7
104.050000	2
105.000000	2
106.000000	1
107.000000	1
108.000000	1
109.000000	1
110.000000	1
111.000000	1
112.000000	1
113.100000	2
114.100000	31
115.100000	44
116.100000	22
117.050000	11
118.050000	4
119.050000	3
120.050000	4
121.000000	1
122.000000	1
123.000000	1
124.000000	1
125.000000	1
126.000000	1
127.100000	1
128.050000	4
129.050000	11
130.100000	12
131.050000	29
132.050000	23
133.100000	23
134.050000	5
135.100000	2
136.100000	1
137.100000	1
138.100000	1
139.100000	1
140.100000	1
141.100000	1
142.150000	3
143.150000	1
144.100000	7
145.150000	3
146.100000	119
147.100000	133
148.100000	50
149.150000	16
150.100000	4
151.100000	1
152.100000	1
153.100000	1
154.100000	1
155.100000	1
156.100000	1
157.100000	1
158.050000	4
159.150000	4
160.100000	11
161.100000	5
162.150000	24
163.150000	13
164.150000	4
165.100000	1
166.100000	1
167.100000	1
168.100000	1
169.100000	1
170.100000	1
171.100000	1
172.100000	15
173.100000	6
174.100000	10
175.050000	4
176.000000	2
177.000000	1
178.000000	1
179.000000	1
180.000000	1
181.000000	1
182.050000	1
183.100000	1
184.100000	1
185.000000	1
186.000000	1
187.100000	1
188.100000	51
189.100000	10
190.100000	12
191.050000	4
192.000000	2
193.000000	1
194.000000	1
195.000000	1
196.000000	1
197.000000	1
198.100000	1
199.050000	18
200.050000	13
201.050000	4
202.050000	7
203.050000	8
204.050000	5
205.050000	2
206.050000	1
207.000000	2
208.000000	1
209.000000	1
210.000000	1
211.000000	1
212.000000	1
213.000000	1
214.000000	1
215.150000	1
216.050000	85
217.150000	34
218.100000	999
219.100000	209
220.100000	99
221.050000	19
222.100000	6
223.050000	2
224.100000	1
225.100000	1
226.100000	1
227.100000	1
228.100000	1
229.100000	1
230.100000	3
231.150000	11
232.100000	115
233.100000	25
234.100000	12
235.100000	2
236.100000	6
237.050000	2
238.100000	1
239.100000	1
240.100000	1
241.100000	1
242.100000	1
243.100000	1
244.100000	1
245.100000	1
246.100000	3
247.100000	1
248.100000	8
249.050000	4
250.000000	5
251.100000	1
252.100000	1
253.100000	1
254.100000	1
255.100000	1
256.100000	1
257.100000	1
258.100000	1
259.200000	1
260.150000	31
261.150000	10
262.100000	49
263.100000	14
264.100000	22
265.100000	49
266.100000	12
267.100000	6
268.100000	1
269.100000	1
270.100000	1
271.100000	1
272.100000	1
273.200000	2
274.150000	1
275.100000	1
276.100000	1
277.150000	1
278.100000	11
279.100000	4
280.050000	2
281.000000	1
282.000000	1
283.000000	1
284.000000	1
285.000000	1
286.000000	1
287.100000	1
288.150000	41
289.150000	50
290.150000	192
291.100000	55
292.100000	27
293.150000	6
294.100000	3
295.100000	1
296.100000	1
297.100000	1
298.100000	1
299.100000	1
300.100000	1
301.100000	1
302.100000	1
303.100000	1
304.200000	2
305.200000	1
306.200000	1
307.200000	1
308.200000	1
309.200000	1
310.200000	1
312.200000	1
313.200000	1
315.200000	1
316.200000	1
317.200000	1
318.200000	1
319.200000	1
320.200000	1
321.200000	1
322.200000	1
323.200000	1
324.200000	1
325.200000	1
326.200000	1
327.200000	1
328.200000	1
329.200000	1
330.200000	1
331.200000	1
332.200000	1
333.200000	1
334.200000	1
335.200000	1
336.200000	1
337.200000	1
338.200000	1
339.200000	1
340.200000	1
341.200000	1
342.200000	1
343.200000	1
345.200000	1
346.200000	1
347.200000	1
348.200000	1
349.200000	1
350.200000	1
351.200000	1
352.200000	1
353.200000	1
354.200000	1
355.200000	1
356.200000	1
357.200000	1
359.200000	1
360.200000	1
361.200000	3
362.150000	1
363.150000	2
364.100000	1
365.100000	1
366.100000	1
367.100000	1
369.100000	1
371.100000	1
372.100000	1
373.100000	1
374.200000	2
375.200000	1
376.200000	1
377.200000	1
378.200000	1
379.200000	9
380.100000	3
381.200000	2
382.200000	1
383.200000	1
384.200000	1
385.200000	1
386.200000	1
387.200000	1
388.200000	1
389.200000	1
390.200000	1
391.150000	3
392.150000	2
393.100000	1
394.100000	1
395.100000	1
396.100000	1
397.100000	1
398.100000	1
399.100000	1
400.100000	1
401.100000	1
402.100000	1
403.100000	1
404.100000	1
405.100000	1
406.100000	1
407.150000	16
408.150000	6
409.150000	4
410.100000	1
411.100000	1
412.100000	1
413.100000	1
414.100000	1
415.100000	1
416.100000	1
417.100000	1
418.100000	1
419.100000	1
420.100000	1
421.100000	1
422.100000	1
424.100000	1
425.100000	1
426.100000	1
427.100000	1
428.100000	1
429.100000	1
430.100000	1
431.100000	1
432.100000	1
433.100000	1
435.100000	1
436.100000	1
439.100000	1
440.100000	1
441.100000	1
442.100000	1
443.100000	1
444.100000	1
445.100000	1
446.100000	1
447.100000	1
449.100000	1
450.100000	1
451.100000	1
452.100000	1
453.100000	1
454.100000	1
455.100000	1
456.100000	1
458.100000	1
459.100000	1
460.100000	1
462.100000	1
463.100000	1
464.100000	1
465.100000	1
466.100000	1
467.100000	1
468.100000	1
469.100000	1
470.100000	1
472.100000	1
473.100000	1
474.100000	1
475.100000	1
476.100000	1
477.100000	1
478.100000	1
479.100000	1
480.100000	1
481.200000	1
482.200000	1
483.200000	1
484.200000	1
485.200000	1
486.200000	1
488.200000	1
489.200000	1
490.200000	1
493.200000	1
494.200000	1
495.200000	1
496.200000	3
497.250000	2
498.200000	1
499.200000	1
