Mass spectrum: o-Toluic acid; EI-B; MS; 1 TMS; RT: 481.85 s
Name: o-Toluic acid
Name: 2-Methylbenzoic acid
Class: Natural Product
Formula: C8H8O2
Exact mass: 136.05243
SMILES: OC(=O)c(c1)c(C)ccc1
InChI: InChI=1S/C8H8O2/c1-6-4-2-3-5-7(6)8(9)10/h2-5H,1H3,(H,9,10)
Instrument: GCMS-2010 Plus, Shimadzu
Instrument type: EI-B
Ms type: MS
Ion mode: POSITIVE
Column name: InertCap 5MS/NP 0.25 mmI.D. x 30 m, df=0.25 um
Retention time: 481.85
Derivative type: 1 TMS
m/z	relative intensity
86.000000	4
87.000000	1
88.000000	2
89.050000	104
90.050000	170
91.050000	689
92.100000	65
93.100000	6
94.100000	1
95.100000	4
96.500000	54
97.500000	7
98.500000	1
99.500000	4
100.500000	1
101.500000	1
102.500000	1
103.500000	1
104.500000	5
105.500000	7
106.500000	1
107.500000	3
108.500000	3
109.500000	1
110.500000	4
111.500000	2
112.500000	1
113.500000	1
114.500000	2
115.500000	1
118.000000	368
119.050000	999
120.050000	81
121.100000	25
122.100000	2
123.100000	2
124.100000	1
125.100000	2
126.100000	4
127.100000	5
128.100000	1
129.100000	2
130.100000	2
131.100000	13
132.100000	4
133.050000	40
134.000000	9
135.000000	13
136.000000	4
137.000000	5
138.000000	2
139.000000	1
140.000000	4
141.000000	1
142.000000	1
143.000000	1
145.000000	5
146.000000	4
147.000000	9
148.100000	28
149.100000	551
150.050000	75
151.000000	20
152.000000	1
153.000000	1
154.000000	3
155.000000	1
156.000000	1
157.000000	2
158.000000	3
160.000000	1
161.000000	2
162.000000	1
163.000000	5
164.000000	4
165.000000	3
167.000000	2
168.000000	1
169.000000	3
170.000000	1
171.000000	2
172.000000	1
173.000000	2
174.000000	2
175.000000	3
176.000000	2
177.000000	12
179.000000	3
180.000000	1
181.000000	1
182.000000	3
183.000000	1
184.000000	1
185.000000	2
186.000000	1
187.000000	1
188.000000	1
189.000000	2
190.000000	2
191.000000	3
192.000000	70
193.000000	676
193.950000	109
194.950000	39
195.900000	5
196.900000	1
197.900000	1
198.900000	2
199.900000	1
200.900000	3
201.900000	1
204.900000	1
205.900000	1
206.900000	2
208.050000	220
209.050000	36
210.000000	7
211.000000	1
212.000000	2
213.000000	1
214.000000	3
215.000000	1
216.000000	2
217.000000	2
218.000000	3
219.000000	9
220.000000	2
221.000000	1
222.000000	2
224.000000	1
225.000000	2
226.000000	2
227.000000	1
228.000000	1
229.000000	1
230.000000	1
231.000000	1
232.000000	1
233.000000	1
234.000000	2
235.000000	3
236.000000	2
237.000000	1
239.000000	3
240.000000	2
241.000000	1
244.000000	2
245.000000	2
246.000000	3
247.000000	1
248.000000	3
249.000000	2
250.000000	1
252.000000	1
253.000000	7
254.000000	3
255.000000	2
259.000000	1
260.000000	1
262.000000	2
263.000000	2
264.000000	3
265.000000	1
266.000000	2
267.000000	4
269.000000	3
271.000000	1
273.000000	1
275.000000	1
276.000000	1
277.000000	1
278.000000	1
279.000000	2
281.000000	1
282.000000	1
283.000000	2
284.000000	1
285.000000	1
286.000000	1
287.000000	1
290.000000	1
293.000000	2
294.000000	2
295.000000	1
297.000000	1
298.000000	1
299.000000	9
300.000000	2
301.000000	3
302.000000	2
303.000000	1
304.000000	3
305.000000	2
308.000000	1
309.000000	1
310.000000	3
311.000000	3
312.000000	2
313.000000	3
314.000000	4
315.000000	2
316.000000	1
317.000000	1
318.000000	1
320.000000	2
321.000000	1
322.000000	1
323.000000	1
324.000000	1
325.000000	2
327.000000	3
328.000000	1
329.000000	1
330.000000	1
331.000000	1
332.000000	1
333.000000	1
334.000000	3
335.000000	1
336.000000	1
337.000000	2
339.000000	1
340.000000	1
341.000000	3
342.000000	2
344.000000	1
345.000000	2
346.000000	4
347.000000	1
348.000000	1
349.000000	1
350.000000	2
351.000000	1
352.000000	1
353.000000	2
354.000000	1
356.000000	1
357.000000	2
358.000000	1
362.000000	3
363.000000	2
364.000000	1
365.000000	3
366.000000	2
367.000000	1
368.000000	1
369.000000	3
370.000000	1
372.000000	1
373.000000	1
374.000000	2
375.000000	1
378.000000	1
379.000000	3
380.000000	3
381.000000	2
382.000000	3
383.000000	2
384.000000	1
388.000000	1
389.000000	1
390.000000	5
391.000000	1
392.000000	1
393.000000	2
394.000000	1
395.000000	1
396.000000	1
397.000000	2
398.000000	1
399.000000	2
400.000000	1
401.000000	1
402.000000	1
403.000000	2
404.000000	1
405.000000	3
407.000000	1
408.000000	1
409.000000	1
410.000000	2
411.000000	1
412.000000	1
413.000000	3
414.000000	3
416.000000	3
417.000000	1
418.000000	1
419.000000	2
420.000000	3
421.000000	1
423.000000	1
424.000000	1
426.000000	1
427.000000	1
430.000000	3
433.000000	2
434.000000	1
435.000000	1
436.000000	2
437.000000	3
438.000000	1
440.000000	1
441.000000	1
442.000000	1
443.000000	1
444.000000	1
446.000000	1
447.000000	2
448.000000	2
449.000000	1
450.000000	3
451.000000	1
453.000000	2
454.000000	1
455.000000	3
456.000000	2
457.000000	1
458.000000	1
459.000000	2
460.000000	1
461.000000	1
462.000000	2
463.000000	1
464.000000	3
465.000000	1
466.000000	2
467.000000	2
468.000000	1
469.000000	1
470.000000	2
471.000000	1
472.000000	1
473.000000	1
474.000000	1
475.000000	2
478.000000	1
479.000000	1
480.000000	2
482.000000	1
483.000000	1
484.000000	1
485.000000	2
487.000000	2
488.000000	1
489.000000	2
490.000000	2
491.000000	1
492.000000	1
494.000000	1
496.000000	2
