Mass spectrum: N-alpha-Acetyl-L-Ornithine; EI-B; MS; n TMS; RT: 816.15 s
Name: N-alpha-Acetyl-L-Ornithine
Name: N-a-Acetyl-L-Ornithine
Class: Natural Product
Formula: C7H14N2O3
Exact mass: 174.10044
SMILES: NCCC[C@H](NC(C)=O)C(O)=O
InChI: InChI=1S/C7H14N2O3/c1-5(10)9-6(7(11)12)3-2-4-8/h6H,2-4,8H2,1H3,(H,9,10)(H,11,12)/t6-/m0/s1
Instrument: GCMS-2010 Plus, Shimadzu
Instrument type: EI-B
Ms type: MS
Ion mode: POSITIVE
Column name: InertCap 5MS/NP 0.25 mmI.D. x 30 m, df=0.25 um
Retention time: 816.15
Derivative type: n TMS
m/z	relative intensity
86.050000	203
87.100000	24
88.100000	11
89.100000	3
90.100000	1
91.100000	1
92.100000	1
93.100000	2
94.100000	22
95.100000	3
96.050000	12
97.100000	5
98.100000	10
99.100000	15
100.100000	137
101.100000	22
102.100000	30
103.100000	12
104.100000	2
105.100000	3
106.100000	1
107.100000	1
108.100000	2
109.100000	2
110.100000	4
111.100000	4
112.100000	41
113.150000	15
114.150000	210
115.150000	38
116.150000	56
117.100000	24
118.100000	4
119.100000	6
120.100000	1
121.100000	2
122.100000	1
123.100000	1
124.100000	2
125.100000	2
126.150000	14
127.100000	5
128.150000	25
129.100000	16
130.100000	58
131.100000	41
132.150000	26
133.100000	39
134.100000	6
135.100000	4
136.100000	1
137.100000	1
138.100000	2
139.250000	4
140.200000	15
141.250000	10
142.200000	218
143.200000	35
144.150000	20
145.200000	4
146.200000	44
147.150000	207
148.150000	32
149.150000	24
150.100000	4
151.100000	2
152.200000	13
153.200000	2
154.150000	12
155.150000	5
156.200000	19
157.200000	33
158.200000	176
159.250000	23
160.200000	14
161.150000	7
162.100000	3
163.100000	2
164.100000	1
165.100000	1
166.100000	2
167.200000	4
168.200000	21
169.150000	6
170.200000	35
171.250000	25
172.150000	326
173.200000	64
174.200000	999
175.200000	191
176.200000	83
177.150000	10
178.200000	2
179.200000	1
181.200000	1
182.200000	2
183.150000	6
184.150000	39
185.150000	51
186.150000	25
187.150000	157
188.150000	38
189.200000	20
190.150000	22
191.200000	6
192.200000	3
193.200000	2
194.200000	1
195.200000	1
196.200000	3
197.100000	2
198.100000	11
199.250000	10
200.150000	856
201.150000	158
202.150000	78
203.100000	13
204.150000	11
205.150000	5
206.100000	2
207.100000	5
208.100000	2
209.100000	1
210.100000	4
211.150000	12
212.150000	18
213.150000	6
214.150000	18
215.150000	5
216.150000	26
217.150000	7
218.150000	8
219.150000	6
220.100000	3
221.100000	9
222.100000	3
223.100000	1
224.100000	1
225.100000	1
226.150000	8
227.100000	3
228.150000	9
229.100000	3
230.150000	12
231.200000	4
232.200000	4
233.200000	1
234.200000	1
235.200000	1
236.200000	1
237.200000	1
238.200000	1
239.200000	1
240.200000	2
241.200000	2
242.200000	4
243.200000	3
244.200000	11
245.150000	6
246.100000	4
247.100000	2
248.250000	8
249.200000	2
250.200000	1
251.200000	1
252.200000	1
253.200000	1
254.200000	1
255.200000	1
256.200000	2
257.200000	2
258.200000	40
259.150000	10
260.150000	8
261.150000	14
262.150000	10
263.200000	5
264.200000	3
265.200000	1
266.200000	1
267.200000	2
268.200000	1
269.200000	1
270.200000	1
271.200000	4
272.200000	3
273.200000	1
274.200000	9
275.200000	16
276.200000	4
277.200000	2
278.200000	1
279.200000	1
280.200000	1
281.200000	1
282.200000	2
283.200000	3
284.200000	2
285.250000	4
286.200000	43
287.250000	12
288.200000	30
289.200000	11
290.200000	5
291.200000	1
292.200000	1
294.200000	1
296.200000	1
298.200000	1
299.250000	27
300.200000	16
301.250000	10
302.250000	39
303.200000	10
304.250000	5
305.200000	1
307.200000	1
308.200000	1
309.200000	1
310.200000	1
311.200000	1
312.200000	1
313.200000	1
314.200000	2
315.200000	1
316.300000	4
317.250000	20
318.250000	7
319.300000	1
320.300000	2
321.300000	1
322.300000	1
323.300000	1
325.300000	1
326.300000	1
327.300000	1
328.300000	1
329.300000	1
330.250000	5
331.250000	6
332.200000	3
333.200000	5
334.300000	2
335.300000	58
336.250000	18
337.200000	9
338.200000	3
339.200000	1
341.200000	1
342.200000	1
343.200000	1
344.200000	1
345.200000	1
346.200000	1
347.200000	1
348.200000	1
349.200000	1
350.200000	1
351.200000	1
352.200000	1
353.200000	1
354.200000	1
355.200000	1
356.200000	1
357.250000	6
358.200000	3
359.200000	2
360.200000	1
361.200000	1
362.200000	1
363.200000	1
364.200000	1
365.200000	1
366.200000	1
367.200000	1
368.200000	1
371.200000	1
372.300000	6
373.350000	7
374.350000	4
375.250000	13
376.300000	3
377.300000	2
378.300000	1
379.300000	1
380.300000	1
381.300000	1
382.300000	1
383.300000	1
384.300000	1
386.300000	1
387.300000	1
388.300000	1
389.300000	4
390.300000	5
391.300000	2
392.300000	1
393.300000	1
395.300000	1
396.300000	1
397.300000	1
398.300000	1
400.300000	1
401.300000	1
402.300000	1
403.300000	1
404.300000	1
405.300000	1
406.300000	1
407.300000	1
408.300000	1
409.300000	1
410.300000	1
411.300000	1
412.300000	1
413.300000	1
414.300000	1
415.300000	1
416.300000	1
417.300000	1
418.300000	1
419.300000	1
420.300000	1
422.300000	1
423.300000	1
424.300000	1
427.300000	1
428.300000	1
429.300000	1
430.300000	1
431.300000	1
433.300000	1
434.300000	1
435.300000	1
437.300000	1
438.300000	1
441.300000	1
442.300000	1
443.300000	1
444.300000	1
445.300000	1
446.300000	1
447.300000	66
448.250000	28
449.300000	16
450.300000	5
451.300000	1
452.300000	1
453.300000	1
454.300000	1
455.300000	1
456.300000	1
457.300000	1
458.300000	1
460.300000	1
461.400000	2
462.350000	22
463.300000	10
464.350000	5
465.300000	1
466.300000	1
467.300000	1
468.300000	1
469.300000	1
470.300000	1
471.300000	1
472.300000	1
473.300000	1
474.300000	1
475.300000	1
476.300000	1
477.300000	1
478.300000	1
479.300000	1
481.300000	1
482.300000	1
483.300000	1
486.300000	1
487.300000	1
488.300000	1
489.300000	1
490.300000	1
491.300000	1
492.300000	1
493.300000	1
494.300000	1
496.300000	1
497.300000	1
498.300000	1
