Mass spectrum: Tryptamine; EI-B; MS; n TMS; RT: 909.84 s
Name: Tryptamine
Class: Natural Product
Formula: C10H12N2
Exact mass: 160.10005
SMILES: C1=CC=C2C(=C1)C(=CN2)CCN
InChI: InChI=1S/C10H12N2/c11-6-5-8-7-12-10-4-2-1-3-9(8)10/h1-4,7,12H,5-6,11H2
Instrument: GCMS-2010 Plus, Shimadzu
Instrument type: EI-B
Ms type: MS
Ion mode: POSITIVE
Column name: InertCap 5MS/NP 0.25 mmI.D. x 30 m, df=0.25 um
Retention time: 909.84
Derivative type: n TMS
m/z	relative intensity
86.050000	307
87.050000	28
88.050000	10
89.050000	4
90.000000	2
91.050000	3
92.100000	1
93.100000	1
94.100000	1
95.100000	1
96.100000	1
97.100000	1
98.100000	1
99.150000	3
100.050000	146
101.050000	18
102.050000	21
103.100000	16
104.100000	3
105.100000	1
106.100000	1
107.100000	1
108.100000	1
109.100000	1
110.100000	1
111.100000	1
112.100000	1
113.050000	3
114.050000	2
115.050000	13
116.050000	11
117.050000	20
118.100000	3
119.050000	2
120.100000	1
121.100000	1
122.100000	1
123.100000	1
124.100000	1
125.100000	1
126.100000	1
127.100000	2
128.100000	7
129.100000	6
130.050000	70
131.100000	20
132.050000	7
133.050000	2
134.000000	3
135.000000	1
136.100000	1
137.100000	30
138.050000	5
139.100000	1
140.100000	1
141.100000	1
142.100000	4
143.100000	10
144.100000	12
145.050000	7
146.100000	27
147.100000	10
148.100000	4
149.100000	1
150.100000	1
151.100000	1
152.100000	1
153.100000	1
154.100000	1
155.100000	1
156.050000	2
157.000000	1
158.100000	8
159.150000	2
160.100000	11
161.100000	2
162.100000	1
163.100000	1
164.100000	1
165.100000	1
167.100000	1
168.100000	1
169.100000	1
170.100000	2
171.100000	1
172.050000	13
173.150000	8
174.100000	999
175.100000	176
176.100000	79
177.100000	10
178.100000	2
179.050000	7
180.100000	1
181.100000	1
182.100000	1
183.100000	1
184.000000	3
185.000000	1
186.050000	5
187.000000	2
188.050000	13
189.000000	3
190.000000	2
191.000000	1
192.000000	1
193.000000	1
195.000000	1
196.000000	1
197.000000	1
198.000000	1
199.000000	3
200.050000	3
201.050000	41
202.050000	10
203.000000	3
204.000000	2
205.000000	1
206.000000	1
207.000000	3
208.000000	1
209.000000	1
210.000000	1
211.000000	1
212.000000	1
213.000000	1
214.050000	2
215.050000	27
216.000000	6
217.050000	3
218.000000	1
219.000000	1
220.000000	1
221.000000	1
222.000000	1
223.000000	1
225.000000	1
226.000000	1
227.000000	1
228.000000	1
229.000000	1
230.000000	1
231.000000	1
232.000000	1
233.000000	1
234.000000	1
235.000000	1
237.000000	1
238.000000	1
239.000000	1
240.000000	1
241.000000	1
242.000000	1
243.000000	1
244.000000	1
245.000000	1
246.000000	1
247.000000	1
249.000000	1
250.000000	1
251.000000	1
252.000000	1
253.000000	1
254.000000	1
255.000000	1
256.000000	1
257.000000	1
258.000000	1
259.000000	1
260.000000	1
261.000000	1
262.000000	1
263.000000	1
264.000000	1
265.000000	1
266.000000	1
267.000000	1
268.000000	1
269.000000	1
270.000000	1
271.000000	1
272.000000	1
273.000000	1
274.000000	1
275.000000	1
276.000000	1
277.000000	1
278.000000	1
279.000000	1
280.000000	1
281.000000	2
282.000000	1
283.000000	1
284.000000	1
285.000000	1
286.000000	1
287.150000	3
288.100000	1
289.150000	42
290.050000	12
291.050000	5
292.100000	1
293.100000	1
294.100000	1
295.100000	1
296.100000	1
297.100000	1
298.100000	1
299.100000	1
300.100000	1
301.100000	1
302.100000	1
303.100000	1
304.100000	3
305.100000	1
306.100000	1
307.100000	1
308.100000	1
309.100000	1
310.100000	1
311.100000	1
312.100000	1
313.100000	1
314.100000	1
315.100000	1
316.100000	1
317.100000	1
318.100000	1
320.100000	1
321.100000	1
323.100000	1
325.100000	1
326.100000	1
327.100000	1
328.100000	1
329.100000	1
330.100000	1
331.100000	1
332.100000	1
333.100000	1
334.100000	1
336.100000	1
337.100000	1
338.100000	1
339.100000	1
340.100000	1
341.100000	1
342.100000	1
343.100000	1
344.100000	1
345.100000	1
346.100000	1
348.100000	1
349.100000	1
351.100000	1
352.100000	1
353.100000	1
354.100000	1
355.100000	1
356.100000	1
357.100000	1
358.100000	1
359.100000	1
360.100000	1
361.100000	1
362.100000	1
363.100000	1
364.100000	1
366.100000	1
369.100000	1
370.100000	1
371.100000	1
372.100000	1
373.100000	1
374.100000	1
375.100000	1
376.100000	1
377.100000	1
378.100000	1
379.100000	1
380.100000	1
381.100000	1
382.100000	1
383.100000	1
384.100000	1
387.100000	1
389.100000	1
390.100000	1
391.100000	1
393.100000	1
394.100000	1
395.100000	1
396.100000	1
397.100000	1
398.100000	1
399.100000	1
401.100000	1
402.100000	1
404.100000	1
405.100000	1
406.100000	1
409.100000	1
410.100000	1
411.100000	1
412.100000	1
413.100000	1
414.100000	1
416.100000	1
417.100000	1
418.100000	1
419.100000	1
420.100000	1
421.100000	1
424.100000	1
425.100000	1
426.100000	1
427.100000	1
428.100000	1
429.100000	1
431.100000	1
432.100000	1
433.100000	1
434.100000	1
435.100000	1
436.100000	1
437.100000	1
438.100000	1
439.100000	1
440.100000	1
441.100000	1
442.100000	1
443.100000	1
444.100000	1
445.100000	1
446.100000	1
447.100000	1
448.100000	1
449.100000	1
450.100000	1
451.100000	1
452.100000	1
453.100000	1
454.100000	1
455.100000	1
456.100000	1
457.100000	1
458.100000	1
459.100000	1
460.100000	1
461.100000	1
462.100000	1
463.100000	1
464.100000	1
465.100000	1
466.100000	1
467.100000	1
468.100000	1
469.100000	1
470.100000	1
471.100000	1
472.100000	1
475.100000	1
476.100000	1
477.100000	1
478.100000	1
479.100000	1
480.100000	1
481.100000	1
483.100000	1
484.100000	1
486.100000	1
489.100000	1
490.100000	1
491.100000	1
492.100000	1
494.100000	1
497.100000	1
498.100000	1
499.100000	1
