Mass spectrum: D-3-Phenyllactic acid; EI-B; MS; 2 TMS; RT: 632.60 s
Name: D-3-Phenyllactic acid
Class: Natural Product
Formula: C9H10O3
Exact mass: 166.06299
SMILES: OC(=O)C(O)Cc(c1)cccc1
InChI: InChI=1S/C9H10O3/c10-8(9(11)12)6-7-4-2-1-3-5-7/h1-5,8,10H,6H2,(H,11,12)/t8-/m1/s1
Instrument: GCMS-2010 Plus, Shimadzu
Instrument type: EI-B
Ms type: MS
Ion mode: POSITIVE
Column name: InertCap 5MS/NP 0.25 mmI.D. x 30 m, df=0.25 um
Retention time: 632.60
Derivative type: 2 TMS
m/z	relative intensity
86.000000	1
87.000000	4
88.050000	1
89.050000	6
90.150000	3
91.050000	63
92.050000	6
93.100000	1
94.100000	1
95.100000	1
96.000000	1
97.050000	2
98.000000	1
99.050000	2
100.000000	1
101.000000	9
102.050000	7
103.050000	37
104.050000	34
105.050000	12
106.050000	1
107.050000	2
108.000000	1
109.000000	1
110.000000	1
111.000000	1
112.000000	1
113.100000	1
114.100000	1
115.050000	9
116.100000	6
117.050000	16
118.100000	5
119.100000	14
120.050000	3
121.050000	12
122.050000	2
123.100000	1
124.100000	1
125.100000	1
126.100000	4
127.050000	1
128.100000	1
129.100000	3
130.150000	1
131.100000	74
132.100000	10
133.050000	74
134.100000	10
135.100000	22
136.100000	3
137.150000	1
138.100000	1
139.100000	1
140.150000	3
141.200000	1
142.100000	1
143.100000	1
144.100000	1
145.100000	6
146.150000	4
147.150000	703
148.100000	113
149.100000	57
150.150000	6
151.100000	2
152.100000	1
153.100000	1
154.100000	1
155.100000	1
156.100000	1
157.100000	1
158.100000	1
159.050000	3
160.150000	1
161.100000	23
162.100000	4
163.100000	16
164.150000	3
165.100000	1
166.100000	1
167.100000	1
168.100000	1
169.100000	1
170.100000	1
171.100000	1
172.100000	1
173.100000	1
174.100000	1
175.100000	7
176.100000	6
177.100000	15
178.100000	6
179.100000	2
180.100000	1
181.100000	1
183.100000	1
184.100000	1
185.100000	1
186.100000	1
187.100000	1
188.100000	1
189.100000	1
190.100000	25
191.100000	20
192.150000	30
193.100000	999
194.050000	163
195.050000	45
196.100000	5
197.100000	1
198.100000	1
199.100000	1
200.100000	1
201.100000	1
202.100000	1
203.100000	1
204.150000	2
205.050000	56
206.050000	10
207.050000	4
208.000000	1
209.000000	1
210.000000	1
211.000000	1
212.000000	1
213.000000	1
214.000000	1
215.000000	1
216.000000	1
217.000000	1
218.150000	1
219.050000	82
220.050000	243
221.050000	47
222.050000	12
223.000000	1
224.000000	1
225.000000	1
228.000000	1
229.000000	1
230.000000	1
231.000000	1
232.000000	1
233.000000	1
234.000000	1
235.050000	6
236.000000	1
237.000000	1
238.000000	1
240.000000	1
241.000000	1
242.000000	1
243.000000	1
244.000000	1
245.000000	1
246.000000	1
247.000000	1
249.000000	1
250.100000	1
251.050000	5
252.050000	1
253.050000	2
254.100000	1
255.100000	1
256.100000	1
258.100000	1
259.100000	1
260.100000	1
261.100000	1
262.100000	1
263.100000	1
264.100000	1
265.100000	1
266.100000	1
267.150000	134
268.100000	31
269.100000	12
270.100000	2
271.100000	1
272.100000	1
273.100000	1
274.100000	1
276.100000	1
277.100000	1
278.100000	1
279.050000	2
280.000000	1
281.000000	1
282.000000	1
283.000000	1
284.000000	1
285.000000	1
286.000000	1
287.000000	1
288.000000	1
289.000000	1
291.000000	1
292.000000	1
293.000000	1
294.100000	1
295.100000	73
296.100000	18
297.100000	7
298.050000	1
299.100000	1
300.100000	1
302.100000	1
303.100000	1
307.100000	1
308.100000	1
309.100000	1
310.100000	1
311.100000	1
312.100000	1
314.100000	1
316.100000	1
318.100000	1
320.100000	1
322.100000	1
323.100000	1
324.100000	1
325.100000	1
326.100000	1
327.100000	1
328.100000	1
330.100000	1
331.100000	1
332.100000	1
333.100000	1
334.100000	1
335.100000	1
336.100000	1
337.100000	1
338.100000	1
339.100000	1
340.100000	1
341.100000	1
343.100000	1
344.100000	1
345.100000	1
346.100000	1
348.100000	1
349.100000	1
350.100000	1
351.100000	1
352.100000	1
353.100000	1
354.100000	1
355.100000	1
357.100000	1
358.100000	1
359.100000	1
360.100000	1
361.100000	1
363.100000	1
364.100000	1
365.100000	1
366.100000	1
367.100000	1
368.100000	1
369.100000	1
370.100000	1
371.100000	1
372.100000	1
373.100000	1
374.100000	1
375.100000	1
376.100000	1
377.100000	1
378.100000	1
379.100000	1
381.100000	1
382.100000	1
383.100000	1
384.100000	1
385.100000	1
386.100000	1
387.100000	1
388.100000	1
389.100000	1
391.100000	1
392.100000	1
393.100000	1
394.100000	1
398.100000	1
401.100000	1
402.100000	1
403.100000	1
404.100000	1
406.100000	1
407.100000	1
408.100000	1
409.100000	1
411.100000	1
413.100000	1
415.100000	1
416.100000	1
417.100000	1
418.100000	1
419.100000	1
420.100000	1
421.100000	1
423.100000	1
424.100000	1
425.100000	1
426.100000	1
427.100000	1
428.100000	1
429.100000	1
431.100000	1
432.100000	1
433.100000	1
434.100000	1
435.100000	1
436.100000	1
437.100000	1
438.100000	1
440.100000	1
441.100000	1
442.100000	1
443.100000	1
444.100000	1
446.100000	1
447.100000	1
448.100000	1
449.100000	1
450.100000	1
451.100000	1
454.100000	1
456.100000	1
457.100000	1
458.100000	1
459.100000	1
460.100000	1
461.100000	1
462.100000	1
463.100000	1
464.100000	1
466.100000	1
467.100000	1
468.100000	1
470.100000	1
471.100000	1
472.100000	1
475.100000	1
476.100000	1
477.100000	1
478.100000	1
480.100000	1
481.100000	1
482.100000	1
483.100000	1
484.100000	1
485.100000	1
486.100000	1
487.100000	1
488.100000	1
491.100000	1
493.100000	1
494.100000	1
496.100000	1
497.100000	1
498.100000	1
499.100000	1
