Mass spectrum: D-homoserine; EI-B; MS; 3 TMS; RT: 558.55 s
Name: D-homoserine
Class: Natural Product
Formula: C4H9NO3
Exact mass: 119.05824
SMILES: OCCC(N)C(O)=O
InChI: InChI=1S/C4H9NO3/c5-3(1-2-6)4(7)8/h3,6H,1-2,5H2,(H,7,8)/t3-/m1/s1
Instrument: GCMS-2010 Plus, Shimadzu
Instrument type: EI-B
Ms type: MS
Ion mode: POSITIVE
Column name: InertCap 5MS/NP 0.25 mmI.D. x 30 m, df=0.25 um
Retention time: 558.55
Derivative type: 3 TMS
m/z	relative intensity
86.050000	8
87.000000	5
88.050000	2
89.050000	3
90.100000	1
91.100000	1
92.100000	1
93.100000	1
94.100000	1
95.100000	1
96.100000	1
97.100000	1
98.050000	6
99.150000	2
100.100000	59
101.100000	15
102.100000	47
103.100000	270
104.100000	27
105.050000	13
106.100000	1
107.100000	1
108.100000	1
109.100000	1
110.100000	1
111.100000	1
112.100000	6
113.100000	2
114.100000	13
115.050000	7
116.050000	5
117.050000	12
118.050000	3
119.000000	5
120.000000	1
121.000000	1
122.000000	1
123.000000	1
124.000000	1
125.000000	1
126.050000	2
127.150000	2
128.100000	419
129.100000	55
130.100000	44
131.100000	44
132.100000	18
133.100000	35
134.100000	7
135.050000	4
136.000000	1
137.000000	1
138.000000	1
139.000000	1
140.100000	2
141.100000	1
142.100000	4
143.100000	1
144.100000	5
145.150000	1
146.150000	18
147.100000	114
148.100000	20
149.100000	15
150.050000	3
151.100000	1
152.100000	1
153.100000	1
154.100000	1
155.100000	1
156.100000	6
157.100000	2
158.100000	8
159.050000	3
160.100000	1
161.100000	1
162.100000	1
163.100000	2
164.100000	1
165.100000	1
166.100000	1
168.100000	1
169.100000	1
170.100000	1
171.100000	1
172.100000	6
173.100000	3
174.100000	11
175.050000	3
176.100000	4
177.050000	4
178.000000	1
179.000000	1
180.000000	1
181.000000	1
182.000000	1
183.000000	1
184.000000	1
185.000000	1
186.000000	2
187.100000	1
188.100000	8
189.050000	2
190.050000	2
191.050000	5
192.050000	1
193.050000	1
194.100000	1
195.100000	1
196.100000	1
198.100000	1
199.100000	1
200.100000	3
201.150000	1
202.100000	42
203.100000	9
204.100000	6
205.050000	1
206.000000	1
207.000000	1
208.000000	1
209.000000	1
210.000000	1
212.000000	1
213.000000	1
214.100000	1
215.100000	1
216.100000	15
217.150000	15
218.100000	999
219.100000	216
220.100000	91
221.100000	15
222.100000	3
223.100000	1
224.100000	1
225.100000	1
226.100000	1
227.100000	1
228.100000	1
229.100000	1
230.100000	47
231.100000	10
232.100000	9
233.050000	2
234.100000	1
235.100000	1
236.100000	1
237.100000	1
238.100000	1
239.100000	1
240.100000	1
241.100000	1
242.100000	1
243.100000	1
244.100000	1
245.100000	4
246.100000	2
247.100000	1
248.100000	1
249.100000	1
250.100000	1
251.100000	1
252.100000	1
253.100000	1
254.100000	1
255.100000	1
256.100000	1
257.100000	1
258.100000	1
260.100000	1
261.100000	1
262.100000	1
263.100000	1
264.100000	1
265.100000	1
266.100000	1
267.100000	1
268.100000	1
269.100000	1
270.100000	1
271.100000	1
272.100000	1
275.100000	1
276.100000	1
277.100000	1
278.100000	1
279.100000	1
280.100000	1
281.100000	1
282.100000	1
283.100000	1
284.100000	1
285.100000	1
286.100000	1
287.100000	1
288.100000	1
289.100000	1
290.150000	3
291.250000	1
292.150000	38
293.100000	10
294.150000	6
295.100000	1
296.100000	1
297.100000	1
298.100000	1
299.100000	1
301.100000	1
302.100000	1
303.100000	1
304.100000	1
305.100000	1
306.100000	1
309.100000	1
310.100000	1
311.100000	1
312.100000	1
313.100000	1
314.100000	1
315.100000	1
316.100000	1
317.100000	1
318.100000	1
319.200000	1
320.150000	15
321.150000	5
322.150000	3
323.200000	1
324.200000	1
325.200000	1
326.200000	1
327.200000	1
328.200000	1
329.200000	1
330.200000	1
331.200000	1
332.200000	1
334.200000	1
335.150000	8
336.150000	3
337.200000	1
338.200000	1
339.200000	1
340.200000	1
341.200000	1
342.200000	1
343.200000	1
344.200000	1
345.200000	1
346.200000	1
347.200000	1
348.200000	1
349.200000	1
350.200000	1
351.200000	1
352.200000	1
353.200000	1
355.200000	1
358.200000	1
359.200000	1
360.200000	1
361.200000	1
362.200000	1
363.200000	1
365.200000	1
366.200000	1
367.200000	1
370.200000	1
371.200000	1
374.200000	1
375.200000	1
376.200000	1
377.200000	1
378.200000	1
379.200000	1
381.200000	1
382.200000	1
383.200000	1
384.200000	1
385.200000	1
386.200000	1
387.200000	1
388.200000	1
389.200000	1
390.200000	1
391.200000	1
392.200000	1
393.200000	1
395.200000	1
396.200000	1
397.200000	1
400.200000	1
401.200000	1
402.200000	1
403.200000	1
405.200000	1
406.200000	1
407.200000	1
408.200000	1
409.200000	1
410.200000	1
411.200000	1
413.200000	1
414.200000	1
415.200000	1
416.200000	1
417.200000	1
420.200000	1
421.200000	1
424.200000	1
425.200000	1
426.200000	1
427.200000	1
429.200000	1
430.200000	1
431.200000	1
432.200000	1
433.200000	1
434.200000	1
435.200000	1
436.200000	1
439.200000	1
440.200000	1
442.200000	1
444.200000	1
446.200000	1
447.200000	1
448.200000	1
450.200000	1
452.200000	1
453.200000	1
454.200000	1
456.200000	1
457.200000	1
458.200000	1
459.200000	1
460.200000	1
461.200000	1
462.200000	1
463.200000	1
464.200000	1
465.200000	1
466.200000	1
467.200000	1
468.200000	1
469.200000	1
470.200000	1
471.200000	1
472.200000	1
473.200000	1
474.200000	1
475.200000	1
476.200000	1
477.200000	1
478.200000	1
479.200000	1
480.200000	1
481.200000	1
482.200000	1
483.200000	1
485.200000	1
486.200000	1
489.200000	1
490.200000	1
491.200000	1
492.200000	1
494.200000	1
495.200000	1
496.200000	1
497.200000	1
498.200000	1
499.200000	1
