Mass spectrum: DL-Cystathionine; EI-B; MS; 4 TMS; RT: 908.94 s
Name: DL-Cystathionine
Class: Natural Product
Formula: C7H14N2O4S
Exact mass: 222.06743
SMILES: OC(=O)[C@@H](N)CCSC[C@H](N)C(O)=O
InChI: InChI=1S/C7H14N2O4S/c8-4(6(10)11)1-2-14-3-5(9)7(12)13/h4-5H,1-3,8-9H2,(H,10,11)(H,12,13)
Instrument: GCMS-2010 Plus, Shimadzu
Instrument type: EI-B
Ms type: MS
Ion mode: POSITIVE
Column name: InertCap 5MS/NP 0.25 mmI.D. x 30 m, df=0.25 um
Retention time: 908.94
Derivative type: 4 TMS
m/z	relative intensity
86.000000	41
87.000000	54
88.000000	101
89.000000	39
90.000000	46
91.000000	19
92.000000	10
93.000000	29
94.000000	28
95.000000	16
96.000000	35
97.000000	26
98.000000	41
99.000000	21
100.100000	322
101.100000	33
102.100000	66
103.100000	22
104.100000	30
105.100000	52
106.100000	37
107.100000	12
108.100000	18
109.100000	19
110.100000	51
111.100000	51
112.100000	58
113.100000	30
114.100000	123
115.100000	90
116.100000	117
117.100000	83
118.100000	15
119.100000	44
120.100000	15
121.100000	17
122.100000	4
123.100000	23
124.100000	7
125.100000	18
126.100000	43
127.100000	39
128.150000	999
129.100000	213
130.100000	109
131.100000	208
132.100000	61
133.100000	82
134.100000	48
135.100000	35
136.100000	51
137.100000	17
138.100000	32
139.100000	7
140.100000	15
141.100000	11
142.100000	19
143.100000	25
144.100000	52
145.100000	8
146.100000	16
147.100000	254
148.100000	112
149.100000	45
150.100000	49
151.100000	8
153.100000	11
154.100000	16
155.100000	14
156.100000	22
157.100000	8
158.100000	10
159.100000	57
160.100000	186
161.100000	42
162.100000	65
163.100000	47
164.100000	8
165.100000	17
166.100000	19
167.100000	19
168.100000	8
169.100000	43
170.100000	31
171.100000	34
172.100000	15
173.100000	19
174.100000	29
175.100000	13
176.100000	33
177.100000	15
178.100000	13
179.100000	9
180.100000	7
181.100000	26
182.100000	10
183.100000	20
184.100000	14
185.100000	10
186.100000	11
187.100000	23
188.100000	64
189.100000	33
190.100000	42
191.100000	50
192.100000	6
193.100000	20
194.100000	22
195.100000	13
196.100000	15
197.100000	22
198.100000	6
199.100000	16
200.100000	4
201.100000	31
202.100000	145
203.100000	40
204.100000	28
205.100000	47
206.100000	53
207.100000	214
208.100000	53
209.100000	27
210.100000	13
211.100000	4
212.100000	21
213.100000	6
214.100000	22
216.100000	63
217.100000	7
218.150000	951
219.150000	346
220.100000	108
221.100000	56
222.100000	15
223.100000	16
224.100000	2
225.100000	6
228.100000	12
230.100000	37
231.100000	38
232.100000	68
233.100000	29
234.100000	12
235.100000	6
236.100000	11
237.100000	24
238.100000	26
239.100000	9
240.100000	13
241.100000	10
242.100000	3
244.100000	36
245.100000	145
246.100000	78
247.100000	31
248.100000	12
249.100000	24
250.100000	17
251.100000	22
252.100000	27
253.100000	32
254.100000	37
255.100000	14
257.100000	1
258.100000	45
259.100000	3
260.100000	44
261.100000	27
262.100000	24
263.100000	20
264.100000	33
265.100000	48
266.100000	5
267.100000	17
268.100000	20
269.100000	21
270.100000	27
271.100000	19
273.100000	13
274.100000	30
275.100000	16
276.100000	6
277.100000	15
278.200000	217
279.200000	103
280.200000	63
281.200000	94
282.200000	27
283.200000	37
285.200000	8
288.200000	41
289.200000	33
291.200000	104
292.200000	141
293.200000	78
294.200000	48
295.200000	14
296.200000	13
297.200000	20
298.200000	18
299.200000	31
300.200000	19
301.200000	3
302.200000	11
304.200000	32
305.200000	10
306.200000	13
307.200000	15
309.200000	24
310.200000	11
311.200000	1
313.200000	11
314.200000	6
315.200000	15
317.200000	17
318.200000	17
319.200000	8
320.200000	1
321.200000	23
323.200000	3
324.200000	11
325.200000	12
326.200000	8
327.200000	29
328.200000	17
329.200000	14
330.200000	22
331.200000	22
332.200000	22
333.200000	22
334.200000	22
335.200000	10
336.200000	10
339.200000	21
340.200000	15
341.200000	37
342.200000	17
343.200000	17
344.200000	11
346.200000	9
347.200000	13
348.200000	20
349.200000	15
350.200000	6
351.200000	13
352.200000	25
353.200000	6
354.200000	7
355.200000	7
356.200000	40
357.200000	50
358.200000	1
359.200000	27
360.200000	10
361.200000	3
362.200000	9
363.200000	12
364.200000	9
367.200000	8
368.200000	10
369.200000	14
370.200000	13
372.200000	9
373.200000	11
374.200000	4
375.200000	11
376.200000	11
377.200000	17
379.200000	7
380.200000	3
382.200000	9
383.200000	2
384.200000	7
385.200000	6
386.200000	38
388.200000	10
389.200000	17
390.200000	6
391.200000	7
392.200000	14
393.200000	4
397.200000	8
399.200000	12
400.200000	8
401.200000	11
402.200000	6
403.200000	33
404.200000	27
405.200000	16
406.200000	14
407.200000	7
408.200000	1
409.200000	15
412.200000	16
413.200000	1
414.200000	28
415.200000	31
416.200000	4
417.200000	6
418.200000	6
419.200000	3
420.200000	4
421.200000	3
422.200000	21
423.200000	9
424.200000	17
425.200000	8
426.200000	30
428.200000	5
431.200000	10
432.200000	6
433.200000	5
434.200000	18
435.200000	11
437.200000	32
438.200000	9
439.200000	11
440.200000	26
441.200000	8
442.200000	16
443.200000	3
444.200000	13
445.200000	16
446.200000	6
447.200000	18
448.200000	10
449.200000	8
450.200000	26
451.200000	10
452.200000	12
453.200000	19
454.200000	6
455.200000	39
456.200000	4
457.200000	22
459.200000	16
460.200000	7
461.200000	9
462.200000	4
463.200000	19
464.200000	10
465.200000	6
466.200000	8
467.200000	12
468.200000	9
470.200000	12
471.200000	17
472.200000	17
473.200000	12
475.200000	7
476.200000	22
477.200000	14
478.200000	24
479.200000	1
480.200000	29
481.200000	19
482.200000	14
483.200000	6
484.200000	6
485.200000	26
486.200000	9
487.200000	5
489.200000	11
490.200000	26
491.200000	30
492.200000	15
493.200000	33
495.200000	6
496.200000	1
497.200000	32
498.200000	8
