Mass spectrum: D-(+)-Xylose; EI-B; MS; 4 TMS; RT: 669.50 s
Name: D-(+)-Xylose
Class: Natural Product
Formula: C5H10O5
Exact mass: 150.05282
SMILES: O[C@H](C1)[C@H](O)[C@@H](O)[C@@H](O)O1
InChI: InChI=1S/C5H10O5/c6-2-1-10-5(9)4(8)3(2)7/h2-9H,1H2/t2-,3+,4-,5+/m1/s1
Instrument: GCMS-2010 Plus, Shimadzu
Instrument type: EI-B
Ms type: MS
Ion mode: POSITIVE
Column name: InertCap 5MS/NP 0.25 mmI.D. x 30 m, df=0.25 um
Retention time: 669.08
Derivative type: 4 TMS
m/z	relative intensity
85.600000	2
87.000000	7
88.000000	4
89.000000	87
90.000000	8
91.000000	5
92.000000	1
94.000000	1
95.000000	1
96.000000	1
97.000000	1
98.000000	2
98.950000	5
100.000000	57
101.000000	25
102.050000	21
103.050000	999
104.050000	90
105.050000	54
106.000000	4
107.000000	2
108.000000	1
109.000000	1
110.000000	1
111.000000	3
112.000000	2
113.000000	6
114.000000	5
114.950000	6
115.950000	9
117.000000	84
118.000000	9
119.000000	13
120.000000	1
121.000000	1
122.000000	1
123.000000	1
124.000000	1
125.000000	1
126.000000	4
127.000000	4
128.000000	3
129.000000	92
130.000000	17
131.000000	41
132.000000	7
133.000000	88
134.000000	10
135.000000	8
136.000000	1
137.000000	1
138.000000	1
139.000000	1
140.000000	3
141.000000	2
142.000000	6
143.000000	20
144.000000	4
145.000000	8
146.000000	2
147.000000	312
148.000000	48
149.000000	28
150.000000	3
151.000000	2
152.000000	1
153.000000	1
154.000000	1
155.000000	1
156.000000	1
157.050000	14
158.000000	9
159.050000	5
160.000000	68
161.000000	23
162.000000	5
163.000000	18
164.000000	2
165.000000	1
166.000000	2
167.000000	1
168.000000	2
169.000000	1
170.000000	1
171.000000	1
172.000000	14
173.050000	7
174.000000	11
174.950000	11
176.000000	3
176.950000	8
178.000000	2
179.000000	2
180.000000	1
181.000000	1
182.000000	1
183.000000	1
184.000000	1
185.000000	2
186.000000	2
187.000000	2
188.000000	4
188.950000	134
189.950000	24
191.000000	43
192.000000	6
193.000000	3
194.000000	1
195.000000	1
196.000000	1
197.000000	1
198.000000	1
199.000000	1
200.000000	3
200.950000	23
202.000000	5
202.950000	11
203.950000	87
204.950000	76
206.000000	17
206.900000	11
207.900000	2
208.900000	1
209.900000	1
211.900000	1
212.900000	1
213.900000	7
214.900000	5
216.050000	9
216.950000	743
217.950000	149
218.950000	67
219.950000	10
220.950000	9
221.900000	1
222.900000	2
223.900000	1
224.900000	1
225.900000	1
226.900000	1
227.900000	2
228.900000	3
229.900000	4
230.900000	11
231.950000	8
233.000000	67
233.950000	18
235.000000	10
236.000000	2
237.000000	1
238.000000	1
239.000000	1
240.000000	4
241.000000	1
242.000000	3
243.000000	1
244.000000	2
245.000000	1
246.000000	5
247.000000	3
248.000000	4
249.000000	2
250.000000	1
251.000000	1
252.000000	1
253.000000	1
254.000000	1
255.000000	1
255.950000	11
256.900000	4
257.900000	2
258.900000	1
259.900000	1
260.900000	1
261.950000	20
263.000000	5
264.000000	3
265.000000	1
266.000000	1
267.000000	1
268.000000	1
269.000000	1
270.000000	1
271.000000	1
272.000000	1
273.000000	1
274.000000	3
275.000000	1
276.000000	1
277.000000	73
277.950000	23
279.000000	11
280.000000	2
281.000000	1
282.000000	1
283.000000	1
284.000000	1
285.000000	1
286.000000	1
287.000000	1
288.000000	7
289.000000	2
290.000000	2
290.950000	9
292.000000	3
293.000000	2
294.000000	1
295.000000	1
296.000000	1
299.000000	1
300.000000	1
301.000000	1
302.000000	4
303.000000	4
304.000000	2
305.000000	4
306.000000	3
307.000000	292
307.950000	81
308.950000	41
309.950000	8
310.900000	2
311.900000	1
312.900000	1
313.900000	1
314.900000	1
315.900000	1
316.900000	1
317.900000	1
318.900000	2
319.900000	2
320.900000	1
321.900000	1
322.900000	1
323.900000	1
324.900000	1
325.900000	1
326.900000	1
327.900000	1
328.900000	1
329.900000	6
330.900000	2
331.900000	3
332.900000	1
333.900000	1
334.900000	1
335.900000	1
336.900000	1
337.900000	1
338.900000	1
340.900000	1
341.900000	1
342.900000	1
343.900000	1
344.900000	1
345.900000	1
346.900000	1
347.900000	1
348.900000	1
349.900000	1
350.900000	1
351.900000	1
352.900000	1
353.900000	1
354.900000	1
355.900000	1
356.900000	1
357.900000	1
358.900000	1
359.900000	1
360.900000	1
361.900000	1
362.900000	1
363.900000	1
364.900000	1
365.900000	1
366.900000	1
367.900000	1
368.900000	1
369.900000	1
370.900000	1
371.900000	1
372.900000	1
373.900000	1
375.900000	1
376.900000	1
377.900000	1
378.900000	1
380.900000	1
381.900000	1
382.900000	1
383.900000	1
384.900000	1
385.900000	1
386.900000	1
387.900000	1
388.900000	1
389.900000	1
390.900000	1
392.900000	1
393.900000	1
394.900000	1
396.900000	1
397.900000	1
398.900000	1
399.900000	1
401.900000	1
402.900000	1
403.900000	1
404.900000	1
405.900000	1
406.900000	1
407.900000	1
408.900000	1
409.900000	1
410.900000	1
411.900000	1
412.900000	1
413.900000	1
414.900000	1
415.900000	1
416.900000	1
417.900000	1
418.900000	1
419.900000	1
420.900000	1
421.900000	1
423.900000	1
425.900000	1
427.900000	1
428.900000	1
429.900000	1
431.900000	1
432.900000	1
433.900000	1
434.900000	1
435.900000	1
436.900000	1
437.900000	1
438.900000	1
440.900000	1
441.900000	1
443.900000	1
444.900000	1
445.900000	1
446.900000	1
447.900000	1
448.900000	1
449.900000	1
450.900000	1
451.900000	1
452.900000	1
453.900000	1
454.900000	1
455.900000	1
456.900000	1
457.900000	1
458.900000	1
459.900000	1
461.900000	1
462.900000	1
463.900000	1
464.900000	1
465.900000	1
466.900000	3
467.900000	1
468.900000	1
469.900000	1
470.900000	1
471.900000	1
472.900000	1
473.900000	1
474.900000	1
476.900000	1
477.900000	1
478.900000	1
479.900000	1
481.900000	1
482.900000	1
483.900000	1
486.900000	1
487.900000	1
488.900000	1
489.900000	1
490.900000	1
491.900000	1
493.900000	1
495.900000	1
497.900000	1
498.900000	1
