Mass spectrum: DL-Ethionine; EI-B; MS; n TMS; RT: 630.00
Name: DL-Ethionine
Class: Natural Product
Formula: C7H15NOS
Exact mass: 161.08743
SMILES: CCSCCC(N)C(C)=O
InChI: InChI=1S/C7H15NOS/c1-3-10-5-4-7(8)6(2)9/h7H,3-5,8H2,1-2H3
Instrument: GCMS-2010 Plus, Shimadzu
Instrument type: EI-B
Ms type: MS
Ion mode: POSITIVE
Column name: InertCap 5MS/NP 0.25 mmI.D. x 30 m, df=0.25 um
Retention time: 630.00
Derivative type: n TMS
m/z	relative intensity
86.050000	11
87.050000	4
88.050000	5
89.050000	27
90.000000	3
91.000000	11
92.000000	1
93.000000	1
94.500000	1
96.050000	1
97.050000	2
98.050000	8
99.100000	4
100.050000	94
101.050000	21
102.050000	15
103.000000	18
104.050000	2
105.050000	4
106.000000	1
107.000000	1
108.000000	1
109.000000	1
110.000000	1
111.100000	1
112.100000	7
113.100000	3
114.100000	39
115.050000	12
116.050000	9
117.050000	11
118.050000	8
119.050000	12
120.100000	2
121.000000	1
122.000000	1
123.000000	1
124.000000	1
125.000000	1
126.100000	4
127.150000	4
128.100000	736
129.100000	98
130.100000	41
131.050000	17
132.050000	13
133.050000	26
134.050000	5
135.050000	5
136.100000	1
137.100000	1
138.100000	1
139.100000	1
140.050000	1
141.100000	2
142.100000	5
143.100000	3
144.100000	4
145.050000	2
146.100000	8
147.100000	144
148.100000	24
149.100000	14
150.050000	2
151.100000	1
152.100000	1
153.100000	1
154.100000	1
155.200000	1
156.150000	3
157.100000	2
158.100000	4
159.100000	3
160.100000	19
161.050000	4
162.100000	5
163.100000	4
164.150000	1
165.050000	2
166.100000	1
167.100000	1
168.100000	1
169.100000	1
170.100000	1
171.050000	1
172.100000	6
173.050000	4
174.100000	14
175.050000	4
176.050000	3
177.150000	1
178.100000	1
179.100000	1
180.100000	1
181.100000	1
182.100000	1
183.100000	1
184.100000	1
185.100000	1
186.050000	2
187.000000	1
188.050000	53
189.150000	18
190.100000	999
191.100000	152
192.100000	88
193.100000	10
194.050000	2
195.000000	1
196.000000	1
197.000000	1
198.000000	1
199.000000	1
200.000000	1
201.150000	1
202.100000	84
203.050000	22
204.100000	8
205.100000	2
206.100000	1
207.100000	1
208.100000	1
209.100000	1
210.100000	1
211.100000	1
212.100000	1
213.100000	1
214.100000	1
215.100000	1
216.100000	3
217.100000	9
218.100000	84
219.100000	170
220.050000	40
221.050000	15
222.100000	2
223.100000	1
224.100000	1
225.100000	1
226.100000	1
227.100000	1
228.100000	1
229.100000	1
230.100000	12
231.150000	3
232.100000	44
233.050000	11
234.100000	4
235.100000	2
236.100000	1
237.100000	1
238.100000	1
239.100000	1
240.100000	1
241.100000	1
243.100000	1
244.150000	1
245.150000	4
246.150000	2
247.050000	1
248.100000	1
249.100000	1
250.100000	1
251.100000	1
252.100000	1
253.100000	1
254.100000	1
255.100000	1
256.100000	1
258.100000	1
259.100000	1
260.100000	1
261.100000	1
262.100000	1
263.100000	11
264.100000	64
265.150000	16
266.100000	10
267.050000	2
268.000000	1
269.000000	1
270.000000	1
272.000000	1
275.000000	1
276.000000	1
277.000000	1
278.100000	2
279.100000	1
280.100000	1
281.100000	1
282.100000	1
284.100000	1
285.100000	1
286.100000	1
287.100000	1
288.100000	1
289.100000	1
290.100000	1
291.100000	1
292.150000	7
293.050000	2
294.150000	1
295.100000	1
296.100000	1
297.100000	1
298.100000	1
299.100000	1
301.100000	1
302.100000	1
303.100000	1
304.100000	1
305.100000	1
306.250000	2
307.150000	121
308.100000	31
309.150000	18
310.050000	4
311.150000	1
312.100000	1
314.100000	1
315.100000	1
316.100000	1
317.100000	1
319.100000	1
320.100000	1
321.100000	1
324.100000	1
325.100000	1
326.100000	1
327.100000	1
328.100000	1
329.100000	1
330.100000	1
333.100000	1
334.100000	1
335.100000	1
336.100000	1
337.100000	1
339.100000	1
340.100000	1
341.100000	1
342.100000	1
343.100000	1
344.100000	1
345.100000	1
346.100000	1
347.100000	1
348.100000	1
349.100000	1
350.100000	1
351.100000	1
352.100000	1
353.100000	1
354.100000	1
355.100000	1
356.100000	1
357.100000	1
359.100000	1
360.100000	1
361.100000	1
362.100000	1
363.100000	1
364.100000	1
367.100000	1
369.100000	1
370.100000	1
372.100000	1
373.100000	1
374.100000	1
375.100000	1
376.100000	1
377.100000	1
380.100000	1
381.100000	1
382.100000	1
383.100000	1
385.100000	1
386.100000	1
387.100000	1
388.100000	1
389.100000	1
390.100000	1
391.100000	1
392.100000	1
395.100000	1
397.100000	1
398.100000	1
399.100000	1
400.100000	1
401.100000	1
402.100000	1
403.100000	1
404.100000	1
405.100000	1
406.100000	1
407.100000	1
408.100000	1
410.100000	1
411.100000	1
413.100000	1
414.100000	1
416.100000	1
417.100000	1
418.100000	1
419.100000	1
420.100000	1
421.100000	1
424.100000	1
425.100000	1
427.100000	1
428.100000	1
429.100000	1
430.100000	1
431.100000	1
432.100000	1
433.100000	1
434.100000	1
435.100000	1
436.100000	1
437.100000	1
438.100000	1
439.100000	1
440.100000	1
442.100000	1
443.100000	1
446.100000	1
447.100000	1
449.100000	1
451.100000	1
452.100000	1
453.100000	1
454.100000	1
455.100000	1
456.100000	1
457.100000	1
459.100000	1
460.100000	1
461.100000	1
463.100000	1
464.100000	1
467.100000	1
468.100000	1
469.100000	1
471.100000	1
473.100000	1
474.100000	1
475.100000	1
476.100000	1
477.100000	1
478.100000	1
479.100000	1
481.100000	1
482.100000	1
483.100000	1
484.100000	1
486.100000	1
487.100000	1
488.100000	1
490.100000	1
491.100000	1
492.100000	1
493.100000	1
494.100000	1
495.100000	1
496.100000	1
497.100000	1
498.100000	1
