Mass spectrum: Ketoisoleucine; EI-B; MS; n TMS; RT: 389.00 s
Name: Ketoisoleucine
Class: Natural Product
Formula: C6H10O3
Exact mass: 130.06299
SMILES: CCC(C)C(=O)C(O)=O
InChI: InChI=1S/C6H10O3/c1-3-4(2)5(7)6(8)9/h4H,3H2,1-2H3,(H,8,9)
Instrument: GCMS-2010 Plus, Shimadzu
Instrument type: EI-B
Ms type: MS
Ion mode: POSITIVE
Column name: InertCap 5MS/NP 0.25 mmI.D. x 30 m, df=0.25 um
Retention time: 389.00
Derivative type: n TMS
m/z	relative intensity
86.050000	53
87.100000	11
88.150000	10
89.050000	999
90.050000	83
91.050000	49
92.100000	5
93.100000	4
94.100000	11
95.100000	2
96.100000	3
97.100000	5
98.100000	27
99.050000	56
100.100000	68
101.100000	10
102.100000	5
103.050000	10
104.100000	2
105.100000	16
106.100000	1
107.100000	2
108.100000	1
109.100000	3
110.100000	173
111.100000	15
112.100000	17
113.100000	231
114.150000	192
115.150000	31
116.100000	78
117.100000	42
118.100000	8
119.100000	3
120.100000	1
121.100000	1
122.100000	1
123.100000	1
124.100000	1
125.100000	1
126.100000	25
127.150000	13
128.100000	15
129.100000	14
130.100000	5
131.100000	6
132.100000	1
133.100000	2
134.100000	1
135.100000	1
136.100000	1
137.100000	1
138.100000	2
139.100000	1
140.150000	30
141.150000	10
142.150000	9
143.100000	9
144.100000	5
145.100000	2
146.100000	1
147.100000	6
148.100000	1
149.100000	2
150.100000	1
151.100000	1
153.100000	1
154.100000	13
155.200000	2
156.200000	43
157.150000	8
158.100000	19
159.100000	3
160.100000	2
161.100000	1
162.100000	1
164.100000	1
165.100000	1
166.100000	2
167.100000	1
168.100000	1
169.100000	1
170.100000	2
171.100000	1
172.100000	177
173.100000	24
174.100000	12
175.100000	1
176.100000	1
177.100000	1
178.100000	1
180.100000	1
181.100000	1
182.100000	2
183.100000	2
184.100000	7
185.100000	2
186.100000	2
187.100000	1
188.100000	2
189.100000	359
190.050000	45
191.000000	17
192.000000	2
193.000000	1
194.000000	1
195.000000	1
196.000000	1
197.000000	1
198.000000	1
199.100000	1
200.100000	307
201.100000	46
202.150000	16
203.100000	141
204.150000	20
205.100000	9
206.100000	2
207.100000	4
208.100000	1
209.100000	1
211.100000	1
212.100000	1
214.100000	1
215.100000	1
216.100000	50
217.050000	9
218.100000	2
219.100000	4
221.100000	1
222.100000	1
223.100000	1
224.100000	1
225.100000	1
226.100000	1
227.100000	1
228.100000	1
229.100000	1
230.100000	1
231.100000	1
232.100000	1
234.100000	1
235.100000	1
236.100000	1
237.100000	1
238.100000	1
239.100000	1
240.100000	1
241.100000	1
242.100000	1
243.100000	1
244.100000	1
245.100000	1
247.100000	1
248.100000	1
249.100000	1
250.100000	1
251.100000	1
252.100000	1
253.100000	2
254.100000	1
255.100000	1
256.100000	1
257.100000	1
258.100000	1
259.100000	1
260.100000	1
261.100000	1
262.100000	1
263.100000	1
264.100000	1
265.100000	1
266.100000	1
267.100000	1
268.100000	1
269.100000	1
270.100000	1
273.100000	1
274.100000	1
275.100000	1
277.100000	1
278.100000	1
279.100000	1
280.100000	1
281.100000	7
282.100000	2
283.100000	1
285.100000	1
286.100000	1
287.100000	1
288.100000	1
289.100000	1
290.100000	1
292.100000	1
293.100000	1
294.100000	1
295.100000	1
296.100000	1
298.100000	1
299.100000	1
300.100000	1
301.100000	1
302.100000	1
304.100000	1
305.100000	1
307.100000	1
309.100000	1
310.100000	1
311.100000	1
312.100000	1
313.100000	1
315.100000	1
316.100000	1
319.100000	1
321.100000	1
322.100000	1
326.100000	1
327.100000	1
328.100000	1
331.100000	2
332.100000	1
333.100000	1
336.100000	1
337.100000	1
339.100000	1
341.100000	1
342.100000	1
343.100000	1
344.100000	1
346.100000	1
347.100000	1
349.100000	1
351.100000	1
352.100000	1
353.100000	1
354.100000	1
356.100000	1
357.100000	1
358.100000	1
359.100000	1
360.100000	1
361.100000	1
362.100000	1
363.100000	1
364.100000	1
365.100000	1
366.100000	1
367.100000	1
369.100000	1
370.100000	1
371.100000	1
372.100000	1
373.100000	1
376.100000	1
377.100000	1
378.100000	1
379.100000	1
380.100000	1
381.100000	1
382.100000	1
385.100000	1
387.100000	1
388.100000	1
389.100000	1
392.100000	1
395.100000	1
396.100000	1
397.100000	1
400.100000	1
401.100000	1
402.100000	1
403.100000	1
405.100000	1
406.100000	1
407.100000	1
409.100000	1
410.100000	1
411.100000	1
412.100000	1
413.100000	1
414.100000	1
415.100000	1
420.100000	1
423.100000	1
428.100000	1
432.100000	1
433.100000	1
435.100000	1
436.100000	1
437.100000	1
438.100000	1
439.100000	1
440.100000	1
441.100000	1
442.100000	1
443.100000	1
444.100000	1
445.100000	1
446.100000	1
447.100000	1
448.100000	1
449.100000	1
450.100000	1
451.100000	1
453.100000	1
454.100000	1
455.100000	1
456.100000	1
457.100000	1
458.100000	1
459.100000	1
460.100000	1
461.100000	1
462.100000	1
464.100000	1
465.100000	1
466.100000	1
470.100000	1
471.100000	1
472.100000	1
474.100000	1
476.100000	1
477.100000	1
478.100000	1
479.100000	1
480.100000	1
481.100000	1
482.100000	1
484.100000	1
485.100000	1
487.100000	1
488.100000	1
489.100000	1
490.100000	1
491.100000	1
493.100000	1
494.100000	1
495.100000	1
496.100000	1
497.100000	1
498.100000	1
499.100000	1
