Mass spectrum: Glycine; EI-B; MS; 3 TMS; RT: 474.76 s
Name: Glycine
Class: Natural Product
Formula: C2H5NO2
Exact mass: 75.03203
SMILES: NCC(O)=O
InChI: InChI=1S/C2H5NO2/c3-1-2(4)5/h1,3H2,(H,4,5)
Instrument: GCMS-2010 Plus, Shimadzu
Instrument type: EI-B
Ms type: MS
Ion mode: POSITIVE
Column name: InertCap 5MS/NP 0.25 mmI.D. x 30 m, df=0.25 um
Retention time: 474.76
Derivative type: 3 TMS
m/z	relative intensity
86.050000	230
87.050000	23
88.050000	10
89.000000	1
90.000000	1
91.000000	1
92.000000	1
93.000000	1
94.100000	1
95.050000	2
96.100000	1
97.100000	1
98.100000	1
99.150000	2
100.050000	132
101.050000	22
102.050000	11
103.050000	4
104.050000	1
105.050000	1
106.000000	1
107.000000	1
108.500000	1
109.500000	1
110.500000	1
112.000000	1
113.050000	3
114.050000	2
115.050000	3
116.050000	5
117.050000	15
118.050000	3
119.050000	4
120.100000	1
121.100000	1
122.600000	1
123.600000	1
124.600000	1
125.600000	1
126.600000	1
128.050000	1
129.100000	2
130.100000	23
131.050000	21
132.050000	6
133.100000	51
134.100000	8
135.100000	4
136.100000	1
137.100000	1
138.100000	1
139.100000	1
140.100000	1
141.100000	1
142.100000	1
143.100000	1
144.100000	5
145.100000	1
146.150000	3
147.100000	242
148.100000	37
149.100000	19
150.100000	2
151.100000	1
152.100000	1
154.100000	1
155.100000	1
156.100000	1
157.150000	1
158.100000	6
159.100000	2
160.100000	5
161.100000	2
162.050000	1
163.000000	1
164.000000	1
166.000000	1
167.000000	1
169.000000	1
170.000000	1
171.150000	1
172.100000	9
173.150000	7
174.100000	999
175.100000	169
176.100000	76
177.100000	16
178.100000	3
179.050000	1
180.100000	1
181.100000	1
183.100000	1
184.100000	1
185.100000	1
186.000000	1
187.000000	1
188.050000	4
189.050000	1
190.050000	1
191.050000	1
192.000000	1
193.000000	1
194.000000	1
195.000000	1
196.000000	1
197.000000	1
198.000000	1
200.000000	1
201.000000	1
202.050000	1
203.050000	1
204.050000	3
205.050000	1
206.050000	1
207.000000	1
208.000000	1
209.000000	1
211.000000	1
212.000000	1
213.000000	1
214.000000	1
215.000000	1
216.000000	1
217.000000	1
218.000000	1
219.000000	1
220.000000	1
221.000000	1
222.000000	1
223.000000	1
224.000000	1
225.000000	1
227.000000	1
228.000000	1
229.000000	1
230.000000	1
231.000000	1
232.000000	1
233.000000	1
234.000000	1
235.000000	1
236.000000	1
237.000000	1
238.000000	1
239.000000	1
240.000000	1
241.000000	1
242.000000	1
243.000000	1
244.000000	1
245.100000	1
246.100000	18
247.150000	5
248.100000	174
249.100000	45
250.100000	23
251.100000	4
252.050000	1
253.000000	1
254.000000	1
255.000000	1
256.000000	1
257.000000	1
258.000000	1
259.000000	1
260.000000	1
261.000000	1
262.100000	1
263.100000	1
264.100000	1
266.100000	1
267.100000	1
268.100000	1
269.100000	1
270.100000	1
271.100000	1
272.100000	1
273.100000	1
274.100000	1
275.150000	1
276.100000	71
277.100000	18
278.100000	9
279.050000	1
280.100000	1
281.100000	1
282.100000	1
283.100000	1
284.100000	1
285.100000	1
286.100000	1
288.100000	1
290.100000	1
291.100000	1
292.100000	1
293.100000	1
294.100000	1
295.100000	1
296.100000	1
298.100000	1
299.100000	1
301.100000	1
303.100000	1
304.100000	1
305.100000	1
306.100000	1
307.100000	1
308.100000	1
309.100000	1
311.100000	1
312.100000	1
313.100000	1
314.100000	1
315.100000	1
316.100000	1
317.100000	1
318.100000	1
319.100000	1
320.100000	1
321.100000	1
322.100000	1
323.100000	1
324.100000	1
325.100000	1
327.100000	1
328.100000	1
330.100000	1
331.100000	1
332.100000	1
333.100000	1
334.100000	1
335.100000	1
336.100000	1
337.100000	1
338.100000	1
339.100000	1
340.100000	1
341.100000	1
342.100000	1
343.100000	1
344.100000	1
345.100000	1
346.100000	1
347.100000	1
348.100000	1
349.100000	1
350.100000	1
351.100000	1
352.100000	1
353.100000	1
354.100000	1
355.100000	1
356.100000	1
357.100000	1
358.100000	1
359.100000	1
360.100000	1
361.100000	1
362.100000	1
363.100000	1
364.100000	1
365.100000	1
366.100000	1
367.100000	1
369.100000	1
371.100000	1
372.100000	1
373.100000	1
374.100000	1
375.100000	1
377.100000	1
378.100000	1
379.100000	1
380.100000	1
381.100000	1
382.100000	1
383.100000	1
384.100000	1
385.100000	1
386.100000	1
387.100000	1
389.100000	1
390.100000	1
391.100000	1
392.100000	1
393.100000	1
394.100000	1
395.100000	1
396.100000	1
397.100000	1
398.100000	1
399.100000	1
400.100000	1
401.100000	1
402.100000	1
404.100000	1
405.100000	1
406.100000	1
407.100000	1
408.100000	1
409.100000	1
410.100000	1
412.100000	1
413.100000	1
414.100000	1
415.100000	1
416.100000	1
417.100000	1
418.100000	1
419.100000	1
420.100000	1
424.100000	1
425.100000	1
426.100000	1
428.100000	1
430.100000	1
431.100000	1
432.100000	1
433.100000	1
434.100000	1
435.100000	1
436.100000	1
437.100000	1
438.100000	1
439.100000	1
440.100000	1
441.100000	1
442.100000	1
443.100000	1
444.100000	1
446.100000	1
448.100000	1
449.100000	1
450.100000	1
451.100000	1
452.100000	1
453.100000	1
454.100000	1
455.100000	1
457.100000	1
458.100000	1
459.100000	1
460.100000	1
461.100000	1
463.100000	1
464.100000	1
465.100000	1
466.100000	1
467.100000	1
468.100000	1
469.100000	1
470.100000	1
471.100000	1
472.100000	1
473.100000	1
474.100000	1
475.100000	1
476.100000	1
477.100000	1
478.100000	1
479.100000	1
480.100000	1
481.100000	1
482.100000	1
484.100000	1
485.100000	1
486.100000	1
487.100000	1
488.100000	1
490.100000	1
491.100000	1
492.100000	1
493.100000	1
494.100000	1
495.100000	1
496.100000	1
497.100000	1
498.100000	1
