Mass spectrum: D-Arabitol; EI-B; MS; 5 TMS; RT: 704.48 s
Name: D-Arabitol
Class: Natural Product
Formula: C5H12O5
Exact mass: 152.06847
SMILES: C([C@H](C([C@@H](CO)O)O)O)O
InChI: InChI=1S/C5H12O5/c6-1-3(8)5(10)4(9)2-7/h3-10H,1-2H2/t3-,4-/m1/s1
Instrument: GCMS-2010 Plus, Shimadzu
Instrument type: EI-B
Ms type: MS
Ion mode: POSITIVE
Column name: InertCap 5MS/NP 0.25 mmI.D. x 30 m, df=0.25 um
Retention time: 704.48
Derivative type: 5 TMS
m/z	relative intensity
86.000000	1
87.000000	6
87.950000	4
89.000000	22
89.950000	2
90.950000	1
92.000000	1
93.000000	1
94.000000	1
95.000000	1
96.000000	1
97.000000	1
97.900000	1
98.950000	2
100.000000	1
100.950000	19
102.050000	5
103.000000	558
104.000000	50
105.000000	21
106.000000	1
107.000000	1
108.000000	1
109.000000	1
110.000000	1
110.950000	2
112.000000	1
112.950000	6
114.000000	1
114.950000	4
116.000000	19
117.000000	125
117.950000	13
118.900000	9
119.900000	1
120.900000	1
121.900000	1
122.900000	1
123.900000	1
124.900000	1
125.950000	1
126.900000	2
128.050000	2
128.950000	263
130.000000	30
130.950000	34
131.950000	5
132.950000	70
133.950000	9
134.900000	6
135.900000	1
136.900000	1
137.900000	1
138.900000	1
139.900000	1
141.000000	1
141.950000	2
142.950000	13
143.950000	2
144.950000	7
146.050000	3
146.950000	459
147.950000	74
148.950000	44
149.950000	5
150.900000	2
152.050000	1
153.000000	3
154.000000	1
154.950000	7
156.050000	1
156.950000	43
158.000000	5
158.950000	5
160.000000	1
161.000000	5
161.950000	1
162.950000	8
164.000000	1
165.000000	1
166.000000	1
167.000000	1
168.000000	1
168.950000	2
169.900000	3
170.950000	5
171.950000	1
173.000000	1
173.950000	1
174.900000	11
175.900000	2
176.900000	9
177.900000	2
178.900000	1
179.900000	1
180.900000	1
181.900000	1
182.900000	1
184.900000	1
185.900000	1
186.900000	1
187.950000	1
188.850000	97
189.900000	22
190.900000	89
191.900000	15
192.900000	7
193.900000	1
194.900000	1
195.900000	1
196.900000	1
197.900000	1
198.900000	1
199.900000	1
200.900000	3
201.950000	1
202.900000	53
203.900000	136
204.900000	350
205.900000	70
206.900000	33
207.850000	4
208.850000	1
209.900000	1
210.900000	1
211.900000	1
212.900000	1
213.900000	1
214.900000	2
215.950000	7
216.900000	999
217.900000	241
218.900000	100
219.900000	15
220.850000	18
221.850000	4
222.850000	2
223.900000	1
224.900000	1
225.900000	1
226.900000	1
227.900000	1
228.900000	21
229.900000	5
230.900000	4
231.900000	1
232.900000	1
233.900000	1
234.900000	1
235.900000	1
236.850000	1
237.800000	1
238.800000	1
239.800000	1
240.900000	1
241.950000	4
242.900000	75
243.900000	17
244.850000	9
245.850000	1
246.900000	2
247.900000	1
248.900000	1
249.900000	1
250.900000	1
252.900000	1
255.900000	1
256.900000	1
257.900000	1
258.900000	1
259.900000	1
260.900000	1
261.900000	1
262.900000	1
263.900000	1
264.900000	2
265.900000	1
266.900000	1
267.900000	1
268.900000	1
269.900000	1
270.900000	1
271.900000	1
272.900000	1
273.900000	1
274.900000	1
275.900000	1
276.900000	68
277.900000	20
278.950000	11
279.900000	2
280.900000	1
281.900000	1
282.900000	1
284.900000	1
285.900000	1
286.900000	1
287.900000	1
288.900000	1
289.900000	1
290.850000	13
291.800000	4
292.900000	3
293.900000	1
294.900000	1
295.900000	1
296.900000	1
300.900000	1
301.900000	1
302.900000	1
303.900000	1
304.950000	6
305.950000	21
306.900000	266
307.900000	79
308.900000	39
309.850000	8
310.850000	2
311.900000	1
312.900000	1
313.900000	1
315.900000	1
316.900000	28
317.950000	12
318.900000	238
319.900000	67
320.900000	33
321.900000	7
322.900000	2
323.900000	1
324.900000	1
325.900000	1
326.900000	1
327.900000	1
328.900000	1
329.900000	1
330.950000	2
331.900000	37
332.900000	14
333.850000	6
334.850000	2
335.900000	1
336.900000	1
338.900000	1
340.900000	1
342.900000	1
343.900000	1
344.900000	1
345.900000	1
346.900000	1
347.900000	1
348.900000	1
349.900000	1
350.900000	1
351.900000	1
352.900000	1
353.900000	1
354.900000	1
355.900000	1
356.900000	1
357.900000	1
358.900000	1
359.900000	1
360.900000	1
361.900000	1
362.900000	1
363.900000	1
364.900000	1
365.900000	1
366.900000	1
367.900000	1
368.900000	1
369.900000	1
370.900000	1
371.900000	1
372.900000	1
373.900000	1
374.900000	1
375.900000	1
376.900000	1
377.900000	1
378.900000	1
379.900000	1
380.900000	1
381.900000	1
383.900000	1
385.900000	1
388.900000	1
390.900000	1
391.900000	1
393.900000	1
394.850000	12
395.850000	4
396.800000	2
397.800000	1
398.800000	1
399.800000	1
402.800000	1
403.800000	1
404.800000	1
405.800000	1
406.750000	2
407.850000	1
408.800000	2
409.800000	1
410.800000	1
411.800000	1
412.800000	1
413.800000	1
414.800000	1
416.800000	1
418.800000	1
419.800000	1
420.900000	1
421.850000	9
422.850000	4
423.800000	2
424.800000	1
425.800000	1
426.800000	1
427.800000	1
428.800000	1
429.800000	1
430.800000	1
431.800000	1
432.800000	1
433.800000	1
435.800000	1
436.800000	1
437.800000	1
439.800000	1
440.800000	1
441.800000	1
442.800000	1
445.800000	1
446.800000	1
448.800000	1
449.800000	1
450.800000	1
451.800000	1
452.800000	1
453.800000	1
454.800000	1
455.800000	1
456.800000	1
457.800000	1
458.800000	1
459.800000	1
460.800000	1
461.800000	1
462.800000	1
463.800000	1
466.800000	1
467.800000	1
468.800000	1
469.800000	1
470.800000	1
471.800000	1
472.800000	1
473.800000	1
475.800000	1
476.800000	1
477.800000	1
478.800000	1
479.800000	1
482.800000	1
483.800000	1
484.800000	1
485.800000	1
486.800000	1
488.800000	1
489.800000	1
490.800000	1
492.800000	1
493.800000	1
495.800000	1
496.800000	1
497.800000	1
498.800000	1
