Mass spectrum: N-FormylGlycine; EI-B; MS; n TMS; RT: 513.65 s
Name: N-FormylGlycine
Class: Natural Product
Formula: C3H5NO3
Exact mass: 103.02694
SMILES: [H]N(C=O)CC(O)=O
InChI: InChI=1S/C3H5NO3/c5-2-4-1-3(6)7/h2H,1H2,(H,4,5)(H,6,7)
Instrument: GCMS-2010 Plus, Shimadzu
Instrument type: EI-B
Ms type: MS
Ion mode: POSITIVE
Column name: InertCap 5MS/NP 0.25 mmI.D. x 30 m, df=0.25 um
Retention time: 513.65
Derivative type: n TMS
m/z	relative intensity
86.000000	30
87.000000	14
88.000000	11
89.000000	5
90.000000	2
91.000000	5
92.000000	3
93.000000	5
94.000000	2
95.000000	4
96.000000	6
97.000000	4
98.100000	33
99.100000	11
100.100000	66
101.100000	27
102.100000	347
103.100000	55
104.100000	28
105.100000	11
106.100000	3
107.100000	2
108.500000	38
109.500000	14
110.500000	1
112.500000	2
113.500000	4
114.500000	3
115.100000	21
116.050000	36
117.100000	98
118.100000	16
119.100000	12
120.100000	3
121.100000	3
123.100000	1
125.100000	2
126.100000	1
127.100000	2
128.100000	1
129.100000	50
130.150000	636
131.100000	121
132.100000	44
133.100000	80
134.100000	12
135.100000	6
136.100000	1
137.100000	1
138.100000	1
139.100000	2
140.100000	1
141.100000	1
142.100000	6
143.100000	3
144.100000	2
145.100000	2
146.100000	3
147.150000	999
148.150000	166
149.100000	95
150.100000	8
151.100000	8
152.100000	1
153.100000	2
154.100000	3
155.100000	1
156.100000	3
157.150000	99
158.100000	17
159.100000	4
160.050000	27
161.000000	5
162.000000	4
163.100000	35
164.100000	2
165.100000	6
166.100000	1
167.100000	2
169.100000	1
171.100000	5
172.100000	3
173.100000	1
174.100000	4
175.100000	1
176.150000	85
177.100000	10
178.100000	6
179.100000	5
180.100000	2
181.100000	1
182.100000	1
183.100000	1
184.100000	2
186.100000	2
187.100000	1
188.100000	150
189.100000	28
190.100000	19
191.100000	8
192.100000	4
193.100000	2
194.100000	5
195.100000	3
196.100000	3
197.100000	1
198.100000	1
199.100000	1
201.100000	2
202.100000	2
203.150000	49
204.100000	409
205.100000	85
206.050000	37
207.000000	15
208.000000	4
209.000000	4
210.000000	2
211.000000	1
212.000000	1
213.000000	2
214.000000	1
215.000000	2
216.000000	1
218.000000	3
219.000000	17
220.000000	1
221.000000	3
222.000000	1
224.000000	1
225.000000	1
226.000000	2
227.000000	3
228.000000	1
229.000000	1
231.100000	3
232.100000	268
233.150000	47
234.100000	25
235.100000	3
236.100000	3
237.100000	1
240.100000	1
241.100000	1
242.100000	1
243.100000	1
244.100000	2
245.100000	1
246.100000	1
247.100000	24
248.100000	6
249.100000	1
250.100000	1
251.100000	2
252.100000	3
253.100000	17
254.100000	4
255.100000	4
256.100000	1
258.100000	1
259.100000	2
260.100000	1
261.100000	2
263.100000	1
264.100000	2
265.100000	3
266.100000	1
267.100000	1
268.100000	1
269.100000	2
270.100000	2
271.100000	1
273.100000	1
274.100000	2
275.100000	1
276.100000	2
278.100000	2
279.100000	2
280.100000	2
281.100000	1
282.100000	1
283.100000	2
284.100000	3
285.100000	1
286.100000	3
288.100000	1
289.100000	1
290.100000	1
291.100000	3
292.100000	1
293.100000	1
294.100000	1
295.100000	2
296.100000	2
297.100000	1
298.100000	1
299.100000	2
300.100000	1
301.100000	1
302.100000	1
303.100000	1
304.100000	1
305.100000	2
306.100000	1
307.100000	2
308.100000	1
309.100000	2
310.100000	1
311.100000	1
313.100000	2
314.100000	1
315.100000	1
316.100000	2
317.100000	2
318.100000	1
319.100000	2
320.100000	3
322.100000	1
323.100000	2
324.100000	1
325.100000	2
326.100000	1
327.100000	6
328.100000	3
329.100000	3
330.100000	2
331.100000	4
332.100000	2
333.100000	5
334.100000	3
335.100000	2
336.100000	3
337.100000	1
338.100000	2
339.100000	2
340.100000	1
341.100000	1
342.100000	1
343.100000	2
344.100000	1
345.100000	3
346.100000	3
347.100000	1
348.100000	1
349.100000	2
350.100000	2
352.100000	1
353.100000	1
354.100000	2
355.100000	2
356.100000	2
358.100000	1
359.100000	2
360.100000	2
361.100000	1
362.100000	1
363.100000	1
364.100000	2
365.100000	2
366.100000	2
368.100000	1
369.100000	1
370.100000	2
371.100000	1
372.100000	1
373.100000	1
374.100000	2
375.100000	1
376.100000	2
378.100000	3
379.100000	1
382.100000	1
383.100000	1
384.100000	1
385.100000	1
388.100000	1
389.100000	2
390.100000	1
391.100000	1
392.100000	1
393.100000	1
394.100000	1
396.100000	1
398.100000	1
399.100000	1
401.100000	1
403.100000	1
404.100000	2
405.100000	2
406.100000	3
407.100000	1
409.100000	2
410.100000	1
411.100000	1
412.100000	1
414.100000	2
415.100000	1
416.100000	1
417.100000	1
418.100000	2
419.100000	1
420.100000	2
421.100000	3
423.100000	1
424.100000	3
425.100000	1
426.100000	3
427.100000	3
428.100000	1
429.100000	1
431.100000	1
433.100000	2
434.100000	2
435.100000	1
436.100000	1
437.100000	1
438.100000	2
439.100000	4
440.100000	2
441.100000	2
442.100000	1
443.100000	1
444.100000	2
445.100000	1
446.100000	1
447.100000	2
448.100000	2
449.100000	1
450.100000	2
451.100000	1
452.100000	2
453.100000	1
454.100000	2
456.100000	1
457.100000	1
458.100000	1
459.100000	1
460.100000	2
461.100000	2
463.100000	1
464.100000	1
465.100000	1
466.100000	1
467.100000	1
468.100000	3
469.100000	1
470.100000	1
472.100000	2
473.100000	2
474.100000	2
475.100000	1
476.100000	1
478.100000	1
479.100000	1
480.100000	1
481.100000	1
482.100000	3
485.100000	1
487.100000	2
488.100000	1
489.100000	1
490.100000	1
492.100000	1
493.100000	1
494.100000	4
495.100000	1
496.100000	1
497.100000	1
499.100000	1
