Mass spectrum: Tyramine; EI-B; MS; n TMS; RT: 788.72 s
Name: Tyramine
Class: Natural Product
Formula: C8H11NO
Exact mass: 137.08406
SMILES: NCCc(c1)ccc(O)c1
InChI: InChI=1S/C8H11NO/c9-6-5-7-1-3-8(10)4-2-7/h1-4,10H,5-6,9H2
Instrument: GCMS-2010 Plus, Shimadzu
Instrument type: EI-B
Ms type: MS
Ion mode: POSITIVE
Column name: InertCap 5MS/NP 0.25 mmI.D. x 30 m, df=0.25 um
Retention time: 788.72
Derivative type: n TMS
m/z	relative intensity
86.050000	185
87.050000	17
88.050000	7
89.050000	2
90.050000	2
91.050000	5
92.000000	1
93.000000	1
94.000000	1
95.050000	1
96.100000	1
97.100000	1
98.100000	1
99.150000	2
100.050000	93
101.050000	11
102.050000	10
103.050000	3
104.100000	1
105.050000	3
106.100000	1
107.100000	1
108.100000	1
109.000000	1
110.000000	1
111.000000	1
112.000000	1
113.050000	1
114.100000	1
115.050000	3
116.050000	5
117.100000	13
118.050000	2
119.100000	3
120.000000	1
121.050000	2
122.000000	1
123.000000	1
123.600000	1
124.600000	8
125.550000	1
126.600000	1
127.600000	1
129.150000	1
130.050000	17
131.050000	15
132.100000	4
133.050000	6
134.100000	1
135.050000	4
136.100000	1
137.100000	1
138.100000	1
139.100000	1
140.100000	1
141.100000	1
142.100000	1
143.050000	1
144.100000	5
145.100000	3
146.100000	3
147.100000	4
148.100000	2
149.100000	7
150.100000	1
151.100000	2
152.100000	1
152.700000	1
153.650000	1
154.700000	1
155.700000	1
157.150000	1
158.100000	8
159.150000	2
160.550000	1
161.650000	17
162.550000	5
162.950000	5
164.100000	3
165.100000	4
166.150000	1
167.100000	1
168.100000	1
169.150000	2
170.050000	1
171.100000	1
172.100000	8
173.150000	7
174.150000	999
175.150000	177
176.100000	80
177.100000	13
178.150000	3
179.100000	21
180.100000	3
181.050000	1
182.000000	1
183.000000	1
184.000000	1
185.000000	1
186.000000	1
187.000000	1
188.000000	1
189.100000	1
190.050000	4
191.050000	1
192.050000	2
193.050000	5
194.050000	1
195.050000	1
196.100000	1
197.100000	1
198.100000	1
199.100000	1
200.100000	1
201.100000	1
202.100000	1
203.100000	1
204.100000	1
205.100000	1
206.050000	1
207.000000	4
208.000000	1
209.050000	1
210.000000	1
211.000000	1
212.000000	1
213.000000	1
214.000000	1
215.000000	1
216.000000	1
217.000000	1
218.050000	1
219.050000	1
220.150000	1
221.100000	2
222.050000	1
223.100000	3
224.050000	1
225.000000	1
226.000000	1
227.000000	1
229.000000	1
230.000000	1
231.000000	1
232.050000	1
233.100000	1
234.100000	1
235.050000	1
236.150000	1
237.100000	2
238.150000	1
239.100000	1
240.100000	1
241.100000	1
242.100000	1
243.100000	1
244.100000	1
245.100000	1
246.100000	1
247.150000	1
248.100000	5
249.150000	3
250.100000	21
251.150000	5
252.100000	2
253.100000	1
254.100000	1
255.100000	1
256.100000	1
259.100000	1
260.100000	1
261.100000	1
262.100000	1
263.150000	1
264.150000	20
265.150000	6
266.100000	3
267.150000	1
268.200000	1
269.200000	1
270.200000	1
271.200000	1
273.200000	1
274.200000	1
275.200000	1
276.200000	1
277.100000	1
278.100000	1
279.100000	1
280.050000	1
281.100000	1
282.100000	1
283.100000	1
284.100000	1
285.100000	1
286.100000	1
288.100000	1
290.100000	1
291.100000	1
292.100000	1
293.100000	1
294.100000	1
295.100000	1
296.100000	1
297.100000	1
298.100000	1
300.100000	1
301.100000	1
302.100000	1
303.100000	1
304.100000	1
306.100000	1
307.100000	1
308.100000	1
309.100000	1
310.100000	1
311.100000	1
312.100000	1
313.100000	1
314.100000	1
315.100000	1
316.100000	1
317.100000	1
318.100000	1
320.100000	1
321.100000	1
322.200000	1
323.200000	1
324.200000	1
325.200000	1
326.200000	1
327.200000	1
328.200000	1
329.200000	1
330.200000	1
331.200000	1
332.200000	1
334.200000	1
335.200000	1
336.200000	1
337.250000	1
338.200000	82
339.200000	28
340.150000	13
341.150000	3
342.100000	1
343.100000	1
344.100000	1
345.100000	1
346.100000	1
347.100000	1
348.100000	1
350.100000	1
351.250000	1
352.250000	2
353.200000	1
354.200000	1
355.200000	1
356.200000	1
357.200000	1
359.200000	1
360.200000	1
361.200000	1
362.200000	1
363.200000	1
364.200000	1
365.200000	1
367.200000	1
368.200000	1
371.200000	1
372.200000	1
373.200000	1
374.200000	1
375.200000	1
376.200000	1
377.200000	1
379.200000	1
383.200000	1
384.200000	1
385.200000	1
386.200000	1
387.200000	1
389.200000	1
390.200000	1
391.200000	1
392.200000	1
394.200000	1
395.200000	1
396.200000	1
397.200000	1
398.200000	1
399.200000	1
400.200000	1
401.200000	1
403.200000	1
404.200000	1
405.200000	1
406.200000	1
407.200000	1
408.200000	1
409.200000	1
410.200000	1
411.200000	1
412.200000	1
415.200000	1
416.200000	1
417.200000	1
418.200000	1
419.200000	1
420.200000	1
421.200000	1
422.200000	1
423.200000	1
424.200000	1
425.200000	1
426.200000	1
427.200000	1
428.200000	1
430.200000	1
431.200000	1
432.200000	1
433.200000	1
434.200000	1
435.200000	1
436.200000	1
438.200000	1
439.200000	1
440.200000	1
442.200000	1
443.200000	1
444.200000	1
445.200000	1
446.200000	1
449.200000	1
450.200000	1
452.200000	1
454.200000	1
455.200000	1
458.200000	1
459.200000	1
460.200000	1
461.200000	1
462.200000	1
464.200000	1
465.200000	1
468.200000	1
470.200000	1
471.200000	1
472.200000	1
473.200000	1
474.200000	1
475.200000	1
476.200000	1
477.200000	1
478.200000	1
479.200000	1
480.200000	1
481.200000	1
483.200000	1
485.200000	1
486.200000	1
487.200000	1
488.200000	1
489.200000	1
490.200000	1
495.200000	1
