Mass spectrum: 5-Hydroxyindoleacetic acid; EI-B; MS; 3 TMS; RT: 909.78 s
Name: 5-Hydroxyindoleacetic acid
Name: 5-Hydroxyindoleacetate
Class: Natural Product
Formula: C10H9NO3
Exact mass: 191.05824
SMILES: C1=CC2=C(C=C1O)C(=CN2)CC(=O)O
InChI: InChI=1S/C10H9NO3/c12-7-1-2-9-8(4-7)6(5-11-9)3-10(13)14/h1-2,4-5,11-12H,3H2,(H,13,14)
Instrument: GCMS-2010 Plus, Shimadzu
Instrument type: EI-B
Ms type: MS
Ion mode: POSITIVE
Column name: InertCap 5MS/NP 0.25 mmI.D. x 30 m, df=0.25 um
Retention time: 909.78
Derivative type: 3 TMS
m/z	relative intensity
86.000000	1
87.000000	3
88.000000	1
89.000000	2
90.000000	2
91.000000	4
93.000000	4
94.000000	2
95.000000	1
96.000000	3
97.000000	3
98.000000	2
99.000000	3
100.000000	5
101.000000	4
102.000000	4
103.000000	4
104.000000	2
105.000000	2
106.000000	2
107.000000	2
108.000000	1
109.000000	1
110.000000	2
111.000000	1
112.000000	1
113.000000	2
114.000000	1
115.000000	11
116.000000	3
117.000000	10
118.000000	3
119.000000	5
120.000000	1
121.000000	2
122.000000	1
123.000000	2
124.000000	1
125.000000	1
126.000000	1
127.000000	1
128.000000	8
129.000000	7
130.000000	4
131.000000	9
132.000000	3
133.000000	8
134.000000	1
135.000000	3
136.000000	2
137.000000	2
138.000000	2
139.000000	1
140.000000	2
141.000000	1
142.000000	4
143.000000	4
144.000000	5
145.000000	4
146.000000	11
147.050000	44
148.100000	7
149.100000	5
150.100000	1
151.100000	1
152.100000	1
153.100000	1
154.100000	4
155.100000	2
156.100000	4
157.100000	2
158.100000	4
159.100000	4
160.100000	3
161.100000	2
162.100000	1
163.100000	2
164.100000	1
165.100000	1
166.100000	1
167.100000	2
168.100000	1
169.100000	2
170.100000	5
171.100000	2
172.100000	3
173.100000	3
174.100000	7
175.100000	3
176.100000	2
177.100000	2
178.100000	1
179.100000	2
180.100000	1
181.100000	1
182.100000	2
183.100000	2
184.100000	5
185.100000	3
186.100000	16
187.100000	3
188.400000	9
189.400000	1
190.400000	2
191.400000	1
192.400000	1
193.400000	1
194.400000	1
195.000000	1
196.000000	11
197.000000	4
198.000000	3
199.000000	3
200.000000	9
201.000000	6
202.050000	59
203.000000	19
204.000000	5
205.000000	3
206.000000	1
207.000000	15
208.000000	5
209.000000	3
210.000000	1
211.000000	1
212.000000	1
213.000000	1
214.000000	5
215.000000	2
216.050000	17
217.100000	8
218.050000	86
219.100000	21
220.100000	6
221.100000	2
222.100000	1
224.100000	1
225.100000	1
226.100000	1
227.100000	2
228.100000	2
229.100000	1
230.100000	7
231.100000	4
232.100000	5
233.100000	7
234.100000	3
235.100000	1
236.100000	1
237.100000	1
238.100000	2
239.100000	1
240.100000	1
241.100000	1
242.100000	1
243.100000	1
244.100000	9
245.100000	4
246.100000	4
247.100000	2
248.100000	1
249.100000	2
250.100000	1
252.100000	1
253.100000	3
254.100000	1
255.100000	1
256.100000	3
257.100000	1
258.100000	6
259.100000	2
260.050000	19
261.100000	7
262.100000	4
263.100000	1
264.100000	2
265.100000	1
266.100000	1
267.100000	2
268.100000	1
269.100000	1
270.100000	1
271.100000	1
272.100000	2
273.100000	2
274.100000	12
275.100000	7
276.100000	8
277.100000	1
278.100000	1
279.100000	1
280.100000	1
281.100000	4
282.100000	3
283.100000	1
284.100000	1
285.100000	1
286.100000	1
287.100000	1
288.100000	45
289.150000	21
290.150000	999
291.150000	275
292.150000	106
293.100000	23
294.100000	4
295.100000	2
296.100000	1
297.100000	1
298.100000	1
299.100000	1
300.100000	1
301.100000	1
302.100000	2
303.100000	2
304.100000	9
305.100000	3
306.100000	3
307.100000	2
308.100000	1
309.100000	1
310.100000	2
311.100000	2
313.100000	1
315.100000	1
316.100000	1
317.100000	2
318.100000	6
319.100000	1
320.100000	4
321.100000	1
322.100000	1
323.100000	1
324.100000	1
325.100000	1
326.100000	1
327.100000	2
328.100000	1
329.100000	1
330.100000	1
331.100000	2
332.100000	2
333.100000	1
334.100000	3
335.150000	19
336.100000	7
337.100000	5
338.100000	2
339.100000	1
340.100000	1
341.100000	3
342.100000	2
343.100000	2
344.100000	1
345.100000	2
346.100000	2
347.100000	2
348.100000	4
349.100000	2
350.100000	1
351.100000	1
352.100000	1
353.100000	2
355.100000	1
356.100000	1
357.100000	3
358.100000	1
359.100000	1
360.100000	2
361.100000	1
362.100000	2
363.200000	2
364.200000	50
365.150000	18
366.100000	7
367.100000	3
369.100000	1
370.100000	1
371.100000	1
372.100000	1
373.100000	1
374.100000	1
375.100000	1
377.100000	2
378.100000	2
379.100000	1
380.100000	1
381.100000	1
383.100000	1
384.100000	1
385.100000	1
386.100000	1
387.100000	1
389.100000	1
391.100000	2
392.100000	48
393.100000	21
394.100000	7
395.100000	2
396.100000	1
397.100000	1
399.100000	1
400.100000	1
401.100000	1
402.100000	1
404.100000	1
405.100000	1
406.200000	7
407.150000	333
408.150000	106
409.150000	58
410.200000	12
411.200000	3
412.200000	1
413.200000	1
414.200000	1
415.200000	1
416.200000	1
417.200000	1
418.200000	1
419.200000	1
420.200000	1
421.200000	1
422.200000	1
423.200000	1
424.200000	1
425.200000	1
426.200000	1
427.200000	1
428.200000	1
429.200000	1
430.200000	1
431.200000	1
434.200000	1
435.200000	1
436.200000	1
437.200000	1
438.200000	1
440.200000	1
441.200000	1
443.200000	1
446.200000	1
447.200000	1
448.200000	1
450.200000	1
451.200000	1
452.200000	1
453.200000	1
454.200000	1
455.200000	1
456.200000	1
458.200000	1
459.200000	1
460.200000	1
461.200000	2
462.200000	1
463.200000	1
464.200000	1
465.200000	1
466.200000	1
467.200000	1
468.200000	1
469.200000	1
471.200000	1
472.200000	1
473.200000	1
474.200000	1
475.200000	1
476.200000	1
477.200000	1
478.200000	1
479.200000	1
480.200000	1
481.200000	1
482.200000	1
483.200000	1
484.200000	1
485.200000	1
489.200000	1
490.200000	1
491.200000	1
492.200000	1
494.200000	1
495.200000	1
496.200000	1
498.200000	1
499.200000	1
