Mass spectrum: 4-Hydroxyphenylpyruvic acid; EI-B; MS; n TMS; RT: 781.80 s
Name: 4-Hydroxyphenylpyruvic acid
Name: 4-Hydroxyphenylpyruvate
Class: Natural Product
Formula: C9H8O4
Exact mass: 180.04226
SMILES: OC(=O)C(=O)Cc(c1)ccc(O)c1
InChI: InChI=1S/C9H8O4/c10-7-3-1-6(2-4-7)5-8(11)9(12)13/h1-4,10H,5H2,(H,12,13)
Instrument: GCMS-2010 Plus, Shimadzu
Instrument type: EI-B
Ms type: MS
Ion mode: POSITIVE
Column name: InertCap 5MS/NP 0.25 mmI.D. x 30 m, df=0.25 um
Retention time: 781.80
Derivative type: n TMS
m/z	relative intensity
86.100000	7
87.100000	5
88.000000	3
89.050000	176
90.050000	30
91.050000	36
92.000000	3
93.000000	5
94.000000	4
95.000000	12
96.000000	3
97.000000	4
98.000000	4
99.000000	4
100.000000	5
101.000000	3
102.000000	4
103.100000	18
104.000000	13
105.100000	19
106.100000	4
107.050000	13
108.100000	2
109.100000	4
110.100000	4
111.100000	5
112.100000	2
113.100000	3
114.100000	2
115.100000	9
116.050000	94
117.050000	24
118.100000	5
119.100000	10
120.100000	3
121.100000	11
122.100000	4
123.100000	4
124.100000	3
125.100000	2
126.100000	1
127.100000	2
128.100000	3
129.100000	8
130.050000	14
131.000000	22
132.000000	8
133.000000	17
134.000000	9
135.050000	51
136.000000	6
137.000000	5
138.000000	2
139.000000	1
140.000000	1
141.000000	3
142.000000	1
143.000000	6
144.000000	4
145.000000	6
146.000000	6
147.000000	46
148.100000	9
149.050000	51
150.050000	18
151.000000	9
152.000000	2
153.000000	2
154.000000	1
155.000000	2
156.000000	3
157.000000	3
158.000000	5
159.000000	4
160.100000	42
161.600000	98
163.000000	52
164.000000	19
165.000000	8
166.000000	2
167.000000	2
168.000000	1
169.000000	3
170.000000	3
171.000000	1
172.000000	6
173.000000	3
174.050000	14
175.100000	5
176.000000	5
177.000000	46
178.000000	8
179.050000	156
180.100000	23
181.100000	9
182.100000	2
183.100000	2
184.100000	1
185.100000	1
186.100000	3
187.100000	2
188.000000	12
189.050000	22
190.050000	999
191.000000	163
192.000000	39
193.000000	13
194.000000	4
195.000000	2
196.000000	2
197.000000	1
199.000000	2
200.000000	1
201.000000	2
202.000000	9
203.050000	11
204.000000	117
205.000000	53
206.000000	23
207.000000	9
208.000000	4
209.000000	4
210.000000	3
211.000000	2
212.000000	1
213.000000	1
214.000000	1
215.000000	1
216.000000	4
217.000000	5
218.000000	10
219.000000	11
220.000000	3
221.000000	3
222.000000	1
223.050000	13
224.000000	3
225.000000	3
226.000000	1
228.000000	1
229.000000	1
230.000000	1
231.000000	8
232.000000	53
233.000000	9
234.000000	6
235.000000	4
236.000000	6
237.000000	2
238.000000	1
239.000000	2
240.000000	1
241.000000	2
242.000000	1
243.000000	1
244.000000	2
245.000000	1
246.000000	4
247.000000	3
248.000000	4
249.000000	3
250.000000	2
251.000000	4
252.000000	1
253.000000	3
254.000000	1
255.000000	1
256.000000	1
257.000000	2
258.000000	1
259.000000	1
260.000000	1
261.000000	3
262.050000	16
263.100000	11
264.100000	13
265.100000	9
266.100000	7
267.050000	19
268.000000	5
269.000000	2
270.000000	2
271.000000	1
272.000000	1
273.000000	4
274.000000	3
275.000000	1
276.100000	3
277.100000	415
278.050000	297
279.050000	127
280.050000	38
281.100000	10
282.100000	4
283.100000	2
285.100000	3
286.100000	1
287.100000	2
288.100000	1
289.100000	1
290.100000	1
291.100000	1
292.100000	2
293.100000	2
294.100000	3
295.100000	3
296.100000	2
297.100000	2
298.100000	1
299.100000	3
300.100000	2
301.100000	2
302.100000	1
304.100000	1
305.100000	1
306.000000	1
307.050000	29
308.000000	5
309.000000	2
310.000000	2
311.000000	1
312.000000	1
313.000000	1
314.000000	1
315.000000	1
316.000000	1
318.000000	1
319.000000	1
320.000000	1
321.000000	1
322.000000	11
323.000000	11
324.000000	3
325.000000	1
326.000000	1
327.000000	1
328.000000	1
329.000000	1
330.000000	1
331.000000	1
333.000000	1
334.000000	1
335.000000	1
336.000000	1
337.100000	2
338.050000	125
339.100000	37
340.000000	12
341.000000	3
343.000000	1
344.000000	1
345.000000	1
346.000000	1
349.000000	2
350.000000	1
351.000000	1
352.100000	2
353.100000	79
354.150000	19
355.100000	7
356.100000	3
357.100000	1
358.100000	1
359.100000	1
360.100000	1
361.100000	1
362.100000	1
363.100000	1
364.100000	1
365.100000	1
367.100000	1
368.100000	1
369.100000	1
370.100000	1
371.100000	1
372.100000	2
373.100000	1
374.100000	1
375.100000	1
376.100000	1
378.100000	1
380.100000	1
382.100000	1
383.100000	1
384.100000	1
385.100000	1
386.100000	1
387.100000	1
389.100000	1
390.100000	2
391.100000	1
392.100000	1
394.100000	1
395.100000	1
396.100000	1
397.100000	1
398.100000	1
399.100000	1
400.100000	1
401.100000	1
402.100000	1
403.100000	1
404.100000	1
405.100000	1
406.100000	2
407.100000	1
409.100000	1
410.100000	1
411.100000	1
412.100000	1
413.100000	1
414.100000	3
416.100000	1
417.100000	1
419.100000	1
420.100000	1
421.100000	2
422.100000	1
423.100000	1
424.100000	1
425.100000	1
426.100000	1
427.100000	1
428.100000	1
429.100000	2
430.100000	1
431.100000	1
432.100000	1
434.100000	1
435.100000	1
436.100000	1
437.100000	2
439.100000	1
440.100000	1
442.100000	1
443.100000	1
444.100000	1
445.100000	1
446.100000	1
447.100000	1
448.100000	1
449.100000	1
450.100000	2
452.100000	1
453.100000	1
454.100000	1
455.100000	2
456.100000	1
457.100000	2
459.100000	1
460.100000	1
461.100000	1
463.100000	1
464.100000	1
466.100000	1
467.100000	2
468.100000	1
469.100000	1
470.100000	1
471.100000	2
474.100000	1
475.100000	1
477.100000	1
479.100000	1
480.100000	1
481.100000	1
482.100000	1
484.100000	1
485.100000	1
486.100000	1
488.100000	1
490.100000	1
491.100000	1
492.100000	1
493.100000	1
494.100000	1
495.100000	1
496.100000	1
499.100000	1
