Mass spectrum: Kynurenic acid; EI-B; MS; 2 TMS; RT: 853.02 s
Name: Kynurenic acid
Name: Kynurenate
Class: Natural Product
Formula: C10H7NO3
Exact mass: 189.04259
SMILES: OC(=O)c(c1)nc(c2)c(ccc2)c(O)1
InChI: InChI=1S/C10H7NO3/c12-9-5-8(10(13)14)11-7-4-2-1-3-6(7)9/h1-5H,(H,11,12)(H,13,14)
Instrument: GCMS-2010 Plus, Shimadzu
Instrument type: EI-B
Ms type: MS
Ion mode: POSITIVE
Column name: InertCap 5MS/NP 0.25 mmI.D. x 30 m, df=0.25 um
Retention time: 853.02
Derivative type: 2 TMS
m/z	relative intensity
86.000000	9
87.000000	7
88.000000	13
89.050000	19
90.000000	5
91.000000	12
91.800000	4
92.800000	7
93.800000	3
94.800000	4
95.800000	4
96.800000	2
97.800000	2
98.600000	5
99.650000	12
100.600000	23
101.550000	12
102.950000	14
104.000000	4
105.050000	17
106.000000	3
107.000000	4
108.000000	5
109.450000	10
110.500000	3
113.050000	10
114.050000	16
115.000000	58
116.000000	21
117.050000	11
118.000000	5
119.050000	11
120.100000	2
121.550000	151
122.450000	22
123.500000	2
124.500000	1
125.500000	1
126.100000	4
127.100000	17
128.050000	12
129.050000	15
130.050000	17
131.000000	28
132.050000	10
133.000000	25
134.000000	4
135.000000	6
136.450000	14
137.400000	3
138.400000	2
139.000000	2
140.000000	18
141.000000	11
141.650000	8
142.650000	11
143.550000	122
144.950000	23
145.900000	8
147.000000	45
148.050000	11
149.000000	6
150.000000	1
150.600000	3
151.600000	67
152.550000	11
153.600000	3
154.600000	1
156.000000	14
157.100000	9
158.050000	26
159.050000	14
160.050000	12
161.000000	4
162.000000	2
163.000000	2
164.000000	1
165.000000	1
166.000000	1
167.000000	1
168.000000	2
169.000000	2
170.050000	17
171.000000	5
172.000000	18
173.000000	9
174.000000	5
175.000000	3
176.000000	2
177.000000	1
178.000000	1
179.000000	3
180.000000	2
181.000000	1
182.000000	3
183.000000	3
184.000000	18
185.000000	10
186.000000	44
187.000000	12
187.950000	9
188.900000	2
189.900000	3
190.900000	3
191.900000	2
192.900000	3
193.900000	2
194.900000	1
195.900000	2
196.900000	2
197.900000	8
199.000000	3
200.000000	47
200.950000	11
202.000000	37
203.000000	6
204.000000	5
205.000000	2
206.000000	1
207.000000	5
208.000000	1
209.000000	1
210.000000	2
211.000000	1
212.000000	5
213.000000	3
214.000000	88
215.000000	24
216.000000	130
217.000000	43
218.000000	24
218.950000	8
220.000000	3
221.000000	1
222.000000	1
223.000000	1
224.000000	2
225.000000	1
226.000000	1
227.000000	1
228.000000	5
229.050000	9
230.050000	26
231.050000	901
232.050000	199
233.050000	51
234.000000	8
235.000000	1
236.000000	1
237.000000	1
238.000000	1
239.000000	1
240.000000	1
241.000000	1
242.000000	6
243.000000	5
244.000000	23
244.950000	20
246.000000	39
247.000000	10
248.000000	5
249.000000	3
250.000000	1
252.000000	1
253.000000	2
254.000000	2
255.000000	1
256.000000	5
257.000000	3
258.050000	19
259.100000	6
260.100000	8
261.100000	6
262.100000	1
263.100000	1
264.100000	2
265.100000	1
266.100000	1
267.100000	1
268.100000	1
269.100000	1
270.100000	2
271.100000	2
272.000000	15
273.000000	7
274.000000	53
274.950000	11
276.000000	7
277.000000	3
278.000000	1
279.000000	1
280.000000	2
281.000000	2
282.000000	1
283.000000	1
284.000000	1
285.000000	3
286.050000	12
287.150000	9
288.050000	253
289.050000	195
290.050000	166
291.050000	45
292.000000	15
293.000000	3
294.000000	1
295.000000	1
297.000000	1
298.000000	1
299.000000	3
300.000000	1
301.000000	1
302.000000	28
303.150000	13
304.050000	474
305.050000	153
306.000000	60
307.050000	12
308.000000	1
309.000000	2
310.000000	1
311.000000	1
312.000000	1
313.000000	1
314.000000	1
315.000000	2
316.050000	15
317.050000	12
318.050000	999
319.000000	285
320.050000	111
320.950000	19
322.000000	4
323.000000	2
324.000000	1
325.000000	1
326.000000	1
327.000000	1
328.000000	1
329.000000	1
330.000000	1
331.100000	2
332.050000	54
333.050000	108
334.050000	30
335.100000	16
336.100000	5
337.100000	1
338.100000	1
339.100000	1
340.100000	1
342.100000	1
343.100000	1
344.100000	1
345.100000	1
346.100000	1
347.100000	1
349.100000	1
351.100000	1
352.100000	1
353.100000	1
354.100000	1
355.100000	1
357.100000	1
358.100000	1
359.100000	1
360.100000	1
361.100000	1
362.100000	1
363.100000	1
364.100000	1
365.100000	1
366.100000	1
368.100000	1
370.100000	1
371.100000	1
372.100000	1
373.100000	1
374.100000	1
375.100000	1
376.100000	1
378.100000	1
380.100000	1
381.100000	1
383.100000	1
384.100000	1
385.100000	1
386.100000	1
387.100000	1
388.100000	1
389.100000	2
390.100000	1
391.100000	1
392.100000	1
393.100000	1
394.100000	1
395.100000	1
396.100000	1
397.100000	1
399.100000	1
402.100000	1
403.100000	1
404.100000	1
405.100000	1
407.100000	1
408.100000	1
409.100000	1
410.100000	1
413.100000	1
414.100000	1
415.100000	1
416.100000	1
417.100000	2
418.100000	1
419.100000	1
420.100000	1
421.100000	1
423.100000	1
424.100000	1
425.100000	1
426.100000	1
427.100000	1
428.100000	1
429.100000	1
430.100000	1
432.100000	1
433.100000	1
434.100000	1
435.100000	1
436.100000	1
437.100000	1
438.100000	1
439.100000	1
440.100000	1
441.100000	1
442.100000	1
443.100000	1
445.100000	1
446.100000	1
447.100000	1
448.100000	1
449.100000	1
450.100000	1
451.100000	1
452.100000	1
453.100000	1
455.100000	1
456.100000	1
457.100000	1
458.100000	1
460.100000	1
461.100000	1
462.100000	1
463.100000	1
464.100000	1
466.100000	1
467.100000	1
468.100000	1
469.100000	1
470.100000	1
471.100000	1
472.100000	1
473.100000	1
474.100000	1
475.100000	1
476.100000	1
477.100000	1
478.100000	1
479.100000	1
480.100000	1
481.100000	1
482.100000	1
483.100000	1
485.100000	1
487.100000	1
488.100000	1
491.100000	1
492.100000	1
493.100000	1
494.100000	1
495.100000	1
496.100000	1
497.100000	1
498.100000	1
499.100000	1
