Mass spectrum: Malonic acid; EI-B; MS; 2 TMS; RT: 404.25 s
Name: Malonic acid
Class: Natural Product
Formula: C3H4O4
Exact mass: 104.01096
SMILES: OC(=O)CC(O)=O
InChI: InChI=1S/C3H4O4/c4-2(5)1-3(6)7/h1H2,(H,4,5)(H,6,7)
Instrument: GCMS-2010 Plus, Shimadzu
Instrument type: EI-B
Ms type: MS
Ion mode: POSITIVE
Column name: InertCap 5MS/NP 0.25 mmI.D. x 30 m, df=0.25 um
Retention time: 404.25
Derivative type: 2 TMS
m/z	relative intensity
86.000000	1
87.050000	15
88.100000	5
89.100000	3
90.100000	1
91.100000	1
92.100000	1
93.100000	1
94.100000	1
95.100000	1
96.100000	1
97.100000	1
98.000000	1
99.000000	16
100.000000	2
101.000000	9
102.000000	2
103.000000	6
104.000000	2
105.000000	4
106.000000	1
107.000000	1
108.000000	1
109.000000	17
110.000000	2
111.000000	1
112.000000	1
113.000000	2
114.000000	1
114.950000	10
116.050000	5
117.000000	12
118.000000	2
119.000000	3
120.000000	1
121.000000	1
123.000000	1
124.000000	1
125.000000	1
126.000000	1
127.000000	1
128.000000	1
129.000000	1
130.000000	1
131.050000	26
132.000000	5
133.050000	32
134.000000	4
135.000000	3
136.000000	1
137.000000	1
138.000000	1
139.000000	1
140.000000	1
141.000000	1
142.000000	1
143.000000	14
144.000000	2
145.000000	1
146.100000	2
147.100000	999
148.100000	157
149.050000	86
150.100000	9
151.100000	3
152.100000	1
153.100000	1
154.100000	1
156.100000	1
157.100000	1
158.100000	1
159.100000	2
160.100000	1
161.100000	1
162.100000	2
163.100000	1
164.100000	1
165.100000	1
166.100000	1
169.100000	1
170.100000	1
172.100000	1
173.100000	3
174.100000	1
175.100000	1
176.100000	1
177.100000	1
178.100000	1
179.100000	1
181.100000	1
184.100000	1
185.100000	1
187.100000	1
189.050000	8
190.000000	2
191.000000	2
192.000000	1
193.000000	1
195.000000	1
197.000000	1
198.000000	1
199.000000	1
200.000000	1
201.000000	1
202.000000	1
204.000000	2
206.000000	1
207.000000	1
208.000000	1
209.000000	1
210.000000	1
211.000000	1
213.000000	1
215.000000	1
216.000000	1
216.950000	7
217.900000	2
218.900000	1
219.900000	1
221.900000	1
222.900000	1
223.900000	1
224.900000	1
225.900000	1
227.900000	1
228.900000	1
229.900000	1
230.900000	1
232.000000	1
232.950000	54
234.000000	12
234.950000	6
235.900000	1
236.900000	1
237.900000	1
238.900000	1
239.900000	1
240.900000	1
242.900000	1
243.900000	1
244.900000	1
245.900000	1
246.900000	1
248.000000	10
249.000000	2
250.000000	1
251.000000	1
252.000000	1
253.000000	1
254.000000	1
255.000000	1
256.000000	1
263.000000	1
264.000000	1
266.000000	1
268.000000	1
269.000000	1
270.000000	1
271.000000	1
272.000000	1
273.000000	1
274.000000	1
275.000000	1
276.000000	1
277.000000	1
278.000000	1
281.000000	1
283.000000	1
284.000000	1
285.000000	1
286.000000	1
287.000000	1
288.000000	1
289.000000	1
291.000000	1
293.000000	1
294.000000	1
295.000000	1
297.000000	1
298.000000	1
299.000000	1
302.000000	1
303.000000	1
304.000000	1
306.000000	1
307.000000	1
308.000000	1
309.000000	1
311.000000	1
314.000000	1
315.000000	1
317.000000	1
318.000000	1
320.000000	1
321.000000	1
323.000000	1
324.000000	1
325.000000	1
326.000000	1
327.000000	1
328.000000	1
329.000000	1
330.000000	1
331.000000	1
332.000000	1
333.000000	1
335.000000	1
336.000000	1
337.000000	1
338.000000	1
339.000000	1
340.000000	1
341.000000	1
342.000000	1
343.000000	1
344.000000	1
345.000000	1
346.000000	1
347.000000	1
349.000000	1
351.000000	1
352.000000	1
353.000000	1
354.000000	1
355.000000	1
356.000000	1
357.000000	1
358.000000	1
361.000000	1
362.000000	1
365.000000	1
368.000000	1
369.000000	1
370.000000	1
372.000000	1
373.000000	1
375.000000	1
376.000000	1
377.000000	1
378.000000	1
379.000000	1
382.000000	1
385.000000	1
386.000000	1
387.000000	1
388.000000	1
389.000000	1
390.000000	1
392.000000	1
393.000000	1
394.000000	1
395.000000	1
397.000000	1
398.000000	1
399.000000	1
401.000000	1
402.000000	1
403.000000	1
405.000000	1
406.000000	1
407.000000	1
409.000000	1
410.000000	1
411.000000	1
412.000000	1
413.000000	1
416.000000	1
419.000000	1
420.000000	1
422.000000	1
425.000000	1
426.000000	1
427.000000	1
428.000000	1
429.000000	1
430.000000	1
431.000000	1
432.000000	1
433.000000	1
435.000000	1
436.000000	1
437.000000	1
440.000000	1
441.000000	1
442.000000	1
443.000000	1
444.000000	1
445.000000	1
446.000000	1
447.000000	1
448.000000	1
449.000000	1
450.000000	1
451.000000	1
452.000000	1
453.000000	1
454.000000	1
455.000000	1
456.000000	1
457.000000	1
458.000000	1
460.000000	1
462.000000	1
463.000000	1
465.000000	1
466.000000	1
467.000000	1
468.000000	1
469.000000	1
470.000000	1
471.000000	1
472.000000	1
473.000000	1
476.000000	1
477.000000	1
481.000000	1
482.000000	1
483.000000	1
486.000000	1
487.000000	1
488.000000	1
489.000000	1
493.000000	1
494.000000	1
495.000000	1
496.000000	1
498.000000	1
