Mass spectrum: DL-Glyceraldehyde; EI-B; MS; n TMS; RT: 416.96 s
Name: DL-Glyceraldehyde
Class: Natural Product
Formula: C3H6O3
Exact mass: 90.03169
SMILES: OCC(O)C=O
InChI: InChI=1S/C3H6O3/c4-1-3(6)2-5/h1,3,5-6H,2H2
Instrument: GCMS-2010 Plus, Shimadzu
Instrument type: EI-B
Ms type: MS
Ion mode: POSITIVE
Column name: InertCap 5MS/NP 0.25 mmI.D. x 30 m, df=0.25 um
Retention time: 416.96
Derivative type: n TMS
m/z	relative intensity
86.050000	28
87.000000	25
88.000000	19
89.000000	254
90.000000	22
91.000000	15
92.000000	1
93.450000	6
94.500000	1
95.500000	1
96.500000	1
98.000000	8
99.050000	15
100.050000	564
101.000000	139
102.000000	231
103.000000	944
104.000000	96
105.050000	272
106.000000	23
107.050000	10
108.100000	1
109.100000	1
110.100000	1
111.000000	1
112.000000	9
113.050000	6
114.050000	42
115.000000	37
116.050000	23
117.000000	243
118.000000	25
119.000000	35
120.000000	4
121.000000	2
122.000000	1
123.000000	1
124.000000	1
124.900000	1
125.950000	8
127.000000	10
128.000000	30
129.000000	30
130.000000	10
131.000000	81
132.050000	17
133.000000	523
134.000000	66
135.000000	33
136.000000	3
137.000000	1
138.000000	1
139.000000	1
140.000000	1
141.000000	1
142.000000	27
143.000000	10
144.000000	6
145.000000	3
146.050000	7
147.050000	999
148.000000	165
149.050000	103
150.000000	10
151.050000	3
152.000000	1
153.000000	1
154.000000	1
155.000000	1
156.000000	2
157.000000	1
158.000000	31
159.050000	7
160.000000	569
161.050000	67
162.050000	28
163.000000	304
164.000000	52
165.000000	26
166.000000	3
167.000000	1
168.000000	1
169.000000	1
170.000000	1
171.000000	1
172.050000	19
173.000000	23
174.000000	39
174.950000	18
175.950000	6
177.000000	6
178.000000	1
179.000000	1
180.000000	1
181.000000	1
182.000000	1
183.000000	1
184.000000	1
185.000000	1
185.950000	20
186.950000	5
188.000000	9
188.950000	59
190.000000	26
190.950000	133
191.950000	24
192.950000	11
194.000000	1
195.000000	1
196.000000	1
197.000000	1
198.000000	1
199.000000	1
199.950000	3
200.950000	36
201.900000	79
202.950000	18
203.950000	20
204.950000	20
206.000000	4
206.950000	14
208.000000	3
209.000000	1
210.000000	1
211.000000	1
212.000000	1
213.000000	1
214.000000	1
214.900000	1
215.950000	71
216.950000	227
217.950000	56
218.950000	22
219.950000	6
221.000000	1
222.000000	1
223.000000	1
224.000000	1
225.000000	1
227.000000	1
228.000000	1
229.000000	1
230.000000	1
230.900000	1
231.950000	101
232.950000	23
233.950000	11
235.000000	1
236.000000	1
237.000000	1
238.000000	1
239.000000	1
241.000000	1
243.000000	1
244.000000	1
245.000000	1
246.000000	1
247.000000	1
247.950000	34
248.950000	8
249.900000	2
250.900000	1
251.900000	1
252.900000	1
253.900000	1
254.900000	1
255.900000	1
256.900000	1
258.900000	1
259.900000	1
260.900000	1
262.000000	1
263.000000	75
263.950000	19
264.900000	7
265.900000	1
266.900000	1
267.900000	1
269.900000	1
271.900000	1
272.900000	1
273.900000	1
274.900000	1
275.900000	1
276.900000	1
277.900000	1
278.900000	1
279.900000	1
280.900000	1
282.900000	1
286.900000	1
287.900000	1
288.900000	1
289.900000	1
290.900000	1
291.900000	1
292.900000	1
293.900000	1
294.900000	1
295.900000	1
297.900000	1
299.900000	1
302.900000	1
303.900000	1
304.900000	1
305.900000	1
306.900000	1
307.900000	1
308.900000	1
309.900000	1
310.900000	1
311.900000	1
312.900000	1
314.900000	1
316.900000	1
317.900000	1
318.900000	1
319.900000	1
321.900000	1
322.900000	1
325.900000	1
326.900000	1
327.900000	1
329.900000	1
330.900000	1
332.900000	1
334.900000	1
335.900000	1
336.900000	1
337.900000	1
340.900000	1
341.900000	1
342.900000	1
343.900000	1
344.900000	1
345.900000	1
346.900000	1
347.900000	1
349.900000	1
350.900000	1
351.900000	1
353.900000	1
354.900000	1
355.900000	1
356.900000	1
357.900000	1
359.900000	1
360.900000	1
361.900000	1
362.900000	1
363.900000	1
364.900000	1
365.900000	1
366.900000	1
367.900000	1
369.900000	1
371.900000	1
372.900000	1
373.900000	1
374.900000	1
375.900000	1
376.900000	1
377.900000	1
378.900000	1
379.900000	1
380.900000	1
381.900000	1
382.900000	1
383.900000	1
385.900000	1
386.900000	1
387.900000	1
388.900000	1
389.900000	1
391.900000	1
392.900000	1
393.900000	1
394.900000	1
395.900000	1
396.900000	1
397.900000	1
398.900000	1
399.900000	1
400.900000	1
401.900000	1
402.900000	1
403.900000	1
404.900000	1
405.900000	1
406.900000	1
408.900000	1
410.900000	1
411.900000	1
412.900000	1
413.900000	1
414.900000	1
415.900000	1
416.900000	1
417.900000	1
418.900000	1
419.900000	1
420.900000	1
422.900000	1
423.900000	1
424.900000	1
426.900000	1
427.900000	1
429.900000	1
430.900000	1
431.900000	1
432.900000	1
435.900000	1
436.900000	1
437.900000	1
438.900000	1
439.900000	1
441.900000	1
442.900000	1
444.900000	1
446.900000	1
447.900000	1
448.900000	1
449.900000	1
450.900000	1
451.900000	1
452.900000	1
453.900000	1
454.900000	1
455.900000	1
456.900000	1
457.900000	1
458.900000	1
460.900000	1
461.900000	1
462.900000	1
464.900000	1
465.900000	1
466.900000	1
468.900000	1
469.900000	1
470.900000	1
471.900000	1
473.900000	1
474.900000	1
475.900000	1
476.900000	1
477.900000	1
478.900000	1
479.900000	1
480.900000	1
481.900000	1
482.900000	1
483.900000	1
485.900000	1
486.900000	1
488.900000	1
489.900000	1
490.900000	1
491.900000	1
492.900000	1
493.900000	1
494.900000	1
495.900000	1
496.900000	1
497.900000	1
