Mass spectrum: Phosphoric acid; EI-B; MS; 3 TMS; RT: 452.70 s
Name: Phosphoric acid
Name: Phosphate
Class: Natural Product
Formula: H3O4P
Exact mass: 97.97690
SMILES: OP(O)(O)=O
InChI: InChI=1S/H3O4P/c1-5(2,3)4/h(H3,1,2,3,4)
Instrument: GCMS-2010 Plus, Shimadzu
Instrument type: EI-B
Ms type: MS
Ion mode: POSITIVE
Column name: InertCap 5MS/NP 0.25 mmI.D. x 30 m, df=0.25 um
Retention time: 452.70
Derivative type: 3 TMS
m/z	relative intensity
86.000000	1
87.050000	8
88.000000	1
89.000000	4
90.000000	1
91.000000	2
92.000000	1
93.000000	1
94.000000	1
95.000000	1
96.000000	1
97.000000	1
98.000000	1
99.000000	2
101.000000	1
102.000000	2
103.000000	12
104.000000	2
105.000000	7
106.000000	1
106.900000	3
107.900000	1
108.900000	1
110.900000	1
111.900000	1
112.900000	2
113.900000	1
115.000000	17
116.000000	3
117.000000	13
118.000000	2
119.000000	14
119.900000	3
120.950000	9
121.900000	1
122.900000	2
123.900000	1
124.900000	1
125.900000	1
126.900000	1
127.900000	1
128.900000	1
129.900000	1
131.050000	24
132.050000	4
133.000000	79
134.000000	11
135.000000	27
135.950000	4
136.950000	9
138.000000	1
139.000000	1
140.000000	1
141.000000	1
142.000000	1
143.000000	1
144.000000	1
145.000000	3
146.100000	1
147.100000	51
148.050000	8
149.050000	6
150.000000	1
151.000000	29
152.000000	3
153.000000	2
154.000000	1
155.000000	1
156.000000	1
157.000000	1
158.000000	1
159.000000	1
160.000000	1
161.000000	1
162.000000	1
162.950000	4
163.900000	1
164.950000	7
165.900000	2
166.900000	3
167.900000	1
168.900000	1
169.900000	1
170.900000	1
171.900000	1
172.900000	1
173.900000	1
174.900000	2
175.900000	1
176.950000	6
177.900000	2
178.900000	6
179.900000	2
180.900000	8
181.900000	2
182.900000	2
183.900000	1
184.900000	1
185.900000	1
186.900000	1
187.900000	1
188.950000	13
189.950000	3
190.950000	47
191.950000	10
192.900000	55
193.950000	10
194.950000	12
195.900000	2
196.900000	2
197.900000	1
198.900000	1
199.900000	1
200.900000	1
202.900000	1
204.000000	1
204.950000	15
206.050000	3
206.950000	66
207.950000	13
208.950000	12
209.900000	3
210.900000	35
211.850000	5
212.900000	3
213.900000	1
214.900000	1
215.900000	1
216.900000	1
217.900000	1
218.900000	1
219.900000	1
221.000000	11
222.000000	3
223.000000	2
224.000000	1
224.950000	50
225.950000	10
226.950000	16
227.900000	2
228.900000	1
230.900000	1
231.900000	1
232.900000	1
233.900000	1
234.900000	1
235.900000	1
236.900000	1
237.900000	1
238.900000	1
239.900000	1
240.900000	1
241.900000	1
243.900000	1
245.900000	1
248.900000	1
250.900000	1
251.900000	1
252.900000	4
253.900000	1
254.950000	4
255.900000	1
256.900000	1
257.900000	1
259.900000	1
260.900000	1
261.900000	1
263.900000	1
264.900000	1
265.900000	1
266.950000	6
267.900000	2
268.900000	8
269.900000	2
270.900000	1
271.900000	1
273.900000	1
274.900000	1
276.900000	1
277.900000	1
278.900000	1
279.900000	1
280.900000	1
282.000000	1
282.950000	74
283.950000	16
284.950000	9
286.000000	2
287.000000	1
288.000000	1
289.000000	1
290.000000	1
292.000000	1
294.000000	1
295.000000	1
296.000000	1
297.000000	1
298.050000	9
299.000000	999
300.000000	253
301.000000	122
301.950000	22
303.000000	7
304.000000	1
305.000000	1
306.000000	1
307.000000	1
308.000000	1
309.000000	1
311.000000	1
313.000000	3
314.000000	178
315.000000	42
316.000000	24
317.000000	4
318.000000	1
319.000000	1
320.000000	1
321.000000	1
322.000000	1
323.000000	1
324.000000	1
325.000000	1
326.000000	1
327.000000	1
328.000000	1
329.000000	1
330.000000	1
331.000000	1
332.000000	1
334.000000	1
335.000000	1
336.000000	1
338.000000	1
339.000000	1
340.000000	1
341.000000	1
342.000000	1
344.000000	1
346.000000	1
347.000000	1
348.000000	1
349.000000	1
350.000000	1
351.000000	1
352.000000	1
353.000000	1
354.000000	1
355.000000	1
356.000000	1
357.000000	1
358.000000	1
359.000000	1
360.000000	1
362.000000	1
365.000000	1
368.000000	1
369.000000	1
370.000000	1
371.000000	1
372.000000	1
373.000000	1
374.000000	1
375.000000	1
376.000000	1
377.000000	1
378.000000	1
379.000000	1
380.000000	1
381.000000	1
383.000000	1
384.000000	1
385.000000	1
386.000000	1
387.000000	1
388.000000	1
389.000000	1
390.000000	1
392.000000	1
394.000000	1
395.000000	1
396.000000	1
398.000000	1
399.000000	1
400.000000	1
401.000000	1
403.000000	1
405.000000	1
406.000000	1
407.000000	1
408.000000	1
409.000000	1
410.000000	1
411.000000	1
412.000000	1
413.000000	1
414.000000	1
415.000000	1
416.000000	1
417.000000	1
418.000000	1
419.000000	1
420.000000	1
422.000000	1
424.000000	1
425.000000	1
426.000000	1
427.000000	1
428.000000	1
429.000000	1
430.000000	1
431.000000	1
432.000000	1
433.000000	1
434.000000	1
435.000000	1
436.000000	1
438.000000	1
439.000000	1
441.000000	1
442.000000	1
443.000000	1
444.000000	1
445.000000	1
447.000000	1
448.000000	1
449.000000	1
450.000000	1
452.000000	1
453.000000	1
454.000000	1
455.000000	1
456.000000	1
457.000000	1
458.000000	1
459.000000	1
460.000000	1
461.000000	1
463.000000	1
464.000000	1
465.000000	1
469.000000	1
470.000000	1
471.000000	1
472.000000	1
473.000000	1
474.000000	1
475.000000	1
476.000000	1
477.000000	1
478.000000	1
479.000000	1
480.000000	1
482.000000	1
483.000000	1
484.000000	1
485.000000	1
486.000000	1
488.000000	1
489.000000	1
491.000000	1
493.000000	1
494.000000	1
495.000000	1
496.000000	1
498.000000	1
499.000000	1
