Mass spectrum: Propyleneglycol; EI-B; MS; 2 TMS; RT: 258.99 s
Name: Propyleneglycol
Class: Natural Product
Formula: C4H10O2
Exact mass: 90.06808
SMILES: CCC(O)CO
InChI: InChI=1S/C4H10O2/c1-2-4(6)3-5/h4-6H,2-3H2,1H3
Instrument: GCMS-2010 Plus, Shimadzu
Instrument type: EI-B
Ms type: MS
Ion mode: POSITIVE
Column name: InertCap 5MS/NP 0.25 mmI.D. x 30 m, df=0.25 um
Retention time: 258.99
Derivative type: 2 TMS
m/z	relative intensity
86.000000	1
87.000000	10
88.000000	2
89.000000	6
90.000000	1
91.000000	2
93.000000	2
94.000000	1
95.100000	13
96.100000	2
97.100000	3
98.100000	2
99.100000	4
100.000000	2
101.000000	20
102.000000	4
102.950000	17
104.000000	3
105.000000	8
106.000000	1
107.000000	1
108.000000	1
110.000000	1
111.000000	2
112.000000	1
113.000000	2
114.000000	1
115.000000	20
116.050000	18
117.050000	999
118.050000	97
119.050000	40
120.000000	4
121.000000	2
123.000000	1
124.000000	1
125.000000	1
126.000000	1
127.000000	1
128.000000	1
129.000000	3
130.000000	3
131.000000	42
132.000000	6
133.000000	45
134.000000	5
135.000000	3
136.000000	1
138.000000	1
139.000000	1
140.000000	1
141.000000	1
142.000000	1
143.000000	1
145.000000	1
146.000000	2
147.050000	468
148.050000	70
149.000000	37
150.000000	3
151.000000	2
152.000000	1
153.000000	1
154.000000	1
155.000000	1
156.000000	1
157.000000	1
158.000000	1
160.000000	2
161.000000	1
162.000000	1
164.000000	1
165.000000	1
166.000000	1
167.000000	1
168.000000	1
169.000000	1
170.000000	1
173.000000	1
175.000000	1
176.000000	2
177.000000	1
178.000000	1
180.000000	1
184.000000	1
185.000000	1
186.000000	1
187.000000	1
189.000000	3
190.000000	1
191.000000	1
192.000000	1
193.000000	1
195.000000	1
196.000000	1
197.000000	1
198.000000	1
199.000000	1
200.000000	1
201.000000	1
202.000000	1
203.000000	1
204.000000	1
205.000000	34
206.000000	6
207.000000	3
209.000000	1
210.000000	1
211.000000	1
213.000000	1
215.000000	1
216.000000	1
217.000000	1
218.000000	1
219.000000	3
220.000000	1
221.000000	1
222.000000	1
223.000000	1
224.000000	1
225.000000	1
226.000000	1
227.000000	1
228.000000	1
229.000000	1
230.000000	1
231.000000	1
233.000000	1
235.000000	1
237.000000	1
239.000000	1
240.000000	1
242.000000	1
243.000000	1
244.000000	1
245.000000	1
246.000000	1
247.000000	1
249.000000	1
250.000000	1
251.000000	1
253.000000	1
254.000000	1
255.000000	1
256.000000	1
257.000000	1
258.000000	1
259.000000	1
260.000000	1
261.000000	1
262.000000	1
264.000000	1
265.000000	1
266.000000	1
268.000000	1
269.000000	1
270.000000	2
271.000000	1
273.000000	1
274.000000	1
275.000000	1
276.000000	1
277.000000	1
278.000000	1
279.000000	1
280.000000	1
281.000000	1
282.000000	1
284.000000	1
285.000000	1
286.000000	1
287.000000	1
288.000000	1
289.000000	1
291.000000	1
292.000000	1
293.000000	1
294.000000	1
295.000000	1
297.000000	1
298.000000	1
300.000000	1
301.000000	1
302.000000	1
304.000000	1
305.000000	1
306.000000	1
308.000000	1
309.000000	1
310.000000	1
311.000000	1
315.000000	1
316.000000	1
317.000000	1
318.000000	1
319.000000	1
320.000000	1
321.000000	1
323.000000	1
324.000000	1
325.000000	1
326.000000	1
328.000000	1
329.000000	1
330.000000	1
332.000000	1
333.000000	1
337.000000	1
338.000000	1
339.000000	1
341.000000	1
342.000000	1
343.000000	1
344.000000	1
345.000000	1
346.000000	1
348.000000	1
349.000000	1
350.000000	1
353.000000	1
354.000000	1
357.000000	1
358.000000	1
359.000000	1
360.000000	1
361.000000	1
363.000000	1
364.000000	1
365.000000	1
367.000000	1
368.000000	1
369.000000	1
370.000000	1
371.000000	1
372.000000	1
373.000000	1
375.000000	1
377.000000	1
378.000000	1
379.000000	1
380.000000	1
382.000000	1
383.000000	1
384.000000	1
385.000000	1
389.000000	1
392.000000	1
393.000000	1
394.000000	1
396.000000	1
397.000000	1
398.000000	1
399.000000	1
400.000000	1
401.000000	1
402.000000	1
403.000000	1
404.000000	1
407.000000	1
408.000000	1
409.000000	1
410.000000	1
411.000000	1
412.000000	1
414.000000	1
415.000000	1
417.000000	1
418.000000	1
419.000000	1
420.000000	1
421.000000	1
422.000000	1
423.000000	1
424.000000	1
425.000000	1
426.000000	1
427.000000	1
428.000000	1
430.000000	1
431.000000	1
434.000000	1
435.000000	1
438.000000	1
442.000000	1
443.000000	1
444.000000	1
445.000000	1
446.000000	1
447.000000	1
448.000000	1
449.000000	1
450.000000	1
451.000000	1
453.000000	1
454.000000	1
455.000000	1
456.000000	1
461.000000	1
462.000000	1
463.000000	1
464.000000	1
465.000000	1
466.000000	1
467.000000	1
468.000000	1
469.000000	1
472.000000	1
473.000000	1
474.000000	1
476.000000	1
478.000000	1
479.000000	1
480.000000	1
482.000000	1
483.000000	1
484.000000	1
485.000000	1
487.000000	1
488.000000	1
489.000000	1
491.000000	1
492.000000	1
494.000000	1
495.000000	1
496.000000	1
497.000000	1
498.000000	1
499.000000	1
