Mass spectrum: D-Glutamine; EI-B; MS; 3 TMS; RT: 723.18 s
Name: D-Glutamine
Class: Natural Product
Formula: C5H10N2O3
Exact mass: 146.06914
SMILES: NC(=O)CC[C@@H](N)C(O)=O
InChI: InChI=1S/C5H10N2O3/c6-3(5(9)10)1-2-4(7)8/h3H,1-2,6H2,(H2,7,8)(H,9,10)/t3-/m1/s1
Instrument: GCMS-2010 Plus, Shimadzu
Instrument type: EI-B
Ms type: MS
Ion mode: POSITIVE
Column name: InertCap 5MS/NP 0.25 mmI.D. x 30 m, df=0.25 um
Retention time: 723.18
Derivative type: 3 TMS
m/z	relative intensity
86.000000	8
87.050000	5
88.100000	2
89.050000	3
90.050000	9
91.100000	2
92.100000	1
93.100000	1
94.100000	2
95.100000	1
96.100000	1
97.100000	2
98.050000	6
99.100000	4
100.100000	50
101.050000	11
102.100000	6
103.050000	6
104.000000	1
105.000000	1
106.000000	1
107.000000	1
108.000000	1
109.000000	1
110.000000	2
111.100000	1
112.050000	12
113.100000	10
114.100000	47
115.100000	28
116.100000	37
117.100000	13
118.100000	4
119.100000	4
120.100000	1
121.100000	1
122.100000	1
123.100000	1
124.100000	1
125.100000	1
126.050000	15
127.150000	5
128.100000	78
129.100000	23
130.100000	25
131.100000	75
132.100000	21
133.050000	33
134.050000	6
135.100000	4
136.100000	1
137.100000	1
138.100000	1
139.100000	45
140.150000	16
141.100000	4
142.150000	23
143.100000	4
144.150000	9
145.150000	49
146.150000	9
147.100000	159
148.100000	29
149.100000	24
150.150000	3
151.100000	1
152.100000	1
153.100000	2
154.150000	4
155.150000	312
156.150000	999
157.150000	145
158.100000	45
159.150000	7
160.150000	4
161.100000	2
162.150000	4
163.200000	2
164.200000	1
165.200000	1
166.100000	1
167.100000	5
168.100000	2
169.100000	1
170.100000	1
171.100000	2
172.100000	8
173.100000	20
174.100000	6
175.100000	2
176.100000	2
177.100000	1
178.100000	1
179.100000	1
180.100000	1
181.100000	1
182.100000	1
183.100000	4
184.100000	1
185.100000	2
186.100000	2
187.100000	2
188.100000	18
189.050000	4
190.100000	2
191.100000	1
192.100000	1
193.100000	1
194.100000	1
195.100000	1
196.100000	1
197.100000	1
198.100000	1
199.100000	1
200.100000	3
201.100000	1
202.150000	6
203.100000	115
204.100000	29
205.100000	11
206.100000	2
207.100000	1
208.100000	1
209.100000	1
210.100000	1
211.050000	4
212.100000	1
213.050000	4
214.100000	4
215.100000	2
216.100000	11
217.100000	8
218.100000	28
219.050000	10
220.100000	4
221.100000	9
222.100000	2
223.100000	1
225.100000	1
226.200000	1
227.150000	15
228.150000	8
229.150000	57
230.100000	31
231.100000	10
232.100000	19
233.150000	4
234.100000	2
235.100000	1
236.100000	1
238.100000	1
239.100000	2
240.100000	1
241.100000	1
242.100000	1
243.150000	4
244.150000	14
245.150000	217
246.150000	45
247.150000	20
248.100000	5
249.100000	1
250.100000	1
251.100000	1
252.100000	1
253.100000	1
254.100000	1
255.100000	1
256.100000	1
257.100000	15
258.150000	9
259.100000	3
260.100000	1
261.100000	1
262.100000	1
263.100000	1
264.100000	1
265.100000	1
266.100000	1
267.100000	1
268.100000	1
269.100000	1
270.100000	1
271.200000	1
272.150000	13
273.200000	21
274.150000	6
275.100000	3
276.100000	1
277.100000	1
278.100000	1
280.100000	1
281.100000	1
282.100000	1
283.100000	1
284.100000	1
285.100000	1
286.100000	1
287.100000	1
288.100000	1
289.100000	1
290.100000	1
291.100000	2
292.100000	1
293.100000	1
294.100000	1
295.100000	1
296.100000	1
297.100000	1
298.100000	1
299.100000	1
300.200000	1
301.150000	20
302.100000	6
303.200000	4
304.200000	1
305.200000	1
306.200000	1
307.200000	1
308.200000	1
309.200000	1
310.200000	1
311.200000	1
313.200000	1
315.200000	1
316.200000	1
317.200000	1
318.200000	1
319.200000	1
320.200000	1
321.200000	1
324.200000	1
325.200000	1
326.200000	1
327.200000	1
329.200000	1
330.200000	1
331.200000	1
332.200000	1
333.200000	1
336.200000	1
337.200000	1
338.200000	1
339.200000	1
340.200000	1
341.200000	1
342.200000	1
343.200000	1
344.200000	2
345.200000	1
346.200000	1
347.200000	54
348.150000	16
349.200000	7
350.200000	1
351.200000	1
352.200000	1
354.200000	1
355.200000	1
356.200000	1
357.200000	1
358.200000	1
360.200000	1
361.200000	1
362.200000	21
363.150000	7
364.200000	3
365.200000	1
366.200000	1
367.200000	1
368.200000	1
369.200000	1
370.200000	1
371.200000	1
372.200000	1
374.200000	1
375.200000	1
377.200000	1
378.200000	1
379.200000	1
380.200000	1
381.200000	1
382.200000	1
383.200000	1
384.200000	1
385.200000	1
386.200000	1
387.200000	1
388.200000	1
389.200000	1
390.200000	1
391.200000	1
394.200000	1
395.200000	1
396.200000	1
397.200000	1
399.200000	1
401.200000	1
402.200000	1
403.200000	1
404.200000	1
405.200000	1
406.200000	1
407.200000	1
408.200000	1
409.200000	1
411.200000	1
412.200000	1
414.200000	1
415.200000	1
417.200000	1
418.200000	1
420.200000	1
421.200000	1
423.200000	1
425.200000	1
426.200000	1
427.200000	1
428.200000	1
429.200000	1
430.200000	1
431.200000	1
434.200000	1
435.200000	1
437.200000	1
438.200000	1
439.200000	1
440.200000	1
441.200000	1
443.200000	1
444.200000	1
445.200000	1
446.200000	1
447.200000	1
448.200000	1
449.200000	1
451.200000	1
453.200000	1
454.200000	1
455.200000	1
456.200000	1
458.200000	1
459.200000	1
460.200000	1
461.200000	1
463.200000	1
464.200000	1
465.200000	1
468.200000	1
469.200000	1
471.200000	1
472.200000	1
473.200000	1
474.200000	1
475.200000	1
476.200000	1
477.200000	1
478.200000	1
479.200000	1
480.200000	1
481.200000	1
483.200000	1
484.200000	1
485.200000	1
486.200000	1
487.200000	1
488.200000	1
489.200000	1
490.200000	1
491.200000	1
492.200000	1
493.200000	1
494.200000	1
495.200000	1
497.200000	1
499.200000	1
