Mass spectrum: 2-Aminopimelic acid; EI-B; MS; 3 TMS; RT: 1821.79 s
Name: 2-Aminopimelic acid
Class: Natural Product
Formula: C7H13NO4
Exact mass: 175.08446
SMILES: OC(=O)CCCCC(N)C(O)=O
InChI: InChI=1S/C7H13NO4/c8-5(7(11)12)3-1-2-4-6(9)10/h5H,1-4,8H2,(H,9,10)(H,11,12)
Instrument: GCMS-2010 Plus, Shimadzu
Instrument type: EI-B
Ms type: MS
Ion mode: POSITIVE
Column name: InertCap 5MS/NP 0.25 mmI.D. x 30 m, df=0.25 um
Retention time: 739.40
Derivative type: n TMS
m/z	relative intensity
86.050000	7
87.050000	4
88.050000	4
89.050000	4
90.050000	9
91.100000	3
92.100000	1
93.150000	1
94.100000	32
95.050000	24
96.100000	4
97.050000	2
98.050000	5
99.150000	6
100.050000	210
101.050000	24
102.100000	25
103.050000	11
104.050000	2
105.050000	1
106.100000	1
107.100000	1
108.100000	1
109.100000	1
110.100000	6
111.150000	2
112.100000	40
113.100000	7
114.100000	16
115.100000	42
116.100000	47
117.100000	17
118.100000	158
119.100000	18
120.050000	6
121.100000	1
122.100000	8
123.050000	2
124.000000	1
125.100000	2
126.100000	5
127.150000	2
128.100000	68
129.100000	23
130.050000	13
131.050000	15
132.100000	11
133.050000	30
134.100000	5
135.050000	3
136.100000	1
137.100000	1
138.100000	1
139.150000	1
140.150000	3
141.100000	21
142.150000	12
143.150000	4
144.150000	2
145.100000	2
146.150000	4
147.100000	138
148.100000	24
149.100000	24
150.150000	4
151.100000	3
152.150000	6
153.100000	2
154.100000	5
155.150000	28
156.150000	14
157.150000	50
158.150000	9
159.100000	21
160.100000	4
161.100000	3
162.100000	1
163.150000	3
164.100000	1
165.100000	1
166.150000	3
167.100000	45
168.100000	54
169.100000	25
170.100000	7
171.100000	3
172.100000	8
173.100000	2
174.100000	13
175.050000	2
176.100000	3
177.000000	2
178.000000	1
179.000000	1
180.000000	1
181.000000	1
182.100000	2
183.150000	2
184.100000	210
185.100000	36
186.100000	15
187.100000	3
188.000000	3
189.100000	2
190.100000	4
191.100000	3
192.100000	5
193.000000	2
194.150000	2
195.100000	1
196.050000	8
197.050000	3
198.100000	1
199.100000	1
200.050000	2
201.050000	1
202.100000	12
203.050000	5
204.050000	2
205.050000	1
206.100000	1
207.100000	1
208.100000	1
209.100000	1
210.100000	1
211.100000	1
212.050000	3
213.100000	1
214.100000	3
215.100000	2
216.100000	3
217.150000	2
218.100000	46
219.100000	16
220.100000	5
221.050000	3
222.100000	1
223.100000	1
224.100000	1
225.100000	1
226.100000	1
227.100000	1
228.100000	1
229.100000	1
230.150000	2
231.100000	2
232.100000	2
233.100000	1
234.100000	1
235.100000	1
236.100000	1
237.100000	1
238.100000	1
239.100000	1
240.100000	1
241.150000	3
242.150000	5
243.100000	2
244.100000	3
245.100000	1
246.100000	1
247.100000	1
248.100000	1
249.100000	1
250.100000	1
251.100000	1
252.100000	1
253.100000	1
254.100000	1
255.100000	1
256.250000	1
257.250000	3
258.150000	54
259.150000	12
260.100000	6
261.100000	1
262.100000	1
263.100000	1
264.100000	1
265.100000	1
266.100000	1
267.100000	1
268.100000	1
269.100000	1
270.100000	1
271.100000	1
272.100000	2
273.250000	14
274.200000	999
275.150000	226
276.150000	97
277.150000	15
278.150000	3
279.100000	1
280.100000	1
281.100000	1
282.100000	1
283.100000	1
284.150000	2
285.250000	2
286.150000	60
287.150000	14
288.150000	6
289.100000	1
290.100000	1
291.100000	1
292.100000	1
293.100000	1
294.100000	1
297.100000	1
298.100000	1
299.100000	1
300.100000	1
301.100000	1
302.200000	2
303.200000	1
304.200000	1
305.200000	1
306.200000	1
307.200000	1
310.200000	1
311.200000	1
312.200000	1
315.200000	1
316.200000	1
318.200000	1
319.200000	1
320.200000	1
321.200000	1
322.200000	1
323.200000	1
324.200000	1
325.200000	1
326.200000	1
327.200000	1
329.200000	1
330.200000	1
331.200000	1
332.200000	1
333.200000	1
334.200000	1
335.200000	1
336.200000	1
337.200000	1
338.200000	1
340.200000	1
341.200000	1
343.200000	1
345.200000	1
346.200000	1
347.200000	1
348.200000	48
349.200000	15
350.200000	7
351.250000	1
352.200000	1
353.200000	1
355.200000	1
356.200000	1
357.200000	1
358.150000	2
359.200000	1
360.200000	1
361.200000	1
362.200000	1
363.200000	1
364.200000	1
365.200000	1
366.200000	1
367.200000	1
369.200000	1
370.200000	1
371.200000	1
372.200000	1
373.200000	1
374.200000	1
375.250000	2
376.200000	62
377.200000	19
378.150000	9
379.150000	2
380.200000	1
381.200000	1
383.200000	1
384.200000	1
386.200000	1
387.200000	1
388.200000	1
389.200000	1
390.200000	1
391.200000	12
392.200000	5
393.150000	2
394.200000	1
395.200000	1
396.200000	1
398.200000	1
399.200000	1
400.200000	1
401.200000	1
402.200000	1
403.200000	1
404.200000	1
405.200000	1
406.200000	1
407.200000	1
408.200000	1
409.200000	1
410.200000	1
411.200000	1
412.200000	1
414.200000	1
415.200000	1
416.200000	1
417.200000	1
418.200000	1
419.200000	1
420.200000	1
423.200000	1
424.200000	1
425.200000	1
426.200000	1
427.200000	1
428.200000	1
429.200000	1
430.200000	1
431.200000	1
435.200000	1
436.200000	1
437.200000	1
438.200000	1
439.200000	1
442.200000	1
443.200000	1
444.200000	1
445.200000	1
447.200000	1
448.200000	1
449.200000	1
450.200000	1
451.200000	1
452.200000	1
453.200000	1
454.200000	1
455.200000	1
456.200000	1
457.200000	1
458.200000	1
459.200000	1
460.200000	1
461.200000	1
462.200000	1
463.200000	1
464.200000	1
466.200000	1
468.200000	1
469.200000	1
471.200000	1
474.200000	1
475.200000	1
477.200000	1
479.200000	1
481.200000	1
482.200000	1
483.200000	1
484.200000	1
485.200000	1
489.200000	1
490.200000	1
493.200000	1
494.200000	1
495.200000	1
496.200000	1
499.200000	1
