Mass spectrum: (-)-Shikimic acid; EI-B; MS; n TMS; RT: 738.71 s
Name: (-)-Shikimic acid
Class: Natural Product
Formula: C7H10O5
Exact mass: 174.05282
SMILES: OC(=O)C(C1)=C[C@@H](O)[C@@H](O)[C@H](O)1
InChI: InChI=1S/C7H10O5/c8-4-1-3(7(11)12)2-5(9)6(4)10/h1,4-6,8-10H,2H2,(H,11,12)/t4-,5-,6-/m1/s1
Instrument: GCMS-2010 Plus, Shimadzu
Instrument type: EI-B
Ms type: MS
Ion mode: POSITIVE
Column name: InertCap 5MS/NP 0.25 mmI.D. x 30 m, df=0.25 um
Retention time: 738.71
Derivative type: n TMS
m/z	relative intensity
86.000000	1
87.050000	1
88.050000	1
89.050000	1
90.100000	1
91.050000	5
92.050000	1
93.050000	8
94.050000	2
95.000000	2
96.050000	1
97.000000	1
98.050000	1
99.000000	1
100.000000	1
101.000000	3
102.000000	1
103.050000	13
104.050000	1
105.050000	5
106.050000	1
107.000000	1
108.050000	1
109.000000	2
110.000000	1
111.000000	2
112.000000	1
113.000000	1
114.000000	1
115.000000	2
116.000000	3
117.000000	4
118.000000	1
119.050000	5
120.050000	1
121.000000	4
122.050000	1
123.050000	2
124.000000	1
125.000000	2
126.100000	1
127.050000	1
128.100000	1
129.050000	4
130.050000	1
131.000000	13
132.050000	2
133.050000	37
134.050000	5
135.050000	5
136.050000	1
137.050000	1
138.050000	1
139.050000	2
140.150000	1
141.050000	9
142.050000	2
143.050000	2
144.000000	1
145.000000	1
146.150000	2
147.050000	181
148.050000	27
149.050000	19
150.100000	2
151.050000	9
152.050000	2
153.100000	2
154.100000	1
155.100000	1
156.050000	1
157.000000	1
158.000000	1
159.100000	1
160.100000	1
161.050000	2
162.100000	1
163.050000	2
164.100000	1
165.100000	4
166.000000	2
167.000000	9
168.050000	2
169.050000	4
170.050000	1
171.000000	1
172.000000	1
173.000000	1
174.000000	1
175.000000	1
176.000000	1
177.000000	3
178.050000	1
179.050000	2
180.050000	8
181.000000	10
182.000000	3
183.000000	2
184.000000	1
184.950000	1
185.900000	1
187.000000	1
188.050000	1
189.000000	55
190.050000	10
191.000000	27
192.000000	5
193.000000	19
194.000000	3
195.000000	6
196.000000	1
196.950000	1
198.000000	1
199.000000	1
200.000000	1
201.000000	1
202.000000	1
203.050000	5
204.050000	999
205.000000	179
206.000000	86
207.000000	15
208.050000	3
208.950000	3
210.000000	2
211.000000	2
212.000000	1
212.950000	1
214.000000	1
215.000000	2
216.050000	1
217.000000	6
218.050000	1
219.000000	1
220.000000	1
221.000000	14
222.050000	3
223.000000	7
224.000000	2
225.000000	3
226.000000	1
227.000000	1
228.050000	1
229.000000	2
230.000000	1
231.000000	1
232.000000	1
233.000000	1
235.000000	1
236.000000	1
237.000000	1
238.050000	1
239.000000	16
240.000000	4
241.000000	4
242.050000	1
243.000000	10
244.050000	2
245.000000	1
246.000000	1
247.000000	1
249.000000	1
250.000000	1
250.950000	1
252.000000	1
253.050000	4
254.050000	50
255.050000	70
256.050000	21
257.050000	8
258.050000	5
259.000000	1
260.100000	1
261.100000	1
262.100000	1
263.100000	1
264.000000	1
265.050000	8
266.050000	2
267.050000	18
268.050000	4
269.050000	3
269.950000	1
271.050000	1
272.100000	1
273.100000	1
274.100000	1
275.100000	1
276.100000	1
277.100000	1
278.100000	1
279.100000	1
280.100000	1
281.100000	5
282.050000	44
283.050000	23
284.050000	8
285.050000	2
286.100000	1
287.100000	1
288.100000	1
289.100000	1
290.100000	1
291.100000	1
292.100000	1
293.100000	1
294.100000	1
295.100000	1
296.100000	1
297.100000	1
298.100000	1
299.100000	1
300.100000	1
301.100000	1
302.100000	1
303.100000	1
304.100000	1
305.100000	6
306.000000	2
307.050000	1
308.000000	1
309.000000	1
310.000000	1
311.050000	1
312.100000	6
313.100000	4
314.050000	1
314.900000	1
315.900000	1
316.900000	1
318.150000	1
319.100000	1
320.100000	1
321.100000	1
322.100000	1
323.100000	1
324.000000	1
325.000000	1
326.000000	1
327.050000	1
328.100000	1
329.050000	5
330.150000	2
331.100000	20
332.050000	6
333.050000	3
334.100000	1
335.100000	1
336.100000	1
338.100000	1
339.100000	1
340.100000	1
341.050000	2
342.050000	4
343.050000	5
344.050000	2
345.100000	1
346.100000	3
347.050000	1
348.000000	1
349.000000	1
350.000000	1
351.000000	1
352.000000	1
353.000000	1
354.100000	1
355.050000	6
356.050000	17
357.050000	57
358.000000	17
359.050000	10
360.000000	3
361.050000	1
362.000000	1
363.000000	1
364.000000	1
365.000000	1
366.000000	1
367.000000	1
368.000000	1
369.000000	1
370.100000	1
371.150000	2
372.100000	67
373.050000	20
374.050000	11
375.000000	3
376.000000	1
377.000000	1
378.000000	1
379.000000	1
380.000000	1
381.000000	1
382.000000	1
383.000000	1
384.000000	1
387.000000	1
388.000000	1
390.000000	1
392.000000	1
393.000000	1
394.000000	1
395.000000	1
399.000000	1
400.000000	1
401.000000	1
402.000000	1
403.000000	1
404.000000	1
405.000000	1
406.000000	1
407.000000	1
408.000000	1
409.000000	1
411.000000	1
413.000000	1
414.000000	1
415.000000	1
416.100000	1
417.100000	2
418.050000	1
419.100000	1
420.100000	1
421.100000	1
422.100000	1
423.100000	1
425.100000	1
426.100000	1
427.100000	1
428.100000	1
429.100000	1
430.100000	1
431.100000	1
432.100000	1
433.100000	1
434.100000	1
435.100000	1
436.100000	1
438.100000	1
440.100000	1
441.100000	1
442.100000	1
443.100000	1
444.100000	1
445.100000	1
446.150000	1
447.100000	14
448.050000	5
449.050000	3
450.050000	1
451.100000	1
452.100000	1
453.100000	1
454.100000	1
455.100000	1
456.100000	1
457.100000	1
458.100000	1
459.100000	1
460.100000	1
461.150000	1
462.100000	24
463.100000	11
464.050000	6
465.050000	2
466.050000	1
467.100000	1
468.100000	1
469.100000	1
471.100000	1
472.100000	1
473.100000	1
474.100000	1
475.100000	1
476.100000	1
477.100000	1
478.100000	1
479.100000	1
480.100000	1
481.100000	1
482.100000	1
483.100000	1
484.100000	1
485.100000	1
487.100000	1
488.100000	1
489.100000	1
491.100000	1
492.100000	1
493.100000	1
494.100000	1
495.100000	1
496.100000	1
498.100000	1
499.100000	1
