Mass spectrum: L-Alanine; EI-B; MS; 3 TMS; RT: 508.11 s
Name: L-Alanine
Class: Natural Product
Formula: C3H7NO2
Exact mass: 89.04768
SMILES: CC(N)C(O)=O
InChI: InChI=1S/C3H7NO2/c1-2(4)3(5)6/h2H,4H2,1H3,(H,5,6)/t2-/m0/s1
Instrument: GCMS-2010 Plus, Shimadzu
Instrument type: EI-B
Ms type: MS
Ion mode: POSITIVE
Column name: InertCap 5MS/NP 0.25 mmI.D. x 30 m, df=0.25 um
Retention time: 508.11
Derivative type: 3 TMS
m/z	relative intensity
86.000000	7
87.050000	5
88.100000	1
89.100000	1
90.100000	1
91.100000	1
92.100000	1
93.100000	1
94.100000	1
95.100000	1
96.100000	1
97.100000	1
98.100000	2
99.150000	5
100.100000	634
101.050000	64
102.050000	23
103.000000	8
104.000000	1
105.000000	2
106.000000	1
107.000000	1
108.000000	1
109.000000	1
110.000000	1
111.000000	1
112.000000	1
113.100000	4
114.100000	148
115.100000	23
116.100000	31
117.100000	20
118.100000	4
119.050000	6
120.000000	1
121.000000	1
122.000000	1
123.000000	1
124.000000	1
125.000000	1
126.000000	1
127.000000	1
128.000000	4
129.100000	3
130.100000	25
131.050000	29
132.100000	9
133.100000	65
134.100000	11
135.100000	4
136.100000	1
137.100000	1
138.100000	1
139.100000	1
140.100000	1
141.100000	1
142.100000	2
143.100000	1
144.100000	1
145.100000	2
146.100000	2
147.100000	224
148.100000	34
149.100000	19
150.100000	1
151.100000	1
152.100000	1
153.100000	1
154.100000	1
155.100000	1
156.100000	1
157.100000	1
158.050000	7
159.100000	2
160.100000	1
161.100000	1
162.100000	1
163.100000	1
164.100000	1
165.100000	1
166.100000	1
167.100000	1
168.100000	1
169.100000	1
170.100000	1
171.100000	1
172.100000	16
173.150000	4
174.100000	11
175.100000	7
176.100000	2
177.100000	1
178.100000	1
179.100000	1
180.100000	1
181.100000	1
182.100000	1
183.100000	1
184.100000	1
185.100000	1
186.100000	2
187.150000	6
188.100000	999
189.100000	195
190.100000	82
191.050000	30
192.050000	5
193.100000	2
194.100000	1
195.100000	1
196.100000	1
197.100000	1
199.100000	1
200.100000	2
201.100000	1
202.000000	7
203.000000	1
204.000000	3
205.000000	2
206.000000	1
207.000000	11
208.000000	2
209.000000	1
210.000000	1
211.000000	1
212.000000	1
214.000000	1
215.000000	1
216.000000	1
217.000000	1
218.000000	1
219.000000	3
220.000000	1
221.000000	2
222.000000	1
223.000000	1
225.000000	1
226.000000	1
228.000000	1
229.000000	1
230.000000	1
231.000000	1
232.000000	2
233.000000	1
234.000000	1
236.000000	1
237.000000	1
239.000000	1
240.000000	1
241.000000	1
243.000000	1
246.100000	15
247.100000	3
248.100000	1
249.100000	1
250.100000	1
251.100000	1
253.100000	3
254.100000	1
255.100000	1
256.100000	1
257.100000	1
258.100000	1
260.100000	1
261.100000	1
262.150000	189
263.100000	49
264.100000	25
265.100000	5
266.100000	2
267.100000	1
269.100000	1
270.100000	1
271.100000	1
272.100000	1
273.100000	1
274.100000	1
275.100000	1
276.100000	1
277.100000	1
278.100000	1
279.100000	1
280.100000	1
281.100000	1
282.100000	1
283.100000	1
284.100000	1
285.100000	1
287.100000	1
288.100000	1
289.100000	1
290.100000	35
291.050000	10
292.050000	5
293.000000	1
294.000000	1
295.000000	1
296.000000	1
297.000000	1
298.000000	1
299.000000	1
300.000000	1
301.000000	1
302.000000	1
303.000000	1
304.000000	1
305.000000	1
306.000000	1
307.000000	1
310.000000	1
311.000000	1
312.000000	1
313.000000	1
314.000000	1
315.000000	1
316.000000	1
317.000000	1
318.000000	1
319.000000	1
320.000000	1
321.000000	1
322.000000	1
323.000000	1
324.000000	1
325.000000	1
326.000000	1
327.000000	1
328.000000	1
329.000000	1
330.000000	1
332.000000	1
333.000000	1
334.000000	1
335.000000	1
336.000000	1
338.000000	1
341.000000	1
342.000000	1
343.000000	1
344.000000	1
345.000000	1
346.000000	1
347.000000	1
348.000000	1
350.000000	1
351.000000	1
354.000000	1
355.000000	1
356.000000	1
357.000000	1
358.000000	1
359.000000	1
361.000000	1
362.000000	1
363.000000	1
365.000000	1
366.000000	1
367.000000	1
368.000000	1
369.000000	1
370.000000	1
371.000000	1
373.000000	1
374.000000	1
375.000000	1
376.000000	1
377.000000	1
379.000000	1
380.000000	1
381.000000	1
382.000000	1
383.000000	1
384.000000	1
385.000000	1
386.000000	1
387.000000	1
388.000000	1
389.000000	1
390.000000	1
392.000000	1
393.000000	1
394.000000	1
395.000000	1
398.000000	1
399.000000	1
400.000000	1
401.000000	1
402.000000	1
403.000000	1
404.000000	1
405.000000	1
406.000000	1
407.000000	1
409.000000	1
410.000000	1
411.000000	1
412.000000	1
413.000000	1
414.000000	1
415.000000	1
418.000000	1
419.000000	1
421.000000	1
422.000000	1
423.000000	1
424.000000	1
425.000000	1
427.000000	1
428.000000	1
429.000000	1
430.000000	1
431.000000	1
432.000000	1
434.000000	1
435.000000	1
437.000000	1
438.000000	1
439.000000	1
440.000000	1
441.000000	1
443.000000	1
444.000000	1
445.000000	1
446.000000	1
447.000000	1
451.000000	1
452.000000	1
453.000000	1
454.000000	1
455.000000	1
456.000000	1
458.000000	1
459.000000	1
460.000000	1
462.000000	1
463.000000	1
464.000000	1
465.000000	1
466.000000	1
467.000000	1
469.000000	1
471.000000	1
472.000000	1
473.000000	1
474.000000	1
475.000000	1
476.000000	1
477.000000	1
478.000000	1
479.000000	1
481.000000	1
483.000000	1
485.000000	1
486.000000	1
487.000000	1
488.000000	1
489.000000	1
490.000000	1
491.000000	1
492.000000	1
493.000000	1
494.000000	1
495.000000	1
496.000000	1
497.000000	1
498.000000	1
499.000000	1
