Mass spectrum: Glyceric acid; EI-B; MS; 3 TMS; RT: 488.72 s
Name: Glyceric acid
Class: Natural Product
Formula: C3H6O4
Exact mass: 106.02661
SMILES: OC[C@@H](O)C(O)=O
InChI: InChI=1S/C3H6O4/c4-1-2(5)3(6)7/h2,4-5H,1H2,(H,6,7)/t2-/m1/s1
Instrument: GCMS-2010 Plus, Shimadzu
Instrument type: EI-B
Ms type: MS
Ion mode: POSITIVE
Column name: InertCap 5MS/NP 0.25 mmI.D. x 30 m, df=0.25 um
Retention time: 488.72
Derivative type: n TMS
m/z	relative intensity
86.000000	3
87.000000	13
88.000000	9
89.000000	42
90.000000	5
91.000000	2
92.000000	1
93.000000	1
94.000000	1
95.000000	2
96.000000	1
97.000000	1
98.000000	1
99.050000	7
100.000000	2
101.000000	87
102.000000	392
103.000000	432
104.000000	51
105.000000	23
106.000000	2
107.000000	1
108.000000	1
109.000000	1
110.000000	1
111.000000	1
113.000000	3
114.000000	1
115.000000	17
116.000000	40
117.000000	215
118.000000	22
118.950000	26
120.000000	4
121.000000	2
122.000000	1
123.000000	1
125.000000	1
126.000000	1
127.000000	1
128.000000	1
129.000000	8
130.000000	145
131.000000	81
132.050000	16
133.000000	278
134.000000	41
135.000000	27
136.000000	3
137.000000	1
138.000000	1
139.000000	1
140.000000	1
141.000000	1
142.000000	6
143.000000	9
144.000000	2
145.000000	3
146.000000	3
147.050000	999
148.050000	158
149.000000	93
150.050000	11
151.100000	5
152.100000	1
153.100000	1
154.100000	1
156.100000	1
157.100000	1
158.100000	1
159.100000	2
160.100000	1
161.100000	4
162.000000	1
163.000000	18
164.000000	2
165.000000	2
166.000000	1
167.000000	1
168.000000	1
169.000000	1
170.000000	1
171.000000	1
172.000000	1
173.000000	6
173.900000	1
174.950000	40
175.950000	8
176.900000	13
177.900000	3
178.900000	1
180.900000	1
181.900000	1
182.900000	1
183.900000	1
184.900000	1
185.900000	1
186.900000	1
188.000000	3
188.950000	718
189.950000	145
190.950000	75
191.900000	11
192.900000	3
193.900000	1
194.900000	1
195.900000	1
196.900000	1
197.900000	1
199.900000	1
200.900000	1
201.900000	1
202.900000	1
203.900000	19
204.950000	196
205.950000	38
206.950000	25
207.900000	4
208.900000	2
209.900000	1
210.900000	1
211.900000	1
212.900000	1
213.900000	1
214.900000	1
215.900000	1
216.900000	51
217.900000	11
218.900000	18
219.900000	3
220.900000	26
221.900000	5
222.900000	3
223.900000	1
224.900000	1
225.900000	1
227.900000	1
228.900000	1
229.900000	1
230.900000	2
231.900000	4
232.900000	1
233.900000	1
234.900000	1
235.900000	1
236.900000	1
237.900000	1
238.900000	1
239.900000	1
241.900000	1
242.900000	1
243.900000	1
244.900000	1
245.900000	1
246.900000	1
247.900000	1
248.900000	1
249.900000	1
250.900000	1
251.900000	1
252.900000	1
253.900000	1
254.900000	1
255.900000	1
256.900000	1
257.900000	1
259.900000	1
260.900000	1
261.900000	1
262.900000	1
263.900000	1
264.900000	7
265.900000	1
266.900000	1
267.900000	1
268.900000	1
269.900000	1
271.900000	1
272.900000	1
273.900000	1
274.900000	1
275.900000	1
276.900000	1
277.900000	1
278.950000	8
279.900000	2
280.900000	1
281.900000	1
282.900000	1
283.900000	1
284.900000	1
286.900000	1
287.900000	1
288.900000	1
289.900000	1
290.900000	1
291.950000	408
292.950000	116
293.900000	56
294.900000	11
295.900000	2
296.900000	1
297.900000	1
298.900000	1
299.900000	1
300.900000	1
301.900000	1
302.900000	1
303.900000	1
304.900000	2
305.900000	1
306.900000	90
307.900000	23
308.900000	11
309.900000	2
310.900000	1
311.900000	1
312.900000	1
314.900000	1
315.900000	1
316.900000	1
317.900000	1
318.900000	1
319.900000	1
320.900000	1
321.900000	8
322.900000	2
323.900000	2
324.900000	1
325.900000	1
326.900000	1
327.900000	1
328.900000	1
329.900000	1
330.900000	1
331.900000	1
332.900000	1
333.900000	1
334.900000	1
335.900000	1
336.900000	1
337.900000	1
339.900000	1
340.900000	1
341.900000	1
342.900000	1
343.900000	1
344.900000	1
345.900000	1
346.900000	1
348.900000	1
349.900000	1
352.900000	1
353.900000	1
354.900000	1
355.900000	1
356.900000	1
357.900000	1
361.900000	1
363.900000	1
364.900000	1
365.900000	1
366.900000	1
367.900000	1
368.900000	1
369.900000	1
370.900000	1
371.900000	1
372.900000	1
375.900000	1
376.900000	1
377.900000	1
378.900000	1
379.900000	1
380.900000	1
381.900000	1
382.900000	1
383.900000	1
384.900000	1
385.900000	1
386.900000	1
387.900000	1
388.900000	1
389.900000	1
393.900000	1
394.900000	1
395.900000	1
396.900000	1
397.900000	1
398.900000	1
400.900000	1
401.900000	1
402.900000	1
403.900000	1
404.900000	1
405.900000	1
406.900000	1
407.900000	1
408.900000	1
409.900000	1
410.900000	1
411.900000	1
412.900000	1
413.900000	1
414.900000	1
415.900000	1
417.900000	1
418.900000	1
419.900000	1
421.900000	1
422.900000	1
423.900000	1
424.900000	1
425.900000	1
427.900000	1
428.900000	1
429.900000	1
430.900000	1
431.900000	1
432.900000	1
433.900000	1
435.900000	1
436.900000	1
437.900000	1
438.900000	1
439.900000	1
440.900000	1
441.900000	1
442.900000	1
443.900000	1
444.900000	1
446.900000	1
448.900000	1
450.900000	1
451.900000	1
452.900000	1
453.900000	1
454.900000	1
455.900000	1
456.900000	1
457.900000	1
458.900000	1
461.900000	1
462.900000	1
463.900000	1
464.900000	1
465.900000	1
466.900000	1
467.900000	1
468.900000	1
469.900000	1
471.900000	1
472.900000	1
473.900000	1
474.900000	1
475.900000	1
477.900000	1
478.900000	1
479.900000	1
481.900000	1
482.900000	1
483.900000	1
484.900000	1
485.900000	1
486.900000	1
487.900000	1
488.900000	1
489.900000	1
490.900000	1
491.900000	1
492.900000	1
493.900000	1
494.900000	1
496.900000	1
497.900000	1
