Mass spectrum: Xanthurenic acid; EI-B; MS; 3 TMS
Name: Xanthurenic acid
Name: Xanthurenate
Class: Natural Product
Formula: C10H7NO4
Exact mass: 205.03751
SMILES: OC(=O)c(c1)nc(c(O)2)c(ccc2)c(O)1
InChI: InChI=1S/C10H7NO4/c12-7-3-1-2-5-8(13)4-6(10(14)15)11-9(5)7/h1-4,12H,(H,11,13)(H,14,15)
Instrument: GCMS-2010 Plus, Shimadzu
Instrument type: EI-B
Ms type: MS
Ion mode: POSITIVE
Column name: InertCap 5MS/NP 0.25 mmI.D. x 30 m, df=0.25 um
Retention time: 929.58
Derivative type: 3 TMS
m/z	relative intensity
87.000000	2
88.000000	3
89.000000	6
90.000000	3
91.000000	3
92.000000	3
93.000000	3
94.000000	4
95.000000	3
96.000000	5
97.000000	2
98.000000	2
99.000000	6
100.000000	5
101.000000	3
102.000000	4
103.000000	9
104.000000	2
105.000000	4
106.000000	1
107.000000	2
108.000000	1
109.000000	4
110.000000	2
111.000000	2
112.000000	4
113.000000	4
114.000000	5
115.000000	11
116.000000	3
117.000000	7
118.000000	3
119.000000	8
120.000000	2
121.000000	3
122.000000	1
123.000000	4
124.000000	3
125.000000	1
126.000000	3
127.000000	7
128.000000	6
129.000000	5
130.000000	7
131.000000	18
132.000000	6
133.000000	12
134.000000	4
135.000000	8
136.000000	3
137.000000	3
138.000000	2
139.000000	3
140.000000	4
141.000000	4
142.000000	3
143.000000	7
144.000000	6
145.000000	3
146.000000	5
147.000000	18
148.000000	6
149.000000	8
150.000000	2
151.000000	4
152.000000	1
153.000000	3
154.000000	5
155.000000	2
156.000000	6
157.000000	3
158.000000	5
159.000000	7
160.000000	5
161.000000	4
162.000000	2
163.000000	3
164.000000	1
165.000000	3
166.000000	2
167.000000	1
168.000000	2
169.000000	2
170.000000	5
171.000000	4
172.000000	6
173.000000	5
174.000000	3
175.000000	3
176.000000	2
177.000000	4
178.000000	3
179.000000	5
180.000000	1
181.000000	2
182.000000	3
183.000000	3
184.000000	4
185.000000	6
186.000000	4
187.000000	5
188.000000	6
189.000000	5
190.000000	1
191.000000	3
192.000000	4
193.000000	4
194.000000	3
195.000000	4
196.000000	4
197.000000	3
198.000000	4
199.000000	5
200.000000	14
201.000000	6
202.000000	11
203.000000	6
204.000000	4
205.000000	3
206.000000	5
207.000000	22
208.000000	9
209.000000	6
210.000000	1
211.000000	1
212.000000	4
213.000000	2
214.000000	4
215.000000	4
216.000000	12
217.000000	9
218.000000	14
219.000000	11
220.000000	4
221.000000	3
222.000000	3
223.000000	2
224.000000	2
225.000000	2
226.000000	1
227.000000	2
228.000000	10
229.000000	18
230.000000	17
231.000000	11
232.000000	21
233.000000	8
234.000000	9
235.000000	3
236.000000	1
237.000000	3
238.000000	1
239.000000	1
241.000000	2
242.000000	4
243.000000	3
244.000000	20
245.000000	4
246.000000	11
247.000000	3
248.000000	6
249.000000	5
250.000000	1
251.000000	3
252.000000	2
253.000000	7
254.000000	2
255.000000	1
256.000000	3
257.000000	5
258.000000	11
259.000000	8
260.000000	10
261.000000	1
262.000000	6
263.000000	4
264.000000	5
265.000000	3
266.000000	4
267.000000	3
268.000000	2
269.000000	1
270.000000	2
271.000000	2
272.000000	11
273.000000	6
273.950000	28
274.900000	11
275.900000	12
276.900000	3
277.900000	1
278.900000	2
279.900000	3
280.900000	14
281.900000	3
282.900000	6
283.900000	3
284.900000	1
285.900000	4
286.900000	4
287.950000	24
288.900000	16
289.950000	47
290.900000	13
291.900000	6
292.900000	3
294.900000	1
295.900000	1
296.900000	1
297.900000	1
298.900000	3
299.900000	3
300.900000	5
302.100000	52
303.100000	23
304.100000	51
305.100000	13
306.100000	15
307.100000	4
308.100000	3
309.100000	1
310.100000	1
311.100000	1
312.100000	1
313.100000	1
314.100000	1
315.100000	2
316.100000	8
317.000000	4
317.950000	55
319.000000	20
320.000000	9
321.000000	1
322.000000	2
323.000000	1
325.000000	2
326.000000	2
327.000000	2
328.000000	3
329.000000	1
330.000000	3
331.000000	2
332.000000	18
333.000000	8
334.000000	15
335.000000	7
336.000000	1
337.000000	2
338.000000	1
339.000000	1
340.000000	1
341.000000	1
342.000000	3
343.000000	1
344.000000	1
345.000000	2
346.000000	7
347.000000	9
348.000000	8
349.000000	9
350.000000	6
351.000000	4
353.000000	1
355.000000	3
356.000000	1
357.000000	4
359.000000	5
360.000000	4
361.000000	3
362.000000	17
363.000000	7
364.000000	4
365.000000	1
366.000000	3
367.000000	1
368.000000	2
370.000000	1
371.000000	2
372.000000	3
373.000000	1
374.000000	2
375.000000	2
376.000000	6
377.000000	4
378.000000	15
379.000000	3
380.000000	3
381.000000	3
382.000000	2
383.000000	1
384.000000	1
385.000000	1
387.000000	2
388.000000	2
389.000000	2
390.000000	10
391.000000	10
392.000000	8
393.000000	2
394.000000	3
395.000000	1
396.000000	1
397.000000	2
399.000000	1
400.000000	3
401.000000	2
402.000000	1
403.000000	2
404.000000	7
405.050000	22
406.000000	999
407.000000	361
408.000000	170
409.000000	41
410.000000	7
411.000000	2
412.000000	1
414.000000	2
415.000000	1
416.000000	1
418.000000	1
419.000000	1
420.050000	51
421.050000	32
422.000000	15
423.000000	4
424.000000	1
425.000000	1
426.000000	1
428.000000	1
429.000000	2
430.000000	1
431.000000	1
433.000000	1
434.000000	1
435.000000	1
436.000000	1
439.000000	1
441.000000	3
442.000000	1
443.000000	1
444.000000	1
445.000000	1
446.000000	1
447.000000	1
448.000000	2
450.000000	1
451.000000	2
452.000000	2
453.000000	1
454.000000	2
456.000000	2
457.000000	1
458.000000	1
459.000000	2
460.000000	1
461.000000	1
462.000000	1
464.000000	1
465.000000	2
466.000000	3
468.000000	1
469.000000	1
470.000000	1
472.000000	2
474.000000	1
475.000000	1
476.000000	1
477.000000	2
478.000000	1
479.000000	2
480.000000	1
481.000000	1
482.000000	1
483.000000	1
484.000000	2
485.000000	1
487.000000	1
489.000000	1
490.000000	2
491.000000	2
492.000000	1
493.000000	2
495.000000	1
496.000000	2
497.000000	1
498.000000	1
499.000000	1
