Mass spectrum: beta-Glutamic acid; EI-B; MS; n TMS; RT: 644.66 s
Name: beta-Glutamic acid
Name: b-Glutamic acid
Class: Natural Product
Formula: C5H9NO4
Exact mass: 147.05316
SMILES: NC(CC(O)=O)CC(O)=O
InChI: InChI=1S/C5H9NO4/c6-3(1-4(7)8)2-5(9)10/h3H,1-2,6H2,(H,7,8)(H,9,10)
Instrument: GCMS-2010 Plus, Shimadzu
Instrument type: EI-B
Ms type: MS
Ion mode: POSITIVE
Column name: InertCap 5MS/NP 0.25 mmI.D. x 30 m, df=0.25 um
Retention time: 644.66
Derivative type: n TMS
m/z	relative intensity
86.100000	12
87.000000	4
88.050000	3
89.050000	3
90.050000	2
91.100000	2
92.100000	1
93.100000	1
94.000000	1
95.050000	15
96.050000	2
97.100000	2
98.100000	9
99.050000	12
100.100000	356
101.100000	39
102.100000	17
103.100000	4
104.100000	1
105.050000	2
106.000000	1
107.000000	1
108.000000	1
109.100000	1
110.050000	10
111.100000	1
112.050000	3
113.100000	3
114.150000	49
115.100000	24
116.100000	21
117.100000	85
118.100000	9
119.100000	7
120.100000	1
121.100000	1
122.100000	1
123.100000	1
124.100000	1
125.100000	1
126.100000	2
127.100000	1
128.100000	6
129.100000	2
130.100000	5
131.100000	26
132.100000	13
133.100000	42
134.050000	6
135.150000	4
136.100000	1
137.100000	1
138.100000	1
139.100000	1
140.100000	2
141.150000	3
142.150000	25
143.150000	4
144.100000	20
145.150000	3
146.150000	8
147.150000	326
148.150000	51
149.150000	34
150.100000	4
151.100000	1
152.100000	1
153.100000	1
154.100000	1
155.100000	1
156.200000	2
157.100000	1
158.100000	7
159.100000	2
160.100000	16
161.150000	3
162.150000	2
163.150000	32
164.150000	7
165.100000	3
166.100000	1
167.100000	1
168.050000	2
169.050000	7
170.100000	3
171.100000	1
172.150000	35
173.150000	14
174.100000	52
175.100000	11
176.050000	4
177.100000	1
178.100000	1
179.100000	1
180.100000	1
181.100000	1
182.100000	1
183.100000	1
184.100000	1
185.050000	7
186.050000	2
187.100000	1
188.100000	99
189.100000	43
190.100000	18
191.050000	10
192.050000	2
193.100000	1
194.100000	1
196.100000	1
197.100000	1
198.100000	1
199.100000	1
200.100000	19
201.100000	3
202.100000	4
203.100000	1
204.100000	6
205.100000	10
206.100000	2
207.050000	3
208.100000	1
209.100000	1
210.100000	1
211.100000	1
212.100000	1
213.100000	1
214.050000	2
215.150000	5
216.100000	111
217.100000	22
218.100000	11
219.000000	3
220.000000	1
221.100000	6
222.050000	2
223.100000	1
224.100000	1
225.100000	1
226.100000	1
227.100000	1
228.100000	1
229.100000	1
230.100000	22
231.150000	10
232.150000	999
233.100000	196
234.100000	88
235.150000	12
236.100000	2
237.100000	1
238.100000	1
239.100000	1
241.100000	1
242.100000	1
243.100000	1
244.100000	1
245.150000	2
246.100000	23
247.100000	5
248.150000	2
249.100000	1
250.100000	1
251.100000	1
252.100000	1
253.100000	1
254.100000	1
256.100000	1
257.100000	1
258.150000	41
259.100000	45
260.100000	12
261.100000	4
262.200000	4
263.200000	1
264.200000	1
265.200000	1
266.200000	1
267.200000	1
268.200000	1
270.200000	1
271.200000	1
272.200000	2
273.200000	1
274.200000	1
275.200000	1
276.200000	1
277.200000	1
278.200000	1
279.200000	1
280.200000	1
281.200000	1
282.200000	1
283.200000	1
284.200000	1
285.200000	1
286.200000	1
287.200000	1
288.200000	1
289.200000	1
290.150000	3
291.100000	1
292.100000	1
293.100000	1
294.100000	1
295.100000	1
297.100000	1
300.100000	1
301.100000	1
302.100000	1
303.100000	1
304.100000	1
305.200000	1
306.150000	69
307.200000	21
308.200000	10
309.100000	2
310.100000	1
311.100000	1
312.100000	1
313.100000	1
314.100000	1
315.100000	1
316.100000	1
317.100000	1
318.100000	1
319.100000	1
320.100000	1
321.100000	1
322.100000	1
324.100000	1
325.100000	1
326.100000	1
327.100000	1
328.100000	1
329.100000	1
330.200000	1
331.150000	25
332.150000	8
333.150000	5
334.100000	1
335.100000	1
336.100000	1
337.100000	1
339.100000	1
340.100000	1
341.100000	1
342.100000	1
343.100000	1
344.100000	1
345.100000	1
346.100000	1
347.250000	2
348.200000	119
349.150000	38
350.150000	17
351.100000	4
352.100000	1
353.100000	1
354.100000	1
355.100000	1
356.100000	1
357.100000	1
358.100000	1
359.100000	1
361.100000	1
362.200000	2
363.150000	3
364.200000	1
365.200000	1
366.200000	1
367.200000	1
369.200000	1
370.200000	1
371.200000	1
372.200000	1
374.200000	1
376.200000	1
377.200000	1
380.200000	1
381.200000	1
382.200000	1
383.200000	1
384.200000	1
385.200000	1
389.200000	1
390.200000	1
391.200000	1
392.200000	1
393.200000	1
395.200000	1
396.200000	1
397.200000	1
398.200000	1
399.200000	1
400.200000	1
401.200000	1
402.200000	1
403.200000	1
404.200000	1
405.200000	1
406.200000	1
407.200000	1
409.200000	1
410.200000	1
411.200000	1
412.200000	1
414.200000	1
415.200000	1
416.200000	1
418.200000	1
419.200000	1
420.200000	1
422.200000	1
424.200000	1
425.200000	1
426.200000	1
428.200000	1
432.200000	1
433.200000	1
434.200000	1
435.200000	1
436.200000	1
439.200000	1
441.200000	1
444.200000	1
445.200000	1
446.200000	1
447.200000	1
449.200000	1
450.200000	1
451.200000	1
452.200000	1
454.200000	1
456.200000	1
457.200000	1
458.200000	1
459.200000	1
460.200000	1
461.200000	1
462.200000	1
463.200000	1
464.200000	1
465.200000	1
467.200000	1
470.200000	1
473.200000	1
474.200000	1
475.200000	1
479.200000	1
480.200000	1
481.200000	1
482.200000	1
483.200000	1
484.200000	1
485.200000	1
487.200000	1
488.200000	1
489.200000	1
490.200000	1
491.200000	1
493.200000	1
494.200000	1
495.200000	1
496.200000	1
497.200000	1
498.200000	1
