Mass spectrum: Glutaric acid; EI-B; MS; 2 TMS; RT: 527.64 s
Name: Glutaric acid
Class: Natural Product
Formula: C5H8O4
Exact mass: 132.04226
SMILES: OC(=O)CCCC(O)=O
InChI: InChI=1S/C5H8O4/c6-4(7)2-1-3-5(8)9/h1-3H2,(H,6,7)(H,8,9)
Instrument: GCMS-2010 Plus, Shimadzu
Instrument type: EI-B
Ms type: MS
Ion mode: POSITIVE
Column name: InertCap 5MS/NP 0.25 mmI.D. x 30 m, df=0.25 um
Retention time: 527.64
Derivative type: 2 TMS
m/z	relative intensity
86.050000	5
87.050000	6
88.100000	14
89.000000	12
90.000000	2
91.000000	2
92.000000	1
93.000000	1
94.000000	1
95.000000	3
96.000000	2
97.050000	143
98.050000	11
99.050000	18
100.050000	3
101.050000	26
102.000000	6
103.000000	6
104.000000	1
105.000000	4
106.000000	1
107.000000	1
108.000000	1
109.000000	1
110.000000	1
111.000000	1
112.000000	1
113.100000	13
114.100000	2
115.050000	16
116.050000	101
117.100000	54
118.050000	8
119.100000	6
120.100000	1
121.100000	1
122.100000	1
123.100000	19
124.050000	3
125.100000	1
126.100000	1
127.100000	7
128.150000	3
129.050000	123
130.100000	78
131.100000	32
132.050000	8
133.050000	53
134.100000	8
135.050000	6
136.100000	1
137.100000	1
138.100000	1
139.100000	1
140.100000	1
141.100000	1
142.100000	2
143.100000	14
144.100000	2
145.050000	19
146.150000	4
147.100000	999
148.100000	156
149.100000	138
150.050000	17
151.100000	5
152.100000	1
153.100000	1
154.100000	1
155.100000	1
156.100000	1
157.100000	1
158.100000	214
159.100000	58
160.100000	14
161.100000	3
162.100000	11
163.100000	4
164.100000	1
165.100000	1
166.100000	1
167.100000	1
168.100000	1
169.100000	1
170.100000	1
171.050000	7
172.100000	1
173.100000	1
174.100000	1
175.100000	1
176.100000	1
177.100000	1
178.100000	1
179.100000	1
180.100000	1
182.100000	1
183.100000	1
184.100000	1
185.000000	1
186.050000	73
187.050000	34
188.050000	7
189.000000	28
190.050000	5
191.000000	5
192.000000	1
193.000000	1
194.000000	1
195.000000	1
196.000000	1
197.000000	1
198.000000	1
199.000000	1
201.000000	3
202.000000	1
203.000000	65
204.050000	75
205.000000	17
206.050000	6
207.100000	1
208.100000	1
209.100000	1
212.100000	1
213.100000	1
214.100000	1
215.100000	1
217.000000	7
218.000000	2
219.050000	8
220.000000	2
221.000000	1
222.000000	1
224.000000	1
225.000000	1
227.000000	1
228.000000	1
229.000000	1
230.000000	1
231.000000	1
232.000000	1
233.050000	102
234.050000	22
235.050000	11
236.100000	1
237.100000	1
238.100000	1
242.100000	1
243.100000	1
244.100000	1
245.100000	1
246.100000	1
247.100000	1
248.100000	1
249.100000	1
250.100000	1
251.100000	1
252.100000	1
253.100000	1
254.100000	1
255.100000	1
256.100000	1
257.100000	1
258.100000	1
259.100000	1
260.000000	1
261.050000	225
262.050000	53
263.050000	22
264.000000	4
265.000000	1
266.000000	1
267.000000	1
269.000000	1
270.000000	1
272.000000	1
273.000000	1
274.000000	1
275.000000	1
276.000000	1
277.000000	1
278.000000	1
279.000000	1
280.000000	1
281.000000	1
282.000000	1
283.000000	1
284.000000	1
285.000000	1
286.000000	1
287.000000	1
288.000000	1
289.000000	1
290.000000	1
291.000000	1
292.000000	1
293.000000	1
294.000000	1
295.000000	1
296.000000	1
297.000000	1
298.000000	1
299.000000	1
300.000000	1
301.000000	1
302.000000	1
303.000000	1
304.000000	1
306.000000	1
307.000000	1
308.000000	1
309.000000	1
310.000000	1
311.000000	1
312.000000	1
313.000000	1
314.000000	1
316.000000	1
317.000000	1
318.000000	1
319.000000	1
321.000000	1
322.000000	1
323.000000	1
324.000000	1
325.000000	1
326.000000	1
327.000000	1
329.000000	1
331.000000	1
332.000000	1
333.000000	1
334.000000	1
335.000000	1
337.000000	1
338.000000	1
343.000000	1
344.000000	1
345.000000	1
346.000000	1
348.000000	1
349.000000	1
351.000000	1
353.000000	1
354.000000	1
355.000000	1
356.000000	1
357.000000	1
358.000000	1
359.000000	1
360.000000	1
361.000000	1
364.000000	1
366.000000	1
368.000000	1
370.000000	1
372.000000	1
373.000000	1
374.000000	1
375.000000	1
376.000000	1
378.000000	1
379.000000	1
380.000000	1
381.000000	1
382.000000	1
384.000000	1
385.000000	1
386.000000	1
387.000000	1
388.000000	1
389.000000	1
390.000000	1
391.000000	1
392.000000	1
393.000000	1
394.000000	1
395.000000	1
396.000000	1
397.000000	1
398.000000	1
399.000000	1
401.000000	1
402.000000	1
403.000000	1
404.000000	1
405.000000	1
406.000000	1
407.000000	1
409.000000	1
411.000000	1
412.000000	1
413.000000	1
414.000000	1
416.000000	1
418.000000	1
419.000000	1
420.000000	1
421.000000	1
422.000000	1
423.000000	1
424.000000	1
425.000000	1
426.000000	1
427.000000	1
428.000000	1
429.000000	1
431.000000	1
432.000000	1
433.000000	1
434.000000	1
435.000000	1
436.000000	1
437.000000	1
439.000000	1
441.000000	1
442.000000	1
443.000000	1
444.000000	1
447.000000	1
448.000000	1
449.000000	1
450.000000	1
453.000000	1
455.000000	1
456.000000	1
457.000000	1
459.000000	1
460.000000	1
461.000000	1
462.000000	1
463.000000	1
464.000000	1
465.000000	1
466.000000	1
467.000000	1
468.000000	1
470.000000	1
471.000000	1
473.000000	1
474.000000	1
475.000000	1
476.000000	1
477.000000	1
478.000000	1
479.000000	1
480.000000	1
481.000000	1
482.000000	1
483.000000	1
484.000000	1
485.000000	1
486.000000	1
487.000000	1
488.000000	1
489.000000	1
490.000000	1
491.000000	1
492.000000	1
493.000000	1
494.000000	1
495.000000	1
496.000000	1
497.000000	1
498.000000	1
