Mass spectrum: 1-Methylhistamine; EI-B; MS; n TMS; RT: 725.40 s
Name: 1-Methylhistamine
Class: Natural Product
Formula: C6H11N3
Exact mass: 125.09530
SMILES: NCCc(n1)cn(C)c1
InChI: InChI=1S/C6H11N3/c1-9-4-6(2-3-7)8-5-9/h4-5H,2-3,7H2,1H3
Instrument: GCMS-2010 Plus, Shimadzu
Instrument type: EI-B
Ms type: MS
Ion mode: POSITIVE
Column name: InertCap 5MS/NP 0.25 mmI.D. x 30 m, df=0.25 um
Retention time: 718.23
Derivative type: n TMS
m/z	relative intensity
86.050000	415
87.100000	38
88.050000	17
89.000000	1
90.000000	1
91.250000	2
92.200000	1
93.200000	1
94.100000	1
95.100000	32
96.050000	33
97.050000	18
98.100000	11
99.150000	5
100.100000	218
101.100000	26
102.100000	19
103.150000	3
104.100000	1
105.100000	1
106.100000	1
107.150000	3
108.100000	8
109.100000	9
110.150000	5
111.150000	4
112.100000	22
113.100000	8
114.100000	7
115.100000	4
116.050000	12
117.100000	13
118.150000	3
119.600000	16
120.550000	3
121.600000	1
122.600000	1
123.600000	1
125.100000	3
126.100000	17
127.100000	6
128.100000	2
129.150000	2
130.100000	51
131.100000	14
132.100000	8
133.100000	1
134.100000	1
135.100000	2
136.100000	1
137.100000	2
138.150000	2
139.100000	8
140.150000	3
141.150000	3
142.200000	1
143.100000	1
144.100000	4
145.200000	1
146.150000	24
147.150000	5
148.100000	3
149.100000	1
150.050000	2
151.150000	3
152.100000	1
153.100000	8
154.100000	3
155.150000	2
156.100000	1
157.100000	1
158.150000	5
159.200000	1
160.150000	2
161.100000	1
162.100000	1
163.100000	1
164.100000	1
165.150000	5
166.150000	4
167.150000	7
168.150000	172
169.150000	28
170.150000	11
171.100000	1
172.150000	12
173.150000	5
174.150000	999
175.150000	167
176.150000	77
177.150000	9
178.050000	3
179.100000	1
180.100000	32
181.100000	7
182.150000	9
183.150000	2
184.200000	1
185.200000	1
186.200000	1
187.200000	1
188.200000	1
189.200000	1
190.200000	1
191.200000	1
192.200000	1
193.200000	1
194.200000	2
195.100000	1
196.100000	7
197.100000	2
198.100000	1
199.100000	1
200.100000	1
201.100000	1
202.100000	1
203.100000	1
204.100000	1
206.100000	1
207.100000	1
208.100000	1
209.100000	1
210.100000	1
211.100000	1
212.100000	1
213.100000	1
214.100000	1
215.100000	1
216.100000	1
217.100000	1
218.100000	1
219.100000	1
220.100000	1
221.100000	1
222.100000	1
223.100000	1
224.100000	2
225.100000	1
226.100000	1
227.100000	1
228.100000	1
230.100000	1
231.100000	1
232.100000	1
234.100000	1
235.100000	1
236.100000	1
237.100000	1
238.100000	4
239.100000	1
240.100000	1
241.100000	1
242.100000	1
243.100000	1
244.100000	1
245.100000	1
249.100000	1
250.100000	1
251.100000	1
252.150000	4
253.250000	3
254.200000	233
255.200000	54
256.150000	21
257.200000	3
258.200000	1
259.200000	1
260.200000	1
261.200000	1
262.200000	1
263.200000	1
264.200000	1
265.200000	1
266.200000	1
267.200000	1
268.250000	5
269.200000	3
270.200000	1
271.200000	1
272.200000	1
273.200000	1
274.200000	1
277.200000	1
278.200000	1
279.200000	1
280.200000	1
281.200000	1
282.200000	1
283.200000	1
284.200000	1
285.200000	1
286.200000	1
287.200000	1
290.200000	1
292.200000	1
294.200000	1
296.200000	1
297.200000	1
298.200000	1
300.200000	1
302.200000	1
303.200000	1
305.200000	1
307.200000	1
308.200000	1
310.200000	1
311.200000	1
312.200000	1
314.200000	1
315.200000	1
316.200000	1
317.200000	1
318.200000	1
319.200000	1
320.200000	1
321.200000	1
323.200000	1
324.200000	1
325.200000	1
326.200000	1
327.200000	1
328.200000	1
329.200000	1
330.200000	1
331.200000	1
332.200000	1
333.200000	1
335.200000	1
336.200000	1
337.200000	1
338.200000	1
339.200000	1
341.200000	1
342.200000	1
343.200000	1
345.200000	1
347.200000	1
348.200000	1
349.200000	1
350.200000	1
351.200000	1
352.200000	1
354.200000	1
355.200000	1
356.200000	1
357.200000	1
358.200000	1
359.200000	1
360.200000	1
361.200000	1
362.200000	1
363.200000	1
364.200000	1
365.200000	1
366.200000	1
367.200000	1
368.200000	1
369.200000	1
370.200000	1
371.200000	1
373.200000	1
374.200000	1
375.200000	1
377.200000	1
379.200000	1
380.200000	1
381.200000	1
382.200000	1
383.200000	1
384.200000	1
385.200000	1
386.200000	1
387.200000	1
388.200000	1
389.200000	1
391.200000	1
392.200000	1
393.200000	1
394.200000	1
395.200000	1
396.200000	1
397.200000	1
399.200000	1
400.200000	1
401.200000	1
402.200000	1
403.200000	1
404.200000	1
405.200000	1
406.200000	1
407.200000	1
409.200000	1
410.200000	1
411.200000	1
412.200000	1
413.200000	1
414.200000	1
415.200000	1
416.200000	1
418.200000	1
419.200000	1
420.200000	1
421.200000	1
422.200000	1
423.200000	1
424.200000	1
426.200000	1
427.200000	1
428.200000	1
429.200000	1
432.200000	1
433.200000	1
434.200000	1
435.200000	1
437.200000	1
438.200000	1
439.200000	1
440.200000	1
441.200000	1
442.200000	1
443.200000	1
444.200000	1
445.200000	1
446.200000	1
447.200000	1
449.200000	1
450.200000	1
451.200000	1
452.200000	1
453.200000	1
454.200000	1
455.200000	1
456.200000	1
457.200000	1
458.200000	1
459.200000	1
460.200000	1
461.200000	1
463.200000	1
465.200000	1
466.200000	1
468.200000	1
469.200000	1
470.200000	1
471.200000	1
472.200000	1
473.200000	1
474.200000	1
475.200000	1
476.200000	1
477.200000	1
478.200000	1
479.200000	1
480.200000	1
481.200000	1
482.200000	1
484.200000	1
486.200000	1
487.200000	1
488.200000	1
489.200000	1
490.200000	1
491.200000	1
492.200000	1
493.200000	1
494.200000	1
495.200000	1
496.200000	1
497.200000	1
498.200000	1
