Mass spectrum: trans-4-Hydroxy-L-proline; EI-B; MS; 3 TMS; RT: 601.47 s
Name: trans-4-Hydroxy-L-proline
Class: Natural Product
Formula: C5H9NO3
Exact mass: 131.05824
SMILES: O[C@@H](C1)C[C@H](N1)C(O)=O
InChI: InChI=1S/C5H9NO3/c7-3-1-4(5(8)9)6-2-3/h3-4,6-7H,1-2H2,(H,8,9)/t3-,4+/m1/s1
Instrument: GCMS-2010 Plus, Shimadzu
Instrument type: EI-B
Ms type: MS
Ion mode: POSITIVE
Column name: InertCap 5MS/NP 0.25 mmI.D. x 30 m, df=0.25 um
Retention time: 601.47
Derivative type: 3 TMS
m/z	relative intensity
86.050000	5
87.050000	3
88.050000	1
89.050000	2
90.100000	1
91.100000	1
92.100000	1
93.100000	1
94.050000	1
95.050000	1
96.050000	2
97.050000	1
98.050000	3
99.050000	4
100.050000	18
101.050000	6
102.050000	3
103.050000	4
104.000000	1
105.050000	1
106.000000	1
106.600000	1
107.550000	1
108.600000	1
110.100000	1
111.100000	2
112.050000	3
113.050000	6
114.100000	3
115.050000	5
116.050000	3
117.050000	5
118.050000	1
119.050000	3
120.000000	1
121.000000	1
122.000000	1
123.100000	1
124.050000	5
125.100000	1
126.100000	2
127.050000	1
128.100000	2
129.050000	6
130.050000	3
131.050000	13
132.100000	3
133.050000	21
134.050000	3
135.050000	2
136.000000	1
137.000000	1
138.100000	2
139.150000	4
140.100000	417
141.150000	55
142.100000	30
143.100000	4
144.100000	1
145.150000	1
146.150000	1
147.100000	80
148.100000	13
149.100000	9
150.100000	1
151.100000	1
152.100000	1
153.100000	1
154.100000	1
155.150000	1
156.100000	4
157.100000	1
158.100000	11
159.100000	2
160.100000	1
161.100000	1
162.100000	1
163.100000	1
164.100000	1
165.100000	1
166.100000	1
167.100000	1
168.100000	1
169.150000	1
170.050000	6
171.050000	1
172.100000	4
173.100000	1
174.100000	1
175.050000	5
176.000000	1
177.050000	1
178.000000	1
179.000000	1
180.000000	1
181.000000	1
182.000000	1
183.000000	1
184.000000	1
185.000000	1
186.000000	1
187.050000	2
188.050000	12
189.050000	3
190.000000	1
191.050000	2
192.100000	1
193.100000	1
194.100000	1
195.100000	1
196.100000	1
197.000000	1
198.000000	1
199.000000	1
200.050000	1
201.000000	1
202.050000	1
203.050000	2
204.050000	1
205.000000	1
206.000000	1
207.000000	1
208.000000	1
209.000000	1
210.000000	1
211.000000	1
212.100000	1
213.150000	1
214.050000	18
215.050000	4
216.050000	4
217.100000	1
218.050000	2
219.000000	1
220.000000	1
221.000000	1
222.000000	1
223.000000	1
224.000000	1
225.000000	1
226.000000	1
227.100000	1
228.050000	7
229.150000	12
230.100000	999
231.100000	195
232.100000	85
233.100000	12
234.100000	2
235.100000	1
236.100000	1
239.100000	1
240.050000	1
241.100000	1
242.050000	1
243.100000	1
244.100000	1
245.100000	1
246.100000	1
247.100000	1
248.100000	1
249.100000	1
250.100000	1
251.100000	1
252.100000	1
253.100000	1
254.100000	1
255.100000	1
256.100000	1
257.000000	1
258.050000	1
259.050000	1
260.100000	1
261.100000	1
262.100000	1
263.100000	1
264.100000	1
265.100000	1
266.100000	1
267.100000	1
268.100000	1
269.100000	1
270.100000	1
271.100000	1
272.100000	1
273.100000	1
274.100000	1
275.100000	1
276.100000	1
277.100000	1
278.100000	1
279.100000	1
280.100000	1
281.100000	1
282.100000	1
283.100000	1
286.100000	1
287.100000	1
288.100000	1
289.100000	1
290.100000	1
291.100000	1
292.100000	1
293.100000	1
294.100000	1
295.100000	1
296.100000	1
297.100000	1
298.100000	1
299.100000	1
300.100000	1
301.100000	1
302.100000	1
303.100000	1
304.150000	31
305.150000	10
306.150000	5
307.100000	1
308.100000	1
309.100000	1
310.100000	1
311.100000	1
312.100000	1
314.100000	1
315.100000	1
316.100000	1
317.100000	1
318.200000	1
319.200000	1
320.200000	1
321.200000	1
323.200000	1
324.200000	1
325.200000	1
327.200000	1
328.200000	1
329.200000	1
330.200000	1
331.100000	1
332.150000	24
333.100000	7
334.150000	4
335.150000	1
336.200000	1
337.200000	1
338.200000	1
339.200000	1
340.200000	1
343.200000	1
344.200000	1
345.200000	1
346.150000	1
347.100000	1
348.100000	1
349.100000	1
350.100000	1
352.100000	1
353.100000	1
354.100000	1
355.100000	1
357.100000	1
358.100000	1
359.100000	1
360.100000	1
362.100000	1
363.100000	1
364.100000	1
365.100000	1
366.100000	1
367.100000	1
368.100000	1
369.100000	1
370.100000	1
371.100000	1
372.100000	1
373.100000	1
374.100000	1
376.100000	1
378.100000	1
379.100000	1
380.100000	1
381.100000	1
384.100000	1
386.100000	1
387.100000	1
390.100000	1
391.100000	1
392.100000	1
394.100000	1
395.100000	1
397.100000	1
401.100000	1
403.100000	1
404.100000	1
405.100000	1
406.100000	1
407.100000	1
409.100000	1
410.100000	1
411.100000	1
412.100000	1
413.100000	1
415.100000	1
416.100000	1
417.100000	1
418.100000	1
419.100000	1
421.100000	1
422.100000	1
423.100000	1
424.100000	1
426.100000	1
427.100000	1
428.100000	1
429.100000	1
430.100000	1
431.100000	1
432.100000	1
433.100000	1
434.100000	1
435.100000	1
436.100000	1
437.100000	1
438.100000	1
439.100000	1
441.100000	1
442.100000	1
444.100000	1
446.100000	1
447.100000	1
448.100000	1
449.100000	1
450.100000	1
451.100000	1
452.100000	1
453.100000	1
454.100000	1
456.100000	1
457.100000	1
458.100000	1
459.100000	1
460.100000	1
461.100000	1
462.100000	1
463.100000	1
464.100000	1
465.100000	1
466.100000	1
467.100000	1
468.100000	1
469.100000	1
470.100000	1
471.100000	1
472.100000	1
477.100000	1
478.100000	1
480.100000	1
481.100000	1
482.100000	1
485.100000	1
486.100000	1
487.100000	1
488.100000	1
489.100000	1
490.100000	1
491.100000	1
492.100000	1
495.100000	1
496.100000	1
497.100000	1
498.100000	1
