Mass spectrum: L-(-)-Threonine; EI-B; MS; 2 TMS; RT: 465.17 s
Name: L-(-)-Threonine
Class: Natural Product
Formula: C4H9NO3
Exact mass: 119.05824
SMILES: CC(O)C(N)C(O)=O
InChI: InChI=1S/C4H9NO3/c1-2(6)3(5)4(7)8/h2-3,6H,5H2,1H3,(H,7,8)/t2-,3+/m1/s1
Instrument: GCMS-2010 Plus, Shimadzu
Instrument type: EI-B
Ms type: MS
Ion mode: POSITIVE
Column name: InertCap 5MS/NP 0.25 mmI.D. x 30 m, df=0.25 um
Retention time: 465.17
Derivative type: 2 TMS
m/z	relative intensity
86.050000	15
87.050000	85
88.050000	13
89.000000	8
90.000000	2
91.050000	3
92.100000	1
93.100000	1
94.100000	1
95.100000	1
96.100000	1
97.000000	1
98.050000	7
99.050000	5
100.050000	24
101.050000	46
102.100000	21
103.050000	18
104.050000	7
105.000000	7
106.000000	1
107.000000	1
108.000000	1
109.000000	1
110.000000	1
111.000000	1
112.050000	6
113.100000	3
114.100000	50
115.050000	40
116.150000	41
117.100000	999
118.100000	113
119.100000	41
120.150000	3
121.100000	1
122.100000	1
123.100000	1
124.100000	1
125.100000	1
126.100000	1
127.100000	1
128.100000	10
129.150000	16
130.100000	589
131.050000	197
132.050000	169
133.050000	54
134.050000	11
135.050000	5
136.000000	1
137.000000	1
138.000000	1
139.000000	1
140.100000	3
141.100000	1
142.100000	2
143.050000	2
144.100000	5
145.150000	5
146.150000	249
147.100000	341
148.100000	65
149.100000	30
150.150000	3
151.100000	1
152.100000	1
153.100000	1
154.100000	1
155.100000	1
156.100000	5
157.150000	3
158.100000	63
159.100000	11
160.100000	6
161.100000	2
162.100000	1
163.100000	2
164.100000	1
165.100000	1
166.100000	1
167.100000	1
168.100000	1
169.100000	1
170.100000	1
171.100000	1
172.100000	1
173.100000	2
174.050000	2
175.000000	1
176.100000	8
177.050000	6
178.100000	1
179.100000	1
180.100000	1
181.100000	1
182.100000	1
183.100000	1
185.100000	1
186.100000	1
187.100000	1
188.100000	2
189.100000	1
190.100000	2
191.100000	2
192.100000	1
193.100000	1
194.100000	1
195.100000	1
196.100000	1
197.100000	1
198.100000	1
200.100000	1
201.100000	1
202.100000	9
203.050000	9
204.050000	30
205.000000	9
206.050000	4
207.100000	2
208.100000	1
209.100000	1
211.100000	1
212.100000	1
213.100000	1
214.100000	1
215.100000	1
216.100000	1
217.100000	1
218.150000	7
219.050000	362
220.100000	98
221.050000	37
222.100000	6
223.100000	1
224.100000	1
227.100000	1
228.100000	1
229.000000	1
230.000000	7
231.050000	8
232.050000	3
233.000000	1
234.000000	1
235.000000	1
236.000000	1
239.000000	1
241.000000	1
242.000000	1
243.000000	1
244.000000	1
245.000000	1
246.000000	1
247.100000	1
248.100000	39
249.050000	8
250.000000	4
251.000000	1
252.000000	1
253.000000	3
254.000000	1
255.000000	1
256.000000	1
257.000000	1
259.000000	1
261.000000	1
262.000000	1
263.000000	1
264.000000	2
265.000000	1
266.000000	1
267.000000	1
268.000000	1
269.000000	1
270.000000	1
271.000000	1
272.000000	1
274.000000	1
275.000000	1
276.000000	1
277.000000	1
279.000000	1
280.000000	1
281.000000	1
282.000000	1
284.000000	1
287.000000	1
288.000000	1
289.000000	1
290.000000	1
291.000000	1
292.000000	1
293.000000	1
294.000000	1
295.000000	1
296.000000	1
297.000000	1
298.000000	1
300.000000	1
301.000000	1
302.000000	1
303.000000	1
304.000000	1
305.000000	1
306.000000	1
307.000000	1
308.000000	1
309.000000	1
310.000000	1
311.000000	1
312.000000	1
313.000000	1
314.000000	1
315.000000	1
316.000000	1
317.000000	1
318.000000	1
319.000000	1
320.000000	1
321.000000	1
322.000000	1
323.000000	1
324.000000	1
327.000000	1
328.000000	1
329.000000	1
330.000000	1
331.000000	1
332.000000	1
333.000000	1
334.000000	1
335.000000	1
336.000000	1
337.000000	1
339.000000	1
340.000000	1
341.000000	1
342.000000	1
343.000000	1
344.000000	1
345.000000	1
346.000000	1
347.000000	1
348.000000	1
349.000000	1
350.000000	1
351.000000	1
352.000000	1
353.000000	1
354.000000	1
355.000000	1
356.000000	1
357.000000	1
358.000000	1
360.000000	1
361.000000	1
362.000000	1
364.000000	1
365.000000	1
366.000000	1
367.000000	1
368.000000	1
369.000000	1
372.000000	1
374.000000	1
375.000000	1
376.000000	1
378.000000	1
380.000000	1
381.000000	1
382.000000	1
383.000000	1
384.000000	1
385.000000	1
386.000000	1
387.000000	1
388.000000	1
390.000000	1
391.000000	1
393.000000	1
394.000000	1
395.000000	1
396.000000	1
397.000000	1
398.000000	1
399.000000	1
400.000000	1
401.000000	1
402.000000	1
403.000000	1
405.000000	1
406.000000	1
407.000000	1
408.000000	1
409.000000	1
410.000000	1
411.000000	1
412.000000	1
413.000000	1
414.000000	1
415.000000	1
416.000000	1
417.000000	1
419.000000	1
420.000000	1
422.000000	1
423.000000	1
424.000000	1
425.000000	1
426.000000	1
427.000000	1
428.000000	1
429.000000	1
430.000000	1
431.000000	1
433.000000	1
434.000000	1
435.000000	1
436.000000	1
438.000000	1
439.000000	1
440.000000	1
442.000000	1
443.000000	1
445.000000	1
447.000000	1
448.000000	1
449.000000	1
450.000000	1
451.000000	1
452.000000	1
453.000000	1
454.000000	1
455.000000	1
456.000000	1
459.000000	1
460.000000	1
461.000000	1
462.000000	1
465.000000	1
467.000000	1
468.000000	1
469.000000	1
470.000000	1
471.000000	1
474.000000	1
475.000000	1
477.000000	1
478.000000	1
480.000000	1
481.000000	1
483.000000	1
484.000000	1
485.000000	1
486.000000	1
487.000000	1
488.000000	1
489.000000	1
490.000000	1
491.000000	1
492.000000	1
493.000000	1
494.000000	1
495.000000	1
496.000000	1
497.000000	1
498.000000	1
499.000000	1
