Mass spectrum: 3-Pyridylacetic acid; EI-B; MS; 1 TMS; RT: 519.19 s
Name: 3-Pyridylacetic acid
Class: Natural Product
Formula: C7H7NO2
Exact mass: 137.04768
SMILES: OC(=O)Cc(c1)cncc1
InChI: InChI=1S/C7H7NO2/c9-7(10)4-6-2-1-3-8-5-6/h1-3,5H,4H2,(H,9,10)
Instrument: GCMS-2010 Plus, Shimadzu
Instrument type: EI-B
Ms type: MS
Ion mode: POSITIVE
Column name: InertCap 5MS/NP 0.25 mmI.D. x 30 m, df=0.25 um
Retention time: 519.19
Derivative type: 1 TMS
m/z	relative intensity
86.000000	3
87.000000	2
88.000000	3
89.000000	11
90.000000	7
91.050000	77
92.050000	208
93.100000	46
94.100000	6
95.100000	10
96.100000	4
97.100000	82
98.100000	7
99.100000	6
100.100000	4
101.100000	5
102.100000	1
103.100000	2
104.100000	1
105.100000	1
106.100000	8
107.100000	7
108.100000	5
109.100000	1
110.100000	3
111.100000	3
112.100000	1
113.100000	1
114.100000	4
115.100000	1
116.100000	12
117.100000	90
118.100000	12
119.100000	31
120.050000	462
121.050000	36
122.100000	8
123.100000	4
124.100000	2
125.100000	4
126.100000	1
127.100000	2
128.100000	1
129.100000	1
130.100000	2
131.100000	5
132.100000	3
133.100000	3
134.100000	13
135.100000	6
136.100000	7
137.100000	3
138.100000	12
139.100000	2
140.100000	2
141.100000	1
143.100000	1
146.100000	5
147.100000	3
148.100000	2
149.100000	9
150.100000	9
151.100000	5
152.100000	3
153.100000	1
154.100000	1
155.100000	2
157.100000	1
158.100000	1
160.100000	2
161.100000	2
162.100000	1
163.100000	4
164.100000	7
165.100000	999
166.100000	149
167.100000	40
168.100000	7
169.100000	2
170.100000	1
171.100000	1
172.100000	1
173.100000	1
174.100000	1
176.100000	1
177.100000	1
178.100000	3
179.100000	1
180.100000	4
181.100000	1
183.100000	1
185.100000	1
186.100000	1
187.100000	1
188.100000	1
189.100000	1
190.100000	1
191.100000	1
192.100000	3
193.000000	8
194.000000	580
195.050000	88
196.100000	26
197.100000	3
198.100000	2
200.100000	1
203.100000	1
204.100000	1
205.100000	1
208.100000	3
209.100000	156
210.050000	29
211.000000	9
212.000000	2
213.000000	1
214.000000	2
216.000000	1
218.000000	1
219.000000	2
220.000000	2
222.000000	1
223.000000	1
224.000000	3
226.000000	1
227.000000	1
228.000000	1
229.000000	1
230.000000	1
232.000000	1
233.000000	1
234.000000	1
235.000000	1
236.000000	1
237.000000	2
238.000000	1
240.000000	1
242.000000	1
243.000000	2
244.000000	1
246.000000	1
247.000000	1
248.000000	1
249.000000	1
250.000000	1
251.000000	1
252.000000	1
253.000000	5
254.000000	3
255.000000	1
256.000000	1
257.000000	2
258.000000	2
261.000000	1
262.000000	1
263.000000	1
264.000000	3
265.000000	1
266.000000	1
267.000000	1
268.000000	1
269.000000	2
272.000000	1
273.000000	1
274.000000	1
275.000000	1
277.000000	1
278.000000	1
279.000000	2
280.000000	2
282.000000	1
283.000000	1
285.000000	1
286.000000	1
291.000000	1
292.000000	1
293.000000	1
294.000000	2
295.000000	1
296.000000	1
298.000000	1
299.000000	1
300.000000	1
301.000000	1
303.000000	1
304.000000	1
305.000000	1
306.000000	1
307.000000	1
308.000000	1
309.000000	1
311.000000	1
312.000000	1
313.000000	1
314.000000	2
315.000000	2
316.000000	1
317.000000	1
318.000000	1
319.000000	1
321.000000	1
323.000000	1
325.000000	1
326.000000	2
327.000000	2
328.000000	1
329.000000	1
330.000000	2
331.000000	3
332.000000	1
333.000000	1
334.000000	2
336.000000	1
338.000000	1
339.000000	1
341.000000	1
342.000000	1
344.000000	1
346.000000	1
347.000000	1
348.000000	1
349.000000	1
350.000000	1
351.000000	1
352.000000	2
353.000000	1
354.000000	1
355.000000	1
357.000000	1
358.000000	1
359.000000	1
360.000000	1
361.000000	2
362.000000	1
363.000000	2
364.000000	1
365.000000	1
366.000000	1
367.000000	1
369.000000	1
370.000000	1
371.000000	2
372.000000	1
374.000000	1
375.000000	1
377.000000	1
378.000000	2
379.000000	1
380.000000	1
381.000000	1
382.000000	1
384.000000	2
386.000000	2
387.000000	1
388.000000	2
389.000000	2
391.000000	2
392.000000	1
393.000000	2
394.000000	1
395.000000	1
396.000000	2
397.000000	1
399.000000	1
401.000000	1
402.000000	1
403.000000	2
404.000000	1
405.000000	2
406.000000	1
408.000000	2
409.000000	1
410.000000	1
411.000000	1
412.000000	1
413.000000	1
414.000000	1
415.000000	1
416.000000	1
417.000000	1
418.000000	1
419.000000	1
420.000000	1
422.000000	1
423.000000	2
425.000000	1
426.000000	1
428.000000	1
429.000000	1
430.000000	1
431.000000	1
433.000000	1
436.000000	1
437.000000	1
438.000000	2
439.000000	1
441.000000	2
442.000000	1
443.000000	2
446.000000	1
447.000000	1
449.000000	2
452.000000	2
453.000000	1
456.000000	1
457.000000	1
458.000000	2
459.000000	1
460.000000	1
461.000000	1
462.000000	1
463.000000	1
464.000000	2
465.000000	1
466.000000	1
467.000000	1
468.000000	1
471.000000	1
472.000000	1
473.000000	1
474.000000	1
476.000000	1
477.000000	1
478.000000	1
479.000000	2
480.000000	2
481.000000	1
482.000000	1
483.000000	1
484.000000	1
485.000000	3
486.000000	1
488.000000	1
489.000000	1
490.000000	1
491.000000	1
493.000000	1
494.000000	1
495.000000	1
496.000000	2
497.000000	2
498.000000	1
499.000000	1
