Mass spectrum: Maleic acid; EI-B; MS; 2 TMS; RT: 469.43 s
Name: Maleic acid
Class: Natural Product
Formula: C4H4O4
Exact mass: 116.01096
SMILES: C(=C\C(=O)O)\C(=O)O
InChI: InChI=1S/C4H4O4/c5-3(6)1-2-4(7)8/h1-2H,(H,5,6)(H,7,8)/b2-1-
Instrument: GCMS-2010 Plus, Shimadzu
Instrument type: EI-B
Ms type: MS
Ion mode: POSITIVE
Column name: InertCap 5MS/NP 0.25 mmI.D. x 30 m, df=0.25 um
Retention time: 469.43
Derivative type: 2 TMS
m/z	relative intensity
86.000000	2
87.000000	3
88.000000	1
89.000000	2
90.000000	1
91.000000	1
92.000000	1
93.000000	1
94.000000	1
95.000000	1
96.000000	1
97.000000	2
98.100000	17
99.000000	5
100.000000	2
101.000000	3
102.000000	1
103.000000	5
104.000000	1
105.000000	3
106.000000	1
107.000000	1
108.000000	1
109.000000	1
110.000000	1
111.000000	4
112.000000	1
113.000000	6
114.100000	2
115.050000	39
116.050000	5
117.000000	13
118.000000	2
119.000000	5
120.000000	1
121.000000	1
122.000000	1
123.000000	1
124.000000	1
125.000000	1
126.050000	22
127.050000	6
128.100000	4
129.100000	3
130.000000	1
131.050000	18
132.000000	5
133.050000	44
134.000000	6
135.000000	4
136.000000	1
137.000000	1
139.000000	1
140.000000	1
141.000000	1
142.100000	5
143.050000	33
144.100000	4
145.100000	2
146.100000	2
147.100000	999
148.100000	151
149.100000	87
150.050000	9
151.000000	2
152.000000	1
153.000000	1
154.000000	1
155.100000	5
156.100000	2
157.100000	8
158.100000	2
159.100000	3
160.100000	1
161.100000	1
162.100000	1
163.100000	1
164.100000	1
167.100000	1
168.100000	1
169.000000	1
170.000000	21
171.100000	7
172.100000	1
173.100000	3
174.100000	1
175.100000	1
176.100000	1
178.100000	1
179.100000	1
180.100000	1
181.100000	1
182.100000	1
183.100000	1
184.100000	1
185.100000	1
186.100000	1
187.100000	1
188.100000	1
189.100000	1
190.100000	1
191.100000	1
193.100000	1
194.100000	1
195.100000	1
196.100000	1
198.100000	1
199.100000	1
200.100000	1
201.100000	2
202.100000	1
203.100000	1
205.100000	1
206.100000	1
207.100000	1
208.100000	1
209.100000	1
210.100000	1
213.100000	1
214.100000	1
215.050000	13
216.100000	3
217.100000	4
218.100000	1
219.100000	1
220.100000	1
221.100000	1
222.100000	1
223.100000	1
224.100000	1
225.100000	1
226.100000	1
228.100000	1
229.100000	1
230.100000	1
231.100000	1
233.100000	1
235.100000	1
237.100000	1
238.100000	1
239.100000	1
241.100000	1
242.050000	8
243.100000	2
244.000000	1
245.050000	130
246.000000	26
247.000000	12
248.000000	2
249.000000	1
250.000000	1
252.000000	1
253.000000	1
254.000000	1
255.000000	1
256.000000	1
259.000000	1
260.000000	1
263.000000	1
264.000000	1
265.000000	1
267.000000	1
268.000000	1
269.000000	1
270.000000	1
271.000000	1
273.000000	1
274.000000	1
276.000000	1
277.000000	1
278.000000	1
279.000000	1
280.000000	1
281.000000	1
282.000000	1
284.000000	1
285.000000	1
288.000000	1
289.000000	1
290.000000	1
291.000000	1
292.000000	1
294.000000	1
295.000000	1
296.000000	1
297.000000	1
298.000000	1
299.000000	1
300.000000	1
302.000000	1
303.000000	1
304.000000	1
307.000000	1
308.000000	1
309.000000	1
310.000000	1
311.000000	1
312.000000	1
313.000000	1
314.000000	1
315.000000	1
316.000000	1
317.000000	1
318.000000	1
319.000000	1
322.000000	1
323.000000	1
327.000000	1
328.000000	1
329.000000	1
331.000000	1
332.000000	1
333.000000	1
334.000000	1
335.000000	1
336.000000	1
339.000000	1
340.000000	1
342.000000	1
343.000000	1
344.000000	1
346.000000	1
348.000000	1
349.000000	1
350.000000	1
352.000000	1
353.000000	1
354.000000	1
356.000000	1
357.000000	1
358.000000	1
359.000000	1
360.000000	1
361.000000	1
362.000000	1
363.000000	1
364.000000	1
365.000000	1
366.000000	1
367.000000	1
369.000000	1
370.000000	1
371.000000	1
372.000000	1
373.000000	1
374.000000	1
375.000000	1
376.000000	1
378.000000	1
382.000000	1
383.000000	1
384.000000	1
385.000000	1
387.000000	1
388.000000	1
389.000000	1
390.000000	1
391.000000	1
392.000000	1
393.000000	1
394.000000	1
396.000000	1
397.000000	1
399.000000	1
400.000000	1
401.000000	1
402.000000	1
403.000000	1
404.000000	1
405.000000	1
407.000000	1
408.000000	1
409.000000	1
410.000000	1
413.000000	1
414.000000	1
416.000000	1
418.000000	1
419.000000	1
420.000000	1
423.000000	1
424.000000	1
425.000000	1
427.000000	1
436.000000	1
437.000000	1
438.000000	1
439.000000	1
440.000000	1
441.000000	1
442.000000	1
443.000000	1
444.000000	1
447.000000	1
448.000000	1
450.000000	1
451.000000	1
452.000000	1
453.000000	1
456.000000	1
457.000000	1
458.000000	1
459.000000	1
461.000000	1
462.000000	1
463.000000	1
465.000000	1
466.000000	1
467.000000	1
468.000000	1
469.000000	1
470.000000	1
472.000000	1
473.000000	1
475.000000	1
476.000000	1
477.000000	1
478.000000	1
479.000000	1
481.000000	1
482.000000	1
483.000000	1
486.000000	1
487.000000	1
488.000000	1
491.000000	1
492.000000	1
494.000000	1
495.000000	1
496.000000	1
497.000000	1
498.000000	1
499.000000	1
