Mass spectrum: L-Isoleucine; EI-B; MS; 2 TMS; RT: 466.07 s
Name: L-Isoleucine
Class: Natural Product
Formula: C6H13NO2
Exact mass: 131.09463
SMILES: CC[C@H](C)[C@H](N)C(O)=O
InChI: InChI=1S/C6H13NO2/c1-3-4(2)5(7)6(8)9/h4-5H,3,7H2,1-2H3,(H,8,9)/t4-,5-/m0/s1
Instrument: GCMS-2010 Plus, Shimadzu
Instrument type: EI-B
Ms type: MS
Ion mode: POSITIVE
Column name: InertCap 5MS/NP 0.25 mmI.D. x 30 m, df=0.25 um
Retention time: 466.07
Derivative type: 2 TMS
m/z	relative intensity
86.100000	26
87.100000	4
88.050000	1
89.100000	2
90.100000	8
91.100000	2
92.100000	1
93.100000	1
94.100000	1
95.100000	1
96.150000	3
97.100000	3
98.100000	3
99.150000	4
100.100000	89
101.100000	12
102.100000	27
103.050000	14
104.100000	2
105.050000	3
106.100000	1
107.100000	1
108.100000	1
109.100000	1
110.100000	1
111.100000	1
112.100000	2
113.150000	2
114.050000	9
115.000000	5
116.100000	6
117.050000	7
118.000000	2
119.050000	4
120.100000	1
121.100000	1
122.100000	1
123.100000	1
124.100000	1
125.100000	1
126.100000	1
127.100000	2
128.100000	11
129.150000	8
130.100000	12
131.100000	11
132.100000	11
133.100000	17
134.100000	4
135.100000	2
136.100000	1
138.100000	1
139.100000	1
140.100000	1
141.100000	1
142.150000	12
143.150000	8
144.100000	2
145.100000	1
146.100000	9
147.150000	108
148.150000	19
149.100000	11
150.100000	1
151.100000	1
152.100000	1
153.100000	1
154.100000	1
155.100000	1
156.200000	4
157.250000	5
158.150000	999
159.200000	141
160.200000	45
161.100000	5
162.100000	1
163.150000	5
164.100000	1
165.100000	1
166.100000	1
167.100000	1
168.100000	1
169.200000	1
170.150000	16
171.150000	4
172.100000	1
173.100000	1
174.150000	2
175.100000	1
176.100000	1
177.050000	2
178.100000	1
179.100000	1
180.100000	1
181.100000	1
182.100000	1
183.100000	1
184.100000	1
185.100000	1
186.100000	1
187.100000	1
188.100000	1
189.100000	1
190.100000	1
191.100000	1
192.100000	1
193.100000	1
195.100000	1
196.100000	1
197.100000	1
198.100000	1
199.100000	1
200.100000	1
201.100000	1
202.100000	1
203.100000	3
204.100000	1
205.100000	1
206.100000	1
207.100000	1
208.100000	1
209.100000	1
210.100000	1
211.100000	1
212.100000	1
214.100000	1
215.100000	1
216.100000	1
217.150000	2
218.100000	200
219.100000	41
220.100000	18
221.100000	4
222.100000	1
223.100000	1
224.100000	1
225.100000	1
226.100000	1
227.100000	1
228.100000	1
229.100000	1
230.100000	1
231.200000	1
232.150000	48
233.150000	18
234.200000	5
235.200000	1
236.200000	1
237.200000	1
238.200000	1
239.200000	1
240.200000	1
241.200000	1
242.200000	1
243.200000	1
244.200000	1
245.200000	1
246.200000	1
247.200000	1
249.200000	1
250.200000	1
251.200000	1
252.200000	1
253.200000	1
254.200000	1
255.200000	1
256.200000	1
257.200000	1
258.200000	1
259.200000	1
260.200000	12
261.150000	3
262.200000	1
263.200000	1
264.200000	1
265.200000	1
266.200000	1
267.200000	1
268.200000	1
269.200000	1
270.200000	1
271.200000	1
272.200000	1
273.200000	1
274.200000	1
275.200000	1
276.200000	1
277.200000	1
278.200000	1
279.200000	1
280.200000	1
281.200000	1
282.200000	1
283.200000	1
284.200000	1
285.200000	1
286.200000	1
287.200000	1
288.200000	1
289.200000	1
290.200000	1
291.200000	1
292.200000	1
293.200000	1
294.200000	1
295.200000	1
296.200000	1
297.200000	1
298.200000	1
299.200000	1
300.200000	1
302.200000	1
303.200000	1
306.200000	1
307.200000	1
308.200000	1
309.200000	1
311.200000	1
312.200000	1
313.200000	1
314.200000	1
316.200000	1
317.200000	1
318.200000	1
319.200000	1
320.200000	1
322.200000	1
323.200000	1
324.200000	1
327.200000	1
328.200000	1
329.200000	1
330.200000	1
331.200000	1
332.200000	1
334.200000	1
335.200000	1
336.200000	1
337.200000	1
339.200000	1
341.200000	1
342.200000	1
343.200000	1
344.200000	1
345.200000	1
346.200000	1
347.200000	1
349.200000	1
350.200000	1
351.200000	1
352.200000	1
353.200000	1
355.200000	1
356.200000	1
357.200000	1
358.200000	1
360.200000	1
361.200000	1
363.200000	1
364.200000	1
365.200000	1
366.200000	1
369.200000	1
371.200000	1
372.200000	1
374.200000	1
375.200000	1
376.200000	1
378.200000	1
380.200000	1
381.200000	1
382.200000	1
384.200000	1
385.200000	1
387.200000	1
389.200000	1
390.200000	1
392.200000	1
394.200000	1
395.200000	1
397.200000	1
399.200000	1
400.200000	1
401.200000	1
403.200000	1
404.200000	1
405.200000	1
406.200000	1
407.200000	1
409.200000	1
410.200000	1
411.200000	1
413.200000	1
414.200000	1
416.200000	1
417.200000	1
418.200000	1
419.200000	1
420.200000	1
421.200000	1
422.200000	1
423.200000	1
424.200000	1
425.200000	1
426.200000	1
427.200000	1
428.200000	1
429.200000	1
430.200000	1
432.200000	1
433.200000	1
434.200000	1
437.200000	1
438.200000	1
439.200000	1
440.200000	1
441.200000	1
443.200000	1
444.200000	1
445.200000	1
447.200000	1
448.200000	1
449.200000	1
451.200000	1
452.200000	1
454.200000	1
457.200000	1
458.200000	1
460.200000	1
461.200000	1
462.200000	1
463.200000	1
464.200000	1
466.200000	1
468.200000	1
469.200000	1
470.200000	1
471.200000	1
472.200000	1
473.200000	1
476.200000	1
478.200000	1
479.200000	1
480.200000	1
482.200000	1
484.200000	1
485.200000	1
486.200000	1
487.200000	1
488.200000	1
489.200000	1
490.200000	1
491.200000	1
492.200000	1
493.200000	1
495.200000	1
499.200000	1
