Mass spectrum: 3-HydroxyBenzoic acid; EI-B; MS; 2 TMS; RT: 619.07 s
Name: 3-HydroxyBenzoic acid
Name: 3-HydroxyBenzoate
Class: Natural Product
Formula: C7H6O3
Exact mass: 138.03169
SMILES: OC(=O)c(c1)cc(O)cc1
InChI: InChI=1S/C7H6O3/c8-6-3-1-2-5(4-6)7(9)10/h1-4,8H,(H,9,10)
Instrument: GCMS-2010 Plus, Shimadzu
Instrument type: EI-B
Ms type: MS
Ion mode: POSITIVE
Column name: InertCap 5MS/NP 0.25 mmI.D. x 30 m, df=0.25 um
Retention time: 619.07
Derivative type: 2 TMS
m/z	relative intensity
86.000000	1
87.000000	5
88.050000	1
89.050000	28
90.050000	13
91.050000	125
92.050000	25
93.050000	10
94.100000	1
95.050000	12
96.050000	6
97.000000	10
98.000000	8
99.000000	3
100.000000	1
101.000000	1
102.050000	1
103.050000	15
104.100000	16
105.100000	30
106.100000	5
107.050000	9
108.100000	1
109.100000	6
110.050000	1
111.100000	14
112.050000	16
113.050000	3
114.000000	1
115.050000	6
116.100000	1
117.100000	7
118.100000	9
119.100000	21
120.050000	9
121.050000	16
122.100000	10
123.050000	4
124.150000	1
125.150000	4
126.100000	127
127.050000	16
128.100000	1
129.100000	1
130.100000	1
131.050000	12
132.150000	3
133.050000	35
134.100000	6
135.100000	58
136.100000	9
137.100000	9
138.100000	1
139.100000	1
140.100000	1
141.100000	1
142.100000	1
143.100000	1
144.100000	1
145.100000	4
146.100000	1
147.100000	71
148.150000	15
149.100000	82
150.150000	14
151.100000	14
152.100000	2
153.100000	1
154.100000	1
155.100000	1
156.100000	1
157.100000	1
158.100000	1
159.100000	1
160.100000	1
161.050000	2
162.100000	2
163.100000	12
164.100000	6
165.100000	64
166.100000	13
167.100000	5
168.100000	1
169.100000	1
170.100000	1
171.100000	1
172.100000	1
173.100000	1
174.100000	1
175.100000	1
176.100000	1
177.050000	29
178.100000	5
179.050000	18
180.050000	4
181.050000	9
182.050000	2
183.100000	1
184.100000	1
185.100000	1
186.100000	1
187.100000	1
188.100000	1
189.100000	1
190.100000	1
191.050000	9
192.150000	6
193.050000	339
194.050000	59
195.050000	28
196.050000	5
197.100000	1
198.100000	1
199.100000	1
203.100000	1
204.100000	1
205.100000	1
206.100000	1
207.100000	54
208.050000	11
209.100000	12
210.100000	3
211.100000	1
212.100000	1
213.100000	1
216.100000	1
217.100000	1
218.100000	1
219.050000	2
220.100000	1
221.100000	5
222.150000	5
223.100000	597
224.100000	142
225.100000	59
226.100000	8
227.100000	2
228.100000	1
229.100000	1
230.100000	1
231.100000	1
232.100000	1
233.100000	1
234.100000	1
235.100000	1
236.100000	1
237.050000	4
238.100000	1
239.100000	1
240.100000	1
241.100000	1
242.100000	1
243.100000	1
244.100000	1
245.100000	1
246.100000	1
247.100000	1
248.100000	1
249.000000	2
250.000000	1
251.000000	6
252.000000	2
253.050000	2
254.100000	1
255.100000	1
257.100000	1
258.100000	1
259.100000	1
260.100000	1
262.100000	1
263.100000	1
264.100000	1
265.100000	5
266.150000	7
267.100000	999
268.100000	229
269.100000	93
270.100000	15
271.100000	3
272.100000	1
273.100000	1
274.100000	1
275.100000	1
276.100000	1
277.100000	1
278.100000	1
279.100000	1
280.100000	1
281.150000	12
282.150000	375
283.100000	94
284.100000	35
285.100000	7
286.050000	1
287.100000	1
288.100000	1
289.100000	1
290.100000	1
291.100000	1
292.100000	1
294.100000	1
300.100000	1
301.100000	1
302.100000	1
303.100000	1
304.100000	1
305.100000	1
306.100000	1
308.100000	1
309.100000	1
310.100000	1
311.100000	1
312.100000	1
313.100000	1
314.100000	1
315.100000	1
316.100000	1
317.100000	1
318.100000	1
319.100000	1
320.100000	1
321.100000	1
322.100000	1
324.100000	1
325.100000	1
326.100000	1
327.100000	1
328.100000	1
330.100000	1
331.100000	1
332.100000	1
333.100000	1
334.100000	1
335.100000	1
336.100000	1
337.100000	1
338.100000	1
339.100000	1
340.100000	1
341.100000	1
343.100000	1
344.100000	1
346.100000	1
347.100000	1
350.100000	1
352.100000	1
353.100000	1
355.100000	1
356.100000	1
357.100000	1
358.100000	1
359.100000	1
360.100000	1
361.100000	1
362.100000	1
363.100000	1
364.100000	1
365.100000	1
366.100000	1
367.100000	1
368.100000	1
369.100000	1
370.100000	1
371.100000	1
372.100000	1
373.100000	1
375.100000	1
376.100000	1
377.100000	1
379.100000	1
381.100000	1
382.100000	1
384.100000	1
385.100000	1
386.100000	1
387.100000	1
389.100000	1
390.100000	1
391.100000	1
392.100000	1
394.100000	1
396.100000	1
399.100000	1
400.100000	1
402.100000	1
403.100000	1
404.100000	1
405.100000	1
406.100000	1
407.100000	1
408.100000	1
409.100000	1
410.100000	1
412.100000	1
414.100000	1
415.100000	1
416.100000	1
417.100000	1
419.100000	1
421.100000	1
422.100000	1
423.100000	1
424.100000	1
425.100000	1
426.100000	1
427.100000	1
428.100000	1
429.100000	1
430.100000	1
431.100000	1
432.100000	1
433.100000	1
434.100000	1
435.100000	1
436.100000	1
438.100000	1
440.100000	1
441.100000	1
442.100000	1
443.100000	1
444.100000	1
445.100000	1
446.100000	1
447.100000	1
448.100000	1
449.100000	1
450.100000	1
451.100000	1
452.100000	1
454.100000	1
455.100000	1
457.100000	1
458.100000	1
459.100000	1
460.100000	1
461.100000	1
462.100000	1
463.100000	1
464.100000	1
465.100000	1
466.100000	1
467.100000	1
468.100000	1
469.100000	1
470.100000	1
472.100000	1
473.100000	1
474.100000	1
475.100000	1
476.100000	1
477.100000	1
479.100000	1
480.100000	1
481.100000	1
483.100000	1
484.100000	1
485.100000	1
486.100000	1
487.100000	1
488.100000	1
489.100000	1
490.100000	1
491.100000	1
493.100000	1
494.100000	1
