Mass spectrum: L-Cysteine Sulfinic acid; EI-B; MS; n TMS; RT: 680.03 s
Name: L-Cysteine Sulfinic acid
Class: Natural Product
Formula: C3H7NO4S
Exact mass: 153.00958
SMILES: N[C@H](C(O)=O)CS(O)=O
InChI: InChI=1S/C3H7NO4S/c4-2(3(5)6)1-9(7)8/h2H,1,4H2,(H,5,6)(H,7,8)/t2-/m0/s1
Instrument: GCMS-2010 Plus, Shimadzu
Instrument type: EI-B
Ms type: MS
Ion mode: POSITIVE
Column name: InertCap 5MS/NP 0.25 mmI.D. x 30 m, df=0.25 um
Retention time: 680.03
Derivative type: n TMS
m/z	relative intensity
86.050000	21
87.000000	11
88.000000	5
89.000000	8
90.000000	6
91.000000	4
92.000000	1
93.000000	2
94.000000	1
95.000000	2
96.000000	3
97.000000	2
98.050000	15
99.150000	8
100.100000	381
101.100000	49
102.100000	26
103.050000	16
104.000000	4
105.000000	5
106.000000	2
107.000000	1
108.000000	2
109.000000	1
110.000000	2
111.000000	1
112.000000	2
113.100000	9
114.100000	287
115.100000	999
116.150000	129
117.100000	56
118.100000	5
119.050000	9
120.000000	2
121.000000	2
122.000000	17
123.000000	2
124.000000	2
125.000000	1
126.000000	2
127.000000	1
128.050000	8
129.100000	15
130.100000	19
131.100000	33
132.100000	24
133.100000	77
134.100000	14
135.100000	43
136.050000	7
137.050000	433
138.100000	40
139.050000	41
140.100000	4
141.100000	2
142.100000	11
143.100000	3
144.100000	57
145.100000	8
146.150000	17
147.100000	376
148.150000	62
149.150000	46
150.150000	7
151.100000	5
152.100000	1
153.100000	1
154.100000	1
155.100000	1
156.100000	3
157.100000	1
158.100000	6
159.100000	5
160.100000	10
161.100000	6
162.100000	9
163.100000	28
164.100000	5
165.100000	2
166.100000	1
167.100000	1
168.100000	1
169.100000	1
170.100000	1
171.100000	1
172.050000	46
173.100000	9
174.100000	48
175.100000	8
176.100000	5
177.100000	2
178.100000	1
179.100000	1
180.000000	8
181.000000	2
182.000000	2
183.000000	1
184.000000	1
185.000000	1
186.000000	2
187.100000	3
188.100000	250
189.100000	60
190.050000	24
191.100000	5
192.100000	2
193.100000	1
194.100000	1
195.100000	1
196.100000	3
197.100000	1
198.100000	1
199.100000	1
200.050000	9
201.100000	2
202.100000	29
203.000000	9
204.100000	6
205.100000	2
206.100000	1
207.100000	4
208.100000	1
209.100000	9
210.100000	11
211.050000	23
212.100000	5
213.100000	3
214.100000	1
215.100000	2
216.100000	206
217.100000	59
218.100000	89
219.050000	21
220.050000	13
221.050000	7
222.000000	3
223.000000	1
224.000000	1
225.000000	2
226.000000	1
227.000000	1
229.000000	1
230.000000	4
231.150000	8
232.100000	670
233.100000	135
234.100000	62
235.100000	9
236.100000	5
237.100000	1
238.100000	1
239.100000	1
240.100000	1
241.100000	1
242.100000	1
243.100000	1
245.100000	1
246.100000	1
247.100000	1
248.100000	1
249.100000	1
250.100000	1
251.100000	4
252.100000	866
253.100000	186
254.100000	119
255.050000	18
256.100000	5
257.100000	1
258.100000	1
259.100000	1
260.100000	1
261.100000	1
262.100000	1
263.100000	1
264.100000	10
265.100000	3
266.100000	2
267.100000	1
268.100000	1
269.100000	1
270.100000	1
271.100000	1
272.100000	1
273.100000	1
274.100000	1
275.100000	1
276.100000	1
277.100000	1
278.100000	1
279.100000	2
280.100000	2
281.100000	1
282.100000	1
283.100000	1
284.100000	1
285.100000	1
287.100000	1
288.100000	1
289.100000	1
290.100000	2
291.100000	1
292.100000	8
293.100000	2
294.100000	1
295.100000	1
296.100000	1
298.100000	1
299.100000	1
300.100000	1
301.100000	1
302.100000	1
303.100000	1
304.100000	1
305.100000	1
306.100000	1
307.100000	1
308.100000	1
309.100000	1
310.100000	1
311.100000	1
312.100000	1
314.100000	1
315.100000	1
316.100000	1
318.100000	1
320.100000	1
321.100000	1
322.100000	1
324.100000	1
325.100000	3
326.100000	4
327.100000	1
328.100000	1
329.100000	1
330.100000	1
331.100000	1
332.100000	1
333.100000	1
334.100000	1
336.100000	1
337.100000	1
338.100000	1
339.100000	1
340.100000	1
341.100000	1
342.100000	1
343.100000	1
344.100000	1
345.100000	1
346.100000	1
347.100000	1
348.100000	1
349.100000	1
350.100000	1
351.100000	1
352.100000	1
353.100000	1
354.100000	2
355.100000	1
356.100000	1
357.100000	1
358.100000	1
359.100000	1
360.100000	1
362.100000	1
364.100000	1
365.100000	1
367.100000	1
368.100000	1
369.100000	1
370.100000	1
371.100000	1
372.100000	1
373.100000	1
375.100000	1
376.100000	1
378.100000	1
379.100000	1
380.100000	1
381.100000	1
382.100000	1
383.100000	1
384.100000	1
385.100000	1
386.100000	1
387.100000	1
388.100000	1
390.100000	1
391.100000	1
393.100000	1
394.100000	1
395.100000	1
396.100000	1
397.100000	1
400.100000	1
401.100000	1
402.100000	1
403.100000	1
404.100000	1
405.100000	1
406.100000	1
407.100000	1
408.100000	1
409.100000	1
410.100000	1
411.100000	1
412.100000	1
413.100000	1
414.100000	1
415.100000	1
416.100000	1
418.100000	1
419.100000	1
420.100000	1
421.100000	1
422.100000	1
423.100000	1
424.100000	1
425.100000	1
426.100000	1
427.100000	1
428.100000	1
429.100000	1
431.100000	1
435.100000	1
436.100000	1
437.100000	1
438.100000	1
440.100000	1
441.100000	1
442.100000	1
443.100000	1
444.100000	1
445.100000	1
446.100000	1
447.100000	1
448.100000	1
449.100000	1
450.100000	1
451.100000	1
452.100000	1
453.100000	1
454.100000	1
455.100000	1
456.100000	1
457.100000	1
458.100000	1
459.100000	1
460.100000	1
461.100000	1
463.100000	1
464.100000	1
465.100000	1
466.100000	1
467.100000	1
468.100000	1
470.100000	1
474.100000	1
476.100000	1
477.100000	1
478.100000	1
479.100000	1
481.100000	1
483.100000	1
484.100000	1
486.100000	1
488.100000	1
489.100000	1
490.100000	1
491.100000	1
492.100000	1
493.100000	1
494.100000	1
496.100000	1
497.100000	1
498.100000	1
499.100000	1
