Mass spectrum: D-Ribulose; EI-B; MS; 4 TMS; RT: 682.82 s
Name: D-Ribulose
Class: Natural Product
Formula: C5H10O5
Exact mass: 150.05282
SMILES: OCC(O)(O1)[C@H](O)[C@H](O)C1
InChI: InChI=1S/C5H10O5/c6-2-5(9)4(8)3(7)1-10-5/h3-4,6-9H,1-2H2/t3-,4-,5?/m1/s1
Instrument: GCMS-2010 Plus, Shimadzu
Instrument type: EI-B
Ms type: MS
Ion mode: POSITIVE
Column name: InertCap 5MS/NP 0.25 mmI.D. x 30 m, df=0.25 um
Retention time: 682.82
Derivative type: 4 TMS
m/z	relative intensity
86.100000	7
87.100000	10
88.050000	11
89.050000	154
90.050000	14
91.100000	7
92.100000	1
93.100000	1
94.100000	4
95.100000	1
96.100000	5
97.100000	3
98.100000	4
99.050000	9
100.050000	23
101.050000	42
102.150000	17
103.100000	348
104.100000	40
105.100000	36
106.100000	4
107.100000	1
108.100000	1
109.100000	2
110.100000	2
111.100000	3
112.100000	5
113.100000	11
114.100000	42
115.100000	23
116.150000	15
117.100000	430
118.050000	49
119.100000	30
120.100000	2
121.100000	1
122.100000	1
123.100000	1
124.100000	2
125.100000	2
126.100000	25
127.100000	9
128.150000	12
129.100000	46
130.050000	14
131.100000	38
132.100000	8
133.100000	129
134.100000	20
135.100000	12
136.100000	2
137.100000	1
139.100000	2
140.100000	4
141.100000	6
142.150000	87
143.100000	19
144.100000	8
145.100000	7
146.100000	2
147.100000	999
148.100000	156
149.100000	90
150.100000	10
151.100000	3
152.100000	2
153.100000	2
154.100000	19
155.100000	4
156.100000	10
157.100000	7
158.100000	8
159.100000	11
160.100000	3
161.100000	5
162.100000	1
163.100000	40
164.100000	8
165.100000	5
166.100000	2
167.100000	2
168.100000	7
169.100000	2
170.100000	5
171.100000	4
172.150000	48
173.100000	439
174.100000	79
175.100000	26
176.100000	5
177.100000	15
178.100000	5
179.100000	3
180.100000	1
181.100000	2
182.100000	1
183.100000	2
184.100000	8
185.100000	2
186.100000	10
187.100000	5
188.100000	8
189.100000	36
190.100000	10
191.050000	29
192.100000	7
193.100000	2
194.100000	1
195.100000	1
196.100000	1
197.100000	1
198.100000	16
199.100000	3
200.100000	8
201.100000	38
202.100000	39
203.100000	16
204.150000	48
205.150000	579
206.150000	118
207.100000	60
208.100000	9
209.100000	2
210.100000	1
211.100000	1
212.100000	1
213.100000	2
214.150000	18
215.100000	4
216.100000	22
217.150000	103
218.100000	27
219.150000	16
220.100000	3
221.100000	17
222.100000	5
223.100000	5
224.100000	1
225.100000	1
226.100000	1
227.100000	2
228.100000	7
229.100000	3
230.100000	6
231.200000	14
232.200000	29
233.200000	7
234.200000	6
235.200000	1
236.200000	1
237.200000	1
238.200000	1
239.200000	1
240.200000	7
241.200000	2
242.200000	6
243.200000	4
244.200000	9
245.200000	5
246.200000	6
247.200000	2
248.200000	1
250.200000	1
251.200000	1
252.200000	1
253.200000	1
254.200000	1
255.200000	1
256.200000	12
257.200000	4
258.200000	4
259.200000	3
260.200000	3
261.200000	2
262.250000	23
263.200000	441
264.200000	87
265.200000	39
266.200000	6
267.200000	1
268.200000	1
269.200000	1
270.200000	1
271.200000	1
272.200000	7
273.200000	1
274.200000	7
275.200000	3
276.200000	3
277.200000	6
278.200000	1
279.200000	1
280.200000	1
281.200000	1
282.200000	1
283.200000	1
284.200000	1
285.200000	1
286.200000	2
287.200000	3
288.250000	31
289.200000	11
290.200000	4
291.200000	11
292.200000	3
293.200000	2
295.200000	1
296.200000	1
297.200000	1
298.200000	1
301.200000	1
302.200000	6
303.200000	1
304.200000	3
305.200000	2
306.200000	2
307.300000	16
308.300000	5
309.300000	2
310.300000	1
311.300000	1
312.300000	1
313.300000	1
315.300000	1
316.300000	2
317.300000	3
318.300000	8
319.300000	2
320.300000	2
321.300000	1
322.300000	1
325.300000	1
326.300000	1
327.300000	1
329.300000	1
330.300000	4
331.300000	6
332.300000	6
333.200000	14
334.200000	14
335.200000	8
336.200000	8
337.200000	3
338.200000	1
339.200000	1
340.200000	1
341.200000	1
342.200000	1
343.200000	1
344.200000	1
345.200000	1
346.200000	5
347.200000	1
348.200000	1
349.200000	1
351.200000	2
352.200000	1
353.200000	1
355.200000	1
356.200000	1
357.200000	1
358.200000	1
359.200000	1
360.200000	1
361.200000	1
362.200000	10
363.200000	5
364.250000	45
365.300000	15
366.300000	8
367.300000	2
368.300000	1
369.300000	1
370.300000	1
371.300000	1
372.300000	1
374.300000	1
375.300000	1
376.300000	1
377.300000	2
378.300000	1
379.300000	1
380.300000	1
381.300000	1
382.300000	1
383.300000	1
384.300000	1
385.300000	1
386.300000	1
387.300000	1
389.300000	1
390.300000	1
391.300000	2
392.300000	1
394.300000	1
395.300000	1
397.300000	1
400.300000	2
402.300000	1
403.300000	1
404.300000	1
405.300000	1
406.300000	1
409.300000	1
410.300000	1
411.300000	1
412.300000	1
413.300000	1
414.300000	1
415.300000	1
416.300000	1
417.300000	1
418.300000	1
420.300000	2
421.300000	4
422.300000	2
423.300000	2
424.300000	2
425.300000	1
426.300000	1
428.300000	1
430.300000	1
431.300000	1
432.300000	1
433.300000	1
434.300000	1
435.300000	1
436.300000	2
437.300000	1
438.300000	1
439.300000	2
440.300000	1
441.300000	1
444.300000	1
445.300000	1
446.300000	1
447.300000	1
450.300000	1
451.300000	2
452.300000	10
453.300000	3
454.300000	2
455.300000	1
456.300000	1
457.300000	1
458.300000	1
459.300000	1
460.300000	1
461.300000	1
463.300000	1
464.300000	1
465.300000	2
466.300000	1
467.300000	9
468.300000	3
469.300000	1
470.300000	1
471.300000	1
472.300000	1
473.300000	1
474.300000	1
476.300000	1
478.300000	1
479.300000	1
480.300000	1
481.300000	1
483.300000	2
484.300000	1
485.300000	1
488.300000	1
489.300000	1
490.300000	1
491.300000	1
493.300000	1
494.300000	1
495.300000	1
496.300000	1
497.300000	1
498.300000	1
499.300000	1
