Mass spectrum: Homoserine lactone; EI-B; MS; n TMS; RT: 582.50 s
Name: Homoserine lactone
Class: Natural Product
Formula: C4H7NO2
Exact mass: 101.04768
SMILES: NC(C1)C(=O)OC1
InChI: InChI=1S/C4H7NO2/c5-3-1-2-7-4(3)6/h3H,1-2,5H2
Instrument: GCMS-2010 Plus, Shimadzu
Instrument type: EI-B
Ms type: MS
Ion mode: POSITIVE
Column name: InertCap 5MS/NP 0.25 mmI.D. x 30 m, df=0.25 um
Retention time: 582.50
Derivative type: n TMS
m/z	relative intensity
86.000000	54
87.000000	24
88.000000	10
89.000000	11
90.000000	4
91.000000	4
92.000000	7
93.000000	11
95.000000	13
96.000000	3
97.000000	10
98.000000	38
99.000000	16
100.000000	147
101.000000	41
102.000000	31
103.000000	38
104.000000	6
105.000000	11
107.000000	11
108.000000	29
109.000000	5
110.000000	5
111.000000	10
112.100000	165
113.100000	33
114.100000	209
115.100000	56
116.100000	36
117.100000	33
118.100000	9
119.100000	13
120.100000	7
121.100000	4
122.100000	9
123.100000	9
126.100000	8
127.100000	5
128.100000	143
129.100000	58
130.100000	87
131.100000	97
132.100000	12
133.100000	61
134.100000	9
135.100000	8
136.100000	6
137.100000	4
138.100000	6
139.100000	4
140.100000	1
141.100000	16
142.100000	10
143.100000	2
144.100000	9
145.100000	29
146.100000	11
147.100000	530
148.100000	101
149.100000	38
150.100000	10
151.100000	5
153.100000	5
155.100000	3
156.100000	20
157.100000	12
158.100000	9
159.100000	19
160.100000	5
161.100000	9
162.100000	1
163.100000	6
165.100000	6
166.100000	7
167.100000	7
168.100000	8
169.100000	5
170.100000	20
171.100000	14
172.100000	999
173.100000	166
174.100000	89
175.100000	6
176.100000	9
177.100000	6
178.100000	2
179.100000	1
181.100000	13
182.100000	14
183.100000	5
185.100000	11
186.100000	398
187.100000	111
188.100000	49
189.100000	21
190.100000	5
191.100000	7
192.100000	8
194.100000	4
195.100000	11
196.100000	2
197.100000	3
199.100000	6
200.100000	17
201.050000	99
202.050000	946
203.050000	217
204.000000	88
205.000000	18
206.000000	8
207.000000	3
209.000000	5
210.000000	5
211.000000	8
212.000000	7
213.000000	1
214.000000	16
215.000000	4
216.000000	5
217.000000	3
218.000000	5
219.000000	37
220.000000	5
221.000000	7
222.000000	1
223.000000	9
224.000000	9
225.000000	1
226.000000	5
228.000000	13
229.000000	7
230.050000	475
231.050000	111
232.100000	44
233.100000	11
234.100000	6
235.100000	7
236.100000	7
237.100000	1
240.100000	1
242.100000	3
243.100000	4
244.100000	19
245.100000	12
246.100000	9
250.100000	1
251.100000	3
253.100000	11
254.100000	6
255.100000	3
256.100000	1
259.100000	5
260.100000	6
261.100000	2
263.100000	7
264.100000	10
265.100000	7
266.100000	4
267.100000	7
268.100000	9
269.100000	6
270.100000	1
271.100000	3
272.100000	9
273.100000	14
274.100000	5
275.100000	6
276.100000	6
278.100000	7
280.100000	3
281.100000	6
284.100000	5
285.100000	2
286.100000	2
287.100000	1
291.100000	4
294.100000	10
295.100000	1
296.100000	5
297.100000	2
298.100000	5
299.100000	1
301.100000	1
302.100000	3
304.100000	1
305.100000	8
306.100000	8
307.100000	5
308.100000	3
310.100000	9
311.100000	6
312.100000	3
313.100000	4
314.100000	2
315.100000	2
317.100000	10
320.100000	4
321.100000	3
323.100000	2
326.100000	1
327.100000	8
328.100000	11
329.100000	14
330.100000	7
331.100000	16
332.100000	4
333.100000	4
335.100000	16
336.100000	9
337.100000	10
338.100000	8
340.100000	5
341.100000	5
342.100000	4
344.100000	5
345.100000	3
346.100000	8
347.100000	10
348.100000	5
349.100000	5
350.100000	8
352.100000	5
355.100000	7
356.100000	4
357.100000	3
358.100000	1
359.100000	5
360.100000	7
362.100000	1
363.100000	6
364.100000	3
367.100000	6
369.100000	5
370.100000	7
373.100000	1
374.100000	1
375.100000	6
376.100000	3
378.100000	1
379.100000	2
380.100000	5
381.100000	9
382.100000	5
383.100000	1
384.100000	2
385.100000	5
386.100000	1
388.100000	3
390.100000	3
391.100000	2
392.100000	3
393.100000	3
395.100000	9
397.100000	6
398.100000	4
399.100000	6
400.100000	7
401.100000	14
402.100000	7
404.100000	2
405.100000	13
406.100000	7
409.100000	1
410.100000	1
411.100000	3
413.100000	4
414.100000	2
415.100000	4
416.100000	3
418.100000	4
419.100000	11
420.100000	1
421.100000	2
422.100000	9
423.100000	7
424.100000	5
426.100000	10
427.100000	1
428.100000	1
429.100000	1
431.100000	4
432.100000	8
433.100000	7
434.100000	8
437.100000	2
438.100000	10
439.100000	2
440.100000	7
441.100000	9
442.100000	9
443.100000	5
444.100000	2
445.100000	10
449.100000	7
450.100000	6
453.100000	10
454.100000	17
455.100000	1
456.100000	2
457.100000	5
458.100000	4
459.100000	2
460.100000	10
461.100000	9
462.100000	3
463.100000	5
464.100000	4
465.100000	5
466.100000	14
467.100000	13
468.100000	2
469.100000	4
470.100000	2
472.100000	9
474.100000	5
476.100000	7
478.100000	4
479.100000	8
480.100000	4
481.100000	4
482.100000	7
484.100000	8
485.100000	9
486.100000	9
488.100000	4
489.100000	1
490.100000	10
492.100000	1
493.100000	8
494.100000	9
495.100000	1
496.100000	3
497.100000	1
498.100000	7
499.100000	1
