Mass spectrum: O-Succinyl-L-Homoserine; EI-B; MS; n TMS; RT: 840.63 s
Name: O-Succinyl-L-Homoserine
Class: Natural Product
Formula: C8H13NO6
Exact mass: 219.07429
SMILES: OC(=O)CCC(=O)OCC[C@H](N)C(O)=O
InChI: InChI=1S/C8H13NO6/c9-5(8(13)14)3-4-15-7(12)2-1-6(10)11/h5H,1-4,9H2,(H,10,11)(H,13,14)/t5-/m0/s1
Instrument: GCMS-2010 Plus, Shimadzu
Instrument type: EI-B
Ms type: MS
Ion mode: POSITIVE
Column name: InertCap 5MS/NP 0.25 mmI.D. x 30 m, df=0.25 um
Retention time: 840.63
Derivative type: n TMS
m/z	relative intensity
86.050000	7
87.100000	2
88.100000	1
89.100000	2
90.100000	1
91.100000	1
92.100000	1
93.100000	1
94.100000	1
95.100000	1
96.100000	1
97.100000	2
98.050000	5
99.150000	3
100.050000	36
101.100000	9
102.100000	5
103.100000	10
104.100000	1
105.100000	2
106.100000	1
107.100000	1
108.100000	1
109.100000	1
110.100000	3
111.100000	1
112.050000	8
113.100000	3
114.050000	14
115.050000	7
116.050000	4
117.100000	7
118.100000	2
119.100000	2
120.100000	1
121.100000	1
122.100000	1
123.100000	1
124.100000	1
125.100000	1
126.150000	5
127.150000	6
128.150000	999
129.100000	136
130.100000	56
131.100000	14
132.100000	6
133.050000	12
134.100000	3
135.100000	2
136.100000	1
137.100000	1
138.050000	4
139.100000	1
140.100000	3
141.100000	1
142.100000	1
143.100000	2
144.050000	4
145.100000	1
146.100000	6
147.100000	72
148.100000	12
149.100000	11
150.100000	2
150.700000	1
151.650000	4
152.700000	1
153.700000	1
154.700000	1
156.100000	15
157.100000	6
158.100000	12
159.100000	3
160.100000	2
161.100000	1
162.100000	1
163.100000	2
164.100000	1
165.100000	1
166.100000	1
167.100000	1
168.100000	1
170.100000	1
171.100000	1
172.100000	4
173.100000	36
174.050000	9
175.050000	14
176.000000	2
177.000000	1
178.000000	1
179.000000	1
180.000000	1
181.000000	1
183.000000	1
184.000000	1
185.000000	1
186.000000	2
187.000000	1
188.000000	1
189.000000	1
190.000000	1
191.000000	2
192.000000	1
193.000000	1
194.000000	1
195.000000	1
196.000000	1
197.000000	1
198.000000	1
199.000000	1
200.000000	1
201.100000	1
202.050000	76
203.050000	17
204.100000	7
205.100000	1
206.100000	1
207.100000	2
208.100000	1
209.100000	1
210.100000	1
211.100000	1
212.100000	1
213.100000	1
214.100000	1
215.100000	1
216.100000	2
217.100000	2
218.050000	36
219.100000	13
220.100000	5
221.100000	2
222.100000	1
223.100000	1
225.100000	1
226.100000	1
227.100000	1
228.150000	12
229.100000	3
230.100000	38
231.050000	8
232.100000	4
233.100000	1
234.100000	1
235.100000	1
236.100000	1
237.100000	1
238.100000	1
239.100000	1
240.100000	1
241.100000	1
242.100000	1
243.100000	1
244.100000	1
245.100000	6
246.100000	28
247.100000	12
248.050000	5
249.100000	1
250.100000	1
251.100000	1
252.100000	1
253.100000	1
254.100000	1
255.100000	1
256.050000	6
257.000000	1
258.000000	1
259.000000	1
260.000000	1
261.000000	1
262.000000	1
263.000000	2
264.000000	1
265.000000	1
266.000000	1
267.000000	1
269.000000	1
270.000000	1
271.000000	1
272.000000	1
273.000000	1
274.150000	10
275.100000	3
276.100000	1
277.100000	1
278.100000	1
279.100000	1
280.100000	1
281.100000	1
282.100000	1
283.100000	1
284.100000	1
285.100000	1
286.100000	1
287.100000	1
288.100000	1
289.100000	1
290.100000	1
291.100000	1
292.150000	3
293.100000	1
294.100000	1
295.100000	1
297.100000	1
299.100000	1
300.100000	1
301.100000	1
302.200000	3
303.200000	1
304.200000	1
305.200000	1
306.200000	1
307.200000	1
308.200000	1
309.200000	1
310.200000	1
311.200000	1
312.200000	1
313.200000	1
314.200000	1
315.200000	1
316.200000	1
317.200000	1
318.150000	62
319.150000	15
320.150000	11
321.200000	3
322.200000	1
323.200000	1
324.200000	1
325.200000	1
326.200000	1
327.200000	1
328.200000	1
329.200000	1
330.100000	4
331.100000	2
332.100000	1
333.100000	1
335.100000	1
336.100000	1
337.100000	1
338.100000	1
339.100000	1
340.100000	1
341.100000	1
342.100000	1
343.100000	1
344.100000	1
345.100000	1
346.100000	1
347.100000	1
348.100000	1
349.100000	1
350.100000	1
351.100000	1
353.100000	1
355.100000	1
356.100000	1
357.100000	1
358.100000	1
359.100000	1
360.100000	1
361.100000	1
362.100000	1
363.100000	1
364.100000	1
365.100000	1
366.100000	1
367.100000	1
369.100000	1
370.100000	1
371.100000	1
375.100000	1
376.100000	1
377.100000	1
378.100000	1
379.100000	1
380.100000	1
381.100000	1
382.100000	1
383.100000	1
384.100000	1
385.100000	1
386.100000	1
387.100000	1
388.100000	1
389.100000	1
390.100000	1
391.100000	1
392.100000	1
393.100000	1
394.100000	1
395.100000	1
396.100000	1
397.100000	1
398.100000	1
399.100000	1
400.100000	1
401.100000	1
402.100000	1
403.100000	1
407.100000	1
409.100000	1
411.100000	1
414.100000	1
415.100000	1
416.100000	1
417.100000	1
418.100000	1
420.150000	4
421.100000	1
422.100000	1
423.100000	1
424.100000	1
426.100000	1
427.100000	1
428.100000	1
429.100000	1
430.100000	1
431.100000	1
432.100000	1
433.100000	1
434.100000	1
435.150000	3
436.100000	1
437.100000	1
438.100000	1
439.100000	1
441.100000	1
442.100000	1
443.100000	1
444.100000	1
446.100000	1
447.100000	1
448.100000	1
449.100000	1
450.100000	1
451.100000	1
452.100000	1
453.100000	1
454.100000	1
455.100000	1
456.100000	1
457.100000	1
458.100000	1
459.100000	1
460.100000	1
461.100000	1
462.100000	1
463.100000	1
464.100000	1
465.100000	1
466.100000	1
467.100000	1
468.100000	1
469.100000	1
470.100000	1
472.100000	1
473.100000	1
475.100000	1
476.100000	1
477.100000	1
478.100000	1
479.100000	1
480.100000	1
481.100000	1
482.100000	1
483.100000	1
484.100000	1
485.100000	1
487.100000	1
489.100000	1
490.100000	1
492.100000	1
493.100000	1
494.100000	1
495.100000	1
496.100000	1
497.100000	1
498.100000	1
499.100000	1
