Mass spectrum: Glycolic acid; EI-B; MS; 2 TMS; RT: 313.46 s
Name: Glycolic acid
Name: Hydroxyacetic acid
Class: Natural Product
Formula: C2H4O3
Exact mass: 76.01604
SMILES: OCC(O)=O
InChI: InChI=1S/C2H4O3/c3-1-2(4)5/h3H,1H2,(H,4,5)
Instrument: GCMS-2010 Plus, Shimadzu
Instrument type: EI-B
Ms type: MS
Ion mode: POSITIVE
Column name: InertCap 5MS/NP 0.25 mmI.D. x 30 m, df=0.25 um
Retention time: 313.46
Derivative type: 2 TMS
m/z	relative intensity
86.000000	1
87.000000	11
88.000000	24
89.000000	13
90.000000	2
91.000000	1
92.000000	1
93.000000	1
94.000000	1
95.050000	12
96.000000	2
97.000000	1
98.000000	1
99.000000	1
100.000000	1
101.000000	7
102.050000	7
103.050000	51
104.050000	7
105.000000	9
106.000000	1
107.000000	1
109.000000	1
110.000000	1
111.000000	1
112.000000	1
113.000000	2
114.000000	1
114.950000	12
116.000000	3
117.000000	31
118.050000	4
119.000000	9
120.000000	1
121.000000	1
122.000000	1
123.000000	1
125.000000	1
126.000000	1
127.000000	1
129.000000	1
130.000000	2
131.050000	43
132.050000	7
133.050000	94
134.050000	14
135.000000	9
136.000000	1
137.000000	1
139.000000	1
141.000000	1
142.000000	1
143.000000	1
144.000000	1
145.000000	1
146.100000	3
147.100000	999
148.100000	155
149.050000	98
150.050000	12
151.000000	4
152.000000	1
153.000000	1
154.000000	1
156.000000	1
157.000000	1
159.000000	1
160.100000	1
161.050000	71
162.050000	11
163.050000	6
164.000000	1
165.000000	1
166.000000	1
167.000000	1
168.000000	1
169.000000	1
170.000000	1
171.000000	1
172.000000	1
174.000000	1
175.000000	2
176.000000	2
177.050000	220
178.000000	33
179.000000	20
180.000000	2
181.000000	1
182.000000	1
184.000000	1
185.000000	1
186.000000	1
187.000000	1
188.000000	1
189.000000	1
190.000000	7
191.000000	1
192.000000	1
193.000000	1
194.000000	1
195.000000	1
196.000000	1
197.000000	1
200.000000	1
204.000000	1
205.000000	114
205.950000	22
207.000000	12
208.000000	1
209.000000	1
210.000000	1
211.000000	1
213.000000	1
214.000000	1
215.000000	1
216.000000	1
217.000000	1
219.000000	1
220.000000	1
221.000000	1
222.000000	1
223.000000	1
224.000000	1
229.000000	1
230.000000	1
231.000000	1
232.000000	1
233.000000	1
235.000000	1
236.000000	1
237.000000	1
239.000000	1
240.000000	1
241.000000	1
243.000000	1
245.000000	1
249.000000	1
251.000000	1
252.000000	1
253.000000	1
254.000000	1
255.000000	1
256.000000	1
257.000000	1
258.000000	1
259.000000	1
260.000000	1
263.000000	1
264.000000	1
266.000000	1
267.000000	1
269.000000	1
272.000000	1
273.000000	1
274.000000	1
275.000000	1
276.000000	1
278.000000	1
279.000000	1
280.000000	1
281.000000	1
282.000000	1
283.000000	1
284.000000	1
285.000000	1
286.000000	1
287.000000	1
288.000000	1
290.000000	1
291.000000	1
292.000000	1
294.000000	1
295.000000	1
296.000000	1
297.000000	1
298.000000	1
299.000000	1
300.000000	1
301.000000	1
304.000000	1
305.000000	1
306.000000	1
309.000000	1
310.000000	1
311.000000	1
312.000000	1
313.000000	1
314.000000	1
315.000000	1
316.000000	1
318.000000	1
319.000000	1
320.000000	1
321.000000	1
322.000000	1
323.000000	1
324.000000	1
325.000000	1
328.000000	1
331.000000	1
332.000000	1
333.000000	1
335.000000	1
339.000000	1
340.000000	1
341.000000	1
342.000000	1
343.000000	1
344.000000	1
345.000000	1
347.000000	1
350.000000	1
351.000000	1
352.000000	1
353.000000	1
354.000000	1
355.000000	1
357.000000	1
358.000000	1
359.000000	1
360.000000	1
361.000000	1
362.000000	1
363.000000	1
364.000000	1
366.000000	1
367.000000	1
368.000000	1
369.000000	1
370.000000	1
371.000000	1
372.000000	1
373.000000	1
375.000000	1
376.000000	1
377.000000	1
378.000000	1
379.000000	1
380.000000	1
381.000000	1
382.000000	1
384.000000	1
385.000000	1
386.000000	1
387.000000	1
388.000000	1
389.000000	1
393.000000	1
394.000000	1
395.000000	1
396.000000	1
397.000000	1
401.000000	1
404.000000	1
405.000000	1
407.000000	1
408.000000	1
409.000000	1
410.000000	1
411.000000	1
412.000000	1
413.000000	1
414.000000	1
415.000000	1
416.000000	1
417.000000	1
418.000000	1
419.000000	1
421.000000	1
422.000000	1
423.000000	1
424.000000	1
425.000000	1
426.000000	1
427.000000	1
428.000000	1
429.000000	1
430.000000	1
431.000000	1
433.000000	1
434.000000	1
437.000000	1
438.000000	1
439.000000	1
440.000000	1
441.000000	1
442.000000	1
443.000000	1
444.000000	1
445.000000	1
446.000000	1
447.000000	1
449.000000	1
450.000000	1
451.000000	1
452.000000	1
454.000000	1
455.000000	1
456.000000	1
457.000000	1
458.000000	1
459.000000	1
460.000000	1
462.000000	1
463.000000	1
464.000000	1
465.000000	1
466.000000	1
467.000000	1
468.000000	1
469.000000	1
472.000000	1
474.000000	1
475.000000	1
477.000000	1
478.000000	1
480.000000	1
482.000000	1
484.000000	1
487.000000	1
488.000000	1
489.000000	1
490.000000	1
491.000000	1
492.000000	1
493.000000	1
494.000000	1
497.000000	1
