Mass spectrum: L-Methionine; EI-B; MS; 2 TMS; RT: 596.79 s
Name: L-Methionine
Class: Natural Product
Formula: C5H11NO2S
Exact mass: 149.05105
SMILES: N[C@@H](CCSC)C(O)=O
InChI: InChI=1S/C5H11NO2S/c1-9-3-2-4(6)5(7)8/h4H,2-3,6H2,1H3,(H,7,8)/t4-/m0/s1
Instrument: GCMS-2010 Plus, Shimadzu
Instrument type: EI-B
Ms type: MS
Ion mode: POSITIVE
Column name: InertCap 5MS/NP 0.25 mmI.D. x 30 m, df=0.25 um
Retention time: 596.79
Derivative type: 2 TMS
m/z	relative intensity
86.050000	11
87.050000	6
88.050000	4
89.050000	2
90.050000	1
91.050000	5
92.000000	1
93.200000	1
94.200000	1
95.000000	1
96.000000	1
97.100000	1
98.100000	8
99.150000	2
100.100000	77
101.050000	15
102.050000	14
103.050000	20
104.050000	14
105.050000	16
106.050000	3
107.050000	2
108.000000	1
109.000000	1
110.000000	1
111.100000	1
112.100000	7
113.100000	2
114.100000	35
115.100000	11
116.100000	8
117.050000	11
118.050000	3
119.100000	5
120.100000	1
121.000000	1
122.000000	1
123.000000	1
124.000000	1
125.000000	1
126.100000	2
127.150000	3
128.100000	647
129.100000	84
130.100000	36
131.100000	20
132.050000	14
133.050000	23
134.100000	4
135.050000	2
136.100000	1
137.100000	1
138.100000	1
139.100000	1
140.100000	2
141.100000	2
142.150000	2
143.150000	1
144.150000	4
145.150000	1
146.150000	5
147.100000	152
148.100000	25
149.100000	14
150.100000	2
151.050000	2
152.100000	1
153.100000	1
154.100000	1
155.100000	1
156.100000	4
157.100000	2
158.100000	4
159.150000	3
160.100000	30
161.100000	4
162.100000	3
163.100000	4
164.100000	1
165.100000	1
166.100000	1
167.100000	1
168.100000	1
169.100000	1
170.100000	1
171.100000	1
172.100000	4
173.050000	4
174.100000	8
175.150000	7
176.100000	999
177.100000	135
178.100000	81
179.100000	10
180.050000	2
181.100000	1
182.100000	1
183.100000	1
184.100000	1
185.100000	1
186.100000	1
187.000000	1
188.050000	37
189.000000	5
190.050000	4
191.000000	1
192.000000	1
193.000000	1
194.000000	1
195.000000	1
196.000000	1
197.000000	1
198.000000	1
199.000000	1
200.000000	1
201.100000	1
202.050000	52
203.100000	23
204.100000	8
205.050000	3
206.000000	1
207.000000	2
208.000000	1
209.000000	1
210.000000	1
211.000000	1
212.000000	1
213.000000	1
214.000000	1
215.000000	1
216.050000	2
217.150000	1
218.050000	51
219.100000	117
220.050000	25
221.050000	11
222.000000	2
223.000000	1
224.000000	1
226.000000	1
227.000000	1
228.000000	1
229.000000	1
230.050000	8
231.150000	3
232.100000	34
233.100000	7
234.100000	4
235.100000	1
236.100000	1
237.100000	1
238.100000	1
239.100000	1
240.100000	1
241.100000	1
244.100000	1
245.100000	2
246.100000	1
247.100000	1
248.100000	1
249.100000	1
250.100000	63
251.100000	15
252.050000	8
253.100000	2
254.100000	1
255.100000	1
256.100000	1
257.100000	1
258.100000	1
259.100000	1
260.100000	1
261.100000	1
262.100000	1
263.050000	8
264.050000	2
265.100000	1
266.100000	1
267.100000	1
268.100000	1
269.100000	1
270.100000	1
271.100000	1
272.100000	1
274.100000	1
275.100000	1
276.100000	1
277.100000	1
278.100000	5
279.050000	2
280.100000	1
281.100000	1
282.100000	1
284.100000	1
286.100000	1
287.100000	1
289.100000	1
290.100000	1
291.100000	1
292.100000	1
293.100000	95
294.100000	23
295.100000	13
296.050000	2
297.000000	1
298.000000	1
299.000000	1
300.000000	1
301.000000	1
302.000000	1
303.000000	1
304.000000	1
305.000000	1
306.000000	1
307.000000	1
309.000000	1
310.000000	1
311.000000	1
312.000000	1
313.000000	1
314.000000	1
315.000000	1
316.000000	1
318.000000	1
320.000000	1
321.000000	1
322.000000	1
323.000000	1
324.000000	1
325.000000	1
326.000000	1
327.000000	1
328.000000	1
329.000000	1
330.000000	1
331.000000	1
332.000000	1
333.000000	1
334.000000	1
335.000000	1
336.000000	1
337.000000	1
338.000000	1
340.000000	1
341.000000	1
342.000000	1
343.000000	1
344.000000	1
345.000000	1
346.000000	1
347.000000	1
349.000000	1
350.000000	1
351.000000	1
352.000000	1
353.000000	1
354.000000	1
355.000000	1
357.000000	1
358.000000	1
359.000000	1
360.000000	1
361.000000	1
362.000000	1
363.000000	1
364.000000	1
365.000000	1
366.000000	1
367.000000	1
368.000000	1
369.000000	1
370.000000	1
371.000000	1
372.000000	1
373.000000	1
374.000000	1
375.000000	1
376.000000	1
377.000000	1
378.000000	1
379.000000	1
380.000000	1
381.000000	1
382.000000	1
383.000000	1
384.000000	1
385.000000	1
386.000000	1
387.000000	1
388.000000	1
389.000000	1
390.000000	1
391.000000	1
393.000000	1
394.000000	1
395.000000	1
396.000000	1
397.000000	1
399.000000	1
400.000000	1
401.000000	1
402.000000	1
404.000000	1
405.000000	1
406.000000	1
407.000000	1
408.000000	1
409.000000	1
410.000000	1
411.000000	1
412.000000	1
413.000000	1
414.000000	1
415.000000	1
416.000000	1
417.000000	1
418.000000	1
419.000000	1
420.000000	1
421.000000	1
422.000000	1
423.000000	1
424.000000	1
425.000000	1
426.000000	1
427.000000	1
429.000000	1
430.000000	1
431.000000	1
432.000000	1
433.000000	1
435.000000	1
436.000000	1
438.000000	1
439.000000	1
440.000000	1
441.000000	1
442.000000	1
443.000000	1
444.000000	1
445.000000	1
446.000000	1
447.000000	1
448.000000	1
449.000000	1
451.000000	1
452.000000	1
453.000000	1
454.000000	1
455.000000	1
456.000000	1
458.000000	1
459.000000	1
460.000000	1
461.000000	1
462.000000	1
463.000000	1
464.000000	1
465.000000	1
466.000000	1
467.000000	1
468.000000	1
469.000000	1
470.000000	1
473.000000	1
474.000000	1
475.000000	1
476.000000	1
477.000000	1
478.000000	1
479.000000	1
480.000000	1
481.000000	1
482.000000	1
483.000000	1
484.000000	1
485.000000	1
487.000000	1
488.000000	1
489.000000	1
490.000000	1
492.000000	1
493.000000	1
494.000000	1
495.000000	1
496.000000	1
497.000000	1
499.000000	1
