Mass spectrum: alpha-MethylBenzylamine; EI-B; MS; n TMS; RT: 294.78 s
Name: alpha-MethylBenzylamine
Name: a-MethylBenzylamine
Class: Natural Product
Formula: C8H11N
Exact mass: 121.08915
SMILES: CC(N)c(c1)cccc1
InChI: InChI=1S/C8H11N/c1-7(9)8-5-3-2-4-6-8/h2-7H,9H2,1H3
Instrument: GCMS-2010 Plus, Shimadzu
Instrument type: EI-B
Ms type: MS
Ion mode: POSITIVE
Column name: InertCap 5MS/NP 0.25 mmI.D. x 30 m, df=0.25 um
Retention time: 294.78
Derivative type: n TMS
m/z	relative intensity
85.600000	1
86.600000	1
87.600000	1
89.000000	8
90.000000	4
91.100000	17
92.100000	3
93.100000	4
94.100000	2
95.100000	1
96.100000	2
97.100000	5
98.100000	3
99.100000	1
100.100000	3
101.100000	2
102.050000	9
103.100000	34
104.050000	54
105.150000	33
106.100000	999
107.100000	80
108.100000	3
109.100000	1
110.100000	2
111.100000	1
112.100000	1
114.100000	1
115.100000	1
116.050000	10
117.100000	3
118.100000	6
119.100000	5
120.100000	56
121.100000	15
122.100000	1
124.100000	1
125.100000	1
126.100000	1
127.100000	1
128.100000	1
129.100000	1
130.100000	2
131.100000	6
132.100000	1
133.100000	1
134.100000	3
135.100000	1
136.100000	1
137.100000	1
138.100000	1
139.100000	1
141.100000	1
142.100000	2
143.100000	1
144.100000	1
145.100000	1
146.100000	2
147.100000	1
148.100000	1
149.100000	1
150.100000	1
151.100000	1
152.100000	1
153.100000	1
155.100000	1
156.100000	1
157.100000	1
158.100000	5
159.100000	1
160.100000	1
161.100000	1
162.100000	1
163.100000	1
164.100000	1
165.100000	1
169.100000	1
170.100000	1
171.100000	1
172.100000	4
173.100000	1
174.100000	1
175.100000	1
176.100000	1
177.100000	1
178.100000	1
179.100000	1
181.100000	1
184.100000	4
185.100000	1
186.100000	1
187.100000	1
188.100000	1
189.100000	1
190.100000	1
191.100000	1
192.100000	1
193.100000	1
194.100000	1
195.100000	1
197.100000	1
200.100000	1
202.100000	1
203.100000	1
204.100000	1
205.100000	1
206.100000	1
207.100000	3
208.100000	1
209.100000	1
210.100000	1
211.100000	1
212.100000	1
213.100000	1
215.100000	1
219.100000	4
220.100000	1
221.100000	1
222.100000	1
223.100000	1
224.100000	1
225.100000	1
227.100000	1
228.100000	5
229.100000	1
230.100000	1
232.100000	1
233.100000	1
237.100000	1
238.100000	1
239.100000	1
240.100000	1
241.100000	1
242.100000	1
243.100000	1
244.100000	1
245.100000	1
246.100000	1
247.100000	1
248.100000	1
249.100000	1
251.100000	1
253.100000	1
254.100000	1
255.100000	1
256.100000	1
257.100000	1
258.100000	1
259.100000	1
260.100000	1
261.100000	1
264.100000	1
265.100000	1
266.100000	1
267.100000	1
268.100000	1
269.100000	1
270.100000	1
271.100000	1
272.100000	1
274.100000	1
275.100000	1
277.100000	1
279.100000	1
280.100000	1
281.100000	1
282.100000	1
283.100000	1
284.100000	1
285.100000	1
286.100000	1
287.100000	1
288.100000	1
290.100000	1
291.100000	1
292.100000	1
294.100000	1
295.100000	1
296.100000	1
298.100000	1
299.100000	1
300.100000	1
301.100000	1
302.100000	1
305.100000	1
307.100000	1
308.100000	1
309.100000	1
310.100000	1
312.100000	1
313.100000	1
315.100000	1
316.100000	1
318.100000	1
319.100000	1
320.100000	1
321.100000	1
322.100000	1
323.100000	1
324.100000	1
325.100000	1
328.100000	1
329.100000	1
330.100000	1
331.100000	1
332.100000	1
333.100000	1
334.100000	1
335.100000	1
336.100000	1
337.100000	1
339.100000	1
340.100000	1
341.100000	1
342.100000	1
343.100000	1
344.100000	1
345.100000	1
346.100000	1
347.100000	1
348.100000	1
349.100000	1
350.100000	1
352.100000	1
354.100000	1
355.100000	1
356.100000	1
358.100000	1
359.100000	1
360.100000	1
362.100000	1
363.100000	1
364.100000	1
365.100000	1
367.100000	1
368.100000	1
369.100000	1
370.100000	1
372.100000	1
373.100000	1
374.100000	1
375.100000	1
376.100000	1
377.100000	1
378.100000	1
380.100000	1
381.100000	1
382.100000	1
383.100000	1
384.100000	1
385.100000	1
388.100000	1
389.100000	1
390.100000	1
391.100000	1
392.100000	1
393.100000	1
394.100000	1
395.100000	1
396.100000	1
397.100000	1
398.100000	1
399.100000	1
400.100000	1
401.100000	1
402.100000	1
403.100000	1
404.100000	1
405.100000	1
408.100000	1
409.100000	1
410.100000	1
412.100000	1
413.100000	1
414.100000	1
415.100000	1
416.100000	1
419.100000	1
420.100000	1
422.100000	1
423.100000	1
425.100000	1
426.100000	1
427.100000	1
428.100000	1
429.100000	1
430.100000	1
432.100000	1
434.100000	1
435.100000	1
437.100000	1
438.100000	1
439.100000	1
440.100000	1
441.100000	1
442.100000	1
444.100000	1
445.100000	1
447.100000	1
448.100000	1
449.100000	1
450.100000	1
451.100000	1
452.100000	1
453.100000	1
454.100000	1
455.100000	1
456.100000	1
457.100000	1
458.100000	1
459.100000	1
460.100000	1
462.100000	1
463.100000	1
465.100000	1
466.100000	1
467.100000	1
468.100000	1
469.100000	1
470.100000	1
471.100000	1
473.100000	1
474.100000	1
477.100000	1
478.100000	1
479.100000	1
480.100000	1
481.100000	1
482.100000	1
484.100000	1
486.100000	1
487.100000	1
488.100000	1
490.100000	1
491.100000	1
493.100000	1
494.100000	1
495.100000	1
496.100000	1
497.100000	1
