Mass spectrum: D-(+)-Fucose; EI-B; MS; n TMS; RT: 709.19 s
Name: D-(+)-Fucose
Class: Natural Product
Formula: C6H12O5
Exact mass: 164.06847
SMILES: CC(O1)C(O)C(O)C(O)C(O)1
InChI: InChI=1S/C6H12O5/c1-2-3(7)4(8)5(9)6(10)11-2/h2-10H,1H3/t2-,3+,4+,5-,6-/m1/s1
Instrument: GCMS-2010 Plus, Shimadzu
Instrument type: EI-B
Ms type: MS
Ion mode: POSITIVE
Column name: InertCap 5MS/NP 0.25 mmI.D. x 30 m, df=0.25 um
Retention time: 709.19
Derivative type: n TMS
m/z	relative intensity
86.050000	3
87.000000	3
88.050000	1
89.050000	19
90.050000	2
91.050000	1
92.000000	1
93.000000	1
94.000000	1
95.000000	1
96.000000	1
97.000000	1
98.000000	1
99.050000	2
100.050000	23
101.050000	13
102.050000	8
103.050000	15
104.050000	2
105.050000	14
106.100000	1
107.050000	1
108.050000	1
109.000000	1
110.000000	1
111.050000	1
112.050000	2
113.050000	1
114.050000	7
115.050000	11
116.150000	10
117.050000	999
118.100000	103
119.050000	41
120.050000	2
121.100000	1
122.100000	1
123.100000	1
124.100000	1
125.100000	1
126.050000	1
127.050000	3
128.150000	2
129.050000	67
130.050000	18
131.050000	40
132.050000	5
133.050000	31
134.050000	4
135.000000	3
136.000000	1
137.000000	1
138.000000	1
139.000000	1
140.100000	1
141.050000	2
142.050000	4
143.050000	11
144.050000	2
145.050000	4
146.150000	2
147.050000	103
148.050000	16
149.050000	12
150.050000	1
151.050000	1
152.000000	1
153.000000	1
154.100000	1
155.100000	1
156.100000	1
157.050000	2
158.050000	3
159.150000	2
160.100000	120
161.100000	51
162.100000	10
163.050000	9
164.100000	2
165.050000	1
166.100000	1
167.100000	1
168.100000	1
169.100000	1
170.050000	1
171.050000	3
172.050000	5
173.050000	3
174.050000	2
175.000000	2
176.000000	1
177.050000	2
178.000000	1
179.000000	1
180.100000	1
181.050000	1
182.000000	2
183.000000	1
184.000000	1
185.000000	1
186.050000	2
187.000000	1
188.050000	2
189.000000	13
190.000000	4
191.000000	23
192.000000	4
193.000000	2
194.000000	1
195.000000	1
196.000000	1
197.000000	1
198.050000	1
199.000000	1
200.050000	1
201.050000	29
202.000000	6
203.000000	24
204.050000	24
205.000000	8
206.050000	2
207.000000	2
208.000000	1
209.000000	1
210.000000	1
211.000000	1
212.000000	2
213.000000	1
214.050000	1
215.000000	2
216.050000	7
217.050000	16
218.100000	6
219.050000	51
220.050000	11
221.050000	8
222.000000	1
223.000000	1
224.000000	1
225.000000	1
226.000000	1
227.050000	1
228.000000	4
229.050000	2
230.100000	3
231.050000	28
232.050000	9
233.050000	35
234.050000	12
235.000000	4
236.000000	1
237.000000	1
238.000000	1
239.000000	1
240.050000	1
241.000000	1
242.000000	1
243.050000	1
244.000000	7
245.000000	4
246.050000	4
247.000000	1
248.000000	1
249.000000	1
250.000000	1
251.000000	1
252.000000	1
253.000000	1
254.000000	1
255.150000	1
256.050000	3
257.000000	1
258.050000	1
259.100000	1
260.050000	1
261.150000	1
262.050000	5
263.000000	1
264.100000	1
265.000000	1
266.000000	1
267.000000	1
268.000000	1
269.100000	1
270.100000	3
271.050000	2
272.000000	1
273.100000	1
274.050000	7
275.050000	2
276.150000	2
277.050000	128
278.050000	38
279.050000	18
280.050000	3
281.100000	1
282.100000	1
283.100000	1
284.100000	1
285.100000	1
286.100000	1
287.100000	1
288.100000	1
289.100000	1
290.100000	1
291.050000	5
292.100000	1
293.050000	6
294.000000	2
295.100000	1
296.100000	1
297.100000	1
298.100000	1
299.100000	1
300.100000	1
301.100000	1
302.100000	2
303.050000	1
304.100000	1
305.100000	6
306.050000	3
307.050000	1
308.100000	1
309.100000	1
310.100000	1
311.100000	1
312.100000	1
313.100000	1
314.100000	1
315.100000	1
316.100000	1
317.100000	1
318.100000	3
319.100000	1
320.150000	2
321.100000	45
322.100000	15
323.100000	7
324.100000	1
325.100000	1
326.100000	1
327.100000	1
328.100000	1
329.100000	1
330.100000	2
331.050000	1
332.050000	1
333.100000	1
334.100000	1
335.100000	1
336.100000	1
337.100000	1
338.100000	1
339.100000	1
341.100000	1
342.100000	1
343.100000	1
344.050000	2
345.050000	2
346.050000	1
347.000000	1
348.000000	1
349.000000	1
350.000000	1
351.000000	1
353.000000	1
355.000000	1
356.000000	1
357.000000	1
358.000000	1
359.000000	1
360.000000	1
361.000000	1
362.000000	1
363.100000	1
364.150000	5
365.100000	2
366.150000	1
367.100000	1
368.100000	1
370.100000	1
371.100000	1
372.100000	1
373.100000	1
374.100000	1
375.100000	1
376.050000	2
377.000000	1
378.000000	1
379.000000	1
380.000000	1
381.000000	1
382.000000	1
383.000000	1
385.000000	1
386.000000	1
387.000000	1
388.000000	1
389.000000	1
390.000000	1
391.000000	1
392.150000	1
393.050000	1
394.000000	1
395.000000	1
396.000000	1
397.000000	1
398.000000	1
399.000000	1
400.000000	1
401.000000	1
403.000000	1
404.000000	1
405.000000	1
406.000000	1
407.000000	1
408.000000	1
409.000000	1
411.000000	1
412.000000	1
413.000000	1
414.000000	1
417.000000	1
418.000000	1
419.000000	1
420.000000	1
421.000000	1
422.000000	1
423.000000	1
425.000000	1
426.000000	1
427.000000	1
428.000000	1
429.000000	1
430.000000	1
431.000000	1
432.000000	1
433.000000	1
434.000000	1
435.200000	1
436.200000	1
437.200000	1
438.200000	1
439.200000	1
440.200000	1
441.200000	1
442.200000	1
443.200000	1
444.200000	1
445.200000	1
447.200000	1
449.200000	1
450.150000	1
451.100000	1
452.100000	1
453.100000	1
454.100000	1
455.100000	1
457.100000	1
458.100000	1
460.100000	1
461.100000	1
463.100000	1
464.100000	1
465.100000	1
466.100000	1
467.100000	1
468.100000	1
469.100000	1
470.100000	1
471.100000	1
473.100000	1
474.100000	1
475.100000	1
476.100000	1
477.100000	1
479.100000	1
480.100000	1
481.100000	1
482.100000	1
483.100000	1
484.100000	1
485.100000	1
486.100000	1
487.100000	1
488.100000	1
489.100000	1
491.100000	1
492.100000	1
495.100000	1
496.100000	1
498.100000	1
499.100000	1
