Mass spectrum: L-Ornithine; EI-B; MS; 4 TMS; RT: 746.54 s
Name: L-Ornithine
Class: Natural Product
Formula: C5H12N2O2
Exact mass: 132.08988
SMILES: NCCC[C@H](N)C(O)=O
InChI: InChI=1S/C5H12N2O2/c6-3-1-2-4(7)5(8)9/h4H,1-3,6-7H2,(H,8,9)/t4-/m0/s1
Instrument: GCMS-2010 Plus, Shimadzu
Instrument type: EI-B
Ms type: MS
Ion mode: POSITIVE
Column name: InertCap 5MS/NP 0.25 mmI.D. x 30 m, df=0.25 um
Retention time: 746.54
Derivative type: 4 TMS
m/z	relative intensity
86.050000	92
87.050000	10
88.050000	5
89.100000	2
90.100000	7
91.100000	1
92.100000	1
93.100000	1
94.100000	1
95.000000	1
96.050000	2
97.050000	3
98.050000	6
99.100000	8
100.050000	75
101.100000	11
102.100000	55
103.050000	11
104.050000	3
105.100000	1
106.100000	1
107.100000	1
108.100000	1
109.100000	1
110.050000	4
111.050000	1
112.050000	16
113.100000	6
114.100000	25
115.100000	18
116.100000	10
117.050000	13
118.050000	3
119.050000	3
120.000000	1
121.000000	1
122.000000	1
123.000000	1
124.050000	2
125.150000	1
126.100000	19
127.100000	18
128.100000	64
129.100000	15
130.050000	34
131.050000	20
132.050000	14
133.050000	20
134.050000	4
135.050000	2
136.100000	1
137.100000	1
138.100000	1
139.100000	1
140.100000	10
141.150000	8
142.150000	999
143.150000	130
144.150000	55
145.050000	8
146.100000	26
147.100000	89
148.100000	17
149.050000	7
150.000000	1
151.100000	1
152.050000	7
153.150000	4
154.100000	6
155.100000	2
156.100000	3
157.150000	2
158.100000	5
159.100000	3
160.150000	10
161.100000	5
162.150000	5
163.100000	2
164.100000	1
165.100000	1
166.100000	1
167.150000	1
168.100000	4
169.100000	7
170.100000	5
171.150000	2
172.100000	44
173.150000	11
174.100000	467
175.100000	84
176.100000	49
177.100000	7
178.100000	2
179.100000	1
180.100000	1
181.100000	1
182.100000	1
183.100000	1
184.050000	1
185.150000	1
186.050000	17
187.100000	23
188.100000	13
189.100000	26
190.050000	7
191.050000	11
192.050000	2
193.100000	1
194.100000	1
195.100000	1
196.100000	1
197.000000	1
198.050000	4
199.150000	2
200.050000	99
201.100000	25
202.100000	18
203.050000	6
204.050000	22
205.100000	4
206.050000	3
207.000000	1
208.000000	1
209.000000	1
210.000000	1
211.000000	1
212.050000	2
213.150000	2
214.100000	61
215.100000	19
216.100000	63
217.050000	24
218.050000	31
219.050000	8
220.050000	7
221.050000	3
222.100000	1
223.100000	1
224.100000	1
225.150000	2
226.100000	4
227.100000	2
228.100000	1
229.100000	3
230.100000	5
231.100000	5
232.100000	9
233.100000	3
234.100000	1
235.100000	1
236.100000	1
237.100000	1
238.100000	1
239.100000	1
240.150000	1
241.100000	12
242.100000	9
243.100000	6
244.100000	14
245.050000	3
246.100000	3
247.100000	1
248.100000	2
249.100000	1
250.100000	1
251.100000	1
252.100000	1
254.100000	1
255.100000	1
256.100000	1
257.150000	1
258.100000	52
259.100000	51
260.100000	15
261.100000	5
262.100000	1
263.100000	1
264.100000	1
265.100000	1
267.100000	1
268.100000	1
269.100000	1
270.100000	1
271.100000	1
272.100000	1
273.100000	1
274.100000	1
275.100000	1
276.100000	1
277.100000	1
278.100000	1
279.100000	1
280.100000	1
281.100000	1
282.100000	1
283.100000	1
284.100000	1
285.100000	1
286.200000	1
287.150000	6
288.100000	3
289.150000	2
290.200000	2
291.150000	2
292.100000	1
293.100000	1
294.100000	1
295.100000	1
296.100000	1
297.100000	1
298.100000	1
299.100000	1
300.100000	1
301.100000	1
302.200000	1
303.200000	11
304.200000	4
305.150000	4
306.100000	1
307.100000	1
308.100000	1
309.100000	1
310.100000	1
311.100000	1
312.100000	1
313.200000	2
314.250000	1
315.200000	14
316.150000	11
317.150000	4
318.100000	2
319.100000	1
320.100000	1
321.100000	1
322.100000	1
323.100000	1
324.100000	1
325.100000	1
326.100000	1
327.100000	1
328.100000	1
329.200000	1
330.150000	27
331.150000	13
332.150000	5
333.150000	2
334.100000	1
335.100000	1
336.100000	1
337.100000	1
338.100000	1
339.100000	1
340.100000	1
341.100000	1
342.100000	1
343.100000	1
344.100000	1
345.100000	1
346.100000	1
347.100000	1
348.200000	3
349.200000	1
350.200000	1
352.200000	1
353.200000	1
354.200000	1
356.200000	1
357.200000	1
358.200000	1
359.200000	1
360.200000	1
361.200000	1
362.200000	1
363.200000	1
364.200000	1
366.200000	1
367.200000	1
368.200000	1
370.200000	1
371.200000	1
372.200000	1
374.200000	1
375.200000	1
376.200000	1
377.200000	1
378.200000	1
379.200000	1
380.200000	1
381.200000	1
382.200000	1
383.200000	1
384.200000	1
385.200000	1
386.200000	1
387.200000	1
388.200000	1
389.200000	1
390.200000	1
391.200000	1
392.200000	1
393.200000	1
394.200000	1
395.200000	1
397.200000	1
398.200000	1
399.200000	1
400.200000	1
401.200000	1
402.200000	1
403.250000	6
404.200000	2
405.200000	9
406.250000	3
407.150000	2
408.200000	1
409.200000	1
410.200000	1
411.200000	1
412.200000	1
413.200000	1
415.200000	1
416.200000	1
417.200000	1
418.200000	1
419.250000	1
420.200000	85
421.200000	37
422.200000	18
423.200000	5
424.150000	2
425.200000	1
426.200000	1
427.200000	1
428.200000	1
429.200000	1
430.200000	1
431.200000	1
432.200000	1
433.200000	1
434.200000	1
435.200000	1
436.200000	1
437.200000	1
438.200000	1
439.200000	1
440.200000	1
441.200000	1
442.200000	1
443.200000	1
445.200000	1
446.200000	1
447.200000	1
448.200000	1
449.200000	1
450.200000	1
451.200000	1
452.200000	1
453.200000	1
454.200000	1
455.200000	1
456.200000	1
457.200000	1
458.200000	1
459.200000	1
460.200000	1
461.200000	1
462.200000	1
463.200000	1
464.200000	1
465.200000	1
466.200000	1
467.200000	1
468.200000	1
469.200000	1
470.200000	1
471.200000	1
472.200000	1
474.200000	1
475.200000	1
476.200000	1
477.200000	1
479.200000	1
480.200000	1
481.200000	1
482.200000	1
483.200000	1
484.200000	1
485.200000	1
486.200000	1
488.200000	1
489.200000	1
490.200000	1
491.200000	1
492.200000	1
493.200000	1
494.200000	1
495.200000	1
498.200000	1
