Mass spectrum: Spermidine; EI-B; MS; n TMS; RT: 928.92 s
Name: Spermidine
Class: Natural Product
Formula: C7H19N3
Exact mass: 145.15790
SMILES: NCCCCNCCCN
InChI: InChI=1S/C7H19N3/c8-4-1-2-6-10-7-3-5-9/h10H,1-9H2
Instrument: GCMS-2010 Plus, Shimadzu
Instrument type: EI-B
Ms type: MS
Ion mode: POSITIVE
Column name: InertCap 5MS/NP 0.25 mmI.D. x 30 m, df=0.25 um
Retention time: 928.92
Derivative type: n TMS
m/z	relative intensity
86.050000	206
87.050000	24
88.100000	16
89.100000	2
90.100000	1
91.100000	1
92.100000	1
93.100000	1
94.100000	1
95.100000	1
96.100000	27
97.100000	4
98.100000	15
99.100000	28
100.100000	139
101.100000	26
102.100000	55
103.100000	8
104.100000	3
105.100000	1
106.100000	1
107.100000	1
108.100000	1
109.100000	1
110.100000	11
111.150000	12
112.100000	21
113.150000	7
114.100000	37
115.150000	99
116.150000	562
117.150000	73
118.150000	23
119.150000	2
120.100000	1
121.100000	1
122.100000	1
123.100000	1
124.100000	2
125.150000	1
126.150000	30
127.150000	7
128.150000	73
129.150000	61
130.150000	65
131.150000	21
132.100000	12
133.150000	3
134.100000	1
135.100000	1
136.100000	1
137.100000	1
138.100000	1
139.200000	1
140.150000	21
141.250000	7
142.200000	138
143.250000	25
144.200000	999
145.200000	128
146.200000	92
147.150000	13
148.150000	5
149.100000	1
150.100000	1
151.100000	1
152.150000	1
153.200000	1
154.200000	50
155.250000	13
156.200000	357
157.200000	174
158.200000	45
159.250000	11
160.200000	269
161.200000	52
162.150000	27
163.150000	4
164.250000	1
165.300000	1
166.300000	1
167.200000	1
168.150000	7
169.250000	2
170.200000	161
171.250000	29
172.150000	259
173.200000	48
174.150000	561
175.150000	100
176.150000	44
177.150000	5
178.150000	1
179.200000	1
180.200000	1
181.200000	1
182.200000	3
183.200000	24
184.200000	9
185.150000	5
186.150000	56
187.150000	17
188.150000	22
189.150000	5
190.150000	2
191.100000	1
192.100000	1
193.100000	1
194.100000	1
195.100000	1
196.100000	1
197.100000	1
198.150000	4
199.150000	3
200.150000	144
201.150000	205
202.100000	51
203.150000	18
204.100000	3
205.100000	1
206.100000	1
207.050000	2
207.700000	1
208.750000	1
209.700000	1
210.700000	1
212.150000	2
213.250000	3
214.150000	55
215.150000	17
216.150000	15
217.200000	4
218.150000	2
219.100000	1
220.100000	1
221.100000	1
222.100000	1
223.100000	1
225.100000	1
226.150000	1
227.150000	1
228.150000	2
229.200000	12
230.200000	3
231.200000	3
232.200000	1
233.200000	1
234.200000	1
235.200000	1
236.200000	1
237.200000	1
238.200000	1
239.200000	1
240.200000	1
241.200000	2
242.200000	1
243.200000	3
244.200000	2
245.200000	1
246.200000	1
247.200000	1
248.200000	1
249.200000	1
250.200000	1
251.200000	1
252.200000	1
253.200000	1
254.200000	1
255.250000	3
256.250000	1
257.250000	18
258.200000	5
259.200000	4
260.200000	1
261.200000	1
262.200000	1
263.200000	1
264.200000	1
265.200000	1
266.200000	1
267.200000	1
268.200000	1
269.200000	1
270.200000	1
271.250000	2
272.250000	7
273.250000	3
274.200000	1
275.200000	1
276.200000	1
277.200000	1
279.200000	1
280.200000	1
281.200000	1
282.200000	1
283.200000	1
284.200000	1
285.200000	1
286.200000	1
287.200000	1
288.200000	1
289.200000	1
290.200000	1
291.200000	1
292.200000	1
293.200000	1
294.200000	1
295.200000	1
297.200000	1
298.200000	1
299.200000	1
300.200000	1
301.200000	1
302.300000	1
303.300000	30
304.250000	10
305.250000	4
306.350000	1
307.300000	1
308.300000	1
309.300000	1
310.300000	1
311.300000	1
312.300000	1
313.300000	1
314.300000	1
315.300000	3
316.350000	1
317.300000	21
318.300000	7
319.300000	3
320.300000	1
321.300000	1
322.300000	1
324.300000	1
325.300000	1
326.300000	1
327.300000	1
328.300000	1
329.300000	1
330.300000	1
331.300000	1
332.300000	1
333.300000	1
334.300000	1
335.300000	1
336.300000	1
338.300000	1
339.300000	1
340.300000	1
341.300000	1
342.300000	1
343.350000	2
344.300000	23
345.300000	8
346.300000	3
347.300000	1
348.300000	1
350.300000	1
351.300000	1
353.300000	1
354.300000	1
355.300000	1
356.300000	1
357.300000	1
358.300000	1
359.300000	1
360.300000	1
361.300000	1
362.300000	1
363.300000	1
364.300000	1
365.300000	1
366.300000	1
368.300000	1
369.300000	1
371.300000	1
372.300000	1
373.300000	1
374.300000	1
375.300000	1
376.300000	1
377.300000	1
378.300000	1
379.300000	1
380.300000	1
381.300000	1
382.300000	1
383.300000	1
384.300000	1
385.300000	1
386.300000	1
387.300000	1
388.300000	1
389.300000	1
390.300000	1
391.300000	1
392.300000	1
393.300000	1
394.300000	1
396.300000	1
397.300000	1
398.300000	1
399.300000	1
400.300000	1
401.300000	1
402.300000	1
404.300000	1
405.300000	1
406.300000	1
407.300000	1
408.300000	1
412.300000	1
413.300000	1
414.300000	1
415.300000	1
416.300000	1
417.300000	1
418.350000	18
419.350000	8
420.300000	4
421.300000	1
422.300000	1
423.300000	1
424.300000	1
425.300000	1
426.300000	1
427.300000	1
428.300000	1
429.300000	1
430.300000	1
431.300000	1
432.300000	1
433.350000	1
434.300000	1
435.300000	1
437.300000	1
438.300000	1
439.300000	1
440.300000	1
441.300000	1
442.300000	1
443.300000	1
444.300000	1
445.300000	1
448.300000	1
449.300000	1
450.300000	1
451.300000	1
452.300000	1
453.300000	1
454.300000	1
455.300000	1
456.300000	1
457.300000	1
458.300000	1
459.300000	1
461.300000	1
462.300000	1
463.300000	1
465.300000	1
466.300000	1
467.300000	1
468.300000	1
470.300000	1
472.300000	1
473.300000	1
474.300000	1
475.300000	1
476.300000	1
477.300000	1
479.300000	1
480.300000	1
481.300000	1
482.300000	1
483.300000	1
484.300000	1
485.300000	1
486.300000	1
487.300000	1
488.300000	1
489.400000	1
490.400000	29
491.400000	14
492.400000	8
493.400000	3
494.400000	1
495.400000	1
496.400000	1
497.400000	1
498.400000	1
