Mass spectrum: Benzoic acid; EI-B; MS; 1 TMS; RT: 432.56 s
Name: Benzoic acid
Class: Natural Product
Formula: C7H6O2
Exact mass: 122.03678
SMILES: OC(=O)c(c1)cccc1
InChI: InChI=1S/C7H6O2/c8-7(9)6-4-2-1-3-5-6/h1-5H,(H,8,9)
Instrument: GCMS-2010 Plus, Shimadzu
Instrument type: EI-B
Ms type: MS
Ion mode: POSITIVE
Column name: InertCap 5MS/NP 0.25 mmI.D. x 30 m, df=0.25 um
Retention time: 432.56
Derivative type: 1 TMS
m/z	relative intensity
86.000000	1
87.000000	1
88.000000	1
89.550000	52
90.100000	12
91.050000	12
92.100000	3
93.000000	4
94.000000	1
95.000000	3
96.000000	1
97.000000	1
98.000000	1
99.000000	1
100.000000	1
101.000000	1
102.000000	1
103.050000	5
104.050000	6
105.050000	870
106.050000	68
107.000000	10
108.000000	1
109.000000	2
110.000000	1
111.000000	1
112.000000	1
113.000000	1
114.000000	1
115.000000	1
116.000000	1
117.000000	1
118.000000	1
119.050000	11
120.050000	3
121.050000	12
122.100000	3
123.100000	1
124.100000	1
125.100000	1
126.100000	1
127.100000	1
128.100000	1
129.100000	1
131.100000	2
132.100000	1
133.100000	3
134.150000	10
135.100000	807
136.100000	111
137.050000	33
138.100000	2
139.100000	1
140.100000	1
142.100000	1
143.100000	1
144.100000	1
145.100000	1
146.100000	1
147.100000	1
148.000000	1
149.050000	7
150.000000	3
151.000000	2
152.000000	1
153.000000	1
154.000000	1
155.000000	1
156.000000	1
157.000000	1
158.000000	1
161.000000	1
162.000000	1
163.000000	3
164.000000	3
165.000000	1
166.000000	1
167.000000	1
169.000000	1
171.000000	1
172.000000	1
173.000000	1
174.000000	1
175.000000	1
176.000000	1
177.000000	1
178.050000	5
179.000000	999
180.050000	144
181.050000	50
181.950000	4
183.000000	1
184.000000	1
185.000000	1
186.000000	1
187.000000	1
188.000000	1
189.000000	1
190.000000	1
191.000000	1
192.000000	1
193.050000	22
194.000000	93
195.000000	15
196.050000	4
197.000000	1
198.000000	1
199.000000	1
200.000000	1
202.000000	1
203.000000	1
204.000000	1
205.000000	1
206.000000	1
207.000000	1
208.000000	1
210.000000	1
211.000000	1
212.000000	1
213.000000	1
214.000000	1
215.000000	1
219.000000	1
220.000000	1
221.000000	1
222.000000	1
223.000000	1
226.000000	1
227.000000	1
229.000000	1
230.000000	1
231.000000	1
233.000000	1
234.000000	1
235.000000	1
236.000000	1
237.000000	1
238.000000	1
241.000000	1
243.000000	1
244.000000	1
245.000000	1
247.000000	1
248.000000	1
249.000000	1
250.000000	1
252.000000	1
253.000000	1
255.000000	1
256.000000	1
257.000000	1
258.000000	1
259.000000	1
260.000000	1
261.000000	1
262.000000	1
263.000000	1
264.000000	1
266.000000	1
267.000000	1
268.000000	1
269.000000	1
270.000000	1
271.000000	1
272.000000	1
273.000000	1
274.000000	1
275.000000	1
276.000000	1
277.000000	1
279.000000	1
280.000000	1
281.000000	1
282.000000	1
283.000000	1
285.000000	1
287.000000	1
289.000000	1
290.000000	1
291.000000	1
292.000000	1
293.000000	1
295.000000	1
296.000000	1
298.000000	1
299.000000	1
300.000000	1
302.000000	1
304.000000	1
305.000000	1
306.000000	1
308.000000	1
309.000000	1
311.000000	1
312.000000	1
314.000000	1
315.000000	1
316.000000	1
317.000000	1
319.000000	1
321.000000	1
323.000000	1
325.000000	1
328.000000	1
329.000000	1
330.000000	1
332.000000	1
333.000000	1
334.000000	1
335.000000	1
338.000000	1
341.000000	1
342.000000	1
343.000000	1
344.000000	1
345.000000	1
346.000000	1
347.000000	1
348.000000	1
349.000000	1
350.000000	1
351.000000	1
352.000000	1
355.000000	1
356.000000	1
358.000000	1
359.000000	1
360.000000	1
362.000000	1
363.000000	1
364.000000	1
365.000000	1
366.000000	1
367.000000	1
368.000000	1
369.000000	1
370.000000	1
371.000000	1
372.000000	1
373.000000	1
374.000000	1
375.000000	1
376.000000	1
377.000000	1
379.000000	1
380.000000	1
381.000000	1
383.000000	1
384.000000	1
385.000000	1
386.000000	1
389.000000	1
390.000000	1
391.000000	1
392.000000	1
393.000000	1
394.000000	1
398.000000	1
399.000000	1
400.000000	1
401.000000	1
402.000000	1
405.000000	1
406.000000	1
407.000000	1
408.000000	1
409.000000	1
410.000000	1
411.000000	1
412.000000	1
413.000000	1
414.000000	1
415.000000	1
416.000000	1
420.000000	1
421.000000	1
422.000000	1
423.000000	1
424.000000	1
425.000000	1
426.000000	1
427.000000	1
428.000000	1
429.000000	1
430.000000	1
433.000000	1
434.000000	1
435.000000	1
436.000000	1
439.000000	1
441.000000	1
442.000000	1
443.000000	1
445.000000	1
446.000000	1
448.000000	1
449.000000	1
450.000000	1
451.000000	1
453.000000	1
454.000000	1
456.000000	1
457.000000	1
459.000000	1
460.000000	1
461.000000	1
462.000000	1
464.000000	1
465.000000	1
466.000000	1
468.000000	1
469.000000	1
470.000000	1
471.000000	1
473.000000	1
474.000000	1
476.000000	1
477.000000	1
478.000000	1
479.000000	1
480.000000	1
481.000000	1
482.000000	1
483.000000	1
484.000000	1
485.000000	1
486.000000	1
487.000000	1
488.000000	1
489.000000	1
490.000000	1
491.000000	1
492.000000	1
494.000000	1
495.000000	1
498.000000	1
499.000000	1
