Mass spectrum: Homovanillic acid; EI-B; MS; 2 TMS; RT: 721.89 s
Name: Homovanillic acid
Name: Methoxy-4-Hydroxyphenylacetate
Class: Natural Product
Formula: C9H10O4
Exact mass: 182.05791
SMILES: COc(c1)c(O)ccc(CC(O)=O)1
InChI: InChI=1S/C9H10O4/c1-13-8-4-6(5-9(11)12)2-3-7(8)10/h2-4,10H,5H2,1H3,(H,11,12)
Instrument: GCMS-2010 Plus, Shimadzu
Instrument type: EI-B
Ms type: MS
Ion mode: POSITIVE
Column name: InertCap 5MS/NP 0.25 mmI.D. x 30 m, df=0.25 um
Retention time: 721.89
Derivative type: 2 TMS
m/z	relative intensity
86.000000	2
87.050000	4
88.050000	4
89.050000	56
90.050000	16
91.050000	36
92.050000	6
93.050000	4
94.000000	2
95.050000	7
96.000000	2
97.000000	5
98.000000	3
99.000000	8
100.000000	2
101.000000	3
102.100000	3
103.050000	21
104.100000	66
105.050000	38
106.100000	6
107.050000	9
108.100000	1
109.100000	3
110.100000	1
111.100000	2
112.100000	1
113.100000	1
114.000000	1
115.000000	8
116.050000	3
117.050000	31
118.100000	10
119.050000	25
120.050000	6
121.000000	10
122.000000	3
123.000000	3
124.000000	1
125.000000	2
126.000000	1
127.000000	1
128.000000	1
129.000000	2
130.000000	1
131.100000	11
132.100000	3
133.050000	34
134.050000	7
135.050000	45
136.100000	9
137.100000	7
138.100000	1
139.100000	1
140.600000	90
141.550000	11
142.600000	1
143.600000	1
145.100000	4
146.000000	3
147.050000	42
148.050000	85
149.000000	117
150.100000	19
151.050000	11
152.100000	2
153.100000	2
154.100000	1
155.100000	1
156.100000	1
157.100000	1
158.100000	1
159.100000	3
160.100000	1
161.100000	26
162.100000	82
163.050000	146
164.050000	48
165.050000	20
166.050000	4
167.100000	2
168.100000	1
169.100000	1
170.100000	1
171.100000	1
172.100000	1
173.100000	1
174.100000	5
175.100000	5
176.050000	4
177.100000	39
178.050000	49
179.050000	528
180.050000	84
181.050000	26
182.050000	3
183.100000	1
184.100000	1
185.100000	1
186.100000	1
187.100000	1
188.100000	1
189.100000	1
190.100000	1
191.050000	6
192.050000	25
193.000000	64
194.000000	20
195.050000	8
196.100000	2
197.100000	1
198.100000	1
200.100000	1
201.100000	1
202.100000	1
203.100000	1
204.100000	1
205.000000	2
206.000000	113
207.050000	68
208.050000	24
209.050000	999
210.050000	175
211.050000	53
212.050000	6
213.100000	1
215.100000	1
216.100000	1
217.100000	1
217.900000	1
218.900000	5
220.000000	4
221.000000	20
222.050000	4
223.050000	12
224.100000	4
225.000000	6
226.000000	1
227.000000	1
228.000000	1
229.000000	1
230.000000	1
231.000000	1
232.000000	1
233.000000	1
234.000000	1
235.000000	4
236.050000	16
237.000000	161
238.000000	35
239.050000	17
240.100000	3
241.100000	2
242.100000	1
243.100000	1
244.100000	1
245.100000	1
246.100000	1
247.100000	1
248.100000	1
249.100000	1
250.150000	4
251.100000	11
252.100000	139
253.050000	43
254.050000	17
255.050000	9
256.100000	2
257.100000	1
258.100000	1
259.100000	1
260.100000	1
261.100000	1
262.100000	1
263.100000	1
264.100000	1
265.100000	4
266.150000	6
267.100000	629
268.100000	152
269.100000	62
270.050000	11
271.000000	2
272.000000	1
273.000000	1
274.000000	1
275.000000	1
276.000000	1
278.000000	1
279.000000	1
280.000000	3
281.050000	4
282.150000	73
283.100000	24
284.150000	7
285.200000	2
286.200000	1
287.200000	1
288.200000	1
289.200000	1
290.200000	1
291.200000	1
293.200000	1
294.200000	1
295.150000	5
296.100000	354
297.050000	90
298.050000	39
299.100000	6
300.100000	1
301.100000	1
302.100000	1
303.100000	1
304.100000	1
305.100000	1
306.100000	1
307.100000	1
308.100000	1
309.100000	2
310.150000	6
311.100000	668
312.050000	169
313.100000	64
314.000000	13
315.000000	2
316.000000	1
317.000000	1
318.000000	1
319.000000	1
320.000000	1
322.000000	1
323.000000	1
324.000000	1
325.150000	7
326.100000	988
327.100000	252
328.150000	100
329.100000	21
330.150000	4
331.200000	1
332.200000	1
333.200000	1
334.200000	1
335.200000	1
337.200000	1
339.200000	1
340.200000	1
341.200000	1
342.200000	1
343.200000	1
344.200000	1
345.200000	1
346.200000	1
347.200000	1
348.200000	1
349.200000	1
350.200000	1
351.200000	1
352.200000	1
353.200000	1
354.200000	1
355.200000	1
356.200000	1
357.200000	1
359.200000	1
360.200000	1
362.200000	1
370.200000	1
374.200000	1
376.200000	1
377.200000	1
379.200000	1
380.200000	1
382.200000	1
383.200000	1
384.200000	1
386.200000	1
388.200000	1
389.200000	1
391.200000	1
393.200000	1
394.200000	1
395.200000	1
397.200000	1
398.200000	1
399.200000	1
400.200000	1
403.200000	1
404.200000	1
405.200000	1
406.200000	1
408.200000	1
409.200000	1
410.200000	1
412.200000	1
413.200000	1
414.200000	1
415.200000	1
416.200000	1
417.200000	1
418.200000	1
419.200000	1
421.200000	1
422.200000	1
423.200000	1
424.200000	1
425.200000	1
427.200000	1
428.200000	1
429.200000	1
430.200000	1
431.200000	1
432.200000	1
433.200000	1
434.200000	1
435.200000	1
436.200000	1
438.200000	1
439.200000	1
440.200000	1
441.200000	1
442.200000	1
443.200000	1
444.200000	1
447.200000	1
448.200000	1
449.200000	1
450.200000	1
451.200000	1
452.200000	1
453.200000	1
454.200000	1
457.200000	1
458.200000	1
459.200000	1
460.200000	1
461.200000	1
462.200000	1
463.200000	1
464.200000	1
465.200000	1
466.200000	1
467.200000	1
468.200000	1
469.200000	1
471.200000	1
475.200000	1
476.200000	1
478.200000	1
479.200000	1
480.200000	1
481.200000	1
483.200000	1
484.200000	1
486.200000	1
488.200000	1
491.200000	1
492.200000	1
494.200000	1
495.200000	1
496.200000	1
