Mass spectrum: Cadaverine; EI-B; MS; 4 TMS; RT: 755.70 s
Name: Cadaverine
Class: Natural Product
Formula: C5H14N2
Exact mass: 102.11570
SMILES: NCCCCCN
InChI: InChI=1S/C5H14N2/c6-4-2-1-3-5-7/h1-7H2
Instrument: GCMS-2010 Plus, Shimadzu
Instrument type: EI-B
Ms type: MS
Ion mode: POSITIVE
Column name: InertCap 5MS/NP 0.25 mmI.D. x 30 m, df=0.25 um
Retention time: 755.70
Derivative type: 4 TMS
m/z	relative intensity
86.050000	86
87.050000	9
88.050000	12
89.050000	1
90.050000	1
91.100000	1
92.100000	1
93.100000	1
94.100000	1
95.100000	1
96.100000	1
97.100000	1
98.050000	3
99.100000	4
100.100000	43
101.100000	6
102.100000	10
103.050000	2
104.100000	1
105.100000	1
106.100000	1
107.100000	1
108.100000	1
109.100000	1
110.100000	1
111.150000	1
112.100000	15
113.100000	4
114.100000	6
115.100000	3
116.100000	6
117.100000	7
118.100000	2
119.100000	1
120.100000	1
121.100000	1
122.100000	1
123.100000	1
124.100000	1
125.150000	1
126.100000	4
127.100000	1
128.100000	5
129.150000	2
130.100000	23
131.100000	14
132.100000	6
133.100000	1
134.100000	1
135.100000	1
136.100000	1
137.100000	1
138.150000	1
139.150000	1
140.150000	10
141.150000	1
142.150000	4
143.200000	5
144.150000	4
145.150000	1
146.150000	12
147.200000	2
148.100000	1
149.100000	1
150.100000	1
151.100000	1
152.100000	1
153.200000	1
154.200000	5
155.150000	1
156.200000	5
157.150000	1
158.150000	9
159.150000	2
160.150000	13
161.200000	2
162.100000	1
163.100000	1
164.100000	1
165.100000	1
166.100000	1
167.100000	1
168.100000	1
169.200000	1
170.150000	2
171.150000	1
172.150000	17
173.250000	12
174.150000	999
175.200000	165
176.150000	74
177.150000	9
178.150000	2
179.200000	1
180.200000	2
181.150000	1
182.200000	1
183.100000	1
184.100000	2
185.150000	1
186.150000	13
187.150000	3
188.150000	5
189.100000	1
190.100000	1
191.100000	1
192.100000	1
194.100000	1
195.100000	1
196.100000	1
197.100000	1
198.100000	2
199.250000	1
200.150000	15
201.150000	3
202.100000	2
203.150000	1
204.100000	1
205.100000	1
206.100000	1
207.100000	1
208.100000	1
209.100000	1
210.100000	1
211.200000	1
212.150000	3
213.150000	2
214.200000	7
215.150000	1
216.200000	10
217.200000	2
218.150000	2
219.100000	1
220.100000	1
221.100000	1
222.100000	1
223.100000	1
224.100000	1
225.100000	1
226.150000	1
227.150000	2
228.200000	4
229.200000	32
230.150000	8
231.150000	3
232.150000	1
233.200000	1
234.200000	1
235.200000	1
236.200000	1
237.200000	1
238.200000	1
239.200000	1
240.200000	1
241.200000	1
242.200000	1
243.200000	1
244.200000	1
245.200000	1
246.200000	1
247.200000	1
248.200000	1
249.200000	1
250.200000	1
251.200000	1
252.200000	1
253.200000	1
254.200000	1
255.200000	1
256.200000	1
257.200000	1
258.200000	1
259.200000	1
260.200000	1
261.200000	1
263.200000	1
264.200000	1
265.200000	1
266.200000	1
267.200000	1
268.200000	1
269.200000	1
270.200000	1
271.200000	1
273.200000	1
274.200000	1
275.200000	1
276.200000	1
279.200000	1
280.200000	1
281.200000	1
282.200000	1
284.200000	1
285.200000	1
286.200000	1
287.200000	1
288.200000	1
289.200000	1
290.200000	1
291.200000	1
292.200000	1
293.200000	1
294.200000	1
295.200000	1
297.200000	1
298.200000	1
299.200000	1
300.200000	1
301.200000	1
302.200000	1
303.200000	1
304.200000	1
305.200000	1
306.200000	1
307.200000	1
308.200000	1
309.200000	1
311.200000	1
312.200000	1
313.200000	1
314.200000	1
315.200000	1
316.200000	1
317.200000	1
318.200000	1
319.200000	1
320.200000	1
322.200000	1
323.200000	1
324.200000	1
325.200000	1
326.200000	1
327.200000	1
328.200000	1
329.200000	1
330.200000	1
331.200000	1
332.200000	1
333.200000	1
334.200000	1
335.200000	1
337.200000	1
338.200000	1
339.200000	1
341.200000	1
342.200000	1
343.200000	1
344.200000	1
345.200000	1
346.200000	1
347.200000	1
349.200000	1
350.200000	1
351.200000	1
352.200000	1
353.200000	1
354.200000	1
355.200000	1
357.200000	1
358.200000	1
360.200000	1
361.200000	1
362.200000	1
363.200000	1
364.200000	1
365.200000	1
366.200000	1
368.200000	1
369.200000	1
370.200000	1
372.200000	1
373.200000	1
374.350000	1
375.300000	73
376.300000	29
377.300000	15
378.300000	4
379.350000	1
380.300000	1
381.300000	1
382.300000	1
384.300000	1
387.300000	1
388.300000	1
389.350000	3
390.350000	8
391.350000	3
392.350000	2
393.300000	1
394.300000	1
395.300000	1
396.300000	1
397.300000	1
398.300000	1
402.300000	1
403.300000	1
405.300000	1
406.300000	1
407.300000	1
408.300000	1
410.300000	1
411.300000	1
412.300000	1
413.300000	1
414.300000	1
415.300000	1
416.300000	1
417.300000	1
418.300000	1
419.300000	1
420.300000	1
421.300000	1
422.300000	1
423.300000	1
424.300000	1
425.300000	1
426.300000	1
427.300000	1
428.300000	1
429.300000	1
430.300000	1
431.300000	1
432.300000	1
434.300000	1
436.300000	1
437.300000	1
438.300000	1
439.300000	1
440.300000	1
441.300000	1
443.300000	1
444.300000	1
446.300000	1
447.300000	1
448.300000	1
449.300000	1
450.300000	1
451.300000	1
452.300000	1
455.300000	1
456.300000	1
457.300000	1
458.300000	1
459.300000	1
460.300000	1
461.300000	1
462.300000	1
463.300000	1
464.300000	1
465.300000	1
467.300000	1
469.300000	1
470.300000	1
472.300000	1
473.300000	1
474.300000	1
477.300000	1
478.300000	1
479.300000	1
482.300000	1
483.300000	1
484.300000	1
485.300000	1
486.300000	1
489.300000	1
491.300000	1
492.300000	1
493.300000	1
494.300000	1
497.300000	1
498.300000	1
