Mass spectrum: 5-Aminopentanoic acid; EI-B; MS; 3 TMS; RT: 653.41 s
Name: 5-Aminopentanoic acid
Name: 5-Aminovaleric acid
Class: Natural Product
Formula: C5H11NO2
Exact mass: 117.07898
SMILES: NCCCCC(O)=O
InChI: InChI=1S/C5H11NO2/c6-4-2-1-3-5(7)8/h1-4,6H2,(H,7,8)
Instrument: GCMS-2010 Plus, Shimadzu
Instrument type: EI-B
Ms type: MS
Ion mode: POSITIVE
Column name: InertCap 5MS/NP 0.25 mmI.D. x 30 m, df=0.25 um
Retention time: 653.41
Derivative type: 3 TMS
m/z	relative intensity
86.050000	142
87.050000	15
88.050000	7
89.050000	2
90.000000	1
91.000000	1
92.000000	1
93.000000	1
94.000000	1
95.000000	1
96.050000	1
97.100000	2
98.050000	3
99.100000	7
100.100000	83
101.050000	11
102.100000	12
103.100000	3
104.050000	1
104.950000	1
106.000000	1
107.000000	1
108.000000	1
109.000000	1
110.000000	1
111.150000	1
112.100000	16
113.100000	5
114.050000	6
114.950000	7
116.050000	8
117.050000	9
118.050000	2
119.050000	3
120.100000	1
121.100000	1
122.100000	1
123.100000	1
124.100000	1
125.100000	1
126.100000	3
127.050000	1
128.100000	11
129.100000	43
130.100000	34
131.100000	30
132.100000	8
133.100000	19
134.100000	3
135.050000	2
136.100000	1
137.100000	1
138.100000	1
139.100000	1
140.100000	1
141.100000	1
142.150000	2
143.150000	2
144.100000	4
145.150000	1
146.150000	18
147.100000	123
148.150000	19
149.150000	11
150.100000	1
150.700000	1
151.700000	9
152.650000	2
154.150000	20
155.150000	3
156.150000	19
157.150000	4
158.100000	10
159.150000	2
160.150000	4
161.150000	3
162.150000	6
163.150000	1
164.100000	1
165.100000	1
166.100000	1
167.100000	1
168.100000	1
169.100000	1
170.100000	5
171.150000	1
172.100000	13
173.150000	6
174.150000	999
175.100000	174
176.100000	83
177.100000	9
178.100000	2
179.100000	1
180.100000	1
181.100000	1
182.100000	1
183.100000	1
184.100000	1
185.050000	1
186.100000	5
187.050000	2
188.050000	2
189.000000	1
190.000000	1
191.000000	1
192.000000	1
193.000000	1
194.000000	1
195.000000	1
196.000000	1
197.000000	1
198.000000	1
199.150000	1
200.100000	77
201.100000	16
202.100000	8
203.050000	5
204.050000	3
205.050000	1
206.100000	1
207.100000	1
208.100000	1
209.100000	1
210.100000	1
211.100000	1
212.100000	1
213.100000	1
214.100000	1
215.100000	1
216.150000	1
217.100000	4
218.150000	1
219.050000	1
220.100000	1
221.050000	6
222.100000	2
223.050000	1
224.100000	1
225.100000	1
226.100000	1
227.100000	1
228.100000	29
229.100000	7
230.050000	9
231.100000	2
232.150000	1
233.100000	1
234.100000	1
235.100000	1
236.100000	1
237.100000	1
238.100000	1
239.100000	1
240.100000	1
241.100000	1
242.100000	1
243.100000	1
244.150000	19
245.150000	5
246.100000	3
247.100000	1
248.100000	1
249.100000	1
250.100000	1
251.100000	1
253.100000	1
254.100000	1
255.100000	1
256.100000	1
257.100000	1
258.100000	1
259.200000	1
260.150000	9
261.100000	2
262.100000	1
263.100000	1
264.100000	1
265.100000	1
266.100000	1
267.100000	1
268.100000	1
269.100000	1
271.100000	1
272.100000	1
273.100000	1
274.150000	1
275.100000	1
276.100000	1
277.100000	1
278.100000	1
279.100000	1
281.100000	1
282.100000	1
283.100000	1
284.100000	1
285.100000	1
286.100000	1
287.100000	1
288.100000	1
289.100000	1
290.100000	1
291.100000	1
292.100000	1
293.100000	1
294.100000	1
295.100000	1
296.100000	1
297.100000	1
298.100000	1
299.100000	1
300.100000	1
301.100000	1
302.150000	1
303.100000	1
304.100000	1
305.100000	1
306.100000	1
307.100000	1
308.100000	1
309.100000	1
310.100000	1
311.100000	1
312.100000	1
314.100000	1
316.100000	1
317.250000	1
318.150000	52
319.150000	16
320.150000	7
321.100000	2
322.100000	1
323.100000	1
324.100000	1
325.100000	1
327.100000	1
329.100000	1
330.100000	1
331.100000	1
332.250000	1
333.200000	6
334.200000	2
335.200000	1
336.200000	1
337.200000	1
338.200000	1
340.200000	1
342.200000	1
343.200000	1
344.200000	1
345.200000	1
346.200000	1
347.200000	1
348.200000	1
349.200000	1
350.200000	1
351.200000	1
352.200000	1
353.200000	1
354.200000	1
356.200000	1
357.200000	1
358.200000	1
360.200000	1
361.200000	1
362.200000	1
366.200000	1
367.200000	1
368.200000	1
369.200000	1
370.200000	1
371.200000	1
372.200000	1
373.200000	1
375.200000	1
376.200000	1
378.200000	1
379.200000	1
380.200000	1
381.200000	1
382.200000	1
383.200000	1
385.200000	1
386.200000	1
387.200000	1
388.200000	1
389.200000	1
390.200000	1
392.200000	1
393.200000	1
394.200000	1
395.200000	1
396.200000	1
398.200000	1
399.200000	1
400.200000	1
401.200000	1
402.200000	1
403.200000	1
404.200000	1
405.200000	1
406.200000	1
407.200000	1
408.200000	1
410.200000	1
411.200000	1
413.200000	1
414.200000	1
415.200000	1
418.200000	1
420.200000	1
423.200000	1
424.200000	1
425.200000	1
426.200000	1
427.200000	1
428.200000	1
429.200000	1
430.200000	1
431.200000	1
432.200000	1
433.200000	1
434.200000	1
436.200000	1
437.200000	1
438.200000	1
439.200000	1
440.200000	1
441.200000	1
442.200000	1
443.200000	1
444.200000	1
446.200000	1
447.200000	1
448.200000	1
449.200000	1
450.200000	1
451.200000	1
452.200000	1
454.200000	1
455.200000	1
456.200000	1
457.200000	1
458.200000	1
459.200000	1
460.200000	1
462.200000	1
463.200000	1
464.200000	1
466.200000	1
467.200000	1
468.200000	1
469.200000	1
470.200000	1
471.200000	1
472.200000	1
474.200000	1
476.200000	1
477.200000	1
478.200000	1
479.200000	1
480.200000	1
481.200000	1
482.200000	1
485.200000	1
487.200000	1
488.200000	1
489.200000	1
490.200000	1
491.200000	1
493.200000	1
494.200000	1
495.200000	1
496.200000	1
497.200000	1
498.200000	1
499.200000	1
