Mass spectrum: L-(-)-Phenylalanine; EI-B; MS; 2 TMS; RT: 654.48 s
Name: L-(-)-Phenylalanine
Class: Natural Product
Formula: C9H11NO2
Exact mass: 165.07898
SMILES: C1=CC=C(C=C1)C[C@@H](C(=O)O)N
InChI: InChI=1S/C9H11NO2/c10-8(9(11)12)6-7-4-2-1-3-5-7/h1-5,8H,6,10H2,(H,11,12)/t8-/m0/s1
Instrument: GCMS-2010 Plus, Shimadzu
Instrument type: EI-B
Ms type: MS
Ion mode: POSITIVE
Column name: InertCap 5MS/NP 0.25 mmI.D. x 30 m, df=0.25 um
Retention time: 654.48
Derivative type: 2 TMS
m/z	relative intensity
86.100000	13
87.000000	4
88.100000	2
89.050000	4
90.100000	3
91.100000	51
92.100000	8
93.050000	3
94.100000	1
95.100000	1
96.100000	1
97.100000	1
98.100000	1
99.150000	2
100.100000	285
101.100000	35
102.100000	15
103.050000	24
104.050000	5
105.100000	5
106.100000	1
107.100000	2
108.100000	1
109.100000	1
110.100000	1
111.100000	1
112.100000	1
113.100000	1
114.100000	1
115.100000	8
116.100000	3
117.100000	13
118.100000	6
119.100000	7
120.100000	18
121.100000	9
122.100000	1
123.100000	1
124.100000	1
125.100000	1
126.100000	1
127.100000	1
128.100000	2
129.150000	2
130.100000	33
131.100000	23
132.100000	21
133.100000	28
134.100000	6
135.100000	8
136.100000	1
137.100000	1
138.100000	1
140.100000	1
141.100000	1
142.100000	1
143.100000	1
144.150000	3
145.100000	4
146.150000	14
147.150000	187
148.150000	33
149.150000	17
150.100000	2
151.100000	1
152.100000	1
153.100000	1
154.100000	1
155.100000	1
156.100000	1
157.100000	1
158.100000	2
159.100000	4
160.150000	14
161.100000	4
162.100000	6
163.150000	17
164.200000	3
165.200000	1
166.200000	1
167.200000	1
169.200000	1
170.200000	1
171.200000	1
172.200000	1
173.100000	1
174.100000	7
175.150000	2
176.100000	14
177.100000	20
178.100000	4
179.100000	2
180.100000	1
181.100000	1
182.100000	1
183.100000	1
184.100000	1
185.100000	1
186.100000	1
187.100000	1
188.100000	2
189.100000	1
190.100000	6
191.150000	13
192.100000	627
193.100000	115
194.100000	31
195.050000	4
196.100000	1
197.100000	1
198.100000	1
199.100000	1
200.100000	1
201.100000	1
202.100000	2
203.100000	8
204.100000	23
205.100000	6
206.100000	2
207.100000	1
208.100000	1
209.100000	1
210.100000	1
211.100000	1
212.100000	1
213.100000	1
214.100000	1
215.100000	1
216.100000	1
217.150000	5
218.100000	999
219.100000	196
220.100000	87
221.100000	11
222.100000	2
223.100000	1
224.100000	1
225.100000	1
226.100000	1
227.100000	1
228.100000	1
229.100000	1
230.100000	1
231.100000	1
232.100000	1
233.100000	1
234.100000	1
235.100000	1
236.100000	1
237.100000	1
238.100000	1
239.100000	1
240.100000	1
241.100000	1
242.100000	1
243.100000	1
244.100000	1
245.100000	1
246.100000	1
247.100000	1
248.100000	1
249.100000	1
250.100000	1
251.100000	1
252.100000	1
253.100000	1
254.100000	1
255.100000	1
256.100000	1
257.100000	1
258.100000	1
259.100000	1
260.100000	1
261.100000	1
262.100000	1
263.100000	1
264.100000	1
265.200000	1
266.150000	61
267.150000	27
268.150000	8
269.100000	2
270.100000	1
271.100000	1
274.100000	1
275.100000	1
276.100000	1
277.100000	1
278.100000	2
279.100000	1
280.100000	1
281.100000	1
283.100000	1
284.100000	1
285.100000	1
286.100000	1
288.100000	1
289.100000	1
290.100000	1
291.100000	1
292.100000	1
293.200000	1
294.150000	15
295.150000	4
296.100000	1
297.100000	1
298.100000	1
299.100000	1
300.100000	1
301.100000	1
302.100000	1
303.100000	1
304.100000	1
305.100000	1
306.100000	1
307.100000	1
308.100000	1
309.100000	1
310.100000	1
311.100000	1
312.100000	1
313.100000	1
314.100000	1
315.100000	1
316.100000	1
317.100000	1
318.100000	1
319.100000	1
320.100000	1
321.100000	1
322.100000	1
323.100000	1
325.100000	1
326.100000	1
327.100000	1
328.100000	1
329.100000	1
330.100000	1
332.100000	1
333.100000	1
334.100000	1
335.100000	1
336.100000	1
337.100000	1
338.100000	1
339.100000	1
340.100000	1
341.100000	1
342.100000	1
343.100000	1
344.100000	1
345.100000	1
346.100000	1
347.100000	1
348.100000	1
349.100000	1
350.100000	1
351.100000	1
353.100000	1
354.100000	1
355.100000	1
357.100000	1
360.100000	1
361.100000	1
362.100000	1
363.100000	1
364.100000	1
365.100000	1
366.100000	1
367.100000	1
368.100000	1
369.100000	1
370.100000	1
371.100000	1
372.100000	1
373.100000	1
374.100000	1
375.100000	1
377.100000	1
378.100000	1
379.100000	1
380.100000	1
381.100000	1
382.100000	1
383.100000	1
384.100000	1
385.100000	1
386.100000	1
387.100000	1
388.100000	1
389.100000	1
390.100000	1
391.100000	1
392.100000	1
393.100000	1
394.100000	1
395.100000	1
396.100000	1
397.100000	1
398.100000	1
399.100000	1
400.100000	1
401.100000	1
402.100000	1
403.100000	1
404.100000	1
405.100000	1
406.100000	1
408.100000	1
410.100000	1
411.100000	1
413.100000	1
414.100000	1
415.100000	1
416.100000	1
419.100000	1
420.100000	1
421.100000	1
422.100000	1
423.100000	1
424.100000	1
426.100000	1
427.100000	1
428.100000	1
429.100000	1
431.100000	1
432.100000	1
433.100000	1
434.100000	1
435.100000	1
436.100000	1
437.100000	1
439.100000	1
441.100000	1
442.100000	1
443.100000	1
446.100000	1
447.100000	1
448.100000	1
450.100000	1
451.100000	1
452.100000	1
453.100000	1
454.100000	1
456.100000	1
457.100000	1
458.100000	1
459.100000	1
462.100000	1
464.100000	1
466.100000	1
467.100000	1
468.100000	1
469.100000	1
470.100000	1
471.100000	1
472.100000	1
473.100000	1
474.100000	1
476.100000	1
477.100000	1
478.100000	1
479.100000	1
480.100000	1
481.100000	1
482.100000	1
483.100000	1
484.100000	1
485.100000	1
486.100000	1
487.100000	1
490.100000	1
491.100000	1
492.100000	1
498.100000	1
499.100000	1
