Mass spectrum: N-Formyl-L-Methionine; EI-B; MS; n TMS; RT: 684.81
Name: N-Formyl-L-Methionine
Class: Natural Product
Formula: C6H11NO3S
Exact mass: 177.04596
SMILES: O=CNC(CCSC)C(O)=O
InChI: InChI=1S/C6H11NO3S/c1-11-3-2-5(6(9)10)7-4-8/h4-5H,2-3H2,1H3,(H,7,8)(H,9,10)/t5-/m0/s1
Instrument: GCMS-2010 Plus, Shimadzu
Instrument type: EI-B
Ms type: MS
Ion mode: POSITIVE
Column name: InertCap 5MS/NP 0.25 mmI.D. x 30 m, df=0.25 um
Retention time: 684.81
Derivative type: n TMS
m/z	relative intensity
86.000000	207
87.000000	73
88.000000	81
89.000000	81
90.000000	18
91.000000	247
92.000000	35
93.000000	43
94.000000	29
95.000000	47
96.000000	44
97.000000	60
98.100000	409
99.100000	352
100.100000	569
101.100000	68
102.100000	437
103.100000	150
104.100000	189
105.100000	105
106.100000	48
107.100000	18
108.100000	40
109.100000	36
110.100000	40
111.100000	110
112.100000	101
113.100000	530
114.100000	196
115.100000	91
116.100000	105
117.100000	125
118.100000	85
119.100000	60
120.100000	15
121.100000	23
123.100000	2
124.100000	9
125.100000	25
126.100000	57
127.100000	110
128.100000	119
129.100000	526
130.100000	253
131.100000	303
132.100000	108
133.100000	166
134.100000	21
135.100000	110
136.100000	45
137.100000	7
138.100000	18
139.100000	48
140.100000	63
141.100000	103
142.100000	127
143.100000	50
144.100000	162
145.100000	92
146.100000	74
147.100000	999
148.100000	165
149.100000	113
150.100000	11
151.100000	42
152.100000	28
153.100000	25
154.100000	43
155.100000	55
156.100000	126
157.100000	574
158.100000	306
159.100000	257
160.100000	81
161.100000	56
162.100000	34
163.100000	27
164.100000	42
165.100000	38
167.100000	86
168.100000	7
169.100000	48
170.100000	86
171.050000	281
172.000000	129
173.000000	39
174.000000	102
175.100000	963
176.100000	163
177.100000	27
178.100000	62
179.100000	38
180.100000	8
181.100000	22
182.100000	24
183.100000	19
184.100000	109
185.100000	50
186.100000	176
187.100000	72
188.100000	227
189.100000	130
190.100000	62
191.100000	50
192.100000	22
193.100000	21
194.100000	29
195.100000	67
196.100000	5
197.100000	31
198.100000	25
199.100000	86
200.100000	24
201.100000	23
202.100000	34
203.100000	5
204.100000	109
205.100000	54
206.100000	49
207.100000	85
208.100000	34
209.100000	24
210.100000	40
211.100000	2
213.100000	36
214.100000	18
215.100000	5
217.100000	10
218.100000	2
219.100000	200
220.100000	9
221.100000	119
222.100000	19
223.100000	22
224.100000	18
225.100000	21
226.100000	12
227.100000	43
228.100000	50
229.100000	34
230.100000	83
231.100000	24
232.100000	56
233.100000	32
234.100000	122
235.100000	22
236.100000	10
237.100000	8
238.100000	18
239.100000	27
240.100000	12
242.100000	36
243.100000	16
245.100000	10
246.100000	59
247.100000	617
248.100000	174
249.100000	201
250.100000	82
251.100000	43
252.100000	27
253.100000	45
254.100000	16
255.100000	7
256.100000	134
257.100000	24
258.100000	31
259.100000	21
260.150000	318
261.200000	68
262.200000	2
263.200000	15
264.200000	63
265.200000	7
266.200000	1
267.200000	21
268.200000	13
269.200000	9
270.200000	16
271.200000	30
272.200000	37
273.200000	21
274.200000	22
275.200000	4
276.200000	16
277.200000	15
278.200000	53
279.200000	18
280.200000	31
281.200000	41
282.200000	2
283.200000	5
284.200000	38
285.200000	5
286.200000	17
287.200000	16
288.200000	8
290.200000	12
292.200000	34
294.200000	25
295.200000	6
297.200000	43
298.200000	8
299.200000	4
300.200000	8
301.200000	7
302.200000	21
303.200000	32
304.200000	6
305.200000	33
306.200000	81
307.200000	76
308.200000	25
309.200000	55
310.200000	23
311.200000	38
312.200000	6
313.200000	18
314.200000	5
315.200000	24
316.200000	20
317.200000	21
318.200000	16
319.200000	21
321.200000	5
322.200000	32
323.200000	21
324.200000	16
326.200000	19
328.200000	15
329.200000	52
331.200000	18
333.200000	21
334.200000	16
337.200000	25
338.200000	25
339.200000	21
340.200000	16
341.200000	21
342.200000	18
343.200000	18
344.200000	37
345.200000	1
346.200000	13
347.200000	6
348.200000	8
349.200000	9
351.200000	11
352.200000	21
353.200000	10
354.200000	16
355.200000	29
356.200000	15
358.200000	13
359.200000	32
360.200000	27
361.200000	16
362.200000	30
363.200000	27
364.200000	18
366.200000	9
367.200000	8
368.200000	9
369.200000	1
371.200000	3
372.200000	12
373.200000	31
375.200000	13
376.200000	20
377.200000	8
378.200000	1
379.200000	15
380.200000	7
382.200000	14
383.200000	15
384.200000	5
385.200000	1
386.200000	6
387.200000	16
388.200000	12
389.200000	8
390.200000	1
391.200000	5
392.200000	11
393.200000	11
394.200000	3
395.200000	22
396.200000	30
398.200000	9
401.200000	18
402.200000	22
403.200000	10
404.200000	11
406.200000	36
407.200000	39
408.200000	14
409.200000	25
410.200000	24
411.200000	20
412.200000	25
413.200000	40
414.200000	34
415.200000	1
416.200000	14
417.200000	25
418.200000	15
421.200000	18
422.200000	6
424.200000	9
425.200000	12
428.200000	10
429.200000	21
430.200000	24
431.200000	13
432.200000	1
433.200000	7
434.200000	7
435.200000	27
436.200000	1
437.200000	2
439.200000	8
440.200000	11
441.200000	4
442.200000	35
443.200000	7
444.200000	28
445.200000	20
446.200000	12
447.200000	12
448.200000	21
450.200000	1
451.200000	13
452.200000	53
453.200000	11
454.200000	1
455.200000	5
457.200000	13
458.200000	5
459.200000	25
460.200000	10
461.200000	26
465.200000	8
466.200000	16
467.200000	20
468.200000	5
469.200000	8
471.200000	37
472.200000	10
474.200000	15
475.200000	18
476.200000	17
477.200000	22
479.200000	9
480.200000	4
481.200000	7
482.200000	2
483.200000	11
485.200000	1
486.200000	25
487.200000	36
489.200000	11
490.200000	6
491.200000	40
492.200000	38
494.200000	16
495.200000	21
496.200000	7
497.200000	4
498.200000	28
499.200000	12
