Mass spectrum: DL-Allothreonine; EI-B; MS; 3 TMS; RT: 526.68 s
Name: DL-Allothreonine
Class: Natural Product
Formula: C4H9NO3
Exact mass: 119.05824
SMILES: CC(O)C(N)C(O)=O
InChI: InChI=1S/C4H9NO3/c1-2(6)3(5)4(7)8/h2-3,6H,5H2,1H3,(H,7,8)/t2-,3-/m1/s1
Instrument: GCMS-2010 Plus, Shimadzu
Instrument type: EI-B
Ms type: MS
Ion mode: POSITIVE
Column name: InertCap 5MS/NP 0.25 mmI.D. x 30 m, df=0.25 um
Retention time: 526.68
Derivative type: 3 TMS
m/z	relative intensity
86.050000	48
87.100000	39
88.100000	7
89.100000	6
90.100000	2
91.100000	2
92.100000	1
93.100000	1
94.100000	1
95.100000	1
96.100000	4
97.100000	3
98.100000	8
99.150000	8
100.100000	269
101.100000	625
102.100000	90
103.100000	44
104.100000	5
105.100000	5
106.100000	1
107.100000	2
108.100000	1
109.100000	1
110.100000	2
111.100000	2
112.100000	10
113.100000	5
114.100000	50
115.050000	28
116.150000	22
117.100000	977
118.100000	103
119.100000	46
120.100000	4
121.100000	1
122.100000	1
123.100000	1
125.100000	1
126.100000	2
127.100000	4
128.100000	129
129.100000	278
130.100000	98
131.100000	106
132.100000	75
133.050000	86
134.100000	17
135.000000	8
136.000000	2
137.000000	1
138.000000	1
139.000000	1
140.000000	2
141.000000	1
142.000000	3
143.000000	4
144.150000	11
145.100000	6
146.150000	13
147.100000	385
148.150000	59
149.100000	37
150.100000	5
151.100000	1
152.100000	1
153.100000	1
154.100000	1
155.100000	1
156.050000	8
157.100000	5
158.100000	16
159.100000	33
160.050000	23
161.100000	6
162.100000	3
163.050000	15
164.100000	3
165.100000	3
166.100000	1
167.100000	1
168.100000	1
169.100000	1
170.100000	1
171.100000	1
172.100000	18
173.100000	6
174.050000	19
175.100000	6
176.100000	11
177.100000	7
178.100000	1
179.100000	1
180.100000	1
181.100000	1
182.100000	1
183.100000	1
185.100000	1
186.100000	16
187.100000	6
188.000000	10
189.000000	5
190.100000	8
191.100000	26
192.100000	6
193.100000	3
194.100000	1
195.100000	1
196.100000	1
198.100000	1
199.100000	1
200.100000	3
201.100000	3
202.100000	100
203.100000	109
204.050000	41
205.050000	15
206.000000	5
207.000000	20
208.000000	4
209.000000	4
210.000000	1
211.000000	1
212.000000	1
213.000000	1
214.000000	2
215.000000	1
216.150000	9
217.150000	10
218.100000	607
219.100000	999
220.050000	215
221.050000	109
222.050000	16
223.000000	4
224.000000	1
225.000000	1
226.000000	1
227.000000	1
228.000000	1
229.100000	1
230.100000	30
231.100000	12
232.100000	5
233.100000	1
234.100000	1
235.100000	1
236.100000	1
238.100000	1
239.100000	1
240.100000	1
241.100000	1
242.100000	1
243.100000	1
244.100000	1
245.100000	2
246.100000	3
247.100000	1
248.100000	12
249.100000	3
250.100000	1
251.100000	1
252.100000	1
253.100000	4
254.100000	2
255.100000	1
256.100000	1
257.100000	1
258.100000	1
259.100000	1
260.100000	1
261.100000	1
262.100000	1
263.100000	1
264.100000	2
265.100000	1
266.100000	1
267.100000	1
268.100000	1
269.100000	1
270.100000	1
271.100000	1
272.100000	1
273.100000	1
274.100000	1
275.100000	1
276.100000	5
277.100000	4
278.100000	2
279.100000	1
280.100000	1
281.100000	4
282.100000	1
283.100000	1
284.100000	1
285.100000	1
286.100000	1
287.100000	1
288.100000	1
289.100000	1
290.100000	1
291.150000	384
292.150000	214
293.100000	87
294.150000	26
295.100000	6
296.100000	1
297.100000	1
298.100000	1
299.100000	1
300.100000	1
301.100000	1
302.100000	1
303.100000	1
304.100000	2
305.100000	1
306.100000	1
307.100000	1
308.100000	1
309.100000	1
311.100000	1
312.100000	1
313.100000	1
315.100000	1
316.100000	1
317.100000	1
318.100000	1
319.100000	1
320.100000	47
321.150000	15
322.050000	7
323.000000	2
324.000000	1
325.000000	1
326.000000	1
327.000000	2
328.000000	1
329.000000	1
330.000000	1
331.000000	1
332.000000	1
333.000000	1
334.000000	2
335.000000	1
336.000000	2
337.000000	1
338.000000	1
339.000000	1
340.000000	1
341.000000	1
343.000000	1
344.000000	1
345.000000	1
347.000000	1
348.000000	1
349.000000	1
350.000000	1
351.000000	1
353.000000	1
354.000000	1
355.000000	1
356.000000	1
358.000000	1
359.000000	1
360.000000	1
362.000000	1
363.000000	1
367.000000	1
368.000000	1
369.000000	1
370.000000	1
371.000000	1
372.000000	1
373.000000	1
374.000000	1
377.000000	1
378.000000	1
379.000000	1
380.000000	1
381.000000	1
382.000000	1
383.000000	1
384.000000	1
385.000000	1
386.000000	1
387.000000	1
388.000000	1
389.000000	1
391.000000	1
392.000000	1
393.000000	1
394.000000	1
395.000000	1
396.000000	1
397.000000	1
398.000000	1
399.000000	1
400.000000	1
401.000000	1
402.000000	1
403.000000	1
404.000000	1
405.000000	1
408.000000	1
409.000000	1
410.000000	1
411.000000	1
412.000000	1
413.000000	1
414.000000	1
415.000000	1
416.000000	1
417.000000	1
418.000000	1
419.000000	1
420.000000	1
421.000000	1
422.000000	1
425.000000	1
426.000000	1
429.000000	1
430.000000	1
431.000000	1
433.000000	1
434.000000	1
435.000000	1
436.000000	1
437.000000	1
438.000000	1
440.000000	1
441.000000	1
443.000000	1
444.000000	1
445.000000	1
446.000000	1
447.000000	1
448.000000	1
449.000000	1
450.000000	1
451.000000	1
452.000000	1
453.000000	1
454.000000	1
455.000000	1
458.000000	1
459.000000	1
460.000000	1
461.000000	1
462.000000	1
463.000000	1
464.000000	1
466.000000	1
468.000000	1
469.000000	1
470.000000	1
472.000000	1
473.000000	1
474.000000	1
475.000000	1
476.000000	1
477.000000	1
478.000000	1
479.000000	1
480.000000	1
481.000000	1
482.000000	1
484.000000	1
485.000000	1
486.000000	1
487.000000	1
488.000000	1
489.000000	1
490.000000	1
492.000000	1
493.000000	1
495.000000	1
496.000000	1
497.000000	1
498.000000	1
499.000000	1
