Mass spectrum: Phenoxyacetic acid; EI-B; MS; 1 TMS; RT: 540.85 s
Name: Phenoxyacetic acid
Class: Natural Product
Formula: C8H8O3
Exact mass: 152.04734
SMILES: OC(=O)COc(c1)cccc1
InChI: InChI=1S/C8H8O3/c9-8(10)6-11-7-4-2-1-3-5-7/h1-5H,6H2,(H,9,10)
Instrument: GCMS-2010 Plus, Shimadzu
Instrument type: EI-B
Ms type: MS
Ion mode: POSITIVE
Column name: InertCap 5MS/NP 0.25 mmI.D. x 30 m, df=0.25 um
Retention time: 540.85
Derivative type: 1 TMS
m/z	relative intensity
86.000000	1
87.000000	8
88.000000	54
89.050000	98
90.100000	17
91.050000	814
92.100000	64
93.100000	26
94.100000	32
95.050000	88
96.000000	7
97.000000	11
98.000000	1
99.000000	7
100.000000	11
101.000000	41
102.000000	12
103.000000	12
103.700000	3
104.700000	121
105.700000	14
107.000000	70
108.000000	7
109.000000	22
110.000000	3
111.000000	2
112.000000	3
113.000000	3
114.000000	6
115.000000	7
116.000000	15
117.100000	105
118.100000	10
119.100000	23
120.100000	10
121.100000	30
122.100000	11
123.100000	21
124.100000	2
125.100000	6
126.100000	3
127.100000	1
128.100000	8
129.100000	7
130.100000	20
131.100000	27
133.100000	16
134.100000	7
135.100000	999
136.050000	143
137.050000	69
138.100000	13
139.100000	3
140.100000	1
141.100000	7
143.100000	1
144.100000	1
145.100000	4
146.100000	5
147.100000	33
148.100000	9
149.100000	47
150.100000	14
151.050000	153
152.100000	23
153.100000	36
154.100000	8
155.100000	1
157.100000	1
159.100000	1
160.100000	1
161.100000	41
162.000000	1
163.050000	423
164.100000	85
165.050000	926
166.050000	121
167.000000	63
169.000000	8
170.000000	3
171.000000	6
172.000000	5
173.000000	1
174.000000	1
175.000000	1
176.000000	6
177.000000	4
178.000000	3
179.000000	34
180.000000	5
181.000000	238
182.000000	42
183.000000	9
184.000000	4
186.000000	2
187.000000	2
188.000000	1
189.000000	5
190.000000	2
191.000000	5
192.000000	1
193.000000	6
194.000000	5
195.000000	7
196.000000	4
197.000000	8
198.000000	3
199.000000	4
200.000000	4
201.000000	5
202.000000	1
203.000000	2
204.000000	1
205.000000	1
207.000000	4
208.000000	6
209.000000	53
210.000000	12
211.000000	5
212.000000	7
214.000000	6
215.000000	7
216.000000	3
219.000000	25
220.000000	3
221.000000	9
222.000000	2
223.000000	4
224.050000	762
225.000000	125
226.000000	36
227.000000	1
228.000000	2
229.000000	6
230.000000	3
231.000000	2
232.000000	4
233.000000	1
234.000000	3
235.000000	4
236.000000	1
238.000000	4
239.000000	6
240.000000	5
241.000000	1
242.000000	2
244.000000	6
245.000000	2
246.000000	3
248.000000	4
251.000000	2
252.000000	9
253.000000	18
254.000000	6
255.000000	6
256.000000	4
257.000000	4
258.000000	5
259.000000	3
260.000000	1
261.000000	4
263.000000	3
264.000000	15
265.000000	2
266.000000	6
268.000000	8
269.000000	7
270.000000	4
271.000000	5
272.000000	1
273.000000	3
274.000000	4
276.000000	1
277.000000	2
278.000000	1
279.000000	7
280.000000	1
281.000000	2
282.000000	2
283.000000	2
284.000000	2
285.000000	4
289.000000	1
292.000000	3
293.000000	1
294.000000	1
296.000000	1
297.000000	1
298.000000	5
299.000000	9
300.000000	7
301.000000	1
302.000000	2
303.000000	2
304.000000	3
305.000000	2
307.000000	2
309.000000	4
310.000000	8
311.000000	3
312.000000	5
314.000000	2
315.000000	2
316.000000	5
317.000000	2
318.000000	7
319.000000	2
320.000000	5
321.000000	2
323.000000	6
324.000000	7
325.000000	1
326.000000	5
327.000000	8
328.000000	3
329.000000	1
330.000000	2
331.000000	3
332.000000	4
333.000000	3
334.000000	5
339.000000	4
340.000000	4
341.000000	5
343.000000	8
344.000000	4
347.000000	2
348.000000	2
349.000000	4
351.000000	6
353.000000	2
354.000000	10
355.000000	1
356.000000	3
357.000000	7
358.000000	4
359.000000	1
360.000000	3
361.000000	2
362.000000	2
363.000000	1
364.000000	4
365.000000	5
366.000000	3
367.000000	5
369.000000	5
370.000000	9
371.000000	4
372.000000	5
373.000000	5
374.000000	1
375.000000	1
376.000000	1
377.000000	2
378.000000	2
380.000000	2
381.000000	1
382.000000	5
383.000000	2
384.000000	5
386.000000	1
387.000000	1
389.000000	6
390.000000	2
391.000000	1
392.000000	2
393.000000	3
394.000000	1
395.000000	2
396.000000	4
397.000000	2
398.000000	3
399.000000	5
402.000000	4
403.000000	7
404.000000	5
405.000000	4
406.000000	3
407.000000	2
408.000000	7
409.000000	3
411.000000	4
412.000000	2
413.000000	3
414.000000	5
416.000000	8
418.000000	7
419.000000	5
420.000000	1
422.000000	1
423.000000	5
425.000000	4
426.000000	4
427.000000	7
428.000000	4
429.000000	2
430.000000	2
431.000000	3
435.000000	1
439.000000	3
440.000000	1
441.000000	4
442.000000	6
443.000000	4
445.000000	2
446.000000	6
447.000000	2
448.000000	2
449.000000	4
450.000000	5
452.000000	3
453.000000	2
454.000000	2
456.000000	5
457.000000	6
458.000000	2
459.000000	1
460.000000	2
461.000000	3
462.000000	4
464.000000	1
465.000000	2
468.000000	4
473.000000	3
474.000000	3
475.000000	5
476.000000	3
477.000000	3
478.000000	7
479.000000	2
480.000000	2
481.000000	5
482.000000	6
483.000000	3
484.000000	1
485.000000	1
487.000000	4
489.000000	2
490.000000	4
491.000000	5
492.000000	1
493.000000	8
494.000000	2
495.000000	6
496.000000	2
498.000000	2
499.000000	3
