Mass spectrum: DL-Cystathionine; EI-B; MS; 2 TMS; RT: 869.15 s
Name: DL-Cystathionine
Class: Natural Product
Formula: C7H14N2O4S
Exact mass: 222.06743
SMILES: OC(=O)[C@@H](N)CCSC[C@H](N)C(O)=O
InChI: InChI=1S/C7H14N2O4S/c8-4(6(10)11)1-2-14-3-5(9)7(12)13/h4-5H,1-3,8-9H2,(H,10,11)(H,12,13)
Instrument: GCMS-2010 Plus, Shimadzu
Instrument type: EI-B
Ms type: MS
Ion mode: POSITIVE
Column name: InertCap 5MS/NP 0.25 mmI.D. x 30 m, df=0.25 um
Retention time: 869.15
Derivative type: 2 TMS
m/z	relative intensity
86.050000	49
87.050000	122
88.050000	945
89.050000	102
90.050000	375
91.100000	52
92.050000	24
93.000000	7
94.000000	4
95.000000	6
96.000000	7
97.000000	8
98.000000	12
99.050000	18
100.100000	71
101.100000	20
102.100000	285
103.100000	112
104.100000	999
105.100000	68
106.100000	44
107.100000	6
108.100000	4
109.100000	4
110.100000	7
111.100000	6
112.150000	27
113.150000	18
114.100000	83
115.100000	21
116.100000	140
117.100000	114
118.150000	42
119.100000	18
120.100000	4
121.100000	3
122.100000	2
123.100000	2
124.100000	1
125.100000	3
126.050000	20
127.000000	4
128.150000	46
129.100000	107
130.100000	215
131.100000	403
132.100000	50
133.150000	37
134.100000	15
135.100000	11
136.100000	3
137.100000	1
138.100000	3
139.100000	2
140.100000	9
141.100000	11
142.100000	14
143.100000	11
144.100000	125
145.150000	49
146.100000	231
147.150000	154
148.100000	36
149.100000	19
150.100000	7
151.100000	3
152.100000	2
153.100000	2
154.100000	7
155.100000	3
156.100000	25
157.150000	19
158.200000	33
159.150000	65
160.150000	91
161.150000	87
162.150000	35
163.100000	13
164.100000	8
165.100000	3
166.100000	4
167.100000	1
168.100000	22
169.100000	5
170.100000	3
171.100000	3
172.150000	53
173.100000	81
174.100000	43
175.100000	19
176.100000	10
177.100000	89
178.100000	18
179.100000	13
180.100000	2
181.100000	1
182.100000	5
183.100000	2
184.100000	1
185.100000	1
186.100000	5
187.100000	4
188.100000	25
189.150000	17
190.100000	353
191.100000	58
192.050000	49
193.150000	14
194.100000	369
195.100000	44
196.100000	35
197.100000	4
198.100000	12
199.100000	4
200.100000	4
201.100000	2
202.150000	65
203.100000	69
204.100000	27
205.150000	37
206.100000	397
207.050000	120
208.050000	69
209.100000	13
210.100000	5
211.100000	2
212.100000	2
213.100000	1
214.100000	3
215.100000	7
216.100000	61
217.100000	13
218.100000	15
219.150000	14
220.100000	422
221.100000	221
222.100000	61
223.100000	19
224.100000	5
225.100000	2
226.100000	2
227.100000	1
228.100000	1
229.100000	1
230.100000	12
231.100000	8
232.150000	243
233.100000	52
234.150000	34
235.100000	5
236.100000	1
237.100000	2
238.100000	4
239.100000	1
240.100000	1
242.100000	4
243.100000	4
244.100000	2
245.100000	2
246.100000	1
247.100000	3
248.100000	5
249.100000	10
250.100000	4
251.100000	3
253.100000	1
254.100000	2
255.100000	1
256.100000	1
257.100000	1
258.100000	2
259.100000	10
260.100000	1
261.100000	6
262.100000	4
263.100000	2
264.100000	1
265.100000	1
266.100000	2
267.100000	2
268.100000	3
269.100000	2
271.100000	1
272.100000	1
273.100000	2
274.100000	1
275.100000	2
276.100000	20
277.100000	6
278.100000	4
279.100000	3
280.100000	1
281.100000	5
282.100000	3
283.100000	2
284.100000	1
286.100000	1
287.100000	1
288.100000	17
289.100000	6
290.100000	2
291.100000	1
292.100000	4
293.100000	1
294.100000	3
295.100000	1
296.100000	2
297.100000	2
298.100000	1
299.100000	2
301.100000	1
302.100000	3
303.100000	2
304.100000	2
305.100000	2
306.100000	2
307.100000	3
308.100000	1
309.100000	4
310.100000	1
311.100000	1
312.100000	2
313.100000	2
314.100000	1
315.100000	1
316.100000	7
317.100000	3
318.100000	2
319.100000	2
320.100000	1
321.100000	4
322.100000	1
323.100000	1
324.100000	2
325.100000	3
326.100000	2
327.100000	2
328.100000	1
329.100000	1
331.100000	1
332.100000	4
333.100000	5
334.100000	7
335.100000	1
336.100000	1
337.100000	1
338.100000	2
339.100000	1
340.100000	1
341.100000	1
342.100000	1
344.100000	1
346.100000	1
347.100000	2
348.100000	2
349.100000	7
351.150000	28
352.200000	11
353.200000	7
355.200000	1
357.200000	1
358.200000	2
359.200000	2
360.200000	1
361.200000	1
362.200000	1
363.200000	2
364.200000	3
365.200000	2
366.200000	82
367.200000	26
368.200000	15
369.200000	4
370.200000	2
372.200000	1
373.200000	1
374.200000	3
375.200000	1
376.200000	1
377.200000	1
379.200000	1
380.200000	2
381.200000	1
382.200000	2
383.200000	1
384.200000	2
385.200000	1
386.200000	1
387.200000	1
389.200000	1
390.200000	1
392.200000	1
393.200000	2
394.200000	1
395.200000	3
396.200000	2
398.200000	1
399.200000	1
400.200000	1
401.200000	2
402.200000	2
403.200000	2
404.200000	1
405.200000	1
406.200000	1
407.200000	1
408.200000	1
409.200000	2
411.200000	1
412.200000	1
413.200000	1
414.200000	1
415.200000	1
416.200000	1
419.200000	1
420.200000	1
421.200000	2
422.200000	2
423.200000	1
424.200000	1
427.200000	1
429.200000	1
430.200000	2
431.200000	1
433.200000	1
434.200000	1
435.200000	1
436.200000	1
437.200000	1
440.200000	1
441.200000	1
442.200000	1
443.200000	1
444.200000	2
445.200000	1
446.200000	2
447.200000	1
449.200000	1
450.200000	1
451.200000	1
455.200000	1
456.200000	1
458.200000	1
459.200000	2
460.200000	2
462.200000	1
463.200000	1
464.200000	1
465.200000	1
466.200000	1
467.200000	2
468.200000	1
469.200000	1
470.200000	1
471.200000	1
473.200000	1
474.200000	1
476.200000	1
477.200000	1
479.200000	1
480.200000	1
481.200000	1
482.200000	3
483.200000	1
484.200000	2
485.200000	1
486.200000	1
487.200000	1
489.200000	1
490.200000	1
491.200000	1
493.200000	2
494.200000	1
495.200000	2
496.200000	2
497.200000	1
499.200000	1
