Mass spectrum: L-Rhamnose; EI-B; MS; 4 TMS; RT: 708.47 s
Name: L-Rhamnose
Name: (2R,3R,4S,5S)-2,3,4,5-tetrahydroxyhexanal
Class: Natural Product
Formula: C6H12O5
Exact mass: 164.06848
SMILES: C[C@@H]([C@@H]([C@H]([C@H](C=O)O)O)O)O
InChI: InChI=1S/C6H12O5/c1-3(8)5(10)6(11)4(9)2-7/h2-6,8-11H,1H3/t3-,4-,5-,6-/m0/s1
Instrument: GCMS-2010 Plus, Shimadzu
Instrument type: EI-B
Ms type: MS
Ion mode: POSITIVE
Column name: InertCap 5MS/NP 0.25 mmI.D. x 30 m, df=0.25 um
Retention time: 708.47
Derivative type: 4 TMS
m/z	relative intensity
86.000000	1
87.050000	4
88.000000	1
89.050000	34
90.000000	2
91.000000	2
92.000000	1
93.000000	1
94.000000	1
95.000000	1
96.000000	1
97.000000	1
98.000000	1
99.050000	3
100.050000	41
101.050000	17
102.050000	11
103.100000	54
104.050000	6
105.100000	15
106.100000	2
107.100000	1
108.100000	1
109.100000	1
110.100000	1
111.100000	2
112.100000	2
113.050000	3
114.100000	3
115.100000	11
116.150000	9
117.100000	999
118.100000	112
119.100000	39
120.100000	3
121.100000	1
122.100000	1
123.100000	1
124.100000	1
125.100000	1
126.100000	1
127.100000	3
128.100000	2
129.100000	65
130.100000	19
131.100000	40
132.100000	5
133.050000	58
134.100000	7
135.100000	3
136.100000	1
138.100000	1
139.100000	1
140.100000	1
141.100000	2
142.150000	2
143.100000	21
144.100000	4
145.100000	4
146.100000	1
147.100000	105
148.050000	18
149.100000	13
150.100000	2
151.100000	1
152.100000	1
153.100000	1
154.100000	1
155.100000	1
156.100000	1
157.100000	1
158.100000	2
159.150000	2
160.100000	156
161.100000	67
162.100000	12
163.100000	11
164.100000	1
165.100000	1
166.100000	1
167.100000	1
168.100000	1
169.100000	1
170.100000	1
171.100000	5
172.100000	6
173.050000	4
174.100000	2
175.100000	2
176.100000	1
177.100000	7
178.100000	1
179.100000	1
180.100000	1
181.100000	1
182.100000	2
183.100000	1
184.100000	1
185.100000	1
186.100000	2
187.100000	1
188.050000	2
189.050000	15
190.050000	4
191.050000	14
192.050000	3
193.000000	1
194.000000	1
195.000000	1
196.000000	1
197.000000	1
198.000000	1
199.000000	1
200.100000	2
201.050000	29
202.050000	5
203.050000	19
204.050000	17
205.050000	18
206.050000	4
207.100000	2
208.100000	1
209.100000	1
210.100000	1
212.100000	1
213.100000	1
214.050000	4
215.100000	1
216.100000	2
217.100000	14
218.100000	4
219.100000	40
220.100000	9
221.050000	6
222.100000	1
223.100000	1
224.100000	1
225.100000	1
227.100000	1
228.100000	1
229.100000	1
230.150000	2
231.100000	16
232.150000	6
233.100000	48
234.100000	12
235.100000	6
236.100000	1
237.100000	1
238.100000	1
239.100000	1
240.100000	1
241.100000	1
242.100000	1
243.100000	2
244.150000	3
245.100000	3
246.100000	3
247.100000	1
248.100000	1
249.100000	1
251.100000	1
252.100000	1
253.100000	1
254.100000	2
255.100000	1
256.100000	1
257.100000	1
258.100000	1
259.100000	1
260.100000	1
261.100000	1
262.100000	3
263.100000	1
264.100000	1
265.100000	1
267.100000	1
268.100000	1
269.100000	1
270.150000	4
271.200000	1
272.200000	1
273.200000	1
274.200000	4
275.200000	2
276.200000	1
277.150000	123
278.100000	33
279.150000	16
280.200000	3
281.200000	1
282.200000	1
283.200000	1
284.200000	1
285.200000	1
286.200000	1
287.200000	1
288.200000	1
289.200000	1
290.200000	1
291.100000	4
292.100000	1
293.200000	3
294.200000	1
295.200000	1
296.200000	1
297.200000	1
298.200000	1
299.200000	1
300.200000	1
301.200000	1
302.200000	1
303.200000	1
304.200000	1
305.150000	3
306.100000	1
307.100000	1
308.100000	1
309.100000	1
310.100000	1
313.100000	1
314.100000	1
315.100000	1
316.100000	1
317.100000	1
318.100000	1
319.100000	1
320.200000	1
321.200000	37
322.150000	11
323.150000	6
324.100000	1
325.100000	1
326.100000	1
327.100000	1
328.100000	1
329.100000	1
330.100000	1
331.100000	1
332.100000	1
333.100000	1
334.100000	1
336.100000	1
337.200000	5
338.200000	1
339.200000	1
340.200000	1
342.200000	1
343.200000	1
344.200000	1
345.200000	1
346.200000	1
348.200000	1
349.200000	1
350.200000	1
351.200000	1
352.200000	1
356.200000	1
357.200000	1
358.200000	1
359.200000	1
360.200000	1
363.200000	1
364.200000	1
365.200000	1
366.200000	1
367.200000	1
368.200000	1
369.200000	1
371.200000	1
372.200000	1
373.200000	1
376.200000	1
377.200000	1
378.200000	1
380.200000	1
381.200000	1
382.200000	1
383.200000	1
384.200000	1
385.200000	1
386.200000	1
387.200000	1
388.200000	1
391.200000	1
392.200000	1
393.200000	1
394.200000	1
395.200000	1
397.200000	1
398.200000	1
399.200000	1
401.200000	1
402.200000	1
403.200000	1
404.200000	1
405.200000	1
406.200000	1
407.200000	1
408.200000	1
409.200000	1
410.200000	1
413.200000	1
415.200000	1
416.200000	1
417.200000	1
418.200000	1
420.200000	1
421.200000	1
422.200000	1
423.200000	1
424.200000	1
425.200000	1
426.200000	1
427.200000	1
428.200000	1
429.200000	1
430.200000	1
431.200000	1
432.200000	1
433.200000	1
434.200000	1
435.200000	1
436.200000	1
437.200000	1
438.200000	1
439.200000	1
440.200000	1
441.200000	1
442.200000	1
443.200000	1
445.200000	1
446.200000	1
447.200000	1
448.200000	1
449.200000	1
450.200000	1
451.200000	1
452.200000	1
453.200000	1
454.200000	1
455.200000	1
456.200000	1
457.200000	1
458.200000	1
459.200000	1
461.200000	1
462.200000	1
464.200000	1
465.200000	1
466.200000	1
467.200000	1
468.200000	1
469.200000	1
471.200000	1
474.200000	1
475.200000	1
476.200000	1
477.200000	1
478.200000	1
479.200000	1
480.200000	1
481.200000	1
482.200000	1
483.200000	1
484.200000	1
485.200000	1
486.200000	1
487.200000	1
488.200000	1
489.200000	1
490.200000	1
491.200000	1
492.200000	1
493.200000	1
494.200000	1
495.200000	1
496.200000	1
497.200000	1
