Mass spectrum: 2-Isopropylmalic acid; EI-B; MS; 3 TMS; RT: 630.32 s
Name: 2-Isopropylmalic acid
Class: Natural Product
Formula: C7H12O5
Exact mass: 176.06847
SMILES: OC(=O)CC(O)(C(C)C)C(O)=O
InChI: InChI=1S/C7H12O5/c1-4(2)7(12,6(10)11)3-5(8)9/h4,12H,3H2,1-2H3,(H,8,9)(H,10,11)
Instrument: GCMS-2010 Plus, Shimadzu
Instrument type: EI-B
Ms type: MS
Ion mode: POSITIVE
Column name: InertCap 5MS/NP 0.25 mmI.D. x 30 m, df=0.25 um
Retention time: 630.32
Derivative type: 3 TMS
m/z	relative intensity
86.000000	2
87.000000	5
88.000000	2
89.050000	5
90.100000	1
91.050000	93
92.050000	8
93.050000	4
94.100000	1
95.050000	39
96.050000	7
97.100000	44
98.100000	4
99.050000	13
100.100000	3
101.050000	7
102.000000	3
103.050000	10
104.000000	2
105.050000	4
106.000000	1
107.000000	1
108.000000	1
109.000000	1
110.000000	1
111.050000	3
112.150000	2
113.100000	116
114.150000	9
115.100000	142
116.100000	19
117.050000	118
118.100000	12
119.050000	13
120.000000	1
121.000000	1
122.100000	3
123.050000	21
124.100000	1
125.100000	3
126.100000	1
127.100000	8
128.100000	2
129.100000	79
130.150000	11
131.050000	64
132.100000	11
133.050000	113
134.050000	15
135.050000	12
136.100000	1
137.100000	1
138.100000	1
139.100000	1
140.100000	1
141.150000	41
142.150000	9
143.100000	111
144.150000	16
145.100000	11
146.150000	6
147.100000	952
148.100000	146
149.100000	157
150.100000	18
151.050000	9
152.100000	1
153.100000	2
154.100000	1
155.100000	2
156.100000	2
157.100000	236
158.100000	36
159.100000	15
160.100000	2
161.100000	5
162.150000	2
163.100000	44
164.100000	8
165.100000	4
166.100000	1
167.100000	1
168.100000	1
169.100000	38
170.050000	6
171.050000	16
172.000000	2
173.000000	5
174.000000	1
175.100000	6
176.100000	2
177.100000	3
178.100000	1
179.100000	1
180.100000	1
181.100000	1
182.100000	1
183.100000	2
184.150000	3
185.050000	126
186.050000	19
187.000000	10
188.000000	2
189.050000	23
190.000000	11
191.050000	22
192.000000	4
193.000000	3
194.000000	1
195.000000	1
196.000000	1
196.950000	9
198.000000	1
199.000000	1
200.000000	1
201.000000	2
202.000000	1
203.000000	8
204.050000	11
205.050000	8
206.000000	3
207.000000	9
208.000000	2
209.000000	1
210.000000	1
211.000000	1
212.100000	9
213.050000	119
214.050000	19
215.050000	12
216.150000	5
217.050000	97
218.050000	21
219.050000	14
220.050000	2
221.050000	53
222.000000	12
223.000000	7
224.000000	1
225.000000	1
226.000000	1
227.000000	1
228.000000	1
229.000000	1
230.100000	2
231.100000	192
232.100000	43
233.100000	24
234.100000	4
235.100000	1
236.100000	1
237.100000	2
238.100000	1
239.100000	1
240.100000	1
241.100000	1
242.100000	1
243.050000	22
244.050000	5
245.050000	16
246.050000	4
247.000000	2
248.000000	1
249.000000	1
250.000000	1
251.000000	1
253.000000	2
255.000000	1
256.000000	1
257.000000	1
258.150000	4
259.100000	286
260.050000	66
261.100000	125
262.100000	27
263.100000	10
264.100000	2
265.100000	1
267.100000	1
268.100000	1
269.100000	1
270.100000	1
271.100000	2
272.100000	1
273.100000	1
274.150000	8
275.100000	999
276.100000	248
277.100000	95
278.050000	17
279.100000	3
280.100000	1
281.100000	1
282.100000	1
283.100000	1
285.100000	1
286.100000	1
287.100000	166
288.050000	38
289.050000	17
290.000000	4
291.000000	3
292.000000	1
293.000000	1
294.000000	1
295.000000	1
296.000000	1
297.000000	1
298.000000	1
299.000000	1
300.000000	1
301.000000	2
302.000000	1
303.000000	1
304.100000	1
305.100000	42
306.050000	14
307.050000	13
308.150000	4
309.100000	1
310.100000	1
311.100000	1
313.100000	1
314.100000	1
315.100000	1
316.100000	1
317.100000	1
318.100000	1
319.100000	1
320.100000	1
321.100000	1
322.100000	1
323.100000	1
324.100000	1
325.100000	1
327.100000	1
328.100000	1
329.100000	1
330.100000	1
331.100000	1
332.100000	1
333.100000	13
334.050000	6
335.050000	3
336.100000	1
337.100000	1
338.100000	1
339.100000	1
340.100000	1
341.100000	1
342.100000	1
343.100000	1
344.100000	1
345.100000	1
346.100000	1
347.100000	1
348.100000	2
349.050000	184
350.100000	61
351.100000	29
352.050000	7
353.100000	2
354.100000	1
355.100000	1
356.100000	1
357.100000	1
359.100000	1
360.100000	1
361.100000	1
362.100000	1
363.100000	1
364.100000	1
365.100000	1
366.100000	1
367.100000	1
368.100000	1
369.100000	1
370.100000	1
371.100000	1
373.100000	1
374.100000	1
375.100000	1
376.100000	1
377.100000	117
378.100000	39
379.100000	21
380.150000	4
381.100000	2
382.100000	1
383.100000	1
384.100000	1
385.100000	1
386.100000	1
388.100000	1
389.100000	1
390.100000	1
391.100000	1
392.100000	1
393.100000	1
394.100000	1
395.100000	1
396.100000	1
397.100000	1
398.100000	1
399.100000	1
400.100000	1
401.100000	1
404.100000	1
405.100000	1
407.100000	1
408.100000	1
409.100000	1
410.100000	1
411.100000	1
412.100000	1
413.100000	1
414.100000	1
415.100000	1
416.100000	1
417.100000	1
420.100000	1
423.100000	1
424.100000	1
425.100000	1
426.100000	1
430.100000	1
431.100000	1
432.100000	1
433.100000	1
434.100000	1
435.100000	1
436.100000	1
437.100000	1
438.100000	1
439.100000	1
440.100000	1
441.100000	1
442.100000	1
443.100000	1
444.100000	1
445.100000	1
446.100000	1
448.100000	1
449.100000	1
450.100000	1
451.100000	1
456.100000	1
457.100000	1
458.100000	1
459.100000	1
460.100000	1
461.100000	1
462.100000	1
463.100000	1
464.100000	1
465.100000	1
466.100000	1
467.100000	1
468.100000	1
469.100000	1
470.100000	1
472.100000	1
473.100000	1
474.100000	1
475.100000	1
476.100000	1
477.100000	1
478.100000	1
480.100000	1
482.100000	1
483.100000	1
484.100000	1
485.100000	1
486.100000	1
487.100000	1
488.100000	1
489.100000	1
492.100000	1
494.100000	1
495.100000	1
496.100000	1
497.100000	1
498.100000	1
499.100000	1
