Mass spectrum: Maleamic acid; EI-B; MS; n TMS; RT: 549.31 s
Name: Maleamic acid
Class: Natural Product
Formula: C4H5NO3
Exact mass: 115.02694
SMILES: NC(=O)C=CC(O)=O
InChI: InChI=1S/C4H5NO3/c5-3(6)1-2-4(7)8/h1-2H,(H2,5,6)(H,7,8)/b2-1-
Instrument: GCMS-2010 Plus, Shimadzu
Instrument type: EI-B
Ms type: MS
Ion mode: POSITIVE
Column name: InertCap 5MS/NP 0.25 mmI.D. x 30 m, df=0.25 um
Retention time: 549.31
Derivative type: n TMS
m/z	relative intensity
86.000000	99
87.000000	18
88.000000	13
89.000000	34
90.000000	4
91.000000	11
92.000000	9
93.000000	8
94.000000	7
95.000000	5
96.000000	11
97.000000	13
98.000000	35
99.000000	24
100.100000	91
101.100000	17
102.100000	21
103.100000	10
105.100000	7
106.100000	7
107.100000	5
108.100000	2
109.100000	4
110.100000	12
111.100000	8
112.100000	25
113.100000	12
114.100000	23
115.100000	27
116.100000	24
117.100000	26
118.100000	10
119.100000	21
120.100000	5
121.100000	5
122.100000	5
124.100000	9
125.100000	5
126.100000	34
127.100000	19
128.100000	14
129.100000	26
130.100000	16
131.100000	65
132.100000	27
133.100000	62
134.100000	11
135.100000	7
136.100000	3
138.100000	3
139.100000	2
140.100000	8
141.100000	48
142.150000	286
143.100000	41
144.100000	22
145.100000	12
146.200000	21
147.150000	999
148.200000	156
149.150000	126
150.200000	18
151.200000	13
152.200000	9
153.200000	2
154.150000	96
155.100000	65
156.100000	25
157.100000	17
158.100000	16
159.100000	7
160.100000	8
161.100000	10
162.100000	2
163.100000	4
164.100000	3
165.100000	4
166.100000	5
167.100000	6
168.100000	2
169.100000	111
170.100000	36
171.100000	20
172.100000	24
173.200000	7
174.150000	305
175.200000	47
176.200000	25
177.200000	5
178.200000	4
179.200000	7
180.200000	7
181.200000	6
182.200000	3
184.200000	2
185.200000	10
186.200000	1
187.200000	9
188.200000	1
189.200000	3
190.200000	1
191.200000	3
192.200000	6
193.200000	5
194.200000	1
195.200000	13
196.200000	2
198.200000	1
199.200000	2
200.200000	16
201.200000	4
202.200000	5
203.200000	3
204.200000	3
205.200000	3
206.200000	4
207.200000	27
208.200000	11
209.200000	4
210.200000	7
211.200000	3
212.200000	1
213.200000	6
214.200000	35
215.200000	9
216.200000	12
218.200000	11
219.200000	24
220.200000	7
221.200000	3
222.200000	2
223.200000	3
224.200000	2
225.200000	7
226.200000	6
228.050000	150
229.100000	36
230.100000	16
231.100000	3
233.100000	2
235.100000	9
236.100000	5
237.100000	5
238.100000	4
239.100000	8
240.100000	3
241.100000	3
242.100000	12
243.100000	2
244.150000	246
245.100000	69
246.100000	32
247.100000	10
248.100000	2
249.100000	5
250.100000	7
252.100000	4
253.100000	44
254.100000	9
255.100000	13
256.100000	4
257.100000	7
258.100000	1
259.100000	15
260.100000	8
262.100000	4
263.100000	1
264.100000	14
265.100000	10
267.100000	4
268.100000	6
269.100000	7
270.100000	7
271.100000	6
272.100000	5
273.100000	5
274.100000	8
275.100000	3
276.100000	2
277.100000	6
279.100000	1
280.100000	1
281.100000	10
282.100000	7
283.100000	7
284.100000	6
286.100000	2
288.100000	5
290.100000	2
291.100000	8
292.100000	5
293.100000	1
295.100000	2
296.100000	7
297.100000	1
298.100000	1
299.100000	2
300.100000	5
303.100000	5
305.100000	5
306.100000	6
307.100000	1
309.100000	1
310.100000	8
311.100000	2
312.100000	6
313.100000	1
315.100000	5
316.100000	4
317.100000	2
319.100000	1
320.100000	3
321.100000	9
322.100000	1
323.100000	5
324.100000	1
326.100000	1
327.100000	11
328.100000	4
329.100000	1
330.100000	2
331.100000	10
332.100000	1
333.100000	5
334.100000	5
335.100000	7
336.100000	2
337.100000	5
339.100000	2
340.100000	3
341.100000	7
344.100000	2
345.100000	5
346.100000	13
347.100000	2
348.100000	10
349.100000	5
350.100000	8
353.100000	5
354.100000	2
355.100000	4
357.100000	3
359.100000	7
361.100000	1
362.100000	5
363.100000	3
364.100000	7
365.100000	6
366.100000	3
367.100000	1
368.100000	1
369.100000	1
370.100000	2
371.100000	1
372.100000	1
373.100000	1
374.100000	5
375.100000	3
377.100000	2
379.100000	1
380.100000	1
383.100000	8
384.100000	6
385.100000	6
388.100000	4
389.100000	4
390.100000	5
391.100000	5
392.100000	4
393.100000	10
394.100000	9
395.100000	6
397.100000	2
398.100000	2
400.100000	2
401.100000	2
403.100000	8
404.100000	10
405.100000	10
406.100000	5
407.100000	5
408.100000	4
409.100000	9
410.100000	8
411.100000	4
412.100000	2
415.100000	7
416.100000	3
417.100000	4
418.100000	1
419.100000	2
420.100000	3
421.100000	4
422.100000	3
423.100000	3
425.100000	2
427.100000	1
428.100000	4
429.100000	4
430.100000	6
431.100000	3
432.100000	3
434.100000	1
435.100000	5
438.100000	2
439.100000	1
440.100000	2
441.100000	4
442.100000	2
443.100000	3
444.100000	5
445.100000	4
447.100000	1
448.100000	3
449.100000	6
451.100000	4
452.100000	1
453.100000	4
454.100000	2
455.100000	6
456.100000	3
457.100000	3
459.100000	4
460.100000	1
461.100000	3
463.100000	7
464.100000	8
465.100000	4
466.100000	2
467.100000	3
468.100000	4
469.100000	12
470.100000	7
471.100000	2
473.100000	4
474.100000	3
475.100000	7
476.100000	1
477.100000	9
478.100000	5
479.100000	2
481.100000	2
483.100000	2
484.100000	9
486.100000	2
488.100000	2
489.100000	6
491.100000	9
493.100000	5
494.100000	13
495.100000	4
496.100000	8
497.100000	2
498.100000	6
499.100000	8
