Mass spectrum: DL-a,d-Diaminopimelic acid; EI-B; MS; n TMS; RT: 818.95 s
Name: DL-a,d-Diaminopimelic acid
Name: DL-a,d-Diaminopimelate
Class: Natural Product
Formula: C7H14N2O4
Exact mass: 190.09536
SMILES: OC(=O)[C@H](N)CCC[C@H](N)C(O)=O
InChI: InChI=1S/C7H14N2O4/c8-4(6(10)11)2-1-3-5(9)7(12)13/h4-5H,1-3,8-9H2,(H,10,11)(H,12,13)/t4-,5+
Instrument: GCMS-2010 Plus, Shimadzu
Instrument type: EI-B
Ms type: MS
Ion mode: POSITIVE
Column name: InertCap 5MS/NP 0.25 mmI.D. x 30 m, df=0.25 um
Retention time: 818.95
Derivative type: n TMS
m/z	relative intensity
86.050000	9
87.100000	5
88.100000	4
89.100000	3
90.100000	6
91.100000	1
92.150000	6
93.200000	2
94.200000	1
95.200000	2
96.200000	3
97.100000	4
98.100000	11
99.150000	6
100.100000	96
101.050000	20
102.100000	28
103.050000	14
104.100000	2
105.100000	2
106.100000	1
107.100000	1
108.100000	4
109.100000	21
110.100000	25
111.100000	4
112.100000	11
113.050000	5
114.100000	36
115.100000	31
116.100000	22
117.100000	23
118.100000	9
119.050000	6
120.000000	3
121.000000	1
122.150000	34
123.050000	4
124.100000	2
125.100000	1
126.100000	64
127.150000	14
128.100000	358
129.100000	59
130.100000	30
131.100000	23
132.100000	19
133.100000	37
134.050000	7
135.100000	5
136.100000	1
137.100000	1
138.100000	2
139.100000	2
140.100000	11
141.150000	6
142.150000	32
143.150000	6
144.200000	35
145.150000	7
146.100000	11
147.100000	169
148.100000	35
149.100000	20
150.100000	6
151.100000	1
152.100000	4
153.100000	2
154.150000	73
155.150000	88
156.150000	45
157.150000	18
158.100000	7
159.100000	5
160.100000	6
161.100000	3
162.200000	8
163.100000	7
164.100000	2
165.100000	7
166.050000	10
167.100000	4
168.100000	7
169.200000	5
170.200000	12
171.150000	14
172.150000	41
173.050000	9
174.100000	12
175.100000	2
176.100000	2
177.100000	1
178.100000	1
179.100000	1
180.100000	3
181.150000	126
182.100000	136
183.100000	32
184.100000	30
185.100000	5
186.100000	10
187.100000	3
188.100000	28
189.100000	7
190.100000	31
191.100000	28
192.150000	7
193.100000	4
194.100000	2
195.100000	1
196.100000	1
197.100000	1
198.100000	4
199.150000	10
200.100000	967
201.100000	148
202.100000	64
203.050000	13
204.000000	4
205.000000	2
206.000000	2
207.000000	4
208.000000	2
209.000000	5
210.000000	2
211.000000	2
212.000000	2
213.000000	1
214.000000	6
215.000000	4
216.100000	9
217.150000	7
218.100000	72
219.100000	45
220.150000	15
221.100000	11
222.100000	2
223.100000	1
224.100000	1
225.100000	1
226.100000	1
227.100000	3
228.100000	13
229.150000	8
230.100000	33
231.100000	7
232.150000	13
233.100000	2
234.100000	2
235.100000	1
236.100000	2
237.100000	1
238.100000	2
239.100000	2
240.100000	1
241.100000	1
242.150000	8
243.150000	10
244.150000	17
245.150000	8
246.050000	6
247.100000	3
248.100000	1
249.100000	1
250.100000	1
251.100000	1
252.100000	1
253.100000	3
254.200000	3
255.150000	32
256.150000	20
257.150000	9
258.200000	8
259.200000	2
260.200000	8
261.200000	2
262.150000	6
263.200000	1
264.200000	2
265.200000	1
266.200000	1
267.200000	1
268.200000	1
269.200000	1
270.200000	2
271.250000	115
272.200000	999
273.200000	256
274.150000	95
275.100000	17
276.100000	3
277.100000	1
278.100000	1
279.100000	1
280.100000	1
281.100000	2
282.100000	2
283.150000	16
284.150000	15
285.200000	4
286.200000	2
287.200000	5
288.200000	2
289.200000	2
290.200000	2
291.200000	2
292.200000	2
293.200000	1
294.200000	1
295.200000	1
296.200000	1
297.200000	1
298.200000	2
299.100000	5
300.100000	3
301.100000	3
302.100000	2
303.100000	2
304.100000	1
305.100000	1
306.100000	1
307.100000	1
308.100000	1
309.100000	1
310.100000	1
311.100000	1
313.100000	1
314.100000	1
315.100000	1
316.100000	2
317.100000	2
318.100000	2
319.100000	1
320.100000	1
321.100000	1
322.100000	1
323.100000	1
325.100000	1
326.100000	1
327.100000	1
328.100000	1
329.100000	1
330.100000	1
331.100000	2
332.100000	1
333.100000	1
334.100000	1
335.100000	1
336.100000	1
337.100000	1
338.100000	1
339.100000	1
341.100000	1
342.100000	1
343.100000	1
344.100000	2
345.200000	7
346.200000	26
347.200000	7
348.200000	4
349.200000	1
351.200000	1
352.200000	1
353.200000	1
354.200000	1
355.200000	3
356.200000	6
357.200000	2
358.200000	2
359.200000	3
360.200000	2
361.200000	9
362.200000	4
363.200000	2
364.200000	1
365.200000	1
367.200000	1
369.200000	1
371.200000	1
372.200000	2
373.250000	52
374.200000	34
375.150000	15
376.200000	5
377.200000	1
378.200000	1
379.200000	1
380.200000	1
381.200000	1
383.200000	1
384.200000	1
385.200000	1
386.200000	1
387.200000	1
388.200000	5
389.200000	3
390.200000	2
391.200000	1
392.200000	1
393.200000	1
394.200000	1
395.200000	1
396.200000	1
397.200000	1
398.200000	1
399.200000	1
400.200000	1
401.200000	1
402.200000	1
404.200000	1
405.200000	1
406.200000	2
407.200000	2
408.200000	1
409.200000	1
411.200000	1
412.200000	1
413.200000	1
414.200000	1
415.200000	1
416.200000	1
417.200000	1
419.200000	1
420.200000	1
422.200000	1
423.200000	1
424.200000	1
425.200000	1
426.200000	1
427.200000	1
428.200000	1
429.200000	1
430.200000	1
431.200000	1
432.200000	1
434.200000	1
435.200000	1
436.200000	1
437.200000	1
440.200000	1
441.200000	1
442.200000	1
444.200000	1
445.200000	1
446.200000	1
447.200000	1
449.200000	1
451.200000	1
452.200000	1
453.200000	1
454.200000	1
455.200000	1
456.200000	1
460.200000	1
461.200000	1
462.200000	1
463.250000	7
464.200000	2
465.200000	1
466.200000	1
467.200000	1
468.200000	1
470.200000	1
471.200000	1
473.200000	1
474.200000	1
475.200000	1
477.300000	3
478.250000	109
479.250000	47
480.250000	28
481.200000	7
482.200000	2
483.200000	1
487.200000	1
490.200000	1
491.200000	1
493.200000	1
494.200000	1
495.200000	1
496.200000	1
497.200000	1
498.200000	1
499.200000	1
