Mass spectrum: D-(+)-Fucose; EI-B; MS; n TMS; RT: 716.61 s
Name: D-(+)-Fucose
Class: Natural Product
Formula: C6H12O5
Exact mass: 164.06847
SMILES: CC(O1)C(O)C(O)C(O)C(O)1
InChI: InChI=1S/C6H12O5/c1-2-3(7)4(8)5(9)6(10)11-2/h2-10H,1H3/t2-,3+,4+,5-,6-/m1/s1
Instrument: GCMS-2010 Plus, Shimadzu
Instrument type: EI-B
Ms type: MS
Ion mode: POSITIVE
Column name: InertCap 5MS/NP 0.25 mmI.D. x 30 m, df=0.25 um
Retention time: 715.61
Derivative type: n TMS
m/z	relative intensity
86.050000	1
87.000000	3
88.050000	1
89.000000	29
90.050000	2
90.950000	2
91.900000	1
92.900000	1
93.900000	1
94.900000	1
95.900000	1
96.900000	1
97.900000	1
99.100000	3
100.050000	38
101.050000	15
102.050000	11
103.050000	60
104.050000	6
105.100000	11
106.100000	1
107.100000	1
108.100000	1
109.100000	1
110.100000	1
111.100000	1
112.100000	1
113.100000	2
114.050000	3
115.050000	10
116.150000	10
117.050000	999
118.100000	103
119.050000	40
120.100000	2
121.100000	1
122.100000	1
123.100000	1
124.100000	1
125.100000	1
126.050000	1
127.100000	2
128.150000	2
129.100000	72
130.050000	22
131.050000	44
132.050000	5
133.050000	41
134.050000	5
135.050000	3
136.000000	1
137.000000	1
139.000000	1
140.000000	1
141.100000	2
142.050000	3
143.100000	17
144.100000	3
145.050000	3
146.150000	2
147.050000	108
148.100000	16
149.050000	13
150.000000	1
151.000000	1
152.000000	1
153.000000	1
154.000000	1
155.100000	2
156.050000	1
157.050000	2
158.050000	2
159.150000	2
160.100000	88
161.050000	58
162.100000	10
163.100000	11
164.100000	2
165.100000	1
166.100000	1
167.100000	1
168.100000	1
169.100000	1
170.000000	1
171.050000	6
172.050000	6
173.050000	3
174.100000	2
175.100000	1
176.100000	1
177.100000	6
178.100000	1
179.100000	1
180.100000	1
181.100000	1
182.100000	1
183.100000	1
184.100000	1
185.100000	1
186.050000	2
187.100000	1
188.050000	2
189.050000	12
190.050000	3
191.000000	22
192.000000	4
193.050000	2
194.000000	1
195.000000	1
196.000000	1
197.000000	1
198.000000	1
199.000000	1
200.050000	1
201.000000	27
202.000000	6
203.000000	18
204.000000	17
205.000000	10
206.000000	3
207.000000	2
208.000000	1
209.000000	1
210.000000	1
211.000000	1
212.000000	1
213.000000	1
214.050000	5
215.000000	2
216.050000	2
217.050000	18
218.100000	5
219.050000	51
220.050000	11
221.050000	7
222.050000	2
223.000000	1
224.000000	1
225.000000	1
226.000000	1
227.000000	1
228.000000	1
229.000000	1
230.050000	2
231.050000	19
232.050000	7
233.050000	40
234.100000	9
235.000000	7
236.000000	2
237.000000	1
238.000000	1
239.000000	1
240.000000	1
241.000000	1
242.000000	1
243.000000	2
244.050000	5
245.050000	3
246.050000	4
247.000000	1
248.000000	1
249.000000	1
250.000000	1
251.000000	1
252.000000	1
253.000000	1
254.050000	2
255.000000	1
256.000000	1
257.000000	1
258.000000	1
259.000000	1
260.000000	1
261.000000	1
262.050000	2
263.100000	1
264.100000	1
265.100000	1
266.100000	1
267.100000	1
268.100000	1
269.100000	1
270.100000	4
271.100000	1
272.100000	1
273.100000	1
274.050000	2
275.000000	1
276.150000	2
277.100000	124
278.100000	32
279.100000	15
280.100000	3
281.100000	1
282.100000	1
284.100000	1
285.100000	1
286.100000	1
287.100000	1
288.100000	1
289.100000	1
290.000000	1
291.000000	5
292.150000	2
293.100000	4
294.100000	1
295.100000	1
296.100000	1
298.100000	1
299.100000	1
300.100000	1
302.100000	1
303.100000	1
304.100000	1
305.100000	3
306.100000	2
307.100000	1
308.100000	1
309.100000	1
310.100000	1
311.100000	1
312.100000	1
313.100000	1
314.100000	1
315.100000	1
316.100000	1
317.100000	1
318.100000	1
319.100000	1
320.150000	1
321.150000	41
322.100000	13
323.100000	5
324.100000	1
325.100000	1
326.100000	1
327.100000	1
328.100000	1
329.100000	1
330.100000	1
331.100000	1
332.100000	1
333.100000	1
334.100000	1
335.100000	1
337.100000	1
338.100000	1
339.100000	1
340.100000	1
341.100000	1
342.100000	1
343.100000	1
344.150000	1
345.100000	1
346.100000	1
347.100000	1
348.100000	1
349.100000	1
350.100000	1
351.100000	1
352.100000	1
353.100000	1
355.100000	1
356.100000	1
358.100000	1
359.100000	1
360.100000	1
361.100000	1
362.100000	1
363.100000	1
364.100000	1
365.100000	1
366.100000	1
367.100000	1
368.100000	1
371.100000	1
372.100000	1
373.100000	1
374.100000	1
375.100000	1
376.100000	1
377.100000	1
378.100000	1
379.100000	1
380.100000	1
383.100000	1
384.100000	1
385.100000	1
386.100000	1
388.100000	1
389.100000	1
390.100000	1
391.100000	1
392.150000	2
393.200000	1
394.200000	1
395.200000	1
396.200000	1
397.200000	1
398.200000	1
399.200000	1
400.200000	1
403.200000	1
404.200000	1
405.200000	1
406.200000	1
407.200000	1
408.200000	1
409.200000	1
410.200000	1
411.200000	1
413.200000	1
414.200000	1
415.200000	1
416.200000	1
417.200000	1
418.200000	1
420.200000	1
421.200000	1
422.200000	1
423.200000	1
424.200000	1
425.200000	1
426.200000	1
428.200000	1
429.200000	1
430.200000	1
431.200000	1
432.200000	1
433.200000	1
434.200000	1
435.200000	1
436.200000	1
437.200000	1
439.200000	1
440.200000	1
442.200000	1
444.200000	1
445.200000	1
446.200000	1
447.200000	1
448.200000	1
449.200000	1
450.200000	1
451.200000	1
452.200000	1
454.200000	1
455.200000	1
458.200000	1
459.200000	1
460.200000	1
461.200000	1
462.200000	1
463.200000	1
464.200000	1
465.200000	1
466.200000	1
467.200000	1
468.200000	1
469.200000	1
470.200000	1
472.200000	1
473.200000	1
474.200000	1
475.200000	1
477.200000	1
478.200000	1
479.200000	1
480.200000	1
481.200000	1
482.200000	1
483.200000	1
484.200000	1
485.200000	1
486.200000	1
487.200000	1
488.200000	1
489.200000	1
490.200000	1
491.200000	1
492.200000	1
493.200000	1
494.200000	1
497.200000	1
498.200000	1
