Mass spectrum: L-Valine; EI-B; MS; 1 TMS; RT: 322.90 s
Name: L-Valine
Class: Natural Product
Formula: C5H11NO2
Exact mass: 117.07898
SMILES: CC(C)[C@H](N)C(O)=O
InChI: InChI=1S/C5H11NO2/c1-3(2)4(6)5(7)8/h3-4H,6H2,1-2H3,(H,7,8)/t4-/m0/s1
Instrument: GCMS-2010 Plus, Shimadzu
Instrument type: EI-B
Ms type: MS
Ion mode: POSITIVE
Column name: InertCap 5MS/NP 0.25 mmI.D. x 30 m, df=0.25 um
Retention time: 322.90
Derivative type: 1 TMS
m/z	relative intensity
86.050000	124
87.050000	198
88.050000	47
89.100000	31
90.100000	6
91.050000	139
92.100000	14
93.050000	14
94.000000	1
95.000000	2
96.000000	2
97.000000	6
98.100000	12
99.050000	16
100.100000	41
101.050000	15
102.050000	121
103.050000	503
104.100000	54
105.050000	33
106.000000	2
107.000000	1
108.000000	1
109.000000	1
110.000000	4
111.000000	4
112.050000	23
113.100000	145
114.100000	30
115.100000	12
116.050000	25
117.050000	38
118.100000	50
119.100000	6
120.100000	5
121.100000	1
122.100000	1
124.100000	1
125.100000	2
126.100000	6
127.100000	4
128.100000	398
129.150000	142
130.050000	750
131.100000	139
132.050000	42
133.100000	7
134.100000	2
135.100000	3
136.100000	1
137.100000	1
138.100000	6
139.100000	2
140.100000	3
141.100000	3
142.150000	12
143.100000	7
144.100000	49
145.150000	13
146.100000	999
147.100000	181
148.100000	45
149.100000	6
150.100000	2
151.100000	2
153.100000	1
154.100000	3
155.100000	3
156.150000	812
157.100000	183
158.150000	65
159.100000	14
160.100000	2
161.100000	1
162.100000	1
163.100000	1
164.100000	1
165.100000	1
166.100000	1
167.100000	1
168.100000	1
169.100000	1
170.100000	1
171.100000	1
172.100000	3
173.100000	3
174.100000	632
175.100000	87
176.100000	28
177.100000	1
178.100000	1
179.100000	3
180.100000	1
183.100000	1
185.100000	1
186.100000	1
187.100000	1
188.100000	4
189.050000	11
190.100000	22
191.100000	5
192.100000	3
193.100000	2
194.100000	1
195.100000	1
198.100000	1
199.100000	1
200.100000	1
201.100000	1
202.100000	1
203.100000	1
204.100000	1
205.100000	2
206.100000	1
207.100000	2
208.100000	1
209.100000	1
210.100000	1
211.100000	1
212.100000	1
213.100000	1
214.100000	1
215.100000	1
216.100000	1
218.100000	5
219.100000	8
220.100000	1
221.100000	2
222.100000	1
223.100000	1
225.100000	1
226.100000	1
228.100000	1
229.100000	1
230.100000	1
231.100000	1
232.100000	1
234.100000	1
235.100000	1
237.100000	1
238.100000	1
239.100000	1
240.100000	1
244.100000	1
245.100000	1
246.100000	2
247.100000	1
248.100000	1
249.100000	1
250.100000	1
251.100000	1
253.100000	2
254.100000	1
255.100000	1
256.100000	1
259.100000	1
261.100000	1
264.100000	2
265.100000	1
266.100000	1
267.100000	1
269.100000	1
270.100000	1
271.100000	1
273.100000	1
274.100000	1
275.100000	1
276.100000	1
277.100000	1
279.100000	1
280.100000	1
281.100000	2
282.100000	1
283.100000	1
284.100000	1
285.100000	1
289.100000	1
291.100000	1
292.100000	1
293.100000	1
294.100000	1
295.100000	1
296.100000	1
297.100000	1
298.100000	1
299.100000	1
304.100000	1
306.100000	1
307.100000	2
308.100000	1
309.100000	3
310.100000	1
311.100000	1
312.100000	1
313.100000	1
314.100000	1
315.100000	1
316.100000	1
317.100000	1
318.100000	1
319.100000	1
320.100000	1
321.100000	1
322.100000	1
323.100000	1
324.100000	1
325.100000	1
326.100000	1
327.100000	1
328.100000	1
330.100000	1
331.100000	1
332.100000	1
333.100000	1
334.100000	1
335.100000	1
337.100000	1
338.100000	1
339.100000	1
340.100000	1
342.100000	1
344.100000	1
345.100000	1
346.100000	1
347.100000	1
348.100000	1
349.100000	1
350.100000	1
351.100000	1
352.100000	1
353.100000	1
354.100000	1
355.100000	1
356.100000	1
358.100000	1
359.100000	1
360.100000	1
361.100000	1
363.100000	1
364.100000	1
365.100000	1
366.100000	1
367.100000	1
368.100000	1
369.100000	1
371.100000	1
372.100000	1
373.100000	1
374.100000	1
375.100000	1
376.100000	1
377.100000	1
378.100000	1
379.100000	1
380.100000	1
381.100000	1
382.100000	1
383.100000	1
384.100000	1
386.100000	1
388.100000	1
389.100000	1
390.100000	1
392.100000	1
393.100000	1
394.100000	1
395.100000	1
397.100000	1
398.100000	1
399.100000	1
402.100000	1
403.100000	1
404.100000	1
405.100000	1
406.100000	1
407.100000	1
408.100000	1
410.100000	1
414.100000	1
415.100000	1
416.100000	1
417.100000	1
418.100000	1
419.100000	1
420.100000	1
422.100000	1
423.100000	1
424.100000	1
425.100000	1
426.100000	1
427.100000	1
428.100000	1
429.100000	1
430.100000	1
432.100000	1
433.100000	1
434.100000	1
435.100000	1
436.100000	1
437.100000	1
438.100000	1
439.100000	1
440.100000	1
441.100000	1
442.100000	1
443.100000	1
444.100000	1
445.100000	1
446.100000	1
447.100000	1
449.100000	1
451.100000	2
452.100000	2
453.100000	1
454.100000	1
455.100000	1
456.100000	1
457.100000	1
458.100000	1
459.100000	1
460.100000	1
461.100000	1
462.100000	1
463.100000	1
464.100000	1
465.100000	1
466.100000	1
467.100000	1
468.100000	1
469.100000	1
470.100000	1
472.100000	1
473.100000	1
474.100000	1
475.100000	1
476.100000	1
477.100000	1
478.100000	1
479.100000	1
480.100000	1
481.100000	1
482.100000	1
483.100000	1
484.100000	1
485.100000	1
486.100000	1
487.100000	1
488.100000	1
489.100000	1
490.100000	1
491.100000	1
493.100000	1
494.100000	1
496.100000	1
497.100000	1
498.100000	1
499.100000	1
