Mass spectrum: 2-Oxobutyric acid; EI-B; MS; n TMS; RT: 472.99 s
Name: 2-Oxobutyric acid
Name: 2-Oxobutyrate
Class: Natural Product
Formula: C4H6O3
Exact mass: 102.03169
SMILES: CCC(=O)C(O)=O
InChI: InChI=1S/C4H6O3/c1-2-3(5)4(6)7/h2H2,1H3,(H,6,7)
Instrument: GCMS-2010 Plus, Shimadzu
Instrument type: EI-B
Ms type: MS
Ion mode: POSITIVE
Column name: InertCap 5MS/NP 0.25 mmI.D. x 30 m, df=0.25 um
Retention time: 472.99
Derivative type: n TMS
m/z	relative intensity
86.000000	16
87.000000	25
88.100000	8
89.050000	161
90.100000	18
91.100000	13
92.100000	1
93.100000	3
94.100000	3
95.100000	1
96.100000	7
97.100000	2
98.100000	7
99.100000	5
100.100000	57
101.050000	193
102.100000	25
103.050000	23
104.000000	3
105.000000	9
106.000000	1
107.000000	3
108.000000	9
109.000000	2
110.000000	1
111.100000	2
112.100000	109
113.100000	9
114.650000	35
116.150000	27
117.100000	999
118.100000	105
119.100000	44
120.100000	2
121.100000	2
122.100000	1
123.100000	1
124.100000	1
125.100000	1
126.100000	4
127.100000	3
128.100000	32
129.100000	5
130.100000	31
131.050000	53
132.050000	14
133.100000	65
134.050000	13
135.100000	7
136.100000	1
137.100000	1
138.100000	1
139.100000	1
140.100000	1
141.100000	1
142.100000	8
143.100000	2
144.100000	5
145.100000	8
146.100000	8
147.150000	519
148.150000	79
149.100000	44
150.100000	6
151.100000	2
152.100000	1
153.100000	1
154.100000	3
155.100000	2
156.100000	3
157.100000	9
158.050000	20
159.100000	4
160.100000	4
161.100000	3
162.100000	1
163.100000	24
164.100000	5
165.100000	3
166.100000	1
167.100000	1
169.100000	1
170.100000	3
171.100000	6
172.100000	61
173.100000	13
174.100000	19
175.100000	5
176.100000	2
177.100000	3
178.100000	1
179.100000	2
180.100000	2
181.100000	1
184.100000	1
185.000000	1
186.000000	215
187.050000	28
188.000000	12
189.000000	2
190.000000	6
191.100000	37
192.100000	6
193.100000	5
194.100000	3
195.100000	1
196.100000	1
197.100000	1
198.100000	1
199.100000	1
200.100000	15
201.100000	10
202.100000	4
203.100000	1
204.100000	4
205.100000	3
206.100000	2
207.050000	31
208.100000	6
209.100000	5
211.100000	1
212.100000	1
213.100000	1
214.100000	3
215.100000	39
216.050000	28
217.100000	11
218.100000	4
219.050000	23
220.000000	4
221.000000	3
222.000000	1
223.000000	1
224.000000	1
226.000000	1
227.000000	1
228.000000	1
229.000000	1
230.000000	1
231.000000	1
232.000000	3
233.000000	2
234.000000	1
235.000000	1
236.000000	1
237.000000	1
238.000000	1
239.000000	1
240.000000	1
241.000000	1
242.000000	2
243.000000	1
244.100000	22
245.100000	8
246.100000	3
247.100000	1
248.100000	7
249.100000	3
250.100000	1
251.100000	1
252.100000	1
253.100000	7
254.100000	3
255.100000	2
256.100000	1
257.100000	1
258.100000	1
259.100000	1
260.100000	267
261.100000	61
262.150000	24
263.100000	4
264.100000	3
265.100000	2
266.100000	1
267.100000	2
268.100000	1
269.100000	2
270.100000	1
271.100000	1
272.100000	1
273.100000	1
275.100000	2
276.100000	172
277.050000	41
278.100000	15
279.100000	2
280.100000	1
281.100000	3
282.100000	2
283.100000	1
284.100000	1
285.100000	1
286.100000	2
288.100000	1
289.100000	1
290.100000	1
291.100000	1
292.100000	1
293.100000	1
294.100000	1
295.100000	1
296.100000	1
297.100000	1
298.100000	1
299.100000	1
300.100000	1
301.100000	1
302.100000	1
303.100000	1
304.100000	1
305.100000	1
306.100000	1
307.100000	1
308.100000	1
309.100000	1
310.100000	1
311.100000	2
312.100000	1
313.100000	1
314.100000	1
315.100000	1
317.100000	1
318.100000	1
320.100000	1
321.100000	1
322.100000	1
323.100000	1
324.100000	1
325.100000	1
326.100000	1
327.100000	2
328.100000	2
329.100000	1
330.100000	1
331.100000	2
332.100000	1
335.100000	1
336.100000	1
337.100000	1
338.100000	1
339.100000	1
340.100000	1
342.100000	1
343.100000	1
344.100000	1
345.100000	2
346.100000	1
347.100000	1
348.100000	1
349.100000	1
350.100000	1
351.100000	1
353.100000	1
354.100000	1
355.100000	2
356.100000	1
357.100000	1
358.100000	1
359.100000	1
360.100000	1
361.100000	1
362.100000	1
363.100000	1
364.100000	1
365.100000	1
366.100000	1
367.100000	1
370.100000	1
371.100000	1
372.100000	2
374.100000	1
375.100000	1
376.100000	2
377.100000	1
378.100000	1
379.100000	1
380.100000	1
381.100000	1
382.100000	1
384.100000	1
385.100000	1
386.100000	1
387.100000	1
389.100000	1
390.100000	1
391.100000	1
392.100000	1
396.100000	1
397.100000	1
398.100000	1
399.100000	1
400.100000	1
401.100000	1
402.100000	1
403.100000	1
404.100000	1
405.100000	1
406.100000	1
407.100000	1
408.100000	1
409.100000	1
410.100000	1
411.100000	1
412.100000	1
413.100000	1
414.100000	2
415.100000	1
416.100000	1
417.100000	1
419.100000	1
420.100000	1
421.100000	1
422.100000	1
423.100000	1
424.100000	1
425.100000	1
426.100000	1
427.100000	1
428.100000	1
430.100000	1
431.100000	1
432.100000	1
433.100000	1
434.100000	2
435.100000	1
436.100000	1
437.100000	1
438.100000	1
439.100000	1
440.100000	1
441.100000	1
442.100000	1
443.100000	1
445.100000	1
446.100000	1
448.100000	1
449.100000	1
451.100000	1
454.100000	1
455.100000	1
456.100000	1
457.100000	1
459.100000	1
460.100000	1
461.100000	1
463.100000	1
464.100000	1
465.100000	1
467.100000	1
468.100000	1
469.100000	1
470.100000	1
471.100000	1
472.100000	1
473.100000	1
474.100000	1
476.100000	2
477.100000	1
478.100000	1
479.100000	1
481.100000	1
482.100000	1
483.100000	1
484.100000	1
485.100000	1
486.100000	1
488.100000	1
489.100000	1
490.100000	1
491.100000	1
492.100000	1
493.100000	1
494.100000	1
495.100000	1
496.100000	1
499.100000	1
