Mass spectrum: N-Carbamoyl-L-Aspartic acid; EI-B; MS; n TMS; RT: 792.14 s
Name: N-Carbamoyl-L-Aspartic acid
Name: N-Carbamoyl-L-Aspartate
Class: Natural Product
Formula: C5H8N2O5
Exact mass: 176.04332
SMILES: NC(=O)NC(CC(O)=O)C(O)=O
InChI: InChI=1S/C5H8N2O5/c6-5(12)7-2(4(10)11)1-3(8)9/h2H,1H2,(H,8,9)(H,10,11)(H3,6,7,12)/t2-/m0/s1
Instrument: GCMS-2010 Plus, Shimadzu
Instrument type: EI-B
Ms type: MS
Ion mode: POSITIVE
Column name: InertCap 5MS/NP 0.25 mmI.D. x 30 m, df=0.25 um
Retention time: 792.14
Derivative type: n TMS
m/z	relative intensity
86.050000	11
87.050000	10
88.050000	6
89.100000	7
90.100000	3
91.100000	3
92.100000	1
93.100000	1
94.100000	1
95.100000	2
96.100000	2
97.100000	1
98.100000	9
99.100000	15
100.100000	116
101.100000	20
102.100000	15
103.100000	7
104.100000	1
105.100000	2
106.100000	1
107.100000	1
108.100000	1
109.100000	1
110.100000	1
111.100000	1
112.100000	1
113.100000	6
114.150000	7
115.250000	11
116.150000	346
117.100000	178
118.150000	31
119.100000	11
120.100000	1
121.100000	1
122.100000	1
123.100000	1
124.100000	1
125.100000	6
126.100000	3
127.100000	3
128.100000	12
129.150000	13
130.100000	122
131.100000	37
132.150000	23
133.100000	46
134.100000	8
135.100000	6
136.100000	2
137.100000	1
138.100000	1
139.100000	1
140.100000	1
141.100000	5
142.100000	4
143.150000	23
144.150000	50
145.150000	9
146.200000	19
147.150000	167
148.150000	29
149.150000	34
150.150000	5
151.150000	3
152.100000	1
153.100000	1
154.100000	1
155.100000	2
156.100000	2
157.150000	5
158.150000	7
159.250000	34
160.150000	999
161.150000	126
162.150000	43
163.150000	5
164.100000	1
165.100000	1
166.100000	1
167.100000	1
168.100000	1
169.100000	7
170.100000	2
171.100000	14
172.150000	18
173.150000	8
174.150000	19
175.100000	4
176.100000	4
177.100000	1
178.100000	1
179.100000	1
180.100000	1
181.100000	1
182.100000	1
183.100000	2
184.100000	2
185.150000	7
186.100000	2
187.100000	13
188.150000	13
189.100000	14
190.150000	8
191.100000	5
192.100000	1
193.100000	1
194.100000	1
195.100000	1
196.100000	1
197.100000	2
198.100000	1
199.100000	2
200.100000	1
201.100000	1
202.150000	10
203.100000	3
204.150000	4
205.100000	4
206.100000	1
207.100000	2
208.100000	1
209.100000	1
210.100000	1
211.100000	1
212.100000	1
213.150000	9
214.150000	3
215.150000	19
216.150000	13
217.150000	7
218.150000	5
219.150000	2
220.150000	32
221.100000	8
222.100000	3
223.100000	1
224.100000	1
225.100000	1
226.100000	1
227.100000	1
228.100000	1
229.100000	3
230.150000	2
231.200000	36
232.200000	15
233.250000	5
234.150000	63
235.150000	11
236.200000	6
237.200000	1
238.200000	1
239.200000	1
240.200000	1
241.200000	1
242.100000	1
243.150000	5
244.150000	25
245.150000	54
246.100000	13
247.150000	7
248.200000	1
249.200000	1
250.200000	1
251.200000	1
252.200000	1
253.200000	1
254.200000	1
255.200000	1
256.200000	10
257.200000	12
258.150000	4
259.150000	32
260.150000	8
261.200000	4
262.150000	29
263.100000	6
264.150000	3
265.100000	1
266.100000	1
268.100000	1
269.100000	1
270.100000	1
271.100000	1
272.100000	1
273.100000	1
274.200000	1
275.200000	114
276.150000	27
277.200000	28
278.200000	9
279.250000	3
280.200000	1
281.200000	1
282.200000	1
283.200000	1
284.200000	1
285.200000	1
286.200000	1
287.200000	13
288.150000	4
289.150000	3
290.200000	1
291.200000	1
292.200000	7
293.150000	2
294.200000	1
295.200000	1
296.200000	1
297.200000	1
298.200000	1
299.200000	1
300.200000	1
301.200000	1
302.200000	1
303.200000	1
304.200000	1
305.200000	1
306.200000	13
307.200000	4
308.200000	2
309.200000	1
310.200000	1
311.200000	1
312.200000	1
314.200000	1
315.200000	1
316.200000	1
317.200000	1
318.200000	1
319.200000	1
320.200000	1
322.200000	1
324.200000	1
325.200000	1
326.200000	1
327.200000	1
328.200000	1
329.200000	1
330.200000	1
331.200000	1
332.200000	1
333.200000	1
334.200000	7
335.200000	2
336.200000	1
337.200000	1
338.200000	1
339.200000	1
340.200000	1
341.200000	1
342.200000	1
343.200000	1
344.200000	1
345.200000	1
346.200000	1
347.200000	1
348.200000	1
349.250000	3
350.200000	1
351.200000	1
352.200000	1
353.200000	1
354.200000	1
355.200000	1
356.200000	1
357.200000	1
358.200000	1
359.250000	3
360.200000	1
361.200000	2
362.200000	1
363.200000	1
364.200000	1
365.200000	1
366.200000	1
367.200000	1
368.200000	1
369.200000	1
370.200000	1
371.200000	1
372.200000	1
373.200000	1
374.200000	1
375.200000	1
376.200000	1
377.200000	81
378.200000	25
379.250000	13
380.250000	3
381.200000	1
382.200000	1
383.200000	1
384.200000	1
385.200000	1
386.200000	1
387.200000	1
388.200000	1
389.200000	1
390.200000	1
391.200000	1
392.200000	2
393.200000	1
394.200000	1
395.200000	1
396.200000	1
397.200000	1
398.200000	1
399.200000	1
400.200000	1
401.200000	1
402.200000	1
403.200000	1
404.200000	1
405.200000	1
406.200000	1
407.200000	1
409.200000	1
411.200000	1
412.200000	1
413.200000	1
414.200000	1
415.200000	1
416.200000	1
417.200000	1
418.200000	1
419.200000	1
420.200000	1
423.200000	1
424.200000	1
426.200000	1
428.200000	1
429.200000	1
430.200000	1
431.200000	1
432.200000	1
433.200000	1
434.200000	1
436.200000	1
437.200000	1
438.200000	1
439.200000	1
441.200000	1
444.200000	1
447.200000	1
448.200000	1
449.200000	1
450.200000	1
451.200000	1
452.200000	1
453.200000	1
454.200000	1
457.200000	1
458.200000	1
459.200000	1
460.200000	1
461.200000	1
463.200000	1
464.200000	1
465.200000	1
466.200000	1
467.200000	1
468.200000	1
470.200000	1
471.200000	1
472.200000	1
473.200000	1
475.200000	1
476.200000	1
477.200000	1
478.200000	1
479.200000	1
480.200000	1
481.200000	1
482.200000	1
483.200000	1
486.200000	1
487.200000	1
489.200000	1
490.200000	1
491.200000	1
492.200000	1
493.200000	1
494.200000	1
495.200000	1
496.200000	1
498.200000	1
499.200000	1
