Mass spectrum: D-(+)-Xylose; EI-B; MS; 4 TMS; RT: 674.49 s
Name: D-(+)-Xylose
Class: Natural Product
Formula: C5H10O5
Exact mass: 150.05282
SMILES: O[C@H](C1)[C@H](O)[C@@H](O)[C@@H](O)O1
InChI: InChI=1S/C5H10O5/c6-2-1-10-5(9)4(8)3(2)7/h2-9H,1H2/t2-,3+,4-,5+/m1/s1
Instrument: GCMS-2010 Plus, Shimadzu
Instrument type: EI-B
Ms type: MS
Ion mode: POSITIVE
Column name: InertCap 5MS/NP 0.25 mmI.D. x 30 m, df=0.25 um
Retention time: 672.27
Derivative type: 4 TMS
m/z	relative intensity
86.000000	4
87.000000	7
88.000000	4
89.000000	54
90.000000	5
91.000000	3
92.000000	1
93.000000	1
94.000000	2
95.000000	1
96.000000	1
97.000000	1
98.000000	3
99.000000	4
100.000000	37
101.000000	19
102.050000	18
103.000000	999
104.000000	96
105.000000	59
106.050000	4
107.000000	1
108.000000	1
109.000000	1
110.000000	1
111.000000	2
111.950000	2
113.000000	6
114.000000	12
115.000000	7
116.000000	8
117.000000	72
117.950000	7
118.950000	8
120.000000	1
121.000000	1
122.000000	1
123.000000	1
124.000000	1
125.000000	1
126.000000	3
127.000000	4
128.000000	5
129.000000	64
130.000000	17
130.950000	27
132.050000	5
133.000000	76
133.950000	10
134.950000	6
136.000000	1
137.000000	1
138.000000	1
139.000000	1
140.000000	2
141.000000	2
141.950000	7
142.950000	15
144.000000	3
144.950000	10
146.050000	3
147.000000	307
148.000000	49
149.000000	31
149.950000	4
150.950000	2
151.900000	1
152.900000	1
153.900000	1
154.900000	1
156.000000	2
157.000000	9
158.000000	10
159.000000	4
160.000000	92
161.000000	23
162.000000	6
163.000000	19
163.950000	3
165.000000	2
166.000000	1
167.000000	1
168.000000	9
168.950000	2
170.000000	2
171.000000	1
172.000000	13
172.950000	8
174.000000	11
174.950000	11
175.950000	2
176.900000	5
177.900000	1
178.900000	1
179.900000	1
180.900000	1
181.900000	1
182.900000	1
183.950000	2
184.900000	1
185.950000	2
186.900000	1
187.950000	2
188.950000	140
189.900000	26
190.950000	49
191.950000	8
192.950000	4
193.900000	1
194.900000	1
195.900000	1
196.900000	1
197.900000	8
198.950000	2
199.900000	3
200.950000	23
201.900000	5
202.950000	9
203.950000	86
204.950000	71
205.900000	18
206.900000	10
207.800000	2
208.800000	1
209.800000	1
210.800000	1
211.800000	1
212.800000	1
213.950000	3
214.950000	3
215.950000	14
216.950000	722
217.950000	143
218.900000	66
219.950000	10
220.900000	10
221.900000	2
222.900000	1
223.900000	1
224.900000	1
225.900000	1
226.900000	1
227.900000	3
228.950000	2
229.950000	3
230.900000	12
231.950000	8
232.950000	55
233.900000	44
234.900000	12
235.900000	4
236.900000	1
237.900000	1
238.900000	1
239.900000	5
240.900000	2
241.950000	8
242.850000	3
243.900000	3
244.900000	1
245.900000	5
246.950000	2
247.950000	7
248.850000	1
249.900000	1
250.900000	1
251.900000	1
252.900000	1
253.900000	1
254.900000	1
255.950000	13
256.950000	9
257.950000	4
258.900000	1
259.900000	1
260.900000	1
261.950000	23
262.950000	5
263.900000	3
264.900000	1
265.900000	1
266.900000	1
267.900000	1
268.900000	1
269.900000	1
270.900000	1
271.900000	3
272.950000	1
273.950000	9
274.950000	2
276.050000	1
276.950000	90
277.950000	26
278.950000	12
279.900000	3
280.900000	1
281.900000	1
282.900000	1
283.900000	1
284.900000	1
285.900000	1
286.900000	1
287.950000	13
288.950000	4
289.900000	3
290.900000	9
291.900000	3
292.950000	1
293.900000	1
294.900000	1
296.900000	1
297.900000	1
298.900000	1
299.900000	1
300.900000	1
301.950000	5
302.950000	2
303.900000	2
304.900000	5
305.950000	5
306.950000	399
307.950000	113
308.950000	57
309.950000	12
310.900000	3
311.900000	1
312.900000	1
313.900000	1
314.900000	1
315.900000	2
316.900000	1
317.950000	2
318.900000	3
319.900000	1
320.900000	1
321.900000	1
322.900000	1
324.900000	1
325.900000	1
326.900000	1
327.900000	1
328.900000	1
329.900000	9
330.900000	5
331.950000	4
332.900000	1
333.900000	1
334.900000	1
335.900000	1
336.900000	1
337.900000	1
338.900000	1
339.900000	1
340.900000	1
342.900000	1
343.900000	1
344.900000	1
345.900000	1
346.900000	1
347.900000	1
348.900000	1
349.900000	1
350.900000	1
351.900000	1
352.900000	1
353.900000	1
354.900000	1
355.900000	1
357.900000	1
359.900000	1
360.900000	1
361.850000	4
362.900000	1
363.900000	3
364.900000	1
365.900000	1
366.900000	1
367.900000	1
368.900000	1
369.900000	1
370.900000	1
371.900000	1
372.900000	1
373.900000	1
374.900000	1
375.900000	1
376.900000	1
377.900000	1
378.900000	1
379.900000	1
380.900000	1
381.900000	1
382.900000	1
385.900000	1
386.900000	1
387.900000	1
388.900000	1
389.900000	1
390.900000	1
391.900000	1
392.900000	1
393.900000	1
395.900000	1
396.900000	1
397.900000	1
398.900000	1
399.900000	1
400.900000	1
401.900000	1
402.900000	1
403.900000	1
404.900000	1
405.900000	1
406.900000	1
407.900000	1
408.900000	1
409.900000	1
411.900000	1
412.900000	1
413.900000	1
414.900000	1
415.900000	1
417.900000	1
418.900000	1
419.900000	2
420.900000	2
421.900000	1
422.900000	1
423.900000	1
424.900000	1
425.900000	1
426.900000	1
427.900000	1
429.900000	1
431.900000	1
432.900000	1
435.900000	1
436.900000	1
437.900000	1
438.900000	1
439.900000	1
440.900000	1
441.900000	1
442.900000	1
443.900000	1
444.900000	1
445.900000	1
446.900000	1
447.900000	1
448.900000	1
449.900000	1
450.900000	1
451.900000	4
452.900000	1
453.900000	1
454.900000	1
457.900000	1
458.900000	1
459.900000	1
460.900000	1
461.900000	1
462.900000	1
463.900000	1
464.900000	1
465.900000	1
466.900000	4
467.900000	2
468.900000	1
469.900000	1
470.900000	1
471.900000	1
472.900000	1
473.900000	1
474.900000	1
475.900000	1
476.900000	1
477.900000	1
478.900000	1
479.900000	1
480.900000	1
481.900000	1
482.900000	1
483.900000	1
484.900000	1
485.900000	1
486.900000	1
487.900000	1
488.900000	1
489.900000	1
490.900000	1
492.900000	1
493.900000	1
494.900000	1
495.900000	1
496.900000	1
497.900000	1
