Mass spectrum: Anthranilic acid; EI-B; MS; 2 TMS; RT: 645.50 s
Name: Anthranilic acid
Class: Natural Product
Formula: C7H7NO2
Exact mass: 137.04768
SMILES: OC(=O)c(c1)c(N)ccc1
InChI: InChI=1S/C7H7NO2/c8-6-4-2-1-3-5(6)7(9)10/h1-4H,8H2,(H,9,10)
Instrument: GCMS-2010 Plus, Shimadzu
Instrument type: EI-B
Ms type: MS
Ion mode: POSITIVE
Column name: InertCap 5MS/NP 0.25 mmI.D. x 30 m, df=0.25 um
Retention time: 645.40
Derivative type: 2 TMS
m/z	relative intensity
85.950000	1
87.000000	2
88.050000	1
89.050000	5
90.100000	4
91.050000	38
92.050000	21
93.050000	5
94.350000	1
95.350000	2
96.450000	5
97.350000	2
98.350000	1
99.100000	1
100.050000	1
101.050000	1
102.100000	2
103.050000	5
104.050000	4
105.050000	10
106.050000	4
107.050000	3
108.500000	2
109.450000	1
109.750000	1
110.700000	2
111.650000	1
113.050000	1
114.000000	1
115.050000	8
116.050000	4
117.150000	13
118.100000	113
119.050000	22
120.050000	13
121.050000	8
122.050000	2
123.000000	2
123.600000	1
124.650000	1
125.600000	26
126.550000	4
128.000000	1
129.050000	1
130.100000	6
131.050000	16
132.050000	22
133.050000	82
134.050000	62
135.050000	17
136.050000	5
137.050000	1
138.000000	1
139.000000	1
140.000000	1
141.000000	1
142.000000	1
143.000000	1
144.050000	1
145.100000	3
146.100000	8
147.100000	69
148.100000	37
149.050000	102
150.100000	29
151.050000	10
152.050000	3
153.100000	1
154.100000	1
155.100000	1
156.100000	1
157.100000	1
158.100000	3
159.050000	2
160.050000	4
161.050000	1
162.050000	6
163.100000	3
164.100000	4
165.050000	2
166.100000	1
167.100000	1
168.100000	1
169.100000	1
170.100000	1
171.100000	1
172.050000	1
173.150000	1
174.100000	33
175.050000	6
176.050000	24
177.050000	4
178.000000	10
179.000000	5
180.000000	3
181.000000	1
182.000000	1
183.000000	1
184.000000	1
185.000000	1
186.000000	1
187.000000	1
188.050000	1
189.050000	1
190.050000	3
191.150000	4
192.050000	69
193.000000	15
194.050000	8
195.000000	2
196.000000	1
197.000000	1
198.000000	1
199.000000	1
200.000000	1
201.000000	1
202.000000	1
203.000000	1
203.950000	2
205.000000	2
206.050000	3
207.050000	3
208.050000	55
209.050000	12
210.000000	21
211.000000	4
212.000000	2
213.000000	1
214.000000	1
215.000000	1
216.000000	1
217.000000	1
218.050000	1
219.000000	1
220.000000	4
221.050000	1
222.100000	6
223.100000	2
224.050000	7
225.050000	1
226.000000	1
227.000000	1
228.000000	1
229.000000	1
230.000000	1
231.050000	1
232.050000	87
233.000000	21
234.000000	11
234.950000	2
236.000000	1
237.000000	1
238.000000	1
239.000000	1
240.000000	1
241.000000	1
242.000000	1
243.000000	1
244.000000	1
245.000000	1
246.000000	1
247.150000	1
248.050000	12
249.050000	3
250.050000	13
251.050000	3
252.050000	1
253.100000	1
254.100000	1
255.100000	1
256.100000	1
257.100000	1
259.100000	1
260.100000	1
261.100000	1
262.100000	1
263.100000	1
264.050000	12
265.150000	11
266.100000	999
267.100000	221
268.100000	96
269.050000	15
270.050000	3
271.100000	1
272.100000	1
273.100000	1
274.100000	1
276.100000	1
277.100000	1
278.100000	1
279.100000	1
280.150000	3
281.100000	82
282.100000	22
283.150000	9
284.050000	1
285.100000	1
286.100000	1
287.100000	1
288.100000	1
289.100000	1
291.100000	1
292.100000	1
297.100000	1
298.100000	1
299.100000	1
300.100000	1
302.100000	1
303.100000	1
304.100000	1
305.100000	1
306.100000	1
307.100000	1
308.100000	1
309.100000	1
311.100000	1
312.100000	1
313.100000	1
314.100000	1
315.100000	1
316.100000	1
317.100000	1
318.100000	1
320.100000	1
321.100000	1
322.100000	1
323.100000	1
324.100000	1
326.100000	1
327.100000	1
328.100000	1
329.100000	1
330.100000	1
331.100000	1
332.100000	1
333.100000	1
334.100000	1
335.100000	1
336.100000	1
337.100000	1
338.100000	1
339.100000	1
340.100000	1
341.100000	1
342.100000	1
343.100000	1
344.100000	1
345.100000	1
346.100000	1
347.100000	1
348.100000	1
350.100000	1
351.100000	1
352.100000	1
353.100000	1
354.100000	1
355.100000	1
356.100000	1
357.100000	1
358.100000	1
360.100000	1
361.100000	1
362.100000	1
363.100000	1
364.100000	1
365.100000	1
366.100000	1
367.100000	1
368.100000	1
369.100000	1
370.100000	1
372.100000	1
373.100000	1
375.100000	1
376.100000	1
377.100000	1
378.100000	1
379.100000	1
380.100000	1
381.100000	1
382.100000	1
383.100000	1
385.100000	1
387.100000	1
389.100000	1
390.100000	1
391.100000	1
392.100000	1
393.100000	1
395.100000	1
396.100000	1
397.100000	1
401.100000	1
402.100000	1
403.100000	1
404.100000	1
405.100000	1
406.100000	1
407.100000	1
409.100000	1
410.100000	1
411.100000	1
413.100000	1
414.100000	1
415.100000	1
416.100000	1
417.100000	1
418.100000	1
419.100000	1
420.100000	1
421.100000	1
422.100000	1
423.100000	1
424.100000	1
426.100000	1
427.100000	1
428.100000	1
429.100000	1
430.100000	1
432.100000	1
433.100000	1
434.100000	1
436.100000	1
438.100000	1
439.100000	1
440.100000	1
441.100000	1
442.100000	1
444.100000	1
445.100000	1
446.100000	1
447.100000	1
448.100000	1
449.100000	1
450.100000	1
451.100000	1
452.100000	1
453.100000	1
454.100000	1
455.100000	1
457.100000	1
458.100000	1
459.100000	1
460.100000	1
461.100000	1
462.100000	1
463.100000	1
465.100000	1
466.100000	1
467.100000	1
468.100000	1
470.100000	1
471.100000	1
472.100000	1
473.100000	1
474.100000	1
475.100000	1
476.100000	1
477.100000	1
479.100000	1
480.100000	1
481.100000	1
482.100000	1
484.100000	1
485.100000	1
486.100000	1
487.100000	1
488.100000	1
489.100000	1
490.100000	1
491.100000	1
492.100000	1
495.100000	1
496.100000	1
497.100000	1
498.100000	1
