Mass spectrum: meso-Erythritol; EI-B; MS; 4 TMS; RT: 593.47 s
Name: meso-Erythritol
Class: Natural Product
Formula: C4H10O4
Exact mass: 122.05791
SMILES: C([C@H]([C@H](CO)O)O)O
InChI: InChI=1S/C4H10O4/c5-1-3(7)4(8)2-6/h3-8H,1-2H2/t3-,4+
Instrument: GCMS-2010 Plus, Shimadzu
Instrument type: EI-B
Ms type: MS
Ion mode: POSITIVE
Column name: InertCap 5MS/NP 0.25 mmI.D. x 30 m, df=0.25 um
Retention time: 593.47
Derivative type: 4 TMS
m/z	relative intensity
86.000000	1
87.000000	11
88.050000	8
89.000000	46
90.000000	4
91.000000	2
92.000000	1
93.000000	1
94.000000	1
95.000000	1
96.000000	1
97.000000	1
98.000000	1
99.000000	6
100.000000	2
101.000000	74
102.050000	10
103.050000	602
104.050000	57
105.000000	27
106.000000	1
107.000000	1
108.000000	1
109.000000	1
110.000000	1
111.000000	2
112.000000	1
113.000000	8
114.000000	1
115.000000	34
116.050000	177
117.000000	391
118.000000	43
119.000000	25
120.000000	2
121.000000	1
122.000000	1
123.000000	1
124.000000	1
125.000000	1
126.000000	1
127.000000	3
128.000000	1
129.050000	177
130.050000	23
131.000000	60
132.000000	9
133.000000	149
134.000000	20
135.000000	11
136.000000	1
137.000000	1
138.000000	1
139.000000	1
140.000000	1
141.050000	9
142.050000	2
143.000000	22
144.000000	2
145.050000	6
146.050000	3
147.050000	953
148.050000	144
149.050000	85
150.050000	9
151.050000	3
152.100000	1
153.100000	1
154.100000	1
155.100000	1
156.100000	1
157.100000	2
158.000000	1
159.050000	4
160.000000	1
161.050000	5
162.000000	1
163.000000	14
164.100000	3
165.100000	1
166.100000	1
167.100000	1
168.100000	1
169.100000	1
171.100000	1
172.100000	1
173.100000	2
173.900000	1
174.950000	13
175.950000	2
176.950000	6
177.900000	1
178.900000	1
179.900000	1
180.900000	1
182.900000	1
183.900000	1
184.900000	1
185.900000	1
186.900000	1
188.000000	1
188.950000	243
189.950000	45
190.950000	217
191.950000	38
192.900000	15
193.950000	2
195.000000	1
196.000000	1
197.000000	1
198.000000	1
199.000000	1
200.000000	1
201.000000	1
202.000000	1
203.000000	22
203.950000	277
204.950000	471
205.950000	109
206.950000	46
207.950000	7
209.000000	2
210.000000	1
211.000000	1
212.000000	1
213.000000	1
214.000000	1
214.950000	23
216.050000	11
217.000000	999
217.950000	201
218.950000	87
219.950000	12
220.950000	31
221.900000	7
222.950000	3
224.000000	1
225.000000	1
226.000000	1
227.000000	1
228.000000	1
229.000000	1
230.000000	5
230.950000	33
231.950000	8
232.950000	3
234.000000	1
235.000000	1
236.000000	1
237.000000	1
238.000000	1
239.000000	1
240.000000	1
241.000000	1
242.000000	1
243.000000	1
244.000000	1
245.000000	1
247.000000	1
248.000000	1
249.000000	1
250.000000	1
251.000000	1
252.000000	1
253.000000	1
254.000000	1
255.000000	1
257.000000	1
258.000000	1
260.000000	1
263.000000	1
264.000000	1
265.000000	1
266.000000	1
267.000000	1
268.000000	1
269.000000	1
270.000000	1
271.000000	1
272.000000	1
273.000000	1
274.000000	1
275.000000	1
276.000000	1
277.000000	43
278.000000	12
278.950000	7
280.000000	1
281.000000	1
283.000000	1
284.000000	1
285.000000	1
286.000000	1
287.000000	1
289.000000	1
290.000000	1
290.950000	4
292.050000	2
293.000000	82
293.950000	21
294.950000	11
295.850000	2
296.900000	1
297.900000	1
298.900000	1
301.900000	1
302.900000	1
304.000000	1
305.000000	18
306.050000	8
307.000000	134
308.000000	39
309.000000	18
309.950000	4
310.900000	1
311.900000	1
312.900000	1
313.900000	1
314.900000	1
315.900000	1
316.900000	1
317.900000	1
319.000000	1
320.000000	48
320.950000	16
321.950000	8
323.000000	2
324.000000	1
325.000000	1
326.000000	1
327.000000	1
328.000000	1
329.000000	1
331.000000	1
332.000000	1
333.000000	1
334.000000	1
335.000000	1
336.000000	1
337.000000	1
339.000000	1
340.000000	1
341.000000	1
342.000000	1
343.000000	1
344.000000	1
345.000000	1
346.000000	1
347.000000	1
348.000000	1
349.000000	1
350.000000	1
351.000000	1
352.000000	1
353.000000	1
354.000000	1
355.000000	1
356.000000	1
357.000000	1
358.000000	1
359.000000	1
360.000000	1
361.000000	1
362.000000	1
363.000000	1
365.000000	1
367.000000	1
368.000000	1
369.000000	1
370.000000	1
371.000000	1
373.000000	1
374.000000	1
375.000000	1
376.000000	1
378.000000	1
379.000000	1
381.000000	1
382.000000	1
383.000000	1
384.000000	1
385.000000	1
386.000000	1
387.000000	1
388.000000	1
389.000000	1
391.000000	1
392.000000	1
393.000000	1
394.000000	1
395.000000	2
396.000000	1
397.000000	1
398.000000	1
400.000000	1
401.000000	1
403.000000	1
404.000000	1
405.000000	1
406.000000	1
407.000000	1
408.000000	1
409.000000	1
410.000000	1
411.000000	1
412.000000	1
413.000000	1
416.000000	1
417.000000	1
420.000000	1
423.000000	1
424.000000	1
425.000000	1
426.000000	1
427.000000	1
428.000000	1
429.000000	1
430.000000	1
431.000000	1
432.000000	1
433.000000	1
434.000000	1
436.000000	1
437.000000	1
438.000000	1
440.000000	1
441.000000	1
442.000000	1
443.000000	1
444.000000	1
445.000000	1
446.000000	1
447.000000	1
448.000000	1
449.000000	1
450.000000	1
451.000000	1
452.000000	1
453.000000	1
454.000000	1
455.000000	1
456.000000	1
457.000000	1
460.000000	1
461.000000	1
462.000000	1
463.000000	1
465.000000	1
466.000000	1
467.000000	1
468.000000	1
469.000000	1
470.000000	1
471.000000	1
472.000000	1
474.000000	1
475.000000	1
476.000000	1
477.000000	1
478.000000	1
479.000000	1
480.000000	1
481.000000	1
482.000000	1
483.000000	1
484.000000	1
485.000000	1
486.000000	1
487.000000	1
488.000000	1
489.000000	1
490.000000	1
491.000000	1
492.000000	1
493.000000	1
495.000000	1
496.000000	1
497.000000	1
498.000000	1
