Mass spectrum: N-alpha-Acetyl-L-Lysine; EI-B; MS; n TMS; RT: 854.54 s
Name: N-alpha-Acetyl-L-Lysine
Name: N-a-Acetyl-L-Lysine
Class: Natural Product
Formula: C8H16N2O3
Exact mass: 188.11609
SMILES: NCCCCC(NC(C)=O)C(O)=O
InChI: InChI=1S/C8H16N2O3/c1-6(11)10-7(8(12)13)4-2-3-5-9/h7H,2-5,9H2,1H3,(H,10,11)(H,12,13)/t7-/m0/s1
Instrument: GCMS-2010 Plus, Shimadzu
Instrument type: EI-B
Ms type: MS
Ion mode: POSITIVE
Column name: InertCap 5MS/NP 0.25 mmI.D. x 30 m, df=0.25 um
Retention time: 854.54
Derivative type: n TMS
m/z	relative intensity
86.050000	192
87.100000	21
88.100000	14
89.100000	14
90.100000	10
91.100000	10
92.100000	11
93.100000	7
94.100000	10
95.100000	14
96.100000	30
97.100000	22
98.100000	38
99.000000	26
100.050000	241
101.000000	32
102.000000	39
103.000000	18
104.000000	8
105.000000	7
106.000000	5
107.000000	5
108.000000	23
109.000000	6
110.000000	10
111.000000	3
112.000000	39
113.050000	76
114.000000	23
115.000000	29
116.000000	41
117.000000	56
118.000000	12
119.000000	12
120.000000	4
121.000000	3
122.000000	6
123.000000	3
124.000000	5
125.000000	10
126.000000	15
127.000000	17
128.000000	44
129.000000	26
130.000000	54
131.050000	66
132.100000	25
133.100000	37
134.100000	12
135.100000	13
136.100000	4
137.100000	2
138.100000	6
139.100000	1
140.100000	16
141.100000	11
142.100000	44
143.100000	24
144.100000	22
145.100000	15
146.100000	31
147.100000	237
148.100000	39
149.100000	35
150.100000	7
151.100000	3
152.100000	6
153.100000	12
154.100000	24
155.100000	12
156.150000	70
157.200000	27
158.200000	34
159.200000	15
160.200000	9
161.200000	9
162.200000	7
163.200000	16
164.200000	4
165.200000	11
166.200000	5
167.200000	12
168.200000	11
169.200000	12
170.200000	20
171.200000	56
172.200000	59
173.100000	19
174.100000	999
175.100000	196
176.150000	89
177.200000	11
178.200000	10
179.000000	63
180.000000	12
181.000000	4
182.000000	21
183.000000	18
184.000000	21
185.000000	24
186.000000	28
187.000000	3
188.000000	6
189.000000	10
190.000000	19
191.000000	16
192.000000	5
193.000000	7
194.000000	3
195.000000	7
196.000000	16
197.000000	12
198.000000	38
199.000000	11
200.100000	78
201.100000	19
202.100000	15
203.100000	11
204.100000	10
205.100000	11
206.100000	7
207.100000	41
208.100000	26
209.100000	10
210.100000	3
211.100000	6
212.100000	11
213.100000	47
214.100000	106
215.100000	16
216.100000	25
217.100000	9
218.100000	14
219.100000	34
220.100000	6
221.100000	18
222.100000	8
223.100000	1
224.100000	3
225.100000	11
226.100000	23
227.100000	11
228.100000	18
229.100000	10
230.100000	7
231.100000	4
232.100000	2
233.100000	1
234.100000	1
235.100000	1
236.100000	1
237.100000	4
238.100000	1
239.100000	6
240.100000	3
241.100000	6
242.100000	12
243.100000	10
244.100000	8
245.100000	3
246.100000	4
247.100000	9
248.100000	10
249.100000	2
250.100000	5
251.100000	5
252.100000	2
253.100000	6
254.100000	10
255.100000	8
256.100000	9
257.100000	3
258.100000	17
259.100000	2
260.100000	4
261.100000	79
262.100000	29
263.100000	13
264.100000	12
265.100000	3
266.100000	1
267.100000	4
269.100000	7
271.100000	9
272.100000	50
273.100000	18
274.100000	14
276.100000	2
277.100000	6
278.100000	8
279.100000	6
280.100000	2
281.100000	14
282.100000	4
283.100000	4
284.100000	1
285.100000	2
286.100000	4
287.100000	1
289.100000	2
290.100000	2
291.100000	4
293.100000	1
294.100000	2
295.100000	4
296.100000	1
297.100000	6
299.100000	7
300.100000	10
301.100000	3
302.100000	27
303.100000	10
304.100000	2
305.100000	3
306.100000	4
307.100000	3
309.100000	2
310.100000	5
311.100000	3
312.100000	4
313.100000	12
314.100000	7
315.100000	4
316.100000	40
317.100000	11
318.100000	1
320.100000	1
321.100000	6
323.100000	2
325.100000	3
326.100000	6
327.100000	11
328.100000	3
329.100000	6
330.100000	50
331.100000	29
332.100000	12
333.100000	5
335.100000	3
336.100000	5
337.100000	3
340.100000	2
341.100000	2
342.100000	6
343.100000	7
344.100000	6
345.100000	10
346.100000	6
347.100000	2
348.100000	6
349.100000	1
352.100000	1
353.100000	2
355.100000	11
356.100000	4
357.100000	2
358.100000	5
359.100000	12
360.100000	3
361.100000	3
364.100000	1
365.100000	2
366.100000	1
369.100000	4
370.100000	3
371.100000	2
372.100000	1
373.100000	8
374.100000	6
375.100000	4
377.100000	1
378.100000	3
381.100000	1
383.100000	5
385.100000	2
386.100000	8
387.100000	2
388.100000	13
389.100000	2
390.100000	11
391.100000	3
393.100000	4
395.100000	2
396.100000	5
397.100000	6
398.100000	1
399.100000	1
400.100000	4
401.100000	3
402.100000	1
404.100000	10
405.100000	8
406.100000	8
408.100000	3
409.100000	3
410.100000	3
411.100000	1
413.100000	3
414.100000	5
417.100000	2
418.100000	2
420.100000	1
421.100000	1
423.100000	2
424.100000	2
425.100000	5
426.100000	3
427.100000	4
428.100000	4
429.100000	2
430.100000	1
431.100000	6
432.100000	6
433.100000	4
434.100000	3
435.100000	2
436.100000	2
437.100000	7
438.100000	3
439.100000	1
440.100000	5
441.100000	1
443.100000	1
444.100000	2
445.100000	4
447.100000	2
448.100000	2
449.100000	3
451.100000	4
452.100000	3
453.100000	4
454.100000	1
455.100000	3
456.100000	2
457.100000	4
460.100000	2
461.100000	34
462.100000	19
463.100000	4
464.100000	5
466.100000	1
468.100000	1
469.100000	1
470.100000	3
471.100000	4
472.100000	1
473.100000	3
474.100000	1
475.100000	2
476.100000	27
477.100000	8
478.100000	6
479.100000	7
480.100000	2
482.100000	1
484.100000	2
486.100000	1
488.100000	3
490.100000	1
491.100000	1
493.100000	1
494.100000	2
495.100000	1
496.100000	5
497.100000	2
498.100000	1
