Mass spectrum: N-Acetyl-L-Leucine; EI-B; MS; 1 TMS; RT: 549.15 s
Name: N-Acetyl-L-Leucine
Class: Natural Product
Formula: C8H15NO3
Exact mass: 173.10519
SMILES: CC(C)C[C@H](NC(C)=O)C(O)=O
InChI: InChI=1S/C8H15NO3/c1-5(2)4-7(8(11)12)9-6(3)10/h5,7H,4H2,1-3H3,(H,9,10)(H,11,12)/t7-/m0/s1
Instrument: GCMS-2010 Plus, Shimadzu
Instrument type: EI-B
Ms type: MS
Ion mode: POSITIVE
Column name: InertCap 5MS/NP 0.25 mmI.D. x 30 m, df=0.25 um
Retention time: 549.15
Derivative type: 1 TMS
m/z	relative intensity
86.100000	999
87.100000	64
88.100000	4
89.050000	8
90.100000	1
91.100000	6
92.100000	1
92.700000	1
93.650000	2
95.050000	4
96.050000	10
97.100000	7
98.050000	3
99.050000	60
100.050000	26
101.100000	6
102.100000	7
103.050000	6
104.100000	10
105.100000	2
106.100000	1
107.100000	1
108.100000	1
109.100000	1
110.150000	2
111.150000	3
112.100000	34
113.100000	5
114.100000	3
115.150000	3
116.100000	95
117.050000	26
118.100000	8
119.050000	2
120.100000	1
121.100000	1
122.100000	1
123.100000	1
124.100000	1
125.100000	3
126.150000	5
127.150000	15
128.150000	481
129.100000	58
130.050000	29
131.100000	13
132.100000	5
133.100000	2
134.100000	1
135.100000	1
136.100000	1
137.100000	1
138.100000	1
139.100000	1
140.150000	7
141.100000	1
142.100000	33
143.100000	7
144.100000	10
145.150000	15
146.100000	50
147.150000	13
148.100000	3
149.100000	1
150.100000	1
151.100000	1
152.100000	1
153.100000	1
154.150000	1
155.100000	10
156.150000	3
157.150000	2
158.150000	292
159.100000	40
160.100000	33
161.150000	5
162.100000	1
163.100000	1
164.100000	1
165.100000	1
166.100000	1
167.100000	1
168.100000	1
169.100000	1
170.100000	4
171.100000	29
172.050000	6
173.100000	4
174.100000	34
175.100000	7
176.100000	3
177.100000	1
178.100000	1
179.100000	1
180.100000	1
181.100000	1
182.100000	1
183.100000	1
184.150000	3
185.100000	1
186.100000	7
187.150000	1
188.050000	24
189.050000	27
190.100000	4
191.100000	1
192.100000	1
193.100000	1
194.100000	1
195.100000	1
196.100000	1
197.100000	1
198.100000	1
199.100000	1
200.100000	1
201.150000	25
202.100000	12
203.100000	3
204.100000	1
205.100000	1
206.000000	1
206.950000	4
208.000000	1
209.000000	1
210.000000	1
211.000000	1
212.000000	1
213.000000	1
214.000000	1
215.000000	1
216.000000	1
217.000000	1
218.000000	1
219.000000	1
220.000000	1
221.000000	1
222.000000	1
223.000000	1
224.000000	1
225.000000	1
226.000000	1
227.000000	1
228.000000	1
229.100000	1
230.100000	203
231.100000	31
232.100000	11
233.100000	1
234.100000	1
235.100000	1
237.100000	1
239.100000	1
241.100000	1
243.100000	1
244.100000	1
245.150000	4
246.100000	2
247.100000	1
248.100000	1
249.100000	1
250.100000	1
251.100000	1
253.100000	1
254.100000	1
255.100000	1
256.100000	1
257.100000	1
258.100000	1
259.100000	1
261.100000	1
262.100000	1
264.100000	1
265.100000	1
266.100000	1
267.100000	1
268.100000	1
269.100000	1
270.100000	1
273.100000	1
274.100000	1
275.100000	1
276.100000	1
277.100000	1
278.100000	1
279.100000	1
280.100000	1
281.100000	1
282.100000	1
283.100000	1
284.100000	1
285.100000	1
286.100000	1
287.100000	1
288.100000	1
289.100000	1
290.100000	1
292.100000	1
294.100000	1
295.100000	1
296.100000	1
297.100000	1
298.100000	1
299.100000	1
300.100000	1
301.100000	1
302.100000	1
303.100000	1
304.100000	1
305.100000	1
307.100000	1
308.100000	1
309.100000	1
310.100000	1
311.100000	1
312.100000	1
313.100000	1
314.100000	1
315.100000	1
316.100000	1
317.100000	1
318.100000	1
319.100000	1
320.100000	1
321.100000	1
322.100000	1
323.100000	1
324.100000	1
325.100000	1
326.100000	1
327.100000	1
328.100000	1
329.100000	1
331.100000	1
332.100000	1
333.100000	1
334.100000	1
335.100000	1
336.100000	1
337.100000	1
338.100000	1
339.100000	1
340.100000	1
341.100000	1
342.100000	1
343.100000	1
344.100000	1
345.100000	1
346.100000	1
347.100000	1
348.100000	1
349.100000	1
350.100000	1
351.100000	1
352.100000	1
357.100000	1
358.100000	1
360.100000	1
361.100000	1
363.100000	1
364.100000	1
365.100000	1
366.100000	1
367.100000	1
368.100000	1
369.100000	1
370.100000	1
371.100000	1
373.100000	1
374.100000	1
375.100000	1
376.100000	1
377.100000	1
378.100000	1
381.100000	1
382.100000	1
383.100000	1
384.100000	1
385.100000	1
386.100000	1
387.100000	1
388.100000	1
389.100000	1
390.100000	1
391.100000	1
392.100000	1
393.100000	1
394.100000	1
395.100000	1
396.100000	1
397.100000	1
398.100000	1
399.100000	1
400.100000	1
401.100000	1
402.100000	1
403.100000	1
404.100000	1
405.100000	1
406.100000	1
407.100000	1
408.100000	1
409.100000	1
410.100000	1
411.100000	1
412.100000	1
413.100000	1
414.100000	1
415.100000	1
416.100000	1
417.100000	1
418.100000	1
419.100000	1
420.100000	1
421.100000	1
422.100000	1
423.100000	1
425.100000	1
426.100000	1
427.100000	1
428.100000	1
429.100000	1
430.100000	1
431.100000	1
432.100000	1
433.100000	1
434.100000	1
436.100000	1
437.100000	1
438.100000	1
439.100000	1
440.100000	1
441.100000	1
442.100000	1
444.100000	1
445.100000	1
446.100000	1
447.100000	1
448.100000	1
449.100000	1
450.100000	1
451.100000	1
452.100000	1
453.100000	1
456.100000	1
457.100000	1
458.100000	1
459.100000	1
460.100000	1
461.100000	1
462.100000	1
463.100000	1
465.100000	1
466.100000	1
467.100000	1
468.100000	1
469.100000	1
470.100000	1
472.100000	1
473.100000	1
474.100000	1
475.100000	1
476.100000	1
477.100000	1
478.100000	1
479.100000	1
480.100000	1
481.100000	1
482.100000	1
483.100000	1
485.100000	1
487.100000	1
489.100000	1
491.100000	1
492.100000	1
495.100000	1
498.100000	1
499.100000	1
