Mass spectrum: 2-Methylglutaric acid; EI-B; MS; 2 TMS; RT: 535.17 s
Name: 2-Methylglutaric acid
Name: 2-Methylglutarate
Class: Natural Product
Formula: C6H10O4
Exact mass: 146.05791
SMILES: OC(=O)CC(C)CC(O)=O
InChI: InChI=1S/C6H10O4/c1-4(2-5(7)8)3-6(9)10/h4H,2-3H2,1H3,(H,7,8)(H,9,10)
Instrument: GCMS-2010 Plus, Shimadzu
Instrument type: EI-B
Ms type: MS
Ion mode: POSITIVE
Column name: InertCap 5MS/NP 0.25 mmI.D. x 30 m, df=0.25 um
Retention time: 535.17
Derivative type: 2 TMS
m/z	relative intensity
86.050000	45
87.050000	12
88.050000	12
89.050000	12
90.000000	2
91.050000	3
92.000000	1
93.000000	1
94.000000	1
95.000000	3
96.000000	1
97.050000	4
98.100000	2
99.100000	19
100.050000	4
101.050000	22
102.050000	5
103.050000	7
104.000000	1
105.000000	4
106.000000	1
107.000000	1
108.000000	1
109.000000	3
110.050000	2
111.050000	30
112.100000	4
113.100000	38
114.150000	6
115.050000	19
116.050000	57
117.100000	63
118.050000	8
119.050000	7
120.000000	1
121.000000	1
122.000000	1
123.000000	1
124.000000	1
125.000000	2
126.000000	1
127.100000	3
128.150000	6
129.100000	116
130.100000	127
131.050000	66
132.150000	12
133.050000	69
134.050000	9
135.100000	7
136.100000	1
137.100000	1
138.100000	1
139.100000	1
140.100000	1
141.150000	7
142.150000	3
143.100000	72
144.150000	120
145.150000	29
146.150000	72
147.100000	999
148.150000	161
149.100000	279
150.100000	35
151.100000	18
152.100000	2
153.100000	1
154.100000	1
155.100000	1
156.150000	3
157.100000	191
158.100000	25
159.100000	24
160.100000	2
161.100000	1
162.100000	29
163.100000	11
164.100000	4
165.100000	3
166.100000	1
167.100000	1
168.100000	1
169.100000	1
170.100000	1
171.150000	4
172.100000	341
173.100000	72
174.100000	19
175.100000	3
176.100000	1
177.100000	1
178.100000	1
179.100000	1
180.100000	1
181.100000	1
182.100000	1
183.100000	1
184.000000	1
185.000000	3
186.000000	1
187.000000	1
188.100000	1
189.050000	72
190.050000	15
191.050000	6
192.000000	1
193.000000	1
194.000000	1
195.000000	1
196.000000	1
197.000000	1
198.000000	1
199.100000	1
200.050000	57
201.050000	26
202.150000	6
203.100000	18
204.100000	275
205.100000	57
206.050000	21
207.050000	4
208.100000	1
209.100000	1
210.100000	1
213.100000	1
214.100000	1
215.100000	1
216.100000	1
217.100000	32
218.100000	31
219.050000	12
220.100000	3
221.100000	1
222.100000	1
223.100000	1
224.100000	1
225.100000	1
226.100000	1
227.100000	1
228.100000	1
229.100000	1
230.150000	2
231.100000	193
232.050000	40
233.050000	19
234.100000	3
235.100000	1
236.100000	1
237.100000	1
238.100000	1
239.100000	1
240.100000	1
242.100000	1
243.100000	1
244.100000	1
245.100000	1
246.100000	1
247.100000	181
248.150000	39
249.100000	17
250.100000	2
251.100000	1
252.100000	1
253.100000	1
254.100000	1
255.100000	1
256.100000	1
257.100000	1
258.100000	1
259.100000	1
260.100000	1
261.100000	1
262.100000	1
263.100000	1
264.100000	1
265.100000	1
268.100000	1
269.100000	1
270.100000	1
271.100000	1
272.100000	1
273.100000	1
274.100000	1
275.100000	295
276.100000	70
277.050000	28
278.100000	4
279.100000	1
280.100000	1
281.100000	1
282.100000	1
283.100000	1
287.100000	1
288.100000	1
289.100000	1
290.100000	1
291.100000	1
292.100000	1
293.100000	1
294.100000	1
295.100000	1
296.100000	1
298.100000	1
300.100000	1
301.100000	1
303.100000	1
304.100000	1
305.100000	1
307.100000	1
308.100000	1
309.100000	1
310.100000	1
312.100000	1
313.100000	1
314.100000	1
315.100000	1
316.100000	1
317.100000	1
318.100000	1
319.100000	1
320.100000	1
322.100000	1
323.100000	1
324.100000	1
326.100000	1
327.100000	1
328.100000	1
329.100000	1
330.100000	1
331.100000	1
332.100000	1
333.100000	1
334.100000	1
335.100000	1
336.100000	1
337.100000	1
338.100000	1
339.100000	1
340.100000	1
341.100000	1
342.100000	1
343.100000	1
344.100000	1
345.100000	1
346.100000	1
347.100000	1
348.100000	1
349.100000	1
350.100000	1
352.100000	1
353.100000	1
354.100000	1
356.100000	1
358.100000	1
359.100000	1
362.100000	1
363.100000	1
364.100000	1
365.100000	1
366.100000	1
367.100000	1
368.100000	1
369.100000	1
370.100000	1
372.100000	1
373.100000	1
374.100000	1
376.100000	1
377.100000	1
378.100000	1
379.100000	1
382.100000	1
383.100000	1
384.100000	1
386.100000	1
388.100000	1
389.100000	1
390.100000	1
391.100000	1
392.100000	1
393.100000	1
394.100000	1
395.100000	1
396.100000	1
398.100000	1
400.100000	1
402.100000	1
403.100000	1
404.100000	1
405.100000	1
406.100000	1
407.100000	1
408.100000	1
409.100000	1
410.100000	1
411.100000	1
412.100000	1
414.100000	1
415.100000	1
416.100000	1
417.100000	1
418.100000	1
420.100000	1
421.100000	1
422.100000	1
423.100000	1
424.100000	1
425.100000	1
426.100000	1
427.100000	1
429.100000	1
430.100000	1
431.100000	1
432.100000	1
433.100000	1
434.100000	1
435.100000	1
437.100000	1
438.100000	1
439.100000	1
440.100000	1
441.100000	1
442.100000	1
443.100000	1
444.100000	1
445.100000	1
446.100000	1
447.100000	1
448.100000	1
449.100000	1
450.100000	1
451.100000	1
452.100000	1
453.100000	1
454.100000	1
456.100000	1
457.100000	1
458.100000	1
459.100000	1
460.100000	1
462.100000	1
464.100000	1
465.100000	1
466.100000	1
468.100000	1
469.100000	1
470.100000	1
471.100000	1
472.100000	1
473.100000	1
474.100000	1
476.100000	1
477.100000	1
478.100000	1
480.100000	1
481.100000	1
482.100000	1
483.100000	1
486.100000	1
487.100000	1
488.100000	1
490.100000	1
491.100000	1
492.100000	1
493.100000	1
494.100000	1
495.100000	1
496.100000	1
497.100000	1
498.100000	1
499.100000	1
