Mass spectrum: L-(+)-Tartrate; EI-B; MS; n TMS; RT: 661.20 s
Name: L-(+)-Tartrate
Class: Natural Product
Formula: C4H6O6
Exact mass: 150.01644
SMILES: OC(=O)C(O)C(O)C(O)=O
InChI: InChI=1S/C4H6O6/c5-1(3(7)8)2(6)4(9)10/h1-2,5-6H,(H,7,8)(H,9,10)/t1-,2-/m1/s1
Instrument: GCMS-2010 Plus, Shimadzu
Instrument type: EI-B
Ms type: MS
Ion mode: POSITIVE
Column name: InertCap 5MS/NP 0.25 mmI.D. x 30 m, df=0.25 um
Retention time: 661.20
Derivative type: n TMS
m/z	relative intensity
86.100000	2
87.100000	7
88.100000	2
89.000000	3
90.000000	1
91.000000	1
93.000000	1
94.000000	1
95.000000	1
96.000000	1
97.000000	1
98.000000	1
99.000000	10
100.100000	2
101.050000	9
102.050000	195
103.100000	62
104.050000	12
105.050000	6
106.100000	1
107.100000	1
108.100000	1
109.100000	1
110.100000	1
111.100000	1
112.100000	1
113.050000	3
114.100000	1
115.050000	15
116.050000	5
117.050000	34
118.050000	4
119.100000	10
120.100000	1
121.100000	1
123.100000	1
124.100000	1
125.100000	1
126.100000	1
127.100000	3
128.100000	1
129.150000	6
130.100000	137
131.050000	82
132.050000	16
133.050000	123
134.050000	16
135.050000	10
136.100000	1
137.100000	1
139.100000	1
140.100000	1
141.100000	1
142.150000	4
143.100000	167
144.100000	20
145.100000	10
146.150000	4
147.100000	999
148.100000	158
149.100000	96
150.100000	11
151.100000	4
152.100000	1
153.100000	1
154.100000	1
155.100000	1
156.100000	1
157.100000	4
158.100000	1
159.100000	3
160.100000	1
161.100000	6
162.100000	2
163.100000	31
164.100000	6
165.100000	3
166.100000	1
167.100000	1
168.100000	1
169.100000	1
170.000000	1
171.000000	56
172.000000	7
173.100000	9
174.050000	2
175.050000	76
176.050000	12
177.050000	15
178.100000	2
179.100000	2
180.100000	1
181.100000	1
182.100000	1
183.100000	1
184.100000	1
185.100000	2
186.100000	1
187.100000	2
188.150000	5
189.050000	503
190.050000	99
191.050000	97
192.050000	17
193.050000	7
194.000000	1
195.000000	1
196.000000	1
197.000000	1
198.000000	1
199.000000	1
200.000000	1
201.000000	1
202.000000	1
203.100000	1
204.050000	18
205.000000	12
206.050000	4
207.050000	24
208.000000	5
209.050000	3
210.100000	1
211.100000	1
212.100000	1
213.100000	1
214.100000	1
215.000000	4
216.000000	1
217.050000	69
218.150000	18
219.050000	416
220.050000	77
221.050000	167
222.050000	36
223.050000	18
224.000000	3
225.000000	1
226.000000	1
229.000000	1
230.100000	1
231.050000	24
232.100000	6
233.100000	4
234.100000	1
235.100000	1
236.100000	1
237.100000	1
238.100000	1
239.100000	1
240.100000	1
241.100000	1
242.100000	1
243.100000	1
244.100000	1
245.100000	2
246.100000	1
247.100000	1
248.100000	1
249.100000	1
250.100000	1
251.100000	1
252.100000	1
253.100000	1
254.100000	1
257.100000	1
258.100000	1
259.100000	10
260.050000	2
261.100000	4
262.100000	1
263.100000	50
264.050000	13
265.100000	7
266.100000	1
267.100000	1
268.100000	1
269.100000	1
270.100000	1
271.100000	1
272.100000	1
273.100000	1
274.100000	1
275.100000	1
276.200000	1
277.150000	82
278.150000	25
279.150000	30
280.200000	7
281.050000	4
282.100000	1
283.100000	1
285.100000	1
286.100000	1
287.100000	1
288.100000	1
289.100000	1
290.100000	1
291.250000	15
292.150000	833
293.100000	243
294.150000	122
295.100000	26
296.150000	7
297.200000	1
298.200000	1
299.200000	1
300.200000	1
301.200000	1
302.200000	1
303.200000	1
304.100000	2
305.150000	211
306.100000	59
307.100000	30
308.050000	7
309.000000	3
310.000000	1
311.000000	1
312.000000	1
313.000000	1
314.000000	1
315.000000	1
316.000000	1
317.000000	1
318.000000	1
319.000000	2
320.100000	1
321.100000	36
322.100000	13
323.100000	6
324.100000	1
325.100000	1
326.100000	1
327.100000	1
328.100000	1
329.100000	1
330.100000	1
331.100000	1
332.100000	1
333.100000	122
334.050000	34
335.050000	19
336.150000	4
337.200000	1
338.200000	1
339.200000	1
340.200000	1
341.200000	1
342.200000	1
343.200000	1
344.200000	1
345.200000	1
346.200000	1
347.200000	1
348.200000	1
349.200000	1
350.200000	1
351.150000	37
352.150000	13
353.200000	7
354.200000	1
355.200000	1
356.200000	1
359.200000	1
360.200000	1
361.200000	1
362.200000	1
363.200000	1
364.200000	1
365.200000	1
366.200000	1
367.200000	36
368.100000	12
369.200000	7
370.200000	2
371.200000	1
372.200000	1
374.200000	1
375.200000	1
377.200000	1
378.200000	1
379.150000	3
380.200000	2
381.200000	1
382.200000	1
383.200000	1
384.200000	1
385.200000	1
389.200000	1
390.200000	1
392.200000	1
393.200000	1
394.200000	1
395.200000	11
396.150000	4
397.200000	3
398.200000	1
399.200000	1
400.200000	1
401.200000	1
402.200000	1
403.200000	1
404.200000	1
405.200000	1
406.200000	1
407.200000	1
408.200000	1
409.200000	1
410.200000	1
413.200000	1
414.200000	1
415.200000	1
416.200000	1
417.200000	1
419.200000	1
420.200000	1
421.200000	1
422.100000	2
423.150000	181
424.100000	69
425.100000	38
426.100000	10
427.100000	3
428.100000	1
429.100000	1
430.100000	1
431.100000	1
432.100000	1
433.100000	1
434.100000	1
435.100000	1
436.100000	1
437.200000	1
438.200000	8
439.150000	3
440.200000	2
441.200000	1
442.200000	1
443.200000	1
444.200000	1
445.200000	1
446.200000	1
447.200000	1
449.200000	1
450.200000	1
451.200000	1
452.200000	1
453.200000	1
454.200000	1
455.200000	1
457.200000	1
458.200000	1
459.200000	1
461.200000	1
462.200000	1
463.200000	1
465.200000	1
466.200000	1
468.200000	1
470.200000	1
471.200000	1
472.200000	1
473.200000	1
475.200000	1
476.200000	1
477.200000	1
478.200000	1
479.200000	1
480.200000	1
481.200000	1
482.200000	1
483.200000	1
484.200000	1
487.200000	1
488.200000	1
491.200000	1
492.200000	1
493.200000	1
494.200000	1
495.200000	1
496.200000	1
497.200000	1
498.200000	1
499.200000	1
