Mass spectrum: 4-Hydroxyphenethyl alcohol; EI-B; MS; 2 TMS; RT: 622.71 s
Name: 4-Hydroxyphenethyl alcohol
Name: Tyrosol
Class: Natural Product
Formula: C8H10O2
Exact mass: 138.06808
SMILES: OCCc(c1)ccc(O)c1
InChI: InChI=1S/C8H10O2/c9-6-5-7-1-3-8(10)4-2-7/h1-4,9-10H,5-6H2
Instrument: GCMS-2010 Plus, Shimadzu
Instrument type: EI-B
Ms type: MS
Ion mode: POSITIVE
Column name: InertCap 5MS/NP 0.25 mmI.D. x 30 m, df=0.25 um
Retention time: 622.71
Derivative type: 2 TMS
m/z	relative intensity
86.000000	1
87.000000	3
88.000000	5
89.000000	11
90.000000	6
91.050000	25
92.000000	3
93.000000	2
94.000000	1
95.000000	5
96.000000	1
97.000000	2
98.000000	1
99.000000	1
100.000000	1
101.000000	2
102.100000	4
103.050000	150
104.050000	17
105.050000	17
106.100000	2
107.100000	2
108.100000	1
109.100000	3
111.100000	2
112.100000	1
113.100000	1
114.000000	1
115.050000	11
116.100000	3
117.050000	24
118.100000	3
119.050000	8
120.000000	2
121.000000	6
122.000000	1
123.000000	2
124.000000	1
125.100000	1
126.100000	35
127.100000	3
128.100000	1
129.100000	1
130.100000	1
131.000000	7
132.000000	2
133.100000	10
134.050000	5
135.000000	14
136.000000	3
137.000000	2
138.000000	1
139.000000	1
140.000000	1
141.000000	1
142.000000	1
143.000000	2
144.000000	1
145.000000	4
146.000000	1
147.100000	32
148.050000	6
149.000000	27
150.000000	5
151.050000	15
152.000000	2
153.000000	1
154.000000	1
155.000000	1
156.000000	1
157.000000	1
159.000000	2
160.000000	1
161.050000	14
162.000000	4
163.000000	20
164.050000	8
165.000000	5
166.000000	1
167.000000	1
168.000000	1
169.000000	1
171.000000	1
172.000000	1
173.000000	1
174.000000	1
175.000000	5
176.000000	1
177.050000	25
178.050000	6
179.050000	999
180.000000	158
181.050000	45
182.000000	4
183.000000	1
185.000000	1
186.000000	1
187.000000	1
188.000000	1
189.000000	1
190.000000	1
191.050000	7
192.050000	21
193.000000	100
194.000000	17
195.000000	6
196.000000	1
197.000000	1
198.000000	1
199.000000	1
201.000000	1
202.000000	1
203.000000	1
204.000000	1
205.000000	1
206.000000	1
207.000000	2
208.000000	1
209.000000	2
210.000000	1
211.000000	1
212.000000	1
213.000000	1
215.000000	1
217.000000	1
219.000000	3
220.000000	1
221.000000	1
222.000000	1
223.000000	2
224.000000	1
225.000000	1
226.000000	1
227.000000	1
229.000000	1
231.000000	1
232.000000	1
233.000000	1
235.000000	2
236.000000	1
237.000000	1
239.000000	1
240.000000	1
241.000000	1
243.000000	1
244.000000	1
245.000000	1
246.000000	1
247.000000	1
248.000000	1
249.000000	12
250.000000	3
251.000000	3
252.000000	4
253.000000	1
254.000000	1
255.000000	1
256.000000	1
257.000000	1
258.000000	1
262.000000	1
263.000000	1
264.000000	1
265.000000	1
266.100000	1
267.050000	111
268.050000	24
269.050000	11
270.100000	2
271.100000	1
273.100000	1
274.100000	1
275.100000	1
276.100000	1
277.100000	1
279.100000	1
280.100000	2
281.100000	1
282.050000	152
283.050000	39
284.100000	16
285.100000	2
286.100000	1
288.100000	1
289.100000	1
290.100000	1
292.100000	1
293.100000	1
295.100000	1
296.100000	1
297.100000	1
299.100000	1
300.100000	1
301.100000	1
303.100000	1
304.100000	1
305.100000	1
307.100000	1
309.100000	1
310.100000	1
311.100000	1
314.100000	1
315.100000	1
316.100000	1
317.100000	1
318.100000	1
319.100000	1
320.100000	1
321.100000	1
322.100000	1
325.100000	1
327.100000	1
328.100000	1
329.100000	1
330.100000	1
331.100000	1
332.100000	1
334.100000	1
335.100000	1
336.100000	1
337.100000	1
339.100000	1
340.100000	1
341.100000	1
342.100000	1
344.100000	1
345.100000	1
346.100000	1
347.100000	1
348.100000	1
349.100000	1
353.100000	1
354.100000	1
355.100000	1
357.100000	1
358.100000	1
360.100000	1
361.100000	1
363.100000	1
364.100000	1
365.100000	1
366.100000	1
368.100000	1
369.100000	1
370.100000	1
371.100000	1
372.100000	1
374.100000	1
375.100000	1
376.100000	1
377.100000	1
378.100000	1
379.100000	1
380.100000	1
381.100000	1
382.100000	1
383.100000	1
384.100000	1
385.100000	1
388.100000	1
389.100000	1
390.100000	1
391.100000	1
393.100000	1
394.100000	1
395.100000	1
396.100000	1
397.100000	1
399.100000	1
400.100000	1
401.100000	1
402.100000	1
403.100000	1
405.100000	1
406.100000	1
408.100000	1
410.100000	1
411.100000	1
412.100000	1
413.100000	1
414.100000	1
415.100000	1
416.100000	1
417.100000	1
418.100000	1
419.100000	1
420.100000	1
421.100000	1
423.100000	1
425.100000	1
426.100000	1
428.100000	1
430.100000	1
432.100000	1
433.100000	1
434.100000	1
435.100000	1
436.100000	1
438.100000	1
439.100000	1
441.100000	1
442.100000	1
443.100000	1
444.100000	1
445.100000	1
446.100000	1
447.100000	1
449.100000	1
450.100000	1
451.100000	1
452.100000	1
453.100000	1
454.100000	1
456.100000	1
457.100000	1
458.100000	1
459.100000	1
460.100000	1
462.100000	1
463.100000	1
464.100000	1
466.100000	1
467.100000	1
469.100000	1
471.100000	1
472.100000	1
473.100000	1
474.100000	1
475.100000	1
477.100000	1
478.100000	1
479.100000	1
480.100000	1
481.100000	1
483.100000	1
484.100000	1
485.100000	1
486.100000	1
487.100000	1
488.100000	1
489.100000	1
490.100000	1
491.100000	1
492.100000	1
493.100000	1
494.100000	1
495.100000	1
497.100000	1
498.100000	1
499.100000	1
