Mass spectrum: HydroxyButyric acid; EI-B; MS; 2 TMS; RT: 351.69 s
Name: HydroxyButyric acid
Name: HydroxyButyrate
Name: 2-HydroxyButyrate
Name: 2-HydroxyButyric acid
Class: Natural Product
Formula: C4H8O3
Exact mass: 104.04734
SMILES: CC[C@H](O)C(O)=O
InChI: InChI=1S/C4H8O3/c1-2-3(5)4(6)7/h3,5H,2H2,1H3,(H,6,7)/t3-/m0/s1
Instrument: GCMS-2010 Plus, Shimadzu
Instrument type: EI-B
Ms type: MS
Ion mode: POSITIVE
Column name: InertCap 5MS/NP 0.25 mmI.D. x 30 m, df=0.25 um
Retention time: 351.69
Derivative type: 2 TMS
m/z	relative intensity
85.950000	2
87.000000	8
88.050000	1
89.000000	2
90.000000	1
91.000000	1
92.000000	1
93.000000	1
94.050000	2
95.000000	21
95.950000	3
97.000000	1
98.000000	1
99.000000	10
100.000000	1
101.000000	11
102.000000	3
103.000000	7
104.000000	1
105.000000	4
106.000000	1
107.000000	1
108.000000	1
109.000000	6
110.000000	1
111.000000	1
113.000000	1
114.000000	1
115.000000	25
116.000000	5
117.000000	14
118.000000	2
119.000000	4
120.000000	1
121.000000	1
123.000000	1
124.000000	1
125.000000	1
126.000000	1
127.000000	1
128.100000	1
129.050000	5
130.150000	17
131.050000	999
132.050000	120
133.050000	90
134.000000	10
135.000000	5
136.000000	1
137.000000	1
139.000000	1
141.000000	1
142.000000	1
143.000000	21
144.050000	3
145.100000	1
146.000000	1
147.050000	695
148.050000	98
149.050000	59
150.000000	7
151.000000	2
152.000000	1
154.000000	1
155.000000	1
156.000000	1
157.000000	1
158.000000	1
159.000000	1
160.000000	1
161.000000	1
162.000000	1
163.000000	1
164.000000	1
165.000000	1
166.000000	1
167.000000	1
168.000000	1
169.000000	1
170.000000	1
171.000000	1
173.000000	1
174.000000	1
175.000000	6
176.000000	1
177.000000	1
178.000000	1
179.000000	1
180.000000	1
181.000000	1
184.000000	1
185.000000	1
186.000000	1
187.000000	1
188.000000	1
188.950000	5
189.950000	59
190.950000	18
191.950000	6
193.000000	1
194.000000	1
195.000000	1
196.000000	1
197.000000	1
198.000000	1
199.000000	1
200.000000	1
201.000000	1
202.000000	1
203.000000	1
204.000000	1
205.000000	107
206.000000	21
207.000000	8
208.000000	1
209.000000	1
210.000000	1
212.000000	1
213.000000	1
214.000000	1
215.000000	1
216.000000	1
216.950000	3
218.000000	1
219.000000	9
220.000000	2
221.000000	1
222.000000	1
223.000000	1
224.000000	1
226.000000	1
227.000000	1
228.000000	1
229.000000	1
231.000000	1
232.000000	1
232.950000	50
233.950000	10
234.950000	4
236.000000	1
237.000000	1
238.000000	1
239.000000	1
240.000000	1
241.000000	1
243.000000	1
244.000000	1
246.000000	1
247.000000	1
248.000000	1
249.000000	1
250.000000	1
251.000000	1
253.000000	1
254.000000	1
255.000000	1
256.000000	1
258.000000	1
259.000000	1
260.000000	1
261.000000	1
262.000000	1
263.000000	1
264.000000	1
265.000000	1
267.000000	1
268.000000	1
269.000000	1
270.000000	1
273.000000	1
275.000000	1
277.000000	1
279.000000	1
280.000000	1
281.000000	1
282.000000	1
283.000000	1
284.000000	1
286.000000	1
288.000000	1
289.000000	1
290.000000	1
292.000000	1
293.000000	1
299.000000	1
300.000000	1
301.000000	1
302.000000	1
304.000000	1
305.000000	1
306.000000	1
307.000000	1
308.000000	1
309.000000	1
310.000000	1
311.000000	1
312.000000	1
313.000000	1
314.000000	1
315.000000	1
317.000000	1
319.000000	1
321.000000	1
322.000000	1
323.000000	1
324.000000	1
325.000000	1
326.000000	1
327.000000	1
329.000000	1
330.000000	1
331.000000	1
332.000000	1
333.000000	1
334.000000	1
335.000000	1
336.000000	1
337.000000	1
338.000000	1
341.000000	1
342.000000	1
343.000000	1
344.000000	1
345.000000	1
346.000000	1
348.000000	1
349.000000	1
350.000000	1
352.000000	1
354.000000	1
356.000000	1
357.000000	1
358.000000	1
359.000000	1
362.000000	1
364.000000	1
365.000000	1
366.000000	1
367.000000	1
368.000000	1
369.000000	1
370.000000	1
372.000000	1
373.000000	1
375.000000	1
377.000000	1
378.000000	1
379.000000	1
380.000000	1
381.000000	1
382.000000	1
383.000000	1
384.000000	1
385.000000	1
386.000000	1
387.000000	1
388.000000	1
389.000000	1
391.000000	1
392.000000	1
393.000000	1
394.000000	1
395.000000	1
396.000000	1
397.000000	1
398.000000	1
399.000000	1
400.000000	1
403.000000	1
405.000000	1
406.000000	1
407.000000	1
408.000000	1
409.000000	1
410.000000	1
411.000000	1
412.000000	1
413.000000	1
414.000000	1
415.000000	1
416.000000	1
418.000000	1
419.000000	1
421.000000	1
423.000000	1
424.000000	1
426.000000	1
427.000000	1
428.000000	1
429.000000	1
430.000000	1
431.000000	1
432.000000	1
433.000000	1
434.000000	1
435.000000	1
436.000000	1
438.000000	1
439.000000	1
440.000000	1
441.000000	1
442.000000	1
443.000000	1
444.000000	1
448.000000	1
449.000000	1
451.000000	1
452.000000	1
453.000000	1
454.000000	1
455.000000	1
456.000000	1
458.000000	1
459.000000	1
460.000000	1
461.000000	1
462.000000	1
463.000000	1
464.000000	1
465.000000	1
466.000000	1
469.000000	1
470.000000	1
471.000000	1
472.000000	1
473.000000	1
475.000000	1
476.000000	1
477.000000	1
479.000000	1
481.000000	1
482.000000	1
483.000000	1
485.000000	1
486.000000	1
487.000000	1
488.000000	1
490.000000	1
491.000000	1
492.000000	1
493.000000	1
494.000000	1
495.000000	1
496.000000	1
497.000000	1
498.000000	1
