Mass spectrum: Phthalic acid; EI-B; MS; 2 TMS; RT: 685.69 s
Name: Phthalic acid
Class: Natural Product
Formula: C8H6O4
Exact mass: 166.02661
SMILES: OC(=O)c(c1)c(ccc1)C(O)=O
InChI: InChI=1S/C8H6O4/c9-7(10)5-3-1-2-4-6(5)8(11)12/h1-4H,(H,9,10)(H,11,12)
Instrument: GCMS-2010 Plus, Shimadzu
Instrument type: EI-B
Ms type: MS
Ion mode: POSITIVE
Column name: InertCap 5MS/NP 0.25 mmI.D. x 30 m, df=0.25 um
Retention time: 685.69
Derivative type: 2 TMS
m/z	relative intensity
86.000000	1
87.000000	4
88.000000	1
89.000000	14
89.950000	8
91.050000	24
92.000000	3
93.000000	9
94.000000	1
95.000000	2
96.000000	2
97.000000	2
98.000000	1
99.000000	1
100.000000	1
101.000000	2
102.000000	2
103.000000	14
104.000000	21
105.050000	39
106.000000	5
107.000000	3
108.000000	1
109.000000	1
110.000000	1
111.000000	2
112.000000	2
113.000000	2
115.050000	7
116.000000	2
117.050000	6
118.050000	6
119.050000	44
120.050000	8
121.000000	5
122.000000	1
123.000000	1
124.000000	1
125.000000	1
126.050000	17
127.100000	2
128.100000	1
129.100000	1
130.000000	1
131.000000	27
132.050000	5
133.050000	31
134.000000	6
135.000000	30
136.000000	5
137.000000	2
138.000000	1
139.100000	1
140.100000	38
141.050000	5
143.100000	1
144.100000	1
145.100000	3
146.100000	3
147.050000	999
148.100000	155
149.050000	79
150.100000	9
151.100000	3
152.100000	1
153.100000	1
154.100000	1
155.100000	1
156.100000	1
157.100000	1
158.100000	1
161.100000	5
162.000000	3
163.000000	33
164.000000	3
165.000000	1
166.000000	1
167.000000	1
168.000000	1
169.000000	1
170.000000	1
171.000000	1
172.000000	1
174.000000	1
175.000000	2
176.050000	8
177.000000	4
178.000000	3
179.000000	4
180.000000	1
181.000000	2
182.000000	1
183.000000	1
184.000000	1
185.000000	1
186.000000	1
187.000000	1
188.000000	1
190.000000	1
191.000000	1
192.050000	5
193.000000	28
194.000000	6
195.000000	2
196.000000	1
197.000000	1
198.000000	1
199.000000	1
200.000000	1
201.000000	1
202.000000	1
203.000000	1
204.000000	1
205.000000	1
206.000000	1
207.000000	3
208.000000	1
209.000000	1
210.000000	1
211.000000	1
212.000000	1
213.000000	1
214.000000	1
215.000000	1
216.000000	1
217.000000	1
218.000000	1
218.950000	17
219.950000	42
220.950000	61
222.000000	11
223.000000	5
224.000000	1
225.000000	1
227.000000	1
229.000000	1
230.000000	1
231.000000	1
232.000000	1
233.000000	1
234.000000	1
235.000000	1
236.000000	1
237.000000	1
239.000000	1
241.000000	1
242.000000	1
244.000000	1
245.000000	1
246.000000	1
247.000000	1
249.000000	1
250.000000	1
251.000000	1
252.000000	1
253.000000	1
254.000000	1
255.000000	1
256.000000	1
257.000000	1
258.000000	1
259.000000	1
260.000000	1
261.000000	1
262.000000	1
263.000000	1
264.000000	1
265.050000	16
266.000000	4
267.000000	3
268.000000	1
269.000000	1
270.000000	1
271.000000	1
273.000000	1
274.000000	1
275.000000	1
276.000000	1
279.000000	1
280.000000	1
281.000000	1
282.000000	1
283.000000	1
285.000000	1
286.000000	1
288.000000	1
289.000000	1
290.000000	1
291.000000	1
292.000000	1
293.000000	1
294.000000	1
295.000000	121
296.050000	34
297.000000	17
298.000000	2
299.000000	1
300.000000	1
301.000000	1
302.000000	1
304.000000	1
305.000000	1
306.000000	1
307.000000	1
308.000000	1
309.000000	1
310.050000	11
311.100000	5
312.100000	1
313.100000	1
315.100000	1
316.100000	1
317.100000	1
318.100000	1
319.100000	1
320.100000	1
321.100000	1
322.100000	1
323.100000	1
324.100000	1
325.100000	1
326.100000	1
328.100000	1
329.100000	1
330.100000	1
331.100000	1
332.100000	1
333.100000	1
334.100000	1
336.100000	1
337.100000	1
338.100000	1
340.100000	1
341.100000	1
342.100000	1
344.100000	1
345.100000	1
346.100000	1
347.100000	1
348.100000	1
349.100000	1
351.100000	1
352.100000	1
353.100000	1
354.100000	1
356.100000	1
357.100000	1
358.100000	1
359.100000	1
361.100000	1
362.100000	1
364.100000	1
365.100000	1
366.100000	1
370.100000	1
371.100000	1
374.100000	1
375.100000	1
377.100000	1
378.100000	1
379.100000	1
380.100000	1
381.100000	1
383.100000	1
384.100000	1
386.100000	1
387.100000	1
388.100000	1
389.100000	1
390.100000	1
391.100000	1
393.100000	1
394.100000	1
396.100000	1
397.100000	1
398.100000	1
399.100000	1
400.100000	1
401.100000	1
402.100000	1
403.100000	1
404.100000	1
405.100000	1
406.100000	1
407.100000	1
409.100000	1
410.100000	1
411.100000	1
414.100000	1
415.100000	1
416.100000	1
417.100000	1
420.100000	1
422.100000	1
425.100000	1
426.100000	1
428.100000	1
429.100000	1
430.100000	1
431.100000	1
432.100000	1
434.100000	1
435.100000	1
436.100000	1
437.100000	1
439.100000	1
440.100000	1
441.100000	1
442.100000	1
443.100000	1
444.100000	1
445.100000	1
446.100000	1
447.100000	1
448.100000	1
449.100000	1
450.100000	1
451.100000	1
454.100000	1
457.100000	1
458.100000	1
459.100000	1
460.100000	1
462.100000	1
464.100000	1
465.100000	1
468.100000	1
472.100000	1
475.100000	1
476.100000	1
477.100000	1
478.100000	1
479.100000	1
480.100000	1
481.100000	1
483.100000	1
484.100000	1
485.100000	1
487.100000	1
488.100000	1
489.100000	1
490.100000	1
492.100000	1
493.100000	1
494.100000	1
495.100000	1
496.100000	1
498.100000	1
499.100000	1
