Mass spectrum: 2-MethylHippuric acid; EI-B; MS; n TMS; RT: 773.16 s
Name: 2-MethylHippuric acid
Name: 2-MethylHippurate
Class: Natural Product
Formula: C10H11NO3
Exact mass: 193.07389
SMILES: OC(=O)CNC(=O)c(c1)c(C)ccc1
InChI: InChI=1S/C10H11NO3/c1-7-4-2-3-5-8(7)10(14)11-6-9(12)13/h2-5H,6H2,1H3,(H,11,14)(H,12,13)
Instrument: GCMS-2010 Plus, Shimadzu
Instrument type: EI-B
Ms type: MS
Ion mode: POSITIVE
Column name: InertCap 5MS/NP 0.25 mmI.D. x 30 m, df=0.25 um
Retention time: 773.16
Derivative type: n TMS
m/z	relative intensity
86.050000	5
87.050000	4
88.050000	5
89.050000	36
90.050000	73
91.050000	335
92.100000	26
93.100000	2
94.650000	2
95.550000	28
96.550000	3
97.600000	1
98.600000	1
100.000000	2
101.050000	3
102.100000	8
103.050000	19
104.050000	9
105.100000	8
106.100000	1
107.100000	1
108.100000	1
109.100000	1
110.100000	1
111.100000	1
112.100000	1
113.100000	1
114.100000	1
115.100000	1
116.100000	10
117.150000	10
118.100000	412
119.100000	999
120.100000	81
121.050000	9
122.100000	1
123.100000	1
124.000000	1
125.000000	3
126.000000	1
127.000000	1
128.000000	1
129.100000	1
130.100000	10
131.100000	5
132.100000	12
133.050000	4
134.100000	2
135.100000	3
136.100000	1
137.100000	1
138.100000	1
139.100000	1
140.100000	1
141.100000	1
142.100000	1
143.100000	2
144.100000	1
145.050000	2
146.100000	13
147.100000	21
148.100000	7
149.100000	10
150.100000	2
151.100000	1
152.100000	1
153.100000	1
154.100000	1
155.100000	1
156.100000	1
157.100000	1
158.100000	2
159.100000	2
160.100000	1
161.100000	1
162.100000	3
163.100000	2
164.100000	1
165.100000	1
166.100000	1
167.100000	1
168.100000	1
169.100000	1
170.100000	1
171.100000	1
172.100000	1
173.100000	1
174.150000	2
175.100000	102
176.050000	13
177.050000	21
178.100000	3
179.100000	1
180.100000	1
182.100000	1
183.100000	1
184.100000	1
185.100000	1
186.100000	1
187.100000	1
188.100000	1
189.100000	1
190.050000	20
191.100000	7
192.100000	3
193.100000	1
194.100000	1
195.100000	1
196.100000	1
197.100000	1
199.100000	1
200.100000	1
201.100000	1
202.100000	1
203.100000	1
204.050000	32
205.150000	7
206.050000	174
207.050000	31
208.050000	9
209.100000	1
210.100000	1
211.100000	1
212.100000	1
213.100000	1
214.100000	1
215.100000	1
216.100000	1
217.100000	1
218.100000	1
219.150000	2
220.100000	81
221.100000	16
222.100000	4
223.100000	1
224.100000	1
225.100000	1
226.100000	1
227.100000	1
228.100000	1
229.100000	1
230.100000	1
231.100000	1
232.100000	1
233.100000	1
234.100000	1
235.100000	1
236.100000	1
237.100000	1
238.100000	1
239.100000	1
240.100000	1
241.100000	1
242.100000	1
243.100000	1
244.100000	1
245.100000	1
246.100000	1
247.100000	3
248.100000	7
249.150000	3
250.100000	61
251.050000	12
252.050000	3
253.100000	1
254.100000	1
255.100000	1
256.100000	1
257.100000	1
258.100000	1
259.100000	1
260.100000	1
261.100000	1
262.100000	1
263.100000	1
264.150000	2
265.100000	130
266.100000	28
267.100000	8
268.100000	1
269.100000	1
270.100000	1
271.100000	1
272.100000	1
273.100000	1
274.100000	1
275.100000	1
276.100000	1
277.100000	1
278.100000	1
279.100000	1
280.100000	1
281.100000	1
282.100000	1
283.100000	1
284.100000	1
285.100000	1
286.100000	1
288.100000	1
289.100000	1
290.100000	1
291.100000	1
292.100000	1
293.100000	1
294.100000	1
297.100000	1
298.100000	1
300.100000	1
301.100000	1
302.100000	1
303.100000	1
304.100000	1
305.100000	1
306.100000	1
307.100000	1
308.100000	1
309.100000	1
310.100000	1
311.100000	1
312.100000	1
313.100000	1
314.100000	1
315.100000	1
317.100000	1
318.100000	1
319.100000	1
320.100000	1
321.100000	1
322.100000	1
323.100000	1
324.100000	1
325.100000	1
326.100000	1
327.100000	1
328.100000	1
330.100000	1
331.100000	1
332.100000	1
333.100000	1
334.100000	1
335.100000	1
336.100000	1
337.100000	1
338.100000	1
339.100000	1
341.100000	1
342.100000	1
343.100000	1
344.100000	1
345.100000	1
346.100000	1
347.100000	1
348.100000	1
349.100000	1
351.100000	1
352.100000	1
353.100000	1
354.100000	1
355.100000	1
356.100000	1
359.100000	1
360.100000	1
361.100000	1
362.100000	1
363.100000	1
365.100000	1
366.100000	1
367.100000	1
368.100000	1
369.100000	1
371.100000	1
372.100000	1
373.100000	1
374.100000	1
375.100000	1
376.100000	1
377.100000	1
378.100000	1
379.100000	1
380.100000	1
382.100000	1
383.100000	1
385.100000	1
386.100000	1
387.100000	1
389.100000	1
390.100000	1
392.100000	1
393.100000	1
395.100000	1
396.100000	1
397.100000	1
398.100000	1
400.100000	1
401.100000	1
402.100000	1
403.100000	1
404.100000	1
405.100000	1
406.100000	1
407.100000	1
408.100000	1
409.100000	1
410.100000	1
411.100000	1
412.100000	1
413.100000	1
414.100000	1
415.100000	1
416.100000	1
417.100000	1
418.100000	1
419.100000	1
424.100000	1
425.100000	1
427.100000	1
428.100000	1
429.100000	1
430.100000	1
431.100000	1
432.100000	1
433.100000	1
434.100000	1
435.100000	1
436.100000	1
437.100000	1
438.100000	1
439.100000	1
440.100000	1
441.100000	1
443.100000	1
444.100000	1
445.100000	1
446.100000	1
447.100000	1
448.100000	1
449.100000	1
450.100000	1
451.100000	1
452.100000	1
453.100000	1
454.100000	1
455.100000	1
456.100000	1
457.100000	1
458.100000	1
459.100000	1
460.100000	1
461.100000	1
464.100000	1
466.100000	1
467.100000	1
468.100000	1
469.100000	1
470.100000	1
471.100000	1
472.100000	1
473.100000	1
474.100000	1
475.100000	1
476.100000	1
477.100000	1
478.100000	1
479.100000	1
480.100000	1
481.100000	1
482.100000	1
483.100000	1
484.100000	1
485.100000	1
486.100000	1
487.100000	1
488.100000	1
489.100000	1
490.100000	1
491.100000	1
492.100000	1
493.100000	1
494.100000	1
495.100000	1
496.100000	1
497.100000	1
499.100000	1
