Mass spectrum: 2-MethylHippuric acid; EI-B; MS; n TMS; RT: 752.47 s
Name: 2-MethylHippuric acid
Name: 2-MethylHippurate
Class: Natural Product
Formula: C10H11NO3
Exact mass: 193.07389
SMILES: OC(=O)CNC(=O)c(c1)c(C)ccc1
InChI: InChI=1S/C10H11NO3/c1-7-4-2-3-5-8(7)10(14)11-6-9(12)13/h2-5H,6H2,1H3,(H,11,14)(H,12,13)
Instrument: GCMS-2010 Plus, Shimadzu
Instrument type: EI-B
Ms type: MS
Ion mode: POSITIVE
Column name: InertCap 5MS/NP 0.25 mmI.D. x 30 m, df=0.25 um
Retention time: 752.47
Derivative type: n TMS
m/z	relative intensity
86.100000	17
87.100000	6
88.100000	5
89.050000	26
90.050000	33
91.050000	249
92.050000	21
93.100000	4
94.100000	1
95.250000	11
96.300000	1
97.300000	2
98.300000	6
99.100000	9
100.050000	12
101.100000	7
102.100000	7
103.050000	18
104.150000	10
105.100000	400
106.100000	33
107.100000	4
108.100000	1
109.100000	2
110.100000	1
111.100000	3
112.100000	2
113.100000	3
114.100000	3
115.100000	5
116.050000	16
117.050000	53
118.100000	90
119.050000	999
120.100000	85
121.100000	9
122.100000	1
123.100000	2
124.100000	1
125.100000	1
126.100000	2
127.100000	3
128.100000	4
129.050000	19
130.100000	34
131.100000	31
132.100000	22
133.100000	37
134.100000	6
135.100000	9
136.100000	1
138.100000	1
139.100000	1
140.100000	2
141.100000	3
142.150000	12
143.200000	3
144.200000	4
145.200000	10
146.100000	8
147.100000	88
148.050000	15
149.100000	14
150.100000	3
151.100000	1
152.100000	1
153.100000	2
154.100000	2
155.100000	2
156.100000	1
157.100000	3
158.100000	6
159.100000	4
160.100000	2
161.100000	1
162.100000	3
163.100000	4
164.100000	1
165.100000	1
166.100000	1
167.100000	1
168.100000	1
169.100000	3
170.100000	2
171.100000	3
172.100000	3
173.100000	1
174.100000	18
175.100000	20
176.050000	9
177.050000	82
178.100000	14
179.100000	4
180.100000	2
181.100000	2
182.100000	1
183.100000	1
184.100000	2
185.100000	3
186.100000	5
187.100000	3
188.100000	6
189.100000	2
190.050000	17
191.050000	13
192.100000	57
193.100000	12
194.100000	4
195.100000	2
196.100000	2
197.100000	1
198.100000	2
199.100000	1
200.100000	1
201.100000	4
202.100000	5
203.000000	5
204.050000	79
205.050000	16
206.050000	53
207.000000	15
208.000000	4
209.000000	3
210.000000	1
211.000000	1
212.000000	1
213.000000	2
214.000000	2
215.000000	2
216.000000	2
217.000000	2
218.100000	38
219.100000	15
220.100000	92
221.050000	18
222.000000	4
223.000000	2
224.000000	1
225.000000	1
226.000000	1
227.000000	2
228.000000	1
229.000000	2
230.000000	1
231.000000	2
232.000000	10
233.000000	2
234.000000	4
237.000000	2
238.000000	1
239.000000	1
240.000000	1
241.000000	2
242.000000	1
243.000000	2
244.000000	1
245.000000	1
246.000000	1
247.100000	46
248.100000	12
249.100000	5
250.100000	7
251.100000	2
252.100000	1
253.100000	1
254.100000	1
255.100000	1
257.100000	1
258.100000	3
259.100000	1
260.100000	1
261.100000	1
262.100000	1
263.100000	1
264.100000	2
265.100000	16
266.100000	3
267.100000	2
268.100000	1
269.100000	1
270.100000	1
271.100000	1
272.100000	1
273.100000	1
275.100000	1
276.100000	1
277.100000	2
278.150000	15
279.200000	3
280.200000	2
281.200000	1
282.200000	1
283.200000	1
284.200000	1
285.200000	23
286.200000	6
287.200000	2
288.200000	1
291.200000	1
292.200000	4
293.100000	2
294.100000	37
295.100000	9
296.100000	4
297.100000	2
298.100000	1
299.100000	1
300.100000	1
301.100000	1
302.100000	1
303.100000	1
304.100000	2
307.100000	1
308.100000	1
309.100000	1
310.100000	1
311.100000	1
312.100000	1
313.100000	1
314.100000	1
315.100000	1
316.100000	1
317.100000	1
318.100000	1
319.100000	1
320.100000	2
321.200000	3
322.150000	264
323.100000	70
324.100000	26
325.100000	6
326.100000	1
327.100000	1
328.100000	1
329.100000	1
330.100000	1
331.100000	1
332.100000	1
333.100000	1
334.100000	1
335.100000	1
336.150000	26
337.200000	38
338.150000	10
339.200000	6
340.200000	1
341.200000	1
342.200000	1
343.200000	1
345.200000	1
346.200000	1
347.200000	1
348.200000	1
349.200000	1
350.200000	1
351.200000	1
353.200000	1
355.200000	1
356.200000	1
357.200000	1
358.200000	1
359.200000	1
360.200000	1
361.200000	1
362.200000	1
363.200000	1
364.200000	1
365.200000	1
366.200000	1
367.200000	1
368.200000	1
369.200000	1
370.200000	1
371.200000	1
372.200000	1
373.200000	1
374.200000	1
375.200000	1
376.200000	1
377.200000	1
379.200000	1
380.200000	1
381.200000	1
382.200000	1
383.200000	1
385.200000	1
387.200000	1
388.200000	1
389.200000	1
390.200000	1
391.200000	1
392.200000	1
393.200000	1
395.200000	1
396.200000	1
397.200000	1
399.200000	1
400.200000	1
401.200000	1
402.200000	1
403.200000	1
404.200000	1
405.200000	1
406.200000	1
407.200000	1
409.200000	1
410.200000	1
411.200000	1
413.200000	1
414.200000	1
415.200000	1
416.200000	1
417.200000	1
418.200000	1
419.200000	1
420.200000	1
421.200000	1
422.200000	1
423.200000	1
425.200000	1
426.200000	1
427.200000	1
428.200000	1
429.200000	1
430.200000	1
431.200000	1
433.200000	1
434.200000	1
435.200000	1
436.200000	1
437.200000	1
438.200000	1
439.200000	1
441.200000	1
442.200000	1
443.200000	1
444.200000	1
445.200000	1
446.200000	1
447.200000	1
448.200000	1
449.200000	1
451.200000	1
452.200000	2
453.200000	1
454.200000	1
456.200000	1
458.200000	1
459.200000	1
462.200000	1
463.200000	1
464.200000	1
465.200000	1
466.200000	1
467.200000	1
468.200000	1
470.200000	1
471.200000	1
472.200000	1
473.200000	2
474.200000	1
475.200000	1
477.200000	1
478.200000	1
479.200000	1
480.200000	1
481.200000	1
482.200000	1
484.200000	1
485.200000	1
487.200000	1
488.200000	1
489.200000	1
491.200000	1
492.200000	1
493.200000	1
494.200000	1
495.200000	1
496.200000	1
498.200000	1
