Mass spectrum: 1-Methyl Histidine; EI-B; MS; 2 TMS; RT: 740.88 s
Name: 1-Methyl Histidine
Class: Natural Product
Formula: C7H11N3O2
Exact mass: 169.08513
SMILES: OC(=O)C(N)Cc(n1)cn(C)c1
InChI: InChI=1S/C7H11N3O2/c1-10-3-5(9-4-10)2-6(8)7(11)12/h3-4,6H,2,8H2,1H3,(H,11,12)
Instrument: GCMS-2010 Plus, Shimadzu
Instrument type: EI-B
Ms type: MS
Ion mode: POSITIVE
Column name: InertCap 5MS/NP 0.25 mmI.D. x 30 m, df=0.25 um
Retention time: 740.88
Derivative type: 2 TMS
m/z	relative intensity
85.900000	6
86.900000	4
87.900000	1
88.900000	3
89.900000	1
90.900000	1
91.900000	1
92.900000	3
93.900000	2
95.100000	75
96.100000	999
97.100000	269
98.150000	21
99.100000	4
100.100000	107
101.100000	15
102.100000	6
103.100000	4
104.100000	3
105.100000	1
106.100000	3
107.100000	5
108.100000	3
109.100000	6
110.100000	3
111.100000	2
112.150000	13
113.100000	5
114.100000	2
115.100000	4
116.100000	1
117.100000	6
118.100000	1
119.100000	3
120.100000	1
121.100000	2
122.100000	4
123.100000	4
124.150000	77
125.150000	12
126.200000	7
127.200000	2
128.200000	6
129.200000	1
130.150000	12
131.100000	12
132.100000	11
133.200000	14
134.200000	5
135.200000	7
136.200000	3
137.200000	3
138.200000	1
139.150000	17
140.100000	4
141.100000	4
142.100000	2
143.100000	2
144.100000	3
145.100000	1
146.200000	1
147.200000	66
148.200000	11
149.200000	7
150.200000	7
151.200000	3
152.200000	2
153.200000	5
154.200000	2
155.200000	5
156.200000	1
157.200000	1
158.200000	2
159.200000	3
160.200000	3
161.200000	1
162.200000	1
163.200000	6
164.200000	3
165.200000	7
166.200000	3
167.200000	6
168.150000	57
169.200000	12
170.200000	5
171.200000	1
172.200000	1
173.200000	1
174.200000	4
175.200000	1
176.200000	1
177.200000	1
178.200000	1
179.200000	3
180.200000	112
181.150000	25
182.200000	7
183.200000	2
184.200000	1
185.200000	2
186.200000	1
187.200000	1
188.200000	1
189.200000	1
190.200000	3
191.200000	2
192.200000	1
193.200000	1
194.200000	4
195.200000	5
196.150000	477
197.150000	77
198.200000	23
199.150000	17
200.100000	4
201.100000	1
202.100000	3
203.100000	3
204.100000	2
205.100000	2
206.100000	1
207.100000	3
208.100000	29
209.100000	8
210.100000	3
211.100000	1
213.100000	1
214.100000	1
215.100000	1
216.100000	1
217.200000	3
218.150000	129
219.150000	27
220.200000	13
221.200000	2
222.200000	2
223.200000	5
224.200000	8
225.200000	2
226.200000	1
227.200000	1
228.200000	1
229.200000	1
230.200000	1
231.200000	1
232.200000	2
233.200000	1
234.200000	1
235.200000	1
236.200000	1
238.200000	2
239.200000	1
240.200000	1
241.200000	1
242.200000	1
244.200000	2
245.200000	2
246.200000	1
247.200000	1
248.200000	1
249.200000	1
250.200000	1
251.200000	1
252.200000	1
253.200000	2
254.200000	2
255.200000	1
256.200000	1
257.200000	3
258.200000	1
259.200000	1
260.200000	1
262.200000	1
263.200000	1
264.200000	1
265.200000	1
266.200000	1
268.200000	1
269.200000	1
270.250000	26
271.200000	7
272.200000	3
273.200000	1
274.200000	1
276.200000	1
278.200000	1
279.200000	1
280.200000	7
281.200000	2
282.200000	2
283.200000	1
284.200000	1
285.200000	1
286.200000	1
287.200000	1
288.200000	1
289.200000	1
290.200000	1
291.200000	1
292.200000	1
293.200000	1
294.200000	1
295.200000	2
296.200000	2
297.200000	1
298.250000	21
299.200000	5
300.200000	5
301.200000	1
302.200000	2
303.200000	1
304.200000	1
305.200000	1
306.200000	1
307.200000	1
308.200000	1
309.200000	1
310.200000	1
311.200000	1
312.200000	1
313.300000	19
314.200000	10
315.200000	3
316.200000	2
317.200000	1
318.200000	1
319.200000	1
320.200000	1
321.200000	1
322.200000	1
323.200000	1
324.200000	1
325.200000	1
326.200000	1
327.200000	1
328.200000	1
329.200000	1
330.200000	1
331.200000	2
332.200000	1
333.200000	2
334.200000	1
335.200000	1
336.200000	1
337.200000	1
338.200000	1
339.200000	1
340.200000	1
341.200000	1
342.200000	2
343.200000	1
344.200000	1
345.200000	1
346.200000	1
347.200000	1
349.200000	1
350.200000	1
351.200000	1
352.200000	1
354.200000	1
355.200000	2
356.200000	1
357.200000	1
358.200000	1
359.200000	1
360.200000	1
361.200000	1
362.200000	1
363.200000	1
364.200000	1
367.200000	1
368.200000	1
369.200000	1
370.200000	1
371.200000	1
372.200000	1
374.200000	1
375.200000	1
377.200000	1
378.200000	1
379.200000	1
381.200000	1
383.200000	1
384.200000	1
385.200000	1
386.200000	1
387.200000	1
388.200000	1
389.200000	1
390.200000	1
391.200000	1
392.200000	1
393.200000	1
394.200000	1
395.200000	1
396.200000	1
398.200000	1
399.200000	1
402.200000	1
403.200000	1
404.200000	1
405.200000	1
407.200000	1
408.200000	1
409.200000	1
412.200000	1
415.200000	1
416.200000	1
417.200000	3
418.200000	2
419.200000	1
420.200000	1
422.200000	1
424.200000	1
425.200000	1
427.200000	1
428.200000	1
429.200000	1
432.200000	2
433.200000	1
434.200000	1
436.200000	1
438.200000	1
439.200000	1
441.200000	1
443.200000	1
444.200000	1
445.200000	1
446.200000	1
447.200000	1
448.200000	1
449.200000	1
450.200000	1
451.200000	1
452.200000	1
453.200000	1
454.200000	1
455.200000	1
456.200000	1
457.200000	1
459.200000	1
460.200000	1
461.200000	1
462.200000	1
463.200000	1
464.200000	1
465.200000	1
466.200000	1
467.200000	1
468.200000	1
469.200000	1
470.200000	1
472.200000	1
474.200000	1
475.200000	1
476.200000	1
477.200000	1
478.200000	1
479.200000	1
481.200000	1
482.200000	1
483.200000	1
484.200000	1
486.200000	1
487.200000	1
488.200000	1
489.200000	1
491.200000	1
492.200000	1
493.200000	1
494.200000	1
496.200000	1
497.200000	1
498.200000	1
