Mass spectrum: Citramalic acid; EI-B; MS; n TMS; RT: 572.84 s
Name: Citramalic acid
Class: Natural Product
Formula: C5H8O5
Exact mass: 148.03717
SMILES: C[C@@](CC(=O)O)(C(=O)O)O
InChI: InChI=1S/C5H8O5/c1-5(10,4(8)9)2-3(6)7/h10H,2H2,1H3,(H,6,7)(H,8,9)/t5-/m1/s1
Instrument: GCMS-2010 Plus, Shimadzu
Instrument type: EI-B
Ms type: MS
Ion mode: POSITIVE
Column name: InertCap 5MS/NP 0.25 mmI.D. x 30 m, df=0.25 um
Retention time: 572.84
Derivative type: n TMS
m/z	relative intensity
86.000000	7
87.000000	7
88.000000	3
89.000000	5
90.000000	1
91.000000	1
92.000000	1
93.000000	1
95.000000	1
96.000000	2
97.000000	4
98.000000	3
99.000000	14
100.000000	3
101.000000	9
102.000000	4
103.000000	11
104.000000	2
105.000000	4
106.000000	1
107.000000	1
108.000000	1
109.000000	1
110.000000	1
111.000000	2
112.000000	2
113.000000	8
114.100000	4
115.050000	307
116.050000	35
117.050000	90
118.050000	11
119.000000	14
120.000000	1
121.000000	1
122.000000	1
123.000000	1
124.000000	1
125.000000	1
126.000000	1
127.000000	1
128.100000	2
129.100000	24
130.050000	8
131.050000	59
132.050000	11
133.050000	130
134.050000	18
135.050000	15
136.000000	2
137.000000	1
138.000000	1
139.000000	1
140.000000	1
141.000000	3
142.000000	2
143.000000	39
144.000000	6
145.050000	23
146.100000	4
147.050000	999
148.100000	150
149.050000	148
150.050000	19
151.000000	13
152.000000	2
153.000000	1
154.000000	1
155.000000	1
156.000000	2
157.050000	43
158.000000	6
159.000000	7
160.000000	1
161.000000	3
162.100000	1
163.100000	112
164.100000	15
165.100000	10
166.100000	2
167.100000	1
168.100000	1
169.100000	2
170.100000	1
171.100000	3
172.100000	1
173.100000	3
174.100000	2
175.100000	8
176.100000	2
177.100000	2
178.100000	1
179.100000	1
180.100000	1
181.100000	1
182.100000	1
184.000000	1
185.000000	65
186.000000	8
187.000000	5
188.000000	1
189.000000	55
190.000000	23
191.000000	15
192.000000	5
193.000000	2
195.000000	1
196.000000	1
197.000000	1
199.000000	2
200.000000	1
201.000000	2
202.100000	1
203.050000	157
204.050000	39
205.050000	35
206.000000	8
207.000000	7
208.000000	2
209.000000	1
210.000000	1
211.000000	1
212.000000	1
214.000000	1
215.000000	12
216.000000	4
217.000000	55
217.950000	10
218.900000	8
220.000000	2
221.000000	64
222.000000	13
223.000000	9
224.000000	1
225.000000	1
226.000000	1
228.000000	1
229.000000	1
230.000000	1
231.050000	149
232.050000	27
233.050000	79
234.000000	14
235.000000	7
236.000000	2
237.000000	5
238.000000	1
239.000000	1
241.000000	1
242.000000	1
243.000000	1
244.000000	1
245.000000	1
246.100000	5
247.100000	781
248.050000	165
249.050000	72
250.100000	10
251.100000	2
252.100000	1
253.100000	1
254.100000	1
255.100000	1
256.100000	1
257.100000	1
258.000000	1
259.000000	160
260.000000	37
261.000000	21
262.000000	2
263.000000	2
264.000000	1
267.000000	1
268.000000	1
269.000000	1
271.000000	1
272.000000	1
273.000000	1
274.000000	1
275.000000	1
276.000000	1
277.100000	26
278.100000	6
279.050000	9
280.000000	1
281.000000	1
282.000000	1
284.000000	1
285.000000	1
286.000000	1
287.000000	1
288.000000	1
289.000000	1
290.000000	1
291.000000	1
292.000000	1
293.000000	1
294.000000	1
295.000000	1
296.000000	1
297.000000	1
298.000000	1
299.000000	1
300.000000	1
301.000000	1
302.000000	1
303.000000	1
305.050000	21
306.100000	8
307.100000	6
308.100000	2
309.100000	1
310.100000	1
311.100000	1
312.100000	1
313.100000	1
317.100000	1
319.100000	1
320.100000	1
321.050000	115
322.050000	33
323.000000	17
324.000000	3
325.000000	1
326.000000	1
327.000000	1
329.000000	1
331.000000	1
332.000000	1
333.000000	4
334.000000	2
335.000000	1
339.000000	1
340.000000	1
341.000000	1
342.000000	1
343.000000	1
344.000000	1
345.000000	1
346.000000	1
348.000000	1
349.050000	55
350.050000	18
351.100000	7
352.100000	1
353.100000	1
354.100000	1
355.100000	1
356.100000	1
358.100000	1
360.100000	1
361.100000	1
362.100000	1
363.100000	1
364.100000	1
365.100000	1
366.100000	1
367.100000	1
368.100000	1
369.100000	1
370.100000	1
372.100000	1
373.100000	1
374.100000	1
375.100000	1
376.100000	1
378.100000	1
379.100000	1
380.100000	1
381.100000	1
382.100000	1
383.100000	1
384.100000	1
388.100000	1
389.100000	1
390.100000	1
391.100000	1
392.100000	1
393.100000	1
394.100000	1
395.100000	1
396.100000	1
397.100000	1
398.100000	1
399.100000	1
400.100000	1
401.100000	1
403.100000	1
404.100000	1
405.100000	1
406.100000	1
407.100000	1
408.100000	1
409.100000	1
410.100000	1
411.100000	1
413.100000	1
414.100000	1
415.100000	1
416.100000	1
418.100000	1
419.100000	1
420.100000	1
421.100000	1
422.100000	1
423.100000	1
424.100000	1
425.100000	1
426.100000	1
428.100000	1
429.100000	1
430.100000	1
431.100000	1
432.100000	1
433.100000	1
434.100000	1
435.100000	1
436.100000	1
437.100000	1
438.100000	1
439.100000	1
440.100000	1
441.100000	1
442.100000	1
443.100000	1
444.100000	1
445.100000	1
446.100000	1
447.100000	1
448.100000	1
449.100000	1
450.100000	1
451.100000	1
452.100000	1
453.100000	1
454.100000	1
456.100000	1
457.100000	1
458.100000	1
459.100000	1
460.100000	1
463.100000	1
464.100000	1
465.100000	1
466.100000	1
467.100000	1
468.100000	1
469.100000	1
470.100000	1
471.100000	1
472.100000	1
473.100000	1
474.100000	1
475.100000	1
477.100000	1
478.100000	1
479.100000	1
480.100000	1
482.100000	1
483.100000	1
484.100000	1
486.100000	1
487.100000	1
488.100000	1
489.100000	1
490.100000	1
491.100000	1
492.100000	1
493.100000	1
494.100000	1
495.100000	1
496.100000	1
497.100000	1
498.100000	1
499.100000	1
