Mass spectrum: Glycerol; EI-B; MS; 3 TMS; RT: 453.00 s
Name: Glycerol
Class: Natural Product
Formula: C3H8O3
Exact mass: 92.04734
SMILES: OCC(O)CO
InChI: InChI=1S/C3H8O3/c4-1-3(6)2-5/h3-6H,1-2H2
Instrument: GCMS-2010 Plus, Shimadzu
Instrument type: EI-B
Ms type: MS
Ion mode: POSITIVE
Column name: InertCap 5MS/NP 0.25 mmI.D. x 30 m, df=0.25 um
Retention time: 453.00
Derivative type: 3 TMS
m/z	relative intensity
86.050000	2
87.000000	12
88.000000	8
89.000000	47
90.000000	5
91.000000	2
92.000000	1
93.000000	1
94.000000	1
95.000000	1
96.000000	1
97.000000	1
98.000000	1
99.000000	4
100.000000	1
101.000000	59
102.050000	9
103.000000	443
104.000000	43
105.000000	22
106.000000	1
107.000000	1
108.000000	1
109.000000	1
111.000000	1
112.000000	1
113.000000	10
114.000000	1
114.950000	16
116.050000	35
117.000000	437
118.000000	42
118.950000	32
120.000000	2
121.000000	1
122.000000	1
123.000000	1
124.000000	1
125.000000	1
126.000000	1
127.000000	1
128.050000	4
129.050000	98
130.000000	12
131.000000	66
132.050000	10
133.000000	165
134.000000	22
134.950000	15
136.000000	1
137.000000	1
138.000000	1
140.000000	1
141.000000	1
142.000000	1
143.000000	1
144.000000	1
145.000000	3
146.050000	3
147.050000	999
148.050000	147
149.000000	105
150.050000	11
151.000000	4
152.000000	1
153.000000	1
154.000000	1
155.000000	1
156.000000	1
157.000000	1
158.000000	1
159.000000	7
160.000000	1
161.000000	3
162.050000	3
163.000000	19
164.000000	2
165.000000	2
166.000000	1
167.000000	1
169.000000	1
170.000000	1
171.000000	1
172.000000	1
173.000000	2
174.000000	7
174.950000	17
175.950000	5
176.950000	44
177.950000	7
178.950000	5
180.000000	1
181.000000	1
184.000000	1
185.000000	1
186.000000	1
187.000000	1
187.900000	1
188.950000	14
189.950000	2
190.950000	66
191.950000	11
192.900000	6
193.900000	1
194.900000	1
195.900000	1
196.900000	1
197.900000	1
198.900000	1
199.900000	1
200.900000	1
202.000000	1
202.950000	77
203.950000	92
204.950000	559
205.950000	122
206.950000	55
207.950000	7
208.900000	2
209.900000	1
210.900000	1
211.900000	1
212.900000	1
216.950000	28
217.950000	233
218.950000	49
219.900000	19
220.900000	11
221.900000	2
222.900000	1
223.900000	1
224.900000	1
226.900000	1
228.900000	1
229.900000	1
231.900000	1
232.900000	1
233.900000	1
234.900000	1
235.900000	1
237.900000	1
238.900000	1
239.900000	1
240.900000	1
241.900000	1
242.900000	1
243.900000	1
244.900000	1
245.900000	1
246.900000	1
247.900000	1
248.900000	1
249.900000	1
250.900000	1
251.900000	1
252.900000	1
253.900000	1
254.900000	1
255.900000	1
257.900000	1
258.900000	1
259.900000	1
260.900000	1
261.900000	1
263.000000	4
264.000000	1
265.000000	1
266.000000	1
267.000000	1
268.000000	1
269.000000	1
270.000000	1
271.000000	1
272.000000	1
273.000000	1
274.000000	1
275.000000	1
276.000000	1
278.000000	1
279.000000	1
280.000000	1
283.000000	1
284.000000	1
285.000000	1
287.000000	1
288.000000	1
289.000000	1
290.000000	1
291.000000	1
291.900000	1
292.950000	18
293.950000	5
294.950000	3
296.000000	1
297.000000	1
298.000000	1
299.000000	1
300.000000	1
301.000000	1
302.000000	1
303.000000	1
304.000000	1
305.000000	1
306.000000	1
307.000000	1
308.000000	1
310.000000	1
311.000000	1
312.000000	1
313.000000	1
315.000000	1
317.000000	1
318.000000	1
319.000000	1
321.000000	1
322.000000	1
323.000000	1
324.000000	1
325.000000	1
326.000000	1
328.000000	1
329.000000	1
330.000000	1
331.000000	1
334.000000	1
336.000000	1
337.000000	1
339.000000	1
340.000000	1
341.000000	1
342.000000	1
343.000000	1
344.000000	1
345.000000	1
346.000000	1
347.000000	1
349.000000	1
350.000000	1
351.000000	1
353.000000	1
356.000000	1
357.000000	1
358.000000	1
359.000000	1
363.000000	1
364.000000	1
366.000000	1
367.000000	1
369.000000	1
371.000000	1
373.000000	1
374.000000	1
375.000000	1
376.000000	1
377.000000	1
378.000000	1
380.000000	1
381.000000	1
382.000000	1
384.000000	1
385.000000	1
387.000000	1
389.000000	1
390.000000	1
391.000000	1
393.000000	1
395.000000	1
396.000000	1
397.000000	1
398.000000	1
400.000000	1
401.000000	1
403.000000	1
404.000000	1
406.000000	1
407.000000	1
408.000000	1
409.000000	1
411.000000	1
412.000000	1
413.000000	1
414.000000	1
415.000000	1
417.000000	1
418.000000	1
419.000000	1
420.000000	1
421.000000	1
423.000000	1
424.000000	1
425.000000	1
426.000000	1
428.000000	1
429.000000	1
430.000000	1
432.000000	1
433.000000	1
434.000000	1
437.000000	1
438.000000	1
439.000000	1
440.000000	1
441.000000	1
444.000000	1
446.000000	1
447.000000	1
449.000000	1
450.000000	1
451.000000	1
452.000000	1
453.000000	1
454.000000	1
455.000000	1
456.000000	1
459.000000	1
460.000000	1
462.000000	1
463.000000	1
464.000000	1
466.000000	1
467.000000	1
468.000000	1
469.000000	1
470.000000	1
471.000000	1
472.000000	1
473.000000	1
474.000000	1
475.000000	1
477.000000	1
478.000000	1
479.000000	1
480.000000	1
482.000000	1
483.000000	1
484.000000	1
485.000000	1
486.000000	1
487.000000	1
489.000000	1
490.000000	1
492.000000	1
493.000000	1
494.000000	1
495.000000	1
497.000000	1
498.000000	1
