Mass spectrum: Paeonol; EI-B; MS; n TMS; RT: 654.78 s
Name: Paeonol
Class: Natural Product
Formula: C9H10O3
Exact mass: 166.06299
SMILES: COc(c1)cc(O)c(c1)C(C)=O
InChI: InChI=1S/C9H10O3/c1-6(10)8-4-3-7(12-2)5-9(8)11/h3-5,11H,1-2H3
Instrument: GCMS-2010 Plus, Shimadzu
Instrument type: EI-B
Ms type: MS
Ion mode: POSITIVE
Column name: InertCap 5MS/NP 0.25 mmI.D. x 30 m, df=0.25 um
Retention time: 654.78
Derivative type: n TMS
m/z	relative intensity
86.000000	3
87.000000	4
88.000000	7
89.050000	25
90.000000	15
91.050000	33
92.000000	10
93.000000	10
94.000000	5
95.000000	14
96.000000	5
97.000000	5
98.000000	2
99.000000	7
100.000000	3
101.000000	2
102.000000	4
103.100000	12
104.050000	88
105.050000	21
106.100000	14
107.100000	11
108.100000	4
109.100000	7
110.100000	7
111.100000	12
112.100000	6
113.100000	3
114.100000	1
115.100000	4
116.100000	2
117.100000	7
118.100000	2
119.100000	7
120.100000	5
121.050000	22
122.100000	6
123.100000	7
124.100000	1
125.100000	3
126.100000	1
127.100000	1
129.100000	3
130.100000	1
131.100000	7
132.100000	2
133.100000	7
134.100000	5
135.100000	13
136.100000	5
137.100000	15
138.100000	3
139.100000	1
140.100000	2
141.100000	3
142.100000	1
143.100000	2
144.100000	1
145.100000	5
146.100000	4
147.100000	9
148.100000	4
149.100000	21
150.000000	24
151.000000	37
152.000000	8
153.000000	7
154.000000	1
155.000000	2
156.000000	1
157.000000	2
159.000000	2
160.000000	1
161.000000	7
162.000000	6
163.000000	10
164.000000	1
165.000000	39
166.000000	13
167.000000	4
168.000000	1
169.000000	3
170.000000	1
171.000000	1
173.000000	2
174.000000	5
175.000000	4
176.000000	1
177.000000	12
178.000000	4
178.950000	25
180.000000	218
181.000000	77
182.000000	16
183.000000	14
184.000000	2
185.000000	1
186.000000	1
187.000000	2
188.000000	1
189.000000	7
190.000000	5
191.000000	7
192.000000	7
193.000000	23
194.000000	6
195.000000	6
196.000000	5
197.000000	2
200.000000	1
201.000000	3
203.000000	1
204.000000	2
205.000000	52
206.000000	14
207.000000	15
207.950000	24
209.000000	6
210.000000	2
211.000000	2
212.000000	1
213.000000	1
214.000000	1
215.000000	1
217.000000	2
218.000000	1
219.000000	6
220.000000	1
221.000000	3
222.000000	5
223.000000	999
224.000000	181
225.000000	53
226.000000	7
227.000000	1
228.000000	2
229.000000	2
230.000000	2
231.000000	1
232.000000	1
233.000000	1
234.000000	1
235.000000	1
236.000000	1
237.000000	5
238.000000	11
239.000000	3
240.000000	3
241.000000	2
242.000000	1
243.000000	2
244.000000	1
245.000000	2
246.000000	1
247.000000	1
249.000000	2
250.000000	2
251.000000	2
252.000000	1
253.000000	1
254.000000	2
255.000000	2
256.000000	1
257.000000	1
258.000000	1
259.000000	1
260.000000	1
261.000000	2
263.000000	3
264.000000	3
265.000000	2
266.000000	1
267.000000	2
268.000000	1
269.000000	2
270.000000	1
271.000000	2
272.000000	1
273.000000	1
276.000000	3
277.000000	1
278.000000	3
280.000000	1
281.000000	2
282.000000	1
283.000000	1
284.000000	1
285.000000	2
286.000000	1
287.000000	2
288.000000	1
289.000000	2
290.000000	2
291.000000	1
292.000000	2
293.000000	1
295.000000	1
297.000000	1
298.000000	1
299.000000	1
300.000000	1
302.000000	1
303.000000	2
304.000000	3
305.000000	2
306.000000	1
307.000000	1
309.000000	3
310.000000	2
311.000000	1
315.000000	1
317.000000	1
318.000000	2
319.000000	1
320.000000	1
321.000000	1
323.000000	1
324.000000	3
325.000000	1
326.000000	1
327.000000	1
328.000000	1
329.000000	1
330.000000	1
331.000000	1
332.000000	1
333.000000	1
334.000000	1
335.000000	1
336.000000	1
337.000000	1
338.000000	1
339.000000	1
340.000000	1
341.000000	1
343.000000	1
344.000000	1
345.000000	1
346.000000	1
347.000000	1
349.000000	1
350.000000	2
351.000000	1
352.000000	1
353.000000	1
354.000000	1
355.000000	1
356.000000	1
358.000000	2
359.000000	1
360.000000	2
361.000000	1
362.000000	1
363.000000	2
364.000000	3
365.000000	1
366.000000	1
367.000000	1
370.000000	1
371.000000	1
374.000000	3
375.000000	1
376.000000	1
377.000000	1
378.000000	1
379.000000	1
380.000000	2
381.000000	1
382.000000	1
383.000000	1
384.000000	1
385.000000	2
386.000000	1
387.000000	1
388.000000	1
389.000000	1
390.000000	2
392.000000	1
393.000000	1
394.000000	1
396.000000	2
398.000000	2
399.000000	1
400.000000	2
401.000000	2
402.000000	2
403.000000	1
404.000000	2
405.000000	2
406.000000	2
407.000000	1
410.000000	1
411.000000	1
412.000000	2
413.000000	2
414.000000	2
415.000000	1
416.000000	2
417.000000	1
418.000000	2
419.000000	2
420.000000	2
422.000000	1
424.000000	1
425.000000	2
426.000000	1
427.000000	1
428.000000	1
430.000000	1
433.000000	1
434.000000	1
435.000000	2
436.000000	1
437.000000	1
438.000000	2
439.000000	3
440.000000	1
441.000000	1
442.000000	1
443.000000	3
444.000000	1
445.000000	1
446.000000	1
447.000000	1
448.000000	1
449.000000	1
450.000000	1
451.000000	1
453.000000	2
454.000000	1
455.000000	1
456.000000	1
457.000000	2
458.000000	3
460.000000	2
462.000000	1
464.000000	2
465.000000	1
466.000000	1
467.000000	1
468.000000	1
469.000000	1
470.000000	1
471.000000	1
472.000000	1
473.000000	1
474.000000	1
475.000000	1
476.000000	1
477.000000	2
478.000000	1
479.000000	1
480.000000	1
481.000000	1
482.000000	1
484.000000	1
485.000000	1
486.000000	1
488.000000	1
489.000000	1
490.000000	1
491.000000	3
492.000000	1
493.000000	1
494.000000	2
497.000000	2
498.000000	1
499.000000	1
