Mass spectrum: Gentistic acid; EI-B; MS; 3 TMS; RT: 724.56 s
Name: Gentistic acid
Name: Gentisic acid
Class: Natural Product
Formula: C7H6O4
Exact mass: 154.02661
SMILES: Oc(c1)cc(C(O)=O)c(O)c1
InChI: InChI=1S/C7H6O4/c8-4-1-2-6(9)5(3-4)7(10)11/h1-3,8-9H,(H,10,11)
Instrument: GCMS-2010 Plus, Shimadzu
Instrument type: EI-B
Ms type: MS
Ion mode: POSITIVE
Column name: InertCap 5MS/NP 0.25 mmI.D. x 30 m, df=0.25 um
Retention time: 724.56
Derivative type: 3 TMS
m/z	relative intensity
86.100000	1
87.100000	2
88.000000	1
89.050000	4
90.050000	2
91.050000	13
92.050000	1
93.050000	5
94.100000	1
95.100000	4
96.100000	2
97.100000	3
98.100000	1
99.050000	2
100.100000	1
101.100000	1
102.100000	1
103.050000	9
104.100000	6
105.100000	29
106.100000	3
107.100000	5
108.100000	1
109.100000	5
110.100000	1
111.050000	2
112.100000	1
113.100000	1
114.100000	1
115.100000	8
116.150000	2
117.050000	8
118.100000	2
119.100000	12
120.100000	2
121.100000	5
122.100000	1
123.100000	2
124.100000	1
125.100000	1
126.100000	1
127.100000	1
128.100000	2
129.150000	4
130.100000	1
131.100000	15
132.150000	3
133.100000	41
134.100000	6
135.100000	17
136.150000	3
137.100000	5
138.100000	1
139.100000	1
140.100000	1
141.150000	3
142.100000	1
143.150000	4
144.100000	1
145.150000	4
146.200000	1
147.150000	47
148.150000	8
149.150000	64
150.150000	9
151.100000	7
152.150000	1
153.200000	1
154.200000	1
155.200000	1
156.200000	1
157.100000	2
158.100000	1
159.150000	2
160.100000	1
161.100000	5
162.100000	1
163.150000	16
164.100000	4
165.100000	5
166.100000	1
167.100000	3
168.100000	1
169.100000	1
170.100000	1
171.100000	1
172.100000	1
173.100000	1
174.100000	1
175.100000	1
176.100000	1
177.100000	6
178.100000	2
179.100000	11
180.150000	2
181.100000	3
182.100000	1
183.100000	1
184.100000	1
185.100000	1
186.100000	1
187.100000	1
188.100000	1
189.100000	3
190.100000	1
191.100000	10
192.100000	2
193.100000	13
194.050000	3
195.100000	8
196.100000	2
197.100000	1
198.100000	1
199.100000	1
200.100000	1
201.100000	1
202.100000	1
203.100000	2
204.100000	1
205.100000	2
206.100000	1
207.100000	16
208.050000	7
209.050000	13
210.050000	3
211.100000	3
212.100000	1
213.100000	1
214.100000	1
215.100000	1
216.100000	1
217.100000	1
218.100000	1
219.050000	2
220.100000	1
221.050000	7
222.150000	2
223.100000	53
224.100000	12
225.100000	16
226.050000	3
227.100000	1
228.100000	1
229.100000	1
230.100000	1
231.100000	1
232.100000	1
233.100000	2
234.100000	1
235.100000	2
236.150000	1
237.100000	18
238.100000	5
239.150000	9
240.150000	2
241.200000	1
242.200000	1
243.200000	1
244.200000	1
245.200000	1
246.100000	1
247.100000	4
248.100000	1
249.100000	13
250.100000	3
251.100000	9
252.150000	3
253.050000	5
254.050000	1
255.000000	1
256.000000	1
257.000000	1
258.000000	1
259.000000	1
260.000000	1
261.000000	1
262.200000	1
263.150000	12
264.150000	3
265.150000	20
266.150000	5
267.100000	48
268.100000	11
269.100000	5
270.100000	1
271.100000	1
272.100000	1
273.100000	1
274.100000	1
275.100000	1
276.100000	1
277.100000	1
278.100000	1
279.150000	5
280.250000	3
281.200000	44
282.150000	17
283.150000	8
284.150000	2
285.100000	1
286.100000	1
287.100000	1
289.100000	1
290.100000	1
291.100000	1
292.100000	1
293.100000	1
294.100000	1
295.150000	2
296.200000	1
297.150000	64
298.150000	20
299.100000	11
300.150000	2
301.200000	1
302.200000	1
303.200000	1
304.200000	1
305.200000	1
306.200000	1
307.200000	1
308.200000	1
309.150000	2
310.100000	1
311.150000	1
312.200000	1
313.200000	8
314.150000	3
315.300000	1
316.300000	1
318.300000	1
319.300000	1
320.200000	1
321.150000	8
322.150000	2
323.150000	2
324.200000	1
325.200000	1
326.200000	1
327.200000	1
328.200000	1
329.200000	1
330.200000	1
331.200000	1
332.200000	1
333.200000	1
335.200000	1
336.200000	1
337.200000	26
338.150000	9
339.150000	5
340.100000	1
341.100000	1
342.100000	1
343.100000	1
344.100000	1
345.100000	1
346.100000	1
347.100000	1
348.100000	1
349.100000	1
350.100000	1
351.100000	1
352.100000	1
353.150000	3
354.250000	10
355.200000	999
356.200000	303
357.200000	147
358.150000	32
359.200000	8
360.200000	2
361.200000	1
362.200000	1
364.200000	1
365.200000	1
367.200000	1
368.200000	1
369.250000	1
370.250000	33
371.200000	10
372.200000	6
373.200000	1
374.200000	1
375.200000	1
376.200000	1
377.200000	1
379.200000	1
380.200000	1
381.200000	1
382.200000	1
383.200000	1
385.200000	1
387.200000	1
388.200000	1
389.200000	1
390.200000	1
393.200000	1
395.200000	1
396.200000	1
397.200000	1
398.200000	1
399.200000	1
400.200000	1
403.200000	1
404.200000	1
405.200000	1
406.200000	1
407.200000	1
408.200000	1
409.200000	1
410.200000	1
411.200000	1
412.200000	1
413.200000	1
414.200000	1
415.200000	1
416.200000	1
417.200000	1
418.200000	1
419.200000	1
420.200000	1
421.200000	1
422.200000	1
423.200000	1
424.200000	1
425.200000	1
426.200000	1
427.200000	1
429.200000	1
431.200000	1
432.200000	1
433.200000	1
434.200000	1
435.200000	1
436.200000	1
438.200000	1
440.200000	1
442.200000	1
443.200000	1
444.200000	1
445.200000	1
447.200000	1
450.200000	1
453.200000	1
454.200000	1
455.200000	1
456.200000	1
457.200000	1
458.200000	1
459.200000	1
460.200000	1
462.200000	1
463.200000	1
464.200000	1
465.200000	1
466.200000	1
468.200000	1
469.200000	1
470.200000	1
471.200000	1
473.200000	1
474.200000	1
475.200000	1
476.200000	1
478.200000	1
479.200000	1
480.200000	1
482.200000	1
483.200000	1
484.200000	1
485.200000	1
486.200000	1
487.200000	1
488.200000	1
489.200000	1
493.200000	1
494.200000	1
495.200000	1
497.200000	1
498.200000	1
499.200000	1
