Mass spectrum: D-(-)-alpha-Phenylglycine; EI-B; MS; 2 TMS; RT: 597.54 s
Name: D-(-)-alpha-Phenylglycine
Name: D-(-)-a-Phenylglycine
Class: Natural Product
Formula: C8H9NO2
Exact mass: 151.06333
SMILES: OC(=O)C(N)c(c1)cccc1
InChI: InChI=1S/C8H9NO2/c9-7(8(10)11)6-4-2-1-3-5-6/h1-5,7H,9H2,(H,10,11)
Instrument: GCMS-2010 Plus, Shimadzu
Instrument type: EI-B
Ms type: MS
Ion mode: POSITIVE
Column name: InertCap 5MS/NP 0.25 mmI.D. x 30 m, df=0.25 um
Retention time: 597.54
Derivative type: 2 TMS
m/z	relative intensity
86.000000	1
87.050000	1
88.100000	1
89.050000	3
90.050000	5
91.050000	3
92.000000	1
93.000000	1
94.000000	1
95.000000	1
96.000000	1
97.000000	1
98.000000	1
99.100000	1
100.100000	3
101.050000	1
102.050000	1
103.050000	11
104.050000	10
105.050000	7
106.100000	10
107.050000	2
108.100000	1
109.100000	1
109.700000	1
110.700000	1
111.700000	1
112.700000	1
113.700000	1
115.050000	1
116.100000	1
117.050000	5
118.050000	4
119.050000	4
120.050000	1
121.050000	3
122.050000	1
123.100000	1
124.000000	1
125.000000	1
126.000000	1
127.000000	1
128.000000	1
129.100000	1
130.050000	2
131.100000	6
132.100000	8
133.050000	12
134.050000	3
135.050000	9
136.100000	1
137.100000	1
138.100000	1
139.100000	1
140.100000	1
141.100000	1
142.100000	1
143.100000	1
144.100000	1
145.100000	1
146.100000	5
147.100000	72
148.100000	17
149.100000	8
150.100000	1
151.100000	1
152.100000	1
153.100000	1
154.100000	1
155.100000	1
156.100000	1
157.100000	1
158.050000	1
159.100000	1
160.100000	2
161.150000	1
162.100000	31
163.100000	7
164.050000	2
165.100000	1
166.100000	1
167.100000	1
168.100000	1
169.100000	1
170.100000	1
171.100000	1
172.100000	1
173.100000	1
174.050000	1
175.150000	1
176.100000	12
177.150000	10
178.100000	999
179.100000	162
180.100000	44
181.100000	6
182.050000	1
183.100000	1
184.100000	1
185.100000	1
186.100000	1
187.100000	1
188.100000	1
189.000000	1
190.050000	12
191.050000	2
192.100000	1
193.050000	1
194.000000	1
195.000000	1
196.000000	1
197.000000	1
198.000000	1
199.000000	1
200.000000	1
201.000000	1
202.000000	1
203.000000	1
204.000000	1
205.000000	1
206.050000	1
207.000000	1
208.150000	1
209.050000	1
210.000000	1
211.000000	1
212.000000	1
213.000000	1
214.000000	1
215.000000	1
216.000000	1
217.000000	1
218.100000	1
219.100000	1
220.100000	1
221.100000	1
222.100000	1
223.100000	1
224.100000	1
225.100000	1
226.100000	1
227.100000	1
228.100000	1
229.100000	1
230.100000	1
231.100000	1
232.100000	2
233.100000	1
234.100000	1
235.100000	1
236.100000	1
237.100000	1
238.100000	1
240.100000	1
241.100000	1
242.100000	1
243.100000	1
244.100000	1
246.100000	1
247.100000	1
248.100000	1
249.100000	1
250.050000	1
251.150000	1
252.100000	33
253.100000	17
254.100000	5
255.150000	1
256.100000	1
257.100000	1
258.100000	1
259.100000	1
260.100000	1
261.100000	1
262.100000	1
263.100000	1
264.100000	3
265.050000	1
266.100000	1
267.100000	1
268.100000	1
269.100000	1
270.100000	1
271.100000	1
272.100000	1
273.100000	1
275.100000	1
276.100000	1
277.100000	1
278.100000	1
279.100000	1
280.100000	10
281.100000	3
282.100000	1
283.100000	1
284.100000	1
285.100000	1
287.100000	1
289.100000	1
290.100000	1
291.100000	1
292.100000	1
294.100000	1
295.100000	1
296.100000	1
297.100000	1
298.100000	1
299.100000	1
300.100000	1
301.100000	1
302.100000	1
303.100000	1
304.100000	1
306.100000	1
307.100000	1
308.100000	1
309.100000	1
310.100000	1
311.100000	1
312.100000	1
313.100000	1
315.100000	1
316.100000	1
317.100000	1
318.100000	1
320.100000	1
322.100000	1
323.100000	1
325.100000	1
327.100000	1
328.100000	1
329.100000	1
331.100000	1
332.100000	1
333.100000	1
334.100000	1
335.100000	1
336.100000	1
337.100000	1
339.100000	1
340.100000	1
341.100000	1
342.100000	1
343.100000	1
344.100000	1
345.100000	1
346.100000	1
348.100000	1
349.100000	1
350.100000	1
351.100000	1
352.100000	1
354.100000	1
355.100000	1
357.100000	1
359.100000	1
360.100000	1
361.100000	1
362.100000	1
364.100000	1
365.100000	1
366.100000	1
367.100000	1
368.100000	1
370.100000	1
373.100000	1
375.100000	1
376.100000	1
377.100000	1
378.100000	1
379.100000	1
380.100000	1
381.100000	1
382.100000	1
383.100000	1
384.100000	1
387.100000	1
391.100000	1
396.100000	1
397.100000	1
398.100000	1
399.100000	1
400.100000	1
401.100000	1
404.100000	1
405.100000	1
407.100000	1
408.100000	1
409.100000	1
410.100000	1
411.100000	1
414.100000	1
415.100000	1
416.100000	1
417.100000	1
418.100000	1
419.100000	1
420.100000	1
421.100000	1
422.100000	1
423.100000	1
424.100000	1
425.100000	1
426.100000	1
427.100000	1
429.100000	1
430.100000	1
431.100000	1
433.100000	1
434.100000	1
435.100000	1
436.100000	1
437.100000	1
438.100000	1
439.100000	1
440.100000	1
441.100000	1
442.100000	1
445.100000	1
446.100000	1
447.100000	1
448.100000	1
449.100000	1
450.100000	1
451.100000	1
452.100000	1
453.100000	1
458.100000	1
459.100000	1
460.100000	1
461.100000	1
462.100000	1
463.100000	1
464.100000	1
465.100000	1
467.100000	1
468.100000	1
469.100000	1
470.100000	1
471.100000	1
473.100000	1
474.100000	1
475.100000	1
476.100000	1
477.100000	1
478.100000	1
479.100000	1
480.100000	1
481.100000	1
482.100000	1
483.100000	1
484.100000	1
485.100000	1
487.100000	1
489.100000	1
492.100000	1
493.100000	1
494.100000	1
495.100000	1
496.100000	1
497.100000	1
498.100000	1
