Mass spectrum: 2-Aminoadipic acid; EI-B; MS; 3 TMS; RT: 695.32 s
Name: 2-Aminoadipic acid
Class: Natural Product
Formula: C6H11NO4
Exact mass: 161.06881
SMILES: OC(=O)CCC[C@H](N)C(O)=O
InChI: InChI=1S/C6H11NO4/c7-4(6(10)11)2-1-3-5(8)9/h4H,1-3,7H2,(H,8,9)(H,10,11)/t4-/m0/s1
Instrument: GCMS-2010 Plus, Shimadzu
Instrument type: EI-B
Ms type: MS
Ion mode: POSITIVE
Column name: InertCap 5MS/NP 0.25 mmI.D. x 30 m, df=0.25 um
Retention time: 695.32
Derivative type: 3 TMS
m/z	relative intensity
86.050000	13
87.100000	7
88.050000	4
89.050000	5
90.000000	2
91.000000	2
92.000000	1
93.000000	1
94.000000	1
95.100000	1
96.050000	9
97.100000	4
98.100000	73
99.050000	15
100.100000	126
101.100000	19
102.100000	12
103.050000	9
104.100000	2
105.100000	2
106.100000	1
107.100000	1
108.050000	14
109.050000	4
110.000000	1
111.000000	2
112.050000	7
113.050000	3
114.100000	16
115.100000	112
116.050000	45
117.050000	29
118.050000	6
119.050000	5
120.100000	1
121.100000	1
122.100000	1
123.100000	1
124.100000	1
125.100000	1
126.100000	6
127.150000	3
128.100000	316
129.100000	154
130.100000	35
131.050000	42
132.050000	19
133.050000	43
134.000000	7
135.100000	6
136.100000	1
137.100000	1
138.100000	2
139.100000	2
140.100000	3
141.100000	3
142.100000	10
143.100000	8
144.100000	4
145.100000	9
146.150000	4
147.100000	191
148.100000	34
149.100000	30
150.100000	5
151.100000	2
152.100000	3
153.100000	1
154.100000	41
155.100000	10
156.050000	11
157.100000	4
158.000000	2
159.100000	3
160.150000	2
161.200000	2
162.100000	1
163.100000	21
164.050000	4
165.100000	2
166.100000	1
167.100000	1
168.100000	4
169.100000	1
170.100000	58
171.100000	13
172.050000	24
173.100000	5
174.050000	14
175.050000	3
176.000000	2
177.000000	2
178.000000	1
179.000000	1
180.000000	2
181.000000	1
182.050000	20
183.000000	4
184.000000	1
185.000000	1
186.000000	1
187.150000	2
188.050000	35
189.100000	6
190.050000	5
191.000000	3
192.000000	1
193.000000	1
194.000000	1
195.000000	1
196.000000	1
197.000000	1
198.100000	3
199.000000	1
200.050000	5
201.100000	1
202.100000	12
203.050000	22
204.050000	8
205.050000	26
206.000000	5
206.950000	4
208.000000	1
209.000000	1
210.000000	1
211.000000	1
212.000000	2
213.000000	1
214.000000	1
215.000000	1
216.150000	12
217.050000	712
218.100000	204
219.050000	82
220.050000	16
221.050000	14
222.000000	3
223.000000	2
224.000000	1
225.000000	1
226.000000	2
227.100000	1
228.100000	19
229.050000	5
230.050000	3
231.100000	2
232.050000	4
233.100000	1
234.100000	1
235.100000	1
236.100000	1
237.100000	1
238.100000	1
239.100000	1
240.100000	1
241.100000	1
242.100000	2
243.150000	3
244.100000	180
245.100000	40
246.100000	19
247.100000	3
248.100000	1
249.100000	1
251.100000	1
253.100000	1
254.100000	3
255.100000	1
256.100000	1
257.100000	1
258.100000	2
259.150000	11
260.100000	999
261.100000	233
262.100000	95
263.100000	17
264.100000	3
265.100000	1
266.100000	1
267.100000	1
268.100000	1
269.100000	1
270.100000	2
271.100000	1
272.100000	76
273.150000	18
274.100000	8
275.100000	2
276.100000	1
277.100000	1
278.100000	1
279.100000	1
280.100000	1
281.100000	1
282.100000	1
283.100000	1
284.100000	1
285.100000	1
286.100000	2
287.150000	3
288.100000	19
289.100000	5
290.050000	2
291.100000	22
292.050000	6
293.100000	3
294.100000	1
295.100000	1
296.100000	1
298.100000	1
299.100000	1
300.100000	1
301.100000	1
302.100000	1
303.100000	1
304.100000	1
305.100000	1
306.100000	1
307.100000	1
308.100000	1
309.100000	1
310.100000	1
311.100000	1
312.100000	1
314.100000	1
315.100000	1
316.100000	1
317.100000	1
318.100000	1
319.100000	1
320.100000	1
321.100000	1
322.100000	1
325.100000	1
326.100000	1
327.100000	1
328.100000	1
331.100000	1
332.100000	1
333.200000	1
334.200000	13
335.200000	4
336.200000	2
337.200000	1
338.200000	1
339.200000	1
340.200000	1
341.200000	1
342.200000	1
343.200000	1
344.200000	1
345.200000	1
346.200000	1
347.200000	1
348.200000	1
349.200000	1
350.200000	1
351.200000	1
352.200000	1
353.200000	1
354.200000	1
355.200000	1
357.200000	1
358.200000	1
359.200000	1
360.200000	1
361.100000	1
362.150000	55
363.100000	15
364.150000	8
365.100000	2
366.100000	1
367.100000	1
368.100000	1
369.100000	1
370.100000	1
371.100000	1
372.100000	1
373.100000	1
374.100000	1
375.100000	1
376.200000	1
377.150000	39
378.150000	12
379.200000	6
380.200000	2
381.200000	1
382.200000	1
383.200000	1
384.200000	1
385.200000	1
386.200000	1
387.200000	1
388.200000	1
389.200000	1
390.200000	1
391.200000	1
392.200000	1
393.200000	1
394.200000	1
395.200000	1
397.200000	1
398.200000	1
399.200000	1
400.200000	1
401.200000	1
402.200000	1
403.200000	1
404.200000	1
405.200000	1
406.200000	1
407.200000	1
408.200000	1
409.200000	1
410.200000	1
411.200000	1
413.200000	1
415.200000	1
416.200000	1
417.200000	1
418.200000	1
419.200000	1
420.200000	1
421.200000	1
422.200000	1
423.200000	1
424.200000	1
425.200000	1
426.200000	1
427.200000	1
428.200000	1
429.200000	1
430.200000	1
431.200000	1
432.200000	1
433.200000	1
435.200000	1
436.200000	1
437.200000	1
440.200000	1
441.200000	1
442.200000	1
443.200000	1
445.200000	1
446.200000	1
447.200000	1
448.200000	1
449.200000	1
450.200000	1
451.200000	1
452.200000	1
454.200000	1
455.200000	1
456.200000	1
457.200000	1
459.200000	1
461.200000	1
464.200000	1
467.200000	1
468.200000	1
469.200000	1
470.200000	1
471.200000	1
473.200000	1
474.200000	1
475.200000	1
476.200000	1
477.200000	1
478.200000	1
479.200000	1
480.200000	1
481.200000	1
482.200000	1
483.200000	1
484.200000	1
485.200000	1
486.200000	1
487.200000	1
488.200000	1
489.200000	1
490.200000	1
491.200000	1
492.200000	1
493.200000	1
495.200000	1
496.200000	1
497.200000	1
498.200000	1
499.200000	1
