Mass spectrum: beta-Cyano-L-Alanine; EI-B; MS; n TMS; RT: 512.64 s
Name: beta-Cyano-L-Alanine
Name: b-Cyano-L-Alanine
Class: Natural Product
Formula: C4H6N2O2
Exact mass: 114.04293
SMILES: N#CC[C@H](N)C(O)=O
InChI: InChI=1S/C4H6N2O2/c5-2-1-3(6)4(7)8/h3H,1,6H2,(H,7,8)/t3-/m0/s1
Instrument: GCMS-2010 Plus, Shimadzu
Instrument type: EI-B
Ms type: MS
Ion mode: POSITIVE
Column name: InertCap 5MS/NP 0.25 mmI.D. x 30 m, df=0.25 um
Retention time: 512.64
Derivative type: n TMS
m/z	relative intensity
86.050000	7
87.000000	3
88.000000	2
89.000000	2
90.000000	1
91.000000	1
92.000000	1
93.000000	1
94.000000	1
95.000000	1
96.000000	1
97.050000	1
98.050000	16
99.100000	5
100.100000	78
101.050000	10
102.050000	5
103.050000	40
104.050000	3
105.050000	3
106.000000	1
107.000000	1
108.000000	1
109.000000	1
110.100000	1
111.050000	3
112.050000	1
113.050000	2
114.100000	20
115.100000	17
116.050000	6
117.050000	8
118.100000	1
119.050000	1
120.100000	1
121.100000	1
122.100000	1
123.100000	1
124.100000	1
125.100000	6
126.100000	2
127.100000	1
128.100000	1
129.100000	1
130.050000	18
131.100000	16
132.050000	10
133.050000	12
134.050000	2
135.050000	1
136.100000	1
137.100000	1
138.100000	1
139.100000	1
140.150000	7
141.100000	999
142.100000	120
143.100000	38
144.100000	6
145.100000	1
146.150000	2
147.100000	232
148.100000	36
149.100000	19
150.100000	2
151.100000	1
152.100000	1
153.100000	6
154.100000	2
155.100000	1
156.100000	1
157.100000	1
158.100000	3
159.150000	1
160.100000	2
161.100000	1
162.100000	1
163.100000	1
164.100000	1
165.100000	1
166.100000	1
167.100000	1
168.100000	1
169.100000	1
170.100000	1
171.100000	1
172.100000	2
173.100000	1
174.100000	3
175.050000	1
176.100000	1
177.100000	1
178.100000	1
179.100000	1
180.100000	1
181.100000	1
182.100000	1
183.100000	1
184.100000	1
185.100000	1
186.100000	1
187.100000	1
188.100000	1
189.100000	1
190.050000	1
191.050000	1
192.100000	1
193.100000	1
194.100000	1
195.100000	1
196.100000	1
197.100000	1
198.000000	1
199.000000	1
200.000000	1
201.000000	1
202.050000	70
203.050000	16
204.050000	6
205.050000	1
206.000000	1
207.000000	1
208.000000	1
209.000000	1
210.000000	1
212.000000	1
213.000000	1
214.100000	1
215.100000	44
216.100000	10
217.100000	5
218.050000	19
219.050000	4
220.050000	2
221.100000	1
222.100000	1
223.100000	1
224.100000	1
225.050000	1
226.100000	1
227.100000	1
228.100000	1
229.100000	1
230.100000	1
231.100000	1
232.100000	1
234.100000	1
235.100000	1
236.100000	1
238.100000	1
239.100000	1
240.100000	1
241.100000	1
242.100000	1
243.100000	35
244.100000	7
245.100000	3
246.100000	1
247.100000	1
248.100000	1
249.100000	1
250.100000	1
251.100000	1
252.100000	1
253.100000	1
254.100000	1
255.100000	1
256.100000	1
257.100000	1
258.100000	1
259.100000	1
260.100000	1
261.100000	1
262.100000	1
263.100000	1
264.100000	1
265.100000	1
266.100000	1
267.100000	1
268.100000	1
269.100000	1
270.100000	1
271.100000	1
272.100000	1
273.100000	1
274.100000	1
275.100000	1
276.100000	1
277.100000	1
278.100000	1
279.100000	1
280.100000	1
281.100000	1
282.100000	1
283.100000	1
284.100000	1
285.100000	1
286.100000	1
287.100000	1
288.100000	1
290.100000	1
291.100000	1
292.100000	1
293.100000	1
294.100000	1
296.100000	1
297.100000	1
299.100000	1
300.100000	1
301.100000	1
302.100000	1
304.100000	1
305.100000	1
306.100000	1
307.100000	1
308.100000	1
309.100000	1
310.100000	1
311.100000	1
312.100000	1
313.100000	1
314.100000	1
315.100000	1
316.100000	1
317.100000	1
318.100000	1
320.100000	1
321.100000	1
323.100000	1
324.100000	1
326.100000	1
327.100000	1
329.100000	1
330.100000	1
331.100000	1
332.100000	1
333.100000	1
334.100000	1
335.100000	1
336.100000	1
337.100000	1
339.100000	1
340.100000	1
341.100000	1
342.100000	1
343.100000	1
344.100000	1
346.100000	1
347.100000	1
348.100000	1
349.100000	1
350.100000	1
351.100000	1
352.100000	1
353.100000	1
354.100000	1
355.100000	1
356.100000	1
357.100000	1
358.100000	1
359.100000	1
360.100000	1
362.100000	1
363.100000	1
364.100000	1
365.100000	1
366.100000	1
368.100000	1
369.100000	1
370.100000	1
372.100000	1
373.100000	1
374.100000	1
375.100000	1
377.100000	1
378.100000	1
380.100000	1
381.100000	1
383.100000	1
384.100000	1
385.100000	1
386.100000	1
387.100000	1
388.100000	1
389.100000	1
392.100000	1
393.100000	1
395.100000	1
396.100000	1
397.100000	1
399.100000	1
400.100000	1
401.100000	1
402.100000	1
405.100000	1
406.100000	1
407.100000	1
408.100000	1
410.100000	1
412.100000	1
414.100000	1
415.100000	1
416.100000	1
418.100000	1
419.100000	1
423.100000	1
424.100000	1
425.100000	1
426.100000	1
427.100000	1
428.100000	1
429.100000	1
431.100000	1
434.100000	1
436.100000	1
437.100000	1
438.100000	1
439.100000	1
440.100000	1
441.100000	1
442.100000	1
443.100000	1
444.100000	1
448.100000	1
449.100000	1
450.100000	1
451.100000	1
452.100000	1
453.100000	1
455.100000	1
456.100000	1
457.100000	1
458.100000	1
459.100000	1
460.100000	1
461.100000	1
462.100000	1
463.100000	1
464.100000	1
466.100000	1
469.100000	1
470.100000	1
471.100000	1
473.100000	1
474.100000	1
475.100000	1
476.100000	1
477.100000	1
478.100000	1
479.100000	1
480.100000	1
483.100000	1
487.100000	1
488.100000	1
489.100000	1
490.100000	1
491.100000	1
493.100000	1
495.100000	1
496.100000	1
498.100000	1
499.100000	1
