Mass spectrum: 2-Phenylpropionic acid; EI-B; MS; n TMS; RT: 477.40 s
Name: 2-Phenylpropionic acid
Name: 2-Phenylpropionate
Class: Natural Product
Formula: C9H10O2
Exact mass: 150.06808
SMILES: OC(=O)C(C)c(c1)cccc1
InChI: InChI=1S/C9H10O2/c1-7(9(10)11)8-5-3-2-4-6-8/h2-7H,1H3,(H,10,11)
Instrument: GCMS-2010 Plus, Shimadzu
Instrument type: EI-B
Ms type: MS
Ion mode: POSITIVE
Column name: InertCap 5MS/NP 0.25 mmI.D. x 30 m, df=0.25 um
Retention time: 477.40
Derivative type: n TMS
m/z	relative intensity
86.000000	37
87.000000	12
88.000000	5
89.000000	6
90.000000	14
91.000000	8
92.000000	2
93.000000	2
94.000000	13
95.000000	8
96.000000	14
97.000000	9
98.000000	12
99.100000	42
100.100000	263
101.100000	45
102.100000	56
103.100000	16
104.100000	6
105.100000	9
106.100000	4
108.100000	1
109.100000	1
110.100000	4
111.100000	7
112.200000	28
113.100000	24
114.150000	76
115.100000	565
116.050000	69
117.000000	74
118.050000	31
119.000000	12
120.000000	4
121.000000	1
122.000000	1
123.000000	4
124.000000	1
125.000000	4
126.000000	9
127.000000	21
128.100000	33
129.150000	27
130.100000	35
131.100000	52
132.100000	27
133.050000	54
134.000000	8
135.000000	7
136.000000	1
137.000000	1
138.000000	2
139.000000	1
140.000000	2
141.000000	7
142.150000	34
143.150000	283
144.150000	51
145.100000	20
146.100000	11
147.150000	266
148.150000	46
149.100000	51
150.100000	10
151.100000	4
152.100000	3
153.100000	3
154.100000	3
155.100000	4
156.100000	15
157.250000	19
158.200000	908
159.200000	140
160.100000	47
161.100000	5
162.100000	3
163.100000	18
164.100000	5
165.100000	5
166.100000	3
167.100000	2
168.100000	2
169.100000	4
170.100000	14
171.100000	86
172.100000	19
173.100000	33
174.100000	11
175.100000	5
176.100000	5
177.100000	3
178.100000	1
179.100000	4
180.100000	1
181.100000	1
182.100000	2
183.100000	3
184.100000	16
185.100000	15
186.100000	44
187.100000	20
188.100000	12
189.100000	4
190.100000	4
191.100000	2
192.100000	1
193.100000	1
194.100000	1
195.100000	2
196.100000	1
197.100000	3
198.100000	3
199.100000	3
200.100000	13
201.100000	17
202.100000	999
203.150000	182
204.100000	55
205.100000	12
206.100000	4
207.100000	7
208.100000	4
209.100000	3
210.100000	2
211.100000	3
212.100000	1
213.100000	3
214.100000	16
215.100000	9
216.100000	11
217.100000	4
218.100000	72
219.000000	34
220.000000	6
221.000000	10
222.000000	3
223.000000	4
224.000000	1
225.000000	1
226.000000	2
227.000000	4
228.000000	2
229.000000	11
230.000000	1
231.100000	6
232.150000	136
233.100000	34
234.100000	14
235.100000	2
236.100000	1
237.100000	1
238.100000	3
239.100000	1
240.100000	5
241.100000	7
242.100000	7
243.100000	3
244.100000	2
245.100000	4
246.100000	21
247.100000	9
248.100000	3
249.100000	1
250.100000	2
252.100000	1
253.100000	8
254.100000	3
255.100000	3
256.100000	11
257.100000	11
258.100000	13
259.100000	6
260.100000	15
261.100000	4
262.100000	3
263.100000	7
264.100000	7
265.100000	3
266.100000	1
268.100000	3
269.100000	3
270.100000	2
271.100000	2
272.100000	2
273.100000	2
275.100000	1
276.150000	52
277.200000	15
278.200000	6
279.200000	3
280.200000	1
281.200000	3
282.200000	3
283.200000	1
284.200000	2
285.200000	2
286.200000	3
287.200000	1
288.200000	1
289.200000	2
290.200000	2
291.200000	1
292.200000	2
293.200000	1
294.200000	1
295.200000	2
296.200000	1
298.200000	3
299.200000	1
300.200000	1
301.200000	1
302.200000	1
303.200000	2
304.200000	198
305.150000	42
306.100000	18
307.100000	5
308.100000	2
309.100000	3
310.100000	1
311.100000	1
312.100000	3
313.100000	3
314.150000	64
315.200000	16
316.200000	9
317.200000	2
318.200000	1
319.200000	3
321.200000	1
323.200000	3
324.200000	1
325.200000	1
327.200000	5
328.200000	4
329.200000	115
330.200000	37
331.200000	16
332.200000	6
333.200000	2
334.200000	2
336.200000	1
337.200000	1
338.200000	1
339.200000	1
340.200000	2
341.200000	3
342.200000	4
343.200000	1
344.200000	2
345.200000	1
346.200000	2
347.200000	3
349.200000	2
350.200000	1
351.200000	2
352.200000	2
353.200000	1
354.200000	1
357.200000	1
358.200000	3
359.200000	1
360.200000	2
362.200000	2
363.200000	1
364.200000	1
365.200000	3
366.200000	1
368.200000	1
371.200000	1
372.200000	2
373.200000	1
374.200000	1
375.200000	2
376.200000	1
377.200000	2
378.200000	1
379.200000	1
380.200000	1
381.200000	2
382.200000	1
383.200000	1
384.200000	2
385.200000	1
387.200000	1
388.200000	1
389.200000	2
392.200000	1
393.200000	3
394.200000	1
395.200000	1
396.200000	1
397.200000	1
398.200000	2
399.200000	2
400.200000	1
401.200000	2
402.200000	4
403.200000	1
404.200000	1
405.200000	1
406.200000	3
407.200000	1
408.200000	3
409.200000	1
410.200000	1
411.200000	2
412.200000	1
413.200000	1
414.200000	2
415.200000	2
416.200000	3
417.200000	1
418.200000	2
419.200000	1
420.200000	2
421.200000	2
422.200000	3
423.200000	4
424.200000	1
425.200000	1
426.200000	2
427.200000	3
428.200000	1
430.200000	1
431.200000	1
432.200000	3
433.200000	2
435.200000	2
436.200000	2
437.200000	3
438.200000	4
439.200000	3
440.200000	1
441.200000	1
442.200000	1
443.200000	1
446.200000	2
447.200000	1
449.200000	1
450.200000	1
451.200000	1
452.200000	1
453.200000	3
455.200000	3
456.200000	1
457.200000	1
458.200000	2
459.200000	2
460.200000	3
461.200000	1
462.200000	2
463.200000	1
464.200000	1
465.200000	1
466.200000	3
467.200000	2
469.200000	2
470.200000	2
472.200000	3
473.200000	2
474.200000	3
476.200000	2
477.200000	1
480.200000	2
481.200000	2
482.200000	4
484.200000	1
485.200000	1
486.200000	1
487.200000	1
490.200000	2
491.200000	1
492.200000	3
493.200000	1
494.200000	1
496.200000	2
497.200000	3
498.200000	1
499.200000	1
