Mass spectrum: 1,6-Anhydro-beta-D-Glucose; EI-B; MS; 3 TMS; RT: 694.88 s
Name: 1,6-Anhydro-beta-D-Glucose
Name: 1,6-Anhydro-b-D-Glucose
Name: Levoglucosan
Class: Natural Product
Formula: C6H10O5
Exact mass: 162.05282
SMILES: C1[C@@H]2[C@H]([C@@H]([C@H]([C@H](O1)O2)O)O)O
InChI: InChI=1S/C6H10O5/c7-3-2-1-10-6(11-2)5(9)4(3)8/h2-9H,1H2/t2-,3-,4+,5-,6-/m1/s1
Instrument: GCMS-2010 Plus, Shimadzu
Instrument type: EI-B
Ms type: MS
Ion mode: POSITIVE
Column name: InertCap 5MS/NP 0.25 mmI.D. x 30 m, df=0.25 um
Retention time: 694.88
Derivative type: 3 TMS
m/z	relative intensity
86.000000	2
87.000000	9
87.950000	3
88.950000	13
90.000000	1
91.000000	2
92.000000	1
93.000000	1
94.000000	1
95.000000	2
96.000000	2
97.000000	7
97.950000	3
98.950000	16
100.050000	2
101.000000	65
101.950000	9
103.000000	178
104.000000	17
104.950000	12
106.000000	1
107.000000	1
108.000000	1
108.950000	11
110.000000	1
111.000000	10
112.050000	2
112.950000	29
114.000000	4
114.950000	18
116.000000	43
117.000000	95
118.000000	11
118.950000	14
120.000000	2
121.000000	1
122.000000	1
123.000000	1
124.000000	1
124.950000	3
126.000000	2
127.000000	14
128.050000	4
129.000000	228
130.000000	28
130.950000	57
132.000000	8
132.950000	111
134.000000	15
134.950000	12
135.900000	1
136.950000	2
138.000000	1
139.000000	2
140.000000	1
141.000000	5
142.000000	42
142.950000	93
143.950000	12
145.000000	16
146.050000	4
147.000000	358
148.000000	59
149.000000	49
150.000000	6
150.950000	4
152.000000	9
153.000000	5
154.050000	2
154.950000	41
156.000000	6
156.950000	17
158.000000	2
158.950000	15
160.050000	2
161.000000	49
162.000000	6
162.950000	15
164.000000	2
165.000000	1
166.000000	1
167.000000	1
168.000000	2
168.950000	17
170.000000	12
170.950000	49
171.950000	7
172.950000	7
173.950000	6
174.900000	7
175.850000	1
176.900000	20
177.950000	4
178.900000	2
179.900000	1
180.900000	1
181.900000	1
182.900000	15
183.900000	2
184.900000	2
185.900000	1
186.950000	4
187.950000	2
188.900000	246
189.900000	49
190.900000	215
191.900000	38
192.900000	18
193.900000	2
194.900000	1
195.900000	1
196.900000	1
197.900000	1
198.900000	9
199.950000	2
200.900000	4
201.900000	1
202.950000	17
203.900000	999
204.900000	198
205.900000	83
206.900000	14
207.900000	3
208.900000	1
209.900000	1
210.900000	1
211.900000	1
212.900000	1
213.900000	1
214.900000	11
215.950000	8
216.900000	963
217.900000	194
218.900000	87
219.900000	12
220.900000	11
221.950000	2
223.000000	2
224.000000	1
225.000000	1
226.000000	1
226.900000	2
227.900000	1
228.900000	4
229.950000	6
230.900000	15
231.950000	4
232.900000	4
233.900000	1
234.900000	1
235.900000	1
236.900000	1
237.900000	1
238.900000	1
239.900000	1
240.950000	3
241.950000	8
242.950000	73
243.950000	18
244.900000	24
245.900000	6
246.900000	3
247.900000	1
248.900000	2
249.900000	1
250.900000	1
251.900000	1
252.900000	1
253.900000	1
254.900000	1
255.900000	1
256.900000	3
257.900000	1
258.900000	7
259.900000	22
260.900000	13
261.900000	4
262.900000	1
263.900000	1
264.900000	3
265.900000	1
266.900000	1
267.900000	1
268.900000	1
269.900000	1
270.900000	2
271.900000	1
272.900000	13
273.900000	3
274.900000	2
275.900000	1
276.900000	1
277.900000	1
278.900000	1
279.900000	1
280.900000	1
281.900000	1
282.900000	1
283.900000	1
285.900000	1
286.900000	1
287.900000	1
288.900000	1
289.900000	1
290.900000	1
291.900000	1
292.900000	1
293.900000	1
294.900000	1
295.900000	1
296.900000	1
297.900000	1
298.900000	1
299.900000	1
301.900000	1
302.900000	1
303.900000	5
304.950000	9
305.950000	3
306.900000	2
307.900000	1
308.900000	1
309.900000	1
310.900000	1
312.900000	1
314.900000	1
315.900000	1
316.950000	24
317.900000	6
318.900000	5
319.900000	1
320.900000	1
321.900000	1
322.900000	1
324.900000	1
325.900000	1
326.900000	1
327.900000	1
328.900000	1
329.900000	1
330.900000	3
331.950000	15
332.900000	228
333.900000	75
334.900000	34
335.900000	7
336.900000	2
337.900000	1
338.900000	1
340.900000	1
341.900000	1
342.900000	1
343.900000	1
344.900000	1
345.900000	1
346.900000	1
347.900000	1
348.900000	2
349.900000	1
350.900000	1
351.900000	1
352.900000	1
353.900000	1
354.900000	1
357.900000	1
358.900000	1
359.900000	1
360.900000	1
361.900000	1
362.900000	2
363.900000	1
364.900000	1
365.900000	1
366.900000	1
367.900000	1
368.900000	1
369.900000	1
370.900000	1
371.900000	1
372.900000	1
374.900000	1
375.900000	1
376.900000	1
377.900000	1
378.900000	1
379.900000	1
380.900000	1
381.900000	1
382.900000	1
383.900000	1
384.900000	1
385.900000	1
386.900000	1
387.900000	1
388.900000	1
389.900000	1
390.900000	1
391.900000	1
392.900000	1
393.900000	1
394.900000	1
396.900000	1
397.900000	1
398.900000	1
399.900000	1
401.900000	1
402.900000	1
404.900000	1
406.900000	1
408.900000	1
412.900000	1
413.900000	1
415.900000	1
417.900000	1
418.900000	1
419.900000	1
421.900000	1
422.900000	1
425.900000	1
426.900000	1
427.900000	1
429.900000	1
430.900000	1
431.900000	1
432.900000	1
433.900000	1
434.900000	1
435.900000	1
437.900000	1
438.900000	1
439.900000	1
440.900000	1
442.900000	1
443.900000	1
444.900000	1
445.900000	1
446.900000	1
447.900000	1
449.900000	1
451.900000	1
452.900000	1
453.900000	1
456.900000	1
457.900000	1
458.900000	1
461.900000	1
462.900000	1
463.900000	1
464.900000	1
465.900000	1
466.900000	1
467.900000	1
468.900000	1
469.900000	1
470.900000	1
471.900000	1
472.900000	1
473.900000	1
474.900000	1
475.900000	1
476.900000	1
477.900000	1
478.900000	1
479.900000	1
480.900000	1
482.900000	1
483.900000	1
484.900000	1
485.900000	1
486.900000	1
487.900000	1
488.900000	1
491.900000	1
492.900000	1
493.900000	1
496.900000	1
