Mass spectrum: N-alpha-Acetyl-L-Lysine; EI-B; MS; n TMS; RT: 867.55 s
Name: N-alpha-Acetyl-L-Lysine
Name: N-a-Acetyl-L-Lysine
Class: Natural Product
Formula: C8H16N2O3
Exact mass: 188.11609
SMILES: NCCCCC(NC(C)=O)C(O)=O
InChI: InChI=1S/C8H16N2O3/c1-6(11)10-7(8(12)13)4-2-3-5-9/h7H,2-5,9H2,1H3,(H,10,11)(H,12,13)/t7-/m0/s1
Instrument: GCMS-2010 Plus, Shimadzu
Instrument type: EI-B
Ms type: MS
Ion mode: POSITIVE
Column name: InertCap 5MS/NP 0.25 mmI.D. x 30 m, df=0.25 um
Retention time: 867.55
Derivative type: n TMS
m/z	relative intensity
86.050000	117
87.050000	13
88.050000	10
89.100000	2
90.100000	1
91.100000	1
92.100000	1
93.100000	1
94.050000	4
95.050000	4
96.050000	9
97.100000	2
98.100000	33
99.100000	7
100.050000	67
101.050000	8
102.050000	20
103.050000	4
104.050000	2
105.100000	1
106.100000	1
107.100000	1
108.100000	7
109.100000	1
110.050000	2
111.150000	1
112.050000	9
113.050000	4
114.050000	9
115.050000	5
116.050000	22
117.050000	10
118.050000	4
119.050000	2
120.000000	1
121.000000	1
122.000000	1
123.150000	1
124.100000	2
125.100000	2
126.100000	9
127.100000	1
128.050000	12
129.050000	8
130.050000	25
131.050000	17
132.050000	7
133.050000	12
134.050000	3
135.050000	3
136.150000	1
137.100000	1
138.100000	1
139.100000	1
140.100000	3
141.100000	2
142.100000	11
143.100000	4
144.050000	5
145.100000	4
146.100000	11
147.050000	45
148.100000	9
149.100000	7
150.000000	1
151.000000	1
152.100000	2
153.150000	2
154.100000	4
155.150000	3
156.150000	67
157.150000	12
158.100000	15
159.100000	7
160.100000	3
161.100000	1
162.100000	1
163.100000	1
164.100000	1
165.100000	1
166.100000	3
167.050000	1
168.100000	4
169.050000	6
170.100000	4
171.100000	2
172.100000	14
173.150000	9
174.100000	999
175.100000	185
176.100000	78
177.100000	9
178.000000	2
179.100000	2
180.100000	1
181.000000	1
182.050000	5
183.100000	2
184.050000	9
185.100000	3
186.100000	47
187.100000	8
188.050000	6
189.050000	2
190.000000	4
191.050000	1
191.950000	1
192.900000	1
193.900000	1
194.900000	1
195.900000	1
197.150000	1
198.100000	20
199.050000	4
200.050000	23
201.100000	4
202.050000	3
203.000000	1
204.000000	3
205.100000	1
206.000000	1
207.000000	1
208.000000	1
209.000000	1
210.050000	1
211.000000	1
212.100000	1
213.050000	5
214.050000	5
215.100000	2
216.100000	11
217.050000	3
218.050000	1
218.950000	1
220.000000	1
221.000000	5
222.150000	1
223.100000	1
224.100000	1
225.100000	6
226.100000	3
227.050000	2
228.050000	32
229.000000	6
230.050000	5
231.100000	1
232.100000	1
233.100000	1
234.100000	1
235.100000	1
237.100000	1
238.100000	1
239.100000	1
240.100000	1
241.150000	1
242.100000	12
243.100000	3
244.050000	1
245.100000	1
246.050000	1
247.100000	1
248.100000	1
249.100000	1
250.100000	1
251.100000	1
252.100000	1
253.100000	1
254.100000	1
255.100000	1
256.100000	1
257.050000	1
258.050000	3
259.100000	1
260.100000	1
261.100000	4
262.100000	1
263.100000	1
264.100000	1
265.100000	1
266.100000	1
267.100000	1
268.100000	1
269.100000	1
270.100000	1
271.150000	1
272.100000	3
273.150000	1
274.100000	2
275.100000	1
276.100000	1
277.100000	1
278.100000	16
279.050000	4
280.050000	2
281.100000	1
282.100000	1
283.100000	1
284.100000	1
285.100000	1
286.100000	1
287.150000	3
288.100000	3
289.100000	1
290.200000	1
291.200000	1
292.200000	1
293.200000	1
294.200000	1
296.200000	1
297.200000	1
298.100000	1
299.100000	6
300.150000	4
301.100000	2
302.150000	1
303.150000	19
304.150000	5
305.100000	2
306.100000	1
307.100000	1
308.100000	1
309.100000	1
310.100000	1
311.100000	1
312.100000	1
313.100000	1
314.200000	1
315.200000	3
316.150000	1
317.100000	1
318.100000	1
319.100000	1
320.100000	1
321.100000	1
322.100000	1
323.100000	1
324.100000	1
326.100000	1
327.100000	1
328.100000	1
329.100000	1
330.100000	1
331.150000	19
332.100000	6
333.150000	3
334.100000	1
335.100000	1
336.100000	1
337.100000	1
338.100000	1
339.100000	1
340.100000	1
341.100000	1
342.100000	1
343.100000	1
344.100000	1
345.100000	1
346.100000	1
347.100000	1
348.100000	1
349.100000	1
350.100000	1
351.100000	1
352.100000	1
353.100000	1
355.100000	1
356.100000	1
357.100000	1
358.100000	1
359.100000	1
360.100000	1
361.100000	1
362.100000	1
363.100000	1
364.100000	1
366.100000	1
368.100000	1
369.100000	1
370.100000	1
371.100000	1
372.100000	1
373.100000	1
374.100000	1
375.100000	1
376.100000	1
377.100000	1
378.100000	1
379.100000	1
380.100000	1
381.100000	1
382.100000	1
383.100000	1
384.100000	1
385.100000	1
386.100000	1
387.100000	1
388.250000	1
389.150000	38
390.150000	13
391.100000	6
392.100000	2
393.100000	1
394.100000	1
395.100000	1
399.100000	1
401.100000	1
402.100000	1
403.200000	1
404.150000	12
405.150000	5
406.150000	2
407.200000	1
408.200000	1
409.200000	1
411.200000	1
412.200000	1
414.200000	1
415.200000	1
416.200000	1
417.200000	1
418.200000	1
419.200000	1
420.200000	1
421.200000	1
422.200000	1
423.200000	1
424.200000	1
426.200000	1
427.200000	1
428.200000	1
429.200000	1
431.200000	1
432.200000	1
433.200000	1
434.200000	1
435.200000	1
436.200000	1
438.200000	1
439.200000	1
442.200000	1
443.200000	1
444.200000	1
445.200000	1
446.200000	1
447.200000	1
449.200000	1
450.200000	1
451.200000	1
452.200000	1
453.200000	1
454.200000	1
456.200000	1
458.200000	1
459.200000	1
460.200000	1
461.200000	1
462.200000	1
463.200000	1
465.200000	1
466.200000	1
468.200000	1
469.200000	1
470.200000	1
471.200000	1
472.200000	1
473.200000	1
474.200000	1
475.200000	1
476.200000	1
477.200000	1
478.200000	1
479.200000	1
480.200000	1
481.200000	1
482.200000	1
484.200000	1
485.200000	1
486.200000	1
487.200000	1
488.200000	1
489.200000	1
490.200000	1
491.200000	1
492.200000	1
494.200000	1
495.200000	1
496.200000	1
497.200000	1
498.200000	1
