Mass spectrum: Lauric acid; EI-B; MS; 1 TMS; RT: 659.37 s
Name: Lauric acid
Name: Dodecanoic acid
Class: Natural Product
Formula: C12H24O2
Exact mass: 200.17763
SMILES: CCCCCCCCCCCC(O)=O
InChI: InChI=1S/C12H24O2/c1-2-3-4-5-6-7-8-9-10-11-12(13)14/h2-11H2,1H3,(H,13,14)
Instrument: GCMS-2010 Plus, Shimadzu
Instrument type: EI-B
Ms type: MS
Ion mode: POSITIVE
Column name: InertCap 5MS/NP 0.25 mmI.D. x 30 m, df=0.25 um
Retention time: 659.37
Derivative type: 1 TMS
m/z	relative intensity
86.050000	14
87.050000	10
88.050000	7
89.050000	25
90.000000	5
91.050000	8
92.100000	1
93.050000	15
94.150000	2
95.050000	90
96.050000	9
97.100000	44
98.100000	34
99.050000	24
100.050000	3
101.050000	14
102.000000	2
103.050000	4
104.000000	1
105.050000	37
106.050000	3
107.050000	8
108.100000	1
109.100000	28
110.050000	3
111.050000	18
112.100000	11
113.050000	4
114.000000	1
115.050000	7
116.050000	48
117.050000	999
118.050000	97
119.050000	42
120.000000	2
121.050000	5
122.000000	1
123.100000	5
124.100000	1
125.050000	5
126.100000	17
127.100000	6
128.050000	3
129.050000	328
130.050000	43
131.050000	195
132.050000	363
133.050000	62
134.050000	16
135.100000	4
136.100000	1
137.100000	1
138.100000	1
139.100000	9
140.100000	4
141.100000	3
142.100000	1
143.050000	28
144.150000	3
145.050000	160
146.100000	23
147.100000	7
148.100000	1
149.100000	1
150.100000	1
151.100000	1
152.100000	1
153.150000	5
154.100000	2
155.100000	2
156.100000	1
157.050000	10
158.100000	2
159.050000	24
160.050000	4
161.000000	1
162.000000	1
163.000000	3
164.000000	1
165.000000	1
166.000000	1
167.000000	1
168.000000	1
169.000000	1
170.000000	1
171.000000	16
172.050000	3
173.050000	13
174.050000	5
175.000000	1
176.000000	1
177.000000	1
178.000000	1
179.000000	1
181.000000	2
182.000000	1
183.000000	1
184.000000	1
185.000000	21
186.050000	3
187.000000	26
188.050000	5
189.100000	1
190.100000	1
191.100000	1
192.100000	1
193.100000	1
194.100000	1
195.100000	1
196.100000	1
197.100000	1
198.000000	1
199.000000	5
200.000000	1
201.050000	46
202.000000	8
203.000000	3
204.000000	1
205.000000	1
206.000000	1
207.000000	1
208.000000	1
209.000000	1
210.000000	1
211.000000	1
212.100000	1
213.050000	36
214.050000	7
215.000000	13
216.000000	2
217.000000	1
218.000000	1
219.000000	1
220.000000	1
221.000000	1
222.000000	1
225.000000	1
226.000000	1
227.050000	7
228.100000	1
229.050000	33
230.100000	7
231.100000	2
232.100000	1
233.100000	1
234.100000	1
235.100000	1
236.100000	1
237.100000	1
238.100000	1
239.100000	1
241.100000	1
242.100000	1
243.050000	12
244.100000	3
245.100000	1
246.100000	1
247.100000	1
248.100000	1
250.100000	1
251.100000	1
252.100000	1
253.100000	1
254.100000	1
255.100000	1
256.150000	4
257.100000	634
258.100000	121
259.050000	35
260.050000	5
261.100000	1
263.100000	1
264.100000	1
265.100000	1
269.100000	1
270.100000	1
271.100000	2
272.100000	21
273.100000	7
274.100000	2
275.100000	1
276.100000	1
280.100000	1
282.100000	1
284.100000	1
286.100000	1
287.100000	1
289.100000	1
290.100000	1
291.100000	1
292.100000	1
294.100000	1
295.100000	1
296.100000	1
298.100000	1
299.100000	1
300.100000	1
302.100000	1
303.100000	1
304.100000	1
305.100000	1
306.100000	1
307.100000	1
309.100000	1
310.100000	1
313.100000	1
314.100000	1
316.100000	1
320.100000	1
321.100000	1
322.100000	1
324.100000	1
325.100000	1
326.100000	1
327.100000	1
328.100000	1
329.100000	1
331.100000	1
332.100000	1
333.100000	1
334.100000	1
335.100000	1
336.100000	1
337.100000	1
338.100000	1
339.100000	1
341.100000	1
342.100000	1
343.100000	1
344.100000	1
345.100000	1
346.100000	1
347.100000	1
348.100000	1
349.100000	1
352.100000	1
353.100000	1
354.100000	1
355.100000	1
356.100000	1
357.100000	1
359.100000	1
360.100000	1
361.100000	1
362.100000	1
365.100000	1
367.100000	1
368.100000	1
369.100000	1
372.100000	1
373.100000	1
374.100000	1
376.100000	1
377.100000	1
379.100000	1
380.100000	1
382.100000	1
383.100000	1
384.100000	1
385.100000	1
386.100000	1
389.100000	1
390.100000	1
391.100000	1
392.100000	1
393.100000	1
394.100000	1
395.100000	1
396.100000	1
397.100000	1
398.100000	1
399.100000	1
400.100000	1
401.100000	1
403.100000	1
404.100000	1
405.100000	1
406.100000	1
407.100000	1
408.100000	1
409.100000	1
410.100000	1
412.100000	1
413.100000	1
414.100000	1
415.100000	1
416.100000	1
417.100000	1
418.100000	1
419.100000	1
422.100000	1
423.100000	1
424.100000	1
425.100000	1
428.100000	1
429.100000	1
430.100000	1
431.100000	1
432.100000	1
434.100000	1
435.100000	1
436.100000	1
437.100000	1
438.100000	1
439.100000	1
440.100000	1
441.100000	1
442.100000	1
443.100000	1
444.100000	1
445.100000	1
446.100000	1
447.100000	1
451.100000	1
452.100000	1
454.100000	1
455.100000	1
456.100000	1
458.100000	1
459.100000	1
461.100000	1
462.100000	1
464.100000	1
465.100000	1
468.100000	1
469.100000	1
471.100000	1
473.100000	1
474.100000	1
477.100000	1
478.100000	1
479.100000	1
481.100000	1
482.100000	1
483.100000	1
484.100000	1
485.100000	1
487.100000	1
490.100000	1
491.100000	1
493.100000	1
494.100000	1
497.100000	1
498.100000	1
