Mass spectrum: L-Arabinose; EI-B; MS; 4 TMS; RT: 675.45 s
Name: L-Arabinose
Class: Natural Product
Formula: C5H10O5
Exact mass: 150.05282
SMILES: C([C@@H]([C@@H]([C@H](C=O)O)O)O)O
InChI: InChI=1S/C5H10O5/c6-1-3(8)5(10)4(9)2-7/h1,3-5,7-10H,2H2/t3-,4-,5+/m0/s1
Instrument: GCMS-2010 Plus, Shimadzu
Instrument type: EI-B
Ms type: MS
Ion mode: POSITIVE
Column name: InertCap 5MS/NP 0.25 mmI.D. x 30 m, df=0.25 um
Retention time: 675.45
Derivative type: 4 TMS
m/z	relative intensity
86.000000	4
87.000000	7
88.000000	3
89.000000	60
90.000000	5
91.000000	3
92.000000	1
93.000000	1
94.050000	2
95.000000	1
96.000000	1
97.000000	1
98.000000	3
99.000000	3
100.000000	41
101.000000	20
102.050000	18
103.000000	999
104.000000	94
105.000000	56
106.050000	3
107.000000	1
108.000000	1
109.000000	1
110.000000	1
110.950000	2
111.950000	2
113.000000	5
113.950000	10
114.950000	7
116.000000	8
117.000000	74
118.000000	8
118.950000	9
120.000000	1
121.000000	1
122.000000	1
123.000000	1
124.000000	1
125.000000	1
126.000000	4
127.000000	5
128.000000	5
129.000000	70
130.000000	16
130.950000	30
132.000000	5
133.000000	76
133.950000	10
135.000000	7
136.000000	1
137.000000	1
138.000000	1
139.000000	1
140.000000	2
141.000000	2
142.000000	7
143.000000	18
144.000000	3
145.000000	12
146.050000	3
147.000000	300
148.000000	50
148.950000	32
150.000000	4
150.950000	2
151.900000	1
152.900000	1
154.000000	1
155.000000	1
155.950000	2
157.000000	8
158.000000	8
159.000000	4
160.000000	77
161.000000	21
162.000000	5
163.000000	16
163.950000	2
164.900000	1
165.900000	1
166.900000	1
167.950000	6
168.950000	2
169.900000	2
171.000000	1
171.950000	11
172.950000	8
173.950000	19
174.950000	11
175.950000	3
176.950000	6
177.900000	1
178.900000	1
179.900000	1
180.900000	1
181.900000	1
182.900000	1
183.950000	2
184.900000	1
185.950000	3
186.900000	1
187.950000	2
188.950000	130
189.900000	23
190.900000	45
191.900000	7
192.900000	3
193.900000	1
194.900000	1
195.900000	1
196.900000	1
197.900000	8
198.900000	2
199.900000	4
200.950000	23
201.900000	6
202.950000	8
203.900000	89
204.900000	73
205.900000	20
206.850000	9
207.850000	2
208.900000	1
209.900000	1
210.900000	1
211.900000	1
212.900000	1
213.900000	3
214.900000	3
215.950000	12
216.900000	688
217.900000	149
218.900000	63
219.900000	10
220.900000	10
221.850000	2
222.900000	1
223.900000	1
224.900000	1
225.900000	1
226.900000	1
227.900000	3
228.950000	2
229.950000	5
230.900000	14
231.950000	9
232.900000	59
233.900000	22
234.900000	8
235.950000	2
236.900000	1
237.900000	1
238.900000	1
239.900000	4
240.900000	1
241.900000	6
242.900000	3
243.950000	2
244.950000	1
245.900000	4
246.900000	2
247.900000	6
248.900000	1
249.900000	1
250.900000	1
251.900000	1
252.900000	1
253.900000	1
254.900000	1
255.900000	13
256.900000	8
257.900000	3
258.900000	1
259.900000	1
260.950000	1
261.900000	25
262.900000	6
263.900000	3
264.950000	1
265.900000	1
266.900000	1
267.900000	1
268.900000	1
269.900000	1
270.900000	1
271.900000	3
272.900000	1
273.900000	6
274.850000	2
275.950000	1
276.950000	84
277.900000	23
278.950000	12
279.950000	3
281.000000	1
282.000000	1
283.000000	1
284.000000	1
286.000000	1
286.900000	1
287.900000	8
288.800000	2
289.900000	2
290.950000	13
291.900000	4
292.900000	2
293.900000	1
294.900000	1
295.900000	1
297.900000	1
298.900000	1
299.900000	1
300.900000	1
301.900000	3
302.900000	2
303.950000	2
304.900000	5
305.950000	5
306.950000	383
307.950000	111
308.900000	54
309.850000	11
310.900000	3
311.900000	1
312.900000	1
313.900000	1
314.900000	1
315.900000	2
316.900000	1
317.900000	2
318.900000	3
319.850000	1
320.900000	1
321.900000	1
322.900000	1
323.900000	1
324.900000	1
326.900000	1
327.900000	1
328.900000	1
329.900000	11
330.900000	7
331.900000	5
332.900000	2
333.900000	1
334.900000	1
335.900000	1
336.900000	1
337.900000	1
339.900000	1
340.900000	1
341.900000	1
342.900000	1
343.900000	1
344.900000	1
345.900000	1
346.900000	1
347.900000	1
348.900000	1
350.900000	1
351.900000	1
352.900000	1
353.900000	1
355.900000	1
359.900000	1
360.900000	1
361.900000	5
362.850000	2
363.900000	3
364.900000	1
365.900000	1
366.900000	1
367.900000	1
368.900000	1
369.900000	1
370.900000	1
371.900000	1
372.900000	1
373.900000	1
374.900000	1
375.900000	1
376.900000	1
377.900000	1
378.900000	1
379.900000	1
380.900000	1
381.900000	1
382.900000	1
383.900000	1
384.900000	1
385.900000	1
387.900000	1
388.900000	1
389.900000	1
390.900000	1
391.900000	1
392.900000	1
393.900000	1
394.900000	1
395.900000	1
396.900000	1
397.900000	1
398.900000	1
399.900000	1
401.900000	1
403.900000	1
404.900000	1
405.900000	1
406.900000	1
407.900000	1
408.900000	1
409.900000	1
411.900000	1
412.900000	1
413.900000	1
414.900000	1
415.900000	1
416.900000	1
417.900000	1
418.800000	1
419.800000	2
420.850000	2
421.900000	1
422.900000	1
423.900000	1
426.900000	1
427.900000	1
428.900000	1
429.900000	1
430.900000	1
431.900000	1
432.900000	1
433.900000	1
434.900000	1
435.900000	1
436.900000	1
437.900000	1
438.900000	1
439.900000	1
440.900000	1
441.900000	1
443.900000	1
444.900000	1
445.900000	1
447.900000	1
448.900000	1
449.900000	1
450.900000	1
451.850000	3
452.900000	1
453.900000	1
454.900000	1
455.900000	1
456.900000	1
457.900000	1
458.900000	1
459.900000	1
460.900000	1
461.900000	1
462.900000	1
463.900000	1
464.900000	1
465.800000	1
466.850000	4
467.800000	2
468.800000	1
469.800000	1
470.800000	1
471.800000	1
472.800000	1
474.800000	1
477.800000	1
478.800000	1
479.800000	1
480.800000	1
481.800000	1
482.800000	1
486.800000	1
487.800000	1
488.800000	1
489.800000	1
490.800000	1
491.800000	1
492.800000	1
493.800000	1
494.800000	1
495.800000	1
