Mass spectrum: Adipic acid; EI-B; MS; 2 TMS; RT: 585.15 s
Name: Adipic acid
Class: Natural Product
Formula: C6H10O4
Exact mass: 146.05791
SMILES: OC(=O)CCCCC(O)=O
InChI: InChI=1S/C6H10O4/c7-5(8)3-1-2-4-6(9)10/h1-4H2,(H,7,8)(H,9,10)
Instrument: GCMS-2010 Plus, Shimadzu
Instrument type: EI-B
Ms type: MS
Ion mode: POSITIVE
Column name: InertCap 5MS/NP 0.25 mmI.D. x 30 m, df=0.25 um
Retention time: 585.15
Derivative type: 2 TMS
m/z	relative intensity
86.050000	42
87.050000	11
88.050000	7
89.050000	12
90.050000	2
91.100000	5
92.000000	1
93.050000	2
94.000000	1
95.000000	1
96.000000	1
97.050000	4
98.100000	6
99.100000	73
100.100000	12
101.050000	14
102.050000	4
103.050000	6
104.050000	1
105.050000	3
106.100000	1
107.100000	1
108.100000	1
109.100000	4
110.150000	11
111.050000	999
112.100000	68
113.100000	21
114.100000	3
115.050000	15
116.100000	50
117.050000	202
118.100000	22
119.050000	12
120.100000	1
121.100000	1
122.100000	1
123.100000	1
124.100000	1
125.000000	2
126.000000	1
127.100000	3
128.150000	6
129.100000	132
130.100000	58
131.050000	35
132.100000	21
133.050000	64
134.050000	10
135.050000	8
136.000000	1
137.000000	1
138.000000	1
139.000000	1
140.150000	3
141.100000	554
142.100000	82
143.100000	45
144.150000	6
145.100000	13
146.150000	8
147.100000	531
148.150000	84
149.100000	122
150.100000	16
151.100000	8
152.100000	1
153.100000	1
154.100000	3
155.150000	11
156.150000	13
157.100000	56
158.150000	17
159.150000	170
160.150000	22
161.100000	9
162.150000	2
163.200000	3
164.200000	1
165.200000	1
166.200000	1
167.200000	1
168.200000	1
169.100000	2
170.100000	1
171.150000	9
172.100000	267
173.100000	42
174.100000	29
175.150000	5
176.100000	1
177.100000	1
178.100000	1
179.100000	1
181.100000	1
182.100000	1
183.100000	4
184.150000	5
185.050000	260
186.050000	36
187.050000	12
188.050000	1
189.050000	4
190.100000	2
191.050000	3
192.000000	1
193.000000	1
194.000000	1
195.000000	1
196.000000	1
197.000000	1
198.000000	1
199.150000	2
200.100000	30
201.100000	20
202.100000	4
203.100000	7
204.100000	77
205.100000	17
206.100000	8
207.100000	1
208.100000	1
209.100000	1
210.100000	1
211.100000	1
212.100000	1
213.100000	1
214.100000	1
215.100000	19
216.150000	5
217.100000	84
218.100000	24
219.050000	9
220.050000	2
221.000000	1
222.000000	1
223.000000	1
224.000000	1
225.000000	1
226.000000	1
227.000000	1
228.000000	1
229.100000	4
230.150000	1
231.100000	27
232.100000	6
233.150000	3
234.100000	1
235.100000	1
236.100000	1
237.100000	1
238.100000	1
240.100000	1
241.100000	1
243.100000	1
244.100000	1
245.100000	3
246.150000	1
247.150000	20
248.150000	4
249.100000	2
250.100000	1
251.100000	1
252.100000	1
253.100000	1
254.100000	1
255.100000	1
256.100000	1
257.050000	2
258.000000	1
259.000000	1
260.000000	1
261.000000	1
262.000000	1
263.000000	1
264.000000	1
265.000000	1
266.000000	1
267.000000	1
268.000000	1
269.000000	1
270.000000	1
271.000000	1
272.000000	1
273.000000	1
274.100000	1
275.100000	223
276.100000	56
277.100000	22
278.100000	3
279.100000	1
280.100000	1
281.100000	1
282.100000	1
283.100000	1
284.100000	1
285.100000	1
286.100000	1
287.100000	1
288.100000	1
289.100000	1
290.100000	2
291.100000	1
292.100000	1
293.100000	1
294.100000	1
295.100000	1
297.100000	1
299.100000	1
300.100000	1
301.100000	1
302.100000	1
303.100000	1
304.100000	1
305.100000	1
306.100000	1
307.100000	1
309.100000	1
310.100000	1
311.100000	1
312.100000	1
315.100000	1
316.100000	1
317.100000	1
318.100000	1
319.100000	1
321.100000	1
322.100000	1
323.100000	1
324.100000	1
325.100000	1
326.100000	1
327.100000	1
328.100000	1
329.100000	1
330.100000	1
331.100000	1
333.100000	1
334.100000	1
336.100000	1
338.100000	1
339.100000	1
340.100000	1
341.100000	1
342.100000	1
343.100000	1
344.100000	1
345.100000	1
346.100000	1
347.100000	1
348.100000	1
349.100000	1
350.100000	1
351.100000	1
354.100000	1
355.100000	1
356.100000	1
357.100000	1
358.100000	1
359.100000	1
360.100000	1
361.100000	1
362.100000	1
363.100000	1
364.100000	1
365.100000	1
366.100000	1
367.100000	1
368.100000	1
369.100000	1
371.100000	1
373.100000	1
374.100000	1
375.100000	1
376.100000	1
377.100000	1
379.100000	1
380.100000	1
381.100000	1
382.100000	1
383.100000	1
384.100000	1
385.100000	1
386.100000	1
387.100000	1
388.100000	1
389.100000	1
391.100000	1
392.100000	1
393.100000	1
394.100000	1
395.100000	1
396.100000	1
399.100000	1
400.100000	1
401.100000	1
402.100000	1
403.100000	1
404.100000	1
405.100000	1
406.100000	1
407.100000	1
408.100000	1
409.100000	1
410.100000	1
412.100000	1
413.100000	1
414.100000	1
415.100000	1
419.100000	1
420.100000	1
421.100000	1
423.100000	1
426.100000	1
428.100000	1
430.100000	1
431.100000	1
432.100000	1
433.100000	1
435.100000	1
436.100000	1
437.100000	1
438.100000	1
439.100000	1
441.100000	1
442.100000	1
443.100000	1
444.100000	1
445.100000	1
446.100000	1
447.100000	1
448.100000	1
449.100000	1
450.100000	1
452.100000	1
453.100000	1
454.100000	1
455.100000	1
456.100000	1
457.100000	1
458.100000	1
459.100000	1
460.100000	1
461.100000	1
462.100000	1
463.100000	1
464.100000	1
465.100000	1
466.100000	1
467.100000	1
468.100000	1
469.100000	1
472.100000	1
473.100000	1
474.100000	1
475.100000	1
476.100000	1
478.100000	1
479.100000	1
480.100000	1
481.100000	1
482.100000	1
483.100000	1
484.100000	1
485.100000	1
486.100000	1
487.100000	1
488.100000	1
489.100000	1
490.100000	1
491.100000	1
492.100000	1
493.100000	1
495.100000	1
496.100000	1
