Mass spectrum: Ketoisoleucine; EI-B; MS; n TMS; RT: 403.08 s
Name: Ketoisoleucine
Class: Natural Product
Formula: C6H10O3
Exact mass: 130.06299
SMILES: CCC(C)C(=O)C(O)=O
InChI: InChI=1S/C6H10O3/c1-3-4(2)5(7)6(8)9/h4H,3H2,1-2H3,(H,8,9)
Instrument: GCMS-2010 Plus, Shimadzu
Instrument type: EI-B
Ms type: MS
Ion mode: POSITIVE
Column name: InertCap 5MS/NP 0.25 mmI.D. x 30 m, df=0.25 um
Retention time: 403.08
Derivative type: n TMS
m/z	relative intensity
86.000000	134
87.000000	25
88.100000	13
89.050000	999
90.100000	84
91.050000	60
92.000000	6
93.000000	7
94.000000	8
95.000000	6
96.000000	5
97.000000	19
98.100000	47
99.100000	84
100.100000	94
101.100000	15
102.100000	13
103.100000	16
104.100000	6
105.100000	22
106.100000	7
107.100000	5
108.100000	2
109.100000	6
110.100000	283
111.100000	24
112.100000	37
113.100000	359
114.150000	290
115.100000	183
116.150000	30
117.150000	61
118.200000	12
119.200000	9
122.200000	1
123.200000	1
124.200000	4
125.200000	2
126.100000	49
127.100000	21
128.100000	40
129.100000	177
130.100000	29
131.100000	23
132.100000	2
133.100000	3
134.100000	1
135.100000	1
137.100000	1
138.100000	3
139.100000	2
140.150000	90
141.150000	55
142.100000	29
143.100000	14
144.100000	6
145.100000	10
146.100000	2
147.100000	11
148.100000	1
149.100000	3
150.100000	1
151.100000	1
152.100000	1
153.100000	3
154.100000	17
155.100000	6
156.150000	90
157.200000	28
158.150000	28
159.200000	6
160.200000	10
161.200000	4
162.200000	2
163.200000	1
164.200000	1
165.200000	2
166.200000	1
167.200000	2
168.200000	5
169.200000	3
170.200000	4
171.100000	7
172.150000	271
173.150000	41
174.100000	25
175.100000	6
176.100000	3
177.100000	4
178.100000	3
179.100000	1
181.100000	3
182.100000	5
183.100000	6
184.100000	20
185.100000	6
186.100000	2
187.100000	8
188.100000	4
189.100000	470
190.100000	60
191.100000	28
192.100000	5
193.100000	2
195.100000	2
196.100000	1
197.100000	2
198.100000	2
199.100000	1
200.100000	577
201.100000	89
202.150000	33
203.100000	231
204.100000	30
205.100000	8
206.100000	1
207.100000	14
208.100000	6
209.100000	5
210.100000	1
211.100000	2
212.100000	2
213.100000	5
214.100000	2
215.100000	2
216.100000	558
217.150000	96
218.100000	34
219.000000	31
220.000000	3
221.000000	1
222.000000	3
223.000000	3
224.000000	1
225.000000	1
226.000000	3
227.000000	1
228.000000	2
229.000000	1
230.000000	2
231.000000	4
232.000000	2
233.000000	1
234.000000	1
235.000000	1
236.000000	3
237.000000	1
238.000000	1
239.000000	1
240.000000	2
241.000000	1
242.000000	3
243.000000	2
244.000000	2
245.000000	1
246.000000	1
247.000000	3
248.000000	3
253.000000	10
254.000000	1
255.000000	2
256.000000	3
257.000000	2
258.000000	3
259.000000	1
260.000000	2
261.000000	4
262.000000	1
264.000000	6
265.000000	2
266.000000	1
267.000000	2
268.000000	2
269.000000	1
270.000000	1
272.000000	1
273.000000	1
274.000000	3
275.000000	1
276.000000	2
277.000000	1
278.000000	1
279.000000	1
281.000000	5
282.000000	2
283.000000	2
286.000000	1
288.000000	3
289.000000	1
290.000000	1
291.000000	2
294.000000	1
295.000000	3
296.000000	1
298.000000	1
299.000000	3
301.000000	1
302.000000	1
303.000000	2
304.000000	1
305.000000	1
306.000000	3
307.000000	1
308.000000	1
310.000000	1
311.000000	3
312.000000	1
313.000000	1
314.000000	1
316.000000	1
317.000000	2
318.000000	1
319.000000	2
320.000000	2
321.000000	1
322.000000	2
323.000000	1
324.000000	1
325.000000	2
327.000000	3
328.000000	1
329.000000	2
330.000000	1
331.000000	8
332.000000	2
333.000000	2
334.000000	2
335.000000	1
337.000000	1
338.000000	1
339.000000	1
341.000000	2
342.000000	2
343.000000	1
344.000000	1
345.000000	2
346.000000	7
347.000000	2
348.000000	1
349.000000	3
351.000000	4
352.000000	3
355.000000	2
357.000000	1
358.000000	1
360.000000	3
361.000000	3
362.000000	3
363.000000	1
366.000000	5
367.000000	3
369.000000	2
371.000000	2
373.000000	2
375.000000	1
376.000000	1
377.000000	2
378.000000	1
379.000000	1
380.000000	3
381.000000	1
382.000000	3
383.000000	2
384.000000	1
385.000000	1
386.000000	1
390.000000	2
391.000000	1
392.000000	1
393.000000	4
394.000000	1
395.000000	2
396.000000	2
397.000000	2
398.000000	2
399.000000	2
400.000000	1
401.000000	3
402.000000	1
403.000000	1
404.000000	1
405.000000	3
406.000000	3
407.000000	1
408.000000	2
409.000000	1
410.000000	1
411.000000	1
412.000000	1
414.000000	3
415.000000	1
416.000000	1
417.000000	1
420.000000	1
422.000000	2
424.000000	1
425.000000	1
426.000000	1
427.000000	1
428.000000	1
429.000000	1
430.000000	3
431.000000	2
432.000000	3
434.000000	3
435.000000	3
436.000000	1
437.000000	4
439.000000	1
440.000000	2
441.000000	1
442.000000	2
443.000000	2
444.000000	1
445.000000	3
446.000000	3
447.000000	2
448.000000	1
449.000000	1
451.000000	5
453.000000	1
454.000000	1
455.000000	4
456.000000	2
458.000000	2
460.000000	1
461.000000	2
462.000000	2
464.000000	1
465.000000	1
466.000000	1
469.000000	1
470.000000	1
471.000000	2
474.000000	2
475.000000	1
476.000000	4
477.000000	1
478.000000	1
480.000000	2
481.000000	2
482.000000	1
483.000000	1
484.000000	2
486.000000	2
488.000000	1
489.000000	3
490.000000	4
491.000000	1
492.000000	1
493.000000	1
494.000000	2
495.000000	2
496.000000	1
497.000000	1
498.000000	1
