Mass spectrum: alpha-MethylBenzylamine; EI-B; MS; n TMS; RT: 414.72 s
Name: alpha-MethylBenzylamine
Name: a-MethylBenzylamine
Class: Natural Product
Formula: C8H11N
Exact mass: 121.08915
SMILES: CC(N)c(c1)cccc1
InChI: InChI=1S/C8H11N/c1-7(9)8-5-3-2-4-6-8/h2-7H,9H2,1H3
Instrument: GCMS-2010 Plus, Shimadzu
Instrument type: EI-B
Ms type: MS
Ion mode: POSITIVE
Column name: InertCap 5MS/NP 0.25 mmI.D. x 30 m, df=0.25 um
Retention time: 414.72
Derivative type: n TMS
m/z	relative intensity
86.050000	6
87.150000	1
88.150000	2
89.050000	9
90.050000	2
91.050000	8
92.050000	1
93.000000	4
94.000000	1
95.000000	1
96.000000	1
97.000000	1
98.000000	1
99.150000	1
100.100000	29
101.050000	4
102.050000	4
103.100000	27
104.100000	16
105.100000	51
106.100000	16
107.050000	8
108.050000	1
109.100000	2
110.100000	1
111.100000	1
112.100000	1
113.100000	1
114.100000	6
115.150000	6
116.100000	82
117.100000	11
118.050000	5
119.050000	8
120.100000	11
121.050000	10
122.100000	2
123.100000	1
124.100000	1
125.100000	1
126.100000	1
127.100000	1
128.100000	1
129.100000	1
130.050000	1
131.050000	4
132.050000	9
133.050000	10
134.150000	4
135.100000	277
136.100000	39
137.100000	10
138.100000	1
139.100000	1
140.100000	1
141.100000	1
142.100000	1
143.100000	1
144.100000	1
145.050000	14
146.050000	9
147.100000	5
148.050000	5
149.100000	2
150.100000	1
151.100000	1
152.100000	1
153.100000	1
154.100000	1
155.100000	1
156.100000	1
157.100000	1
158.100000	1
159.100000	8
160.100000	5
161.100000	26
162.100000	25
163.050000	4
164.100000	1
165.100000	1
166.100000	1
167.100000	1
168.100000	1
169.100000	1
172.100000	1
174.100000	1
175.100000	1
176.100000	16
177.150000	10
178.100000	999
179.100000	167
180.100000	45
181.100000	4
182.100000	1
183.100000	1
185.100000	1
186.100000	1
187.100000	1
188.100000	1
189.100000	1
190.100000	1
191.100000	1
192.100000	9
193.100000	6
194.150000	1
195.200000	1
196.200000	1
197.200000	1
198.200000	1
199.200000	1
200.200000	1
201.200000	1
202.200000	1
203.200000	1
204.200000	1
205.200000	1
207.200000	1
208.200000	1
209.200000	1
210.200000	1
212.200000	1
213.200000	1
214.200000	1
215.200000	1
216.200000	1
217.200000	1
218.200000	1
219.200000	1
220.200000	1
222.200000	1
223.200000	1
225.200000	1
226.200000	1
227.200000	1
228.200000	1
229.200000	1
230.200000	1
232.200000	1
233.200000	1
234.200000	1
235.200000	1
236.200000	1
237.200000	1
238.200000	1
239.200000	1
240.200000	1
241.200000	1
243.200000	1
244.200000	1
245.200000	1
247.200000	1
248.200000	1
249.200000	1
250.200000	1
251.200000	1
252.200000	1
253.200000	1
254.200000	1
255.200000	1
257.200000	1
259.200000	1
260.200000	1
261.200000	1
262.200000	1
263.200000	1
264.200000	1
265.200000	1
268.200000	1
269.200000	1
270.200000	1
271.200000	1
272.200000	1
273.200000	1
274.200000	1
275.200000	1
276.200000	1
277.200000	1
279.200000	1
281.200000	1
282.200000	1
283.200000	1
284.200000	1
285.200000	1
286.200000	1
290.200000	1
291.200000	1
292.200000	1
294.200000	1
296.200000	1
298.200000	1
299.200000	1
300.200000	1
301.200000	1
302.200000	1
305.200000	1
306.200000	1
307.200000	1
309.200000	1
310.200000	1
311.200000	1
312.200000	1
314.200000	1
316.200000	1
318.200000	1
319.200000	1
320.200000	1
321.200000	1
325.200000	1
326.200000	1
327.200000	1
329.200000	1
330.200000	1
331.200000	1
332.200000	1
334.200000	1
335.200000	1
336.200000	1
337.200000	1
338.200000	1
339.200000	1
340.200000	1
341.200000	1
342.200000	1
343.200000	1
344.200000	1
347.200000	1
348.200000	1
349.200000	1
350.200000	1
351.200000	1
352.200000	1
353.200000	1
355.200000	1
356.200000	1
358.200000	1
359.200000	1
361.200000	1
363.200000	1
364.200000	1
365.200000	1
366.200000	1
367.200000	1
368.200000	1
370.200000	1
371.200000	1
372.200000	1
373.200000	1
375.200000	1
376.200000	1
377.200000	1
378.200000	1
379.200000	1
380.200000	1
381.200000	1
382.200000	1
383.200000	1
384.200000	1
385.200000	1
386.200000	1
387.200000	1
388.200000	1
389.200000	1
390.200000	1
391.200000	1
392.200000	1
393.200000	1
394.200000	1
395.200000	1
397.200000	1
398.200000	1
399.200000	1
400.200000	1
402.200000	1
403.200000	1
405.200000	1
407.200000	1
409.200000	1
411.200000	1
413.200000	1
415.200000	1
416.200000	1
417.200000	1
418.200000	1
419.200000	1
420.200000	1
421.200000	1
422.200000	1
423.200000	1
425.200000	1
426.200000	1
428.200000	1
429.200000	1
430.200000	1
431.200000	1
432.200000	1
433.200000	1
435.200000	1
437.200000	1
438.200000	1
439.200000	1
440.200000	1
441.200000	1
442.200000	1
443.200000	1
445.200000	1
446.200000	1
447.200000	1
448.200000	1
449.200000	1
450.200000	1
451.200000	1
452.200000	1
453.200000	1
458.200000	1
459.200000	1
460.200000	1
461.200000	1
462.200000	1
463.200000	1
464.200000	1
465.200000	1
466.200000	1
467.200000	1
468.200000	1
469.200000	1
470.200000	1
471.200000	1
472.200000	1
475.200000	1
476.200000	1
477.200000	1
479.200000	1
481.200000	1
482.200000	1
485.200000	1
486.200000	1
489.200000	1
490.200000	1
492.200000	1
493.200000	1
495.200000	1
496.200000	1
497.200000	1
498.200000	1
499.200000	1
