Mass spectrum: Prephenic acid; EI-B; MS; n TMS; RT: 631.52 s
Name: Prephenic acid
Name: Prephenate
Class: Natural Product
Formula: C10H10O6
Exact mass: 226.04774
SMILES: OC(=O)C(=O)C[C@@](C=1)(C=C[C@@H](O)C1)C(O)=O
InChI: InChI=1S/C10H10O6/c11-6-1-3-10(4-2-6,9(15)16)5-7(12)8(13)14/h1-4,6,11H,5H2,(H,13,14)(H,15,16)/t6-,10+
Instrument: GCMS-2010 Plus, Shimadzu
Instrument type: EI-B
Ms type: MS
Ion mode: POSITIVE
Column name: InertCap 5MS/NP 0.25 mmI.D. x 30 m, df=0.25 um
Retention time: 631.52
Derivative type: n TMS
m/z	relative intensity
86.000000	17
87.050000	60
88.050000	19
89.050000	827
90.050000	306
91.100000	999
92.100000	83
93.100000	9
94.100000	2
95.100000	6
96.100000	5
97.100000	2
98.100000	12
99.100000	6
100.100000	12
101.100000	6
102.100000	13
103.050000	33
104.100000	17
105.100000	83
106.100000	9
107.100000	7
108.100000	8
109.550000	52
110.500000	5
111.500000	1
112.500000	3
113.500000	3
114.500000	2
115.150000	19
116.100000	981
117.100000	334
118.100000	53
119.100000	15
120.150000	25
121.150000	57
122.100000	39
123.100000	2
124.100000	3
125.100000	15
126.100000	4
127.100000	3
128.100000	3
129.100000	6
130.100000	24
131.100000	22
132.100000	16
133.100000	22
134.100000	3
135.100000	24
136.100000	5
137.100000	7
138.100000	3
139.100000	2
140.100000	2
141.100000	2
142.100000	13
143.100000	16
144.100000	21
145.100000	10
146.100000	48
147.150000	122
148.100000	38
149.100000	10
150.100000	5
151.100000	33
152.100000	6
153.100000	3
154.100000	4
155.100000	2
156.100000	7
157.100000	2
158.100000	3
159.100000	2
160.100000	12
161.100000	4
162.100000	9
163.100000	3
164.100000	3
165.100000	2
166.100000	2
167.100000	4
168.100000	1
169.100000	3
170.100000	2
171.100000	1
172.100000	3
173.100000	1
174.100000	58
175.100000	56
176.100000	25
177.100000	8
178.100000	5
179.100000	8
180.100000	3
181.100000	2
183.100000	3
184.100000	2
186.100000	4
187.100000	3
188.100000	4
189.100000	535
190.100000	117
191.100000	115
192.100000	21
193.100000	5
194.100000	2
195.100000	2
196.100000	2
197.100000	2
198.100000	1
199.100000	1
200.100000	5
201.100000	2
202.100000	2
203.100000	4
204.100000	2
205.100000	3
206.100000	1
207.100000	10
208.100000	1
209.100000	3
210.100000	2
211.100000	3
212.100000	1
214.100000	1
215.100000	1
216.100000	1
217.100000	1
218.100000	4
219.100000	16
220.100000	6
222.100000	1
223.100000	1
224.100000	1
226.100000	2
227.100000	1
228.100000	2
229.100000	2
230.100000	4
231.100000	1
232.100000	5
233.100000	3
234.100000	2
235.100000	9
236.100000	4
237.100000	1
239.100000	1
240.100000	2
241.100000	4
243.100000	2
244.100000	1
245.100000	2
247.100000	1
248.100000	1
249.100000	6
250.100000	451
251.100000	97
252.100000	19
253.100000	6
255.100000	5
256.100000	1
257.100000	1
258.100000	1
259.100000	2
261.100000	1
263.100000	1
264.100000	8
265.150000	246
266.100000	45
267.100000	15
268.100000	2
269.100000	1
270.100000	3
271.100000	2
272.100000	2
273.100000	1
274.100000	2
275.100000	2
276.100000	3
277.100000	1
278.100000	1
279.100000	1
280.100000	1
281.100000	4
282.100000	1
284.100000	2
285.100000	2
286.100000	1
287.100000	1
288.100000	1
289.100000	1
290.100000	3
291.100000	1
292.100000	2
293.100000	2
294.100000	1
295.100000	3
298.100000	1
299.100000	3
300.100000	1
301.100000	2
303.100000	1
304.100000	1
305.100000	1
306.100000	1
307.100000	2
308.100000	2
309.100000	1
310.100000	1
311.100000	1
312.100000	1
314.100000	1
315.100000	1
316.100000	1
317.100000	1
318.100000	1
320.100000	1
323.100000	3
324.100000	1
325.100000	2
326.100000	1
327.100000	4
328.100000	4
329.100000	1
330.100000	3
331.100000	4
332.100000	2
333.100000	1
334.100000	1
335.100000	2
336.100000	2
337.100000	1
338.100000	2
339.100000	2
340.100000	4
341.100000	4
342.100000	2
343.100000	1
344.100000	1
345.100000	2
346.100000	1
347.100000	1
348.100000	4
350.100000	1
351.100000	1
352.100000	1
353.100000	1
357.100000	2
358.100000	2
359.100000	2
361.100000	2
362.100000	1
363.100000	1
364.100000	2
365.100000	2
370.100000	1
373.100000	2
374.100000	2
376.100000	1
377.100000	2
378.100000	2
380.100000	2
381.100000	1
382.100000	2
383.100000	1
384.100000	2
385.100000	1
386.100000	1
387.100000	2
388.100000	2
389.100000	1
391.100000	1
392.100000	3
393.100000	3
394.100000	1
396.100000	1
397.100000	1
398.100000	1
401.100000	1
402.100000	1
403.100000	3
404.100000	1
405.100000	4
406.100000	3
407.100000	1
408.100000	1
409.100000	1
411.100000	2
412.100000	1
413.100000	3
414.100000	2
416.100000	1
417.100000	1
418.100000	1
419.100000	1
420.100000	2
421.100000	2
422.100000	1
423.100000	3
424.100000	1
425.100000	1
426.100000	2
427.100000	1
428.100000	1
429.100000	1
430.100000	1
431.100000	1
432.100000	1
433.100000	1
434.100000	2
435.100000	1
436.100000	2
438.100000	2
442.100000	2
443.100000	1
444.100000	2
447.100000	2
449.100000	1
450.100000	1
451.100000	2
452.100000	1
453.100000	3
454.100000	1
456.100000	1
458.100000	1
459.100000	1
461.100000	2
463.100000	1
465.100000	1
466.100000	1
467.100000	1
468.100000	1
469.100000	1
470.100000	3
472.100000	2
473.100000	3
474.100000	1
475.100000	1
476.100000	1
477.100000	1
478.100000	2
479.100000	1
480.100000	2
481.100000	2
482.100000	1
483.100000	2
484.100000	1
485.100000	1
486.100000	2
487.100000	1
488.100000	1
492.100000	1
493.100000	1
494.100000	1
495.100000	2
496.100000	1
497.100000	2
498.100000	2
