Mass spectrum: Pelargonic acid; EI-B; MS; 1 TMS; RT: 500.70 s
Name: Pelargonic acid
Name: Nonanoic acid
Class: Natural Product
Formula: C9H18O2
Exact mass: 158.13068
SMILES: CCCCCCCCC(O)=O
InChI: InChI=1S/C9H18O2/c1-2-3-4-5-6-7-8-9(10)11/h2-8H2,1H3,(H,10,11)
Instrument: GCMS-2010 Plus, Shimadzu
Instrument type: EI-B
Ms type: MS
Ion mode: POSITIVE
Column name: InertCap 5MS/NP 0.25 mmI.D. x 30 m, df=0.25 um
Retention time: 500.70
Derivative type: 1 TMS
m/z	relative intensity
86.050000	22
87.050000	16
88.000000	13
89.050000	25
90.100000	7
91.100000	7
92.100000	1
93.100000	12
94.100000	4
95.050000	16
96.000000	5
97.050000	39
98.100000	27
99.050000	26
100.000000	5
101.050000	20
102.000000	4
103.000000	5
104.000000	1
105.000000	52
106.000000	7
107.000000	3
108.000000	1
109.000000	3
110.000000	1
111.100000	20
112.050000	15
113.100000	4
114.100000	1
115.000000	9
116.050000	49
117.050000	999
118.050000	99
119.000000	40
120.000000	3
121.000000	7
122.000000	2
123.000000	7
124.000000	1
125.000000	3
126.000000	1
127.000000	3
128.000000	3
129.050000	337
130.050000	42
131.050000	302
132.050000	293
133.100000	53
134.050000	13
135.000000	3
136.000000	1
137.000000	1
138.000000	1
139.000000	6
140.000000	8
141.000000	5
142.000000	2
143.100000	28
144.100000	4
145.050000	129
146.100000	19
147.100000	8
148.100000	1
149.100000	1
150.100000	1
151.100000	2
152.100000	1
153.100000	2
155.100000	2
156.100000	1
157.100000	11
158.100000	1
159.100000	25
160.100000	4
161.100000	1
162.100000	1
163.100000	1
164.100000	1
165.100000	1
166.100000	1
167.100000	1
168.100000	1
169.100000	1
170.000000	1
171.050000	47
172.000000	7
173.000000	9
174.000000	2
176.000000	1
177.000000	1
180.000000	1
181.000000	1
182.000000	2
183.000000	1
184.000000	1
185.000000	14
186.000000	3
187.050000	43
188.100000	6
189.100000	4
190.100000	1
191.100000	1
192.100000	1
194.100000	1
195.100000	1
196.100000	1
197.100000	1
198.100000	1
199.100000	1
200.000000	1
201.000000	30
202.000000	5
203.000000	1
204.000000	1
205.000000	1
206.000000	1
207.000000	1
208.000000	1
209.000000	1
210.000000	1
211.000000	2
212.000000	1
213.000000	1
214.000000	3
215.050000	793
216.050000	141
217.000000	39
218.000000	5
219.000000	3
220.000000	1
221.000000	1
222.000000	1
225.000000	1
226.000000	1
227.000000	1
228.000000	1
229.000000	2
230.050000	15
231.000000	4
232.000000	1
233.000000	1
234.000000	1
235.000000	1
236.000000	1
237.000000	1
238.000000	1
239.000000	2
241.000000	1
242.000000	1
244.000000	1
245.000000	1
246.000000	1
247.000000	1
248.000000	1
250.000000	1
251.000000	1
252.000000	1
254.000000	1
255.000000	1
256.000000	1
257.000000	1
258.000000	1
259.000000	1
260.000000	1
261.000000	1
262.000000	1
263.000000	1
264.000000	2
265.000000	2
266.000000	1
269.000000	1
270.000000	1
271.000000	1
274.000000	2
275.000000	1
276.000000	1
277.000000	1
279.000000	1
280.000000	1
281.000000	1
282.000000	1
283.000000	1
284.000000	1
285.000000	1
286.000000	1
287.000000	1
289.000000	1
290.000000	1
291.000000	1
292.000000	1
294.000000	1
295.000000	1
296.000000	1
299.000000	1
300.000000	1
301.000000	1
302.000000	1
303.000000	1
304.000000	2
305.000000	1
306.000000	1
307.000000	1
308.000000	1
309.000000	1
310.000000	1
312.000000	1
313.000000	1
314.000000	1
315.000000	1
316.000000	1
317.000000	1
318.000000	1
319.000000	1
320.000000	1
321.000000	1
322.000000	1
323.000000	1
324.000000	1
325.000000	1
327.000000	1
329.000000	1
330.000000	1
331.000000	1
332.000000	1
333.000000	1
334.000000	1
335.000000	1
336.000000	1
337.000000	1
338.000000	1
339.000000	1
340.000000	1
341.000000	1
343.000000	1
344.000000	1
345.000000	1
346.000000	1
347.000000	1
348.000000	1
349.000000	1
351.000000	1
352.000000	1
354.000000	1
355.000000	1
357.000000	1
358.000000	1
359.000000	1
361.000000	1
362.000000	1
363.000000	1
364.000000	2
365.000000	1
367.000000	1
368.000000	1
369.000000	1
370.000000	1
372.000000	1
373.000000	1
374.000000	1
376.000000	1
377.000000	1
378.000000	1
379.000000	1
380.000000	1
381.000000	1
382.000000	1
383.000000	1
384.000000	1
385.000000	1
386.000000	1
387.000000	1
389.000000	2
390.000000	1
391.000000	1
395.000000	1
396.000000	1
398.000000	1
399.000000	1
400.000000	1
401.000000	1
402.000000	1
403.000000	1
404.000000	1
405.000000	1
407.000000	1
409.000000	1
410.000000	1
411.000000	1
412.000000	1
413.000000	1
414.000000	1
415.000000	1
416.000000	1
417.000000	1
418.000000	1
419.000000	1
420.000000	1
421.000000	1
422.000000	1
423.000000	1
424.000000	1
425.000000	1
426.000000	1
427.000000	1
428.000000	1
429.000000	1
430.000000	1
431.000000	1
432.000000	1
433.000000	1
434.000000	1
435.000000	1
436.000000	1
437.000000	1
438.000000	1
440.000000	1
441.000000	1
442.000000	1
443.000000	1
444.000000	1
445.000000	1
446.000000	1
449.000000	1
450.000000	1
451.000000	1
452.000000	1
454.000000	1
455.000000	1
456.000000	1
457.000000	1
458.000000	1
459.000000	1
460.000000	1
462.000000	1
463.000000	1
464.000000	1
465.000000	1
466.000000	1
467.000000	1
469.000000	1
470.000000	1
471.000000	2
472.000000	1
473.000000	1
474.000000	1
475.000000	1
476.000000	1
477.000000	1
478.000000	1
479.000000	1
480.000000	1
482.000000	1
483.000000	1
484.000000	1
485.000000	1
487.000000	1
489.000000	1
490.000000	1
491.000000	1
492.000000	1
493.000000	1
494.000000	1
495.000000	1
497.000000	1
498.000000	1
499.000000	1
