Mass spectrum: L-Asparagine; EI-B; MS; 3 TMS; RT: 674.70 s
Name: L-Asparagine
Class: Natural Product
Formula: C4H8N2O3
Exact mass: 132.05349
SMILES: NC(=O)C[C@@H](N)C(O)=O
InChI: InChI=1S/C4H8N2O3/c5-2(4(8)9)1-3(6)7/h2H,1,5H2,(H2,6,7)(H,8,9)/t2-/m0/s1
Instrument: GCMS-2010 Plus, Shimadzu
Instrument type: EI-B
Ms type: MS
Ion mode: POSITIVE
Column name: InertCap 5MS/NP 0.25 mmI.D. x 30 m, df=0.25 um
Retention time: 674.70
Derivative type: 3 TMS
m/z	relative intensity
86.050000	13
87.050000	6
88.050000	3
89.050000	5
90.100000	17
91.050000	4
92.100000	1
93.100000	1
94.100000	1
95.100000	1
96.100000	1
97.050000	2
98.050000	11
99.150000	6
100.050000	168
101.100000	22
102.100000	16
103.050000	16
104.000000	3
105.050000	3
106.100000	1
107.100000	1
108.100000	1
109.100000	1
110.100000	1
111.100000	1
112.050000	2
113.100000	5
114.100000	56
115.100000	59
116.100000	999
117.100000	128
118.100000	48
119.100000	8
120.100000	1
121.100000	1
122.100000	1
123.100000	1
124.100000	1
125.100000	14
126.100000	4
127.100000	3
128.100000	36
129.100000	14
130.100000	37
131.100000	145
132.100000	509
133.100000	102
134.100000	27
135.050000	7
136.100000	1
137.100000	1
138.100000	1
139.100000	1
140.150000	6
141.100000	309
142.100000	54
143.100000	22
144.100000	29
145.100000	5
146.150000	13
147.100000	272
148.100000	48
149.100000	35
150.100000	4
151.050000	2
152.100000	1
153.100000	3
154.100000	4
155.100000	1
156.100000	2
157.150000	2
158.100000	7
159.100000	102
160.100000	16
161.100000	7
162.100000	1
163.100000	8
164.100000	2
165.100000	1
166.100000	1
167.100000	1
168.100000	1
169.100000	24
170.100000	6
171.050000	3
172.100000	32
173.100000	7
174.050000	15
175.050000	3
176.050000	3
177.100000	2
178.100000	1
179.100000	1
180.100000	1
181.100000	1
182.100000	1
183.100000	1
184.100000	1
185.100000	1
186.050000	3
187.150000	5
188.100000	404
189.050000	75
190.100000	60
191.000000	11
192.050000	3
193.000000	1
194.000000	1
195.000000	1
196.000000	1
197.000000	1
198.050000	1
199.050000	7
200.050000	4
201.050000	4
202.050000	110
203.050000	26
204.100000	33
205.100000	7
206.050000	7
207.000000	3
208.000000	1
209.000000	1
210.000000	1
211.000000	1
212.100000	1
213.100000	8
214.050000	10
215.100000	42
216.100000	34
217.150000	14
218.050000	123
219.050000	26
220.050000	12
221.100000	4
222.100000	1
223.100000	1
224.100000	1
225.100000	1
226.100000	1
227.100000	1
228.050000	2
229.100000	9
230.150000	13
231.100000	696
232.100000	154
233.100000	64
234.100000	10
235.050000	2
236.100000	1
237.100000	1
238.100000	1
239.100000	1
240.100000	1
241.100000	2
242.100000	10
243.100000	41
244.100000	19
245.050000	8
246.100000	3
247.100000	1
248.100000	1
249.100000	1
250.100000	1
252.100000	1
253.100000	1
255.100000	1
256.100000	1
257.150000	2
258.100000	141
259.100000	38
260.100000	15
261.100000	3
262.100000	10
263.000000	3
264.100000	2
265.100000	1
266.100000	1
267.100000	1
268.100000	1
269.100000	1
270.100000	1
271.100000	1
272.100000	1
273.100000	1
274.100000	1
275.100000	1
276.100000	1
277.100000	1
278.100000	1
279.100000	1
280.100000	1
281.100000	1
282.100000	1
283.100000	1
284.100000	1
285.100000	1
286.100000	1
287.100000	1
288.100000	1
289.100000	1
290.100000	1
291.100000	1
292.100000	4
292.900000	1
293.950000	2
294.900000	1
295.900000	1
297.900000	1
298.900000	1
299.900000	1
300.900000	1
301.900000	1
302.900000	1
303.900000	1
305.200000	3
306.000000	1
306.950000	4
308.000000	1
309.000000	5
310.000000	1
311.000000	1
312.000000	1
313.000000	1
314.000000	1
315.100000	1
316.100000	24
317.100000	6
318.100000	3
319.100000	1
320.100000	1
321.100000	1
322.100000	1
327.100000	1
328.100000	1
329.100000	1
330.100000	1
331.150000	3
332.250000	2
333.150000	42
334.100000	14
335.200000	7
336.200000	1
337.200000	1
338.200000	1
339.200000	1
341.200000	1
343.200000	1
344.200000	1
345.200000	1
346.200000	1
347.200000	1
348.200000	46
349.150000	16
350.150000	7
351.050000	1
352.100000	1
353.100000	1
354.100000	1
355.100000	1
356.100000	1
357.100000	1
358.100000	1
359.100000	1
360.100000	1
361.100000	1
362.100000	1
363.100000	1
364.100000	1
365.100000	1
368.100000	1
370.100000	1
371.100000	1
372.100000	1
374.100000	1
375.100000	1
376.100000	1
377.100000	1
380.100000	1
382.100000	1
383.100000	1
386.100000	1
388.100000	1
389.100000	1
390.100000	1
393.100000	1
394.100000	1
396.100000	1
398.100000	1
399.100000	1
400.100000	1
401.100000	1
403.100000	1
404.100000	1
405.100000	1
406.100000	1
408.100000	1
409.100000	1
410.100000	1
411.100000	1
412.100000	1
413.100000	1
414.100000	1
415.100000	1
417.100000	1
418.100000	1
419.100000	1
420.100000	1
421.100000	1
422.100000	1
423.100000	1
424.100000	1
425.100000	1
427.100000	1
429.100000	1
430.100000	1
431.100000	1
432.100000	1
433.100000	1
434.100000	1
435.100000	1
438.100000	1
439.100000	1
441.100000	1
442.100000	1
444.100000	1
445.100000	1
446.100000	1
449.100000	1
450.100000	1
451.100000	1
452.100000	1
453.100000	1
454.100000	1
457.100000	1
458.100000	1
459.100000	1
460.100000	1
462.100000	1
465.100000	1
466.100000	1
468.100000	1
469.100000	1
474.100000	1
475.100000	1
476.100000	1
477.100000	1
478.100000	1
479.100000	1
481.100000	1
482.100000	1
483.100000	1
486.100000	1
487.100000	1
488.100000	1
489.100000	1
490.100000	1
491.100000	1
492.100000	1
493.100000	1
494.100000	1
495.100000	1
496.100000	1
498.100000	1
499.100000	1
