Mass spectrum: L-Serine; EI-B; MS; 3 TMS; RT: 506.89 s
Name: L-Serine
Class: Natural Product
Formula: C3H7NO3
Exact mass: 105.04259
SMILES: OC[C@H](N)C(O)=O
InChI: InChI=1S/C3H7NO3/c4-2(1-5)3(6)7/h2,5H,1,4H2,(H,6,7)/t2-/m0/s1
Instrument: GCMS-2010 Plus, Shimadzu
Instrument type: EI-B
Ms type: MS
Ion mode: POSITIVE
Column name: InertCap 5MS/NP 0.25 mmI.D. x 30 m, df=0.25 um
Retention time: 506.89
Derivative type: 3 TMS
m/z	relative intensity
86.050000	11
87.050000	7
88.050000	9
89.050000	10
90.100000	1
91.100000	1
92.100000	1
93.100000	1
94.100000	1
95.100000	1
96.100000	1
97.100000	1
98.050000	3
99.150000	4
100.100000	268
101.050000	38
102.100000	14
103.050000	37
104.050000	3
105.050000	4
106.000000	1
107.000000	1
108.000000	1
109.000000	1
110.000000	1
111.000000	1
112.000000	1
113.050000	3
114.100000	40
115.100000	20
116.100000	74
117.050000	37
118.100000	7
119.050000	7
120.100000	1
121.100000	1
122.100000	1
124.100000	1
125.100000	1
126.100000	1
127.100000	1
128.100000	4
129.050000	3
130.050000	20
131.050000	23
132.050000	33
133.050000	47
134.050000	8
135.000000	5
136.000000	1
137.000000	1
139.000000	1
140.000000	1
141.000000	1
142.100000	4
143.150000	3
144.100000	9
145.100000	2
146.150000	22
147.100000	183
148.150000	32
149.100000	19
150.100000	2
151.100000	1
152.100000	1
153.100000	1
154.100000	1
155.100000	1
156.100000	1
157.100000	1
158.100000	7
159.100000	5
160.100000	3
161.100000	1
162.100000	2
163.100000	14
164.100000	3
165.100000	2
166.100000	1
167.100000	1
168.100000	1
169.100000	1
170.100000	1
171.100000	1
172.050000	8
173.100000	3
174.100000	11
175.100000	3
176.100000	1
177.100000	1
178.100000	1
179.100000	1
180.100000	1
181.100000	1
182.100000	1
183.100000	1
184.100000	1
185.100000	1
186.100000	1
187.100000	1
188.050000	135
189.050000	50
190.050000	22
191.050000	8
192.000000	2
193.000000	1
194.000000	1
195.000000	1
196.000000	1
197.000000	1
198.000000	1
199.000000	1
200.000000	1
201.000000	1
202.100000	2
203.150000	14
204.100000	999
205.100000	184
206.100000	84
207.050000	11
208.100000	2
209.100000	1
210.100000	1
211.100000	1
212.100000	1
213.100000	1
214.100000	1
215.100000	1
216.100000	34
217.150000	13
218.100000	557
219.100000	107
220.050000	49
221.100000	13
222.050000	3
223.000000	1
224.000000	1
225.000000	1
226.000000	1
227.000000	1
229.000000	1
230.000000	1
231.000000	2
232.000000	1
233.000000	1
234.000000	1
235.000000	1
236.000000	1
238.000000	1
239.000000	1
240.000000	1
241.000000	1
244.000000	1
245.000000	1
246.000000	1
247.000000	1
248.000000	1
249.000000	1
250.000000	1
251.000000	1
252.000000	1
253.000000	1
254.000000	1
255.000000	1
257.000000	1
258.000000	1
259.000000	1
260.000000	1
261.000000	1
262.150000	2
263.100000	1
264.100000	1
265.100000	1
266.100000	1
267.100000	1
268.100000	1
269.100000	1
270.100000	1
272.100000	1
273.100000	1
274.100000	1
275.100000	1
276.100000	1
277.100000	1
278.150000	71
279.100000	19
280.150000	10
281.100000	2
282.100000	1
283.100000	1
284.100000	1
285.100000	1
286.100000	1
287.100000	1
288.100000	1
289.100000	1
290.100000	1
291.100000	1
292.100000	1
293.100000	1
294.100000	1
295.100000	1
296.100000	1
297.100000	1
299.100000	1
300.100000	1
301.100000	1
303.100000	1
304.100000	1
305.100000	1
306.150000	33
307.150000	9
308.100000	5
309.100000	1
310.100000	1
311.100000	1
312.100000	1
313.100000	1
314.100000	1
315.100000	1
316.100000	1
318.100000	1
319.100000	1
320.100000	1
321.100000	1
322.100000	1
323.100000	1
324.100000	1
325.100000	1
326.100000	1
327.100000	1
328.100000	1
329.100000	1
331.100000	1
332.100000	1
333.100000	1
334.100000	1
335.100000	1
337.100000	1
339.100000	1
341.100000	1
342.100000	1
343.100000	1
344.100000	1
345.100000	1
346.100000	1
347.100000	1
348.100000	1
349.100000	1
352.100000	1
353.100000	1
354.100000	1
356.100000	1
357.100000	1
359.100000	1
360.100000	1
362.100000	1
363.100000	1
364.100000	1
369.100000	1
370.100000	1
371.100000	1
372.100000	1
374.100000	1
376.100000	1
377.100000	1
378.100000	1
381.100000	1
383.100000	1
384.100000	1
385.100000	1
387.100000	1
388.100000	1
392.100000	1
393.100000	1
394.100000	1
395.100000	1
396.100000	1
397.100000	1
398.100000	1
399.100000	1
400.100000	1
401.100000	1
402.100000	1
403.100000	1
404.100000	1
405.100000	1
406.100000	1
407.100000	1
408.100000	1
409.100000	1
410.100000	1
413.100000	1
414.100000	1
415.100000	1
417.100000	1
418.100000	1
419.100000	1
420.100000	1
422.100000	1
423.100000	1
424.100000	1
425.100000	1
426.100000	1
427.100000	1
428.100000	1
429.100000	1
430.100000	1
431.100000	1
432.100000	1
433.100000	1
434.100000	1
435.100000	1
436.100000	1
437.100000	1
438.100000	1
440.100000	1
442.100000	1
443.100000	1
445.100000	1
447.100000	1
448.100000	1
449.100000	1
450.100000	1
451.100000	1
453.100000	1
454.100000	1
455.100000	1
456.100000	1
458.100000	1
459.100000	1
461.100000	1
463.100000	1
464.100000	1
466.100000	1
467.100000	1
468.100000	1
469.100000	1
470.100000	1
471.100000	1
475.100000	1
476.100000	1
477.100000	1
478.100000	1
479.100000	1
480.100000	1
481.100000	1
483.100000	1
484.100000	1
487.100000	1
488.100000	1
489.100000	1
493.100000	1
495.100000	1
496.100000	1
497.100000	1
498.100000	1
