Mass spectrum: Xylitol; EI-B; MS; 5 TMS; RT: 1734.11 s
Name: Xylitol
Class: Natural Product
Formula: C5H12O5
Exact mass: 152.06847
SMILES: OC[C@H](O)[C@@H](O)[C@H](O)CO
InChI: InChI=1S/C5H12O5/c6-1-3(8)5(10)4(9)2-7/h3-10H,1-2H2/t3-,4+,5+
Instrument: GCMS-2010 Plus, Shimadzu
Instrument type: EI-B
Ms type: MS
Ion mode: POSITIVE
Column name: InertCap 5MS/NP 0.25 mmI.D. x 30 m, df=0.25 um
Retention time: 698.70
Derivative type: 5 TMS
m/z	relative intensity
86.000000	1
87.000000	6
88.000000	4
89.000000	25
90.000000	2
91.000000	1
92.000000	1
93.000000	1
94.000000	1
95.000000	1
96.000000	1
97.000000	1
98.000000	1
99.000000	2
100.000000	1
100.950000	22
102.050000	5
103.000000	551
104.000000	51
105.000000	23
106.000000	1
107.000000	1
108.000000	1
109.000000	1
110.000000	1
110.950000	2
112.000000	1
113.000000	7
114.000000	1
114.950000	6
116.000000	18
117.000000	127
117.950000	12
118.950000	9
120.000000	1
121.000000	1
122.000000	1
123.000000	1
124.000000	1
125.000000	1
126.000000	1
127.000000	3
128.050000	2
129.000000	246
130.050000	28
131.000000	35
132.000000	5
132.950000	73
133.950000	10
134.950000	6
135.900000	1
136.900000	1
137.900000	1
138.900000	1
139.900000	1
141.050000	1
142.050000	2
143.000000	14
144.000000	2
145.000000	6
146.050000	3
147.000000	482
148.000000	77
149.000000	47
149.950000	5
150.950000	2
152.000000	1
153.000000	3
154.000000	1
154.950000	6
156.050000	1
157.000000	46
158.000000	7
158.950000	4
160.000000	1
160.950000	5
162.050000	1
163.000000	8
164.000000	1
165.000000	1
166.000000	1
167.000000	1
168.000000	1
169.000000	2
169.950000	3
170.950000	6
172.000000	1
172.950000	2
173.900000	1
174.900000	11
175.950000	2
176.950000	7
177.900000	1
178.900000	1
179.900000	1
180.900000	1
181.900000	1
182.900000	1
183.900000	1
184.900000	1
185.900000	1
186.900000	1
187.900000	1
188.900000	93
189.900000	20
190.950000	87
191.900000	14
192.900000	8
193.900000	1
194.900000	1
196.900000	1
197.900000	1
198.900000	1
199.900000	1
200.950000	4
201.950000	1
202.950000	41
203.900000	114
204.900000	290
205.950000	61
206.900000	30
207.900000	4
208.900000	1
209.900000	1
210.900000	1
211.900000	1
212.900000	1
213.900000	1
214.950000	3
215.950000	5
216.900000	999
217.900000	220
218.900000	100
219.900000	16
220.900000	18
221.900000	4
222.900000	2
223.900000	1
224.900000	1
225.900000	1
226.900000	1
227.900000	1
228.900000	24
229.900000	6
230.900000	4
231.900000	1
232.900000	1
233.900000	1
234.900000	1
235.900000	1
236.900000	1
237.900000	1
238.900000	1
239.900000	1
240.900000	1
241.950000	4
242.950000	73
243.900000	17
244.900000	8
245.950000	1
246.950000	2
248.000000	1
249.000000	1
250.000000	1
251.000000	1
253.000000	1
254.000000	1
255.000000	1
257.000000	1
258.000000	1
259.000000	1
260.000000	1
261.000000	1
262.000000	1
263.000000	1
264.000000	1
264.900000	2
265.900000	1
266.900000	1
267.900000	1
268.900000	1
269.900000	1
270.900000	1
272.900000	1
273.900000	1
274.900000	1
275.900000	1
276.950000	66
277.950000	20
278.900000	10
279.950000	2
280.900000	1
281.900000	1
282.900000	1
283.900000	1
284.900000	1
285.900000	1
286.900000	1
287.900000	1
288.900000	1
289.900000	1
290.900000	12
291.900000	4
292.900000	3
293.900000	1
294.900000	1
295.900000	1
296.900000	1
297.900000	1
298.900000	1
299.900000	1
300.900000	1
301.900000	1
302.900000	1
303.900000	1
304.900000	6
305.900000	19
306.950000	236
307.900000	71
308.900000	34
309.900000	7
310.900000	2
311.900000	1
312.900000	1
313.900000	1
314.900000	1
315.900000	1
316.900000	29
317.950000	10
318.900000	202
319.900000	58
320.900000	27
321.900000	6
322.900000	2
323.900000	1
324.900000	1
325.900000	1
327.900000	1
330.900000	2
331.900000	30
332.900000	11
333.900000	5
334.900000	1
335.900000	1
336.900000	1
337.900000	1
338.900000	1
339.900000	1
340.900000	1
342.900000	1
344.900000	1
345.900000	1
346.900000	1
347.900000	1
349.900000	1
350.900000	1
351.900000	1
352.900000	1
353.900000	1
354.900000	1
355.900000	1
356.900000	1
357.900000	1
358.900000	1
359.900000	1
360.900000	1
361.900000	1
363.900000	1
364.900000	1
365.900000	1
366.900000	1
367.900000	1
368.900000	1
370.900000	1
371.900000	1
372.900000	1
373.900000	1
374.900000	1
375.900000	1
376.900000	1
377.900000	1
378.900000	1
379.900000	1
380.900000	1
381.900000	1
382.900000	1
383.900000	1
384.900000	1
385.900000	1
386.900000	1
387.900000	1
388.900000	1
390.900000	1
391.900000	1
392.900000	1
393.900000	1
394.900000	12
395.900000	4
396.800000	2
397.800000	1
398.800000	1
399.800000	1
400.800000	1
402.800000	1
403.800000	1
404.800000	1
405.800000	1
406.800000	1
407.800000	1
408.800000	1
409.800000	1
410.800000	1
411.800000	1
412.800000	1
413.800000	1
415.800000	1
416.800000	1
417.800000	1
418.800000	1
420.900000	1
421.900000	6
422.850000	2
423.800000	1
424.800000	1
425.800000	1
426.800000	1
427.800000	1
428.800000	1
429.800000	1
430.800000	1
433.800000	1
434.800000	1
435.800000	1
436.800000	1
437.800000	1
438.800000	1
439.800000	1
441.800000	1
442.800000	1
443.800000	1
444.800000	1
446.800000	1
447.800000	1
449.800000	1
450.800000	1
451.800000	1
452.800000	1
455.800000	1
456.800000	1
457.800000	1
458.800000	1
459.800000	1
460.800000	1
461.800000	1
463.800000	1
465.800000	1
466.800000	1
467.800000	1
468.800000	1
469.800000	1
470.800000	1
471.800000	1
472.800000	1
473.800000	1
474.800000	1
475.800000	1
476.800000	1
477.800000	1
478.800000	1
480.800000	1
481.800000	1
482.800000	1
483.800000	1
484.800000	1
485.800000	1
486.800000	1
488.800000	1
489.800000	1
490.800000	1
491.800000	1
492.800000	1
493.800000	1
494.800000	1
495.800000	1
496.800000	1
498.800000	1
