Mass spectrum: Alanylalanine; EI-B; MS; n TMS; RT: 752.90 s
Name: Alanylalanine
Class: Natural Product
Formula: C6H12N2O3
Exact mass: 160.08479
SMILES: CC(N)C(=O)NC(C)C(O)=O
InChI: InChI=1S/C6H12N2O3/c1-3(7)5(9)8-4(2)6(10)11/h3-4H,7H2,1-2H3,(H,8,9)(H,10,11)/t3-,4-/m0/s1
Instrument: GCMS-2010 Plus, Shimadzu
Instrument type: EI-B
Ms type: MS
Ion mode: POSITIVE
Column name: InertCap 5MS/NP 0.25 mmI.D. x 30 m, df=0.25 um
Retention time: 752.90
Derivative type: n TMS
m/z	relative intensity
86.000000	12
87.000000	6
88.000000	3
89.000000	5
90.000000	3
91.000000	5
92.000000	3
93.000000	4
94.000000	1
95.000000	3
96.000000	6
97.000000	10
98.000000	7
99.100000	14
100.100000	345
101.150000	41
102.100000	24
103.100000	4
104.100000	4
105.100000	2
106.100000	4
107.100000	3
109.100000	1
110.100000	5
111.100000	2
112.100000	15
113.100000	8
114.100000	109
115.100000	15
116.100000	104
117.100000	41
118.100000	10
119.100000	3
120.100000	3
121.100000	2
122.100000	3
123.100000	2
124.100000	2
125.100000	3
126.100000	3
127.100000	2
128.100000	7
129.100000	16
130.100000	35
131.100000	31
132.100000	18
133.100000	23
134.100000	3
135.100000	9
136.100000	3
137.100000	3
138.100000	1
139.100000	3
140.100000	2
141.100000	6
142.100000	10
143.100000	7
144.100000	9
145.100000	8
146.100000	8
147.100000	82
148.100000	18
149.100000	15
150.100000	2
151.100000	1
152.100000	1
153.100000	3
154.100000	1
155.100000	10
156.100000	11
157.100000	9
158.100000	11
159.100000	6
160.100000	7
161.100000	5
163.100000	2
164.100000	3
165.100000	1
167.100000	2
168.100000	1
169.100000	14
170.100000	8
171.100000	4
172.100000	28
173.100000	8
174.100000	19
175.100000	7
176.100000	3
177.100000	1
178.100000	3
179.100000	4
180.100000	3
181.100000	3
182.100000	4
183.100000	4
184.100000	4
185.100000	6
186.100000	10
187.100000	4
188.100000	999
189.150000	201
190.150000	157
191.100000	24
192.100000	13
193.100000	3
196.100000	3
197.100000	3
198.100000	3
199.100000	3
200.100000	15
201.100000	6
202.100000	17
203.100000	6
204.100000	4
205.100000	2
207.100000	18
208.100000	5
209.100000	5
210.100000	2
211.100000	2
212.100000	1
213.100000	5
214.100000	6
215.100000	13
216.100000	14
217.100000	3
218.100000	12
219.100000	15
220.100000	4
221.100000	5
223.100000	2
224.100000	2
225.100000	3
228.100000	7
229.100000	4
230.100000	4
231.100000	2
233.100000	3
234.100000	1
235.100000	2
236.100000	1
237.100000	1
238.100000	2
240.100000	1
241.100000	8
242.100000	6
243.100000	19
244.100000	7
245.100000	4
246.100000	21
247.100000	7
248.100000	4
249.100000	1
251.100000	3
252.100000	1
253.100000	1
255.100000	3
256.100000	3
257.100000	4
258.100000	3
259.100000	3
260.100000	1
262.100000	6
263.100000	2
264.100000	5
265.100000	1
266.100000	1
267.100000	5
268.100000	1
269.100000	5
270.100000	2
271.100000	24
272.100000	10
273.100000	8
274.100000	4
275.100000	3
276.100000	2
277.100000	4
278.100000	2
279.100000	2
281.100000	3
282.100000	3
283.100000	3
285.100000	14
286.100000	2
287.100000	4
288.100000	2
289.100000	4
290.100000	4
291.100000	4
292.100000	1
293.100000	1
296.100000	1
298.100000	4
300.100000	5
301.100000	1
302.100000	1
303.100000	1
304.100000	3
306.100000	1
308.100000	1
309.100000	1
310.100000	1
311.100000	4
312.100000	1
313.100000	3
314.100000	1
315.100000	1
316.100000	3
317.100000	1
318.100000	6
319.100000	2
320.100000	2
321.100000	1
322.100000	3
323.100000	3
324.100000	1
325.100000	2
326.100000	1
327.100000	1
329.100000	2
330.100000	1
331.100000	1
333.100000	1
334.100000	2
335.100000	1
337.100000	1
338.100000	1
340.100000	1
341.100000	3
343.100000	4
344.100000	3
345.100000	1
346.100000	4
347.100000	2
348.100000	1
351.100000	3
354.100000	3
356.100000	4
357.100000	1
358.100000	3
359.100000	2
360.100000	4
361.200000	75
362.200000	28
363.200000	11
364.200000	1
365.200000	3
367.200000	1
368.200000	1
369.200000	3
371.200000	4
372.200000	1
373.200000	2
374.200000	3
375.200000	2
376.200000	8
377.200000	2
378.200000	2
379.200000	1
381.200000	1
383.200000	2
384.200000	2
385.200000	1
386.200000	1
387.200000	2
388.200000	2
391.200000	2
392.200000	2
394.200000	1
395.200000	1
396.200000	4
397.200000	2
398.200000	1
399.200000	4
401.200000	1
402.200000	2
403.200000	3
404.200000	4
406.200000	2
407.200000	1
408.200000	1
409.200000	3
410.200000	2
411.200000	1
412.200000	2
413.200000	1
414.200000	1
415.200000	4
417.200000	5
420.200000	1
422.200000	2
424.200000	3
425.200000	3
426.200000	5
427.200000	3
428.200000	2
431.200000	3
432.200000	3
433.200000	2
434.200000	1
435.200000	1
437.200000	3
438.200000	2
439.200000	1
440.200000	2
442.200000	1
443.200000	4
444.200000	3
446.200000	1
447.200000	1
449.200000	1
450.200000	1
451.200000	5
452.200000	3
453.200000	3
454.200000	2
457.200000	1
460.200000	2
461.200000	3
462.200000	1
464.200000	1
466.200000	1
467.200000	1
469.200000	2
470.200000	2
471.200000	3
472.200000	1
473.200000	1
474.200000	1
475.200000	2
476.200000	2
477.200000	1
479.200000	2
480.200000	2
482.200000	1
483.200000	1
485.200000	1
486.200000	1
490.200000	3
491.200000	2
492.200000	1
493.200000	2
494.200000	1
495.200000	1
496.200000	2
497.200000	3
