Mass spectrum: D-Lyxose; EI-B; MS; 4 TMS; RT: 669.50 s
Name: D-Lyxose
Class: Natural Product
Formula: C5H10O5
Exact mass: 150.05282
SMILES: O[C@H](C1)[C@H](O)[C@H](O)C(O)O1
InChI: InChI=1S/C5H10O5/c6-2-1-10-5(9)4(8)3(2)7/h2-9H,1H2/t2-,3+,4+,5?/m1/s1
Instrument: GCMS-2010 Plus, Shimadzu
Instrument type: EI-B
Ms type: MS
Ion mode: POSITIVE
Column name: InertCap 5MS/NP 0.25 mmI.D. x 30 m, df=0.25 um
Retention time: 669.50
Derivative type: 4 TMS
m/z	relative intensity
86.000000	2
87.000000	7
88.050000	4
89.050000	90
90.000000	9
91.000000	4
92.000000	1
93.000000	1
94.000000	2
95.000000	1
96.000000	1
97.000000	1
98.000000	2
99.000000	4
100.050000	63
101.000000	25
102.050000	23
103.000000	999
104.050000	100
105.000000	56
106.000000	3
107.000000	1
108.000000	1
109.000000	1
110.000000	1
111.000000	3
112.000000	2
113.050000	6
114.000000	4
115.000000	6
116.000000	8
117.000000	77
118.000000	9
119.000000	8
120.000000	1
121.000000	1
122.000000	1
123.000000	1
124.000000	1
125.000000	1
126.000000	4
127.000000	6
128.000000	3
129.000000	99
130.050000	19
131.000000	39
132.050000	7
133.000000	90
134.000000	12
135.000000	8
136.000000	1
137.000000	1
138.000000	1
139.000000	1
140.000000	2
141.000000	2
142.000000	5
143.000000	18
144.000000	3
145.000000	10
146.000000	2
147.000000	323
148.000000	47
149.000000	31
150.000000	4
151.000000	2
152.000000	1
153.000000	1
154.000000	1
155.000000	1
156.000000	2
157.000000	13
158.000000	6
159.000000	3
160.000000	78
161.000000	22
162.050000	6
163.000000	16
164.000000	4
165.000000	2
166.000000	1
167.000000	1
168.000000	2
169.000000	1
170.000000	1
171.000000	1
172.000000	12
173.000000	8
174.000000	16
175.000000	12
176.000000	2
176.950000	6
177.900000	1
178.900000	1
179.900000	1
180.900000	1
181.900000	1
183.900000	1
184.900000	1
185.900000	2
186.900000	1
188.000000	3
188.950000	144
189.900000	27
190.900000	46
191.950000	7
193.000000	3
194.000000	1
195.000000	1
196.000000	1
197.000000	1
198.000000	2
199.000000	1
199.900000	8
200.950000	27
201.950000	7
202.900000	11
203.950000	55
204.950000	60
205.950000	13
206.900000	8
207.900000	2
208.900000	1
209.900000	1
210.900000	1
211.900000	1
212.900000	1
213.900000	7
214.900000	2
215.900000	4
216.950000	735
217.950000	153
218.900000	67
219.900000	10
220.950000	11
221.900000	2
222.900000	2
223.900000	1
224.900000	1
225.900000	1
226.900000	1
227.900000	1
228.900000	3
229.900000	4
230.950000	11
231.950000	8
232.950000	74
233.950000	19
235.000000	9
236.000000	2
237.000000	1
238.000000	1
239.000000	1
240.000000	4
241.000000	1
242.000000	2
243.000000	1
244.000000	1
245.000000	1
246.000000	3
247.000000	2
247.900000	6
248.900000	2
249.900000	1
250.900000	1
251.900000	1
252.900000	1
253.900000	1
254.900000	1
256.000000	13
257.000000	3
258.000000	3
259.000000	1
260.000000	1
261.000000	1
261.950000	21
263.000000	6
264.000000	3
265.000000	1
266.000000	1
267.000000	1
269.000000	1
271.000000	1
272.000000	1
273.000000	1
274.000000	4
275.000000	1
275.900000	1
276.950000	73
278.000000	25
278.950000	10
279.900000	2
280.900000	1
281.900000	1
283.900000	1
284.900000	1
285.900000	1
286.900000	1
287.900000	5
288.900000	1
289.900000	1
290.900000	7
291.900000	2
292.900000	1
293.900000	1
294.900000	1
295.900000	1
296.900000	1
298.900000	1
299.900000	1
300.900000	1
301.900000	3
302.900000	2
303.900000	2
304.900000	3
306.050000	6
306.950000	320
307.950000	91
308.950000	45
309.900000	10
310.900000	2
311.900000	1
312.900000	1
313.900000	1
314.900000	1
315.900000	1
316.900000	1
317.900000	2
318.900000	2
319.900000	2
320.900000	2
321.900000	1
322.900000	1
323.900000	1
324.900000	1
325.900000	1
326.900000	1
327.900000	1
328.900000	1
329.900000	4
330.900000	1
331.900000	3
332.900000	1
333.900000	1
334.900000	1
336.900000	2
337.900000	1
338.900000	1
339.900000	1
340.900000	1
342.900000	1
343.900000	1
344.900000	1
345.900000	1
346.900000	1
347.900000	1
348.900000	1
351.900000	1
352.900000	1
354.900000	1
356.900000	1
357.900000	1
358.900000	1
359.900000	1
360.900000	1
361.900000	1
362.900000	1
363.900000	1
364.900000	1
365.900000	1
367.900000	1
368.900000	1
369.900000	1
370.900000	1
371.900000	1
372.900000	1
373.900000	1
374.900000	1
375.900000	1
376.900000	1
377.900000	1
378.900000	1
379.900000	1
380.900000	1
381.900000	1
382.900000	1
383.900000	1
384.900000	1
385.900000	1
386.900000	1
387.900000	1
388.900000	1
389.900000	1
390.900000	1
391.900000	1
392.900000	2
393.900000	1
394.900000	1
395.900000	1
396.900000	1
397.900000	1
399.900000	1
400.900000	1
401.900000	1
402.900000	1
403.900000	1
404.900000	1
405.900000	1
406.900000	1
407.900000	1
408.900000	1
409.900000	1
410.900000	1
411.900000	1
412.900000	1
413.900000	1
416.900000	1
418.900000	1
419.900000	1
420.900000	1
421.900000	1
422.900000	1
423.900000	1
424.900000	1
427.900000	1
428.900000	1
429.900000	1
431.900000	1
432.900000	1
434.900000	1
435.900000	1
437.900000	1
438.900000	1
439.900000	1
441.900000	1
443.900000	1
444.900000	1
445.900000	1
446.900000	1
447.900000	1
448.900000	1
449.900000	1
450.900000	1
451.900000	1
452.900000	1
453.900000	1
454.900000	1
457.900000	1
458.900000	1
461.900000	1
462.900000	1
463.900000	1
464.900000	1
466.900000	6
467.900000	2
468.900000	1
469.900000	1
470.900000	1
471.900000	1
472.900000	1
473.900000	1
475.900000	1
476.900000	1
477.900000	1
478.900000	1
479.900000	1
482.900000	1
483.900000	1
484.900000	1
485.900000	1
486.900000	1
487.900000	1
488.900000	1
489.900000	1
490.900000	1
491.900000	1
492.900000	1
493.900000	1
494.900000	1
495.900000	1
496.900000	1
497.900000	1
498.900000	1
