Mass spectrum: beta-Alanine; EI-B; MS; 3 TMS; RT: 545.86
Name: beta-Alanine
Name: b-Alanine
Class: Natural Product
Formula: C3H7NO2
Exact mass: 89.04768
SMILES: NCCC(O)=O
InChI: InChI=1S/C3H7NO2/c4-2-1-3(5)6/h1-2,4H2,(H,5,6)
Instrument: GCMS-2010 Plus, Shimadzu
Instrument type: EI-B
Ms type: MS
Ion mode: POSITIVE
Column name: InertCap 5MS/NP 0.25 mmI.D. x 30 m, df=0.25 um
Retention time: 545.86
Derivative type: 3 TMS
m/z	relative intensity
86.050000	317
87.050000	33
88.050000	13
89.050000	2
90.000000	1
91.000000	1
92.000000	1
93.000000	1
94.050000	1
95.050000	7
95.950000	2
97.000000	1
98.050000	2
99.050000	19
100.050000	233
101.050000	30
102.050000	23
103.050000	7
104.000000	2
105.000000	2
106.000000	1
107.000000	1
107.600000	1
108.550000	5
109.550000	1
110.600000	1
112.050000	1
113.050000	6
114.100000	8
115.100000	8
116.100000	12
117.050000	26
118.050000	5
119.050000	7
120.100000	1
121.100000	1
122.100000	1
123.100000	1
124.100000	1
125.100000	1
126.050000	1
127.000000	1
128.100000	1
129.100000	6
130.100000	75
131.100000	43
132.100000	16
133.100000	96
134.100000	14
135.100000	8
136.100000	1
137.650000	10
138.550000	2
140.050000	1
141.100000	1
142.100000	17
143.150000	3
144.100000	4
145.050000	2
146.150000	33
147.100000	488
148.150000	78
149.100000	39
150.100000	4
151.100000	1
152.100000	1
153.100000	1
154.100000	1
155.100000	1
156.150000	1
157.100000	1
158.100000	8
159.100000	2
160.100000	22
161.100000	5
162.150000	2
163.100000	5
164.100000	1
165.100000	1
166.100000	1
167.100000	1
168.100000	1
169.100000	1
170.100000	1
171.050000	1
172.100000	19
173.150000	11
174.100000	999
175.150000	181
176.100000	83
177.150000	9
178.100000	2
179.100000	1
180.100000	1
181.100000	1
182.100000	1
183.100000	1
184.100000	1
185.100000	1
186.100000	1
187.050000	2
188.100000	16
189.050000	7
190.050000	9
191.050000	3
192.100000	1
193.100000	1
194.100000	1
195.100000	1
196.100000	1
197.100000	1
198.100000	1
199.100000	1
200.100000	1
201.100000	1
202.050000	3
203.100000	1
204.100000	9
205.050000	5
206.000000	2
207.100000	1
208.100000	1
209.100000	1
210.100000	1
211.100000	1
212.100000	1
213.100000	1
214.100000	1
215.150000	1
216.100000	8
217.050000	3
218.100000	2
219.050000	1
220.100000	1
221.100000	1
222.100000	1
223.100000	1
224.100000	1
225.100000	1
226.100000	1
227.100000	1
228.100000	1
229.150000	1
230.200000	1
231.150000	1
232.100000	70
233.100000	15
234.100000	7
235.100000	1
236.100000	1
237.100000	1
238.100000	1
239.100000	1
240.100000	1
241.100000	1
242.100000	1
243.100000	1
244.100000	1
245.100000	1
246.100000	1
247.250000	13
248.150000	995
249.100000	233
250.100000	121
251.100000	22
252.050000	5
253.100000	1
254.100000	1
255.100000	1
256.100000	1
257.100000	1
258.100000	1
259.100000	1
260.100000	1
261.100000	1
262.150000	2
263.100000	1
264.100000	1
265.100000	1
266.100000	1
267.100000	1
268.100000	1
269.100000	1
271.100000	1
272.100000	1
273.100000	1
274.100000	1
275.100000	1
276.100000	1
277.100000	1
278.100000	1
279.100000	1
281.100000	1
282.100000	1
283.100000	1
284.100000	1
286.100000	1
287.100000	1
288.150000	14
289.250000	7
290.150000	264
291.150000	72
292.150000	37
293.150000	7
294.100000	2
295.100000	1
296.100000	1
297.100000	1
298.100000	1
300.100000	1
301.100000	1
302.100000	1
303.200000	1
304.200000	33
305.150000	12
306.150000	5
307.100000	1
308.100000	1
309.100000	1
311.100000	1
312.100000	1
313.100000	1
314.100000	1
315.100000	1
317.100000	1
318.100000	1
319.100000	1
320.100000	1
323.100000	1
326.100000	1
327.100000	1
328.100000	1
330.100000	1
331.100000	1
332.100000	1
333.100000	1
334.100000	1
336.100000	1
337.100000	1
338.100000	1
339.100000	1
340.100000	1
341.100000	1
342.100000	1
343.100000	1
344.100000	1
346.100000	1
348.100000	1
349.100000	1
350.100000	1
351.100000	1
352.100000	1
353.100000	1
355.100000	1
356.100000	1
357.100000	1
358.100000	1
360.100000	1
361.100000	1
362.100000	1
364.100000	1
365.100000	1
366.100000	1
367.100000	1
368.100000	1
370.100000	1
371.100000	1
372.100000	1
373.100000	1
374.100000	1
375.100000	1
376.100000	1
377.100000	1
378.100000	1
379.100000	1
380.100000	1
381.100000	1
382.100000	1
383.100000	1
384.100000	1
385.100000	1
387.100000	1
388.100000	1
389.100000	1
390.100000	1
391.100000	1
392.100000	1
393.100000	1
394.100000	1
396.100000	1
398.100000	1
399.100000	1
400.100000	1
402.100000	1
404.100000	1
405.100000	1
406.100000	1
407.100000	1
409.100000	1
410.100000	1
411.100000	1
412.100000	1
413.100000	1
414.100000	1
415.100000	1
416.100000	1
417.100000	1
418.100000	1
419.100000	1
420.100000	1
421.100000	1
423.100000	1
424.100000	1
426.100000	1
427.100000	1
430.100000	1
431.100000	1
432.100000	1
433.100000	1
434.100000	1
436.100000	1
437.100000	1
438.100000	1
439.100000	1
440.100000	1
442.100000	1
444.100000	1
446.100000	1
447.100000	1
448.100000	1
449.100000	1
452.100000	1
453.100000	1
454.100000	1
456.100000	1
458.100000	1
459.100000	1
460.100000	1
461.100000	1
462.100000	1
463.100000	1
464.100000	1
466.100000	1
467.100000	1
468.100000	1
469.100000	1
470.100000	1
471.100000	1
472.100000	1
473.100000	1
474.100000	1
475.100000	1
477.100000	1
478.100000	1
479.100000	1
480.100000	1
481.100000	1
482.100000	1
483.100000	1
484.100000	1
486.100000	1
487.100000	1
488.100000	1
489.100000	1
490.100000	1
491.100000	1
492.100000	1
493.100000	1
496.100000	1
497.100000	1
498.100000	1
