Mass spectrum: 4-Hydroxybenzoic acid; EI-B; MS; 2 TMS; RT: 650.88 s
Name: 4-Hydroxybenzoic acid
Class: Natural Product
Formula: C7H6O3
Exact mass: 138.03169
SMILES: Oc(c1)ccc(c1)C(O)=O
InChI: InChI=1S/C7H6O3/c8-6-3-1-5(2-4-6)7(9)10/h1-4,8H,(H,9,10)
Instrument: GCMS-2010 Plus, Shimadzu
Instrument type: EI-B
Ms type: MS
Ion mode: POSITIVE
Column name: InertCap 5MS/NP 0.25 mmI.D. x 30 m, df=0.25 um
Retention time: 650.88
Derivative type: 2 TMS
m/z	relative intensity
86.000000	1
87.100000	3
88.000000	2
89.050000	54
90.050000	21
91.050000	89
92.050000	22
93.050000	13
94.100000	2
95.050000	11
96.050000	8
97.000000	7
98.000000	4
99.000000	2
100.000000	1
101.000000	1
102.000000	1
103.050000	26
104.050000	37
105.000000	27
106.000000	4
107.000000	9
108.000000	2
109.050000	7
110.100000	2
111.050000	16
112.000000	4
113.000000	1
114.000000	1
115.000000	6
116.000000	1
117.000000	9
118.050000	13
119.050000	21
120.000000	9
121.050000	25
122.050000	9
123.050000	6
124.000000	1
125.150000	4
126.050000	164
127.050000	22
128.100000	1
129.100000	1
130.100000	1
131.050000	14
132.050000	2
133.050000	33
134.050000	8
135.050000	58
136.050000	8
137.050000	6
138.000000	1
139.000000	1
140.000000	1
141.000000	1
143.000000	2
144.000000	1
145.050000	4
146.100000	1
147.100000	47
148.050000	11
149.050000	44
150.050000	13
151.000000	21
152.050000	3
153.000000	1
154.000000	1
155.000000	1
156.000000	1
157.000000	1
158.000000	1
159.000000	1
160.000000	1
161.000000	1
162.000000	2
163.050000	10
164.050000	3
165.050000	9
166.050000	4
167.000000	2
168.000000	1
169.000000	1
170.000000	1
171.000000	1
172.000000	1
173.000000	1
174.000000	1
175.000000	1
176.000000	1
177.000000	9
178.050000	3
179.000000	36
180.000000	7
180.950000	8
181.900000	1
182.900000	1
183.900000	1
184.900000	1
185.900000	1
187.900000	1
188.900000	1
189.900000	1
191.000000	16
192.050000	7
193.000000	514
194.000000	90
195.000000	37
196.000000	5
197.000000	1
198.000000	1
201.000000	1
202.000000	1
203.000000	1
204.000000	1
205.000000	1
206.000000	1
207.000000	60
208.000000	14
209.000000	10
210.000000	2
211.000000	1
212.000000	1
215.000000	1
217.000000	1
218.000000	1
219.000000	1
220.000000	1
221.000000	9
222.050000	5
223.050000	999
224.050000	218
225.000000	79
226.000000	12
227.000000	2
228.000000	1
229.000000	1
230.000000	1
231.000000	1
232.000000	1
233.000000	1
234.000000	1
235.000000	1
236.000000	1
236.950000	10
237.950000	3
239.000000	1
240.000000	1
241.000000	1
242.000000	1
243.000000	1
245.000000	1
246.000000	1
247.000000	1
248.000000	1
249.000000	1
250.000000	1
251.000000	3
252.000000	1
253.000000	1
254.000000	1
255.000000	1
256.000000	1
259.000000	1
260.000000	1
262.000000	1
263.000000	1
264.000000	1
265.000000	3
266.050000	3
267.000000	996
268.050000	228
269.000000	90
270.000000	15
271.000000	2
272.000000	1
273.000000	1
274.000000	1
275.000000	1
276.000000	1
278.000000	1
279.000000	1
280.100000	1
281.050000	27
282.050000	229
283.050000	58
284.050000	22
285.050000	4
286.100000	1
287.100000	1
288.100000	1
289.100000	1
290.100000	1
291.100000	1
292.100000	1
293.100000	1
294.100000	1
295.100000	1
296.100000	1
297.100000	1
298.100000	1
299.100000	1
300.100000	1
301.100000	1
302.100000	1
304.100000	1
305.100000	1
306.100000	1
307.100000	1
308.100000	1
309.100000	1
311.100000	1
312.100000	1
313.100000	1
314.100000	1
315.100000	1
316.100000	1
317.100000	1
318.100000	1
319.100000	1
321.100000	1
322.100000	1
323.100000	1
324.100000	1
325.100000	1
326.100000	1
327.100000	1
328.100000	1
329.100000	1
330.100000	1
331.100000	1
332.100000	1
333.100000	1
334.100000	1
335.100000	1
337.100000	1
338.100000	1
339.100000	1
340.100000	1
341.100000	1
342.100000	1
343.100000	1
344.100000	1
345.100000	1
346.100000	1
347.100000	1
348.100000	1
349.100000	1
350.100000	1
351.100000	1
352.100000	1
353.100000	1
354.100000	1
355.100000	1
356.100000	1
357.100000	1
358.100000	1
359.100000	1
360.100000	1
361.100000	1
362.100000	1
363.100000	1
364.100000	1
365.100000	1
367.100000	1
368.100000	1
369.100000	1
370.100000	1
371.100000	1
372.100000	1
374.100000	1
375.100000	1
376.100000	1
377.100000	1
378.100000	1
379.100000	1
380.100000	1
381.100000	1
384.100000	1
385.100000	1
386.100000	1
387.100000	1
388.100000	1
390.100000	1
391.100000	1
392.100000	1
393.100000	1
394.100000	1
395.100000	1
396.100000	1
397.100000	1
398.100000	1
399.100000	1
400.100000	1
401.100000	1
402.100000	1
403.100000	1
405.100000	1
406.100000	1
407.100000	1
408.100000	1
409.100000	1
410.100000	1
411.100000	1
412.100000	1
413.100000	1
414.100000	1
415.100000	1
417.100000	1
419.100000	1
422.100000	1
423.100000	1
424.100000	1
425.100000	1
426.100000	1
427.100000	1
428.100000	1
429.100000	1
430.100000	1
431.100000	1
432.100000	1
433.100000	1
434.100000	1
435.100000	1
436.100000	1
439.100000	1
441.100000	1
443.100000	1
444.100000	1
448.100000	1
449.100000	1
451.100000	1
452.100000	1
453.100000	1
456.100000	1
457.100000	1
458.100000	1
459.100000	1
460.100000	1
461.100000	1
463.100000	1
464.100000	1
466.100000	1
468.100000	1
469.100000	1
470.100000	1
471.100000	1
472.100000	1
473.100000	1
474.100000	1
475.100000	1
476.100000	1
477.100000	1
478.100000	1
479.100000	1
480.100000	1
481.100000	1
482.100000	1
484.100000	1
485.100000	1
486.100000	1
487.100000	1
488.100000	1
489.100000	1
490.100000	1
491.100000	1
492.100000	1
493.100000	1
497.100000	1
498.100000	1
