Mass spectrum: 5-Hydroxyindoleacetic acid; EI-B; MS; 2 TMS; RT: 906.06 s
Name: 5-Hydroxyindoleacetic acid
Name: 5-Hydroxyindoleacetate
Class: Natural Product
Formula: C10H9NO3
Exact mass: 191.05824
SMILES: C1=CC2=C(C=C1O)C(=CN2)CC(=O)O
InChI: InChI=1S/C10H9NO3/c12-7-1-2-9-8(4-7)6(5-11-9)3-10(13)14/h1-2,4-5,11-12H,3H2,(H,13,14)
Instrument: GCMS-2010 Plus, Shimadzu
Instrument type: EI-B
Ms type: MS
Ion mode: POSITIVE
Column name: InertCap 5MS/NP 0.25 mmI.D. x 30 m, df=0.25 um
Retention time: 906.06
Derivative type: 2 TMS
m/z	relative intensity
85.600000	1
86.550000	6
87.550000	4
89.000000	5
90.050000	4
91.050000	5
92.000000	1
93.000000	1
94.000000	1
95.000000	1
96.000000	1
97.000000	1
98.000000	1
99.000000	1
99.900000	1
100.950000	7
101.950000	14
103.050000	7
104.000000	1
105.000000	2
106.000000	1
107.000000	1
108.000000	1
109.000000	1
110.000000	1
111.000000	1
112.000000	1
113.000000	1
114.100000	1
115.100000	12
116.050000	6
117.050000	9
118.100000	4
119.100000	3
120.100000	1
121.100000	1
122.100000	1
123.100000	1
124.100000	1
125.100000	1
126.100000	1
127.150000	2
128.100000	16
129.050000	27
130.100000	9
131.000000	5
132.100000	2
133.100000	6
134.100000	2
135.050000	2
136.100000	1
137.100000	1
138.100000	1
139.100000	1
140.100000	1
141.100000	2
142.100000	13
143.100000	11
144.100000	10
145.050000	6
146.100000	36
147.100000	25
148.100000	4
149.100000	2
150.100000	1
151.100000	1
152.600000	12
154.000000	3
155.000000	1
156.100000	4
157.100000	1
158.100000	4
159.100000	2
160.100000	9
161.000000	2
162.050000	2
163.000000	1
164.000000	1
165.000000	1
166.000000	1
167.000000	1
168.000000	1
169.000000	1
170.000000	6
171.000000	2
172.000000	7
173.000000	3
174.000000	8
175.100000	3
176.100000	2
177.100000	1
178.100000	1
179.100000	1
180.100000	1
181.100000	1
182.100000	1
183.100000	1
184.000000	4
185.000000	4
186.000000	8
187.000000	4
188.000000	40
189.050000	8
190.050000	4
191.000000	1
192.000000	1
193.000000	1
194.000000	1
195.000000	1
196.000000	1
197.000000	1
198.000000	1
199.000000	1
200.000000	7
201.050000	4
202.050000	51
203.050000	32
204.050000	9
205.000000	2
206.000000	1
207.000000	3
208.000000	1
209.000000	1
210.000000	1
211.000000	1
212.000000	1
213.000000	1
214.000000	2
215.000000	2
216.050000	31
217.150000	25
218.050000	999
219.100000	192
220.050000	52
221.050000	6
222.100000	1
223.100000	1
224.100000	1
225.100000	1
226.100000	1
227.100000	1
228.100000	1
229.100000	1
230.100000	4
231.050000	2
232.050000	7
233.000000	2
234.000000	3
235.000000	1
236.000000	1
237.000000	1
238.000000	1
239.000000	1
240.000000	1
241.000000	1
242.000000	1
243.000000	1
244.000000	1
245.100000	2
246.100000	4
247.100000	2
248.050000	3
249.100000	1
250.100000	1
251.100000	1
252.100000	1
253.100000	1
254.100000	1
255.100000	1
256.100000	1
257.100000	1
258.100000	1
259.100000	1
260.100000	6
261.100000	2
262.050000	3
263.000000	1
264.000000	2
265.000000	1
266.000000	1
267.000000	1
268.000000	1
269.000000	1
270.000000	1
271.000000	1
272.000000	1
273.100000	1
274.100000	9
275.150000	4
276.100000	29
277.100000	9
278.100000	4
279.100000	1
280.100000	1
281.100000	1
282.100000	1
283.100000	1
284.100000	1
285.100000	1
286.100000	1
287.100000	1
288.100000	1
289.100000	1
290.150000	23
291.100000	25
292.100000	51
293.100000	14
294.150000	5
295.100000	1
296.100000	1
297.100000	1
298.100000	1
299.100000	1
300.100000	1
302.100000	1
303.100000	1
304.050000	3
305.000000	1
306.100000	2
307.100000	1
308.100000	1
309.100000	1
310.100000	1
311.100000	1
312.100000	1
313.100000	1
314.100000	1
315.100000	1
316.100000	1
318.100000	1
319.100000	1
320.100000	59
321.100000	17
322.100000	5
323.100000	1
324.100000	1
325.100000	1
326.100000	1
327.100000	1
328.100000	1
329.100000	1
330.100000	1
331.100000	1
332.100000	1
333.100000	1
334.150000	3
335.100000	324
336.100000	94
337.100000	37
338.050000	7
339.100000	1
340.100000	1
341.100000	1
342.100000	1
343.100000	1
344.100000	1
345.100000	1
346.100000	1
347.100000	1
348.100000	1
350.100000	1
351.100000	1
352.100000	1
353.100000	1
355.100000	1
356.100000	1
358.100000	1
359.100000	1
360.100000	1
363.100000	1
365.100000	1
366.100000	1
367.100000	1
368.100000	1
369.100000	1
370.100000	1
371.100000	1
372.100000	1
373.100000	1
374.100000	1
376.100000	1
377.100000	1
379.100000	1
380.100000	1
381.100000	1
382.100000	1
383.100000	1
384.100000	1
385.100000	1
386.100000	1
387.100000	1
389.100000	1
390.100000	1
391.100000	1
392.100000	1
393.100000	1
394.100000	1
395.100000	1
397.100000	1
399.100000	1
400.100000	1
401.100000	1
402.100000	1
403.100000	1
404.100000	1
405.100000	1
406.100000	1
407.100000	1
408.100000	1
409.100000	1
410.100000	1
411.100000	1
412.100000	1
413.100000	1
414.100000	1
415.100000	1
416.100000	1
417.100000	1
418.100000	1
419.100000	1
420.100000	1
421.100000	1
422.100000	1
423.100000	1
424.100000	1
425.100000	1
426.100000	1
427.100000	1
428.100000	1
429.100000	1
430.100000	1
431.100000	1
433.100000	1
434.100000	1
436.100000	1
437.100000	1
438.100000	1
439.100000	1
440.100000	1
441.100000	1
444.100000	1
445.100000	1
446.100000	1
447.100000	1
448.100000	1
449.100000	1
450.100000	1
451.100000	1
452.100000	1
453.100000	1
454.100000	1
455.100000	1
456.100000	1
458.100000	1
459.100000	1
463.100000	1
464.100000	1
465.100000	1
467.100000	1
470.100000	1
471.100000	1
472.100000	1
473.100000	1
474.100000	1
475.100000	1
476.100000	1
477.100000	1
478.100000	1
479.100000	1
480.100000	1
481.100000	1
482.100000	1
483.100000	1
484.100000	1
486.100000	1
487.100000	1
488.100000	1
489.100000	1
491.100000	1
492.100000	1
493.100000	1
494.100000	1
496.100000	1
497.100000	1
498.100000	1
499.100000	1
