Mass spectrum: Paeonol; EI-B; MS; n TMS; RT: 664.97 s
Name: Paeonol
Class: Natural Product
Formula: C9H10O3
Exact mass: 166.06299
SMILES: COc(c1)cc(O)c(c1)C(C)=O
InChI: InChI=1S/C9H10O3/c1-6(10)8-4-3-7(12-2)5-9(8)11/h3-5,11H,1-2H3
Instrument: GCMS-2010 Plus, Shimadzu
Instrument type: EI-B
Ms type: MS
Ion mode: POSITIVE
Column name: InertCap 5MS/NP 0.25 mmI.D. x 30 m, df=0.25 um
Retention time: 664.97
Derivative type: n TMS
m/z	relative intensity
86.000000	16
87.000000	5
88.000000	16
89.050000	999
90.000000	122
91.000000	151
92.000000	50
93.000000	34
94.000000	20
95.000000	36
96.000000	24
97.000000	30
98.000000	3
99.000000	19
100.000000	27
101.000000	20
102.000000	3
103.000000	29
104.000000	30
105.000000	25
106.000000	91
107.000000	59
108.000000	20
109.000000	42
110.000000	18
111.000000	22
112.000000	7
113.000000	18
114.000000	5
115.000000	12
116.000000	7
117.000000	17
118.000000	11
119.000000	23
120.000000	73
121.000000	103
122.000000	18
123.000000	11
124.000000	4
125.000000	32
126.000000	14
127.000000	16
128.000000	2
129.000000	5
130.000000	8
131.000000	48
132.000000	9
133.000000	19
134.000000	46
135.000000	53
136.000000	32
137.000000	35
138.000000	7
139.000000	14
141.000000	5
142.000000	14
143.000000	10
144.000000	18
146.000000	31
147.000000	27
148.000000	152
149.000000	45
150.000000	34
151.000000	31
152.000000	15
153.000000	20
154.000000	6
155.000000	6
156.000000	12
158.000000	6
159.000000	1
160.000000	5
161.000000	9
162.000000	28
163.000000	130
164.000000	45
165.000000	205
166.000000	52
167.000000	21
168.000000	11
169.000000	20
170.000000	11
171.000000	13
172.000000	7
173.000000	22
174.000000	14
176.000000	20
177.000000	35
178.000000	34
179.000000	88
180.000000	100
181.000000	94
182.000000	17
183.000000	2
184.000000	11
185.000000	11
187.000000	9
189.000000	3
190.000000	11
191.000000	68
192.000000	33
193.000000	87
194.000000	37
195.000000	144
196.000000	45
197.000000	23
198.000000	9
199.000000	11
200.000000	3
202.000000	3
203.000000	9
204.000000	20
205.000000	35
205.950000	283
207.000000	98
208.000000	40
209.000000	44
210.000000	1
211.000000	14
212.000000	9
213.000000	13
215.000000	5
216.000000	17
217.000000	7
219.000000	76
220.000000	39
221.000000	359
222.000000	339
223.000000	101
224.000000	27
225.000000	9
226.000000	1
227.000000	7
228.000000	15
229.000000	13
230.000000	4
233.000000	14
234.000000	13
235.000000	8
236.050000	167
237.000000	37
238.000000	17
239.000000	7
240.000000	10
241.000000	12
242.000000	8
243.000000	8
244.000000	7
245.000000	7
246.000000	4
247.000000	5
248.000000	14
249.000000	2
250.000000	20
251.000000	9
252.000000	682
253.000000	138
254.000000	22
255.000000	2
256.000000	11
257.000000	3
259.000000	1
261.000000	1
262.000000	14
263.000000	6
264.000000	13
265.000000	12
266.000000	19
267.050000	597
268.100000	129
269.100000	21
270.100000	13
271.100000	18
273.100000	18
275.100000	4
276.100000	14
277.100000	13
278.100000	6
279.100000	5
280.100000	6
281.100000	15
282.100000	14
283.100000	16
284.100000	5
286.100000	5
287.100000	3
288.100000	8
289.100000	8
290.100000	6
292.100000	7
293.100000	8
295.100000	16
296.100000	12
298.100000	9
299.100000	4
300.100000	3
301.100000	1
302.100000	2
303.100000	5
305.100000	8
306.100000	8
308.100000	6
309.100000	6
310.100000	12
311.100000	6
312.100000	2
313.100000	9
314.100000	2
315.100000	9
316.100000	9
317.100000	3
318.100000	4
319.100000	8
320.100000	7
321.100000	13
324.100000	12
325.100000	4
326.100000	15
327.100000	4
328.100000	2
329.100000	12
330.100000	12
331.100000	18
332.100000	1
335.100000	18
336.100000	6
337.100000	9
340.100000	19
341.100000	14
342.100000	7
343.100000	7
344.100000	1
345.100000	1
346.100000	5
347.100000	1
349.100000	6
350.100000	8
351.100000	13
352.100000	3
353.100000	8
355.100000	10
356.100000	12
358.100000	2
361.100000	9
362.100000	16
363.100000	10
364.100000	4
365.100000	6
366.100000	3
368.100000	15
370.100000	6
371.100000	2
373.100000	7
375.100000	12
376.100000	7
377.100000	10
378.100000	2
380.100000	3
381.100000	5
382.100000	6
383.100000	8
385.100000	12
386.100000	7
387.100000	3
389.100000	16
390.100000	18
391.100000	4
392.100000	7
393.100000	1
394.100000	11
395.100000	13
396.100000	4
397.100000	9
398.100000	7
399.100000	1
400.100000	16
402.100000	2
403.100000	2
404.100000	14
405.100000	7
406.100000	23
410.100000	2
411.100000	10
412.100000	11
413.100000	12
414.100000	12
415.100000	6
416.100000	4
417.100000	18
418.100000	8
419.100000	15
420.100000	5
421.100000	16
423.100000	7
425.100000	12
427.100000	8
428.100000	9
429.100000	7
430.100000	14
431.100000	18
433.100000	2
434.100000	19
435.100000	6
436.100000	8
438.100000	10
439.100000	7
440.100000	3
442.100000	1
443.100000	9
445.100000	19
446.100000	17
447.100000	8
448.100000	9
450.100000	5
451.100000	6
454.100000	3
455.100000	18
456.100000	3
458.100000	6
459.100000	4
460.100000	13
461.100000	7
463.100000	4
464.100000	7
468.100000	4
469.100000	11
470.100000	11
471.100000	6
472.100000	7
473.100000	6
475.100000	4
479.100000	6
480.100000	1
481.100000	15
482.100000	3
483.100000	1
484.100000	4
485.100000	2
486.100000	1
487.100000	1
488.100000	4
490.100000	3
491.100000	17
492.100000	7
493.100000	5
495.100000	10
496.100000	11
497.100000	3
498.100000	11
499.100000	6
