Mass spectrum: Bicine; EI-B; MS; 3 TMS; RT: 682.05 s
Name: Bicine
Class: Natural Product
Formula: C6H13NO4
Exact mass: 163.08446
SMILES: OCCN(CCO)CC(O)=O
InChI: InChI=1S/C6H13NO4/c8-3-1-7(2-4-9)5-6(10)11/h8-9H,1-5H2,(H,10,11)
Instrument: GCMS-2010 Plus, Shimadzu
Instrument type: EI-B
Ms type: MS
Ion mode: POSITIVE
Column name: InertCap 5MS/NP 0.25 mmI.D. x 30 m, df=0.25 um
Retention time: 682.05
Derivative type: 3 TMS
m/z	relative intensity
86.100000	19
87.050000	8
88.050000	9
89.050000	13
90.100000	2
91.100000	1
92.100000	1
93.100000	1
94.100000	1
95.100000	1
96.100000	3
97.100000	1
98.100000	7
99.150000	3
100.100000	34
101.050000	57
102.100000	16
103.100000	165
104.100000	17
105.100000	8
106.100000	1
107.100000	1
108.100000	1
109.100000	1
110.100000	1
111.100000	1
112.100000	1
113.100000	1
114.100000	8
115.100000	9
116.100000	38
117.100000	224
118.100000	28
119.100000	14
120.150000	2
121.200000	1
122.200000	1
123.200000	1
124.200000	1
125.200000	1
126.200000	1
127.100000	1
128.100000	17
129.100000	10
130.100000	125
131.100000	24
132.100000	14
133.100000	35
134.100000	5
135.100000	4
136.100000	1
137.100000	1
138.100000	1
140.100000	1
141.100000	1
142.100000	7
143.150000	3
144.150000	59
145.150000	23
146.150000	22
147.150000	118
148.150000	20
149.150000	12
150.100000	1
151.100000	1
152.100000	1
153.100000	1
154.100000	1
155.100000	1
156.150000	4
157.200000	3
158.150000	71
159.150000	11
160.150000	25
161.100000	4
162.100000	1
163.100000	1
164.100000	1
165.100000	1
166.100000	1
167.100000	1
168.100000	1
169.100000	1
170.150000	3
171.100000	1
172.150000	50
173.100000	11
174.100000	12
175.050000	3
176.100000	1
177.100000	2
178.100000	1
179.100000	1
181.100000	1
182.100000	1
183.100000	1
184.100000	2
185.100000	1
186.100000	6
187.100000	1
188.100000	5
189.100000	1
190.100000	1
191.100000	8
192.100000	2
193.100000	1
194.100000	1
195.100000	1
196.100000	1
197.100000	1
198.100000	1
199.100000	1
200.100000	3
201.100000	1
202.100000	1
203.100000	1
204.100000	5
205.100000	2
206.100000	1
207.100000	1
208.100000	1
209.100000	1
210.100000	1
211.100000	1
212.100000	1
213.100000	1
214.100000	1
215.100000	1
216.100000	2
217.150000	2
218.100000	53
219.100000	11
220.100000	5
221.100000	1
222.100000	1
223.100000	1
224.100000	1
225.100000	1
226.100000	1
230.100000	1
231.100000	1
232.150000	22
233.100000	6
234.150000	3
235.200000	1
236.200000	1
237.200000	1
238.200000	1
239.200000	1
240.200000	1
241.200000	1
242.200000	1
243.200000	1
244.200000	1
245.100000	1
246.150000	19
247.250000	6
248.150000	125
249.150000	28
250.150000	12
251.100000	2
252.100000	1
253.100000	1
254.100000	1
255.100000	1
256.100000	1
257.100000	1
258.100000	1
259.200000	1
260.150000	9
261.250000	6
262.200000	452
263.200000	103
264.200000	41
265.150000	7
266.200000	1
267.200000	1
268.200000	1
269.200000	1
270.200000	1
271.200000	1
272.200000	1
273.100000	1
274.150000	8
275.250000	11
276.150000	999
277.150000	232
278.150000	99
279.150000	15
280.150000	3
281.100000	1
282.100000	1
283.100000	1
284.100000	1
286.100000	1
287.100000	1
288.100000	1
289.150000	3
290.150000	2
291.200000	2
292.200000	1
293.200000	1
294.200000	1
295.200000	1
297.200000	1
298.200000	1
300.200000	1
301.200000	1
302.200000	1
303.200000	1
304.200000	1
305.200000	1
306.200000	1
307.200000	1
309.200000	1
310.200000	1
311.200000	1
312.200000	1
313.200000	1
314.200000	1
315.200000	1
316.200000	1
317.200000	1
318.200000	1
319.200000	1
320.200000	1
321.200000	1
322.200000	1
323.200000	1
324.200000	1
325.200000	1
327.200000	1
328.200000	1
329.200000	1
330.200000	1
331.200000	1
332.200000	1
334.200000	1
335.200000	1
336.200000	64
337.200000	20
338.150000	9
339.100000	2
340.100000	1
341.100000	1
342.100000	1
343.100000	1
345.100000	1
346.100000	1
347.100000	1
348.100000	1
350.100000	1
351.100000	1
352.100000	1
353.100000	1
354.100000	1
355.100000	1
356.100000	1
357.100000	1
358.100000	1
359.100000	1
361.100000	1
362.100000	1
363.200000	1
364.150000	62
365.150000	20
366.150000	9
367.200000	2
368.200000	1
369.200000	1
370.200000	1
371.200000	1
372.200000	1
373.200000	1
376.200000	1
377.200000	1
378.250000	3
379.200000	24
380.200000	7
381.250000	4
382.200000	1
383.200000	1
384.200000	1
386.200000	1
387.200000	1
389.200000	1
390.200000	1
391.200000	1
392.200000	1
395.200000	1
396.200000	1
397.200000	1
399.200000	1
400.200000	1
401.200000	1
402.200000	1
406.200000	1
407.200000	1
408.200000	1
409.200000	1
410.200000	1
411.200000	1
412.200000	1
414.200000	1
415.200000	1
416.200000	1
417.200000	1
418.200000	1
419.200000	1
420.200000	1
421.200000	1
422.200000	1
423.200000	1
424.200000	1
425.200000	1
426.200000	1
427.200000	1
428.200000	1
429.200000	1
430.200000	1
431.200000	1
432.200000	1
433.200000	1
434.200000	1
436.200000	1
438.200000	1
439.200000	1
440.200000	1
442.200000	1
443.200000	1
444.200000	1
445.200000	1
446.200000	1
448.200000	1
449.200000	1
450.200000	1
451.200000	1
452.200000	1
453.200000	1
456.200000	1
457.200000	1
458.200000	1
459.200000	1
460.200000	1
461.200000	1
462.200000	1
463.200000	1
464.200000	1
465.200000	1
466.200000	1
467.200000	1
468.200000	1
469.200000	1
470.200000	1
471.200000	1
472.200000	1
473.200000	1
474.200000	1
475.200000	1
476.200000	1
477.200000	1
478.200000	1
480.200000	1
481.200000	1
482.200000	1
483.200000	1
484.200000	1
485.200000	1
486.200000	1
487.200000	1
489.200000	1
490.200000	1
493.200000	1
495.200000	1
496.200000	1
497.200000	1
498.200000	1
499.200000	1
