Mass spectrum: L-(+)-Lactic acid; EI-B; MS; 2 TMS; RT: 303.72 s
Name: L-(+)-Lactic acid
Class: Natural Product
Formula: C3H6O3
Exact mass: 90.03169
SMILES: C[C@H](O)C(O)=O
InChI: InChI=1S/C3H6O3/c1-2(4)3(5)6/h2,4H,1H3,(H,5,6)/t2-/m0/s1
Instrument: GCMS-2010 Plus, Shimadzu
Instrument type: EI-B
Ms type: MS
Ion mode: POSITIVE
Column name: InertCap 5MS/NP 0.25 mmI.D. x 30 m, df=0.25 um
Retention time: 303.72
Derivative type: n TMS
m/z	relative intensity
86.000000	3
87.000000	20
88.000000	72
88.950000	12
90.000000	1
91.000000	1
92.000000	1
93.000000	1
94.000000	3
95.000000	1
96.000000	1
97.000000	1
98.000000	1
99.000000	2
100.000000	1
101.000000	25
102.000000	19
102.950000	14
103.900000	2
104.950000	6
106.000000	1
107.000000	1
108.000000	1
110.000000	1
111.000000	1
112.000000	1
113.000000	2
114.000000	1
114.950000	12
116.050000	10
117.050000	999
118.050000	102
119.050000	43
120.000000	2
121.000000	1
122.000000	1
123.000000	1
126.000000	1
127.000000	1
128.000000	1
129.000000	17
130.000000	3
131.000000	43
132.000000	8
133.000000	70
134.000000	10
135.000000	5
136.000000	1
137.000000	1
138.000000	1
139.000000	1
140.000000	1
141.000000	1
142.000000	1
143.000000	1
144.000000	1
145.000000	1
146.050000	3
147.000000	863
148.050000	132
149.050000	72
150.050000	8
151.000000	2
152.000000	1
153.000000	1
154.000000	1
155.000000	1
156.000000	1
157.000000	1
158.000000	1
159.000000	1
161.000000	1
162.000000	1
163.000000	1
164.000000	1
168.000000	1
169.000000	1
170.000000	1
171.000000	1
173.000000	1
174.000000	1
175.000000	8
176.000000	1
177.000000	1
178.000000	1
179.000000	1
180.000000	1
181.000000	1
183.000000	1
184.000000	1
185.000000	1
186.000000	1
187.000000	1
188.000000	1
189.000000	1
189.950000	155
190.950000	202
191.950000	48
193.000000	18
194.000000	2
195.000000	1
196.000000	1
197.000000	1
198.000000	1
199.000000	1
200.000000	1
201.000000	1
201.900000	1
202.950000	8
203.900000	1
204.900000	1
205.900000	1
206.900000	1
207.900000	1
208.900000	1
209.900000	1
210.900000	1
211.900000	1
212.900000	1
213.900000	1
214.900000	1
215.900000	1
216.900000	1
217.900000	1
218.950000	64
219.950000	13
220.900000	5
221.900000	1
222.900000	1
223.900000	1
224.900000	1
226.900000	1
227.900000	1
228.900000	1
229.900000	1
230.900000	1
231.900000	1
232.900000	1
233.900000	1
234.900000	1
235.900000	1
236.900000	1
237.900000	1
238.900000	1
239.900000	1
240.900000	1
241.900000	1
242.900000	1
243.900000	1
244.900000	1
245.900000	1
247.900000	1
248.900000	1
249.900000	1
250.900000	1
251.900000	1
252.900000	1
254.900000	1
255.900000	1
256.900000	1
257.900000	1
258.900000	1
260.900000	1
261.900000	1
262.900000	1
263.900000	1
264.900000	1
265.900000	1
266.900000	1
267.900000	1
268.900000	1
270.900000	1
272.900000	1
273.900000	1
274.900000	1
275.900000	1
276.900000	1
277.900000	1
278.900000	1
279.900000	1
280.900000	1
281.900000	1
282.900000	1
283.900000	1
284.900000	1
285.900000	1
286.900000	1
288.900000	1
293.900000	1
294.900000	1
295.900000	1
296.900000	1
297.900000	1
299.900000	1
300.900000	1
301.900000	1
302.900000	1
303.900000	1
304.900000	1
305.900000	1
306.900000	1
307.900000	1
310.900000	1
311.900000	1
312.900000	1
313.900000	1
314.900000	1
316.900000	1
317.900000	1
318.900000	1
319.900000	1
321.900000	1
323.900000	1
325.900000	1
326.900000	1
327.900000	1
328.900000	1
329.900000	1
331.900000	1
332.900000	1
336.900000	1
337.900000	1
338.900000	1
339.900000	1
340.900000	1
341.900000	1
342.900000	1
343.900000	1
345.900000	1
346.900000	1
347.900000	1
348.900000	1
349.900000	1
350.900000	1
351.900000	1
352.900000	1
354.900000	1
355.900000	1
356.900000	1
357.900000	1
359.900000	1
360.900000	1
361.900000	1
362.900000	1
363.900000	1
364.900000	1
365.900000	1
367.900000	1
368.900000	1
369.900000	1
370.900000	1
371.900000	1
372.900000	1
374.900000	1
375.900000	1
376.900000	1
377.900000	1
378.900000	1
379.900000	1
380.900000	1
381.900000	1
382.900000	1
383.900000	1
385.900000	1
386.900000	1
387.900000	1
389.900000	1
390.900000	1
391.900000	1
393.900000	1
394.900000	1
395.900000	1
396.900000	1
398.900000	1
399.900000	1
401.900000	1
403.900000	1
404.900000	1
405.900000	1
407.900000	1
408.900000	1
409.900000	1
410.900000	1
411.900000	1
412.900000	1
413.900000	1
414.900000	1
415.900000	1
416.900000	1
417.900000	1
419.900000	1
421.900000	1
424.900000	1
425.900000	1
426.900000	1
427.900000	1
428.900000	1
429.900000	1
430.900000	1
433.900000	1
434.900000	1
435.900000	1
437.900000	1
438.900000	1
439.900000	1
440.900000	1
446.900000	1
448.900000	1
450.900000	1
451.900000	1
454.900000	1
455.900000	1
456.900000	1
458.900000	1
459.900000	1
461.900000	1
463.900000	1
464.900000	1
465.900000	1
466.900000	1
467.900000	1
468.900000	1
469.900000	1
470.900000	1
471.900000	1
473.900000	1
474.900000	1
475.900000	1
476.900000	1
477.900000	1
478.900000	1
479.900000	1
480.900000	1
481.900000	1
482.900000	1
483.900000	1
484.900000	1
487.900000	1
488.900000	1
490.900000	1
492.900000	1
493.900000	1
494.900000	1
495.900000	1
496.900000	1
