Mass spectrum: L-Aspartic acid; EI-B; MS; 3 TMS; RT: 596.87 s
Name: L-Aspartic acid
Class: Natural Product
Formula: C4H7NO4
Exact mass: 133.03751
SMILES: OC(=O)CC(N)C(O)=O
InChI: InChI=1S/C4H7NO4/c5-2(4(8)9)1-3(6)7/h2H,1,5H2,(H,6,7)(H,8,9)/t2-/m0/s1
Instrument: GCMS-2010 Plus, Shimadzu
Instrument type: EI-B
Ms type: MS
Ion mode: POSITIVE
Column name: InertCap 5MS/NP 0.25 mmI.D. x 30 m, df=0.25 um
Retention time: 596.87
Derivative type: 3 TMS
m/z	relative intensity
86.050000	6
87.050000	3
88.000000	2
89.050000	2
90.000000	1
91.050000	2
92.000000	1
93.000000	1
94.000000	1
95.000000	1
96.000000	1
97.000000	1
98.050000	8
99.150000	6
100.050000	308
101.100000	33
102.050000	14
103.050000	11
104.050000	1
105.100000	2
106.100000	1
107.100000	1
108.100000	1
109.100000	1
110.100000	1
111.100000	1
112.100000	1
113.050000	2
114.150000	6
115.100000	13
116.100000	8
117.050000	70
118.100000	8
119.050000	9
120.000000	1
121.000000	1
122.000000	1
123.000000	1
124.000000	1
125.000000	1
126.000000	1
127.100000	1
128.100000	7
129.050000	4
130.050000	17
131.050000	20
132.050000	13
133.050000	41
134.050000	7
135.000000	4
136.000000	1
137.000000	1
138.000000	1
139.000000	1
140.000000	1
141.100000	1
142.100000	18
143.100000	7
144.100000	6
145.050000	2
146.150000	5
147.100000	189
148.100000	31
149.100000	24
150.100000	3
151.100000	1
152.100000	1
153.100000	1
154.100000	1
155.100000	1
156.100000	1
157.100000	1
158.050000	3
159.100000	2
160.100000	7
161.100000	3
162.050000	1
163.100000	33
164.100000	6
165.100000	3
166.100000	1
167.100000	1
168.100000	1
169.100000	1
170.050000	1
171.050000	3
172.100000	14
173.050000	4
174.100000	19
175.100000	4
176.050000	3
177.000000	4
178.000000	1
179.000000	1
180.000000	1
181.000000	1
182.000000	1
183.000000	1
184.000000	1
185.000000	1
186.000000	1
187.150000	1
188.100000	103
189.050000	24
190.050000	13
191.000000	6
192.000000	1
193.000000	1
194.000000	1
195.000000	1
196.000000	1
197.000000	1
198.000000	1
199.000000	1
200.050000	2
201.050000	1
202.050000	88
203.050000	16
204.050000	22
205.050000	7
206.050000	3
207.050000	2
208.000000	1
209.000000	1
210.000000	1
211.000000	1
212.000000	1
213.000000	1
214.050000	1
215.050000	2
216.050000	34
217.150000	9
218.050000	188
219.050000	36
220.050000	17
221.050000	9
222.050000	2
223.000000	1
224.000000	1
225.000000	1
226.000000	1
227.000000	1
228.000000	1
229.000000	1
230.050000	5
231.150000	14
232.050000	999
233.050000	216
234.050000	95
235.050000	14
236.050000	3
237.100000	1
238.100000	1
239.100000	1
240.100000	1
241.100000	1
242.100000	1
243.100000	1
244.050000	11
245.050000	11
246.050000	4
247.050000	1
248.000000	1
249.000000	1
250.000000	1
251.000000	1
252.000000	1
253.000000	1
254.000000	1
255.000000	1
256.000000	1
257.000000	1
258.000000	1
259.100000	1
260.100000	1
261.100000	1
262.150000	4
263.100000	1
264.100000	1
265.100000	1
266.100000	1
267.100000	1
268.100000	1
269.100000	1
270.100000	1
271.100000	1
273.100000	1
274.100000	1
275.100000	1
276.100000	1
277.100000	1
278.100000	1
279.100000	1
280.100000	1
281.100000	1
282.100000	1
283.100000	1
284.100000	1
285.100000	1
286.100000	1
287.100000	1
288.100000	1
289.100000	1
290.100000	1
291.100000	1
292.100000	19
293.050000	5
294.050000	3
295.100000	1
296.100000	1
297.100000	1
298.100000	1
299.100000	1
301.100000	1
302.100000	1
303.100000	1
304.100000	1
305.100000	1
306.100000	32
307.100000	9
308.100000	5
309.050000	1
310.100000	1
311.100000	1
312.100000	1
313.100000	1
315.100000	1
316.150000	1
317.100000	1
318.100000	1
319.100000	1
320.100000	1
321.100000	1
323.100000	1
324.100000	1
325.100000	1
326.100000	1
327.100000	1
329.100000	1
330.100000	1
331.100000	1
332.050000	1
333.100000	1
334.100000	17
335.050000	5
336.100000	2
337.100000	1
338.100000	1
339.100000	1
340.100000	1
341.100000	1
342.100000	1
343.100000	1
344.100000	1
346.100000	1
347.100000	1
348.100000	1
349.100000	11
350.100000	4
351.100000	2
352.100000	1
353.100000	1
354.100000	1
355.100000	1
356.100000	1
357.100000	1
358.100000	1
359.100000	1
360.100000	1
361.100000	1
362.100000	1
364.100000	1
367.100000	1
369.100000	1
371.100000	1
372.100000	1
373.100000	1
374.100000	1
375.100000	1
376.100000	1
377.100000	1
378.100000	1
379.100000	1
380.100000	1
382.100000	1
383.100000	1
384.100000	1
386.100000	1
387.100000	1
388.100000	1
391.100000	1
393.100000	1
394.100000	1
395.100000	1
396.100000	1
397.100000	1
398.100000	1
399.100000	1
400.100000	1
401.100000	1
402.100000	1
403.100000	1
404.100000	1
405.100000	1
406.100000	1
407.100000	1
408.100000	1
409.100000	1
410.100000	1
411.100000	1
412.100000	1
413.100000	1
414.100000	1
416.100000	1
417.100000	1
419.100000	1
420.100000	1
422.100000	1
423.100000	1
424.100000	1
425.100000	1
426.100000	1
427.100000	1
428.100000	1
429.100000	1
430.100000	1
431.100000	1
432.100000	1
433.100000	1
434.100000	1
435.100000	1
436.100000	1
437.100000	1
438.100000	1
440.100000	1
441.100000	1
442.100000	1
443.100000	1
444.100000	1
445.100000	1
446.100000	1
447.100000	1
449.100000	1
450.100000	1
453.100000	1
454.100000	1
456.100000	1
457.100000	1
458.100000	1
459.100000	1
460.100000	1
461.100000	1
462.100000	1
463.100000	1
464.100000	1
465.100000	1
466.100000	1
467.100000	1
468.100000	1
469.100000	1
470.100000	1
471.100000	1
473.100000	1
474.100000	1
476.100000	1
477.100000	1
478.100000	1
479.100000	1
480.100000	1
481.100000	1
482.100000	1
483.100000	1
484.100000	1
485.100000	1
486.100000	1
487.100000	1
488.100000	1
489.100000	1
490.100000	1
491.100000	1
492.100000	1
493.100000	1
495.100000	1
496.100000	1
497.100000	1
498.100000	1
499.100000	1
