Mass spectrum: Kojic acid; EI-B; MS; n TMS; RT: 675.54 s
Name: Kojic acid
Class: Natural Product
Formula: C6H6O4
Exact mass: 142.02661
SMILES: OCC(O1)=CC(=O)C(O)=C1
InChI: InChI=1S/C6H6O4/c7-2-4-1-5(8)6(9)3-10-4/h1,3,7,9H,2H2
Instrument: GCMS-2010 Plus, Shimadzu
Instrument type: EI-B
Ms type: MS
Ion mode: POSITIVE
Column name: InertCap 5MS/NP 0.25 mmI.D. x 30 m, df=0.25 um
Retention time: 675.54
Derivative type: n TMS
m/z	relative intensity
86.000000	18
87.000000	25
89.000000	28
90.000000	6
91.000000	17
92.000000	18
93.000000	4
94.000000	5
95.000000	24
96.000000	16
97.000000	49
98.000000	40
99.000000	59
100.000000	47
101.000000	15
102.000000	22
103.000000	32
104.000000	24
105.000000	11
106.000000	19
107.000000	15
108.000000	24
109.000000	33
110.000000	23
111.000000	57
112.000000	17
113.000000	35
114.000000	6
115.000000	14
116.000000	10
117.000000	4
118.000000	16
119.000000	5
120.000000	28
121.000000	15
123.000000	20
124.000000	12
125.000000	12
126.000000	42
127.000000	13
128.000000	120
129.000000	46
131.000000	63
132.000000	6
133.000000	85
134.000000	1
135.000000	40
136.000000	33
137.000000	6
138.000000	2
139.000000	27
140.000000	11
141.000000	84
142.000000	36
143.000000	25
144.000000	16
145.000000	16
147.100000	663
148.100000	116
149.100000	85
150.100000	23
151.100000	20
152.100000	15
153.100000	155
154.100000	19
155.100000	43
156.100000	2
157.100000	20
159.100000	7
160.100000	5
161.100000	15
162.100000	7
163.100000	22
164.100000	11
165.100000	15
167.100000	31
168.100000	5
169.100000	32
170.100000	11
171.100000	12
173.100000	6
174.100000	12
175.100000	21
176.100000	4
177.100000	14
178.100000	5
179.100000	27
180.100000	11
182.100000	23
183.100000	55
184.100000	10
185.100000	17
187.100000	15
188.100000	4
190.100000	6
191.100000	11
192.100000	14
193.100000	15
194.100000	4
195.100000	7
196.100000	10
197.100000	48
198.100000	6
199.100000	4
200.100000	18
202.100000	20
203.100000	15
204.100000	26
205.100000	15
206.100000	16
207.100000	5
209.100000	1
210.100000	15
212.100000	24
213.100000	4
214.100000	13
215.100000	27
216.100000	9
217.100000	28
218.100000	13
219.100000	45
220.100000	18
221.100000	22
222.100000	11
223.100000	13
224.100000	5
225.100000	17
226.100000	7
227.100000	8
228.100000	12
230.100000	9
231.100000	11
232.100000	2
233.100000	17
234.100000	8
235.100000	7
236.100000	6
237.100000	5
238.100000	3
239.100000	2
240.100000	6
241.100000	15
242.100000	26
243.100000	40
244.100000	24
245.100000	13
246.100000	13
247.100000	23
249.100000	15
250.100000	7
251.100000	15
252.100000	13
253.100000	27
254.100000	13
255.100000	13
256.100000	15
257.100000	20
258.100000	6
259.100000	3
260.100000	5
261.100000	9
262.100000	13
263.100000	17
264.100000	5
265.100000	1
267.100000	7
268.100000	5
269.100000	15
271.000000	999
272.000000	231
273.000000	130
274.000000	24
275.000000	7
276.000000	5
277.000000	8
279.000000	10
280.000000	10
281.000000	10
282.000000	9
283.000000	1
285.000000	26
287.000000	9
289.000000	1
290.000000	12
291.000000	8
293.000000	9
294.000000	7
295.000000	15
296.000000	8
299.000000	1
300.000000	9
301.000000	8
302.000000	5
303.000000	8
306.000000	19
310.000000	15
311.000000	9
312.000000	6
313.000000	3
314.000000	14
315.000000	4
316.000000	14
317.000000	4
318.000000	2
319.000000	11
323.000000	4
325.000000	9
326.000000	6
327.000000	7
329.000000	15
331.000000	6
333.000000	12
334.000000	15
335.000000	2
336.000000	7
337.000000	6
339.000000	1
340.000000	20
343.000000	5
344.000000	9
345.000000	17
346.000000	22
347.000000	6
348.000000	20
350.000000	6
351.000000	20
352.000000	17
354.000000	5
355.000000	12
356.000000	20
357.000000	7
358.000000	4
360.000000	13
361.000000	2
362.000000	6
363.000000	12
364.000000	9
365.000000	13
366.000000	10
368.000000	14
369.000000	15
370.000000	9
371.000000	6
372.000000	26
373.000000	5
374.000000	14
375.000000	15
376.000000	9
377.000000	4
379.000000	8
380.000000	13
383.000000	12
385.000000	21
386.000000	20
387.000000	14
388.000000	13
389.000000	20
390.000000	22
392.000000	21
393.000000	2
394.000000	3
395.000000	31
396.000000	11
397.000000	5
398.000000	13
399.000000	14
400.000000	8
401.000000	17
402.000000	3
403.000000	12
405.000000	25
406.000000	13
407.000000	5
408.000000	8
409.000000	4
411.000000	13
412.000000	1
413.000000	6
415.000000	26
416.000000	11
417.000000	14
418.000000	12
419.000000	9
421.000000	6
423.000000	1
424.000000	11
425.000000	7
427.000000	5
429.000000	2
433.000000	10
437.000000	4
439.000000	7
440.000000	26
441.000000	18
443.000000	5
444.000000	15
445.000000	11
446.000000	5
447.000000	2
448.000000	6
449.000000	8
450.000000	8
451.000000	6
452.000000	11
453.000000	5
454.000000	21
455.000000	14
457.000000	7
460.000000	24
461.000000	6
462.000000	4
463.000000	7
464.000000	2
465.000000	9
466.000000	18
468.000000	2
469.000000	18
470.000000	2
471.000000	15
472.000000	11
473.000000	15
475.000000	10
476.000000	17
477.000000	2
478.000000	4
479.000000	8
481.000000	15
484.000000	7
485.000000	10
486.000000	10
487.000000	9
488.000000	12
489.000000	6
491.000000	7
494.000000	13
495.000000	14
496.000000	11
497.000000	6
498.000000	1
499.000000	6
