Mass spectrum: L-Tryptophan; EI-B; MS; 3 TMS; RT: 915.18 s
Name: L-Tryptophan
Class: Natural Product
Formula: C11H12N2O2
Exact mass: 204.08988
SMILES: C1=CC=C2C(=C1)C(=CN2)C[C@@H](C(=O)O)N
InChI: InChI=1S/C11H12N2O2/c12-9(11(14)15)5-7-6-13-10-4-2-1-3-8(7)10/h1-4,6,9,13H,5,12H2,(H,14,15)/t9-/m0/s1
Instrument: GCMS-2010 Plus, Shimadzu
Instrument type: EI-B
Ms type: MS
Ion mode: POSITIVE
Column name: InertCap 5MS/NP 0.25 mmI.D. x 30 m, df=0.25 um
Retention time: 915.18
Derivative type: 3 TMS
m/z	relative intensity
86.200000	6
87.200000	4
88.200000	1
89.200000	2
90.200000	1
91.200000	2
92.200000	1
93.200000	1
94.200000	1
95.200000	1
96.200000	4
97.200000	3
98.200000	2
99.100000	2
100.100000	38
101.100000	20
102.100000	10
103.100000	7
104.100000	1
105.100000	3
106.100000	1
107.100000	1
108.100000	1
109.100000	1
110.100000	1
111.100000	2
112.100000	1
113.100000	1
114.100000	2
115.100000	6
116.100000	4
117.150000	16
118.200000	3
119.200000	2
120.200000	1
121.200000	1
122.200000	1
123.200000	1
124.200000	2
125.200000	1
126.200000	1
127.200000	2
128.200000	4
129.150000	20
130.100000	62
131.100000	19
132.100000	18
133.100000	7
134.100000	3
135.100000	1
136.100000	1
137.100000	1
139.100000	1
140.100000	1
141.100000	1
142.100000	1
143.100000	2
144.100000	3
145.100000	9
146.200000	6
147.150000	31
148.200000	5
149.200000	3
150.200000	2
151.200000	1
152.200000	2
153.200000	1
154.200000	1
155.200000	1
156.200000	3
157.200000	2
158.200000	4
159.200000	4
160.200000	4
161.200000	1
162.200000	1
163.200000	2
164.200000	1
165.200000	1
166.200000	1
167.200000	1
168.200000	1
169.200000	1
170.200000	4
171.200000	1
172.200000	6
173.200000	1
174.200000	3
175.200000	1
177.200000	2
178.200000	1
179.200000	1
180.200000	1
181.200000	1
182.200000	1
183.200000	1
184.200000	3
185.200000	1
186.200000	7
187.200000	2
188.150000	9
189.100000	3
190.150000	12
191.100000	4
192.100000	1
193.100000	1
195.100000	1
196.100000	1
197.100000	1
198.100000	2
199.100000	5
200.100000	22
201.150000	11
202.150000	999
203.150000	200
204.150000	58
205.150000	10
206.100000	2
207.050000	10
208.000000	4
209.000000	1
210.000000	1
211.000000	1
212.000000	1
213.000000	1
214.000000	2
215.000000	3
216.000000	3
217.000000	1
218.150000	48
219.200000	16
220.200000	5
221.200000	2
222.200000	1
223.200000	1
224.200000	1
225.200000	1
226.200000	1
227.200000	1
228.200000	1
229.200000	3
230.200000	8
231.200000	3
232.200000	2
233.200000	1
234.200000	1
235.200000	1
236.200000	1
237.200000	1
238.200000	1
239.200000	1
240.200000	1
241.200000	3
242.200000	1
243.200000	1
244.200000	2
245.200000	1
246.200000	1
248.200000	3
249.200000	2
250.200000	1
251.200000	1
252.200000	1
253.200000	2
254.200000	1
255.200000	1
256.200000	1
257.200000	1
258.200000	1
259.200000	1
260.200000	1
261.200000	1
262.200000	1
263.200000	1
264.200000	1
265.200000	1
266.200000	1
267.200000	1
268.200000	1
269.200000	1
270.200000	1
271.200000	1
272.200000	1
273.200000	1
274.200000	1
276.200000	5
277.200000	1
278.200000	1
280.200000	1
281.200000	2
282.200000	1
283.200000	2
284.200000	1
286.200000	1
287.200000	2
288.200000	3
289.200000	1
290.200000	2
291.200000	144
292.250000	36
293.250000	20
294.300000	4
295.300000	2
296.300000	1
297.300000	1
298.300000	1
299.300000	1
300.300000	1
301.300000	1
302.300000	3
303.250000	11
304.200000	5
305.200000	1
306.200000	1
307.200000	2
308.200000	1
309.200000	1
310.200000	1
311.200000	1
312.200000	1
313.200000	1
314.200000	1
315.200000	3
316.200000	1
317.200000	1
318.200000	1
319.200000	1
321.200000	1
322.200000	1
323.200000	1
324.200000	1
325.200000	1
326.200000	1
327.200000	1
328.200000	1
329.200000	1
330.200000	1
331.200000	1
332.200000	1
334.200000	1
335.200000	1
336.200000	1
337.200000	1
339.200000	1
340.200000	1
341.200000	6
342.200000	1
343.200000	1
344.200000	1
345.200000	1
346.200000	1
347.200000	1
348.200000	1
349.200000	1
350.200000	1
352.200000	1
354.200000	1
355.200000	1
356.200000	1
357.200000	1
358.200000	1
359.200000	1
360.200000	1
361.200000	1
362.200000	1
363.200000	1
364.200000	1
365.200000	1
366.200000	1
368.200000	1
369.200000	1
370.200000	1
371.200000	1
372.200000	1
373.200000	1
374.200000	1
375.200000	1
376.200000	1
377.200000	7
378.200000	4
379.200000	3
380.200000	1
381.200000	1
383.200000	1
384.200000	1
385.200000	1
386.200000	1
389.200000	2
390.200000	1
391.200000	1
392.200000	1
393.200000	1
394.200000	1
397.200000	1
398.200000	1
400.200000	1
401.200000	1
402.200000	1
403.200000	1
404.200000	1
405.200000	10
406.200000	3
407.200000	2
408.200000	1
409.200000	1
410.200000	1
411.200000	1
413.200000	1
414.200000	1
415.200000	1
416.200000	1
417.200000	1
418.200000	1
419.200000	1
420.200000	1
422.200000	1
423.200000	1
425.200000	1
426.200000	1
428.200000	1
429.200000	1
430.200000	1
431.200000	1
432.200000	1
433.200000	1
434.200000	1
435.200000	1
436.200000	1
438.200000	1
439.200000	1
441.200000	1
442.200000	1
443.200000	1
444.200000	1
445.200000	1
447.200000	1
448.200000	1
449.200000	1
450.200000	1
451.200000	1
452.200000	1
453.200000	1
454.200000	1
455.200000	1
456.200000	1
457.200000	1
458.200000	1
459.200000	1
460.200000	1
462.200000	1
463.200000	1
464.200000	1
466.200000	1
467.200000	1
469.200000	1
470.200000	1
471.200000	1
472.200000	1
473.200000	1
474.200000	1
475.200000	1
476.200000	1
477.200000	1
478.200000	1
479.200000	1
480.200000	1
481.200000	1
484.200000	1
485.200000	1
486.200000	1
488.200000	1
489.200000	1
490.200000	1
491.200000	1
494.200000	1
495.200000	1
496.200000	1
497.200000	1
498.200000	1
499.200000	1
