Mass spectrum: N-Formyl-L-Methionine; EI-B; MS; n TMS; RT: 677.44 s
Name: N-Formyl-L-Methionine
Class: Natural Product
Formula: C6H11NO3S
Exact mass: 177.04596
SMILES: O=CNC(CCSC)C(O)=O
InChI: InChI=1S/C6H11NO3S/c1-11-3-2-5(6(9)10)7-4-8/h4-5H,2-3H2,1H3,(H,7,8)(H,9,10)/t5-/m0/s1
Instrument: GCMS-2010 Plus, Shimadzu
Instrument type: EI-B
Ms type: MS
Ion mode: POSITIVE
Column name: InertCap 5MS/NP 0.25 mmI.D. x 30 m, df=0.25 um
Retention time: 677.44
Derivative type: n TMS
m/z	relative intensity
86.050000	67
87.050000	48
88.050000	33
89.100000	18
90.150000	5
91.100000	219
92.100000	19
93.100000	12
94.100000	2
95.100000	2
96.100000	2
97.150000	7
98.050000	286
99.050000	39
100.100000	53
101.150000	15
102.100000	240
103.100000	66
104.100000	129
105.050000	33
106.100000	8
107.050000	5
108.000000	1
109.000000	1
110.100000	2
111.050000	72
112.100000	35
113.150000	17
114.100000	27
115.100000	27
116.050000	47
117.100000	21
118.100000	10
119.100000	10
120.100000	3
121.100000	3
122.100000	1
123.100000	1
124.100000	1
125.100000	1
126.100000	2
127.150000	3
128.100000	45
129.100000	71
130.100000	101
131.100000	71
132.050000	69
133.050000	9
134.000000	3
135.100000	5
136.100000	1
137.100000	1
138.100000	1
139.100000	1
140.100000	6
141.100000	3
142.100000	21
143.150000	5
144.100000	171
145.150000	29
146.100000	26
147.100000	17
148.100000	3
149.100000	2
150.100000	1
151.100000	1
152.100000	1
153.100000	1
154.100000	1
155.100000	2
156.100000	5
157.100000	96
158.100000	127
159.050000	168
160.100000	82
161.100000	23
162.100000	5
163.100000	2
164.100000	1
165.100000	1
166.100000	1
168.100000	1
169.100000	1
170.100000	3
171.150000	5
172.050000	14
173.100000	6
174.150000	16
175.100000	999
176.100000	122
177.100000	50
178.150000	14
179.100000	3
180.100000	2
181.100000	1
182.100000	1
183.100000	1
184.100000	4
185.100000	2
186.050000	129
187.050000	20
188.100000	138
189.050000	71
190.050000	17
191.050000	6
192.000000	1
193.000000	1
195.000000	1
196.000000	1
197.000000	1
198.000000	1
199.000000	1
200.000000	1
201.050000	7
202.050000	12
203.000000	3
204.000000	3
205.100000	2
206.050000	36
207.000000	13
208.050000	5
209.000000	1
210.000000	1
211.000000	1
212.000000	1
213.000000	1
214.000000	1
215.000000	1
216.000000	1
217.000000	1
218.000000	1
219.000000	3
220.000000	2
221.000000	3
222.000000	1
223.000000	1
224.000000	1
225.000000	1
227.000000	1
228.000000	1
229.000000	1
230.000000	1
231.000000	1
232.000000	1
233.100000	2
234.050000	75
235.100000	10
236.050000	6
237.000000	1
238.000000	1
239.000000	1
240.000000	1
241.000000	1
242.000000	1
244.000000	1
245.000000	1
246.000000	1
247.000000	2
248.100000	1
249.100000	121
250.100000	22
251.100000	11
252.100000	2
253.100000	1
254.100000	1
255.100000	1
256.100000	3
257.100000	1
258.100000	1
259.100000	1
260.100000	1
261.100000	1
263.100000	1
264.100000	1
265.100000	1
266.100000	1
267.100000	1
268.100000	1
269.100000	1
270.100000	1
271.100000	1
272.100000	1
273.100000	1
274.100000	1
275.100000	1
277.100000	1
278.100000	1
279.100000	1
280.100000	1
281.100000	1
282.100000	1
283.100000	1
285.100000	1
286.100000	1
287.100000	1
289.100000	1
290.100000	1
291.100000	1
292.100000	1
293.100000	1
294.100000	1
295.100000	1
296.100000	1
297.100000	1
298.100000	1
300.100000	1
301.100000	1
302.100000	1
304.100000	1
305.100000	1
306.100000	1
307.100000	2
308.100000	1
309.000000	5
310.000000	1
311.000000	1
312.000000	1
313.000000	1
314.000000	1
315.000000	1
316.000000	1
317.000000	1
318.000000	1
319.000000	1
320.000000	1
322.000000	1
323.000000	1
324.000000	1
325.000000	1
326.000000	1
327.000000	1
328.000000	1
329.000000	1
330.000000	1
331.000000	1
333.000000	1
334.000000	1
338.000000	1
339.000000	1
340.000000	1
341.000000	1
342.000000	1
343.000000	1
344.000000	1
345.000000	1
346.000000	1
348.000000	1
349.000000	1
350.000000	1
352.000000	1
353.000000	1
354.000000	1
355.000000	1
356.000000	1
358.000000	1
359.000000	1
360.000000	1
361.000000	1
364.000000	1
365.000000	1
366.000000	1
367.000000	1
368.000000	1
369.000000	1
370.000000	1
371.000000	1
372.000000	1
373.000000	1
374.000000	1
375.000000	1
377.000000	1
378.000000	1
379.000000	1
380.000000	1
381.000000	1
382.000000	1
383.000000	1
385.000000	1
387.000000	1
388.000000	1
389.000000	1
390.000000	1
391.000000	1
392.000000	1
393.000000	1
394.000000	1
397.000000	1
398.000000	1
399.000000	1
400.000000	1
401.000000	1
402.000000	1
403.000000	1
404.000000	1
405.000000	1
406.000000	1
407.000000	1
409.000000	1
410.000000	1
412.000000	1
413.000000	1
414.000000	1
415.000000	1
416.000000	1
417.000000	1
418.000000	1
419.000000	1
420.000000	1
421.000000	1
422.000000	1
423.000000	1
425.000000	1
426.000000	1
427.000000	1
428.000000	1
429.000000	1
430.000000	1
431.000000	1
432.000000	1
433.000000	1
434.000000	1
435.000000	1
436.000000	1
438.000000	1
442.000000	1
443.000000	1
444.000000	1
445.000000	1
446.000000	1
447.000000	1
448.000000	1
449.000000	1
450.000000	1
451.000000	1
452.000000	1
453.000000	1
454.000000	1
456.000000	1
457.000000	1
459.000000	1
460.000000	1
461.000000	1
462.000000	1
464.000000	1
465.000000	1
466.000000	1
467.000000	1
470.000000	1
471.000000	1
472.000000	1
473.000000	1
475.000000	1
476.000000	1
477.000000	1
479.000000	1
480.000000	1
481.000000	1
483.000000	1
484.000000	1
486.000000	1
487.000000	1
488.000000	1
489.000000	1
491.000000	1
492.000000	1
493.000000	1
495.000000	1
497.000000	1
498.000000	1
499.000000	1
