Mass spectrum: L-Serine; EI-B; MS; 2 TMS; RT: 440.66 s
Name: L-Serine
Class: Natural Product
Formula: C3H7NO3
Exact mass: 105.04259
SMILES: OC[C@H](N)C(O)=O
InChI: InChI=1S/C3H7NO3/c4-2(1-5)3(6)7/h2,5H,1,4H2,(H,6,7)/t2-/m0/s1
Instrument: GCMS-2010 Plus, Shimadzu
Instrument type: EI-B
Ms type: MS
Ion mode: POSITIVE
Column name: InertCap 5MS/NP 0.25 mmI.D. x 30 m, df=0.25 um
Retention time: 440.66
Derivative type: 2 TMS
m/z	relative intensity
86.050000	17
87.050000	17
88.050000	35
89.050000	18
90.050000	6
91.050000	13
92.100000	1
93.100000	1
94.100000	1
95.600000	10
96.550000	1
98.050000	3
99.100000	4
100.050000	59
101.050000	22
102.050000	22
103.050000	173
104.100000	16
105.100000	9
106.100000	1
107.100000	1
108.100000	1
109.550000	2
110.500000	1
111.500000	1
112.100000	1
113.050000	1
114.100000	3
115.150000	13
116.100000	999
117.100000	121
118.100000	45
119.050000	7
120.050000	1
121.000000	1
123.000000	1
124.000000	1
125.000000	1
126.000000	1
127.000000	1
128.050000	3
129.150000	5
130.050000	72
131.100000	37
132.100000	914
133.100000	125
134.100000	40
135.100000	5
136.100000	1
137.100000	1
138.100000	1
139.100000	1
140.100000	1
141.100000	1
142.050000	3
143.150000	4
144.050000	146
145.100000	16
146.100000	88
147.100000	142
148.100000	26
149.100000	20
150.100000	3
151.100000	1
152.100000	1
153.100000	1
154.100000	1
155.100000	1
156.100000	1
157.100000	1
158.150000	2
159.100000	64
160.100000	9
161.100000	4
162.100000	1
163.150000	1
164.100000	1
165.100000	1
166.100000	1
167.100000	1
168.100000	1
169.100000	1
170.100000	1
171.100000	1
172.100000	1
173.000000	1
174.050000	4
175.050000	2
176.000000	1
177.050000	1
178.100000	1
179.100000	1
180.100000	1
181.100000	1
183.100000	1
184.100000	1
185.100000	1
186.100000	1
187.100000	1
188.050000	26
189.050000	10
190.050000	6
191.050000	2
192.000000	1
193.000000	1
194.000000	1
195.000000	1
197.000000	1
198.000000	1
199.000000	1
200.000000	1
201.000000	1
202.000000	1
203.050000	2
204.050000	5
205.100000	1
206.100000	12
207.050000	3
208.100000	1
209.100000	1
210.100000	1
211.100000	1
212.100000	1
213.100000	1
214.100000	1
215.100000	1
216.050000	10
217.050000	7
218.150000	5
219.050000	68
220.100000	14
221.100000	6
222.050000	1
223.100000	1
224.100000	1
225.100000	1
226.100000	1
228.100000	1
229.100000	1
230.100000	1
231.100000	1
232.100000	1
233.100000	1
234.100000	51
235.050000	9
236.100000	4
237.100000	1
238.100000	1
239.100000	1
240.100000	1
241.100000	1
242.100000	1
243.100000	1
244.100000	1
245.100000	1
246.100000	1
247.100000	1
248.100000	1
249.100000	1
250.150000	3
251.100000	1
252.100000	1
253.100000	1
254.100000	1
255.100000	1
258.100000	1
259.100000	1
260.100000	1
261.100000	1
262.100000	1
263.100000	1
264.100000	1
265.100000	1
266.100000	1
267.100000	1
268.100000	1
269.100000	1
272.100000	1
273.100000	1
274.100000	1
275.100000	1
276.100000	1
277.100000	1
278.100000	1
279.100000	1
280.100000	1
281.100000	1
282.100000	1
283.100000	1
284.100000	1
285.100000	1
286.100000	1
287.100000	1
288.100000	1
289.100000	1
290.100000	1
291.100000	1
292.100000	1
293.100000	1
294.100000	1
295.100000	1
297.100000	1
298.100000	1
299.100000	1
300.100000	1
301.100000	1
302.100000	1
303.100000	1
304.100000	1
305.100000	1
306.100000	1
307.100000	1
308.100000	1
309.100000	1
310.100000	1
311.100000	1
312.100000	1
313.100000	1
314.100000	1
315.100000	1
316.100000	1
317.100000	1
318.100000	1
319.100000	1
320.100000	1
321.100000	1
322.100000	1
323.100000	1
324.100000	1
325.100000	1
327.100000	1
328.100000	1
329.100000	1
330.100000	1
331.100000	1
332.100000	1
333.100000	1
335.100000	1
338.100000	1
339.100000	1
340.100000	1
341.100000	1
342.100000	1
343.100000	1
344.100000	1
345.100000	1
346.100000	1
347.100000	1
348.100000	1
349.100000	1
350.100000	1
351.100000	1
352.100000	1
353.100000	1
354.100000	1
355.100000	1
356.100000	1
357.100000	1
358.100000	1
359.100000	1
360.100000	1
361.100000	1
362.100000	1
364.100000	1
366.100000	1
367.100000	1
369.100000	1
371.100000	1
372.100000	1
374.100000	1
375.100000	1
377.100000	1
378.100000	1
379.100000	1
380.100000	1
382.100000	1
383.100000	1
385.100000	1
386.100000	1
387.100000	1
388.100000	1
389.100000	1
390.100000	1
391.100000	1
392.100000	1
393.100000	1
394.100000	1
396.100000	1
397.100000	1
398.100000	1
399.100000	1
401.100000	1
402.100000	1
403.100000	1
404.100000	1
405.100000	1
406.100000	1
407.100000	1
408.100000	1
409.100000	1
411.100000	1
412.100000	1
413.100000	1
414.100000	1
416.100000	1
418.100000	1
420.100000	1
421.100000	1
422.100000	1
424.100000	1
425.100000	1
426.100000	1
427.100000	1
428.100000	1
429.100000	1
430.100000	1
431.100000	1
433.100000	1
434.100000	1
437.100000	1
438.100000	1
440.100000	1
441.100000	1
442.100000	1
443.100000	1
444.100000	1
445.100000	1
446.100000	1
447.100000	1
448.100000	1
449.100000	1
451.100000	1
452.100000	1
453.100000	1
455.100000	1
456.100000	1
461.100000	1
462.100000	1
465.100000	1
466.100000	1
470.100000	1
471.100000	1
472.100000	1
474.100000	1
475.100000	1
476.100000	1
477.100000	1
478.100000	1
479.100000	1
481.100000	1
482.100000	1
483.100000	1
485.100000	1
486.100000	1
487.100000	1
488.100000	1
491.100000	1
493.100000	1
495.100000	1
496.100000	1
497.100000	1
498.100000	1
499.100000	1
