Mass spectrum: L-(-)-Proline; EI-B; MS; 2 TMS; RT: 468.20 s
Name: L-(-)-Proline
Class: Natural Product
Formula: C5H9NO2
Exact mass: 115.06333
SMILES: OC(=O)C(C1)NCC1
InChI: InChI=1S/C5H9NO2/c7-5(8)4-2-1-3-6-4/h4,6H,1-3H2,(H,7,8)/t4-/m0/s1
Instrument: GCMS-2010 Plus, Shimadzu
Instrument type: EI-B
Ms type: MS
Ion mode: POSITIVE
Column name: InertCap 5MS/NP 0.25 mmI.D. x 30 m, df=0.25 um
Retention time: 468.20
Derivative type: 2 TMS
m/z	relative intensity
86.100000	6
87.100000	3
88.100000	1
89.100000	3
90.100000	1
91.100000	1
92.100000	2
93.100000	2
94.100000	1
95.100000	2
96.100000	4
97.100000	3
98.100000	4
99.100000	6
100.200000	18
101.200000	5
102.200000	3
103.050000	13
104.000000	2
105.000000	2
106.000000	1
107.000000	4
108.000000	2
109.000000	1
110.000000	1
111.000000	1
112.000000	1
113.000000	7
114.400000	8
115.400000	5
116.400000	2
117.400000	2
118.400000	2
119.400000	2
121.400000	1
122.400000	1
123.400000	1
124.400000	1
125.400000	1
126.400000	2
127.400000	2
128.400000	1
129.400000	1
130.000000	1
131.000000	11
132.000000	2
133.050000	12
134.000000	2
135.000000	3
136.000000	1
137.000000	1
138.000000	1
139.000000	1
140.000000	8
141.100000	5
142.150000	999
143.150000	121
144.150000	40
145.200000	4
146.100000	1
147.100000	66
148.100000	9
149.100000	6
150.100000	1
152.100000	1
153.100000	1
154.100000	1
155.100000	1
156.100000	1
157.100000	1
158.100000	3
159.100000	1
160.100000	1
161.100000	1
162.100000	1
163.100000	1
165.100000	1
166.100000	1
167.100000	1
168.100000	1
169.100000	1
170.100000	6
171.100000	1
172.100000	5
173.100000	2
174.100000	2
175.100000	4
176.100000	2
177.100000	2
178.100000	1
179.100000	1
180.100000	1
181.100000	1
182.100000	1
183.100000	1
184.100000	1
185.100000	1
186.100000	4
187.100000	2
188.100000	1
189.100000	1
190.100000	1
191.100000	1
192.100000	1
194.100000	1
195.100000	1
196.100000	2
197.100000	1
198.100000	1
199.100000	1
200.100000	1
201.100000	1
202.100000	1
203.100000	1
204.100000	1
206.100000	1
207.100000	6
208.100000	2
209.100000	1
211.100000	1
212.100000	1
213.100000	1
214.100000	1
215.100000	1
216.150000	50
217.100000	11
218.100000	8
219.100000	6
220.100000	1
221.100000	1
222.100000	1
223.100000	1
224.100000	1
225.100000	1
226.100000	1
227.100000	1
228.100000	1
229.100000	1
230.100000	2
231.100000	1
232.100000	1
234.100000	1
235.100000	1
236.100000	1
237.100000	1
238.100000	1
239.100000	1
240.100000	1
242.100000	2
243.100000	1
244.100000	8
245.100000	1
247.100000	1
248.100000	1
249.100000	1
250.100000	1
251.100000	1
252.100000	1
253.100000	5
254.100000	2
255.100000	1
256.100000	1
258.100000	2
259.100000	1
260.100000	1
263.100000	1
264.100000	1
265.100000	1
266.100000	1
267.100000	1
268.100000	1
269.100000	1
270.100000	1
271.100000	1
272.100000	1
273.100000	1
275.100000	1
276.100000	1
277.100000	1
278.100000	1
280.100000	1
281.100000	1
282.100000	1
284.100000	1
286.100000	1
287.100000	1
289.100000	1
290.100000	1
292.100000	1
293.100000	1
294.100000	1
295.100000	1
296.100000	1
297.100000	1
298.100000	1
299.100000	1
300.100000	1
301.100000	1
302.100000	1
303.100000	1
304.100000	1
305.100000	1
306.100000	1
307.100000	1
308.100000	1
309.100000	1
310.100000	1
311.100000	1
312.100000	1
313.100000	1
315.100000	1
316.100000	1
317.100000	1
318.100000	1
319.100000	1
321.100000	1
322.100000	1
324.100000	1
325.100000	1
326.100000	1
327.100000	1
328.100000	1
329.100000	1
331.100000	2
332.100000	1
333.100000	1
335.100000	1
336.100000	1
338.100000	1
339.100000	1
340.100000	1
341.100000	1
343.100000	1
344.100000	1
345.100000	1
346.100000	1
347.100000	1
349.100000	1
350.100000	2
351.100000	1
352.100000	1
353.100000	1
354.100000	1
355.100000	1
356.100000	1
357.100000	1
359.100000	1
361.100000	1
364.100000	1
365.100000	1
366.100000	1
367.100000	1
368.100000	1
369.100000	1
370.100000	1
371.100000	1
373.100000	1
374.100000	1
375.100000	1
376.100000	1
377.100000	1
380.100000	1
381.100000	1
382.100000	1
383.100000	1
384.100000	1
385.100000	1
389.100000	1
391.100000	1
392.100000	1
394.100000	1
396.100000	1
397.100000	1
398.100000	1
400.100000	1
404.100000	1
405.100000	1
406.100000	1
407.100000	1
408.100000	1
409.100000	1
410.100000	1
411.100000	1
412.100000	1
413.100000	1
414.100000	1
415.100000	1
416.100000	1
417.100000	1
418.100000	1
419.100000	1
420.100000	1
421.100000	1
422.100000	1
425.100000	1
426.100000	1
427.100000	1
429.100000	1
430.100000	1
431.100000	1
433.100000	1
434.100000	1
435.100000	1
436.100000	1
437.100000	1
439.100000	1
440.100000	1
441.100000	1
442.100000	1
443.100000	1
444.100000	1
446.100000	1
447.100000	1
448.100000	1
449.100000	1
450.100000	1
451.100000	1
452.100000	1
454.100000	1
455.100000	1
456.100000	1
458.100000	1
459.100000	1
461.100000	1
462.100000	1
463.100000	1
464.100000	1
465.100000	1
466.100000	1
467.100000	1
469.100000	1
470.100000	1
471.100000	1
473.100000	1
474.100000	1
475.100000	1
477.100000	1
478.100000	1
479.100000	1
480.100000	1
481.100000	1
482.100000	1
483.100000	1
484.100000	1
488.100000	1
489.100000	1
490.100000	1
491.100000	1
493.100000	1
494.100000	1
497.100000	1
498.100000	1
499.100000	1
