Mass spectrum: Homogenentisic acid; EI-B; MS; 3 TMS; RT: 751.58 s
Name: Homogenentisic acid
Name: Homogentisate
Class: Natural Product
Formula: C8H8O4
Exact mass: 168.04226
SMILES: OC(=O)Cc(c1)c(O)ccc(O)1
InChI: InChI=1S/C8H8O4/c9-6-1-2-7(10)5(3-6)4-8(11)12/h1-3,9-10H,4H2,(H,11,12)
Instrument: GCMS-2010 Plus, Shimadzu
Instrument type: EI-B
Ms type: MS
Ion mode: POSITIVE
Column name: InertCap 5MS/NP 0.25 mmI.D. x 30 m, df=0.25 um
Retention time: 751.58
Derivative type: 3 TMS
m/z	relative intensity
86.050000	5
86.850000	5
87.850000	6
88.850000	12
90.000000	4
91.050000	27
92.050000	3
93.000000	4
94.100000	1
95.150000	6
96.100000	13
97.050000	4
98.100000	1
98.950000	2
100.000000	2
101.000000	4
102.050000	10
103.050000	15
104.050000	30
105.050000	767
106.050000	64
107.050000	10
108.000000	1
109.050000	4
110.050000	3
111.050000	7
111.950000	1
113.000000	1
114.100000	1
115.050000	10
116.100000	13
117.100000	38
118.100000	20
119.100000	28
120.050000	4
121.050000	12
122.150000	2
123.100000	3
124.100000	1
125.100000	1
126.100000	1
127.100000	1
128.100000	1
129.050000	5
130.100000	5
131.050000	25
132.100000	11
133.100000	67
134.100000	26
135.100000	33
136.100000	4
137.100000	5
138.100000	1
139.100000	1
140.100000	1
141.100000	2
142.000000	1
143.050000	4
144.100000	1
145.100000	10
146.150000	5
147.100000	492
148.100000	83
149.100000	61
150.100000	9
151.100000	10
152.100000	2
153.100000	1
154.100000	1
155.100000	1
156.100000	1
157.100000	2
158.100000	1
159.100000	4
160.150000	2
161.100000	21
162.100000	9
163.100000	70
164.100000	11
165.050000	9
166.100000	2
167.050000	3
168.100000	1
169.100000	1
170.100000	1
171.100000	1
172.100000	1
173.100000	1
174.150000	2
175.050000	6
176.150000	5
177.100000	46
178.100000	46
179.050000	25
180.050000	5
181.050000	6
182.100000	1
183.100000	1
183.700000	1
184.650000	7
185.700000	1
186.700000	1
187.700000	1
189.150000	4
190.100000	66
191.100000	39
192.100000	24
193.050000	50
194.050000	41
195.000000	14
196.000000	3
197.000000	1
198.000000	1
199.000000	1
200.000000	1
201.000000	1
202.000000	1
203.000000	1
204.100000	3
205.150000	10
206.100000	651
207.100000	176
208.100000	45
209.050000	23
210.050000	4
211.000000	2
212.000000	1
213.000000	1
214.000000	1
215.000000	1
216.000000	1
217.050000	2
218.000000	1
219.050000	5
220.000000	2
221.050000	14
222.100000	15
223.050000	23
224.050000	5
225.050000	21
226.000000	3
227.050000	2
228.000000	1
229.000000	1
230.000000	1
231.000000	1
232.100000	1
233.100000	5
234.150000	3
235.100000	15
236.100000	105
237.100000	244
238.100000	59
239.100000	32
240.050000	5
241.050000	2
242.100000	1
243.100000	1
244.100000	1
245.100000	1
246.100000	1
247.050000	3
248.100000	1
249.100000	27
250.100000	14
251.100000	65
252.100000	321
253.100000	91
254.100000	36
255.100000	7
256.100000	1
257.100000	1
258.100000	1
259.100000	1
260.100000	1
261.100000	1
262.100000	1
263.150000	3
264.150000	2
265.150000	59
266.150000	18
267.150000	113
268.150000	57
269.100000	18
270.150000	4
271.200000	1
273.200000	1
275.200000	1
276.200000	1
277.200000	1
278.100000	1
279.100000	3
280.100000	1
281.100000	14
282.100000	4
283.100000	3
284.100000	1
285.250000	7
286.250000	2
287.300000	1
288.300000	1
289.300000	1
290.300000	1
291.300000	1
292.300000	1
293.100000	1
294.150000	18
295.150000	7
296.150000	7
297.100000	54
298.050000	15
299.100000	8
300.150000	2
301.100000	1
302.100000	1
303.100000	1
304.100000	1
305.100000	1
306.100000	1
307.100000	1
308.100000	1
309.150000	5
310.100000	2
311.150000	7
312.150000	58
313.150000	63
314.150000	21
315.150000	9
316.100000	2
317.100000	1
318.100000	1
319.100000	1
320.100000	1
321.100000	1
322.200000	1
323.150000	7
324.250000	4
325.150000	64
326.150000	21
327.100000	12
328.150000	3
329.100000	1
330.100000	1
331.100000	1
332.100000	1
333.100000	1
334.100000	1
335.100000	1
336.100000	1
337.100000	1
338.100000	1
339.250000	4
340.250000	40
341.150000	737
342.150000	232
343.150000	109
344.100000	23
345.100000	6
346.100000	1
347.100000	1
352.100000	1
353.100000	1
354.100000	1
355.150000	3
356.200000	1
357.200000	1
358.200000	1
359.200000	1
360.200000	1
361.200000	1
362.200000	1
363.200000	1
364.200000	1
365.200000	1
366.200000	1
368.250000	3
369.150000	98
370.150000	31
371.150000	15
372.150000	3
373.100000	1
374.100000	1
375.100000	1
376.100000	1
377.100000	1
379.100000	1
380.100000	1
381.100000	1
382.100000	1
383.250000	20
384.200000	999
385.150000	335
386.150000	157
387.150000	37
388.150000	10
389.200000	1
390.200000	1
391.200000	1
392.200000	1
393.200000	1
394.200000	1
395.200000	1
396.200000	1
397.200000	1
398.200000	1
399.200000	1
400.200000	1
401.200000	1
402.200000	1
403.200000	1
405.200000	1
406.200000	1
407.200000	1
408.200000	1
409.200000	1
410.200000	1
411.200000	1
412.200000	1
413.200000	1
414.200000	1
415.200000	1
416.200000	1
417.200000	1
419.200000	1
420.200000	1
421.200000	1
422.200000	1
423.200000	1
425.200000	1
426.200000	1
427.200000	1
428.200000	1
429.200000	1
430.200000	1
431.200000	1
432.200000	1
433.200000	1
434.200000	1
435.200000	1
436.200000	1
437.200000	1
438.200000	1
439.200000	1
440.200000	1
441.200000	1
442.200000	1
443.200000	1
444.200000	1
445.200000	1
446.200000	1
448.200000	1
449.200000	1
450.200000	1
451.200000	1
452.200000	1
453.200000	1
454.200000	1
455.200000	1
456.200000	1
457.200000	1
458.200000	1
459.200000	1
460.200000	1
461.200000	1
462.200000	1
463.200000	1
465.200000	1
468.200000	1
471.200000	1
472.200000	1
473.200000	1
474.200000	1
475.200000	1
476.200000	1
477.200000	1
478.200000	1
479.200000	1
480.200000	1
481.200000	1
483.200000	1
484.200000	1
485.200000	1
487.200000	1
488.200000	1
489.200000	1
490.200000	1
491.200000	1
492.200000	1
493.200000	1
494.200000	1
495.200000	1
496.200000	1
497.200000	1
498.200000	1
499.200000	1
