Mass spectrum: N-Acetyl-L-glutamine; EI-B; MS; n TMS; RT: 793.97 s
Name: N-Acetyl-L-glutamine
Class: Natural Product
Formula: C7H12N2O4
Exact mass: 188.07971
SMILES: NC(=O)CCC(NC(C)=O)C(O)=O
InChI: InChI=1S/C7H12N2O4/c1-4(10)9-5(7(12)13)2-3-6(8)11/h5H,2-3H2,1H3,(H2,8,11)(H,9,10)(H,12,13)/t5-/m0/s1
Instrument: GCMS-2010 Plus, Shimadzu
Instrument type: EI-B
Ms type: MS
Ion mode: POSITIVE
Column name: InertCap 5MS/NP 0.25 mmI.D. x 30 m, df=0.25 um
Retention time: 793.97
Derivative type: n TMS
m/z	relative intensity
86.050000	24
87.100000	26
88.100000	12
89.050000	22
90.100000	132
91.100000	44
92.100000	9
93.100000	4
94.100000	7
95.100000	6
96.100000	7
97.100000	54
98.050000	52
99.050000	383
100.050000	100
101.100000	26
102.050000	17
103.050000	50
104.000000	7
105.000000	5
106.000000	3
107.050000	14
108.100000	8
109.100000	5
110.100000	10
111.050000	17
112.050000	53
113.100000	63
114.100000	31
115.050000	103
116.100000	270
117.050000	55
118.050000	27
119.100000	18
120.100000	3
121.100000	1
122.100000	1
123.100000	2
124.100000	4
125.100000	95
126.100000	117
127.150000	19
128.100000	188
129.100000	46
130.100000	56
131.100000	222
132.100000	158
133.050000	65
134.100000	11
135.100000	8
136.100000	2
137.100000	1
138.100000	4
139.100000	38
140.050000	38
141.100000	10
142.050000	57
143.100000	33
144.100000	441
145.100000	64
146.100000	50
147.100000	317
148.100000	59
149.100000	50
150.100000	8
151.100000	11
152.100000	3
153.050000	48
154.150000	17
155.100000	309
156.100000	999
157.100000	211
158.150000	261
159.150000	40
160.100000	29
161.100000	5
162.100000	2
163.100000	1
164.100000	1
165.100000	2
166.100000	2
167.100000	2
168.100000	16
169.100000	5
170.100000	14
171.100000	22
172.100000	22
173.100000	89
174.100000	29
175.100000	8
176.100000	3
177.100000	3
178.100000	1
179.100000	2
180.100000	2
181.100000	9
182.050000	44
183.100000	14
184.050000	70
185.050000	54
186.050000	84
187.000000	16
188.050000	13
189.050000	195
190.050000	26
191.100000	10
192.100000	2
193.100000	1
194.100000	1
195.100000	1
196.000000	1
197.050000	24
198.100000	37
199.000000	32
200.050000	32
201.150000	11
202.050000	177
203.100000	53
204.100000	18
205.100000	4
206.100000	13
207.100000	10
208.100000	2
209.100000	7
210.100000	2
211.100000	1
213.100000	3
214.100000	25
215.100000	597
216.100000	115
217.100000	38
218.100000	9
219.100000	8
220.100000	3
221.100000	3
222.100000	1
223.100000	2
224.100000	2
225.100000	11
226.000000	4
227.050000	40
228.000000	42
229.100000	34
230.100000	238
231.050000	54
232.100000	22
233.100000	3
234.100000	1
235.100000	1
237.100000	1
238.100000	1
239.100000	1
240.100000	2
241.100000	2
242.100000	41
243.100000	13
244.100000	6
245.100000	3
246.100000	7
247.100000	7
248.100000	4
249.100000	1
250.100000	2
252.100000	1
253.100000	2
254.100000	1
255.100000	2
256.100000	1
257.100000	3
258.100000	55
259.050000	9
260.100000	6
261.100000	11
262.100000	2
263.100000	2
264.100000	3
265.100000	2
266.100000	1
267.100000	1
268.100000	1
269.100000	2
271.150000	10
272.150000	42
273.100000	13
274.150000	27
275.150000	15
276.100000	39
277.100000	8
278.100000	3
279.100000	1
280.100000	1
281.100000	1
282.100000	1
283.100000	2
284.100000	1
285.100000	1
286.100000	1
287.100000	2
288.100000	5
289.150000	36
290.100000	13
291.100000	6
292.100000	1
293.100000	2
294.100000	2
295.100000	1
296.100000	1
297.100000	1
298.100000	1
299.150000	33
300.100000	62
301.100000	18
302.100000	5
303.100000	2
304.100000	1
305.100000	1
307.100000	1
308.100000	1
309.100000	5
310.100000	2
311.100000	1
312.100000	1
313.100000	2
314.100000	4
315.100000	3
316.100000	2
317.150000	48
318.100000	11
319.100000	4
320.100000	2
321.100000	1
322.100000	1
323.100000	2
324.100000	1
325.100000	1
326.100000	2
327.100000	1
328.100000	2
329.100000	1
330.100000	2
331.100000	1
332.100000	13
333.100000	6
334.100000	4
335.100000	1
336.100000	1
338.100000	1
339.100000	1
341.100000	2
342.100000	1
343.100000	1
347.100000	1
348.100000	1
349.100000	1
352.100000	1
353.100000	1
355.100000	2
356.100000	1
357.100000	1
359.100000	1
360.100000	1
361.100000	1
363.100000	1
364.100000	1
365.100000	1
366.100000	1
367.100000	1
368.100000	1
369.100000	1
370.100000	1
371.100000	1
372.100000	1
373.100000	1
374.100000	1
375.100000	1
376.100000	1
377.100000	1
378.100000	1
379.100000	1
380.100000	1
381.100000	1
383.100000	1
386.100000	1
387.100000	1
388.100000	1
389.100000	1
390.100000	1
391.100000	1
392.100000	1
393.100000	1
394.100000	1
395.100000	1
396.100000	1
397.100000	1
398.100000	1
399.100000	1
400.100000	1
402.100000	1
403.100000	1
405.100000	2
406.100000	1
407.100000	1
408.100000	1
409.100000	1
410.100000	1
411.100000	2
412.100000	1
413.100000	1
414.100000	1
415.100000	1
416.100000	1
417.100000	1
418.100000	1
419.100000	1
420.100000	1
421.100000	1
422.100000	1
423.100000	1
424.100000	1
425.100000	1
426.100000	1
427.100000	1
428.100000	1
429.100000	1
430.100000	1
431.100000	1
432.100000	1
433.100000	1
434.100000	1
435.100000	1
436.100000	1
437.100000	1
438.100000	1
439.100000	1
440.100000	1
441.100000	1
442.100000	1
443.100000	1
444.100000	1
445.100000	1
446.100000	1
447.100000	2
448.100000	1
449.100000	1
451.100000	1
452.100000	1
453.100000	1
454.100000	1
455.100000	1
456.100000	1
457.100000	1
458.100000	1
459.100000	1
460.100000	1
461.100000	1
462.100000	1
463.100000	1
464.100000	1
467.100000	1
468.100000	1
469.100000	1
470.100000	1
472.100000	1
474.100000	1
475.100000	1
476.100000	1
480.100000	1
481.100000	1
482.100000	1
483.100000	1
487.100000	1
488.100000	1
489.100000	1
490.100000	1
491.100000	1
492.100000	1
493.100000	1
494.100000	1
495.100000	1
497.100000	1
498.100000	1
499.100000	1
