Mass spectrum: L-Valine; EI-B; MS; 2 TMS; RT: 415.49 s
Name: L-Valine
Class: Natural Product
Formula: C5H11NO2
Exact mass: 117.07898
SMILES: CC(C)[C@H](N)C(O)=O
InChI: InChI=1S/C5H11NO2/c1-3(2)4(6)5(7)8/h3-4H,6H2,1-2H3,(H,7,8)/t4-/m0/s1
Instrument: GCMS-2010 Plus, Shimadzu
Instrument type: EI-B
Ms type: MS
Ion mode: POSITIVE
Column name: InertCap 5MS/NP 0.25 mmI.D. x 30 m, df=0.25 um
Retention time: 415.49
Derivative type: 2 TMS
m/z	relative intensity
86.100000	11
87.100000	3
88.100000	2
89.100000	1
90.100000	1
91.100000	1
92.100000	1
93.100000	1
94.100000	1
95.100000	1
96.100000	1
97.100000	1
98.100000	3
99.150000	3
100.100000	79
101.100000	11
102.050000	6
103.050000	14
104.000000	1
105.000000	2
106.000000	1
107.000000	1
108.000000	1
109.000000	1
110.000000	1
111.000000	1
112.100000	3
113.100000	2
114.100000	7
115.100000	4
116.050000	2
117.050000	7
118.100000	2
119.000000	3
120.000000	1
121.000000	1
122.000000	1
123.000000	1
124.000000	1
125.000000	1
126.000000	1
127.100000	1
128.150000	16
129.150000	10
130.100000	9
131.100000	9
132.100000	9
133.100000	17
134.050000	3
135.100000	1
136.100000	1
137.100000	1
138.100000	1
140.100000	1
141.100000	1
142.200000	5
143.250000	9
144.200000	999
145.200000	138
146.150000	49
147.150000	109
148.100000	19
149.100000	11
150.100000	1
151.100000	1
152.100000	1
153.100000	1
154.100000	1
155.100000	1
156.150000	21
157.150000	4
158.100000	3
159.150000	2
160.100000	2
161.100000	1
162.100000	1
163.200000	4
164.200000	1
165.200000	1
166.200000	1
167.200000	1
168.200000	1
169.200000	1
170.200000	1
171.200000	1
172.200000	1
173.200000	1
174.100000	3
175.100000	1
176.100000	1
177.100000	1
178.100000	1
179.100000	1
180.100000	1
181.100000	1
182.100000	1
183.100000	1
185.100000	1
186.100000	1
187.100000	1
188.100000	1
189.100000	1
190.100000	1
191.100000	1
192.100000	1
193.100000	1
195.100000	1
196.100000	1
197.100000	1
198.100000	1
200.100000	1
201.100000	1
202.100000	1
203.000000	3
204.000000	1
205.000000	1
206.000000	1
207.000000	1
208.000000	1
209.000000	1
210.000000	1
211.000000	1
212.000000	1
214.000000	1
216.000000	1
217.150000	2
218.100000	188
219.100000	45
220.100000	18
221.050000	3
222.100000	1
223.100000	1
224.100000	1
225.100000	1
226.100000	1
227.100000	1
228.100000	1
229.100000	1
230.100000	1
231.100000	1
232.100000	1
233.100000	1
234.100000	1
235.100000	1
236.100000	1
237.100000	1
238.100000	1
239.100000	1
240.100000	1
242.100000	1
243.100000	1
244.100000	1
245.200000	1
246.150000	13
247.200000	2
248.200000	1
249.200000	1
250.200000	1
251.200000	1
252.200000	1
253.200000	1
254.200000	1
255.200000	1
256.200000	1
259.200000	1
260.200000	1
261.200000	1
262.200000	1
263.200000	1
264.200000	1
265.200000	1
266.200000	1
267.200000	1
268.200000	1
269.200000	1
270.200000	1
271.200000	1
272.200000	1
275.200000	1
276.200000	1
278.200000	1
279.200000	1
280.200000	1
281.200000	1
283.200000	1
284.200000	1
285.200000	1
286.200000	1
289.200000	1
290.200000	1
291.200000	1
295.200000	1
296.200000	1
297.200000	1
298.200000	1
299.200000	1
300.200000	1
301.200000	1
303.200000	1
304.200000	1
305.200000	1
306.200000	1
307.200000	1
308.200000	1
309.200000	1
310.200000	1
311.200000	1
312.200000	1
314.200000	1
315.200000	1
317.200000	1
318.200000	1
319.200000	1
320.200000	1
321.200000	1
322.200000	1
323.200000	1
324.200000	1
325.200000	1
326.200000	1
327.200000	1
328.200000	1
329.200000	1
331.200000	1
332.200000	1
333.200000	1
335.200000	1
336.200000	1
337.200000	1
338.200000	1
339.200000	1
342.200000	1
344.200000	1
345.200000	1
346.200000	1
347.200000	1
348.200000	1
349.200000	1
350.200000	1
352.200000	1
353.200000	1
355.200000	1
356.200000	1
357.200000	1
359.200000	1
360.200000	1
362.200000	1
363.200000	1
364.200000	1
366.200000	1
368.200000	1
369.200000	1
370.200000	1
371.200000	1
373.200000	1
375.200000	1
376.200000	1
377.200000	1
379.200000	1
380.200000	1
383.200000	1
384.200000	1
387.200000	1
388.200000	1
391.200000	1
393.200000	1
394.200000	1
395.200000	1
396.200000	1
397.200000	1
398.200000	1
399.200000	1
401.200000	1
402.200000	1
403.200000	1
404.200000	1
405.200000	1
407.200000	1
408.200000	1
409.200000	1
410.200000	1
411.200000	1
412.200000	1
414.200000	1
415.200000	1
416.200000	1
417.200000	1
418.200000	1
419.200000	1
420.200000	1
422.200000	1
424.200000	1
426.200000	1
427.200000	1
428.200000	1
429.200000	1
430.200000	1
432.200000	1
433.200000	1
434.200000	1
435.200000	1
436.200000	1
437.200000	1
438.200000	1
439.200000	1
440.200000	1
441.200000	1
442.200000	1
443.200000	1
444.200000	1
445.200000	1
446.200000	1
447.200000	1
448.200000	1
449.200000	1
450.200000	1
451.200000	1
452.200000	1
453.200000	1
454.200000	1
455.200000	1
459.200000	1
460.200000	1
461.200000	1
462.200000	1
464.200000	1
465.200000	1
466.200000	1
468.200000	1
469.200000	1
470.200000	1
471.200000	1
472.200000	1
473.200000	1
474.200000	1
476.200000	1
477.200000	1
478.200000	1
479.200000	1
480.200000	1
482.200000	1
484.200000	1
485.200000	1
486.200000	1
489.200000	1
490.200000	1
491.200000	1
492.200000	1
493.200000	1
494.200000	1
495.200000	1
496.200000	1
497.200000	1
498.200000	1
499.200000	1
