Mass spectrum: L-Rhamnose; EI-B; MS; 4 TMS; RT: 704.15 s
Name: L-Rhamnose
Name: (2R,3R,4S,5S)-2,3,4,5-tetrahydroxyhexanal
Class: Natural Product
Formula: C6H12O5
Exact mass: 164.06848
SMILES: C[C@@H]([C@@H]([C@H]([C@H](C=O)O)O)O)O
InChI: InChI=1S/C6H12O5/c1-3(8)5(10)6(11)4(9)2-7/h2-6,8-11H,1H3/t3-,4-,5-,6-/m0/s1
Instrument: GCMS-2010 Plus, Shimadzu
Instrument type: EI-B
Ms type: MS
Ion mode: POSITIVE
Column name: InertCap 5MS/NP 0.25 mmI.D. x 30 m, df=0.25 um
Retention time: 704.15
Derivative type: 4 TMS
m/z	relative intensity
86.000000	2
87.000000	3
88.050000	1
89.050000	20
90.000000	2
91.050000	1
92.000000	1
93.000000	1
94.000000	1
95.000000	1
96.000000	1
97.000000	1
98.050000	1
99.050000	2
100.050000	24
101.050000	13
102.050000	9
103.050000	14
104.100000	2
105.050000	15
106.100000	2
107.050000	1
108.050000	1
109.000000	1
110.000000	1
111.000000	1
112.050000	1
113.050000	2
114.050000	7
115.050000	11
116.150000	9
117.100000	999
118.100000	105
119.100000	41
120.100000	2
121.100000	1
122.100000	1
123.100000	1
124.100000	1
125.100000	1
126.100000	1
127.100000	3
128.150000	2
129.100000	52
130.100000	15
131.050000	33
132.100000	4
133.050000	27
134.050000	3
135.100000	2
136.100000	1
137.100000	1
138.100000	1
139.100000	1
140.050000	1
141.050000	2
142.050000	4
143.050000	9
144.100000	2
145.050000	3
146.150000	1
147.050000	89
148.050000	14
149.050000	11
150.100000	1
151.050000	1
152.000000	1
153.000000	1
154.100000	1
155.100000	1
156.050000	1
157.100000	1
158.100000	3
159.150000	2
160.100000	174
161.100000	61
162.100000	12
163.100000	9
164.100000	1
165.050000	1
166.000000	1
167.000000	1
168.000000	1
169.000000	1
170.050000	1
171.100000	2
172.100000	4
173.050000	3
174.050000	2
175.050000	2
176.100000	1
177.050000	2
178.100000	1
179.100000	1
180.100000	1
181.050000	1
182.050000	2
183.000000	1
184.000000	1
185.000000	1
186.050000	2
187.100000	1
188.150000	1
189.050000	12
190.050000	3
191.050000	15
192.050000	3
193.000000	1
194.000000	1
195.000000	1
196.000000	1
197.000000	1
198.000000	1
199.000000	1
200.050000	1
201.050000	30
202.000000	6
203.000000	23
204.050000	17
205.050000	8
206.000000	2
207.000000	1
208.000000	1
209.000000	1
210.000000	1
211.000000	1
212.100000	1
213.000000	1
214.000000	1
215.050000	2
216.100000	7
217.050000	14
218.100000	5
219.050000	39
220.100000	8
221.050000	7
222.100000	1
223.100000	1
224.100000	1
225.100000	1
226.100000	1
227.000000	1
228.050000	4
229.050000	2
230.100000	2
231.100000	18
232.100000	6
233.100000	32
234.100000	13
235.100000	4
236.050000	1
237.100000	1
238.100000	1
239.100000	1
240.050000	1
241.100000	1
242.050000	1
243.050000	1
244.100000	5
245.100000	2
246.050000	4
247.100000	1
248.050000	1
249.000000	1
250.000000	1
251.000000	1
252.000000	1
253.000000	1
254.050000	1
255.100000	1
256.100000	6
257.050000	1
258.100000	1
259.100000	1
260.100000	1
261.050000	1
262.100000	4
263.050000	1
264.100000	1
265.100000	1
266.100000	1
267.100000	1
268.100000	1
269.100000	1
270.150000	2
271.100000	2
272.150000	1
273.100000	1
274.150000	10
275.100000	2
276.150000	1
277.100000	122
278.100000	32
279.150000	16
280.100000	3
281.100000	1
282.100000	1
283.100000	1
284.100000	1
285.100000	1
286.100000	1
287.100000	1
288.100000	1
289.100000	1
290.100000	1
291.100000	3
292.100000	1
293.100000	5
294.200000	2
295.150000	1
296.100000	1
297.100000	1
298.100000	1
300.100000	1
301.100000	1
302.150000	3
303.100000	1
304.100000	1
305.100000	5
306.100000	2
307.150000	1
308.100000	1
309.100000	1
312.100000	1
313.100000	1
314.100000	1
315.100000	1
316.100000	1
317.100000	1
318.100000	1
319.100000	1
320.250000	1
321.150000	43
322.150000	13
323.150000	6
324.100000	1
325.100000	1
326.100000	1
327.100000	1
328.100000	1
329.100000	1
330.100000	1
331.150000	1
332.100000	1
333.100000	1
334.100000	1
335.100000	1
336.100000	1
337.100000	1
338.100000	1
339.100000	1
340.100000	1
342.100000	1
343.100000	1
344.150000	1
345.100000	2
346.100000	1
347.100000	1
348.100000	1
349.100000	1
350.100000	1
351.100000	1
352.100000	1
353.100000	1
354.100000	1
355.100000	1
356.100000	1
357.100000	1
358.100000	1
359.100000	1
360.100000	1
361.100000	1
362.100000	1
363.100000	1
364.150000	8
365.200000	2
366.150000	1
367.200000	1
368.200000	1
369.200000	1
370.200000	1
371.200000	1
372.200000	1
373.200000	1
374.200000	1
376.200000	2
377.200000	1
378.200000	1
379.200000	1
380.200000	1
383.200000	1
385.200000	1
386.200000	1
388.200000	1
389.200000	1
390.200000	1
391.200000	1
392.200000	1
393.200000	1
394.200000	1
395.200000	1
396.200000	1
398.200000	1
400.200000	1
401.200000	1
402.200000	1
404.200000	1
405.200000	1
406.200000	1
407.200000	1
409.200000	1
410.200000	1
411.200000	1
413.200000	1
414.200000	1
415.200000	1
417.200000	1
418.200000	1
419.200000	1
420.200000	1
421.200000	1
422.200000	1
425.200000	1
426.200000	1
427.200000	1
428.200000	1
429.200000	1
430.200000	1
431.200000	1
432.200000	1
433.200000	1
434.200000	1
435.200000	1
436.200000	1
437.200000	1
438.200000	1
440.200000	1
441.200000	1
442.200000	1
443.200000	1
444.200000	1
445.200000	1
446.200000	1
447.200000	1
448.200000	1
449.200000	1
450.200000	1
451.200000	1
452.200000	1
453.200000	1
454.200000	1
455.200000	1
457.200000	1
458.200000	1
460.200000	1
461.200000	1
462.200000	1
463.200000	1
465.200000	1
466.200000	1
467.200000	1
468.200000	1
469.200000	1
470.200000	1
471.200000	1
472.200000	1
473.200000	1
474.200000	1
476.200000	1
479.200000	1
480.200000	1
481.200000	1
482.200000	1
483.200000	1
484.200000	1
485.200000	1
486.200000	1
487.200000	1
488.200000	1
489.200000	1
490.200000	1
491.200000	1
492.200000	1
493.200000	1
495.200000	1
496.200000	1
