Mass spectrum: L-Prolinamide; EI-B; MS; Scan 3407; RT: 550.11 s
Name: L-Prolinamide
Class: Natural Product
Formula: C5H10N2O
Exact mass: 114.07931
SMILES: NC(=O)C(C1)NCC1
InChI: InChI=1S/C5H10N2O/c6-5(8)4-2-1-3-7-4/h4,7H,1-3H2,(H2,6,8)/t4-/m0/s1
Instrument: GCMS-2010 Plus, Shimadzu
Instrument type: EI-B
Ms type: MS
Ion mode: POSITIVE
Column name: InertCap 5MS/NP 0.25 mmI.D. x 30 m, df=0.25 um
Retention time: 550.11
Derivative type: n TMS
m/z	relative intensity
86.050000	6
87.100000	2
88.100000	1
89.100000	1
90.100000	1
91.100000	1
92.100000	1
93.100000	1
94.100000	1
95.100000	1
96.100000	1
97.100000	2
98.100000	3
99.150000	5
100.200000	26
101.150000	8
102.050000	7
103.000000	1
104.000000	1
105.000000	1
106.000000	1
107.000000	1
109.000000	1
110.000000	1
111.000000	1
112.000000	1
113.150000	7
114.100000	4
115.100000	16
116.100000	5
117.100000	4
118.100000	1
119.100000	1
120.100000	1
121.100000	1
122.100000	1
123.100000	1
124.100000	1
125.100000	1
126.200000	4
127.200000	3
128.100000	3
129.100000	1
130.100000	6
131.050000	7
132.100000	3
133.100000	3
134.100000	1
135.100000	1
136.100000	1
138.100000	1
139.100000	1
140.100000	6
141.150000	6
142.150000	999
143.150000	128
144.150000	44
145.150000	3
146.150000	5
147.100000	14
148.100000	3
149.100000	2
150.100000	1
151.100000	1
152.100000	1
153.150000	5
154.100000	2
155.100000	2
156.100000	1
157.100000	1
158.100000	2
159.100000	1
160.100000	2
161.100000	1
162.100000	1
164.100000	1
165.100000	1
166.100000	1
167.100000	1
168.100000	1
169.100000	2
170.100000	1
171.100000	1
172.100000	1
173.100000	1
174.100000	14
175.100000	2
176.100000	1
177.100000	1
178.100000	1
179.100000	1
180.100000	1
181.100000	1
182.100000	1
183.100000	1
184.100000	1
185.100000	1
186.100000	1
187.100000	1
188.100000	2
189.100000	1
190.100000	1
191.100000	1
192.100000	1
193.100000	1
195.100000	1
196.100000	1
197.100000	1
198.100000	1
199.100000	1
200.100000	1
201.100000	1
202.100000	1
203.100000	1
204.100000	1
205.100000	1
206.100000	1
207.100000	2
208.100000	1
209.100000	1
210.100000	1
211.100000	1
213.100000	1
214.100000	1
215.100000	6
216.050000	12
217.100000	3
218.100000	1
219.100000	2
220.100000	1
221.100000	1
222.100000	1
223.100000	1
224.100000	1
225.100000	1
226.100000	1
227.100000	1
228.100000	1
229.100000	1
230.100000	1
232.100000	1
233.100000	1
234.100000	1
235.100000	1
236.100000	1
237.100000	1
238.100000	1
239.100000	1
240.100000	1
241.100000	1
242.100000	1
243.150000	4
244.200000	1
245.200000	1
246.200000	1
247.200000	1
248.200000	1
249.200000	1
250.200000	1
251.200000	1
252.000000	1
252.950000	5
254.000000	1
255.000000	1
256.000000	1
257.000000	1
258.000000	1
259.000000	1
260.000000	1
261.000000	1
262.000000	1
264.000000	1
265.000000	1
266.000000	1
267.000000	1
268.000000	1
269.000000	1
270.000000	1
271.000000	1
272.000000	1
273.000000	1
274.000000	1
275.000000	1
276.000000	1
277.000000	1
278.000000	1
279.000000	1
280.000000	1
281.000000	1
282.000000	1
283.000000	1
284.000000	1
285.000000	1
286.000000	1
287.000000	1
288.000000	1
289.000000	1
290.000000	1
292.000000	1
293.000000	1
294.000000	1
295.000000	1
296.000000	1
297.000000	1
298.000000	1
299.000000	1
300.000000	1
301.000000	1
302.000000	1
304.000000	1
305.000000	1
306.000000	1
307.000000	1
308.000000	1
309.000000	1
312.000000	1
313.000000	1
315.000000	1
316.000000	1
317.000000	1
318.000000	1
319.000000	1
321.000000	1
322.000000	1
323.000000	1
325.000000	1
327.000000	1
328.000000	1
329.000000	1
330.000000	1
331.000000	2
332.000000	1
333.000000	1
334.000000	1
335.000000	1
336.000000	1
338.000000	1
339.000000	1
341.000000	1
342.000000	1
343.000000	1
344.000000	1
345.000000	1
346.000000	1
347.000000	1
348.000000	1
349.000000	1
350.000000	1
351.000000	1
352.000000	1
353.000000	1
354.000000	1
355.000000	1
356.000000	1
357.000000	1
358.000000	1
359.000000	1
360.000000	1
361.000000	1
362.000000	1
363.000000	1
364.000000	1
365.000000	1
366.000000	1
367.000000	1
368.000000	1
370.000000	1
371.000000	1
372.000000	1
373.000000	1
375.000000	1
376.000000	1
377.000000	1
378.000000	1
379.000000	1
380.000000	1
382.000000	1
383.000000	1
384.000000	1
386.000000	1
387.000000	1
388.000000	1
389.000000	1
390.000000	1
391.000000	1
392.000000	1
393.000000	1
396.000000	1
397.000000	1
398.000000	1
399.000000	1
400.000000	1
401.000000	1
402.000000	1
403.000000	1
404.000000	1
406.000000	1
407.000000	1
409.000000	1
411.000000	1
412.000000	1
414.000000	1
415.000000	1
416.000000	1
417.000000	1
418.000000	1
419.000000	1
420.000000	1
421.000000	1
422.000000	1
423.000000	1
425.000000	1
426.000000	1
427.000000	1
429.000000	1
430.000000	1
431.000000	1
432.000000	1
433.000000	1
434.000000	1
435.000000	1
436.000000	1
437.000000	1
438.000000	1
439.000000	1
440.000000	1
441.000000	1
442.000000	1
443.000000	1
444.000000	1
445.000000	1
446.000000	1
447.000000	1
448.000000	1
449.000000	1
450.000000	1
451.000000	1
452.000000	1
454.000000	1
456.000000	1
457.000000	1
458.000000	1
460.000000	1
461.000000	1
462.000000	1
463.000000	1
464.000000	1
465.000000	1
466.000000	1
467.000000	1
469.000000	1
470.000000	1
471.000000	1
472.000000	1
474.000000	1
475.000000	1
477.000000	1
479.000000	1
480.000000	1
481.000000	1
482.000000	1
484.000000	1
485.000000	1
490.000000	1
491.000000	1
492.000000	1
493.000000	1
495.000000	1
496.000000	1
498.000000	1
499.000000	1
