Mass spectrum: Cinnamyl alcohol; EI-B; MS; n TMS; RT: 542.77 s
Name: Cinnamyl alcohol
Class: Natural Product
Formula: C9H10O
Exact mass: 134.07316
SMILES: OCC=Cc(c1)cccc1
InChI: InChI=1S/C9H10O/c10-8-4-7-9-5-2-1-3-6-9/h1-7,10H,8H2/b7-4+
Instrument: GCMS-2010 Plus, Shimadzu
Instrument type: EI-B
Ms type: MS
Ion mode: POSITIVE
Column name: InertCap 5MS/NP 0.25 mmI.D. x 30 m, df=0.25 um
Retention time: 542.77
Derivative type: n TMS
m/z	relative intensity
86.000000	7
87.000000	3
88.000000	9
89.000000	65
90.000000	13
91.100000	177
92.100000	8
93.100000	10
94.100000	4
95.100000	23
96.100000	25
97.100000	6
98.100000	10
100.100000	14
101.100000	3
102.100000	25
103.100000	34
104.100000	27
105.100000	32
106.100000	7
107.100000	7
108.100000	9
109.100000	8
110.100000	7
111.100000	14
112.100000	6
113.100000	29
114.100000	12
115.050000	446
116.100000	371
117.100000	999
118.100000	100
119.100000	11
120.100000	1
121.100000	17
122.100000	5
123.100000	8
124.100000	2
125.100000	6
127.100000	3
128.100000	7
129.100000	36
130.100000	16
131.100000	82
132.100000	8
133.100000	10
134.100000	8
135.100000	141
136.100000	23
137.100000	14
138.100000	3
140.100000	4
141.100000	8
142.100000	7
143.100000	13
145.100000	32
146.100000	8
147.100000	26
148.100000	13
149.100000	15
150.100000	5
151.100000	1
152.100000	11
153.100000	1
154.100000	1
155.100000	4
156.100000	12
157.100000	12
159.100000	5
160.100000	10
161.100000	18
162.100000	11
163.100000	11
164.100000	7
166.100000	9
167.100000	9
168.100000	8
169.100000	8
170.100000	1
171.100000	4
172.100000	6
173.100000	24
174.100000	14
175.100000	39
176.100000	6
177.100000	38
178.100000	11
179.100000	31
180.100000	4
183.100000	2
184.100000	9
185.100000	9
186.100000	3
187.100000	10
188.100000	11
189.100000	14
191.000000	363
192.000000	79
193.000000	27
195.000000	10
196.000000	2
197.000000	4
199.000000	6
200.000000	9
201.000000	4
202.000000	6
203.000000	6
204.000000	4
205.050000	161
206.050000	439
207.000000	97
208.000000	33
210.000000	5
211.000000	3
213.000000	3
215.000000	9
216.000000	5
217.000000	11
219.000000	34
220.000000	5
221.000000	13
222.000000	6
223.000000	13
225.000000	5
226.000000	2
227.000000	3
228.000000	9
229.000000	1
230.000000	2
231.000000	10
232.000000	1
233.000000	12
234.000000	5
235.000000	10
236.000000	8
237.000000	3
238.000000	1
240.000000	11
244.000000	16
246.000000	10
247.000000	1
248.000000	1
250.000000	3
251.000000	10
252.000000	3
253.000000	27
254.000000	7
255.000000	15
257.000000	5
258.000000	6
259.000000	17
262.000000	3
264.000000	7
265.000000	16
266.000000	9
269.000000	4
270.000000	4
271.000000	10
272.000000	12
273.000000	7
274.000000	12
275.000000	6
277.000000	7
278.000000	17
279.000000	10
280.000000	4
281.000000	6
282.000000	11
283.000000	5
284.000000	2
285.000000	13
287.000000	10
289.000000	6
290.000000	6
291.000000	1
292.000000	3
294.000000	1
296.000000	1
299.000000	7
300.000000	15
302.000000	8
303.000000	11
304.000000	2
307.000000	5
308.000000	6
309.000000	10
310.000000	1
311.000000	8
312.000000	6
313.000000	2
314.000000	6
315.000000	15
317.000000	1
318.000000	1
319.000000	6
323.000000	11
324.000000	3
325.000000	4
327.000000	7
328.000000	16
329.000000	16
330.000000	5
331.000000	5
332.000000	7
334.000000	6
335.000000	7
336.000000	1
337.000000	10
338.000000	4
340.000000	7
342.000000	2
343.000000	6
344.000000	6
345.000000	8
346.000000	12
347.000000	7
348.000000	3
349.000000	2
350.000000	2
352.000000	10
353.000000	17
354.000000	5
355.000000	1
357.000000	5
358.000000	9
359.000000	5
360.000000	8
361.000000	6
363.000000	6
364.000000	8
365.000000	1
366.000000	2
367.000000	3
368.000000	13
369.000000	10
370.000000	4
371.000000	8
373.000000	9
374.000000	18
378.000000	12
379.000000	6
380.000000	19
381.000000	6
382.000000	7
383.000000	7
384.000000	4
385.000000	2
387.000000	2
388.000000	3
389.000000	4
390.000000	17
391.000000	1
392.000000	2
393.000000	13
394.000000	15
395.000000	7
397.000000	3
398.000000	8
401.000000	7
402.000000	5
403.000000	11
404.000000	4
405.000000	5
406.000000	6
407.000000	10
408.000000	8
409.000000	8
410.000000	2
411.000000	6
413.000000	8
414.000000	10
416.000000	3
417.000000	4
418.000000	3
419.000000	7
420.000000	6
421.000000	2
422.000000	3
424.000000	11
425.000000	2
426.000000	2
427.000000	4
428.000000	6
430.000000	14
434.000000	16
437.000000	3
438.000000	6
440.000000	5
441.000000	13
442.000000	7
443.000000	2
444.000000	13
445.000000	2
446.000000	2
448.000000	3
450.000000	1
451.000000	2
453.000000	3
454.000000	16
455.000000	12
457.000000	13
458.000000	8
459.000000	5
462.000000	11
463.000000	5
464.000000	7
465.000000	4
466.000000	11
467.000000	9
468.000000	6
471.000000	9
472.000000	13
474.000000	4
476.000000	10
477.000000	3
480.000000	9
481.000000	5
484.000000	15
485.000000	5
486.000000	4
487.000000	2
488.000000	10
489.000000	3
490.000000	8
491.000000	4
492.000000	5
493.000000	5
494.000000	14
495.000000	2
496.000000	5
498.000000	4
499.000000	1
