Mass spectrum: L-Norleucine; EI-B; MS; 2 TMS; RT: 480.88 s
Name: L-Norleucine
Class: Natural Product
Formula: C6H13NO2
Exact mass: 131.09463
SMILES: CCCC[C@H](N)C(O)=O
InChI: InChI=1S/C6H13NO2/c1-2-3-4-5(7)6(8)9/h5H,2-4,7H2,1H3,(H,8,9)/t5-/m0/s1
Instrument: GCMS-2010 Plus, Shimadzu
Instrument type: EI-B
Ms type: MS
Ion mode: POSITIVE
Column name: InertCap 5MS/NP 0.25 mmI.D. x 30 m, df=0.25 um
Retention time: 480.88
Derivative type: 2 TMS
m/z	relative intensity
86.100000	51
87.100000	4
88.100000	3
89.100000	1
90.100000	2
91.100000	3
92.100000	2
93.100000	2
94.100000	2
95.100000	2
96.100000	4
97.100000	3
98.100000	5
99.100000	2
100.100000	43
101.100000	8
102.100000	28
103.100000	10
104.100000	2
105.100000	4
106.100000	1
107.100000	1
108.100000	1
110.100000	3
111.100000	3
112.100000	1
113.100000	3
114.100000	13
115.100000	13
116.100000	4
117.100000	8
119.100000	4
120.100000	1
121.100000	2
122.100000	2
123.100000	1
124.100000	1
125.100000	1
126.100000	1
127.100000	2
128.100000	16
129.100000	5
130.100000	6
131.100000	16
132.100000	7
133.100000	17
134.100000	4
135.100000	1
136.100000	1
137.100000	2
141.100000	2
142.100000	6
143.100000	8
144.100000	3
145.100000	2
146.200000	7
147.150000	87
148.150000	17
149.100000	8
150.100000	2
151.100000	1
152.100000	1
153.100000	1
154.100000	3
156.100000	6
157.200000	6
158.200000	999
159.200000	151
160.200000	51
161.200000	4
162.200000	1
163.200000	2
164.200000	1
165.200000	1
166.200000	2
167.200000	2
168.200000	1
169.200000	2
170.200000	13
171.200000	5
172.200000	3
173.200000	1
174.200000	2
175.200000	1
176.200000	3
177.200000	2
178.200000	1
179.200000	1
181.200000	1
182.200000	1
183.200000	1
184.200000	1
185.200000	1
186.200000	2
187.200000	1
188.200000	4
189.200000	1
190.200000	1
191.200000	1
192.200000	1
193.200000	1
195.200000	2
196.200000	1
197.200000	1
198.200000	1
199.200000	1
200.200000	1
201.200000	1
202.200000	1
203.200000	1
204.200000	3
205.200000	2
206.200000	1
207.200000	5
208.200000	1
210.200000	2
211.200000	1
212.200000	1
213.200000	1
214.200000	1
215.200000	1
216.200000	2
217.100000	1
218.100000	28
219.050000	18
220.100000	6
221.100000	1
222.100000	1
223.100000	1
224.100000	1
225.100000	1
226.100000	1
227.100000	1
230.100000	3
231.100000	1
232.200000	35
233.200000	13
234.200000	3
235.200000	3
237.200000	1
238.200000	2
239.200000	1
240.200000	1
241.200000	2
242.200000	2
243.200000	2
245.200000	2
246.200000	2
247.200000	1
248.200000	1
250.200000	1
251.200000	1
252.200000	1
253.200000	8
254.200000	4
255.200000	1
256.200000	2
257.200000	2
258.200000	1
259.200000	1
260.200000	12
261.200000	5
262.200000	1
263.200000	1
264.200000	3
265.200000	2
266.200000	1
267.200000	2
268.200000	2
269.200000	1
270.200000	1
271.200000	2
272.200000	1
273.200000	1
275.200000	2
276.200000	2
277.200000	1
280.200000	1
281.200000	2
283.200000	1
284.200000	1
285.200000	1
286.200000	1
287.200000	1
288.200000	1
289.200000	1
290.200000	1
291.200000	1
292.200000	1
293.200000	1
294.200000	2
295.200000	3
296.200000	1
297.200000	1
298.200000	1
299.200000	1
300.200000	2
301.200000	1
303.200000	1
306.200000	1
307.200000	1
309.200000	1
310.200000	1
311.200000	1
312.200000	1
313.200000	1
314.200000	1
315.200000	1
316.200000	2
318.200000	2
320.200000	1
321.200000	1
322.200000	1
323.200000	1
325.200000	1
326.200000	2
327.200000	3
328.200000	2
329.200000	1
330.200000	1
331.200000	4
332.200000	1
333.200000	1
334.200000	1
335.200000	1
336.200000	1
338.200000	1
339.200000	1
341.200000	2
345.200000	1
346.200000	1
347.200000	3
348.200000	1
349.200000	2
350.200000	1
351.200000	1
352.200000	1
354.200000	2
355.200000	1
357.200000	1
358.200000	1
359.200000	1
360.200000	1
361.200000	1
362.200000	1
363.200000	1
364.200000	1
365.200000	2
367.200000	1
368.200000	1
369.200000	1
370.200000	1
371.200000	1
373.200000	1
374.200000	1
375.200000	1
376.200000	1
377.200000	1
378.200000	2
379.200000	1
380.200000	1
381.200000	1
382.200000	1
383.200000	1
384.200000	1
385.200000	1
386.200000	1
387.200000	2
388.200000	1
389.200000	1
390.200000	1
391.200000	1
392.200000	1
394.200000	1
395.200000	2
396.200000	1
397.200000	1
398.200000	1
399.200000	2
400.200000	1
401.200000	1
402.200000	1
403.200000	1
404.200000	1
405.200000	2
406.200000	2
407.200000	1
408.200000	1
409.200000	1
410.200000	2
411.200000	1
412.200000	1
413.200000	1
414.200000	2
415.200000	1
416.200000	1
420.200000	1
421.200000	1
422.200000	1
425.200000	1
426.200000	1
427.200000	1
428.200000	1
429.200000	1
430.200000	1
431.200000	1
434.200000	1
435.200000	1
437.200000	1
439.200000	1
440.200000	1
441.200000	1
443.200000	1
444.200000	1
445.200000	2
446.200000	1
448.200000	1
449.200000	2
451.200000	1
452.200000	1
453.200000	1
455.200000	1
456.200000	1
458.200000	1
459.200000	1
460.200000	1
461.200000	1
462.200000	1
463.200000	1
464.200000	1
465.200000	1
466.200000	1
467.200000	1
468.200000	1
469.200000	1
470.200000	1
471.200000	1
472.200000	1
473.200000	1
474.200000	1
476.200000	1
478.200000	1
479.200000	1
480.200000	1
481.200000	1
483.200000	1
484.200000	2
485.200000	1
486.200000	1
488.200000	1
489.200000	1
491.200000	1
492.200000	1
493.200000	2
494.200000	1
495.200000	1
496.200000	1
497.200000	1
498.200000	1
