Mass spectrum: 3-Hydroxypyruvic acid; EI-B; MS; n TMS; RT: 460.79 s
Name: 3-Hydroxypyruvic acid
Name: 3-Hydroxypyruvate
Class: Natural Product
Formula: C3H4O4
Exact mass: 104.01096
SMILES: OCC(=O)C(O)=O
InChI: InChI=1S/C3H4O4/c4-1-2(5)3(6)7/h4H,1H2,(H,6,7)
Instrument: GCMS-2010 Plus, Shimadzu
Instrument type: EI-B
Ms type: MS
Ion mode: POSITIVE
Column name: InertCap 5MS/NP 0.25 mmI.D. x 30 m, df=0.25 um
Retention time: 460.79
Derivative type: n TMS
m/z	relative intensity
86.000000	55
87.000000	28
88.100000	25
89.050000	407
90.100000	31
91.100000	20
92.100000	2
93.100000	12
94.100000	4
95.100000	6
96.100000	10
97.100000	5
98.100000	17
99.000000	18
100.050000	446
101.000000	45
102.150000	75
103.100000	356
104.100000	37
105.100000	38
106.100000	6
107.100000	4
108.100000	2
110.100000	2
111.100000	1
113.100000	10
114.100000	579
115.100000	61
116.100000	29
117.100000	36
118.100000	6
119.100000	37
120.100000	3
121.100000	2
123.100000	2
124.100000	6
125.100000	1
126.100000	4
128.050000	171
129.000000	30
130.150000	57
131.100000	99
132.100000	18
133.050000	95
134.100000	17
135.100000	11
136.100000	1
137.100000	6
139.100000	7
140.100000	3
141.100000	4
142.100000	9
143.100000	6
144.100000	9
145.100000	5
146.100000	12
147.150000	999
148.150000	153
149.100000	104
150.100000	10
151.100000	4
152.100000	1
153.100000	3
154.100000	6
155.100000	3
156.100000	23
157.100000	12
158.100000	35
159.100000	5
160.100000	84
161.100000	13
162.100000	7
163.150000	70
164.100000	15
165.100000	9
166.100000	4
167.100000	7
168.100000	2
169.100000	2
170.100000	2
171.100000	13
172.150000	64
173.100000	12
174.100000	7
175.100000	5
176.100000	4
177.100000	105
178.100000	22
179.100000	10
180.100000	3
181.100000	5
183.100000	1
184.100000	8
185.100000	5
186.050000	68
187.100000	9
188.100000	37
189.100000	17
190.100000	6
191.100000	26
192.100000	3
193.100000	4
194.100000	3
195.100000	8
196.100000	1
197.100000	1
198.100000	3
199.100000	1
200.100000	6
201.100000	27
202.100000	9
203.100000	9
204.100000	75
205.100000	17
206.100000	10
207.100000	25
208.100000	5
209.100000	4
210.100000	5
212.100000	3
213.100000	1
215.100000	5
216.100000	11
217.100000	5
218.100000	4
219.100000	30
220.100000	4
222.100000	5
223.100000	3
224.100000	1
225.100000	1
227.100000	2
228.100000	3
229.100000	2
230.100000	3
231.100000	1
232.100000	5
233.100000	2
234.150000	51
235.200000	14
236.200000	9
238.200000	1
239.200000	3
240.200000	2
242.200000	1
243.200000	4
244.200000	5
245.200000	2
246.200000	44
247.200000	12
248.200000	5
250.200000	3
252.200000	2
253.200000	20
254.200000	10
255.200000	1
256.200000	6
257.200000	2
258.200000	2
259.200000	2
260.200000	4
261.100000	1
262.100000	475
263.100000	95
264.050000	46
265.100000	5
266.100000	3
267.100000	7
268.100000	7
269.100000	4
270.100000	4
271.100000	2
272.100000	7
273.100000	1
274.100000	3
275.100000	5
276.100000	2
277.100000	4
278.100000	4
279.100000	1
280.100000	4
281.100000	4
282.100000	7
283.100000	9
284.100000	3
286.100000	1
287.100000	2
288.100000	3
289.100000	1
290.100000	1
292.100000	1
293.100000	4
294.100000	2
295.100000	1
296.100000	5
297.100000	2
298.100000	4
299.100000	1
300.100000	6
301.100000	3
302.100000	2
303.100000	4
304.100000	4
305.100000	3
306.100000	1
307.100000	3
308.100000	1
309.100000	3
310.100000	3
311.100000	4
312.100000	2
313.100000	3
314.100000	4
315.100000	3
316.100000	4
317.100000	2
318.100000	2
319.100000	3
320.100000	3
321.100000	4
322.100000	2
323.100000	4
324.100000	6
325.100000	3
326.100000	1
327.100000	2
328.100000	3
329.100000	7
330.100000	1
331.100000	9
332.100000	3
333.100000	3
335.100000	2
336.100000	1
337.100000	3
338.100000	3
340.100000	2
341.100000	3
342.100000	2
343.100000	1
344.100000	5
345.100000	1
346.100000	8
348.100000	6
349.100000	5
350.100000	2
351.100000	4
352.100000	3
355.100000	1
358.100000	4
361.100000	6
362.100000	4
363.100000	5
364.100000	3
367.100000	4
368.100000	3
369.100000	3
370.100000	3
371.100000	2
372.100000	2
373.100000	5
374.100000	1
375.100000	1
376.100000	1
377.100000	3
378.100000	1
379.100000	2
381.100000	1
382.100000	5
383.100000	1
384.100000	2
385.100000	4
388.100000	4
389.100000	5
390.100000	3
391.100000	2
392.100000	1
393.100000	5
394.100000	2
395.100000	2
396.100000	2
397.100000	2
398.100000	1
399.100000	5
400.100000	6
401.100000	4
403.100000	3
404.100000	4
405.100000	8
406.100000	6
407.100000	6
408.100000	1
410.100000	1
411.100000	1
412.100000	2
413.100000	2
414.100000	6
416.100000	1
417.100000	1
418.100000	1
421.100000	1
423.100000	2
427.100000	2
428.100000	2
429.100000	2
430.100000	1
431.100000	2
432.100000	4
433.100000	4
434.100000	1
435.100000	3
436.100000	7
437.100000	3
438.100000	1
440.100000	1
441.100000	1
443.100000	1
444.100000	1
446.100000	1
448.100000	1
449.100000	3
450.100000	1
451.100000	5
452.100000	1
453.100000	4
454.100000	3
456.100000	4
457.100000	3
458.100000	3
459.100000	4
463.100000	4
464.100000	4
465.100000	1
466.100000	2
468.100000	5
469.100000	3
470.100000	1
471.100000	2
472.100000	2
473.100000	1
474.100000	1
475.100000	4
476.100000	3
477.100000	3
478.100000	3
479.100000	2
480.100000	2
481.100000	2
482.100000	2
483.100000	2
485.100000	3
488.100000	1
489.100000	1
491.100000	2
492.100000	3
493.100000	1
494.100000	3
496.100000	4
498.100000	3
499.100000	2
