Mass spectrum: Sarcosine; EI-B; MS; 2 TMS; RT: 359.28 s
Name: Sarcosine
Name: N-MethylGlycine
Class: Natural Product
Formula: C3H7NO2
Exact mass: 89.04768
SMILES: CNCC(O)=O
InChI: InChI=1S/C3H7NO2/c1-4-2-3(5)6/h4H,2H2,1H3,(H,5,6)
Instrument: GCMS-2010 Plus, Shimadzu
Instrument type: EI-B
Ms type: MS
Ion mode: POSITIVE
Column name: InertCap 5MS/NP 0.25 mmI.D. x 30 m, df=0.25 um
Retention time: 359.28
Derivative type: 2 TMS
m/z	relative intensity
86.500000	14
87.500000	11
88.450000	2
89.500000	1
90.500000	1
91.500000	1
92.500000	1
94.000000	2
94.950000	1
96.000000	1
97.000000	1
98.000000	1
99.050000	1
100.050000	7
101.550000	10
103.000000	4
104.050000	1
105.050000	1
106.100000	1
107.100000	1
108.100000	1
109.100000	1
110.100000	1
111.100000	1
112.100000	1
113.050000	1
114.100000	3
115.150000	7
116.100000	999
117.100000	108
118.100000	37
119.100000	4
120.100000	1
121.100000	1
123.100000	1
124.100000	1
125.100000	1
126.100000	1
127.100000	1
128.100000	1
129.100000	1
130.100000	1
131.050000	8
132.050000	1
133.050000	10
134.050000	1
135.050000	1
136.000000	1
137.000000	1
139.000000	1
140.000000	1
141.000000	1
142.000000	1
143.100000	1
144.100000	5
145.100000	1
146.150000	2
147.100000	146
148.100000	23
149.100000	11
150.100000	1
151.100000	1
152.100000	1
153.100000	1
154.100000	1
155.100000	1
156.100000	1
157.100000	1
158.100000	1
159.100000	1
160.100000	1
161.100000	1
162.100000	1
163.100000	1
164.100000	1
165.100000	1
166.100000	1
167.100000	1
168.100000	1
169.100000	1
170.100000	1
172.100000	1
173.100000	1
174.150000	1
175.050000	5
176.050000	1
177.050000	1
178.000000	1
179.000000	1
180.000000	1
181.000000	1
182.000000	1
183.000000	1
185.000000	1
187.000000	1
188.100000	1
189.150000	1
190.050000	37
191.050000	7
192.050000	3
193.100000	1
194.100000	1
195.100000	1
196.100000	1
197.100000	1
200.100000	1
201.100000	1
202.100000	1
203.100000	1
204.150000	2
205.100000	1
206.100000	1
207.100000	1
208.100000	1
209.100000	1
211.100000	1
212.100000	1
213.100000	1
214.100000	1
216.100000	1
217.100000	1
218.100000	30
219.050000	6
220.050000	3
221.100000	1
222.100000	1
223.100000	1
226.100000	1
227.100000	1
228.100000	1
229.100000	1
230.100000	1
231.100000	1
232.150000	1
233.100000	18
234.050000	4
235.150000	2
236.100000	1
237.100000	1
238.100000	1
239.100000	1
241.100000	1
242.100000	1
243.100000	1
244.100000	1
245.100000	1
247.100000	1
248.100000	1
249.100000	1
251.100000	1
252.100000	1
253.100000	1
254.100000	1
255.100000	1
256.100000	1
257.100000	1
258.100000	1
259.100000	1
260.100000	1
261.100000	1
262.100000	1
263.100000	1
264.100000	1
265.100000	1
269.100000	1
270.100000	1
271.100000	1
272.100000	1
273.100000	1
274.100000	1
275.100000	1
276.100000	1
277.100000	1
279.100000	1
280.100000	1
281.100000	1
282.100000	1
283.100000	1
284.100000	1
285.100000	1
286.100000	1
288.100000	1
289.100000	1
290.100000	1
291.100000	1
292.100000	1
293.100000	1
294.100000	1
295.100000	1
298.100000	1
299.100000	1
300.100000	1
301.100000	1
302.100000	1
303.100000	1
304.100000	1
305.100000	1
306.100000	1
307.100000	1
308.100000	1
309.100000	1
310.100000	1
312.100000	1
313.100000	1
314.100000	1
316.100000	1
317.100000	1
318.100000	1
319.100000	1
320.100000	1
321.100000	1
322.100000	1
324.100000	1
325.100000	1
326.100000	1
327.100000	1
328.100000	1
329.100000	1
330.100000	1
331.100000	1
332.100000	1
334.100000	1
336.100000	1
338.100000	1
339.100000	1
340.100000	1
341.100000	1
342.100000	1
344.100000	1
345.100000	1
346.100000	1
347.100000	1
348.100000	1
349.100000	1
352.100000	1
354.100000	1
356.100000	1
357.100000	1
358.100000	1
359.100000	1
361.100000	1
362.100000	1
363.100000	1
364.100000	1
365.100000	1
367.100000	1
368.100000	1
369.100000	1
370.100000	1
371.100000	1
372.100000	1
373.100000	1
374.100000	1
377.100000	1
378.100000	1
380.100000	1
381.100000	1
382.100000	1
383.100000	1
384.100000	1
385.100000	1
387.100000	1
389.100000	1
392.100000	1
393.100000	1
395.100000	1
396.100000	1
397.100000	1
398.100000	1
399.100000	1
403.100000	1
404.100000	1
405.100000	1
406.100000	1
407.100000	1
408.100000	1
410.100000	1
412.100000	1
413.100000	1
414.100000	1
415.100000	1
416.100000	1
417.100000	1
418.100000	1
419.100000	1
420.100000	1
423.100000	1
424.100000	1
425.100000	1
426.100000	1
427.100000	1
428.100000	1
429.100000	1
431.100000	1
433.100000	1
434.100000	1
435.100000	1
436.100000	1
438.100000	1
441.100000	1
442.100000	1
444.100000	1
445.100000	1
446.100000	1
447.100000	1
449.100000	1
451.100000	1
453.100000	1
454.100000	1
455.100000	1
456.100000	1
457.100000	1
458.100000	1
460.100000	1
461.100000	1
462.100000	1
463.100000	1
464.100000	1
465.100000	1
467.100000	1
469.100000	1
470.100000	1
471.100000	1
472.100000	1
473.100000	1
476.100000	1
477.100000	1
478.100000	1
479.100000	1
480.100000	1
481.100000	1
482.100000	1
484.100000	1
487.100000	1
489.100000	1
490.100000	1
491.100000	1
492.100000	1
493.100000	1
496.100000	1
497.100000	1
498.100000	1
499.100000	1
