Mass spectrum: Niacinamide; EI-B; MS; 1 TMS; RT: 571.66 s
Name: Niacinamide
Name: Nicotinamide
Class: Natural Product
Formula: C6H6N2O
Exact mass: 122.04801
SMILES: NC(=O)c(c1)cncc1
InChI: InChI=1S/C6H6N2O/c7-6(9)5-2-1-3-8-4-5/h1-4H,(H2,7,9)
Instrument: GCMS-2010 Plus, Shimadzu
Instrument type: EI-B
Ms type: MS
Ion mode: POSITIVE
Column name: InertCap 5MS/NP 0.25 mmI.D. x 30 m, df=0.25 um
Retention time: 571.66
Derivative type: 1 TMS
m/z	relative intensity
86.000000	7
87.000000	1
88.000000	1
89.500000	47
90.450000	4
92.000000	5
93.050000	14
94.000000	12
95.000000	4
96.000000	2
97.000000	2
98.000000	1
99.000000	1
100.000000	23
101.000000	3
102.000000	2
103.000000	2
104.050000	27
105.050000	85
106.050000	36
107.000000	4
108.000000	4
109.000000	4
110.000000	4
111.000000	1
112.000000	1
113.000000	1
114.000000	1
116.000000	1
117.000000	1
118.000000	1
119.050000	9
120.050000	11
121.000000	4
122.050000	22
123.000000	2
124.000000	1
125.000000	1
126.000000	1
127.000000	1
128.000000	1
129.000000	1
130.000000	1
131.000000	2
132.000000	2
133.000000	2
134.000000	4
135.050000	8
136.050000	327
137.100000	43
138.050000	16
139.000000	1
140.000000	1
141.000000	1
142.000000	1
143.000000	1
144.000000	1
146.000000	1
147.000000	2
148.000000	2
149.050000	5
150.050000	8
151.100000	7
152.100000	2
153.100000	1
154.100000	1
155.100000	1
156.100000	1
157.100000	1
158.100000	1
159.100000	1
160.100000	1
161.100000	4
162.000000	1
163.000000	12
164.000000	2
165.050000	7
166.100000	2
167.100000	1
168.100000	1
169.100000	1
170.100000	1
171.100000	1
172.100000	1
173.100000	1
174.100000	1
175.000000	8
176.000000	2
177.000000	3
178.050000	5
179.000000	999
180.000000	142
181.000000	40
182.000000	4
183.000000	1
184.000000	1
185.000000	1
186.000000	1
187.000000	1
188.000000	1
189.000000	1
190.000000	1
192.000000	1
193.000000	70
193.950000	39
195.000000	7
196.000000	1
197.000000	1
198.000000	1
200.000000	1
201.000000	1
202.000000	1
203.000000	1
204.000000	1
205.000000	1
206.000000	1
207.000000	1
208.000000	1
209.000000	1
210.000000	1
211.000000	1
213.000000	1
215.000000	1
216.000000	1
217.000000	1
218.000000	1
219.000000	1
220.000000	1
223.000000	1
224.000000	1
225.000000	1
226.000000	1
228.000000	1
229.000000	1
230.000000	1
231.000000	1
232.000000	1
233.000000	1
234.000000	1
235.000000	1
236.000000	1
237.000000	1
238.000000	1
240.000000	1
241.000000	1
242.000000	1
243.000000	1
245.000000	1
246.000000	1
247.000000	1
248.000000	1
249.000000	1
251.000000	1
252.000000	1
253.000000	1
255.000000	1
256.000000	1
257.000000	1
258.000000	1
259.000000	1
260.000000	1
261.000000	1
262.000000	1
263.000000	1
264.000000	1
265.000000	1
266.000000	1
267.000000	1
268.000000	1
269.000000	1
270.000000	1
271.000000	1
272.000000	1
274.000000	1
276.000000	1
277.000000	1
278.000000	1
279.000000	1
280.000000	1
281.000000	1
282.000000	1
283.000000	1
284.000000	1
286.000000	1
287.000000	1
288.000000	1
291.000000	1
293.000000	1
294.000000	1
295.000000	1
296.000000	1
297.000000	1
298.000000	1
299.000000	1
301.000000	1
302.000000	1
303.000000	1
304.000000	1
305.000000	1
306.000000	1
307.000000	1
308.000000	1
309.000000	1
310.000000	1
311.000000	1
312.000000	1
313.000000	1
314.000000	1
315.000000	1
316.000000	1
317.000000	1
318.000000	1
319.000000	1
320.000000	1
321.000000	1
322.000000	1
325.000000	1
326.000000	1
327.000000	1
328.000000	1
329.000000	1
330.000000	1
331.000000	1
332.000000	1
333.000000	1
338.000000	1
339.000000	1
340.000000	1
341.000000	1
343.000000	1
344.000000	1
345.000000	1
346.000000	1
347.000000	1
348.000000	1
349.000000	1
351.000000	1
352.000000	1
353.000000	1
355.000000	1
356.000000	1
358.000000	1
359.000000	1
360.000000	1
361.000000	1
362.000000	1
363.000000	1
365.000000	1
366.000000	1
367.000000	1
368.000000	1
369.000000	1
370.000000	1
371.000000	1
372.000000	1
373.000000	1
375.000000	1
376.000000	1
377.000000	1
378.000000	1
379.000000	1
380.000000	1
381.000000	1
382.000000	1
384.000000	1
385.000000	1
386.000000	1
387.000000	1
388.000000	1
389.000000	1
390.000000	1
391.000000	1
392.000000	1
393.000000	1
394.000000	1
395.000000	1
396.000000	1
397.000000	1
400.000000	1
402.000000	1
403.000000	1
404.000000	1
405.000000	1
406.000000	1
407.000000	1
408.000000	1
409.000000	1
410.000000	1
411.000000	1
412.000000	1
413.000000	1
414.000000	1
415.000000	1
416.000000	1
417.000000	1
418.000000	1
419.000000	1
420.000000	1
421.000000	1
422.000000	1
423.000000	1
424.000000	1
425.000000	1
426.000000	1
429.000000	1
430.000000	1
431.000000	1
432.000000	1
434.000000	1
435.000000	1
436.000000	1
437.000000	1
438.000000	1
442.000000	1
443.000000	1
444.000000	1
445.000000	1
446.000000	1
447.000000	1
448.000000	1
449.000000	1
450.000000	1
451.000000	1
452.000000	1
455.000000	1
456.000000	1
457.000000	1
458.000000	1
459.000000	1
460.000000	1
462.000000	1
463.000000	1
464.000000	1
465.000000	1
466.000000	1
467.000000	1
468.000000	1
469.000000	1
470.000000	1
471.000000	1
472.000000	1
473.000000	1
474.000000	1
475.000000	1
476.000000	1
477.000000	1
478.000000	1
479.000000	1
480.000000	1
482.000000	1
483.000000	1
484.000000	1
485.000000	1
486.000000	1
487.000000	1
488.000000	1
489.000000	1
490.000000	1
492.000000	1
495.000000	1
496.000000	1
497.000000	1
498.000000	1
499.000000	1
