Mass spectrum: Pyrogallol; EI-B; MS; n TMS; RT: 612.56 s
Name: Pyrogallol
Class: Natural Product
Formula: C6H6O3
Exact mass: 126.03169
SMILES: Oc(c1)c(O)c(O)cc1
InChI: InChI=1S/C6H6O3/c7-4-2-1-3-5(8)6(4)9/h1-3,7-9H
Instrument: GCMS-2010 Plus, Shimadzu
Instrument type: EI-B
Ms type: MS
Ion mode: POSITIVE
Column name: InertCap 5MS/NP 0.25 mmI.D. x 30 m, df=0.25 um
Retention time: 612.56
Derivative type: n TMS
m/z	relative intensity
86.000000	1
87.050000	3
88.000000	1
89.000000	4
90.100000	1
91.050000	22
92.100000	3
93.050000	51
94.100000	4
95.000000	4
96.000000	1
97.050000	3
98.100000	1
99.050000	2
100.100000	1
101.100000	1
102.000000	1
103.000000	12
104.050000	3
105.050000	15
106.000000	2
107.050000	3
108.000000	1
109.050000	4
110.100000	1
111.100000	1
112.100000	1
113.100000	1
114.000000	1
115.050000	9
116.050000	2
117.000000	6
118.050000	2
119.050000	27
120.000000	4
121.000000	4
122.000000	1
123.050000	2
124.000000	1
125.000000	1
126.000000	1
127.000000	1
128.000000	1
129.000000	2
130.000000	1
131.050000	14
132.050000	2
133.000000	100
134.050000	12
135.050000	15
136.050000	2
137.000000	7
138.000000	1
139.000000	1
140.000000	1
141.000000	1
142.000000	1
143.000000	4
144.000000	1
145.100000	2
146.100000	1
147.100000	45
148.100000	7
149.050000	12
150.000000	1
151.000000	5
152.000000	1
153.000000	3
154.000000	1
155.000000	1
156.000000	1
157.050000	2
158.000000	1
159.000000	1
160.000000	1
161.050000	2
162.000000	1
163.050000	4
164.000000	1
165.000000	3
166.000000	1
166.950000	2
168.000000	1
169.000000	1
170.000000	1
171.000000	1
172.000000	1
173.000000	1
174.000000	1
175.000000	1
176.000000	1
177.000000	4
178.000000	1
179.000000	22
180.050000	4
180.950000	5
182.000000	1
183.000000	1
184.000000	1
185.000000	1
186.000000	1
187.000000	1
188.000000	1
189.000000	2
190.000000	1
190.950000	8
192.000000	2
193.000000	13
194.000000	3
194.950000	6
195.950000	5
196.950000	4
198.000000	1
199.000000	1
201.000000	1
202.000000	1
203.000000	1
204.000000	1
205.000000	3
206.000000	1
207.000000	5
207.950000	2
208.950000	8
210.050000	2
211.000000	117
212.000000	22
212.950000	11
214.000000	1
215.000000	1
216.000000	1
217.000000	1
218.000000	1
219.000000	1
220.000000	1
221.000000	1
222.000000	1
222.950000	2
224.000000	1
225.000000	1
226.000000	1
227.000000	1
228.000000	1
229.000000	1
231.000000	1
232.000000	1
233.000000	1
234.000000	1
235.000000	1
236.000000	1
237.000000	7
238.050000	4
239.000000	999
240.000000	201
241.000000	85
241.950000	11
243.000000	3
244.000000	1
245.000000	1
246.000000	1
247.000000	1
248.000000	1
249.000000	1
250.000000	1
250.950000	5
252.050000	1
253.000000	5
254.000000	12
255.000000	3
256.000000	1
257.000000	1
258.000000	1
259.000000	1
260.000000	1
261.000000	1
262.000000	1
263.000000	1
264.000000	1
265.000000	1
266.000000	1
267.050000	6
268.050000	2
269.100000	3
270.100000	1
271.100000	1
272.100000	1
274.100000	1
275.100000	1
276.100000	1
277.100000	1
278.100000	1
279.100000	1
280.100000	1
281.100000	1
282.100000	1
283.100000	1
284.100000	1
285.100000	1
286.100000	1
287.100000	1
289.100000	1
290.100000	1
291.100000	1
292.100000	1
293.100000	1
294.100000	1
295.100000	1
296.100000	1
297.100000	1
298.100000	1
299.100000	1
300.100000	1
301.100000	1
302.100000	1
303.100000	1
305.100000	1
306.100000	1
307.100000	1
308.100000	1
309.100000	1
310.100000	1
311.100000	2
312.100000	1
313.100000	1
314.100000	1
315.100000	1
316.100000	1
317.100000	1
318.100000	1
321.100000	1
322.100000	1
323.100000	1
324.100000	1
325.100000	1
326.100000	1
327.050000	77
328.050000	24
329.050000	11
330.100000	3
331.100000	1
332.100000	1
333.100000	1
335.100000	1
336.100000	1
338.100000	1
339.100000	1
340.100000	1
341.150000	3
342.100000	356
343.050000	111
344.050000	56
345.050000	13
346.100000	3
347.100000	1
348.100000	1
352.100000	1
353.100000	1
354.100000	1
355.100000	1
356.100000	1
357.100000	1
358.100000	1
360.100000	1
361.100000	1
362.100000	1
364.100000	1
365.100000	1
366.100000	1
368.100000	1
369.100000	1
370.100000	1
371.100000	1
372.100000	1
373.100000	1
374.100000	1
375.100000	1
376.100000	1
377.100000	1
378.100000	1
379.100000	1
381.100000	1
382.100000	1
383.100000	1
384.100000	1
386.100000	1
387.100000	1
388.100000	1
389.100000	1
390.100000	1
391.100000	1
392.100000	1
394.100000	1
395.100000	1
396.100000	1
397.100000	1
399.100000	1
400.100000	1
401.100000	1
402.100000	1
403.100000	1
404.100000	1
405.100000	1
406.100000	1
407.100000	1
408.100000	1
409.100000	1
410.100000	1
411.100000	1
412.100000	1
415.100000	1
416.100000	1
417.100000	1
419.100000	1
420.100000	1
422.100000	1
423.100000	1
424.100000	1
425.100000	1
426.100000	1
427.100000	1
428.100000	1
429.100000	1
430.100000	1
432.100000	1
433.100000	1
434.100000	1
435.100000	1
436.100000	1
437.100000	1
438.100000	1
439.100000	1
440.100000	1
441.100000	1
442.100000	1
443.100000	1
444.100000	1
445.100000	1
446.100000	1
447.100000	1
449.100000	1
450.100000	1
451.100000	1
452.100000	1
453.100000	1
455.100000	1
456.100000	1
458.100000	1
460.100000	1
461.100000	1
462.100000	1
464.100000	1
466.100000	1
467.100000	1
468.100000	1
469.100000	1
470.100000	1
471.100000	1
473.100000	1
474.100000	1
475.100000	1
477.100000	1
478.100000	1
480.100000	1
481.100000	1
482.100000	1
483.100000	1
484.100000	1
487.100000	1
488.100000	1
489.100000	1
490.100000	1
492.100000	1
493.100000	1
494.100000	1
495.100000	1
496.100000	1
497.100000	1
499.100000	1
