Mass spectrum: L-Glutamic acid; EI-B; MS; 3 TMS; RT: 647.97 s
Name: L-Glutamic acid
Class: Natural Product
Formula: C5H9NO4
Exact mass: 147.05316
SMILES: OC(=O)CC[C@H](N)C(O)=O
InChI: InChI=1S/C5H9NO4/c6-3(5(9)10)1-2-4(7)8/h3H,1-2,6H2,(H,7,8)(H,9,10)/t3-/m0/s1
Instrument: GCMS-2010 Plus, Shimadzu
Instrument type: EI-B
Ms type: MS
Ion mode: POSITIVE
Column name: InertCap 5MS/NP 0.25 mmI.D. x 30 m, df=0.25 um
Retention time: 647.97
Derivative type: 3 TMS
m/z	relative intensity
86.100000	10
87.000000	4
88.000000	2
89.050000	3
90.000000	1
91.000000	1
92.000000	1
93.000000	1
94.000000	1
95.000000	2
96.000000	2
97.100000	2
98.100000	7
99.100000	7
100.100000	80
101.100000	14
102.100000	8
103.050000	9
104.100000	2
105.050000	2
106.100000	1
107.100000	1
108.100000	1
109.100000	1
110.100000	1
111.100000	1
112.100000	9
113.050000	15
114.100000	18
115.100000	17
116.100000	8
117.100000	13
118.050000	3
119.050000	4
120.000000	1
121.000000	1
122.000000	1
123.000000	1
124.000000	1
125.000000	1
126.100000	2
127.150000	3
128.100000	380
129.100000	66
130.100000	27
131.100000	22
132.050000	15
133.050000	42
134.100000	7
135.050000	5
136.100000	1
137.100000	1
138.100000	1
139.100000	1
140.100000	36
141.100000	5
142.150000	3
143.100000	4
144.100000	3
145.150000	3
146.150000	3
147.150000	230
148.150000	39
149.100000	38
150.100000	5
151.100000	2
152.100000	1
153.100000	1
154.100000	3
155.150000	4
156.150000	227
157.100000	40
158.100000	37
159.100000	7
160.050000	4
161.000000	1
162.000000	2
163.150000	4
164.100000	1
165.100000	1
166.100000	1
168.000000	2
169.000000	1
170.000000	1
171.000000	1
172.050000	5
173.100000	3
174.100000	18
175.050000	3
176.100000	2
177.100000	1
178.100000	1
179.100000	1
180.100000	1
181.100000	1
182.100000	1
183.100000	1
184.100000	2
185.000000	1
186.050000	5
187.000000	1
188.050000	3
189.050000	4
190.050000	2
191.000000	2
192.000000	1
193.000000	1
194.000000	1
195.000000	1
196.000000	1
197.000000	1
198.000000	1
199.000000	1
200.000000	1
201.100000	1
202.100000	12
203.100000	6
204.050000	42
205.050000	9
206.050000	5
207.000000	6
208.000000	1
209.000000	1
210.000000	1
211.000000	1
212.000000	1
213.100000	1
214.100000	13
215.100000	3
216.100000	5
217.150000	2
218.050000	46
219.100000	13
220.050000	4
221.050000	19
222.100000	4
223.000000	2
224.000000	1
225.000000	1
226.000000	1
227.000000	1
228.000000	1
229.150000	3
230.100000	160
231.050000	35
232.100000	17
233.000000	3
234.000000	1
235.000000	1
236.000000	1
238.000000	1
239.000000	1
240.000000	1
241.000000	1
242.000000	1
243.000000	1
244.100000	4
245.150000	22
246.100000	999
247.150000	226
248.100000	96
249.100000	13
250.100000	3
251.100000	1
252.100000	1
253.100000	1
254.100000	1
255.100000	1
256.100000	1
257.100000	1
258.100000	32
259.050000	7
260.050000	3
261.000000	1
262.000000	1
263.000000	1
264.000000	1
265.000000	1
266.000000	1
267.000000	1
268.000000	1
269.000000	1
270.000000	1
271.000000	1
272.000000	1
273.100000	3
274.100000	12
275.100000	3
276.100000	3
277.100000	1
278.100000	1
279.100000	1
280.100000	1
281.100000	1
282.100000	1
283.100000	1
284.100000	1
285.100000	1
286.100000	1
287.100000	1
288.100000	1
289.100000	1
290.100000	1
291.100000	1
292.100000	1
293.100000	1
294.100000	1
296.100000	1
297.100000	1
298.100000	1
299.100000	1
300.100000	1
301.100000	1
302.100000	1
303.100000	1
304.100000	1
305.100000	1
306.100000	1
307.100000	1
308.100000	1
309.100000	1
310.100000	1
312.100000	1
313.100000	1
314.100000	1
316.100000	1
317.100000	1
318.100000	1
319.100000	1
320.150000	10
321.050000	3
322.150000	2
323.100000	1
324.100000	1
325.100000	1
326.100000	1
327.100000	1
328.100000	1
329.100000	1
330.100000	1
331.100000	1
332.150000	3
333.100000	1
334.100000	1
335.100000	1
336.100000	1
337.100000	1
338.100000	1
339.100000	1
340.100000	1
341.100000	1
343.100000	1
344.100000	1
345.100000	1
346.100000	1
347.100000	1
348.150000	62
349.100000	18
350.100000	9
351.100000	2
352.100000	1
353.100000	1
354.100000	1
355.100000	1
356.100000	1
357.100000	1
358.100000	1
359.100000	1
360.100000	1
361.100000	1
362.100000	1
363.150000	35
364.150000	13
365.150000	6
366.100000	1
367.100000	1
368.100000	1
369.100000	1
370.100000	1
371.100000	1
372.100000	1
373.100000	1
374.100000	1
375.100000	1
376.100000	1
377.100000	1
378.100000	1
379.100000	1
380.100000	1
381.100000	1
382.100000	1
383.100000	1
384.100000	1
385.100000	1
387.100000	1
388.100000	1
389.100000	1
390.100000	1
391.100000	1
392.100000	1
393.100000	1
394.100000	1
396.100000	1
397.100000	1
398.100000	1
399.100000	1
400.100000	1
401.100000	1
402.100000	1
403.100000	1
404.100000	1
405.100000	1
406.100000	1
407.100000	1
408.100000	1
409.100000	1
410.100000	1
412.100000	1
413.100000	1
414.100000	1
415.100000	1
418.100000	1
419.100000	1
420.100000	1
421.100000	1
422.100000	1
423.100000	1
424.100000	1
425.100000	1
426.100000	1
428.100000	1
429.100000	1
430.100000	1
431.100000	1
432.100000	1
434.100000	1
435.100000	1
436.100000	1
437.100000	1
438.100000	1
439.100000	1
441.100000	1
442.100000	1
443.100000	1
444.100000	1
445.100000	1
446.100000	1
447.100000	1
448.100000	1
449.100000	1
450.100000	1
451.100000	1
453.100000	1
454.100000	1
455.100000	1
456.100000	1
457.100000	1
459.100000	1
461.100000	1
462.100000	1
463.100000	1
464.100000	1
466.100000	1
467.100000	1
468.100000	1
470.100000	1
471.100000	1
472.100000	1
473.100000	1
474.100000	1
476.100000	1
477.100000	1
478.100000	1
479.100000	1
481.100000	1
482.100000	1
483.100000	1
484.100000	1
485.100000	1
486.100000	1
487.100000	1
488.100000	1
490.100000	1
491.100000	1
492.100000	1
493.100000	1
494.100000	1
496.100000	1
497.100000	1
498.100000	1
499.100000	1
