Mass spectrum: D-Xylulose; EI-B; MS; 4 TMS; RT: 682.63 s
Name: D-Xylulose
Class: Natural Product
Formula: C5H10O5
Exact mass: 150.05282
SMILES: OCC(O)(O1)[C@@H](O)[C@H](O)C1
InChI: InChI=1S/C5H10O5/c6-2-5(9)4(8)3(7)1-10-5/h3-4,6-9H,1-2H2/t3-,4+,5?/m1/s1
Instrument: GCMS-2010 Plus, Shimadzu
Instrument type: EI-B
Ms type: MS
Ion mode: POSITIVE
Column name: InertCap 5MS/NP 0.25 mmI.D. x 30 m, df=0.25 um
Retention time: 682.63
Derivative type: 4 TMS
m/z	relative intensity
86.000000	4
87.000000	11
88.000000	11
89.000000	140
90.000000	14
91.000000	7
92.000000	1
93.000000	1
94.000000	2
95.000000	2
96.000000	2
97.000000	1
98.050000	4
99.000000	5
100.000000	17
101.000000	41
102.050000	16
103.000000	369
104.000000	39
105.000000	32
106.000000	2
107.000000	1
108.000000	1
109.000000	1
110.000000	1
111.000000	2
112.000000	2
113.000000	9
114.000000	31
114.950000	18
116.050000	13
117.000000	431
118.000000	46
119.000000	28
120.000000	3
121.000000	2
122.000000	1
123.000000	1
124.000000	1
125.000000	1
126.000000	22
127.000000	4
128.000000	11
129.000000	34
130.000000	13
130.950000	40
132.050000	7
133.000000	148
134.000000	20
135.000000	10
136.000000	2
137.000000	1
138.000000	1
139.000000	1
140.000000	4
141.000000	2
142.000000	70
143.000000	18
143.950000	7
145.000000	7
146.050000	5
147.000000	999
148.000000	154
149.000000	97
150.000000	10
151.000000	3
152.000000	1
153.000000	1
154.000000	18
155.000000	3
156.000000	7
157.000000	7
158.000000	9
159.000000	17
160.000000	4
161.050000	5
162.000000	1
163.000000	42
163.950000	6
165.000000	4
166.000000	1
167.000000	1
168.000000	4
169.000000	1
170.000000	3
171.000000	1
172.000000	55
173.000000	442
174.000000	73
174.950000	26
175.950000	4
176.950000	16
177.900000	3
178.900000	2
179.900000	1
180.900000	1
181.900000	1
182.900000	1
183.950000	5
184.900000	1
185.900000	8
186.900000	3
187.900000	6
188.900000	27
189.950000	8
190.900000	22
191.900000	5
192.900000	3
193.900000	1
194.900000	1
195.900000	1
196.900000	1
197.900000	7
198.900000	1
199.950000	7
200.950000	46
201.950000	37
202.900000	16
203.950000	47
204.950000	606
205.950000	122
206.900000	71
207.900000	11
208.900000	3
209.900000	1
210.900000	1
211.900000	1
212.900000	1
213.950000	12
214.900000	3
215.900000	20
216.900000	68
217.900000	19
218.900000	11
219.900000	2
220.850000	12
221.900000	4
222.900000	2
223.900000	1
224.900000	1
225.900000	1
226.900000	1
227.950000	8
229.000000	3
229.950000	6
230.950000	14
231.900000	26
232.900000	9
233.900000	3
234.900000	1
235.900000	1
236.900000	1
237.900000	1
238.900000	1
239.900000	4
240.900000	1
241.900000	6
242.900000	2
243.950000	8
244.900000	2
245.950000	8
246.900000	3
247.900000	3
248.900000	1
249.900000	1
250.900000	1
251.900000	1
252.900000	1
253.900000	1
254.900000	1
255.950000	8
256.900000	3
257.900000	3
258.900000	1
259.900000	4
260.900000	2
261.950000	19
262.950000	431
263.950000	99
264.950000	42
265.900000	7
266.900000	1
267.900000	1
268.900000	1
269.900000	1
270.900000	1
271.900000	2
272.900000	1
273.900000	4
274.900000	2
275.900000	1
276.900000	4
277.900000	1
278.900000	1
279.900000	1
280.900000	1
281.900000	1
282.900000	1
284.900000	1
285.900000	1
286.900000	1
287.950000	24
288.950000	7
289.900000	3
290.900000	9
291.900000	2
292.900000	2
293.900000	1
294.900000	1
298.900000	1
299.900000	1
300.900000	1
301.900000	3
302.900000	1
303.900000	2
304.900000	2
305.900000	2
306.900000	5
307.900000	1
308.900000	1
309.900000	1
310.900000	1
311.900000	1
312.900000	1
313.900000	1
314.900000	1
315.900000	1
316.900000	1
317.900000	6
318.900000	3
319.900000	1
320.900000	1
321.900000	1
322.900000	1
323.900000	1
324.900000	1
325.900000	1
326.900000	1
327.900000	1
328.900000	1
329.900000	3
330.900000	3
331.950000	4
332.900000	14
333.900000	13
334.950000	9
335.900000	6
336.900000	1
337.900000	1
338.900000	1
339.900000	1
340.900000	1
341.900000	1
342.900000	1
343.900000	1
344.900000	1
345.900000	6
346.900000	2
347.900000	1
348.900000	1
349.900000	1
350.900000	1
351.900000	1
352.900000	1
353.900000	1
354.900000	1
355.900000	1
356.900000	1
357.900000	1
359.900000	1
360.900000	1
361.900000	7
362.850000	4
363.900000	45
364.900000	14
365.850000	8
366.900000	1
367.900000	1
368.900000	1
369.900000	1
371.900000	1
372.900000	1
373.900000	1
375.900000	1
376.900000	1
377.900000	1
378.900000	1
379.900000	1
380.900000	1
381.900000	1
382.900000	1
383.900000	1
384.900000	1
385.900000	1
388.900000	1
389.900000	1
390.900000	1
391.900000	1
392.900000	1
393.900000	1
394.900000	1
395.900000	1
396.900000	1
397.900000	1
398.900000	1
399.900000	1
400.900000	1
401.900000	1
403.900000	1
404.900000	1
405.900000	1
406.900000	1
407.900000	1
408.900000	1
409.900000	1
410.900000	1
412.900000	1
413.900000	1
415.900000	1
416.900000	1
417.900000	1
418.900000	1
419.900000	1
420.900000	3
421.900000	2
422.900000	1
423.900000	1
424.900000	1
427.900000	1
428.900000	1
429.900000	1
430.900000	1
432.900000	1
433.900000	1
434.900000	1
435.900000	3
436.900000	2
437.900000	1
438.900000	1
439.900000	1
441.900000	1
442.900000	1
443.900000	1
444.900000	1
445.900000	1
446.900000	1
447.900000	1
449.900000	1
450.900000	1
451.850000	10
452.800000	4
453.800000	2
454.800000	1
455.800000	1
456.800000	1
458.800000	1
459.800000	1
460.800000	1
462.800000	1
463.800000	1
464.800000	1
465.800000	1
466.850000	9
467.800000	3
468.800000	2
469.800000	1
470.800000	1
471.800000	1
472.800000	1
473.800000	1
474.800000	1
475.800000	1
476.800000	1
477.800000	1
478.800000	1
479.800000	1
480.800000	1
481.800000	1
482.800000	1
483.800000	1
484.800000	1
485.800000	1
486.800000	1
487.800000	1
488.800000	1
489.800000	1
490.800000	1
491.800000	1
493.800000	1
494.800000	1
495.800000	1
496.800000	1
497.800000	1
