Mass spectrum: D-Lyxose; EI-B; MS; 4 TMS; RT: 674.49 s
Name: D-Lyxose
Class: Natural Product
Formula: C5H10O5
Exact mass: 150.05282
SMILES: O[C@H](C1)[C@H](O)[C@H](O)C(O)O1
InChI: InChI=1S/C5H10O5/c6-2-1-10-5(9)4(8)3(2)7/h2-9H,1H2/t2-,3+,4+,5?/m1/s1
Instrument: GCMS-2010 Plus, Shimadzu
Instrument type: EI-B
Ms type: MS
Ion mode: POSITIVE
Column name: InertCap 5MS/NP 0.25 mmI.D. x 30 m, df=0.25 um
Retention time: 674.49
Derivative type: 4 TMS
m/z	relative intensity
86.000000	4
86.950000	6
88.000000	3
88.950000	46
90.000000	4
91.000000	2
92.000000	1
93.000000	1
93.950000	1
95.000000	1
96.000000	1
97.000000	1
98.000000	2
99.000000	3
100.000000	38
101.000000	18
102.050000	17
103.000000	999
104.000000	95
105.000000	58
106.000000	4
107.000000	1
108.000000	1
109.000000	1
110.000000	1
111.000000	1
112.000000	2
112.950000	5
114.000000	11
114.950000	7
116.000000	7
117.000000	67
118.000000	7
118.950000	8
120.000000	1
121.000000	1
122.000000	1
123.000000	1
124.000000	1
125.000000	1
125.950000	4
127.000000	4
128.000000	5
129.000000	60
130.000000	15
130.950000	25
132.050000	4
132.950000	67
134.000000	10
135.000000	6
136.000000	1
137.000000	1
138.000000	1
139.000000	1
140.000000	2
141.000000	2
142.000000	7
142.950000	14
143.950000	2
145.000000	10
146.050000	3
147.000000	272
148.000000	45
149.000000	31
150.000000	4
150.950000	2
152.000000	1
153.000000	1
154.000000	1
155.000000	1
155.950000	2
157.000000	7
158.000000	9
159.050000	4
160.000000	95
161.000000	23
162.000000	6
162.950000	16
163.950000	3
165.000000	1
166.000000	1
167.000000	1
168.000000	7
169.000000	2
169.950000	2
170.900000	1
171.950000	10
172.950000	7
173.950000	14
174.950000	12
175.950000	3
176.950000	4
178.000000	1
179.000000	1
180.000000	1
181.000000	1
182.000000	1
182.900000	1
183.950000	2
184.900000	1
185.950000	2
186.950000	1
187.950000	2
188.950000	154
189.900000	28
190.900000	49
191.900000	8
192.900000	4
193.900000	1
194.900000	1
195.900000	1
196.900000	1
197.900000	7
198.900000	1
199.900000	3
200.900000	29
201.900000	6
202.900000	8
203.900000	53
204.900000	65
205.900000	15
206.850000	8
207.900000	1
208.900000	1
209.900000	1
210.900000	1
211.900000	1
212.900000	1
213.900000	2
214.900000	3
215.950000	17
216.900000	713
217.900000	149
218.900000	65
219.900000	9
220.900000	9
221.900000	2
222.850000	1
223.900000	1
224.900000	1
225.900000	1
226.900000	1
227.900000	2
228.850000	2
229.900000	3
230.900000	11
231.900000	7
232.950000	56
233.900000	34
234.900000	10
235.900000	3
236.900000	1
237.900000	1
238.900000	1
239.850000	3
240.950000	1
241.900000	8
242.900000	3
243.900000	3
244.900000	1
245.900000	5
246.850000	1
247.950000	7
248.900000	2
249.900000	1
250.900000	1
252.900000	1
253.900000	1
254.900000	1
255.900000	13
256.900000	8
257.900000	4
258.900000	1
259.900000	1
260.900000	1
261.900000	22
262.900000	5
263.900000	3
264.850000	1
265.800000	1
266.800000	1
267.800000	1
268.800000	1
269.800000	1
270.800000	1
271.900000	4
272.950000	1
273.900000	8
274.900000	2
275.950000	1
276.950000	89
277.900000	24
278.900000	13
279.850000	3
280.900000	1
281.900000	1
282.900000	1
283.900000	1
284.900000	1
285.900000	1
286.900000	1
287.900000	10
288.900000	3
289.900000	2
290.900000	9
291.900000	3
292.850000	1
293.900000	1
294.900000	1
295.900000	1
296.900000	1
297.900000	1
298.900000	1
299.900000	1
300.900000	1
301.950000	3
302.850000	1
303.850000	1
304.900000	4
305.950000	5
306.950000	406
307.950000	112
308.900000	59
309.900000	11
310.850000	3
311.900000	1
312.900000	1
313.900000	1
314.900000	1
315.900000	2
316.900000	1
317.850000	2
318.900000	3
319.900000	1
320.900000	1
321.900000	1
322.900000	1
323.900000	1
325.900000	1
326.900000	1
327.900000	1
328.900000	1
329.900000	7
331.000000	6
331.900000	2
332.850000	1
333.900000	1
334.900000	1
335.900000	1
336.900000	1
337.900000	1
338.900000	1
339.900000	1
340.900000	1
343.900000	1
344.800000	1
345.800000	1
346.800000	1
347.800000	1
348.800000	1
349.800000	1
350.800000	1
351.800000	1
352.800000	1
353.800000	1
354.800000	1
355.800000	1
356.800000	1
357.800000	1
358.800000	1
359.800000	1
360.900000	1
361.900000	6
362.900000	2
363.850000	4
364.900000	1
365.900000	1
366.900000	1
367.900000	1
368.900000	1
369.900000	1
370.900000	1
371.900000	1
374.900000	1
375.900000	1
376.900000	1
377.900000	1
378.900000	1
379.900000	1
380.900000	1
381.900000	1
382.900000	1
383.900000	1
385.900000	1
386.900000	1
387.900000	1
388.900000	1
389.900000	1
390.900000	1
391.900000	1
392.900000	1
393.900000	1
394.900000	1
395.900000	1
398.900000	1
399.900000	1
402.900000	1
403.900000	1
404.900000	1
405.900000	1
406.900000	1
407.900000	1
408.900000	1
409.900000	1
410.900000	1
412.900000	1
413.900000	1
414.900000	1
415.900000	1
416.900000	1
417.900000	1
418.800000	1
419.800000	2
420.800000	2
421.900000	1
422.900000	1
423.900000	1
424.900000	1
425.900000	1
426.900000	1
427.900000	1
428.900000	1
431.900000	1
432.900000	1
433.900000	1
435.900000	2
436.900000	1
437.900000	1
438.900000	1
439.900000	1
440.900000	1
441.900000	1
442.900000	1
443.900000	1
444.900000	1
445.900000	1
447.900000	1
448.900000	1
450.900000	1
451.850000	2
452.900000	1
453.900000	1
454.900000	1
455.900000	1
456.900000	1
457.900000	1
459.900000	1
460.900000	1
462.900000	1
463.900000	1
464.900000	1
465.800000	1
466.850000	4
467.800000	2
468.800000	1
469.800000	1
470.800000	1
471.800000	1
473.800000	1
476.800000	1
477.800000	1
478.800000	1
479.800000	1
480.800000	1
482.800000	1
483.800000	1
484.800000	1
485.800000	1
487.800000	1
490.800000	1
491.800000	1
492.800000	1
493.800000	1
494.800000	1
495.800000	1
497.800000	1
498.800000	1
