Mass spectrum: Pimelic acid; EI-B; MS; 2 TMS; RT: 635.95 s
Name: Pimelic acid
Name: Heptanedioate
Class: Natural Product
Formula: C7H12O4
Exact mass: 160.07356
SMILES: OC(=O)CCCCCC(O)=O
InChI: InChI=1S/C7H12O4/c8-6(9)4-2-1-3-5-7(10)11/h1-5H2,(H,8,9)(H,10,11)
Instrument: GCMS-2010 Plus, Shimadzu
Instrument type: EI-B
Ms type: MS
Ion mode: POSITIVE
Column name: InertCap 5MS/NP 0.25 mmI.D. x 30 m, df=0.25 um
Retention time: 635.95
Derivative type: 2 TMS
m/z	relative intensity
86.050000	19
87.000000	12
88.050000	17
89.050000	20
90.000000	5
91.000000	5
92.000000	1
93.000000	2
94.000000	2
95.100000	35
96.100000	47
97.050000	325
98.100000	26
99.050000	36
100.000000	6
101.050000	31
102.000000	7
103.000000	12
104.000000	2
105.000000	8
106.000000	2
107.000000	6
108.000000	1
109.000000	1
111.000000	4
112.000000	4
113.100000	22
114.100000	4
115.000000	14
116.050000	92
117.050000	248
118.050000	29
119.050000	19
120.100000	3
121.100000	1
122.100000	2
123.100000	6
124.050000	71
125.050000	626
126.100000	49
127.100000	12
128.000000	8
129.050000	181
130.050000	33
131.050000	41
132.050000	27
133.050000	80
134.000000	9
135.000000	11
136.000000	3
137.050000	18
138.000000	2
139.000000	1
140.000000	1
141.000000	2
142.100000	16
143.050000	27
144.100000	4
145.100000	16
146.100000	5
147.050000	474
148.050000	75
149.000000	156
150.100000	19
151.100000	9
152.100000	1
153.100000	2
154.100000	3
155.100000	999
156.050000	141
157.100000	91
158.050000	28
159.100000	13
160.100000	9
161.100000	3
162.100000	4
163.100000	3
164.100000	1
165.100000	1
166.100000	1
167.100000	1
168.100000	3
169.100000	26
170.050000	26
171.050000	71
172.050000	47
173.050000	303
174.050000	44
175.050000	12
176.000000	3
177.000000	3
178.000000	1
179.000000	1
180.000000	1
181.000000	2
182.000000	1
183.000000	1
184.000000	1
185.050000	13
186.050000	113
187.050000	25
188.100000	7
189.100000	9
190.100000	2
191.100000	9
192.100000	2
193.100000	1
194.100000	1
195.100000	1
196.100000	5
197.100000	5
198.000000	1
199.000000	158
200.000000	21
201.000000	9
202.000000	1
203.000000	9
204.000000	99
205.000000	17
206.000000	8
207.000000	4
208.000000	1
209.000000	1
210.000000	1
212.000000	1
213.000000	1
214.050000	43
214.950000	20
216.000000	4
217.050000	119
218.050000	28
219.000000	13
220.000000	2
221.000000	2
222.000000	1
223.000000	1
224.000000	1
225.000000	1
226.000000	1
229.000000	9
230.000000	4
231.000000	5
232.000000	3
233.000000	1
234.000000	1
235.000000	1
236.000000	1
237.000000	1
238.000000	1
239.000000	1
240.000000	1
241.000000	1
243.000000	8
244.000000	3
245.050000	22
246.000000	5
247.000000	3
248.000000	1
249.000000	1
250.000000	1
251.000000	1
253.000000	1
254.000000	1
255.000000	1
256.000000	1
257.000000	1
258.000000	1
259.000000	1
260.000000	1
261.000000	9
262.000000	11
263.000000	3
264.000000	1
265.000000	1
266.000000	1
267.000000	1
269.000000	1
270.000000	1
271.000000	3
272.000000	1
273.000000	1
274.000000	1
275.000000	2
276.000000	1
277.000000	1
278.000000	1
279.000000	1
280.000000	1
281.000000	1
282.000000	1
283.000000	1
284.000000	1
285.000000	1
286.000000	2
287.000000	1
288.000000	1
289.050000	183
290.050000	40
291.100000	15
292.100000	3
293.100000	1
294.100000	1
295.100000	1
296.100000	1
297.100000	1
298.100000	1
299.100000	1
300.100000	1
301.100000	1
302.100000	1
303.100000	1
304.100000	2
305.100000	1
306.100000	1
307.100000	1
309.100000	1
310.100000	1
311.100000	1
313.100000	1
314.100000	1
315.100000	1
316.100000	1
317.100000	1
318.100000	1
319.100000	1
320.100000	1
321.100000	1
323.100000	1
324.100000	1
326.100000	1
327.100000	1
328.100000	1
329.100000	1
331.100000	1
333.100000	1
334.100000	1
335.100000	1
336.100000	1
337.100000	1
338.100000	1
339.100000	1
340.100000	1
341.100000	1
343.100000	1
344.100000	1
345.100000	1
346.100000	1
347.100000	1
348.100000	1
349.100000	1
350.100000	1
351.100000	1
352.100000	1
353.100000	1
355.100000	1
357.100000	1
358.100000	1
359.100000	1
360.100000	1
361.100000	1
362.100000	1
364.100000	1
365.100000	1
367.100000	1
368.100000	1
369.100000	1
370.100000	1
372.100000	1
373.100000	1
374.100000	1
376.100000	1
377.100000	1
378.100000	1
379.100000	1
380.100000	1
381.100000	1
383.100000	1
384.100000	1
386.100000	1
387.100000	1
388.100000	1
389.100000	1
391.100000	1
392.100000	1
393.100000	1
394.100000	1
395.100000	1
397.100000	1
399.100000	1
400.100000	1
402.100000	1
403.100000	1
404.100000	1
405.100000	1
406.100000	1
407.100000	1
408.100000	1
409.100000	1
410.100000	1
411.100000	1
412.100000	1
413.100000	1
415.100000	1
417.100000	1
418.100000	1
419.100000	1
420.100000	1
421.100000	1
422.100000	1
423.100000	1
424.100000	1
426.100000	1
427.100000	1
428.100000	1
429.100000	1
431.100000	1
432.100000	1
433.100000	1
434.100000	1
435.100000	1
436.100000	1
437.100000	1
438.100000	1
439.100000	1
441.100000	1
443.100000	2
444.100000	1
446.100000	1
447.100000	1
448.100000	1
449.100000	1
451.100000	1
453.100000	1
454.100000	1
455.100000	1
456.100000	1
457.100000	1
459.100000	2
460.100000	1
461.100000	1
463.100000	1
464.100000	1
465.100000	1
467.100000	1
468.100000	1
469.100000	1
470.100000	1
471.100000	1
472.100000	1
473.100000	1
474.100000	1
475.100000	1
476.100000	1
477.100000	1
478.100000	1
479.100000	1
480.100000	1
481.100000	1
483.100000	1
484.100000	1
485.100000	1
486.100000	1
487.100000	1
488.100000	1
489.100000	1
490.100000	1
492.100000	1
493.100000	1
494.100000	1
495.100000	1
496.100000	1
498.100000	1
