Mass spectrum: L-(-)-Threonine; EI-B; MS; 3 TMS; RT: 523.50 s
Name: L-(-)-Threonine
Class: Natural Product
Formula: C4H9NO3
Exact mass: 119.05824
SMILES: CC(O)C(N)C(O)=O
InChI: InChI=1S/C4H9NO3/c1-2(6)3(5)4(7)8/h2-3,6H,5H2,1H3,(H,7,8)/t2-,3+/m1/s1
Instrument: GCMS-2010 Plus, Shimadzu
Instrument type: EI-B
Ms type: MS
Ion mode: POSITIVE
Column name: InertCap 5MS/NP 0.25 mmI.D. x 30 m, df=0.25 um
Retention time: 523.50
Derivative type: 3 TMS
m/z	relative intensity
86.050000	44
87.000000	45
88.000000	7
89.000000	3
90.000000	1
91.000000	1
93.000000	1
94.000000	1
95.000000	1
96.000000	1
97.000000	3
98.050000	8
99.150000	9
100.100000	246
101.050000	527
102.100000	75
103.050000	40
104.100000	3
105.050000	4
106.000000	1
107.000000	1
108.000000	1
109.000000	1
110.000000	1
111.000000	2
112.100000	9
113.100000	5
114.100000	50
115.050000	30
116.150000	17
117.100000	854
118.100000	91
119.100000	46
120.100000	4
121.100000	1
122.100000	1
123.100000	1
124.100000	1
125.100000	1
126.100000	2
127.150000	4
128.100000	235
129.100000	244
130.100000	95
131.100000	101
132.050000	72
133.050000	88
134.050000	15
135.050000	9
136.100000	1
137.100000	1
138.100000	1
139.100000	1
140.100000	2
141.100000	1
142.050000	4
143.100000	2
144.100000	11
145.100000	4
146.150000	17
147.100000	352
148.100000	59
149.100000	34
150.100000	4
151.100000	1
152.100000	1
153.100000	1
154.100000	1
155.100000	1
156.100000	8
157.100000	4
158.100000	15
159.100000	26
160.050000	18
161.050000	7
162.100000	2
163.100000	15
164.100000	3
165.100000	2
166.100000	1
167.100000	1
169.100000	1
170.100000	1
171.100000	1
172.100000	15
173.150000	3
174.100000	19
175.050000	5
176.100000	9
177.050000	6
178.000000	2
179.000000	1
180.000000	1
181.000000	1
182.000000	1
183.000000	1
184.000000	1
185.000000	1
186.050000	18
187.050000	4
188.050000	11
189.000000	6
190.000000	6
191.000000	24
192.050000	5
193.100000	2
194.100000	1
195.100000	1
196.100000	1
197.100000	1
198.100000	1
199.100000	1
200.100000	2
201.100000	2
202.100000	112
203.050000	95
204.050000	38
205.050000	13
206.000000	5
207.000000	4
208.000000	1
209.000000	1
210.000000	1
211.000000	1
212.000000	1
213.000000	1
214.000000	2
215.000000	1
216.100000	7
217.150000	16
218.100000	990
219.050000	999
220.050000	242
221.050000	113
222.050000	16
223.100000	6
224.100000	1
225.100000	1
226.100000	1
227.100000	1
228.100000	1
229.100000	1
230.050000	34
231.050000	13
232.050000	7
233.000000	2
234.000000	1
235.000000	1
236.000000	1
237.000000	1
239.000000	1
241.000000	1
243.000000	1
244.000000	1
245.000000	1
246.000000	3
247.000000	1
248.100000	9
249.100000	2
250.100000	1
251.100000	1
252.100000	1
252.950000	4
253.900000	1
254.900000	1
256.900000	1
257.900000	1
258.900000	1
259.900000	1
260.900000	1
261.900000	1
262.900000	1
263.900000	1
264.900000	1
265.900000	1
266.900000	1
267.900000	1
268.900000	1
269.900000	1
270.900000	1
271.900000	1
272.900000	1
273.900000	1
274.900000	1
276.100000	7
277.100000	3
278.100000	1
279.100000	1
280.100000	1
281.100000	1
284.100000	1
285.100000	1
288.100000	1
289.100000	1
290.150000	4
291.100000	359
292.150000	241
293.100000	84
294.100000	28
295.150000	7
296.200000	1
297.200000	1
298.200000	1
299.200000	1
300.200000	1
301.200000	1
302.200000	1
304.200000	1
305.200000	1
306.200000	1
307.200000	1
308.200000	1
309.200000	1
311.200000	1
313.200000	1
314.200000	1
315.200000	1
316.200000	1
317.200000	1
318.200000	1
319.100000	1
320.150000	62
321.100000	16
322.100000	7
323.100000	2
324.100000	1
325.100000	1
326.100000	1
327.100000	1
328.100000	1
329.100000	1
330.100000	1
331.100000	1
332.100000	1
333.100000	1
334.100000	1
335.100000	2
336.100000	1
337.100000	1
338.100000	1
341.100000	1
342.100000	1
343.100000	1
345.100000	1
346.100000	1
347.100000	1
348.100000	1
349.100000	1
350.100000	1
352.100000	1
353.100000	1
354.100000	1
355.100000	1
356.100000	1
358.100000	1
359.100000	1
360.100000	1
361.100000	1
363.100000	1
364.100000	1
365.100000	1
367.100000	1
368.100000	1
370.100000	1
371.100000	1
372.100000	1
373.100000	1
374.100000	1
376.100000	1
377.100000	1
378.100000	1
379.100000	1
380.100000	1
381.100000	1
382.100000	1
383.100000	1
384.100000	1
385.100000	1
386.100000	1
387.100000	1
388.100000	1
389.100000	1
390.100000	1
391.100000	1
392.100000	1
393.100000	1
395.100000	1
397.100000	1
398.100000	1
399.100000	1
400.100000	1
401.100000	1
402.100000	1
403.100000	1
404.100000	1
405.100000	1
406.100000	1
407.100000	1
409.100000	1
411.100000	1
412.100000	1
413.100000	1
414.100000	1
415.100000	1
416.100000	1
417.100000	1
418.100000	1
419.100000	1
420.100000	1
421.100000	1
423.100000	1
424.100000	1
425.100000	1
427.100000	1
428.100000	1
430.100000	1
431.100000	1
432.100000	1
433.100000	1
434.100000	1
435.100000	1
437.100000	1
439.100000	1
440.100000	1
441.100000	1
442.100000	1
443.100000	1
444.100000	1
446.100000	1
447.100000	1
448.100000	1
449.100000	1
450.100000	1
451.100000	1
452.100000	1
454.100000	1
455.100000	1
458.100000	1
460.100000	1
461.100000	1
462.100000	1
463.100000	1
464.100000	1
465.100000	1
466.100000	1
467.100000	1
469.100000	1
470.100000	1
471.100000	1
472.100000	1
474.100000	1
475.100000	1
476.100000	1
477.100000	1
480.100000	1
481.100000	1
482.100000	1
483.100000	1
484.100000	1
485.100000	1
486.100000	1
487.100000	1
488.100000	1
489.100000	1
490.100000	1
491.100000	1
492.100000	1
495.100000	1
496.100000	1
497.100000	1
498.100000	1
