Mass spectrum: DL-Norvaline; EI-B; MS; 2 TMS; RT: 430.04 s
Name: DL-Norvaline
Class: Natural Product
Formula: C5H11NO2
Exact mass: 117.07898
SMILES: CC(C)C(N)C(O)=O
InChI: InChI=1S/C5H11NO2/c1-3(2)4(6)5(7)8/h3-4H,6H2,1-2H3,(H,7,8)
Instrument: GCMS-2010 Plus, Shimadzu
Instrument type: EI-B
Ms type: MS
Ion mode: POSITIVE
Column name: InertCap 5MS/NP 0.25 mmI.D. x 30 m, df=0.25 um
Retention time: 430.04
Derivative type: 2 TMS
m/z	relative intensity
86.050000	5
87.050000	2
88.100000	1
89.100000	1
90.100000	1
91.100000	1
92.100000	1
92.800000	1
93.800000	3
94.750000	2
95.800000	1
96.800000	1
97.800000	1
99.150000	2
100.050000	31
101.100000	6
102.100000	12
103.050000	13
104.100000	1
105.050000	3
106.000000	1
107.000000	1
108.000000	1
109.000000	1
110.000000	1
111.000000	1
112.000000	1
113.000000	1
114.100000	6
115.150000	9
116.050000	4
117.100000	6
118.100000	1
119.100000	2
120.100000	1
121.100000	1
122.100000	1
123.100000	1
124.100000	1
125.100000	1
126.100000	1
127.100000	1
128.100000	12
129.150000	5
130.100000	3
131.050000	9
132.050000	6
133.050000	14
134.100000	2
135.100000	1
136.100000	1
137.100000	1
138.100000	1
139.100000	1
140.100000	1
141.100000	1
142.150000	5
143.250000	7
144.150000	999
145.200000	132
146.150000	42
147.100000	96
148.100000	15
149.150000	8
150.100000	1
151.100000	1
152.100000	1
153.100000	1
154.100000	1
155.100000	1
156.100000	13
157.100000	3
158.050000	3
159.000000	1
160.000000	1
161.000000	1
162.000000	1
163.000000	1
164.000000	1
165.000000	1
166.000000	1
168.000000	1
169.000000	1
170.000000	1
171.000000	1
172.000000	1
173.000000	1
174.050000	3
175.100000	1
176.100000	1
177.100000	1
178.100000	1
179.100000	1
180.100000	1
181.100000	1
183.100000	1
184.100000	1
185.100000	1
186.100000	1
187.100000	1
188.100000	1
189.100000	1
190.100000	1
191.100000	1
192.100000	1
193.100000	1
194.100000	1
195.100000	1
196.100000	1
198.100000	1
199.100000	1
200.100000	1
201.100000	1
202.100000	2
203.100000	1
204.100000	1
205.100000	1
206.100000	1
207.100000	1
208.100000	1
209.100000	1
211.100000	1
212.100000	1
214.100000	1
215.100000	1
216.100000	1
217.100000	1
218.050000	66
219.050000	19
220.100000	7
221.100000	1
222.100000	1
223.100000	1
224.100000	1
225.100000	1
226.100000	1
227.100000	1
228.100000	1
229.100000	1
230.100000	1
231.100000	1
232.100000	1
233.100000	1
234.100000	1
235.100000	1
236.100000	1
237.100000	1
238.100000	1
239.100000	1
240.100000	1
241.100000	1
242.100000	1
243.100000	1
244.100000	1
245.100000	1
246.100000	12
247.100000	3
248.100000	1
249.100000	1
250.100000	1
251.100000	1
252.100000	1
253.100000	2
254.100000	1
255.100000	1
256.100000	1
257.100000	1
258.100000	1
259.100000	1
260.100000	1
261.100000	1
262.100000	1
263.100000	1
264.100000	1
265.100000	1
266.100000	1
268.100000	1
269.100000	1
270.100000	1
271.100000	1
272.100000	1
273.100000	1
274.100000	1
275.100000	1
276.100000	1
277.100000	1
278.100000	1
279.100000	1
280.100000	1
281.100000	1
282.100000	1
283.100000	1
284.100000	1
286.100000	1
287.100000	1
288.100000	1
290.100000	1
291.100000	1
292.100000	1
294.100000	1
295.100000	1
296.100000	1
298.100000	1
299.100000	1
301.100000	1
302.100000	1
303.100000	1
304.100000	1
305.100000	1
307.100000	1
308.100000	1
309.100000	1
311.100000	1
312.100000	1
313.100000	1
315.100000	1
317.100000	1
318.100000	1
319.100000	1
320.100000	1
322.100000	1
323.100000	1
325.100000	1
326.100000	1
327.100000	1
328.100000	1
329.100000	1
330.100000	1
331.100000	1
332.100000	1
333.100000	1
334.100000	1
337.100000	1
338.100000	1
339.100000	1
340.100000	1
341.100000	1
342.100000	1
343.100000	1
344.100000	1
346.100000	1
347.100000	1
348.100000	1
349.100000	1
350.100000	1
352.100000	1
354.100000	1
357.100000	1
360.100000	1
361.100000	1
365.100000	1
366.100000	1
367.100000	1
368.100000	1
370.100000	1
371.100000	1
372.100000	1
373.100000	1
374.100000	1
375.100000	1
377.100000	1
378.100000	1
379.100000	1
380.100000	1
381.100000	1
383.100000	1
384.100000	1
386.100000	1
387.100000	1
388.100000	1
389.100000	1
390.100000	1
391.100000	1
392.100000	1
393.100000	1
394.100000	1
395.100000	1
396.100000	1
397.100000	1
398.100000	1
399.100000	1
402.100000	1
403.100000	1
404.100000	1
405.100000	1
406.100000	1
407.100000	1
408.100000	1
409.100000	1
411.100000	1
412.100000	1
413.100000	1
414.100000	1
417.100000	1
418.100000	1
422.100000	1
424.100000	1
425.100000	1
427.100000	1
428.100000	1
430.100000	1
431.100000	1
432.100000	1
433.100000	1
434.100000	1
435.100000	1
436.100000	1
438.100000	1
439.100000	1
440.100000	1
443.100000	1
446.100000	1
447.100000	1
449.100000	1
450.100000	1
451.100000	1
452.100000	1
453.100000	1
457.100000	1
458.100000	1
459.100000	1
462.100000	1
464.100000	1
465.100000	1
467.100000	1
468.100000	1
469.100000	1
470.100000	1
471.100000	1
472.100000	1
473.100000	1
474.100000	1
475.100000	1
476.100000	1
477.100000	1
478.100000	1
479.100000	1
480.100000	1
481.100000	1
482.100000	1
483.100000	1
485.100000	1
486.100000	1
487.100000	1
488.100000	1
489.100000	1
491.100000	1
492.100000	1
493.100000	1
494.100000	1
495.100000	1
496.100000	1
497.100000	1
498.100000	1
499.100000	1
