Mass spectrum: HydroxyButyric acid; EI-B; MS; 2 TMS; RT: 374.70 s
Name: HydroxyButyric acid
Name: HydroxyButyrate
Name: 3-HydroxyButyrate
Name: 3-HydroxyButyric acid
Class: Natural Product
Formula: C4H8O3
Exact mass: 104.04734
SMILES: C[C@H](CC(=O)O)O
InChI: InChI=1S/C4H8O3/c1-3(5)2-4(6)7/h3,5H,2H2,1H3,(H,6,7)/t3-/m1/s1
Instrument: GCMS-2010 Plus, Shimadzu
Instrument type: EI-B
Ms type: MS
Ion mode: POSITIVE
Column name: InertCap 5MS/NP 0.25 mmI.D. x 30 m, df=0.25 um
Retention time: 374.70
Derivative type: 2 TMS
m/z	relative intensity
86.000000	2
87.050000	9
88.050000	154
89.050000	19
90.100000	1
91.100000	2
92.100000	1
93.100000	1
94.100000	1
95.100000	1
96.100000	1
97.100000	1
98.100000	1
99.100000	12
100.100000	2
101.050000	33
102.000000	5
103.000000	9
104.000000	1
105.050000	8
106.100000	1
107.100000	1
108.100000	1
109.050000	8
110.100000	1
111.100000	1
112.100000	1
113.100000	2
114.100000	1
115.050000	55
116.100000	11
117.100000	536
118.100000	54
119.100000	25
120.100000	2
121.100000	1
122.100000	1
123.100000	1
125.100000	1
126.100000	1
127.100000	1
128.100000	1
129.050000	3
130.100000	91
131.050000	46
132.000000	9
133.050000	67
134.050000	9
135.000000	6
136.000000	1
137.000000	1
138.000000	1
139.000000	1
140.000000	1
141.000000	1
142.100000	2
143.050000	18
144.100000	2
145.100000	1
146.100000	2
147.100000	999
148.100000	151
149.100000	88
150.100000	9
151.100000	3
152.100000	1
154.100000	1
155.100000	1
156.100000	1
157.100000	2
158.100000	3
159.100000	1
160.100000	1
161.100000	1
162.100000	1
163.100000	3
164.100000	1
165.100000	1
166.100000	1
167.100000	1
168.100000	1
169.100000	1
173.100000	1
174.100000	1
175.100000	2
176.100000	1
177.100000	1
178.100000	1
179.100000	1
180.100000	1
181.100000	1
182.100000	1
183.100000	1
184.100000	1
185.100000	1
187.100000	1
188.000000	1
189.050000	37
190.050000	7
191.050000	326
192.050000	62
193.050000	27
194.000000	3
195.000000	1
196.000000	1
197.000000	1
198.000000	1
199.000000	1
201.000000	1
202.000000	1
203.100000	1
204.050000	26
205.100000	5
206.100000	3
207.100000	1
208.100000	1
209.100000	1
210.100000	1
211.100000	1
212.100000	1
213.100000	1
214.100000	1
215.100000	1
216.100000	1
217.050000	8
218.000000	2
219.000000	2
220.000000	1
221.000000	1
222.000000	1
223.000000	1
224.000000	1
226.000000	1
228.000000	1
229.000000	1
230.000000	1
231.000000	2
232.000000	1
233.050000	118
234.050000	24
235.050000	11
236.100000	2
237.100000	1
239.100000	1
240.100000	1
242.100000	1
243.100000	1
244.100000	1
247.100000	2
248.100000	1
249.100000	1
250.100000	1
251.100000	1
252.100000	1
253.100000	1
254.100000	1
255.100000	1
256.100000	1
258.100000	1
259.100000	1
260.100000	1
261.100000	1
263.100000	1
264.100000	1
265.100000	1
267.100000	1
268.100000	1
269.100000	1
270.100000	1
272.100000	1
273.100000	1
274.100000	1
275.100000	1
277.100000	1
278.100000	1
280.100000	1
283.100000	1
284.100000	1
285.100000	1
288.100000	1
291.100000	1
292.100000	1
294.100000	1
296.100000	1
298.100000	1
299.100000	1
300.100000	1
301.100000	1
302.100000	1
303.100000	1
304.100000	1
305.100000	1
306.100000	1
308.100000	1
309.100000	1
311.100000	1
312.100000	1
313.100000	1
315.100000	1
316.100000	1
317.100000	1
318.100000	1
321.100000	1
322.100000	1
324.100000	1
325.100000	1
327.100000	1
328.100000	1
330.100000	1
331.100000	1
332.100000	1
333.100000	1
334.100000	1
336.100000	1
337.100000	1
338.100000	1
339.100000	1
340.100000	1
341.100000	1
343.100000	1
344.100000	1
345.100000	1
346.100000	1
347.100000	1
348.100000	1
349.100000	1
353.100000	1
354.100000	1
355.100000	1
357.100000	1
358.100000	1
359.100000	1
361.100000	1
362.100000	1
364.100000	1
366.100000	1
367.100000	1
368.100000	1
369.100000	1
371.100000	1
372.100000	1
373.100000	1
374.100000	1
375.100000	1
376.100000	1
377.100000	1
379.100000	1
382.100000	1
383.100000	1
384.100000	1
386.100000	1
387.100000	1
388.100000	1
389.100000	1
390.100000	1
391.100000	1
393.100000	1
394.100000	1
395.100000	1
396.100000	1
397.100000	1
398.100000	1
399.100000	1
400.100000	1
402.100000	1
404.100000	1
405.100000	1
406.100000	1
407.100000	1
408.100000	1
409.100000	1
410.100000	1
411.100000	1
412.100000	1
414.100000	1
415.100000	1
416.100000	1
417.100000	1
419.100000	1
420.100000	1
422.100000	1
423.100000	1
425.100000	1
426.100000	1
428.100000	1
429.100000	1
430.100000	1
431.100000	1
433.100000	1
434.100000	1
435.100000	1
436.100000	1
437.100000	1
438.100000	1
439.100000	1
440.100000	1
441.100000	1
443.100000	1
444.100000	1
445.100000	1
447.100000	1
448.100000	1
449.100000	1
450.100000	1
451.100000	1
452.100000	1
453.100000	1
454.100000	1
455.100000	1
458.100000	1
459.100000	1
460.100000	1
462.100000	1
463.100000	1
464.100000	1
465.100000	1
466.100000	1
467.100000	1
468.100000	1
469.100000	1
470.100000	1
472.100000	1
473.100000	1
475.100000	1
476.100000	1
477.100000	1
478.100000	1
480.100000	1
481.100000	1
482.100000	1
486.100000	1
487.100000	1
488.100000	1
490.100000	1
491.100000	1
492.100000	1
494.100000	1
495.100000	1
496.100000	1
497.100000	1
498.100000	1
499.100000	1
