Mass spectrum: Ketovaline; EI-B; MS; Scan 1295; RT: 339.23 s
Name: Ketovaline
Class: Natural Product
Formula: C5H8O3
Exact mass: 116.04734
SMILES: CC(C)C(=O)C(O)=O
InChI: InChI=1S/C5H8O3/c1-3(2)4(6)5(7)8/h3H,1-2H3,(H,7,8)
Instrument: GCMS-2010 Plus, Shimadzu
Instrument type: EI-B
Ms type: MS
Ion mode: POSITIVE
Column name: InertCap 5MS/NP 0.25 mmI.D. x 30 m, df=0.25 um
Retention time: 339.23
Derivative type: n TMS
m/z	relative intensity
85.800000	30
87.050000	4
88.050000	8
89.050000	999
90.050000	85
91.050000	40
92.000000	2
93.000000	2
94.000000	1
95.000000	1
96.050000	35
97.050000	5
98.050000	6
99.100000	52
100.100000	232
101.100000	22
102.050000	5
103.050000	12
104.100000	2
105.100000	76
106.100000	9
107.100000	3
108.100000	1
110.100000	1
111.000000	1
112.050000	7
113.000000	3
114.050000	4
115.100000	2
116.100000	49
117.100000	56
118.100000	8
119.050000	5
120.000000	1
121.000000	1
122.000000	1
123.000000	1
124.000000	1
125.000000	1
126.100000	15
127.050000	86
128.050000	29
129.050000	5
130.000000	6
131.100000	6
132.100000	2
133.050000	4
134.100000	1
135.100000	1
136.100000	1
137.100000	1
139.100000	1
140.100000	14
141.100000	32
142.150000	30
143.100000	11
144.100000	5
145.100000	1
146.100000	8
147.100000	3
148.100000	1
149.100000	2
150.100000	1
151.100000	1
152.100000	1
153.100000	1
154.100000	1
155.100000	1
156.100000	8
157.100000	3
158.100000	3
159.100000	1
160.100000	1
161.100000	1
163.100000	1
164.100000	1
165.100000	1
167.100000	1
168.100000	1
169.100000	1
170.050000	6
171.000000	2
172.000000	3
173.000000	1
174.050000	16
175.000000	2
176.000000	1
177.000000	1
179.000000	1
180.000000	1
181.000000	1
182.000000	1
183.000000	1
184.000000	1
185.100000	2
186.050000	203
187.050000	29
188.050000	10
189.100000	2
190.100000	1
191.100000	1
192.100000	1
193.100000	1
194.100000	1
195.100000	1
196.100000	1
197.100000	1
198.100000	1
199.100000	1
200.100000	1
201.100000	1
202.050000	54
203.100000	9
204.100000	3
205.100000	1
206.100000	1
207.100000	1
208.100000	1
209.100000	1
210.100000	1
211.100000	1
212.100000	1
213.100000	1
214.100000	1
215.100000	1
216.000000	1
217.050000	22
218.100000	6
219.100000	3
220.100000	2
221.100000	1
222.100000	1
223.100000	1
224.100000	1
225.100000	1
226.100000	1
227.100000	1
228.100000	1
229.100000	1
230.100000	1
231.100000	1
232.100000	1
235.100000	1
236.100000	1
238.100000	1
239.100000	1
240.100000	1
241.100000	1
242.100000	1
243.100000	1
244.100000	1
245.100000	1
246.100000	1
247.100000	1
248.100000	1
249.100000	1
250.100000	1
251.100000	1
252.100000	1
253.100000	2
254.100000	1
255.100000	1
256.100000	1
257.100000	1
258.100000	1
259.100000	1
260.100000	1
261.100000	1
262.100000	1
264.100000	1
265.100000	3
266.100000	1
267.100000	1
268.100000	1
269.100000	1
270.100000	1
271.100000	1
272.100000	1
273.100000	1
275.100000	1
276.100000	1
280.100000	1
281.100000	1
282.100000	1
283.100000	1
284.100000	1
287.100000	1
288.100000	1
289.100000	1
290.100000	1
291.100000	1
292.100000	1
293.100000	1
294.100000	1
295.100000	1
296.100000	1
297.100000	1
298.100000	1
301.100000	1
302.100000	1
303.100000	1
304.100000	1
305.100000	1
306.100000	1
307.100000	1
308.100000	1
309.100000	1
310.100000	1
311.100000	1
312.100000	1
313.100000	1
314.100000	1
315.100000	1
316.100000	1
317.100000	1
318.100000	1
319.100000	1
320.100000	1
321.100000	1
322.100000	1
323.100000	1
324.100000	1
325.100000	1
326.100000	1
327.100000	1
328.100000	1
329.100000	1
331.100000	1
332.100000	1
333.100000	1
335.100000	1
336.100000	1
337.100000	1
338.100000	1
339.100000	1
340.100000	1
341.100000	1
343.100000	1
344.100000	1
345.100000	1
346.100000	1
347.100000	1
351.100000	1
352.100000	1
353.100000	1
354.100000	1
355.100000	1
357.100000	1
359.100000	1
360.100000	1
361.100000	1
362.100000	1
363.100000	1
364.100000	1
366.100000	1
368.100000	1
371.100000	1
372.100000	1
373.100000	1
374.100000	1
375.100000	1
376.100000	1
377.100000	1
378.100000	1
380.100000	1
381.100000	1
382.100000	1
383.100000	1
384.100000	1
386.100000	1
387.100000	1
388.100000	1
389.100000	1
390.100000	1
391.100000	1
392.100000	1
393.100000	1
394.100000	1
395.100000	1
397.100000	1
398.100000	1
399.100000	1
400.100000	1
402.100000	1
403.100000	1
404.100000	1
405.100000	1
406.100000	1
408.100000	1
409.100000	1
410.100000	1
411.100000	1
414.100000	1
415.100000	1
416.100000	1
418.100000	1
419.100000	1
420.100000	1
421.100000	1
422.100000	1
423.100000	1
424.100000	1
426.100000	1
428.100000	1
429.100000	1
430.100000	1
432.100000	1
433.100000	1
435.100000	1
436.100000	1
437.100000	1
438.100000	1
439.100000	1
443.100000	1
444.100000	1
445.100000	1
446.100000	1
448.100000	1
449.100000	1
450.100000	1
451.100000	1
452.100000	1
454.100000	1
456.100000	1
457.100000	1
458.100000	1
459.100000	1
460.100000	1
461.100000	1
462.100000	1
463.100000	1
464.100000	1
466.100000	1
467.100000	1
468.100000	1
469.100000	1
470.100000	1
474.100000	1
476.100000	1
477.100000	1
478.100000	1
479.100000	1
480.100000	1
481.100000	1
482.100000	1
483.100000	1
484.100000	1
485.100000	1
486.100000	1
487.100000	1
488.100000	1
489.100000	1
490.100000	1
493.100000	1
494.100000	1
497.100000	1
498.100000	1
499.100000	1
