Mass spectrum: 2-Hydroxyphenylacetic acid; EI-B; MS; 2 TMS; RT: 622.62 s
Name: 2-Hydroxyphenylacetic acid
Class: Natural Product
Formula: C8H8O3
Exact mass: 152.04734
SMILES: OC(=O)Cc(c1)c(O)ccc1
InChI: InChI=1S/C8H8O3/c9-7-4-2-1-3-6(7)5-8(10)11/h1-4,9H,5H2,(H,10,11)
Instrument: GCMS-2010 Plus, Shimadzu
Instrument type: EI-B
Ms type: MS
Ion mode: POSITIVE
Column name: InertCap 5MS/NP 0.25 mmI.D. x 30 m, df=0.25 um
Retention time: 622.62
Derivative type: 2 TMS
m/z	relative intensity
86.000000	1
87.050000	4
88.050000	2
89.050000	25
90.050000	16
91.050000	44
92.000000	4
93.000000	4
94.000000	1
95.100000	4
96.050000	2
97.050000	2
98.000000	1
99.000000	1
100.000000	1
101.050000	3
102.050000	5
103.050000	23
104.100000	11
105.100000	67
106.050000	21
107.100000	5
108.100000	1
109.050000	3
110.000000	1
111.050000	5
112.050000	2
113.100000	1
114.000000	1
115.050000	10
116.100000	4
117.050000	26
118.100000	8
119.050000	50
120.050000	7
121.000000	16
122.000000	3
123.050000	5
124.000000	1
125.000000	1
126.000000	1
127.000000	1
128.000000	1
129.000000	2
130.100000	1
131.050000	31
132.150000	5
133.050000	97
134.050000	57
135.050000	62
136.050000	9
137.050000	11
138.100000	1
139.100000	1
140.100000	1
141.100000	1
142.100000	1
143.100000	2
144.100000	1
145.100000	5
146.150000	4
147.100000	999
148.100000	163
149.100000	401
150.100000	52
151.100000	33
152.100000	4
153.100000	1
154.100000	1
155.100000	1
156.100000	2
157.100000	1
158.100000	1
159.100000	2
160.100000	1
161.050000	34
162.100000	7
163.100000	66
164.100000	351
165.050000	60
166.050000	16
167.050000	3
168.100000	1
169.100000	1
170.100000	1
171.100000	1
172.100000	1
173.100000	1
174.100000	1
175.100000	2
176.150000	2
177.050000	44
178.100000	9
179.050000	62
180.050000	10
181.000000	8
182.000000	1
183.000000	1
184.000000	1
186.000000	1
187.000000	1
188.000000	1
189.000000	1
190.000000	1
191.000000	1
192.000000	1
193.000000	5
194.000000	1
195.000000	11
196.000000	2
197.000000	1
198.000000	1
199.000000	1
200.000000	1
201.000000	1
203.000000	1
204.000000	1
205.000000	1
206.050000	20
207.050000	12
208.050000	5
209.000000	85
210.000000	18
211.000000	8
212.000000	1
213.000000	1
214.000000	1
215.000000	1
216.000000	1
217.000000	1
218.000000	1
219.000000	3
220.000000	1
221.050000	5
222.050000	2
223.000000	7
224.050000	2
225.050000	44
226.000000	9
227.100000	3
228.100000	1
229.100000	1
230.100000	1
231.100000	1
232.100000	1
233.100000	2
234.000000	1
235.050000	25
236.150000	6
237.050000	140
238.050000	32
239.050000	14
240.100000	2
241.100000	1
242.100000	1
243.100000	1
244.100000	1
245.100000	1
246.100000	1
247.100000	1
248.100000	1
249.100000	1
250.100000	1
251.100000	2
252.150000	13
253.100000	597
254.050000	134
255.100000	53
256.050000	8
257.100000	2
258.100000	1
259.100000	1
260.100000	1
261.100000	1
263.100000	1
264.100000	1
265.100000	1
266.100000	1
267.200000	3
268.200000	1
269.200000	1
270.200000	1
271.200000	1
272.200000	1
273.200000	1
274.200000	1
276.200000	1
277.200000	1
279.200000	1
280.150000	4
281.050000	274
282.050000	68
283.050000	26
284.000000	4
285.000000	1
286.000000	1
287.000000	1
288.000000	1
289.000000	1
290.000000	1
291.000000	1
292.000000	1
293.000000	1
294.000000	1
295.150000	3
296.100000	348
297.100000	92
298.100000	35
299.050000	6
300.100000	1
301.100000	1
302.100000	1
303.100000	1
304.100000	1
306.100000	1
307.100000	1
308.100000	1
309.100000	1
310.100000	1
311.100000	1
312.100000	1
313.100000	1
314.100000	1
315.100000	1
316.100000	1
318.100000	1
319.100000	1
320.100000	1
321.100000	1
322.100000	1
323.100000	1
324.100000	1
325.100000	1
326.100000	1
327.100000	1
328.100000	1
329.100000	1
330.100000	1
331.100000	1
332.100000	1
333.100000	1
335.100000	1
336.100000	1
337.100000	1
338.100000	1
339.100000	1
341.100000	1
342.100000	1
343.100000	1
344.100000	1
346.100000	1
347.100000	1
348.100000	1
351.100000	1
352.100000	1
353.100000	1
354.100000	1
355.100000	1
356.100000	1
357.100000	1
358.100000	1
359.100000	1
360.100000	1
361.100000	1
362.100000	1
364.100000	1
365.100000	1
366.100000	1
367.100000	1
368.100000	1
369.100000	1
370.100000	1
371.100000	1
373.100000	1
374.100000	1
376.100000	1
377.100000	1
378.100000	1
379.100000	1
380.100000	1
381.100000	1
382.100000	1
383.100000	1
385.100000	1
386.100000	1
387.100000	1
388.100000	1
389.100000	1
390.100000	1
391.100000	1
392.100000	1
393.100000	1
394.100000	1
395.100000	1
396.100000	1
397.100000	1
398.100000	1
399.100000	1
400.100000	1
401.100000	1
402.100000	1
403.100000	1
404.100000	1
405.100000	1
406.100000	1
407.100000	1
408.100000	1
409.100000	1
410.100000	1
411.100000	1
412.100000	1
413.100000	1
414.100000	1
415.100000	1
416.100000	1
417.100000	1
418.100000	1
419.100000	1
420.100000	1
421.100000	1
422.100000	1
423.100000	1
424.100000	1
425.100000	1
427.100000	1
428.100000	1
429.100000	1
430.100000	1
431.100000	1
432.100000	1
433.100000	1
435.100000	1
436.100000	1
437.100000	1
439.100000	1
440.100000	1
441.100000	1
442.100000	1
443.100000	1
444.100000	1
445.100000	1
446.100000	1
450.100000	1
451.100000	1
452.100000	1
453.100000	1
454.100000	1
455.100000	1
456.100000	1
458.100000	1
459.100000	1
460.100000	1
461.100000	1
462.100000	1
463.100000	1
464.100000	1
466.100000	1
467.100000	1
470.100000	1
471.100000	1
472.100000	1
473.100000	1
474.100000	1
475.100000	1
477.100000	1
478.100000	1
479.100000	1
481.100000	1
482.100000	1
484.100000	1
485.100000	1
486.100000	1
487.100000	1
489.100000	1
490.100000	1
491.100000	1
492.100000	1
494.100000	1
495.100000	1
496.100000	1
497.100000	1
499.100000	1
