Mass spectrum: N-alpha-Acetyl-L-Ornithine; EI-B; MS; n TMS; RT: 824.20 s
Name: N-alpha-Acetyl-L-Ornithine
Name: N-a-Acetyl-L-Ornithine
Class: Natural Product
Formula: C7H14N2O3
Exact mass: 174.10044
SMILES: NCCC[C@H](NC(C)=O)C(O)=O
InChI: InChI=1S/C7H14N2O3/c1-5(10)9-6(7(11)12)3-2-4-8/h6H,2-4,8H2,1H3,(H,9,10)(H,11,12)/t6-/m0/s1
Instrument: GCMS-2010 Plus, Shimadzu
Instrument type: EI-B
Ms type: MS
Ion mode: POSITIVE
Column name: InertCap 5MS/NP 0.25 mmI.D. x 30 m, df=0.25 um
Retention time: 824.20
Derivative type: n TMS
m/z	relative intensity
86.050000	123
87.050000	16
88.050000	6
89.050000	2
90.100000	1
91.100000	1
92.100000	1
93.100000	1
94.100000	21
95.100000	2
96.100000	8
97.050000	2
98.100000	11
99.050000	6
100.100000	74
101.100000	10
102.100000	18
103.100000	11
104.100000	2
105.050000	3
106.100000	1
107.100000	1
108.100000	1
109.100000	1
110.100000	2
111.100000	5
112.100000	14
113.100000	4
114.100000	11
115.100000	8
116.100000	20
117.100000	10
118.100000	3
119.100000	2
120.100000	1
121.150000	1
122.100000	1
123.100000	1
124.050000	1
125.200000	1
126.150000	4
127.100000	1
128.150000	22
129.150000	8
130.100000	31
131.100000	17
132.100000	9
133.100000	15
134.100000	3
135.100000	2
136.100000	1
137.100000	1
138.150000	1
139.150000	6
140.150000	4
141.250000	3
142.150000	82
143.200000	15
144.150000	10
145.150000	2
146.150000	16
147.150000	50
148.150000	10
149.150000	9
150.100000	1
151.150000	1
152.150000	6
153.200000	1
154.150000	4
155.150000	2
156.150000	5
157.250000	2
158.150000	8
159.200000	3
160.200000	3
161.200000	3
162.200000	1
163.200000	1
164.200000	1
166.200000	1
167.200000	1
168.150000	6
169.250000	2
170.150000	19
171.150000	9
172.150000	22
173.250000	12
174.200000	999
175.200000	174
176.150000	76
177.150000	9
178.150000	2
179.100000	1
180.100000	1
181.100000	1
182.100000	1
183.150000	1
184.150000	11
185.150000	3
186.150000	41
187.100000	8
188.100000	6
189.150000	2
190.150000	3
191.150000	1
192.100000	1
193.100000	1
194.100000	1
195.100000	1
196.100000	1
197.100000	1
198.050000	1
199.100000	2
200.150000	15
201.150000	3
202.100000	4
203.100000	2
204.100000	1
205.100000	1
206.100000	1
207.100000	1
208.100000	1
209.100000	1
210.200000	1
211.150000	10
212.150000	3
213.150000	2
214.100000	44
215.100000	8
216.150000	12
217.150000	3
218.150000	1
219.200000	1
220.100000	1
221.100000	2
222.100000	1
223.100000	1
224.100000	1
225.100000	1
226.150000	1
227.150000	3
228.150000	19
229.150000	4
230.150000	3
231.200000	1
232.200000	1
233.200000	1
234.200000	1
236.200000	1
238.200000	1
239.200000	1
240.200000	1
241.200000	1
242.200000	2
243.150000	2
244.200000	8
245.150000	2
246.200000	2
247.200000	1
248.150000	1
249.200000	1
250.200000	1
251.200000	1
252.200000	1
253.200000	1
254.200000	1
255.200000	1
256.200000	1
257.200000	1
258.200000	6
259.250000	1
260.250000	3
261.200000	33
262.150000	7
263.150000	3
264.200000	1
265.200000	1
266.200000	1
267.200000	1
268.200000	1
269.200000	1
270.200000	1
271.200000	1
272.200000	1
273.200000	1
274.150000	1
275.200000	1
276.200000	1
277.200000	1
278.200000	2
279.200000	1
280.200000	1
281.200000	1
282.200000	1
283.250000	1
284.200000	1
285.200000	7
286.200000	8
287.150000	2
288.250000	1
289.250000	15
290.200000	4
291.200000	1
292.200000	1
293.200000	1
294.200000	1
295.200000	1
296.200000	1
297.200000	1
298.200000	1
299.200000	1
300.250000	1
301.250000	4
302.300000	2
303.300000	1
304.300000	1
305.300000	1
306.300000	1
307.300000	1
308.300000	1
309.300000	1
310.300000	1
311.300000	1
312.300000	1
313.300000	1
314.300000	1
315.300000	1
316.350000	1
317.250000	72
318.200000	19
319.200000	7
320.200000	1
321.200000	1
322.200000	1
323.200000	1
324.200000	1
325.200000	1
326.200000	1
327.200000	1
329.200000	1
330.200000	1
331.200000	1
332.200000	1
333.200000	1
334.200000	1
335.200000	1
336.200000	1
337.200000	1
338.200000	1
339.200000	1
341.200000	1
342.200000	1
343.200000	1
344.200000	1
345.200000	1
346.200000	1
347.200000	1
348.200000	1
351.200000	1
352.200000	1
353.200000	1
355.200000	1
356.200000	1
357.200000	1
358.200000	1
359.200000	1
360.200000	1
361.200000	1
363.200000	1
364.200000	1
365.200000	1
366.200000	1
369.200000	1
370.200000	1
371.200000	1
372.200000	1
373.200000	1
374.350000	1
375.250000	50
376.250000	16
377.250000	7
378.200000	2
379.200000	1
380.200000	1
381.200000	1
383.200000	1
384.200000	1
386.200000	1
387.200000	1
388.200000	1
389.300000	1
390.250000	12
391.300000	4
392.200000	2
393.200000	1
394.200000	1
395.200000	1
396.200000	1
400.200000	1
401.200000	1
402.200000	1
403.200000	1
405.200000	1
406.200000	1
407.200000	1
408.200000	1
409.200000	1
411.200000	1
412.200000	1
413.200000	1
414.200000	1
415.200000	1
417.200000	1
419.200000	1
420.200000	1
423.200000	1
425.200000	1
426.200000	1
428.200000	1
429.200000	1
430.200000	1
431.200000	1
432.200000	1
433.200000	1
434.200000	1
435.200000	1
436.200000	1
437.200000	1
438.200000	1
439.200000	1
440.200000	1
441.200000	1
442.200000	1
444.200000	1
445.200000	1
446.200000	1
447.200000	1
448.200000	1
449.200000	1
450.200000	1
451.200000	1
452.200000	1
454.200000	1
455.200000	1
456.200000	1
458.200000	1
459.200000	1
460.200000	1
461.200000	1
462.200000	1
463.200000	1
464.200000	1
465.200000	1
466.200000	1
467.200000	1
468.200000	1
469.200000	1
470.200000	1
471.200000	1
472.200000	1
473.200000	1
474.200000	1
475.200000	1
476.200000	1
477.200000	1
478.200000	1
479.200000	1
481.200000	1
482.200000	1
483.200000	1
484.200000	1
485.200000	1
486.200000	1
487.200000	1
488.200000	1
491.200000	1
492.200000	1
493.200000	1
494.200000	1
495.200000	1
496.200000	1
497.200000	1
498.200000	1
