Mass spectrum: p-Hydroxybenzaldehyde; EI-B; MS; n TMS; RT: 580.09 s
Name: p-Hydroxybenzaldehyde
Class: Natural Product
Formula: C7H6O2
Exact mass: 122.03678
SMILES: O=Cc(c1)ccc(O)c1
InChI: InChI=1S/C7H6O2/c8-5-6-1-3-7(9)4-2-6/h1-5,9H
Instrument: GCMS-2010 Plus, Shimadzu
Instrument type: EI-B
Ms type: MS
Ion mode: POSITIVE
Column name: InertCap 5MS/NP 0.25 mmI.D. x 30 m, df=0.25 um
Retention time: 580.09
Derivative type: n TMS
m/z	relative intensity
86.100000	4
86.800000	2
87.850000	23
88.800000	112
90.050000	29
91.050000	137
92.050000	17
93.050000	13
94.050000	4
95.050000	17
96.100000	7
97.050000	4
98.000000	2
99.000000	4
100.000000	2
101.100000	2
102.050000	39
103.100000	13
104.100000	60
105.000000	23
106.100000	6
107.100000	11
108.050000	4
109.050000	10
110.000000	2
111.000000	2
112.000000	1
113.000000	1
114.000000	2
115.150000	3
116.100000	25
117.100000	10
118.100000	5
119.050000	10
120.050000	38
121.050000	41
122.100000	8
123.050000	9
124.100000	2
125.100000	1
126.100000	1
127.100000	1
128.100000	1
129.100000	1
130.050000	3
131.100000	6
132.050000	3
133.050000	10
134.100000	8
135.100000	137
136.100000	23
137.100000	11
138.100000	2
139.100000	2
140.100000	1
141.100000	1
142.100000	1
143.100000	1
144.100000	1
145.050000	3
146.100000	19
147.100000	15
148.100000	16
149.100000	74
150.100000	122
151.150000	41
152.150000	8
153.100000	2
154.100000	1
155.100000	1
156.100000	1
157.100000	1
158.100000	2
159.150000	2
160.100000	31
161.100000	9
162.100000	16
163.100000	14
164.100000	6
165.100000	35
166.100000	15
167.050000	5
168.100000	1
169.100000	1
170.100000	1
172.100000	1
173.000000	1
174.050000	6
175.150000	4
176.050000	678
177.050000	454
178.100000	96
179.050000	20
180.100000	3
181.100000	17
182.100000	2
183.100000	1
184.100000	1
185.100000	1
186.100000	1
188.100000	1
189.100000	1
190.100000	11
191.050000	97
192.050000	122
193.050000	39
194.050000	9
195.050000	2
196.000000	1
197.000000	1
198.000000	1
199.000000	1
200.000000	1
201.000000	1
202.000000	1
204.000000	1
205.000000	1
206.000000	1
207.150000	6
208.100000	591
209.100000	96
210.050000	26
211.100000	3
212.100000	1
213.100000	1
214.100000	1
215.100000	1
216.100000	1
217.100000	1
218.100000	1
219.100000	1
220.100000	1
221.100000	1
222.150000	7
223.100000	999
224.100000	182
225.050000	57
226.100000	6
227.100000	1
228.100000	1
229.100000	1
230.100000	1
233.100000	1
234.100000	1
235.100000	1
236.100000	1
237.100000	1
238.100000	1
239.100000	1
240.100000	1
241.100000	1
242.100000	1
243.100000	1
244.100000	1
245.100000	1
247.100000	1
248.100000	1
249.100000	1
250.100000	1
251.100000	1
252.100000	1
253.100000	1
254.100000	1
255.100000	1
256.100000	1
257.100000	1
258.100000	1
259.100000	1
260.100000	1
262.100000	1
263.100000	1
264.100000	1
265.100000	1
266.100000	1
267.100000	1
268.100000	1
269.100000	1
270.100000	1
272.100000	1
273.100000	1
275.100000	1
276.100000	1
278.100000	1
279.100000	1
281.100000	1
282.100000	1
283.100000	1
284.100000	1
285.100000	1
287.100000	1
289.100000	1
290.100000	1
291.100000	1
292.100000	1
293.100000	1
294.100000	1
295.100000	1
297.100000	1
298.100000	1
299.100000	1
300.100000	1
301.100000	1
302.100000	1
303.100000	1
304.100000	1
305.100000	1
306.100000	1
307.100000	1
308.100000	1
309.100000	1
310.100000	1
311.100000	1
312.100000	1
314.100000	1
315.100000	1
316.100000	1
317.100000	1
318.100000	1
320.100000	1
321.100000	1
323.100000	1
324.100000	1
326.100000	1
327.100000	1
328.100000	1
329.100000	1
330.100000	1
331.100000	1
332.100000	1
333.100000	1
334.100000	1
335.100000	1
336.100000	1
337.100000	1
338.100000	1
339.100000	1
340.100000	1
341.100000	1
342.100000	1
343.100000	1
344.100000	1
345.100000	1
346.100000	1
347.100000	1
348.100000	1
350.100000	1
351.100000	1
352.100000	1
353.100000	1
354.100000	1
355.100000	1
356.100000	1
357.100000	1
358.100000	1
359.100000	1
360.100000	1
361.100000	1
362.100000	1
363.100000	1
365.100000	1
366.100000	1
368.100000	1
369.100000	1
370.100000	1
371.100000	1
372.100000	1
373.100000	1
375.100000	1
376.100000	1
377.100000	1
379.100000	1
380.100000	1
382.100000	1
383.100000	1
384.100000	1
385.100000	1
386.100000	1
387.100000	1
389.100000	1
390.100000	1
391.100000	1
393.100000	1
394.100000	1
395.100000	1
397.100000	1
398.100000	1
399.100000	1
400.100000	1
402.100000	1
403.100000	1
404.100000	1
405.100000	1
406.100000	1
407.100000	1
408.100000	1
409.100000	1
411.100000	1
412.100000	1
414.100000	1
415.100000	1
416.100000	1
417.100000	1
418.100000	1
421.100000	1
422.100000	1
423.100000	1
424.100000	1
428.100000	1
429.100000	1
431.100000	1
432.100000	1
434.100000	1
436.100000	1
437.100000	1
438.100000	1
439.100000	1
440.100000	1
441.100000	1
442.100000	1
443.100000	1
444.100000	1
445.100000	1
446.100000	1
447.100000	1
450.100000	1
451.100000	1
452.100000	1
453.100000	1
454.100000	1
455.100000	1
456.100000	1
459.100000	1
460.100000	1
462.100000	1
463.100000	1
464.100000	1
465.100000	1
466.100000	1
467.100000	1
470.100000	1
471.100000	1
472.100000	1
473.100000	1
474.100000	1
475.100000	1
476.100000	1
477.100000	1
478.100000	1
479.100000	1
480.100000	1
481.100000	1
482.100000	1
483.100000	1
484.100000	1
485.100000	1
486.100000	1
487.100000	1
489.100000	1
491.100000	1
493.100000	1
494.100000	1
496.100000	1
497.100000	1
498.100000	1
499.100000	1
