Mass spectrum: Hypotaurine; EI-B; MS; n TMS; RT: 641.90 s
Name: Hypotaurine
Class: Natural Product
Formula: C2H7NO2S
Exact mass: 109.01975
SMILES: NCCS(O)=O
InChI: InChI=1S/C2H7NO2S/c3-1-2-6(4)5/h1-3H2,(H,4,5)
Instrument: GCMS-2010 Plus, Shimadzu
Instrument type: EI-B
Ms type: MS
Ion mode: POSITIVE
Column name: InertCap 5MS/NP 0.25 mmI.D. x 30 m, df=0.25 um
Retention time: 641.90
Derivative type: n TMS
m/z	relative intensity
86.050000	63
87.050000	8
88.050000	4
89.050000	1
90.050000	1
91.050000	1
92.100000	1
93.300000	1
94.300000	1
95.300000	1
96.100000	1
97.050000	1
98.050000	3
99.150000	5
100.100000	660
101.100000	64
102.100000	28
103.050000	4
104.050000	1
105.050000	2
106.100000	1
107.100000	1
108.100000	1
109.100000	1
110.100000	1
111.100000	1
112.050000	1
113.100000	6
114.100000	115
115.100000	17
116.100000	32
117.050000	10
118.100000	3
119.050000	5
120.050000	1
121.050000	1
122.000000	5
123.000000	1
124.050000	1
125.000000	1
126.000000	1
127.000000	1
128.100000	1
129.150000	4
130.100000	52
131.100000	19
132.100000	11
133.050000	38
134.100000	6
135.050000	10
136.050000	1
137.050000	2
138.050000	1
139.100000	1
140.100000	1
141.100000	1
142.050000	1
143.100000	1
144.100000	1
145.150000	1
146.100000	18
147.100000	190
148.100000	30
149.100000	17
150.100000	2
151.050000	1
152.000000	1
153.000000	1
154.000000	1
155.000000	1
156.150000	1
157.150000	1
158.100000	3
159.100000	1
160.100000	3
161.100000	1
162.100000	1
163.050000	1
164.100000	1
165.100000	1
166.100000	1
167.100000	1
168.100000	1
169.100000	1
170.100000	1
171.150000	1
172.150000	100
173.150000	19
174.150000	156
175.100000	27
176.100000	52
177.100000	9
178.100000	3
179.050000	1
180.100000	1
181.100000	1
182.100000	1
183.100000	1
184.100000	1
185.100000	1
186.150000	1
187.150000	23
188.100000	999
189.100000	182
190.100000	81
191.100000	11
192.050000	2
193.050000	1
194.000000	1
195.000000	1
196.000000	1
197.000000	1
198.000000	1
199.000000	1
200.000000	1
201.000000	1
202.000000	1
203.000000	1
204.050000	1
205.100000	1
206.100000	1
207.100000	1
208.150000	1
209.050000	8
210.050000	2
211.050000	1
212.000000	1
213.000000	1
214.000000	1
215.000000	1
216.000000	1
217.000000	1
218.000000	1
219.100000	1
220.100000	1
221.050000	2
222.050000	1
223.000000	1
224.000000	1
225.000000	1
226.000000	1
227.000000	1
228.000000	1
229.000000	1
230.000000	1
231.000000	1
232.000000	1
233.000000	1
234.000000	1
235.000000	1
236.100000	1
237.100000	1
238.100000	1
239.100000	1
241.100000	1
242.100000	1
243.100000	1
245.100000	1
246.100000	1
247.100000	1
248.150000	25
249.100000	6
250.100000	3
251.100000	1
252.100000	1
253.100000	1
254.100000	1
255.100000	1
256.100000	1
257.100000	1
258.100000	1
259.100000	1
260.100000	1
261.100000	1
262.100000	1
263.100000	1
264.100000	1
265.100000	1
266.100000	1
267.100000	1
268.100000	1
269.100000	1
270.100000	1
271.100000	1
272.100000	1
273.100000	1
274.100000	1
276.100000	1
277.100000	1
278.100000	1
279.100000	1
280.100000	1
281.100000	1
282.050000	1
283.100000	1
284.100000	1
285.100000	1
286.100000	1
287.100000	1
288.100000	1
289.100000	1
290.100000	1
291.100000	1
292.100000	1
293.100000	1
294.100000	1
295.100000	1
296.100000	1
297.100000	1
298.100000	1
299.100000	1
300.100000	1
301.100000	1
302.100000	1
303.100000	1
304.100000	1
305.100000	1
306.100000	1
307.100000	1
308.100000	1
309.150000	1
310.150000	48
311.100000	14
312.100000	9
313.100000	2
314.100000	1
315.100000	1
316.100000	1
317.100000	1
319.100000	1
321.100000	1
322.100000	1
323.100000	1
324.100000	1
325.100000	1
326.100000	1
327.100000	1
328.100000	1
329.100000	1
330.100000	1
331.100000	1
332.100000	1
333.100000	1
335.100000	1
336.100000	1
337.100000	1
338.100000	1
339.100000	1
340.100000	1
341.100000	1
342.100000	1
343.100000	1
344.100000	1
345.100000	1
346.100000	1
348.100000	1
349.100000	1
351.100000	1
352.100000	1
353.100000	1
355.100000	1
356.100000	1
357.100000	1
359.100000	1
360.100000	1
361.100000	1
362.100000	1
364.100000	1
365.100000	1
366.100000	1
367.100000	1
369.100000	1
370.100000	1
371.100000	1
372.100000	1
373.100000	1
374.100000	1
375.100000	1
376.100000	1
377.100000	1
378.100000	1
379.100000	1
381.100000	1
382.100000	1
383.100000	1
384.100000	1
385.100000	1
386.100000	1
387.100000	1
388.100000	1
389.100000	1
391.100000	1
392.100000	1
394.100000	1
395.100000	1
396.100000	1
398.100000	1
399.100000	1
400.100000	1
401.100000	1
402.100000	1
404.100000	1
405.100000	1
407.100000	1
408.100000	1
410.100000	1
411.100000	1
412.100000	1
413.100000	1
414.100000	1
415.100000	1
416.100000	1
418.100000	1
421.100000	1
422.100000	1
423.100000	1
424.100000	1
425.100000	1
426.100000	1
427.100000	1
428.100000	1
429.100000	1
430.100000	1
431.100000	1
432.100000	1
433.100000	1
436.100000	1
437.100000	1
438.100000	1
441.100000	1
443.100000	1
444.100000	1
445.100000	1
446.100000	1
447.100000	1
448.100000	1
449.100000	1
450.100000	1
451.100000	1
453.100000	1
454.100000	1
455.100000	1
456.100000	1
458.100000	1
459.100000	1
460.100000	1
461.100000	1
462.100000	1
463.100000	1
464.100000	1
465.100000	1
466.100000	1
468.100000	1
469.100000	1
470.100000	1
471.100000	1
472.100000	1
473.100000	1
474.100000	1
475.100000	1
476.100000	1
477.100000	1
478.100000	1
479.100000	1
480.100000	1
483.100000	1
484.100000	1
485.100000	1
487.100000	1
489.100000	1
490.100000	1
491.100000	1
492.100000	1
493.100000	1
495.100000	1
496.100000	1
497.100000	1
498.100000	1
499.100000	1
