Mass spectrum: 4-Hydroxyphenylacetic acid; EI-B; MS; 2 TMS; RT: 657.00 s
Name: 4-Hydroxyphenylacetic acid
Class: Natural Product
Formula: C8H8O3
Exact mass: 152.04734
SMILES: OC(=O)Cc(c1)ccc(O)c1
InChI: InChI=1S/C8H8O3/c9-7-3-1-6(2-4-7)5-8(10)11/h1-4,9H,5H2,(H,10,11)
Instrument: GCMS-2010 Plus, Shimadzu
Instrument type: EI-B
Ms type: MS
Ion mode: POSITIVE
Column name: InertCap 5MS/NP 0.25 mmI.D. x 30 m, df=0.25 um
Retention time: 657.00
Derivative type: 2 TMS
m/z	relative intensity
86.050000	2
87.050000	9
88.150000	4
89.050000	75
90.050000	60
91.050000	34
92.000000	3
93.050000	5
94.000000	1
95.050000	7
96.100000	2
97.050000	2
98.150000	2
99.050000	5
100.100000	3
101.100000	4
102.050000	5
103.100000	29
104.100000	26
105.100000	49
106.100000	6
107.050000	12
108.100000	1
109.050000	4
110.100000	1
111.100000	2
112.150000	1
113.050000	16
114.100000	2
115.100000	10
116.150000	3
117.050000	76
118.100000	15
119.050000	18
120.050000	3
121.100000	12
122.000000	2
123.050000	4
124.000000	1
125.150000	3
126.200000	2
127.200000	1
128.200000	1
129.100000	2
130.100000	1
131.100000	21
132.150000	6
133.100000	172
134.050000	30
135.050000	48
136.100000	6
137.100000	10
138.100000	2
139.100000	1
140.300000	2
141.300000	1
142.100000	1
143.100000	3
144.100000	1
145.100000	14
146.150000	5
147.100000	251
148.100000	47
149.100000	199
150.100000	27
151.100000	13
152.100000	1
153.100000	1
154.100000	1
155.100000	1
156.100000	1
157.100000	1
158.100000	1
159.100000	4
160.100000	1
161.050000	30
162.150000	10
163.100000	132
164.100000	680
165.100000	112
166.100000	30
167.100000	4
168.100000	1
169.100000	1
170.100000	1
171.100000	1
172.100000	1
173.100000	1
174.100000	1
175.050000	3
176.150000	4
177.100000	82
178.150000	31
179.100000	999
180.100000	164
181.100000	46
182.100000	6
183.100000	1
184.100000	1
185.100000	1
186.100000	1
187.100000	1
188.100000	3
189.100000	2
190.050000	2
191.000000	35
192.050000	5
193.050000	24
194.050000	4
195.050000	7
196.000000	1
197.000000	1
198.000000	1
199.000000	1
200.000000	1
201.000000	1
202.000000	1
203.000000	1
204.000000	1
205.150000	2
206.050000	19
207.050000	9
208.050000	7
209.050000	30
210.050000	6
211.100000	13
212.100000	2
213.100000	1
214.100000	1
215.100000	1
217.100000	1
218.000000	1
219.000000	4
220.000000	1
221.050000	10
222.100000	3
223.100000	7
224.150000	3
225.050000	56
226.100000	12
227.050000	5
228.100000	1
229.100000	1
230.100000	1
231.100000	1
232.100000	1
233.100000	1
234.100000	1
235.100000	6
236.150000	8
237.100000	52
238.100000	14
239.100000	17
240.050000	3
241.000000	1
242.000000	1
243.000000	1
244.000000	1
245.000000	1
246.000000	1
247.000000	1
248.000000	1
249.050000	4
250.000000	1
251.150000	11
252.150000	925
253.100000	300
254.150000	108
255.100000	20
256.100000	5
257.100000	1
258.100000	1
259.100000	1
260.100000	1
261.100000	1
262.100000	1
263.100000	1
264.100000	1
265.100000	24
266.100000	6
267.100000	7
268.100000	1
269.100000	1
270.100000	1
271.100000	1
272.100000	1
273.100000	1
275.100000	1
276.100000	1
277.100000	1
278.100000	1
279.050000	2
280.150000	7
281.100000	525
282.100000	129
283.100000	55
284.150000	9
285.100000	1
286.100000	1
287.100000	1
288.100000	1
289.100000	1
290.100000	1
292.100000	1
293.100000	1
294.100000	1
295.150000	7
296.150000	620
297.100000	165
298.150000	66
299.100000	12
300.100000	2
301.100000	1
302.100000	1
303.100000	1
304.100000	1
305.100000	1
307.100000	1
308.100000	1
309.100000	1
310.100000	1
311.100000	1
312.100000	1
313.100000	1
314.100000	1
315.100000	1
316.100000	1
317.100000	1
318.100000	1
320.100000	1
321.100000	1
324.100000	1
325.100000	1
326.100000	1
327.100000	1
328.100000	1
329.100000	1
331.100000	1
332.100000	1
333.100000	1
334.100000	1
335.100000	1
336.100000	1
337.100000	1
339.100000	1
340.100000	1
341.100000	1
342.100000	1
343.100000	1
344.100000	1
345.100000	1
346.100000	1
347.100000	1
348.100000	1
349.100000	1
350.100000	1
351.100000	1
352.100000	1
353.100000	1
354.100000	1
355.100000	1
356.100000	1
357.100000	1
358.100000	1
359.100000	1
360.100000	1
361.100000	1
362.100000	1
363.100000	1
364.100000	1
365.100000	1
366.100000	1
367.100000	1
368.100000	1
369.100000	2
370.100000	1
371.100000	1
372.100000	1
373.100000	1
374.100000	1
375.100000	1
376.100000	1
377.100000	1
378.100000	1
379.100000	1
380.100000	1
382.100000	1
383.100000	1
384.100000	1
385.100000	1
386.100000	1
387.100000	1
388.100000	1
389.100000	1
390.100000	1
391.100000	1
392.100000	1
395.100000	1
396.100000	1
397.100000	1
398.100000	1
399.100000	1
400.100000	1
401.100000	1
402.100000	1
403.100000	1
404.100000	1
405.100000	1
406.100000	1
408.100000	1
409.100000	1
410.100000	1
411.100000	1
412.100000	1
413.100000	1
414.100000	1
416.100000	1
417.100000	1
419.100000	1
420.100000	1
421.100000	1
422.100000	1
424.100000	1
425.100000	1
426.100000	1
427.100000	1
428.100000	1
430.100000	1
431.100000	1
433.100000	1
435.100000	1
436.100000	1
438.100000	1
439.100000	1
440.100000	1
441.100000	1
442.100000	1
443.100000	1
444.100000	1
445.100000	1
446.100000	1
447.100000	1
448.100000	1
449.100000	1
450.100000	1
452.100000	1
453.100000	1
454.100000	1
455.100000	1
456.100000	1
457.100000	1
458.100000	1
459.100000	1
460.100000	1
461.100000	1
462.100000	1
463.100000	1
464.100000	1
465.100000	1
466.100000	1
467.100000	1
468.100000	1
469.100000	1
470.100000	1
471.100000	1
472.100000	1
474.100000	1
476.100000	1
477.100000	1
478.100000	1
479.100000	1
480.100000	1
481.100000	1
483.100000	1
484.100000	1
485.100000	1
487.100000	1
488.100000	1
489.100000	1
490.100000	1
492.100000	1
493.100000	1
494.100000	1
495.100000	1
496.100000	1
