Mass spectrum: 1-Methyl Histidine; EI-B; MS; 3 TMS; RT: 846.76 s
Name: 1-Methyl Histidine
Class: Natural Product
Formula: C7H11N3O2
Exact mass: 169.08513
SMILES: OC(=O)C(N)Cc(n1)cn(C)c1
InChI: InChI=1S/C7H11N3O2/c1-10-3-5(9-4-10)2-6(8)7(11)12/h3-4,6H,2,8H2,1H3,(H,11,12)
Instrument: GCMS-2010 Plus, Shimadzu
Instrument type: EI-B
Ms type: MS
Ion mode: POSITIVE
Column name: InertCap 5MS/NP 0.25 mmI.D. x 30 m, df=0.25 um
Retention time: 846.76
Derivative type: 3 TMS
m/z	relative intensity
86.200000	13
87.200000	4
88.200000	4
89.200000	3
90.200000	2
91.200000	2
92.200000	1
93.200000	3
94.100000	3
95.100000	265
96.100000	209
97.100000	94
98.150000	17
99.100000	9
100.100000	449
101.100000	52
102.150000	21
103.100000	39
104.100000	10
105.100000	6
106.100000	3
107.100000	11
108.100000	6
109.100000	8
110.100000	8
111.100000	6
112.050000	49
113.100000	14
114.100000	15
115.100000	7
116.100000	8
117.100000	13
118.100000	5
119.100000	7
120.100000	1
121.100000	3
122.100000	5
123.100000	5
124.150000	18
125.100000	8
126.150000	41
127.100000	12
128.100000	6
129.100000	5
130.100000	41
131.100000	42
132.150000	16
133.150000	49
134.100000	10
135.150000	17
136.200000	3
137.200000	7
138.200000	3
139.100000	23
140.100000	9
141.100000	6
142.100000	5
143.100000	3
144.100000	3
145.100000	2
146.250000	13
147.150000	348
148.150000	53
149.150000	28
150.200000	7
151.200000	12
152.200000	4
153.200000	36
154.200000	10
155.200000	5
156.200000	3
157.200000	3
158.200000	4
159.200000	5
160.200000	6
161.200000	2
162.200000	1
163.200000	10
164.200000	6
165.200000	14
166.200000	4
167.150000	19
168.200000	144
169.200000	214
170.200000	35
171.250000	11
172.200000	123
173.100000	24
174.150000	17
175.200000	4
176.200000	2
177.200000	1
178.200000	5
179.250000	10
180.150000	111
181.100000	34
182.100000	9
183.100000	4
184.100000	3
185.100000	2
186.100000	3
187.100000	2
188.100000	6
189.100000	3
190.100000	3
191.150000	309
192.150000	57
193.150000	27
194.100000	53
195.150000	13
196.150000	62
197.150000	18
198.100000	4
199.100000	3
200.100000	3
201.100000	1
202.100000	5
203.100000	1
204.100000	18
205.100000	5
206.100000	6
207.100000	12
208.100000	9
209.100000	8
210.100000	2
211.100000	2
212.100000	2
213.100000	2
214.100000	1
215.100000	1
216.100000	2
217.100000	1
218.200000	25
219.200000	7
220.200000	4
221.200000	3
222.200000	5
223.200000	1
224.200000	3
225.200000	2
226.200000	2
227.200000	2
228.200000	1
229.200000	1
230.200000	2
231.200000	1
232.200000	5
233.200000	3
234.200000	1
235.200000	1
236.200000	4
237.200000	4
238.200000	4
239.200000	6
240.200000	2
241.200000	2
242.200000	2
243.200000	19
244.200000	5
245.200000	4
246.150000	43
247.200000	12
248.200000	5
249.200000	3
250.200000	2
251.200000	2
252.200000	49
253.200000	14
254.200000	12
255.200000	6
256.200000	2
257.200000	2
258.200000	2
259.200000	1
260.200000	2
261.200000	2
262.200000	2
263.200000	1
264.200000	2
265.200000	2
266.200000	2
267.350000	12
268.250000	999
269.250000	231
270.200000	89
271.200000	24
272.200000	4
273.200000	3
274.200000	1
275.200000	12
276.200000	2
277.200000	3
278.200000	1
279.200000	1
280.200000	12
281.200000	4
282.200000	5
283.200000	2
284.200000	1
285.200000	1
286.200000	1
287.200000	1
288.200000	2
289.200000	6
290.250000	588
291.250000	165
292.250000	85
293.200000	18
294.200000	6
295.200000	3
296.200000	4
297.200000	2
298.200000	4
299.200000	1
300.200000	1
301.200000	1
302.200000	2
303.200000	1
304.200000	1
305.200000	1
306.200000	1
307.200000	2
308.200000	1
309.200000	1
310.200000	1
312.200000	3
313.200000	4
314.200000	2
315.200000	2
317.200000	1
318.200000	1
319.200000	1
320.200000	1
321.200000	1
322.200000	1
323.200000	1
326.200000	4
327.200000	3
328.200000	1
329.200000	6
330.200000	2
331.200000	3
332.200000	2
333.200000	1
334.200000	1
336.200000	1
339.200000	1
340.200000	2
341.300000	3
342.250000	235
343.250000	72
344.250000	36
345.300000	8
346.300000	3
347.300000	1
348.300000	1
349.300000	1
350.300000	1
351.300000	1
352.300000	1
353.300000	1
354.300000	1
355.300000	2
356.300000	2
357.300000	3
358.300000	1
359.300000	1
360.300000	1
362.300000	2
364.300000	1
365.300000	1
366.300000	1
368.300000	1
369.300000	2
370.250000	311
371.300000	95
372.250000	47
373.300000	14
374.300000	3
375.300000	1
377.300000	2
378.300000	2
379.300000	1
380.300000	1
381.300000	1
382.300000	1
383.300000	1
384.300000	2
385.300000	8
386.300000	3
387.300000	3
388.300000	2
391.300000	1
392.300000	1
393.300000	1
394.300000	1
395.300000	1
396.300000	1
397.300000	2
398.300000	1
400.300000	2
401.300000	1
402.300000	1
403.300000	1
404.300000	1
405.300000	1
406.300000	1
409.300000	1
410.300000	1
412.300000	1
413.300000	1
416.300000	1
417.300000	1
418.300000	1
419.300000	1
422.300000	1
423.300000	1
425.300000	1
426.300000	1
427.300000	1
428.300000	1
429.300000	1
430.300000	1
431.300000	1
433.300000	1
434.300000	1
436.300000	1
438.300000	1
439.300000	1
440.300000	1
441.300000	1
442.300000	1
443.300000	1
444.300000	1
447.300000	1
448.300000	1
449.300000	1
450.300000	1
451.300000	2
452.300000	1
454.300000	1
455.300000	1
456.300000	1
457.300000	1
458.300000	1
459.300000	1
461.300000	1
462.300000	1
463.300000	1
465.300000	1
466.300000	1
467.300000	1
469.300000	1
470.300000	1
471.300000	1
472.300000	1
473.300000	1
475.300000	1
476.300000	1
477.300000	1
478.300000	1
479.300000	1
480.300000	1
481.300000	1
482.300000	2
483.300000	1
484.300000	1
485.300000	1
486.300000	1
489.300000	1
491.300000	1
493.300000	1
494.300000	1
496.300000	1
497.300000	1
498.300000	1
