Mass spectrum: Dihydrocitrinone; LC-ESI-ITFT; MS2; CE: 15%; R=7500; [M-H]-
Name: Dihydrocitrinone
Name: 3,4-Dihydro-6,8-dihydroxy-3,4,5-trimethyl-isocoumarin-7-carboxylic acid
Name: 6,8-dihydroxy-3,4,5-trimethyl-1-oxo-3,4-dihydroisochromene-7-carboxylic acid
Formula: C13H14O6
Exact mass: 266.0790
SMILES: CC1C(OC(=O)C2=C(C(=C(C(=C12)C)O)C(=O)O)O)C
InChI: InChI=1S/C13H14O6/c1-4-6(3)19-13(18)8-7(4)5(2)10(14)9(11(8)15)12(16)17/h4,6,14-15H,1-3H3,(H,16,17)
Instrument: LTQ Orbitrap XL Thermo Scientific
Instrument type: LC-ESI-ITFT
Ms type: MS2
Ion mode: NEGATIVE
Ionization: ESI
Fragmentation mode: HCD
Collision energy: 15 % (nominal)
Resolution: 7500
Column name: Hypersil GOLD C18 1.9 um 100 x 2.1 mm Thermo Fisher Scientific
Retention time: 15.565 min
Base peak: 265.0723
Precursor m/z: 265.0718
Precursor type: [M-H]-
Precursor intensity: 8435591.062256
m/z	relative intensity	assigned
221.0813	4	C12H13O4-
247.0616	1	C13H11O5-
265.0722	999	C13H13O6-
