Mass spectrum: Mefruside; LC-ESI-QFT; MS2; CE: 35%; R=17500; [M+H]+
Name: Mefruside
Name: 4-Chloro-N1-methyl-N1-[(2-methyloxolan-2-yl)methyl]benzene-1,3-disulfonamide
Formula: C13H19ClN2O5S2
Exact mass: 382.0424
SMILES: CN(CC1(C)CCCO1)S(=O)(=O)C1=CC=C(Cl)C(=C1)S(N)(=O)=O
InChI: InChI=1S/C13H19ClN2O5S2/c1-13(6-3-7-21-13)9-16(2)23(19,20)10-4-5-11(14)12(8-10)22(15,17)18/h4-5,8H,3,6-7,9H2,1-2H3,(H2,15,17,18)
Instrument: Q Exactive Thermo Fisher Scientific
Instrument type: LC-ESI-QFT
Ms type: MS2
Ion mode: POSITIVE
Ionization: ESI
Fragmentation mode: HCD
Collision energy: 35% (nominal)
Resolution: 17500
Column name: Hypersil GOLD 1.9 um 2.1 x 100 mm Thermo Fisher Scientific
Precursor m/z: 383.0497
Precursor type: [M+H]+
m/z	relative intensity
57.0344	51
69.0707	65
71.0863	25
79.055	108
81.0706	999
84.0814	538
86.0607	113
96.0814	45
99.081	378
110.0968	27
111.1047	23
128.1072	62
129.115	462
217.9788	111
221.9988	20
253.9345	271
267.9502	74
284.9767	116
285.9606	28
296.9767	35
