Mass spectrum: Phenazone; LC-ESI-QTOF; MS2; CE: 25 eV; R=3600; [M+H]+
Name: Phenazone
Name: 1,5-Dimethyl-2-phenyl-1,2-dihydro-3H-pyrazol-3-one
Formula: C11H12N2O
Exact mass: 188.095
SMILES: CN1N(C(=O)C=C1C)C1=CC=CC=C1
InChI: InChI=1S/C11H12N2O/c1-9-8-11(14)13(12(9)2)10-6-4-3-5-7-10/h3-8H,1-2H3
Instrument: 6644 QTOF Agilent
Instrument type: LC-ESI-QTOF
Ms type: MS2
Ion mode: POSITIVE
Ionization: ESI
Fragmentation mode: CID
Collision energy: 25 eV
Resolution: 3600
Precursor m/z: 189.1023
Precursor type: [M+H]+
m/z	relative intensity
51.0229	168
56.0492	999
58.0649	291
65.0377	137
77.0378	820
91.0534	138
95.0585	63
104.0473	163
106.0643	253
115.0533	82
118.0658	86
120.0775	59
130.0626	144
131.062	96
132.0668	54
144.0792	90
145.0726	65
147.0897	85
189.1023	198
