Mass spectrum: Roquefortine E; LC-ESI-ITFT; MS2; CE: 20%; R=7500; [M-H]-
Name: Roquefortine E
Name: 9-(2-methylbut-3-en-2-yl)-4-[[5-(2-methylbut-3-en-2-yl)-1H-imidazol-4-yl]methylidene]-2,5,16-triazatetracyclo[7.7.0.02,7.010,15]hexadeca-10,12,14-triene-3,6-dione
Formula: C27H31N5O2
Exact mass: 457.24778
SMILES: CC(C)(C=C)C1=C(N=CN1)C=C2C(=O)N3C(CC4(C3NC5=CC=CC=C54)C(C)(C)C=C)C(=O)N2
InChI: InChI=1S/C27H31N5O2/c1-7-25(3,4)21-18(28-15-29-21)13-19-23(34)32-20(22(33)30-19)14-27(26(5,6)8-2)16-11-9-10-12-17(16)31-24(27)32/h7-13,15,20,24,31H,1-2,14H2,3-6H3,(H,28,29)(H,30,33)
Instrument: LTQ Orbitrap XL Thermo Scientific
Instrument type: LC-ESI-ITFT
Ms type: MS2
Ion mode: NEGATIVE
Ionization: ESI
Fragmentation mode: HCD
Collision energy: 20 % (nominal)
Resolution: 7500
Column name: Hypersil GOLD C18 1.9 um 100 x 2.1 mm Thermo Fisher Scientific
Retention time: 18.851 min
Base peak: 456.2391
Precursor m/z: 456.2405
Precursor type: [M-H]-
Precursor intensity: 5912989.139404
m/z	relative intensity	assigned
456.2384	999	C27H30N5O2-
