Mass spectrum: Etofylline; LC-ESI-QTOF; MS2; CE: 20 eV; R=3600; [M+H]+
Name: Etofylline
Name: 7-(2-Hydroxyethyl)-1,3-dimethyl-3,7-dihydro-1H-purine-2,6-dione
Formula: C9H12N4O3
Exact mass: 224.0909
SMILES: CN1C2=C(N(CCO)C=N2)C(=O)N(C)C1=O
InChI: InChI=1S/C9H12N4O3/c1-11-7-6(8(15)12(2)9(11)16)13(3-4-14)5-10-7/h5,14H,3-4H2,1-2H3
Instrument: 6603 QTOF Agilent
Instrument type: LC-ESI-QTOF
Ms type: MS2
Ion mode: POSITIVE
Ionization: ESI
Fragmentation mode: CID
Collision energy: 20 eV
Resolution: 3600
Precursor m/z: 225.0983
Precursor type: [M+H]+
m/z	relative intensity
68.048	59
69.044	250
72.0448	158
96.0546	317
113.0677	63
120.054	56
124.0486	999
140.0791	64
168.0732	63
181.0696	885
207.0886	57
225.0983	147
