Mass spectrum: Violaceol II; LC-ESI-ITFT; MS2; CE: 30%; R=7500; [M+H]+
Name: Violaceol II
Name: 2-(2,3-dihydroxy-5-methylphenoxy)-5-methylbenzene-1,3-diol
Formula: C14H14O5
Exact mass: 262.0841
SMILES: CC1=CC(=C(C(=C1)O)OC2=CC(=CC(=C2O)O)C)O
InChI: InChI=1S/C14H14O5/c1-7-4-10(16)14(11(17)5-7)19-12-6-8(2)3-9(15)13(12)18/h3-6,15-18H,1-2H3
Instrument: LTQ Orbitrap XL Thermo Scientific
Instrument type: LC-ESI-ITFT
Ms type: MS2
Ion mode: POSITIVE
Ionization: ESI
Fragmentation mode: HCD
Collision energy: 30 % (nominal)
Resolution: 7500
Column name: Hypersil GOLD C18 1.9 um 100 x 2.1 mm Thermo Fisher Scientific
Retention time: 14.458 min
Base peak: 263.0911
Precursor m/z: 263.0914
Precursor type: [M+H]+
Precursor intensity: 4436886.785156
m/z	relative intensity	assigned
111.0439	547	C6H7O2+
123.0439	276	C7H7O2+
124.0517	235	C7H8O2+
125.0595	224	C7H9O2+
139.0388	999	C7H7O3+
140.0465	102	C7H8O3+
141.0544	45	C7H9O3+
151.0386	10	C8H7O3+
