Mass spectrum: Cyclopenin; LC-ESI-ITFT; MS2; CE: 30%; R=7500; [M-H]-
Name: Cyclopenin
Name: 4-methyl-3`-phenylspiro[1H-1,4-benzodiazepine-3,2`-oxirane]-2,5-dione
Formula: C17H14N2O3
Exact mass: 294.10044
SMILES: CN1C(=O)C2=CC=CC=C2NC(=O)C13C(O3)C4=CC=CC=C4
InChI: InChI=1S/C17H14N2O3/c1-19-15(20)12-9-5-6-10-13(12)18-16(21)17(19)14(22-17)11-7-3-2-4-8-11/h2-10,14H,1H3,(H,18,21)
Instrument: LTQ Orbitrap XL Thermo Scientific
Instrument type: LC-ESI-ITFT
Ms type: MS2
Ion mode: NEGATIVE
Ionization: ESI
Fragmentation mode: HCD
Collision energy: 30 % (nominal)
Resolution: 7500
Column name: Hypersil GOLD C18 1.9 um 100 x 2.1 mm Thermo Fisher Scientific
Retention time: 15.052 min
Base peak: 293.0936
Precursor m/z: 293.0932
Precursor type: [M-H]-
Precursor intensity: 21192973.17993
m/z	relative intensity	assigned
77.0396	2	C6H5-
102.035	116	C7H4N-
121.0297	38	C7H5O2-
131.0618	11	C8H7N2-
132.0457	3	C8H6NO-
146.0616	3	C9H8NO-
149.0723	20	C8H9N2O-
159.0565	999	C9H7N2O-
175.0514	52	C9H7N2O2-
177.0672	19	C9H9N2O2-
187.0514	28	C10H7N2O2-
201.0582	1	C15H7N-
207.0693	6	C14H9NO-
208.0768	35	C14H10NO-
222.0925	103	C15H12NO-
231.0936	1	C16H11N2-
234.0792	4	C15H10N2O-
236.0718	212	C15H10NO2-
249.1032	70	C16H13N2O-
250.0874	108	C16H12NO2-
293.0931	716	C17H13N2O3-
