Mass spectrum: Dixyrazine ; LC-ESI-QTOF; MS2; CE: 20 eV; R=3600; [M+H]+
Name: Dixyrazine 
Name: 2-(2-{4-[2-Methyl-3-(10H-phenothiazin-10-yl)propyl]piperazin-1-yl}ethoxy)ethan-1-ol
Formula: C24H33N3O2S
Exact mass: 427.2293
SMILES: CC(CN1CCN(CCOCCO)CC1)CN1C2=CC=CC=C2SC2=CC=CC=C12
InChI: InChI=1S/C24H33N3O2S/c1-20(18-26-12-10-25(11-13-26)14-16-29-17-15-28)19-27-21-6-2-4-8-23(21)30-24-9-5-3-7-22(24)27/h2-9,20,28H,10-19H2,1H3
Instrument: 6572 QTOF Agilent
Instrument type: LC-ESI-QTOF
Ms type: MS2
Ion mode: POSITIVE
Ionization: ESI
Fragmentation mode: CID
Collision energy: 20 eV
Resolution: 3600
Precursor m/z: 428.2367
Precursor type: [M+H]+
m/z	relative intensity
70.063	51
97.0723	72
98.0803	241
101.1034	306
125.1021	73
172.114	60
180.074	53
187.1368	581
212.0449	231
229.1823	999
428.2367	701
