Mass spectrum: Xanthomegnin; LC-ESI-ITFT; MS2; CE: 60%; R=7500; [M+H]+
Name: Xanthomegnin
Name: 10-hydroxy-8-(10-hydroxy-7-methoxy-3-methyl-1,6,9-trioxo-3,4-dihydrobenzo[g]isochromen-8-yl)-7-methoxy-3-methyl-3,4-dihydrobenzo[g]isochromene-1,6,9-trione
Formula: C30H22O12
Exact mass: 574.1111
SMILES: CC1CC2=CC3=C(C(=C2C(=O)O1)O)C(=O)C(=C(C3=O)OC)C4=C(C(=O)C5=C(C4=O)C(=C6C(=C5)CC(OC6=O)C)O)OC
InChI: InChI=1S/C30H22O12/c1-9-5-11-7-13-17(23(33)15(11)29(37)41-9)25(35)19(27(39-3)21(13)31)20-26(36)18-14(22(32)28(20)40-4)8-12-6-10(2)42-30(38)16(12)24(18)34/h7-10,33-34H,5-6H2,1-4H3
Instrument: LTQ Orbitrap XL Thermo Scientific
Instrument type: LC-ESI-ITFT
Ms type: MS2
Ion mode: POSITIVE
Ionization: ESI
Fragmentation mode: HCD
Collision energy: 60 % (nominal)
Resolution: 7500
Column name: Hypersil GOLD C18 1.9 um 100 x 2.1 mm Thermo Fisher Scientific
Retention time: 20.029 min
Base peak: 575.1195
Precursor m/z: 575.1184
Precursor type: [M+H]+
Precursor intensity: 739804.109375
m/z	relative intensity	assigned
351.9683	999	C13H4O12+
