Mass spectrum: Etofylline; LC-ESI-QTOF; MS2; CE: 40 eV; R=3600; [M+H]+
Name: Etofylline
Name: 7-(2-Hydroxyethyl)-1,3-dimethyl-3,7-dihydro-1H-purine-2,6-dione
Formula: C9H12N4O3
Exact mass: 224.0909
SMILES: CN1C2=C(N(CCO)C=N2)C(=O)N(C)C1=O
InChI: InChI=1S/C9H12N4O3/c1-11-7-6(8(15)12(2)9(11)16)13(3-4-14)5-10-7/h5,14H,3-4H2,1-2H3
Instrument: 6607 QTOF Agilent
Instrument type: LC-ESI-QTOF
Ms type: MS2
Ion mode: POSITIVE
Ionization: ESI
Fragmentation mode: CID
Collision energy: 40 eV
Resolution: 3600
Precursor m/z: 225.0983
Precursor type: [M+H]+
m/z	relative intensity
62.9684	138
68.0137	505
79.1718	55
80.0226	125
93.046	214
95.0473	161
96.0534	999
124.0527	182
140.0714	139
160.6415	259
181.0728	165
183.8946	100
209.4201	69
