Mass spectrum: Phenazone; LC-ESI-QTOF; MS2; CE: 10 eV; R=3600; [M+H]+
Name: Phenazone
Name: 1,5-Dimethyl-2-phenyl-1,2-dihydro-3H-pyrazol-3-one
Formula: C11H12N2O
Exact mass: 188.095
SMILES: CN1N(C(=O)C=C1C)C1=CC=CC=C1
InChI: InChI=1S/C11H12N2O/c1-9-8-11(14)13(12(9)2)10-6-4-3-5-7-10/h3-8H,1-2H3
Instrument: 6641 QTOF Agilent
Instrument type: LC-ESI-QTOF
Ms type: MS2
Ion mode: POSITIVE
Ionization: ESI
Fragmentation mode: CID
Collision energy: 10 eV
Resolution: 3600
Precursor m/z: 189.1023
Precursor type: [M+H]+
m/z	relative intensity
56.0473	259
58.0628	111
77.0351	169
104.0447	66
106.0602	72
130.0578	59
131.0636	50
147.0829	51
189.1023	999
