Mass spectrum: Diacetoxyscirpenol; LC-ESI-ITFT; MS2; CE: 60%; R=7500; [M+H]+
Name: Diacetoxyscirpenol
Name: Anguidine
Name: (11-acetyloxy-10-hydroxy-1,5-dimethylspiro[8-oxatricyclo[7.2.1.02,7]dodec-5-ene-12,2`-oxirane]-2-yl)methyl acetate
Formula: C19H26O7
Exact mass: 366.1679
SMILES: CC1=CC2C(CC1)(C3(C(C(C(C34CO4)O2)O)OC(=O)C)C)COC(=O)C
InChI: InChI=1S/C19H26O7/c1-10-5-6-18(8-23-11(2)20)13(7-10)26-16-14(22)15(25-12(3)21)17(18,4)19(16)9-24-19/h7,13-16,22H,5-6,8-9H2,1-4H3
Instrument: LTQ Orbitrap XL Thermo Scientific
Instrument type: LC-ESI-ITFT
Ms type: MS2
Ion mode: POSITIVE
Ionization: ESI
Fragmentation mode: HCD
Collision energy: 60 % (nominal)
Resolution: 7500
Column name: Hypersil GOLD C18 1.9 um 100 x 2.1 mm Thermo Fisher Scientific
Retention time: 15.494 min
Base peak: 367.1762
Precursor m/z: 367.1751
Precursor type: [M+H]+
Precursor intensity: 2086303.978027
m/z	relative intensity	assigned
105.0696	999	C8H9+
123.0804	921	C8H11O+
201.1267	776	C14H17O+
