Mass spectrum: Metoclopramide; LC-ESI-ITFT; MS2; CE: 80%; R=7500; [M+H]+
Name: Metoclopramide
Name: 4-Amino-5-chloro-N-[2-(diethylamino)ethyl]-2-methoxybenzamide
Formula: C14H22ClN3O2
Exact mass: 299.1401
SMILES: CCN(CC)CCNC(=O)C1=CC(Cl)=C(N)C=C1OC
InChI: InChI=1S/C14H22ClN3O2/c1-4-18(5-2)7-6-17-14(19)10-8-11(15)12(16)9-13(10)20-3/h8-9H,4-7,16H2,1-3H3,(H,17,19)
Instrument: LTQ Orbitrap XL Thermo Fisher Scientific
Instrument type: LC-ESI-ITFT
Ms type: MS2
Ion mode: POSITIVE
Ionization: ESI
Fragmentation mode: HCD
Collision energy: 80% (nominal)
Resolution: 7500
Column name: Hypersil GOLD C18 1.9 um 100 x 2.1 mm Thermo Fisher Scientific
Precursor m/z: 300.1474
Precursor type: [M+H]+
m/z	relative intensity
72.0806	3
73.0534	1
73.0676	1
90.0336	8
93.0572	11
100.1121	15
120.0444	9
126.0104	29
128.0261	19
129.01	4
140.9975	75
144.0211	16
147.0555	5
148.0632	30
154.0055	17
156.0212	71
168.0084	78
168.9925	43
170.0003	20
182.0245	11
183.0321	233
184.0159	999
185.1069	1
187.0029	18
212.0348	271
227.0584	176
