Mass spectrum: Patulin; LC-ESI-ITFT; MS2; CE: 40%; R=7500; [M+H]+
Name: Patulin
Name: 4-hydroxy-4,6-dihydrofuro[3,2-c]pyran-2-one
Formula: C7H6O4
Exact mass: 154.0266
SMILES: C1C=C2C(=CC(=O)O2)C(O1)O
InChI: InChI=1S/C7H6O4/c8-6-3-4-5(11-6)1-2-10-7(4)9/h1,3,7,9H,2H2
Instrument: LTQ Orbitrap XL Thermo Scientific
Instrument type: LC-ESI-ITFT
Ms type: MS2
Ion mode: POSITIVE
Ionization: ESI
Fragmentation mode: HCD
Collision energy: 40 % (nominal)
Resolution: 7500
Column name: Hypersil GOLD C18 1.9 um 100 x 2.1 mm Thermo Fisher Scientific
Retention time: 3.286 min
Base peak: 157.0346
Precursor m/z: 155.0339
Precursor type: [M+H]+
Precursor intensity: 109982.3146973
m/z	relative intensity	assigned
155.0332	999	C7H7O4+
