Mass spectrum: Metoclopramide; LC-ESI-QFT; MS2; CE: 75%; R=17500; [M+H]+
Name: Metoclopramide
Name: 4-Amino-5-chloro-N-[2-(diethylamino)ethyl]-2-methoxybenzamide
Formula: C14H22ClN3O2
Exact mass: 299.1401
SMILES: CCN(CC)CCNC(=O)C1=CC(Cl)=C(N)C=C1OC
InChI: InChI=1S/C14H22ClN3O2/c1-4-18(5-2)7-6-17-14(19)10-8-11(15)12(16)9-13(10)20-3/h8-9H,4-7,16H2,1-3H3,(H,17,19)
Instrument: Q Exactive Thermo Fisher Scientific
Instrument type: LC-ESI-QFT
Ms type: MS2
Ion mode: POSITIVE
Ionization: ESI
Fragmentation mode: HCD
Collision energy: 75% (nominal)
Resolution: 17500
Column name: Hypersil GOLD 1.9 um 2.1 x 100 mm Thermo Fisher Scientific
Precursor m/z: 300.1474
Precursor type: [M+H]+
m/z	relative intensity
90.0345	82
93.0579	76
108.0449	33
113.003	47
120.0447	38
126.0107	64
128.0264	67
140.9977	327
144.0212	89
148.0632	81
154.0055	49
156.0211	165
168.0086	263
168.9927	59
170.0003	58
183.0321	192
184.0162	999
187.0032	116
212.0349	251
227.0581	58
