Mass spectrum: Sulfamethoxazole; LC-ESI-ITFT; MS2; CE: 60%; R=15000; [M+H]+
Name: Sulfamethoxazole
Name: 4-amino-N-(5-methyl-1,2-oxazol-3-yl)benzenesulfonamide
Formula: C10H11N3O3S
Exact mass: 253.0521
SMILES: CC1=CC(=NO1)NS(=O)(=O)C2=CC=C(C=C2)N
InChI: InChI=1S/C10H11N3O3S/c1-7-6-10(12-16-7)13-17(14,15)9-4-2-8(11)3-5-9/h2-6H,11H2,1H3,(H,12,13)
Instrument: LTQ Orbitrap XL Thermo Scientific
Instrument type: LC-ESI-ITFT
Ms type: MS2
Ion mode: POSITIVE
Ionization: ESI
Fragmentation mode: HCD
Collision energy: 60% (nominal)
Resolution: 15000
Column name: Kinetex Evo C18 2.6 um 50 x 2.1 mm
Retention time: 5.886 min
Base peak: 189.1022
Precursor m/z: 254.0594
Precursor type: [M+H]+
m/z	relative intensity	assigned
65.0384	69	C5H5+
80.0493	10	C5H6N+
92.0495	999	C6H6N+
93.0573	181	C6H7N+
94.0652	11	C6H8N+
99.0553	197	C4H7N2O+
107.0604	16	C6H7N2+
108.0444	828	C6H6NO+
110.0601	56	C6H8NO+
120.0555	21	C6H6N3+
146.0713	23	C8H8N3+
147.0791	69	C8H9N3+
156.0114	291	C6H6NO2S+
160.0869	88	C9H10N3+
