Mass spectrum: b Zearalenol; LC-ESI-ITFT; MS2; CE: 60%; R=7500; [M-H]-
Name: b Zearalenol
Name: 8,16,18-trihydroxy-4-methyl-3-oxabicyclo[12.4.0]octadeca-1(14),12,15,17-tetraen-2-one
Formula: C18H24O5
Exact mass: 320.16237
SMILES: CC1CCCC(CCCC=CC2=C(C(=CC(=C2)O)O)C(=O)O1)O
InChI: InChI=1S/C18H24O5/c1-12-6-5-9-14(19)8-4-2-3-7-13-10-15(20)11-16(21)17(13)18(22)23-12/h3,7,10-12,14,19-21H,2,4-6,8-9H2,1H3
Instrument: LTQ Orbitrap XL Thermo Scientific
Instrument type: LC-ESI-ITFT
Ms type: MS2
Ion mode: NEGATIVE
Ionization: ESI
Fragmentation mode: HCD
Collision energy: 60 % (nominal)
Resolution: 7500
Column name: Hypersil GOLD C18 1.9 um 100 x 2.1 mm Thermo Fisher Scientific
Retention time: 20.923 min
Base peak: 319.1557
Precursor m/z: 319.1551
Precursor type: [M-H]-
Precursor intensity: 3973318.476074
m/z	relative intensity	assigned
205.0874	69	C12H13O3-
275.1655	140	C17H23O3-
301.1445	35	C18H21O4-
319.1557	999	C18H23O5-
