Mass spectrum: Lateropyrone; LC-ESI-ITFT; MS2; CE: 20%; R=7500; [M+H]+
Name: Lateropyrone
Name: methyl 5,9-dihydroxy-2-methyl-4,6-dioxopyrano[3,4-g]chromene-8-carboxylate
Formula: C15H10O8
Exact mass: 318.0376
SMILES: CC1=CC(=O)C2=C(O1)C=C3C(=C2O)C(=O)OC(=C3O)C(=O)OC
InChI: InChI=1S/C15H10O8/c1-5-3-7(16)10-8(22-5)4-6-9(12(10)18)14(19)23-13(11(6)17)15(20)21-2/h3-4,17-18H,1-2H3
Instrument: LTQ Orbitrap XL Thermo Scientific
Instrument type: LC-ESI-ITFT
Ms type: MS2
Ion mode: POSITIVE
Ionization: ESI
Fragmentation mode: HCD
Collision energy: 20 % (nominal)
Resolution: 7500
Column name: Hypersil GOLD C18 1.9 um 100 x 2.1 mm Thermo Fisher Scientific
Retention time: 17.533 min
Base peak: 319.0453
Precursor m/z: 319.0448
Precursor type: [M+H]+
Precursor intensity: 2393160.892578
m/z	relative intensity	assigned
287.0188	444	C14H7O7+
319.0452	999	C15H11O8+
