Mass spectrum: Sulfamoxole; LC-ESI-ITFT; MS2; CE: 155%; R=15000; [M+H]+
Name: Sulfamoxole
Name: 4-amino-N-(4,5-dimethyl-1,3-oxazol-2-yl)benzenesulfonamide
Formula: C11H13N3O3S
Exact mass: 267.0678
SMILES: CC1=C(OC(=N1)NS(=O)(=O)C2=CC=C(C=C2)N)C
InChI: InChI=1S/C11H13N3O3S/c1-7-8(2)17-11(13-7)14-18(15,16)10-5-3-9(12)4-6-10/h3-6H,12H2,1-2H3,(H,13,14)
Instrument: LTQ Orbitrap XL Thermo Scientific
Instrument type: LC-ESI-ITFT
Ms type: MS2
Ion mode: POSITIVE
Ionization: ESI
Fragmentation mode: HCD
Collision energy: 155% (nominal)
Resolution: 15000
Column name: Kinetex Evo C18 2.6 um 50 x 2.1 mm
Retention time: 3.948 min
Base peak: 268.0751
Precursor m/z: 268.075
Precursor type: [M+H]+
m/z	relative intensity	assigned
53.0384	49	C4H5+
54.0336	22	C3H4N+
65.0384	999	C5H5+
66.0337	31	C4H4N+
68.0493	8	C4H6N+
70.065	65	C4H8N+
80.0495	346	C5H6N+
92.0495	73	C6H6N+
108.0444	65	C6H6NO+
110.0597	7	C6H8NO+
111.0551	20	C5H7N2O+
113.071	8	C5H9N2O+
