Mass spectrum: Mefruside; LC-ESI-ITFT; MS2; CE: 50%; R=7500; [M+H]+
Name: Mefruside
Name: 4-Chloro-N1-methyl-N1-[(2-methyloxolan-2-yl)methyl]benzene-1,3-disulfonamide
Formula: C13H19ClN2O5S2
Exact mass: 382.0424
SMILES: CN(CC1(C)CCCO1)S(=O)(=O)C1=CC=C(Cl)C(=C1)S(N)(=O)=O
InChI: InChI=1S/C13H19ClN2O5S2/c1-13(6-3-7-21-13)9-16(2)23(19,20)10-4-5-11(14)12(8-10)22(15,17)18/h4-5,8H,3,6-7,9H2,1-2H3,(H2,15,17,18)
Instrument: LTQ Orbitrap XL Thermo Fisher Scientific
Instrument type: LC-ESI-ITFT
Ms type: MS2
Ion mode: POSITIVE
Ionization: ESI
Fragmentation mode: HCD
Collision energy: 50% (nominal)
Resolution: 7500
Column name: Hypersil GOLD C18 1.9 um 100 x 2.1 mm Thermo Fisher Scientific
Precursor m/z: 383.0497
Precursor type: [M+H]+
m/z	relative intensity
57.0333	14
69.0697	27
73.1065	16
79.054	55
81.0697	999
84.0806	578
86.0599	113
96.0807	40
97.0645	37
99.0804	311
110.0966	43
111.1042	21
112.112	21
128.1069	166
129.1147	423
135.985	8
142.0057	5
142.9895	44
156.0204	14
188.9291	11
198.7893	18
200.3136	15
203.0752	6
203.1055	10
203.9879	78
212.0904	7
217.9786	436
221.9982	9
237.9393	6
253.9346	296
267.9496	56
268.4248	10
273.8045	24
284.9765	49
296.9771	16
350.5973	13
