Mass spectrum: Mefruside; LC-ESI-QFT; MS2; CE: 20%; R=30000; [M+H]+
Name: Mefruside
Name: 4-Chloro-N1-methyl-N1-[(2-methyloxolan-2-yl)methyl]benzene-1,3-disulfonamide
Formula: C13H19ClN2O5S2
Exact mass: 382.0424
SMILES: CN(CC1(C)CCCO1)S(=O)(=O)C1=CC=C(Cl)C(=C1)S(N)(=O)=O
InChI: InChI=1S/C13H19ClN2O5S2/c1-13(6-3-7-21-13)9-16(2)23(19,20)10-4-5-11(14)12(8-10)22(15,17)18/h4-5,8H,3,6-7,9H2,1-2H3,(H2,15,17,18)
Instrument: Orbitrap Fusion Tribrid Thermo Fisher Scientific
Instrument type: LC-ESI-QFT
Ms type: MS2
Ion mode: POSITIVE
Ionization: ESI
Fragmentation mode: HCD
Collision energy: 20% (nominal)
Resolution: 30000
Precursor m/z: 383.0497
Precursor type: [M+H]+
m/z	relative intensity
81.0701	565
84.0813	96
97.0653	19
99.0806	520
128.1073	172
129.1149	999
253.9359	50
267.9511	16
284.9765	803
296.9777	102
365.0399	24
383.0497	81
