Mass spectrum: Cyclizine; LC-ESI-ITFT; MS2; CE: 75%; R=7500; [M+H]+
Name: Cyclizine
Name: 1-(Diphenylmethyl)-4-methylpiperazine
Formula: C18H22N2
Exact mass: 266.1783
SMILES: CN1CCN(CC1)C(C1=CC=CC=C1)C1=CC=CC=C1
InChI: InChI=1S/C18H22N2/c1-19-12-14-20(15-13-19)18(16-8-4-2-5-9-16)17-10-6-3-7-11-17/h2-11,18H,12-15H2,1H3
Instrument: LTQ Orbitrap XL Thermo Fisher Scientific
Instrument type: LC-ESI-ITFT
Ms type: MS2
Ion mode: POSITIVE
Ionization: ESI
Fragmentation mode: HCD
Collision energy: 75% (nominal)
Resolution: 7500
Column name: Hypersil GOLD C18 1.9 um 100 x 2.1 mm Thermo Fisher Scientific
Precursor m/z: 267.1856
Precursor type: [M+H]+
m/z	relative intensity
57.1432	1
57.1584	1
99.0918	2
128.062	2
141.07	4
152.0623	234
165.0702	246
166.078	98
167.0857	999
