Mass spectrum: Nylidrin; LC-ESI-ITFT; MS2; CE: 120%; R=15000; [M+H]+
Name: Nylidrin
Name: 4-[1-hydroxy-2-(4-phenylbutan-2-ylamino)propyl]phenol
Formula: C19H25NO2
Exact mass: 299.1885
SMILES: CC(CCC1=CC=CC=C1)NC(C)C(C2=CC=C(C=C2)O)O
InChI: InChI=1S/C19H25NO2/c1-14(8-9-16-6-4-3-5-7-16)20-15(2)19(22)17-10-12-18(21)13-11-17/h3-7,10-15,19-22H,8-9H2,1-2H3
Instrument: LTQ Orbitrap XL Thermo Scientific
Instrument type: LC-ESI-ITFT
Ms type: MS2
Ion mode: POSITIVE
Ionization: ESI
Fragmentation mode: HCD
Collision energy: 120% (nominal)
Resolution: 15000
Column name: Kinetex Evo C18 2.6 um 50 x 2.1 mm
Retention time: 6.880 min
Base peak: 300.1958
Precursor m/z: 300.1958
Precursor type: [M+H]+
m/z	relative intensity	assigned
55.0176	7	C3H3O+
56.0492	15	C3H6N+
57.0333	2	C3H5O+
65.0384	68	C5H5+
77.0385	50	C6H5+
79.0541	129	C6H7+
81.0698	4	C6H9+
91.0542	999	C7H7+
94.0413	15	C6H6O+
95.0491	16	C6H7O+
103.0542	101	C8H7+
105.0447	60	C6H5N2+
105.0698	197	C8H9+
107.0491	82	C7H7O+
108.0571	4	C7H8O+
109.0647	7	C7H9O+
115.0542	47	C9H7+
117.0577	3	C8H7N+
118.0413	4	C8H6O+
120.0442	16	C7H6NO+
131.0492	16	C9H7O+
132.0568	3	C9H8O+
133.0647	10	C9H9O+
134.0601	18	C8H8NO+
135.0678	30	C8H9NO+
