Mass spectrum: Rugulotrosin A; LC-ESI-ITFT; MS2; CE: 40%; R=7500; [M-H]-
Name: Rugulotrosin A
Name: CID 118797325
Name: methyl 4,8,9-trihydroxy-6-methyl-1-oxo-7-(1,5,9-trihydroxy-10a-methoxycarbonyl-3-methyl-8-oxo-6,7-dihydro-5H-xanthen-2-yl)-3,4-dihydro-2H-xanthene-4a-carboxylate
Formula: C32H30O14
Exact mass: 638.16356
SMILES: CC1=CC2=C(C(=C1C3=C(C4=C(C=C3C)OC5(C(CCC(=O)C5=C4O)O)C(=O)OC)O)O)C(=C6C(=O)CCC(C6(O2)C(=O)OC)O)O
InChI: InChI=1S/C32H30O14/c1-11-9-15-21(27(39)23-13(33)5-7-17(35)31(23,45-15)29(41)43-3)25(37)19(11)20-12(2)10-16-22(26(20)38)28(40)24-14(34)6-8-18(36)32(24,46-16)30(42)44-4/h9-10,17-18,35-40H,5-8H2,1-4H3
Instrument: LTQ Orbitrap XL Thermo Scientific
Instrument type: LC-ESI-ITFT
Ms type: MS2
Ion mode: NEGATIVE
Ionization: ESI
Fragmentation mode: HCD
Collision energy: 40 % (nominal)
Resolution: 7500
Column name: Hypersil GOLD C18 1.9 um 100 x 2.1 mm Thermo Fisher Scientific
Retention time: 21.438 min
Base peak: 637.1564
Precursor m/z: 637.1563
Precursor type: [M-H]-
Precursor intensity: 7712815.808594
m/z	relative intensity	assigned
56.0269	78	C3H4O-
179.0342	74	C9H7O4-
181.0144	118	C8H5O5-
347.093	80	C21H15O5-
533.1459	84	C29H25O10-
577.1373	439	C30H25O12-
637.1544	999	C32H29O14-
