Mass spectrum: Dothiepin; LC-ESI-QFT; MS2; CE: 50%; R=17500; [M+H]+
Name: Dothiepin
Name: 3-(Dibenzo[b,e]thiepin-11(6H)-ylidene)-N,N-dimethylpropan-1-amine
Formula: C19H21NS
Exact mass: 295.1395
SMILES: CN(C)CCC=C1C2=CC=CC=C2CSC2=C1C=CC=C2
InChI: InChI=1S/C19H21NS/c1-20(2)13-7-11-17-16-9-4-3-8-15(16)14-21-19-12-6-5-10-18(17)19/h3-6,8-12H,7,13-14H2,1-2H3
Instrument: Q Exactive Thermo Fisher Scientific
Instrument type: LC-ESI-QFT
Ms type: MS2
Ion mode: POSITIVE
Ionization: ESI
Fragmentation mode: HCD
Collision energy: 50% (nominal)
Resolution: 17500
Column name: Hypersil GOLD 1.9 um 2.1 x 100 mm Thermo Fisher Scientific
Precursor m/z: 296.1468
Precursor type: [M+H]+
m/z	relative intensity
58.066	382
91.0549	348
117.0702	578
123.0266	271
147.0264	289
165.0699	104
178.0777	139
191.0856	147
192.0935	175
202.0777	99
203.0856	391
209.042	242
210.0499	173
217.1014	334
218.1092	870
221.0421	286
222.0498	313
223.0576	999
225.0734	260
236.0656	170
