Mass spectrum: Cyclizine; LC-ESI-ITFT; MS2; CE: 160%; R=15000; [M+H]+
Name: Cyclizine
Name: 1-benzhydryl-4-methylpiperazine
Formula: C18H22N2
Exact mass: 266.1783
SMILES: CN1CCN(CC1)C(C2=CC=CC=C2)C3=CC=CC=C3
InChI: InChI=1S/C18H22N2/c1-19-12-14-20(15-13-19)18(16-8-4-2-5-9-16)17-10-6-3-7-11-17/h2-11,18H,12-15H2,1H3
Instrument: LTQ Orbitrap XL Thermo Scientific
Instrument type: LC-ESI-ITFT
Ms type: MS2
Ion mode: POSITIVE
Ionization: ESI
Fragmentation mode: HCD
Collision energy: 160% (nominal)
Resolution: 15000
Column name: Kinetex Evo C18 2.6 um 50 x 2.1 mm
Retention time: 7.682 min
Base peak: 267.1856
Precursor m/z: 267.1856
Precursor type: [M+H]+
m/z	relative intensity	assigned
63.0227	11	C5H3+
65.0384	37	C5H5+
75.0227	3	C6H3+
76.0308	4	C6H4+
77.0385	6	C6H5+
78.0464	19	C6H6+
89.0386	35	C7H5+
91.0543	25	C7H7+
102.0464	57	C8H6+
105.0448	12	C6H5N2+
115.0542	331	C9H7+
125.039	4	C10H5+
126.0464	72	C10H6+
127.0543	14	C10H7+
128.0621	182	C10H8+
139.0543	110	C11H7+
141.0699	45	C11H9+
150.0465	45	C12H6+
151.0543	95	C12H7+
152.062	520	C12H8+
155.0602	19	C10H7N2+
163.0543	79	C13H7+
164.0621	167	C13H8+
165.0699	999	C13H9+
166.0774	16	C13H10+
169.0649	44	C12H9O+
179.0604	52	C12H7N2+
