Mass spectrum: Ethambutol; LC-ESI-QFT; MS2; CE: CE15; R=17500; [M+H]+
Name: Ethambutol
Name: Myambutol
Name: 2-[2-(1-hydroxybutan-2-ylamino)ethylamino]butan-1-ol
Formula: C10H24N2O2
Exact mass: 204.1838
SMILES: CCC(CO)NCCNC(CC)CO
InChI: InChI=1S/C10H24N2O2/c1-3-9(7-13)11-5-6-12-10(4-2)8-14/h9-14H,3-8H2,1-2H3
Instrument: Q Exactive Thermo Fisher Scientific
Instrument type: LC-ESI-QFT
Ms type: MS2
Ion mode: POSITIVE
Ionization: ESI
Fragmentation mode: HCD
Collision energy: CE15
Resolution: 17500
Column name: Acquity UPLC BEH C18 1.7 um, 2.1 x 150 mm, Waters
Retention time: 4.505 min
Base peak: 223.0629
Precursor m/z: 205.1911
Precursor type: [M+H]+
m/z	relative intensity	assigned
116.1076	999	C6H14NO+
