Mass spectrum: Phenazone; LC-ESI-QFT; MS2; CE: 75%; R=17500; [M+H]+
Name: Phenazone
Name: 1,5-Dimethyl-2-phenyl-1,2-dihydro-3H-pyrazol-3-one
Formula: C11H12N2O
Exact mass: 188.095
SMILES: CN1N(C(=O)C=C1C)C1=CC=CC=C1
InChI: InChI=1S/C11H12N2O/c1-9-8-11(14)13(12(9)2)10-6-4-3-5-7-10/h3-8H,1-2H3
Instrument: Q Exactive Thermo Fisher Scientific
Instrument type: LC-ESI-QFT
Ms type: MS2
Ion mode: POSITIVE
Ionization: ESI
Fragmentation mode: HCD
Collision energy: 75% (nominal)
Resolution: 17500
Column name: Hypersil GOLD 1.9 um 2.1 x 100 mm Thermo Fisher Scientific
Precursor m/z: 189.1023
Precursor type: [M+H]+
m/z	relative intensity
56.0504	999
58.066	622
65.0395	218
91.0548	207
95.0497	409
96.0688	180
104.05	686
105.0453	197
106.0657	668
117.0704	219
118.0655	251
120.0811	162
130.0654	354
131.0733	237
144.0811	183
145.0764	141
146.0841	173
147.0919	296
189.1023	173
