Mass spectrum: Zearalenone; LC-ESI-ITFT; MS2; CE: 50%; R=7500; [M+H]+
Name: Zearalenone
Name: 15,17-Dihydroxy-11-methyl-12-oxabicyclo[12.4.0]octadeca-1(14),2,15,17-tetraene-7,13-dione
Name: 16,18-dihydroxy-4-methyl-3-oxabicyclo[12.4.0]octadeca-1(14),12,15,17-tetraene-2,8-dione
Formula: C18H22O5
Exact mass: 318.1467
SMILES: CC1CCCC(=O)CCCC=CC2=C(C(=CC(=C2)O)O)C(=O)O1
InChI: InChI=1S/C18H22O5/c1-12-6-5-9-14(19)8-4-2-3-7-13-10-15(20)11-16(21)17(13)18(22)23-12/h3,7,10-12,20-21H,2,4-6,8-9H2,1H3
Instrument: LTQ Orbitrap XL Thermo Scientific
Instrument type: LC-ESI-ITFT
Ms type: MS2
Ion mode: POSITIVE
Ionization: ESI
Fragmentation mode: HCD
Collision energy: 50 % (nominal)
Resolution: 7500
Column name: Hypersil GOLD C18 1.9 um 100 x 2.1 mm Thermo Fisher Scientific
Retention time: 21.215 min
Base peak: 319.1552
Precursor m/z: 319.154
Precursor type: [M+H]+
Precursor intensity: 9215349.875732
m/z	relative intensity	assigned
55.0178	33	C3H3O+
69.0699	65	C5H9+
97.0649	100	C6H9O+
107.0855	10	C8H11+
119.086	17	C9H11+
123.0442	11	C7H7O2+
125.0964	59	C8H13O+
133.1017	10	C10H13+
149.0603	20	C9H9O2+
151.112	18	C10H15O+
157.0648	46	C11H9O+
161.0604	43	C10H9O2+
163.0386	16	C9H7O3+
163.0755	23	C10H11O2+
165.0182	33	C8H5O4+
169.0651	13	C12H9O+
173.0599	15	C11H9O2+
175.0393	28	C10H7O3+
175.0755	44	C11H11O2+
177.0547	65	C10H9O3+
177.0911	35	C11H13O2+
185.06	444	C12H9O2+
187.0756	999	C12H11O2+
189.0549	269	C11H9O3+
193.0489	11	C10H9O4+
199.0755	41	C13H11O2+
201.0916	34	C13H13O2+
203.0705	594	C12H11O3+
205.0492	61	C11H9O4+
205.0861	297	C12H13O3+
213.0547	115	C13H9O3+
213.0912	43	C14H13O2+
215.0706	154	C13H11O3+
215.1075	19	C14H15O2+
217.0862	73	C13H13O3+
221.0814	116	C12H13O4+
225.0919	14	C15H13O2+
227.0707	81	C14H11O3+
228.079	10	C14H12O3+
229.0861	160	C14H13O3+
231.0655	574	C13H11O4+
233.0815	15	C13H13O4+
237.0902	10	C16H13O2+
240.0788	6	C15H12O3+
241.0862	144	C15H13O3+
241.1218	23	C16H17O2+
243.1017	26	C15H15O3+
249.076	85	C13H13O5+
255.1028	24	C16H15O3+
255.1381	148	C17H19O2+
257.1538	26	C17H21O2+
259.0973	35	C15H15O4+
265.1225	174	C18H17O2+
283.1333	761	C18H19O3+
301.1439	291	C18H21O4+
319.1548	40	C18H23O5+
