Mass spectrum: Desipramine; ESI-QTOF; MS2; CE: 25eV; R=15000; [M+H]+
Name: Desipramine
Name: 3-(10,11-Dihydro-5H-dibenzo[b,f]azepin-5-yl)-N-methylpropan-1-amine
Formula: C18H22N2
Exact mass: 266.1783
SMILES: CNCCCN1C2=C(CCC3=C1C=CC=C3)C=CC=C2
InChI: InChI=1S/C18H22N2/c1-19-13-6-14-20-17-9-4-2-7-15(17)11-12-16-8-3-5-10-18(16)20/h2-5,7-10,19H,6,11-14H2,1H3
Instrument: TripleTOF 5600+SCIEX
Instrument type: ESI-QTOF
Ms type: MS2
Ion mode: POSITIVE
Ionization: ESI
Fragmentation mode: CID
Collision energy: 25 eV
Resolution: 15000
Precursor m/z: 267.1856
Precursor type: [M+H]+
m/z	relative intensity
55.0568	1
56.052	2
57.0718	5
67.056	2
69.0716	1
70.0668	1
71.0872	3
72.083	999
81.0712	2
83.0868	1
85.1024	2
91.0552	1
95.0863	5
97.1021	1
105.0704	1
107.0858	1
109.1016	3
111.1172	1
123.1169	1
130.0653	1
158.0963	2
167.0728	1
193.0884	30
195.1041	8
196.1119	12
208.112	188
210.1275	1
236.1432	60
267.1856	92
