Mass spectrum: Antipyrine; LC-ESI-ITFT; MS2; CE: 35%; R=15000; [M+H]+
Name: Antipyrine
Name: 1,5-dimethyl-2-phenylpyrazol-3-one
Formula: C11H12N2O
Exact mass: 188.0950
SMILES: CC1=CC(=O)N(N1C)C2=CC=CC=C2
InChI: InChI=1S/C11H12N2O/c1-9-8-11(14)13(12(9)2)10-6-4-3-5-7-10/h3-8H,1-2H3
Instrument: LTQ Orbitrap XL Thermo Scientific
Instrument type: LC-ESI-ITFT
Ms type: MS2
Ion mode: POSITIVE
Ionization: ESI
Fragmentation mode: HCD
Collision energy: 35% (nominal)
Resolution: 15000
Column name: Kinetex Evo C18 2.6 um 50 x 2.1 mm
Retention time: 5.575 min
Base peak: 189.1023
Precursor m/z: 189.1022
Precursor type: [M+H]+
m/z	relative intensity	assigned
58.0649	1	C3H8N+
132.0811	1	C9H10N+
144.081	1	C10H10N+
146.084	1	C9H10N2+
146.0966	1	C10H12N+
147.0917	4	C9H11N2+
161.1074	8	C10H13N2+
174.0787	2	C10H10N2O+
189.1022	999	C11H13N2O+
