Mass spectrum: Dixyrazine ; LC-ESI-ITFT; MS2; CE: 35%; R=7500; [M+H]+
Name: Dixyrazine
Name: 2-(2-{4-[2-Methyl-3-(10H-phenothiazin-10-yl)propyl]piperazin-1-yl}ethoxy)ethan-1-ol
Formula: C24H33N3O2S
Exact mass: 427.2293
SMILES: CC(CN1CCN(CCOCCO)CC1)CN1C2=CC=CC=C2SC2=CC=CC=C12
InChI: InChI=1S/C24H33N3O2S/c1-20(18-26-12-10-25(11-13-26)14-16-29-17-15-28)19-27-21-6-2-4-8-23(21)30-24-9-5-3-7-22(24)27/h2-9,20,28H,10-19H2,1H3
Instrument: LTQ Orbitrap XL Thermo Fisher Scientific
Instrument type: LC-ESI-ITFT
Ms type: MS2
Ion mode: POSITIVE
Ionization: ESI
Fragmentation mode: HCD
Collision energy: 35% (nominal)
Resolution: 7500
Column name: Hypersil GOLD C18 1.9 um 100 x 2.1 mm Thermo Fisher Scientific
Precursor m/z: 428.2367
Precursor type: [M+H]+
m/z	relative intensity
57.0826	1
57.1088	2
57.1185	2
57.1649	1
87.0438	1
97.0759	3
98.0838	11
99.0916	2
100.112	1
101.1073	41
125.1073	11
140.1306	4
144.1021	2
155.1544	3
172.1207	10
180.0799	1
187.1442	431
199.0452	1
212.053	97
221.1212	1
229.1914	999
254.1001	40
366.2005	2
428.2367	572
