Mass spectrum: Desipramine; LC-ESI-ITFT; MS2; CE: 115%; R=15000; [M+H]+
Name: Desipramine
Name: 3-(5,6-dihydrobenzo[b][1]benzazepin-11-yl)-N-methylpropan-1-amine
Formula: C18H22N2
Exact mass: 266.1783
SMILES: CNCCCN1C2=CC=CC=C2CCC3=CC=CC=C31
InChI: InChI=1S/C18H22N2/c1-19-13-6-14-20-17-9-4-2-7-15(17)11-12-16-8-3-5-10-18(16)20/h2-5,7-10,19H,6,11-14H2,1H3
Instrument: LTQ Orbitrap XL Thermo Scientific
Instrument type: LC-ESI-ITFT
Ms type: MS2
Ion mode: POSITIVE
Ionization: ESI
Fragmentation mode: HCD
Collision energy: 115% (nominal)
Resolution: 15000
Column name: Kinetex Evo C18 2.6 um 50 x 2.1 mm
Retention time: 8.449 min
Base peak: 267.1856
Precursor m/z: 267.1856
Precursor type: [M+H]+
m/z	relative intensity	assigned
56.0492	20	C3H6N+
70.0649	11	C4H8N+
72.0806	999	C4H10N+
90.0463	23	C7H6+
91.0542	74	C7H7+
103.0538	13	C8H7+
105.0695	8	C8H9+
106.0649	12	C7H8N+
115.054	17	C9H7+
117.0573	13	C8H7N+
118.0652	22	C8H8N+
130.0652	16	C9H8N+
152.0619	15	C12H8+
165.0698	89	C13H9+
166.0777	34	C13H10+
167.0729	98	C12H9N+
178.0652	12	C13H8N+
178.0777	27	C14H10+
179.0733	12	C13H9N+
180.0808	134	C13H10N+
191.073	36	C14H9N+
192.0808	352	C14H10N+
193.0886	824	C14H11N+
194.0963	221	C14H12N+
204.0804	11	C15H10N+
206.096	42	C15H12N+
207.1038	24	C15H13N+
208.1119	36	C15H14N+
220.1119	20	C16H14N+
