Mass spectrum: Alternariol monomethyl ether; LC-ESI-ITFT; MS2; CE: 15%; R=7500; [M+H]+
Name: Alternariol monomethyl ether
Name: 3,7-dihydroxy-9-methoxy-1-methylbenzo[c]chromen-6-one
Formula: C15H12O5
Exact mass: 272.0685
SMILES: CC1=CC(=CC2=C1C3=C(C(=CC(=C3)OC)O)C(=O)O2)O
InChI: InChI=1S/C15H12O5/c1-7-3-8(16)4-12-13(7)10-5-9(19-2)6-11(17)14(10)15(18)20-12/h3-6,16-17H,1-2H3
Instrument: LTQ Orbitrap XL Thermo Scientific
Instrument type: LC-ESI-ITFT
Ms type: MS2
Ion mode: POSITIVE
Ionization: ESI
Fragmentation mode: HCD
Collision energy: 15 % (nominal)
Resolution: 7500
Column name: Hypersil GOLD C18 1.9 um 100 x 2.1 mm Thermo Fisher Scientific
Retention time: 22.191 min
Base peak: 273.0764
Precursor m/z: 273.0757
Precursor type: [M+H]+
Precursor intensity: 3216220.347656
m/z	relative intensity	assigned
273.0764	999	C15H13O5+
