Mass spectrum: Amiloride; ESI-QTOF; MS2; CE: 20eV; R=15000; [M+H]+
Name: Amiloride
Name: 3,5-Diamino-N-carbamimidoyl-6-chloropyrazine-2-carboxamide
Formula: C6H8ClN7O
Exact mass: 229.0479
SMILES: NC(=N)NC(=O)C1=NC(Cl)=C(N)N=C1N
InChI: InChI=1S/C6H8ClN7O/c7-2-4(9)13-3(8)1(12-2)5(15)14-6(10)11/h(H4,8,9,13)(H4,10,11,14,15)
Instrument: TripleTOF 5600+SCIEX
Instrument type: ESI-QTOF
Ms type: MS2
Ion mode: POSITIVE
Ionization: ESI
Fragmentation mode: CID
Collision energy: 20 eV
Resolution: 15000
Precursor m/z: 230.0552
Precursor type: [M+H]+
m/z	relative intensity
60.0574	94
61.041	1
63.9964	1
86.0352	9
88.9903	1
100.9899	1
108.0426	4
116.0004	37
143.0109	57
145.0263	3
161.0213	6
170.0216	2
171.0055	959
188.032	18
189.016	8
213.027	26
230.0552	999
