Mass spectrum: Dosulepin; LC-ESI-ITFT; MS2; CE: 120%; R=15000; [M+H]+
Name: Dosulepin
Name: Dothiepin
Name: 3-(6H-benzo[c][1]benzothiepin-11-ylidene)-N,N-dimethylpropan-1-amine
Formula: C19H21NS
Exact mass: 295.1395
SMILES: CN(C)CCC=C1C2=CC=CC=C2CSC3=CC=CC=C31
InChI: InChI=1S/C19H21NS/c1-20(2)13-7-11-17-16-9-4-3-8-15(16)14-21-19-12-6-5-10-18(17)19/h3-6,8-12H,7,13-14H2,1-2H3
Instrument: LTQ Orbitrap XL Thermo Scientific
Instrument type: LC-ESI-ITFT
Ms type: MS2
Ion mode: POSITIVE
Ionization: ESI
Fragmentation mode: CID
Collision energy: 120% (nominal)
Resolution: 15000
Column name: Kinetex Evo C18 2.6 um 50 x 2.1 mm
Retention time: 8.160 min
Base peak: 296.1469
Precursor m/z: 296.1467
Precursor type: [M+H]+
m/z	relative intensity	assigned
91.0542	14	C7H7+
115.0544	3	C9H7+
117.0699	14	C9H9+
123.0264	8	C7H7S+
141.0695	5	C11H9+
142.0777	4	C11H10+
147.0262	209	C9H7S+
173.0418	15	C11H9S+
191.0855	28	C15H11+
209.0419	72	C14H9S+
210.0507	2	C14H10S+
217.1011	38	C17H13+
218.1089	122	C17H14+
221.0417	3	C15H9S+
222.0498	40	C15H10S+
223.0576	297	C15H11S+
225.0731	999	C15H13S+
236.0653	27	C16H12S+
251.0889	487	C17H15S+
253.1044	46	C17H17S+
265.1044	7	C18H17S+
