Mass spectrum: Nylidrin; LC-ESI-ITFT; MS2; CE: 80%; R=7500; [M+H]+
Name: Nylidrin
Name: 4-{1-Hydroxy-2-[(4-phenylbutan-2-yl)amino]propyl}phenol
Formula: C19H25NO2
Exact mass: 299.1885
SMILES: CC(CCC1=CC=CC=C1)NC(C)C(O)C1=CC=C(O)C=C1
InChI: InChI=1S/C19H25NO2/c1-14(8-9-16-6-4-3-5-7-16)20-15(2)19(22)17-10-12-18(21)13-11-17/h3-7,10-15,19-22H,8-9H2,1-2H3
Instrument: LTQ Orbitrap XL Thermo Fisher Scientific
Instrument type: LC-ESI-ITFT
Ms type: MS2
Ion mode: POSITIVE
Ionization: ESI
Fragmentation mode: HCD
Collision energy: 80% (nominal)
Resolution: 7500
Column name: Hypersil GOLD C18 1.9 um 100 x 2.1 mm Thermo Fisher Scientific
Precursor m/z: 300.1959
Precursor type: [M+H]+
m/z	relative intensity
56.0493	12
57.0008	2
79.0541	23
81.0698	3
89.0217	3
91.0541	999
95.049	8
103.0543	21
107.0491	48
109.0648	32
115.0542	20
117.0568	2
131.0489	9
132.0807	6
133.0648	486
135.0678	59
136.2088	1
150.0914	247
151.0753	2
