Mass spectrum: Dibucaine; LC-ESI-ITFT; MS2; CE: 130%; R=15000; [M+H]+
Name: Dibucaine
Name: 2-butoxy-N-[2-(diethylamino)ethyl]quinoline-4-carboxamide
Formula: C20H29N3O2
Exact mass: 343.2260
SMILES: CCCCOC1=NC2=CC=CC=C2C(=C1)C(=O)NCCN(CC)CC
InChI: InChI=1S/C20H29N3O2/c1-4-7-14-25-19-15-17(16-10-8-9-11-18(16)22-19)20(24)21-12-13-23(5-2)6-3/h8-11,15H,4-7,12-14H2,1-3H3,(H,21,24)
Instrument: LTQ Orbitrap XL Thermo Scientific
Instrument type: LC-ESI-ITFT
Ms type: MS2
Ion mode: POSITIVE
Ionization: ESI
Fragmentation mode: HCD
Collision energy: 130% (nominal)
Resolution: 15000
Column name: Kinetex Evo C18 2.6 um 50 x 2.1 mm
Retention time: 8.751 min
Base peak: 344.2333
Precursor m/z: 344.2333
Precursor type: [M+H]+
m/z	relative intensity	assigned
57.0696	8	C4H9+
72.0806	6	C4H10N+
89.0385	231	C7H5+
90.0337	5	C6H4N+
91.0545	3	C7H7+
115.0418	3	C8H5N+
115.0541	5	C9H7+
116.0494	999	C8H6N+
117.0572	8	C8H7N+
128.0494	9	C9H6N+
129.0446	5	C8H5N2+
130.0653	6	C9H8N+
134.06	24	C8H8NO+
143.0364	6	C9H5NO+
144.0443	23	C9H6NO+
145.0522	8	C9H7NO+
153.0446	17	C10H5N2+
154.0396	6	C9H4N3+
171.0552	7	C10H7N2O+
