Mass spectrum: Mefruside; LC-ESI-QTOF; MS2; CE: 25 eV; R=3600; [M+H]+
Name: Mefruside
Name: 4-Chloro-N1-methyl-N1-[(2-methyloxolan-2-yl)methyl]benzene-1,3-disulfonamide
Formula: C13H19ClN2O5S2
Exact mass: 382.0424
SMILES: CN(CC1(C)CCCO1)S(=O)(=O)C1=CC=C(Cl)C(=C1)S(N)(=O)=O
InChI: InChI=1S/C13H19ClN2O5S2/c1-13(6-3-7-21-13)9-16(2)23(19,20)10-4-5-11(14)12(8-10)22(15,17)18/h4-5,8H,3,6-7,9H2,1-2H3,(H2,15,17,18)
Instrument: 6614 QTOF Agilent
Instrument type: LC-ESI-QTOF
Ms type: MS2
Ion mode: POSITIVE
Ionization: ESI
Fragmentation mode: CID
Collision energy: 25 eV
Resolution: 3600
Precursor m/z: 383.0497
Precursor type: [M+H]+
m/z	relative intensity
53.0383	60
57.0333	238
69.0696	128
79.0535	146
81.0694	999
84.0802	878
86.0581	151
96.0805	94
99.0793	236
129.1123	277
140.9703	69
142.0033	59
142.988	230
172.9423	79
189.97	379
203.9867	129
253.9326	159
267.9466	64
284.9732	95
