Mass spectrum: Phenazone; ESI-QTOF; MS2; CE: 45eV; R=15000; [M+H]+
Name: Phenazone
Name: 1,5-Dimethyl-2-phenyl-1,2-dihydro-3H-pyrazol-3-one
Formula: C11H12N2O
Exact mass: 188.095
SMILES: CN1N(C(=O)C=C1C)C1=CC=CC=C1
InChI: InChI=1S/C11H12N2O/c1-9-8-11(14)13(12(9)2)10-6-4-3-5-7-10/h3-8H,1-2H3
Instrument: TripleTOF 5600+SCIEX
Instrument type: ESI-QTOF
Ms type: MS2
Ion mode: POSITIVE
Ionization: ESI
Fragmentation mode: CID
Collision energy: 45 eV
Resolution: 15000
Precursor m/z: 189.1023
Precursor type: [M+H]+
m/z	relative intensity
50.0177	12
51.0255	47
52.0328	1
53.0408	3
54.036	7
55.02	8
55.0437	6
56.0164	1
56.052	582
56.0689	5
57.0592	1
58.0671	92
63.0244	2
64.032	1
65.04	89
66.0476	2
67.0191	3
68.0506	9
69.0584	13
70.0662	2
73.0476	1
74.0159	1
75.0237	1
76.0315	1
77.0396	999
78.047	23
79.0549	62
80.0502	6
81.0453	31
82.0292	4
83.0608	3
84.0449	1
86.0602	1
89.0388	11
90.0466	10
91.0544	107
92.0497	20
93.0574	16
94.0652	14
95.0604	43
96.0681	21
97.0395	1
98.0599	36
101.0384	6
102.0461	29
103.0539	90
104.0493	320
105.0333	8
105.057	15
105.0692	12
106.0504	6
106.0649	331
107.0599	6
108.0677	1
111.0548	2
112.0627	1
113.0704	3
114.0456	1
115.0537	192
116.049	11
116.0611	10
117.0568	118
118.0644	113
119.0597	8
119.0721	8
120.0801	43
121.0754	2
127.0534	11
128.0488	45
129.0564	55
130.0643	320
131.0599	223
132.0437	10
132.0674	90
133.0513	20
134.0464	9
135.0542	1
143.0718	26
144.0797	63
145.0749	132
146.0828	43
147.0907	80
148.0741	1
149.0698	5
159.0905	9
160.0983	3
161.106	5
173.0696	15
174.0774	18
189.1023	23
