Mass spectrum: Etilefrine; LC-ESI-ITFT; MS2; CE: 170%; R=15000; [M+H]+
Name: Etilefrine
Name: 3-[2-(ethylamino)-1-hydroxyethyl]phenol
Formula: C10H15NO2
Exact mass: 181.1103
SMILES: CCNCC(C1=CC(=CC=C1)O)O
InChI: InChI=1S/C10H15NO2/c1-2-11-7-10(13)8-4-3-5-9(12)6-8/h3-6,10-13H,2,7H2,1H3
Instrument: LTQ Orbitrap XL Thermo Scientific
Instrument type: LC-ESI-ITFT
Ms type: MS2
Ion mode: POSITIVE
Ionization: ESI
Fragmentation mode: HCD
Collision energy: 170% (nominal)
Resolution: 15000
Column name: Kinetex Evo C18 2.6 um 50 x 2.1 mm
Retention time: 0.473 min
Base peak: 182.1177
Precursor m/z: 182.1176
Precursor type: [M+H]+
m/z	relative intensity	assigned
55.0176	16	C3H3O+
63.0228	36	C5H3+
65.0384	999	C5H5+
66.0463	59	C5H6+
67.0416	8	C4H5N+
75.0229	23	C6H3+
77.0386	251	C6H5+
78.0464	11	C6H6+
79.0542	166	C6H7+
80.0495	41	C5H6N+
81.0335	7	C5H5O+
81.0701	12	C6H9+
89.0386	92	C7H5+
90.0465	84	C7H6+
91.0543	964	C7H7+
92.0495	47	C6H6N+
93.0334	7	C6H5O+
93.0573	21	C6H7N+
94.0413	155	C6H6O+
95.0492	54	C6H7O+
103.0543	8	C8H7+
105.0448	234	C6H5N2+
106.0652	85	C7H8N+
107.0492	338	C7H7O+
108.0568	9	C7H8O+
116.0495	25	C8H6N+
117.0574	88	C8H7N+
118.0651	39	C8H8N+
120.0445	40	C7H6NO+
121.0394	10	C6H5N2O+
133.0526	21	C8H7NO+
134.0601	81	C8H8NO+
144.0555	8	C8H6N3+
