Mass spectrum: Dothiepin; LC-ESI-ITFT; MS2; CE: 60%; R=7500; [M+H]+
Name: Dothiepin
Name: 3-(Dibenzo[b,e]thiepin-11(6H)-ylidene)-N,N-dimethylpropan-1-amine
Formula: C19H21NS
Exact mass: 295.1395
SMILES: CN(C)CCC=C1C2=CC=CC=C2CSC2=C1C=CC=C2
InChI: InChI=1S/C19H21NS/c1-20(2)13-7-11-17-16-9-4-3-8-15(16)14-21-19-12-6-5-10-18(17)19/h3-6,8-12H,7,13-14H2,1-2H3
Instrument: LTQ Orbitrap XL Thermo Fisher Scientific
Instrument type: LC-ESI-ITFT
Ms type: MS2
Ion mode: POSITIVE
Ionization: ESI
Fragmentation mode: HCD
Collision energy: 60% (nominal)
Resolution: 7500
Column name: Hypersil GOLD C18 1.9 um 100 x 2.1 mm Thermo Fisher Scientific
Precursor m/z: 296.1468
Precursor type: [M+H]+
m/z	relative intensity
57.1426	3
57.1493	2
57.1611	4
58.065	55
84.0806	16
85.0888	3
91.0541	140
103.0542	4
115.0542	23
117.0699	417
123.0264	203
129.0699	43
135.0263	26
137.0424	4
141.0699	42
142.0778	39
147.0264	204
159.0266	5
165.0699	50
173.042	65
178.0778	80
179.0856	40
190.0778	3
191.0856	108
192.0935	139
197.0423	5
202.0778	53
203.0858	261
204.0935	33
205.1011	18
209.0422	218
210.05	120
211.0577	15
215.0854	8
216.0942	10
217.1015	290
218.1094	999
221.0423	184
222.0502	280
223.058	969
225.0734	302
234.05	15
235.0581	44
236.0657	192
249.0733	27
251.0893	95
296.1468	19
