Mass spectrum: Sulfamethoxazole; LC-ESI-ITFT; MS2; CE: 115%; R=15000; [M+H]+
Name: Sulfamethoxazole
Name: 4-amino-N-(5-methyl-1,2-oxazol-3-yl)benzenesulfonamide
Formula: C10H11N3O3S
Exact mass: 253.0521
SMILES: CC1=CC(=NO1)NS(=O)(=O)C2=CC=C(C=C2)N
InChI: InChI=1S/C10H11N3O3S/c1-7-6-10(12-16-7)13-17(14,15)9-4-2-8(11)3-5-9/h2-6H,11H2,1H3,(H,12,13)
Instrument: LTQ Orbitrap XL Thermo Scientific
Instrument type: LC-ESI-ITFT
Ms type: MS2
Ion mode: POSITIVE
Ionization: ESI
Fragmentation mode: CID
Collision energy: 115% (nominal)
Resolution: 15000
Column name: Kinetex Evo C18 2.6 um 50 x 2.1 mm
Retention time: 5.599 min
Base peak: 189.1024
Precursor m/z: 254.0594
Precursor type: [M+H]+
m/z	relative intensity	assigned
65.0385	7	C5H5+
80.0495	4	C5H6N+
92.0496	113	C6H6N+
93.0574	32	C6H7N+
94.0652	27	C6H8N+
99.0554	19	C4H7N2O+
107.0605	26	C6H7N2+
108.0445	252	C6H6NO+
131.0606	9	C8H7N2+
132.0684	3	C8H8N2+
145.0763	2	C9H9N2+
146.0715	147	C8H8N3+
147.0792	608	C8H9N3+
148.087	143	C8H10N3+
156.0115	999	C6H6NO2S+
160.087	444	C9H10N3+
161.0017	8	C4H5N2O3S+
161.071	12	C9H9N2O+
161.0949	4	C9H11N3+
163.0867	4	C9H11N2O+
172.087	16	C10H10N3+
176.0279	31	C8H6N3S+
177.0122	4	C8H5N2OS+
188.0821	898	C10H10N3O+
190.0976	266	C10H12N3O+
194.0384	350	C8H8N3OS+
236.0491	24	C10H10N3O2S+
254.0593	10	C10H12N3O3S+
