Mass spectrum: Dibucaine; LC-ESI-ITFT; MS2; CE: 80%; R=7500; [M+H]+
Name: Dibucaine
Name: 2-Butoxy-N-[2-(diethylamino)ethyl]quinoline-4-carboxamide
Formula: C20H29N3O2
Exact mass: 343.226
SMILES: CCCCOC1=CC(C(=O)NCCN(CC)CC)=C2C=CC=CC2=N1
InChI: InChI=1S/C20H29N3O2/c1-4-7-14-25-19-15-17(16-10-8-9-11-18(16)22-19)20(24)21-12-13-23(5-2)6-3/h8-11,15H,4-7,12-14H2,1-3H3,(H,21,24)
Instrument: LTQ Orbitrap XL Thermo Fisher Scientific
Instrument type: LC-ESI-ITFT
Ms type: MS2
Ion mode: POSITIVE
Ionization: ESI
Fragmentation mode: HCD
Collision energy: 80% (nominal)
Resolution: 7500
Column name: Hypersil GOLD C18 1.9 um 100 x 2.1 mm Thermo Fisher Scientific
Precursor m/z: 344.2333
Precursor type: [M+H]+
m/z	relative intensity
57.0697	14
57.0899	4
57.1022	3
57.1166	5
57.1305	3
72.0806	14
74.0963	17
100.1121	54
116.0494	999
118.0649	3
128.0493	10
130.0651	14
132.0442	7
143.0725	2
144.0444	504
145.0522	15
146.06	33
157.0885	6
158.0601	21
159.0679	2
160.0758	12
162.0549	3
167.073	5
170.0601	17
171.0553	174
172.0393	500
182.0961	6
183.1038	4
187.0865	37
199.1223	2
200.1071	14
215.0815	512
227.1181	14
228.102	19
243.1497	7
271.1442	34
