Mass spectrum: Etofylline; LC-ESI-ITFT; MS2; CE: 110%; R=15000; [M+H]+
Name: Etofylline
Name: 7-(2-hydroxyethyl)-1,3-dimethylpurine-2,6-dione
Formula: C9H12N4O3
Exact mass: 224.0909
SMILES: CN1C2=C(C(=O)N(C1=O)C)N(C=N2)CCO
InChI: InChI=1S/C9H12N4O3/c1-11-7-6(8(15)12(2)9(11)16)13(3-4-14)5-10-7/h5,14H,3-4H2,1-2H3
Instrument: LTQ Orbitrap XL Thermo Scientific
Instrument type: LC-ESI-ITFT
Ms type: MS2
Ion mode: POSITIVE
Ionization: ESI
Fragmentation mode: HCD
Collision energy: 110% (nominal)
Resolution: 15000
Column name: Kinetex Evo C18 2.6 um 50 x 2.1 mm
Retention time: 2.682 min
Base peak: 300.1474
Precursor m/z: 225.0982
Precursor type: [M+H]+
m/z	relative intensity	assigned
67.029	11	C3H3N2+
68.0368	11	C3H4N2+
69.0446	574	C3H5N2+
81.0446	12	C4H5N2+
83.0239	28	C3H3N2O+
94.0399	15	C4H4N3+
95.0241	12	C4H3N2O+
96.0556	457	C4H6N3+
97.0396	22	C4H5N2O+
109.0271	71	C4H3N3O+
122.0349	12	C5H4N3O+
124.0505	999	C5H6N3O+
142.0611	22	C5H8N3O2+
181.0718	49	C7H9N4O2+
