Mass spectrum: Zearalenone; LC-ESI-ITFT; MS2; CE: 20%; R=7500; [M+H]+
Name: Zearalenone
Name: 15,17-Dihydroxy-11-methyl-12-oxabicyclo[12.4.0]octadeca-1(14),2,15,17-tetraene-7,13-dione
Name: 16,18-dihydroxy-4-methyl-3-oxabicyclo[12.4.0]octadeca-1(14),12,15,17-tetraene-2,8-dione
Formula: C18H22O5
Exact mass: 318.1467
SMILES: CC1CCCC(=O)CCCC=CC2=C(C(=CC(=C2)O)O)C(=O)O1
InChI: InChI=1S/C18H22O5/c1-12-6-5-9-14(19)8-4-2-3-7-13-10-15(20)11-16(21)17(13)18(22)23-12/h3,7,10-12,20-21H,2,4-6,8-9H2,1H3
Instrument: LTQ Orbitrap XL Thermo Scientific
Instrument type: LC-ESI-ITFT
Ms type: MS2
Ion mode: POSITIVE
Ionization: ESI
Fragmentation mode: HCD
Collision energy: 20 % (nominal)
Resolution: 7500
Column name: Hypersil GOLD C18 1.9 um 100 x 2.1 mm Thermo Fisher Scientific
Retention time: 21.136 min
Base peak: 319.1547
Precursor m/z: 319.154
Precursor type: [M+H]+
Precursor intensity: 8085958.734131
m/z	relative intensity	assigned
72.057	2	C4H8O+
97.0645	1	C6H9O+
187.0755	3	C12H11O2+
217.0859	3	C13H13O3+
231.0657	9	C13H11O4+
249.0758	16	C13H13O5+
257.1543	7	C17H21O2+
275.1652	2	C17H23O3+
283.133	41	C18H19O3+
301.144	110	C18H21O4+
319.1545	999	C18H23O5+
