Mass spectrum: Dixyrazine; LC-ESI-ITFT; MS2; CE: 80%; R=15000; [M+H]+
Name: Dixyrazine
Name: 2-[2-[4-(2-methyl-3-phenothiazin-10-ylpropyl)piperazin-1-yl]ethoxy]ethanol
Formula: C24H33N3O2S
Exact mass: 427.2293
SMILES: CC(CN1CCN(CC1)CCOCCO)CN2C3=CC=CC=C3SC4=CC=CC=C42
InChI: InChI=1S/C24H33N3O2S/c1-20(18-26-12-10-25(11-13-26)14-16-29-17-15-28)19-27-21-6-2-4-8-23(21)30-24-9-5-3-7-22(24)27/h2-9,20,28H,10-19H2,1H3
Instrument: LTQ Orbitrap XL Thermo Scientific
Instrument type: LC-ESI-ITFT
Ms type: MS2
Ion mode: POSITIVE
Ionization: ESI
Fragmentation mode: HCD
Collision energy: 80% (nominal)
Resolution: 15000
Column name: Kinetex Evo C18 2.6 um 50 x 2.1 mm
Retention time: 8.957 min
Base peak: 428.2363
Precursor m/z: 428.2366
Precursor type: [M+H]+
m/z	relative intensity	assigned
68.0492	8	C4H6N+
69.0333	5	C4H5O+
70.0649	340	C4H8N+
72.0806	9	C4H10N+
73.0282	9	C3H5O2+
82.0651	85	C5H8N+
83.0603	18	C4H7N2+
84.0807	69	C5H10N+
86.0601	16	C4H8NO+
87.044	119	C4H7O2+
94.0651	7	C6H8N+
96.0807	6	C6H10N+
97.076	384	C5H9N2+
98.0838	999	C5H10N2+
99.0809	5	C6H11O+
99.0916	51	C5H11N2+
100.0756	16	C5H10NO+
101.1073	325	C5H13N2+
110.0838	23	C6H10N2+
111.0916	8	C6H11N2+
112.0995	31	C6H12N2+
112.112	23	C7H14N+
113.1073	24	C6H13N2+
118.0864	8	C5H12NO2+
124.0214	2	C6H6NS+
125.1073	43	C7H13N2+
130.0862	13	C6H12NO2+
140.1305	5	C8H16N2+
144.1019	69	C7H14NO2+
145.1051	2	C8H17S+
155.1549	3	C9H19N2+
167.0732	9	C12H9N+
172.1206	58	C8H16N2O2+
178.0649	13	C13H8N+
179.073	111	C13H9N+
180.0807	592	C13H10N+
181.084	78	C8H11N3O2+
184.0339	2	C12H8S+
185.0422	5	C12H9S+
187.1441	38	C9H19N2O2+
196.0759	4	C13H10NO+
198.0371	17	C12H8NS+
199.0451	35	C12H9NS+
206.0968	8	C15H12N+
211.0448	5	C13H9NS+
212.0528	241	C13H10NS+
213.0561	28	C8H11N3O2S+
220.1123	13	C16H14N+
221.1207	5	C16H15N+
224.0528	7	C14H10NS+
229.1909	6	C12H25N2O2+
238.0687	8	C15H12NS+
