Mass spectrum: Dosulepin; LC-ESI-ITFT; MS2; CE: 70%; R=15000; [M+H]+
Name: Dosulepin
Name: Dothiepin
Name: 3-(6H-benzo[c][1]benzothiepin-11-ylidene)-N,N-dimethylpropan-1-amine
Formula: C19H21NS
Exact mass: 295.1395
SMILES: CN(C)CCC=C1C2=CC=CC=C2CSC3=CC=CC=C31
InChI: InChI=1S/C19H21NS/c1-20(2)13-7-11-17-16-9-4-3-8-15(16)14-21-19-12-6-5-10-18(17)19/h3-6,8-12H,7,13-14H2,1-2H3
Instrument: LTQ Orbitrap XL Thermo Scientific
Instrument type: LC-ESI-ITFT
Ms type: MS2
Ion mode: POSITIVE
Ionization: ESI
Fragmentation mode: HCD
Collision energy: 70% (nominal)
Resolution: 15000
Column name: Kinetex Evo C18 2.6 um 50 x 2.1 mm
Retention time: 8.175 min
Base peak: 296.1468
Precursor m/z: 296.1467
Precursor type: [M+H]+
m/z	relative intensity	assigned
70.0648	9	C4H8N+
72.0806	9	C4H10N+
84.0807	31	C5H10N+
91.0542	334	C7H7+
103.0542	9	C8H7+
115.0542	143	C9H7+
117.0699	700	C9H9+
123.0263	295	C7H7S+
128.062	8	C10H8+
129.0698	106	C10H9+
135.0263	58	C8H7S+
141.0699	88	C11H9+
142.0777	55	C11H10+
147.0262	235	C9H7S+
165.0699	205	C13H9+
173.042	76	C11H9S+
178.0777	342	C14H10+
179.0855	141	C14H11+
190.0784	13	C15H10+
191.0855	199	C15H11+
192.0933	277	C15H12+
197.0421	13	C13H9S+
202.0777	194	C16H10+
203.0855	899	C16H11+
204.0931	56	C16H12+
205.1007	17	C16H13+
208.0334	24	C14H8S+
209.0419	186	C14H9S+
210.0497	308	C14H10S+
211.0566	15	C14H11S+
215.0855	36	C17H11+
216.0936	37	C17H12+
217.1012	665	C17H13+
218.109	914	C17H14+
221.0419	580	C15H9S+
222.0497	384	C15H10S+
223.0575	999	C15H11S+
225.0732	138	C15H13S+
234.0495	46	C16H10S+
235.0575	156	C16H11S+
236.0654	164	C16H12S+
249.0739	19	C17H13S+
251.0892	13	C17H15S+
