Mass spectrum: Phentermine; LC-ESI-QFT; MS2; CE: 80%; R=30000; [M+H]+
Name: Phentermine
Name: 2-Methyl-1-phenylpropan-2-amine
Formula: C10H15N
Exact mass: 149.1204
SMILES: CC(C)(N)CC1=CC=CC=C1
InChI: InChI=1S/C10H15N/c1-10(2,11)8-9-6-4-3-5-7-9/h3-7H,8,11H2,1-2H3
Instrument: Orbitrap Fusion Tribrid Thermo Fisher Scientific
Instrument type: LC-ESI-QFT
Ms type: MS2
Ion mode: POSITIVE
Ionization: ESI
Fragmentation mode: HCD
Collision energy: 80% (nominal)
Resolution: 30000
Precursor m/z: 150.1278
Precursor type: [M+H]+
m/z	relative intensity
51.0233	36
55.0545	15
63.0232	40
65.0388	845
77.0388	21
79.0545	21
91.0545	999
95.0493	26
103.0545	10
105.0449	20
