Mass spectrum: Chlorotoluron-metabolite (TENTATIVE); LC-ESI-QFT; MS2; CE: 30%; R=70000; [M+H]+
Name: Chlorotoluron-metabolite
Formula: C8H10ClNO2
Exact mass: 187.0399
SMILES: C(*)C1=C(C(*)=C(C(*)=C(*)1)NC(O))Cl  * = [OH (n=1) & H (n=3]
Instrument: Q Exactive Plus Orbitrap Thermo Scientific
Instrument type: LC-ESI-QFT
Ms type: MS2
Ion mode: POSITIVE
Ionization: ESI
Fragmentation mode: HCD
Collision energy: 30% (nominal)
Resolution: 70000
Column name: Waters UPLC BEH C18 1.7 um 2.1 mm x 100 mm with pre-column
Retention time: 11.63 min
Precursor m/z: 188.0477
Precursor type: [M+H]+
m/z	relative intensity
55.0545	21
58.0654	17
67.0542	25
69.0699	22
71.0491	17
79.0541	17
81.0698	25
106.0652	57
107.0729	220
130.0187	29
143.0266	126
145.0422	36
