Mass spectrum: Metoclopramide; LC-ESI-ITFT; MS2; CE: 110%; R=15000; [M+H]+
Name: Metoclopramide
Name: 4-amino-5-chloro-N-[2-(diethylamino)ethyl]-2-methoxybenzamide
Formula: C14H22ClN3O2
Exact mass: 299.1401
SMILES: CCN(CC)CCNC(=O)C1=CC(=C(C=C1OC)N)Cl
InChI: InChI=1S/C14H22ClN3O2/c1-4-18(5-2)7-6-17-14(19)10-8-11(15)12(16)9-13(10)20-3/h8-9H,4-7,16H2,1-3H3,(H,17,19)
Instrument: LTQ Orbitrap XL Thermo Scientific
Instrument type: LC-ESI-ITFT
Ms type: MS2
Ion mode: POSITIVE
Ionization: ESI
Fragmentation mode: HCD
Collision energy: 110% (nominal)
Resolution: 15000
Column name: Kinetex Evo C18 2.6 um 50 x 2.1 mm
Retention time: 2.847 min
Base peak: 300.1474
Precursor m/z: 300.1473
Precursor type: [M+H]+
m/z	relative intensity	assigned
54.0336	3	C3H4N+
63.0227	48	C5H3+
65.0384	16	C5H5+
72.0807	17	C4H10N+
78.0337	89	C5H4N+
80.0495	7	C5H6N+
90.0338	331	C6H4N+
91.0416	10	C6H5N+
92.0494	25	C6H6N+
93.0573	109	C6H7N+
98.9996	81	C5H4Cl+
100.1121	13	C6H14N+
105.0447	44	C6H5N2+
106.0287	8	C6H4NO+
108.0444	58	C6H6NO+
110.9999	7	C6H4Cl+
113.0026	650	C5H4ClN+
114.0105	9	C5H5ClN+
119.0605	11	C7H7N2+
120.0444	35	C7H6NO+
121.0519	7	C7H7NO+
126.0105	167	C6H5ClN+
127.0182	26	C6H6ClN+
128.026	65	C6H7ClN+
129.0102	48	C6H6ClO+
133.0395	4	C7H5N2O+
140.0136	52	C6H5ClN2+
140.9975	999	C6H4ClNO+
144.021	48	C6H7ClNO+
147.0547	9	C8H7N2O+
148.0631	61	C8H8N2O+
154.0053	91	C7H5ClNO+
155.0131	8	C7H6ClNO+
156.021	93	C7H7ClNO+
168.0084	640	C7H5ClN2O+
168.9924	192	C7H4ClNO2+
170.0002	59	C7H5ClNO2+
181.0163	21	C8H6ClN2O+
182.0241	21	C8H7ClN2O+
183.0321	48	C8H8ClN2O+
184.016	523	C8H7ClNO2+
187.003	69	C7H6ClNO3+
211.0268	16	C9H8ClN2O2+
212.0347	68	C9H9ClN2O2+
