Mass spectrum: Phenazone; ESI-QTOF; MS2; CE: 25eV; R=15000; [M+H]+
Name: Phenazone
Name: 1,5-Dimethyl-2-phenyl-1,2-dihydro-3H-pyrazol-3-one
Formula: C11H12N2O
Exact mass: 188.095
SMILES: CN1N(C(=O)C=C1C)C1=CC=CC=C1
InChI: InChI=1S/C11H12N2O/c1-9-8-11(14)13(12(9)2)10-6-4-3-5-7-10/h3-8H,1-2H3
Instrument: TripleTOF 5600+SCIEX
Instrument type: ESI-QTOF
Ms type: MS2
Ion mode: POSITIVE
Ionization: ESI
Fragmentation mode: CID
Collision energy: 25 eV
Resolution: 15000
Precursor m/z: 189.1023
Precursor type: [M+H]+
m/z	relative intensity
56.0518	9
58.0672	7
65.0399	1
77.0393	4
81.0451	1
91.0543	2
95.0602	1
96.068	4
98.0598	2
103.0538	2
104.0492	16
105.0692	1
106.0647	10
111.0546	1
115.0535	2
117.0685	5
118.0643	10
120.0799	8
129.0562	1
130.0641	16
131.0715	19
132.0794	7
133.0748	2
134.0952	1
135.0542	1
143.0716	1
144.0796	17
145.0673	5
146.0832	17
147.0905	29
148.0741	1
149.0696	1
159.0901	1
160.0981	1
161.1059	16
174.0773	14
189.1023	999
