Mass spectrum: Amiloride; ESI-QTOF; MS2; CE: 35eV; R=15000; [M+H]+
Name: Amiloride
Name: 3,5-Diamino-N-carbamimidoyl-6-chloropyrazine-2-carboxamide
Formula: C6H8ClN7O
Exact mass: 229.0479
SMILES: NC(=N)NC(=O)C1=NC(Cl)=C(N)N=C1N
InChI: InChI=1S/C6H8ClN7O/c7-2-4(9)13-3(8)1(12-2)5(15)14-6(10)11/h(H4,8,9,13)(H4,10,11,14,15)
Instrument: TripleTOF 5600+SCIEX
Instrument type: ESI-QTOF
Ms type: MS2
Ion mode: POSITIVE
Ionization: ESI
Fragmentation mode: CID
Collision energy: 35 eV
Resolution: 15000
Precursor m/z: 230.0552
Precursor type: [M+H]+
m/z	relative intensity
53.0155	2
55.0313	2
57.0715	1
60.0574	203
61.0416	1
61.9809	6
63.9962	18
66.0226	2
69.0093	1
73.9801	3
80.025	1
82.0403	1
86.0352	7
88.9903	19
91.0059	4
100.9899	26
107.0348	4
108.0427	75
116.0006	674
125.0454	3
140.9958	2
143.011	592
145.0263	2
161.0213	53
170.0216	2
171.0056	999
188.0322	1
189.0161	6
230.0552	9
