Mass spectrum: Mefruside; LC-ESI-ITFT; MS2; CE: 65%; R=7500; [M+H]+
Name: Mefruside
Name: 4-Chloro-N1-methyl-N1-[(2-methyloxolan-2-yl)methyl]benzene-1,3-disulfonamide
Formula: C13H19ClN2O5S2
Exact mass: 382.0424
SMILES: CN(CC1(C)CCCO1)S(=O)(=O)C1=CC=C(Cl)C(=C1)S(N)(=O)=O
InChI: InChI=1S/C13H19ClN2O5S2/c1-13(6-3-7-21-13)9-16(2)23(19,20)10-4-5-11(14)12(8-10)22(15,17)18/h4-5,8H,3,6-7,9H2,1-2H3,(H2,15,17,18)
Instrument: LTQ Orbitrap XL Thermo Fisher Scientific
Instrument type: LC-ESI-ITFT
Ms type: MS2
Ion mode: POSITIVE
Ionization: ESI
Fragmentation mode: HCD
Collision energy: 65% (nominal)
Resolution: 7500
Column name: Hypersil GOLD C18 1.9 um 100 x 2.1 mm Thermo Fisher Scientific
Precursor m/z: 383.0497
Precursor type: [M+H]+
m/z	relative intensity
56.8508	11
69.0697	25
72.9995	11
79.054	146
81.0697	999
84.0806	857
86.0599	110
96.0807	78
97.065	49
99.0804	169
108.9841	27
110.0964	38
112.112	15
128.1069	93
129.1148	83
135.5678	12
135.5777	23
135.6579	18
140.9734	25
142.0054	103
142.9893	314
156.0213	37
172.9459	16
188.9368	29
198.9014	41
200.4566	34
202.5236	12
202.6002	14
202.6777	12
202.6947	17
202.7623	13
203.9882	35
217.9786	527
253.9343	53
268.5945	14
273.8039	46
350.8164	20
