Mass spectrum: Sulfamethoxazole; LC-ESI-QFT; MS2; CE: 10%; R=30000; [M+H]+
Name: Sulfamethoxazole
Name: 4-Amino-N-(5-methyl-1,2-oxazol-3-yl)benzene-1-sulfonamide
Formula: C10H11N3O3S
Exact mass: 253.0521
SMILES: CC1=CC(NS(=O)(=O)C2=CC=C(N)C=C2)=NO1
InChI: InChI=1S/C10H11N3O3S/c1-7-6-10(12-16-7)13-17(14,15)9-4-2-8(11)3-5-9/h2-6H,11H2,1H3,(H,12,13)
Instrument: Orbitrap Fusion Tribrid Thermo Fisher Scientific
Instrument type: LC-ESI-QFT
Ms type: MS2
Ion mode: POSITIVE
Ionization: ESI
Fragmentation mode: HCD
Collision energy: 10% (nominal)
Resolution: 30000
Precursor m/z: 254.0594
Precursor type: [M+H]+
m/z	relative intensity
92.0496	7
93.0575	14
94.0653	7
99.0555	15
107.0606	4
108.0445	9
110.0603	1
146.0714	5
147.0792	29
148.087	10
156.0115	168
160.087	6
161.0017	1
176.0278	1
188.082	56
190.0976	27
194.0383	14
254.0594	999
