Mass spectrum: Questin; LC-ESI-ITFT; MS2; CE: 40%; R=7500; [M+H]+
Name: Questin
Name: 1,6-dihydroxy-8-methoxy-3-methylanthracene-9,10-dione
Formula: C16H12O5
Exact mass: 284.0685
SMILES: CC1=CC2=C(C(=C1)O)C(=O)C3=C(C2=O)C=C(C=C3OC)O
InChI: InChI=1S/C16H12O5/c1-7-3-9-13(11(18)4-7)16(20)14-10(15(9)19)5-8(17)6-12(14)21-2/h3-6,17-18H,1-2H3
Instrument: LTQ Orbitrap XL Thermo Scientific
Instrument type: LC-ESI-ITFT
Ms type: MS2
Ion mode: POSITIVE
Ionization: ESI
Fragmentation mode: HCD
Collision energy: 40 % (nominal)
Resolution: 7500
Column name: Hypersil GOLD C18 1.9 um 100 x 2.1 mm Thermo Fisher Scientific
Retention time: 21.715 min
Base peak: 285.0758
Precursor m/z: 285.0757
Precursor type: [M+H]+
Precursor intensity: 2440277.129395
m/z	relative intensity	assigned
270.0523	94	C15H10O5+
285.0756	999	C16H13O5+
