Mass spectrum: Fusarenon X; LC-ESI-ITFT; MS2; CE: 20%; R=7500; [M+H]+
Name: Fusarenon X
Name: [3,10-dihydroxy-2-(hydroxymethyl)-1,5-dimethyl-4-oxospiro[8-oxatricyclo[7.2.1.02,7]dodec-5-ene-12,2`-oxirane]-11-yl] acetate
Formula: C17H22O8
Exact mass: 354.1315
SMILES: CC1=CC2C(C(C1=O)O)(C3(C(C(C(C34CO4)O2)O)OC(=O)C)C)CO
InChI: InChI=1S/C17H22O8/c1-7-4-9-16(5-18,12(22)10(7)20)15(3)13(24-8(2)19)11(21)14(25-9)17(15)6-23-17/h4,9,11-14,18,21-22H,5-6H2,1-3H3
Instrument: LTQ Orbitrap XL Thermo Scientific
Instrument type: LC-ESI-ITFT
Ms type: MS2
Ion mode: POSITIVE
Ionization: ESI
Fragmentation mode: HCD
Collision energy: 20 % (nominal)
Resolution: 7500
Column name: Hypersil GOLD C18 1.9 um 100 x 2.1 mm Thermo Fisher Scientific
Retention time: 8.309 min
Base peak: 355.1389
Precursor m/z: 355.1387
Precursor type: [M+H]+
Precursor intensity: 11139168.93213
m/z	relative intensity	assigned
137.0593	50	C8H9O2+
147.0802	7	C10H11O+
161.0954	4	C11H13O+
163.075	20	C10H11O2+
165.0907	12	C10H13O2+
171.0798	12	C12H11O+
175.075	81	C11H11O2+
177.0905	26	C11H13O2+
179.0701	5	C10H11O3+
189.0906	21	C12H13O2+
191.0704	14	C11H11O3+
193.0856	20	C11H13O3+
201.0909	35	C13H13O2+
203.1069	10	C13H15O2+
205.0855	66	C12H13O3+
213.0902	15	C14H13O2+
217.0858	51	C13H13O3+
219.1011	23	C13H15O3+
223.0964	8	C12H15O4+
229.0854	90	C14H13O3+
231.1015	42	C14H15O3+
235.0958	6	C13H15O4+
247.0959	177	C14H15O4+
249.1116	5	C14H17O4+
259.0961	110	C15H15O4+
277.1066	175	C15H17O5+
295.1173	136	C15H19O6+
337.1277	203	C17H21O7+
355.1382	999	C17H23O8+
