Mass spectrum: Dosulepin; LC-ESI-ITFT; MS2; CE: 180%; R=15000; [M+H]+
Name: Dosulepin
Name: Dothiepin
Name: 3-(6H-benzo[c][1]benzothiepin-11-ylidene)-N,N-dimethylpropan-1-amine
Formula: C19H21NS
Exact mass: 295.1395
SMILES: CN(C)CCC=C1C2=CC=CC=C2CSC3=CC=CC=C31
InChI: InChI=1S/C19H21NS/c1-20(2)13-7-11-17-16-9-4-3-8-15(16)14-21-19-12-6-5-10-18(17)19/h3-6,8-12H,7,13-14H2,1-2H3
Instrument: LTQ Orbitrap XL Thermo Scientific
Instrument type: LC-ESI-ITFT
Ms type: MS2
Ion mode: POSITIVE
Ionization: ESI
Fragmentation mode: HCD
Collision energy: 180% (nominal)
Resolution: 15000
Column name: Kinetex Evo C18 2.6 um 50 x 2.1 mm
Retention time: 8.166 min
Base peak: 296.1468
Precursor m/z: 296.1467
Precursor type: [M+H]+
m/z	relative intensity	assigned
65.0384	179	C5H5+
77.0386	39	C6H5+
89.0385	83	C7H5+
91.0542	279	C7H7+
102.0463	61	C8H6+
105.0449	114	C6H5N2+
115.0542	460	C9H7+
127.0542	41	C10H7+
128.0622	119	C10H8+
134.0188	46	C8H6S+
139.0541	170	C11H7+
150.0465	90	C12H6+
151.0543	211	C12H7+
152.062	407	C12H8+
155.0601	51	C10H7N2+
163.0543	231	C13H7+
164.062	110	C13H8+
165.07	286	C13H9+
169.065	104	C12H9O+
175.0545	69	C14H7+
176.0621	824	C14H8+
177.0698	143	C14H9+
178.0776	159	C14H10+
179.0604	111	C12H7N2+
187.0544	108	C15H7+
188.0621	81	C15H8+
189.07	687	C15H9+
200.0621	707	C16H8+
201.07	595	C16H9+
202.0778	999	C16H10+
213.0701	223	C17H9+
214.0775	55	C17H10+
215.0855	616	C17H11+
219.0261	144	C15H7S+
219.0803	86	C16H11O+
220.0337	83	C15H8S+
221.0421	347	C15H9S+
232.0334	50	C16H8S+
234.05	64	C16H10S+
