Mass spectrum: Sulfamethoxazole; LC-ESI-ITFT; MS2; CE: 25%; R=15000; [M+H]+
Name: Sulfamethoxazole
Name: 4-amino-N-(5-methyl-1,2-oxazol-3-yl)benzenesulfonamide
Formula: C10H11N3O3S
Exact mass: 253.0521
SMILES: CC1=CC(=NO1)NS(=O)(=O)C2=CC=C(C=C2)N
InChI: InChI=1S/C10H11N3O3S/c1-7-6-10(12-16-7)13-17(14,15)9-4-2-8(11)3-5-9/h2-6H,11H2,1H3,(H,12,13)
Instrument: LTQ Orbitrap XL Thermo Scientific
Instrument type: LC-ESI-ITFT
Ms type: MS2
Ion mode: POSITIVE
Ionization: ESI
Fragmentation mode: HCD
Collision energy: 25% (nominal)
Resolution: 15000
Column name: Kinetex Evo C18 2.6 um 50 x 2.1 mm
Retention time: 5.487 min
Base peak: 189.102
Precursor m/z: 254.0594
Precursor type: [M+H]+
m/z	relative intensity	assigned
65.0387	1	C5H5+
92.0495	53	C6H6N+
93.0573	59	C6H7N+
94.0651	17	C6H8N+
99.0553	62	C4H7N2O+
107.0603	12	C6H7N2+
108.0443	92	C6H6NO+
146.0711	15	C8H8N3+
147.079	68	C8H9N3+
148.0868	27	C8H10N3+
156.0113	448	C6H6NO2S+
160.0868	69	C9H10N3+
161.0017	3	C4H5N2O3S+
172.0873	1	C10H10N3+
176.0271	3	C8H6N3S+
188.0818	84	C10H10N3O+
190.0974	61	C10H12N3O+
194.0382	26	C8H8N3OS+
236.0491	2	C10H10N3O2S+
254.0593	999	C10H12N3O3S+
