Mass spectrum: Amiloride; LC-ESI-QFT; MS2; CE: 10%; R=17500; [M+H]+
Name: Amiloride
Name: 3,5-Diamino-N-carbamimidoyl-6-chloropyrazine-2-carboxamide
Formula: C6H8ClN7O
Exact mass: 229.0479
SMILES: NC(=N)NC(=O)C1=NC(Cl)=C(N)N=C1N
InChI: InChI=1S/C6H8ClN7O/c7-2-4(9)13-3(8)1(12-2)5(15)14-6(10)11/h(H4,8,9,13)(H4,10,11,14,15)
Instrument: Q Exactive Thermo Fisher Scientific
Instrument type: LC-ESI-QFT
Ms type: MS2
Ion mode: POSITIVE
Ionization: ESI
Fragmentation mode: HCD
Collision energy: 10% (nominal)
Resolution: 17500
Column name: Hypersil GOLD 1.9 um 2.1 x 100 mm Thermo Fisher Scientific
Precursor m/z: 230.0552
Precursor type: [M+H]+
m/z	relative intensity
52.0072	1
60.0564	252
61.0404	5
86.0354	32
100.9908	1
116.001	6
143.0118	1
145.0276	3
161.0225	6
170.0226	1
171.0066	204
188.0333	26
189.0173	261
213.0285	36
230.0552	999
