Mass spectrum: Sulfamethoxazole; LC-ESI-ITFT; MS2; CE: 40%; R=15000; [M+H]+
Name: Sulfamethoxazole
Name: 4-amino-N-(5-methyl-1,2-oxazol-3-yl)benzenesulfonamide
Formula: C10H11N3O3S
Exact mass: 253.0521
SMILES: CC1=CC(=NO1)NS(=O)(=O)C2=CC=C(C=C2)N
InChI: InChI=1S/C10H11N3O3S/c1-7-6-10(12-16-7)13-17(14,15)9-4-2-8(11)3-5-9/h2-6H,11H2,1H3,(H,12,13)
Instrument: LTQ Orbitrap XL Thermo Scientific
Instrument type: LC-ESI-ITFT
Ms type: MS2
Ion mode: POSITIVE
Ionization: ESI
Fragmentation mode: CID
Collision energy: 40% (nominal)
Resolution: 15000
Column name: Kinetex Evo C18 2.6 um 50 x 2.1 mm
Retention time: 5.604 min
Base peak: 189.1022
Precursor m/z: 254.0594
Precursor type: [M+H]+
m/z	relative intensity	assigned
65.0384	6	C5H5+
80.0495	3	C5H6N+
92.0495	107	C6H6N+
93.0574	27	C6H7N+
94.0652	30	C6H8N+
99.0554	19	C4H7N2O+
107.0605	27	C6H7N2+
108.0445	235	C6H6NO+
121.0761	4	C7H9N2+
131.0603	7	C8H7N2+
132.0682	3	C8H8N2+
133.0634	3	C7H7N3+
145.0763	4	C9H9N2+
146.0715	159	C8H8N3+
147.0792	628	C8H9N3+
148.0869	156	C8H10N3+
156.0115	999	C6H6NO2S+
160.087	436	C9H10N3+
161.0014	8	C4H5N2O3S+
161.0709	13	C9H9N2O+
161.095	4	C9H11N3+
163.0868	5	C9H11N2O+
172.087	15	C10H10N3+
173.0589	2	C9H7N3O+
173.0712	2	C10H9N2O+
174.0789	1	C10H10N2O+
176.0278	32	C8H6N3S+
177.0118	6	C8H5N2OS+
188.082	952	C10H10N3O+
190.0975	328	C10H12N3O+
193.0305	3	C8H7N3OS+
194.0383	374	C8H8N3OS+
236.049	27	C10H10N3O2S+
254.0596	441	C10H12N3O3S+
