Mass spectrum: Tentotoxin; LC-ESI-ITFT; MS2; CE: 20%; R=7500; [M+H]+
Name: Tentotoxin
Name: 12-benzylidene-1,6,7-trimethyl-3-(2-methylpropyl)-1,4,7,10-tetrazacyclododecane-2,5,8,11-tetrone
Formula: C22H30N4O4
Exact mass: 414.2267
SMILES: CC1C(=O)NC(C(=O)N(C(=CC2=CC=CC=C2)C(=O)NCC(=O)N1C)C)CC(C)C
InChI: InChI=1S/C22H30N4O4/c1-14(2)11-17-22(30)26(5)18(12-16-9-7-6-8-10-16)21(29)23-13-19(27)25(4)15(3)20(28)24-17/h6-10,12,14-15,17H,11,13H2,1-5H3,(H,23,29)(H,24,28)
Instrument: LTQ Orbitrap XL Thermo Scientific
Instrument type: LC-ESI-ITFT
Ms type: MS2
Ion mode: POSITIVE
Ionization: ESI
Fragmentation mode: HCD
Collision energy: 20 % (nominal)
Resolution: 7500
Column name: Hypersil GOLD C18 1.9 um 100 x 2.1 mm Thermo Fisher Scientific
Retention time: 18.896 min
Base peak: 415.2344
Precursor m/z: 415.234
Precursor type: [M+H]+
Precursor intensity: 24863502.65039
m/z	relative intensity	assigned
58.0651	77	C3H8N+
73.0974	5	H13N2O2+
115.0868	7	C5H11N2O+
132.0811	3	C9H10N+
143.0812	4	C6H11N2O2+
146.096	2	C10H12N+
171.1492	460	C9H19N2O+
189.1023	81	C11H13N2O+
199.1442	360	C10H19N2O2+
217.0971	164	C12H13N2O2+
238.1551	61	C12H20N3O2+
257.1637	2	C16H21N2O+
273.1598	6	C16H21N2O2+
274.1558	6	C17H22O3+
286.1921	3	C17H24N3O+
301.1542	21	C17H21N2O3+
302.1499	492	C16H20N3O3+
312.1704	144	C18H22N3O2+
327.1704	9	C19H23N2O3+
330.1814	177	C18H24N3O3+
358.2126	241	C20H28N3O3+
384.1922	8	C21H26N3O4+
397.2239	6	C22H29N4O3+
415.234	999	C22H31N4O4+
