Mass spectrum: Communesin A; LC-ESI-ITFT; MS2; CE: 50%; R=7500; [M+H]+
Name: Communesin A
Name: 1-Acetyl-17-(3,3-dimethyloxiranyl)-1,2,3,8a,9,14,15,16a-octahydro-9-methyl-13,16-methano-8H,16H-pyrrolo[2`,3`:2,3]pyrido[4,3-o]quinindoline
Name: 1-[25-(3,3-dimethyloxiran-2-yl)-15-methyl-1,3,13,15-tetrazaheptacyclo[18.4.1.02,6.06,22.07,12.014,22.016,21]pentacosa-7,9,11,16,18,20-hexaen-3-yl]ethanone
Formula: C28H32N4O2
Exact mass: 456.2525
SMILES: CC(=O)N1CCC23C1N4CCC25C(NC6=CC=CC=C36)N(C7=CC=CC(=C57)C4C8C(O8)(C)C)C
InChI: InChI=1S/C28H32N4O2/c1-16(33)31-14-12-27-18-9-5-6-10-19(18)29-24-28(27)13-15-32(25(27)31)22(23-26(2,3)34-23)17-8-7-11-20(21(17)28)30(24)4/h5-11,22-25,29H,12-15H2,1-4H3
Instrument: LTQ Orbitrap XL Thermo Scientific
Instrument type: LC-ESI-ITFT
Ms type: MS2
Ion mode: POSITIVE
Ionization: ESI
Fragmentation mode: HCD
Collision energy: 50 % (nominal)
Resolution: 7500
Column name: Hypersil GOLD C18 1.9 um 100 x 2.1 mm Thermo Fisher Scientific
Retention time: 20.195 min
Base peak: 457.2602
Precursor m/z: 457.2598
Precursor type: [M+H]+
Precursor intensity: 16426776.13379
m/z	relative intensity	assigned
130.0648	16	C9H8N+
144.0807	12	C10H10N+
156.0803	7	C11H10N+
157.0766	5	C10H9N2+
158.0961	10	C11H12N+
159.0916	143	C10H11N2+
168.0807	52	C12H10N+
169.0757	6	C11H9N2+
169.0894	7	C12H11N+
170.0962	13	C12H12N+
171.0916	7	C11H11N2+
181.0885	36	C13H11N+
182.0964	14	C13H12N+
183.0915	96	C12H11N2+
184.0994	54	C12H12N2+
185.1072	158	C12H13N2+
186.1107	12	C7H14N4O2+
194.0963	4	C14H12N+
197.1075	116	C13H13N2+
198.1153	154	C13H14N2+
199.1229	10	C13H15N2+
201.1019	37	C12H13N2O+
210.1267	18	C15H16N+
220.1118	5	C16H14N+
226.1229	18	C15H16NO+
237.139	23	C16H17N2+
238.1224	16	C16H16NO+
238.1472	12	C16H18N2+
240.1389	8	C16H18NO+
255.1491	60	C16H19N2O+
283.1243	10	C20H15N2+
294.1164	6	C21H14N2+
295.1219	18	C21H15N2+
296.132	20	C21H16N2+
297.1384	26	C21H17N2+
307.1243	9	C22H15N2+
308.1302	11	C22H16N2+
309.1388	63	C22H17N2+
314.1638	5	C21H20N3+
323.1543	72	C23H19N2+
325.1459	4	C21H17N4+
326.1647	85	C22H20N3+
340.1807	21	C23H22N3+
341.1642	16	C23H21N2O+
343.193	6	C24H25NO+
354.1721	8	C24H22N2O+
363.1867	5	C26H23N2+
368.1755	23	C26H24O2+
381.197	37	C26H25N2O+
382.1896	24	C25H24N3O+
385.2025	999	C24H25N4O+
399.2167	18	C25H27N4O+
400.2018	3	C25H26N3O2+
440.2331	6	C28H30N3O2+
