Mass spectrum: Malformin C; LC-ESI-ITFT; MS2; CE: 30%; R=7500; [M-H]-
Name: Malformin C
Name: Malformin B1b
Name: (1S,4S,7R,10S,13S)-4,7-bis(2-methylpropyl)-10-propan-2-yl-15,16-dithia-2,5,8,11,19-pentazabicyclo[11.4.2]nonadecane-3,6,9,12,18-pentone
Formula: C23H39N5O5S2
Exact mass: 529.23926
SMILES: O=C1[C@H](CC(C)C)NC([C@@H](CC(C)C)NC([C@H](C(C)C)NC([C@@H]2NC([C@@H](CSSC2)N1)=O)=O)=O)=O
InChI: InChI=1S/C23H39N5O5S2/c1-11(2)7-14-20(30)26-16-9-34-35-10-17(27-21(16)31)22(32)28-18(13(5)6)23(33)25-15(8-12(3)4)19(29)24-14/h11-18H,7-10H2,1-6H3,(H,24,29)(H,25,33)(H,26,30)(H,27,31)(H,28,32)/t14-,15+,16+,17+,18-/m0/s1
Instrument: LTQ Orbitrap XL Thermo Scientific
Instrument type: LC-ESI-ITFT
Ms type: MS2
Ion mode: NEGATIVE
Ionization: ESI
Fragmentation mode: HCD
Collision energy: 30 % (nominal)
Resolution: 7500
Column name: Hypersil GOLD C18 1.9 um 100 x 2.1 mm Thermo Fisher Scientific
Retention time: 21.909 min
Base peak: 588.2535
Precursor m/z: 528.232
Precursor type: [M-H]-
Precursor intensity: 6831499.900391
m/z	relative intensity	assigned
55.9905	9	C2O2-
97.0412	9	C4H5N2O-
109.0411	24	C5H5N2O-
141.067	43	C6H9N2O2-
143.0285	42	C5H7N2OS-
155.0825	10	C7H11N2O2-
201.0554	8	C12H9O3-
251.116	6	C11H15N4O3-
350.2094	11	C18H28N3O4-
367.2354	41	C18H31N4O4-
419.2347	7	C18H35N4O5S-
451.2383	45	C22H35N4O4S-
460.257	46	C23H34N5O5-
462.2729	161	C23H36N5O5-
494.245	295	C23H36N5O5S-
528.2322	999	C23H38N5O5S2-
