Mass spectrum: Sulthiame; LC-ESI-ITFT; MS2; CE: 120%; R=15000; [M+H]+
Name: Sulthiame
Name: 4-(1,1-dioxothiazinan-2-yl)benzenesulfonamide
Formula: C10H14N2O4S2
Exact mass: 290.0395
SMILES: C1CCS(=O)(=O)N(C1)C2=CC=C(C=C2)S(=O)(=O)N
InChI: InChI=1S/C10H14N2O4S2/c11-18(15,16)10-5-3-9(4-6-10)12-7-1-2-8-17(12,13)14/h3-6H,1-2,7-8H2,(H2,11,15,16)
Instrument: LTQ Orbitrap XL Thermo Scientific
Instrument type: LC-ESI-ITFT
Ms type: MS2
Ion mode: POSITIVE
Ionization: ESI
Fragmentation mode: HCD
Collision energy: 120% (nominal)
Resolution: 15000
Column name: Kinetex Evo C18 2.6 um 50 x 2.1 mm
Retention time: 4.280 min
Base peak: 308.0734
Precursor m/z: 291.0468
Precursor type: [M+H]+
m/z	relative intensity	assigned
65.0384	54	C5H5+
76.0307	136	C6H4+
77.0385	33	C6H5+
78.0464	104	C6H6+
79.0416	41	C5H5N+
90.0464	15	C7H6+
91.0542	127	C7H7+
92.0496	20	C6H6N+
93.0572	33	C6H7N+
94.0413	56	C6H6O+
95.049	15	C6H7O+
104.0495	406	C7H6N+
105.0573	999	C7H7N+
106.065	22	C7H8N+
107.0489	17	C7H7O+
108.0446	8	C6H6NO+
117.0573	168	C8H7N+
118.0651	113	C8H8N+
119.0729	22	C8H9N+
122.0598	31	C7H8NO+
130.0648	17	C9H8N+
132.0809	19	C9H10N+
137.047	9	C7H7NO2+
185.0376	28	C7H9N2O2S+
