Mass spectrum: Sulfamethoxazole; LC-ESI-ITFT; MS2; CE: 100%; R=15000; [M+H]+
Name: Sulfamethoxazole
Name: 4-amino-N-(5-methyl-1,2-oxazol-3-yl)benzenesulfonamide
Formula: C10H11N3O3S
Exact mass: 253.0521
SMILES: CC1=CC(=NO1)NS(=O)(=O)C2=CC=C(C=C2)N
InChI: InChI=1S/C10H11N3O3S/c1-7-6-10(12-16-7)13-17(14,15)9-4-2-8(11)3-5-9/h2-6H,11H2,1H3,(H,12,13)
Instrument: LTQ Orbitrap XL Thermo Scientific
Instrument type: LC-ESI-ITFT
Ms type: MS2
Ion mode: POSITIVE
Ionization: ESI
Fragmentation mode: HCD
Collision energy: 100% (nominal)
Resolution: 15000
Column name: Kinetex Evo C18 2.6 um 50 x 2.1 mm
Retention time: 5.617 min
Base peak: 189.1023
Precursor m/z: 254.0594
Precursor type: [M+H]+
m/z	relative intensity	assigned
65.0384	727	C5H5+
66.0337	5	C4H4N+
66.0463	5	C5H6+
71.0603	3	C3H7N2+
72.0444	11	C3H6NO+
77.0387	2	C6H5+
79.0417	2	C5H5N+
80.0495	230	C5H6N+
90.0337	4	C6H4N+
92.0495	999	C6H6N+
93.0572	218	C6H7N+
94.065	8	C6H8N+
99.0553	68	C4H7N2O+
104.0496	2	C7H6N+
105.0448	2	C6H5N2+
106.0528	5	C6H6N2+
107.0605	16	C6H7N2+
108.0444	631	C6H6NO+
110.06	88	C6H8NO+
118.0527	3	C7H6N2+
119.0606	8	C7H7N2+
120.0557	8	C6H6N3+
131.0603	4	C8H7N2+
132.0682	5	C8H8N2+
133.0638	2	C7H7N3+
143.0604	5	C9H7N2+
146.0713	31	C8H8N3+
147.0792	10	C8H9N3+
160.0869	4	C9H10N3+
