Mass spectrum: Fumigaclavine C; LC-ESI-ITFT; MS2; CE: 50%; R=7500; [M+H]+
Name: Fumigaclavine C
Name: CID 75144606
Name: [7,9-dimethyl-5-(2-methylbut-3-en-2-yl)-6,6a,8,9,10,10a-hexahydro-4H-indolo[4,3-fg]quinolin-10-yl] acetate
Formula: C23H30N2O2
Exact mass: 366.2307
SMILES: CC1CN(C2CC3=C(NC4=CC=CC(=C34)C2C1OC(=O)C)C(C)(C)C=C)C
InChI: InChI=1S/C23H30N2O2/c1-7-23(4,5)22-16-11-18-20(15-9-8-10-17(24-22)19(15)16)21(27-14(3)26)13(2)12-25(18)6/h7-10,13,18,20-21,24H,1,11-12H2,2-6H3
Instrument: LTQ Orbitrap XL Thermo Scientific
Instrument type: LC-ESI-ITFT
Ms type: MS2
Ion mode: POSITIVE
Ionization: ESI
Fragmentation mode: HCD
Collision energy: 50 % (nominal)
Resolution: 7500
Column name: Hypersil GOLD C18 1.9 um 100 x 2.1 mm Thermo Fisher Scientific
Retention time: 13.208 min
Base peak: 367.2377
Precursor m/z: 367.238
Precursor type: [M+H]+
Precursor intensity: 49259323.36621
m/z	relative intensity	assigned
56.9974	3	C2HO2+
57.0787	6	H11NO2+
69.0696	6	C5H9+
154.0657	5	C11H8N+
156.1017	29	C8H14NO2+
167.0726	29	C12H9N+
168.0802	27	C12H10N+
180.0805	12	C13H10N+
182.0956	7	C13H12N+
183.0913	8	C12H11N2+
192.0804	26	C14H10N+
194.096	70	C14H12N+
195.104	64	C14H13N+
196.1113	46	C14H14N+
197.1193	7	C14H15N+
198.1269	14	C14H16N+
206.0962	54	C15H12N+
207.104	135	C15H13N+
208.1118	92	C15H14N+
212.144	8	C15H18N+
218.0973	6	C16H12N+
221.1197	26	C16H15N+
222.1273	40	C16H16N+
223.1232	12	C15H15N2+
224.1428	28	C16H18N+
232.1122	8	C17H14N+
234.1276	19	C17H16N+
235.1352	34	C17H17N+
236.1429	111	C17H18N+
237.1382	42	C16H17N2+
238.146	315	C16H18N2+
239.1537	40	C16H19N2+
240.1376	8	C16H18NO+
246.1267	17	C18H16N+
248.1429	40	C18H18N+
249.1504	20	C18H19N+
250.1582	30	C18H20N+
251.1538	37	C17H19N2+
252.1614	8	C17H20N2+
261.1508	123	C19H19N+
262.1583	26	C19H20N+
264.1742	253	C19H22N+
265.1689	45	C18H21N2+
269.166	4	C17H21N2O+
276.1743	392	C20H22N+
277.1699	18	C19H21N2+
291.1848	16	C20H23N2+
292.1928	149	C20H24N2+
307.2165	246	C21H27N2+
367.2375	999	C23H31N2O2+
