Mass spectrum: Equisetin; LC-ESI-ITFT; MS2; CE: 50%; R=7500; [M+H]+
Name: Equisetin
Name: 3-[(1,6-dimethyl-2-prop-1-enyl-4a,5,6,7,8,8a-hexahydro-2H-naphthalen-1-yl)-hydroxymethylidene]-5-(hydroxymethyl)-1-methylpyrrolidine-2,4-dione
Formula: C22H31NO4
Exact mass: 373.2253
SMILES: CC=CC1C=CC2CC(CCC2C1(C)C(=C3C(=O)C(N(C3=O)C)CO)O)C
InChI: InChI=1S/C22H31NO4/c1-5-6-15-9-8-14-11-13(2)7-10-16(14)22(15,3)20(26)18-19(25)17(12-24)23(4)21(18)27/h5-6,8-9,13-17,24,26H,7,10-12H2,1-4H3
Instrument: LTQ Orbitrap XL Thermo Scientific
Instrument type: LC-ESI-ITFT
Ms type: MS2
Ion mode: POSITIVE
Ionization: ESI
Fragmentation mode: HCD
Collision energy: 50 % (nominal)
Resolution: 7500
Column name: Hypersil GOLD C18 1.9 um 100 x 2.1 mm Thermo Fisher Scientific
Retention time: 27.742 min
Base peak: 374.2333
Precursor m/z: 374.2326
Precursor type: [M+H]+
Precursor intensity: 11793795.11377
m/z	relative intensity	assigned
72.1719	16	H24O3+
72.2323	15	CH30NO+
81.0699	116	C6H9+
83.0858	25	C6H11+
84.0443	16	C4H6NO+
91.0542	26	C7H7+
93.0702	37	C7H9+
95.0856	85	C7H11+
105.07	162	C8H9+
107.0856	74	C8H11+
109.1011	22	C8H13+
119.0855	336	C9H11+
121.1012	47	C9H13+
123.1174	26	C9H15+
126.0549	69	C6H8NO2+
131.0853	31	C10H11+
133.1013	196	C10H13+
135.1169	71	C10H15+
140.0342	218	C6H6NO3+
140.0708	48	C7H10NO2+
142.0495	16	C6H8NO3+
143.0853	16	C11H11+
144.0656	167	C6H10NO3+
145.1009	35	C11H13+
147.117	183	C11H15+
149.1325	95	C11H17+
152.0343	152	C7H6NO3+
152.0707	91	C8H10NO2+
156.0654	109	C7H10NO3+
157.101	24	C12H13+
159.1166	33	C12H15+
161.1327	22	C12H17+
163.1481	65	C12H19+
166.087	24	C9H12NO2+
170.0449	504	C7H8NO4+
170.0813	537	C8H12NO3+
173.1323	52	C13H17+
175.1482	999	C13H19+
177.1639	52	C13H21+
182.0811	66	C9H12NO3+
184.0968	150	C9H14NO3+
187.1483	37	C14H19+
189.1637	102	C14H21+
196.0965	26	C10H14NO3+
198.0762	27	C9H12NO4+
200.0918	59	C9H14NO4+
203.1792	46	C15H23+
205.1951	98	C15H25+
213.1632	54	C16H21+
224.1284	16	C12H18NO3+
231.1737	29	C16H23O+
288.1593	13	C17H22NO3+
300.1596	21	C18H22NO3+
302.1761	32	C18H24NO3+
346.2367	19	C21H32NO3+
356.2231	32	C22H30NO3+
