Mass spectrum: Antipyrine; LC-ESI-ITFT; MS2; CE: 55%; R=15000; [M+H]+
Name: Antipyrine
Name: 1,5-dimethyl-2-phenylpyrazol-3-one
Formula: C11H12N2O
Exact mass: 188.0950
SMILES: CC1=CC(=O)N(N1C)C2=CC=CC=C2
InChI: InChI=1S/C11H12N2O/c1-9-8-11(14)13(12(9)2)10-6-4-3-5-7-10/h3-8H,1-2H3
Instrument: LTQ Orbitrap XL Thermo Scientific
Instrument type: LC-ESI-ITFT
Ms type: MS2
Ion mode: POSITIVE
Ionization: ESI
Fragmentation mode: HCD
Collision energy: 55% (nominal)
Resolution: 15000
Column name: Kinetex Evo C18 2.6 um 50 x 2.1 mm
Retention time: 5.562 min
Base peak: 189.1022
Precursor m/z: 189.1022
Precursor type: [M+H]+
m/z	relative intensity	assigned
56.0493	42	C3H6N+
58.0649	42	C3H8N+
70.065	3	C4H8N+
77.0387	2	C6H5+
91.0542	9	C7H7+
95.0604	3	C5H7N2+
96.0444	4	C5H6NO+
96.0682	26	C5H8N2+
98.06	7	C5H8NO+
103.0543	1	C8H7+
104.0495	45	C7H6N+
105.0697	1	C8H9+
106.0652	18	C7H8N+
117.0574	3	C8H7N+
117.0698	7	C9H9+
118.0651	21	C8H8N+
120.0808	20	C8H10N+
130.0651	24	C9H8N+
131.073	39	C9H9N+
132.0808	22	C9H10N+
133.0761	5	C8H9N2+
134.0963	3	C9H12N+
144.0808	38	C10H10N+
145.0648	16	C10H9O+
145.0885	2	C10H11N+
146.0839	38	C9H10N2+
146.0965	12	C10H12N+
147.0917	71	C9H11N2+
148.0757	6	C9H10NO+
149.0709	5	C8H9N2O+
157.0525	3	C10H7NO+
160.0996	2	C10H12N2+
161.1073	65	C10H13N2+
172.0758	7	C11H10NO+
174.0787	35	C10H10N2O+
189.1022	999	C11H13N2O+
