Mass spectrum: Antipyrine; LC-ESI-ITFT; MS2; CE: 35%; R=15000; [M+H]+
Name: Antipyrine
Name: 1,5-dimethyl-2-phenylpyrazol-3-one
Formula: C11H12N2O
Exact mass: 188.0950
SMILES: CC1=CC(=O)N(N1C)C2=CC=CC=C2
InChI: InChI=1S/C11H12N2O/c1-9-8-11(14)13(12(9)2)10-6-4-3-5-7-10/h3-8H,1-2H3
Instrument: LTQ Orbitrap XL Thermo Scientific
Instrument type: LC-ESI-ITFT
Ms type: MS2
Ion mode: POSITIVE
Ionization: ESI
Fragmentation mode: CID
Collision energy: 35% (nominal)
Resolution: 15000
Column name: Kinetex Evo C18 2.6 um 50 x 2.1 mm
Retention time: 5.974 min
Base peak: 189.1023
Precursor m/z: 189.1022
Precursor type: [M+H]+
m/z	relative intensity	assigned
91.0543	1	C7H7+
96.0683	1	C5H8N2+
103.0543	1	C8H7+
104.0495	3	C7H6N+
105.0699	1	C8H9+
111.0553	1	C5H7N2O+
117.0574	1	C8H7N+
117.0699	1	C9H9+
118.0652	11	C8H8N+
120.0808	12	C8H10N+
129.0701	1	C10H9+
130.0652	17	C9H8N+
131.073	53	C9H9N+
132.0808	11	C9H10N+
133.0761	5	C8H9N2+
134.0965	1	C9H12N+
135.0553	2	C7H7N2O+
144.0808	43	C10H10N+
145.0649	4	C10H9O+
146.0839	31	C9H10N2+
146.0965	26	C10H12N+
147.0917	29	C9H11N2+
148.0757	5	C9H10NO+
149.071	1	C8H9N2O+
158.0601	2	C10H8NO+
160.0997	1	C10H12N2+
161.1074	42	C10H13N2+
162.0913	1	C10H12NO+
172.0758	19	C11H10NO+
174.0789	17	C10H10N2O+
189.1023	999	C11H13N2O+
