Mass spectrum: Deoxybrevianamide E; LC-ESI-ITFT; MS2; CE: 60%; R=7500; [M-H]-
Name: Deoxybrevianamide E
Name: Desoxybrevianamide E
Name: 3-[[2-(2-methylbut-3-en-2-yl)-1H-indol-3-yl]methyl]-2,3,6,7,8,8a-hexahydropyrrolo[1,2-a]pyrazine-1,4-dione
Formula: C21H25N3O2
Exact mass: 351.19468
SMILES: CC(C)(C=C)C1=C(C2=CC=CC=C2N1)CC3C(=O)N4CCCC4C(=O)N3
InChI: InChI=1S/C21H25N3O2/c1-4-21(2,3)18-14(13-8-5-6-9-15(13)22-18)12-16-20(26)24-11-7-10-17(24)19(25)23-16/h4-6,8-9,16-17,22H,1,7,10-12H2,2-3H3,(H,23,25)
Instrument: LTQ Orbitrap XL Thermo Scientific
Instrument type: LC-ESI-ITFT
Ms type: MS2
Ion mode: NEGATIVE
Ionization: ESI
Fragmentation mode: HCD
Collision energy: 60 % (nominal)
Resolution: 7500
Column name: Hypersil GOLD C18 1.9 um 100 x 2.1 mm Thermo Fisher Scientific
Retention time: 18.088 min
Base peak: 350.1881
Precursor m/z: 350.1874
Precursor type: [M-H]-
Precursor intensity: 10705550.72803
m/z	relative intensity	assigned
84.0092	14	C3H2NO2-
110.0615	3	C6H8NO-
124.0408	21	C6H6NO2-
125.0359	112	C5H5N2O2-
135.0569	5	C7H7N2O-
152.0597	7	C7H8N2O2-
153.0671	999	C7H9N2O2-
350.1877	75	C21H24N3O2-
