Mass spectrum: Terrein; LC-ESI-ITFT; MS2; CE: 40%; R=7500; [M-H]-
Name: Terrein
Name: 4,5-dihydroxy-3-prop-1-enylcyclopent-2-en-1-one
Formula: C8H10O3
Exact mass: 154.0630
SMILES: CC=CC1=CC(=O)C(C1O)O
InChI: InChI=1S/C8H10O3/c1-2-3-5-4-6(9)8(11)7(5)10/h2-4,7-8,10-11H,1H3
Instrument: LTQ Orbitrap XL Thermo Scientific
Instrument type: LC-ESI-ITFT
Ms type: MS2
Ion mode: NEGATIVE
Ionization: ESI
Fragmentation mode: HCD
Collision energy: 40 % (nominal)
Resolution: 7500
Column name: Hypersil GOLD C18 1.9 um 100 x 2.1 mm Thermo Fisher Scientific
Retention time: 4.817 min
Base peak: 153.0557
Precursor m/z: 153.0557
Precursor type: [M-H]-
Precursor intensity: 2044825.407471
m/z	relative intensity	assigned
85.0296	12	C4H5O2-
95.0502	10	C6H7O-
97.0295	22	C5H5O2-
97.0657	11	C6H9O-
107.05	14	C7H7O-
109.0291	3	C6H5O2-
109.0659	71	C7H9O-
111.0451	8	C6H7O2-
112.0166	61	C5H4O3-
123.0449	10	C7H7O2-
124.0166	28	C6H4O3-
125.0608	145	C7H9O2-
135.0452	123	C8H7O2-
153.0557	999	C8H9O3-
