Mass spectrum: Dibucaine; LC-ESI-QFT; MS2; CE: 80%; R=30000; [M+H]+
Name: Dibucaine
Name: 2-Butoxy-N-[2-(diethylamino)ethyl]quinoline-4-carboxamide
Formula: C20H29N3O2
Exact mass: 343.226
SMILES: CCCCOC1=CC(C(=O)NCCN(CC)CC)=C2C=CC=CC2=N1
InChI: InChI=1S/C20H29N3O2/c1-4-7-14-25-19-15-17(16-10-8-9-11-18(16)22-19)20(24)21-12-13-23(5-2)6-3/h8-11,15H,4-7,12-14H2,1-3H3,(H,21,24)
Instrument: Orbitrap Fusion Tribrid Thermo Fisher Scientific
Instrument type: LC-ESI-QFT
Ms type: MS2
Ion mode: POSITIVE
Ionization: ESI
Fragmentation mode: HCD
Collision energy: 80% (nominal)
Resolution: 30000
Precursor m/z: 344.2333
Precursor type: [M+H]+
m/z	relative intensity
72.081	15
74.0967	12
89.0388	31
100.1123	11
116.0496	999
128.0498	14
130.0653	14
144.0446	207
145.0523	16
146.0601	11
153.0449	15
171.0556	59
172.0395	56
186.079	2
215.0818	23
