Mass spectrum: Sulfamethoxazole; LC-ESI-ITFT; MS2; CE: 45%; R=7500; [M+H]+
Name: Sulfamethoxazole
Name: 4-Amino-N-(5-methyl-1,2-oxazol-3-yl)benzene-1-sulfonamide
Formula: C10H11N3O3S
Exact mass: 253.0521
SMILES: CC1=CC(NS(=O)(=O)C2=CC=C(N)C=C2)=NO1
InChI: InChI=1S/C10H11N3O3S/c1-7-6-10(12-16-7)13-17(14,15)9-4-2-8(11)3-5-9/h2-6H,11H2,1H3,(H,12,13)
Instrument: LTQ Orbitrap XL Thermo Fisher Scientific
Instrument type: LC-ESI-ITFT
Ms type: MS2
Ion mode: POSITIVE
Ionization: ESI
Fragmentation mode: HCD
Collision energy: 45% (nominal)
Resolution: 7500
Column name: Hypersil GOLD C18 1.9 um 100 x 2.1 mm Thermo Fisher Scientific
Precursor m/z: 254.0594
Precursor type: [M+H]+
m/z	relative intensity
65.0385	16
92.0495	323
93.0572	130
94.0651	12
99.0554	147
107.0606	18
108.0446	503
110.0601	9
120.0556	7
121.0761	2
131.0603	4
132.0683	3
146.0714	28
147.0793	113
148.0873	27
156.0115	999
160.087	153
161.0018	11
163.0867	3
176.0283	9
188.0822	55
190.0975	11
194.0387	13
254.0594	68
