Mass spectrum: Terbutryn-OH-desmethyl (TENTATIVE); LC-ESI-QFT; MS2; CE: 30%; R=70000; [M+H]+
Name: Terbutryn-OH-desmethyl
Name: 4-(tert-butylamino)-6-(ethylamino)-1,3,5-triazine-2-thiol
Formula: C9H17N5OS
Exact mass: 243.1144
SMILES: C(*)C(*)NC1=NC(=NC(=N1)S)NC(C)(C)C(*) * = [OH (n=1) & H (n=2)]
Instrument: Q Exactive Plus Orbitrap Thermo Scientific
Instrument type: LC-ESI-QFT
Ms type: MS2
Ion mode: POSITIVE
Ionization: ESI
Fragmentation mode: HCD
Collision energy: 30% (nominal)
Resolution: 70000
Column name: Waters UPLC BEH C18 1.7 um 2.1 mm x 100 mm with pre-column
Retention time: 11.92 min
Precursor m/z: 244.1222
Precursor type: [M+H]+
m/z	relative intensity
57.0702	97
58.0653	73
67.0544	166
68.0245	187
69.07	270
71.0492	87
71.0605	549
79.0542	93
81.0699	172
83.0854	84
85.0648	76
86.0348	104
86.0711	113
91.0542	119
93.0699	166
95.0856	174
96.0556	85
97.0648	112
102.0121	221
103.0324	72
105.0699	74
107.0856	84
109.0651	80
109.1013	82
121.1013	147
123.0805	76
126.0773	90
127.0073	689
128.0277	999
138.0777	174
142.0183	395
142.0724	67
170.0497	230
171.0473	130
186.0812	129
188.0602	442
