Mass spectrum: Mefruside; LC-ESI-ITFT; MS2; CE: 70%; R=7500; [M+H]+
Name: Mefruside
Name: 4-Chloro-N1-methyl-N1-[(2-methyloxolan-2-yl)methyl]benzene-1,3-disulfonamide
Formula: C13H19ClN2O5S2
Exact mass: 382.0424
SMILES: CN(CC1(C)CCCO1)S(=O)(=O)C1=CC=C(Cl)C(=C1)S(N)(=O)=O
InChI: InChI=1S/C13H19ClN2O5S2/c1-13(6-3-7-21-13)9-16(2)23(19,20)10-4-5-11(14)12(8-10)22(15,17)18/h4-5,8H,3,6-7,9H2,1-2H3,(H2,15,17,18)
Instrument: LTQ Orbitrap XL Thermo Fisher Scientific
Instrument type: LC-ESI-ITFT
Ms type: MS2
Ion mode: POSITIVE
Ionization: ESI
Fragmentation mode: HCD
Collision energy: 70% (nominal)
Resolution: 7500
Column name: Hypersil GOLD C18 1.9 um 100 x 2.1 mm Thermo Fisher Scientific
Precursor m/z: 383.0497
Precursor type: [M+H]+
m/z	relative intensity
55.0541	15
56.8533	14
57.0334	26
69.0697	35
72.9827	16
79.0541	179
81.0697	984
84.0806	999
86.0598	106
89.0923	12
91.0177	28
95.0726	11
96.0807	83
97.0646	43
98.9999	16
99.0804	153
108.9842	55
110.0961	44
112.1124	14
116.9561	26
128.1071	89
129.1148	47
135.5955	16
140.9737	50
142.0053	159
142.9894	415
143.9671	11
156.0212	27
172.9463	31
188.9151	47
188.9335	28
198.9008	22
200.458	28
202.5359	18
202.6181	18
202.6988	20
203.9889	19
212.2242	12
217.9785	413
253.9355	9
273.8043	36
334.8782	10
350.8145	18
