Mass spectrum: Sulthiame; LC-ESI-ITFT; MS2; CE: 175%; R=15000; [M+H]+
Name: Sulthiame
Name: 4-(1,1-dioxothiazinan-2-yl)benzenesulfonamide
Formula: C10H14N2O4S2
Exact mass: 290.0395
SMILES: C1CCS(=O)(=O)N(C1)C2=CC=C(C=C2)S(=O)(=O)N
InChI: InChI=1S/C10H14N2O4S2/c11-18(15,16)10-5-3-9(4-6-10)12-7-1-2-8-17(12,13)14/h3-6H,1-2,7-8H2,(H2,11,15,16)
Instrument: LTQ Orbitrap XL Thermo Scientific
Instrument type: LC-ESI-ITFT
Ms type: MS2
Ion mode: POSITIVE
Ionization: ESI
Fragmentation mode: HCD
Collision energy: 175% (nominal)
Resolution: 15000
Column name: Kinetex Evo C18 2.6 um 50 x 2.1 mm
Retention time: 4.272 min
Base peak: 313.0286
Precursor m/z: 291.0468
Precursor type: [M+H]+
m/z	relative intensity	assigned
65.0383	217	C5H5+
75.0227	98	C6H3+
76.0306	999	C6H4+
77.0384	206	C6H5+
78.0462	275	C6H6+
79.0415	92	C5H5N+
89.0385	78	C7H5+
90.0463	140	C7H6+
91.0542	303	C7H7+
104.0494	792	C7H6N+
105.0447	266	C6H5N2+
105.0572	106	C7H7N+
117.0573	225	C8H7N+
