Mass spectrum: Antipyrine; LC-ESI-ITFT; MS2; CE: 170%; R=15000; [M+H]+
Name: Antipyrine
Name: 1,5-dimethyl-2-phenylpyrazol-3-one
Formula: C11H12N2O
Exact mass: 188.0950
SMILES: CC1=CC(=O)N(N1C)C2=CC=CC=C2
InChI: InChI=1S/C11H12N2O/c1-9-8-11(14)13(12(9)2)10-6-4-3-5-7-10/h3-8H,1-2H3
Instrument: LTQ Orbitrap XL Thermo Scientific
Instrument type: LC-ESI-ITFT
Ms type: MS2
Ion mode: POSITIVE
Ionization: ESI
Fragmentation mode: HCD
Collision energy: 170% (nominal)
Resolution: 15000
Column name: Kinetex Evo C18 2.6 um 50 x 2.1 mm
Retention time: 5.555 min
Base peak: 189.1023
Precursor m/z: 189.1022
Precursor type: [M+H]+
m/z	relative intensity	assigned
54.0336	33	C3H4N+
58.0649	76	C3H8N+
65.0384	247	C5H5+
75.0229	19	C6H3+
77.0385	999	C6H5+
78.0464	90	C6H6+
79.0542	69	C6H7+
80.0496	17	C5H6N+
81.0446	27	C4H5N2+
82.0287	16	C4H4NO+
89.0386	68	C7H5+
90.0464	58	C7H6+
91.0542	207	C7H7+
92.0493	26	C6H6N+
93.0574	27	C6H7N+
95.0491	236	C6H7O+
95.06	38	C5H7N2+
102.0464	60	C8H6+
103.0542	98	C8H7+
104.0495	241	C7H6N+
105.0447	943	C6H5N2+
106.065	70	C7H8N+
115.0542	180	C9H7+
117.0572	58	C8H7N+
118.0651	45	C8H8N+
128.0492	28	C9H6N+
129.045	18	C8H5N2+
130.0651	128	C9H8N+
131.0603	140	C8H7N2+
145.0761	35	C9H9N2+
