Mass spectrum: Nivalenol; LC-ESI-ITFT; MS2; CE: 50%; R=7500; [M-H]-
Name: Nivalenol
Name: Trichothec-9-en-8-one, 12,13-epoxy-3alpha,4beta,7alpha,15-tetrahydroxy-
Name: 3,10,11-trihydroxy-2-(hydroxymethyl)-1,5-dimethylspiro[8-oxatricyclo[7.2.1.02,7]dodec-5-ene-12,2`-oxirane]-4-one
Formula: C15H20O7
Exact mass: 312.1209
SMILES: CC1=CC2C(C(C1=O)O)(C3(C(C(C(C34CO4)O2)O)O)C)CO
InChI: InChI=1S/C15H20O7/c1-6-3-7-14(4-16,11(20)8(6)17)13(2)10(19)9(18)12(22-7)15(13)5-21-15/h3,7,9-12,16,18-20H,4-5H2,1-2H3
Instrument: LTQ Orbitrap XL Thermo Scientific
Instrument type: LC-ESI-ITFT
Ms type: MS2
Ion mode: NEGATIVE
Ionization: ESI
Fragmentation mode: HCD
Collision energy: 50 % (nominal)
Resolution: 7500
Column name: Hypersil GOLD C18 1.9 um 100 x 2.1 mm Thermo Fisher Scientific
Retention time: 3.864 min
Base peak: 371.1349
Precursor m/z: 311.1136
Precursor type: [M-H]-
Precursor intensity: 294779.0429688
m/z	relative intensity	assigned
191.0713	78	C11H11O3-
281.1031	999	C14H17O6-
311.1148	169	C15H19O7-
