Mass spectrum: Carviolin; LC-ESI-ITFT; MS2; CE: 60%; R=7500; [M+H]+
Name: Carviolin
Name: 1,3-dihydroxy-6-(hydroxymethyl)-8-methoxyanthracene-9,10-dione
Formula: C16H12O6
Exact mass: 300.0634
SMILES: COC1=CC(=CC2=C1C(=O)C3=C(C2=O)C=C(C=C3O)O)CO
InChI: InChI=1S/C16H12O6/c1-22-12-3-7(6-17)2-9-14(12)16(21)13-10(15(9)20)4-8(18)5-11(13)19/h2-5,17-19H,6H2,1H3
Instrument: LTQ Orbitrap XL Thermo Scientific
Instrument type: LC-ESI-ITFT
Ms type: MS2
Ion mode: POSITIVE
Ionization: ESI
Fragmentation mode: HCD
Collision energy: 60 % (nominal)
Resolution: 7500
Column name: Hypersil GOLD C18 1.9 um 100 x 2.1 mm Thermo Fisher Scientific
Retention time: 16.110 min
Base peak: 301.071
Precursor m/z: 301.0707
Precursor type: [M+H]+
Precursor intensity: 5816917.764404
m/z	relative intensity	assigned
188.047	26	C11H8O3+
201.0555	9	C12H9O3+
213.0546	14	C13H9O3+
229.0493	37	C13H9O4+
230.0576	32	C13H10O4+
240.0417	103	C14H8O4+
242.0574	6	C14H10O4+
255.0651	14	C15H11O4+
257.0443	999	C14H9O5+
258.0523	150	C14H10O5+
259.0594	8	C14H11O5+
268.0366	90	C15H8O5+
269.0434	21	C15H9O5+
271.06	39	C15H11O5+
272.0669	6	C15H12O5+
283.0613	5	C16H11O5+
285.04	23	C15H9O6+
286.0471	463	C15H10O6+
301.0706	418	C16H13O6+
