Mass spectrum: Deoxynivalenol; LC-ESI-ITFT; MS2; CE: 60%; R=7500; [M+H]+
Name: Deoxynivalenol
Name: Vomitoxin
Name: 3,10-dihydroxy-2-(hydroxymethyl)-1,5-dimethylspiro[8-oxatricyclo[7.2.1.02,7]dodec-5-ene-12,2`-oxirane]-4-one
Formula: C15H20O6
Exact mass: 296.1260
SMILES: CC1=CC2C(C(C1=O)O)(C3(CC(C(C34CO4)O2)O)C)CO
InChI: InChI=1S/C15H20O6/c1-7-3-9-14(5-16,11(19)10(7)18)13(2)4-8(17)12(21-9)15(13)6-20-15/h3,8-9,11-12,16-17,19H,4-6H2,1-2H3
Instrument: LTQ Orbitrap XL Thermo Scientific
Instrument type: LC-ESI-ITFT
Ms type: MS2
Ion mode: POSITIVE
Ionization: ESI
Fragmentation mode: HCD
Collision energy: 60 % (nominal)
Resolution: 7500
Column name: Hypersil GOLD C18 1.9 um 100 x 2.1 mm Thermo Fisher Scientific
Retention time: 5.939 min
Base peak: 297.1327
Precursor m/z: 297.1333
Precursor type: [M+H]+
Precursor intensity: 2931854.051514
m/z	relative intensity	assigned
56.1196	435	C2H16O+
105.0699	309	C8H9+
109.0645	172	C7H9O+
121.0646	397	C8H9O+
125.0592	594	C7H9O2+
137.0592	461	C8H9O2+
143.0854	173	C11H11+
157.1008	364	C12H13+
159.1162	271	C12H15+
161.0589	667	C10H9O2+
161.0962	465	C11H13O+
163.0746	280	C10H11O2+
173.0954	512	C12H13O+
175.075	999	C11H11O2+
175.1113	443	C12H15O+
177.091	528	C11H13O2+
185.0954	331	C13H13O+
187.1115	196	C13H15O+
189.0906	720	C12H13O2+
201.0907	427	C13H13O2+
203.0696	171	C12H11O3+
203.1064	886	C13H15O2+
213.0914	466	C14H13O2+
219.1022	252	C13H15O3+
231.1015	607	C14H15O3+
