Mass spectrum: Sulfamethoxazole; LC-ESI-ITFT; MS2; CE: 95%; R=15000; [M+H]+
Name: Sulfamethoxazole
Name: 4-amino-N-(5-methyl-1,2-oxazol-3-yl)benzenesulfonamide
Formula: C10H11N3O3S
Exact mass: 253.0521
SMILES: CC1=CC(=NO1)NS(=O)(=O)C2=CC=C(C=C2)N
InChI: InChI=1S/C10H11N3O3S/c1-7-6-10(12-16-7)13-17(14,15)9-4-2-8(11)3-5-9/h2-6H,11H2,1H3,(H,12,13)
Instrument: LTQ Orbitrap XL Thermo Scientific
Instrument type: LC-ESI-ITFT
Ms type: MS2
Ion mode: POSITIVE
Ionization: ESI
Fragmentation mode: HCD
Collision energy: 95% (nominal)
Resolution: 15000
Column name: Kinetex Evo C18 2.6 um 50 x 2.1 mm
Retention time: 5.582 min
Base peak: 189.1022
Precursor m/z: 254.0594
Precursor type: [M+H]+
m/z	relative intensity	assigned
65.0384	566	C5H5+
71.0602	2	C3H7N2+
72.0443	14	C3H6NO+
80.0494	167	C5H6N+
92.0495	999	C6H6N+
93.0572	193	C6H7N+
94.0651	7	C6H8N+
99.0553	75	C4H7N2O+
105.0447	3	C6H5N2+
106.0522	2	C6H6N2+
107.0604	20	C6H7N2+
108.0444	631	C6H6NO+
110.06	95	C6H8NO+
118.0522	3	C7H6N2+
119.0605	5	C7H7N2+
120.0556	12	C6H6N3+
131.0606	5	C8H7N2+
132.0679	4	C8H8N2+
133.0635	3	C7H7N3+
143.0603	2	C9H7N2+
145.0633	2	C8H7N3+
146.0713	33	C8H8N3+
147.0791	11	C8H9N3+
159.0786	2	C9H9N3+
160.0871	6	C9H10N3+
