Mass spectrum: Viridicatumtoxin; LC-ESI-ITFT; MS2; CE: 50%; R=7500; [M-H]-
Name: Viridicatumtoxin
Name: (8,8`-Bi-1H-naphtho(2,3-c)pyran)-3,3`-diacetic acid, 3,3`,4,4`-tetrahydro-9,9`,10,10`-tetrahydroxy-7,7`-dimethoxy-1,1`-dioxo-, dimethyl ester
Name: 3`,4`,8`,9`,12`,14`-hexahydroxy-16`-methoxy-1,5,5-trimethyl-6`,10`-dioxospiro[cyclohexene-6,18`-pentacyclo[11.6.1.02,11.04,9.017,20]icosa-1(20),2(11),7,12,14,16-hexaene]-7`-carboxamide
Formula: C30H31NO10
Exact mass: 565.19480
SMILES: CC1=CCCC(C12CC3=C4C2=C(C=C(C4=C(C5=C3C(C6(CC(=O)C(=C(C6(C5=O)O)O)C(=O)N)O)O)O)O)OC)(C)C
InChI: InChI=1S/C30H31NO10/c1-11-6-5-7-27(2,3)28(11)9-12-16-18(13(32)8-15(41-4)21(16)28)22(34)20-17(12)23(35)29(39)10-14(33)19(26(31)38)24(36)30(29,40)25(20)37/h6,8,23,32,34-36,39-40H,5,7,9-10H2,1-4H3,(H2,31,38)
Instrument: LTQ Orbitrap XL Thermo Scientific
Instrument type: LC-ESI-ITFT
Ms type: MS2
Ion mode: NEGATIVE
Ionization: ESI
Fragmentation mode: HCD
Collision energy: 50 % (nominal)
Resolution: 7500
Column name: Hypersil GOLD C18 1.9 um 100 x 2.1 mm Thermo Fisher Scientific
Retention time: 25.381 min
Base peak: 564.1883
Precursor m/z: 564.1875
Precursor type: [M-H]-
Precursor intensity: 3641171.04126
m/z	relative intensity	assigned
56.014	221	C2H2NO-
184.0256	281	C7H6NO5-
201.0211	140	C14H3NO-
379.1563	240	C23H23O5-
405.1389	253	C27H19NO3-
417.1732	172	C29H23NO2-
441.1699	358	C28H25O5-
459.1817	577	C28H27O6-
485.1606	831	C29H25O7-
502.1879	999	C29H28NO7-
547.1594	158	C30H27O10-
