Mass spectrum: Etilefrine; LC-ESI-ITFT; MS2; CE: 110%; R=15000; [M+H]+
Name: Etilefrine
Name: 3-[2-(ethylamino)-1-hydroxyethyl]phenol
Formula: C10H15NO2
Exact mass: 181.1103
SMILES: CCNCC(C1=CC(=CC=C1)O)O
InChI: InChI=1S/C10H15NO2/c1-2-11-7-10(13)8-4-3-5-9(12)6-8/h3-6,10-13H,2,7H2,1H3
Instrument: LTQ Orbitrap XL Thermo Scientific
Instrument type: LC-ESI-ITFT
Ms type: MS2
Ion mode: POSITIVE
Ionization: ESI
Fragmentation mode: HCD
Collision energy: 110% (nominal)
Resolution: 15000
Column name: Kinetex Evo C18 2.6 um 50 x 2.1 mm
Retention time: 0.619 min
Base peak: 182.1175
Precursor m/z: 182.1176
Precursor type: [M+H]+
m/z	relative intensity	assigned
56.0492	12	C3H6N+
65.0384	43	C5H5+
77.0386	34	C6H5+
79.0541	27	C6H7+
80.0494	6	C5H6N+
81.0699	40	C6H9+
90.0464	8	C7H6+
91.0542	999	C7H7+
92.0495	9	C6H6N+
93.0574	7	C6H7N+
93.0699	9	C7H9+
94.0413	41	C6H6O+
95.0492	9	C6H7O+
103.0543	29	C8H7+
104.0496	23	C7H6N+
105.0449	21	C6H5N2+
106.065	33	C7H8N+
107.0491	115	C7H7O+
107.0732	11	C7H9N+
108.0569	29	C7H8O+
109.0648	51	C7H9O+
117.0575	27	C8H7N+
118.0412	8	C8H6O+
118.0651	81	C8H8N+
119.0492	34	C8H7O+
119.0605	6	C7H7N2+
120.0444	52	C7H6NO+
121.0648	8	C8H9O+
134.0601	177	C8H8NO+
135.0678	102	C8H9NO+
136.0753	10	C8H10NO+
