Mass spectrum: Mefruside; LC-ESI-ITFT; MS2; CE: 80%; R=7500; [M+H]+
Name: Mefruside
Name: 4-Chloro-N1-methyl-N1-[(2-methyloxolan-2-yl)methyl]benzene-1,3-disulfonamide
Formula: C13H19ClN2O5S2
Exact mass: 382.0424
SMILES: CN(CC1(C)CCCO1)S(=O)(=O)C1=CC=C(Cl)C(=C1)S(N)(=O)=O
InChI: InChI=1S/C13H19ClN2O5S2/c1-13(6-3-7-21-13)9-16(2)23(19,20)10-4-5-11(14)12(8-10)22(15,17)18/h4-5,8H,3,6-7,9H2,1-2H3,(H2,15,17,18)
Instrument: LTQ Orbitrap XL Thermo Fisher Scientific
Instrument type: LC-ESI-ITFT
Ms type: MS2
Ion mode: POSITIVE
Ionization: ESI
Fragmentation mode: HCD
Collision energy: 80% (nominal)
Resolution: 7500
Column name: Hypersil GOLD C18 1.9 um 100 x 2.1 mm Thermo Fisher Scientific
Precursor m/z: 383.0497
Precursor type: [M+H]+
m/z	relative intensity
56.8666	15
57.0332	16
69.0698	21
72.9602	22
79.0541	229
81.0697	773
84.0806	999
86.0599	81
89.0922	18
91.0179	63
95.0726	21
96.0807	82
97.0642	34
98.9994	49
99.0805	49
108.984	100
110.0961	28
112.1121	12
114.9945	30
116.9563	23
128.107	55
135.6411	11
140.9735	59
142.0053	160
142.9894	430
156.0212	20
172.9459	36
188.9169	54
198.9001	29
200.4579	32
202.5238	15
202.6121	27
202.6996	11
202.7967	17
217.9789	115
268.5947	22
273.8045	30
350.8133	17
