Mass spectrum: Dibucaine; LC-ESI-ITFT; MS2; CE: 100%; R=15000; [M+H]+
Name: Dibucaine
Name: 2-butoxy-N-[2-(diethylamino)ethyl]quinoline-4-carboxamide
Formula: C20H29N3O2
Exact mass: 343.2260
SMILES: CCCCOC1=NC2=CC=CC=C2C(=C1)C(=O)NCCN(CC)CC
InChI: InChI=1S/C20H29N3O2/c1-4-7-14-25-19-15-17(16-10-8-9-11-18(16)22-19)20(24)21-12-13-23(5-2)6-3/h8-11,15H,4-7,12-14H2,1-3H3,(H,21,24)
Instrument: LTQ Orbitrap XL Thermo Scientific
Instrument type: LC-ESI-ITFT
Ms type: MS2
Ion mode: POSITIVE
Ionization: ESI
Fragmentation mode: HCD
Collision energy: 100% (nominal)
Resolution: 15000
Column name: Kinetex Evo C18 2.6 um 50 x 2.1 mm
Retention time: 8.747 min
Base peak: 344.2333
Precursor m/z: 344.2333
Precursor type: [M+H]+
m/z	relative intensity	assigned
57.0696	36	C4H9+
72.0807	17	C4H10N+
74.0963	10	C4H12N+
86.0964	2	C5H12N+
89.0386	15	C7H5+
100.112	14	C6H14N+
115.0546	2	C9H7+
116.0494	999	C8H6N+
117.057	2	C8H7N+
118.0651	2	C8H8N+
128.0495	11	C9H6N+
130.0651	10	C9H8N+
132.0442	2	C8H6NO+
134.0601	7	C8H8NO+
142.0651	5	C10H8N+
143.0368	3	C9H5NO+
143.0602	3	C9H7N2+
143.0729	2	C10H9N+
144.0444	183	C9H6NO+
145.0521	17	C9H7NO+
146.0599	8	C9H8NO+
153.0447	17	C10H5N2+
157.0888	3	C11H11N+
160.0762	3	C10H10NO+
167.0723	1	C12H9N+
169.0764	2	C11H9N2+
170.0602	4	C11H8NO+
171.0552	46	C10H7N2O+
172.0393	50	C10H6NO2+
215.0816	15	C12H11N2O2+
