Mass spectrum: Eremofortin A; LC-ESI-ITFT; MS2; CE: 30%; R=7500; [M+H]+
Name: Eremofortin A
Name: (3,3`,3`,3a-tetramethyl-6-oxospiro[2,3,4,7b-tetrahydro-1aH-naphtho[1,2-b]oxirene-5,2`-oxirane]-2-yl) acetate
Formula: C17H22O5
Exact mass: 306.1467
SMILES: CC1C(C2C(O2)C3=CC(=O)C4(CC13C)C(O4)(C)C)OC(=O)C
InChI: InChI=1S/C17H22O5/c1-8-12(20-9(2)18)14-13(21-14)10-6-11(19)17(7-16(8,10)5)15(3,4)22-17/h6,8,12-14H,7H2,1-5H3
Instrument: LTQ Orbitrap XL Thermo Scientific
Instrument type: LC-ESI-ITFT
Ms type: MS2
Ion mode: POSITIVE
Ionization: ESI
Fragmentation mode: HCD
Collision energy: 30 % (nominal)
Resolution: 7500
Column name: Hypersil GOLD C18 1.9 um 100 x 2.1 mm Thermo Fisher Scientific
Retention time: 15.832 min
Base peak: 307.1542
Precursor m/z: 307.154
Precursor type: [M+H]+
Precursor intensity: 10341978.54785
m/z	relative intensity	assigned
135.0802	18	C9H11O+
149.0963	22	C10H13O+
159.0808	24	C11H11O+
159.1167	14	C12H15+
161.0959	118	C11H13O+
163.075	29	C10H11O2+
173.1325	20	C13H17+
175.075	13	C11H11O2+
175.1115	26	C12H15O+
177.0907	793	C11H13O2+
187.1117	78	C13H15O+
188.1199	8	C13H16O+
189.0909	58	C12H13O2+
191.1433	33	C13H19O+
195.1011	11	C11H15O3+
201.1271	234	C14H17O+
203.1423	12	C14H19O+
205.1221	140	C13H17O2+
219.1377	178	C14H19O2+
229.1221	200	C15H17O2+
237.1116	13	C13H17O4+
247.1326	543	C15H19O3+
265.1429	999	C15H21O4+
289.1431	80	C17H21O4+
307.1536	349	C17H23O5+
