Mass spectrum: Sulfamoxole; LC-ESI-QFT; MS2; CE: 30%; R=17500; [M+H]+
Name: Sulfamoxole
Name: 4-Amino-N-(4,5-dimethyl-1,3-oxazol-2-yl)benzene-1-sulfonamide
Formula: C11H13N3O3S
Exact mass: 267.0678
SMILES: CC1=C(C)N=C(NS(=O)(=O)C2=CC=C(N)C=C2)O1
InChI: InChI=1S/C11H13N3O3S/c1-7-8(2)17-11(13-7)14-18(15,16)10-5-3-9(12)4-6-10/h3-6H,12H2,1-2H3,(H,13,14)
Instrument: Q Exactive Thermo Fisher Scientific
Instrument type: LC-ESI-QFT
Ms type: MS2
Ion mode: POSITIVE
Ionization: ESI
Fragmentation mode: HCD
Collision energy: 30% (nominal)
Resolution: 17500
Column name: Hypersil GOLD 1.9 um 2.1 x 100 mm Thermo Fisher Scientific
Precursor m/z: 268.0751
Precursor type: [M+H]+
m/z	relative intensity
65.0393	10
68.0503	13
69.0581	2
70.066	5
80.0501	1
92.05	178
93.0579	1
94.0657	4
96.0449	1
108.0448	275
110.0605	12
111.0557	24
112.0635	111
113.0713	442
120.0558	5
140.0166	90
156.0114	999
158.0272	13
175.0172	7
268.0751	98
