Mass spectrum: 3-Acetyldeoxynivalenol; LC-ESI-ITFT; MS2; CE: 60%; R=7500; [M-H]-
Name: 3-Acetyldeoxynivalenol
Name: Acetyldeoxynivalenol
Name: [3-hydroxy-2-(hydroxymethyl)-1,5-dimethyl-4-oxospiro[8-oxatricyclo[7.2.1.02,7]dodec-5-ene-12,2`-oxirane]-10-yl] acetate
Formula: C17H22O7
Exact mass: 338.1366
SMILES: CC1=CC2C(C(C1=O)O)(C3(CC(C(C34CO4)O2)OC(=O)C)C)CO
InChI: InChI=1S/C17H22O7/c1-8-4-11-16(6-18,13(21)12(8)20)15(3)5-10(23-9(2)19)14(24-11)17(15)7-22-17/h4,10-11,13-14,18,21H,5-7H2,1-3H3
Instrument: LTQ Orbitrap XL Thermo Scientific
Instrument type: LC-ESI-ITFT
Ms type: MS2
Ion mode: NEGATIVE
Ionization: ESI
Fragmentation mode: HCD
Collision energy: 60 % (nominal)
Resolution: 7500
Column name: Hypersil GOLD C18 1.9 um 100 x 2.1 mm Thermo Fisher Scientific
Retention time: 10.822 min
Base peak: 397.1505
Precursor m/z: 337.1293
Precursor type: [M-H]-
Precursor intensity: 4720813.125
m/z	relative intensity	assigned
59.0138	256	C2H3O2-
167.072	17	C9H11O3-
168.0427	65	C8H8O4-
173.0605	648	C11H9O2-
175.076	70	C11H11O2-
191.0712	126	C11H11O3-
199.0765	89	C13H11O2-
201.0925	76	C13H13O2-
203.0715	68	C12H11O3-
203.108	21	C13H15O2-
205.087	31	C12H13O3-
217.0868	601	C13H13O3-
219.1025	74	C13H15O3-
229.0867	222	C14H13O3-
247.0976	280	C14H15O4-
259.0976	35	C15H15O4-
265.1079	90	C14H17O5-
277.1078	133	C15H17O5-
307.1182	999	C16H19O6-
