Mass spectrum: 15 Acetyldeoxynivalenol; LC-ESI-ITFT; MS2; CE: 50%; R=7500; [M+H]+
Name: 15 Acetyldeoxynivalenol
Name: 15-Acetyl-4-deoxynivalenol
Name: (3,10-dihydroxy-1,5-dimethyl-4-oxospiro[8-oxatricyclo[7.2.1.02,7]dodec-5-ene-12,2`-oxirane]-2-yl)methyl acetate
Formula: C17H22O7
Exact mass: 338.1366
SMILES: CC1=CC2C(C(C1=O)O)(C3(CC(C(C34CO4)O2)O)C)COC(=O)C
InChI: InChI=1S/C17H22O7/c1-8-4-11-16(6-22-9(2)18,13(21)12(8)20)15(3)5-10(19)14(24-11)17(15)7-23-17/h4,10-11,13-14,19,21H,5-7H2,1-3H3
Instrument: LTQ Orbitrap XL Thermo Scientific
Instrument type: LC-ESI-ITFT
Ms type: MS2
Ion mode: POSITIVE
Ionization: ESI
Fragmentation mode: HCD
Collision energy: 50 % (nominal)
Resolution: 7500
Column name: Hypersil GOLD C18 1.9 um 100 x 2.1 mm Thermo Fisher Scientific
Retention time: 10.952 min
Base peak: 361.1252
Precursor m/z: 339.1438
Precursor type: [M+H]+
Precursor intensity: 3434522.244629
m/z	relative intensity	assigned
137.0596	409	C8H9O2+
159.0808	224	C11H11O+
175.0746	355	C11H11O2+
189.0902	236	C12H13O2+
201.0904	522	C13H13O2+
203.1064	375	C13H15O2+
213.09	826	C14H13O2+
223.0962	185	C12H15O4+
231.1006	999	C14H15O3+
249.112	215	C14H17O4+
297.1338	263	C15H21O6+
