Mass spectrum: Zearalenone; LC-ESI-ITFT; MS2; CE: 15%; R=7500; [M+H]+
Name: Zearalenone
Name: 15,17-Dihydroxy-11-methyl-12-oxabicyclo[12.4.0]octadeca-1(14),2,15,17-tetraene-7,13-dione
Name: 16,18-dihydroxy-4-methyl-3-oxabicyclo[12.4.0]octadeca-1(14),12,15,17-tetraene-2,8-dione
Formula: C18H22O5
Exact mass: 318.1467
SMILES: CC1CCCC(=O)CCCC=CC2=C(C(=CC(=C2)O)O)C(=O)O1
InChI: InChI=1S/C18H22O5/c1-12-6-5-9-14(19)8-4-2-3-7-13-10-15(20)11-16(21)17(13)18(22)23-12/h3,7,10-12,20-21H,2,4-6,8-9H2,1H3
Instrument: LTQ Orbitrap XL Thermo Scientific
Instrument type: LC-ESI-ITFT
Ms type: MS2
Ion mode: POSITIVE
Ionization: ESI
Fragmentation mode: HCD
Collision energy: 15 % (nominal)
Resolution: 7500
Column name: Hypersil GOLD C18 1.9 um 100 x 2.1 mm Thermo Fisher Scientific
Retention time: 21.136 min
Base peak: 319.1547
Precursor m/z: 319.154
Precursor type: [M+H]+
Precursor intensity: 8085958.734131
m/z	relative intensity	assigned
55.0178	21	C3H3O+
69.0697	25	C5H9+
72.0572	14	C4H8O+
97.0648	66	C6H9O+
125.096	26	C8H13O+
137.0965	5	C9H13O+
149.06	13	C9H9O2+
157.0649	9	C11H9O+
161.0597	14	C10H9O2+
163.0753	7	C10H11O2+
165.0541	5	C9H9O3+
175.0748	14	C11H11O2+
177.0548	20	C10H9O3+
177.091	9	C11H13O2+
185.0595	76	C12H9O2+
187.0754	369	C12H11O2+
189.0548	90	C11H9O3+
199.0753	9	C13H11O2+
201.0907	13	C13H13O2+
203.0704	151	C12H11O3+
205.0487	18	C11H9O4+
205.0859	135	C12H13O3+
213.0549	30	C13H9O3+
213.0914	9	C14H13O2+
215.0705	69	C13H11O3+
217.0861	109	C13H13O3+
221.081	60	C12H13O4+
227.0709	18	C14H11O3+
229.086	68	C14H13O3+
231.0653	458	C13H11O4+
239.1072	15	C16H15O2+
241.086	43	C15H13O3+
241.1223	12	C16H17O2+
249.076	174	C13H13O5+
257.1539	44	C17H21O2+
265.122	131	C18H17O2+
275.1649	12	C17H23O3+
283.133	999	C18H19O3+
301.1437	952	C18H21O4+
319.1542	520	C18H23O5+
