Mass spectrum: Eremofortin A; LC-ESI-ITFT; MS2; CE: 15%; R=7500; [M+H]+
Name: Eremofortin A
Name: (3,3`,3`,3a-tetramethyl-6-oxospiro[2,3,4,7b-tetrahydro-1aH-naphtho[1,2-b]oxirene-5,2`-oxirane]-2-yl) acetate
Formula: C17H22O5
Exact mass: 306.1467
SMILES: CC1C(C2C(O2)C3=CC(=O)C4(CC13C)C(O4)(C)C)OC(=O)C
InChI: InChI=1S/C17H22O5/c1-8-12(20-9(2)18)14-13(21-14)10-6-11(19)17(7-16(8,10)5)15(3,4)22-17/h6,8,12-14H,7H2,1-5H3
Instrument: LTQ Orbitrap XL Thermo Scientific
Instrument type: LC-ESI-ITFT
Ms type: MS2
Ion mode: POSITIVE
Ionization: ESI
Fragmentation mode: HCD
Collision energy: 15 % (nominal)
Resolution: 7500
Column name: Hypersil GOLD C18 1.9 um 100 x 2.1 mm Thermo Fisher Scientific
Retention time: 15.832 min
Base peak: 307.1542
Precursor m/z: 307.154
Precursor type: [M+H]+
Precursor intensity: 10341978.54785
m/z	relative intensity	assigned
161.0956	6	C11H13O+
177.0907	32	C11H13O2+
187.1116	4	C13H15O+
189.0907	3	C12H13O2+
201.1274	13	C14H17O+
205.1231	5	C13H17O2+
219.1377	16	C14H19O2+
229.1223	10	C15H17O2+
237.1132	3	C13H17O4+
247.1325	74	C15H19O3+
261.1482	3	C16H21O3+
265.1429	77	C15H21O4+
289.1434	25	C17H21O4+
307.1535	999	C17H23O5+
