Mass spectrum: Amiloride; ESI-QTOF; MS2; CE: 25eV; R=15000; [M+H]+
Name: Amiloride
Name: 3,5-Diamino-N-carbamimidoyl-6-chloropyrazine-2-carboxamide
Formula: C6H8ClN7O
Exact mass: 229.0479
SMILES: NC(=N)NC(=O)C1=NC(Cl)=C(N)N=C1N
InChI: InChI=1S/C6H8ClN7O/c7-2-4(9)13-3(8)1(12-2)5(15)14-6(10)11/h(H4,8,9,13)(H4,10,11,14,15)
Instrument: TripleTOF 5600+SCIEX
Instrument type: ESI-QTOF
Ms type: MS2
Ion mode: POSITIVE
Ionization: ESI
Fragmentation mode: CID
Collision energy: 25 eV
Resolution: 15000
Precursor m/z: 230.0552
Precursor type: [M+H]+
m/z	relative intensity
60.0574	101
61.041	1
63.9961	1
86.0352	6
88.9904	1
100.99	2
108.0427	7
116.0005	70
125.045	1
143.011	117
145.0264	2
161.0214	11
170.0215	2
171.0057	999
188.0321	9
189.0161	7
213.0273	11
230.0552	218
