Mass spectrum: Sulfamoxole; LC-ESI-QFT; MS2; CE: CE15; R=17500; [M+H]+
Name: Sulfamoxole
Name: 4-amino-N-(4,5-dimethyl-1,3-oxazol-2-yl)benzenesulfonamide
Formula: C11H13N3O3S
Exact mass: 267.0678
SMILES: CC1=C(C)N=C(NS(=O)(=O)C2=CC=C(N)C=C2)O1
InChI: InChI=1S/C11H13N3O3S/c1-7-8(2)17-11(13-7)14-18(15,16)10-5-3-9(12)4-6-10/h3-6H,12H2,1-2H3,(H,13,14)
Instrument: Q Exactive Thermo Fisher Scientific
Instrument type: LC-ESI-QFT
Ms type: MS2
Ion mode: POSITIVE
Ionization: ESI
Fragmentation mode: HCD
Collision energy: CE15
Resolution: 17500
Column name: Acquity UPLC BEH C18 1.7 um, 2.1 x 150 mm, Waters
Retention time: 13.974 min
Base peak: 223.0628
Precursor m/z: 268.075
Precursor type: [M+H]+
m/z	relative intensity	assigned
53.0392	1	C4H5+
54.0342	2	C3H4N+
65.0392	6	C5H5+
68.0497	28	C4H6N+
69.0575	1	C4H7N+
70.0652	4	C4H8N+
78.034	4	C5H4N+
79.0182	5	C5H3O+
80.0497	2	C5H6N+
92.0497	40	C6H6N+
96.0441	4	C5H6NO+
108.0439	183	C6H6NO+
110.0598	14	C6H8NO+
111.0554	25	C5H7N2O+
112.0636	86	C5H8N2O+
113.0709	383	C5H9N2O+
120.0555	3	C6H6N3+
140.0167	102	C6H6NOS+
156.0108	999	C6H6NO2S+
