Mass spectrum: Epiequisetin; LC-ESI-ITFT; MS2; CE: 20%; R=7500; [M+H]+
Name: Epiequisetin
Name: 3-[(1,6-dimethyl-2-prop-1-enyl-4a,5,6,7,8,8a-hexahydro-2H-naphthalen-1-yl)-hydroxymethylidene]-5-(hydroxymethyl)-1-methylpyrrolidine-2,4-dione
Formula: C22H31NO4
Exact mass: 373.2253
SMILES: CC=CC1C=CC2CC(CCC2C1(C)C(=C3C(=O)C(N(C3=O)C)CO)O)C
InChI: InChI=1S/C22H31NO4/c1-5-6-15-9-8-14-11-13(2)7-10-16(14)22(15,3)20(26)18-19(25)17(12-24)23(4)21(18)27/h5-6,8-9,13-17,24,26H,7,10-12H2,1-4H3
Instrument: LTQ Orbitrap XL Thermo Scientific
Instrument type: LC-ESI-ITFT
Ms type: MS2
Ion mode: POSITIVE
Ionization: ESI
Fragmentation mode: HCD
Collision energy: 20 % (nominal)
Resolution: 7500
Column name: Hypersil GOLD C18 1.9 um 100 x 2.1 mm Thermo Fisher Scientific
Retention time: 28.042 min
Base peak: 374.2332
Precursor m/z: 374.2326
Precursor type: [M+H]+
Precursor intensity: 9559347.09082
m/z	relative intensity	assigned
81.0701	3	C6H9+
83.0854	6	C6H11+
95.0859	1	C7H11+
105.0699	5	C8H9+
119.0856	10	C9H11+
133.1012	6	C10H13+
144.0658	10	C6H10NO3+
147.117	15	C11H15+
149.1324	3	C11H17+
170.0448	10	C7H8NO4+
170.0814	32	C8H12NO3+
175.1483	323	C13H19+
177.1638	18	C13H21+
184.0973	9	C9H14NO3+
186.0763	3	C8H12NO4+
189.1641	10	C14H21+
200.092	68	C9H14NO4+
203.1798	4	C15H23+
205.1956	28	C15H25+
213.1632	4	C16H21+
228.1233	2	C11H18NO4+
231.1746	5	C16H23O+
240.1225	3	C12H18NO4+
290.175	3	C17H24NO3+
292.1543	6	C16H22NO4+
294.1706	8	C16H24NO4+
302.1747	4	C18H24NO3+
346.2379	77	C21H32NO3+
356.2221	222	C22H30NO3+
374.2328	999	C22H32NO4+
