Mass spectrum: Ethambutol; ESI-QTOF; MS2; CE: 35eV; R=15000; [M+H]+
Name: Ethambutol
Name: (2S,2'S)-2,2'-(Ethane-1,2-diyldiazanediyl)di(butan-1-ol)
Formula: C10H24N2O2
Exact mass: 204.1838
SMILES: CC[C@@H](CO)NCCN[C@@H](CC)CO
InChI: InChI=1S/C10H24N2O2/c1-3-9(7-13)11-5-6-12-10(4-2)8-14/h9-14H,3-8H2,1-2H3/t9-,10-/m0/s1
Instrument: TripleTOF 5600+SCIEX
Instrument type: ESI-QTOF
Ms type: MS2
Ion mode: POSITIVE
Ionization: ESI
Fragmentation mode: CID
Collision energy: 35 eV
Resolution: 15000
Precursor m/z: 205.1911
Precursor type: [M+H]+
m/z	relative intensity
53.0416	2
55.0571	78
56.0522	13
57.0722	1
62.0622	5
69.0718	3
70.0669	3
72.0825	5
79.0556	1
81.0713	2
90.0922	2
98.0972	21
116.1075	999
205.1911	1
