Mass spectrum: Dibucaine; LC-ESI-ITFT; MS2; CE: 50%; R=7500; [M+H]+
Name: Dibucaine
Name: 2-Butoxy-N-[2-(diethylamino)ethyl]quinoline-4-carboxamide
Formula: C20H29N3O2
Exact mass: 343.226
SMILES: CCCCOC1=CC(C(=O)NCCN(CC)CC)=C2C=CC=CC2=N1
InChI: InChI=1S/C20H29N3O2/c1-4-7-14-25-19-15-17(16-10-8-9-11-18(16)22-19)20(24)21-12-13-23(5-2)6-3/h8-11,15H,4-7,12-14H2,1-3H3,(H,21,24)
Instrument: LTQ Orbitrap XL Thermo Fisher Scientific
Instrument type: LC-ESI-ITFT
Ms type: MS2
Ion mode: POSITIVE
Ionization: ESI
Fragmentation mode: HCD
Collision energy: 50% (nominal)
Resolution: 7500
Column name: Hypersil GOLD C18 1.9 um 100 x 2.1 mm Thermo Fisher Scientific
Precursor m/z: 344.2333
Precursor type: [M+H]+
m/z	relative intensity
57.0702	1
57.08	1
74.0963	18
100.1121	35
116.0494	8
144.0445	13
146.0602	2
158.0602	3
172.0394	42
182.0962	1
187.0867	2
200.1073	3
202.1227	3
215.0817	434
227.1183	15
228.1022	48
243.1495	3
271.1444	999
344.2333	5
