Mass spectrum: Etofylline; LC-ESI-QFT; MS2; CE: 40%; R=17500; [M+H]+
Name: Etofylline
Name: 7-(2-Hydroxyethyl)-1,3-dimethyl-3,7-dihydro-1H-purine-2,6-dione
Formula: C9H12N4O3
Exact mass: 224.0909
SMILES: CN1C2=C(N(CCO)C=N2)C(=O)N(C)C1=O
InChI: InChI=1S/C9H12N4O3/c1-11-7-6(8(15)12(2)9(11)16)13(3-4-14)5-10-7/h5,14H,3-4H2,1-2H3
Instrument: Q Exactive Thermo Fisher Scientific
Instrument type: LC-ESI-QFT
Ms type: MS2
Ion mode: POSITIVE
Ionization: ESI
Fragmentation mode: HCD
Collision energy: 40% (nominal)
Resolution: 17500
Column name: Hypersil GOLD 1.9 um 2.1 x 100 mm Thermo Fisher Scientific
Precursor m/z: 225.0983
Precursor type: [M+H]+
m/z	relative intensity
69.0455	4
96.0562	11
124.0509	172
137.0824	3
140.082	1
142.0614	6
168.0769	3
181.0722	999
186.0874	1
225.0983	117
