Mass spectrum: Emodin; LC-ESI-ITFT; MS2; CE: 20%; R=7500; [M+H]+
Name: Emodin
Name: 1,3,8-trihydroxy-6-methylanthracene-9,10-dione
Formula: C15H10O5
Exact mass: 270.0528
SMILES: CC1=CC2=C(C(=C1)O)C(=O)C3=C(C2=O)C=C(C=C3O)O
InChI: InChI=1S/C15H10O5/c1-6-2-8-12(10(17)3-6)15(20)13-9(14(8)19)4-7(16)5-11(13)18/h2-5,16-18H,1H3
Instrument: LTQ Orbitrap XL Thermo Scientific
Instrument type: LC-ESI-ITFT
Ms type: MS2
Ion mode: POSITIVE
Ionization: ESI
Fragmentation mode: HCD
Collision energy: 20 % (nominal)
Resolution: 7500
Column name: Hypersil GOLD C18 1.9 um 100 x 2.1 mm Thermo Fisher Scientific
Retention time: 24.809 min
Base peak: 271.0606
Precursor m/z: 271.0601
Precursor type: [M+H]+
Precursor intensity: 429713.2734375
m/z	relative intensity	assigned
271.0602	999	C15H11O5+
