Mass spectrum: Atrazine-desaturated (TENTATIVE); LC-ESI-QFT; MS2; CE: 30%; R=70000; [M+H]+
Name: Atrazine-desaturated
Formula: C8H12ClN5
Exact mass: 213.0771
SMILES: *NC1=NC(=NC(=N1)Cl)N* |$R1;;;;;;;;;;R2;;$| R1 = [C3H5 | C3H7 ] R2 = [C2H3|C2H5]
Instrument: Q Exactive Plus Orbitrap Thermo Scientific
Instrument type: LC-ESI-QFT
Ms type: MS2
Ion mode: POSITIVE
Ionization: ESI
Fragmentation mode: HCD
Collision energy: 30% (nominal)
Resolution: 70000
Column name: Waters UPLC BEH C18 1.7 um 2.1 mm x 100 mm with pre-column
Retention time: 13.11 min
Precursor m/z: 214.0849
Precursor type: [M+H]+
m/z	relative intensity
55.0545	53
58.0654	27
61.9794	94
67.0291	48
67.0543	142
68.0244	209
69.0448	589
69.07	44
77.0385	10
79.0057	785
79.0542	40
81.0698	88
83.0854	13
87.9949	25
90.0339	9
91.0543	26
93.0699	27
94.04	999
95.0491	27
95.0855	152
96.0444	9
103.0058	14
104.001	676
105.0214	439
105.0699	17
107.0856	9
109.1013	11
111.0664	20
128.9961	7
130.0167	636
136.0617	78
137.0595	10
145.0276	50
172.0384	620
