Mass spectrum: Cyclizine; LC-ESI-QFT; MS2; CE: CE45; R=17500; [M+H]+
Name: Cyclizine
Name: 1-benzhydryl-4-methylpiperazine
Formula: C18H22N2
Exact mass: 266.1783
SMILES: CN1CCN(CC1)C(C1=CC=CC=C1)C1=CC=CC=C1
InChI: InChI=1S/C18H22N2/c1-19-12-14-20(15-13-19)18(16-8-4-2-5-9-16)17-10-6-3-7-11-17/h2-11,18H,12-15H2,1H3
Instrument: Q Exactive Thermo Fisher Scientific
Instrument type: LC-ESI-QFT
Ms type: MS2
Ion mode: POSITIVE
Ionization: ESI
Fragmentation mode: HCD
Collision energy: CE45
Resolution: 17500
Column name: Acquity UPLC BEH C18 1.7 um, 2.1 x 150 mm, Waters
Retention time: 18.291 min
Base peak: 223.0628
Precursor m/z: 267.1856
Precursor type: [M+H]+
m/z	relative intensity	assigned
63.0233	1	C5H3+
65.0391	3	C5H5+
70.0652	2	C4H8N+
115.0537	15	C9H7+
128.0618	52	C10H8+
139.0535	3	C11H7+
141.0692	56	C11H9+
151.0542	2	C12H7+
152.0612	992	C12H8+
165.0697	999	C13H9+
166.0782	271	C13H10+
167.0857	319	C13H11+
179.0598	16	C12H7N2+
