Mass spectrum: Antipyrine; LC-ESI-ITFT; MS2; CE: 120%; R=15000; [M+H]+
Name: Antipyrine
Name: 1,5-dimethyl-2-phenylpyrazol-3-one
Formula: C11H12N2O
Exact mass: 188.0950
SMILES: CC1=CC(=O)N(N1C)C2=CC=CC=C2
InChI: InChI=1S/C11H12N2O/c1-9-8-11(14)13(12(9)2)10-6-4-3-5-7-10/h3-8H,1-2H3
Instrument: LTQ Orbitrap XL Thermo Scientific
Instrument type: LC-ESI-ITFT
Ms type: MS2
Ion mode: POSITIVE
Ionization: ESI
Fragmentation mode: HCD
Collision energy: 120% (nominal)
Resolution: 15000
Column name: Kinetex Evo C18 2.6 um 50 x 2.1 mm
Retention time: 5.575 min
Base peak: 189.1023
Precursor m/z: 189.1022
Precursor type: [M+H]+
m/z	relative intensity	assigned
55.0176	18	C3H3O+
56.0492	999	C3H6N+
58.0649	250	C3H8N+
65.0384	207	C5H5+
67.0176	8	C4H3O+
68.0493	23	C4H6N+
69.0572	32	C4H7N+
70.0651	6	C4H8N+
77.0385	682	C6H5+
78.0464	54	C6H6+
79.0542	131	C6H7+
81.0447	60	C4H5N2+
82.0286	12	C4H4NO+
83.0603	10	C4H7N2+
91.0542	189	C7H7+
92.0494	42	C6H6N+
93.0573	35	C6H7N+
94.0651	32	C6H8N+
95.0491	180	C6H7O+
95.0604	84	C5H7N2+
96.0446	6	C5H6NO+
96.0681	35	C5H8N2+
98.06	92	C5H8NO+
102.0464	29	C8H6+
103.0542	143	C8H7+
104.0495	359	C7H6N+
105.0447	491	C6H5N2+
106.0651	470	C7H8N+
107.0606	8	C6H7N2+
115.0542	177	C9H7+
116.0493	9	C8H6N+
116.0617	7	C9H8+
117.0573	100	C8H7N+
117.0698	93	C9H9+
118.0651	115	C8H8N+
119.073	7	C8H9N+
120.0808	56	C8H10N+
128.0493	25	C9H6N+
128.0617	7	C10H8+
129.0572	71	C9H7N+
130.0651	252	C9H8N+
131.0603	177	C8H7N2+
131.0728	57	C9H9N+
132.0444	16	C8H6NO+
132.0682	101	C8H8N2+
132.0807	17	C9H10N+
133.0523	22	C8H7NO+
134.0476	6	C7H6N2O+
143.073	23	C10H9N+
144.0808	51	C10H10N+
145.0759	124	C9H9N2+
146.0598	9	C9H8NO+
146.0839	24	C9H10N2+
147.0916	57	C9H11N2+
159.0556	8	C9H7N2O+
159.0918	7	C10H11N2+
173.0714	14	C10H9N2O+
