Mass spectrum: Nylidrin; LC-ESI-QFT; MS2; CE: CE45; R=17500; [M+H]+
Name: Nylidrin
Name: 4-[1-hydroxy-2-(4-phenylbutan-2-ylamino)propyl]phenol
Formula: C19H25NO2
Exact mass: 299.1885
SMILES: CC(CCC1=CC=CC=C1)NC(C)C(O)C1=CC=C(O)C=C1
InChI: InChI=1S/C19H25NO2/c1-14(8-9-16-6-4-3-5-7-16)20-15(2)19(22)17-10-12-18(21)13-11-17/h3-7,10-15,19-22H,8-9H2,1-2H3
Instrument: Q Exactive Thermo Fisher Scientific
Instrument type: LC-ESI-QFT
Ms type: MS2
Ion mode: POSITIVE
Ionization: ESI
Fragmentation mode: HCD
Collision energy: CE45
Resolution: 17500
Column name: Acquity UPLC BEH C18 1.7 um, 2.1 x 150 mm, Waters
Retention time: 17.136 min
Base peak: 223.0629
Precursor m/z: 300.1958
Precursor type: [M+H]+
m/z	relative intensity	assigned
50.0155	1	C4H2+
51.023	1	C4H3+
53.0391	1	C4H5+
55.0181	14	C3H3O+
55.0548	1	C4H7+
56.0498	42	C3H6N+
57.0338	7	C3H5O+
63.0233	2	C5H3+
65.0387	43	C5H5+
75.0435	1	C3H7O2+
77.0386	2	C6H5+
79.0542	88	C6H7+
81.0336	1	C5H5O+
81.0698	6	C6H9+
89.0385	1	C7H5+
91.0543	999	C7H7+
92.0615	2	C7H8+
94.0411	3	C6H6O+
95.0492	31	C6H7O+
103.0544	57	C8H7+
105.0693	492	C8H9+
107.0493	51	C7H7O+
109.0652	17	C7H9O+
115.0538	24	C9H7+
117.0569	4	C8H7N+
118.0409	1	C8H6O+
120.0442	2	C7H6NO+
131.0497	8	C9H7O+
132.0572	2	C9H8O+
132.0802	2	C9H10N+
133.0649	164	C9H9O+
134.0605	4	C8H8NO+
135.0675	36	C8H9NO+
150.0919	38	C9H12NO+
224.0284	3	C17H4O+
225.0242	1	C16H3NO+
227.0389	1	C16H5NO+
228.0221	2	C16H4O2+
228.0417	2	C16H6NO+
229.0192	4	C15H3NO2+
230.0013	1	C18N+
230.0211	6	C15H4NO2+
