Mass spectrum: Mefruside; ESI-QTOF; MS2; CE: 40eV; R=15000; [M+H]+
Name: Mefruside
Name: 4-Chloro-N1-methyl-N1-[(2-methyloxolan-2-yl)methyl]benzene-1,3-disulfonamide
Formula: C13H19ClN2O5S2
Exact mass: 382.0424
SMILES: CN(CC1(C)CCCO1)S(=O)(=O)C1=CC=C(Cl)C(=C1)S(N)(=O)=O
InChI: InChI=1S/C13H19ClN2O5S2/c1-13(6-3-7-21-13)9-16(2)23(19,20)10-4-5-11(14)12(8-10)22(15,17)18/h4-5,8H,3,6-7,9H2,1-2H3,(H2,15,17,18)
Instrument: TripleTOF 5600+SCIEX
Instrument type: ESI-QTOF
Ms type: MS2
Ion mode: POSITIVE
Ionization: ESI
Fragmentation mode: CID
Collision energy: 40 eV
Resolution: 15000
Precursor m/z: 383.0497
Precursor type: [M+H]+
m/z	relative intensity
50.0172	2
51.0256	2
53.0416	19
55.0571	29
56.0521	2
57.0362	121
58.0683	7
62.0087	6
65.0416	6
66.0488	5
67.0566	3
68.0507	3
69.072	66
70.0673	9
71.0872	21
72.082	2
72.9861	3
73.0897	3
74.0161	4
77.0404	18
78.0335	2
79.0561	186
80.0512	2
80.9955	1
81.022	2
81.0716	999
81.976	2
82.0673	8
83.073	2
84.0019	4
84.0316	3
84.0553	2
84.0824	885
85.0654	2
86.0617	172
87.07	3
88.9799	1
90.0349	3
91.0554	2
92.0526	2
93.0701	3
94.0664	12
95.0741	17
96.0821	108
97.0664	20
98.0982	14
99.001	8
99.0817	396
100.1124	6
100.9789	1
101.0169	7
104.052	3
106.03	4
107.0139	3
108.0817	2
108.9848	75
110.0974	70
111.1053	38
112.1128	24
112.9796	7
114.0113	9
114.0918	6
114.9954	25
116.9568	23
119.9677	9
122.024	3
123.9958	7
126.0104	5
126.995	7
128.027	13
128.1079	130
129.0696	1
129.1157	800
130.0406	1
131.0951	1
135.0807	2
136.993	2
139.9908	11
140.9747	55
142.0062	127
142.9903	375
143.9673	16
144.9516	11
153.9937	1
155.0042	3
156.022	47
156.9503	1
171.9617	4
172.9468	79
174.9613	5
176.9402	2
189.9736	303
190.9569	10
201.9639	2
203.9892	274
205.9651	2
207.9843	53
208.9144	1
209.947	1
217.9797	789
218.9756	7
219.9835	3
221.9998	2
223.962	1
225.9412	3
231.9954	7
236.9088	11
237.9412	10
253.9358	980
254.9189	1
267.9516	316
284.9782	276
285.9633	1
296.9785	101
310.9939	1
337.011	1
342.0188	1
