Mass spectrum: Penicillic acid; LC-ESI-ITFT; MS2; CE: 40%; R=7500; [M+H]+
Name: Penicillic acid
Name: 3-methoxy-5-methyl-4-oxohexa-2,5-dienoic acid
Formula: C8H10O4
Exact mass: 170.0579
SMILES: CC(=C)C(=O)C(=CC(=O)O)OC
InChI: InChI=1S/C8H10O4/c1-5(2)8(11)6(12-3)4-7(9)10/h4H,1H2,2-3H3,(H,9,10)
Instrument: LTQ Orbitrap XL Thermo Scientific
Instrument type: LC-ESI-ITFT
Ms type: MS2
Ion mode: POSITIVE
Ionization: ESI
Fragmentation mode: HCD
Collision energy: 40 % (nominal)
Resolution: 7500
Column name: Hypersil GOLD C18 1.9 um 100 x 2.1 mm Thermo Fisher Scientific
Retention time: 8.509 min
Base peak: 171.065
Precursor m/z: 171.0652
Precursor type: [M+H]+
Precursor intensity: 9314653.657715
m/z	relative intensity	assigned
83.049	1	C5H7O+
94.0416	1	C6H6O+
97.0646	3	C6H9O+
111.0438	8	C6H7O2+
112.0518	6	C6H8O2+
121.0286	1	C7H5O2+
125.0595	161	C7H9O2+
127.075	9	C7H11O2+
129.0543	1	C6H9O3+
139.0387	4	C7H7O3+
153.0544	76	C8H9O3+
171.0647	999	C8H11O4+
