Mass spectrum: Dothiepin; ESI-QTOF; MS2; CE: 25eV; R=15000; [M+H]+
Name: Dothiepin
Name: 3-(Dibenzo[b,e]thiepin-11(6H)-ylidene)-N,N-dimethylpropan-1-amine
Formula: C19H21NS
Exact mass: 295.1395
SMILES: CN(C)CCC=C1C2=CC=CC=C2CSC2=C1C=CC=C2
InChI: InChI=1S/C19H21NS/c1-20(2)13-7-11-17-16-9-4-3-8-15(16)14-21-19-12-6-5-10-18(17)19/h3-6,8-12H,7,13-14H2,1-2H3
Instrument: TripleTOF 5600+SCIEX
Instrument type: ESI-QTOF
Ms type: MS2
Ion mode: POSITIVE
Ionization: ESI
Fragmentation mode: CID
Collision energy: 25 eV
Resolution: 15000
Precursor m/z: 296.1468
Precursor type: [M+H]+
m/z	relative intensity
58.0675	30
84.082	2
91.0552	14
105.0704	1
115.0547	8
117.0704	52
123.0267	25
128.0624	1
129.0701	4
135.0266	3
137.0419	1
141.0702	9
142.0781	7
147.0267	51
159.0264	1
165.0702	7
173.0422	12
176.062	1
178.078	14
179.0859	6
186.128	1
189.0704	1
190.0779	1
191.086	26
192.0938	14
197.042	1
200.0627	1
201.0704	1
202.0782	12
203.086	26
204.0938	5
205.1016	3
209.0425	54
210.0504	12
211.0582	3
215.0859	2
216.0941	1
217.1018	50
218.1097	187
221.0425	24
222.0503	55
223.0583	205
225.0739	196
236.066	38
251.0897	183
253.1053	6
296.1468	999
