Mass spectrum: Verrucofortine; LC-ESI-ITFT; MS2; CE: 40%; R=7500; [M+H]+
Name: Verrucofortine
Name: 6-Acetyl-10b-(1,1-dimethyl-2-propenyl)-3-isobutyl-6,10b,11,11a-tetrahydro-2H-pyrazino[2`,1`:5,1]pyrrolo[2,3-b]indole-1,4(3H,5aH)-dione
Name: 16-acetyl-9-(2-methylbut-3-en-2-yl)-4-(2-methylpropyl)-2,5,16-triazatetracyclo[7.7.0.02,7.010,15]hexadeca-10,12,14-triene-3,6-dione
Formula: C24H31N3O3
Exact mass: 409.2365
SMILES: CC(C)CC1C(=O)N2C(CC3(C2N(C4=CC=CC=C43)C(=O)C)C(C)(C)C=C)C(=O)N1
InChI: InChI=1S/C24H31N3O3/c1-7-23(5,6)24-13-19-20(29)25-17(12-14(2)3)21(30)27(19)22(24)26(15(4)28)18-11-9-8-10-16(18)24/h7-11,14,17,19,22H,1,12-13H2,2-6H3,(H,25,29)
Instrument: LTQ Orbitrap XL Thermo Scientific
Instrument type: LC-ESI-ITFT
Ms type: MS2
Ion mode: POSITIVE
Ionization: ESI
Fragmentation mode: HCD
Collision energy: 40 % (nominal)
Resolution: 7500
Column name: Hypersil GOLD C18 1.9 um 100 x 2.1 mm Thermo Fisher Scientific
Retention time: 21.507 min
Base peak: 410.2453
Precursor m/z: 410.2438
Precursor type: [M+H]+
Precursor intensity: 39959793.96484
m/z	relative intensity	assigned
69.0699	28	C5H9+
86.0962	3	C5H12N+
96.1828	2	CH24N2O2+
118.0652	3	C8H8N+
130.0652	899	C9H8N+
132.0808	58	C9H10N+
141.1018	11	C7H13N2O+
144.0809	18	C10H10N+
169.0978	4	C8H13N2O2+
170.0599	18	C11H8NO+
171.113	4	C8H15N2O2+
172.0762	7	C11H10NO+
174.0911	9	C11H12NO+
182.0608	3	C12H8NO+
198.1278	119	C14H16N+
255.1485	3	C16H19N2O+
256.1091	6	C16H16O3+
272.1761	8	C16H22N3O+
298.1553	2	C17H20N3O2+
300.1706	999	C17H22N3O2+
312.1706	85	C18H22N3O2+
342.1818	77	C19H24N3O3+
354.1803	6	C20H24N3O3+
410.2448	5	C24H32N3O3+
