Mass spectrum: Desipramine; LC-ESI-ITFT; MS2; CE: 140%; R=15000; [M+H]+
Name: Desipramine
Name: 3-(5,6-dihydrobenzo[b][1]benzazepin-11-yl)-N-methylpropan-1-amine
Formula: C18H22N2
Exact mass: 266.1783
SMILES: CNCCCN1C2=CC=CC=C2CCC3=CC=CC=C31
InChI: InChI=1S/C18H22N2/c1-19-13-6-14-20-17-9-4-2-7-15(17)11-12-16-8-3-5-10-18(16)20/h2-5,7-10,19H,6,11-14H2,1H3
Instrument: LTQ Orbitrap XL Thermo Scientific
Instrument type: LC-ESI-ITFT
Ms type: MS2
Ion mode: POSITIVE
Ionization: ESI
Fragmentation mode: HCD
Collision energy: 140% (nominal)
Resolution: 15000
Column name: Kinetex Evo C18 2.6 um 50 x 2.1 mm
Retention time: 8.465 min
Base peak: 267.1855
Precursor m/z: 267.1856
Precursor type: [M+H]+
m/z	relative intensity	assigned
65.0384	36	C5H5+
70.0651	19	C4H8N+
72.0806	676	C4H10N+
77.0384	17	C6H5+
89.0385	57	C7H5+
90.0464	104	C7H6+
91.0542	179	C7H7+
103.0544	24	C8H7+
105.0446	28	C6H5N2+
106.065	19	C7H8N+
115.0539	57	C9H7+
116.0494	25	C8H6N+
117.0572	40	C8H7N+
118.0649	39	C8H8N+
128.0492	38	C9H6N+
130.0649	34	C9H8N+
139.0538	16	C11H7+
152.062	99	C12H8+
165.0698	501	C13H9+
166.0652	68	C12H8N+
166.0778	40	C13H10+
167.0729	302	C12H9N+
177.0569	22	C13H7N+
177.0707	25	C14H9+
178.0651	37	C13H8N+
178.0775	96	C14H10+
179.0729	115	C13H9N+
180.0807	209	C13H10N+
189.0704	16	C15H9+
190.0648	44	C14H8N+
191.0729	383	C14H9N+
192.0807	999	C14H10N+
193.0885	667	C14H11N+
194.0963	228	C14H12N+
204.0807	48	C15H10N+
206.0961	54	C15H12N+
