Mass spectrum: Terrein; LC-ESI-ITFT; MS2; CE: 50%; R=7500; [M-H]-
Name: Terrein
Name: 4,5-dihydroxy-3-prop-1-enylcyclopent-2-en-1-one
Formula: C8H10O3
Exact mass: 154.0630
SMILES: CC=CC1=CC(=O)C(C1O)O
InChI: InChI=1S/C8H10O3/c1-2-3-5-4-6(9)8(11)7(5)10/h2-4,7-8,10-11H,1H3
Instrument: LTQ Orbitrap XL Thermo Scientific
Instrument type: LC-ESI-ITFT
Ms type: MS2
Ion mode: NEGATIVE
Ionization: ESI
Fragmentation mode: HCD
Collision energy: 50 % (nominal)
Resolution: 7500
Column name: Hypersil GOLD C18 1.9 um 100 x 2.1 mm Thermo Fisher Scientific
Retention time: 4.817 min
Base peak: 153.0557
Precursor m/z: 153.0557
Precursor type: [M-H]-
Precursor intensity: 2044825.407471
m/z	relative intensity	assigned
69.0344	6	C4H5O-
85.0295	7	C4H5O2-
91.0557	6	C7H7-
95.0502	20	C6H7O-
97.0295	25	C5H5O2-
97.0661	36	C6H9O-
107.0504	39	C7H7O-
109.0294	6	C6H5O2-
109.0661	78	C7H9O-
111.045	6	C6H7O2-
112.0167	80	C5H4O3-
123.0453	8	C7H7O2-
124.017	48	C6H4O3-
125.0611	195	C7H9O2-
135.0453	169	C8H7O2-
153.0559	999	C8H9O3-
