Mass spectrum: Sulfamethoxazole; LC-ESI-QFT; MS2; CE: 30%; R=17500; [M+H]+
Name: Sulfamethoxazole
Name: 4-Amino-N-(5-methyl-1,2-oxazol-3-yl)benzene-1-sulfonamide
Formula: C10H11N3O3S
Exact mass: 253.0521
SMILES: CC1=CC(NS(=O)(=O)C2=CC=C(N)C=C2)=NO1
InChI: InChI=1S/C10H11N3O3S/c1-7-6-10(12-16-7)13-17(14,15)9-4-2-8(11)3-5-9/h2-6H,11H2,1H3,(H,12,13)
Instrument: Q Exactive Thermo Fisher Scientific
Instrument type: LC-ESI-QFT
Ms type: MS2
Ion mode: POSITIVE
Ionization: ESI
Fragmentation mode: HCD
Collision energy: 30% (nominal)
Resolution: 17500
Column name: Hypersil GOLD 1.9 um 2.1 x 100 mm Thermo Fisher Scientific
Precursor m/z: 254.0594
Precursor type: [M+H]+
m/z	relative intensity
65.0393	13
68.0503	16
92.0501	249
93.0579	175
94.0658	27
99.0559	183
107.0609	26
108.0449	359
110.0606	17
146.0714	32
147.0793	125
148.0872	31
156.0114	999
160.0872	110
161.0017	11
176.0279	8
188.082	107
190.0978	21
194.0385	21
254.0594	143
