Mass spectrum: Sulthiame; LC-ESI-ITFT; MS2; CE: 150%; R=15000; [M+H]+
Name: Sulthiame
Name: 4-(1,1-dioxothiazinan-2-yl)benzenesulfonamide
Formula: C10H14N2O4S2
Exact mass: 290.0395
SMILES: C1CCS(=O)(=O)N(C1)C2=CC=C(C=C2)S(=O)(=O)N
InChI: InChI=1S/C10H14N2O4S2/c11-18(15,16)10-5-3-9(4-6-10)12-7-1-2-8-17(12,13)14/h3-6H,1-2,7-8H2,(H2,11,15,16)
Instrument: LTQ Orbitrap XL Thermo Scientific
Instrument type: LC-ESI-ITFT
Ms type: MS2
Ion mode: POSITIVE
Ionization: ESI
Fragmentation mode: HCD
Collision energy: 150% (nominal)
Resolution: 15000
Column name: Kinetex Evo C18 2.6 um 50 x 2.1 mm
Retention time: 4.525 min
Base peak: 313.0288
Precursor m/z: 291.0468
Precursor type: [M+H]+
m/z	relative intensity	assigned
65.0384	214	C5H5+
76.0307	794	C6H4+
77.0386	195	C6H5+
78.0464	296	C6H6+
79.0416	132	C5H5N+
91.0543	309	C7H7+
94.0411	73	C6H6O+
95.0491	69	C6H7O+
104.0496	999	C7H6N+
105.0449	218	C6H5N2+
105.0573	731	C7H7N+
117.0573	275	C8H7N+
118.0653	119	C8H8N+
