Mass spectrum: Terrecyclic Acid; LC-ESI-ITFT; MS2; CE: 50%; R=7500; [M+H]+
Name: Terrecyclic Acid
Name: 11,11-dimethyl-2-methylidene-3-oxotricyclo[4.3.2.01,5]undecane-9-carboxylic acid
Formula: C15H20O3
Exact mass: 248.1412
SMILES: CC1(CC23C(CCC1C2CC(=O)C3=C)C(=O)O)C
InChI: InChI=1S/C15H20O3/c1-8-12(16)6-11-9-4-5-10(13(17)18)15(8,11)7-14(9,2)3/h9-11H,1,4-7H2,2-3H3,(H,17,18)
Instrument: LTQ Orbitrap XL Thermo Scientific
Instrument type: LC-ESI-ITFT
Ms type: MS2
Ion mode: POSITIVE
Ionization: ESI
Fragmentation mode: HCD
Collision energy: 50 % (nominal)
Resolution: 7500
Column name: Hypersil GOLD C18 1.9 um 100 x 2.1 mm Thermo Fisher Scientific
Retention time: 20.565 min
Base peak: 249.149
Precursor m/z: 249.1485
Precursor type: [M+H]+
Precursor intensity: 11458500.30566
m/z	relative intensity	assigned
93.0703	5	C7H9+
95.0853	9	C7H11+
105.0701	60	C8H9+
107.0857	43	C8H11+
109.065	20	C7H9O+
119.0856	122	C9H11+
121.1012	25	C9H13+
123.0802	11	C8H11O+
131.0855	21	C10H11+
133.0648	11	C9H9O+
133.1013	95	C10H13+
135.1166	9	C10H15+
143.086	11	C11H11+
145.1014	45	C11H13+
147.0805	222	C10H11O+
147.1169	80	C11H15+
151.0753	19	C9H11O2+
153.091	16	C9H13O2+
157.1016	20	C12H13+
159.117	99	C12H15+
161.0961	173	C11H13O+
161.1327	148	C12H17+
165.0909	25	C10H13O2+
171.1176	21	C13H15+
173.0955	8	C12H13O+
175.076	16	C11H11O2+
175.1117	81	C12H15O+
175.1483	207	C13H19+
177.0915	13	C11H13O2+
177.1276	33	C12H17O+
179.0705	27	C10H11O3+
185.1327	167	C14H17+
187.1477	15	C14H19+
189.1274	143	C13H17O+
193.086	99	C11H13O3+
203.1432	764	C14H19O+
207.1382	72	C13H19O2+
213.127	53	C15H17O+
221.1537	148	C14H21O2+
231.1381	883	C15H19O2+
249.1486	999	C15H21O3+
