Mass spectrum: Fenpropimorph-carboxy (TENTATIVE); LC-ESI-QFT; MS2; CE: 42%; R=70000; [M+H]+
Name: Fenpropimorph-carboxy
Formula: C20H31NO3
Exact mass: 333.2295
SMILES: CC1CN(CC(O1)C)CC(C)CC2=CC=C(C=C2)C(C)(C)C(=O)O
InChI: InChI=1S/C20H31NO3/c1-14(11-21-12-15(2)24-16(3)13-21)10-17-6-8-18(9-7-17)20(4,5)19(22)23/h6-9,14-16H,10-13H2,1-5H3,(H,22,23)
Instrument: Q Exactive Plus Orbitrap Thermo Scientific
Instrument type: LC-ESI-QFT
Ms type: MS2
Ion mode: POSITIVE
Ionization: ESI
Fragmentation mode: HCD
Collision energy: 42% (nominal) with stepped collision energies 30% and 55%
Resolution: 70000
Column name: Phenomenex Synergi Polar-RP 2.5 um 100 mm x 3 mm with pre-column
Retention time: 9.79 min
Precursor m/z: 334.2373
Precursor type: [M+H]+
m/z	relative intensity
55.0545	5
56.0498	6
58.0655	4
59.0493	13
70.0652	9
72.0809	13
81.0698	7
84.0807	4
86.0965	3
88.076	3
91.0543	46
98.0965	136
100.1123	2
102.0913	7
105.07	52
107.0493	109
112.1121	11
116.1071	89
117.0697	3
119.0854	5
128.1071	11
130.1228	101
131.0857	45
133.1013	63
145.1012	7
149.0962	7
171.0469	4
173.1173	4
173.1326	91
177.0912	137
184.0898	2
191.1068	9
219.139	5
288.2326	4
316.2258	3
318.2436	11
334.2377	999
