Mass spectrum: Sulthiame; LC-ESI-ITFT; MS2; CE: 115%; R=15000; [M+H]+
Name: Sulthiame
Name: 4-(1,1-dioxothiazinan-2-yl)benzenesulfonamide
Formula: C10H14N2O4S2
Exact mass: 290.0395
SMILES: C1CCS(=O)(=O)N(C1)C2=CC=C(C=C2)S(=O)(=O)N
InChI: InChI=1S/C10H14N2O4S2/c11-18(15,16)10-5-3-9(4-6-10)12-7-1-2-8-17(12,13)14/h3-6H,1-2,7-8H2,(H2,11,15,16)
Instrument: LTQ Orbitrap XL Thermo Scientific
Instrument type: LC-ESI-ITFT
Ms type: MS2
Ion mode: POSITIVE
Ionization: ESI
Fragmentation mode: HCD
Collision energy: 115% (nominal)
Resolution: 15000
Column name: Kinetex Evo C18 2.6 um 50 x 2.1 mm
Retention time: 4.254 min
Base peak: 313.0289
Precursor m/z: 291.0468
Precursor type: [M+H]+
m/z	relative intensity	assigned
65.0383	34	C5H5+
75.0232	5	C6H3+
76.0306	87	C6H4+
77.0386	27	C6H5+
78.0463	71	C6H6+
79.0416	25	C5H5N+
90.0463	7	C7H6+
91.0542	102	C7H7+
92.0495	17	C6H6N+
93.0573	34	C6H7N+
94.0413	50	C6H6O+
95.0492	9	C6H7O+
104.0495	328	C7H6N+
105.0573	999	C7H7N+
106.0652	23	C7H8N+
107.0489	7	C7H7O+
108.0441	16	C6H6NO+
115.0541	12	C9H7+
117.0573	114	C8H7N+
118.0652	104	C8H8N+
119.0729	17	C8H9N+
122.0601	31	C7H8NO+
130.065	13	C9H8N+
132.0808	25	C9H10N+
134.06	8	C8H8NO+
137.0473	9	C7H7NO2+
146.0962	7	C10H12N+
185.0379	44	C7H9N2O2S+
