Mass spectrum: Pendimethalin-desethyl (TENTATIVE); LC-ESI-QFT; MS2; CE: 55%; R=70000; [M+H]+
Name: Pendimethalin-desethyl
Formula: C11H13N3O4
Exact mass: 251.0889
SMILES: CCC=NC1=C(C=C(C(=C1[N+](=O)[O-])C)C)[N+](=O)[O-]
InChI: InChI=1S/C11H13N3O4/c1-4-5-12-10-9(13(15)16)6-7(2)8(3)11(10)14(17)18/h5-6H,4H2,1-3H3
Instrument: Q Exactive Plus Orbitrap Thermo Scientific
Instrument type: LC-ESI-QFT
Ms type: MS2
Ion mode: POSITIVE
Ionization: ESI
Fragmentation mode: HCD
Collision energy: 55% (nominal)
Resolution: 70000
Column name: Waters UPLC BEH C18 1.7 um 2.1 mm x 100 mm with pre-column
Retention time: 8.48 min
Precursor m/z: 252.0967
Precursor type: [M+H]+
m/z	relative intensity
51.0232	82
53.039	231
57.0337	267
63.0231	173
65.0387	297
66.0466	119
67.0544	98
73.0285	147
77.0385	181
78.0338	119
78.0463	137
79.0542	353
80.0494	324
89.0385	999
90.0464	73
91.0416	113
91.0542	238
92.0494	365
93.0573	174
94.0652	534
95.0491	498
102.034	62
103.0542	70
104.0495	929
105.0448	486
105.0574	141
105.0701	90
106.0526	116
106.0652	327
107.0603	92
115.0417	151
115.0542	223
116.0494	525
117.0572	507
118.0524	107
118.0652	112
119.0353	75
119.0605	354
120.0682	103
121.076	430
129.0446	105
130.0401	73
130.065	119
131.0604	991
132.0682	82
132.0807	71
133.0522	107
133.0761	148
134.0475	168
134.0602	324
135.0553	73
142.0528	88
143.0605	181
144.0683	258
145.076	360
146.0836	72
147.0553	221
155.0603	885
156.0682	830
157.0763	82
159.0554	319
159.0916	517
160.0997	85
161.0712	81
169.0759	103
171.0915	170
187.0866	107
