Mass spectrum: Skyrin; LC-ESI-ITFT; MS2; CE: 30%; R=7500; [M+H]+
Name: Skyrin
Name: 2,4,5-trihydroxy-7-methyl-1-(2,4,5-trihydroxy-7-methyl-9,10-dioxoanthracen-1-yl)anthracene-9,10-dione
Formula: C30H18O10
Exact mass: 538.0900
SMILES: CC1=CC2=C(C(=C1)O)C(=O)C3=C(C=C(C(=C3C2=O)C4=C5C(=C(C=C4O)O)C(=O)C6=C(C5=O)C=C(C=C6O)C)O)O
InChI: InChI=1S/C30H18O10/c1-9-3-11-19(13(31)5-9)29(39)23-17(35)7-15(33)21(25(23)27(11)37)22-16(34)8-18(36)24-26(22)28(38)12-4-10(2)6-14(32)20(12)30(24)40/h3-8,31-36H,1-2H3
Instrument: LTQ Orbitrap XL Thermo Scientific
Instrument type: LC-ESI-ITFT
Ms type: MS2
Ion mode: POSITIVE
Ionization: ESI
Fragmentation mode: HCD
Collision energy: 30 % (nominal)
Resolution: 7500
Column name: Hypersil GOLD C18 1.9 um 100 x 2.1 mm Thermo Fisher Scientific
Retention time: 26.963 min
Base peak: 539.0974
Precursor m/z: 539.0973
Precursor type: [M+H]+
Precursor intensity: 5222717.011719
m/z	relative intensity	assigned
217.0493	60	C12H9O4+
297.0387	45	C16H9O6+
511.0999	61	C29H19O9+
521.0861	227	C30H17O9+
539.0965	999	C30H19O10+
