Mass spectrum: Desipramine; LC-ESI-ITFT; MS2; CE: 135%; R=15000; [M+H]+
Name: Desipramine
Name: 3-(5,6-dihydrobenzo[b][1]benzazepin-11-yl)-N-methylpropan-1-amine
Formula: C18H22N2
Exact mass: 266.1783
SMILES: CNCCCN1C2=CC=CC=C2CCC3=CC=CC=C31
InChI: InChI=1S/C18H22N2/c1-19-13-6-14-20-17-9-4-2-7-15(17)11-12-16-8-3-5-10-18(16)20/h2-5,7-10,19H,6,11-14H2,1H3
Instrument: LTQ Orbitrap XL Thermo Scientific
Instrument type: LC-ESI-ITFT
Ms type: MS2
Ion mode: POSITIVE
Ionization: ESI
Fragmentation mode: HCD
Collision energy: 135% (nominal)
Resolution: 15000
Column name: Kinetex Evo C18 2.6 um 50 x 2.1 mm
Retention time: 8.463 min
Base peak: 267.1857
Precursor m/z: 267.1856
Precursor type: [M+H]+
m/z	relative intensity	assigned
56.0492	55	C3H6N+
57.0571	376	C3H7N+
72.0807	859	C4H10N+
89.0386	52	C7H5+
90.0465	72	C7H6+
91.0543	155	C7H7+
105.045	23	C6H5N2+
115.0543	41	C9H7+
116.0492	16	C8H6N+
117.0573	48	C8H7N+
118.065	42	C8H8N+
128.0499	19	C9H6N+
139.0545	15	C11H7+
152.0623	75	C12H8+
165.07	435	C13H9+
166.0651	49	C12H8N+
166.0778	55	C13H10+
167.0729	317	C12H9N+
178.0652	38	C13H8N+
178.0776	81	C14H10+
179.0731	81	C13H9N+
180.0808	238	C13H10N+
190.0656	37	C14H8N+
191.073	317	C14H9N+
192.0808	999	C14H10N+
193.0886	756	C14H11N+
194.0964	269	C14H12N+
204.0808	60	C15H10N+
206.0966	68	C15H12N+
