Mass spectrum: Fulvic acid; LC-ESI-ITFT; MS2; CE: 60%; R=7500; [M-H]-
Name: Fulvic acid
Name: 3,7,8-trihydroxy-3-methyl-10-oxo-1,4-dihydropyrano[4,3-b]chromene-9-carboxylic acid
Formula: C14H12O8
Exact mass: 308.05322
SMILES: CC1(CC2=C(CO1)C(=O)C3=C(O2)C=C(C(=C3C(=O)O)O)O)O
InChI: InChI=1S/C14H12O8/c1-14(20)3-8-5(4-21-14)11(16)9-7(22-8)2-6(15)12(17)10(9)13(18)19/h2,15,17,20H,3-4H2,1H3,(H,18,19)
Instrument: LTQ Orbitrap XL Thermo Scientific
Instrument type: LC-ESI-ITFT
Ms type: MS2
Ion mode: NEGATIVE
Ionization: ESI
Fragmentation mode: HCD
Collision energy: 60 % (nominal)
Resolution: 7500
Column name: Hypersil GOLD C18 1.9 um 100 x 2.1 mm Thermo Fisher Scientific
Retention time: 11.342 min
Base peak: 307.0459
Precursor m/z: 307.0459
Precursor type: [M-H]-
Precursor intensity: 8037311.709473
m/z	relative intensity	assigned
59.0139	6	C2H3O2-
191.0353	17	C10H7O4-
203.0351	999	C11H7O4-
221.0456	43	C11H9O5-
233.0455	136	C12H9O5-
245.0456	327	C13H9O5-
247.0246	37	C12H7O6-
263.0562	539	C13H11O6-
289.0352	37	C14H9O7-
307.0459	301	C14H11O8-
