Mass spectrum: Desipramine; LC-ESI-ITFT; MS2; CE: 130%; R=15000; [M+H]+
Name: Desipramine
Name: 3-(5,6-dihydrobenzo[b][1]benzazepin-11-yl)-N-methylpropan-1-amine
Formula: C18H22N2
Exact mass: 266.1783
SMILES: CNCCCN1C2=CC=CC=C2CCC3=CC=CC=C31
InChI: InChI=1S/C18H22N2/c1-19-13-6-14-20-17-9-4-2-7-15(17)11-12-16-8-3-5-10-18(16)20/h2-5,7-10,19H,6,11-14H2,1H3
Instrument: LTQ Orbitrap XL Thermo Scientific
Instrument type: LC-ESI-ITFT
Ms type: MS2
Ion mode: POSITIVE
Ionization: ESI
Fragmentation mode: HCD
Collision energy: 130% (nominal)
Resolution: 15000
Column name: Kinetex Evo C18 2.6 um 50 x 2.1 mm
Retention time: 8.465 min
Base peak: 267.1855
Precursor m/z: 267.1856
Precursor type: [M+H]+
m/z	relative intensity	assigned
65.0383	15	C5H5+
70.0649	20	C4H8N+
72.0807	999	C4H10N+
89.0387	33	C7H5+
90.0464	98	C7H6+
91.0543	177	C7H7+
103.054	31	C8H7+
106.0652	26	C7H8N+
115.0543	47	C9H7+
116.0497	26	C8H6N+
117.0571	31	C8H7N+
118.0652	41	C8H8N+
130.0654	30	C9H8N+
152.062	47	C12H8+
164.0615	18	C13H8+
165.0699	333	C13H9+
166.0652	30	C12H8N+
166.0781	54	C13H10+
167.073	276	C12H9N+
177.0697	18	C14H9+
178.065	18	C13H8N+
178.0778	86	C14H10+
179.0732	85	C13H9N+
180.0808	240	C13H10N+
190.0647	30	C14H8N+
191.0729	229	C14H9N+
192.0808	929	C14H10N+
193.0886	911	C14H11N+
194.0964	303	C14H12N+
204.0802	32	C15H10N+
206.0962	79	C15H12N+
