Mass spectrum: Cyclizine; LC-ESI-QFT; MS2; CE: 80%; R=30000; [M+H]+
Name: Cyclizine
Name: 1-(Diphenylmethyl)-4-methylpiperazine
Formula: C18H22N2
Exact mass: 266.1783
SMILES: CN1CCN(CC1)C(C1=CC=CC=C1)C1=CC=CC=C1
InChI: InChI=1S/C18H22N2/c1-19-12-14-20(15-13-19)18(16-8-4-2-5-9-16)17-10-6-3-7-11-17/h2-11,18H,12-15H2,1H3
Instrument: Orbitrap Fusion Tribrid Thermo Fisher Scientific
Instrument type: LC-ESI-QFT
Ms type: MS2
Ion mode: POSITIVE
Ionization: ESI
Fragmentation mode: HCD
Collision energy: 80% (nominal)
Resolution: 30000
Precursor m/z: 267.1856
Precursor type: [M+H]+
m/z	relative intensity
115.0544	42
128.0623	83
141.0701	72
151.0545	39
152.0622	874
164.0624	19
165.07	999
166.0777	172
167.0855	66
169.0649	19
179.0605	18
