Mass spectrum: Tetracycline; LC-ESI-ITFT; MS2; CE: 105%; R=15000; [M+H]+
Name: Tetracycline
Name: 2-[amino(hydroxy)methylidene]-4-(dimethylamino)-6,10,11,12a-tetrahydroxy-6-methyl-4,4a,5,5a-tetrahydrotetracene-1,3,12-trione
Formula: C22H24N2O8
Exact mass: 444.1533
SMILES: [H][C@@]12C[C@@]3([H])C(=C(O)[C@]1(O)C(=O)C(C(N)=O)=C(O)[C@H]2N(C)C)C(=O)C1=C(C=CC=C1O)[C@@]3(C)O
InChI: InChI=1S/C22H24N2O8/c1-21(31)8-5-4-6-11(25)12(8)16(26)13-9(21)7-10-15(24(2)3)17(27)14(20(23)30)19(29)22(10,32)18(13)28/h4-6,9-10,15,25,27-28,31-32H,7H2,1-3H3,(H2,23,30)/t9-,10-,15-,21+,22-/m0/s1
Instrument: LTQ Orbitrap XL Thermo Scientific
Instrument type: LC-ESI-ITFT
Ms type: MS2
Ion mode: POSITIVE
Ionization: ESI
Fragmentation mode: HCD
Collision energy: 105% (nominal)
Resolution: 15000
Column name: Kinetex Evo C18 2.6 um 50 x 2.1 mm
Retention time: 2.884 min
Base peak: 300.1476
Precursor m/z: 445.1605
Precursor type: [M+H]+
m/z	relative intensity	assigned
58.0649	56	C3H8N+
70.065	179	C4H8N+
98.06	445	C5H8NO+
115.0542	59	C9H7+
140.0617	43	C11H8+
141.0699	50	C11H9+
152.062	358	C12H8+
165.07	211	C13H9+
167.0856	113	C13H11+
168.057	719	C12H8O+
169.0648	80	C12H9O+
170.0725	32	C12H10O+
176.0621	114	C14H8+
177.0695	97	C14H9+
178.0779	96	C14H10+
180.057	342	C13H8O+
181.0649	90	C13H9O+
189.0698	64	C15H9+
192.0576	79	C14H8O+
195.0805	211	C14H11O+
196.052	354	C13H8O2+
197.0595	154	C13H9O2+
198.0676	169	C13H10O2+
204.0567	54	C15H8O+
208.0513	113	C14H8O2+
224.047	151	C14H8O3+
226.0624	999	C14H10O3+
