Mass spectrum: Antipyrine; LC-ESI-ITFT; MS2; CE: 75%; R=15000; [M+H]+
Name: Antipyrine
Name: 1,5-dimethyl-2-phenylpyrazol-3-one
Formula: C11H12N2O
Exact mass: 188.0950
SMILES: CC1=CC(=O)N(N1C)C2=CC=CC=C2
InChI: InChI=1S/C11H12N2O/c1-9-8-11(14)13(12(9)2)10-6-4-3-5-7-10/h3-8H,1-2H3
Instrument: LTQ Orbitrap XL Thermo Scientific
Instrument type: LC-ESI-ITFT
Ms type: MS2
Ion mode: POSITIVE
Ionization: ESI
Fragmentation mode: CID
Collision energy: 75% (nominal)
Resolution: 15000
Column name: Kinetex Evo C18 2.6 um 50 x 2.1 mm
Retention time: 5.575 min
Base peak: 189.1023
Precursor m/z: 189.1022
Precursor type: [M+H]+
m/z	relative intensity	assigned
56.0492	14	C3H6N+
58.065	25	C3H8N+
70.0649	5	C4H8N+
81.0448	4	C4H5N2+
91.0543	27	C7H7+
95.0607	6	C5H7N2+
96.0445	22	C5H6NO+
96.0682	33	C5H8N2+
98.0601	10	C5H8NO+
103.0543	17	C8H7+
104.0496	69	C7H6N+
105.0337	12	C7H5O+
105.07	20	C8H9+
106.0651	19	C7H8N+
111.0555	32	C5H7N2O+
115.0542	7	C9H7+
117.0574	34	C8H7N+
117.07	38	C9H9+
118.0652	233	C8H8N+
119.0605	8	C7H7N2+
120.0808	260	C8H10N+
128.0626	6	C10H8+
129.0701	24	C10H9+
130.0652	335	C9H8N+
131.073	999	C9H9N+
132.0808	231	C9H10N+
133.0523	19	C8H7NO+
133.076	111	C8H9N2+
134.0967	23	C9H12N+
135.0553	49	C7H7N2O+
144.0809	837	C10H10N+
145.0648	89	C10H9O+
145.0886	21	C10H11N+
146.0839	621	C9H10N2+
146.0965	489	C10H12N+
147.0917	627	C9H11N2+
148.0757	128	C9H10NO+
149.0709	23	C8H9N2O+
154.0652	10	C11H8N+
157.0519	10	C10H7NO+
158.06	55	C10H8NO+
159.0916	13	C10H11N2+
160.0998	25	C10H12N2+
161.1074	855	C10H13N2+
162.0913	47	C10H12NO+
171.092	16	C11H11N2+
172.0758	371	C11H10NO+
174.0788	352	C10H10N2O+
