Mass spectrum: Azoxystrobin-OH (TENTATIVE); LC-ESI-QFT; MS2; CE: 30%; R=70000; [M+H]+
Name: Azoxystrobin-OH
Formula: C22H17N3O6
Exact mass: 419.1103
SMILES: C(*)OC=C(C1=C(*)C(*)=C(*)C(*)=C1OC2=NC(*)=NC(=C(*)2)OC3=C(*)C(*)=C(*)C(*)=C3C#N)C(=O)OC(*) *= [OH (n=1) & H(n=11)]
Instrument: Q Exactive Plus Orbitrap Thermo Scientific
Instrument type: LC-ESI-QFT
Ms type: MS2
Ion mode: POSITIVE
Ionization: ESI
Fragmentation mode: HCD
Collision energy: 30% (nominal)
Resolution: 70000
Column name: Waters UPLC BEH C18 1.7 um 2.1 mm x 100 mm with pre-column
Retention time: 13.4 min
Precursor m/z: 420.1181
Precursor type: [M+H]+
m/z	relative intensity
82.0286	3
83.0126	2
85.0283	3
108.0161	1
123.0438	2
131.0492	1
132.0444	2
144.0446	2
145.0284	16
145.0395	10
146.0598	2
147.0438	2
150.0491	2
150.0549	37
156.0443	3
157.0397	2
159.0553	58
160.0391	1
162.0552	2
163.0386	2
170.0598	1
171.0553	12
172.0392	45
174.0549	8
175.0503	2
176.0345	2
176.0706	6
176.0817	5
177.0546	18
178.0498	7
183.0559	1
184.0748	1
185.0231	3
185.0349	2
185.0699	2
186.0183	2
186.0545	2
187.0501	5
188.0709	2
190.0495	2
197.071	5
198.0428	2
198.0555	1
198.066	3
198.079	1
199.0503	9
200.0339	3
200.058	3
200.0709	3
201.0421	7
201.0655	1
202.0497	5
202.0605	6
203.0456	2
210.0142	1
210.0424	5
211.0498	3
212.0342	3
212.0456	6
215.0455	2
216.0655	70
217.0608	53
218.0449	4
225.0655	3
226.061	50
226.07	1
227.0688	4
230.0322	4
239.0449	2
242.0322	3
260.0825	2
262.0498	5
273.0665	1
275.0817	3
276.0646	1
277.0726	2
277.0966	2
278.0811	4
282.0872	1
288.0769	4
289.0612	2
289.0845	2
290.0804	3
291.0762	2
302.0687	2
303.0761	24
304.0605	4
304.0842	2
304.108	14
305.0919	12
306.1342	1
313.0604	3
314.0688	1
314.0924	2
315.0764	3
316.0693	2
317.0773	21
317.0927	6
318.0612	1
319.0712	37
320.1025	1
328.071	11
329.0557	13
329.0754	2
330.0869	3
331.0715	7
331.0949	17
332.0803	5
332.1026	66
333.0866	17
342.0869	6
344.0656	9
344.1031	5
345.0742	445
347.0656	2
356.0662	10
359.0659	3
359.0904	2
360.0976	999
361.0818	3
388.0925	623
