Mass spectrum: Antipyrine; LC-ESI-ITFT; MS2; CE: 115%; R=15000; [M+H]+
Name: Antipyrine
Name: 1,5-dimethyl-2-phenylpyrazol-3-one
Formula: C11H12N2O
Exact mass: 188.0950
SMILES: CC1=CC(=O)N(N1C)C2=CC=CC=C2
InChI: InChI=1S/C11H12N2O/c1-9-8-11(14)13(12(9)2)10-6-4-3-5-7-10/h3-8H,1-2H3
Instrument: LTQ Orbitrap XL Thermo Scientific
Instrument type: LC-ESI-ITFT
Ms type: MS2
Ion mode: POSITIVE
Ionization: ESI
Fragmentation mode: HCD
Collision energy: 115% (nominal)
Resolution: 15000
Column name: Kinetex Evo C18 2.6 um 50 x 2.1 mm
Retention time: 5.710 min
Base peak: 189.1023
Precursor m/z: 189.1022
Precursor type: [M+H]+
m/z	relative intensity	assigned
54.0336	15	C3H4N+
55.0176	17	C3H3O+
56.0492	999	C3H6N+
58.0649	291	C3H8N+
65.0384	209	C5H5+
67.0176	8	C4H3O+
68.0493	24	C4H6N+
69.0572	36	C4H7N+
70.0651	6	C4H8N+
77.0385	698	C6H5+
78.0463	36	C6H6+
79.0542	141	C6H7+
80.0494	13	C5H6N+
81.0447	79	C4H5N2+
82.0288	9	C4H4NO+
83.0605	10	C4H7N2+
89.0382	6	C7H5+
90.0463	13	C7H6+
91.0542	193	C7H7+
92.0495	56	C6H6N+
93.0573	37	C6H7N+
93.0698	6	C7H9+
94.0652	37	C6H8N+
95.0491	155	C6H7O+
95.0604	78	C5H7N2+
96.0442	6	C5H6NO+
96.0682	56	C5H8N2+
98.06	109	C5H8NO+
102.0464	27	C8H6+
103.0542	154	C8H7+
104.0495	419	C7H6N+
105.0447	459	C6H5N2+
105.0572	23	C7H7N+
106.0651	576	C7H8N+
107.0604	8	C6H7N2+
113.0711	5	C5H9N2O+
115.0542	169	C9H7+
116.0493	10	C8H6N+
116.0618	16	C9H8+
117.0573	125	C8H7N+
117.0699	116	C9H9+
118.0651	135	C8H8N+
119.0601	10	C7H7N2+
119.0729	15	C8H9N+
120.0808	72	C8H10N+
128.0494	27	C9H6N+
129.0573	75	C9H7N+
129.0703	4	C10H9+
130.0651	280	C9H8N+
131.0604	173	C8H7N2+
131.0729	78	C9H9N+
132.0446	11	C8H6NO+
132.0682	113	C8H8N2+
132.0807	28	C9H10N+
133.0522	26	C8H7NO+
133.0757	9	C8H9N2+
134.0474	7	C7H6N2O+
134.0967	10	C9H12N+
143.073	15	C10H9N+
144.0809	58	C10H10N+
145.076	143	C9H9N2+
146.0596	9	C9H8NO+
146.0839	40	C9H10N2+
146.0964	6	C10H12N+
147.0917	84	C9H11N2+
155.0602	11	C10H7N2+
157.0527	8	C10H7NO+
159.0553	9	C9H7N2O+
159.0912	11	C10H11N2+
173.0708	21	C10H9N2O+
174.0787	11	C10H10N2O+
