Mass spectrum: Antipyrine; LC-ESI-ITFT; MS2; CE: 60%; R=15000; [M+H]+
Name: Antipyrine
Name: 1,5-dimethyl-2-phenylpyrazol-3-one
Formula: C11H12N2O
Exact mass: 188.0950
SMILES: CC1=CC(=O)N(N1C)C2=CC=CC=C2
InChI: InChI=1S/C11H12N2O/c1-9-8-11(14)13(12(9)2)10-6-4-3-5-7-10/h3-8H,1-2H3
Instrument: LTQ Orbitrap XL Thermo Scientific
Instrument type: LC-ESI-ITFT
Ms type: MS2
Ion mode: POSITIVE
Ionization: ESI
Fragmentation mode: HCD
Collision energy: 60% (nominal)
Resolution: 15000
Column name: Kinetex Evo C18 2.6 um 50 x 2.1 mm
Retention time: 5.974 min
Base peak: 189.1023
Precursor m/z: 189.1022
Precursor type: [M+H]+
m/z	relative intensity	assigned
55.0541	2	C4H7+
56.0492	82	C3H6N+
58.0649	82	C3H8N+
65.0384	7	C5H5+
70.065	7	C4H8N+
77.0386	5	C6H5+
86.06	2	C4H8NO+
91.0542	21	C7H7+
92.0494	3	C6H6N+
94.0651	2	C6H8N+
95.0605	6	C5H7N2+
96.0445	9	C5H6NO+
96.0682	47	C5H8N2+
98.0601	15	C5H8NO+
103.0543	4	C8H7+
104.0495	91	C7H6N+
105.0335	3	C7H5O+
105.0699	4	C8H9+
106.0651	47	C7H8N+
111.0554	3	C5H7N2O+
115.054	2	C9H7+
117.0574	7	C8H7N+
117.0699	16	C9H9+
118.0651	39	C8H8N+
120.0808	35	C8H10N+
130.0652	50	C9H8N+
131.073	71	C9H9N+
132.0808	38	C9H10N+
133.0521	7	C8H7NO+
133.0761	10	C8H9N2+
134.0964	8	C9H12N+
135.0552	2	C7H7N2O+
144.0809	64	C10H10N+
145.0648	29	C10H9O+
145.076	6	C9H9N2+
145.0889	3	C10H11N+
146.0839	69	C9H10N2+
146.0964	18	C10H12N+
147.0917	120	C9H11N2+
148.0757	10	C9H10NO+
149.0709	9	C8H9N2O+
157.0524	7	C10H7NO+
158.0602	5	C10H8NO+
159.0915	1	C10H11N2+
160.0994	3	C10H12N2+
161.1073	96	C10H13N2+
162.0916	1	C10H12NO+
172.0757	15	C11H10NO+
173.0708	1	C10H9N2O+
174.0788	59	C10H10N2O+
189.1023	999	C11H13N2O+
