Mass spectrum: Radicicol; LC-ESI-ITFT; MS2; CE: 60%; R=7500; [M-H]-
Name: Radicicol
Name: 16-chloro-17,19-dihydroxy-4-methyl-3,7-dioxatricyclo[13.4.0.06,8]nonadeca-1(15),9,11,16,18-pentaene-2,13-dione
Formula: C18H17ClO6
Exact mass: 364.07137
SMILES: CC1CC2C(O2)C=CC=CC(=O)CC3=C(C(=CC(=C3Cl)O)O)C(=O)O1
InChI: InChI=1S/C18H17ClO6/c1-9-6-15-14(25-15)5-3-2-4-10(20)7-11-16(18(23)24-9)12(21)8-13(22)17(11)19/h2-5,8-9,14-15,21-22H,6-7H2,1H3
Instrument: LTQ Orbitrap XL Thermo Scientific
Instrument type: LC-ESI-ITFT
Ms type: MS2
Ion mode: NEGATIVE
Ionization: ESI
Fragmentation mode: HCD
Collision energy: 60 % (nominal)
Resolution: 7500
Column name: Hypersil GOLD C18 1.9 um 100 x 2.1 mm Thermo Fisher Scientific
Retention time: 16.243 min
Base peak: 363.0646
Precursor m/z: 363.0641
Precursor type: [M-H]-
Precursor intensity: 45533339.33105
m/z	relative intensity	assigned
149.025	11	C8H5O3-
157.0064	21	C7H6ClO2-
159.0459	7	C10H7O2-
161.0247	25	C9H5O3-
161.0612	5	C10H9O2-
165.0195	8	C8H5O4-
169.0666	10	C12H9O-
171.0453	26	C11H7O2-
171.0819	5	C12H11O-
174.0321	15	C10H6O3-
175.0403	12	C10H7O3-
179.9988	19	C9H5ClO2-
182.9857	172	C8H4ClO3-
194.9857	90	C9H4ClO3-
195.0452	41	C13H7O2-
195.0819	6	C14H11O-
195.9934	30	C9H5ClO3-
197.0613	20	C13H9O2-
197.0977	11	C14H13O-
199.0405	19	C12H7O3-
200.0118	72	C11H4O4-
207.0221	33	C11H8ClO2-
207.9933	22	C10H5ClO3-
209.0014	28	C10H6ClO3-
211.0404	76	C13H7O3-
211.0765	20	C14H11O2-
212.0478	34	C13H8O3-
213.0562	43	C13H9O3-
214.0637	10	C13H10O3-
215.0713	29	C13H11O3-
223.9883	168	C10H5ClO4-
224.9961	75	C10H6ClO4-
227.036	10	C13H7O4-
233.0015	28	C12H6ClO3-
233.0372	16	C13H10ClO2-
237.0931	8	C16H13O2-
239.0351	44	C14H7O4-
239.0715	36	C15H11O3-
239.1075	9	C16H15O2-
240.0431	56	C14H8O4-
241.0511	24	C14H9O4-
241.0873	24	C15H13O3-
247.017	75	C13H8ClO3-
248.9957	8	C12H6ClO4-
249.0321	12	C13H10ClO3-
255.1027	31	C16H15O3-
259.0167	22	C14H8ClO3-
260.9964	29	C13H6ClO4-
262.0039	12	C13H7ClO4-
263.0111	12	C13H8ClO4-
265.0494	5	C10H14ClO6-
265.0877	13	C17H13O3-
273.0329	23	C15H10ClO3-
275.0121	134	C14H8ClO4-
275.0489	10	C15H12ClO3-
276.02	43	C14H9ClO4-
277.0278	44	C14H10ClO4-
281.0818	13	C17H13O4-
283.0621	27	C16H11O5-
283.0979	46	C17H15O4-
299.0922	21	C17H15O5-
301.0273	23	C16H10ClO4-
304.0155	27	C15H9ClO5-
309.0777	13	C18H13O5-
317.0588	15	C17H14ClO4-
319.038	105	C16H12ClO5-
327.0877	31	C18H15O6-
335.07	46	C17H16ClO5-
345.054	123	C18H14ClO5-
363.0647	999	C18H16ClO6-
