Mass spectrum: Phenazone; LC-ESI-QTOF; MS2; CE: 45 eV; R=3600; [M+H]+
Name: Phenazone
Name: 1,5-Dimethyl-2-phenyl-1,2-dihydro-3H-pyrazol-3-one
Formula: C11H12N2O
Exact mass: 188.095
SMILES: CN1N(C(=O)C=C1C)C1=CC=CC=C1
InChI: InChI=1S/C11H12N2O/c1-9-8-11(14)13(12(9)2)10-6-4-3-5-7-10/h3-8H,1-2H3
Instrument: 6648 QTOF Agilent
Instrument type: LC-ESI-QTOF
Ms type: MS2
Ion mode: POSITIVE
Ionization: ESI
Fragmentation mode: CID
Collision energy: 45 eV
Resolution: 3600
Precursor m/z: 189.1023
Precursor type: [M+H]+
m/z	relative intensity
51.023	721
56.0501	812
58.0658	138
65.0377	168
77.0384	999
91.0526	82
101.0359	46
104.0487	128
106.0639	65
117.059	62
130.064	59
131.0612	147
