Mass spectrum: Atrazine-desaturated (TENTATIVE); LC-ESI-QFT; MS2; CE: 30%; R=70000; [M+H]+
Name: Atrazine-desaturated
Formula: C8H12ClN5
Exact mass: 213.0772
SMILES: *NC1=NC(=NC(=N1)Cl)N* |$R1;;;;;;;;;;R2;;$| R1 = [C3H5 | C3H7 ] R2 = [C2H3|C2H5]
Instrument: Q Exactive Plus Orbitrap Thermo Scientific
Instrument type: LC-ESI-QFT
Ms type: MS2
Ion mode: POSITIVE
Ionization: ESI
Fragmentation mode: HCD
Collision energy: 30% (nominal)
Resolution: 70000
Column name: Waters UPLC BEH C18 1.7 um 2.1 mm x 100 mm with pre-column
Retention time: 12.14 min
Precursor m/z: 214.085
Precursor type: [M+H]+
m/z	relative intensity
55.0545	23
61.9794	95
67.0292	30
67.0543	61
68.0244	217
69.0448	717
69.0699	12
79.0057	737
79.0542	14
81.0699	46
85.076	12
87.9948	31
90.0339	13
94.04	933
95.0492	16
95.0855	36
104.001	999
105.0214	685
109.1012	11
111.0665	22
113.0959	14
128.996	17
130.0167	478
136.0618	74
145.0276	38
172.0384	655
214.0861	18
