Mass spectrum: Sulfamoxole; LC-ESI-QFT; MS2; CE: 60%; R=17500; [M+H]+
Name: Sulfamoxole
Name: 4-Amino-N-(4,5-dimethyl-1,3-oxazol-2-yl)benzene-1-sulfonamide
Formula: C11H13N3O3S
Exact mass: 267.0678
SMILES: CC1=C(C)N=C(NS(=O)(=O)C2=CC=C(N)C=C2)O1
InChI: InChI=1S/C11H13N3O3S/c1-7-8(2)17-11(13-7)14-18(15,16)10-5-3-9(12)4-6-10/h3-6H,12H2,1-2H3,(H,13,14)
Instrument: Q Exactive Thermo Fisher Scientific
Instrument type: LC-ESI-QFT
Ms type: MS2
Ion mode: POSITIVE
Ionization: ESI
Fragmentation mode: HCD
Collision energy: 60% (nominal)
Resolution: 17500
Column name: Hypersil GOLD 1.9 um 2.1 x 100 mm Thermo Fisher Scientific
Precursor m/z: 268.0751
Precursor type: [M+H]+
m/z	relative intensity
54.0348	11
65.0394	257
68.0503	44
69.0581	48
70.0659	130
78.0345	6
79.0186	7
80.0502	51
83.0611	4
92.05	999
93.0579	7
96.0451	7
108.0448	871
110.0604	165
111.0558	40
112.0636	124
113.0713	488
120.056	14
140.0166	53
156.0114	65
