Mass spectrum: Etofylline; LC-ESI-ITFT; MS2; CE: 90%; R=15000; [M+H]+
Name: Etofylline
Name: 7-(2-hydroxyethyl)-1,3-dimethylpurine-2,6-dione
Formula: C9H12N4O3
Exact mass: 224.0909
SMILES: CN1C2=C(C(=O)N(C1=O)C)N(C=N2)CCO
InChI: InChI=1S/C9H12N4O3/c1-11-7-6(8(15)12(2)9(11)16)13(3-4-14)5-10-7/h5,14H,3-4H2,1-2H3
Instrument: LTQ Orbitrap XL Thermo Scientific
Instrument type: LC-ESI-ITFT
Ms type: MS2
Ion mode: POSITIVE
Ionization: ESI
Fragmentation mode: HCD
Collision energy: 90% (nominal)
Resolution: 15000
Column name: Kinetex Evo C18 2.6 um 50 x 2.1 mm
Retention time: 2.606 min
Base peak: 225.0981
Precursor m/z: 225.0982
Precursor type: [M+H]+
m/z	relative intensity	assigned
69.0445	159	C3H5N2+
72.0442	1	C3H6NO+
83.024	8	C3H3N2O+
93.0446	3	C5H5N2+
96.0556	207	C4H6N3+
97.0396	8	C4H5N2O+
108.0556	3	C5H6N3+
109.027	8	C4H3N3O+
110.0712	3	C5H8N3+
122.0347	2	C5H4N3O+
124.0505	999	C5H6N3O+
137.0821	7	C6H9N4+
142.0611	20	C5H8N3O2+
181.0719	180	C7H9N4O2+
