Mass spectrum: Desipramine; LC-ESI-QFT; MS2; CE: CE75; R=17500; [M+H]+
Name: Desipramine
Name: 3-(5,6-dihydrobenzo[b][1]benzazepin-11-yl)-N-methylpropan-1-amine
Formula: C18H22N2
Exact mass: 266.1783
SMILES: CNCCCN1C2=C(CCC3=C1C=CC=C3)C=CC=C2
InChI: InChI=1S/C18H22N2/c1-19-13-6-14-20-17-9-4-2-7-15(17)11-12-16-8-3-5-10-18(16)20/h2-5,7-10,19H,6,11-14H2,1H3
Instrument: Q Exactive Thermo Fisher Scientific
Instrument type: LC-ESI-QFT
Ms type: MS2
Ion mode: POSITIVE
Ionization: ESI
Fragmentation mode: HCD
Collision energy: CE75
Resolution: 17500
Column name: Acquity UPLC BEH C18 1.7 um, 2.1 x 150 mm, Waters
Retention time: 19.371 min
Base peak: 223.0628
Precursor m/z: 267.1856
Precursor type: [M+H]+
m/z	relative intensity	assigned
51.0234	43	C4H3+
56.05	751	C3H6N+
57.0577	999	C3H7N+
63.0233	45	C5H3+
65.0389	186	C5H5+
70.0657	41	C4H8N+
72.0808	547	C4H10N+
79.0542	27	C6H7+
89.0383	416	C7H5+
90.0463	115	C7H6+
91.0539	327	C7H7+
103.0544	42	C8H7+
115.0544	133	C9H7+
117.0581	86	C8H7N+
118.0654	31	C8H8N+
128.0491	95	C9H6N+
130.0647	33	C9H8N+
139.0545	172	C11H7+
140.0513	38	C10H6N+
140.0623	48	C11H8+
152.0624	239	C12H8+
153.0695	22	C12H9+
165.0692	954	C13H9+
166.0657	185	C12H8N+
166.0783	34	C13H10+
167.0729	426	C12H9N+
176.0616	56	C14H8+
178.0634	99	C13H8N+
178.0784	110	C14H10+
179.0727	177	C13H9N+
180.0799	185	C13H10N+
190.0656	158	C14H8N+
191.0739	952	C14H9N+
192.0799	920	C14H10N+
193.0889	340	C14H11N+
194.0955	120	C14H12N+
204.0818	125	C15H10N+
206.0971	50	C15H12N+
