Mass spectrum: Sulfamethoxazole; LC-ESI-ITFT; MS2; CE: 130%; R=15000; [M+H]+
Name: Sulfamethoxazole
Name: 4-amino-N-(5-methyl-1,2-oxazol-3-yl)benzenesulfonamide
Formula: C10H11N3O3S
Exact mass: 253.0521
SMILES: CC1=CC(=NO1)NS(=O)(=O)C2=CC=C(C=C2)N
InChI: InChI=1S/C10H11N3O3S/c1-7-6-10(12-16-7)13-17(14,15)9-4-2-8(11)3-5-9/h2-6H,11H2,1H3,(H,12,13)
Instrument: LTQ Orbitrap XL Thermo Scientific
Instrument type: LC-ESI-ITFT
Ms type: MS2
Ion mode: POSITIVE
Ionization: ESI
Fragmentation mode: CID
Collision energy: 130% (nominal)
Resolution: 15000
Column name: Kinetex Evo C18 2.6 um 50 x 2.1 mm
Retention time: 5.650 min
Base peak: 189.1024
Precursor m/z: 254.0594
Precursor type: [M+H]+
m/z	relative intensity	assigned
65.0384	7	C5H5+
80.0495	6	C5H6N+
92.0495	106	C6H6N+
93.0573	28	C6H7N+
94.0652	28	C6H8N+
99.0554	21	C4H7N2O+
107.0605	24	C6H7N2+
108.0445	245	C6H6NO+
131.0603	7	C8H7N2+
145.0763	5	C9H9N2+
146.0714	145	C8H8N3+
147.0792	557	C8H9N3+
148.087	130	C8H10N3+
156.0115	999	C6H6NO2S+
160.087	407	C9H10N3+
161.0016	7	C4H5N2O3S+
161.0711	8	C9H9N2O+
163.0865	6	C9H11N2O+
172.0868	13	C10H10N3+
176.0277	31	C8H6N3S+
177.0113	6	C8H5N2OS+
188.082	844	C10H10N3O+
190.0976	267	C10H12N3O+
194.0383	330	C8H8N3OS+
236.049	24	C10H10N3O2S+
254.0598	13	C10H12N3O3S+
