Mass spectrum: (R) Semivioxanthin; LC-ESI-ITFT; MS2; CE: 60%; R=7500; [M-H]-
Name: (R) Semivioxanthin
Name: 3-Methyl-7-methoxy-9,10-dihydroxy-3,4-dihydro-1H-naphtho[2,3-c]pyran-1-one
Name: 9,10-dihydroxy-7-methoxy-3-methyl-3,4-dihydrobenzo[g]isochromen-1-one
Formula: C15H14O5
Exact mass: 274.08412
SMILES: CC1CC2=CC3=CC(=CC(=C3C(=C2C(=O)O1)O)O)OC
InChI: InChI=1S/C15H14O5/c1-7-3-8-4-9-5-10(19-2)6-11(16)12(9)14(17)13(8)15(18)20-7/h4-7,16-17H,3H2,1-2H3
Instrument: LTQ Orbitrap XL Thermo Scientific
Instrument type: LC-ESI-ITFT
Ms type: MS2
Ion mode: NEGATIVE
Ionization: ESI
Fragmentation mode: HCD
Collision energy: 60 % (nominal)
Resolution: 7500
Column name: Hypersil GOLD C18 1.9 um 100 x 2.1 mm Thermo Fisher Scientific
Retention time: 21.737 min
Base peak: 273.0757
Precursor m/z: 273.0768
Precursor type: [M-H]-
Precursor intensity: 4579591.329834
m/z	relative intensity	assigned
258.0521	999	C14H10O5-
