Mass spectrum: Metoclopramide; LC-ESI-QTOF; MS2; CE: 15 eV; R=3600; [M+H]+
Name: Metoclopramide
Name: 4-Amino-5-chloro-N-[2-(diethylamino)ethyl]-2-methoxybenzamide
Formula: C14H22ClN3O2
Exact mass: 299.1401
SMILES: CCN(CC)CCNC(=O)C1=CC(Cl)=C(N)C=C1OC
InChI: InChI=1S/C14H22ClN3O2/c1-4-18(5-2)7-6-17-14(19)10-8-11(15)12(16)9-13(10)20-3/h8-9H,4-7,16H2,1-3H3,(H,17,19)
Instrument: 6622 QTOF Agilent
Instrument type: LC-ESI-QTOF
Ms type: MS2
Ion mode: POSITIVE
Ionization: ESI
Fragmentation mode: CID
Collision energy: 15 eV
Resolution: 3600
Precursor m/z: 300.1474
Precursor type: [M+H]+
m/z	relative intensity
140.9942	53
183.0283	128
184.0122	588
212.0303	126
227.0538	999
300.1474	112
