Mass spectrum: Dosulepin; LC-ESI-ITFT; MS2; CE: 115%; R=15000; [M+H]+
Name: Dosulepin
Name: Dothiepin
Name: 3-(6H-benzo[c][1]benzothiepin-11-ylidene)-N,N-dimethylpropan-1-amine
Formula: C19H21NS
Exact mass: 295.1395
SMILES: CN(C)CCC=C1C2=CC=CC=C2CSC3=CC=CC=C31
InChI: InChI=1S/C19H21NS/c1-20(2)13-7-11-17-16-9-4-3-8-15(16)14-21-19-12-6-5-10-18(17)19/h3-6,8-12H,7,13-14H2,1-2H3
Instrument: LTQ Orbitrap XL Thermo Scientific
Instrument type: LC-ESI-ITFT
Ms type: MS2
Ion mode: POSITIVE
Ionization: ESI
Fragmentation mode: HCD
Collision energy: 115% (nominal)
Resolution: 15000
Column name: Kinetex Evo C18 2.6 um 50 x 2.1 mm
Retention time: 8.162 min
Base peak: 296.1467
Precursor m/z: 296.1467
Precursor type: [M+H]+
m/z	relative intensity	assigned
70.0649	10	C4H8N+
77.0386	7	C6H5+
79.0542	14	C6H7+
84.0808	7	C5H10N+
91.0542	312	C7H7+
103.054	16	C8H7+
105.0449	9	C6H5N2+
115.0542	282	C9H7+
116.062	14	C9H8+
117.0698	67	C9H9+
121.0108	11	C7H5S+
123.0262	14	C7H7S+
128.062	59	C10H8+
129.0699	24	C10H9+
134.0185	8	C8H6S+
141.0698	61	C11H9+
147.0261	60	C9H7S+
152.0621	19	C12H8+
155.0601	12	C10H7N2+
164.0624	6	C13H8+
165.0698	231	C13H9+
171.0267	6	C11H7S+
173.0421	7	C11H9S+
176.0623	10	C14H8+
177.0698	17	C14H9+
178.0777	507	C14H10+
179.0855	37	C14H11+
184.0337	6	C12H8S+
189.0698	74	C15H9+
190.0775	42	C15H10+
191.0854	170	C15H11+
192.0927	11	C15H12+
197.0421	12	C13H9S+
201.0697	16	C16H9+
202.0777	999	C16H10+
203.0854	303	C16H11+
208.034	64	C14H8S+
209.042	24	C14H9S+
210.0496	52	C14H10S+
215.0854	219	C17H11+
216.0933	74	C17H12+
217.1011	154	C17H13+
221.0419	679	C15H9S+
222.0497	31	C15H10S+
223.0575	14	C15H11S+
229.0762	6	C16H9N2+
234.0498	133	C16H10S+
235.0574	71	C16H11S+
