Mass spectrum: Sulfamethoxazole; LC-ESI-ITFT; MS2; CE: 30%; R=7500; [M+H]+
Name: Sulfamethoxazole
Name: 4-Amino-N-(5-methyl-1,2-oxazol-3-yl)benzene-1-sulfonamide
Formula: C10H11N3O3S
Exact mass: 253.0521
SMILES: CC1=CC(NS(=O)(=O)C2=CC=C(N)C=C2)=NO1
InChI: InChI=1S/C10H11N3O3S/c1-7-6-10(12-16-7)13-17(14,15)9-4-2-8(11)3-5-9/h2-6H,11H2,1H3,(H,12,13)
Instrument: LTQ Orbitrap XL Thermo Fisher Scientific
Instrument type: LC-ESI-ITFT
Ms type: MS2
Ion mode: POSITIVE
Ionization: ESI
Fragmentation mode: HCD
Collision energy: 30% (nominal)
Resolution: 7500
Column name: Hypersil GOLD C18 1.9 um 100 x 2.1 mm Thermo Fisher Scientific
Precursor m/z: 254.0594
Precursor type: [M+H]+
m/z	relative intensity
65.0383	2
92.0494	85
93.0572	68
94.0651	15
99.0554	76
107.0605	16
108.0445	159
131.0602	1
146.0714	22
147.0793	112
148.0871	35
156.0115	839
160.087	98
161.0018	7
163.0868	3
172.0871	2
174.0221	3
176.0279	5
188.0821	142
190.0977	65
194.0385	39
254.0594	999
