Mass spectrum: (R)Semixanthomegnin; LC-ESI-ITFT; MS2; CE: 15%; R=7500; [M-H]-
Name: (R)Semixanthomegnin
Name: (3R)-3-Methyl-7-methoxy-10-hydroxy-3,4-dihydro-1H-naphtho[2,3-c]pyran-1,6,9-trione
Name: (3R)-10-hydroxy-7-methoxy-3-methyl-3,4-dihydrobenzo[g]isochromene-1,6,9-trione
Formula: C15H12O6
Exact mass: 288.06339
SMILES: C[C@@H]1CC2=C(C(=C3C(=C2)C(=O)C(=CC3=O)OC)O)C(=O)O1
InChI: InChI=1S/C15H12O6/c1-6-3-7-4-8-12(14(18)11(7)15(19)21-6)9(16)5-10(20-2)13(8)17/h4-6,18H,3H2,1-2H3/t6-/m1/s1
Instrument: LTQ Orbitrap XL Thermo Scientific
Instrument type: LC-ESI-ITFT
Ms type: MS2
Ion mode: NEGATIVE
Ionization: ESI
Fragmentation mode: HCD
Collision energy: 15 % (nominal)
Resolution: 7500
Column name: Hypersil GOLD C18 1.9 um 100 x 2.1 mm Thermo Fisher Scientific
Retention time: 13.339 min
Base peak: 287.0549
Precursor m/z: 287.0561
Precursor type: [M-H]-
Precursor intensity: 5041034.071289
m/z	relative intensity	assigned
272.0316	999	C14H8O6-
