Mass spectrum: Epiequisetin; LC-ESI-ITFT; MS2; CE: 40%; R=7500; [M+H]+
Name: Epiequisetin
Name: 3-[(1,6-dimethyl-2-prop-1-enyl-4a,5,6,7,8,8a-hexahydro-2H-naphthalen-1-yl)-hydroxymethylidene]-5-(hydroxymethyl)-1-methylpyrrolidine-2,4-dione
Formula: C22H31NO4
Exact mass: 373.2253
SMILES: CC=CC1C=CC2CC(CCC2C1(C)C(=C3C(=O)C(N(C3=O)C)CO)O)C
InChI: InChI=1S/C22H31NO4/c1-5-6-15-9-8-14-11-13(2)7-10-16(14)22(15,3)20(26)18-19(25)17(12-24)23(4)21(18)27/h5-6,8-9,13-17,24,26H,7,10-12H2,1-4H3
Instrument: LTQ Orbitrap XL Thermo Scientific
Instrument type: LC-ESI-ITFT
Ms type: MS2
Ion mode: POSITIVE
Ionization: ESI
Fragmentation mode: HCD
Collision energy: 40 % (nominal)
Resolution: 7500
Column name: Hypersil GOLD C18 1.9 um 100 x 2.1 mm Thermo Fisher Scientific
Retention time: 28.042 min
Base peak: 374.2332
Precursor m/z: 374.2326
Precursor type: [M+H]+
Precursor intensity: 9559347.09082
m/z	relative intensity	assigned
81.0699	66	C6H9+
83.0854	20	C6H11+
91.0541	6	C7H7+
93.07	12	C7H9+
95.0854	30	C7H11+
105.07	65	C8H9+
107.0856	23	C8H11+
109.1016	14	C8H13+
119.0856	99	C9H11+
121.1012	16	C9H13+
123.1167	19	C9H15+
126.0552	32	C6H8NO2+
133.1013	74	C10H13+
135.117	37	C10H15+
139.0396	5	C7H7O3+
140.0345	31	C6H6NO3+
140.0706	13	C7H10NO2+
142.0502	7	C6H8NO3+
144.0657	102	C6H10NO3+
145.1012	11	C11H13+
147.117	89	C11H15+
149.1325	62	C11H17+
152.0343	51	C7H6NO3+
152.0705	36	C8H10NO2+
156.0658	51	C7H10NO3+
157.1016	14	C12H13+
159.1172	16	C12H15+
161.1329	17	C12H17+
163.1482	64	C12H19+
164.0707	11	C9H10NO2+
166.0867	10	C9H12NO2+
170.0449	339	C7H8NO4+
170.0814	433	C8H12NO3+
173.1327	38	C13H17+
175.1483	999	C13H19+
177.1642	71	C13H21+
182.0812	45	C9H12NO3+
184.097	159	C9H14NO3+
186.0766	22	C8H12NO4+
187.1482	32	C14H19+
189.1639	107	C14H21+
196.0971	13	C10H14NO3+
198.0762	22	C9H12NO4+
198.1131	13	C10H16NO3+
200.092	127	C9H14NO4+
201.1639	15	C15H21+
203.1794	51	C15H23+
205.1952	151	C15H25+
210.1118	13	C11H16NO3+
212.0912	16	C10H14NO4+
213.1639	44	C16H21+
224.1284	8	C12H18NO3+
226.1084	8	C11H16NO4+
231.1746	36	C16H23O+
234.1119	9	C13H16NO3+
238.1079	20	C12H16NO4+
240.1236	10	C12H18NO4+
248.1269	7	C14H18NO3+
255.175	6	C18H23O+
260.1278	9	C15H18NO3+
280.1536	6	C15H22NO4+
286.1436	13	C17H20NO3+
288.1596	32	C17H22NO3+
294.1688	16	C16H24NO4+
300.1601	21	C18H22NO3+
302.1753	37	C18H24NO3+
304.1549	12	C17H22NO4+
314.1765	17	C19H24NO3+
346.2373	54	C21H32NO3+
356.2222	158	C22H30NO3+
374.2328	74	C22H32NO4+
