Mass spectrum: Viomellein; LC-ESI-ITFT; MS2; CE: 40%; R=7500; [M-H]-
Name: Viomellein
Name: VIOMELLEIN
Name: 8-(9,10-dihydroxy-7-methoxy-3-methyl-1-oxo-3,4-dihydrobenzo[g]isochromen-8-yl)-10-hydroxy-7-methoxy-3-methyl-3,4-dihydrobenzo[g]isochromene-1,6,9-trione
Formula: C30H24O11
Exact mass: 560.13186
SMILES: CC1CC2=CC3=C(C(=C2C(=O)O1)O)C(=O)C(=C(C3=O)OC)C4=C(C5=C(C6=C(CC(OC6=O)C)C=C5C=C4OC)O)O
InChI: InChI=1S/C30H24O11/c1-10-5-12-7-14-9-16(38-3)21(25(33)17(14)24(32)18(12)29(36)40-10)22-27(35)20-15(23(31)28(22)39-4)8-13-6-11(2)41-30(37)19(13)26(20)34/h7-11,32-34H,5-6H2,1-4H3
Instrument: LTQ Orbitrap XL Thermo Scientific
Instrument type: LC-ESI-ITFT
Ms type: MS2
Ion mode: NEGATIVE
Ionization: ESI
Fragmentation mode: HCD
Collision energy: 40 % (nominal)
Resolution: 7500
Column name: Hypersil GOLD C18 1.9 um 100 x 2.1 mm Thermo Fisher Scientific
Retention time: 22.339 min
Base peak: 141.0175
Precursor m/z: 559.1246
Precursor type: [M-H]-
Precursor intensity: 180451.0546875
m/z	relative intensity	assigned
527.099	999	C29H19O10-
