Mass spectrum: Tentotoxin; LC-ESI-ITFT; MS2; CE: 50%; R=7500; [M-H]-
Name: Tentotoxin
Name: 12-benzylidene-1,6,7-trimethyl-3-(2-methylpropyl)-1,4,7,10-tetrazacyclododecane-2,5,8,11-tetrone
Formula: C22H30N4O4
Exact mass: 414.22671
SMILES: CC1C(=O)NC(C(=O)N(C(=CC2=CC=CC=C2)C(=O)NCC(=O)N1C)C)CC(C)C
InChI: InChI=1S/C22H30N4O4/c1-14(2)11-17-22(30)26(5)18(12-16-9-7-6-8-10-16)21(29)23-13-19(27)25(4)15(3)20(28)24-17/h6-10,12,14-15,17H,11,13H2,1-5H3,(H,23,29)(H,24,28)
Instrument: LTQ Orbitrap XL Thermo Scientific
Instrument type: LC-ESI-ITFT
Ms type: MS2
Ion mode: NEGATIVE
Ionization: ESI
Fragmentation mode: HCD
Collision energy: 50 % (nominal)
Resolution: 7500
Column name: Hypersil GOLD C18 1.9 um 100 x 2.1 mm Thermo Fisher Scientific
Retention time: 18.863 min
Base peak: 413.2183
Precursor m/z: 413.2194
Precursor type: [M-H]-
Precursor intensity: 34299889.53418
m/z	relative intensity	assigned
84.0454	7	C4H6NO-
101.0717	3	C4H9N2O-
102.0558	25	C4H8NO2-
110.0245	4	C5H4NO2-
111.0559	9	C5H7N2O-
113.0353	20	C4H5N2O2-
113.0718	2	C5H9N2O-
123.056	14	C6H7N2O-
126.043	4	C5H6N2O2-
127.0514	3	C5H7N2O2-
128.0501	9	C9H6N-
132.0817	5	C9H10N-
141.0665	999	C6H9N2O2-
153.1028	34	C8H13N2O-
154.0617	34	C6H8N3O2-
167.0455	44	C7H7N2O3-
185.0712	12	C11H9N2O-
186.0807	2	C11H10N2O-
189.1036	2	C11H13N2O-
201.0671	3	C11H9N2O2-
214.0738	223	C12H10N2O2-
215.0818	153	C12H11N2O2-
225.1233	5	C11H17N2O3-
236.1398	4	C12H18N3O2-
243.1492	71	C15H19N2O-
246.1239	102	C13H16N3O2-
254.1517	2	C12H20N3O3-
256.1207	5	C15H16N2O2-
259.1081	32	C14H15N2O3-
271.1442	469	C16H19N2O2-
284.1762	4	C17H22N3O-
295.1312	16	C17H17N3O2-
310.1554	14	C18H20N3O2-
338.1879	8	C20H24N3O2-
354.2051	17	C20H26N4O2-
356.1964	20	C20H26N3O3-
369.2283	97	C21H29N4O2-
382.1765	8	C21H24N3O4-
395.2075	5	C22H27N4O3-
413.2185	277	C22H29N4O4-
