Mass spectrum: Deoxynivalenol; LC-ESI-ITFT; MS2; CE: 40%; R=7500; [M+H]+
Name: Deoxynivalenol
Name: Vomitoxin
Name: 3,10-dihydroxy-2-(hydroxymethyl)-1,5-dimethylspiro[8-oxatricyclo[7.2.1.02,7]dodec-5-ene-12,2`-oxirane]-4-one
Formula: C15H20O6
Exact mass: 296.1260
SMILES: CC1=CC2C(C(C1=O)O)(C3(CC(C(C34CO4)O2)O)C)CO
InChI: InChI=1S/C15H20O6/c1-7-3-9-14(5-16,11(19)10(7)18)13(2)4-8(17)12(21-9)15(13)6-20-15/h3,8-9,11-12,16-17,19H,4-6H2,1-2H3
Instrument: LTQ Orbitrap XL Thermo Scientific
Instrument type: LC-ESI-ITFT
Ms type: MS2
Ion mode: POSITIVE
Ionization: ESI
Fragmentation mode: HCD
Collision energy: 40 % (nominal)
Resolution: 7500
Column name: Hypersil GOLD C18 1.9 um 100 x 2.1 mm Thermo Fisher Scientific
Retention time: 5.939 min
Base peak: 297.1327
Precursor m/z: 297.1333
Precursor type: [M+H]+
Precursor intensity: 2931854.051514
m/z	relative intensity	assigned
56.1195	66	C2H16O+
125.06	53	C7H9O2+
137.0598	79	C8H9O2+
175.0753	121	C11H11O2+
177.091	83	C11H13O2+
187.1115	117	C13H15O+
189.0908	140	C12H13O2+
201.0911	69	C13H13O2+
203.1063	410	C13H15O2+
213.0916	122	C14H13O2+
215.1065	68	C14H15O2+
219.1014	246	C13H15O3+
231.1013	558	C14H15O3+
249.1118	999	C14H17O4+
261.1115	320	C15H17O4+
279.1224	399	C15H19O5+
