Mass spectrum: Antipyrine; LC-ESI-ITFT; MS2; CE: 85%; R=15000; [M+H]+
Name: Antipyrine
Name: 1,5-dimethyl-2-phenylpyrazol-3-one
Formula: C11H12N2O
Exact mass: 188.0950
SMILES: CC1=CC(=O)N(N1C)C2=CC=CC=C2
InChI: InChI=1S/C11H12N2O/c1-9-8-11(14)13(12(9)2)10-6-4-3-5-7-10/h3-8H,1-2H3
Instrument: LTQ Orbitrap XL Thermo Scientific
Instrument type: LC-ESI-ITFT
Ms type: MS2
Ion mode: POSITIVE
Ionization: ESI
Fragmentation mode: HCD
Collision energy: 85% (nominal)
Resolution: 15000
Column name: Kinetex Evo C18 2.6 um 50 x 2.1 mm
Retention time: 5.661 min
Base peak: 189.1022
Precursor m/z: 189.1022
Precursor type: [M+H]+
m/z	relative intensity	assigned
55.0176	35	C3H3O+
56.0492	999	C3H6N+
58.0649	613	C3H8N+
65.0384	162	C5H5+
68.0494	32	C4H6N+
69.0571	39	C4H7N+
70.0651	23	C4H8N+
77.0385	330	C6H5+
79.0542	58	C6H7+
81.0447	82	C4H5N2+
91.0542	195	C7H7+
92.0494	53	C6H6N+
93.0334	22	C6H5O+
93.0573	26	C6H7N+
94.0651	41	C6H8N+
95.0492	72	C6H7O+
95.0604	92	C5H7N2+
96.0444	42	C5H6NO+
96.0682	273	C5H8N2+
98.06	204	C5H8NO+
103.0542	103	C8H7+
104.0495	939	C7H6N+
105.0335	37	C7H5O+
105.0447	147	C6H5N2+
105.0573	58	C7H7N+
105.0699	38	C8H9+
106.0651	830	C7H8N+
111.0556	14	C5H7N2O+
115.0542	96	C9H7+
117.0573	128	C8H7N+
117.0699	257	C9H9+
118.0651	291	C8H8N+
120.0808	226	C8H10N+
129.0574	64	C9H7N+
130.0652	372	C9H8N+
131.0603	116	C8H7N2+
131.0729	313	C9H9N+
132.0442	15	C8H6NO+
132.0681	76	C8H8N2+
132.0808	136	C9H10N+
133.0523	68	C8H7NO+
133.0763	39	C8H9N2+
134.0963	59	C9H12N+
143.0732	26	C10H9N+
144.0808	244	C10H10N+
145.0649	99	C10H9O+
145.076	142	C9H9N2+
146.0838	274	C9H10N2+
146.0964	39	C10H12N+
147.0917	507	C9H11N2+
149.0707	31	C8H9N2O+
157.0521	56	C10H7NO+
159.0555	21	C9H7N2O+
159.092	20	C10H11N2+
160.0994	18	C10H12N2+
161.1073	110	C10H13N2+
172.0757	30	C11H10NO+
173.0708	44	C10H9N2O+
174.0787	172	C10H10N2O+
189.1023	499	C11H13N2O+
