Mass spectrum: T2 tetraol; LC-ESI-ITFT; MS2; CE: 15%; R=7500; [M+H]+
Name: T2 tetraol
Name: T-2 Toxin tetraol
Name: 2-(hydroxymethyl)-1,5-dimethylspiro[8-oxatricyclo[7.2.1.02,7]dodec-5-ene-12,2`-oxirane]-4,10,11-triol
Formula: C15H22O6
Exact mass: 298.1416
SMILES: CC1=CC2C(CC1O)(C3(C(C(C(C34CO4)O2)O)O)C)CO
InChI: InChI=1S/C15H22O6/c1-7-3-9-14(5-16,4-8(7)17)13(2)11(19)10(18)12(21-9)15(13)6-20-15/h3,8-12,16-19H,4-6H2,1-2H3
Instrument: LTQ Orbitrap XL Thermo Scientific
Instrument type: LC-ESI-ITFT
Ms type: MS2
Ion mode: POSITIVE
Ionization: ESI
Fragmentation mode: HCD
Collision energy: 15 % (nominal)
Resolution: 7500
Column name: Hypersil GOLD C18 1.9 um 100 x 2.1 mm Thermo Fisher Scientific
Retention time: 4.115 min
Base peak: 215.1065
Precursor m/z: 299.1489
Precursor type: [M+H]+
Precursor intensity: 493720.0078125
m/z	relative intensity	assigned
281.1376	999	C15H21O5+
