Mass spectrum: Dixyrazine ; LC-ESI-ITFT; MS2; CE: 75%; R=7500; [M+H]+
Name: Dixyrazine
Name: 2-(2-{4-[2-Methyl-3-(10H-phenothiazin-10-yl)propyl]piperazin-1-yl}ethoxy)ethan-1-ol
Formula: C24H33N3O2S
Exact mass: 427.2293
SMILES: CC(CN1CCN(CCOCCO)CC1)CN1C2=CC=CC=C2SC2=CC=CC=C12
InChI: InChI=1S/C24H33N3O2S/c1-20(18-26-12-10-25(11-13-26)14-16-29-17-15-28)19-27-21-6-2-4-8-23(21)30-24-9-5-3-7-22(24)27/h2-9,20,28H,10-19H2,1H3
Instrument: LTQ Orbitrap XL Thermo Fisher Scientific
Instrument type: LC-ESI-ITFT
Ms type: MS2
Ion mode: POSITIVE
Ionization: ESI
Fragmentation mode: HCD
Collision energy: 75% (nominal)
Resolution: 7500
Column name: Hypersil GOLD C18 1.9 um 100 x 2.1 mm Thermo Fisher Scientific
Precursor m/z: 428.2367
Precursor type: [M+H]+
m/z	relative intensity
56.0493	10
57.0591	5
57.0617	6
57.0682	5
57.0774	9
57.0952	6
57.1088	5
57.1146	9
57.1274	7
57.1521	4
58.065	30
70.065	142
82.065	55
83.0601	9
84.0806	39
86.0601	9
87.044	107
97.076	322
98.0838	999
99.0916	52
100.0757	20
101.1073	469
110.084	28
111.0917	7
112.0995	26
113.1072	21
118.0859	10
125.1073	106
130.0864	13
132.1018	4
140.1309	16
144.102	94
155.1544	14
172.1207	126
178.0653	8
179.073	84
180.0809	640
187.1441	129
188.9125	12
198.0373	16
199.0452	48
206.0969	16
212.053	429
220.1125	16
221.1206	14
229.1913	46
238.0681	5
273.8047	16
