Mass spectrum: Desipramine; ESI-QTOF; MS2; CE: 45eV; R=15000; [M+H]+
Name: Desipramine
Name: 3-(10,11-Dihydro-5H-dibenzo[b,f]azepin-5-yl)-N-methylpropan-1-amine
Formula: C18H22N2
Exact mass: 266.1783
SMILES: CNCCCN1C2=C(CCC3=C1C=CC=C3)C=CC=C2
InChI: InChI=1S/C18H22N2/c1-19-13-6-14-20-17-9-4-2-7-15(17)11-12-16-8-3-5-10-18(16)20/h2-5,7-10,19H,6,11-14H2,1H3
Instrument: TripleTOF 5600+SCIEX
Instrument type: ESI-QTOF
Ms type: MS2
Ion mode: POSITIVE
Ionization: ESI
Fragmentation mode: CID
Collision energy: 45 eV
Resolution: 15000
Precursor m/z: 267.1856
Precursor type: [M+H]+
m/z	relative intensity
55.0566	4
56.0519	14
57.0597	38
65.0404	1
67.0559	7
69.0715	2
70.0668	4
71.087	3
72.0827	801
77.0399	2
79.0554	5
81.071	5
83.0865	1
85.1021	1
89.0395	1
90.0472	1
91.055	14
93.0704	1
95.0862	5
103.0545	4
104.0498	1
105.0703	5
106.0654	3
107.0856	1
109.1013	1
115.0544	6
116.0497	2
117.0574	4
118.0651	10
119.0853	1
127.0543	1
128.0493	1
129.0696	1
130.0651	11
131.0727	1
132.0807	1
139.0539	3
140.0494	1
141.0696	1
142.065	1
143.0727	3
144.0805	5
145.0884	2
152.0616	5
153.0695	1
154.0647	1
156.0804	1
157.0882	1
158.096	4
159.1037	1
165.0695	29
166.0771	11
167.0726	26
168.0802	1
178.077	11
180.0803	79
181.0883	8
191.0725	20
192.0803	90
193.0883	999
194.096	95
195.1038	32
196.1115	19
206.0959	27
207.1037	15
208.1115	314
220.1115	36
