Mass spectrum: Amiloride; ESI-QTOF; MS2; CE: 30eV; R=15000; [M+H]+
Name: Amiloride
Name: 3,5-Diamino-N-carbamimidoyl-6-chloropyrazine-2-carboxamide
Formula: C6H8ClN7O
Exact mass: 229.0479
SMILES: NC(=N)NC(=O)C1=NC(Cl)=C(N)N=C1N
InChI: InChI=1S/C6H8ClN7O/c7-2-4(9)13-3(8)1(12-2)5(15)14-6(10)11/h(H4,8,9,13)(H4,10,11,14,15)
Instrument: TripleTOF 5600+SCIEX
Instrument type: ESI-QTOF
Ms type: MS2
Ion mode: POSITIVE
Ionization: ESI
Fragmentation mode: CID
Collision energy: 30 eV
Resolution: 15000
Precursor m/z: 230.0552
Precursor type: [M+H]+
m/z	relative intensity
57.0718	1
60.0574	128
61.0409	1
61.9807	2
63.9962	4
66.0224	1
73.9802	1
86.0353	5
88.9905	4
91.006	1
100.9899	7
107.035	1
108.0427	22
116.0006	210
125.045	1
140.9969	1
143.011	279
145.0263	2
161.0214	26
170.0217	2
171.0057	999
188.0319	3
189.0161	7
230.0552	44
