Mass spectrum: Dosulepin; LC-ESI-ITFT; MS2; CE: 65%; R=15000; [M+H]+
Name: Dosulepin
Name: Dothiepin
Name: 3-(6H-benzo[c][1]benzothiepin-11-ylidene)-N,N-dimethylpropan-1-amine
Formula: C19H21NS
Exact mass: 295.1395
SMILES: CN(C)CCC=C1C2=CC=CC=C2CSC3=CC=CC=C31
InChI: InChI=1S/C19H21NS/c1-20(2)13-7-11-17-16-9-4-3-8-15(16)14-21-19-12-6-5-10-18(17)19/h3-6,8-12H,7,13-14H2,1-2H3
Instrument: LTQ Orbitrap XL Thermo Scientific
Instrument type: LC-ESI-ITFT
Ms type: MS2
Ion mode: POSITIVE
Ionization: ESI
Fragmentation mode: HCD
Collision energy: 65% (nominal)
Resolution: 15000
Column name: Kinetex Evo C18 2.6 um 50 x 2.1 mm
Retention time: 8.117 min
Base peak: 296.1468
Precursor m/z: 296.1467
Precursor type: [M+H]+
m/z	relative intensity	assigned
58.0649	191	C3H8N+
73.0104	9	C3H5S+
84.0807	37	C5H10N+
85.0886	7	C5H11N+
91.0542	260	C7H7+
103.0545	8	C8H7+
115.0542	72	C9H7+
117.0698	636	C9H9+
123.0263	285	C7H7S+
129.0699	74	C10H9+
135.0263	36	C8H7S+
141.07	58	C11H9+
142.0776	52	C11H10+
147.0262	234	C9H7S+
165.0698	129	C13H9+
173.0419	79	C11H9S+
178.0777	189	C14H10+
179.0856	89	C14H11+
191.0855	146	C15H11+
192.0933	229	C15H12+
202.0776	109	C16H10+
203.0855	566	C16H11+
204.0932	45	C16H12+
205.1012	20	C16H13+
209.0419	203	C14H9S+
210.0497	211	C14H10S+
211.0579	11	C14H11S+
217.1012	488	C17H13+
218.109	999	C17H14+
221.0418	359	C15H9S+
222.0497	343	C15H10S+
223.0575	945	C15H11S+
225.073	193	C15H13S+
234.0497	34	C16H10S+
235.0574	102	C16H11S+
236.0653	186	C16H12S+
249.0729	33	C17H13S+
251.0888	40	C17H15S+
