Mass spectrum: Pseurotin A; LC-ESI-ITFT; MS2; CE: 30%; R=7500; [M+H]+
Name: Pseurotin A
Name: CID 434331
Name: 8-benzoyl-2-(1,2-dihydroxyhex-3-enyl)-9-hydroxy-8-methoxy-3-methyl-1-oxa-7-azaspiro[4.4]non-2-ene-4,6-dione
Formula: C22H25NO8
Exact mass: 431.1580
SMILES: CCC=CC(C(C1=C(C(=O)C2(O1)C(C(NC2=O)(C(=O)C3=CC=CC=C3)OC)O)C)O)O
InChI: InChI=1S/C22H25NO8/c1-4-5-11-14(24)15(25)16-12(2)17(26)21(31-16)19(28)22(30-3,23-20(21)29)18(27)13-9-7-6-8-10-13/h5-11,14-15,19,24-25,28H,4H2,1-3H3,(H,23,29)
Instrument: LTQ Orbitrap XL Thermo Scientific
Instrument type: LC-ESI-ITFT
Ms type: MS2
Ion mode: POSITIVE
Ionization: ESI
Fragmentation mode: HCD
Collision energy: 30 % (nominal)
Resolution: 7500
Column name: Hypersil GOLD C18 1.9 um 100 x 2.1 mm Thermo Fisher Scientific
Retention time: 14.906 min
Base peak: 348.1074
Precursor m/z: 432.1653
Precursor type: [M+H]+
Precursor intensity: 649810.375
m/z	relative intensity	assigned
269.0399	999	C22H5+
