Mass spectrum: Etilefrine; LC-ESI-ITFT; MS2; CE: 75%; R=15000; [M+H]+
Name: Etilefrine
Name: 3-[2-(ethylamino)-1-hydroxyethyl]phenol
Formula: C10H15NO2
Exact mass: 181.1103
SMILES: CCNCC(C1=CC(=CC=C1)O)O
InChI: InChI=1S/C10H15NO2/c1-2-11-7-10(13)8-4-3-5-9(12)6-8/h3-6,10-13H,2,7H2,1H3
Instrument: LTQ Orbitrap XL Thermo Scientific
Instrument type: LC-ESI-ITFT
Ms type: MS2
Ion mode: POSITIVE
Ionization: ESI
Fragmentation mode: HCD
Collision energy: 75% (nominal)
Resolution: 15000
Column name: Kinetex Evo C18 2.6 um 50 x 2.1 mm
Retention time: 0.618 min
Base peak: 182.1176
Precursor m/z: 182.1176
Precursor type: [M+H]+
m/z	relative intensity	assigned
56.0493	56	C3H6N+
77.0384	10	C6H5+
79.0542	5	C6H7+
81.0698	39	C6H9+
91.0543	999	C7H7+
93.0577	6	C6H7N+
93.07	53	C7H9+
94.0414	7	C6H6O+
95.0493	12	C6H7O+
103.0543	37	C8H7+
104.0494	6	C7H6N+
105.0449	4	C6H5N2+
106.0646	7	C7H8N+
107.0492	61	C7H7O+
107.0728	7	C7H9N+
108.0572	13	C7H8O+
108.0808	23	C7H10N+
109.0649	352	C7H9O+
117.0571	11	C8H7N+
118.0413	6	C8H6O+
118.0652	95	C8H8N+
119.0492	230	C8H7O+
120.0446	15	C7H6NO+
121.0649	176	C8H9O+
134.0601	114	C8H8NO+
135.068	761	C8H9NO+
136.0758	230	C8H10NO+
164.1071	681	C10H14NO+
