Mass spectrum: Sulfamethoxazole; ESI-QTOF; MS2; CE: 25eV; R=15000; [M+H]+
Name: Sulfamethoxazole
Name: 4-Amino-N-(5-methyl-1,2-oxazol-3-yl)benzene-1-sulfonamide
Formula: C10H11N3O3S
Exact mass: 253.0521
SMILES: CC1=CC(NS(=O)(=O)C2=CC=C(N)C=C2)=NO1
InChI: InChI=1S/C10H11N3O3S/c1-7-6-10(12-16-7)13-17(14,15)9-4-2-8(11)3-5-9/h2-6H,11H2,1H3,(H,12,13)
Instrument: TripleTOF 5600+SCIEX
Instrument type: ESI-QTOF
Ms type: MS2
Ion mode: POSITIVE
Ionization: ESI
Fragmentation mode: CID
Collision energy: 25 eV
Resolution: 15000
Precursor m/z: 254.0594
Precursor type: [M+H]+
m/z	relative intensity
53.0411	1
65.0408	22
66.0484	1
72.0461	1
77.0391	1
80.0509	11
92.0506	284
93.0584	88
94.0662	14
99.0563	113
105.0457	1
106.0535	1
107.0612	26
108.0451	540
110.0598	1
118.0536	1
119.0608	3
120.0693	1
121.0768	4
130.0529	2
131.0607	7
132.0688	5
133.0639	4
134.0712	1
135.0924	1
140.0173	1
143.0607	3
145.0762	3
146.0717	47
147.0795	141
148.0874	31
149.0156	1
156.0119	999
159.0796	1
160.0874	159
161.0018	15
163.0869	2
169.03	2
172.0877	2
173.0588	4
174.079	1
176.0282	10
177.0113	1
187.0041	1
188.0824	112
190.0979	25
193.0305	1
194.0388	20
213.0201	2
236.0495	10
254.0594	253
