Mass spectrum: Phenazone; LC-ESI-QFT; MS2; CE: 65%; R=17500; [M+H]+
Name: Phenazone
Name: 1,5-Dimethyl-2-phenyl-1,2-dihydro-3H-pyrazol-3-one
Formula: C11H12N2O
Exact mass: 188.095
SMILES: CN1N(C(=O)C=C1C)C1=CC=CC=C1
InChI: InChI=1S/C11H12N2O/c1-9-8-11(14)13(12(9)2)10-6-4-3-5-7-10/h3-8H,1-2H3
Instrument: Q Exactive Thermo Fisher Scientific
Instrument type: LC-ESI-QFT
Ms type: MS2
Ion mode: POSITIVE
Ionization: ESI
Fragmentation mode: HCD
Collision energy: 65% (nominal)
Resolution: 17500
Column name: Hypersil GOLD 1.9 um 2.1 x 100 mm Thermo Fisher Scientific
Precursor m/z: 189.1023
Precursor type: [M+H]+
m/z	relative intensity
56.0504	999
58.066	923
65.0394	209
91.0548	231
95.0498	300
96.0687	326
98.0606	161
104.05	969
106.0656	736
117.0702	283
118.0655	389
120.081	270
130.0654	462
131.0731	454
132.0809	188
144.081	341
146.084	366
147.0918	584
174.0789	231
189.1023	870
