Mass spectrum: Terbuthylazine-desethyl (PROBABLE); LC-ESI-QFT; MS2; CE: 30%; R=70000; [M+H]+
Name: Terbuthylazine-desethyl
Name: N2-tert-butyl-6-chloro-1,3,5-triazine-2,4-diamine
Formula: C7H12ClN5
Exact mass: 201.0773
SMILES: NC1=NC(=NC(=N1)Cl)NC(C)(C)C
InChI: InChI=1S/C7H12ClN5/c1-7(2,3)13-6-11-4(8)10-5(9)12-6/h1-3H3,(H3,9,10,11,12,13)
Instrument: Q Exactive Plus Orbitrap Thermo Scientific
Instrument type: LC-ESI-QFT
Ms type: MS2
Ion mode: POSITIVE
Ionization: ESI
Fragmentation mode: HCD
Collision energy: 30% (nominal)
Resolution: 70000
Column name: Waters UPLC BEH C18 1.7 um 2.1 mm x 100 mm with pre-column
Retention time: 12.04 min
Precursor m/z: 202.0851
Precursor type: [M+H]+
m/z	relative intensity
57.0702	63
61.9794	28
68.0244	353
79.0058	590
85.051	5
104.001	513
110.0462	247
146.0228	999
