Mass spectrum: Atrazine-desethyl (PROBABLE); LC-ESI-QFT; MS2; CE: 30%; R=70000; [M+H]+
Name: Atrazine-desethyl
Name: 6-chloro-N2-(propan-2-yl)-1,3,5-triazine-2,4-diamine
Formula: C6H10ClN5
Exact mass: 187.0624
SMILES: CC(C)NC1=NC(=NC(=N1)N)Cl
InChI: InChI=1S/C6H10ClN5/c1-3(2)9-6-11-4(7)10-5(8)12-6/h3H,1-2H3,(H3,8,9,10,11,12)
Instrument: Q Exactive Plus Orbitrap Thermo Scientific
Instrument type: LC-ESI-QFT
Ms type: MS2
Ion mode: POSITIVE
Ionization: ESI
Fragmentation mode: HCD
Collision energy: 30% (nominal)
Resolution: 70000
Column name: Waters UPLC BEH C18 1.7 um 2.1 mm x 100 mm with pre-column
Retention time: 9.81 min
Precursor m/z: 188.0702
Precursor type: [M+H]+
m/z	relative intensity
61.9794	71
68.0244	600
79.0057	999
85.0509	6
104.0009	974
110.0461	284
146.0227	777
188.0699	15
