Mass spectrum: Phenazone; LC-ESI-ITFT; MS2; CE: 80%; R=7500; [M+H]+
Name: Phenazone
Name: 1,5-Dimethyl-2-phenyl-1,2-dihydro-3H-pyrazol-3-one
Formula: C11H12N2O
Exact mass: 188.095
SMILES: CN1N(C(=O)C=C1C)C1=CC=CC=C1
InChI: InChI=1S/C11H12N2O/c1-9-8-11(14)13(12(9)2)10-6-4-3-5-7-10/h3-8H,1-2H3
Instrument: LTQ Orbitrap XL Thermo Fisher Scientific
Instrument type: LC-ESI-ITFT
Ms type: MS2
Ion mode: POSITIVE
Ionization: ESI
Fragmentation mode: HCD
Collision energy: 80% (nominal)
Resolution: 7500
Column name: Hypersil GOLD C18 1.9 um 100 x 2.1 mm Thermo Fisher Scientific
Precursor m/z: 189.1023
Precursor type: [M+H]+
m/z	relative intensity
56.0494	176
57.2346	11
57.2565	12
58.065	159
65.0385	44
68.0494	5
69.0571	12
70.0651	7
77.0385	83
79.0539	13
81.0448	37
91.0541	92
92.0494	27
93.057	11
94.0652	14
95.049	20
95.0605	50
96.0682	168
98.0601	95
103.0543	44
104.0496	557
106.0652	426
111.055	11
115.0542	39
117.0699	174
118.0652	241
120.0809	190
129.0574	32
130.0652	288
131.073	307
132.0442	12
132.0808	138
133.0522	49
134.0963	38
135.0553	6
143.073	17
144.081	260
145.0648	101
145.0764	85
146.084	268
147.0917	479
148.0753	17
149.0709	34
157.0523	43
158.0604	14
159.0921	16
160.0998	16
161.1075	151
172.0758	44
173.0711	20
174.0789	213
189.1023	999
