Mass spectrum: Dibucaine; LC-ESI-ITFT; MS2; CE: 70%; R=15000; [M+H]+
Name: Dibucaine
Name: 2-butoxy-N-[2-(diethylamino)ethyl]quinoline-4-carboxamide
Formula: C20H29N3O2
Exact mass: 343.2260
SMILES: CCCCOC1=NC2=CC=CC=C2C(=C1)C(=O)NCCN(CC)CC
InChI: InChI=1S/C20H29N3O2/c1-4-7-14-25-19-15-17(16-10-8-9-11-18(16)22-19)20(24)21-12-13-23(5-2)6-3/h8-11,15H,4-7,12-14H2,1-3H3,(H,21,24)
Instrument: LTQ Orbitrap XL Thermo Scientific
Instrument type: LC-ESI-ITFT
Ms type: MS2
Ion mode: POSITIVE
Ionization: ESI
Fragmentation mode: HCD
Collision energy: 70% (nominal)
Resolution: 15000
Column name: Kinetex Evo C18 2.6 um 50 x 2.1 mm
Retention time: 8.748 min
Base peak: 344.2335
Precursor m/z: 344.2333
Precursor type: [M+H]+
m/z	relative intensity	assigned
70.0285	5	C3H4NO+
72.0806	30	C4H10N+
74.0963	52	C4H12N+
86.0961	4	C5H12N+
100.1121	115	C6H14N+
116.0495	545	C8H6N+
128.0493	5	C9H6N+
130.0651	10	C9H8N+
132.044	7	C8H6NO+
144.0444	622	C9H6NO+
145.0518	9	C9H7NO+
146.0601	36	C9H8NO+
156.0448	6	C10H6NO+
157.0886	6	C11H11N+
158.06	34	C10H8NO+
160.0756	10	C10H10NO+
170.0604	9	C11H8NO+
171.0553	172	C10H7N2O+
172.0393	646	C10H6NO2+
176.0701	5	C10H10NO2+
182.0966	9	C13H12N+
183.1044	6	C13H13N+
186.0794	4	C11H10N2O+
187.0865	44	C11H11N2O+
200.1068	22	C13H14NO+
215.0815	999	C12H11N2O2+
227.1177	33	C14H15N2O+
228.1018	61	C14H14NO2+
271.144	160	C16H19N2O2+
