Mass spectrum: Phenazone; ESI-QTOF; MS2; CE: 35eV; R=15000; [M+H]+
Name: Phenazone
Name: 1,5-Dimethyl-2-phenyl-1,2-dihydro-3H-pyrazol-3-one
Formula: C11H12N2O
Exact mass: 188.095
SMILES: CN1N(C(=O)C=C1C)C1=CC=CC=C1
InChI: InChI=1S/C11H12N2O/c1-9-8-11(14)13(12(9)2)10-6-4-3-5-7-10/h3-8H,1-2H3
Instrument: TripleTOF 5600+SCIEX
Instrument type: ESI-QTOF
Ms type: MS2
Ion mode: POSITIVE
Ionization: ESI
Fragmentation mode: CID
Collision energy: 35 eV
Resolution: 15000
Precursor m/z: 189.1023
Precursor type: [M+H]+
m/z	relative intensity
50.0177	5
51.0253	17
53.0409	3
54.036	5
55.0199	11
56.0162	1
56.0519	541
56.0632	42
57.059	1
58.0672	207
63.0244	1
65.0399	74
66.0476	1
67.0191	2
68.0506	11
69.0584	18
70.0661	6
77.0395	519
78.047	10
79.0548	43
80.05	4
81.0453	38
82.0292	2
83.0607	3
84.0448	1
86.0603	3
89.0387	4
90.0465	4
91.0543	103
92.0496	24
93.0336	11
93.0573	14
94.0651	18
95.0603	56
96.0446	9
96.0681	87
97.0396	1
98.0598	65
101.0383	3
102.046	14
103.0539	92
104.0493	599
105.057	26
105.0692	26
106.0648	567
107.0599	10
108.0679	1
111.0548	7
112.0624	2
113.0702	4
115.0536	162
116.0488	9
117.0577	142
117.0681	180
118.0644	255
119.0719	11
120.08	148
121.0752	6
127.0533	17
128.0487	35
128.0608	8
129.0563	69
130.0642	512
131.0705	311
132.0437	11
132.0679	114
133.0512	49
134.0464	12
134.0953	29
135.0543	6
143.0717	38
144.0796	249
145.0741	184
146.0829	238
147.0905	437
148.0742	12
149.0698	23
157.051	39
158.0587	11
159.0903	19
160.0982	13
161.106	85
162.09	3
172.0743	33
173.0695	30
174.0773	156
189.1023	999
