Mass spectrum: Phenazone; LC-ESI-QFT; MS2; CE: 55%; R=17500; [M+H]+
Name: Phenazone
Name: 1,5-Dimethyl-2-phenyl-1,2-dihydro-3H-pyrazol-3-one
Formula: C11H12N2O
Exact mass: 188.095
SMILES: CN1N(C(=O)C=C1C)C1=CC=CC=C1
InChI: InChI=1S/C11H12N2O/c1-9-8-11(14)13(12(9)2)10-6-4-3-5-7-10/h3-8H,1-2H3
Instrument: Q Exactive Thermo Fisher Scientific
Instrument type: LC-ESI-QFT
Ms type: MS2
Ion mode: POSITIVE
Ionization: ESI
Fragmentation mode: HCD
Collision energy: 55% (nominal)
Resolution: 17500
Column name: Hypersil GOLD 1.9 um 2.1 x 100 mm Thermo Fisher Scientific
Precursor m/z: 189.1023
Precursor type: [M+H]+
m/z	relative intensity
56.0504	240
58.066	300
91.0548	70
96.0688	129
98.0606	50
104.0501	302
106.0656	175
117.0703	72
118.0655	138
120.0811	106
130.0654	152
131.0732	204
132.081	85
144.081	163
145.0649	62
146.0841	166
147.0919	251
161.1075	108
174.079	119
189.1023	999
