Mass spectrum: Antipyrine; LC-ESI-ITFT; MS2; CE: 130%; R=15000; [M+H]+
Name: Antipyrine
Name: 1,5-dimethyl-2-phenylpyrazol-3-one
Formula: C11H12N2O
Exact mass: 188.0950
SMILES: CC1=CC(=O)N(N1C)C2=CC=CC=C2
InChI: InChI=1S/C11H12N2O/c1-9-8-11(14)13(12(9)2)10-6-4-3-5-7-10/h3-8H,1-2H3
Instrument: LTQ Orbitrap XL Thermo Scientific
Instrument type: LC-ESI-ITFT
Ms type: MS2
Ion mode: POSITIVE
Ionization: ESI
Fragmentation mode: HCD
Collision energy: 130% (nominal)
Resolution: 15000
Column name: Kinetex Evo C18 2.6 um 50 x 2.1 mm
Retention time: 5.578 min
Base peak: 189.1024
Precursor m/z: 189.1022
Precursor type: [M+H]+
m/z	relative intensity	assigned
54.0336	12	C3H4N+
55.0176	16	C3H3O+
55.0414	13	C3H5N+
56.0492	999	C3H6N+
58.0649	211	C3H8N+
65.0384	212	C5H5+
67.0177	12	C4H3O+
68.0493	20	C4H6N+
69.0572	14	C4H7N+
77.0386	840	C6H5+
78.0464	61	C6H6+
79.0542	149	C6H7+
80.0494	17	C5H6N+
81.0448	55	C4H5N2+
82.0288	18	C4H4NO+
89.0386	12	C7H5+
90.0339	13	C6H4N+
90.0465	21	C7H6+
91.0543	217	C7H7+
92.0495	39	C6H6N+
93.0573	35	C6H7N+
94.0414	7	C6H6O+
94.0651	23	C6H8N+
95.0492	171	C6H7O+
95.0604	65	C5H7N2+
96.0444	5	C5H6NO+
96.0682	20	C5H8N2+
98.0601	68	C5H8NO+
102.0465	45	C8H6+
103.0543	131	C8H7+
104.0496	335	C7H6N+
105.0448	575	C6H5N2+
106.0652	352	C7H8N+
115.0543	186	C9H7+
116.0496	11	C8H6N+
116.0622	11	C9H8+
117.0574	103	C8H7N+
117.0699	58	C9H9+
118.0652	89	C8H8N+
119.0604	11	C7H7N2+
120.0809	24	C8H10N+
128.0495	38	C9H6N+
129.0447	6	C8H5N2+
129.0573	50	C9H7N+
130.0652	233	C9H8N+
131.0604	180	C8H7N2+
131.073	34	C9H9N+
132.0445	12	C8H6NO+
132.0683	90	C8H8N2+
132.0809	11	C9H10N+
133.0523	13	C8H7NO+
134.0472	4	C7H6N2O+
143.0729	12	C10H9N+
144.0808	29	C10H10N+
145.0761	99	C9H9N2+
146.0599	9	C9H8NO+
146.0842	16	C9H10N2+
146.0966	5	C10H12N+
147.0917	32	C9H11N2+
