Mass spectrum: Desipramine; LC-ESI-ITFT; MS2; CE: 100%; R=15000; [M+H]+
Name: Desipramine
Name: 3-(5,6-dihydrobenzo[b][1]benzazepin-11-yl)-N-methylpropan-1-amine
Formula: C18H22N2
Exact mass: 266.1783
SMILES: CNCCCN1C2=CC=CC=C2CCC3=CC=CC=C31
InChI: InChI=1S/C18H22N2/c1-19-13-6-14-20-17-9-4-2-7-15(17)11-12-16-8-3-5-10-18(16)20/h2-5,7-10,19H,6,11-14H2,1H3
Instrument: LTQ Orbitrap XL Thermo Scientific
Instrument type: LC-ESI-ITFT
Ms type: MS2
Ion mode: POSITIVE
Ionization: ESI
Fragmentation mode: HCD
Collision energy: 100% (nominal)
Resolution: 15000
Column name: Kinetex Evo C18 2.6 um 50 x 2.1 mm
Retention time: 8.462 min
Base peak: 267.1854
Precursor m/z: 267.1856
Precursor type: [M+H]+
m/z	relative intensity	assigned
57.0571	61	C3H7N+
70.0649	7	C4H8N+
72.0807	999	C4H10N+
91.0542	29	C7H7+
103.054	4	C8H7+
115.0541	8	C9H7+
118.0652	14	C8H8N+
130.0651	12	C9H8N+
165.0698	18	C13H9+
166.0778	11	C13H10+
167.0727	20	C12H9N+
178.0778	10	C14H10+
180.0808	72	C13H10N+
192.0808	77	C14H10N+
193.0886	626	C14H11N+
194.0964	114	C14H12N+
196.1118	4	C14H14N+
206.0963	23	C15H12N+
207.1041	14	C15H13N+
208.112	75	C15H14N+
220.1115	22	C16H14N+
