Mass spectrum: Mycophenolic Acid; LC-ESI-ITFT; MS2; CE: 30%; R=7500; [M+H]+
Name: Mycophenolic Acid
Name: (E)-6-(4-hydroxy-6-methoxy-7-methyl-3-oxo-1H-2-benzofuran-5-yl)-4-methylhex-4-enoic acid
Formula: C17H20O6
Exact mass: 320.1260
SMILES: CC1=C2COC(=O)C2=C(C(=C1OC)C/C=C(\C)/CCC(=O)O)O
InChI: InChI=1S/C17H20O6/c1-9(5-7-13(18)19)4-6-11-15(20)14-12(8-23-17(14)21)10(2)16(11)22-3/h4,20H,5-8H2,1-3H3,(H,18,19)/b9-4+
Instrument: LTQ Orbitrap XL Thermo Scientific
Instrument type: LC-ESI-ITFT
Ms type: MS2
Ion mode: POSITIVE
Ionization: ESI
Fragmentation mode: HCD
Collision energy: 30 % (nominal)
Resolution: 7500
Column name: Hypersil GOLD C18 1.9 um 100 x 2.1 mm Thermo Fisher Scientific
Retention time: 19.426 min
Base peak: 321.1337
Precursor m/z: 321.1333
Precursor type: [M+H]+
Precursor intensity: 22637468.6123
m/z	relative intensity	assigned
73.0498	2	H9O4+
73.101	2	C5H13+
159.0434	4	C10H7O2+
195.0653	54	C10H11O4+
207.0652	999	C11H11O4+
223.0597	13	C11H11O5+
259.0971	2	C15H15O4+
261.112	2	C15H17O4+
275.1277	410	C16H19O4+
285.1122	53	C17H17O4+
303.1225	675	C17H19O5+
321.1331	169	C17H21O6+
