Mass spectrum: Etilefrine; LC-ESI-ITFT; MS2; CE: 115%; R=15000; [M+H]+
Name: Etilefrine
Name: 3-[2-(ethylamino)-1-hydroxyethyl]phenol
Formula: C10H15NO2
Exact mass: 181.1103
SMILES: CCNCC(C1=CC(=CC=C1)O)O
InChI: InChI=1S/C10H15NO2/c1-2-11-7-10(13)8-4-3-5-9(12)6-8/h3-6,10-13H,2,7H2,1H3
Instrument: LTQ Orbitrap XL Thermo Scientific
Instrument type: LC-ESI-ITFT
Ms type: MS2
Ion mode: POSITIVE
Ionization: ESI
Fragmentation mode: HCD
Collision energy: 115% (nominal)
Resolution: 15000
Column name: Kinetex Evo C18 2.6 um 50 x 2.1 mm
Retention time: 0.618 min
Base peak: 182.1177
Precursor m/z: 182.1176
Precursor type: [M+H]+
m/z	relative intensity	assigned
56.0492	14	C3H6N+
65.0384	70	C5H5+
77.0386	33	C6H5+
79.0542	27	C6H7+
80.0495	8	C5H6N+
81.0699	36	C6H9+
90.0462	9	C7H6+
91.0543	999	C7H7+
92.0495	11	C6H6N+
93.0573	13	C6H7N+
94.0413	50	C6H6O+
95.0494	8	C6H7O+
103.0543	27	C8H7+
104.0496	12	C7H6N+
105.0448	30	C6H5N2+
106.0651	45	C7H8N+
107.0492	139	C7H7O+
107.0731	11	C7H9N+
108.057	21	C7H8O+
108.0808	5	C7H10N+
109.0649	34	C7H9O+
117.0572	26	C8H7N+
118.0413	9	C8H6O+
118.0652	77	C8H8N+
119.0493	23	C8H7O+
120.0444	51	C7H6NO+
134.0601	181	C8H8NO+
135.0678	74	C8H9NO+
136.076	6	C8H10NO+
