Mass spectrum: Fumonisin B3; LC-ESI-ITFT; MS2; CE: 50%; R=7500; [M+H]+
Name: Fumonisin B3
Name: 2-Amino-3,10-dihydroxy-14,15-bis(3,4-dicarboxybutyryloxy)-12,16-dimethylicosane
Name: 2-[2-[19-amino-6-(3,4-dicarboxybutanoyloxy)-11,18-dihydroxy-5,9-dimethylicosan-7-yl]oxy-2-oxoethyl]butanedioic acid
Formula: C34H59NO14
Exact mass: 705.3936
SMILES: CCCCC(C)C(C(CC(C)CC(CCCCCCC(C(C)N)O)O)OC(=O)CC(CC(=O)O)C(=O)O)OC(=O)CC(CC(=O)O)C(=O)O
InChI: InChI=1S/C34H59NO14/c1-5-6-11-21(3)32(49-31(43)19-24(34(46)47)17-29(40)41)27(48-30(42)18-23(33(44)45)16-28(38)39)15-20(2)14-25(36)12-9-7-8-10-13-26(37)22(4)35/h20-27,32,36-37H,5-19,35H2,1-4H3,(H,38,39)(H,40,41)(H,44,45)(H,46,47)
Instrument: LTQ Orbitrap XL Thermo Scientific
Instrument type: LC-ESI-ITFT
Ms type: MS2
Ion mode: POSITIVE
Ionization: ESI
Fragmentation mode: HCD
Collision energy: 50 % (nominal)
Resolution: 7500
Column name: Hypersil GOLD C18 1.9 um 100 x 2.1 mm Thermo Fisher Scientific
Retention time: 22.242 min
Base peak: 706.4018
Precursor m/z: 706.4008
Precursor type: [M+H]+
Precursor intensity: 23140051.16699
m/z	relative intensity	assigned
55.0541	14	C4H7+
67.0542	22	C5H7+
69.0698	57	C5H9+
70.065	54	C4H8N+
74.06	84	C3H8NO+
81.0697	91	C6H9+
83.0854	37	C6H11+
93.0698	43	C7H9+
95.0854	139	C7H11+
96.0803	13	C6H10N+
97.1013	28	C7H13+
105.0699	13	C8H9+
107.0855	71	C8H11+
109.1011	144	C8H13+
113.0233	133	C5H5O3+
119.085	26	C9H11+
121.1012	74	C9H13+
123.1166	82	C9H15+
133.1012	41	C10H13+
135.1169	76	C10H15+
137.1324	26	C10H17+
141.0182	278	C6H5O4+
147.1168	63	C11H15+
149.1326	91	C11H17+
151.148	30	C11H19+
159.0287	84	C6H7O5+
161.1318	24	C12H17+
163.1477	36	C12H19+
177.1646	18	C13H21+
189.1645	15	C14H21+
194.19	52	C13H24N+
203.1798	10	C15H23+
208.206	102	C14H26N+
220.2058	107	C15H26N+
234.2212	25	C16H28N+
238.2163	92	C15H28NO+
318.3151	999	C22H40N+
336.3257	897	C22H42NO+
354.3362	125	C22H44NO2+
