Mass spectrum: Dixyrazine ; ESI-QTOF; MS2; CE: 40eV; R=15000; [M+H]+
Name: Dixyrazine
Name: 2-(2-{4-[2-Methyl-3-(10H-phenothiazin-10-yl)propyl]piperazin-1-yl}ethoxy)ethan-1-ol
Formula: C24H33N3O2S
Exact mass: 427.2293
SMILES: CC(CN1CCN(CCOCCO)CC1)CN1C2=CC=CC=C2SC2=CC=CC=C12
InChI: InChI=1S/C24H33N3O2S/c1-20(18-26-12-10-25(11-13-26)14-16-29-17-15-28)19-27-21-6-2-4-8-23(21)30-24-9-5-3-7-22(24)27/h2-9,20,28H,10-19H2,1H3
Instrument: TripleTOF 5600+SCIEX
Instrument type: ESI-QTOF
Ms type: MS2
Ion mode: POSITIVE
Ionization: ESI
Fragmentation mode: CID
Collision energy: 40 eV
Resolution: 15000
Precursor m/z: 428.2367
Precursor type: [M+H]+
m/z	relative intensity
56.0521	1
58.0676	3
70.0669	9
82.0663	2
83.0615	1
84.0819	1
87.0451	11
97.0768	28
98.0849	122
99.0922	9
100.0763	1
101.1081	162
110.0842	5
111.0918	1
112.1122	4
113.1077	2
114.1281	1
118.0864	2
124.0216	1
125.1076	45
127.123	1
130.0862	1
131.0857	1
132.1019	1
139.1228	1
140.1307	10
141.1385	1
144.1019	17
146.1174	1
151.054	1
152.0618	1
155.1541	4
158.1173	1
167.154	1
172.1204	45
178.0648	1
179.0727	4
180.0806	58
185.1281	1
187.1444	510
198.0372	2
199.045	5
206.0965	1
212.0531	233
220.1121	3
221.1199	5
225.0605	1
229.1917	999
239.0765	1
254.1001	18
366.2001	1
428.2367	156
