Mass spectrum: Butyrolactone I; LC-ESI-ITFT; MS2; CE: 40%; R=7500; [M-H]-
Name: Butyrolactone I
Name: methyl 4-hydroxy-2-[[4-hydroxy-3-(3-methylbut-2-enyl)phenyl]methyl]-3-(4-hydroxyphenyl)-5-oxofuran-2-carboxylate
Formula: C24H24O7
Exact mass: 424.15220
SMILES: CC(=CCC1=C(C=CC(=C1)CC2(C(=C(C(=O)O2)O)C3=CC=C(C=C3)O)C(=O)OC)O)C
InChI: InChI=1S/C24H24O7/c1-14(2)4-6-17-12-15(5-11-19(17)26)13-24(23(29)30-3)20(21(27)22(28)31-24)16-7-9-18(25)10-8-16/h4-5,7-12,25-27H,6,13H2,1-3H3
Instrument: LTQ Orbitrap XL Thermo Scientific
Instrument type: LC-ESI-ITFT
Ms type: MS2
Ion mode: NEGATIVE
Ionization: ESI
Fragmentation mode: HCD
Collision energy: 40 % (nominal)
Resolution: 7500
Column name: Hypersil GOLD C18 1.9 um 100 x 2.1 mm Thermo Fisher Scientific
Retention time: 20.776 min
Base peak: 423.1437
Precursor m/z: 423.1449
Precursor type: [M-H]-
Precursor intensity: 536180.3808594
m/z	relative intensity	assigned
57.071	999	C4H9-
