Mass spectrum: Antipyrine; LC-ESI-ITFT; MS2; CE: 80%; R=15000; [M+H]+
Name: Antipyrine
Name: 1,5-dimethyl-2-phenylpyrazol-3-one
Formula: C11H12N2O
Exact mass: 188.0950
SMILES: CC1=CC(=O)N(N1C)C2=CC=CC=C2
InChI: InChI=1S/C11H12N2O/c1-9-8-11(14)13(12(9)2)10-6-4-3-5-7-10/h3-8H,1-2H3
Instrument: LTQ Orbitrap XL Thermo Scientific
Instrument type: LC-ESI-ITFT
Ms type: MS2
Ion mode: POSITIVE
Ionization: ESI
Fragmentation mode: HCD
Collision energy: 80% (nominal)
Resolution: 15000
Column name: Kinetex Evo C18 2.6 um 50 x 2.1 mm
Retention time: 5.578 min
Base peak: 189.1022
Precursor m/z: 189.1022
Precursor type: [M+H]+
m/z	relative intensity	assigned
65.0383	155	C5H5+
68.0493	31	C4H6N+
69.0572	29	C4H7N+
70.065	25	C4H8N+
77.0385	266	C6H5+
78.0463	7	C6H6+
79.0541	38	C6H7+
81.0447	77	C4H5N2+
86.0601	14	C4H8NO+
91.0542	179	C7H7+
92.0495	59	C6H6N+
93.0335	32	C6H5O+
93.0573	15	C6H7N+
94.0652	40	C6H8N+
95.0492	44	C6H7O+
95.0604	103	C5H7N2+
96.0443	46	C5H6NO+
96.0682	345	C5H8N2+
98.06	201	C5H8NO+
103.0542	96	C8H7+
104.0495	978	C7H6N+
105.0335	39	C7H5O+
105.0447	104	C6H5N2+
105.0573	48	C7H7N+
105.0699	47	C8H9+
106.0651	772	C7H8N+
111.0553	13	C5H7N2O+
115.0543	68	C9H7+
117.0573	115	C8H7N+
117.0699	278	C9H9+
118.0651	342	C8H8N+
119.0603	5	C7H7N2+
120.0808	265	C8H10N+
128.0495	10	C9H6N+
129.0573	59	C9H7N+
129.0701	8	C10H9+
130.0651	394	C9H8N+
131.0604	98	C8H7N2+
131.0729	408	C9H9N+
132.0682	74	C8H8N2+
132.0808	186	C9H10N+
133.0522	70	C8H7NO+
133.0761	52	C8H9N2+
134.0476	11	C7H6N2O+
134.0965	49	C9H12N+
135.0549	12	C7H7N2O+
143.073	26	C10H9N+
144.0808	333	C10H10N+
145.0648	146	C10H9O+
145.076	131	C9H9N2+
145.0887	13	C10H11N+
146.0838	352	C9H10N2+
146.0964	51	C10H12N+
147.0917	649	C9H11N2+
148.0755	25	C9H10NO+
149.0709	50	C8H9N2O+
155.0604	7	C10H7N2+
157.0521	66	C10H7NO+
158.0599	22	C10H8NO+
159.0557	20	C9H7N2O+
159.0918	21	C10H11N2+
160.0992	15	C10H12N2+
161.1073	186	C10H13N2+
172.0757	52	C11H10NO+
173.071	29	C10H9N2O+
174.0787	266	C10H10N2O+
189.1022	999	C11H13N2O+
