Mass spectrum: Metoclopramide; LC-ESI-ITFT; MS2; CE: 75%; R=15000; [M+H]+
Name: Metoclopramide
Name: 4-amino-5-chloro-N-[2-(diethylamino)ethyl]-2-methoxybenzamide
Formula: C14H22ClN3O2
Exact mass: 299.1401
SMILES: CCN(CC)CCNC(=O)C1=CC(=C(C=C1OC)N)Cl
InChI: InChI=1S/C14H22ClN3O2/c1-4-18(5-2)7-6-17-14(19)10-8-11(15)12(16)9-13(10)20-3/h8-9H,4-7,16H2,1-3H3,(H,17,19)
Instrument: LTQ Orbitrap XL Thermo Scientific
Instrument type: LC-ESI-ITFT
Ms type: MS2
Ion mode: POSITIVE
Ionization: ESI
Fragmentation mode: HCD
Collision energy: 75% (nominal)
Resolution: 15000
Column name: Kinetex Evo C18 2.6 um 50 x 2.1 mm
Retention time: 2.743 min
Base peak: 300.1474
Precursor m/z: 300.1473
Precursor type: [M+H]+
m/z	relative intensity	assigned
72.0807	4	C4H10N+
90.0339	10	C6H4N+
92.0494	3	C6H6N+
93.0573	10	C6H7N+
100.1121	26	C6H14N+
108.0443	2	C6H6NO+
113.0027	3	C5H4ClN+
120.0444	10	C7H6NO+
126.0105	32	C6H5ClN+
128.0261	18	C6H7ClN+
129.0104	3	C6H6ClO+
140.9976	69	C6H4ClNO+
144.0211	14	C6H7ClNO+
147.0554	6	C8H7N2O+
148.0631	27	C8H8N2O+
154.0054	16	C7H5ClNO+
156.0211	67	C7H7ClNO+
157.0249	1	C2H8ClN3O3+
168.0085	76	C7H5ClN2O+
168.9925	43	C7H4ClNO2+
170.0004	19	C7H5ClNO2+
182.0243	11	C8H7ClN2O+
183.0321	234	C8H8ClN2O+
184.016	999	C8H7ClNO2+
187.003	14	C7H6ClNO3+
211.0269	10	C9H8ClN2O2+
212.0347	284	C9H9ClN2O2+
227.0581	232	C10H12ClN2O2+
