Mass spectrum: Metoclopramide; LC-ESI-QFT; MS2; CE: CE75; R=17500; [M+H]+
Name: Metoclopramide
Name: 4-amino-5-chloro-N-[2-(diethylamino)ethyl]-2-methoxybenzamide
Formula: C14H22ClN3O2
Exact mass: 299.1401
SMILES: CCN(CC)CCNC(=O)C1=CC(Cl)=C(N)C=C1OC
InChI: InChI=1S/C14H22ClN3O2/c1-4-18(5-2)7-6-17-14(19)10-8-11(15)12(16)9-13(10)20-3/h8-9H,4-7,16H2,1-3H3,(H,17,19)
Instrument: Q Exactive Thermo Fisher Scientific
Instrument type: LC-ESI-QFT
Ms type: MS2
Ion mode: POSITIVE
Ionization: ESI
Fragmentation mode: HCD
Collision energy: CE75
Resolution: 17500
Column name: Acquity UPLC BEH C18 1.7 um, 2.1 x 150 mm, Waters
Retention time: 14.388 min
Base peak: 223.0628
Precursor m/z: 300.1473
Precursor type: [M+H]+
m/z	relative intensity	assigned
50.0156	10	C4H2+
51.0234	23	C4H3+
52.0185	24	C3H2N+
53.0025	7	ClH4N+
53.0263	5	C3H3N+
54.0342	178	C3H4N+
61.992	4	C2H3Cl+
62.0151	6	C5H2+
63.0233	253	C5H3+
64.0184	29	C4H2N+
65.0386	56	C5H5+
66.0468	25	C5H6+
68.0134	6	ClH5N2+
72.081	4	C4H10N+
72.984	68	C3H2Cl+
75.0232	6	C6H3+
76.018	2	C5H2N+
78.034	999	C5H4N+
80.0496	19	C5H6N+
81.0336	63	C5H5O+
82.0288	256	C4H4NO+
86.9996	3	C4H4Cl+
87.995	105	C3H3ClN+
88.9788	6	C3H2ClO+
90.0109	36	C3H5ClN+
90.0335	156	C6H4N+
91.042	26	C6H5N+
92.0498	26	C6H6N+
93.0576	114	C6H7N+
94.0411	8	C6H6O+
96.0442	17	C5H6NO+
99	118	C5H4Cl+
99.0318	6	CH8ClN2O+
99.9952	8	C4H3ClN+
101.015	6	C5H6Cl+
102.0105	3	C4H5ClN+
105.0448	112	C6H5N2+
108.0438	85	C6H6NO+
113.0023	60	C8HO+
114.0107	24	C5H5ClN+
115.9901	84	C4H3ClNO+
118.0057	8	C4H5ClNO+
119.0609	23	C7H7N2+
120.0444	18	C7H6NO+
121.0525	3	C4H10ClN2+
124.039	12	C6H6NO2+
126.0113	14	C6H5ClN+
127.018	31	C9H3O+
128.0266	19	C6H7ClN+
128.9976	8	C5H4ClNO+
129.0101	24	C6H6ClO+
139.0053	10	C9HNO+
140.0135	48	C6H5ClN2+
140.9978	422	C6H4ClNO+
142.0054	3	C6H5ClNO+
144.0203	16	C9H4O2+
144.9926	78	C5H4ClNO2+
147.0548	7	C8H7N2O+
153.021	9	C10H3NO+
154.0063	16	C7H5ClNO+
156.02	19	C10H4O2+
158.9939	3	C5H4ClN2O2+
168.0094	136	C7H5ClN2O+
170.0002	15	C7H5ClNO2+
170.0356	12	C11H6O2+
171.0327	12	C7H8ClN2O+
172.0322	2	C14H4+
173.0103	9	C6H6ClN2O2+
181.0169	11	C8H6ClN2O+
183.032	4	C8H8ClN2O+
184.0156	22	C8H7ClNO2+
216.9819	5	C10H2ClN2O2+
228.0222	5	C13H7ClNO+
229.0185	5	C12H6ClN2O+
230.0014	6	C12H5ClNO2+
230.0213	6	C12H7ClN2O+
230.9973	6	C11H4ClN2O2+
